drugbank_target|P35916 Vascular endothelial growth factor receptor 3 (DB00398; DB01268; DB04879; DB05075; DB05932; DB06080; DB06101; DB06589; DB06626; DB08896; DB09078; DB09079; DB12010; DB15685)
 OpenBabel12092119223D

  0  0  0     0  0            999 V3000
M  V30 BEGIN CTAB
M  V30 COUNTS 21275 21527 0 0 0
M  V30 BEGIN ATOM
M  V30 1 H -0.908 1.98254 -0.117106 0
M  V30 2 N 0 1.576 0 0
M  V30 3 C 0.933 2.03868 1.02534 0
M  V30 4 C 1.911 0.928543 1.3348 0
M  V30 5 O 3.095 1.19667 1.45644 0
M  V30 6 C 0.222 2.43627 2.35294 0
M  V30 7 C -0.732 3.65373 2.2001 0
M  V30 8 S 0.101 5.13292 1.52614 0
M  V30 9 C 1.257 5.56322 2.86805 0
M  V30 10 H 1.49 2.90518 0.631377 0
M  V30 11 H -0.977 1.52953 0.210867 0
M  V30 12 H 0.981 2.67203 3.11629 0
M  V30 13 H -0.358 1.57376 2.7183 0
M  V30 14 H -1.165 3.90944 3.18086 0
M  V30 15 H -1.563 3.418 1.51819 0
M  V30 16 H 0.729 5.58782 3.83104 0
M  V30 17 H 1.672 6.56266 2.65933 0
M  V30 18 H 2.08 4.83886 2.90714 0
M  V30 19 N 1.4781 -0.272755 1.55222 0
M  V30 20 C 2.4101 -1.35946 1.8453 0
M  V30 21 C 3.4231 -1.45525 0.729818 0
M  V30 22 O 4.6121 -1.47337 1.00767 0
M  V30 23 C 1.7121 -2.74069 1.99347 0
M  V30 24 C 0.8851 -2.87079 3.30007 0
M  V30 25 C -0.0559 -4.05879 3.34886 0
M  V30 26 O -1.0299 -3.96626 4.08261 0
M  V30 27 N 0.1721 -5.17857 2.62307 0
M  V30 28 H 2.9371 -1.11149 2.78327 0
M  V30 29 H 0.4981 -0.462869 1.55142 0
M  V30 30 H 2.4901 -3.51838 1.99981 0
M  V30 31 H 1.0601 -2.91688 1.12415 0
M  V30 32 H 0.2801 -1.96193 3.41909 0
M  V30 33 H 1.5681 -2.92701 4.16177 0
M  V30 34 H 0.9661 -5.28261 2.02377 0
M  V30 35 H -0.4769 -5.93855 2.68663 0
M  V30 36 N 2.9562 -1.48159 -0.537278 0
M  V30 37 C 4.3722 -1.34118 -0.865129 0
M  V30 38 C 4.5722 -0.346678 -1.98495 0
M  V30 39 O 3.6282 0.234715 -2.51407 0
M  V30 40 C 4.9412 -2.73963 -1.23954 0
M  V30 41 C 6.4892 -2.82397 -1.34984 0
M  V30 42 C 6.9642 -4.22928 -1.75772 0
M  V30 43 N 8.4552 -4.25566 -1.82887 0
M  V30 44 C 9.1902 -5.31235 -2.15817 0
M  V30 45 N 8.6862 -6.47189 -2.47222 0
M  V30 46 N 10.4792 -5.18624 -2.16761 0
M  V30 47 H 2.6302 -2.1144 0.201715 0
M  V30 48 H 4.8932 -0.947598 0.0275949 0
M  V30 49 H 4.5992 -3.48264 -0.490381 0
M  V30 50 H 4.4732 -3.0702 -2.19132 0
M  V30 51 H 6.8602 -2.08356 -2.08978 0
M  V30 52 H 6.9412 -2.5297 -0.379448 0
M  V30 53 H 6.5852 -4.97482 -1.02341 0
M  V30 54 H 6.5152 -4.49794 -2.73848 0
M  V30 55 H 9.0062 -3.41924 -1.60924 0
M  V30 56 H 9.3192 -7.23564 -2.71433 0
M  V30 57 H 7.6642 -6.50476 -2.44757 0
M  V30 58 H 10.8552 -4.27056 -1.91679 0
M  V30 59 H 11.0282 -6.01078 -2.42093 0
M  V30 60 N 4.4343 0.785586 -1.36625 0
M  V30 61 C 5.6823 1.54057 -1.30808 0
M  V30 62 C 6.0033 1.94683 0.111157 0
M  V30 63 O 5.2733 1.65241 1.05224 0
M  V30 64 H 3.8533 0.571354 -0.481211 0
M  V30 65 H 6.5153 0.935821 -1.70963 0
M  V30 66 H 5.6113 2.44637 -1.93801 0
M  V30 67 N 5.9124 1.20967 1.01018 0
M  V30 68 C 6.8754 0.965918 2.07853 0
M  V30 69 C 7.8754 -0.0610545 1.60684 0
M  V30 70 O 9.0654 0.175681 1.73312 0
M  V30 71 C 6.1974 0.455513 3.37843 0
M  V30 72 H 7.3904 1.91365 2.3091 0
M  V30 73 H 4.9434 1.02594 1.17916 0
M  V30 74 H 5.6784 -0.497381 3.20463 0
M  V30 75 H 5.4634 1.19622 3.73407 0
M  V30 76 H 6.9534 0.304667 4.16487 0
M  V30 77 N 7.3905 -1.2043 1.01659 0
M  V30 78 C 8.3535 -2.21433 0.591616 0
M  V30 79 C 9.3535 -1.57203 -0.338226 0
M  V30 80 O 10.5435 -1.73737 -0.126918 0
M  V30 81 C 7.6755 -3.40628 -0.136058 0
M  V30 82 H 8.8685 -2.60545 1.48514 0
M  V30 83 H 6.4215 -1.33893 0.806379 0
M  V30 84 H 7.1565 -3.07019 -1.04449 0
M  V30 85 H 6.9415 -3.88475 0.531917 0
M  V30 86 H 8.4315 -4.15475 -0.420735 0
M  V30 87 N 8.8686 -0.792821 -1.36206 0
M  V30 88 C 9.7986 -0.207853 -2.32573 0
M  V30 89 C 10.7796 0.659055 -1.56813 0
M  V30 90 O 11.9646 0.592176 -1.84951 0
M  V30 91 C 9.0946 0.655449 -3.41059 0
M  V30 92 C 8.0486 -0.111842 -4.27854 0
M  V30 93 C 7.3746 0.872274 -5.27537 0
M  V30 94 C 8.6746 -1.30299 -5.05786 0
M  V30 95 H 10.3686 -1.01294 -2.81744 0
M  V30 96 H 7.9146 -0.48854 -1.3546 0
M  V30 97 H 9.8676 1.07464 -4.07467 0
M  V30 98 H 8.5916 1.49328 -2.90463 0
M  V30 99 H 7.2506 -0.512053 -3.63006 0
M  V30 100 H 6.8986 1.70523 -4.73214 0
M  V30 101 H 6.5986 0.363291 -5.86476 0
M  V30 102 H 8.1226 1.28996 -5.96818 0
M  V30 103 H 9.5366 -0.959379 -5.65216 0
M  V30 104 H 7.9336 -1.7455 -5.74154 0
M  V30 105 H 9.0036 -2.09663 -4.37229 0
M  V30 106 N 10.3467 1.47872 -0.545128 0
M  V30 107 C 11.5867 2.04391 -0.0187854 0
M  V30 108 C 11.9507 1.41162 1.30144 0
M  V30 109 O 13.1517 1.88656 1.91474 0
M  V30 110 C 11.4227 3.57299 0.0850867 0
M  V30 111 S 12.9817 4.35221 0.559302 0
M  V30 112 H 9.7997 0.710737 -0.0193301 0
M  V30 113 H 12.4017 1.81395 -0.729125 0
M  V30 114 H 11.1057 4.00847 -0.880351 0
M  V30 115 H 10.6367 3.84773 0.819348 0
M  V30 116 H 12.6517 4.61571 1.82118 0
M  V30 117 N 11.8248 0.280983 1.55075 0
M  V30 118 C 12.7548 -0.597469 2.25727 0
M  V30 119 C 13.7358 -1.15417 1.24952 0
M  V30 120 O 14.9208 -1.18722 1.53684 0
M  V30 121 C 12.0508 -1.7789 2.98283 0
M  V30 122 C 11.0048 -1.35347 4.06036 0
M  V30 123 C 10.3308 -2.61846 4.66198 0
M  V30 124 C 11.6308 -0.499354 5.19907 0
M  V30 125 H 13.3248 -0.00824265 2.99399 0
M  V30 126 H 10.8708 -0.0025244 1.44 0
M  V30 127 H 12.8238 -2.39937 3.46422 0
M  V30 128 H 11.5478 -2.39405 2.22155 0
M  V30 129 H 10.2068 -0.756156 3.58717 0
M  V30 130 H 9.8548 -3.21632 3.86732 0
M  V30 131 H 9.5548 -2.3409 5.38958 0
M  V30 132 H 11.0788 -3.24732 5.1709 0
M  V30 133 H 12.4928 -1.02498 5.64063 0
M  V30 134 H 10.8898 -0.316424 5.99265 0
M  V30 135 H 11.9598 0.480459 4.82514 0
M  V30 136 N 13.3029 -1.57598 0.00835791 0
M  V30 137 C 14.7189 -1.55764 -0.347822 0
M  V30 138 C 14.9189 -1.01186 -1.74252 0
M  V30 139 O 13.9749 -0.649371 -2.44007 0
M  V30 140 C 15.2879 -2.99927 -0.215407 0
M  V30 141 C 16.8359 -3.11656 -0.289725 0
M  V30 142 C 17.3109 -4.57621 -0.18634 0
M  V30 143 N 18.8019 -4.62557 -0.243978 0
M  V30 144 C 19.5369 -5.73094 -0.18745 0
M  V30 145 N 19.0329 -6.92753 -0.0810331 0
M  V30 146 N 20.8259 -5.61588 -0.239925 0
M  V30 147 H 12.9769 -1.91411 0.92062 0
M  V30 148 H 15.2399 -0.879562 0.353659 0
M  V30 149 H 14.9459 -3.43729 0.744512 0
M  V30 150 H 14.8199 -3.63865 -0.994097 0
M  V30 151 H 17.2069 -2.67779 -1.24009 0
M  V30 152 H 17.2879 -2.5048 0.51898 0
M  V30 153 H 16.9319 -5.02174 0.760519 0
M  V30 154 H 16.8619 -5.16752 -1.01364 0
M  V30 155 H 19.3529 -3.76481 -0.327217 0
M  V30 156 H 19.6659 -7.72787 -0.0440241 0
M  V30 157 H 18.0109 -6.94984 -0.0465419 0
M  V30 158 H 21.2019 -4.66996 -0.321317 0
M  V30 159 H 21.3749 -6.47714 -0.192407 0
M  V30 160 N 14.781 0.264519 -1.55364 0
M  V30 161 C 15.711 1.33121 -1.91836 0
M  V30 162 C 16.692 1.51101 -0.781192 0
M  V30 163 O 17.877 1.64003 -1.04003 0
M  V30 164 C 15.007 2.68921 -2.19769 0
M  V30 165 C 13.961 2.65661 -3.35571 0
M  V30 166 C 13.287 4.05093 -3.49004 0
M  V30 167 C 14.587 2.24187 -4.71739 0
M  V30 168 H 16.281 1.02844 -2.81182 0
M  V30 169 H 13.827 0.493286 -1.35287 0
M  V30 170 H 15.78 3.43663 -2.43872 0
M  V30 171 H 14.504 3.00799 -1.27231 0
M  V30 172 H 13.163 1.93377 -3.1145 0
M  V30 173 H 12.811 4.34206 -2.53917 0
M  V30 174 H 12.511 4.03804 -4.26868 0
M  V30 175 H 14.035 4.81561 -3.75408 0
M  V30 176 H 15.449 2.88654 -4.9533 0
M  V30 177 H 13.846 2.34044 -5.52579 0
M  V30 178 H 14.916 1.19327 -4.69988 0
M  V30 179 N 16.2591 1.48442 0.529413 0
M  V30 180 C 17.5051 1.57699 1.28463 0
M  V30 181 C 17.8601 0.247913 1.90796 0
M  V30 182 O 17.1531 -0.749279 1.76342 0
M  V30 183 C 17.3471 2.6523 2.39558 0
M  V30 184 C 17.1761 4.08464 1.88114 0
M  V30 185 C 15.9461 4.75596 1.70693 0
M  V30 186 C 18.1441 4.94613 1.40935 0
M  V30 187 N 16.1261 6.03245 1.13881 0
M  V30 188 C 17.4971 6.12511 0.960734 0
M  V30 189 C 19.5521 4.80833 1.29243 0
M  V30 190 C 18.2551 7.18149 0.406792 0
M  V30 191 C 20.2811 5.86593 0.752487 0
M  V30 192 C 19.6431 7.037 0.313946 0
M  V30 193 H 15.7421 0.631608 0.46108 0
M  V30 194 H 18.3261 1.85325 0.596886 0
M  V30 195 H 16.4971 2.39425 3.05827 0
M  V30 196 H 18.2291 2.64169 3.06589 0
M  V30 197 H 14.9841 4.31938 1.94232 0
M  V30 198 H 15.4081 6.71324 0.874831 0
M  V30 199 H 20.0501 3.90635 1.61754 0
M  V30 200 H 17.7681 8.0807 0.0693671 0
M  V30 201 H 21.3541 5.77985 0.665192 0
M  V30 202 H 20.2341 7.8414 -0.0973632 0
M  V30 203 N 17.7372 -0.778329 1.37039 0
M  V30 204 C 18.6672 -1.90546 1.34962 0
M  V30 205 C 19.6482 -1.68681 0.219274 0
M  V30 206 O 20.8332 -1.89634 0.418624 0
M  V30 207 C 17.9632 -3.27734 1.14925 0
M  V30 208 C 16.9172 -3.64147 2.24902 0
M  V30 209 C 16.2432 -4.99806 1.89996 0
M  V30 210 C 17.5432 -3.71579 3.67051 0
M  V30 211 H 19.2372 -1.92541 2.29277 0
M  V30 212 H 16.7832 -0.924948 1.10366 0
M  V30 213 H 18.7362 -4.06215 1.12104 0
M  V30 214 H 17.4602 -3.26154 0.170631 0
M  V30 215 H 16.1192 -2.8797 2.26868 0
M  V30 216 H 15.7672 -4.94759 0.906796 0
M  V30 217 H 15.4672 -5.25139 2.63634 0
M  V30 218 H 16.9912 -5.80694 1.88749 0
M  V30 219 H 18.4052 -4.40227 3.67251 0
M  V30 220 H 16.8022 -4.08405 4.39688 0
M  V30 221 H 17.8722 -2.72404 4.01154 0
M  V30 222 N 19.2153 -1.21501 -1.00376 0
M  V30 223 C 20.4553 -1.04444 -1.75701 0
M  V30 224 C 20.8193 0.414644 -1.87469 0
M  V30 225 O 22.0203 0.705763 -2.59369 0
M  V30 226 C 20.2913 -1.72389 -3.13077 0
M  V30 227 S 21.8503 -1.70604 -4.04277 0
M  V30 228 H 18.6683 -0.374249 -0.604532 0
M  V30 229 H 21.2703 -1.54267 -1.20091 0
M  V30 230 H 19.9743 -2.77734 -3.02146 0
M  V30 231 H 19.5053 -1.22751 -3.73759 0
M  V30 232 H 21.5203 -0.748012 -4.9053 0
M  V30 233 N 20.6934 1.19889 -1.02296 0
M  V30 234 C 21.6234 2.25141 -0.619174 0
M  V30 235 C 22.6044 1.66051 0.368915 0
M  V30 236 O 23.7894 1.92546 0.252941 0
M  V30 237 C 20.9194 3.4728 0.0368783 0
M  V30 238 C 19.8734 4.19005 -0.872865 0
M  V30 239 C 19.1994 5.34637 -0.0822402 0
M  V30 240 C 20.4994 4.74452 -2.18387 0
M  V30 241 H 22.1934 2.59171 -1.49903 0
M  V30 242 H 19.7394 1.24579 -0.722222 0
M  V30 243 H 21.6924 4.20098 0.330958 0
M  V30 244 H 20.4164 3.12433 0.95149 0
M  V30 245 H 19.0754 3.48061 -1.15105 0
M  V30 246 H 18.7234 4.96034 0.83422 0
M  V30 247 H 18.4234 5.83557 -0.688149 0
M  V30 248 H 19.9474 6.10255 0.205238 0
M  V30 249 H 21.3614 5.39055 -1.95172 0
M  V30 250 H 19.7584 5.33834 -2.74119 0
M  V30 251 H 20.8284 3.92844 -2.84257 0
M  V30 252 N 22.1715 0.800033 1.35784 0
M  V30 253 C 23.4195 0.376597 1.9856 0
M  V30 254 C 23.7405 -1.05812 1.63795 0
M  V30 255 O 23.0105 -1.73103 0.917171 0
M  V30 256 H 21.5905 0.136261 0.734467 0
M  V30 257 H 24.2525 1.02442 1.65806 0
M  V30 258 H 23.3485 0.477002 3.08433 0
M  V30 259 N 23.6496 -1.47581 0.552962 0
M  V30 260 C 24.5796 -2.32762 -0.185451 0
M  V30 261 C 25.5606 -1.43527 -0.912905 0
M  V30 262 O 26.7456 -1.72388 -0.894201 0
M  V30 263 C 23.8756 -3.25219 -1.21859 0
M  V30 264 C 22.8296 -4.23661 -0.607864 0
M  V30 265 C 22.1556 -5.05413 -1.74533 0
M  V30 266 C 23.4556 -5.20481 0.435582 0
M  V30 267 H 25.1496 -2.94749 0.525684 0
M  V30 268 H 22.6956 -1.41738 0.254251 0
M  V30 269 H 24.6486 -3.8365 -1.7433 0
M  V30 270 H 23.3726 -2.61279 -1.95961 0
M  V30 271 H 22.0316 -3.66451 -0.104489 0
M  V30 272 H 21.6796 -4.3788 -2.47529 0
M  V30 273 H 21.3796 -5.72059 -1.34249 0
M  V30 274 H 22.9036 -5.66701 -2.27338 0
M  V30 275 H 24.3176 -5.733 -0.00290157 0
M  V30 276 H 22.7146 -5.95305 0.757067 0
M  V30 277 H 23.7846 -4.66217 1.33303 0
M  V30 278 N 25.1277 -0.289203 -1.54924 0
M  V30 279 C 26.0577 0.58549 -2.2604 0
M  V30 280 C 27.0387 1.14753 -1.25562 0
M  V30 281 O 28.2237 1.17906 -1.54311 0
M  V30 282 C 25.3537 1.76305 -2.99222 0
M  V30 283 C 24.3077 1.33191 -4.06748 0
M  V30 284 C 23.6337 2.5937 -4.6758 0
M  V30 285 C 24.9337 0.471775 -5.20165 0
M  V30 286 H 26.6277 -0.00763532 -2.99399 0
M  V30 287 H 24.1737 -0.00511229 -1.43999 0
M  V30 288 H 26.1267 2.38097 -3.47689 0
M  V30 289 H 24.8507 2.38223 -2.23422 0
M  V30 290 H 23.5097 0.737121 -3.59113 0
M  V30 291 H 23.1577 3.19576 -3.88433 0
M  V30 292 H 22.8577 2.31228 -5.40192 0
M  V30 293 H 24.3817 3.21985 -5.18804 0
M  V30 294 H 25.7957 0.995056 -5.64599 0
M  V30 295 H 24.1927 0.284639 -5.99425 0
M  V30 296 H 25.2627 -0.506041 -4.82252 0
M  V30 297 N 26.6058 1.57591 -0.0167156 0
M  V30 298 C 27.8828 1.82547 0.702564 0
M  V30 299 C 28.2628 0.898018 1.91047 0
M  V30 300 O 27.6108 -0.0493456 2.28447 0
M  V30 301 C 27.8208 3.31459 1.09251 0
M  V30 302 C 29.1688 3.97622 1.48937 0
M  V30 303 O 30.1928 3.35881 1.18584 0
M  V30 304 O 29.0518 5.06415 2.05442 0
M  V30 305 H 26.1458 0.752268 0.343544 0
M  V30 306 H 28.6918 1.69644 -0.0434495 0
M  V30 307 H 27.4638 3.9061 0.23227 0
M  V30 308 H 27.0868 3.49422 1.89709 0
M  V30 309 N 28.0839 -0.256276 1.55502 0
M  V30 310 C 29.3319 -0.983672 1.76545 0
M  V30 311 C 29.6529 -1.86206 0.578982 0
M  V30 312 O 28.9229 -1.91656 -0.405577 0
M  V30 313 H 27.5029 -0.366191 0.651086 0
M  V30 314 H 30.1649 -0.276479 1.92929 0
M  V30 315 H 29.2609 -1.61087 2.67315 0
M  V30 316 N 29.562 -1.4872 -0.521534 0
M  V30 317 C 30.492 -1.66771 -1.63431 0
M  V30 318 C 31.473 -0.516499 -1.62069 0
M  V30 319 O 32.658 -0.750013 -1.79132 0
M  V30 320 C 29.788 -1.71515 -3.01993 0
M  V30 321 C 28.742 -2.86222 -3.18216 0
M  V30 322 C 28.068 -2.76061 -4.57924 0
M  V30 323 C 29.368 -4.27419 -3.00184 0
M  V30 324 H 31.062 -2.59932 -1.48579 0
M  V30 325 H 28.608 -1.25089 -0.713358 0
M  V30 326 H 30.561 -1.82731 -3.7972 0
M  V30 327 H 29.285 -0.749393 -3.17886 0
M  V30 328 H 27.944 -2.74575 -2.42908 0
M  V30 329 H 27.592 -1.77437 -4.70665 0
M  V30 330 H 27.292 -3.53037 -4.69722 0
M  V30 331 H 28.816 -2.89256 -5.37739 0
M  V30 332 H 30.23 -4.39855 -3.67697 0
M  V30 333 H 28.627 -5.05458 -3.2347 0
M  V30 334 H 29.697 -4.43293 -1.96518 0
M  V30 335 N 31.0401 0.771051 -1.3745 0
M  V30 336 C 32.2861 1.5319 -1.32894 0
M  V30 337 C 32.6191 1.94008 0.0862511 0
M  V30 338 O 31.8941 1.64124 1.04373 0
M  V30 339 C 32.1771 2.79648 -2.26868 0
M  V30 340 C 32.0301 2.45079 -3.77169 0
M  V30 341 C 33.3491 3.81583 -2.19277 0
M  V30 342 H 30.4681 0.555744 -0.484064 0
M  V30 343 H 33.1101 0.884492 -1.68157 0
M  V30 344 H 31.2601 3.34891 -1.96926 0
M  V30 345 H 32.9321 1.95745 -4.1771 0
M  V30 346 H 31.1751 1.77767 -3.95704 0
M  V30 347 H 31.8461 3.35478 -4.38359 0
M  V30 348 H 34.3221 3.35835 -2.45671 0
M  V30 349 H 33.1981 4.67787 -2.87171 0
M  V30 350 H 33.4591 4.25897 -1.18592 0
M  V30 351 N 32.5182 1.22032 0.997298 0
M  V30 352 C 33.7432 1.06921 1.77715 0
M  V30 353 C 34.1682 -0.376226 1.84299 0
M  V30 354 O 33.5262 -1.27165 1.29223 0
M  V30 355 C 33.5742 1.67996 3.19076 0
M  V30 356 O 32.6782 0.930653 4.01762 0
M  V30 357 H 32.0192 0.375814 0.547412 0
M  V30 358 H 34.5492 1.61737 1.25309 0
M  V30 359 H 34.5592 1.72538 3.69723 0
M  V30 360 H 33.2342 2.73182 3.13599 0
M  V30 361 H 31.8112 0.960917 3.60307 0
M  V30 362 N 33.9963 -1.19345 1.0293 0
M  V30 363 C 35.2443 -1.88665 0.724574 0
M  V30 364 C 35.5653 -1.80036 -0.749144 0
M  V30 365 O 34.8353 -1.2111 -1.53978 0
M  V30 366 H 33.4153 -0.698406 0.265025 0
M  V30 367 H 36.0773 -1.44885 1.30362 0
M  V30 368 H 35.1733 -2.94987 1.01926 0
M  V30 369 N 35.4744 -0.807222 -1.35358 0
M  V30 370 C 36.7044 -0.399796 -2.02695 0
M  V30 371 C 37.1124 0.994176 -1.60974 0
M  V30 372 O 36.4554 1.65209 -0.803226 0
M  V30 373 C 36.5174 -0.404445 -3.57218 0
M  V30 374 C 36.1814 -1.74904 -4.22206 0
M  V30 375 C 37.1784 -2.70743 -4.4384 0
M  V30 376 C 34.8634 -2.03322 -4.5931 0
M  V30 377 C 36.8574 -3.93183 -5.01683 0
M  V30 378 C 34.5444 -3.26026 -5.16866 0
M  V30 379 C 35.5424 -4.20774 -5.37994 0
M  V30 380 O 35.2304 -5.41312 -5.94337 0
M  V30 381 H 34.9624 -0.160517 -0.656666 0
M  V30 382 H 37.5164 -1.09235 -1.73945 0
M  V30 383 H 35.7464 0.344707 -3.85161 0
M  V30 384 H 37.4354 -0.0192429 -4.05895 0
M  V30 385 H 38.2014 -2.5008 -4.15554 0
M  V30 386 H 34.0804 -1.30384 -4.42178 0
M  V30 387 H 37.6244 -4.6715 -5.1809 0
M  V30 388 H 33.5214 -3.46559 -5.44579 0
M  V30 389 H 34.2894 -5.42618 -6.12787 0
M  V30 390 N 36.9525 1.47285 -0.560781 0
M  V30 391 C 38.1775 2.07359 -0.0410566 0
M  V30 392 C 38.6025 1.41017 1.24483 0
M  V30 393 O 37.9605 0.486368 1.74654 0
M  V30 394 C 38.0085 3.6035 0.134123 0
M  V30 395 O 37.1125 3.94681 1.19587 0
M  V30 396 H 36.4535 0.661887 -0.0529291 0
M  V30 397 H 38.9835 1.89252 -0.777482 0
M  V30 398 H 38.9935 4.0652 0.347207 0
M  V30 399 H 37.6685 4.08034 -0.805047 0
M  V30 400 H 36.2455 3.60251 0.962987 0
M  V30 401 N 38.4306 0.297415 1.54768 0
M  V30 402 C 39.3636 -0.622188 2.19554 0
M  V30 403 C 40.3416 -1.13558 1.16376 0
M  V30 404 O 41.5256 -1.20444 1.45002 0
M  V30 405 C 38.6526 -1.8509 2.83653 0
M  V30 406 C 37.6986 -1.47106 4.00328 0
M  V30 407 S 38.5316 -0.53006 5.3287 0
M  V30 408 C 39.6876 -1.76665 6.0045 0
M  V30 409 H 39.9206 -0.0717806 2.97213 0
M  V30 410 H 37.4536 0.0815678 1.54184 0
M  V30 411 H 39.4116 -2.55605 3.21211 0
M  V30 412 H 38.0726 -2.37247 2.05846 0
M  V30 413 H 37.2656 -2.38594 4.43947 0
M  V30 414 H 36.8676 -0.845885 3.64309 0
M  V30 415 H 39.1596 -2.7077 6.21039 0
M  V30 416 H 40.1026 -1.37308 6.9466 0
M  V30 417 H 40.5106 -1.94174 5.30054 0
M  V30 418 N 39.9087 -1.5758 0.0250728 0
M  V30 419 C 41.1367 -1.9593 -0.664747 0
M  V30 420 C 41.5517 -0.901352 -1.65895 0
M  V30 421 O 40.9087 0.117255 -1.82123 0
M  V30 422 C 40.9597 -3.34342 -1.37468 0
M  V30 423 O 40.6807 -4.36079 -0.420324 0
M  V30 424 C 42.1817 -3.873 -2.1567 0
M  V30 425 H 39.4017 -0.645405 -0.183557 0
M  V30 426 H 41.9457 -2.04329 0.0836372 0
M  V30 427 H 40.1007 -3.27175 -2.0745 0
M  V30 428 H 40.5147 -5.16297 -0.923991 0
M  V30 429 H 41.9887 -4.86504 -2.60803 0
M  V30 430 H 42.4657 -3.21331 -2.99405 0
M  V30 431 H 43.0717 -3.97723 -1.50654 0
M  V30 432 N 41.3868 0.248026 -1.55636 0
M  V30 433 C 42.7978 0.817177 -1.67866 0
M  V30 434 C 43.1488 1.86069 -0.622322 0
M  V30 435 O 42.2738 2.15157 0.231618 0
M  V30 436 C 42.8688 1.489 -3.04326 0
M  V30 437 C 41.4278 2.00587 -3.185 0
M  V30 438 C 40.5748 0.856573 -2.63739 0
M  V30 439 H 43.5258 0.0238579 -1.58682 0
M  V30 440 H 43.5468 2.35698 -2.98708 0
M  V30 441 H 43.0588 0.729279 -3.81186 0
M  V30 442 H 41.1598 2.79443 -2.4646 0
M  V30 443 H 41.2728 2.20402 -4.25393 0
M  V30 444 H 39.6368 1.25678 -2.21534 0
M  V30 445 H 40.4198 0.109953 -3.43124 0
M  V30 446 N 42.8649 1.48995 0.513639 0
M  V30 447 C 44.2759 1.5119 1.09537 0
M  V30 448 C 44.6269 0.290906 1.94031 0
M  V30 449 O 43.7519 -0.60049 2.07902 0
M  V30 450 C 44.3469 2.73964 1.99322 0
M  V30 451 C 42.9059 2.78978 2.52682 0
M  V30 452 C 42.0529 2.44934 1.30009 0
M  V30 453 H 45.0039 1.55875 0.298125 0
M  V30 454 H 45.0249 2.53409 2.83838 0
M  V30 455 H 44.5369 3.62813 1.37799 0
M  V30 456 H 42.6379 1.94378 3.1788 0
M  V30 457 H 42.7509 3.8083 2.90698 0
M  V30 458 H 41.1149 1.9644 1.62122 0
M  V30 459 H 41.8979 3.36043 0.702131 0
M  V30 460 N 44.343 -0.763751 1.37857 0
M  V30 461 C 45.571 -1.55293 1.36718 0
M  V30 462 C 45.986 -1.88745 -0.0455434 0
M  V30 463 O 45.343 -1.52039 -1.00947 0
M  V30 464 C 45.394 -2.85831 2.2132 0
M  V30 465 O 45.115 -2.5381 3.57089 0
M  V30 466 C 46.616 -3.80023 2.28249 0
M  V30 467 H 43.836 -0.480841 0.468009 0
M  V30 468 H 46.38 -0.946009 1.81303 0
M  V30 469 H 44.535 -3.42926 1.80223 0
M  V30 470 H 44.949 -3.37459 4.01524 0
M  V30 471 H 46.423 -4.68599 2.91752 0
M  V30 472 H 46.9 -4.1973 1.2932 0
M  V30 473 H 47.506 -3.28855 2.69693 0
M  V30 474 N 45.8211 -1.22559 -0.990812 0
M  V30 475 C 46.7511 -1.0218 -2.09956 0
M  V30 476 C 47.7321 0.0579394 -1.70001 0
M  V30 477 O 48.9171 -0.104684 -1.93918 0
M  V30 478 C 46.0471 -0.601023 -3.4206 0
M  V30 479 C 45.0011 -1.62694 -3.95872 0
M  V30 480 C 44.3271 -1.06193 -5.24049 0
M  V30 481 C 45.6271 -3.01743 -4.2632 0
M  V30 482 H 47.3211 -1.94916 -2.27262 0
M  V30 483 H 44.8671 -0.938566 -1.09211 0
M  V30 484 H 46.8201 -0.445561 -4.19038 0
M  V30 485 H 45.5441 0.362005 -3.24588 0
M  V30 486 H 44.2031 -1.77021 -3.21028 0
M  V30 487 H 43.8511 -0.0901903 -5.02919 0
M  V30 488 H 43.5511 -1.74732 -5.61019 0
M  V30 489 H 45.0751 -0.918092 -6.03658 0
M  V30 490 H 46.4891 -2.90777 -4.94087 0
M  V30 491 H 44.8861 -3.67425 -4.74467 0
M  V30 492 H 45.9561 -3.51518 -3.34011 0
M  V30 493 N 47.2992 1.18797 -1.03562 0
M  V30 494 C 48.2472 2.24297 -0.615905 0
M  V30 495 C 49.2412 1.65643 0.354808 0
M  V30 496 O 50.4472 1.78618 0.22265 0
M  V30 497 H 46.8222 0.729909 -0.180934 0
M  V30 498 H 48.7932 2.5701 -1.5162 0
M  V30 499 C 47.5422 3.47698 0.0104735 0
M  V30 500 H 46.8652 3.93125 -0.727509 0
M  V30 501 H 48.3052 4.23159 0.266995 0
M  V30 502 C 46.7642 3.12489 1.25905 0
M  V30 503 O 47.2942 3.25761 2.35038 0
M  V30 504 N 45.5002 2.6686 1.15039 0
M  V30 505 H 45.0472 2.56261 0.262328 0
M  V30 506 H 45.0052 2.43674 1.98672 0
M  V30 507 N 48.7773 0.814389 1.34928 0
M  V30 508 C 50.0263 0.394871 1.97797 0
M  V30 509 C 50.3393 -1.04555 1.65311 0
M  V30 510 O 51.5453 -1.56856 2.21604 0
M  V30 511 C 50.0013 0.655103 3.53888 0
M  V30 512 C 49.6093 2.10858 3.95276 0
M  V30 513 C 51.3533 0.301329 4.23429 0
M  V30 514 C 49.2603 2.31415 5.44244 0
M  V30 515 H 48.1903 0.143913 0.740139 0
M  V30 516 H 50.8413 0.999544 1.53888 0
M  V30 517 H 49.2233 -0.0196253 3.95995 0
M  V30 518 H 50.3973 2.82176 3.64298 0
M  V30 519 H 48.7123 2.42297 3.38646 0
M  V30 520 H 51.3093 0.432869 5.32945 0
M  V30 521 H 51.6523 -0.75331 4.09428 0
M  V30 522 H 52.1853 0.930288 3.86769 0
M  V30 523 H 48.9243 3.35353 5.63222 0
M  V30 524 H 48.4443 1.6463 5.76764 0
M  V30 525 H 50.1233 2.13352 6.10811 0
M  V30 526 N 50.2554 -1.46986 0.568584 0
M  V30 527 C 51.4834 -2.0683 0.0539956 0
M  V30 528 C 51.8984 -1.41953 -1.24478 0
M  V30 529 O 51.2554 -0.519933 -1.74937 0
M  V30 530 C 51.3064 -3.61254 -0.133362 0
M  V30 531 O 51.0274 -4.237 1.11399 0
M  V30 532 C 52.5284 -4.37992 -0.683927 0
M  V30 533 H 49.7484 -0.669058 0.0510141 0
M  V30 534 H 52.2924 -1.88824 0.785234 0
M  V30 535 H 50.4474 -3.78735 -0.81477 0
M  V30 536 H 50.8614 -5.16388 0.91888 0
M  V30 537 H 52.3354 -5.46684 -0.764263 0
M  V30 538 H 52.8124 -4.05058 -1.69778 0
M  V30 539 H 53.4184 -4.25283 -0.0378494 0
M  V30 540 N 51.7335 -0.305618 -1.54608 0
M  V30 541 C 52.6435 0.57778 -2.27374 0
M  V30 542 C 53.6595 1.14451 -1.31061 0
M  V30 543 O 54.8355 1.16831 -1.6405 0
M  V30 544 C 51.9005 1.73123 -3.00382 0
M  V30 545 C 50.9615 1.19812 -4.12242 0
M  V30 546 C 50.1945 2.2966 -4.81759 0
M  V30 547 O 50.4175 3.49651 -4.50666 0
M  V30 548 O 49.3515 1.96091 -5.69062 0
M  V30 549 H 53.1775 -0.012624 -3.03697 0
M  V30 550 H 50.7625 -0.0719184 -1.49227 0
M  V30 551 H 52.6445 2.40315 -3.4616 0
M  V30 552 H 51.3195 2.30815 -2.26949 0
M  V30 553 H 50.2265 0.491798 -3.70853 0
M  V30 554 H 51.5595 0.666566 -4.87666 0
M  V30 555 N 53.2116 1.57565 -0.0334293 0
M  V30 556 C 54.1216 2.13943 0.962572 0
M  V30 557 C 55.1376 1.09276 1.35406 0
M  V30 558 O 56.3136 1.41355 1.4346 0
M  V30 559 C 53.3786 2.65887 2.22497 0
M  V30 560 C 52.4396 3.85286 1.8935 0
M  V30 561 C 51.6726 4.34743 3.09571 0
M  V30 562 O 51.8956 3.83352 4.22371 0
M  V30 563 O 50.8296 5.26538 2.91618 0
M  V30 564 H 54.6556 2.99333 0.513169 0
M  V30 565 H 52.2406 1.4822 0.18743 0
M  V30 566 H 54.1226 2.99346 2.96598 0
M  V30 567 H 52.7976 1.83578 2.6661 0
M  V30 568 H 51.7046 3.56746 1.1262 0
M  V30 569 H 53.0376 4.68771 1.5005 0
M  V30 570 N 54.6897 -0.239769 1.55765 0
M  V30 571 C 55.9147 -0.988373 1.82335 0
M  V30 572 C 56.3397 -1.77886 0.611421 0
M  V30 573 O 55.6977 -1.75889 -0.439639 0
M  V30 574 C 55.7457 -1.89627 3.06715 0
M  V30 575 O 54.8497 -2.98904 2.84131 0
M  V30 576 H 54.1907 -0.280858 0.601677 0
M  V30 577 H 56.7207 -0.258597 2.02959 0
M  V30 578 H 56.7307 -2.30957 3.36338 0
M  V30 579 H 55.4057 -1.31511 3.9456 0
M  V30 580 H 53.9827 -2.61651 2.65694 0
M  V30 581 N 56.1678 -1.49265 -0.50573 0
M  V30 582 C 57.1178 -1.6198 -1.60457 0
M  V30 583 C 58.1018 -0.47568 -1.53708 0
M  V30 584 O 59.2938 -0.728392 -1.61318 0
M  V30 585 C 56.4228 -1.68526 -2.99089 0
M  V30 586 C 55.5088 -2.885 -3.10852 0
M  V30 587 N 55.8998 -4.12635 -2.92517 0
M  V30 588 C 54.1978 -2.86338 -3.41945 0
M  V30 589 C 54.8988 -4.93258 -3.08337 0
M  V30 590 N 53.8748 -4.26533 -3.37003 0
M  V30 591 H 57.6768 -2.55681 -1.44928 0
M  V30 592 H 55.1908 -1.45972 -0.711752 0
M  V30 593 H 57.1878 -1.75732 -3.78053 0
M  V30 594 H 55.8478 -0.759584 -3.1569 0
M  V30 595 H 56.8588 -4.42689 -2.68787 0
M  V30 596 H 53.5358 -2.03129 -3.64753 0
M  V30 597 H 54.9258 -6.01856 -2.98695 0
M  V30 598 N 57.6459 0.756429 -1.3826 0
M  V30 599 C 58.8919 1.51772 -1.34511 0
M  V30 600 C 59.2249 1.94089 0.0656691 0
M  V30 601 O 58.4999 1.65221 1.02626 0
M  V30 602 C 58.7829 2.77226 -2.29821 0
M  V30 603 C 58.6359 2.41065 -3.79747 0
M  V30 604 C 59.9549 3.79236 -2.23312 0
M  V30 605 H 57.0739 0.550578 -0.489931 0
M  V30 606 H 59.7159 0.866607 -1.69086 0
M  V30 607 H 57.8659 3.32784 -2.00467 0
M  V30 608 H 59.5379 1.91303 -4.19763 0
M  V30 609 H 57.7809 1.7356 -3.97567 0
M  V30 610 H 58.4519 3.3081 -4.41892 0
M  V30 611 H 60.9279 3.3321 -2.49219 0
M  V30 612 H 59.8039 4.64714 -2.92116 0
M  V30 613 H 60.0649 4.24615 -1.23102 0
M  V30 614 N 59.124 1.23083 0.984299 0
M  V30 615 C 60.373 1.05466 1.71929 0
M  V30 616 C 60.686 -0.409211 1.91272 0
M  V30 617 O 61.892 -0.705226 2.62181 0
M  V30 618 C 60.348 1.83874 3.09384 0
M  V30 619 C 59.956 3.34566 2.97943 0
M  V30 620 C 61.7 1.74734 3.8687 0
M  V30 621 C 59.607 4.05381 4.30605 0
M  V30 622 H 58.537 0.391039 0.644674 0
M  V30 623 H 61.188 1.47013 1.09815 0
M  V30 624 H 59.57 1.35131 3.72231 0
M  V30 625 H 60.744 3.90767 2.44209 0
M  V30 626 H 59.059 3.44476 2.33934 0
M  V30 627 H 61.656 2.24957 4.85076 0
M  V30 628 H 61.999 0.709372 4.10212 0
M  V30 629 H 62.532 2.21067 3.30717 0
M  V30 630 H 59.271 5.09467 4.1246 0
M  V30 631 H 58.791 3.53967 4.84218 0
M  V30 632 H 60.47 4.11458 4.99311 0
M  V30 633 N 60.6021 -1.18246 1.0419 0
M  V30 634 C 61.8791 -1.84121 0.660208 0
M  V30 635 C 62.2591 -1.92778 -0.860221 0
M  V30 636 O 61.6071 -1.45464 -1.76217 0
M  V30 637 C 61.8171 -3.22355 1.33747 0
M  V30 638 C 63.1651 -3.98376 1.46906 0
M  V30 639 O 64.1891 -3.31799 1.29568 0
M  V30 640 O 63.0481 -5.17665 1.75171 0
M  V30 641 H 60.1421 -0.794036 0.231161 0
M  V30 642 H 62.6881 -1.25628 1.14087 0
M  V30 643 H 61.4601 -3.10964 2.37522 0
M  V30 644 H 61.0831 -3.88506 0.845515 0
M  V30 645 N 62.0802 -0.821533 -1.34494 0
M  V30 646 C 63.3082 -0.421884 -2.02553 0
M  V30 647 C 63.7232 0.971745 -1.61872 0
M  V30 648 O 63.0802 1.62864 -0.823496 0
M  V30 649 C 63.1312 -0.51285 -3.57844 0
M  V30 650 O 62.8522 -1.85155 -3.97051 0
M  V30 651 C 64.3532 -0.107921 -4.43169 0
M  V30 652 H 61.5732 -0.169482 -0.649243 0
M  V30 653 H 64.1172 -1.1093 -1.71798 0
M  V30 654 H 62.2722 0.126474 -3.87193 0
M  V30 655 H 62.6862 -1.82482 -4.91732 0
M  V30 656 H 64.1602 -0.222657 -5.51551 0
M  V30 657 H 64.6372 0.948401 -4.28838 0
M  V30 658 H 65.2432 -0.720989 -4.19144 0
M  V30 659 N 63.5583 1.46682 -0.576371 0
M  V30 660 C 64.8063 2.02013 -0.0594163 0
M  V30 661 C 65.1273 1.45101 1.30271 0
M  V30 662 O 64.3973 0.633317 1.8538 0
M  V30 663 H 62.9773 0.746759 -0.0189745 0
M  V30 664 H 65.6393 1.79862 -0.750717 0
M  V30 665 H 64.7353 3.12097 0.014345 0
M  V30 666 N 65.0364 0.313813 1.54444 0
M  V30 667 C 66.3134 -0.345447 1.92525 0
M  V30 668 C 66.6934 -1.70667 1.24242 0
M  V30 669 O 66.0414 -2.25273 0.382654 0
M  V30 670 C 66.2514 -0.44737 3.46121 0
M  V30 671 C 67.5994 -0.712238 4.18584 0
M  V30 672 O 68.6234 -0.530678 3.52225 0
M  V30 673 O 67.4824 -1.06183 5.36085 0
M  V30 674 H 64.5764 -0.195407 0.803583 0
M  V30 675 H 67.1224 0.362813 1.65776 0
M  V30 676 H 65.8944 0.509043 3.87975 0
M  V30 677 H 65.5174 -1.20359 3.78945 0
M  V30 678 N 66.5145 -1.57545 0.0417849 0
M  V30 679 C 67.7395 -1.97035 -0.647455 0
M  V30 680 C 68.1645 -0.918775 -1.64135 0
M  V30 681 O 67.5225 0.119006 -1.80909 0
M  V30 682 C 67.5705 -3.35609 -1.31905 0
M  V30 683 O 66.6745 -3.3287 -2.43457 0
M  V30 684 H 66.0155 -0.64211 -0.169086 0
M  V30 685 H 68.5455 -2.04318 0.107399 0
M  V30 686 H 68.5555 -3.72126 -1.67291 0
M  V30 687 H 67.2305 -4.11685 -0.590586 0
M  V30 688 H 65.8075 -3.08087 -2.10088 0
M  V30 689 N 67.9926 0.231505 -1.5589 0
M  V30 690 C 68.9226 1.29022 -1.94617 0
M  V30 691 C 69.9036 1.4941 -0.813067 0
M  V30 692 O 71.0886 1.6176 -1.07459 0
M  V30 693 C 68.2186 2.64199 -2.25424 0
M  V30 694 C 67.1726 2.58484 -3.41131 0
M  V30 695 C 66.4986 3.97599 -3.57518 0
M  V30 696 C 67.7986 2.1413 -4.76388 0
M  V30 697 H 69.4926 0.968563 -2.83301 0
M  V30 698 H 67.0386 0.464479 -1.36303 0
M  V30 699 H 68.9916 3.38413 -2.51107 0
M  V30 700 H 67.7156 2.98032 -1.33583 0
M  V30 701 H 66.3746 1.86727 -3.15481 0
M  V30 702 H 66.0226 4.28723 -2.6307 0
M  V30 703 H 65.7226 3.94659 -4.35337 0
M  V30 704 H 67.2466 4.7349 -3.85538 0
M  V30 705 H 68.6606 2.78083 -5.01341 0
M  V30 706 H 67.0576 2.2227 -5.57419 0
M  V30 707 H 68.1276 1.09331 -4.72414 0
M  V30 708 N 69.4707 1.49531 0.497807 0
M  V30 709 C 70.6957 1.63159 1.28039 0
M  V30 710 C 71.1207 0.30418 1.85624 0
M  V30 711 O 70.4787 -0.728618 1.66015 0
M  V30 712 C 70.5267 2.70537 2.38416 0
M  V30 713 O 69.6307 2.29931 3.42353 0
M  V30 714 H 68.9717 0.546001 0.377861 0
M  V30 715 H 71.5017 1.9574 0.59558 0
M  V30 716 H 71.5117 2.92802 2.84132 0
M  V30 717 H 70.1867 3.6689 1.95869 0
M  V30 718 H 68.7637 2.18009 3.02533 0
M  V30 719 N 70.9488 -0.749086 1.3866 0
M  V30 720 C 72.1978 -1.50371 1.3443 0
M  V30 721 C 72.5108 -1.95503 -0.0616397 0
M  V30 722 O 73.7168 -2.70554 -0.226489 0
M  V30 723 C 72.1728 -2.71644 2.36088 0
M  V30 724 C 71.7808 -2.3352 3.82325 0
M  V30 725 C 73.5248 -3.49518 2.40909 0
M  V30 726 C 71.4318 -3.51431 4.75658 0
M  V30 727 H 70.3618 -0.564628 0.499712 0
M  V30 728 H 73.0128 -0.818449 1.64237 0
M  V30 729 H 71.3948 -3.42175 1.9933 0
M  V30 730 H 72.5688 -1.70627 4.28046 0
M  V30 731 H 70.8838 -1.6877 3.80665 0
M  V30 732 H 73.4808 -4.37197 3.07836 0
M  V30 733 H 73.8238 -3.90992 1.42937 0
M  V30 734 H 74.3568 -2.86005 2.76489 0
M  V30 735 H 71.0958 -3.15019 5.74842 0
M  V30 736 H 70.6158 -4.13352 4.34627 0
M  V30 737 H 72.2948 -4.17953 4.93887 0
M  V30 738 N 72.4269 -1.23603 -0.977757 0
M  V30 739 C 73.6519 -1.09735 -1.75991 0
M  V30 740 C 74.0769 0.346858 -1.84874 0
M  V30 741 O 73.4349 1.25093 -1.3123 0
M  V30 742 C 73.4829 -1.73051 -3.16363 0
M  V30 743 O 72.5869 -0.994452 -4.0023 0
M  V30 744 H 71.9279 -0.384476 -0.541364 0
M  V30 745 H 74.4579 -1.6371 -1.2272 0
M  V30 746 H 74.4679 -1.78398 -3.66931 0
M  V30 747 H 73.1429 -2.78137 -3.09213 0
M  V30 748 H 71.7199 -1.01812 -3.58732 0
M  V30 749 N 73.905 1.17692 -1.04816 0
M  V30 750 C 75.145 1.89545 -0.764979 0
M  V30 751 C 75.509 1.78979 0.695028 0
M  V30 752 O 76.71 2.45613 1.09215 0
M  V30 753 C 74.981 3.35659 -1.22751 0
M  V30 754 S 76.54 4.25526 -1.07112 0
M  V30 755 H 73.358 0.654432 -0.27792 0
M  V30 756 H 75.96 1.42163 -1.34201 0
M  V30 757 H 74.664 3.40882 -2.28533 0
M  V30 758 H 74.195 3.88083 -0.644594 0
M  V30 759 H 76.21 4.962 0.00697508 0
M  V30 760 N 75.3831 0.828654 1.34056 0
M  V30 761 C 76.7991 0.515135 1.51058 0
M  V30 762 C 76.9991 -0.959581 1.77184 0
M  V30 763 O 76.0551 -1.74382 1.82612 0
M  V30 764 C 77.3681 1.37963 2.67183 0
M  V30 765 C 78.9161 1.37735 2.81066 0
M  V30 766 C 79.3911 2.22645 4.00241 0
M  V30 767 N 80.8821 2.203 4.07458 0
M  V30 768 C 81.6171 2.82744 4.98842 0
M  V30 769 N 81.1131 3.54201 5.9541 0
M  V30 770 N 82.9061 2.72268 4.91759 0
M  V30 771 H 75.0571 1.78343 1.15358 0
M  V30 772 H 77.3201 0.760304 0.566252 0
M  V30 773 H 77.0261 2.42714 2.54525 0
M  V30 774 H 76.9001 1.0484 3.62338 0
M  V30 775 H 79.2871 0.337593 2.93163 0
M  V30 776 H 79.3681 1.74859 1.86703 0
M  V30 777 H 79.0121 3.26674 3.88905 0
M  V30 778 H 78.9421 1.82869 4.93829 0
M  V30 779 H 81.4331 1.68327 3.38341 0
M  V30 780 H 81.7461 3.9908 6.61782 0
M  V30 781 H 80.0911 3.58308 5.95517 0
M  V30 782 H 83.2821 2.16014 4.15278 0
M  V30 783 H 83.4551 3.21219 5.62781 0
M  V30 784 N 76.8612 -1.46375 0.584142 0
M  V30 785 C 78.1092 -2.01978 0.0701287 0
M  V30 786 C 78.4302 -1.4579 -1.295 0
M  V30 787 O 77.7002 -0.64314 -1.85042 0
M  V30 788 H 76.2802 -0.746648 0.0229345 0
M  V30 789 H 78.9422 -1.79461 0.760245 0
M  V30 790 H 78.0382 -3.121 0.0022064 0
M  V30 791 N 78.3393 -0.321999 -1.54275 0
M  V30 792 C 79.2713 0.578671 -2.21775 0
M  V30 793 C 80.2843 1.08109 -1.21722 0
M  V30 794 O 81.4733 0.994938 -1.482 0
M  V30 795 C 78.5733 1.80661 -2.86731 0
M  V30 796 C 77.7463 1.44314 -4.12907 0
M  V30 797 C 76.8053 2.52845 -4.61472 0
M  V30 798 O 75.8313 2.17054 -5.2619 0
M  V30 799 N 77.0333 3.83748 -4.35566 0
M  V30 800 H 79.7983 0.000709447 -2.997 0
M  V30 801 H 77.3593 -0.145132 -1.61248 0
M  V30 802 H 79.3513 2.52655 -3.16145 0
M  V30 803 H 77.9213 2.29245 -2.12521 0
M  V30 804 H 77.1413 0.554906 -3.90275 0
M  V30 805 H 78.4293 1.17598 -4.95023 0
M  V30 806 H 77.8273 4.15625 -3.83761 0
M  V30 807 H 76.3843 4.51977 -4.69638 0
M  V30 808 N 79.8174 1.5752 -0.0501392 0
M  V30 809 C 80.7674 2.07981 0.934231 0
M  V30 810 C 81.7514 0.984745 1.27246 0
M  V30 811 O 82.9434 1.24809 1.25506 0
M  V30 812 C 80.0724 2.62751 2.20945 0
M  V30 813 C 79.1584 3.79225 1.89865 0
M  V30 814 N 79.5494 4.89036 1.29142 0
M  V30 815 C 77.8474 3.88111 2.19741 0
M  V30 816 C 78.5484 5.70084 1.15669 0
M  V30 817 N 77.5244 5.17659 1.65923 0
M  V30 818 H 81.3264 2.90277 0.460053 0
M  V30 819 H 78.8404 1.61665 0.15434 0
M  V30 820 H 80.8374 2.97205 2.9236 0
M  V30 821 H 79.4974 1.81894 2.6897 0
M  V30 822 H 80.5084 5.08854 0.963756 0
M  V30 823 H 77.1854 3.18194 2.70293 0
M  V30 824 H 78.5754 6.68395 0.685356 0
M  V30 825 N 81.2955 -0.223234 1.56011 0
M  V30 826 C 82.7065 -0.790368 1.69145 0
M  V30 827 C 83.0575 -1.85055 0.651845 0
M  V30 828 O 82.1825 -2.15498 -0.197359 0
M  V30 829 C 82.7775 -1.4404 3.06656 0
M  V30 830 C 81.3365 -1.95494 3.2165 0
M  V30 831 C 80.4835 -0.814506 2.65068 0
M  V30 832 H 83.4345 0.00139011 1.587 0
M  V30 833 H 83.4555 -2.30916 3.0242 0
M  V30 834 H 82.9675 -0.668543 3.82298 0
M  V30 835 H 81.0685 -2.75487 2.50874 0
M  V30 836 H 81.1815 -2.13607 4.28846 0
M  V30 837 H 79.5455 -1.22137 2.23505 0
M  V30 838 H 80.3285 -0.0553515 3.43255 0
M  V30 839 N 82.7736 -1.49793 -0.48987 0
M  V30 840 C 83.7036 -1.70201 -1.59856 0
M  V30 841 C 84.6846 -0.55076 -1.60937 0
M  V30 842 O 85.8696 -0.787841 -1.77501 0
M  V30 843 C 82.9996 -1.77882 -2.98287 0
M  V30 844 C 81.9536 -2.92907 -3.12073 0
M  V30 845 C 81.2796 -2.85712 -4.51965 0
M  V30 846 C 82.5796 -4.3369 -2.91051 0
M  V30 847 H 84.2736 -2.63025 -1.43032 0
M  V30 848 H 81.8196 -1.26574 -0.686664 0
M  V30 849 H 83.7726 -1.90744 -3.75759 0
M  V30 850 H 82.4966 -0.816653 -3.16225 0
M  V30 851 H 81.1556 -2.79665 -2.37029 0
M  V30 852 H 80.8036 -1.8738 -4.66795 0
M  V30 853 H 80.5036 -3.62921 -4.62128 0
M  V30 854 H 82.0276 -3.00598 -5.31482 0
M  V30 855 H 83.4416 -4.47555 -3.58284 0
M  V30 856 H 81.8386 -5.12205 -3.12675 0
M  V30 857 H 82.9086 -4.47362 -1.87071 0
M  V30 858 N 84.2517 0.741722 -1.39055 0
M  V30 859 C 85.1617 1.88621 -1.39496 0
M  V30 860 C 86.1777 1.71557 -0.290578 0
M  V30 861 O 87.3537 1.94275 -0.530954 0
M  V30 862 C 84.4187 3.24134 -1.23037 0
M  V30 863 C 83.4797 3.5364 -2.43387 0
M  V30 864 C 82.7127 4.82687 -2.27703 0
M  V30 865 O 82.9357 5.55922 -1.27696 0
M  V30 866 O 81.8697 5.1194 -3.16545 0
M  V30 867 H 85.6957 1.91203 -2.35956 0
M  V30 868 H 83.2807 0.888625 -1.20099 0
M  V30 869 H 85.1627 4.0513 -1.15964 0
M  V30 870 H 83.8377 3.22337 -0.296691 0
M  V30 871 H 82.7447 2.72758 -2.56035 0
M  V30 872 H 84.0777 3.60209 -3.35425 0
M  V30 873 N 85.7298 1.2412 0.971189 0
M  V30 874 C 86.9758 1.09048 1.71698 0
M  V30 875 C 87.3308 -0.367442 1.88859 0
M  V30 876 O 86.6238 -1.26792 1.43646 0
M  V30 877 C 86.8178 1.75983 3.11071 0
M  V30 878 C 86.6468 3.28133 3.07504 0
M  V30 879 C 85.4168 3.97331 3.1218 0
M  V30 880 C 87.6148 4.24773 2.89952 0
M  V30 881 N 85.5968 5.3639 2.98596 0
M  V30 882 C 86.9678 5.50806 2.84627 0
M  V30 883 C 89.0228 4.15392 2.74506 0
M  V30 884 C 87.7258 6.68533 2.65437 0
M  V30 885 C 89.7518 5.32793 2.56682 0
M  V30 886 C 89.1138 6.57756 2.52063 0
M  V30 887 H 85.2128 0.453632 0.636979 0
M  V30 888 H 87.7968 1.56983 1.15171 0
M  V30 889 H 85.9678 1.30566 3.65796 0
M  V30 890 H 87.6998 1.53803 3.74335 0
M  V30 891 H 84.4548 3.48473 3.20724 0
M  V30 892 H 84.8788 6.09321 2.95054 0
M  V30 893 H 89.5208 3.19543 2.76861 0
M  V30 894 H 87.2388 7.64509 2.61825 0
M  V30 895 H 90.8248 5.27383 2.4568 0
M  V30 896 H 89.7048 7.4707 2.38446 0
M  V30 897 N 87.2079 -1.17134 1.05439 0
M  V30 898 C 88.1709 -2.19439 0.661764 0
M  V30 899 C 89.1709 -1.58199 -0.288042 0
M  V30 900 O 90.3609 -1.74053 -0.0715803 0
M  V30 901 C 87.4929 -3.40889 -0.0276209 0
M  V30 902 H 88.6859 -2.55688 1.56728 0
M  V30 903 H 86.2389 -1.31259 0.848567 0
M  V30 904 H 86.9739 -3.10187 -0.94629 0
M  V30 905 H 86.7589 -3.86586 0.655238 0
M  V30 906 H 88.2489 -4.16603 -0.288342 0
M  V30 907 N 88.686 -0.835752 -1.33615 0
M  V30 908 C 89.932 -0.439817 -1.98588 0
M  V30 909 C 90.287 0.989274 -1.65019 0
M  V30 910 O 89.58 1.68168 -0.918159 0
M  V30 911 C 89.774 -0.593925 -3.52431 0
M  V30 912 C 89.603 -2.03644 -4.00948 0
M  V30 913 C 88.373 -2.67103 -4.28934 0
M  V30 914 C 90.571 -3.00479 -4.17393 0
M  V30 915 N 88.553 -4.02462 -4.6357 0
M  V30 916 C 89.924 -4.20777 -4.55353 0
M  V30 917 C 91.979 -2.96926 -3.99674 0
M  V30 918 C 90.682 -5.37994 -4.77447 0
M  V30 919 C 92.708 -4.1337 -4.22941 0
M  V30 920 C 92.07 -5.32422 -4.61201 0
M  V30 921 H 88.169 -0.209303 -0.75347 0
M  V30 922 H 90.753 -1.08316 -1.61789 0
M  V30 923 H 88.924 0.019599 -3.88395 0
M  V30 924 H 90.656 -0.169738 -4.04344 0
M  V30 925 H 87.411 -2.18259 -4.20309 0
M  V30 926 H 87.835 -4.72232 -4.85104 0
M  V30 927 H 92.477 -2.06015 -3.69212 0
M  V30 928 H 90.195 -6.29451 -5.06771 0
M  V30 929 H 93.781 -4.12034 -4.10754 0
M  V30 930 H 92.661 -6.21027 -4.78848 0
M  V30 931 N 90.1641 1.46063 -0.591896 0
M  V30 932 C 91.5751 1.85944 -0.167822 0
M  V30 933 C 91.9261 1.49429 1.27143 0
M  V30 934 O 91.0511 0.913515 1.96173 0
M  V30 935 C 91.6461 3.37489 -0.297794 0
M  V30 936 C 90.2051 3.76332 0.0714732 0
M  V30 937 C 89.3521 2.7006 -0.629509 0
M  V30 938 H 92.3031 1.37087 -0.799555 0
M  V30 939 H 92.3241 3.77532 0.474349 0
M  V30 940 H 91.8361 3.64034 -1.3454 0
M  V30 941 H 89.9371 3.55405 1.11886 0
M  V30 942 H 90.0501 4.78088 -0.311245 0
M  V30 943 H 88.4141 2.54607 -0.0687867 0
M  V30 944 H 89.1971 2.99444 -1.67894 0
M  V30 945 N 91.6422 0.330177 1.54103 0
M  V30 946 C 92.8902 -0.269871 2.0029 0
M  V30 947 C 93.2112 -1.52133 1.21986 0
M  V30 948 O 92.4812 -1.93212 0.323438 0
M  V30 949 H 91.0612 -0.10271 0.739905 0
M  V30 950 H 93.7232 0.448249 1.89675 0
M  V30 951 H 92.8192 -0.52166 3.07709 0
M  V30 952 N 93.1203 -1.57491 0.0584922 0
M  V30 953 C 94.0833 -2.1085 -0.898617 0
M  V30 954 C 95.0833 -1.02964 -1.23511 0
M  V30 955 O 96.2733 -1.29007 -1.17059 0
M  V30 956 C 93.4053 -2.59881 -2.20623 0
M  V30 957 H 94.5983 -2.96715 -0.435936 0
M  V30 958 H 92.1513 -1.55141 -0.190023 0
M  V30 959 H 92.8863 -1.77431 -2.71457 0
M  V30 960 H 92.6713 -3.38727 -1.97501 0
M  V30 961 H 94.1613 -3.01285 -2.89166 0
M  V30 962 N 94.5984 0.214957 -1.56127 0
M  V30 963 C 95.5304 1.29004 -1.89448 0
M  V30 964 C 96.5434 1.42716 -0.783326 0
M  V30 965 O 97.7324 1.43496 -1.06166 0
M  V30 966 C 94.8324 2.66482 -2.09381 0
M  V30 967 C 94.0054 2.74633 -3.40434 0
M  V30 968 C 93.0644 3.9317 -3.49719 0
M  V30 969 O 92.0904 3.812 -4.227 0
M  V30 970 N 93.2924 5.07765 -2.81346 0
M  V30 971 H 96.0574 1.00743 -2.82261 0
M  V30 972 H 93.6184 0.40497 -1.56753 0
M  V30 973 H 95.6104 3.44173 -2.12901 0
M  V30 974 H 94.1804 2.87314 -1.23163 0
M  V30 975 H 93.4004 1.83368 -3.48955 0
M  V30 976 H 94.6884 2.77054 -4.26754 0
M  V30 977 H 94.0864 5.20386 -2.21843 0
M  V30 978 H 92.6434 5.83474 -2.90519 0
M  V30 979 N 96.0765 1.50051 0.48192 0
M  V30 980 C 96.9865 1.7089 1.60728 0
M  V30 981 C 98.0025 0.591788 1.63627 0
M  V30 982 O 99.1785 0.868817 1.81696 0
M  V30 983 C 96.2435 1.78855 2.97005 0
M  V30 984 C 95.3045 3.02537 3.04581 0
M  V30 985 C 94.5375 3.10112 4.34357 0
M  V30 986 O 94.7605 2.24765 5.24249 0
M  V30 987 O 93.6945 4.02747 4.47301 0
M  V30 988 H 97.5205 2.66264 1.46072 0
M  V30 989 H 95.1055 1.34018 0.660264 0
M  V30 990 H 96.9875 1.86336 3.77964 0
M  V30 991 H 95.6625 0.866628 3.11883 0
M  V30 992 H 94.5695 3.00563 2.22739 0
M  V30 993 H 95.9025 3.94272 2.94636 0
M  V30 994 N 97.5546 -0.734337 1.39446 0
M  V30 995 C 98.5176 -1.83004 1.37994 0
M  V30 996 C 99.5176 -1.58397 0.276938 0
M  V30 997 O 100.708 -1.65785 0.534875 0
M  V30 998 C 97.8396 -3.20802 1.1532 0
M  V30 999 H 99.0326 -1.85694 2.35494 0
M  V30 1000 H 96.5856 -0.938059 1.25021 0
M  V30 1001 H 97.3206 -3.23772 0.185036 0
M  V30 1002 H 97.1056 -3.4006 1.95197 0
M  V30 1003 H 98.5956 -4.00862 1.17046 0
M  V30 1004 N 99.0327 -1.24633 -0.964593 0
M  V30 1005 C 100.444 -1.08045 -1.5226 0
M  V30 1006 C 100.795 0.347116 -1.93105 0
M  V30 1007 O 99.9197 1.23588 -1.77637 0
M  V30 1008 C 100.515 -1.95514 -2.76695 0
M  V30 1009 C 99.0737 -1.8314 -3.28841 0
M  V30 1010 C 98.2207 -1.90262 -2.01732 0
M  V30 1011 H 101.172 -1.38064 -0.782553 0
M  V30 1012 H 101.193 -1.48925 -3.50145 0
M  V30 1013 H 100.705 -2.99407 -2.46936 0
M  V30 1014 H 98.8057 -0.82092 -3.63444 0
M  V30 1015 H 98.9187 -2.67406 -3.97531 0
M  V30 1016 H 97.2827 -1.34027 -2.16584 0
M  V30 1017 H 98.0657 -2.9574 -1.74334 0
M  V30 1018 N 100.511 1.16574 -1.06058 0
M  V30 1019 C 101.474 2.19085 -0.673392 0
M  V30 1020 C 102.474 1.5835 0.279648 0
M  V30 1021 O 103.664 1.74088 0.0623488 0
M  V30 1022 C 100.796 3.40899 0.00954234 0
M  V30 1023 H 101.989 2.54853 -1.58081 0
M  V30 1024 H 99.5418 1.30808 -0.855516 0
M  V30 1025 H 100.277 3.10684 0.929826 0
M  V30 1026 H 100.062 3.86233 -0.67573 0
M  V30 1027 H 101.552 4.1675 0.266245 0
M  V30 1028 N 101.989 0.842826 1.3317 0
M  V30 1029 C 103.217 0.454055 2.01856 0
M  V30 1030 C 103.632 -0.94587 1.63397 0
M  V30 1031 O 102.989 -1.61534 0.849302 0
M  V30 1032 C 103.04 0.569715 3.56982 0
M  V30 1033 O 102.761 1.91448 3.94055 0
M  V30 1034 C 104.262 0.178412 4.42941 0
M  V30 1035 H 101.482 0.17979 0.646465 0
M  V30 1036 H 104.026 1.1365 1.70012 0
M  V30 1037 H 102.181 -0.0648587 3.87346 0
M  V30 1038 H 102.595 1.90282 4.88767 0
M  V30 1039 H 104.069 0.310376 5.51127 0
M  V30 1040 H 104.546 -0.880056 4.30293 0
M  V30 1041 H 105.152 0.787579 4.17944 0
M  V30 1042 N 103.467 -1.45747 0.599634 0
M  V30 1043 C 104.715 -2.01893 0.0915472 0
M  V30 1044 C 105.036 -1.47155 -1.27946 0
M  V30 1045 O 104.306 -0.66273 -1.84349 0
M  V30 1046 H 102.886 -0.746363 0.0308524 0
M  V30 1047 H 105.548 -1.78645 0.779237 0
M  V30 1048 H 104.644 -3.1208 0.0353086 0
M  V30 1049 N 104.945 -0.338344 -1.53925 0
M  V30 1050 C 106.222 0.314774 -1.93051 0
M  V30 1051 C 106.602 1.68669 -1.26941 0
M  V30 1052 O 105.95 2.24636 -0.418445 0
M  V30 1053 C 106.16 0.392249 -3.46789 0
M  V30 1054 C 107.508 0.645554 -4.19664 0
M  V30 1055 O 108.532 0.474575 -3.53024 0
M  V30 1056 O 107.391 0.976408 -5.37707 0
M  V30 1057 H 104.485 0.182598 -0.80659 0
M  V30 1058 H 107.031 -0.389141 -1.65178 0
M  V30 1059 H 105.803 -0.570702 -3.87116 0
M  V30 1060 H 105.426 1.14316 -3.80812 0
M  V30 1061 N 106.423 1.57458 -0.0668435 0
M  V30 1062 C 107.37 2.12439 0.902122 0
M  V30 1063 C 108.34 1.03565 1.2986 0
M  V30 1064 O 109.525 1.312 1.38532 0
M  V30 1065 C 106.665 2.6865 2.16614 0
M  V30 1066 C 105.778 3.91663 1.82274 0
M  V30 1067 C 104.913 4.36134 3.0325 0
M  V30 1068 C 103.952 5.51808 2.64904 0
M  V30 1069 N 103.089 5.9126 3.78624 0
M  V30 1070 H 107.929 2.94934 0.426382 0
M  V30 1071 H 105.466 1.4575 0.198819 0
M  V30 1072 H 107.424 2.99346 2.90599 0
M  V30 1073 H 106.054 1.88928 2.61737 0
M  V30 1074 H 105.106 3.6746 0.983719 0
M  V30 1075 H 106.418 4.75693 1.50059 0
M  V30 1076 H 105.572 4.68465 3.85519 0
M  V30 1077 H 104.311 3.50948 3.38655 0
M  V30 1078 H 103.316 5.19133 1.81055 0
M  V30 1079 H 104.541 6.38722 2.30675 0
M  V30 1080 H 102.487 5.09024 4.138 0
M  V30 1081 H 102.404 6.70018 3.5016 0
M  V30 1082 H 103.672 6.28212 4.61486 0
M  V30 1083 N 107.901 -0.206675 1.56239 0
M  V30 1084 C 109.178 -0.954051 1.70755 0
M  V30 1085 C 109.558 -2.01841 0.618353 0
M  V30 1086 O 108.906 -2.25444 -0.372434 0
M  V30 1087 C 109.116 -1.551 3.12642 0
M  V30 1088 C 110.464 -2.03757 3.72516 0
M  V30 1089 O 111.488 -1.64965 3.15698 0
M  V30 1090 O 110.347 -2.75103 4.72208 0
M  V30 1091 H 107.441 -0.446636 0.696021 0
M  V30 1092 H 109.987 -0.197283 1.68549 0
M  V30 1093 H 108.759 -0.783212 3.83382 0
M  V30 1094 H 108.382 -2.37291 3.19028 0
M  V30 1095 N 109.379 -1.50304 -0.473955 0
M  V30 1096 C 110.604 -1.65175 -1.25427 0
M  V30 1097 C 111.029 -0.333673 -1.85117 0
M  V30 1098 O 110.387 0.702114 -1.67153 0
M  V30 1099 C 110.435 -2.74295 -2.34082 0
M  V30 1100 O 109.539 -2.35349 -3.38651 0
M  V30 1101 H 108.88 -0.551944 -0.369126 0
M  V30 1102 H 111.41 -1.96662 -0.564364 0
M  V30 1103 H 111.42 -2.97285 -2.79438 0
M  V30 1104 H 110.095 -3.69959 -1.90008 0
M  V30 1105 H 108.672 -2.22794 -2.99027 0
M  V30 1106 N 110.857 0.726932 -1.39834 0
M  V30 1107 C 111.767 1.87131 -1.41489 0
M  V30 1108 C 112.783 1.71239 -0.308757 0
M  V30 1109 O 113.959 1.93701 -0.551529 0
M  V30 1110 C 111.024 3.22811 -1.26468 0
M  V30 1111 C 110.085 3.51039 -2.47124 0
M  V30 1112 C 109.318 4.80245 -2.3281 0
M  V30 1113 O 109.541 5.54537 -1.33585 0
M  V30 1114 O 108.475 5.08554 -3.21957 0
M  V30 1115 H 112.301 1.8869 -2.3797 0
M  V30 1116 H 109.886 0.875837 -1.21035 0
M  V30 1117 H 111.768 4.03877 -1.20255 0
M  V30 1118 H 110.443 3.22005 -0.330862 0
M  V30 1119 H 109.35 2.70027 -2.58914 0
M  V30 1120 H 110.683 3.56632 -3.39227 0
M  V30 1121 N 112.336 1.25143 0.95797 0
M  V30 1122 C 113.613 1.00472 1.67823 0
M  V30 1123 C 113.993 -0.470056 2.058 0
M  V30 1124 O 113.341 -1.44663 1.76875 0
M  V30 1125 C 113.551 1.9372 2.90299 0
M  V30 1126 C 114.899 2.21371 3.62326 0
M  V30 1127 O 115.923 1.91451 3.00375 0
M  V30 1128 O 114.782 2.72231 4.7387 0
M  V30 1129 H 111.876 0.380752 0.734137 0
M  V30 1130 H 114.422 1.36283 1.01119 0
M  V30 1131 H 113.194 2.93316 2.59001 0
M  V30 1132 H 112.817 1.58286 3.64735 0
M  V30 1133 N 113.814 -1.1601 1.06675 0
M  V30 1134 C 115.042 -1.90527 0.806667 0
M  V30 1135 C 115.457 -1.77643 -0.639396 0
M  V30 1136 O 114.814 -1.12369 -1.43803 0
M  V30 1137 C 114.865 -3.41106 1.19705 0
M  V30 1138 O 114.586 -3.53608 2.58636 0
M  V30 1139 C 116.087 -4.32663 0.965266 0
M  V30 1140 H 113.307 -0.604053 0.292166 0
M  V30 1141 H 115.851 -1.47026 1.4214 0
M  V30 1142 H 114.006 -3.82296 0.626774 0
M  V30 1143 H 114.42 -4.47011 2.74375 0
M  V30 1144 H 115.894 -5.36763 1.288 0
M  V30 1145 H 116.371 -4.39089 -0.0987936 0
M  V30 1146 H 116.977 -3.97206 1.52011 0
M  V30 1147 N 115.292 -0.849877 -1.32721 0
M  V30 1148 C 116.54 -0.450032 -1.97026 0
M  V30 1149 C 116.861 0.996604 -1.67609 0
M  V30 1150 O 116.131 1.6958 -0.980786 0
M  V30 1151 H 114.711 -0.163426 -0.728904 0
M  V30 1152 H 117.373 -1.08526 -1.6189 0
M  V30 1153 H 116.469 -0.591146 -3.0645 0
M  V30 1154 N 116.77 1.45427 -0.607355 0
M  V30 1155 C 118.016 2.0254 -0.102607 0
M  V30 1156 C 118.349 1.47478 1.26348 0
M  V30 1157 O 117.624 0.64939 1.83339 0
M  V30 1158 C 117.907 3.60044 -0.0634347 0
M  V30 1159 C 117.76 4.2544 -1.46017 0
M  V30 1160 C 119.079 4.35646 0.624514 0
M  V30 1161 H 116.198 0.73598 -0.0387607 0
M  V30 1162 H 118.84 1.73284 -0.779282 0
M  V30 1163 H 116.99 3.85101 0.512808 0
M  V30 1164 H 118.662 4.11569 -2.08347 0
M  V30 1165 H 116.905 3.83849 -2.02094 0
M  V30 1166 H 117.576 5.34342 -1.385 0
M  V30 1167 H 120.052 4.15882 0.134723 0
M  V30 1168 H 118.928 5.45376 0.621028 0
M  V30 1169 H 119.189 4.08501 1.69055 0
M  V30 1170 N 118.248 0.346503 1.53744 0
M  V30 1171 C 119.494 -0.249473 2.0126 0
M  V30 1172 C 119.827 -1.49965 1.23386 0
M  V30 1173 O 119.102 -1.91811 0.32229 0
M  V30 1174 C 119.385 -0.560643 3.55709 0
M  V30 1175 C 119.238 0.701836 4.44291 0
M  V30 1176 C 120.557 -1.36905 4.18264 0
M  V30 1177 H 117.676 -0.0891987 0.731582 0
M  V30 1178 H 120.318 0.467624 1.84156 0
M  V30 1179 H 118.468 -1.17156 3.70414 0
M  V30 1180 H 120.14 1.33974 4.41417 0
M  V30 1181 H 118.383 1.32612 4.13033 0
M  V30 1182 H 119.054 0.43933 5.50249 0
M  V30 1183 H 121.53 -0.852448 4.07275 0
M  V30 1184 H 120.406 -1.55553 5.26398 0
M  V30 1185 H 120.667 -2.37203 3.73078 0
M  V30 1186 N 119.726 -1.57421 0.075193 0
M  V30 1187 C 121.142 -1.57099 -0.281444 0
M  V30 1188 C 121.342 -1.08486 -1.69803 0
M  V30 1189 O 120.398 -0.752279 -2.41033 0
M  V30 1190 C 121.711 -3.00571 -0.0880041 0
M  V30 1191 C 123.259 -3.12605 -0.157281 0
M  V30 1192 C 123.734 -4.57999 0.0079207 0
M  V30 1193 N 125.225 -4.63176 -0.0475725 0
M  V30 1194 C 125.96 -5.73373 0.0557876 0
M  V30 1195 N 125.456 -6.92473 0.21286 0
M  V30 1196 N 127.249 -5.621 -0.00152098 0
M  V30 1197 H 119.4 -1.87335 1.00098 0
M  V30 1198 H 121.663 -0.86377 0.390646 0
M  V30 1199 H 121.369 -3.40262 0.889629 0
M  V30 1200 H 121.243 -3.67754 -0.838875 0
M  V30 1201 H 123.63 -2.72798 -1.1254 0
M  V30 1202 H 123.711 -2.48053 0.62475 0
M  V30 1203 H 123.355 -4.98496 0.972824 0
M  V30 1204 H 123.285 -5.20586 -0.793556 0
M  V30 1205 H 125.776 -3.7753 -0.167244 0
M  V30 1206 H 126.089 -7.72279 0.283781 0
M  V30 1207 H 124.434 -6.94556 0.248267 0
M  V30 1208 H 127.625 -4.67938 -0.122958 0
M  V30 1209 H 127.798 -6.47948 0.0824844 0
M  V30 1210 N 121.204 0.198386 -1.56346 0
M  V30 1211 C 122.481 0.944982 -1.71258 0
M  V30 1212 C 122.861 2.0151 -0.629048 0
M  V30 1213 O 122.209 2.25639 0.360473 0
M  V30 1214 C 122.419 1.5344 -3.1346 0
M  V30 1215 C 123.767 2.01778 -3.73591 0
M  V30 1216 O 124.791 1.63288 -3.16568 0
M  V30 1217 O 123.65 2.72594 -4.73661 0
M  V30 1218 H 120.744 0.442939 -0.69838 0
M  V30 1219 H 123.29 0.188342 -1.68652 0
M  V30 1220 H 122.062 0.762869 -3.83792 0
M  V30 1221 H 121.685 2.35596 -3.20282 0
M  V30 1222 N 122.682 1.50554 0.465978 0
M  V30 1223 C 123.922 1.63439 1.22747 0
M  V30 1224 C 124.286 0.329822 1.89146 0
M  V30 1225 O 125.487 0.334161 2.66715 0
M  V30 1226 C 123.758 2.78542 2.2394 0
M  V30 1227 S 125.317 3.11591 3.0896 0
M  V30 1228 H 122.135 0.576113 0.416672 0
M  V30 1229 H 124.737 1.88357 0.523641 0
M  V30 1230 H 123.441 3.71805 1.7375 0
M  V30 1231 H 122.972 2.55726 2.98944 0
M  V30 1232 H 124.987 2.55811 4.25176 0
M  V30 1233 N 124.16 -0.719506 1.40217 0
M  V30 1234 C 125.07 -1.86378 1.42479 0
M  V30 1235 C 126.086 -1.71073 0.317834 0
M  V30 1236 O 127.262 -1.93406 0.561794 0
M  V30 1237 C 124.327 -3.22136 1.28178 0
M  V30 1238 C 123.388 -3.49723 2.48982 0
M  V30 1239 C 122.621 -4.79004 2.35353 0
M  V30 1240 O 122.844 -5.53821 1.36524 0
M  V30 1241 O 121.778 -5.06839 3.2465 0
M  V30 1242 H 125.604 -1.87425 2.38968 0
M  V30 1243 H 123.189 -0.869405 1.21498 0
M  V30 1244 H 125.071 -4.03234 1.22395 0
M  V30 1245 H 123.746 -3.21825 0.347934 0
M  V30 1246 H 122.653 -2.6865 2.60342 0
M  V30 1247 H 123.986 -3.54828 3.41113 0
M  V30 1248 N 125.638 -1.25649 -0.95132 0
M  V30 1249 C 126.886 -1.10375 -1.69298 0
M  V30 1250 C 127.207 0.355339 -1.91735 0
M  V30 1251 O 126.477 1.25188 -1.50681 0
M  V30 1252 H 125.057 -0.405461 -0.627384 0
M  V30 1253 H 127.719 -1.57823 -1.14358 0
M  V30 1254 H 126.815 -1.61465 -2.67087 0
M  V30 1255 N 127.117 1.15442 -1.07289 0
M  V30 1256 C 128.345 1.90096 -0.81676 0
M  V30 1257 C 128.76 1.7798 0.629966 0
M  V30 1258 O 128.117 1.1313 1.43206 0
M  V30 1259 C 128.168 3.40466 -1.21512 0
M  V30 1260 O 127.889 3.52232 -2.60508 0
M  V30 1261 C 129.39 4.32145 -0.988198 0
M  V30 1262 H 126.61 0.602495 -0.295366 0
M  V30 1263 H 129.154 1.4627 -1.42918 0
M  V30 1264 H 127.309 3.81958 -0.647039 0
M  V30 1265 H 127.723 4.45549 -2.76742 0
M  V30 1266 H 129.197 5.36072 -1.31645 0
M  V30 1267 H 129.674 4.39135 0.0755063 0
M  V30 1268 H 130.28 3.96395 -1.54115 0
M  V30 1269 N 128.595 0.856903 1.32268 0
M  V30 1270 C 129.872 0.382583 1.91822 0
M  V30 1271 C 130.252 -1.13407 1.78051 0
M  V30 1272 O 129.6 -1.95673 1.18001 0
M  V30 1273 C 129.81 0.849446 3.38505 0
M  V30 1274 C 131.158 0.867936 4.15634 0
M  V30 1275 O 132.182 0.794232 3.47232 0
M  V30 1276 O 131.041 0.972286 5.37781 0
M  V30 1277 H 128.135 0.112014 0.819379 0
M  V30 1278 H 130.681 0.943952 1.41024 0
M  V30 1279 H 129.453 1.89267 3.42482 0
M  V30 1280 H 129.076 0.265652 3.96712 0
M  V30 1281 N 130.073 -1.45103 0.615059 0
M  V30 1282 C 131.036 -2.29025 -0.0895485 0
M  V30 1283 C 132.036 -1.40174 -0.787906 0
M  V30 1284 O 133.226 -1.62217 -0.634933 0
M  V30 1285 C 130.358 -3.21376 -1.13711 0
M  V30 1286 H 131.551 -2.92807 0.648382 0
M  V30 1287 H 129.104 -1.51749 0.374444 0
M  V30 1288 H 129.839 -2.6241 -1.90556 0
M  V30 1289 H 129.624 -3.86834 -0.640475 0
M  V30 1290 H 131.114 -3.84459 -1.63036 0
M  V30 1291 N 131.551 -0.354651 -1.53558 0
M  V30 1292 C 132.967 -0.00315426 -1.596 0
M  V30 1293 C 133.167 1.47741 -1.37021 0
M  V30 1294 O 132.223 2.23759 -1.16996 0
M  V30 1295 C 133.536 -0.44929 -2.97325 0
M  V30 1296 C 135.084 -0.402578 -3.104 0
M  V30 1297 C 135.559 -0.824355 -4.5052 0
M  V30 1298 N 137.05 -0.778979 -4.56603 0
M  V30 1299 C 137.785 -1.07715 -5.63192 0
M  V30 1300 N 137.281 -1.44405 -6.77583 0
M  V30 1301 N 139.074 -1.00066 -5.53121 0
M  V30 1302 H 131.225 -1.31893 -1.66487 0
M  V30 1303 H 133.488 -0.538388 -0.780284 0
M  V30 1304 H 133.194 -1.48202 -3.1895 0
M  V30 1305 H 133.068 0.169772 -3.76818 0
M  V30 1306 H 135.455 0.621004 -2.88492 0
M  V30 1307 H 135.536 -1.05699 -2.32941 0
M  V30 1308 H 135.18 -1.846 -4.73165 0
M  V30 1309 H 135.11 -0.147304 -5.26394 0
M  V30 1310 H 137.601 -0.508528 -3.74463 0
M  V30 1311 H 137.914 -1.65612 -7.54846 0
M  V30 1312 H 136.259 -1.4826 -6.79002 0
M  V30 1313 H 139.45 -0.713293 -4.62633 0
M  V30 1314 H 139.623 -1.23638 -6.36096 0
M  V30 1315 N 133.029 1.57378 -0.0835403 0
M  V30 1316 C 134.44 1.81261 0.447358 0
M  V30 1317 C 134.791 0.998331 1.68902 0
M  V30 1318 O 133.916 0.224282 2.15235 0
M  V30 1319 C 134.511 3.28767 0.818386 0
M  V30 1320 C 133.07 3.53455 1.29409 0
M  V30 1321 C 132.217 2.75831 0.285024 0
M  V30 1322 H 135.168 1.5566 -0.309115 0
M  V30 1323 H 135.189 3.41459 1.67887 0
M  V30 1324 H 134.701 3.88006 -0.0855019 0
M  V30 1325 H 132.802 2.99534 2.21608 0
M  V30 1326 H 132.915 4.62128 1.2639 0
M  V30 1327 H 131.279 2.42947 0.764767 0
M  V30 1328 H 132.062 3.37813 -0.611341 0
M  V30 1329 N 134.507 -0.190092 1.56449 0
M  V30 1330 C 135.737 -0.92443 1.84764 0
M  V30 1331 C 136.145 -1.77146 0.664529 0
M  V30 1332 O 135.488 -1.79812 -0.375957 0
M  V30 1333 C 135.55 -1.86651 3.07248 0
M  V30 1334 C 135.214 -1.20094 4.40938 0
M  V30 1335 C 136.211 -0.575445 5.16706 0
M  V30 1336 C 133.896 -1.2033 4.87674 0
M  V30 1337 C 135.89 0.0388111 6.37388 0
M  V30 1338 C 133.577 -0.585214 6.08291 0
M  V30 1339 C 134.575 0.0347578 6.82991 0
M  V30 1340 O 134.263 0.643147 8.01323 0
M  V30 1341 H 133.995 -0.274974 0.617548 0
M  V30 1342 H 136.549 -0.200788 2.04416 0
M  V30 1343 H 134.779 -2.62998 2.83494 0
M  V30 1344 H 136.468 -2.46907 3.22167 0
M  V30 1345 H 137.234 -0.565728 4.81689 0
M  V30 1346 H 133.113 -1.67526 4.29484 0
M  V30 1347 H 136.657 0.523329 6.95634 0
M  V30 1348 H 132.554 -0.592451 6.42775 0
M  V30 1349 H 133.322 0.540545 8.16713 0
M  V30 1350 N 135.985 -1.50799 -0.457987 0
M  V30 1351 C 137.225 -1.64088 -1.21879 0
M  V30 1352 C 137.589 -0.339848 -1.88968 0
M  V30 1353 O 138.79 -0.348301 -2.66534 0
M  V30 1354 C 137.061 -2.79726 -2.2246 0
M  V30 1355 S 138.62 -3.13225 -3.07303 0
M  V30 1356 H 135.438 -0.578314 -0.41361 0
M  V30 1357 H 138.04 -1.88632 -0.513645 0
M  V30 1358 H 136.744 -3.72722 -1.71775 0
M  V30 1359 H 136.275 -2.57308 -2.97584 0
M  V30 1360 H 138.29 -2.58062 -4.23814 0
M  V30 1361 N 137.463 0.71206 -1.40597 0
M  V30 1362 C 138.41 1.82613 -1.41142 0
M  V30 1363 C 139.38 1.63925 -0.267903 0
M  V30 1364 O 140.565 1.85009 -0.466495 0
M  V30 1365 C 137.705 3.20354 -1.28324 0
M  V30 1366 C 136.818 3.50589 -2.52411 0
M  V30 1367 C 135.953 4.77855 -2.32009 0
M  V30 1368 C 134.992 5.01005 -3.51654 0
M  V30 1369 N 134.129 6.19487 -3.30425 0
M  V30 1370 H 138.969 1.81482 -2.36365 0
M  V30 1371 H 136.506 0.886475 -1.17388 0
M  V30 1372 H 138.464 3.99899 -1.18899 0
M  V30 1373 H 137.094 3.20705 -0.367189 0
M  V30 1374 H 136.146 2.65573 -2.72351 0
M  V30 1375 H 137.458 3.63604 -3.41458 0
M  V30 1376 H 136.612 5.65424 -2.19956 0
M  V30 1377 H 135.351 4.67056 -1.40392 0
M  V30 1378 H 134.356 4.1189 -3.64179 0
M  V30 1379 H 135.581 5.13674 -4.44202 0
M  V30 1380 H 133.527 6.09932 -2.41494 0
M  V30 1381 H 133.444 6.33194 -4.13039 0
M  V30 1382 H 134.712 7.09834 -3.22113 0
M  V30 1383 N 138.941 1.26152 0.944643 0
M  V30 1384 C 140.187 1.11657 1.69294 0
M  V30 1385 C 140.52 -0.339926 1.91202 0
M  V30 1386 O 139.795 -1.24994 1.49019 0
M  V30 1387 C 140.078 1.88236 3.06984 0
M  V30 1388 C 139.931 3.41772 2.92424 0
M  V30 1389 C 141.25 1.67343 4.07043 0
M  V30 1390 H 138.369 0.407004 0.614424 0
M  V30 1391 H 141.011 1.55106 1.09737 0
M  V30 1392 H 139.161 1.51308 3.57824 0
M  V30 1393 H 140.833 3.88433 2.48832 0
M  V30 1394 H 139.076 3.68974 2.28124 0
M  V30 1395 H 139.747 3.90579 3.90067 0
M  V30 1396 H 142.223 1.99509 3.65151 0
M  V30 1397 H 141.099 2.23346 5.01406 0
M  V30 1398 H 141.36 0.617158 4.37771 0
M  V30 1399 N 140.419 -1.14872 1.07899 0
M  V30 1400 C 141.349 -2.2193 0.725887 0
M  V30 1401 C 142.33 -1.67622 -0.28927 0
M  V30 1402 O 143.515 -1.93533 -0.160787 0
M  V30 1403 C 140.645 -3.47061 0.128856 0
M  V30 1404 C 139.599 -4.14363 1.07178 0
M  V30 1405 C 138.925 -5.33636 0.337229 0
M  V30 1406 C 140.225 -4.63492 2.40775 0
M  V30 1407 H 141.919 -2.51724 1.62097 0
M  V30 1408 H 139.465 -1.20991 0.780838 0
M  V30 1409 H 141.418 -4.21199 -0.130147 0
M  V30 1410 H 140.142 -3.16617 -0.80134 0
M  V30 1411 H 138.801 -3.42173 1.3158 0
M  V30 1412 H 138.449 -4.99449 -0.596606 0
M  V30 1413 H 138.149 -5.79609 0.965788 0
M  V30 1414 H 139.673 -6.10539 0.0861567 0
M  V30 1415 H 141.087 -5.2913 2.20669 0
M  V30 1416 H 139.484 -5.20148 2.99276 0
M  V30 1417 H 140.554 -3.78834 3.02676 0
M  V30 1418 N 141.898 -0.863906 -1.31812 0
M  V30 1419 C 142.828 -0.330843 -2.31144 0
M  V30 1420 C 143.809 0.575005 -1.60087 0
M  V30 1421 O 144.994 0.493304 -1.8783 0
M  V30 1422 C 142.124 0.47374 -3.44054 0
M  V30 1423 C 141.078 -0.338481 -4.26659 0
M  V30 1424 C 140.404 0.591412 -5.31419 0
M  V30 1425 C 141.704 -1.56926 -4.98168 0
M  V30 1426 H 143.398 -1.16086 -2.75979 0
M  V30 1427 H 140.944 -0.559657 -1.32679 0
M  V30 1428 H 142.897 0.857143 -4.12591 0
M  V30 1429 H 141.621 1.33721 -2.9797 0
M  V30 1430 H 140.28 -0.703754 -3.59782 0
M  V30 1431 H 139.928 1.45199 -4.81587 0
M  V30 1432 H 139.628 0.0519022 -5.87577 0
M  V30 1433 H 141.152 0.97179 -6.02817 0
M  V30 1434 H 142.566 -1.25764 -5.59336 0
M  V30 1435 H 140.963 -2.04739 -5.64094 0
M  V30 1436 H 142.033 -2.32544 -4.25501 0
M  V30 1437 N 143.376 1.44774 -0.622745 0
M  V30 1438 C 144.306 2.33382 0.0741861 0
M  V30 1439 C 145.287 1.47719 0.843387 0
M  V30 1440 O 146.472 1.76458 0.810934 0
M  V30 1441 C 143.602 3.30663 1.06204 0
M  V30 1442 C 142.556 4.26079 0.405037 0
M  V30 1443 C 141.882 5.13165 1.5022 0
M  V30 1444 C 143.182 5.1781 -0.683414 0
M  V30 1445 H 144.876 2.91905 -0.665713 0
M  V30 1446 H 142.422 1.40363 -0.321587 0
M  V30 1447 H 144.375 3.9153 1.55827 0
M  V30 1448 H 143.099 2.70331 1.83272 0
M  V30 1449 H 141.758 3.66532 -0.0704683 0
M  V30 1450 H 141.406 4.49191 2.26355 0
M  V30 1451 H 141.106 5.77812 1.06803 0
M  V30 1452 H 142.63 5.76902 2.00041 0
M  V30 1453 H 144.044 5.72661 -0.270631 0
M  V30 1454 H 142.441 5.91015 -1.04023 0
M  V30 1455 H 143.511 4.59326 -1.55395 0
M  V30 1456 N 144.854 0.36279 1.53368 0
M  V30 1457 C 145.804 -0.501391 2.22419 0
M  V30 1458 C 146.788 -1.0509 1.2184 0
M  V30 1459 O 147.98 -0.981404 1.47301 0
M  V30 1460 C 145.109 -1.64201 3.01484 0
M  V30 1461 C 144.195 -1.10552 4.09438 0
M  V30 1462 N 144.586 -0.291788 5.04958 0
M  V30 1463 C 142.884 -1.3806 4.24094 0
M  V30 1464 C 143.585 0.00162655 5.817 0
M  V30 1465 N 142.561 -0.595244 5.40331 0
M  V30 1466 H 146.363 0.127159 2.93625 0
M  V30 1467 H 143.877 0.170658 1.61501 0
M  V30 1468 H 145.874 -2.27326 3.49469 0
M  V30 1469 H 144.534 -2.27365 2.31809 0
M  V30 1470 H 145.545 0.0687731 5.17854 0
M  V30 1471 H 142.222 -2.01522 3.65644 0
M  V30 1472 H 143.612 0.659278 6.68658 0
M  V30 1473 N 146.332 -1.57332 0.0918853 0
M  V30 1474 C 147.242 -2.17368 -0.882505 0
M  V30 1475 C 148.258 -1.14226 -1.31257 0
M  V30 1476 O 149.434 -1.46582 -1.38115 0
M  V30 1477 C 146.499 -2.73962 -2.12476 0
M  V30 1478 C 145.56 -3.92048 -1.7492 0
M  V30 1479 C 144.793 -4.45933 -2.93223 0
M  V30 1480 O 145.016 -3.98764 -4.07852 0
M  V30 1481 O 143.95 -5.36999 -2.71875 0
M  V30 1482 H 147.776 -3.01031 -0.40172 0
M  V30 1483 H 145.361 -1.48813 -0.132291 0
M  V30 1484 H 147.243 -3.10147 -2.85283 0
M  V30 1485 H 145.918 -1.93347 -2.59613 0
M  V30 1486 H 144.825 -3.6068 -0.993025 0
M  V30 1487 H 146.158 -4.74017 -1.32548 0
M  V30 1488 N 147.81 0.181792 -1.56548 0
M  V30 1489 C 149.056 0.901431 -1.81665 0
M  V30 1490 C 149.389 1.82347 -0.668075 0
M  V30 1491 O 148.664 1.91669 0.330615 0
M  V30 1492 C 148.947 1.70618 -3.17115 0
M  V30 1493 C 148.8 0.807964 -4.42484 0
M  V30 1494 C 150.119 2.67605 -3.49393 0
M  V30 1495 H 147.238 0.32627 -0.660846 0
M  V30 1496 H 149.88 0.168134 -1.89255 0
M  V30 1497 H 148.03 2.33133 -3.10775 0
M  V30 1498 H 149.702 0.19649 -4.60881 0
M  V30 1499 H 147.945 0.115411 -4.33646 0
M  V30 1500 H 148.616 1.40632 -5.33785 0
M  V30 1501 H 151.092 2.15218 -3.56118 0
M  V30 1502 H 149.968 3.20985 -4.45264 0
M  V30 1503 H 150.229 3.47298 -2.73563 0
M  V30 1504 N 149.288 1.51039 0.449983 0
M  V30 1505 C 150.238 1.67824 1.54335 0
M  V30 1506 C 151.222 0.5324 1.51836 0
M  V30 1507 O 152.414 0.787762 1.58503 0
M  V30 1508 C 149.543 1.7951 2.92628 0
M  V30 1509 C 148.629 2.99838 2.9993 0
M  V30 1510 N 149.02 4.23207 2.77001 0
M  V30 1511 C 147.318 2.98832 3.31082 0
M  V30 1512 C 148.019 5.04361 2.89818 0
M  V30 1513 N 146.995 4.38746 3.2094 0
M  V30 1514 H 150.797 2.60884 1.35339 0
M  V30 1515 H 148.311 1.48513 0.657085 0
M  V30 1516 H 150.308 1.89642 3.7127 0
M  V30 1517 H 148.968 0.876227 3.12654 0
M  V30 1518 H 149.979 4.5236 2.52172 0
M  V30 1519 H 146.656 2.16527 3.56963 0
M  V30 1520 H 148.046 6.12528 2.76151 0
M  V30 1521 N 150.766 -0.704594 1.40972 0
M  V30 1522 C 151.729 -1.80035 1.41845 0
M  V30 1523 C 152.729 -1.57774 0.310474 0
M  V30 1524 O 153.919 -1.64613 0.56992 0
M  V30 1525 C 151.051 -3.18284 1.22098 0
M  V30 1526 H 152.244 -1.80658 2.3938 0
M  V30 1527 H 149.797 -0.911329 1.26982 0
M  V30 1528 H 150.532 -3.23306 0.253672 0
M  V30 1529 H 150.317 -3.35843 2.02366 0
M  V30 1530 H 151.807 -3.98289 1.25522 0
M  V30 1531 N 152.244 -1.26651 -0.937939 0
M  V30 1532 C 153.192 -1.08308 -2.05845 0
M  V30 1533 C 154.186 -0.0090757 -1.69398 0
M  V30 1534 O 155.392 -0.166007 -1.79233 0
M  V30 1535 H 151.767 -0.333416 -0.674046 0
M  V30 1536 H 153.738 -2.03261 -2.18467 0
M  V30 1537 C 152.487 -0.736229 -3.39816 0
M  V30 1538 H 151.81 -1.55453 -3.6834 0
M  V30 1539 H 153.25 -0.64769 -4.19024 0
M  V30 1540 C 151.709 0.558824 -3.32233 0
M  V30 1541 O 152.239 1.59621 -3.68624 0
M  V30 1542 N 150.445 0.550657 -2.85335 0
M  V30 1543 H 149.992 -0.293943 -2.55917 0
M  V30 1544 H 149.95 1.41726 -2.80644 0
M  V30 1545 N 153.722 1.14298 -1.08507 0
M  V30 1546 C 154.999 1.81544 -0.728088 0
M  V30 1547 C 155.379 1.95838 0.78808 0
M  V30 1548 O 154.727 1.51904 1.70697 0
M  V30 1549 C 154.937 3.17169 -1.45619 0
M  V30 1550 C 156.285 3.9265 -1.61591 0
M  V30 1551 O 157.309 3.26762 -1.41793 0
M  V30 1552 O 156.168 5.10807 -1.94263 0
M  V30 1553 H 153.262 0.78491 -0.260471 0
M  V30 1554 H 155.808 1.21307 -1.18671 0
M  V30 1555 H 154.58 3.01934 -2.489 0
M  V30 1556 H 154.203 3.851 -0.989124 0
M  V30 1557 N 155.201 0.870884 1.31352 0
M  V30 1558 C 156.429 0.49677 2.00848 0
M  V30 1559 C 156.844 -0.910998 1.65367 0
M  V30 1560 O 156.201 -1.59696 0.883374 0
M  V30 1561 C 156.252 0.645308 3.55694 0
M  V30 1562 O 155.973 1.99764 3.89905 0
M  V30 1563 C 157.474 0.272326 4.42463 0
M  V30 1564 H 154.694 0.193462 0.642506 0
M  V30 1565 H 157.238 1.1723 1.67563 0
M  V30 1566 H 155.393 0.0173176 3.87396 0
M  V30 1567 H 155.807 2.00607 4.84621 0
M  V30 1568 H 157.281 0.427208 5.50344 0
M  V30 1569 H 157.758 -0.788587 4.32062 0
M  V30 1570 H 158.364 0.876054 4.1618 0
M  V30 1571 N 156.679 -1.44442 0.630414 0
M  V30 1572 C 157.927 -2.01653 0.134351 0
M  V30 1573 C 158.248 -1.49836 -1.24796 0
M  V30 1574 O 157.518 -0.701684 -1.82902 0
M  V30 1575 H 156.098 -0.74554 0.0466769 0
M  V30 1576 H 158.76 -1.76952 0.816955 0
M  V30 1577 H 157.856 -3.11935 0.101498 0
M  V30 1578 N 158.157 -0.370918 -1.53173 0
M  V30 1579 C 159.382 0.220293 -2.06227 0
M  V30 1580 C 159.807 1.41243 -1.24225 0
M  V30 1581 O 159.165 1.79387 -0.262645 0
M  V30 1582 C 159.213 0.586663 -3.55796 0
M  V30 1583 O 158.317 1.68317 -3.76488 0
M  V30 1584 H 157.658 0.0308099 -0.663285 0
M  V30 1585 H 160.188 -0.533068 -1.97534 0
M  V30 1586 H 160.198 0.85617 -3.98916 0
M  V30 1587 H 158.873 -0.285013 -4.14922 0
M  V30 1588 H 157.45 1.40881 -3.45264 0
M  V30 1589 N 159.635 1.57281 -0.100228 0
M  V30 1590 C 160.865 1.98591 0.569681 0
M  V30 1591 C 161.273 0.978315 1.61943 0
M  V30 1592 O 160.616 -0.0396108 1.83657 0
M  V30 1593 C 160.678 3.36282 1.271 0
M  V30 1594 C 160.342 4.55488 0.371409 0
M  V30 1595 C 161.339 5.18491 -0.382504 0
M  V30 1596 C 159.024 5.01474 0.287965 0
M  V30 1597 C 161.018 6.25852 -1.20779 0
M  V30 1598 C 158.705 6.08701 -0.540965 0
M  V30 1599 C 159.703 6.70755 -1.28749 0
M  V30 1600 O 159.391 7.75914 -2.10269 0
M  V30 1601 H 159.123 0.65752 0.156982 0
M  V30 1602 H 161.677 2.0463 -0.177734 0
M  V30 1603 H 159.907 3.26941 2.0651 0
M  V30 1604 H 161.596 3.62005 1.83595 0
M  V30 1605 H 162.362 4.83891 -0.3278 0
M  V30 1606 H 158.241 4.52932 0.858689 0
M  V30 1607 H 161.785 6.74218 -1.79096 0
M  V30 1608 H 157.682 6.42732 -0.597131 0
M  V30 1609 H 158.45 7.92925 -2.03007 0
M  V30 1610 N 161.113 -0.173488 1.56642 0
M  V30 1611 C 162.359 -0.891784 1.8214 0
M  V30 1612 C 162.692 -1.8199 0.677736 0
M  V30 1613 O 161.967 -1.91842 -0.320446 0
M  V30 1614 C 162.25 -1.68933 3.18015 0
M  V30 1615 C 162.103 -0.784487 4.42906 0
M  V30 1616 C 163.422 -2.65748 3.50808 0
M  V30 1617 H 160.541 -0.322761 0.662567 0
M  V30 1618 H 163.183 -0.158095 1.89341 0
M  V30 1619 H 161.333 -2.31482 3.12007 0
M  V30 1620 H 163.005 -0.172046 4.60979 0
M  V30 1621 H 161.248 -0.0924117 4.33702 0
M  V30 1622 H 161.919 -1.37799 5.34524 0
M  V30 1623 H 164.395 -2.13327 3.57255 0
M  V30 1624 H 163.271 -3.18619 4.4696 0
M  V30 1625 H 163.532 -3.45842 2.75401 0
M  V30 1626 N 162.591 -1.51276 -0.441967 0
M  V30 1627 C 163.831 -1.65372 -1.20132 0
M  V30 1628 C 164.195 -0.359871 -1.88597 0
M  V30 1629 O 165.396 -0.376551 -2.66149 0
M  V30 1630 C 163.667 -2.8207 -2.1948 0
M  V30 1631 S 165.226 -3.16467 -3.03964 0
M  V30 1632 H 162.044 -0.582669 -0.407453 0
M  V30 1633 H 164.646 -1.89166 -0.493609 0
M  V30 1634 H 163.35 -3.74523 -1.67812 0
M  V30 1635 H 162.881 -2.6045 -2.94838 0
M  V30 1636 H 164.896 -2.62543 -4.21053 0
M  V30 1637 N 164.069 0.697108 -1.41344 0
M  V30 1638 C 165.299 1.48377 -1.43763 0
M  V30 1639 C 165.707 1.89156 -0.0408726 0
M  V30 1640 O 165.05 1.57239 0.949812 0
M  V30 1641 C 165.112 2.7781 -2.2817 0
M  V30 1642 C 164.776 2.59244 -3.76353 0
M  V30 1643 C 165.773 2.25292 -4.68551 0
M  V30 1644 C 163.458 2.74933 -4.20378 0
M  V30 1645 C 165.452 2.07264 -6.02761 0
M  V30 1646 C 163.139 2.56521 -5.54653 0
M  V30 1647 C 164.137 2.22737 -6.4566 0
M  V30 1648 O 163.825 2.04485 -7.77458 0
M  V30 1649 H 163.557 0.463842 -0.491759 0
M  V30 1650 H 166.111 0.865934 -1.86255 0
M  V30 1651 H 164.341 3.41995 -1.8049 0
M  V30 1652 H 166.03 3.39608 -2.22309 0
M  V30 1653 H 166.796 2.12787 -4.35829 0
M  V30 1654 H 162.675 3.00213 -3.49848 0
M  V30 1655 H 166.219 1.80817 -6.73759 0
M  V30 1656 H 162.116 2.68616 -5.86955 0
M  V30 1657 H 162.884 2.1926 -7.88586 0
M  V30 1658 N 165.547 1.27147 0.931209 0
M  V30 1659 C 166.777 1.15914 1.71019 0
M  V30 1660 C 167.185 -0.287112 1.87009 0
M  V30 1661 O 166.528 -1.20761 1.38429 0
M  V30 1662 C 166.59 1.76647 3.13107 0
M  V30 1663 C 166.254 3.25807 3.20467 0
M  V30 1664 C 167.251 4.22489 3.02983 0
M  V30 1665 C 164.936 3.66452 3.43538 0
M  V30 1666 C 166.93 5.57794 3.08454 0
M  V30 1667 C 164.617 5.01888 3.48643 0
M  V30 1668 C 165.615 5.97369 3.31119 0
M  V30 1669 O 165.303 7.30337 3.35952 0
M  V30 1670 H 165.035 0.404062 0.54195 0
M  V30 1671 H 167.589 1.68457 1.17521 0
M  V30 1672 H 165.819 1.18578 3.68071 0
M  V30 1673 H 167.508 1.60179 3.72958 0
M  V30 1674 H 168.274 3.92425 2.85004 0
M  V30 1675 H 164.153 2.92611 3.5623 0
M  V30 1676 H 167.697 6.32298 2.94694 0
M  V30 1677 H 163.594 5.31609 3.66145 0
M  V30 1678 H 164.362 7.38739 3.5243 0
M  V30 1679 N 167.025 -1.13721 1.09112 0
M  V30 1680 C 167.972 -2.19031 0.727591 0
M  V30 1681 C 168.942 -1.63555 -0.289656 0
M  V30 1682 O 170.127 -1.90023 -0.172026 0
M  V30 1683 C 167.267 -3.4477 0.15082 0
M  V30 1684 C 166.38 -4.14365 1.22172 0
M  V30 1685 C 165.515 -5.27709 0.608042 0
M  V30 1686 C 164.554 -5.89147 1.66047 0
M  V30 1687 N 163.691 -6.93929 1.06806 0
M  V30 1688 H 168.531 -2.49475 1.62991 0
M  V30 1689 H 166.068 -1.22499 0.81439 0
M  V30 1690 H 168.026 -4.16714 -0.201358 0
M  V30 1691 H 166.656 -3.14787 -0.714783 0
M  V30 1692 H 165.708 -3.40737 1.69122 0
M  V30 1693 H 167.02 -4.56114 2.01895 0
M  V30 1694 H 166.174 -6.06355 0.204523 0
M  V30 1695 H 164.913 -4.872 -0.220769 0
M  V30 1696 H 163.918 -5.09198 2.07357 0
M  V30 1697 H 165.143 -6.31729 2.49189 0
M  V30 1698 H 163.089 -6.55483 0.260476 0
M  V30 1699 H 163.006 -7.34202 1.8023 0
M  V30 1700 H 164.274 -7.76434 0.690644 0
M  V30 1701 N 168.503 -0.877838 -1.30888 0
M  V30 1702 C 169.733 -0.506678 -2.00291 0
M  V30 1703 C 170.141 0.907449 -1.66018 0
M  V30 1704 O 169.484 1.60719 -0.88967 0
M  V30 1705 C 169.546 -0.59323 -3.54572 0
M  V30 1706 C 169.21 -1.97038 -4.12341 0
M  V30 1707 C 170.207 -2.93889 -4.28865 0
M  V30 1708 C 167.892 -2.27383 -4.47886 0
M  V30 1709 C 169.886 -4.19224 -4.80136 0
M  V30 1710 C 167.573 -3.52965 -4.98857 0
M  V30 1711 C 168.571 -4.48701 -5.14934 0
M  V30 1712 O 168.259 -5.72056 -5.64808 0
M  V30 1713 H 167.991 -0.1951 -0.647234 0
M  V30 1714 H 170.545 -1.18301 -1.6791 0
M  V30 1715 H 168.775 0.140057 -3.86446 0
M  V30 1716 H 170.464 -0.234372 -4.05223 0
M  V30 1717 H 171.23 -2.71756 -4.01714 0
M  V30 1718 H 167.109 -1.53639 -4.34645 0
M  V30 1719 H 170.653 -4.93956 -4.92599 0
M  V30 1720 H 166.55 -3.74939 -5.25443 0
M  V30 1721 H 167.318 -5.74337 -5.83163 0
M  V30 1722 N 169.982 1.44106 -0.638065 0
M  V30 1723 C 171.231 2.01194 -0.142744 0
M  V30 1724 C 171.544 1.50835 1.24532 0
M  V30 1725 O 172.75 2.00096 1.83504 0
M  V30 1726 C 171.206 3.59319 -0.20442 0
M  V30 1727 C 170.814 4.18674 -1.59423 0
M  V30 1728 C 172.558 4.23854 0.234079 0
M  V30 1729 C 170.465 5.69045 -1.61065 0
M  V30 1730 H 169.395 0.752367 -0.0495998 0
M  V30 1731 H 172.046 1.65246 -0.797881 0
M  V30 1732 H 170.428 3.92598 0.517946 0
M  V30 1733 H 171.602 3.96921 -2.34074 0
M  V30 1734 H 169.917 3.66453 -1.97741 0
M  V30 1735 H 172.514 5.34155 0.241443 0
M  V30 1736 H 172.857 3.96688 1.2627 0
M  V30 1737 H 173.39 3.95403 -0.436025 0
M  V30 1738 H 170.129 6.00956 -2.61787 0
M  V30 1739 H 169.649 5.929 -0.90718 0
M  V30 1740 H 171.328 6.32809 -1.34766 0
M  V30 1741 N 171.46 0.379036 1.52974 0
M  V30 1742 C 172.407 -0.461048 2.26148 0
M  V30 1743 C 173.377 -1.06637 1.27349 0
M  V30 1744 O 174.562 -1.09633 1.56157 0
M  V30 1745 C 171.702 -1.58782 3.06402 0
M  V30 1746 C 170.815 -1.00636 4.20115 0
M  V30 1747 C 169.95 -2.10334 4.87784 0
M  V30 1748 C 168.989 -1.49724 5.93506 0
M  V30 1749 N 168.126 -2.5331 6.54812 0
M  V30 1750 H 172.966 0.169429 2.97518 0
M  V30 1751 H 170.503 0.0953806 1.4679 0
M  V30 1752 H 172.461 -2.25174 3.51215 0
M  V30 1753 H 171.091 -2.18876 2.37261 0
M  V30 1754 H 170.143 -0.232332 3.7969 0
M  V30 1755 H 171.455 -0.523343 4.96047 0
M  V30 1756 H 170.609 -2.84519 5.35849 0
M  V30 1757 H 169.348 -2.61992 4.11353 0
M  V30 1758 H 168.353 -0.740598 5.44789 0
M  V30 1759 H 169.578 -0.988732 6.71864 0
M  V30 1760 H 167.524 -3.04156 5.81227 0
M  V30 1761 H 167.441 -2.09734 7.26325 0
M  V30 1762 H 168.709 -3.27155 7.07524 0
M  V30 1763 N 172.938 -1.57226 0.108567 0
M  V30 1764 C 173.901 -2.13602 -0.831082 0
M  V30 1765 C 174.901 -1.06841 -1.20173 0
M  V30 1766 O 176.091 -1.32666 -1.12895 0
M  V30 1767 C 173.223 -2.66769 -2.12243 0
M  V30 1768 H 174.416 -2.97951 -0.341317 0
M  V30 1769 H 171.969 -1.55667 -0.14057 0
M  V30 1770 H 172.704 -1.85977 -2.65675 0
M  V30 1771 H 172.489 -3.44839 -1.86625 0
M  V30 1772 H 173.979 -3.10332 -2.79435 0
M  V30 1773 N 174.416 0.165178 -1.56732 0
M  V30 1774 C 175.832 0.517174 -1.50988 0
M  V30 1775 C 176.032 1.84331 -0.813894 0
M  V30 1776 O 175.088 2.49672 -0.37682 0
M  V30 1777 C 176.401 0.544261 -2.95733 0
M  V30 1778 C 177.949 0.631039 -3.06573 0
M  V30 1779 C 178.424 0.68896 -4.52788 0
M  V30 1780 N 179.915 0.751683 -4.5706 0
M  V30 1781 C 180.65 0.817177 -5.67547 0
M  V30 1782 N 180.146 0.843129 -6.8765 0
M  V30 1783 N 181.939 0.856668 -5.55534 0
M  V30 1784 H 174.09 -0.704318 -2.00382 0
M  V30 1785 H 176.353 -0.254687 -0.913148 0
M  V30 1786 H 176.059 -0.361607 -3.49836 0
M  V30 1787 H 175.933 1.3886 -3.5071 0
M  V30 1788 H 178.32 1.52733 -2.52501 0
M  V30 1789 H 178.401 -0.240095 -2.54671 0
M  V30 1790 H 178.045 -0.2031 -5.07494 0
M  V30 1791 H 177.975 1.57633 -5.02454 0
M  V30 1792 H 180.466 0.739661 -3.70591 0
M  V30 1793 H 180.779 0.894448 -7.67606 0
M  V30 1794 H 179.124 0.811304 -6.90248 0
M  V30 1795 H 182.315 0.833437 -4.60621 0
M  V30 1796 H 182.488 0.904247 -6.4166 0
M  V30 1797 N 175.894 1.51508 0.433938 0
M  V30 1798 C 177.143 1.63578 1.18005 0
M  V30 1799 C 177.456 0.359514 1.92268 0
M  V30 1800 O 178.662 0.359632 2.69108 0
M  V30 1801 C 177.118 2.88901 2.14626 0
M  V30 1802 C 176.726 4.23544 1.45995 0
M  V30 1803 C 178.47 3.10328 2.89649 0
M  V30 1804 C 176.377 5.40014 2.4112 0
M  V30 1805 H 175.307 0.609277 0.444182 0
M  V30 1806 H 177.958 1.77978 0.446773 0
M  V30 1807 H 176.34 2.68142 2.91403 0
M  V30 1808 H 177.514 4.54696 0.747532 0
M  V30 1809 H 175.829 4.08021 0.831115 0
M  V30 1810 H 178.426 3.94518 3.60915 0
M  V30 1811 H 178.769 2.23544 3.51189 0
M  V30 1812 H 179.302 3.31443 2.19978 0
M  V30 1813 H 176.041 6.29068 1.84264 0
M  V30 1814 H 175.561 5.13233 3.10406 0
M  V30 1815 H 177.24 5.72099 3.02177 0
M  V30 1816 N 177.372 -0.689602 1.41712 0
M  V30 1817 C 178.282 -1.83314 1.46401 0
M  V30 1818 C 179.298 -1.7036 0.35405 0
M  V30 1819 O 180.474 -1.92171 0.602692 0
M  V30 1820 C 177.539 -3.19344 1.34982 0
M  V30 1821 C 176.6 -3.44363 2.56344 0
M  V30 1822 C 175.833 -4.73904 2.45461 0
M  V30 1823 O 176.056 -5.508 1.48241 0
M  V30 1824 O 174.99 -4.99839 3.35328 0
M  V30 1825 H 178.816 -1.82314 2.42889 0
M  V30 1826 H 176.401 -0.843438 1.23315 0
M  V30 1827 H 178.283 -4.00547 1.3092 0
M  V30 1828 H 176.958 -3.21014 0.41612 0
M  V30 1829 H 175.865 -2.63067 2.65982 0
M  V30 1830 H 177.198 -3.47512 3.48563 0
M  V30 1831 N 178.85 -1.27639 -0.924453 0
M  V30 1832 C 180.098 -1.13941 -1.66918 0
M  V30 1833 C 180.419 0.314589 -1.92446 0
M  V30 1834 O 179.689 1.21964 -1.53303 0
M  V30 1835 H 178.269 -0.418678 -0.618642 0
M  V30 1836 H 180.931 -1.60213 -1.10985 0
M  V30 1837 H 180.027 -1.67094 -2.63602 0
M  V30 1838 N 180.328 1.1314 -1.09713 0
M  V30 1839 C 181.556 1.88321 -0.856898 0
M  V30 1840 C 181.971 1.79276 0.592073 0
M  V30 1841 O 181.328 1.16142 1.40774 0
M  V30 1842 C 181.379 3.37812 -1.28706 0
M  V30 1843 O 181.1 3.46627 -2.67921 0
M  V30 1844 C 182.601 4.29952 -1.07964 0
M  V30 1845 H 179.821 0.596094 -0.308079 0
M  V30 1846 H 182.365 1.43205 -1.45988 0
M  V30 1847 H 180.52 3.805 -0.727912 0
M  V30 1848 H 180.934 4.39579 -2.8613 0
M  V30 1849 H 182.408 5.33159 -1.42986 0
M  V30 1850 H 182.885 4.39196 -0.0176577 0
M  V30 1851 H 183.491 3.93036 -1.62489 0
M  V30 1852 N 181.806 0.884767 1.30421 0
M  V30 1853 C 183.034 0.518044 2.0031 0
M  V30 1854 C 183.449 -0.893408 1.66324 0
M  V30 1855 O 182.806 -1.5875 0.900262 0
M  V30 1856 C 182.857 0.682997 3.54989 0
M  V30 1857 O 182.578 2.03888 3.87764 0
M  V30 1858 C 184.079 0.31924 4.42149 0
M  V30 1859 H 181.299 0.200265 0.640418 0
M  V30 1860 H 183.843 1.19001 1.6631 0
M  V30 1861 H 181.998 0.0584052 3.87356 0
M  V30 1862 H 182.412 2.05735 4.82466 0
M  V30 1863 H 183.886 0.485555 5.4986 0
M  V30 1864 H 184.363 -0.742717 4.32875 0
M  V30 1865 H 184.969 0.920147 4.15227 0
M  V30 1866 N 183.284 -1.43765 0.645699 0
M  V30 1867 C 184.247 -2.29163 -0.0409488 0
M  V30 1868 C 185.247 -1.41813 -0.757996 0
M  V30 1869 O 186.437 -1.63527 -0.600382 0
M  V30 1870 C 183.569 -3.23716 -1.06869 0
M  V30 1871 H 184.762 -2.91366 0.710345 0
M  V30 1872 H 182.315 -1.5092 0.406547 0
M  V30 1873 H 183.05 -2.66393 -1.84947 0
M  V30 1874 H 182.835 -3.88105 -0.558277 0
M  V30 1875 H 184.325 -3.87831 -1.54845 0
M  V30 1876 N 184.763 -0.387143 -1.52771 0
M  V30 1877 C 185.726 0.436939 -2.24997 0
M  V30 1878 C 186.726 0.991991 -1.26555 0
M  V30 1879 O 187.916 0.874335 -1.50669 0
M  V30 1880 C 185.048 1.61281 -3.00335 0
M  V30 1881 H 186.241 -0.195365 -2.99263 0
M  V30 1882 H 183.794 -0.139218 -1.55679 0
M  V30 1883 H 184.529 2.2826 -2.30364 0
M  V30 1884 H 184.314 1.22154 -3.72587 0
M  V30 1885 H 185.804 2.19629 -3.5518 0
M  V30 1886 N 186.241 1.57166 -0.116904 0
M  V30 1887 C 187.466 1.999 0.55271 0
M  V30 1888 C 187.891 0.996039 1.59564 0
M  V30 1889 O 187.249 -0.032556 1.81271 0
M  V30 1890 C 187.297 3.4152 1.15742 0
M  V30 1891 O 186.401 3.44106 2.27299 0
M  V30 1892 H 185.742 0.649447 0.138258 0
M  V30 1893 H 188.272 2.03573 -0.204759 0
M  V30 1894 H 188.282 3.79684 1.49346 0
M  V30 1895 H 186.957 4.14034 0.393493 0
M  V30 1896 H 185.534 3.17759 1.9515 0
M  V30 1897 N 187.719 -0.156864 1.56817 0
M  V30 1898 C 188.944 -0.890331 1.87318 0
M  V30 1899 C 189.369 -1.74394 0.704855 0
M  V30 1900 O 188.727 -1.77972 -0.345786 0
M  V30 1901 C 188.775 -1.73102 3.16336 0
M  V30 1902 O 187.879 -2.83422 2.99576 0
M  V30 1903 H 187.22 -0.24857 0.615718 0
M  V30 1904 H 189.75 -0.150649 2.04045 0
M  V30 1905 H 189.76 -2.12803 3.48107 0
M  V30 1906 H 188.435 -1.10412 4.00976 0
M  V30 1907 H 187.012 -2.47199 2.7919 0
M  V30 1908 N 189.197 -1.51736 -0.425897 0
M  V30 1909 C 190.427 -1.68549 -1.19476 0
M  V30 1910 C 190.835 -0.387288 -1.85194 0
M  V30 1911 O 190.178 0.645142 -1.71999 0
M  V30 1912 C 190.24 -2.75275 -2.31223 0
M  V30 1913 C 189.904 -4.17534 -1.8578 0
M  V30 1914 C 190.901 -5.01936 -1.35485 0
M  V30 1915 C 188.586 -4.6369 -1.93123 0
M  V30 1916 C 190.58 -6.30559 -0.931347 0
M  V30 1917 C 188.267 -5.92307 -1.50384 0
M  V30 1918 C 189.265 -6.75569 -1.00473 0
M  V30 1919 O 188.953 -8.0178 -0.583452 0
M  V30 1920 H 188.685 -0.568525 -0.365725 0
M  V30 1921 H 191.239 -1.98982 -0.509444 0
M  V30 1922 H 189.469 -2.40182 -3.03067 0
M  V30 1923 H 191.158 -2.80853 -2.93047 0
M  V30 1924 H 191.924 -4.67475 -1.29197 0
M  V30 1925 H 187.803 -3.98997 -2.30916 0
M  V30 1926 H 191.347 -6.95498 -0.541084 0
M  V30 1927 H 187.244 -6.2628 -1.56346 0
M  V30 1928 H 188.012 -8.1543 -0.708275 0
M  V30 1929 N 190.675 0.682077 -1.42076 0
M  V30 1930 C 191.921 1.44428 -1.42367 0
M  V30 1931 C 192.254 1.94164 -0.0373056 0
M  V30 1932 O 191.529 1.70429 0.937239 0
M  V30 1933 C 191.812 2.64654 -2.44194 0
M  V30 1934 C 191.665 2.20596 -3.91991 0
M  V30 1935 C 192.984 3.66865 -2.431 0
M  V30 1936 H 190.103 0.523834 -0.518428 0
M  V30 1937 H 192.745 0.77576 -1.73442 0
M  V30 1938 H 190.895 3.2169 -2.17826 0
M  V30 1939 H 192.567 1.68783 -4.29313 0
M  V30 1940 H 190.81 1.52242 -4.06208 0
M  V30 1941 H 191.481 3.06921 -4.58807 0
M  V30 1942 H 193.957 3.19531 -2.66532 0
M  V30 1943 H 192.833 4.48577 -3.16339 0
M  V30 1944 H 193.094 4.17493 -1.45437 0
M  V30 1945 N 192.153 1.28127 0.917671 0
M  V30 1946 C 193.4 1.15052 1.66641 0
M  V30 1947 C 193.728 -0.301677 1.92146 0
M  V30 1948 O 192.983 -1.23622 1.51711 0
M  V30 1949 C 193.282 1.89018 3.03327 0
M  V30 1950 C 192.948 3.38832 2.97496 0
M  V30 1951 C 191.61 3.79693 2.95613 0
M  V30 1952 C 193.962 4.34378 2.88036 0
M  V30 1953 C 191.29 5.14447 2.82066 0
M  V30 1954 C 193.642 5.69201 2.7603 0
M  V30 1955 C 192.306 6.09343 2.72502 0
M  V30 1956 H 191.576 0.421006 0.609783 0
M  V30 1957 H 194.223 1.58855 1.06945 0
M  V30 1958 H 192.528 1.37752 3.66785 0
M  V30 1959 H 194.225 1.76321 3.60156 0
M  V30 1960 H 190.815 3.06342 2.99754 0
M  V30 1961 H 194.999 4.03775 2.88581 0
M  V30 1962 H 190.255 5.44681 2.77728 0
M  V30 1963 H 194.429 6.42901 2.67678 0
M  V30 1964 H 192.056 7.13712 2.61762 0
M  V30 1965 N 193.631 -1.12557 1.10312 0
M  V30 1966 C 194.877 -1.84311 0.846011 0
M  V30 1967 C 195.21 -1.83805 -0.626859 0
M  V30 1968 O 194.485 -1.28268 -1.46211 0
M  V30 1969 C 194.768 -3.32048 1.39341 0
M  V30 1970 C 194.621 -3.41016 2.93305 0
M  V30 1971 C 195.94 -4.27764 1.03468 0
M  V30 1972 H 193.059 -0.669192 0.30879 0
M  V30 1973 H 195.701 -1.32057 1.36605 0
M  V30 1974 H 193.851 -3.76678 0.951087 0
M  V30 1975 H 195.523 -3.05031 3.46055 0
M  V30 1976 H 193.766 -2.81603 3.29973 0
M  V30 1977 H 194.437 -4.44948 3.26689 0
M  V30 1978 H 196.913 -3.91253 1.41633 0
M  V30 1979 H 195.789 -5.29549 1.44463 0
M  V30 1980 H 196.05 -4.42064 -0.0560404 0
M  V30 1981 N 195.109 -0.891671 -1.2995 0
M  V30 1982 C 196.525 -0.58662 -1.48428 0
M  V30 1983 C 196.725 0.873951 -1.81561 0
M  V30 1984 O 195.781 1.65471 -1.90724 0
M  V30 1985 C 197.094 -1.50553 -2.60296 0
M  V30 1986 C 198.642 -1.50988 -2.74175 0
M  V30 1987 C 199.117 -2.41488 -3.89163 0
M  V30 1988 N 200.608 -2.39489 -3.96483 0
M  V30 1989 C 201.343 -3.06223 -4.84784 0
M  V30 1990 N 200.839 -3.82206 -5.77833 0
M  V30 1991 N 202.632 -2.95421 -4.78208 0
M  V30 1992 H 194.783 -1.83644 -1.06718 0
M  V30 1993 H 197.046 -0.786455 -0.529332 0
M  V30 1994 H 196.752 -2.54581 -2.42654 0
M  V30 1995 H 196.626 -1.22008 -3.56923 0
M  V30 1996 H 199.013 -0.47708 -2.91218 0
M  V30 1997 H 199.094 -1.83567 -1.78148 0
M  V30 1998 H 198.738 -3.44857 -3.72876 0
M  V30 1999 H 198.668 -2.06222 -4.84541 0
M  V30 2000 H 201.159 -1.84278 -3.29924 0
M  V30 2001 H 201.472 -4.302 -6.41988 0
M  V30 2002 H 199.817 -3.86313 -5.77743 0
M  V30 2003 H 203.008 -2.35581 -4.04499 0
M  V30 2004 H 203.181 -3.47704 -5.46814 0
M  V30 2005 N 196.587 1.43421 -0.653314 0
M  V30 2006 C 197.864 1.95361 -0.0966581 0
M  V30 2007 C 198.244 1.59461 1.38331 0
M  V30 2008 O 197.592 0.879777 2.10884 0
M  V30 2009 C 197.802 3.47311 -0.342988 0
M  V30 2010 C 199.15 4.23875 -0.24798 0
M  V30 2011 O 200.174 3.55133 -0.275553 0
M  V30 2012 O 199.033 5.4623 -0.171771 0
M  V30 2013 H 196.127 0.826945 0.00956291 0
M  V30 2014 H 198.673 1.5336 -0.726558 0
M  V30 2015 H 197.445 3.66569 -1.36906 0
M  V30 2016 H 197.068 3.9631 0.319975 0
M  V30 2017 N 198.065 0.39524 1.52563 0
M  V30 2018 C 199.312 -0.185044 2.01653 0
M  V30 2019 C 199.64 -1.46317 1.28146 0
M  V30 2020 O 198.895 -1.9213 0.372074 0
M  V30 2021 C 199.194 -0.493444 3.53977 0
M  V30 2022 C 198.86 0.69384 4.4553 0
M  V30 2023 C 197.522 1.01954 4.70275 0
M  V30 2024 C 199.874 1.48785 4.99512 0
M  V30 2025 C 197.202 2.14069 5.46252 0
M  V30 2026 C 199.554 2.59965 5.76716 0
M  V30 2027 C 198.218 2.93037 5.99738 0
M  V30 2028 H 197.488 -0.0677123 0.7379 0
M  V30 2029 H 200.135 0.533807 1.8391 0
M  V30 2030 H 198.44 -1.29369 3.69825 0
M  V30 2031 H 200.137 -0.955163 3.89458 0
M  V30 2032 H 196.727 0.429987 4.26438 0
M  V30 2033 H 200.911 1.24946 4.80315 0
M  V30 2034 H 196.167 2.40056 5.62302 0
M  V30 2035 H 200.341 3.21887 6.17545 0
M  V30 2036 H 197.968 3.8003 6.58393 0
M  V30 2037 N 199.544 -1.57102 0.125237 0
M  V30 2038 C 200.454 -2.19191 -0.8362 0
M  V30 2039 C 201.47 -1.16985 -1.28805 0
M  V30 2040 O 202.646 -1.49479 -1.34974 0
M  V30 2041 C 199.711 -2.78407 -2.06617 0
M  V30 2042 C 198.772 -3.9567 -1.66565 0
M  V30 2043 C 198.005 -4.52052 -2.83698 0
M  V30 2044 O 198.228 -4.07326 -3.99302 0
M  V30 2045 O 197.162 -5.42645 -2.60423 0
M  V30 2046 H 200.988 -3.01816 -0.337776 0
M  V30 2047 H 198.573 -1.4906 -0.100695 0
M  V30 2048 H 200.455 -3.16129 -2.7864 0
M  V30 2049 H 199.13 -1.9881 -2.55453 0
M  V30 2050 H 198.037 -3.62705 -0.916296 0
M  V30 2051 H 199.37 -4.76722 -1.22464 0
M  V30 2052 N 201.022 0.148545 -1.56898 0
M  V30 2053 C 201.954 1.20852 -1.9475 0
M  V30 2054 C 202.967 1.39265 -0.843152 0
M  V30 2055 O 204.156 1.38864 -1.12156 0
M  V30 2056 C 201.256 2.57362 -2.20495 0
M  V30 2057 C 200.429 2.59947 -3.51776 0
M  V30 2058 C 199.488 3.77984 -3.6608 0
M  V30 2059 O 198.514 3.62929 -4.38487 0
M  V30 2060 N 199.716 4.95375 -3.02629 0
M  V30 2061 H 202.481 0.886804 -2.86279 0
M  V30 2062 H 200.042 0.338121 -1.5833 0
M  V30 2063 H 202.034 3.34833 -2.27307 0
M  V30 2064 H 200.604 2.81832 -1.35238 0
M  V30 2065 H 199.824 1.68403 -3.56419 0
M  V30 2066 H 201.112 2.58704 -4.38121 0
M  V30 2067 H 200.51 5.10509 -2.43715 0
M  V30 2068 H 199.067 5.70627 -3.15004 0
M  V30 2069 N 202.5 1.5196 0.417844 0
M  V30 2070 C 203.911 1.57851 0.997 0
M  V30 2071 C 204.262 0.413714 1.91789 0
M  V30 2072 O 203.387 -0.467057 2.113 0
M  V30 2073 C 203.982 2.86085 1.81496 0
M  V30 2074 C 202.541 2.94483 2.34428 0
M  V30 2075 C 201.688 2.52707 1.14169 0
M  V30 2076 H 204.639 1.57455 0.198392 0
M  V30 2077 H 204.66 2.70947 2.67148 0
M  V30 2078 H 204.172 3.70842 1.14446 0
M  V30 2079 H 202.273 2.142 3.04875 0
M  V30 2080 H 202.386 3.98546 2.65891 0
M  V30 2081 H 200.75 2.06353 1.49301 0
M  V30 2082 H 201.533 3.39828 0.486999 0
M  V30 2083 N 203.978 -0.674533 1.42435 0
M  V30 2084 C 205.225 -1.43459 1.42919 0
M  V30 2085 C 205.553 -1.94446 0.0457312 0
M  V30 2086 O 204.808 -1.7132 -0.94593 0
M  V30 2087 C 205.107 -2.64767 2.40069 0
M  V30 2088 C 204.773 -2.3232 3.86443 0
M  V30 2089 C 203.435 -2.23182 4.26314 0
M  V30 2090 C 205.787 -2.05977 4.78773 0
M  V30 2091 C 203.115 -1.85827 5.56494 0
M  V30 2092 C 205.467 -1.70125 6.09295 0
M  V30 2093 C 204.131 -1.59498 6.48164 0
M  V30 2094 H 203.401 -0.524952 0.522978 0
M  V30 2095 H 206.048 -0.769097 1.75377 0
M  V30 2096 H 204.353 -3.36349 2.00939 0
M  V30 2097 H 206.05 -3.22949 2.37707 0
M  V30 2098 H 202.64 -2.40334 3.54877 0
M  V30 2099 H 206.824 -2.11969 4.48757 0
M  V30 2100 H 202.08 -1.76168 5.8547 0
M  V30 2101 H 206.254 -1.48767 6.80324 0
M  V30 2102 H 203.881 -1.30322 7.48946 0
M  V30 2103 N 205.456 -1.28612 -0.910864 0
M  V30 2104 C 206.705 -1.15311 -1.65488 0
M  V30 2105 C 207.018 0.296999 -1.93332 0
M  V30 2106 O 208.224 0.551168 -2.65847 0
M  V30 2107 C 206.68 -2.01599 -2.98137 0
M  V30 2108 C 206.288 -3.51367 -2.7793 0
M  V30 2109 C 208.032 -1.96993 -3.76024 0
M  V30 2110 C 205.939 -4.29797 -4.06237 0
M  V30 2111 H 204.869 -0.42796 -0.620779 0
M  V30 2112 H 207.52 -1.53166 -1.01057 0
M  V30 2113 H 205.902 -1.56603 -3.63719 0
M  V30 2114 H 207.076 -4.0434 -2.21011 0
M  V30 2115 H 205.391 -3.57529 -2.13452 0
M  V30 2116 H 207.988 -2.52856 -4.71135 0
M  V30 2117 H 208.331 -0.94733 -4.05378 0
M  V30 2118 H 208.864 -2.39973 -3.17266 0
M  V30 2119 H 205.603 -5.32648 -3.82055 0
M  V30 2120 H 205.123 -3.81596 -4.62757 0
M  V30 2121 H 206.802 -4.39869 -4.74473 0
M  V30 2122 N 206.934 1.1197 -1.10907 0
M  V30 2123 C 207.882 2.19927 -0.757303 0
M  V30 2124 C 208.876 1.67564 0.248747 0
M  V30 2125 O 210.082 1.79672 0.108605 0
M  V30 2126 H 206.457 0.716925 -0.226987 0
M  V30 2127 H 208.428 2.46847 -1.67658 0
M  V30 2128 C 207.177 3.47061 -0.210671 0
M  V30 2129 H 206.5 3.87703 -0.976049 0
M  V30 2130 H 207.94 4.24 -0.0026584 0
M  V30 2131 C 206.399 3.19864 1.05777 0
M  V30 2132 O 206.929 3.40049 2.13845 0
M  V30 2133 N 205.135 2.73636 0.978349 0
M  V30 2134 H 204.682 2.5741 0.0988246 0
M  V30 2135 H 204.64 2.55815 1.82773 0
M  V30 2136 N 208.412 0.89855 1.29475 0
M  V30 2137 C 209.359 0.373819 2.27753 0
M  V30 2138 C 210.329 -0.543444 1.56958 0
M  V30 2139 O 211.514 -0.468934 1.84948 0
M  V30 2140 C 208.654 -0.393648 3.42848 0
M  V30 2141 C 207.767 0.554379 4.28428 0
M  V30 2142 C 206.902 -0.230026 5.30702 0
M  V30 2143 C 205.941 0.712599 6.07938 0
M  V30 2144 N 205.078 -0.0373283 7.0209 0
M  V30 2145 H 209.918 1.21699 2.72017 0
M  V30 2146 H 207.455 0.611456 1.33789 0
M  V30 2147 H 209.413 -0.85466 4.08352 0
M  V30 2148 H 208.043 -1.20128 2.99615 0
M  V30 2149 H 207.095 1.13391 3.63107 0
M  V30 2150 H 208.407 1.27597 4.82204 0
M  V30 2151 H 207.561 -0.752288 6.02018 0
M  V30 2152 H 206.3 -0.984758 4.77654 0
M  V30 2153 H 205.305 1.24637 5.35486 0
M  V30 2154 H 206.53 1.46664 6.63074 0
M  V30 2155 H 204.476 -0.774348 6.51414 0
M  V30 2156 H 204.393 0.624374 7.53417 0
M  V30 2157 H 205.661 -0.539891 7.77628 0
M  V30 2158 N 209.89 -1.43072 0.660911 0
M  V30 2159 C 211.301 -1.84932 0.256348 0
M  V30 2160 C 211.652 -1.55325 -1.19868 0
M  V30 2161 O 210.777 -1.00607 -1.91591 0
M  V30 2162 C 211.372 -3.35684 0.458475 0
M  V30 2163 C 209.931 -3.76245 0.108161 0
M  V30 2164 C 209.078 -2.66749 0.757641 0
M  V30 2165 H 212.029 -1.33116 0.864051 0
M  V30 2166 H 212.05 -3.79365 -0.293683 0
M  V30 2167 H 211.562 -3.572 1.51755 0
M  V30 2168 H 209.663 -3.60338 -0.948014 0
M  V30 2169 H 209.776 -4.76058 0.538992 0
M  V30 2170 H 208.14 -2.53989 0.190185 0
M  V30 2171 H 208.923 -2.91092 1.81989 0
M  V30 2172 N 211.368 -0.403325 -1.52352 0
M  V30 2173 C 212.645 0.232611 -1.94212 0
M  V30 2174 C 213.025 1.63133 -1.33981 0
M  V30 2175 O 212.373 2.22659 -0.513344 0
M  V30 2176 C 212.583 0.244811 -3.4814 0
M  V30 2177 C 213.931 0.46698 -4.22024 0
M  V30 2178 O 214.955 0.324419 -3.5472 0
M  V30 2179 O 213.814 0.74747 -5.41364 0
M  V30 2180 H 210.908 0.148223 -0.813609 0
M  V30 2181 H 213.454 -0.458848 -1.63379 0
M  V30 2182 H 212.226 -0.734378 -3.84347 0
M  V30 2183 H 211.849 0.980611 -3.85318 0
M  V30 2184 N 212.846 1.57033 -0.133567 0
M  V30 2185 C 214.074 2.00044 0.528195 0
M  V30 2186 C 214.489 1.01349 1.59291 0
M  V30 2187 O 213.846 0.00848369 1.82498 0
M  V30 2188 C 213.897 3.43018 1.1411 0
M  V30 2189 O 213.618 4.37939 0.11892 0
M  V30 2190 C 215.119 4.01237 1.88477 0
M  V30 2191 H 212.339 0.656517 0.138661 0
M  V30 2192 H 214.883 2.03267 -0.224196 0
M  V30 2193 H 213.038 3.40688 1.84418 0
M  V30 2194 H 213.452 5.21436 0.56613 0
M  V30 2195 H 214.926 5.03314 2.26669 0
M  V30 2196 H 215.403 3.41193 2.76558 0
M  V30 2197 H 216.009 4.07156 1.22898 0
M  V30 2198 N 214.325 -0.140222 1.56975 0
M  V30 2199 C 215.255 -1.17456 2.01808 0
M  V30 2200 C 216.236 -1.44415 0.898794 0
M  V30 2201 O 217.421 -1.5522 1.16707 0
M  V30 2202 C 214.551 -2.50607 2.40444 0
M  V30 2203 C 213.505 -2.38155 3.55621 0
M  V30 2204 C 212.831 -3.76078 3.80091 0
M  V30 2205 C 214.131 -1.85991 4.88062 0
M  V30 2206 H 215.825 -0.801743 2.88466 0
M  V30 2207 H 213.371 -0.38422 1.38779 0
M  V30 2208 H 215.324 -3.23197 2.7041 0
M  V30 2209 H 214.048 -2.89737 1.50732 0
M  V30 2210 H 212.707 -1.68016 3.25832 0
M  V30 2211 H 212.355 -4.12656 2.87618 0
M  V30 2212 H 212.055 -3.68606 4.57606 0
M  V30 2213 H 213.579 -4.50206 4.12488 0
M  V30 2214 H 214.993 -2.4838 5.16701 0
M  V30 2215 H 213.39 -1.89393 5.6943 0
M  V30 2216 H 214.46 -0.816023 4.77984 0
M  V30 2217 N 215.803 -1.52179 -0.40978 0
M  V30 2218 C 216.733 -1.78435 -1.5061 0
M  V30 2219 C 217.714 -0.635295 -1.57791 0
M  V30 2220 O 218.899 -0.880823 -1.73076 0
M  V30 2221 C 216.029 -1.93444 -2.88439 0
M  V30 2222 C 214.983 -3.09038 -2.96108 0
M  V30 2223 C 214.309 -3.09268 -4.36185 0
M  V30 2224 C 215.609 -4.48508 -2.67652 0
M  V30 2225 H 217.303 -2.70237 -1.28889 0
M  V30 2226 H 214.849 -1.30036 -0.618605 0
M  V30 2227 H 216.802 -2.10394 -3.65119 0
M  V30 2228 H 215.526 -0.983129 -3.11452 0
M  V30 2229 H 214.185 -2.91837 -2.21872 0
M  V30 2230 H 213.833 -2.11861 -4.56206 0
M  V30 2231 H 213.533 -3.86907 -4.42241 0
M  V30 2232 H 215.057 -3.28348 -5.14801 0
M  V30 2233 H 216.471 -4.65918 -3.34056 0
M  V30 2234 H 214.868 -5.28059 -2.85085 0
M  V30 2235 H 215.938 -4.56649 -1.63095 0
M  V30 2236 N 217.281 0.66697 -1.42791 0
M  V30 2237 C 218.527 1.4291 -1.43891 0
M  V30 2238 C 218.86 1.94114 -0.0578972 0
M  V30 2239 O 218.135 1.71414 0.91911 0
M  V30 2240 C 218.418 2.62049 -2.46987 0
M  V30 2241 C 218.271 2.16426 -3.94309 0
M  V30 2242 C 219.59 3.64266 -2.46978 0
M  V30 2243 H 216.709 0.518306 -0.523954 0
M  V30 2244 H 219.351 0.757321 -1.74255 0
M  V30 2245 H 217.501 3.19361 -2.21225 0
M  V30 2246 H 219.173 1.64221 -4.31079 0
M  V30 2247 H 217.416 1.47925 -4.078 0
M  V30 2248 H 218.087 3.02038 -4.62036 0
M  V30 2249 H 220.563 3.16686 -2.69906 0
M  V30 2250 H 219.439 4.45196 -3.21079 0
M  V30 2251 H 219.7 4.15927 -1.49857 0
M  V30 2252 N 218.759 1.29093 0.90403 0
M  V30 2253 C 219.707 1.13727 2.02901 0
M  V30 2254 C 220.701 0.0539853 1.69314 0
M  V30 2255 O 221.907 0.213469 1.7873 0
M  V30 2256 H 218.282 0.35117 0.664969 0
M  V30 2257 H 220.253 2.08982 2.13001 0
M  V30 2258 C 219.002 0.826066 3.37745 0
M  V30 2259 H 218.325 1.65164 3.64089 0
M  V30 2260 H 219.765 0.758559 4.17159 0
M  V30 2261 C 218.224 -0.470541 3.33598 0
M  V30 2262 O 218.754 -1.49792 3.72727 0
M  V30 2263 N 216.96 -0.474812 2.86695 0
M  V30 2264 H 216.507 0.361692 2.55048 0
M  V30 2265 H 216.465 -1.34236 2.84303 0
M  V30 2266 N 220.237 -1.11381 1.11499 0
M  V30 2267 C 221.653 -1.35143 0.849031 0
M  V30 2268 C 221.853 -1.94515 -0.525938 0
M  V30 2269 O 220.909 -2.1785 -1.27662 0
M  V30 2270 C 222.222 -2.28249 1.95762 0
M  V30 2271 C 223.77 -2.41812 1.98736 0
M  V30 2272 C 224.245 -3.3824 3.088 0
M  V30 2273 N 225.736 -3.45803 3.08179 0
M  V30 2274 C 226.471 -4.20358 3.89982 0
M  V30 2275 N 225.967 -4.97884 4.8175 0
M  V30 2276 N 227.76 -4.15877 3.78157 0
M  V30 2277 H 219.911 -0.712062 2.00109 0
M  V30 2278 H 222.174 -0.376025 0.870235 0
M  V30 2279 H 221.88 -1.91817 2.94787 0
M  V30 2280 H 221.754 -3.28473 1.85433 0
M  V30 2281 H 224.141 -2.77518 1.00338 0
M  V30 2282 H 224.222 -1.41437 2.13141 0
M  V30 2283 H 223.866 -3.03261 4.07425 0
M  V30 2284 H 223.796 -4.38471 2.91635 0
M  V30 2285 H 226.287 -2.90506 2.41691 0
M  V30 2286 H 226.6 -5.52142 5.40702 0
M  V30 2287 H 224.945 -4.97043 4.85771 0
M  V30 2288 H 228.136 -3.544 3.05808 0
M  V30 2289 H 228.309 -4.73723 4.42143 0
M  V30 2290 N 221.715 -0.905404 -1.28997 0
M  V30 2291 C 222.662 -0.385892 -2.27551 0
M  V30 2292 C 223.632 0.535113 -1.57244 0
M  V30 2293 O 224.817 0.459119 -1.85194 0
M  V30 2294 C 221.957 0.375461 -3.43051 0
M  V30 2295 C 221.07 -0.577092 -4.28128 0
M  V30 2296 C 220.205 0.201879 -5.30816 0
M  V30 2297 C 219.244 -0.744829 -6.07551 0
M  V30 2298 N 218.381 9.42587e-05 -7.021 0
M  V30 2299 H 223.221 -1.23139 -2.71368 0
M  V30 2300 H 220.758 -0.618542 -1.33463 0
M  V30 2301 H 222.716 0.832992 -4.088 0
M  V30 2302 H 221.346 1.18537 -3.00248 0
M  V30 2303 H 220.398 -1.15315 -3.62501 0
M  V30 2304 H 221.71 -1.30152 -4.8152 0
M  V30 2305 H 220.864 0.720351 -6.02408 0
M  V30 2306 H 219.603 0.959413 -4.7817 0
M  V30 2307 H 218.608 -1.27475 -5.34818 0
M  V30 2308 H 219.833 -1.50178 -6.62286 0
M  V30 2309 H 217.779 0.739791 -6.51815 0
M  V30 2310 H 217.696 -0.664321 -7.53076 0
M  V30 2311 H 218.964 0.498644 -7.77903 0
M  V30 2312 N 223.193 1.4272 -0.668489 0
M  V30 2313 C 224.47 1.95248 -0.117373 0
M  V30 2314 C 224.85 1.60919 1.36632 0
M  V30 2315 O 224.198 0.902095 2.09939 0
M  V30 2316 C 224.408 3.46927 -0.379806 0
M  V30 2317 C 225.756 4.23588 -0.292923 0
M  V30 2318 O 226.78 3.5482 -0.313204 0
M  V30 2319 O 225.639 5.46017 -0.229697 0
M  V30 2320 H 222.733 0.827 0.00079152 0
M  V30 2321 H 225.279 1.52581 -0.742783 0
M  V30 2322 H 224.051 3.65096 -1.40786 0
M  V30 2323 H 223.674 3.96627 0.277923 0
M  V30 2324 N 224.671 0.411399 1.52136 0
M  V30 2325 C 225.634 -0.401089 2.25663 0
M  V30 2326 C 226.634 -0.971732 1.28117 0
M  V30 2327 O 227.824 -0.850254 1.52041 0
M  V30 2328 C 224.956 -1.56483 3.02863 0
M  V30 2329 H 226.149 0.24295 2.98914 0
M  V30 2330 H 223.702 0.163968 1.55438 0
M  V30 2331 H 224.437 -2.24567 2.33967 0
M  V30 2332 H 224.222 -1.16211 3.74483 0
M  V30 2333 H 225.712 -2.13951 3.58629 0
M  V30 2334 N 226.149 -1.5696 0.141893 0
M  V30 2335 C 227.082 -2.12271 -0.837627 0
M  V30 2336 C 228.06 -1.04495 -1.24578 0
M  V30 2337 O 229.244 -1.32293 -1.34278 0
M  V30 2338 C 226.371 -2.63822 -2.12404 0
M  V30 2339 C 225.417 -3.83698 -1.86221 0
M  V30 2340 S 226.25 -5.24948 -1.05781 0
M  V30 2341 C 227.406 -5.79884 -2.35552 0
M  V30 2342 H 227.639 -2.95023 -0.367249 0
M  V30 2343 H 225.172 -1.54231 -0.0723014 0
M  V30 2344 H 227.13 -2.94175 -2.86307 0
M  V30 2345 H 225.791 -1.8121 -2.56557 0
M  V30 2346 H 224.984 -4.17995 -2.81596 0
M  V30 2347 H 224.586 -3.5408 -1.20429 0
M  V30 2348 H 226.878 -5.91005 -3.31239 0
M  V30 2349 H 227.821 -6.77544 -2.05767 0
M  V30 2350 H 228.229 -5.08095 -2.45967 0
M  V30 2351 N 227.627 0.131896 -1.57047 0
M  V30 2352 C 228.873 0.838268 -1.85323 0
M  V30 2353 C 229.228 1.78098 -0.727937 0
M  V30 2354 O 228.521 1.89645 0.27304 0
M  V30 2355 C 228.715 1.63703 -3.17704 0
M  V30 2356 C 228.544 0.773167 -4.43004 0
M  V30 2357 C 227.314 0.432956 -5.03442 0
M  V30 2358 C 229.512 0.0966216 -5.14209 0
M  V30 2359 N 227.494 -0.442924 -6.123 0
M  V30 2360 C 228.865 -0.638778 -6.16701 0
M  V30 2361 C 230.92 0.018861 -4.97896 0
M  V30 2362 C 229.623 -1.44462 -7.04644 0
M  V30 2363 C 231.649 -0.773762 -5.86316 0
M  V30 2364 C 231.011 -1.4974 -6.883 0
M  V30 2365 H 227.11 0.284086 -0.728573 0
M  V30 2366 H 229.694 0.102731 -1.94429 0
M  V30 2367 H 227.865 2.3437 -3.09718 0
M  V30 2368 H 229.597 2.28774 -3.33833 0
M  V30 2369 H 226.352 0.772237 -4.67262 0
M  V30 2370 H 226.776 -0.872332 -6.71356 0
M  V30 2371 H 231.418 0.56397 -4.19022 0
M  V30 2372 H 229.136 -2.00093 -7.82936 0
M  V30 2373 H 232.722 -0.83612 -5.75761 0
M  V30 2374 H 231.602 -2.10087 -7.55535 0
M  V30 2375 N 229.106 1.52395 0.401703 0
M  V30 2376 C 230.352 1.67065 1.14966 0
M  V30 2377 C 230.685 0.403052 1.89971 0
M  V30 2378 O 229.96 -0.598774 1.85054 0
M  V30 2379 C 230.243 2.8975 2.13815 0
M  V30 2380 C 230.096 4.26578 1.42658 0
M  V30 2381 C 231.415 3.07965 3.14397 0
M  V30 2382 H 228.534 0.607968 0.416587 0
M  V30 2383 H 231.176 1.84965 0.434511 0
M  V30 2384 H 229.326 2.74619 2.74803 0
M  V30 2385 H 230.998 4.53451 0.847329 0
M  V30 2386 H 229.241 4.27639 0.72849 0
M  V30 2387 H 229.912 5.08483 2.14823 0
M  V30 2388 H 232.388 3.22043 2.63491 0
M  V30 2389 H 231.264 3.95308 3.80819 0
M  V30 2390 H 231.525 2.21611 3.82545 0
M  V30 2391 N 230.584 -0.659388 1.43143 0
M  V30 2392 C 231.995 -1.24041 1.39537 0
M  V30 2393 C 232.346 -1.95963 0.0963364 0
M  V30 2394 O 231.471 -2.00892 -0.804438 0
M  V30 2395 C 232.066 -2.25601 2.52764 0
M  V30 2396 C 230.625 -2.79195 2.52443 0
M  V30 2397 C 229.772 -1.53743 2.30778 0
M  V30 2398 H 232.723 -0.451792 1.52133 0
M  V30 2399 H 232.744 -3.07651 2.23899 0
M  V30 2400 H 232.256 -1.73226 3.47296 0
M  V30 2401 H 230.357 -3.35649 1.61773 0
M  V30 2402 H 230.47 -3.2716 3.50004 0
M  V30 2403 H 228.834 -1.80869 1.79328 0
M  V30 2404 H 229.617 -1.03312 3.27386 0
M  V30 2405 N 232.062 -1.29571 -0.897171 0
M  V30 2406 C 233.302 -1.18959 -1.66217 0
M  V30 2407 C 233.666 0.254271 -1.90309 0
M  V30 2408 O 234.867 0.483407 -2.64417 0
M  V30 2409 C 233.138 -1.98302 -2.9734 0
M  V30 2410 S 234.697 -2.04253 -3.88364 0
M  V30 2411 H 231.515 -0.424137 -0.570639 0
M  V30 2412 H 234.117 -1.6389 -1.06585 0
M  V30 2413 H 232.821 -3.02342 -2.77521 0
M  V30 2414 H 232.352 -1.53986 -3.62011 0
M  V30 2415 H 234.367 -1.16105 -4.82425 0
M  V30 2416 N 233.54 1.10788 -1.12088 0
M  V30 2417 C 234.47 2.19083 -0.807755 0
M  V30 2418 C 235.451 1.6858 0.226859 0
M  V30 2419 O 236.636 1.93997 0.0888475 0
M  V30 2420 C 233.766 3.46344 -0.257576 0
M  V30 2421 C 232.72 4.101 -1.22483 0
M  V30 2422 C 232.046 5.32016 -0.535052 0
M  V30 2423 C 233.346 4.54236 -2.57811 0
M  V30 2424 H 235.04 2.45534 -1.71328 0
M  V30 2425 H 232.586 1.1801 -0.825205 0
M  V30 2426 H 234.539 4.21392 -0.0262679 0
M  V30 2427 H 233.263 3.19373 0.683278 0
M  V30 2428 H 231.922 3.37054 -1.44189 0
M  V30 2429 H 231.57 5.01319 0.410827 0
M  V30 2430 H 231.27 5.75625 -1.18024 0
M  V30 2431 H 232.794 6.09799 -0.312695 0
M  V30 2432 H 234.208 5.20575 -2.40155 0
M  V30 2433 H 232.605 5.08682 -3.18375 0
M  V30 2434 H 233.675 3.6734 -3.16528 0
M  V30 2435 N 235.018 0.912232 1.28515 0
M  V30 2436 C 236.264 0.545405 1.95328 0
M  V30 2437 C 236.597 -0.908313 1.71649 0
M  V30 2438 O 235.872 -1.64575 1.03659 0
M  V30 2439 C 236.155 0.853483 3.4984 0
M  V30 2440 C 236.008 2.35982 3.82926 0
M  V30 2441 C 237.327 0.348589 4.38717 0
M  V30 2442 H 234.446 0.199626 0.709449 0
M  V30 2443 H 237.088 1.1412 1.5191 0
M  V30 2444 H 235.238 0.34643 3.86952 0
M  V30 2445 H 236.91 2.93738 3.55691 0
M  V30 2446 H 235.153 2.81543 3.30024 0
M  V30 2447 H 235.824 2.52593 4.90816 0
M  V30 2448 H 238.3 0.78294 4.08668 0
M  V30 2449 H 237.176 0.593242 5.45685 0
M  V30 2450 H 237.437 -0.751049 4.35674 0
M  V30 2451 N 236.496 -1.42363 0.676048 0
M  V30 2452 C 237.721 -2.06377 0.205705 0
M  V30 2453 C 238.146 -1.50463 -1.12883 0
M  V30 2454 O 237.504 -0.623619 -1.70237 0
M  V30 2455 C 237.552 -3.60277 0.152655 0
M  V30 2456 O 236.656 -4.02935 -0.87845 0
M  V30 2457 H 235.997 -0.655588 0.105359 0
M  V30 2458 H 238.527 -1.82475 0.925412 0
M  V30 2459 H 238.537 -4.07993 -0.0230675 0
M  V30 2460 H 237.212 -4.00346 1.12675 0
M  V30 2461 H 235.789 -3.66764 -0.673668 0
M  V30 2462 N 237.974 -0.419461 -1.51915 0
M  V30 2463 C 239.223 0.154346 -2.01109 0
M  V30 2464 C 239.536 1.45338 -1.30905 0
M  V30 2465 O 240.742 2.10906 -1.7097 0
M  V30 2466 C 239.198 0.325615 -3.58424 0
M  V30 2467 C 238.806 -0.961934 -4.37551 0
M  V30 2468 C 240.55 0.854155 -4.15818 0
M  V30 2469 C 238.457 -0.757287 -5.86531 0
M  V30 2470 H 237.387 0.0614563 -0.751491 0
M  V30 2471 H 240.038 -0.54649 -1.75173 0
M  V30 2472 H 238.42 1.08903 -3.80731 0
M  V30 2473 H 239.594 -1.7323 -4.26999 0
M  V30 2474 H 237.909 -1.41766 -3.91524 0
M  V30 2475 H 240.506 1.02346 -5.24814 0
M  V30 2476 H 240.849 1.83172 -3.73837 0
M  V30 2477 H 241.382 0.149528 -3.97519 0
M  V30 2478 H 238.121 -1.70671 -6.32892 0
M  V30 2479 H 237.641 -0.0264061 -5.99794 0
M  V30 2480 H 239.32 -0.403482 -6.45741 0
M  V30 2481 N 239.452 1.56882 -0.150215 0
M  V30 2482 C 240.863 1.82995 0.370076 0
M  V30 2483 C 241.214 1.06907 1.64515 0
M  V30 2484 O 240.339 0.315369 2.1409 0
M  V30 2485 C 240.934 3.31942 0.678208 0
M  V30 2486 C 239.493 3.58625 1.14301 0
M  V30 2487 C 238.64 2.76792 0.167778 0
M  V30 2488 H 241.591 1.54209 -0.374858 0
M  V30 2489 H 241.612 3.48272 1.53254 0
M  V30 2490 H 241.124 3.87294 -0.249991 0
M  V30 2491 H 239.225 3.08664 2.08704 0
M  V30 2492 H 239.338 4.67073 1.06676 0
M  V30 2493 H 237.702 2.45972 0.661037 0
M  V30 2494 H 238.485 3.34916 -0.754069 0
M  V30 2495 N 240.93 -0.123565 1.57115 0
M  V30 2496 C 242.178 -0.83051 1.84247 0
M  V30 2497 C 242.499 -1.80629 0.73471 0
M  V30 2498 O 241.769 -1.94403 -0.241688 0
M  V30 2499 H 240.349 -0.309694 0.679778 0
M  V30 2500 H 243.011 -0.111976 1.94578 0
M  V30 2501 H 242.107 -1.37852 2.80006 0
M  V30 2502 N 242.408 -1.52605 -0.393616 0
M  V30 2503 C 243.338 -1.80022 -1.48709 0
M  V30 2504 C 244.319 -0.651995 -1.57108 0
M  V30 2505 O 245.504 -0.89913 -1.72132 0
M  V30 2506 C 242.634 -1.96492 -2.86371 0
M  V30 2507 C 241.588 -3.12161 -2.92813 0
M  V30 2508 C 240.914 -3.13877 -4.3288 0
M  V30 2509 C 242.214 -4.51322 -2.6288 0
M  V30 2510 H 243.908 -2.71589 -1.26015 0
M  V30 2511 H 241.454 -1.30684 -0.604778 0
M  V30 2512 H 243.407 -2.14255 -3.62867 0
M  V30 2513 H 242.131 -1.01611 -3.10391 0
M  V30 2514 H 240.79 -2.94173 -2.18764 0
M  V30 2515 H 240.438 -2.16687 -4.53933 0
M  V30 2516 H 240.138 -3.91576 -4.38112 0
M  V30 2517 H 241.662 -3.33789 -5.1129 0
M  V30 2518 H 243.076 -4.69435 -3.29096 0
M  V30 2519 H 241.473 -5.31053 -2.79468 0
M  V30 2520 H 242.543 -4.58353 -1.58242 0
M  V30 2521 N 243.887 0.651787 -1.4349 0
M  V30 2522 C 244.835 1.78586 -1.49029 0
M  V30 2523 C 245.829 1.65448 -0.363767 0
M  V30 2524 O 247.035 1.71777 -0.537821 0
M  V30 2525 H 243.41 0.589236 -0.467231 0
M  V30 2526 H 245.381 1.71035 -2.44519 0
M  V30 2527 C 244.13 3.16851 -1.43181 0
M  V30 2528 H 243.453 3.27598 -2.29171 0
M  V30 2529 H 244.893 3.96156 -1.51118 0
M  V30 2530 C 243.352 3.36568 -0.149616 0
M  V30 2531 O 243.882 3.93885 0.788509 0
M  V30 2532 N 242.088 2.90539 -0.0593484 0
M  V30 2533 H 241.635 2.4408 -0.823575 0
M  V30 2534 H 241.593 3.04108 0.797853 0
M  V30 2535 N 245.365 1.30045 0.890287 0
M  V30 2536 C 246.611 1.18737 1.64406 0
M  V30 2537 C 246.944 -0.258525 1.92472 0
M  V30 2538 O 246.219 -1.18562 1.54186 0
M  V30 2539 C 246.502 2.01087 2.98724 0
M  V30 2540 C 246.355 3.53867 2.77665 0
M  V30 2541 C 247.674 1.84457 3.9958 0
M  V30 2542 H 244.793 0.432698 0.596608 0
M  V30 2543 H 247.435 1.5962 1.0306 0
M  V30 2544 H 245.585 1.66349 3.51084 0
M  V30 2545 H 247.257 3.98637 2.32133 0
M  V30 2546 H 245.5 3.78318 2.12269 0
M  V30 2547 H 246.171 4.06772 3.7315 0
M  V30 2548 H 248.647 2.14817 3.56361 0
M  V30 2549 H 247.523 2.44411 4.91482 0
M  V30 2550 H 247.784 0.802276 4.3476 0
M  V30 2551 N 246.843 -1.10192 1.12674 0
M  V30 2552 C 248.071 -1.85983 0.906527 0
M  V30 2553 C 248.486 -1.80783 -0.544333 0
M  V30 2554 O 247.843 -1.19834 -1.37645 0
M  V30 2555 C 247.894 -3.34281 1.37618 0
M  V30 2556 O 247.615 -3.39401 2.77017 0
M  V30 2557 C 249.116 -4.26938 1.19325 0
M  V30 2558 H 246.336 -0.587716 0.323775 0
M  V30 2559 H 248.88 -1.39284 1.49734 0
M  V30 2560 H 247.035 -3.78436 0.828539 0
M  V30 2561 H 247.449 -4.31838 2.97684 0
M  V30 2562 H 248.923 -5.29181 1.57071 0
M  V30 2563 H 249.4 -4.38995 0.134097 0
M  V30 2564 H 250.006 -3.8859 1.72852 0
M  V30 2565 N 248.321 -0.919034 -1.28029 0
M  V30 2566 C 249.251 -0.428581 -2.29533 0
M  V30 2567 C 250.232 0.50659 -1.62381 0
M  V30 2568 O 251.417 0.413195 -1.89753 0
M  V30 2569 C 248.547 0.327388 -3.45753 0
M  V30 2570 C 247.501 -0.519137 -4.2484 0
M  V30 2571 C 246.827 0.365486 -5.33449 0
M  V30 2572 C 248.127 -1.77914 -4.91064 0
M  V30 2573 H 249.821 -1.27687 -2.70807 0
M  V30 2574 H 247.367 -0.615428 -1.30186 0
M  V30 2575 H 249.32 0.681378 -4.15855 0
M  V30 2576 H 248.044 1.20963 -3.03374 0
M  V30 2577 H 246.703 -0.855717 -3.56473 0
M  V30 2578 H 246.351 1.24642 -4.87312 0
M  V30 2579 H 246.051 -0.197356 -5.87268 0
M  V30 2580 H 247.575 0.715241 -6.06396 0
M  V30 2581 H 248.989 -1.49374 -5.53498 0
M  V30 2582 H 247.386 -2.2848 -5.54903 0
M  V30 2583 H 248.456 -2.50382 -4.15255 0
M  V30 2584 N 249.799 1.42003 -0.683588 0
M  V30 2585 C 251.215 1.55625 -0.353976 0
M  V30 2586 C 251.415 1.66151 1.14 0
M  V30 2587 O 250.471 1.63329 1.92561 0
M  V30 2588 C 251.784 2.80171 -1.092 0
M  V30 2589 C 253.332 2.93954 -1.07518 0
M  V30 2590 C 253.807 4.21372 -1.79471 0
M  V30 2591 N 255.298 4.28303 -1.76381 0
M  V30 2592 C 256.033 5.25729 -2.28904 0
M  V30 2593 N 255.529 6.29254 -2.89846 0
M  V30 2594 N 257.322 5.17586 -2.19228 0
M  V30 2595 H 249.473 1.33415 -1.6527 0
M  V30 2596 H 251.736 0.64282 -0.696769 0
M  V30 2597 H 251.442 2.78561 -2.14701 0
M  V30 2598 H 251.316 3.7133 -0.662862 0
M  V30 2599 H 253.703 2.95086 -0.028475 0
M  V30 2600 H 253.784 2.04002 -1.54328 0
M  V30 2601 H 253.428 4.21001 -2.84114 0
M  V30 2602 H 253.358 5.10275 -1.30104 0
M  V30 2603 H 255.849 3.54119 -1.31939 0
M  V30 2604 H 256.162 6.99964 -3.27522 0
M  V30 2605 H 254.507 6.29791 -2.93919 0
M  V30 2606 H 257.698 4.35631 -1.71299 0
M  V30 2607 H 257.871 5.93348 -2.60466 0
M  V30 2608 N 251.277 0.427512 1.51691 0
M  V30 2609 C 252.502 -0.143601 2.06902 0
M  V30 2610 C 252.927 -1.36536 1.29382 0
M  V30 2611 O 252.285 -1.78289 0.329043 0
M  V30 2612 C 252.333 -0.454207 3.57728 0
M  V30 2613 O 251.437 -1.54228 3.82475 0
M  V30 2614 H 250.778 -0.00617128 0.663971 0
M  V30 2615 H 253.308 0.606014 1.95419 0
M  V30 2616 H 253.318 -0.707525 4.01818 0
M  V30 2617 H 251.993 0.438812 4.13579 0
M  V30 2618 H 250.57 -1.2797 3.50254 0
M  V30 2619 N 252.755 -1.56801 0.158532 0
M  V30 2620 C 253.687 -2.14488 -0.807923 0
M  V30 2621 C 254.7 -1.09721 -1.20271 0
M  V30 2622 O 255.889 -1.36956 -1.14478 0
M  V30 2623 C 252.989 -2.66217 -2.09718 0
M  V30 2624 C 252.162 -3.95507 -1.86796 0
M  V30 2625 C 251.221 -4.3243 -2.99818 0
M  V30 2626 O 250.247 -5.00543 -2.71008 0
M  V30 2627 N 251.449 -3.92947 -4.27285 0
M  V30 2628 H 254.214 -2.98042 -0.314816 0
M  V30 2629 H 251.775 -1.61881 -0.0246692 0
M  V30 2630 H 253.767 -2.87924 -2.84398 0
M  V30 2631 H 252.337 -1.87324 -2.50257 0
M  V30 2632 H 251.557 -3.82309 -0.96089 0
M  V30 2633 H 252.845 -4.79972 -1.68833 0
M  V30 2634 H 252.243 -3.38087 -4.53557 0
M  V30 2635 H 250.8 -4.19681 -4.9871 0
M  V30 2636 N 254.233 0.115231 -1.57178 0
M  V30 2637 C 255.458 0.840354 -1.89612 0
M  V30 2638 C 255.883 1.72464 -0.750845 0
M  V30 2639 O 255.241 1.78826 0.298478 0
M  V30 2640 C 255.289 1.64654 -3.20814 0
M  V30 2641 O 254.393 2.7538 -3.06985 0
M  V30 2642 H 253.734 0.232158 -0.622092 0
M  V30 2643 H 256.264 0.0964977 -2.04372 0
M  V30 2644 H 256.274 2.03499 -3.53627 0
M  V30 2645 H 254.949 0.997416 -4.03763 0
M  V30 2646 H 253.526 2.3971 -2.85646 0
M  V30 2647 N 255.711 1.52812 0.385517 0
M  V30 2648 C 256.936 1.72207 1.15583 0
M  V30 2649 C 257.361 0.441034 1.82857 0
M  V30 2650 O 256.719 -0.603465 1.70962 0
M  V30 2651 C 256.767 2.87476 2.17692 0
M  V30 2652 O 255.871 2.54693 3.24354 0
M  V30 2653 H 255.212 0.572526 0.336319 0
M  V30 2654 H 257.742 1.99618 0.448744 0
M  V30 2655 H 257.752 3.13072 2.6163 0
M  V30 2656 H 256.427 3.80408 1.68115 0
M  V30 2657 H 255.004 2.3985 2.85529 0
M  V30 2658 N 257.189 -0.644168 1.43834 0
M  V30 2659 C 258.435 -1.40603 1.46146 0
M  V30 2660 C 258.768 -1.93997 0.0887717 0
M  V30 2661 O 258.043 -1.72854 -0.891724 0
M  V30 2662 C 258.326 -2.58086 2.51124 0
M  V30 2663 C 258.179 -2.10126 3.97702 0
M  V30 2664 C 259.498 -3.60291 2.52742 0
M  V30 2665 H 256.617 -0.509905 0.532134 0
M  V30 2666 H 259.259 -0.729502 1.75437 0
M  V30 2667 H 257.409 -3.15801 2.26278 0
M  V30 2668 H 259.081 -1.57342 4.33637 0
M  V30 2669 H 257.324 -1.41419 4.10101 0
M  V30 2670 H 257.995 -2.94649 4.66783 0
M  V30 2671 H 260.471 -3.12352 2.7491 0
M  V30 2672 H 259.347 -4.40032 3.28121 0
M  V30 2673 H 259.608 -4.1349 1.56455 0
M  V30 2674 N 258.668 -1.30515 -0.883378 0
M  V30 2675 C 259.598 -1.19607 -2.00541 0
M  V30 2676 C 260.579 -0.086346 -1.69881 0
M  V30 2677 O 261.764 -0.268654 -1.92333 0
M  V30 2678 C 258.894 -0.888758 -3.35736 0
M  V30 2679 C 257.848 -1.95659 -3.8066 0
M  V30 2680 C 257.174 -1.50224 -5.13164 0
M  V30 2681 C 258.474 -3.36788 -3.99213 0
M  V30 2682 H 260.168 -2.13476 -2.09925 0
M  V30 2683 H 257.714 -1.02775 -1.00863 0
M  V30 2684 H 259.667 -0.799094 -4.13754 0
M  V30 2685 H 258.391 0.0856125 -3.26488 0
M  V30 2686 H 257.05 -2.03591 -3.04871 0
M  V30 2687 H 256.698 -0.516092 -5.00345 0
M  V30 2688 H 256.398 -2.2165 -5.44192 0
M  V30 2689 H 257.922 -1.42639 -5.93706 0
M  V30 2690 H 259.336 -3.31605 -4.67665 0
M  V30 2691 H 257.733 -4.06314 -4.41621 0
M  V30 2692 H 258.803 -3.78561 -3.03017 0
M  V30 2693 N 260.146 1.09593 -1.13257 0
M  V30 2694 C 261.392 1.82181 -0.904521 0
M  V30 2695 C 261.747 1.83967 0.563358 0
M  V30 2696 O 261.04 1.29566 1.41149 0
M  V30 2697 C 261.234 3.27802 -1.42411 0
M  V30 2698 C 261.063 3.40201 -2.94097 0
M  V30 2699 C 259.833 3.52104 -3.62424 0
M  V30 2700 C 262.031 3.32875 -3.92044 0
M  V30 2701 N 260.013 3.53169 -5.0214 0
M  V30 2702 C 261.384 3.40789 -5.17941 0
M  V30 2703 C 263.439 3.16531 -3.84334 0
M  V30 2704 C 262.142 3.34042 -6.37031 0
M  V30 2705 C 264.168 3.11109 -5.02956 0
M  V30 2706 C 263.53 3.19614 -6.27715 0
M  V30 2707 H 259.629 0.681015 -0.384373 0
M  V30 2708 H 262.213 1.3099 -1.44048 0
M  V30 2709 H 260.384 3.77466 -0.915086 0
M  V30 2710 H 262.116 3.88393 -1.13722 0
M  V30 2711 H 258.871 3.5548 -3.12939 0
M  V30 2712 H 259.295 3.57291 -5.75041 0
M  V30 2713 H 263.937 3.08827 -2.88766 0
M  V30 2714 H 261.655 3.4051 -7.32857 0
M  V30 2715 H 265.241 2.99601 -4.98729 0
M  V30 2716 H 264.121 3.15432 -7.17964 0
M  V30 2717 N 261.624 0.925811 1.2754 0
M  V30 2718 C 263.035 0.610102 1.7645 0
M  V30 2719 C 263.386 -0.874723 1.75622 0
M  V30 2720 O 262.511 -1.68444 1.35851 0
M  V30 2721 C 263.106 1.10073 3.20421 0
M  V30 2722 C 261.665 0.835723 3.67005 0
M  V30 2723 C 260.812 1.26054 2.46993 0
M  V30 2724 H 263.763 1.10579 1.13833 0
M  V30 2725 H 263.784 0.447557 3.77859 0
M  V30 2726 H 263.296 2.18143 3.20991 0
M  V30 2727 H 261.397 -0.231249 3.71882 0
M  V30 2728 H 261.51 1.45193 4.56569 0
M  V30 2729 H 259.874 0.679111 2.45479 0
M  V30 2730 H 260.657 2.34984 2.50275 0
M  V30 2731 N 263.102 -1.41638 0.69111 0
M  V30 2732 C 264.379 -1.95036 0.148421 0
M  V30 2733 C 264.759 -1.63072 -1.34055 0
M  V30 2734 O 264.107 -0.93538 -2.08478 0
M  V30 2735 C 264.317 -3.46279 0.434951 0
M  V30 2736 C 265.665 -4.23069 0.360275 0
M  V30 2737 O 266.689 -3.54277 0.369613 0
M  V30 2738 O 265.548 -5.45583 0.316534 0
M  V30 2739 H 262.642 -0.826908 0.0123654 0
M  V30 2740 H 265.188 -1.5138 0.766963 0
M  V30 2741 H 263.96 -3.6281 1.46576 0
M  V30 2742 H 263.583 -3.97019 -0.214787 0
M  V30 2743 N 264.58 -0.43555 -1.51462 0
M  V30 2744 C 265.828 0.131254 -2.01673 0
M  V30 2745 C 266.149 1.43368 -1.32177 0
M  V30 2746 O 265.419 1.90524 -0.455769 0
M  V30 2747 H 263.999 0.0514954 -0.745223 0
M  V30 2748 H 266.661 -0.577847 -1.86137 0
M  V30 2749 H 265.757 0.308446 -3.10572 0
M  V30 2750 N 266.058 1.56714 -0.166846 0
M  V30 2751 C 266.99 2.14914 0.796537 0
M  V30 2752 C 268.003 1.10357 1.19688 0
M  V30 2753 O 269.192 1.37561 1.13751 0
M  V30 2754 C 266.292 2.67326 2.08303 0
M  V30 2755 C 265.465 3.96493 1.84696 0
M  V30 2756 C 264.524 4.34014 2.97521 0
M  V30 2757 O 263.55 5.01973 2.6835 0
M  V30 2758 N 264.752 3.95208 4.25196 0
M  V30 2759 H 267.517 2.98205 0.299006 0
M  V30 2760 H 265.078 1.61892 0.0160839 0
M  V30 2761 H 267.07 2.89428 2.82867 0
M  V30 2762 H 265.64 1.88649 2.4926 0
M  V30 2763 H 264.86 3.82814 0.940602 0
M  V30 2764 H 266.148 4.8086 1.66285 0
M  V30 2765 H 265.546 3.40487 4.51758 0
M  V30 2766 H 264.103 4.2232 4.96477 0
M  V30 2767 N 267.536 -0.106894 1.57237 0
M  V30 2768 C 268.446 -1.14911 2.0453 0
M  V30 2769 C 269.462 -1.44592 0.96795 0
M  V30 2770 O 270.638 -1.55468 1.2803 0
M  V30 2771 C 267.703 -2.45272 2.45036 0
M  V30 2772 C 266.764 -2.22879 3.66911 0
M  V30 2773 C 265.997 -3.47024 4.05475 0
M  V30 2774 O 266.22 -4.54804 3.44252 0
M  V30 2775 O 265.154 -3.3731 4.98504 0
M  V30 2776 H 268.98 -0.777461 2.9358 0
M  V30 2777 H 266.565 -0.318563 1.45964 0
M  V30 2778 H 268.447 -3.22055 2.71769 0
M  V30 2779 H 267.122 -2.81886 1.59129 0
M  V30 2780 H 266.029 -1.43915 3.45311 0
M  V30 2781 H 267.362 -1.91163 4.53561 0
M  V30 2782 N 269.014 -1.53014 -0.377408 0
M  V30 2783 C 270.26 -1.68872 -1.12294 0
M  V30 2784 C 270.593 -0.433224 -1.89306 0
M  V30 2785 O 269.868 0.569258 -1.85983 0
M  V30 2786 C 270.151 -2.93115 -2.09179 0
M  V30 2787 C 270.004 -4.28794 -1.35853 0
M  V30 2788 C 271.323 -3.12928 -3.09458 0
M  V30 2789 H 268.442 -0.614518 -0.406862 0
M  V30 2790 H 271.084 -1.85633 -0.40503 0
M  V30 2791 H 269.234 -2.78956 -2.70399 0
M  V30 2792 H 270.906 -4.54742 -0.775082 0
M  V30 2793 H 269.149 -4.28744 -0.660364 0
M  V30 2794 H 269.82 -5.11837 -2.06706 0
M  V30 2795 H 272.296 -3.26194 -2.58334 0
M  V30 2796 H 271.172 -4.01316 -3.74482 0
M  V30 2797 H 271.433 -2.27669 -3.78971 0
M  V30 2798 N 270.492 0.636531 -1.44174 0
M  V30 2799 C 271.738 1.39826 -1.4689 0
M  V30 2800 C 272.071 1.93947 -0.0990585 0
M  V30 2801 O 271.346 1.73325 0.882544 0
M  V30 2802 C 271.629 2.56751 -2.5249 0
M  V30 2803 C 271.482 2.08014 -3.98811 0
M  V30 2804 C 272.801 3.58946 -2.54649 0
M  V30 2805 H 269.92 0.507075 -0.53483 0
M  V30 2806 H 272.562 0.720188 -1.75822 0
M  V30 2807 H 270.712 3.14597 -2.2795 0
M  V30 2808 H 272.384 1.5504 -4.34466 0
M  V30 2809 H 270.627 1.39242 -4.10846 0
M  V30 2810 H 271.298 2.92169 -4.68339 0
M  V30 2811 H 273.774 3.1089 -2.76563 0
M  V30 2812 H 272.65 4.38286 -3.3045 0
M  V30 2813 H 272.911 4.12655 -1.58646 0
M  V30 2814 N 271.97 1.30982 0.876444 0
M  V30 2815 C 273.216 1.21484 1.63136 0
M  V30 2816 C 273.571 -0.226339 1.91064 0
M  V30 2817 O 272.864 -1.15788 1.52656 0
M  V30 2818 C 273.058 1.98572 2.9716 0
M  V30 2819 C 272.887 3.50039 2.82317 0
M  V30 2820 C 271.657 4.19393 2.81847 0
M  V30 2821 C 273.855 4.45111 2.57644 0
M  V30 2822 N 271.837 5.57061 2.57985 0
M  V30 2823 C 273.208 5.70402 2.42986 0
M  V30 2824 C 275.263 4.3461 2.42937 0
M  V30 2825 C 273.966 6.8638 2.15115 0
M  V30 2826 C 275.992 5.50365 2.16454 0
M  V30 2827 C 275.354 6.74642 2.02578 0
M  V30 2828 H 271.453 0.499632 0.601575 0
M  V30 2829 H 274.037 1.65094 1.03209 0
M  V30 2830 H 272.208 1.5734 3.55104 0
M  V30 2831 H 273.94 1.81146 3.61895 0
M  V30 2832 H 270.695 3.71303 2.93991 0
M  V30 2833 H 271.119 6.29529 2.49043 0
M  V30 2834 H 275.761 3.39199 2.52396 0
M  V30 2835 H 273.479 7.81824 2.04394 0
M  V30 2836 H 277.065 5.44154 2.05884 0
M  V30 2837 H 275.945 7.62699 1.82374 0
M  V30 2838 N 273.449 -1.08991 1.13837 0
M  V30 2839 C 274.726 -1.77863 0.813876 0
M  V30 2840 C 275.106 -1.99375 -0.693746 0
M  V30 2841 O 274.454 -1.59875 -1.63255 0
M  V30 2842 C 274.664 -3.0986 1.60586 0
M  V30 2843 C 276.012 -3.84493 1.8014 0
M  V30 2844 O 277.036 -3.19624 1.57222 0
M  V30 2845 O 275.895 -5.00957 2.18413 0
M  V30 2846 H 272.989 -0.771589 0.297624 0
M  V30 2847 H 275.535 -1.15507 1.24323 0
M  V30 2848 H 274.307 -2.89715 2.63022 0
M  V30 2849 H 273.93 -3.79942 1.17173 0
M  V30 2850 N 274.927 -0.932562 -1.27047 0
M  V30 2851 C 276.204 -0.49377 -1.89265 0
M  V30 2852 C 276.584 1.02833 -1.8436 0
M  V30 2853 O 275.932 1.88461 -1.29209 0
M  V30 2854 C 276.142 -1.04536 -3.32976 0
M  V30 2855 C 277.49 -1.10879 -4.09867 0
M  V30 2856 O 278.514 -0.995327 -3.42011 0
M  V30 2857 O 277.373 -1.28417 -5.31198 0
M  V30 2858 H 274.467 -0.159596 -0.811454 0
M  V30 2859 H 277.013 -1.02457 -1.3528 0
M  V30 2860 H 275.785 -2.08913 -3.30864 0
M  V30 2861 H 275.408 -0.496494 -3.94488 0
M  V30 2862 N 276.405 1.4127 -0.698611 0
M  V30 2863 C 277.821 1.55241 -0.370462 0
M  V30 2864 C 278.021 1.67351 1.12231 0
M  V30 2865 O 277.077 1.65363 1.90818 0
M  V30 2866 C 278.39 2.78997 -1.12165 0
M  V30 2867 C 279.938 2.92797 -1.1063 0
M  V30 2868 C 280.413 4.19445 -1.8393 0
M  V30 2869 N 281.904 4.26409 -1.80914 0
M  V30 2870 C 282.639 5.23271 -2.34467 0
M  V30 2871 N 282.135 6.26145 -2.96504 0
M  V30 2872 N 283.928 5.15232 -2.24706 0
M  V30 2873 H 276.079 1.31654 -1.66676 0
M  V30 2874 H 278.342 0.635393 -0.703548 0
M  V30 2875 H 278.048 2.76268 -2.17644 0
M  V30 2876 H 277.922 3.70606 -0.702209 0
M  V30 2877 H 280.309 2.95039 -0.0597713 0
M  V30 2878 H 280.39 2.02353 -1.56483 0
M  V30 2879 H 280.034 4.17964 -2.88563 0
M  V30 2880 H 279.964 5.08866 -1.35509 0
M  V30 2881 H 282.455 3.527 -1.35687 0
M  V30 2882 H 282.768 6.96451 -3.34927 0
M  V30 2883 H 281.113 6.26638 -3.00583 0
M  V30 2884 H 284.304 4.33789 -1.7591 0
M  V30 2885 H 284.477 5.90552 -2.66745 0
M  V30 2886 N 277.883 0.443576 1.51229 0
M  V30 2887 C 279.299 0.0962001 1.5931 0
M  V30 2888 C 279.499 -1.39501 1.45402 0
M  V30 2889 O 278.555 -2.16557 1.29843 0
M  V30 2890 C 279.868 0.621875 2.94199 0
M  V30 2891 C 281.416 0.582865 3.07525 0
M  V30 2892 C 281.891 1.08562 4.44948 0
M  V30 2893 N 283.382 1.04387 4.51284 0
M  V30 2894 C 284.117 1.40368 5.55954 0
M  V30 2895 N 283.613 1.83664 6.68011 0
M  V30 2896 N 285.406 1.32145 5.46346 0
M  V30 2897 H 277.557 1.41376 1.58514 0
M  V30 2898 H 279.82 0.582965 0.747567 0
M  V30 2899 H 279.526 1.66546 3.09767 0
M  V30 2900 H 279.4 0.0502125 3.77167 0
M  V30 2901 H 281.787 -0.451749 2.91622 0
M  V30 2902 H 281.868 1.191 2.26382 0
M  V30 2903 H 281.512 2.11873 4.61598 0
M  V30 2904 H 281.442 0.453956 5.2464 0
M  V30 2905 H 283.933 0.725986 3.70861 0
M  V30 2906 H 284.246 2.0934 7.43906 0
M  V30 2907 H 282.591 1.87596 6.69203 0
M  V30 2908 H 285.782 0.981808 4.57688 0
M  V30 2909 H 285.955 1.60514 6.27805 0
M  V30 2910 N 279.361 -1.56624 0.175154 0
M  V30 2911 C 280.609 -1.96609 -0.467885 0
M  V30 2912 C 280.93 -1.06238 -1.63519 0
M  V30 2913 O 280.2 -0.129523 -1.95471 0
M  V30 2914 H 278.78 -0.726008 -0.175845 0
M  V30 2915 H 281.442 -1.93195 0.257234 0
M  V30 2916 H 280.538 -3.00989 -0.825342 0
M  V30 2917 N 280.839 0.0985539 -1.57292 0
M  V30 2918 C 281.772 1.15082 -1.97057 0
M  V30 2919 C 282.75 1.39025 -0.843255 0
M  V30 2920 O 283.934 1.52842 -1.10325 0
M  V30 2921 C 281.061 2.50069 -2.28437 0
M  V30 2922 C 280.107 2.42428 -3.509 0
M  V30 2923 S 280.94 1.84414 -5.02744 0
M  V30 2924 C 282.096 3.21032 -5.37298 0
M  V30 2925 H 282.329 0.811815 -2.86002 0
M  V30 2926 H 279.862 0.306102 -1.51335 0
M  V30 2927 H 281.82 3.27729 -2.47192 0
M  V30 2928 H 280.481 2.8114 -1.40069 0
M  V30 2929 H 279.674 3.41911 -3.70288 0
M  V30 2930 H 279.276 1.72896 -3.31637 0
M  V30 2931 H 281.568 4.17297 -5.33731 0
M  V30 2932 H 282.511 3.06452 -6.38352 0
M  V30 2933 H 282.919 3.20404 -4.64759 0
M  V30 2934 N 282.317 1.53212 0.369288 0
M  V30 2935 C 283.247 1.82365 1.45826 0
M  V30 2936 C 284.228 0.676907 1.56051 0
M  V30 2937 O 285.413 0.926401 1.70679 0
M  V30 2938 C 282.543 2.01023 2.83208 0
M  V30 2939 C 281.497 3.1678 2.8781 0
M  V30 2940 C 280.823 3.20724 4.27832 0
M  V30 2941 C 282.123 4.55447 2.55667 0
M  V30 2942 H 283.817 2.73559 1.21678 0
M  V30 2943 H 281.363 1.3163 0.583911 0
M  V30 2944 H 283.316 2.20001 3.59413 0
M  V30 2945 H 282.04 1.06536 3.08736 0
M  V30 2946 H 280.699 2.97616 2.14056 0
M  V30 2947 H 280.347 2.23882 4.50429 0
M  V30 2948 H 280.047 3.98496 4.31827 0
M  V30 2949 H 281.571 3.41881 5.05915 0
M  V30 2950 H 282.985 4.74611 3.21586 0
M  V30 2951 H 281.382 5.35432 2.70984 0
M  V30 2952 H 282.452 4.60812 1.5093 0
M  V30 2953 N 283.795 -0.628877 1.44509 0
M  V30 2954 C 285.041 -1.39045 1.47629 0
M  V30 2955 C 285.374 -1.93892 0.109343 0
M  V30 2956 O 284.649 -1.7379 -0.87334 0
M  V30 2957 C 284.932 -2.55408 2.53848 0
M  V30 2958 C 284.785 -2.05896 3.99909 0
M  V30 2959 C 286.104 -3.5759 2.56549 0
M  V30 2960 H 283.223 -0.504232 0.537512 0
M  V30 2961 H 285.865 -0.710854 1.76201 0
M  V30 2962 H 284.015 -3.13384 2.29615 0
M  V30 2963 H 285.687 -1.52734 4.35282 0
M  V30 2964 H 283.93 -1.37061 4.11578 0
M  V30 2965 H 284.601 -2.89681 4.69882 0
M  V30 2966 H 287.077 -3.09419 2.78207 0
M  V30 2967 H 285.953 -4.36527 3.32769 0
M  V30 2968 H 286.214 -4.11808 1.60832 0
M  V30 2969 N 285.273 -1.31445 -0.869486 0
M  V30 2970 C 286.498 -1.24256 -1.66058 0
M  V30 2971 C 286.923 0.188928 -1.87149 0
M  V30 2972 O 286.281 1.13522 -1.4136 0
M  V30 2973 C 286.329 -1.9924 -3.00559 0
M  V30 2974 O 285.433 -1.33007 -3.90362 0
M  V30 2975 H 284.774 -0.428973 -0.506831 0
M  V30 2976 H 287.304 -1.73521 -1.08404 0
M  V30 2977 H 287.314 -2.08854 -3.50491 0
M  V30 2978 H 285.989 -3.03342 -2.84528 0
M  V30 2979 H 284.566 -1.31848 -3.48813 0
M  V30 2980 N 286.751 1.08385 -1.14413 0
M  V30 2981 C 287.979 1.84517 -0.936001 0
M  V30 2982 C 288.394 1.81626 0.515503 0
M  V30 2983 O 287.751 1.22008 1.35721 0
M  V30 2984 C 287.802 3.32049 -1.42918 0
M  V30 2985 O 287.523 3.34951 -2.82381 0
M  V30 2986 C 289.024 4.24986 -1.26103 0
M  V30 2987 H 286.244 0.582491 -0.333084 0
M  V30 2988 H 288.788 1.36885 -1.5193 0
M  V30 2989 H 286.943 3.7707 -0.888641 0
M  V30 2990 H 287.357 4.27048 -3.04517 0
M  V30 2991 H 288.831 5.26615 -1.6547 0
M  V30 2992 H 289.308 4.38726 -0.20392 0
M  V30 2993 H 289.914 3.85791 -1.79012 0
M  V30 2994 N 288.23 0.939286 1.26551 0
M  V30 2995 C 289.641 0.628782 1.75793 0
M  V30 2996 C 289.992 -0.856046 1.7654 0
M  V30 2997 O 289.117 -1.66994 1.3763 0
M  V30 2998 C 289.712 1.13465 3.19235 0
M  V30 2999 C 288.271 0.874601 3.66098 0
M  V30 3000 C 287.418 1.28667 2.45642 0
M  V30 3001 H 290.369 1.1178 1.12654 0
M  V30 3002 H 290.39 0.487609 3.77363 0
M  V30 3003 H 289.902 2.21535 3.1866 0
M  V30 3004 H 288.003 -0.191793 3.72106 0
M  V30 3005 H 288.116 1.50028 4.55004 0
M  V30 3006 H 286.48 0.705109 2.44745 0
M  V30 3007 H 287.263 2.37625 2.47769 0
M  V30 3008 N 289.708 -1.40897 0.706093 0
M  V30 3009 C 290.638 -2.33418 0.0620085 0
M  V30 3010 C 291.619 -1.52385 -0.755827 0
M  V30 3011 O 292.804 -1.80886 -0.706674 0
M  V30 3012 C 289.934 -3.36293 -0.867445 0
M  V30 3013 C 288.888 -4.27716 -0.155932 0
M  V30 3014 C 288.214 -5.2105 -1.20046 0
M  V30 3015 C 289.514 -5.12944 0.984149 0
M  V30 3016 H 291.208 -2.87527 0.83477 0
M  V30 3017 H 288.754 -1.38249 0.402875 0
M  V30 3018 H 290.707 -3.99949 -1.32735 0
M  V30 3019 H 289.431 -2.80556 -1.67199 0
M  V30 3020 H 288.09 -3.65498 0.284047 0
M  V30 3021 H 287.738 -4.61624 -1.99781 0
M  V30 3022 H 287.438 -5.83056 -0.729328 0
M  V30 3023 H 288.962 -5.87584 -1.66066 0
M  V30 3024 H 290.376 -5.70109 0.604048 0
M  V30 3025 H 288.773 -5.83945 1.38304 0
M  V30 3026 H 289.843 -4.49485 1.81911 0
M  V30 3027 N 291.186 -0.45159 -1.50991 0
M  V30 3028 C 292.116 0.342898 -2.30969 0
M  V30 3029 C 293.097 1.00815 -1.37005 0
M  V30 3030 O 294.282 1.00907 -1.65926 0
M  V30 3031 C 291.412 1.43637 -3.16205 0
M  V30 3032 C 290.366 0.893818 -4.18563 0
M  V30 3033 C 289.692 2.08411 -4.92411 0
M  V30 3034 C 290.992 -0.0815568 -5.22236 0
M  V30 3035 H 292.686 -0.324556 -2.97636 0
M  V30 3036 H 290.232 -0.157531 -1.43136 0
M  V30 3037 H 292.185 1.9995 -3.70942 0
M  V30 3038 H 290.909 2.13232 -2.47386 0
M  V30 3039 H 289.568 0.352798 -3.64898 0
M  V30 3040 H 289.216 2.76658 -4.20082 0
M  V30 3041 H 288.916 1.72741 -5.61636 0
M  V30 3042 H 290.44 2.65251 -5.49976 0
M  V30 3043 H 291.854 0.391742 -5.7196 0
M  V30 3044 H 290.251 -0.351551 -5.99069 0
M  V30 3045 H 291.321 -1.01374 -4.74185 0
M  V30 3046 N 292.664 1.56529 -0.183458 0
M  V30 3047 C 293.614 2.1515 0.754605 0
M  V30 3048 C 294.598 1.08904 1.18443 0
M  V30 3049 O 295.79 1.34997 1.14476 0
M  V30 3050 C 292.919 2.80531 1.97881 0
M  V30 3051 C 292.005 3.93952 1.57043 0
M  V30 3052 N 292.396 4.98221 0.87231 0
M  V30 3053 C 290.694 4.05338 1.86057 0
M  V30 3054 C 291.395 5.77836 0.669377 0
M  V30 3055 N 290.371 5.29858 1.21454 0
M  V30 3056 H 294.173 2.93132 0.212387 0
M  V30 3057 H 291.687 1.62391 0.0167725 0
M  V30 3058 H 293.684 3.20914 2.6612 0
M  V30 3059 H 292.344 2.04035 2.52586 0
M  V30 3060 H 293.355 5.15191 0.529033 0
M  V30 3061 H 290.032 3.39957 2.42354 0
M  V30 3062 H 291.422 6.71799 0.116422 0
M  V30 3063 N 294.142 -0.090211 1.57342 0
M  V30 3064 C 295.419 -0.824761 1.77361 0
M  V30 3065 C 295.799 -1.96698 0.76637 0
M  V30 3066 O 295.147 -2.27586 -0.204179 0
M  V30 3067 C 295.357 -1.31481 3.23286 0
M  V30 3068 C 296.705 -1.75563 3.86604 0
M  V30 3069 O 297.729 -1.41093 3.27065 0
M  V30 3070 O 296.588 -2.39317 4.91314 0
M  V30 3071 H 293.682 -0.393776 0.727234 0
M  V30 3072 H 296.228 -0.0717138 1.69548 0
M  V30 3073 H 295 -0.496671 3.88135 0
M  V30 3074 H 294.623 -2.12973 3.35751 0
M  V30 3075 N 295.62 -1.53406 -0.361157 0
M  V30 3076 C 296.583 -1.79479 -1.42548 0
M  V30 3077 C 297.583 -0.665327 -1.4639 0
M  V30 3078 O 298.773 -0.933549 -1.47073 0
M  V30 3079 C 295.905 -1.92087 -2.8163 0
M  V30 3080 H 297.098 -2.74538 -1.20701 0
M  V30 3081 H 294.651 -1.4455 -0.594546 0
M  V30 3082 H 295.386 -0.991099 -3.08784 0
M  V30 3083 H 295.171 -2.74241 -2.80239 0
M  V30 3084 H 296.661 -2.13836 -3.58697 0
M  V30 3085 N 297.098 0.621204 -1.44841 0
M  V30 3086 C 298.028 1.74366 -1.55303 0
M  V30 3087 C 299.009 1.65199 -0.405385 0
M  V30 3088 O 300.194 1.83807 -0.626787 0
M  V30 3089 C 297.324 3.12931 -1.50637 0
M  V30 3090 C 296.278 3.36896 -2.63979 0
M  V30 3091 C 295.604 4.75594 -2.44366 0
M  V30 3092 C 296.904 3.28483 -4.06074 0
M  V30 3093 H 298.598 1.65867 -2.49256 0
M  V30 3094 H 296.144 0.796558 -1.19962 0
M  V30 3095 H 298.097 3.9124 -1.56555 0
M  V30 3096 H 296.821 3.22237 -0.532057 0
M  V30 3097 H 295.48 2.60972 -2.57467 0
M  V30 3098 H 295.128 4.81616 -1.45105 0
M  V30 3099 H 294.828 4.92586 -3.20364 0
M  V30 3100 H 296.352 5.5612 -2.52117 0
M  V30 3101 H 297.766 3.96684 -4.13902 0
M  V30 3102 H 296.163 3.57008 -4.82354 0
M  V30 3103 H 297.233 2.26133 -4.28943 0
M  V30 3104 N 298.576 1.31904 0.862503 0
M  V30 3105 C 299.806 1.24817 1.64634 0
M  V30 3106 C 300.214 -0.187579 1.88268 0
M  V30 3107 O 299.557 -1.13253 1.44635 0
M  V30 3108 C 299.619 1.92996 3.03303 0
M  V30 3109 C 299.283 3.42336 3.02746 0
M  V30 3110 C 300.28 4.37956 2.80162 0
M  V30 3111 C 297.965 3.84147 3.2363 0
M  V30 3112 C 299.959 5.73361 2.78453 0
M  V30 3113 C 297.646 5.19663 3.21549 0
M  V30 3114 C 298.644 6.14081 2.98988 0
M  V30 3115 O 298.332 7.47118 2.96766 0
M  V30 3116 H 298.064 0.432222 0.519769 0
M  V30 3117 H 300.618 1.7445 1.08427 0
M  V30 3118 H 298.848 1.37922 3.61268 0
M  V30 3119 H 300.537 1.79723 3.63943 0
M  V30 3120 H 301.303 4.06981 2.63802 0
M  V30 3121 H 297.182 3.11083 3.40218 0
M  V30 3122 H 300.726 6.4703 2.60763 0
M  V30 3123 H 296.623 5.5027 3.37451 0
M  V30 3124 H 297.391 7.56382 3.12775 0
M  V30 3125 N 300.054 -1.07777 1.14986 0
M  V30 3126 C 300.984 -2.16865 0.865557 0
M  V30 3127 C 301.965 -1.69123 -0.182083 0
M  V30 3128 O 303.15 -1.94164 -0.0373815 0
M  V30 3129 C 300.28 -3.45539 0.349313 0
M  V30 3130 C 299.234 -4.06708 1.33313 0
M  V30 3131 C 298.56 -5.30411 0.675918 0
M  V30 3132 C 299.86 -4.47241 2.69764 0
M  V30 3133 H 301.554 -2.40905 1.77778 0
M  V30 3134 H 299.1 -1.15781 0.856203 0
M  V30 3135 H 301.053 -4.21174 0.137983 0
M  V30 3136 H 299.777 -3.21072 -0.598362 0
M  V30 3137 H 298.436 -3.33112 1.53075 0
M  V30 3138 H 298.084 -5.02232 -0.277767 0
M  V30 3139 H 297.784 -5.72293 1.33244 0
M  V30 3140 H 299.308 -6.08755 0.474262 0
M  V30 3141 H 300.722 -5.14025 2.53873 0
M  V30 3142 H 299.119 -5.00062 3.3175 0
M  V30 3143 H 300.189 -3.58818 3.26156 0
M  V30 3144 N 301.532 -0.945985 -1.26051 0
M  V30 3145 C 302.464 -0.416662 -2.25381 0
M  V30 3146 C 303.477 0.462712 -1.56086 0
M  V30 3147 O 304.666 0.272383 -1.7641 0
M  V30 3148 C 301.766 0.419812 -3.3629 0
M  V30 3149 C 300.939 -0.444531 -4.35135 0
M  V30 3150 C 299.998 0.332305 -5.2515 0
M  V30 3151 O 299.024 -0.266324 -5.68577 0
M  V30 3152 N 300.226 1.62763 -5.57215 0
M  V30 3153 H 302.991 -1.27059 -2.71433 0
M  V30 3154 H 300.552 -0.815392 -1.39868 0
M  V30 3155 H 302.544 0.947013 -3.93464 0
M  V30 3156 H 301.114 1.17456 -2.89694 0
M  V30 3157 H 300.334 -1.15291 -3.76964 0
M  V30 3158 H 301.622 -1.03478 -4.98166 0
M  V30 3159 H 301.02 2.13603 -5.23823 0
M  V30 3160 H 299.577 2.10097 -6.17011 0
M  V30 3161 N 303.011 1.40521 -0.713556 0
M  V30 3162 C 304.251 2.02783 -0.256584 0
M  V30 3163 C 304.615 1.55352 1.12827 0
M  V30 3164 O 305.816 2.09663 1.68211 0
M  V30 3165 C 304.087 3.5586 -0.331414 0
M  V30 3166 S 305.646 4.38773 0.0488703 0
M  V30 3167 H 302.464 0.703655 -0.101934 0
M  V30 3168 H 305.066 1.71674 -0.935325 0
M  V30 3169 H 303.77 3.87874 -1.34098 0
M  V30 3170 H 303.301 3.91695 0.365873 0
M  V30 3171 H 305.316 4.79633 1.2715 0
M  V30 3172 N 304.489 0.459591 1.5075 0
M  V30 3173 C 305.399 -0.34613 2.32033 0
M  V30 3174 C 306.415 -1.00686 1.41909 0
M  V30 3175 O 307.591 -0.997361 1.7497 0
M  V30 3176 C 304.656 -1.42029 3.16273 0
M  V30 3177 C 303.717 -0.777362 4.22203 0
M  V30 3178 C 302.95 -1.80034 5.02418 0
M  V30 3179 O 303.173 -3.02544 4.83553 0
M  V30 3180 O 302.107 -1.37853 5.85901 0
M  V30 3181 H 305.933 0.318054 3.0203 0
M  V30 3182 H 303.518 0.221663 1.47746 0
M  V30 3183 H 305.4 -2.04275 3.68578 0
M  V30 3184 H 304.075 -2.06815 2.49016 0
M  V30 3185 H 302.982 -0.116256 3.73919 0
M  V30 3186 H 304.315 -0.172634 4.91897 0
M  V30 3187 N 305.967 -1.56429 0.191757 0
M  V30 3188 C 307.195 -2.01867 -0.453586 0
M  V30 3189 C 307.61 -1.07191 -1.5542 0
M  V30 3190 O 306.967 -0.0762108 -1.82341 0
M  V30 3191 C 307.018 -3.47017 -1.013 0
M  V30 3192 O 306.739 -4.38078 0.0437005 0
M  V30 3193 C 308.24 -4.07956 -1.73456 0
M  V30 3194 H 305.46 -0.661211 -0.114199 0
M  V30 3195 H 308.004 -2.02295 0.299483 0
M  V30 3196 H 306.159 -3.47298 -1.71647 0
M  V30 3197 H 306.573 -5.23178 -0.372212 0
M  V30 3198 H 308.047 -5.1138 -2.07833 0
M  V30 3199 H 308.524 -3.51222 -2.63704 0
M  V30 3200 H 309.13 -4.11437 -1.07702 0
M  V30 3201 N 307.445 0.0818655 -1.57387 0
M  V30 3202 C 308.673 0.796108 -1.9097 0
M  V30 3203 C 309.088 1.71626 -0.786757 0
M  V30 3204 O 308.445 1.80908 0.240513 0
M  V30 3205 C 308.496 1.59829 -3.24248 0
M  V30 3206 O 308.217 0.715131 -4.32224 0
M  V30 3207 C 309.718 2.41442 -3.7178 0
M  V30 3208 H 306.938 0.22691 -0.631469 0
M  V30 3209 H 309.482 0.0551439 -2.04426 0
M  V30 3210 H 307.637 2.29163 -3.12351 0
M  V30 3211 H 308.051 1.27205 -5.08841 0
M  V30 3212 H 309.525 2.932 -4.67694 0
M  V30 3213 H 310.002 3.2051 -3.00283 0
M  V30 3214 H 310.608 1.77283 -3.86589 0
M  V30 3215 N 308.923 1.53595 0.353017 0
M  V30 3216 C 310.169 1.71581 1.09232 0
M  V30 3217 C 310.524 0.468328 1.86613 0
M  V30 3218 O 309.817 -0.538911 1.83865 0
M  V30 3219 C 310.011 2.91313 2.07054 0
M  V30 3220 C 309.84 4.27585 1.39287 0
M  V30 3221 C 308.61 4.92233 1.1417 0
M  V30 3222 C 310.808 5.07656 0.824005 0
M  V30 3223 N 308.79 6.124 0.428841 0
M  V30 3224 C 310.161 6.19531 0.241195 0
M  V30 3225 C 312.216 4.92609 0.723922 0
M  V30 3226 C 310.919 7.18002 -0.431952 0
M  V30 3227 C 312.945 5.91365 0.0645334 0
M  V30 3228 C 312.307 7.02571 -0.507347 0
M  V30 3229 H 308.406 0.680987 0.384422 0
M  V30 3230 H 310.99 1.91013 0.377096 0
M  V30 3231 H 309.161 2.73398 2.75877 0
M  V30 3232 H 310.893 2.98062 2.73753 0
M  V30 3233 H 307.648 4.51612 1.42631 0
M  V30 3234 H 308.072 6.76944 0.0874131 0
M  V30 3235 H 312.714 4.06808 1.15181 0
M  V30 3236 H 310.432 8.03384 -0.871758 0
M  V30 3237 H 314.018 5.81799 -0.0121469 0
M  V30 3238 H 312.898 7.77675 -1.0095 0
M  V30 3239 N 310.401 -0.613514 1.45168 0
M  V30 3240 C 311.649 -1.36997 1.48581 0
M  V30 3241 C 311.97 -1.94589 0.126545 0
M  V30 3242 O 311.24 -1.76816 -0.843372 0
M  V30 3243 H 309.82 -0.508558 0.547154 0
M  V30 3244 H 312.482 -0.720853 1.81079 0
M  V30 3245 H 311.578 -2.1924 2.22127 0
M  V30 3246 N 311.879 -1.3236 -0.855495 0
M  V30 3247 C 313.156 -1.13491 -1.59309 0
M  V30 3248 C 313.536 0.30503 -2.08885 0
M  V30 3249 O 312.884 1.30151 -1.87811 0
M  V30 3250 C 313.094 -2.16176 -2.73987 0
M  V30 3251 C 314.442 -2.49463 -3.43589 0
M  V30 3252 O 315.466 -2.14715 -2.84211 0
M  V30 3253 O 314.325 -3.09027 -4.50738 0
M  V30 3254 H 311.419 -0.437887 -0.701559 0
M  V30 3255 H 313.965 -1.43887 -0.899696 0
M  V30 3256 H 312.737 -3.1297 -2.34873 0
M  V30 3257 H 312.36 -1.86769 -3.51003 0
M  V30 3258 N 313.357 1.07166 -1.15556 0
M  V30 3259 C 314.289 2.14341 -0.811815 0
M  V30 3260 C 315.302 1.61835 0.177015 0
M  V30 3261 O 316.491 1.78439 -0.0464996 0
M  V30 3262 C 313.591 3.38387 -0.186481 0
M  V30 3263 C 312.764 4.20238 -1.21321 0
M  V30 3264 C 311.823 5.2266 -0.609302 0
M  V30 3265 O 310.849 5.54719 -1.27576 0
M  V30 3266 N 312.051 5.77306 0.608099 0
M  V30 3267 H 314.816 2.44431 -1.73417 0
M  V30 3268 H 312.377 1.23089 -1.0517 0
M  V30 3269 H 314.369 4.04044 0.230339 0
M  V30 3270 H 312.939 3.05994 0.639249 0
M  V30 3271 H 312.159 3.50369 -1.80652 0
M  V30 3272 H 313.447 4.71736 -1.90638 0
M  V30 3273 H 312.845 5.53513 1.1679 0
M  V30 3274 H 311.402 6.44583 0.96725 0
M  V30 3275 N 314.835 0.952656 1.25548 0
M  V30 3276 C 316.112 0.523818 1.88456 0
M  V30 3277 C 316.492 -0.998871 1.85973 0
M  V30 3278 O 315.84 -1.86381 1.3219 0
M  V30 3279 C 316.05 1.0982 3.31271 0
M  V30 3280 C 317.398 1.17385 4.08051 0
M  V30 3281 O 318.422 1.04961 3.40384 0
M  V30 3282 O 317.281 1.36852 5.29088 0
M  V30 3283 H 314.375 0.172485 0.808813 0
M  V30 3284 H 316.921 1.04596 1.33633 0
M  V30 3285 H 315.693 2.1415 3.27499 0
M  V30 3286 H 315.316 0.559191 3.93648 0
M  V30 3287 N 316.313 -1.40141 0.720998 0
M  V30 3288 C 317.56 -2.00787 0.262842 0
M  V30 3289 C 317.888 -1.5718 -1.14563 0
M  V30 3290 O 317.143 -0.785391 -1.79249 0
M  V30 3291 C 317.442 -3.56165 0.296892 0
M  V30 3292 C 317.108 -4.19373 1.65641 0
M  V30 3293 C 315.77 -4.36352 2.02855 0
M  V30 3294 C 318.122 -4.54578 2.54968 0
M  V30 3295 C 315.45 -4.8582 3.28931 0
M  V30 3296 C 317.802 -5.05447 3.80402 0
M  V30 3297 C 316.466 -5.20635 4.17726 0
M  V30 3298 H 315.736 -0.734731 0.0961807 0
M  V30 3299 H 318.383 -1.67673 0.925093 0
M  V30 3300 H 316.688 -3.8922 -0.448932 0
M  V30 3301 H 318.385 -4.00929 -0.0755208 0
M  V30 3302 H 314.975 -4.06549 1.35704 0
M  V30 3303 H 319.159 -4.41091 2.27491 0
M  V30 3304 H 314.415 -4.95764 3.57811 0
M  V30 3305 H 318.589 -5.31663 4.49786 0
M  V30 3306 H 316.216 -5.58728 5.15487 0
M  V30 3307 N 317.792 -0.46758 -1.50504 0
M  V30 3308 C 318.722 0.318381 -2.31319 0
M  V30 3309 C 319.703 0.993564 -1.38066 0
M  V30 3310 O 320.888 0.991411 -1.66987 0
M  V30 3311 C 318.018 1.40275 -3.17711 0
M  V30 3312 C 316.972 0.849373 -4.19487 0
M  V30 3313 C 316.298 2.03177 -4.94594 0
M  V30 3314 C 317.598 -0.136942 -5.2212 0
M  V30 3315 H 319.292 -0.356106 -2.97275 0
M  V30 3316 H 316.838 -0.172703 -1.42961 0
M  V30 3317 H 318.791 1.96004 -3.73042 0
M  V30 3318 H 317.515 2.10596 -2.49634 0
M  V30 3319 H 316.174 0.314076 -3.65252 0
M  V30 3320 H 315.822 2.72187 -4.22993 0
M  V30 3321 H 315.522 1.66774 -5.63436 0
M  V30 3322 H 317.046 2.59403 -5.52759 0
M  V30 3323 H 318.46 0.331056 -5.72343 0
M  V30 3324 H 316.857 -0.41507 -5.98663 0
M  V30 3325 H 317.927 -1.06398 -4.73083 0
M  V30 3326 N 319.27 1.56325 -0.20005 0
M  V30 3327 C 320.495 2.02548 0.44597 0
M  V30 3328 C 320.92 1.07922 1.5406 0
M  V30 3329 O 320.278 0.0635775 1.81188 0
M  V30 3330 C 320.326 3.47175 0.974761 0
M  V30 3331 O 319.43 3.55671 2.08739 0
M  V30 3332 H 318.771 0.655862 0.103638 0
M  V30 3333 H 321.301 2.02201 -0.312381 0
M  V30 3334 H 321.311 3.87067 1.2901 0
M  V30 3335 H 319.986 4.15538 0.17347 0
M  V30 3336 H 318.563 3.27657 1.78032 0
M  V30 3337 N 320.748 -0.0735177 1.57428 0
M  V30 3338 C 321.696 -1.10628 2.04607 0
M  V30 3339 C 322.69 -1.40181 0.951088 0
M  V30 3340 O 323.896 -1.39608 1.1362 0
M  V30 3341 H 320.271 -0.374088 0.652351 0
M  V30 3342 H 322.242 -0.682218 2.90497 0
M  V30 3343 C 320.991 -2.41212 2.50423 0
M  V30 3344 H 320.314 -2.19322 3.34272 0
M  V30 3345 H 321.754 -3.11927 2.87189 0
M  V30 3346 C 320.213 -3.0705 1.38644 0
M  V30 3347 O 320.743 -3.95056 0.727582 0
M  V30 3348 N 318.949 -2.67645 1.132 0
M  V30 3349 H 318.496 -1.96169 1.66959 0
M  V30 3350 H 318.454 -3.1202 0.386147 0
M  V30 3351 N 322.226 -1.5378 -0.344866 0
M  V30 3352 C 323.637 -1.62428 -0.920552 0
M  V30 3353 C 323.988 -0.504747 -1.89596 0
M  V30 3354 O 323.113 0.365711 -2.13287 0
M  V30 3355 C 323.708 -2.94419 -1.67639 0
M  V30 3356 C 322.267 -3.05333 -2.20111 0
M  V30 3357 C 321.414 -2.57866 -1.01982 0
M  V30 3358 H 324.365 -1.58222 -0.123042 0
M  V30 3359 H 324.386 -2.83384 -2.53917 0
M  V30 3360 H 323.898 -3.7588 -0.966224 0
M  V30 3361 H 321.999 -2.28502 -2.94308 0
M  V30 3362 H 322.112 -4.10778 -2.46573 0
M  V30 3363 H 320.476 -2.13241 -1.39285 0
M  V30 3364 H 321.259 -3.41765 -0.324308 0
M  V30 3365 N 323.704 0.605807 -1.45491 0
M  V30 3366 C 324.951 1.36476 -1.49601 0
M  V30 3367 C 325.279 1.94007 -0.138452 0
M  V30 3368 O 324.534 1.75638 0.863114 0
M  V30 3369 C 324.833 2.53012 -2.52428 0
M  V30 3370 C 324.499 2.13617 -3.97087 0
M  V30 3371 C 323.161 2.02587 -4.36477 0
M  V30 3372 C 325.513 1.82899 -4.88055 0
M  V30 3373 C 322.841 1.59064 -5.64726 0
M  V30 3374 C 325.193 1.40861 -6.16718 0
M  V30 3375 C 323.857 1.28391 -6.55036 0
M  V30 3376 H 323.127 0.499402 -0.547429 0
M  V30 3377 H 325.774 0.684546 -1.78847 0
M  V30 3378 H 324.079 3.26379 -2.16758 0
M  V30 3379 H 325.776 3.1124 -2.52845 0
M  V30 3380 H 322.366 2.23129 -3.65939 0
M  V30 3381 H 326.55 1.90317 -4.58359 0
M  V30 3382 H 321.806 1.48034 -5.93208 0
M  V30 3383 H 325.98 1.16138 -6.86648 0
M  V30 3384 H 323.607 0.944403 -7.54311 0
M  V30 3385 N 325.182 1.32811 0.848464 0
M  V30 3386 C 326.112 1.24882 1.97299 0
M  V30 3387 C 327.093 0.131357 1.69592 0
M  V30 3388 O 328.278 0.319553 1.91553 0
M  V30 3389 C 325.408 0.97746 3.33261 0
M  V30 3390 C 324.362 2.05682 3.75338 0
M  V30 3391 C 323.688 1.63777 5.09 0
M  V30 3392 C 324.988 3.47254 3.90144 0
M  V30 3393 H 326.682 2.18966 2.04191 0
M  V30 3394 H 324.228 1.05413 0.981029 0
M  V30 3395 H 326.181 0.908513 4.1149 0
M  V30 3396 H 324.905 0.000980011 3.266 0
M  V30 3397 H 323.564 2.11603 2.99366 0
M  V30 3398 H 323.212 0.648569 4.98801 0
M  V30 3399 H 322.912 2.36 5.38124 0
M  V30 3400 H 324.436 1.5833 5.89715 0
M  V30 3401 H 325.85 3.43888 4.58709 0
M  V30 3402 H 324.247 4.1788 4.30693 0
M  V30 3403 H 325.317 3.86462 2.92874 0
M  V30 3404 N 326.66 -1.06551 1.16123 0
M  V30 3405 C 327.906 -1.79567 0.94252 0
M  V30 3406 C 328.239 -1.86869 -0.528547 0
M  V30 3407 O 327.514 -1.35838 -1.39206 0
M  V30 3408 C 327.797 -3.24195 1.56747 0
M  V30 3409 C 327.65 -3.24989 3.10969 0
M  V30 3410 C 328.969 -4.21678 1.25998 0
M  V30 3411 H 326.088 -0.651883 0.343828 0
M  V30 3412 H 328.73 -1.2463 1.43413 0
M  V30 3413 H 326.88 -3.71107 1.14942 0
M  V30 3414 H 328.552 -2.86258 3.61737 0
M  V30 3415 H 326.795 -2.63716 3.44436 0
M  V30 3416 H 327.466 -4.27005 3.49815 0
M  V30 3417 H 329.942 -3.83196 1.62174 0
M  V30 3418 H 328.818 -5.21146 1.7233 0
M  V30 3419 H 329.079 -4.4174 0.178367 0
M  V30 3420 N 328.138 -0.959301 -1.25041 0
M  V30 3421 C 329.088 -0.453888 -2.23436 0
M  V30 3422 C 330.072 0.459461 -1.542 0
M  V30 3423 O 331.264 0.291752 -1.74579 0
M  V30 3424 C 328.393 0.262667 -3.42294 0
M  V30 3425 C 327.479 -0.669022 -4.1879 0
M  V30 3426 N 327.87 -1.80267 -4.72586 0
M  V30 3427 C 326.168 -0.47814 -4.4343 0
M  V30 3428 C 326.869 -2.38475 -5.3057 0
M  V30 3429 N 325.845 -1.67078 -5.17287 0
M  V30 3430 H 329.647 -1.319 -2.6264 0
M  V30 3431 H 327.161 -0.817358 -1.40332 0
M  V30 3432 H 329.158 0.641911 -4.11929 0
M  V30 3433 H 327.818 1.12432 -3.04613 0
M  V30 3434 H 328.829 -2.18442 -4.69578 0
M  V30 3435 H 325.506 0.340249 -4.16111 0
M  V30 3436 H 326.896 -3.34094 -5.8295 0
M  V30 3437 N 329.616 1.39756 -0.72842 0
M  V30 3438 C 330.865 1.99879 -0.270407 0
M  V30 3439 C 331.178 1.58449 1.14688 0
M  V30 3440 O 332.384 2.11362 1.70407 0
M  V30 3441 C 330.84 3.57292 -0.43252 0
M  V30 3442 C 330.448 4.07688 -1.85727 0
M  V30 3443 C 332.192 4.24485 -0.0359507 0
M  V30 3444 C 330.099 5.5765 -1.96928 0
M  V30 3445 H 329.029 0.747689 -0.0973472 0
M  V30 3446 H 331.68 1.59837 -0.901355 0
M  V30 3447 H 330.062 3.95097 0.267219 0
M  V30 3448 H 331.236 3.81231 -2.58843 0
M  V30 3449 H 329.551 3.53135 -2.20646 0
M  V30 3450 H 332.148 5.34609 -0.0987484 0
M  V30 3451 H 332.491 4.03915 1.00787 0
M  V30 3452 H 333.024 3.9183 -0.686604 0
M  V30 3453 H 329.763 5.8309 -2.99476 0
M  V30 3454 H 329.283 5.8593 -1.28241 0
M  V30 3455 H 330.962 6.22957 -1.74737 0
M  V30 3456 N 331.094 0.475555 1.50254 0
M  V30 3457 C 332.322 -0.0754493 2.06762 0
M  V30 3458 C 332.737 -1.33111 1.33891 0
M  V30 3459 O 332.094 -1.77846 0.40952 0
M  V30 3460 C 332.145 -0.359008 3.59713 0
M  V30 3461 O 331.866 0.846851 4.29837 0
M  V30 3462 C 333.367 -0.956484 4.32858 0
M  V30 3463 H 330.587 0.00907525 0.670939 0
M  V30 3464 H 333.131 0.665618 1.93364 0
M  V30 3465 H 331.286 -1.05001 3.72899 0
M  V30 3466 H 331.7 0.594162 5.21124 0
M  V30 3467 H 333.174 -1.10463 5.40834 0
M  V30 3468 H 333.651 -1.94775 3.93649 0
M  V30 3469 H 334.257 -0.303723 4.24214 0
M  V30 3470 N 332.573 -1.56217 0.208337 0
M  V30 3471 C 333.821 -1.97558 -0.426076 0
M  V30 3472 C 334.142 -1.09683 -1.61229 0
M  V30 3473 O 333.412 -0.170956 -1.95153 0
M  V30 3474 H 331.992 -0.729575 -0.160405 0
M  V30 3475 H 334.654 -1.92606 0.298155 0
M  V30 3476 H 333.75 -3.02672 -0.761312 0
M  V30 3477 N 334.051 0.0651679 -1.57465 0
M  V30 3478 C 334.999 1.09542 -2.05191 0
M  V30 3479 C 335.993 1.39675 -0.958509 0
M  V30 3480 O 337.199 1.39003 -1.14359 0
M  V30 3481 H 333.574 0.370623 -0.654326 0
M  V30 3482 H 335.545 0.666802 -2.90854 0
M  V30 3483 C 334.294 2.39881 -2.51699 0
M  V30 3484 H 333.617 2.17547 -3.3543 0
M  V30 3485 H 335.057 3.104 -2.88839 0
M  V30 3486 C 333.516 3.0631 -1.40271 0
M  V30 3487 O 334.046 3.94664 -0.748523 0
M  V30 3488 N 332.252 2.67041 -1.14618 0
M  V30 3489 H 331.799 1.95281 -1.67997 0
M  V30 3490 H 331.757 3.1181 -0.402688 0
M  V30 3491 N 335.529 1.53961 0.336706 0
M  V30 3492 C 336.439 1.85432 1.43708 0
M  V30 3493 C 337.455 0.745053 1.57242 0
M  V30 3494 O 338.631 1.03804 1.72588 0
M  V30 3495 C 335.696 2.06349 2.78605 0
M  V30 3496 C 334.757 3.30191 2.74358 0
M  V30 3497 C 333.99 3.50101 4.02822 0
M  V30 3498 O 334.213 2.7371 5.00439 0
M  V30 3499 O 333.147 4.43547 4.06878 0
M  V30 3500 H 336.973 2.78975 1.20028 0
M  V30 3501 H 334.558 1.39701 0.52952 0
M  V30 3502 H 336.44 2.21513 3.58483 0
M  V30 3503 H 335.115 1.15995 3.02203 0
M  V30 3504 H 334.022 3.20425 1.93078 0
M  V30 3505 H 335.355 4.2056 2.55715 0
M  V30 3506 N 337.007 -0.598083 1.45811 0
M  V30 3507 C 337.937 -1.71873 1.58057 0
M  V30 3508 C 338.918 -1.64533 0.431615 0
M  V30 3509 O 340.103 -1.82787 0.65595 0
M  V30 3510 C 337.233 -3.10495 1.55597 0
M  V30 3511 C 336.187 -3.32654 2.69305 0
M  V30 3512 C 335.513 -4.71646 2.51902 0
M  V30 3513 C 336.813 -3.21981 4.11248 0
M  V30 3514 H 338.507 -1.61881 2.51863 0
M  V30 3515 H 336.053 -0.777372 1.21214 0
M  V30 3516 H 338.006 -3.88699 1.6276 0
M  V30 3517 H 336.73 -3.2135 0.583255 0
M  V30 3518 H 335.389 -2.56843 2.61586 0
M  V30 3519 H 335.037 -4.79246 1.52748 0
M  V30 3520 H 334.737 -4.87426 3.2816 0
M  V30 3521 H 336.261 -5.52038 2.60933 0
M  V30 3522 H 337.675 -3.90049 4.20161 0
M  V30 3523 H 336.072 -3.49289 4.87972 0
M  V30 3524 H 337.142 -2.1928 4.32486 0
M  V30 3525 N 338.485 -1.33259 -0.841409 0
M  V30 3526 C 339.715 -1.2742 -1.62628 0
M  V30 3527 C 340.123 0.157604 -1.88542 0
M  V30 3528 O 339.466 1.10938 -1.46419 0
M  V30 3529 C 339.528 -1.97797 -3.00194 0
M  V30 3530 C 339.192 -3.47109 -2.97261 0
M  V30 3531 C 340.189 -4.42358 -2.73159 0
M  V30 3532 C 337.874 -3.89247 -3.17478 0
M  V30 3533 C 339.868 -5.77718 -2.69296 0
M  V30 3534 C 337.555 -5.24713 -3.13241 0
M  V30 3535 C 338.553 -6.1876 -2.89181 0
M  V30 3536 O 338.241 -7.51745 -2.84843 0
M  V30 3537 H 337.973 -0.440436 -0.512827 0
M  V30 3538 H 340.527 -1.76153 -1.05638 0
M  V30 3539 H 338.757 -1.43652 -3.59028 0
M  V30 3540 H 340.446 -1.8549 -3.61038 0
M  V30 3541 H 341.212 -4.11127 -2.57294 0
M  V30 3542 H 337.091 -3.16456 -3.35226 0
M  V30 3543 H 340.635 -6.51097 -2.50436 0
M  V30 3544 H 336.532 -5.55569 -3.28654 0
M  V30 3545 H 337.3 -7.61262 -3.00702 0
M  V30 3546 N 339.963 1.05934 -1.16686 0
M  V30 3547 C 341.24 1.75643 -0.860747 0
M  V30 3548 C 341.62 2.01144 0.640641 0
M  V30 3549 O 340.968 1.64147 1.58959 0
M  V30 3550 C 341.178 3.05493 -1.68745 0
M  V30 3551 C 342.526 3.79581 -1.90271 0
M  V30 3552 O 343.55 3.15344 -1.65641 0
M  V30 3553 O 342.409 4.9499 -2.31618 0
M  V30 3554 H 339.503 0.763426 -0.317977 0
M  V30 3555 H 342.049 1.1217 -1.27342 0
M  V30 3556 H 340.821 2.8264 -2.70611 0
M  V30 3557 H 340.444 3.76702 -1.27206 0
M  V30 3558 N 341.441 0.965919 1.2453 0
M  V30 3559 C 342.69 0.622437 1.91856 0
M  V30 3560 C 343.003 -0.846006 1.76358 0
M  V30 3561 O 344.209 -1.29993 2.38357 0
M  V30 3562 C 342.665 1.0626 3.43856 0
M  V30 3563 C 342.273 2.55437 3.68043 0
M  V30 3564 C 344.017 0.792183 4.17043 0
M  V30 3565 C 341.924 2.93196 5.13605 0
M  V30 3566 H 340.854 0.229092 0.718354 0
M  V30 3567 H 343.505 1.17189 1.41206 0
M  V30 3568 H 341.887 0.441476 3.93531 0
M  V30 3569 H 343.061 3.22665 3.28974 0
M  V30 3570 H 341.376 2.8007 3.08139 0
M  V30 3571 H 343.973 1.05031 5.24283 0
M  V30 3572 H 344.316 -0.271584 4.15413 0
M  V30 3573 H 344.849 1.37419 3.73311 0
M  V30 3574 H 341.588 3.98636 5.20355 0
M  V30 3575 H 341.108 2.30651 5.53679 0
M  V30 3576 H 342.787 2.83004 5.81823 0
M  V30 3577 N 342.919 -1.39368 0.735821 0
M  V30 3578 C 343.851 -2.2913 0.0567723 0
M  V30 3579 C 344.864 -1.46859 -0.702589 0
M  V30 3580 O 346.053 -1.69925 -0.546616 0
M  V30 3581 C 343.153 -3.25492 -0.943823 0
M  V30 3582 C 342.326 -4.36709 -0.24581 0
M  V30 3583 C 341.385 -5.13376 -1.15463 0
M  V30 3584 O 340.411 -5.65683 -0.631803 0
M  V30 3585 N 341.613 -5.24656 -2.48427 0
M  V30 3586 H 344.378 -2.88047 0.827582 0
M  V30 3587 H 341.939 -1.50957 0.585112 0
M  V30 3588 H 343.931 -3.73657 -1.55443 0
M  V30 3589 H 342.501 -2.676 -1.61583 0
M  V30 3590 H 341.721 -3.9041 0.545286 0
M  V30 3591 H 343.009 -5.08244 0.237891 0
M  V30 3592 H 342.407 -4.83679 -2.93379 0
M  V30 3593 H 340.964 -5.76258 -3.04582 0
M  V30 3594 N 344.397 -0.483516 -1.5 0
M  V30 3595 C 345.327 0.293829 -2.31644 0
M  V30 3596 C 346.308 0.978864 -1.39112 0
M  V30 3597 O 347.493 0.973644 -1.68029 0
M  V30 3598 C 344.623 1.36897 -3.19181 0
M  V30 3599 C 343.577 0.804833 -4.20365 0
M  V30 3600 C 342.903 1.9792 -4.96721 0
M  V30 3601 C 344.203 -0.192313 -5.21946 0
M  V30 3602 H 345.897 -0.387616 -2.9688 0
M  V30 3603 H 343.443 -0.187856 -1.42769 0
M  V30 3604 H 345.396 1.92037 -3.751 0
M  V30 3605 H 344.12 2.07936 -2.51853 0
M  V30 3606 H 342.779 0.275319 -3.65565 0
M  V30 3607 H 342.427 2.67686 -4.25856 0
M  V30 3608 H 342.127 1.60789 -5.65173 0
M  V30 3609 H 343.651 2.53526 -5.55479 0
M  V30 3610 H 345.065 0.270333 -5.72662 0
M  V30 3611 H 343.462 -0.478543 -5.98189 0
M  V30 3612 H 344.532 -1.11409 -4.71928 0
M  V30 3613 N 345.875 1.56104 -0.216619 0
M  V30 3614 C 346.805 2.23063 0.690296 0
M  V30 3615 C 347.786 1.20072 1.20485 0
M  V30 3616 O 348.971 1.48643 1.24976 0
M  V30 3617 C 346.101 2.90672 1.90072 0
M  V30 3618 C 345.055 4.00092 1.5202 0
M  V30 3619 C 344.381 4.54972 2.80899 0
M  V30 3620 C 345.681 5.17398 0.71391 0
M  V30 3621 H 347.375 2.99109 0.132038 0
M  V30 3622 H 344.921 1.43866 0.0620664 0
M  V30 3623 H 346.874 3.36204 2.54057 0
M  V30 3624 H 345.598 2.12066 2.48386 0
M  V30 3625 H 344.257 3.55283 0.903839 0
M  V30 3626 H 343.905 3.73102 3.37348 0
M  V30 3627 H 343.605 5.28817 2.56176 0
M  V30 3628 H 345.129 5.0322 3.45836 0
M  V30 3629 H 346.543 5.59342 1.25735 0
M  V30 3630 H 344.94 5.97444 0.563951 0
M  V30 3631 H 346.01 4.84088 -0.280527 0
M  V30 3632 N 347.353 -0.0568162 1.57498 0
M  V30 3633 C 348.764 -0.606858 1.76562 0
M  V30 3634 C 349.115 -1.77114 0.844094 0
M  V30 3635 O 348.24 -2.16376 0.0318911 0
M  V30 3636 C 348.835 -1.10766 3.20182 0
M  V30 3637 C 347.394 -1.60344 3.40539 0
M  V30 3638 C 346.541 -0.529311 2.72201 0
M  V30 3639 H 349.492 0.169393 1.57793 0
M  V30 3640 H 349.513 -1.97602 3.25167 0
M  V30 3641 H 349.025 -0.26006 3.87228 0
M  V30 3642 H 347.126 -2.47379 2.78629 0
M  V30 3643 H 347.239 -1.67006 4.4905 0
M  V30 3644 H 345.603 -0.977893 2.35179 0
M  V30 3645 H 346.386 0.308352 3.41912 0
M  V30 3646 N 348.832 -1.54138 -0.328536 0
M  V30 3647 C 350.248 -1.44736 -0.672574 0
M  V30 3648 C 350.448 -0.616217 -1.91846 0
M  V30 3649 O 349.504 -0.113067 -2.52247 0
M  V30 3650 C 350.817 -2.884 -0.851217 0
M  V30 3651 C 352.365 -2.98271 -0.948877 0
M  V30 3652 C 352.84 -4.43074 -1.15973 0
M  V30 3653 N 354.331 -4.46665 -1.22658 0
M  V30 3654 C 355.066 -5.55857 -1.40751 0
M  V30 3655 N 354.562 -6.75026 -1.5592 0
M  V30 3656 N 356.355 -5.43495 -1.4342 0
M  V30 3657 H 348.506 -2.06661 0.490421 0
M  V30 3658 H 350.769 -0.934812 0.157579 0
M  V30 3659 H 350.475 -3.51699 -0.00704236 0
M  V30 3660 H 350.349 -3.34225 -1.74853 0
M  V30 3661 H 352.736 -2.35102 -1.78356 0
M  V30 3662 H 352.817 -2.55785 -0.0281435 0
M  V30 3663 H 352.461 -5.06827 -0.329915 0
M  V30 3664 H 352.391 -4.83165 -2.09426 0
M  V30 3665 H 354.882 -3.60797 -1.124 0
M  V30 3666 H 355.195 -7.54004 -1.69404 0
M  V30 3667 H 353.54 -6.77944 -1.53027 0
M  V30 3668 H 356.731 -4.49349 -1.31162 0
M  V30 3669 H 356.904 -6.28649 -1.57178 0
M  V30 3670 N 350.31 0.590341 -1.46126 0
M  V30 3671 C 351.257 1.69994 -1.56111 0
M  V30 3672 C 352.227 1.61065 -0.405867 0
M  V30 3673 O 353.412 1.8039 -0.621613 0
M  V30 3674 C 350.552 3.08326 -1.55013 0
M  V30 3675 C 349.665 3.27936 -2.81215 0
M  V30 3676 C 348.8 4.56473 -2.71673 0
M  V30 3677 C 347.839 4.694 -3.92849 0
M  V30 3678 N 346.976 5.89254 -3.81738 0
M  V30 3679 H 351.816 1.60797 -2.50895 0
M  V30 3680 H 349.353 0.783799 -1.24479 0
M  V30 3681 H 351.311 3.88383 -1.52362 0
M  V30 3682 H 349.941 3.16439 -0.637667 0
M  V30 3683 H 348.993 2.41536 -2.93879 0
M  V30 3684 H 350.305 3.33357 -3.71045 0
M  V30 3685 H 349.459 5.44748 -2.67085 0
M  V30 3686 H 348.198 4.53477 -1.7947 0
M  V30 3687 H 347.203 3.79544 -3.97777 0
M  V30 3688 H 348.428 4.7418 -4.86138 0
M  V30 3689 H 346.374 5.87271 -2.92317 0
M  V30 3690 H 346.291 5.95911 -4.65217 0
M  V30 3691 H 347.559 6.79981 -3.81112 0
M  V30 3692 N 351.788 1.33704 0.83433 0
M  V30 3693 C 353.013 1.28615 1.62705 0
M  V30 3694 C 353.438 -0.139242 1.87584 0
M  V30 3695 O 352.796 -1.09734 1.4432 0
M  V30 3696 C 352.844 2.07139 2.95171 0
M  V30 3697 O 351.948 1.4331 3.86699 0
M  V30 3698 H 351.289 0.44226 0.49528 0
M  V30 3699 H 353.819 1.76335 1.03766 0
M  V30 3700 H 353.829 2.18073 3.44831 0
M  V30 3701 H 352.504 3.10779 2.76386 0
M  V30 3702 H 351.081 1.4105 3.45195 0
M  V30 3703 N 353.266 -1.05314 1.17247 0
M  V30 3704 C 354.196 -2.1498 0.911362 0
M  V30 3705 C 355.177 -1.69471 -0.146169 0
M  V30 3706 O 356.362 -1.942 0.003812 0
M  V30 3707 C 353.492 -3.4472 0.422528 0
M  V30 3708 C 352.446 -4.03789 1.4191 0
M  V30 3709 C 351.772 -5.28858 0.788274 0
M  V30 3710 C 353.072 -4.41418 2.7919 0
M  V30 3711 H 354.766 -2.3708 1.82848 0
M  V30 3712 H 352.312 -1.13938 0.880569 0
M  V30 3713 H 354.265 -4.20787 0.227289 0
M  V30 3714 H 352.989 -3.22269 -0.530123 0
M  V30 3715 H 351.648 -3.2979 1.60106 0
M  V30 3716 H 351.296 -5.02709 -0.171173 0
M  V30 3717 H 350.996 -5.69338 1.45353 0
M  V30 3718 H 352.52 -6.07612 0.603282 0
M  V30 3719 H 353.934 -5.08524 2.64719 0
M  V30 3720 H 352.331 -4.92913 3.42282 0
M  V30 3721 H 353.401 -3.51819 3.33693 0
M  V30 3722 N 354.744 -0.972509 -1.24016 0
M  V30 3723 C 355.654 -0.5143 -2.28893 0
M  V30 3724 C 356.67 0.427078 -1.68677 0
M  V30 3725 O 357.846 0.298939 -1.99169 0
M  V30 3726 C 354.911 0.183598 -3.46214 0
M  V30 3727 C 353.972 -0.798202 -4.21814 0
M  V30 3728 C 353.205 -0.133514 -5.33533 0
M  V30 3729 O 353.428 1.07714 -5.60137 0
M  V30 3730 O 352.362 -0.828103 -5.96176 0
M  V30 3731 H 356.188 -1.38629 -2.70214 0
M  V30 3732 H 353.773 -0.739769 -1.29799 0
M  V30 3733 H 355.655 0.575433 -4.17453 0
M  V30 3734 H 354.33 1.03048 -3.0686 0
M  V30 3735 H 353.237 -1.24059 -3.52931 0
M  V30 3736 H 354.57 -1.61364 -4.64997 0
M  V30 3737 N 356.222 1.38976 -0.743202 0
M  V30 3738 C 357.152 2.33171 -0.123873 0
M  V30 3739 C 358.133 1.54336 0.71516 0
M  V30 3740 O 359.318 1.82696 0.658467 0
M  V30 3741 C 356.448 3.38474 0.777978 0
M  V30 3742 C 355.402 4.27979 0.0424758 0
M  V30 3743 C 354.728 5.2405 1.06189 0
M  V30 3744 C 356.028 5.10155 -1.1198 0
M  V30 3745 H 357.722 2.85213 -0.910709 0
M  V30 3746 H 355.268 1.37133 -0.439388 0
M  V30 3747 H 357.221 4.03328 1.22084 0
M  V30 3748 H 355.945 2.84891 1.59702 0
M  V30 3749 H 354.604 3.64616 -0.380853 0
M  V30 3750 H 354.252 4.66758 1.87472 0
M  V30 3751 H 353.952 5.84785 0.574485 0
M  V30 3752 H 355.476 5.9178 1.50428 0
M  V30 3753 H 356.89 5.68307 -0.75499 0
M  V30 3754 H 355.287 5.80073 -1.53738 0
M  V30 3755 H 356.357 4.44504 -1.93764 0
M  V30 3756 N 357.7 0.491464 1.49741 0
M  V30 3757 C 358.63 -0.28154 2.31796 0
M  V30 3758 C 359.611 -0.971473 1.3963 0
M  V30 3759 O 360.796 -0.964719 1.68543 0
M  V30 3760 C 357.926 -1.35203 3.19902 0
M  V30 3761 C 356.88 -0.782529 4.20786 0
M  V30 3762 C 356.206 -1.95283 4.97764 0
M  V30 3763 C 357.506 0.21999 5.21837 0
M  V30 3764 H 359.2 0.403355 2.96671 0
M  V30 3765 H 356.746 0.195425 1.42668 0
M  V30 3766 H 358.699 -1.90045 3.76113 0
M  V30 3767 H 357.423 -2.06598 2.52953 0
M  V30 3768 H 356.082 -0.255928 3.65706 0
M  V30 3769 H 355.73 -2.65423 4.2727 0
M  V30 3770 H 355.43 -1.57789 5.66018 0
M  V30 3771 H 356.954 -2.50577 5.56816 0
M  V30 3772 H 358.368 -0.23996 5.72798 0
M  V30 3773 H 356.765 0.51026 5.97927 0
M  V30 3774 H 357.835 1.13911 4.7133 0
M  V30 3775 N 359.178 -1.55987 0.224894 0
M  V30 3776 C 360.424 -1.98684 -0.406502 0
M  V30 3777 C 360.757 -1.11248 -1.59177 0
M  V30 3778 O 360.032 -0.170909 -1.93748 0
M  V30 3779 C 360.315 -3.50218 -0.837808 0
M  V30 3780 C 360.168 -4.48426 0.351332 0
M  V30 3781 C 361.487 -4.06243 -1.69278 0
M  V30 3782 H 358.606 -0.722337 -0.146283 0
M  V30 3783 H 361.248 -1.87255 0.321799 0
M  V30 3784 H 359.398 -3.60089 -1.45837 0
M  V30 3785 H 361.07 -4.50562 0.989526 0
M  V30 3786 H 359.313 -4.22159 0.998207 0
M  V30 3787 H 359.984 -5.52 0.00655905 0
M  V30 3788 H 362.46 -3.99337 -1.16914 0
M  V30 3789 H 361.336 -5.12581 -1.96346 0
M  V30 3790 H 361.597 -3.53332 -2.65723 0
M  V30 3791 N 360.656 0.0484629 -1.57525 0
M  V30 3792 C 361.904 0.741657 -1.88 0
M  V30 3793 C 362.225 1.76918 -0.820054 0
M  V30 3794 O 361.495 1.95335 0.148661 0
M  V30 3795 H 360.075 0.276908 -0.69378 0
M  V30 3796 H 362.737 0.019013 -1.94891 0
M  V30 3797 H 361.833 1.24336 -2.86264 0
M  V30 3798 N 362.134 1.5431 0.320358 0
M  V30 3799 C 363.044 1.86946 1.41734 0
M  V30 3800 C 364.06 0.761689 1.56443 0
M  V30 3801 O 365.236 1.05629 1.71477 0
M  V30 3802 C 362.301 2.09293 2.76401 0
M  V30 3803 C 361.362 3.33082 2.70841 0
M  V30 3804 C 360.595 3.54353 3.99086 0
M  V30 3805 O 360.818 2.79002 4.97508 0
M  V30 3806 O 359.752 4.47838 4.0215 0
M  V30 3807 H 363.578 2.80232 1.17062 0
M  V30 3808 H 361.163 1.40255 0.514673 0
M  V30 3809 H 363.045 2.25303 3.56113 0
M  V30 3810 H 361.72 1.19194 3.00956 0
M  V30 3811 H 360.627 3.22454 1.89668 0
M  V30 3812 H 361.96 4.23249 2.5124 0
M  V30 3813 N 363.613 -0.582584 1.46437 0
M  V30 3814 C 364.56 -1.69164 1.5701 0
M  V30 3815 C 365.53 -1.60847 0.414403 0
M  V30 3816 O 366.715 -1.80058 0.631171 0
M  V30 3817 C 363.855 -3.075 1.56646 0
M  V30 3818 C 362.968 -3.2644 2.82951 0
M  V30 3819 C 362.103 -4.55026 2.7409 0
M  V30 3820 C 361.142 -4.6731 3.95333 0
M  V30 3821 N 360.279 -5.87221 3.84858 0
M  V30 3822 H 365.119 -1.59464 2.51744 0
M  V30 3823 H 362.656 -0.777186 1.24893 0
M  V30 3824 H 364.614 -3.8757 1.5442 0
M  V30 3825 H 363.244 -3.16096 0.654439 0
M  V30 3826 H 362.296 -2.39974 2.95155 0
M  V30 3827 H 363.608 -3.31385 3.72808 0
M  V30 3828 H 362.762 -5.43324 2.6997 0
M  V30 3829 H 361.501 -4.52519 1.81873 0
M  V30 3830 H 360.506 -3.77429 3.99784 0
M  V30 3831 H 361.731 -4.71595 4.88646 0
M  V30 3832 H 359.677 -5.85712 2.95427 0
M  V30 3833 H 359.594 -5.93435 4.6837 0
M  V30 3834 H 360.862 -6.7795 3.84713 0
M  V30 3835 N 365.091 -1.34144 -0.827227 0
M  V30 3836 C 366.021 -1.28005 -1.95287 0
M  V30 3837 C 367.002 -0.158321 -1.69362 0
M  V30 3838 O 368.187 -0.349987 -1.9102 0
M  V30 3839 C 365.317 -1.03036 -3.31664 0
M  V30 3840 C 364.271 -2.11628 -3.72019 0
M  V30 3841 C 363.597 -1.71854 -5.0633 0
M  V30 3842 C 364.897 -3.53417 -3.8457 0
M  V30 3843 H 366.591 -2.22187 -2.00682 0
M  V30 3844 H 364.137 -1.0696 -0.964135 0
M  V30 3845 H 366.09 -0.973863 -4.09993 0
M  V30 3846 H 364.814 -0.0529391 -3.26557 0
M  V30 3847 H 363.473 -2.16339 -2.95961 0
M  V30 3848 H 363.121 -0.727841 -4.97706 0
M  V30 3849 H 362.821 -2.44531 -5.34302 0
M  V30 3850 H 364.345 -1.67692 -5.87122 0
M  V30 3851 H 365.759 -3.51142 -4.5318 0
M  V30 3852 H 364.156 -4.24679 -4.2399 0
M  V30 3853 H 365.226 -3.91072 -2.86689 0
M  V30 3854 N 366.569 1.04691 -1.17803 0
M  V30 3855 C 367.815 1.78045 -0.970969 0
M  V30 3856 C 368.148 1.87686 0.498751 0
M  V30 3857 O 367.423 1.38035 1.37027 0
M  V30 3858 C 367.706 3.2166 -1.61884 0
M  V30 3859 C 367.559 3.20001 -3.161 0
M  V30 3860 C 368.878 4.1962 -1.3269 0
M  V30 3861 H 365.997 0.64633 -0.354155 0
M  V30 3862 H 368.639 1.22333 -1.45378 0
M  V30 3863 H 366.789 3.69232 -1.20831 0
M  V30 3864 H 368.461 2.80467 -3.66246 0
M  V30 3865 H 366.704 2.58203 -3.48588 0
M  V30 3866 H 367.375 4.21386 -3.56564 0
M  V30 3867 H 369.851 3.80567 -1.68249 0
M  V30 3868 H 368.727 5.18339 -1.80599 0
M  V30 3869 H 368.988 4.414 -0.248622 0
M  V30 3870 N 368.047 0.979072 1.23499 0
M  V30 3871 C 368.977 0.537606 2.27227 0
M  V30 3872 C 369.958 -0.428539 1.64613 0
M  V30 3873 O 371.143 -0.322191 1.91509 0
M  V30 3874 C 368.273 -0.162052 3.46922 0
M  V30 3875 C 367.227 0.721242 4.21879 0
M  V30 3876 C 366.553 -0.110555 5.34586 0
M  V30 3877 C 367.853 2.01141 4.82016 0
M  V30 3878 H 369.547 1.40462 2.64406 0
M  V30 3879 H 367.093 0.67684 1.27102 0
M  V30 3880 H 369.046 -0.482192 4.18632 0
M  V30 3881 H 367.77 -1.06351 3.08799 0
M  V30 3882 H 366.429 1.02482 3.51984 0
M  V30 3883 H 366.077 -1.0125 4.92704 0
M  V30 3884 H 365.777 0.477325 5.85658 0
M  V30 3885 H 367.301 -0.425107 6.09118 0
M  V30 3886 H 368.715 1.75612 5.45741 0
M  V30 3887 H 367.112 2.54695 5.43369 0
M  V30 3888 H 368.182 2.69909 4.02836 0
M  V30 3889 N 369.525 -1.3858 0.750561 0
M  V30 3890 C 370.473 -2.32339 0.110162 0
M  V30 3891 C 371.467 -1.53864 -0.708674 0
M  V30 3892 O 372.673 -1.69417 -0.608112 0
M  V30 3893 H 369.048 -0.751812 0.0168275 0
M  V30 3894 H 371.019 -2.83959 0.917053 0
M  V30 3895 C 369.768 -3.39043 -0.771067 0
M  V30 3896 H 369.091 -3.99517 -0.150374 0
M  V30 3897 H 370.531 -4.07061 -1.1865 0
M  V30 3898 C 368.99 -2.77365 -1.91234 0
M  V30 3899 O 369.52 -2.66434 -3.00626 0
M  V30 3900 N 367.726 -2.35219 -1.70646 0
M  V30 3901 H 367.273 -2.4431 -0.81673 0
M  V30 3902 H 367.231 -1.94294 -2.47178 0
M  V30 3903 N 371.003 -0.499398 -1.49478 0
M  V30 3904 C 372.243 0.0440751 -2.04352 0
M  V30 3905 C 372.607 1.34423 -1.37093 0
M  V30 3906 O 373.808 1.97184 -1.82679 0
M  V30 3907 C 372.079 0.194918 -3.56868 0
M  V30 3908 S 373.638 0.69287 -4.33295 0
M  V30 3909 H 370.456 0.00253458 -0.710995 0
M  V30 3910 H 373.058 -0.673 -1.83551 0
M  V30 3911 H 371.762 -0.756672 -4.03364 0
M  V30 3912 H 371.293 0.93728 -3.82071 0
M  V30 3913 H 373.308 1.96226 -4.55752 0
M  V30 3914 N 372.481 1.55866 -0.233164 0
M  V30 3915 C 373.709 2.02998 0.399905 0
M  V30 3916 C 374.124 1.11274 1.52524 0
M  V30 3917 O 373.481 0.124528 1.82075 0
M  V30 3918 C 373.532 3.4958 0.920639 0
M  V30 3919 O 373.253 4.37808 -0.159834 0
M  V30 3920 C 374.754 4.12411 1.62578 0
M  V30 3921 H 371.974 0.664006 0.0966281 0
M  V30 3922 H 374.518 2.0143 -0.353013 0
M  V30 3923 H 372.673 3.51727 1.62379 0
M  V30 3924 H 373.087 5.23981 0.23337 0
M  V30 3925 H 374.561 5.16711 1.94201 0
M  V30 3926 H 375.038 3.5809 2.54299 0
M  V30 3927 H 375.644 4.14148 0.967553 0
M  V30 3928 N 373.959 -0.0401083 1.57549 0
M  V30 3929 C 375.205 -0.734211 1.89043 0
M  V30 3930 C 375.538 -1.75591 0.829535 0
M  V30 3931 O 374.813 -1.93868 -0.156706 0
M  V30 3932 C 375.096 -1.41374 3.31188 0
M  V30 3933 C 374.949 -0.406299 4.47961 0
M  V30 3934 C 376.268 -2.35061 3.72068 0
M  V30 3935 H 373.387 -0.265447 0.687537 0
M  V30 3936 H 376.029 0.00294087 1.9 0
M  V30 3937 H 374.179 -2.04206 3.30503 0
M  V30 3938 H 375.851 0.219255 4.60779 0
M  V30 3939 H 374.094 0.275485 4.32924 0
M  V30 3940 H 374.765 -0.920022 5.44279 0
M  V30 3941 H 377.241 -1.82282 3.74049 0
M  V30 3942 H 376.117 -2.79593 4.72355 0
M  V30 3943 H 376.378 -3.21258 3.0372 0
M  V30 3944 N 375.437 -1.54477 -0.31217 0
M  V30 3945 C 376.683 -1.74417 -1.04644 0
M  V30 3946 C 377.038 -0.517641 -1.85306 0
M  V30 3947 O 376.331 0.489973 -1.85229 0
M  V30 3948 C 376.525 -2.967 -1.99258 0
M  V30 3949 C 376.354 -4.31128 -1.27901 0
M  V30 3950 C 375.124 -4.95087 -1.01079 0
M  V30 3951 C 377.322 -5.09662 -0.689119 0
M  V30 3952 N 375.304 -6.13322 -0.266323 0
M  V30 3953 C 376.675 -6.19952 -0.0768523 0
M  V30 3954 C 378.73 -4.94355 -0.593061 0
M  V30 3955 C 377.433 -7.16604 0.622165 0
M  V30 3956 C 379.459 -5.91328 0.0922792 0
M  V30 3957 C 378.821 -7.00978 0.693443 0
M  V30 3958 H 374.92 -0.69094 -0.366231 0
M  V30 3959 H 377.504 -1.91946 -0.326319 0
M  V30 3960 H 375.675 -2.80616 -2.68532 0
M  V30 3961 H 377.407 -3.05216 -2.65755 0
M  V30 3962 H 374.162 -4.55235 -1.30607 0
M  V30 3963 H 374.586 -6.76937 0.0920973 0
M  V30 3964 H 379.228 -4.09719 -1.04355 0
M  V30 3965 H 376.946 -8.0079 1.08445 0
M  V30 3966 H 380.532 -5.81562 0.166396 0
M  V30 3967 H 379.412 -7.74725 1.21533 0
M  V30 3968 N 376.915 0.57481 -1.46744 0
M  V30 3969 C 377.878 1.66533 -1.57478 0
M  V30 3970 C 378.878 1.54338 -0.451263 0
M  V30 3971 O 380.068 1.58814 -0.715813 0
M  V30 3972 C 377.2 3.05999 -1.50259 0
M  V30 3973 H 378.393 1.58372 -2.54673 0
M  V30 3974 H 375.946 0.793301 -1.34672 0
M  V30 3975 H 376.681 3.19709 -0.543725 0
M  V30 3976 H 376.466 3.16259 -2.31781 0
M  V30 3977 H 377.956 3.8537 -1.60872 0
M  V30 3978 N 378.394 1.34581 0.820102 0
M  V30 3979 C 379.304 1.28471 1.96297 0
M  V30 3980 C 380.32 0.191902 1.72939 0
M  V30 3981 O 381.496 0.418879 1.96996 0
M  V30 3982 C 378.561 1.04281 3.30645 0
M  V30 3983 C 377.622 2.22745 3.66992 0
M  V30 3984 C 376.855 1.997 4.9493 0
M  V30 3985 O 377.078 0.956656 5.6232 0
M  V30 3986 O 376.012 2.86723 5.2922 0
M  V30 3987 H 379.838 2.24624 2.04396 0
M  V30 3988 H 377.423 1.14816 0.955913 0
M  V30 3989 H 379.305 0.925841 4.11104 0
M  V30 3990 H 377.98 0.111697 3.23507 0
M  V30 3991 H 376.887 2.40003 2.86966 0
M  V30 3992 H 378.22 3.14257 3.78819 0
M  V30 3993 N 379.872 -1.04064 1.18357 0
M  V30 3994 C 381.119 -1.77265 0.978947 0
M  V30 3995 C 381.447 -1.88189 -0.491428 0
M  V30 3996 O 380.702 -1.38653 -1.38108 0
M  V30 3997 C 381.001 -3.20634 1.57888 0
M  V30 3998 C 380.667 -3.29743 3.07539 0
M  V30 3999 C 379.329 -3.31937 3.48384 0
M  V30 4000 C 381.681 -3.29841 4.03552 0
M  V30 4001 C 379.009 -3.3187 4.83818 0
M  V30 4002 C 381.361 -3.31313 5.38901 0
M  V30 4003 C 380.025 -3.31799 5.79194 0
M  V30 4004 H 379.295 -0.648659 0.358222 0
M  V30 4005 H 381.942 -1.22225 1.47422 0
M  V30 4006 H 380.247 -3.78675 1.00561 0
M  V30 4007 H 381.944 -3.75917 1.39598 0
M  V30 4008 H 378.534 -3.28757 2.74986 0
M  V30 4009 H 382.718 -3.27337 3.73047 0
M  V30 4010 H 377.974 -3.30562 5.14333 0
M  V30 4011 H 382.148 -3.30338 6.13066 0
M  V30 4012 H 379.775 -3.315 6.84114 0
M  V30 4013 N 381.35 -0.985608 -1.22978 0
M  V30 4014 C 382.298 -0.522631 -2.26652 0
M  V30 4015 C 383.292 0.422998 -1.64034 0
M  V30 4016 O 384.498 0.296319 -1.77544 0
M  V30 4017 H 380.873 -0.150597 -0.736766 0
M  V30 4018 H 382.844 -1.40863 -2.63059 0
M  V30 4019 C 381.593 0.154238 -3.47358 0
M  V30 4020 H 380.916 -0.564329 -3.95797 0
M  V30 4021 H 382.356 0.441744 -4.21693 0
M  V30 4022 C 380.815 1.38719 -3.07016 0
M  V30 4023 O 381.345 2.48307 -3.15764 0
M  V30 4024 N 379.551 1.25975 -2.61875 0
M  V30 4025 H 379.098 0.368068 -2.54957 0
M  V30 4026 H 379.056 2.08578 -2.3525 0
M  V30 4027 N 382.828 1.3818 -0.7579 0
M  V30 4028 C 384.053 2.04827 -0.325679 0
M  V30 4029 C 384.478 1.56788 1.03919 0
M  V30 4030 O 383.836 0.721811 1.66312 0
M  V30 4031 C 383.884 3.58774 -0.362447 0
M  V30 4032 O 382.988 4.07372 0.642033 0
M  V30 4033 H 382.329 0.64833 -0.143402 0
M  V30 4034 H 384.859 1.7677 -1.03023 0
M  V30 4035 H 384.869 4.07434 -0.214844 0
M  V30 4036 H 383.544 3.93096 -1.35824 0
M  V30 4037 H 382.121 3.70068 0.458688 0
M  V30 4038 N 384.306 0.507319 1.49211 0
M  V30 4039 C 385.554 -0.0348839 2.0207 0
M  V30 4040 C 385.875 -1.36898 1.38866 0
M  V30 4041 O 385.145 -1.88133 0.546151 0
M  V30 4042 H 383.725 -0.0158812 0.746831 0
M  V30 4043 H 386.387 0.665998 1.83168 0
M  V30 4044 H 385.483 -0.159917 3.1169 0
M  V30 4045 N 385.784 -1.5574 0.241426 0
M  V30 4046 C 387.03 -1.99104 -0.385406 0
M  V30 4047 C 387.363 -1.1293 -1.57988 0
M  V30 4048 O 386.638 -0.191449 -1.93555 0
M  V30 4049 C 386.921 -3.51087 -0.800616 0
M  V30 4050 C 386.774 -4.48028 0.398874 0
M  V30 4051 C 388.093 -4.08015 -1.64959 0
M  V30 4052 H 385.212 -0.723848 -0.138614 0
M  V30 4053 H 387.854 -1.86903 0.341642 0
M  V30 4054 H 386.004 -3.61615 -1.4201 0
M  V30 4055 H 387.676 -4.49487 1.03726 0
M  V30 4056 H 385.919 -4.21077 1.04293 0
M  V30 4057 H 386.59 -5.51962 0.0651056 0
M  V30 4058 H 389.066 -4.00555 -1.12672 0
M  V30 4059 H 387.942 -5.14635 -1.90898 0
M  V30 4060 H 388.203 -3.56131 -2.61961 0
M  V30 4061 N 387.262 0.0317525 -1.57568 0
M  V30 4062 C 388.49 0.734949 -1.93407 0
M  V30 4063 C 388.905 1.69036 -0.84096 0
M  V30 4064 O 388.262 1.81582 0.182836 0
M  V30 4065 C 388.313 1.49432 -3.29169 0
M  V30 4066 O 388.034 0.577261 -4.3428 0
M  V30 4067 C 389.535 2.29492 -3.79273 0
M  V30 4068 H 386.755 0.206706 -0.638368 0
M  V30 4069 H 389.299 -0.00992046 -2.04498 0
M  V30 4070 H 387.454 2.1911 -3.19483 0
M  V30 4071 H 387.868 1.10952 -5.1263 0
M  V30 4072 H 389.342 2.78172 -4.76785 0
M  V30 4073 H 389.819 3.10794 -3.10328 0
M  V30 4074 H 390.425 1.64894 -3.92033 0
M  V30 4075 N 388.74 1.54641 0.303973 0
M  V30 4076 C 389.987 1.7378 1.03955 0
M  V30 4077 C 390.315 0.521986 1.87365 0
M  V30 4078 O 389.57 -0.496099 1.89308 0
M  V30 4079 C 389.869 2.97753 1.97681 0
M  V30 4080 C 389.535 4.31671 1.30271 0
M  V30 4081 C 388.197 4.68075 1.11619 0
M  V30 4082 C 390.549 5.147 0.82055 0
M  V30 4083 C 387.877 5.8509 0.434304 0
M  V30 4084 C 390.229 6.32416 0.152395 0
M  V30 4085 C 388.893 6.67484 -0.0461067 0
M  V30 4086 H 388.163 0.635908 0.380398 0
M  V30 4087 H 390.81 1.88896 0.314718 0
M  V30 4088 H 389.115 2.77406 2.76682 0
M  V30 4089 H 390.812 3.09756 2.54661 0
M  V30 4090 H 387.402 4.03041 1.45795 0
M  V30 4091 H 391.586 4.87077 0.952374 0
M  V30 4092 H 386.842 6.10806 0.269495 0
M  V30 4093 H 391.016 6.96023 -0.229126 0
M  V30 4094 H 388.643 7.58011 -0.576494 0
M  V30 4095 N 390.218 -0.567019 1.47046 0
M  V30 4096 C 391.495 -1.3276 1.43646 0
M  V30 4097 C 391.875 -2.1071 0.128186 0
M  V30 4098 O 391.223 -2.10441 -0.890326 0
M  V30 4099 C 391.433 -2.2404 2.67595 0
M  V30 4100 C 392.781 -2.85372 3.14401 0
M  V30 4101 O 393.805 -2.34346 2.68254 0
M  V30 4102 O 392.664 -3.78091 3.946 0
M  V30 4103 H 389.758 -0.597293 0.571988 0
M  V30 4104 H 392.304 -0.586735 1.59234 0
M  V30 4105 H 391.076 -1.65975 3.54356 0
M  V30 4106 H 390.699 -3.05439 2.54544 0
M  V30 4107 N 391.696 -1.35014 -0.812953 0
M  V30 4108 C 392.942 -1.29129 -1.57154 0
M  V30 4109 C 393.297 0.134922 -1.91926 0
M  V30 4110 O 392.59 1.08373 -1.58006 0
M  V30 4111 C 392.784 -2.12524 -2.87347 0
M  V30 4112 C 392.613 -3.6311 -2.65294 0
M  V30 4113 C 391.383 -4.32363 -2.61516 0
M  V30 4114 C 393.581 -4.56897 -2.36114 0
M  V30 4115 N 391.563 -5.68735 -2.31113 0
M  V30 4116 C 392.934 -5.81345 -2.15494 0
M  V30 4117 C 394.989 -4.45706 -2.21925 0
M  V30 4118 C 393.692 -6.95862 -1.82122 0
M  V30 4119 C 395.718 -5.60066 -1.89948 0
M  V30 4120 C 395.08 -6.83539 -1.7016 0
M  V30 4121 H 391.179 -0.527764 -0.577052 0
M  V30 4122 H 393.763 -1.6983 -0.952146 0
M  V30 4123 H 391.934 -1.74104 -3.47192 0
M  V30 4124 H 393.666 -1.98207 -3.5284 0
M  V30 4125 H 390.421 -3.84907 -2.75941 0
M  V30 4126 H 390.845 -6.40694 -2.18724 0
M  V30 4127 H 395.487 -3.50855 -2.35925 0
M  V30 4128 H 393.205 -7.90685 -1.6686 0
M  V30 4129 H 396.791 -5.53357 -1.79687 0
M  V30 4130 H 395.671 -7.70531 -1.45777 0
M  V30 4131 N 393.175 1.03435 -1.18907 0
M  V30 4132 C 394.452 1.73778 -0.89781 0
M  V30 4133 C 394.832 2.02458 0.597832 0
M  V30 4134 O 394.18 1.67482 1.55441 0
M  V30 4135 C 394.39 3.01845 -1.75187 0
M  V30 4136 C 395.738 3.7546 -1.9828 0
M  V30 4137 O 396.762 3.11759 -1.72293 0
M  V30 4138 O 395.621 4.89966 -2.42065 0
M  V30 4139 H 392.715 0.75651 -0.334098 0
M  V30 4140 H 395.261 1.09444 -1.29693 0
M  V30 4141 H 394.033 2.76836 -2.76545 0
M  V30 4142 H 393.656 3.73919 -1.35167 0
M  V30 4143 N 394.653 0.992116 1.22453 0
M  V30 4144 C 395.883 0.684949 1.94915 0
M  V30 4145 C 396.291 -0.754292 1.73514 0
M  V30 4146 O 395.634 -1.52056 1.03076 0
M  V30 4147 C 395.696 0.910054 3.47791 0
M  V30 4148 C 395.36 2.33363 3.92926 0
M  V30 4149 C 396.357 3.31308 4.00663 0
M  V30 4150 C 394.042 2.66785 4.25595 0
M  V30 4151 C 396.036 4.6075 4.40441 0
M  V30 4152 C 393.723 3.96446 4.65053 0
M  V30 4153 C 394.721 4.9324 4.72444 0
M  V30 4154 O 394.409 6.20584 5.1101 0
M  V30 4155 H 394.141 0.25258 0.62704 0
M  V30 4156 H 396.695 1.32939 1.56577 0
M  V30 4157 H 394.925 0.208443 3.86138 0
M  V30 4158 H 396.614 0.598257 4.01467 0
M  V30 4159 H 397.38 3.0682 3.75615 0
M  V30 4160 H 393.259 1.92148 4.19047 0
M  V30 4161 H 396.803 5.363 4.46126 0
M  V30 4162 H 392.7 4.20724 4.89552 0
M  V30 4163 H 393.468 6.24509 5.29085 0
M  V30 4164 N 396.131 -1.37776 0.765217 0
M  V30 4165 C 397.542 -1.82521 0.392819 0
M  V30 4166 C 397.893 -1.63789 -1.08017 0
M  V30 4167 O 397.018 -1.14542 -1.83601 0
M  V30 4168 C 397.613 -3.31358 0.706214 0
M  V30 4169 C 396.172 -3.74406 0.386952 0
M  V30 4170 C 395.319 -2.60394 0.953422 0
M  V30 4171 H 398.27 -1.2634 0.960412 0
M  V30 4172 H 398.291 -3.80498 -0.0114706 0
M  V30 4173 H 397.803 -3.44959 1.77833 0
M  V30 4174 H 395.904 -3.66377 -0.678112 0
M  V30 4175 H 396.017 -4.70749 0.890636 0
M  V30 4176 H 394.381 -2.51878 0.378064 0
M  V30 4177 H 395.164 -2.76791 2.03081 0
M  V30 4178 N 397.609 -0.515225 -1.4894 0
M  V30 4179 C 398.857 0.0241671 -2.02086 0
M  V30 4180 C 399.178 1.3616 -1.3959 0
M  V30 4181 O 398.448 1.87841 -0.556121 0
M  V30 4182 H 397.028 0.0119203 -0.746905 0
M  V30 4183 H 399.69 -0.675702 -1.82812 0
M  V30 4184 H 398.786 0.143385 -3.1177 0
M  V30 4185 N 399.087 1.5561 -0.249682 0
M  V30 4186 C 400.034 2.21496 0.648694 0
M  V30 4187 C 401.004 1.17977 1.16921 0
M  V30 4188 O 402.189 1.46434 1.22318 0
M  V30 4189 C 399.329 2.92039 1.83868 0
M  V30 4190 C 398.442 4.10219 1.35442 0
M  V30 4191 C 397.577 4.6847 2.50419 0
M  V30 4192 C 396.616 5.78893 1.98869 0
M  V30 4193 N 395.753 6.31315 3.07223 0
M  V30 4194 H 400.593 2.97892 0.0801582 0
M  V30 4195 H 398.13 1.47074 0.0278031 0
M  V30 4196 H 400.088 3.31138 2.53778 0
M  V30 4197 H 398.718 2.18111 2.37965 0
M  V30 4198 H 397.77 3.76413 0.54928 0
M  V30 4199 H 399.082 4.89927 0.936649 0
M  V30 4200 H 398.236 5.10158 3.28366 0
M  V30 4201 H 396.975 3.87984 2.95499 0
M  V30 4202 H 395.98 5.3668 1.19393 0
M  V30 4203 H 397.205 6.61232 1.54755 0
M  V30 4204 H 395.151 5.53733 3.51732 0
M  V30 4205 H 395.068 7.06224 2.69784 0
M  V30 4206 H 396.336 6.77662 3.8522 0
M  V30 4207 N 400.565 -0.0233959 1.57583 0
M  V30 4208 C 401.497 -1.04994 2.03737 0
M  V30 4209 C 402.51 -1.32125 0.951152 0
M  V30 4210 O 403.699 -1.29512 1.22837 0
M  V30 4211 C 400.799 -2.39026 2.40249 0
M  V30 4212 C 399.972 -2.31171 3.7132 0
M  V30 4213 C 399.031 -3.47698 3.94959 0
M  V30 4214 O 398.057 -3.26937 4.65941 0
M  V30 4215 N 399.259 -4.6976 3.41037 0
M  V30 4216 H 402.024 -0.656507 2.92421 0
M  V30 4217 H 399.585 -0.211235 1.60516 0
M  V30 4218 H 401.577 -3.15712 2.53196 0
M  V30 4219 H 400.147 -2.70194 1.57207 0
M  V30 4220 H 399.367 -1.39547 3.68674 0
M  V30 4221 H 400.655 -2.23071 4.57293 0
M  V30 4222 H 400.053 -4.89528 2.83512 0
M  V30 4223 H 398.61 -5.43791 3.59353 0
M  V30 4224 N 402.043 -1.548 -0.295768 0
M  V30 4225 C 403.006 -1.85363 -1.34808 0
M  V30 4226 C 404.006 -0.726817 -1.43436 0
M  V30 4227 O 405.196 -0.995088 -1.42981 0
M  V30 4228 C 402.328 -2.03859 -2.73229 0
M  V30 4229 H 403.521 -2.7941 -1.08949 0
M  V30 4230 H 401.074 -1.46942 -0.532702 0
M  V30 4231 H 401.809 -1.12117 -3.04303 0
M  V30 4232 H 401.594 -2.8588 -2.68356 0
M  V30 4233 H 403.084 -2.28857 -3.49305 0
M  V30 4234 N 403.521 0.559213 -1.47345 0
M  V30 4235 C 404.431 1.69388 -1.62311 0
M  V30 4236 C 405.447 1.6648 -0.505993 0
M  V30 4237 O 406.623 1.85964 -0.773262 0
M  V30 4238 C 403.688 3.05894 -1.63185 0
M  V30 4239 C 402.749 3.19885 -2.86307 0
M  V30 4240 C 401.982 4.49879 -2.87131 0
M  V30 4241 O 402.205 5.35217 -1.97229 0
M  V30 4242 O 401.139 4.67618 -3.78968 0
M  V30 4243 H 404.965 1.59706 -2.58317 0
M  V30 4244 H 402.55 0.728989 -1.30407 0
M  V30 4245 H 404.432 3.87133 -1.66451 0
M  V30 4246 H 403.107 3.15964 -0.70345 0
M  V30 4247 H 402.014 2.38052 -2.88587 0
M  V30 4248 H 403.347 3.14718 -3.78435 0
M  V30 4249 N 404.999 1.35443 0.805782 0
M  V30 4250 C 406.415 1.15499 1.10146 0
M  V30 4251 C 406.615 -0.0319975 2.01475 0
M  V30 4252 O 405.671 -0.70236 2.42535 0
M  V30 4253 C 406.984 2.45833 1.73166 0
M  V30 4254 C 408.532 2.52047 1.85583 0
M  V30 4255 C 409.007 3.82427 2.52019 0
M  V30 4256 N 410.498 3.83682 2.59504 0
M  V30 4257 C 411.233 4.81294 3.11679 0
M  V30 4258 N 410.729 5.89294 3.64287 0
M  V30 4259 N 412.522 4.6873 3.1024 0
M  V30 4260 H 404.673 2.11469 0.198678 0
M  V30 4261 H 406.936 0.93594 0.150731 0
M  V30 4262 H 406.642 3.32874 1.13526 0
M  V30 4263 H 406.516 2.6044 2.72857 0
M  V30 4264 H 408.903 1.65435 2.44367 0
M  V30 4265 H 408.984 2.41354 0.847455 0
M  V30 4266 H 408.628 4.69437 1.93885 0
M  V30 4267 H 408.558 3.90409 3.53395 0
M  V30 4268 H 411.049 3.05648 2.22234 0
M  V30 4269 H 411.362 6.59768 4.02401 0
M  V30 4270 H 409.707 5.92985 3.62483 0
M  V30 4271 H 412.898 3.83496 2.68419 0
M  V30 4272 H 413.071 5.44965 3.50596 0
M  V30 4273 N 406.477 -1.02803 1.19454 0
M  V30 4274 C 407.725 -1.75869 0.995722 0
M  V30 4275 C 408.046 -1.89138 -0.474543 0
M  V30 4276 O 407.316 -1.42558 -1.34366 0
M  V30 4277 H 405.896 -0.651511 0.365435 0
M  V30 4278 H 408.558 -1.24004 1.50363 0
M  V30 4279 H 407.654 -2.76661 1.44447 0
M  V30 4280 N 407.956 -0.998596 -1.21925 0
M  V30 4281 C 408.903 -0.553621 -2.24062 0
M  V30 4282 C 409.873 0.416999 -1.6078 0
M  V30 4283 O 411.058 0.320482 -1.88089 0
M  V30 4284 C 408.198 0.119959 -3.44891 0
M  V30 4285 C 407.311 -0.893077 -4.22668 0
M  V30 4286 C 406.446 -0.192424 -5.30851 0
M  V30 4287 C 405.485 -1.19344 -6.00353 0
M  V30 4288 N 404.622 -0.520707 -7.00166 0
M  V30 4289 H 409.462 -1.4293 -2.61486 0
M  V30 4290 H 406.999 -0.715838 -1.28507 0
M  V30 4291 H 408.957 0.527459 -4.13852 0
M  V30 4292 H 407.587 0.959389 -3.08214 0
M  V30 4293 H 406.639 -1.41886 -3.52948 0
M  V30 4294 H 407.951 -1.65512 -4.70539 0
M  V30 4295 H 407.105 0.271515 -6.06092 0
M  V30 4296 H 405.844 0.602075 -4.83969 0
M  V30 4297 H 404.849 -1.66795 -5.23889 0
M  V30 4298 H 406.074 -1.98891 -6.49322 0
M  V30 4299 H 404.02 0.254252 -6.55507 0
M  V30 4300 H 403.937 -1.2211 -7.46073 0
M  V30 4301 H 405.205 -0.0797596 -7.79459 0
M  V30 4302 N 409.434 1.37368 -0.772513 0
M  V30 4303 C 410.68 2.00423 -0.3467 0
M  V30 4304 C 411.035 1.60224 1.06518 0
M  V30 4305 O 410.328 0.838712 1.72268 0
M  V30 4306 C 410.522 3.54817 -0.428876 0
M  V30 4307 C 410.351 4.10011 -1.84719 0
M  V30 4308 C 409.121 4.40927 -2.46803 0
M  V30 4309 C 411.319 4.30955 -2.80681 0
M  V30 4310 N 409.301 4.8184 -3.80399 0
M  V30 4311 C 410.672 4.74486 -3.99078 0
M  V30 4312 C 412.727 4.1309 -2.77958 0
M  V30 4313 C 411.43 5.02023 -5.15136 0
M  V30 4314 C 413.456 4.41764 -3.9319 0
M  V30 4315 C 412.818 4.85535 -5.10328 0
M  V30 4316 H 408.917 0.762413 -0.173927 0
M  V30 4317 H 411.501 1.66666 -1.00651 0
M  V30 4318 H 409.672 3.87881 0.200757 0
M  V30 4319 H 411.404 4.04696 0.0190668 0
M  V30 4320 H 408.159 4.30033 -1.98415 0
M  V30 4321 H 408.583 5.06604 -4.49089 0
M  V30 4322 H 413.225 3.7842 -1.88568 0
M  V30 4323 H 410.943 5.35582 -6.05126 0
M  V30 4324 H 414.529 4.29528 -3.92425 0
M  V30 4325 H 413.409 5.07296 -5.98013 0
M  V30 4326 N 410.912 0.523116 1.48665 0
M  V30 4327 C 412.158 -0.0134963 2.02796 0
M  V30 4328 C 412.491 -1.34582 1.40004 0
M  V30 4329 O 411.766 -1.86756 0.543381 0
M  V30 4330 C 412.049 -0.14276 3.59817 0
M  V30 4331 C 411.902 1.21425 4.331 0
M  V30 4332 C 413.221 -0.872856 4.31357 0
M  V30 4333 H 410.34 -0.00343074 0.736992 0
M  V30 4334 H 412.982 0.678816 1.7746 0
M  V30 4335 H 411.132 -0.732401 3.81534 0
M  V30 4336 H 412.804 1.84447 4.2282 0
M  V30 4337 H 411.047 1.79791 3.94788 0
M  V30 4338 H 411.718 1.07687 5.41394 0
M  V30 4339 H 414.194 -0.372555 4.14429 0
M  V30 4340 H 413.07 -0.932185 5.40927 0
M  V30 4341 H 413.331 -1.92161 3.98154 0
M  V30 4342 N 412.39 -1.55475 0.257931 0
M  V30 4343 C 413.801 -1.8511 -0.243135 0
M  V30 4344 C 414.152 -1.17986 -1.5676 0
M  V30 4345 O 413.277 -0.462102 -2.11409 0
M  V30 4346 C 413.872 -3.35826 -0.447929 0
M  V30 4347 C 412.431 -3.65647 -0.893245 0
M  V30 4348 C 411.578 -2.7729 0.0232965 0
M  V30 4349 H 414.529 -1.51261 0.480199 0
M  V30 4350 H 414.55 -3.58002 -1.28898 0
M  V30 4351 H 414.062 -3.84652 0.516196 0
M  V30 4352 H 412.163 -3.22308 -1.86945 0
M  V30 4353 H 412.276 -4.73312 -0.742469 0
M  V30 4354 H 410.64 -2.49942 -0.490021 0
M  V30 4355 H 411.423 -3.28926 0.982994 0
M  V30 4356 N 413.868 0.0150385 -1.57593 0
M  V30 4357 C 414.778 1.02791 -2.10882 0
M  V30 4358 C 415.794 1.38702 -1.0506 0
M  V30 4359 O 416.97 1.47739 -1.36877 0
M  V30 4360 C 414.035 2.30568 -2.58919 0
M  V30 4361 C 413.096 2.01108 -3.79281 0
M  V30 4362 C 412.329 3.22794 -4.25018 0
M  V30 4363 O 412.552 4.33959 -3.70183 0
M  V30 4364 O 411.486 3.07672 -5.17322 0
M  V30 4365 H 415.312 0.604973 -2.97613 0
M  V30 4366 H 412.897 0.23292 -1.47573 0
M  V30 4367 H 414.779 3.05662 -2.90084 0
M  V30 4368 H 413.454 2.72129 -1.75293 0
M  V30 4369 H 412.361 1.23537 -3.53114 0
M  V30 4370 H 413.694 1.64394 -4.63935 0
M  V30 4371 N 415.346 1.54954 0.287554 0
M  V30 4372 C 416.762 1.46469 0.633964 0
M  V30 4373 C 416.962 0.666865 1.90145 0
M  V30 4374 O 416.018 0.179906 2.51858 0
M  V30 4375 C 417.331 2.90556 0.774454 0
M  V30 4376 C 418.879 3.00681 0.869462 0
M  V30 4377 C 419.354 4.45993 1.04184 0
M  V30 4378 N 420.845 4.4976 1.10772 0
M  V30 4379 C 421.58 5.59393 1.25964 0
M  V30 4380 N 421.076 6.78923 1.37968 0
M  V30 4381 N 422.869 5.47107 1.28959 0
M  V30 4382 H 415.02 2.05288 -0.545041 0
M  V30 4383 H 417.283 0.930305 -0.182308 0
M  V30 4384 H 416.989 3.51594 -0.086207 0
M  V30 4385 H 416.863 3.38743 1.6593 0
M  V30 4386 H 419.25 2.39749 1.7206 0
M  V30 4387 H 419.331 2.55769 -0.0396831 0
M  V30 4388 H 418.975 5.07524 0.195422 0
M  V30 4389 H 418.905 4.88548 1.96542 0
M  V30 4390 H 421.396 3.63651 1.02794 0
M  V30 4391 H 421.709 7.58231 1.49353 0
M  V30 4392 H 420.054 6.81763 1.34999 0
M  V30 4393 H 423.245 4.52668 1.19202 0
M  V30 4394 H 423.418 6.32595 1.40455 0
M  V30 4395 N 416.824 -0.551391 1.4764 0
M  V30 4396 C 418.24 -0.877887 1.33287 0
M  V30 4397 C 418.44 -1.98817 0.327721 0
M  V30 4398 O 417.496 -2.51171 -0.258695 0
M  V30 4399 C 418.809 -1.26563 2.72768 0
M  V30 4400 C 420.357 -1.37673 2.81097 0
M  V30 4401 C 420.832 -1.79799 4.21232 0
M  V30 4402 N 422.323 -1.8694 4.23802 0
M  V30 4403 C 423.058 -2.20876 5.29151 0
M  V30 4404 N 422.554 -2.53386 6.448 0
M  V30 4405 N 424.347 -2.217 5.16532 0
M  V30 4406 H 416.498 0.18153 2.11623 0
M  V30 4407 H 418.761 0.0185514 0.947818 0
M  V30 4408 H 418.467 -0.523591 3.47781 0
M  V30 4409 H 418.341 -2.22052 3.04915 0
M  V30 4410 H 420.728 -2.10956 2.06353 0
M  V30 4411 H 420.809 -0.40357 2.52596 0
M  V30 4412 H 420.453 -1.07083 4.96483 0
M  V30 4413 H 420.383 -2.78128 4.4716 0
M  V30 4414 H 422.874 -1.64179 3.40373 0
M  V30 4415 H 423.187 -2.78325 7.20941 0
M  V30 4416 H 421.532 -2.50953 6.48111 0
M  V30 4417 H 424.723 -1.95745 4.25207 0
M  V30 4418 H 424.896 -2.47818 5.98741 0
M  V30 4419 N 418.302 -1.35869 -0.798587 0
M  V30 4420 C 419.527 -1.32883 -1.59238 0
M  V30 4421 C 419.952 0.0894587 -1.87887 0
M  V30 4422 O 419.31 1.05869 -1.47178 0
M  V30 4423 C 419.358 -2.14892 -2.89575 0
M  V30 4424 O 418.462 -1.53512 -3.82763 0
M  V30 4425 H 417.803 -0.455236 -0.48338 0
M  V30 4426 H 420.333 -1.79024 -0.990539 0
M  V30 4427 H 420.343 -2.27139 -3.38928 0
M  V30 4428 H 419.018 -3.17998 -2.68049 0
M  V30 4429 H 417.595 -1.50153 -3.41334 0
M  V30 4430 N 419.78 1.02168 -1.19998 0
M  V30 4431 C 420.712 2.10705 -0.901994 0
M  V30 4432 C 421.725 1.6244 0.108216 0
M  V30 4433 O 422.914 1.78082 -0.12214 0
M  V30 4434 C 420.014 3.37291 -0.329834 0
M  V30 4435 C 419.187 4.14714 -1.39035 0
M  V30 4436 C 418.246 5.19606 -0.830432 0
M  V30 4437 O 417.272 5.48809 -1.50989 0
M  V30 4438 N 418.474 5.79366 0.362696 0
M  V30 4439 H 421.239 2.36856 -1.83628 0
M  V30 4440 H 418.8 1.18518 -1.10296 0
M  V30 4441 H 420.792 4.04657 0.0587633 0
M  V30 4442 H 419.362 3.0843 0.508891 0
M  V30 4443 H 418.582 3.42392 -1.9535 0
M  V30 4444 H 419.87 4.63226 -2.10474 0
M  V30 4445 H 419.268 5.57968 0.932081 0
M  V30 4446 H 417.825 6.48106 0.69299 0
M  V30 4447 N 421.258 1.00505 1.21394 0
M  V30 4448 C 422.19 0.52372 2.23136 0
M  V30 4449 C 423.203 -0.387714 1.58116 0
M  V30 4450 O 424.392 -0.187905 1.77508 0
M  V30 4451 C 421.492 -0.258885 3.3791 0
M  V30 4452 C 420.665 0.651634 4.32519 0
M  V30 4453 C 419.724 -0.0813705 5.26137 0
M  V30 4454 O 418.75 0.537295 5.66658 0
M  V30 4455 N 419.952 -1.35992 5.64346 0
M  V30 4456 H 422.717 1.39865 2.65062 0
M  V30 4457 H 420.278 0.881196 1.35818 0
M  V30 4458 H 422.27 -0.758208 3.97534 0
M  V30 4459 H 420.84 -1.035 2.94968 0
M  V30 4460 H 420.06 1.33145 3.71034 0
M  V30 4461 H 421.348 1.27129 4.92662 0
M  V30 4462 H 420.746 -1.88368 5.33417 0
M  V30 4463 H 419.303 -1.8042 6.26332 0
M  V30 4464 N 422.737 -1.36956 0.779787 0
M  V30 4465 C 423.965 -2.03755 0.359398 0
M  V30 4466 C 424.38 -1.58807 -1.02106 0
M  V30 4467 O 423.737 -0.773024 -1.6532 0
M  V30 4468 C 423.788 -3.59251 0.402568 0
M  V30 4469 O 423.509 -4.02557 1.72858 0
M  V30 4470 C 425.01 -4.43291 -0.0284068 0
M  V30 4471 H 422.23 -0.654148 0.149437 0
M  V30 4472 H 424.774 -1.75128 1.05595 0
M  V30 4473 H 422.929 -3.86621 -0.245478 0
M  V30 4474 H 423.343 -4.97111 1.67275 0
M  V30 4475 H 424.817 -5.51975 0.0529466 0
M  V30 4476 H 425.294 -4.25719 -1.07982 0
M  V30 4477 H 425.9 -4.21163 0.591758 0
M  V30 4478 N 424.215 -0.530993 -1.48385 0
M  V30 4479 C 425.165 0.251092 -2.26613 0
M  V30 4480 C 426.149 0.908977 -1.32765 0
M  V30 4481 O 427.341 0.811616 -1.57295 0
M  V30 4482 C 424.47 1.29677 -3.17866 0
M  V30 4483 C 423.556 0.643627 -4.19188 0
M  V30 4484 N 423.947 -0.271223 -5.05072 0
M  V30 4485 C 422.245 0.900711 -4.3681 0
M  V30 4486 C 422.946 -0.648109 -5.78078 0
M  V30 4487 N 421.922 -0.00895987 -5.43599 0
M  V30 4488 H 425.724 -0.452702 -2.90393 0
M  V30 4489 H 423.238 -0.349091 -1.58604 0
M  V30 4490 H 425.235 1.87079 -3.72568 0
M  V30 4491 H 423.895 2.00193 -2.55642 0
M  V30 4492 H 424.906 -0.643883 -5.13882 0
M  V30 4493 H 421.583 1.59636 -3.85775 0
M  V30 4494 H 422.973 -1.39833 -6.57188 0
M  V30 4495 N 425.693 1.55336 -0.266172 0
M  V30 4496 C 426.921 2.03801 0.356756 0
M  V30 4497 C 427.336 1.14485 1.50129 0
M  V30 4498 O 426.693 0.163121 1.8177 0
M  V30 4499 C 426.744 3.51455 0.846281 0
M  V30 4500 O 426.465 4.37371 -0.252663 0
M  V30 4501 C 427.966 4.15767 1.53794 0
M  V30 4502 H 425.186 0.665906 0.0825218 0
M  V30 4503 H 427.73 2.00636 -0.39566 0
M  V30 4504 H 425.885 3.55092 1.54881 0
M  V30 4505 H 426.299 5.24358 0.122173 0
M  V30 4506 H 427.773 5.20714 1.83198 0
M  V30 4507 H 428.25 3.63404 2.46646 0
M  V30 4508 H 428.856 4.16107 0.879488 0
M  V30 4509 N 427.171 -0.0066808 1.57599 0
M  V30 4510 C 428.081 -1.01671 2.11424 0
M  V30 4511 C 429.097 -1.38143 1.05795 0
M  V30 4512 O 430.273 -1.47011 1.37658 0
M  V30 4513 C 427.338 -2.29192 2.60139 0
M  V30 4514 C 426.399 -1.99094 3.80342 0
M  V30 4515 C 425.632 -3.20535 4.26724 0
M  V30 4516 O 425.855 -4.3199 3.72479 0
M  V30 4517 O 424.789 -3.04924 5.18946 0
M  V30 4518 H 428.615 -0.589181 2.9793 0
M  V30 4519 H 426.2 -0.225091 1.47695 0
M  V30 4520 H 428.082 -3.0412 2.917 0
M  V30 4521 H 426.757 -2.71195 1.76733 0
M  V30 4522 H 425.664 -1.21663 3.53764 0
M  V30 4523 H 426.997 -1.61931 4.648 0
M  V30 4524 N 428.649 -1.55105 -0.279332 0
M  V30 4525 C 429.579 -1.90557 -1.34945 0
M  V30 4526 C 430.56 -0.766738 -1.51839 0
M  V30 4527 O 431.745 -1.02434 -1.64988 0
M  V30 4528 C 428.875 -2.17193 -2.71006 0
M  V30 4529 C 427.829 -3.33021 -2.68851 0
M  V30 4530 C 427.155 -3.45123 -4.08405 0
M  V30 4531 C 428.455 -4.69578 -2.28678 0
M  V30 4532 H 430.149 -2.80188 -1.05522 0
M  V30 4533 H 427.695 -1.34811 -0.506173 0
M  V30 4534 H 429.648 -2.40581 -3.45975 0
M  V30 4535 H 428.372 -1.24355 -3.01999 0
M  V30 4536 H 427.031 -3.0959 -1.9634 0
M  V30 4537 H 426.679 -2.49762 -4.3661 0
M  V30 4538 H 426.379 -4.22995 -4.07859 0
M  V30 4539 H 427.903 -3.70796 -4.85121 0
M  V30 4540 H 429.317 -4.92553 -2.93368 0
M  V30 4541 H 427.714 -5.5032 -2.39306 0
M  V30 4542 H 428.784 -4.68828 -1.23807 0
M  V30 4543 N 430.127 0.543554 -1.4793 0
M  V30 4544 C 431.352 1.32995 -1.59145 0
M  V30 4545 C 431.777 1.86472 -0.246956 0
M  V30 4546 O 431.135 1.63696 0.779324 0
M  V30 4547 C 431.183 2.46623 -2.63077 0
M  V30 4548 O 430.287 3.49261 -2.19295 0
M  V30 4549 H 429.628 0.394472 -0.534124 0
M  V30 4550 H 432.158 0.655489 -1.93816 0
M  V30 4551 H 432.168 2.93001 -2.83926 0
M  V30 4552 H 430.843 2.07059 -3.60693 0
M  V30 4553 H 429.42 3.09094 -2.08603 0
M  V30 4554 N 431.605 1.3629 0.791371 0
M  V30 4555 C 432.83 1.33726 1.58531 0
M  V30 4556 C 433.255 -0.0794933 1.87932 0
M  V30 4557 O 432.613 -1.05087 1.47738 0
M  V30 4558 C 432.661 2.16425 2.88431 0
M  V30 4559 O 431.765 1.5554 3.81944 0
M  V30 4560 H 431.106 0.457793 0.480959 0
M  V30 4561 H 433.636 1.79547 0.981031 0
M  V30 4562 H 433.646 2.28933 3.37718 0
M  V30 4563 H 432.321 3.19415 2.66359 0
M  V30 4564 H 430.898 1.51961 3.40532 0
M  V30 4565 N 433.083 -1.0153 1.20538 0
M  V30 4566 C 434.332 -1.74558 1.01057 0
M  V30 4567 C 434.645 -1.90168 -0.457756 0
M  V30 4568 O 435.851 -2.60301 -0.771722 0
M  V30 4569 C 434.307 -3.13963 1.75941 0
M  V30 4570 C 433.915 -3.06361 3.26875 0
M  V30 4571 C 435.659 -3.91191 1.64832 0
M  V30 4572 C 433.566 -4.40782 3.94291 0
M  V30 4573 H 432.496 -0.654417 0.374505 0
M  V30 4574 H 435.147 -1.13521 1.44171 0
M  V30 4575 H 433.529 -3.75549 1.25614 0
M  V30 4576 H 434.703 -2.54074 3.84425 0
M  V30 4577 H 433.018 -2.42625 3.38411 0
M  V30 4578 H 435.615 -4.90644 2.12539 0
M  V30 4579 H 435.958 -4.11884 0.604745 0
M  V30 4580 H 436.491 -3.36236 2.12579 0
M  V30 4581 H 433.23 -4.25292 4.98805 0
M  V30 4582 H 432.75 -4.9307 3.41529 0
M  V30 4583 H 434.429 -5.09621 3.98617 0
M  V30 4584 N 434.561 -1.01147 -1.20859 0
M  V30 4585 C 435.491 -0.597663 -2.25722 0
M  V30 4586 C 436.472 0.384744 -1.65692 0
M  V30 4587 O 437.657 0.271303 -1.92296 0
M  V30 4588 C 434.787 0.0700149 -3.47229 0
M  V30 4589 C 433.741 -0.832843 -4.19819 0
M  V30 4590 C 433.067 -0.0312202 -5.34691 0
M  V30 4591 C 434.367 -2.1385 -4.76514 0
M  V30 4592 H 436.061 -1.47423 -2.60589 0
M  V30 4593 H 433.607 -0.710301 -1.25263 0
M  V30 4594 H 435.56 0.37103 -4.19763 0
M  V30 4595 H 434.284 0.981259 -3.11511 0
M  V30 4596 H 432.943 -1.11778 -3.49144 0
M  V30 4597 H 432.591 0.881515 -4.95215 0
M  V30 4598 H 432.291 -0.632434 -5.84187 0
M  V30 4599 H 433.815 0.26346 -6.10031 0
M  V30 4600 H 435.229 -1.9002 -5.40893 0
M  V30 4601 H 433.626 -2.69012 -5.36426 0
M  V30 4602 H 434.696 -2.80495 -3.95538 0
M  V30 4603 N 436.039 1.36541 -0.78704 0
M  V30 4604 C 437.267 2.03561 -0.370199 0
M  V30 4605 C 437.682 1.59347 1.01263 0
M  V30 4606 O 437.039 0.781781 1.64907 0
M  V30 4607 C 437.09 3.59033 -0.421614 0
M  V30 4608 O 436.811 4.01634 -1.7499 0
M  V30 4609 C 438.312 4.433 0.00489763 0
M  V30 4610 H 435.532 0.653346 -0.152904 0
M  V30 4611 H 438.076 1.74566 -1.06522 0
M  V30 4612 H 436.231 3.86746 0.224971 0
M  V30 4613 H 436.645 4.96217 -1.69909 0
M  V30 4614 H 438.119 5.51939 -0.0822184 0
M  V30 4615 H 438.596 4.26285 1.05723 0
M  V30 4616 H 439.202 4.20843 -0.614085 0
M  V30 4617 N 437.518 0.538854 1.48102 0
M  V30 4618 C 438.767 0.0059532 2.01699 0
M  V30 4619 C 439.08 -1.34476 1.42041 0
M  V30 4620 O 440.286 -1.96653 1.87189 0
M  V30 4621 C 438.742 -0.0397627 3.59878 0
M  V30 4622 C 438.35 1.30659 4.28523 0
M  V30 4623 C 440.094 -0.521024 4.2129 0
M  V30 4624 C 438.001 1.22098 5.78659 0
M  V30 4625 H 436.931 -0.00154456 0.753998 0
M  V30 4626 H 439.582 0.683963 1.70277 0
M  V30 4627 H 437.964 -0.783037 3.88181 0
M  V30 4628 H 439.138 2.06613 4.11883 0
M  V30 4629 H 437.453 1.7243 3.79021 0
M  V30 4630 H 440.05 -0.603184 5.31287 0
M  V30 4631 H 440.393 -1.52885 3.8721 0
M  V30 4632 H 440.926 0.166834 3.9745 0
M  V30 4633 H 437.665 2.20424 6.17328 0
M  V30 4634 H 437.185 0.50295 5.97688 0
M  V30 4635 H 438.864 0.915345 6.40492 0
M  V30 4636 N 438.996 -1.55193 0.274407 0
M  V30 4637 C 439.946 -2.19184 -0.627882 0
M  V30 4638 C 440.93 -1.15625 -1.11892 0
M  V30 4639 O 442.122 -1.41441 -1.06411 0
M  V30 4640 C 439.251 -2.91591 -1.81189 0
M  V30 4641 C 438.337 -4.02438 -1.33807 0
M  V30 4642 N 438.728 -5.0246 -0.580349 0
M  V30 4643 C 437.026 -4.15496 -1.62109 0
M  V30 4644 C 437.727 -5.80756 -0.331344 0
M  V30 4645 N 436.703 -5.36038 -0.903556 0
M  V30 4646 H 440.505 -2.93871 -0.0411216 0
M  V30 4647 H 438.019 -1.62213 0.0779348 0
M  V30 4648 H 440.016 -3.35883 -2.46957 0
M  V30 4649 H 438.676 -2.18414 -2.40261 0
M  V30 4650 H 439.687 -5.17399 -0.227762 0
M  V30 4651 H 436.364 -3.53509 -2.22121 0
M  V30 4652 H 437.754 -6.71335 0.275454 0
M  V30 4653 N 440.474 -0.00167713 -1.576 0
M  V30 4654 C 441.422 1.0074 -2.09652 0
M  V30 4655 C 442.416 1.35483 -1.01689 0
M  V30 4656 O 443.622 1.34028 -1.20152 0
M  V30 4657 H 439.997 0.342537 -0.669457 0
M  V30 4658 H 441.968 0.542841 -2.93421 0
M  V30 4659 C 440.717 2.2899 -2.61647 0
M  V30 4660 H 440.04 2.03124 -3.44355 0
M  V30 4661 H 441.48 2.9787 -3.01744 0
M  V30 4662 C 439.939 3.00085 -1.53136 0
M  V30 4663 O 440.469 3.91135 -0.91524 0
M  V30 4664 N 438.675 2.6194 -1.25841 0
M  V30 4665 H 438.222 1.8798 -1.76129 0
M  V30 4666 H 438.18 3.09822 -0.534576 0
M  V30 4667 N 441.952 1.55251 0.271103 0
M  V30 4668 C 443.198 1.76207 1.00394 0
M  V30 4669 C 443.531 0.562604 1.85872 0
M  V30 4670 O 442.806 -0.439785 1.89463 0
M  V30 4671 C 443.089 3.06828 1.8849 0
M  V30 4672 C 442.942 4.37134 1.05992 0
M  V30 4673 C 444.261 3.33503 2.87165 0
M  V30 4674 H 441.38 0.641086 0.363562 0
M  V30 4675 H 444.022 1.87982 0.276189 0
M  V30 4676 H 442.172 2.96921 2.5054 0
M  V30 4677 H 443.844 4.59001 0.459978 0
M  V30 4678 H 442.087 4.32275 0.363443 0
M  V30 4679 H 442.758 5.2486 1.70955 0
M  V30 4680 H 445.234 3.43215 2.3525 0
M  V30 4681 H 444.11 4.2616 3.45946 0
M  V30 4682 H 444.371 2.53235 3.62387 0
M  V30 4683 N 443.43 -0.535701 1.48216 0
M  V30 4684 C 444.655 -1.32149 1.59848 0
M  V30 4685 C 445.08 -1.86338 0.256842 0
M  V30 4686 O 444.438 -1.64107 -0.770632 0
M  V30 4687 C 444.486 -2.45224 2.64381 0
M  V30 4688 O 443.59 -3.48093 2.21144 0
M  V30 4689 H 442.931 -0.391634 0.536208 0
M  V30 4690 H 445.461 -0.645202 1.94161 0
M  V30 4691 H 445.471 -2.91491 2.85476 0
M  V30 4692 H 444.146 -2.05143 3.61786 0
M  V30 4693 H 442.723 -3.07984 2.10239 0
M  V30 4694 N 444.908 -1.36708 -0.784132 0
M  V30 4695 C 445.84 -1.27333 -1.90575 0
M  V30 4696 C 446.853 -0.191706 -1.61667 0
M  V30 4697 O 448.042 -0.446854 -1.72816 0
M  V30 4698 C 445.142 -0.943177 -3.25511 0
M  V30 4699 C 444.315 -2.12776 -3.82158 0
M  V30 4700 C 443.374 -1.76983 -4.95544 0
M  V30 4701 O 442.4 -2.49134 -5.11782 0
M  V30 4702 N 443.602 -0.706624 -5.76183 0
M  V30 4703 H 446.367 -2.23974 -1.99138 0
M  V30 4704 H 443.928 -1.30171 -0.962656 0
M  V30 4705 H 445.92 -0.684799 -3.98864 0
M  V30 4706 H 444.49 -0.0657333 -3.12531 0
M  V30 4707 H 443.71 -2.54863 -3.0073 0
M  V30 4708 H 444.998 -2.91904 -4.16737 0
M  V30 4709 H 444.396 -0.107643 -5.65598 0
M  V30 4710 H 442.953 -0.50808 -6.49817 0
M  V30 4711 N 446.386 1.0089 -1.21074 0
M  V30 4712 C 447.336 2.0799 -0.934034 0
M  V30 4713 C 448.32 1.60529 0.10919 0
M  V30 4714 O 449.512 1.76722 -0.0992198 0
M  V30 4715 C 446.641 3.39693 -0.496334 0
M  V30 4716 C 445.727 3.93833 -1.57341 0
M  V30 4717 N 446.118 4.21388 -2.7976 0
M  V30 4718 C 444.416 4.22067 -1.44137 0
M  V30 4719 C 445.117 4.65156 -3.49292 0
M  V30 4720 N 444.093 4.67895 -2.76722 0
M  V30 4721 H 447.895 2.27213 -1.86417 0
M  V30 4722 H 445.409 1.18927 -1.10589 0
M  V30 4723 H 447.406 4.15962 -0.279471 0
M  V30 4724 H 446.066 3.21879 0.427084 0
M  V30 4725 H 447.077 4.10061 -3.1634 0
M  V30 4726 H 443.754 4.1341 -0.582947 0
M  V30 4727 H 445.144 4.95231 -4.54088 0
M  V30 4728 N 447.864 1.01787 1.20321 0
M  V30 4729 C 449.141 0.622978 1.85414 0
M  V30 4730 C 449.521 -0.898887 1.91006 0
M  V30 4731 O 448.869 -1.79112 1.41884 0
M  V30 4732 C 449.079 1.27226 3.24984 0
M  V30 4733 C 450.427 1.3885 4.01255 0
M  V30 4734 O 451.451 1.22857 3.34342 0
M  V30 4735 O 450.31 1.64705 5.2109 0
M  V30 4736 H 447.404 0.215116 0.798533 0
M  V30 4737 H 449.95 1.11533 1.27901 0
M  V30 4738 H 448.722 2.31209 3.15687 0
M  V30 4739 H 448.345 0.767069 3.90131 0
M  V30 4740 N 449.342 -1.36122 0.79427 0
M  V30 4741 C 450.272 -2.32551 0.210328 0
M  V30 4742 C 451.253 -1.56884 -0.657386 0
M  V30 4743 O 452.438 -1.85014 -0.590207 0
M  V30 4744 C 449.568 -3.41128 -0.651819 0
M  V30 4745 C 448.522 -4.27842 0.116395 0
M  V30 4746 C 447.848 -5.2763 -0.86666 0
M  V30 4747 C 449.148 -5.05647 1.30837 0
M  V30 4748 H 450.842 -2.81636 1.01594 0
M  V30 4749 H 448.388 -1.35407 0.489981 0
M  V30 4750 H 450.341 -4.07581 -1.07031 0
M  V30 4751 H 449.065 -2.90622 -1.49019 0
M  V30 4752 H 447.724 -3.62952 0.515915 0
M  V30 4753 H 447.372 -4.73395 -1.70019 0
M  V30 4754 H 447.072 -5.86514 -0.35705 0
M  V30 4755 H 448.596 -5.96955 -1.28361 0
M  V30 4756 H 450.01 -5.65113 0.965393 0
M  V30 4757 H 448.407 -5.73967 1.75161 0
M  V30 4758 H 449.477 -4.37006 2.10128 0
M  V30 4759 N 450.82 -0.546701 -1.47814 0
M  V30 4760 C 452.068 -0.0187037 -2.02091 0
M  V30 4761 C 452.389 1.33168 -1.42447 0
M  V30 4762 O 451.659 1.86619 -0.595839 0
M  V30 4763 H 450.239 -0.00392531 -0.74699 0
M  V30 4764 H 452.901 -0.714327 -1.81338 0
M  V30 4765 H 451.997 0.0772219 -3.12004 0
M  V30 4766 N 452.299 1.55045 -0.282633 0
M  V30 4767 C 453.524 2.04628 0.337977 0
M  V30 4768 C 453.949 1.15937 1.48123 0
M  V30 4769 O 453.307 0.159532 1.80597 0
M  V30 4770 C 453.355 3.51854 0.78936 0
M  V30 4771 O 452.459 3.66236 1.89592 0
M  V30 4772 H 451.8 0.660434 0.0687261 0
M  V30 4773 H 454.33 2.00261 -0.419124 0
M  V30 4774 H 454.34 3.93361 1.08311 0
M  V30 4775 H 453.015 4.15873 -0.0470419 0
M  V30 4776 H 451.592 3.36633 1.60413 0
M  V30 4777 N 453.777 0.010035 1.57597 0
M  V30 4778 C 455.007 -0.682422 1.95004 0
M  V30 4779 C 455.415 -1.67278 0.884014 0
M  V30 4780 O 454.758 -1.83129 -0.144672 0
M  V30 4781 C 454.82 -1.46141 3.28456 0
M  V30 4782 C 454.484 -0.631523 4.52615 0
M  V30 4783 C 455.481 0.0850905 5.1983 0
M  V30 4784 C 453.166 -0.574539 4.99003 0
M  V30 4785 C 455.16 0.847566 6.3174 0
M  V30 4786 C 452.847 0.191655 6.10799 0
M  V30 4787 C 453.845 0.901432 6.77025 0
M  V30 4788 O 453.533 1.65511 7.86677 0
M  V30 4789 H 453.265 -0.194361 0.647456 0
M  V30 4790 H 455.819 0.060312 2.05311 0
M  V30 4791 H 454.049 -2.24885 3.14585 0
M  V30 4792 H 455.738 -2.04016 3.50902 0
M  V30 4793 H 456.504 0.0502812 4.84974 0
M  V30 4794 H 452.383 -1.11654 4.47274 0
M  V30 4795 H 455.927 1.4021 6.83364 0
M  V30 4796 H 451.824 0.228249 6.45096 0
M  V30 4797 H 452.592 1.57287 8.03245 0
M  V30 4798 N 455.255 -1.55392 -0.262866 0
M  V30 4799 C 456.501 -1.76737 -0.99458 0
M  V30 4800 C 456.834 -0.572453 -1.85571 0
M  V30 4801 O 456.109 0.429732 -1.89693 0
M  V30 4802 C 456.392 -3.07824 -1.8686 0
M  V30 4803 C 456.245 -4.3769 -1.03672 0
M  V30 4804 C 457.564 -3.35021 -2.85393 0
M  V30 4805 H 454.683 -0.643005 -0.360157 0
M  V30 4806 H 457.325 -1.88126 -0.266216 0
M  V30 4807 H 455.475 -2.98245 -2.48962 0
M  V30 4808 H 457.147 -4.59238 -0.43563 0
M  V30 4809 H 455.39 -4.32461 -0.340513 0
M  V30 4810 H 456.061 -5.25759 -1.6817 0
M  V30 4811 H 458.537 -3.44458 -2.33426 0
M  V30 4812 H 457.413 -4.27989 -3.43681 0
M  V30 4813 H 457.674 -2.55153 -3.61039 0
M  V30 4814 N 456.733 0.527833 -1.48498 0
M  V30 4815 C 457.973 1.29401 -1.58224 0
M  V30 4816 C 458.337 1.90348 -0.251327 0
M  V30 4817 O 459.538 2.67868 -0.223588 0
M  V30 4818 C 457.809 2.35266 -2.69044 0
M  V30 4819 S 459.368 3.2158 -2.98549 0
M  V30 4820 H 456.186 0.440138 -0.558391 0
M  V30 4821 H 458.788 0.601079 -1.8603 0
M  V30 4822 H 457.492 1.88975 -3.64303 0
M  V30 4823 H 457.023 3.09263 -2.43146 0
M  V30 4824 H 459.038 4.35391 -2.38011 0
M  V30 4825 N 458.211 1.37122 0.776871 0
M  V30 4826 C 459.158 1.3247 1.88998 0
M  V30 4827 C 460.128 0.191143 1.64997 0
M  V30 4828 O 461.313 0.379683 1.86984 0
M  V30 4829 C 458.453 1.13241 3.25992 0
M  V30 4830 C 457.566 2.35782 3.61982 0
M  V30 4831 C 456.701 2.09465 4.88158 0
M  V30 4832 C 455.74 3.279 5.16864 0
M  V30 4833 N 454.877 3.01167 6.34226 0
M  V30 4834 H 459.717 2.27642 1.9231 0
M  V30 4835 H 457.254 1.13125 0.94027 0
M  V30 4836 H 459.212 1.00115 4.0501 0
M  V30 4837 H 457.842 0.217186 3.22069 0
M  V30 4838 H 456.894 2.59666 2.77989 0
M  V30 4839 H 458.206 3.24125 3.79137 0
M  V30 4840 H 457.36 1.93341 5.75069 0
M  V30 4841 H 456.099 1.18452 4.73097 0
M  V30 4842 H 455.104 3.44569 4.2843 0
M  V30 4843 H 456.329 4.19757 5.33836 0
M  V30 4844 H 454.275 2.12779 6.20533 0
M  V30 4845 H 454.192 3.83052 6.51772 0
M  V30 4846 H 455.46 2.88649 7.24087 0
M  V30 4847 N 459.689 -1.00246 1.21608 0
M  V30 4848 C 460.652 -2.07233 0.979133 0
M  V30 4849 C 461.652 -1.6072 -0.0508219 0
M  V30 4850 O 462.842 -1.73196 0.186712 0
M  V30 4851 C 459.974 -3.37546 0.477016 0
M  V30 4852 H 461.167 -2.29687 1.92831 0
M  V30 4853 H 458.72 -1.17261 1.03342 0
M  V30 4854 H 459.455 -3.20773 -0.476966 0
M  V30 4855 H 459.24 -3.72638 1.21997 0
M  V30 4856 H 460.73 -4.16285 0.331181 0
M  V30 4857 N 461.167 -1.02423 -1.1978 0
M  V30 4858 C 462.115 -0.594474 -2.24875 0
M  V30 4859 C 463.109 0.370598 -1.65296 0
M  V30 4860 O 464.315 0.239684 -1.78397 0
M  V30 4861 H 460.69 -0.173961 -0.731602 0
M  V30 4862 H 462.661 -1.4916 -2.58445 0
M  V30 4863 C 461.41 0.0436512 -3.47673 0
M  V30 4864 H 460.733 -0.689963 -3.93801 0
M  V30 4865 H 462.173 0.307362 -4.22884 0
M  V30 4866 C 460.632 1.28881 -3.11274 0
M  V30 4867 O 461.162 2.38135 -3.23503 0
M  V30 4868 N 459.368 1.1758 -2.6575 0
M  V30 4869 H 458.915 0.286769 -2.55999 0
M  V30 4870 H 458.873 2.00988 -2.41767 0
M  V30 4871 N 462.645 1.35699 -0.801477 0
M  V30 4872 C 463.593 2.3177 -0.196317 0
M  V30 4873 C 464.587 1.56388 0.651081 0
M  V30 4874 O 465.793 1.71557 0.544815 0
M  V30 4875 H 462.168 0.750669 -0.0447189 0
M  V30 4876 H 464.139 2.8036 -1.02181 0
M  V30 4877 C 462.888 3.41671 0.644702 0
M  V30 4878 H 462.211 3.998 0.0019921 0
M  V30 4879 H 463.651 4.11184 1.0346 0
M  V30 4880 C 462.11 2.84271 1.80808 0
M  V30 4881 O 462.64 2.77408 2.9053 0
M  V30 4882 N 460.846 2.41391 1.61799 0
M  V30 4883 H 460.393 2.47173 0.725493 0
M  V30 4884 H 460.351 2.03334 2.39797 0
M  V30 4885 N 464.123 0.554532 1.47522 0
M  V30 4886 C 465.371 0.0294208 2.02079 0
M  V30 4887 C 465.692 -1.32411 1.43151 0
M  V30 4888 O 464.962 -1.863 0.605728 0
M  V30 4889 H 463.542 0.00788672 0.746958 0
M  V30 4890 H 466.204 0.723934 1.80956 0
M  V30 4891 H 465.3 -0.0606745 3.12041 0
M  V30 4892 N 465.601 -1.54893 0.290851 0
M  V30 4893 C 466.85 -1.99111 -0.322113 0
M  V30 4894 C 467.163 -1.18283 -1.55784 0
M  V30 4895 O 468.369 -1.5272 -2.24475 0
M  V30 4896 C 466.825 -3.54442 -0.624438 0
M  V30 4897 C 466.433 -4.44066 0.592373 0
M  V30 4898 C 468.177 -4.07211 -1.19916 0
M  V30 4899 C 466.084 -5.90812 0.263762 0
M  V30 4900 H 465.014 -0.743712 -0.124133 0
M  V30 4901 H 467.665 -1.79132 0.39797 0
M  V30 4902 H 466.047 -3.70281 -1.40384 0
M  V30 4903 H 467.221 -4.39999 1.36886 0
M  V30 4904 H 465.536 -4.02015 1.08502 0
M  V30 4905 H 468.133 -5.14407 -1.45909 0
M  V30 4906 H 468.476 -3.57196 -2.13815 0
M  V30 4907 H 469.009 -3.94873 -0.481687 0
M  V30 4908 H 465.748 -6.44955 1.17105 0
M  V30 4909 H 465.268 -5.97911 -0.475655 0
M  V30 4910 H 466.947 -6.46852 -0.138354 0
M  V30 4911 N 467.08 -0.0183926 -1.57589 0
M  V30 4912 C 468.012 0.995557 -2.06449 0
M  V30 4913 C 469.025 1.29556 -0.985849 0
M  V30 4914 O 470.214 1.2621 -1.26227 0
M  V30 4915 C 467.314 2.32572 -2.46502 0
M  V30 4916 C 466.487 2.21245 -3.77319 0
M  V30 4917 C 465.546 3.37104 -4.04039 0
M  V30 4918 O 464.572 3.14468 -4.74445 0
M  V30 4919 N 465.774 4.60553 -3.53372 0
M  V30 4920 H 468.539 0.578746 -2.94059 0
M  V30 4921 H 466.1 0.168603 -1.6102 0
M  V30 4922 H 468.092 3.08887 -2.61478 0
M  V30 4923 H 466.662 2.65931 -1.64315 0
M  V30 4924 H 465.882 1.29723 -3.72244 0
M  V30 4925 H 467.17 2.10868 -4.63047 0
M  V30 4926 H 466.568 4.81839 -2.96391 0
M  V30 4927 H 465.125 5.34072 -3.73644 0
M  V30 4928 N 468.558 1.5553 0.254621 0
M  V30 4929 C 469.974 1.4778 0.602753 0
M  V30 4930 C 470.174 0.707047 1.88688 0
M  V30 4931 O 469.23 0.233288 2.5142 0
M  V30 4932 C 470.543 2.92133 0.712648 0
M  V30 4933 C 472.091 3.02458 0.805488 0
M  V30 4934 C 472.566 4.48102 0.947009 0
M  V30 4935 N 474.057 4.52008 1.01207 0
M  V30 4936 C 474.792 5.61939 1.1407 0
M  V30 4937 N 474.288 6.81697 1.23536 0
M  V30 4938 N 476.081 5.49719 1.17325 0
M  V30 4939 H 468.232 2.04085 -0.588463 0
M  V30 4940 H 470.495 0.926229 -0.202001 0
M  V30 4941 H 470.201 3.51332 -0.160766 0
M  V30 4942 H 470.075 3.42187 1.58707 0
M  V30 4943 H 472.462 2.43344 1.66936 0
M  V30 4944 H 472.543 2.55627 -0.0939266 0
M  V30 4945 H 472.187 5.07824 0.087725 0
M  V30 4946 H 472.117 4.92607 1.86135 0
M  V30 4947 H 474.608 3.65749 0.950577 0
M  V30 4948 H 474.921 7.61228 1.33236 0
M  V30 4949 H 473.266 6.84473 1.20508 0
M  V30 4950 H 476.457 4.55095 1.09573 0
M  V30 4951 H 476.63 6.35432 1.27005 0
M  V30 4952 N 470.036 -0.519951 1.48776 0
M  V30 4953 C 471.283 -1.27522 1.57303 0
M  V30 4954 C 471.611 -1.92869 0.251328 0
M  V30 4955 O 470.866 -1.80372 -0.759243 0
M  V30 4956 C 471.165 -2.37864 2.6675 0
M  V30 4957 C 470.831 -1.90103 4.08867 0
M  V30 4958 C 469.493 -1.76795 4.47546 0
M  V30 4959 C 471.845 -1.54133 4.97888 0
M  V30 4960 C 469.173 -1.25868 5.73039 0
M  V30 4961 C 471.525 -1.04665 6.23881 0
M  V30 4962 C 470.189 -0.899823 6.61407 0
M  V30 4963 H 469.459 -0.466636 0.575614 0
M  V30 4964 H 472.106 -0.579109 1.82534 0
M  V30 4965 H 470.411 -3.13186 2.35418 0
M  V30 4966 H 472.108 -2.95969 2.70561 0
M  V30 4967 H 468.698 -2.01414 3.78326 0
M  V30 4968 H 472.882 -1.6327 4.68675 0
M  V30 4969 H 468.138 -1.13196 6.0083 0
M  V30 4970 H 472.312 -0.759074 6.92251 0
M  V30 4971 H 469.939 -0.503011 7.58534 0
M  V30 4972 N 471.514 -1.37532 -0.769588 0
M  V30 4973 C 472.93 -1.18379 -1.07045 0
M  V30 4974 C 473.13 -0.0214312 -2.01489 0
M  V30 4975 O 472.186 0.637809 -2.44312 0
M  V30 4976 C 473.499 -2.50338 -1.66588 0
M  V30 4977 C 475.047 -2.56879 -1.78835 0
M  V30 4978 C 475.522 -3.88974 -2.41792 0
M  V30 4979 N 477.013 -3.90428 -2.4924 0
M  V30 4980 C 477.748 -4.89388 -2.98809 0
M  V30 4981 N 477.244 -5.98745 -3.48535 0
M  V30 4982 N 479.037 -4.76791 -2.97703 0
M  V30 4983 H 471.188 -2.11921 -0.142541 0
M  V30 4984 H 473.451 -0.939608 -0.125863 0
M  V30 4985 H 473.157 -3.35767 -1.0466 0
M  V30 4986 H 473.031 -2.67583 -2.65856 0
M  V30 4987 H 475.418 -1.71856 -2.39895 0
M  V30 4988 H 475.499 -2.43516 -0.783166 0
M  V30 4989 H 475.143 -4.74412 -1.81371 0
M  V30 4990 H 475.073 -3.99641 -3.4292 0
M  V30 4991 H 477.564 -3.11433 -2.14052 0
M  V30 4992 H 477.877 -6.70205 -3.84767 0
M  V30 4993 H 476.222 -6.02387 -3.46634 0
M  V30 4994 H 479.413 -3.90478 -2.58157 0
M  V30 4995 H 479.586 -5.54069 -3.36024 0
M  V30 4996 N 472.992 0.995999 -1.22138 0
M  V30 4997 C 473.902 2.11985 -1.00496 0
M  V30 4998 C 474.918 1.7394 0.0457701 0
M  V30 4999 O 476.094 2.00868 -0.146273 0
M  V30 5000 C 473.159 3.41779 -0.582086 0
M  V30 5001 C 472.22 3.93943 -1.70608 0
M  V30 5002 C 471.453 5.17542 -1.30328 0
M  V30 5003 O 471.676 5.70114 -0.180743 0
M  V30 5004 O 470.61 5.63382 -2.11861 0
M  V30 5005 H 474.436 2.33123 -1.94647 0
M  V30 5006 H 472.021 1.10358 -1.00705 0
M  V30 5007 H 473.903 4.1989 -0.356467 0
M  V30 5008 H 472.578 3.22007 0.330592 0
M  V30 5009 H 471.485 3.17019 -1.98619 0
M  V30 5010 H 472.818 4.18141 -2.59651 0
M  V30 5011 N 474.47 1.03057 1.19235 0
M  V30 5012 C 475.695 0.74757 1.93458 0
M  V30 5013 C 476.12 -0.687648 1.7508 0
M  V30 5014 O 475.478 -1.47499 1.05422 0
M  V30 5015 C 475.526 1.10604 3.43219 0
M  V30 5016 O 474.63 0.225671 4.11782 0
M  V30 5017 H 473.971 0.276047 0.603899 0
M  V30 5018 H 476.501 1.3777 1.51263 0
M  V30 5019 H 476.511 1.06366 3.93891 0
M  V30 5020 H 475.186 2.15165 3.55917 0
M  V30 5021 H 473.763 0.326795 3.71465 0
M  V30 5022 N 475.948 -1.35272 0.808662 0
M  V30 5023 C 477.176 -2.02946 0.402537 0
M  V30 5024 C 477.591 -1.60937 -0.987147 0
M  V30 5025 O 476.948 -0.807917 -1.63643 0
M  V30 5026 C 476.999 -3.58317 0.47868 0
M  V30 5027 O 476.72 -3.98799 1.81358 0
M  V30 5028 C 478.221 -4.43251 0.0656281 0
M  V30 5029 H 475.441 -0.650831 0.163279 0
M  V30 5030 H 477.985 -1.72849 1.09286 0
M  V30 5031 H 476.14 -3.87055 -0.163415 0
M  V30 5032 H 476.554 -4.93451 1.77781 0
M  V30 5033 H 478.028 -5.51738 0.170017 0
M  V30 5034 H 478.505 -4.27913 -0.989278 0
M  V30 5035 H 479.111 -4.19813 0.68096 0
M  V30 5036 N 477.426 -0.562348 -1.47226 0
M  V30 5037 C 478.336 0.185466 -2.33866 0
M  V30 5038 C 479.352 0.906713 -1.48508 0
M  V30 5039 O 480.528 0.874458 -1.81425 0
M  V30 5040 C 477.593 1.19904 -3.25306 0
M  V30 5041 C 476.654 0.484669 -4.26555 0
M  V30 5042 C 475.887 1.44996 -5.13626 0
M  V30 5043 O 476.11 2.68515 -5.03245 0
M  V30 5044 O 475.044 0.971642 -5.94006 0
M  V30 5045 H 478.87 -0.525361 -2.99121 0
M  V30 5046 H 476.455 -0.322916 -1.45868 0
M  V30 5047 H 478.337 1.78399 -3.81774 0
M  V30 5048 H 477.012 1.8917 -2.62672 0
M  V30 5049 H 475.919 -0.141605 -3.73832 0
M  V30 5050 H 477.252 -0.166634 -4.91918 0
M  V30 5051 N 478.904 1.54736 -0.299062 0
M  V30 5052 C 480.15 2.00397 0.311244 0
M  V30 5053 C 480.483 1.18716 1.53688 0
M  V30 5054 O 479.758 0.263154 1.92712 0
M  V30 5055 C 480.041 3.53817 0.669761 0
M  V30 5056 C 479.894 4.46239 -0.564882 0
M  V30 5057 C 481.213 4.13856 1.49702 0
M  V30 5058 H 478.332 0.728493 0.111653 0
M  V30 5059 H 480.974 1.85506 -0.410774 0
M  V30 5060 H 479.124 3.66637 1.28491 0
M  V30 5061 H 480.796 4.45328 -1.20337 0
M  V30 5062 H 479.039 4.16916 -1.19849 0
M  V30 5063 H 479.71 5.5134 -0.269918 0
M  V30 5064 H 482.186 4.04461 0.977284 0
M  V30 5065 H 481.062 5.21365 1.71666 0
M  V30 5066 H 481.323 3.65608 2.48563 0
M  V30 5067 N 480.382 0.0267497 1.57577 0
M  V30 5068 C 481.631 -0.651736 1.9088 0
M  V30 5069 C 481.944 -1.73427 0.904576 0
M  V30 5070 O 483.15 -2.46923 1.12877 0
M  V30 5071 C 481.606 -1.21048 3.38933 0
M  V30 5072 C 481.214 -0.161362 4.47709 0
M  V30 5073 C 482.958 -1.86562 3.81307 0
M  V30 5074 C 480.865 -0.731611 5.86857 0
M  V30 5075 H 479.795 -0.247198 0.712326 0
M  V30 5076 H 482.446 0.0916641 1.83271 0
M  V30 5077 H 480.828 -2.00542 3.41466 0
M  V30 5078 H 482.002 0.61094 4.56732 0
M  V30 5079 H 480.317 0.394877 4.14523 0
M  V30 5080 H 482.914 -2.30178 4.8262 0
M  V30 5081 H 483.257 -2.70735 3.16241 0
M  V30 5082 H 483.79 -1.13762 3.81186 0
M  V30 5083 H 480.529 0.0719329 6.55461 0
M  V30 5084 H 480.049 -1.47245 5.81445 0
M  V30 5085 H 481.728 -1.22208 6.35354 0
M  V30 5086 N 481.861 -1.55662 -0.24637 0
M  V30 5087 C 483.107 -1.77782 -0.975779 0
M  V30 5088 C 483.44 -0.592103 -1.84953 0
M  V30 5089 O 482.715 0.409588 -1.90138 0
M  V30 5090 C 482.998 -3.09788 -1.83584 0
M  V30 5091 C 482.851 -4.38764 -0.990241 0
M  V30 5092 C 484.17 -3.38029 -2.81823 0
M  V30 5093 H 481.289 -0.646789 -0.353317 0
M  V30 5094 H 483.931 -1.88398 -0.246248 0
M  V30 5095 H 482.081 -3.00869 -2.45784 0
M  V30 5096 H 483.753 -4.59675 -0.386897 0
M  V30 5097 H 481.996 -4.32798 -0.294626 0
M  V30 5098 H 482.667 -5.27514 -1.62584 0
M  V30 5099 H 485.143 -3.46915 -2.2976 0
M  V30 5100 H 484.019 -4.3161 -3.39122 0
M  V30 5101 H 484.28 -2.58968 -3.58313 0
M  V30 5102 N 483.339 0.512053 -1.4905 0
M  V30 5103 C 484.289 1.61142 -1.61298 0
M  V30 5104 C 485.273 1.53908 -0.46916 0
M  V30 5105 O 486.465 1.61625 -0.721547 0
M  V30 5106 C 483.594 2.998 -1.67256 0
M  V30 5107 C 482.68 3.12072 -2.87179 0
M  V30 5108 N 483.071 2.94263 -4.11391 0
M  V30 5109 C 481.369 3.43156 -2.84886 0
M  V30 5110 C 482.07 3.10426 -4.91946 0
M  V30 5111 N 481.046 3.38808 -4.251 0
M  V30 5112 H 484.848 1.46011 -2.55065 0
M  V30 5113 H 482.362 0.717934 -1.45669 0
M  V30 5114 H 484.359 3.78794 -1.74128 0
M  V30 5115 H 483.019 3.1601 -0.746195 0
M  V30 5116 H 484.03 2.70661 -4.41546 0
M  V30 5117 H 480.707 3.65611 -2.01581 0
M  V30 5118 H 482.097 3.01243 -6.00585 0
M  V30 5119 N 484.817 1.37938 0.762283 0
M  V30 5120 C 485.727 1.36681 1.90671 0
M  V30 5121 C 486.743 0.265078 1.71969 0
M  V30 5122 O 487.919 0.502055 1.95042 0
M  V30 5123 C 484.984 1.18211 3.25925 0
M  V30 5124 C 484.045 2.3811 3.57214 0
M  V30 5125 C 483.278 2.20512 4.86014 0
M  V30 5126 O 483.501 1.19429 5.57757 0
M  V30 5127 O 482.435 3.08911 5.16583 0
M  V30 5128 H 486.261 2.33091 1.94685 0
M  V30 5129 H 483.846 1.18767 0.906356 0
M  V30 5130 H 485.728 1.09937 4.06807 0
M  V30 5131 H 484.403 0.248807 3.22742 0
M  V30 5132 H 483.31 2.51958 2.76529 0
M  V30 5133 H 484.643 3.30041 3.65149 0
M  V30 5134 N 486.295 -0.989507 1.22664 0
M  V30 5135 C 487.243 -2.10148 0.997035 0
M  V30 5136 C 488.237 -1.6929 -0.0609783 0
M  V30 5137 O 489.443 -1.79766 0.0917523 0
M  V30 5138 H 485.818 -0.687256 0.305259 0
M  V30 5139 H 487.789 -2.26685 1.94053 0
M  V30 5140 C 486.538 -3.4257 0.595085 0
M  V30 5141 H 485.861 -3.74453 1.40089 0
M  V30 5142 H 487.301 -4.21344 0.473869 0
M  V30 5143 C 485.76 -3.29638 -0.695725 0
M  V30 5144 O 486.29 -3.61709 -1.74727 0
M  V30 5145 N 484.496 -2.82814 -0.668173 0
M  V30 5146 H 484.043 -2.56914 0.18787 0
M  V30 5147 H 484.001 -2.74544 -1.5321 0
M  V30 5148 N 487.773 -1.03688 -1.18687 0
M  V30 5149 C 489.184 -0.766488 -1.70241 0
M  V30 5150 C 489.535 0.713052 -1.82784 0
M  V30 5151 O 488.66 1.55529 -1.50465 0
M  V30 5152 C 489.255 -1.38475 -3.09209 0
M  V30 5153 C 487.814 -1.16276 -3.5799 0
M  V30 5154 C 486.961 -1.4778 -2.34641 0
M  V30 5155 H 489.912 -1.20378 -1.03415 0
M  V30 5156 H 489.933 -0.785939 -3.72295 0
M  V30 5157 H 489.445 -2.46157 -3.00048 0
M  V30 5158 H 487.546 -0.104508 -3.72453 0
M  V30 5159 H 487.659 -1.8571 -4.41643 0
M  V30 5160 H 486.023 -0.897366 -2.38368 0
M  V30 5161 H 486.806 -2.56562 -2.28102 0
M  V30 5162 N 489.251 1.34841 -0.815825 0
M  V30 5163 C 490.498 1.98499 -0.400535 0
M  V30 5164 C 490.826 1.64699 1.03463 0
M  V30 5165 O 490.081 0.907006 1.73412 0
M  V30 5166 C 490.38 3.53273 -0.541541 0
M  V30 5167 C 490.046 4.06966 -1.94138 0
M  V30 5168 C 488.708 4.21341 -2.32433 0
M  V30 5169 C 491.06 4.35933 -2.85677 0
M  V30 5170 C 488.388 4.62007 -3.61617 0
M  V30 5171 C 490.74 4.78042 -4.14317 0
M  V30 5172 C 489.404 4.90622 -4.52599 0
M  V30 5173 H 488.674 0.72636 -0.146566 0
M  V30 5174 H 491.321 1.60902 -1.0384 0
M  V30 5175 H 489.626 3.91387 0.179741 0
M  V30 5176 H 491.323 4.00497 -0.20085 0
M  V30 5177 H 487.913 3.96235 -1.63388 0
M  V30 5178 H 492.097 4.24372 -2.57337 0
M  V30 5179 H 487.353 4.69937 -3.91113 0
M  V30 5180 H 491.527 4.99415 -4.85342 0
M  V30 5181 H 489.154 5.2189 -5.52752 0
M  V30 5182 N 490.729 0.570148 1.46925 0
M  V30 5183 C 491.978 0.0487352 2.01641 0
M  V30 5184 C 492.291 -1.31433 1.44861 0
M  V30 5185 O 493.497 -1.92638 1.91318 0
M  V30 5186 C 491.953 0.0365817 3.59881 0
M  V30 5187 C 491.561 1.39719 4.25655 0
M  V30 5188 C 493.305 -0.431545 4.22301 0
M  V30 5189 C 491.212 1.34345 5.75939 0
M  V30 5190 H 490.142 0.0144492 0.753862 0
M  V30 5191 H 492.793 0.719928 1.68788 0
M  V30 5192 H 491.175 -0.700522 3.89755 0
M  V30 5193 H 492.349 2.15303 4.07408 0
M  V30 5194 H 490.664 1.80431 3.75278 0
M  V30 5195 H 493.261 -0.490354 5.32447 0
M  V30 5196 H 493.604 -1.44638 3.90366 0
M  V30 5197 H 494.137 0.251102 3.97007 0
M  V30 5198 H 490.876 2.33469 6.12513 0
M  V30 5199 H 490.396 0.629615 5.96486 0
M  V30 5200 H 492.075 1.051 6.38407 0
M  V30 5201 N 492.207 -1.54576 0.307264 0
M  V30 5202 C 493.432 -2.05139 -0.305379 0
M  V30 5203 C 493.857 -1.18278 -1.46259 0
M  V30 5204 O 493.215 -0.188243 -1.8032 0
M  V30 5205 C 493.263 -3.53066 -0.733283 0
M  V30 5206 O 492.367 -3.69206 -1.83741 0
M  V30 5207 H 491.708 -0.661444 -0.0582105 0
M  V30 5208 H 494.238 -1.99569 0.450931 0
M  V30 5209 H 494.248 -3.95034 -1.02039 0
M  V30 5210 H 492.923 -4.15746 0.113198 0
M  V30 5211 H 491.5 -3.39143 -1.55037 0
M  V30 5212 N 493.685 -0.035106 -1.57561 0
M  V30 5213 C 494.931 0.64318 -1.92331 0
M  V30 5214 C 495.264 1.71434 -0.912368 0
M  V30 5215 O 494.539 1.94395 0.0640303 0
M  V30 5216 C 494.822 1.25411 -3.37556 0
M  V30 5217 C 494.675 0.192109 -4.4939 0
M  V30 5218 C 495.994 2.17041 -3.82859 0
M  V30 5219 H 493.113 0.232341 -0.699419 0
M  V30 5220 H 495.755 -0.0935889 -1.89769 0
M  V30 5221 H 493.905 1.88205 -3.39869 0
M  V30 5222 H 495.577 -0.438849 -4.59208 0
M  V30 5223 H 493.82 -0.481725 -4.31117 0
M  V30 5224 H 494.491 0.659292 -5.48049 0
M  V30 5225 H 496.967 1.64228 -3.8232 0
M  V30 5226 H 495.843 2.56738 -4.85157 0
M  V30 5227 H 496.104 3.06401 -3.18702 0
M  V30 5228 N 495.163 1.55791 0.238111 0
M  V30 5229 C 496.073 1.94196 1.31625 0
M  V30 5230 C 497.089 0.843545 1.52185 0
M  V30 5231 O 498.265 1.1457 1.65637 0
M  V30 5232 C 495.33 2.2365 2.64918 0
M  V30 5233 C 494.391 3.46971 2.52804 0
M  V30 5234 C 493.624 3.7501 3.79741 0
M  V30 5235 O 493.847 3.04982 4.82019 0
M  V30 5236 O 492.781 4.68525 3.77846 0
M  V30 5237 H 496.607 2.86044 1.02043 0
M  V30 5238 H 494.192 1.42786 0.439603 0
M  V30 5239 H 496.074 2.43863 3.4367 0
M  V30 5240 H 494.749 1.34979 2.94215 0
M  V30 5241 H 493.656 3.32055 1.72309 0
M  V30 5242 H 494.989 4.35971 2.28451 0
M  V30 5243 N 496.642 -0.504142 1.49319 0
M  V30 5244 C 497.888 -1.25767 1.59857 0
M  V30 5245 C 498.243 -1.90348 0.280262 0
M  V30 5246 O 497.536 -1.77588 -0.719241 0
M  V30 5247 C 497.73 -2.35021 2.69258 0
M  V30 5248 C 497.559 -1.81154 4.11598 0
M  V30 5249 C 496.329 -1.62596 4.78425 0
M  V30 5250 C 498.527 -1.3252 4.96934 0
M  V30 5251 N 496.509 -1.03625 6.05091 0
M  V30 5252 C 497.88 -0.856633 6.14054 0
M  V30 5253 C 499.935 -1.21063 4.82958 0
M  V30 5254 C 498.638 -0.284841 7.18736 0
M  V30 5255 C 500.664 -0.652815 5.87786 0
M  V30 5256 C 500.026 -0.194461 7.04132 0
M  V30 5257 H 496.125 -0.450293 0.639343 0
M  V30 5258 H 498.709 -0.565344 1.86311 0
M  V30 5259 H 496.88 -3.01719 2.44581 0
M  V30 5260 H 498.612 -3.02061 2.69335 0
M  V30 5261 H 495.367 -1.86873 4.35173 0
M  V30 5262 H 495.791 -0.76076 6.72712 0
M  V30 5263 H 500.433 -1.551 3.93324 0
M  V30 5264 H 498.151 0.0677979 8.08072 0
M  V30 5265 H 501.737 -0.566994 5.79031 0
M  V30 5266 H 500.617 0.230442 7.83861 0
M  V30 5267 N 498.12 -1.38341 -0.754957 0
M  V30 5268 C 499.05 -1.38176 -1.88227 0
M  V30 5269 C 500.031 -0.247873 -1.68284 0
M  V30 5270 O 501.216 -0.45075 -1.88896 0
M  V30 5271 C 498.346 -1.20471 -3.25736 0
M  V30 5272 C 497.3 -2.3105 -3.60278 0
M  V30 5273 C 496.626 -1.98452 -4.96509 0
M  V30 5274 C 497.926 -3.73305 -3.65295 0
M  V30 5275 H 499.62 -2.32512 -1.88622 0
M  V30 5276 H 497.166 -1.1192 -0.906082 0
M  V30 5277 H 499.119 -1.18982 -4.04254 0
M  V30 5278 H 497.843 -0.225965 -3.25817 0
M  V30 5279 H 496.502 -2.31723 -2.84078 0
M  V30 5280 H 496.15 -0.990641 -4.93148 0
M  V30 5281 H 495.85 -2.7251 -5.20588 0
M  V30 5282 H 497.374 -1.98578 -5.77407 0
M  V30 5283 H 498.788 -3.7467 -4.3393 0
M  V30 5284 H 497.185 -4.46557 -4.00883 0
M  V30 5285 H 498.255 -4.05719 -2.65556 0
M  V30 5286 N 499.598 0.982988 -1.23187 0
M  V30 5287 C 500.545 2.07491 -1.01075 0
M  V30 5288 C 501.515 1.65949 0.070905 0
M  V30 5289 O 502.7 1.90629 -0.0806822 0
M  V30 5290 C 499.84 3.39751 -0.605261 0
M  V30 5291 C 498.953 3.94578 -1.75876 0
M  V30 5292 C 498.088 5.15039 -1.3003 0
M  V30 5293 C 497.127 5.62027 -2.42472 0
M  V30 5294 N 496.264 6.73719 -1.97602 0
M  V30 5295 H 501.104 2.25739 -1.9454 0
M  V30 5296 H 498.641 1.10659 -0.969179 0
M  V30 5297 H 500.599 4.15719 -0.351279 0
M  V30 5298 H 499.229 3.21473 0.292382 0
M  V30 5299 H 498.281 3.1539 -2.12681 0
M  V30 5300 H 499.593 4.25422 -2.60418 0
M  V30 5301 H 498.747 5.9833 -1.00429 0
M  V30 5302 H 497.486 4.85843 -0.425216 0
M  V30 5303 H 496.491 4.77318 -2.7285 0
M  V30 5304 H 497.716 5.93244 -3.30512 0
M  V30 5305 H 495.662 6.46287 -1.1247 0
M  V30 5306 H 495.579 7.03934 -2.75705 0
M  V30 5307 H 496.847 7.6049 -1.71098 0
M  V30 5308 N 501.076 1.04316 1.18135 0
M  V30 5309 C 502.324 0.746542 1.87806 0
M  V30 5310 C 502.645 -0.728082 1.80898 0
M  V30 5311 O 501.915 -1.52554 1.22899 0
M  V30 5312 H 500.495 0.273157 0.695265 0
M  V30 5313 H 503.157 1.32044 1.43354 0
M  V30 5314 H 502.253 1.05362 2.93778 0
M  V30 5315 N 502.554 -1.34406 0.822964 0
M  V30 5316 C 503.965 -1.8069 0.469879 0
M  V30 5317 C 504.316 -1.68223 -1.00972 0
M  V30 5318 O 503.441 -1.22226 -1.78577 0
M  V30 5319 C 504.036 -3.28064 0.846118 0
M  V30 5320 C 502.595 -3.72428 0.545402 0
M  V30 5321 C 501.742 -2.56116 1.06301 0
M  V30 5322 H 504.693 -1.22153 1.01313 0
M  V30 5323 H 504.714 -3.80205 0.149922 0
M  V30 5324 H 504.226 -3.37107 1.92304 0
M  V30 5325 H 502.327 -3.68924 -0.522109 0
M  V30 5326 H 502.44 -4.66548 1.0895 0
M  V30 5327 H 500.804 -2.50048 0.484554 0
M  V30 5328 H 501.587 -2.67928 2.14638 0
M  V30 5329 N 504.032 -0.577932 -1.46621 0
M  V30 5330 C 505.281 -0.0594281 -2.01612 0
M  V30 5331 C 505.594 1.30663 -1.45556 0
M  V30 5332 O 506.8 1.91621 -1.92337 0
M  V30 5333 C 505.256 -0.0556666 -3.59857 0
M  V30 5334 C 504.864 -1.41975 -4.24908 0
M  V30 5335 C 506.608 0.409143 -4.22524 0
M  V30 5336 C 504.515 -1.37397 -5.75218 0
M  V30 5337 H 503.445 -0.0184469 -0.753774 0
M  V30 5338 H 506.096 -0.728869 -1.68404 0
M  V30 5339 H 504.478 0.679843 -3.90121 0
M  V30 5340 H 505.652 -2.17461 -4.0626 0
M  V30 5341 H 503.967 -1.82419 -3.74316 0
M  V30 5342 H 506.564 0.46211 -5.32699 0
M  V30 5343 H 506.907 1.42565 -3.91128 0
M  V30 5344 H 507.44 -0.272152 -3.96868 0
M  V30 5345 H 504.179 -2.36714 -6.11267 0
M  V30 5346 H 503.699 -0.661239 -5.96144 0
M  V30 5347 H 505.378 -1.08484 -6.3784 0
M  V30 5348 N 505.51 1.54411 -0.315457 0
M  V30 5349 C 506.44 2.27002 0.547039 0
M  V30 5350 C 507.421 1.27492 1.12605 0
M  V30 5351 O 508.606 1.5629 1.15269 0
M  V30 5352 C 505.736 3.02171 1.71201 0
M  V30 5353 C 504.69 4.0895 1.26268 0
M  V30 5354 C 504.016 4.71915 2.51396 0
M  V30 5355 C 505.316 5.20891 0.383419 0
M  V30 5356 H 507.01 2.99343 -0.0584517 0
M  V30 5357 H 504.556 1.4397 -0.0295527 0
M  V30 5358 H 506.509 3.51681 2.32161 0
M  V30 5359 H 505.233 2.27433 2.34397 0
M  V30 5360 H 503.892 3.60312 0.676062 0
M  V30 5361 H 503.54 3.93801 3.12937 0
M  V30 5362 H 503.24 5.44039 2.22026 0
M  V30 5363 H 504.764 5.24195 3.13133 0
M  V30 5364 H 506.178 5.66206 0.899082 0
M  V30 5365 H 504.575 5.99821 0.182857 0
M  V30 5366 H 505.645 4.81324 -0.587821 0
M  V30 5367 N 506.988 0.0434614 1.5754 0
M  V30 5368 C 507.898 -0.94893 2.14552 0
M  V30 5369 C 508.914 -1.34707 1.10136 0
M  V30 5370 O 510.09 -1.42557 1.42266 0
M  V30 5371 C 507.155 -2.208 2.67298 0
M  V30 5372 C 506.216 -1.86893 3.86484 0
M  V30 5373 C 505.449 -3.06797 4.36705 0
M  V30 5374 O 505.672 -4.19921 3.86034 0
M  V30 5375 O 504.606 -2.8826 5.28384 0
M  V30 5376 H 508.432 -0.494099 2.99654 0
M  V30 5377 H 506.017 -0.177989 1.48336 0
M  V30 5378 H 507.899 -2.94686 3.01228 0
M  V30 5379 H 506.574 -2.65436 1.85272 0
M  V30 5380 H 505.481 -1.10347 3.57455 0
M  V30 5381 H 506.814 -1.47062 4.69716 0
M  V30 5382 N 508.466 -1.55915 -0.229846 0
M  V30 5383 C 509.429 -1.90914 -1.26824 0
M  V30 5384 C 510.429 -0.786999 -1.40225 0
M  V30 5385 O 511.619 -1.05484 -1.38632 0
M  V30 5386 C 508.751 -2.15264 -2.64337 0
M  V30 5387 H 509.944 -2.8378 -0.969998 0
M  V30 5388 H 507.497 -1.49069 -0.4699 0
M  V30 5389 H 508.232 -1.24923 -2.99274 0
M  V30 5390 H 508.017 -2.97005 -2.55989 0
M  V30 5391 H 509.507 -2.43467 -3.39284 0
M  V30 5392 N 509.944 0.496216 -1.49584 0
M  V30 5393 C 511.172 1.27394 -1.63029 0
M  V30 5394 C 511.587 1.86344 -0.303569 0
M  V30 5395 O 510.944 1.68057 0.711547 0
M  V30 5396 C 510.995 2.40077 -2.70269 0
M  V30 5397 O 510.716 1.83549 -3.97796 0
M  V30 5398 C 512.217 3.31372 -2.94462 0
M  V30 5399 H 509.437 0.386211 -0.54871 0
M  V30 5400 H 511.981 0.595163 -1.95648 0
M  V30 5401 H 510.136 3.03775 -2.40415 0
M  V30 5402 H 510.55 2.57561 -4.56905 0
M  V30 5403 H 512.024 4.06707 -3.73221 0
M  V30 5404 H 512.501 3.88654 -2.0456 0
M  V30 5405 H 513.107 2.73435 -3.25751 0
M  V30 5406 N 511.423 1.38739 0.74761 0
M  V30 5407 C 512.386 1.36241 1.84312 0
M  V30 5408 C 513.386 0.261811 1.58654 0
M  V30 5409 O 514.576 0.519031 1.66288 0
M  V30 5410 C 511.708 1.12253 3.21888 0
M  V30 5411 H 512.901 2.33712 1.87933 0
M  V30 5412 H 510.454 1.2412 0.949946 0
M  V30 5413 H 511.189 0.154133 3.23934 0
M  V30 5414 H 510.974 1.91943 3.41907 0
M  V30 5415 H 512.464 1.13215 4.0196 0
M  V30 5416 N 512.901 -0.976442 1.23707 0
M  V30 5417 C 514.149 -1.71487 1.06942 0
M  V30 5418 C 514.47 -1.9098 -0.393897 0
M  V30 5419 O 513.74 -1.48128 -1.28198 0
M  V30 5420 H 512.32 -0.635425 0.392739 0
M  V30 5421 H 514.982 -1.17515 1.55487 0
M  V30 5422 H 514.078 -2.70286 1.56051 0
M  V30 5423 N 514.379 -1.04941 -1.1758 0
M  V30 5424 C 515.656 -0.671918 -1.83697 0
M  V30 5425 C 516.036 0.847929 -1.93322 0
M  V30 5426 O 515.384 1.75287 -1.46583 0
M  V30 5427 C 515.594 -1.35797 -3.21497 0
M  V30 5428 C 516.942 -1.4944 -3.97433 0
M  V30 5429 O 517.966 -1.31678 -3.30967 0
M  V30 5430 O 516.825 -1.78463 -5.1654 0
M  V30 5431 H 513.919 -0.236212 -0.792548 0
M  V30 5432 H 516.465 -1.14884 -1.24899 0
M  V30 5433 H 515.237 -2.39498 -3.09446 0
M  V30 5434 H 514.86 -0.870236 -3.8796 0
M  V30 5435 N 515.857 1.33968 -0.830081 0
M  V30 5436 C 516.767 2.33164 -0.259207 0
M  V30 5437 C 517.783 1.62951 0.610164 0
M  V30 5438 O 518.959 1.94668 0.516369 0
M  V30 5439 C 516.024 3.42088 0.563598 0
M  V30 5440 C 515.085 4.28037 -0.329014 0
M  V30 5441 C 514.318 5.3176 0.454616 0
M  V30 5442 O 514.541 5.44876 1.6872 0
M  V30 5443 O 513.475 6.01669 -0.166794 0
M  V30 5444 H 517.301 2.83832 -1.08041 0
M  V30 5445 H 514.886 1.37154 -0.59239 0
M  V30 5446 H 516.768 4.08581 1.03147 0
M  V30 5447 H 515.443 2.93651 1.36201 0
M  V30 5448 H 514.35 3.64443 -0.844538 0
M  V30 5449 H 515.683 4.79934 -1.09196 0
M  V30 5450 N 517.335 0.585699 1.46312 0
M  V30 5451 C 518.265 -0.133556 2.33118 0
M  V30 5452 C 519.246 -0.880707 1.45525 0
M  V30 5453 O 520.431 -0.855579 1.74337 0
M  V30 5454 C 517.561 -1.14585 3.27853 0
M  V30 5455 C 516.515 -0.513341 4.2491 0
M  V30 5456 C 515.841 -1.63231 5.09175 0
M  V30 5457 C 517.141 0.551413 5.19381 0
M  V30 5458 H 518.835 0.59121 2.93505 0
M  V30 5459 H 516.381 0.285761 1.41136 0
M  V30 5460 H 518.334 -1.65741 3.87438 0
M  V30 5461 H 517.058 -1.90093 2.65579 0
M  V30 5462 H 515.717 -0.0228349 3.66593 0
M  V30 5463 H 515.365 -2.37713 4.43285 0
M  V30 5464 H 515.065 -1.21473 5.74907 0
M  V30 5465 H 516.589 -2.14658 5.71624 0
M  V30 5466 H 518.003 0.124804 5.73164 0
M  V30 5467 H 516.4 0.889486 5.93471 0
M  V30 5468 H 517.47 1.43655 4.63132 0
M  V30 5469 N 518.813 -1.54241 0.323641 0
M  V30 5470 C 520.059 -2.00867 -0.279323 0
M  V30 5471 C 520.392 -1.21146 -1.5178 0
M  V30 5472 O 519.667 -0.29378 -1.92269 0
M  V30 5473 C 519.95 -3.54837 -0.613387 0
M  V30 5474 C 519.803 -4.45284 0.635803 0
M  V30 5475 C 521.122 -4.16186 -1.43099 0
M  V30 5476 H 518.241 -0.730177 -0.100049 0
M  V30 5477 H 520.883 -1.84829 0.440235 0
M  V30 5478 H 519.033 -3.68634 -1.22641 0
M  V30 5479 H 520.705 -4.43357 1.27406 0
M  V30 5480 H 518.948 -4.14956 1.26466 0
M  V30 5481 H 519.619 -5.5084 0.357597 0
M  V30 5482 H 522.095 -4.05964 -0.912814 0
M  V30 5483 H 520.971 -5.24031 -1.6335 0
M  V30 5484 H 521.232 -3.69516 -2.42715 0
M  V30 5485 N 520.291 -0.0518155 -1.57515 0
M  V30 5486 C 521.238 0.922352 -2.11569 0
M  V30 5487 C 522.208 1.30842 -1.02321 0
M  V30 5488 O 523.393 1.39778 -1.29872 0
M  V30 5489 C 520.533 2.19167 -2.6657 0
M  V30 5490 C 519.646 1.86003 -3.89906 0
M  V30 5491 C 518.781 3.07398 -4.33221 0
M  V30 5492 C 517.82 2.70158 -5.49255 0
M  V30 5493 N 516.957 3.84248 -5.8762 0
M  V30 5494 H 521.797 0.454506 -2.94514 0
M  V30 5495 H 519.334 0.212718 -1.45554 0
M  V30 5496 H 521.292 2.93443 -2.96559 0
M  V30 5497 H 519.922 2.63528 -1.86421 0
M  V30 5498 H 518.974 1.01874 -3.66505 0
M  V30 5499 H 520.286 1.54592 -4.74239 0
M  V30 5500 H 519.44 3.89972 -4.64765 0
M  V30 5501 H 518.179 3.41988 -3.477 0
M  V30 5502 H 517.184 1.86001 -5.17382 0
M  V30 5503 H 518.409 2.36759 -6.36492 0
M  V30 5504 H 516.355 4.18638 -5.05053 0
M  V30 5505 H 516.272 3.56538 -6.66646 0
M  V30 5506 H 517.54 4.6746 -6.2378 0
M  V30 5507 N 521.769 1.56035 0.221574 0
M  V30 5508 C 522.699 1.95434 1.2778 0
M  V30 5509 C 523.68 0.822564 1.48889 0
M  V30 5510 O 524.865 1.08486 1.61072 0
M  V30 5511 C 521.995 2.27102 2.62759 0
M  V30 5512 C 520.949 3.4277 2.56306 0
M  V30 5513 C 520.275 3.60043 3.95314 0
M  V30 5514 C 521.575 4.77742 2.11093 0
M  V30 5515 H 523.269 2.83912 0.950504 0
M  V30 5516 H 520.815 1.36596 0.455791 0
M  V30 5517 H 522.768 2.53256 3.36807 0
M  V30 5518 H 521.492 1.35478 2.97176 0
M  V30 5519 H 520.151 3.16664 1.84715 0
M  V30 5520 H 519.799 2.65794 4.27039 0
M  V30 5521 H 519.499 4.37841 3.91879 0
M  V30 5522 H 521.023 3.88545 4.71025 0
M  V30 5523 H 522.437 5.03102 2.74885 0
M  V30 5524 H 520.834 5.58823 2.18716 0
M  V30 5525 H 521.904 4.731 1.06321 0
M  V30 5526 N 523.247 -0.488276 1.49845 0
M  V30 5527 C 524.658 -1.06955 1.53028 0
M  V30 5528 C 525.009 -1.9351 0.323797 0
M  V30 5529 O 524.134 -2.08891 -0.565116 0
M  V30 5530 C 524.729 -1.94643 2.77307 0
M  V30 5531 C 523.288 -2.4791 2.83227 0
M  V30 5532 C 522.435 -1.25833 2.47106 0
M  V30 5533 H 525.386 -0.271626 1.56358 0
M  V30 5534 H 525.407 -2.79496 2.5819 0
M  V30 5535 H 524.919 -1.31621 3.65099 0
M  V30 5536 H 523.02 -3.14535 1.99745 0
M  V30 5537 H 523.133 -2.84193 3.85709 0
M  V30 5538 H 521.497 -1.58764 1.99163 0
M  V30 5539 H 522.28 -0.644993 3.37186 0
M  V30 5540 N 524.725 -1.39134 -0.740242 0
M  V30 5541 C 525.971 -1.36273 -1.50192 0
M  V30 5542 C 526.304 0.0430136 -1.94152 0
M  V30 5543 O 525.579 1.00691 -1.66408 0
M  V30 5544 C 525.862 -2.33041 -2.74525 0
M  V30 5545 C 525.715 -3.82535 -2.36617 0
M  V30 5546 C 527.034 -2.27723 -3.76604 0
M  V30 5547 H 524.153 -0.496323 -0.544823 0
M  V30 5548 H 526.795 -1.70085 -0.846815 0
M  V30 5549 H 524.945 -2.04337 -3.30422 0
M  V30 5550 H 526.617 -4.21967 -1.86391 0
M  V30 5551 H 524.86 -3.99565 -1.68909 0
M  V30 5552 H 525.531 -4.45723 -3.2563 0
M  V30 5553 H 528.007 -2.53091 -3.30279 0
M  V30 5554 H 526.883 -2.97519 -4.61274 0
M  V30 5555 H 527.144 -1.28049 -4.2315 0
M  V30 5556 N 526.204 0.969867 -1.24223 0
M  V30 5557 C 527.151 2.06407 -1.0327 0
M  V30 5558 C 528.121 1.66014 0.0533 0
M  V30 5559 O 529.306 1.90533 -0.100896 0
M  V30 5560 C 526.446 3.3909 -0.641262 0
M  V30 5561 C 525.559 3.9269 -1.80051 0
M  V30 5562 C 524.694 5.13631 -1.35486 0
M  V30 5563 C 523.733 5.59423 -2.48419 0
M  V30 5564 N 522.87 6.71586 -2.04737 0
M  V30 5565 H 527.71 2.23663 -1.96923 0
M  V30 5566 H 525.247 1.09624 -0.980862 0
M  V30 5567 H 527.205 4.15323 -0.395351 0
M  V30 5568 H 525.835 3.21765 0.258269 0
M  V30 5569 H 524.887 3.13116 -2.16014 0
M  V30 5570 H 526.199 4.22636 -2.64916 0
M  V30 5571 H 525.353 5.97231 -1.0677 0
M  V30 5572 H 524.092 4.85364 -0.476722 0
M  V30 5573 H 523.097 4.74398 -2.77897 0
M  V30 5574 H 524.322 5.89705 -3.36786 0
M  V30 5575 H 522.268 6.45058 -1.19318 0
M  V30 5576 H 522.185 7.0097 -2.83156 0
M  V30 5577 H 523.453 7.58633 -1.79154 0
M  V30 5578 N 527.682 1.05563 1.17022 0
M  V30 5579 C 528.612 0.681026 2.23348 0
M  V30 5580 C 529.593 -0.322983 1.67005 0
M  V30 5581 O 530.778 -0.199746 1.9317 0
M  V30 5582 C 527.908 0.0589053 3.4725 0
M  V30 5583 C 526.862 0.988082 4.16438 0
M  V30 5584 C 526.188 0.229646 5.34207 0
M  V30 5585 C 527.488 2.31388 4.68249 0
M  V30 5586 H 529.182 1.56993 2.54938 0
M  V30 5587 H 526.728 0.756302 1.2254 0
M  V30 5588 H 528.681 -0.214982 4.20851 0
M  V30 5589 H 527.405 -0.864968 3.14938 0
M  V30 5590 H 526.064 1.24659 3.44754 0
M  V30 5591 H 525.712 -0.697111 4.98146 0
M  V30 5592 H 525.412 0.848815 5.81437 0
M  V30 5593 H 526.936 -0.0368694 6.10589 0
M  V30 5594 H 528.35 2.09964 5.33468 0
M  V30 5595 H 526.747 2.88736 5.26072 0
M  V30 5596 H 527.817 2.94982 3.84855 0
M  V30 5597 N 529.16 -1.33526 0.837174 0
M  V30 5598 C 530.123 -2.27551 0.274421 0
M  V30 5599 C 531.123 -1.50886 -0.555881 0
M  V30 5600 O 532.313 -1.70227 -0.369918 0
M  V30 5601 C 529.445 -3.35332 -0.613605 0
M  V30 5602 H 530.638 -2.78837 1.10408 0
M  V30 5603 H 528.191 -1.439 0.610126 0
M  V30 5604 H 528.926 -2.89285 -1.46577 0
M  V30 5605 H 528.711 -3.92095 -0.0195341 0
M  V30 5606 H 530.201 -4.05433 -1.00068 0
M  V30 5607 N 530.638 -0.59345 -1.46 0
M  V30 5608 C 531.601 0.123538 -2.28867 0
M  V30 5609 C 532.601 0.808628 -1.38989 0
M  V30 5610 O 533.791 0.658945 -1.61256 0
M  V30 5611 C 530.923 1.1847 -3.19653 0
M  V30 5612 H 532.116 -0.604843 -2.93737 0
M  V30 5613 H 529.669 -0.351875 -1.52288 0
M  V30 5614 H 530.404 1.94431 -2.59552 0
M  V30 5615 H 530.189 0.69783 -3.8584 0
M  V30 5616 H 531.679 1.68726 -3.81997 0
M  V30 5617 N 532.116 1.54067 -0.331816 0
M  V30 5618 C 533.346 2.04833 0.269605 0
M  V30 5619 C 533.754 1.20714 1.45687 0
M  V30 5620 O 533.097 0.232539 1.82222 0
M  V30 5621 C 533.159 3.51386 0.759499 0
M  V30 5622 C 532.823 4.55971 -0.306557 0
M  V30 5623 C 533.82 5.07126 -1.14538 0
M  V30 5624 C 531.505 5.00216 -0.457116 0
M  V30 5625 C 533.499 6.01096 -2.12042 0
M  V30 5626 C 531.186 5.93999 -1.43556 0
M  V30 5627 C 532.184 6.44326 -2.26568 0
M  V30 5628 O 531.872 7.36267 -3.22749 0
M  V30 5629 H 531.604 0.673509 0.0579763 0
M  V30 5630 H 534.158 1.99748 -0.478521 0
M  V30 5631 H 532.388 3.53896 1.55867 0
M  V30 5632 H 534.077 3.85184 1.28017 0
M  V30 5633 H 534.843 4.73716 -1.04009 0
M  V30 5634 H 530.722 4.60652 0.179142 0
M  V30 5635 H 534.266 6.40302 -2.76873 0
M  V30 5636 H 530.163 6.26825 -1.54146 0
M  V30 5637 H 530.931 7.54165 -3.18083 0
M  V30 5638 N 533.594 0.0601682 1.57485 0
M  V30 5639 C 535.005 -0.474217 1.80577 0
M  V30 5640 C 535.356 -1.70365 0.973147 0
M  V30 5641 O 534.481 -2.15544 0.192306 0
M  V30 5642 C 535.076 -0.867102 3.27516 0
M  V30 5643 C 533.635 -1.34642 3.51495 0
M  V30 5644 C 532.782 -0.32594 2.75378 0
M  V30 5645 H 535.733 0.285973 1.56102 0
M  V30 5646 H 535.754 -1.72938 3.38929 0
M  V30 5647 H 535.266 0.0278927 3.8809 0
M  V30 5648 H 533.367 -2.2603 2.96212 0
M  V30 5649 H 533.48 -1.33237 4.60201 0
M  V30 5650 H 531.844 -0.800749 2.41785 0
M  V30 5651 H 532.627 0.561125 3.38683 0
M  V30 5652 N 535.072 -1.5615 -0.213296 0
M  V30 5653 C 536.483 -1.69645 -0.779582 0
M  V30 5654 C 536.834 -0.663615 -1.84636 0
M  V30 5655 O 535.959 0.183633 -2.15619 0
M  V30 5656 C 536.554 -3.07567 -1.42084 0
M  V30 5657 C 535.113 -3.22889 -1.93442 0
M  V30 5658 C 534.26 -2.65581 -0.797612 0
M  V30 5659 H 537.211 -1.58696 0.0114951 0
M  V30 5660 H 537.232 -3.03884 -2.28986 0
M  V30 5661 H 536.744 -3.82716 -0.644187 0
M  V30 5662 H 534.845 -2.52623 -2.73884 0
M  V30 5663 H 534.958 -4.30197 -2.10872 0
M  V30 5664 H 533.322 -2.24278 -1.20712 0
M  V30 5665 H 534.105 -3.43284 -0.033494 0
M  V30 5666 N 536.55 0.480323 -1.50102 0
M  V30 5667 C 537.961 1.06142 -1.53593 0
M  V30 5668 C 538.312 1.93335 -0.334055 0
M  V30 5669 O 537.437 2.09188 0.55403 0
M  V30 5670 C 538.032 1.9317 -2.78336 0
M  V30 5671 C 536.591 2.46405 -2.84538 0
M  V30 5672 C 535.738 1.24521 -2.4777 0
M  V30 5673 H 538.689 0.26333 -1.565 0
M  V30 5674 H 538.71 2.78123 -2.59669 0
M  V30 5675 H 538.222 1.29683 -3.65792 0
M  V30 5676 H 536.323 3.13472 -2.01411 0
M  V30 5677 H 536.436 2.82143 -3.87211 0
M  V30 5678 H 534.8 1.57706 -2.00003 0
M  V30 5679 H 535.583 0.627102 -3.37524 0
M  V30 5680 N 538.028 1.39524 0.732853 0
M  V30 5681 C 538.938 1.40695 1.87729 0
M  V30 5682 C 539.954 0.301496 1.71368 0
M  V30 5683 O 541.13 0.543313 1.93933 0
M  V30 5684 C 538.195 1.25098 3.23344 0
M  V30 5685 C 537.256 2.45634 3.52083 0
M  V30 5686 C 536.489 2.30772 4.81228 0
M  V30 5687 O 536.712 1.31233 5.55098 0
M  V30 5688 O 535.646 3.19799 5.09914 0
M  V30 5689 H 539.472 2.37168 1.89697 0
M  V30 5690 H 537.057 1.20663 0.880959 0
M  V30 5691 H 538.939 1.18541 4.04383 0
M  V30 5692 H 537.614 0.317209 3.22142 0
M  V30 5693 H 536.521 2.57767 2.71122 0
M  V30 5694 H 537.854 3.37712 3.58066 0
M  V30 5695 N 539.506 -0.963266 1.24736 0
M  V30 5696 C 540.753 -1.7068 1.0897 0
M  V30 5697 C 541.081 -1.90934 -0.370751 0
M  V30 5698 O 540.336 -1.47155 -1.29011 0
M  V30 5699 C 540.635 -3.09944 1.7796 0
M  V30 5700 C 540.301 -3.09518 3.27887 0
M  V30 5701 C 538.963 -3.09109 3.68789 0
M  V30 5702 C 541.315 -3.03509 4.23712 0
M  V30 5703 C 538.643 -3.00429 5.03944 0
M  V30 5704 C 540.995 -2.96371 5.5888 0
M  V30 5705 C 539.659 -2.94293 5.99123 0
M  V30 5706 H 538.929 -0.624564 0.398749 0
M  V30 5707 H 541.576 -1.12603 1.54896 0
M  V30 5708 H 539.881 -3.71513 1.2444 0
M  V30 5709 H 541.578 -3.66278 1.63222 0
M  V30 5710 H 538.168 -3.10603 2.95337 0
M  V30 5711 H 542.352 -3.0295 3.93109 0
M  V30 5712 H 537.608 -2.97183 5.34314 0
M  V30 5713 H 541.782 -2.90681 6.32833 0
M  V30 5714 H 539.409 -2.87322 7.03811 0
M  V30 5715 N 540.985 -1.06182 -1.16461 0
M  V30 5716 C 541.917 -0.629584 -2.20383 0
M  V30 5717 C 542.93 0.311834 -1.59786 0
M  V30 5718 O 544.119 0.103 -1.78203 0
M  V30 5719 C 541.219 0.0973695 -3.3876 0
M  V30 5720 C 540.392 -0.857252 -4.28917 0
M  V30 5721 C 539.451 -0.169749 -5.25926 0
M  V30 5722 O 538.477 -0.807044 -5.6345 0
M  V30 5723 N 539.679 1.08911 -5.70192 0
M  V30 5724 H 542.444 -1.52352 -2.58087 0
M  V30 5725 H 540.005 -0.944993 -1.31459 0
M  V30 5726 H 541.997 0.567676 -4.00699 0
M  V30 5727 H 540.567 0.893093 -2.99571 0
M  V30 5728 H 539.787 -1.50696 -3.64259 0
M  V30 5729 H 541.075 -1.50489 -4.86035 0
M  V30 5730 H 540.473 1.62703 -5.41797 0
M  V30 5731 H 539.03 1.50331 -6.34227 0
M  V30 5732 N 542.463 1.3308 -0.844243 0
M  V30 5733 C 543.709 1.98304 -0.452453 0
M  V30 5734 C 544.064 1.65645 0.978746 0
M  V30 5735 O 543.357 0.928849 1.6758 0
M  V30 5736 C 543.551 3.52045 -0.616354 0
M  V30 5737 C 543.38 3.99643 -2.06193 0
M  V30 5738 C 542.15 4.27224 -2.69829 0
M  V30 5739 C 544.348 4.15471 -3.03131 0
M  V30 5740 N 542.33 4.60998 -4.05406 0
M  V30 5741 C 543.701 4.52665 -4.23668 0
M  V30 5742 C 545.756 3.97776 -2.99465 0
M  V30 5743 C 544.459 4.74011 -5.41023 0
M  V30 5744 C 546.485 4.20301 -4.16055 0
M  V30 5745 C 545.847 4.57801 -5.35348 0
M  V30 5746 H 541.946 0.752122 -0.214096 0
M  V30 5747 H 544.53 1.61096 -1.09344 0
M  V30 5748 H 542.701 3.884 -0.00513205 0
M  V30 5749 H 544.433 4.04228 -0.19548 0
M  V30 5750 H 541.188 4.18911 -2.20931 0
M  V30 5751 H 541.612 4.82087 -4.75312 0
M  V30 5752 H 546.254 3.67893 -2.08362 0
M  V30 5753 H 543.972 5.02753 -6.32665 0
M  V30 5754 H 547.558 4.08122 -4.14641 0
M  V30 5755 H 546.438 4.74884 -6.24063 0
M  V30 5756 N 543.941 0.601185 1.45683 0
M  V30 5757 C 545.171 0.0999093 2.06358 0
M  V30 5758 C 545.579 -1.21831 1.44754 0
M  V30 5759 O 544.922 -1.75157 0.553695 0
M  V30 5760 C 544.984 -0.12085 3.59297 0
M  V30 5761 C 544.648 1.11459 4.432 0
M  V30 5762 C 545.645 2.03118 4.7858 0
M  V30 5763 C 543.33 1.34162 4.84051 0
M  V30 5764 C 545.324 3.15814 5.53661 0
M  V30 5765 C 543.011 2.4716 5.58888 0
M  V30 5766 C 544.009 3.37814 5.93608 0
M  V30 5767 O 543.697 4.48846 6.66928 0
M  V30 5768 H 543.429 0.0630316 0.673055 0
M  V30 5769 H 545.983 0.826982 1.88016 0
M  V30 5770 H 544.213 -0.902744 3.76015 0
M  V30 5771 H 545.902 -0.572925 4.01836 0
M  V30 5772 H 546.668 1.86801 4.47583 0
M  V30 5773 H 542.547 0.645018 4.56465 0
M  V30 5774 H 546.091 3.86596 5.8068 0
M  V30 5775 H 541.988 2.63432 5.89299 0
M  V30 5776 H 542.756 4.47446 6.85371 0
M  V30 5777 N 545.419 -1.53889 0.339982 0
M  V30 5778 C 546.366 -2.24902 -0.518452 0
M  V30 5779 C 547.336 -1.24593 -1.09844 0
M  V30 5780 O 548.521 -1.53317 -1.13572 0
M  V30 5781 C 545.661 -3.02262 -1.66529 0
M  V30 5782 C 544.774 -4.17418 -1.11295 0
M  V30 5783 C 543.909 -4.82273 -2.2268 0
M  V30 5784 C 542.948 -5.89503 -1.6478 0
M  V30 5785 N 542.085 -6.48153 -2.69893 0
M  V30 5786 H 546.925 -2.97853 0.0936579 0
M  V30 5787 H 544.462 -1.46986 0.0579924 0
M  V30 5788 H 546.42 -3.45371 -2.3404 0
M  V30 5789 H 545.05 -2.31614 -2.24844 0
M  V30 5790 H 544.102 -3.78976 -0.328886 0
M  V30 5791 H 545.414 -4.94554 -0.649414 0
M  V30 5792 H 544.568 -5.28435 -2.98063 0
M  V30 5793 H 543.307 -4.04552 -2.72376 0
M  V30 5794 H 542.312 -5.42728 -0.879004 0
M  V30 5795 H 543.537 -6.6913 -1.1594 0
M  V30 5796 H 541.483 -5.73298 -3.1885 0
M  V30 5797 H 541.4 -7.20752 -2.28151 0
M  V30 5798 H 542.668 -6.98968 -3.45056 0
M  V30 5799 N 546.897 -0.0685191 -1.57451 0
M  V30 5800 C 548.174 0.642167 -1.84758 0
M  V30 5801 C 548.554 1.87991 -0.960344 0
M  V30 5802 O 547.902 2.28485 -0.0257894 0
M  V30 5803 C 548.112 0.982946 -3.34872 0
M  V30 5804 C 549.46 1.35784 -4.02303 0
M  V30 5805 O 550.484 1.07477 -3.39598 0
M  V30 5806 O 549.343 1.88681 -5.12895 0
M  V30 5807 H 546.437 0.318625 -0.763156 0
M  V30 5808 H 548.983 -0.0992015 -1.6941 0
M  V30 5809 H 547.755 0.10372 -3.91163 0
M  V30 5810 H 547.378 1.78119 -3.55471 0
M  V30 5811 N 548.375 1.56261 0.205012 0
M  V30 5812 C 549.623 1.79684 0.925096 0
M  V30 5813 C 549.944 0.63989 1.84202 0
M  V30 5814 O 549.214 -0.342345 1.92885 0
M  V30 5815 H 547.794 0.662774 0.344587 0
M  V30 5816 H 550.456 1.93734 0.212899 0
M  V30 5817 H 549.552 2.72467 1.52211 0
M  V30 5818 N 549.853 -0.472356 1.50355 0
M  V30 5819 C 550.8 -1.57051 1.69126 0
M  V30 5820 C 551.77 -1.5733 0.532574 0
M  V30 5821 O 552.955 -1.7488 0.762994 0
M  V30 5822 C 550.095 -2.95033 1.79024 0
M  V30 5823 C 549.208 -3.04552 3.06386 0
M  V30 5824 C 548.343 -4.33441 3.07087 0
M  V30 5825 C 547.382 -4.36697 4.28908 0
M  V30 5826 N 546.519 -5.57056 4.27356 0
M  V30 5827 H 551.359 -1.40351 2.62879 0
M  V30 5828 H 548.896 -0.682403 1.30314 0
M  V30 5829 H 550.854 -3.75048 1.82744 0
M  V30 5830 H 549.484 -3.10371 0.887109 0
M  V30 5831 H 548.536 -2.17419 3.12143 0
M  V30 5832 H 549.848 -3.02818 3.96362 0
M  V30 5833 H 549.002 -5.21801 3.09529 0
M  V30 5834 H 547.741 -4.37782 2.14939 0
M  V30 5835 H 546.746 -3.46734 4.2668 0
M  V30 5836 H 547.971 -4.34049 5.22282 0
M  V30 5837 H 545.917 -5.62184 3.3806 0
M  V30 5838 H 545.834 -5.57058 5.111 0
M  V30 5839 H 547.102 -6.47545 4.33942 0
M  V30 5840 N 551.331 -1.39911 -0.725443 0
M  V30 5841 C 552.294 -1.39156 -1.82121 0
M  V30 5842 C 553.294 -0.287018 -1.58218 0
M  V30 5843 O 554.484 -0.545421 -1.65441 0
M  V30 5844 C 551.616 -1.1736 -3.20062 0
M  V30 5845 H 552.809 -2.36672 -1.84191 0
M  V30 5846 H 550.362 -1.25615 -0.930079 0
M  V30 5847 H 551.097 -0.205648 -3.23647 0
M  V30 5848 H 550.882 -1.97358 -3.3881 0
M  V30 5849 H 552.372 -1.19596 -4.00108 0
M  V30 5850 N 552.809 0.956637 -1.25245 0
M  V30 5851 C 553.739 2.07058 -1.07931 0
M  V30 5852 C 554.72 1.70096 0.0110361 0
M  V30 5853 O 555.905 1.93555 -0.158121 0
M  V30 5854 C 553.035 3.40272 -0.695124 0
M  V30 5855 C 551.989 3.91235 -1.73549 0
M  V30 5856 C 551.315 5.20921 -1.20604 0
M  V30 5857 C 552.615 4.17837 -3.13385 0
M  V30 5858 H 554.309 2.218 -2.01109 0
M  V30 5859 H 551.855 1.06581 -0.968326 0
M  V30 5860 H 553.808 4.1765 -0.560949 0
M  V30 5861 H 552.532 3.25462 0.272355 0
M  V30 5862 H 551.191 3.16025 -1.85807 0
M  V30 5863 H 550.839 5.02479 -0.228846 0
M  V30 5864 H 550.539 5.55987 -1.90136 0
M  V30 5865 H 552.063 6.00897 -1.08421 0
M  V30 5866 H 553.477 4.8588 -3.04292 0
M  V30 5867 H 551.874 4.64154 -3.80369 0
M  V30 5868 H 552.944 3.2419 -3.60595 0
M  V30 5869 N 554.287 1.06798 1.15896 0
M  V30 5870 C 555.512 0.808739 1.90982 0
M  V30 5871 C 555.937 -0.6316 1.77179 0
M  V30 5872 O 555.295 -1.4407 1.10061 0
M  V30 5873 C 555.343 1.21468 3.39526 0
M  V30 5874 O 554.447 0.356562 4.10856 0
M  V30 5875 H 553.788 0.29512 0.594811 0
M  V30 5876 H 556.318 1.42513 1.46804 0
M  V30 5877 H 556.328 1.18844 3.90308 0
M  V30 5878 H 555.003 2.26379 3.48891 0
M  V30 5879 H 553.58 0.444808 3.70238 0
M  V30 5880 N 555.766 -1.3263 0.851289 0
M  V30 5881 C 557.014 -1.96978 0.452128 0
M  V30 5882 C 557.335 -1.67715 -0.99482 0
M  V30 5883 O 556.605 -0.98259 -1.69476 0
M  V30 5884 H 555.185 -0.72873 0.164202 0
M  V30 5885 H 557.847 -1.61774 1.08698 0
M  V30 5886 H 556.943 -3.06387 0.594407 0
M  V30 5887 N 557.244 -0.608902 -1.45362 0
M  V30 5888 C 558.66 -0.272659 -1.57254 0
M  V30 5889 C 558.86 1.22477 -1.60005 0
M  V30 5890 O 557.916 2.00785 -1.53106 0
M  V30 5891 C 559.229 -0.944991 -2.85465 0
M  V30 5892 C 560.777 -0.921033 -2.99142 0
M  V30 5893 C 561.252 -1.5734 -4.30126 0
M  V30 5894 N 562.743 -1.53895 -4.36887 0
M  V30 5895 C 563.478 -2.01286 -5.36909 0
M  V30 5896 N 562.974 -2.56768 -6.43461 0
M  V30 5897 N 564.767 -1.92046 -5.28275 0
M  V30 5898 H 556.918 -1.58117 -1.4182 0
M  V30 5899 H 559.181 -0.662437 -0.678146 0
M  V30 5900 H 558.887 -1.99941 -2.89338 0
M  V30 5901 H 558.761 -0.469079 -3.74272 0
M  V30 5902 H 561.148 0.124846 -2.94836 0
M  V30 5903 H 561.229 -1.43522 -2.11743 0
M  V30 5904 H 560.873 -2.61862 -4.35191 0
M  V30 5905 H 560.803 -1.03422 -5.16344 0
M  V30 5906 H 563.294 -1.13366 -3.60495 0
M  V30 5907 H 563.607 -2.9072 -7.16032 0
M  V30 5908 H 561.952 -2.60808 -6.44208 0
M  V30 5909 H 565.143 -1.48439 -4.43941 0
M  V30 5910 H 565.316 -2.29293 -6.06077 0
M  V30 5911 N 558.722 1.53707 -0.348139 0
M  V30 5912 C 559.672 2.2193 0.522592 0
M  V30 5913 C 560.656 1.20831 1.06248 0
M  V30 5914 O 561.848 1.46357 0.995415 0
M  V30 5915 C 558.977 2.99904 1.6707 0
M  V30 5916 C 558.063 4.08364 1.14454 0
M  V30 5917 N 558.454 5.04656 0.339958 0
M  V30 5918 C 556.752 4.22757 1.421 0
M  V30 5919 C 557.453 5.81675 0.0538806 0
M  V30 5920 N 556.429 5.39739 0.646776 0
M  V30 5921 H 560.231 2.93733 -0.099135 0
M  V30 5922 H 557.745 1.61656 -0.15524 0
M  V30 5923 H 559.742 3.47284 2.30651 0
M  V30 5924 H 558.402 2.29629 2.29566 0
M  V30 5925 H 559.413 5.17896 -0.0193552 0
M  V30 5926 H 556.09 3.63704 2.05002 0
M  V30 5927 H 557.48 6.69256 -0.595443 0
M  V30 5928 N 560.2 0.0768682 1.57412 0
M  V30 5929 C 561.425 -0.603404 1.98428 0
M  V30 5930 C 561.85 -1.62047 0.955108 0
M  V30 5931 O 561.208 -1.81129 -0.0786778 0
M  V30 5932 C 561.256 -1.24396 3.38464 0
M  V30 5933 O 560.36 -2.35982 3.3821 0
M  V30 5934 H 559.701 -0.154741 0.645718 0
M  V30 5935 H 562.231 0.152885 2.04028 0
M  V30 5936 H 562.241 -1.5896 3.7576 0
M  V30 5937 H 560.916 -0.498735 4.12899 0
M  V30 5938 H 559.493 -2.03173 3.1269 0
M  V30 5939 N 561.678 -1.56367 -0.196722 0
M  V30 5940 C 563.089 -1.70462 -0.761545 0
M  V30 5941 C 563.44 -0.683161 -1.83922 0
M  V30 5942 O 562.565 0.160753 -2.15802 0
M  V30 5943 C 563.16 -3.09057 -1.38814 0
M  V30 5944 C 561.719 -3.24922 -1.90007 0
M  V30 5945 C 560.866 -2.66412 -0.769399 0
M  V30 5946 H 563.817 -1.58675 0.0283263 0
M  V30 5947 H 563.838 -3.06296 -2.2575 0
M  V30 5948 H 563.35 -3.83378 -0.603559 0
M  V30 5949 H 561.451 -2.55514 -2.71189 0
M  V30 5950 H 561.564 -4.3241 -2.06297 0
M  V30 5951 H 559.928 -2.25546 -1.18326 0
M  V30 5952 H 560.711 -3.433 0.00291773 0
M  V30 5953 N 563.156 0.464375 -1.50603 0
M  V30 5954 C 564.106 1.55929 -1.66343 0
M  V30 5955 C 565.09 1.52338 -0.517887 0
M  V30 5956 O 566.282 1.59248 -0.772601 0
M  V30 5957 C 563.411 2.94327 -1.7671 0
M  V30 5958 C 562.497 3.02777 -2.96962 0
M  V30 5959 N 562.888 2.81026 -4.20545 0
M  V30 5960 C 561.186 3.33919 -2.95659 0
M  V30 5961 C 561.887 2.94618 -5.01573 0
M  V30 5962 N 560.863 3.25112 -4.35664 0
M  V30 5963 H 564.665 1.37822 -2.59581 0
M  V30 5964 H 562.179 0.671227 -1.47879 0
M  V30 5965 H 564.176 3.73063 -1.86091 0
M  V30 5966 H 562.836 3.13476 -0.846353 0
M  V30 5967 H 563.847 2.56477 -4.49933 0
M  V30 5968 H 560.524 3.59013 -2.13111 0
M  V30 5969 H 561.914 2.81984 -6.09865 0
M  V30 5970 N 564.634 1.40294 0.718013 0
M  V30 5971 C 565.597 1.4012 1.81381 0
M  V30 5972 C 566.597 0.295405 1.58063 0
M  V30 5973 O 567.787 0.554187 1.6515 0
M  V30 5974 C 564.919 1.19056 3.19435 0
M  V30 5975 H 566.112 2.37645 1.82933 0
M  V30 5976 H 563.665 1.26107 0.923405 0
M  V30 5977 H 564.4 0.222809 3.23534 0
M  V30 5978 H 564.185 1.99152 3.37758 0
M  V30 5979 H 565.675 1.21716 3.99468 0
M  V30 5980 N 566.112 -0.949982 1.2575 0
M  V30 5981 C 567.042 -2.06483 1.09028 0
M  V30 5982 C 568.023 -1.701 -0.00201532 0
M  V30 5983 O 569.208 -1.93469 0.168383 0
M  V30 5984 C 566.338 -3.39899 0.71316 0
M  V30 5985 C 565.292 -3.90309 1.75621 0
M  V30 5986 C 564.618 -5.20274 1.23365 0
M  V30 5987 C 565.918 -4.16169 3.15596 0
M  V30 5988 H 567.612 -2.20731 2.02283 0
M  V30 5989 H 565.158 -1.06066 0.973964 0
M  V30 5990 H 567.111 -4.17346 0.58309 0
M  V30 5991 H 565.835 -3.25602 -0.255091 0
M  V30 5992 H 564.494 -3.15035 1.8748 0
M  V30 5993 H 564.142 -5.02351 0.255491 0
M  V30 5994 H 563.842 -5.54971 1.93082 0
M  V30 5995 H 565.366 -6.00314 1.11607 0
M  V30 5996 H 566.78 -4.84259 3.06864 0
M  V30 5997 H 565.177 -4.62131 3.82825 0
M  V30 5998 H 566.247 -3.22273 3.6231 0
M  V30 5999 N 567.59 -1.07411 -1.15328 0
M  V30 6000 C 568.836 -0.798831 -1.86404 0
M  V30 6001 C 569.169 0.673433 -1.8215 0
M  V30 6002 O 568.444 1.49428 -1.24505 0
M  V30 6003 C 568.727 -1.30846 -3.35487 0
M  V30 6004 C 568.58 -2.84532 -3.4837 0
M  V30 6005 C 569.899 -0.925486 -4.30259 0
M  V30 6006 H 567.018 -0.291659 -0.676834 0
M  V30 6007 H 569.66 -1.332 -1.35491 0
M  V30 6008 H 567.81 -0.854916 -3.78977 0
M  V30 6009 H 569.482 -3.3818 -3.13739 0
M  V30 6010 H 567.725 -3.22699 -2.8991 0
M  V30 6011 H 568.396 -3.15259 -4.53118 0
M  V30 6012 H 570.872 -1.3163 -3.94731 0
M  V30 6013 H 569.748 -1.3094 -5.33053 0
M  V30 6014 H 570.009 0.168525 -4.41779 0
M  V30 6015 N 569.068 1.32177 -0.85831 0
M  V30 6016 C 569.998 2.31282 -0.321041 0
M  V30 6017 C 570.979 1.59841 0.581786 0
M  V30 6018 O 572.164 1.87619 0.501262 0
M  V30 6019 C 569.294 3.4385 0.48832 0
M  V30 6020 C 568.248 4.26799 -0.320391 0
M  V30 6021 C 567.574 5.31164 0.613934 0
M  V30 6022 C 568.874 4.98829 -1.54813 0
M  V30 6023 H 570.568 2.76469 -1.14915 0
M  V30 6024 H 568.114 1.32916 -0.554028 0
M  V30 6025 H 570.067 4.12224 0.874626 0
M  V30 6026 H 568.791 2.97401 1.34983 0
M  V30 6027 H 567.45 3.60077 -0.688497 0
M  V30 6028 H 567.098 4.80967 1.47239 0
M  V30 6029 H 566.798 5.8755 0.0768097 0
M  V30 6030 H 568.322 6.024 0.997336 0
M  V30 6031 H 569.736 5.59864 -1.23392 0
M  V30 6032 H 568.133 5.64957 -2.02346 0
M  V30 6033 H 569.203 4.26483 -2.30739 0
M  V30 6034 N 570.547 0.616602 1.45037 0
M  V30 6035 C 571.494 -0.0969439 2.30596 0
M  V30 6036 C 572.464 -0.851151 1.42635 0
M  V30 6037 O 573.649 -0.835092 1.71554 0
M  V30 6038 C 570.789 -1.08234 3.27688 0
M  V30 6039 C 569.902 -0.328072 4.30752 0
M  V30 6040 C 569.037 -1.30399 5.14946 0
M  V30 6041 C 568.076 -0.538049 6.09731 0
M  V30 6042 N 567.213 -1.46371 6.86673 0
M  V30 6043 H 572.053 0.63864 2.91076 0
M  V30 6044 H 569.59 0.326733 1.43425 0
M  V30 6045 H 571.548 -1.66688 3.82454 0
M  V30 6046 H 570.178 -1.78523 2.68941 0
M  V30 6047 H 569.23 0.372136 3.78575 0
M  V30 6048 H 570.542 0.269142 4.98073 0
M  V30 6049 H 569.696 -1.96032 5.74157 0
M  V30 6050 H 568.435 -1.93514 4.47665 0
M  V30 6051 H 567.44 0.131852 5.49642 0
M  V30 6052 H 568.665 0.0881732 6.79043 0
M  V30 6053 H 566.611 -2.08233 6.22073 0
M  V30 6054 H 566.528 -0.920152 7.50379 0
M  V30 6055 H 567.796 -2.10932 7.50418 0
M  V30 6056 N 572.025 -1.5352 0.356285 0
M  V30 6057 C 572.935 -2.29151 -0.502712 0
M  V30 6058 C 573.951 -1.34753 -1.1008 0
M  V30 6059 O 575.127 -1.67803 -1.11374 0
M  V30 6060 C 572.192 -3.05911 -1.63154 0
M  V30 6061 C 571.253 -4.15958 -1.06194 0
M  V30 6062 C 570.486 -4.8905 -2.13696 0
M  V30 6063 O 570.709 -4.61919 -3.34645 0
M  V30 6064 O 569.643 -5.75202 -1.77275 0
M  V30 6065 H 573.469 -3.03492 0.112466 0
M  V30 6066 H 571.054 -1.4891 0.120942 0
M  V30 6067 H 572.936 -3.53874 -2.28804 0
M  V30 6068 H 571.611 -2.34415 -2.23229 0
M  V30 6069 H 570.518 -3.7227 -0.369603 0
M  V30 6070 H 571.851 -4.89593 -0.505872 0
M  V30 6071 N 573.503 -0.0852151 -1.57369 0
M  V30 6072 C 574.749 0.581666 -1.94279 0
M  V30 6073 C 575.082 1.68444 -0.966446 0
M  V30 6074 O 574.357 1.945 0.00215277 0
M  V30 6075 C 574.64 1.14609 -3.41375 0
M  V30 6076 C 574.493 0.0490414 -4.49773 0
M  V30 6077 C 575.812 2.04751 -3.8957 0
M  V30 6078 H 572.931 0.209972 -0.706456 0
M  V30 6079 H 575.573 -0.153915 -1.89376 0
M  V30 6080 H 573.723 1.77297 -3.45685 0
M  V30 6081 H 575.395 -0.584721 -4.57579 0
M  V30 6082 H 573.638 -0.618638 -4.29366 0
M  V30 6083 H 574.309 0.484601 -5.49869 0
M  V30 6084 H 576.785 1.51981 -3.87351 0
M  V30 6085 H 575.661 2.41173 -4.93079 0
M  V30 6086 H 575.922 2.96107 -3.28288 0
M  V30 6087 N 574.981 1.5647 0.188427 0
M  V30 6088 C 576.209 1.85131 0.923803 0
M  V30 6089 C 576.624 0.668537 1.76567 0
M  V30 6090 O 575.981 -0.362662 1.7886 0
M  V30 6091 C 576.032 3.12661 1.81453 0
M  V30 6092 O 575.753 4.26378 1.00665 0
M  V30 6093 C 577.254 3.54548 2.66103 0
M  V30 6094 H 574.474 0.614624 0.269218 0
M  V30 6095 H 577.018 2.03581 0.193671 0
M  V30 6096 H 575.173 2.96088 2.49821 0
M  V30 6097 H 575.587 4.99041 1.61425 0
M  V30 6098 H 577.061 4.4673 3.24247 0
M  V30 6099 H 577.538 2.77853 3.40139 0
M  V30 6100 H 578.144 3.73674 2.03096 0
M  V30 6101 N 576.459 -0.456382 1.50847 0
M  V30 6102 C 577.369 -1.57805 1.73594 0
M  V30 6103 C 578.385 -1.62599 0.619476 0
M  V30 6104 O 579.561 -1.80195 0.899532 0
M  V30 6105 C 576.626 -2.93926 1.8387 0
M  V30 6106 C 575.687 -2.99402 3.07663 0
M  V30 6107 C 574.92 -4.29031 3.1744 0
M  V30 6108 O 575.143 -5.20358 2.33631 0
M  V30 6109 O 574.077 -4.40401 4.10281 0
M  V30 6110 H 577.903 -1.41531 2.68705 0
M  V30 6111 H 575.488 -0.637422 1.3512 0
M  V30 6112 H 577.37 -3.74747 1.92725 0
M  V30 6113 H 576.045 -3.10368 0.91944 0
M  V30 6114 H 574.952 -2.17606 3.043 0
M  V30 6115 H 576.285 -2.87901 3.99216 0
M  V30 6116 N 577.937 -1.40673 -0.710563 0
M  V30 6117 C 578.9 -1.4108 -1.80635 0
M  V30 6118 C 579.9 -0.303783 -1.57904 0
M  V30 6119 O 581.09 -0.562937 -1.64853 0
M  V30 6120 C 578.222 -1.20748 -3.18799 0
M  V30 6121 H 579.415 -2.38612 -1.81671 0
M  V30 6122 H 576.968 -1.26595 -0.916704 0
M  V30 6123 H 577.703 -0.239964 -3.23411 0
M  V30 6124 H 577.488 -2.00941 -3.36698 0
M  V30 6125 H 578.978 -1.23833 -3.98817 0
M  V30 6126 N 579.415 0.9433 -1.26252 0
M  V30 6127 C 580.64 1.72898 -1.14547 0
M  V30 6128 C 581.065 1.85761 0.295743 0
M  V30 6129 O 580.423 1.3463 1.21427 0
M  V30 6130 C 580.471 3.11471 -1.8171 0
M  V30 6131 O 579.575 3.97336 -1.10445 0
M  V30 6132 H 578.916 0.530555 -0.399259 0
M  V30 6133 H 581.446 1.18159 -1.67032 0
M  V30 6134 H 581.456 3.61872 -1.88449 0
M  V30 6135 H 580.131 3.01425 -2.86558 0
M  V30 6136 H 578.708 3.55788 -1.11666 0
M  V30 6137 N 580.893 1.08022 1.14757 0
M  V30 6138 C 582.121 0.828847 1.89572 0
M  V30 6139 C 582.536 -0.618621 1.78377 0
M  V30 6140 O 581.893 -1.42482 1.1404 0
M  V30 6141 C 581.944 1.23677 3.39685 0
M  V30 6142 O 581.665 2.62746 3.50566 0
M  V30 6143 C 583.166 1.01569 4.31507 0
M  V30 6144 H 580.386 0.299196 0.600602 0
M  V30 6145 H 582.93 1.43846 1.45357 0
M  V30 6146 H 581.085 0.671347 3.81539 0
M  V30 6147 H 581.499 2.79573 4.43778 0
M  V30 6148 H 582.973 1.35055 5.35223 0
M  V30 6149 H 583.45 -0.0475433 4.39174 0
M  V30 6150 H 584.056 1.56636 3.95405 0
M  V30 6151 N 582.371 -1.3172 0.865308 0
M  V30 6152 C 583.619 -1.96487 0.472995 0
M  V30 6153 C 583.94 -1.68761 -0.976975 0
M  V30 6154 O 583.21 -1.00051 -1.68424 0
M  V30 6155 H 581.79 -0.726947 0.171922 0
M  V30 6156 H 584.452 -1.60612 1.10407 0
M  V30 6157 H 583.548 -3.0574 0.62687 0
M  V30 6158 N 583.85 -0.624285 -1.44708 0
M  V30 6159 C 585.077 -0.132919 -2.06473 0
M  V30 6160 C 585.493 1.18967 -1.46602 0
M  V30 6161 O 584.85 1.72824 -0.586341 0
M  V30 6162 C 584.901 -0.00465418 -3.615 0
M  V30 6163 O 584.622 -1.27494 -4.19138 0
M  V30 6164 C 586.123 0.516213 -4.40284 0
M  V30 6165 H 583.343 -0.0765201 -0.666623 0
M  V30 6166 H 585.887 -0.856751 -1.85688 0
M  V30 6167 H 584.042 0.669583 -3.8157 0
M  V30 6168 H 584.456 -1.11536 -5.12504 0
M  V30 6169 H 585.93 0.554994 -5.49203 0
M  V30 6170 H 586.407 1.5419 -4.11245 0
M  V30 6171 H 587.013 -0.124542 -4.25118 0
M  V30 6172 N 585.328 1.53329 -0.364422 0
M  V30 6173 C 586.558 2.05359 0.226096 0
M  V30 6174 C 586.966 1.23777 1.43094 0
M  V30 6175 O 586.309 0.271139 1.81688 0
M  V30 6176 C 586.371 3.52918 0.684794 0
M  V30 6177 C 586.035 4.55218 -0.403206 0
M  V30 6178 C 587.032 5.04583 -1.2527 0
M  V30 6179 C 584.717 4.99134 -0.563117 0
M  V30 6180 C 586.711 5.96463 -2.24745 0
M  V30 6181 C 584.398 5.9082 -1.56124 0
M  V30 6182 C 585.396 6.39375 -2.40184 0
M  V30 6183 O 585.084 7.29255 -3.38293 0
M  V30 6184 H 584.816 0.674588 0.0436772 0
M  V30 6185 H 587.37 1.98688 -0.520782 0
M  V30 6186 H 585.6 3.57122 1.48326 0
M  V30 6187 H 587.289 3.87812 1.19818 0
M  V30 6188 H 588.055 4.71403 -1.14034 0
M  V30 6189 H 583.934 4.60928 0.0813909 0
M  V30 6190 H 587.478 6.34285 -2.90393 0
M  V30 6191 H 583.375 6.23414 -1.67407 0
M  V30 6192 H 584.143 7.47249 -3.34009 0
M  V30 6193 N 586.806 0.0935595 1.57322 0
M  V30 6194 C 588.034 -0.578934 1.98635 0
M  V30 6195 C 588.449 -1.61819 0.972626 0
M  V30 6196 O 587.806 -1.82461 -0.0379638 0
M  V30 6197 C 587.857 -1.22802 3.40003 0
M  V30 6198 O 587.578 -0.230334 4.37494 0
M  V30 6199 C 589.079 -1.98627 3.96311 0
M  V30 6200 H 586.299 -0.155324 0.652775 0
M  V30 6201 H 588.843 0.172393 2.03772 0
M  V30 6202 H 586.998 -1.93029 3.35885 0
M  V30 6203 H 587.412 -0.698649 5.19826 0
M  V30 6204 H 588.886 -2.39405 4.97382 0
M  V30 6205 H 589.363 -2.85151 3.34044 0
M  V30 6206 H 589.969 -1.3322 4.03897 0
M  V30 6207 N 588.284 -1.56567 -0.180126 0
M  V30 6208 C 589.214 -1.98753 -1.22553 0
M  V30 6209 C 590.195 -0.86175 -1.46656 0
M  V30 6210 O 591.38 -1.12719 -1.58139 0
M  V30 6211 C 588.51 -2.33988 -2.56645 0
M  V30 6212 C 587.464 -3.49445 -2.47128 0
M  V30 6213 C 586.79 -3.70397 -3.8563 0
M  V30 6214 C 588.09 -4.83171 -1.98352 0
M  V30 6215 H 589.784 -2.86332 -0.874896 0
M  V30 6216 H 587.33 -1.37757 -0.419414 0
M  V30 6217 H 589.283 -2.62097 -3.29974 0
M  V30 6218 H 588.007 -1.43309 -2.93479 0
M  V30 6219 H 586.666 -3.2145 -1.76254 0
M  V30 6220 H 586.314 -2.77023 -4.19842 0
M  V30 6221 H 586.014 -4.48077 -3.80132 0
M  V30 6222 H 587.538 -4.00897 -4.60558 0
M  V30 6223 H 588.952 -5.10213 -2.61449 0
M  V30 6224 H 587.349 -5.64425 -2.03823 0
M  V30 6225 H 588.419 -4.75753 -0.937402 0
M  V30 6226 N 589.762 0.448376 -1.51087 0
M  V30 6227 C 590.725 1.52588 -1.71025 0
M  V30 6228 C 591.725 1.49958 -0.580442 0
M  V30 6229 O 592.915 1.52176 -0.847833 0
M  V30 6230 C 590.047 2.92163 -1.75652 0
M  V30 6231 H 591.24 1.36218 -2.67179 0
M  V30 6232 H 588.793 0.676313 -1.4091 0
M  V30 6233 H 589.528 3.13951 -0.812724 0
M  V30 6234 H 589.313 2.95478 -2.57751 0
M  V30 6235 H 590.803 3.70349 -1.92953 0
M  V30 6236 N 591.24 1.41047 0.703093 0
M  V30 6237 C 592.17 1.45067 1.82969 0
M  V30 6238 C 593.151 0.31016 1.67248 0
M  V30 6239 O 594.336 0.520548 1.87093 0
M  V30 6240 C 591.466 1.32478 3.2104 0
M  V30 6241 C 590.42 2.44262 3.51454 0
M  V30 6242 C 589.746 2.16742 4.88801 0
M  V30 6243 C 591.046 3.86606 3.51189 0
M  V30 6244 H 592.74 2.39353 1.79863 0
M  V30 6245 H 590.286 1.15206 0.863919 0
M  V30 6246 H 592.239 1.33904 3.99559 0
M  V30 6247 H 590.963 0.346735 3.24754 0
M  V30 6248 H 589.622 2.42107 2.75282 0
M  V30 6249 H 589.27 1.17299 4.89132 0
M  V30 6250 H 588.97 2.91643 5.10116 0
M  V30 6251 H 590.494 2.19872 5.69639 0
M  V30 6252 H 591.908 3.90517 4.19725 0
M  V30 6253 H 590.305 4.61128 3.84033 0
M  V30 6254 H 591.375 4.15296 2.50315 0
M  V30 6255 N 592.718 -0.936591 1.26751 0
M  V30 6256 C 593.964 -1.68625 1.13741 0
M  V30 6257 C 594.319 -1.898 -0.315221 0
M  V30 6258 O 593.612 -1.47088 -1.22783 0
M  V30 6259 C 593.806 -3.06099 1.84494 0
M  V30 6260 C 593.635 -2.98338 3.36488 0
M  V30 6261 C 592.405 -3.01104 4.05789 0
M  V30 6262 C 594.603 -2.78128 4.32608 0
M  V30 6263 N 592.585 -2.8369 5.4442 0
M  V30 6264 C 593.956 -2.69329 5.58446 0
M  V30 6265 C 596.011 -2.62946 4.22804 0
M  V30 6266 C 594.714 -2.46899 6.75598 0
M  V30 6267 C 596.74 -2.41892 5.39669 0
M  V30 6268 C 596.102 -2.33829 6.64457 0
M  V30 6269 H 592.201 -0.624227 0.471025 0
M  V30 6270 H 594.785 -1.10798 1.601 0
M  V30 6271 H 592.956 -3.62057 1.40604 0
M  V30 6272 H 594.688 -3.69951 1.64067 0
M  V30 6273 H 591.443 -3.10992 3.57185 0
M  V30 6274 H 591.867 -2.78138 6.17226 0
M  V30 6275 H 596.509 -2.67944 3.27056 0
M  V30 6276 H 594.227 -2.40642 7.71438 0
M  V30 6277 H 597.813 -2.31043 5.33957 0
M  V30 6278 H 596.693 -2.17754 7.53361 0
M  V30 6279 N 594.196 -1.08629 -1.14182 0
M  V30 6280 C 595.144 -0.71284 -2.21408 0
M  V30 6281 C 596.138 0.282457 -1.67029 0
M  V30 6282 O 597.344 0.144783 -1.79417 0
M  V30 6283 H 593.719 -0.212497 -0.721352 0
M  V30 6284 H 595.69 -1.6265 -2.50175 0
M  V30 6285 C 594.439 -0.140704 -3.47415 0
M  V30 6286 H 593.762 -0.897739 -3.8959 0
M  V30 6287 H 595.202 0.0827677 -4.23919 0
M  V30 6288 C 593.661 1.122 -3.17668 0
M  V30 6289 O 594.191 2.20652 -3.35672 0
M  V30 6290 N 592.397 1.03328 -2.71609 0
M  V30 6291 H 591.944 0.150666 -2.57159 0
M  V30 6292 H 591.902 1.8789 -2.52081 0
M  V30 6293 N 595.674 1.31259 -0.872281 0
M  V30 6294 C 596.899 2.0133 -0.498099 0
M  V30 6295 C 597.324 1.65031 0.902568 0
M  V30 6296 O 596.682 0.860164 1.59596 0
M  V30 6297 C 596.73 3.54411 -0.665205 0
M  V30 6298 O 595.834 4.11347 0.294473 0
M  V30 6299 H 595.175 0.633844 -0.197832 0
M  V30 6300 H 597.705 1.67402 -1.17633 0
M  V30 6301 H 597.715 4.04147 -0.559373 0
M  V30 6302 H 596.39 3.80171 -1.68651 0
M  V30 6303 H 594.967 3.72624 0.143403 0
M  V30 6304 N 597.152 0.631951 1.44375 0
M  V30 6305 C 598.115 -0.0628142 2.29114 0
M  V30 6306 C 599.115 -0.771494 1.41084 0
M  V30 6307 O 600.305 -0.615959 1.62947 0
M  V30 6308 C 597.437 -1.09953 3.22681 0
M  V30 6309 H 598.63 0.682509 2.92031 0
M  V30 6310 H 596.183 0.392128 1.51301 0
M  V30 6311 H 596.918 -1.87481 2.64616 0
M  V30 6312 H 596.703 -0.595286 3.87555 0
M  V30 6313 H 598.193 -1.58538 3.86336 0
M  V30 6314 N 598.631 -1.53133 0.372548 0
M  V30 6315 C 599.594 -2.24569 -0.458389 0
M  V30 6316 C 600.594 -1.25603 -1.00402 0
M  V30 6317 O 601.784 -1.49827 -0.888672 0
M  V30 6318 C 598.916 -2.98783 -1.6414 0
M  V30 6319 H 600.109 -2.99436 0.166799 0
M  V30 6320 H 597.662 -1.55805 0.124357 0
M  V30 6321 H 598.397 -2.28176 -2.30448 0
M  V30 6322 H 598.182 -3.71404 -1.25704 0
M  V30 6323 H 599.672 -3.53068 -2.23008 0
M  V30 6324 N 600.109 -0.101901 -1.5727 0
M  V30 6325 C 601.357 0.559091 -1.94213 0
M  V30 6326 C 601.678 1.68297 -0.984948 0
M  V30 6327 O 600.948 1.95863 -0.0381975 0
M  V30 6328 H 599.528 0.20952 -0.717015 0
M  V30 6329 H 602.19 -0.166831 -1.94185 0
M  V30 6330 H 601.286 0.96485 -2.96811 0
M  V30 6331 N 601.587 1.56661 0.17182 0
M  V30 6332 C 602.517 1.99401 1.21498 0
M  V30 6333 C 603.498 0.869516 1.46197 0
M  V30 6334 O 604.683 1.13556 1.57539 0
M  V30 6335 C 601.813 2.35346 2.55401 0
M  V30 6336 C 600.767 3.5075 2.45272 0
M  V30 6337 C 600.093 3.72437 3.8366 0
M  V30 6338 C 601.393 4.84216 1.95787 0
M  V30 6339 H 603.087 2.86792 0.859699 0
M  V30 6340 H 600.633 1.37977 0.412103 0
M  V30 6341 H 602.586 2.63843 3.2858 0
M  V30 6342 H 601.31 1.44864 2.92715 0
M  V30 6343 H 599.969 3.2238 1.74547 0
M  V30 6344 H 599.617 2.79246 4.18367 0
M  V30 6345 H 599.317 4.50087 3.77751 0
M  V30 6346 H 600.841 4.03334 4.58426 0
M  V30 6347 H 602.255 5.11592 2.5874 0
M  V30 6348 H 600.652 5.65498 2.00827 0
M  V30 6349 H 601.722 4.76243 0.912159 0
M  V30 6350 N 603.065 -0.440357 1.51323 0
M  V30 6351 C 604.481 -0.7766 1.39431 0
M  V30 6352 C 604.681 -1.95838 0.474296 0
M  V30 6353 O 603.737 -2.52398 -0.0716692 0
M  V30 6354 C 605.05 -1.05981 2.81405 0
M  V30 6355 C 606.598 -1.16442 2.90534 0
M  V30 6356 C 607.073 -1.48058 4.33408 0
M  V30 6357 N 608.564 -1.54988 4.36501 0
M  V30 6358 C 609.299 -1.81017 5.44078 0
M  V30 6359 N 608.795 -2.04858 6.61819 0
M  V30 6360 N 610.588 -1.82774 5.31554 0
M  V30 6361 H 602.739 0.338006 2.09693 0
M  V30 6362 H 605.002 0.0888072 0.943831 0
M  V30 6363 H 604.708 -0.264173 3.50706 0
M  V30 6364 H 604.582 -1.98822 3.20546 0
M  V30 6365 H 606.969 -1.95068 2.21432 0
M  V30 6366 H 607.05 -0.215088 2.54894 0
M  V30 6367 H 606.694 -0.699605 5.03059 0
M  V30 6368 H 606.624 -2.44192 4.66559 0
M  V30 6369 H 609.115 -1.38479 3.51613 0
M  V30 6370 H 609.428 -2.2408 7.396 0
M  V30 6371 H 607.773 -2.02187 6.6494 0
M  V30 6372 H 610.964 -1.63665 4.38556 0
M  V30 6373 H 611.137 -2.02722 6.15474 0
M  V30 6374 N 604.543 -1.41418 -0.695603 0
M  V30 6375 C 605.959 -1.23887 -1.00619 0
M  V30 6376 C 606.159 -0.128206 -2.01092 0
M  V30 6377 O 605.215 0.507408 -2.47349 0
M  V30 6378 C 606.528 -2.58816 -1.53083 0
M  V30 6379 C 608.076 -2.65998 -1.64967 0
M  V30 6380 C 608.551 -4.01244 -2.20833 0
M  V30 6381 N 610.042 -4.0309 -2.28194 0
M  V30 6382 C 610.777 -5.04539 -2.72448 0
M  V30 6383 N 610.273 -6.16378 -3.16306 0
M  V30 6384 N 612.066 -4.91901 -2.72011 0
M  V30 6385 H 604.217 -2.12379 -0.0300061 0
M  V30 6386 H 606.48 -0.944958 -0.0758797 0
M  V30 6387 H 606.186 -3.40842 -0.867147 0
M  V30 6388 H 606.06 -2.81299 -2.51298 0
M  V30 6389 H 608.447 -1.84331 -2.30448 0
M  V30 6390 H 608.528 -2.47325 -0.652982 0
M  V30 6391 H 608.172 -4.83359 -1.55968 0
M  V30 6392 H 608.102 -4.17257 -3.21254 0
M  V30 6393 H 610.593 -3.22341 -1.97242 0
M  V30 6394 H 610.906 -6.89658 -3.487 0
M  V30 6395 H 609.251 -6.19914 -3.14215 0
M  V30 6396 H 612.442 -4.03613 -2.37095 0
M  V30 6397 H 612.615 -5.71102 -3.06181 0
M  V30 6398 N 606.021 0.929856 -1.27246 0
M  V30 6399 C 606.969 2.05151 -1.09616 0
M  V30 6400 C 607.963 1.69388 -0.0198617 0
M  V30 6401 O 609.169 1.79124 -0.177417 0
M  V30 6402 H 605.544 0.671909 -0.337701 0
M  V30 6403 H 607.515 2.17168 -2.04648 0
M  V30 6404 C 606.264 3.3934 -0.757851 0
M  V30 6405 H 605.587 3.67343 -1.57795 0
M  V30 6406 H 607.027 4.18603 -0.674358 0
M  V30 6407 C 605.486 3.32582 0.537658 0
M  V30 6408 O 606.016 3.69633 1.57271 0
M  V30 6409 N 604.222 2.8568 0.532478 0
M  V30 6410 H 603.769 2.55725 -0.310233 0
M  V30 6411 H 603.727 2.81541 1.39936 0
M  V30 6412 N 607.499 1.09233 1.13605 0
M  V30 6413 C 608.748 0.82205 1.84188 0
M  V30 6414 C 609.061 -0.654548 1.84323 0
M  V30 6415 O 610.267 -1.04029 2.50779 0
M  V30 6416 C 608.723 1.42066 3.30674 0
M  V30 6417 C 608.331 2.92965 3.38933 0
M  V30 6418 C 610.075 1.22924 4.06313 0
M  V30 6419 C 607.982 3.45922 4.79679 0
M  V30 6420 H 606.912 0.303854 0.690064 0
M  V30 6421 H 609.563 1.31479 1.28006 0
M  V30 6422 H 607.945 0.855613 3.86646 0
M  V30 6423 H 609.119 3.55679 2.92966 0
M  V30 6424 H 607.434 3.11118 2.76757 0
M  V30 6425 H 610.031 1.59945 5.10217 0
M  V30 6426 H 610.374 0.169726 4.15954 0
M  V30 6427 H 610.907 1.76168 3.56665 0
M  V30 6428 H 607.646 4.51484 4.75229 0
M  V30 6429 H 607.166 2.87971 5.26149 0
M  V30 6430 H 608.845 3.43009 5.48592 0
M  V30 6431 N 608.977 -1.30795 0.87923 0
M  V30 6432 C 610.202 -2.01063 0.508769 0
M  V30 6433 C 610.627 -1.65508 -0.893803 0
M  V30 6434 O 609.985 -0.868616 -1.59138 0
M  V30 6435 C 610.033 -3.54054 0.683991 0
M  V30 6436 O 609.137 -4.11498 -0.272654 0
M  V30 6437 H 608.478 -0.632786 0.201191 0
M  V30 6438 H 611.008 -1.66776 1.18519 0
M  V30 6439 H 611.018 -4.03845 0.580798 0
M  V30 6440 H 609.693 -3.79271 1.70665 0
M  V30 6441 H 608.27 -3.72695 -0.12364 0
M  V30 6442 N 610.455 -0.639598 -1.44038 0
M  V30 6443 C 611.385 0.0469443 -2.33453 0
M  V30 6444 C 612.366 0.82609 -1.48694 0
M  V30 6445 O 613.551 0.790285 -1.77393 0
M  V30 6446 C 610.681 1.02338 -3.3188 0
M  V30 6447 C 609.635 0.355284 -4.26523 0
M  V30 6448 C 608.961 1.44221 -5.14883 0
M  V30 6449 C 610.261 -0.743798 -5.16977 0
M  V30 6450 H 611.955 -0.699735 -2.91108 0
M  V30 6451 H 609.501 -0.337946 -1.39978 0
M  V30 6452 H 611.454 1.51247 -3.93322 0
M  V30 6453 H 610.178 1.80105 -2.72451 0
M  V30 6454 H 608.837 -0.113239 -3.66425 0
M  V30 6455 H 608.485 2.21097 -4.51802 0
M  V30 6456 H 608.185 1.00052 -5.79019 0
M  V30 6457 H 609.709 1.93295 -5.79197 0
M  V30 6458 H 611.123 -0.337444 -5.72306 0
M  V30 6459 H 609.52 -1.10914 -5.89761 0
M  V30 6460 H 610.59 -1.60745 -4.57481 0
M  V30 6461 N 611.933 1.52934 -0.380664 0
M  V30 6462 C 612.843 2.29921 0.466192 0
M  V30 6463 C 613.859 1.36488 1.07922 0
M  V30 6464 O 615.035 1.69553 1.0869 0
M  V30 6465 C 612.1 3.08468 1.58266 0
M  V30 6466 C 611.161 4.17595 0.995627 0
M  V30 6467 C 610.394 4.92387 2.05889 0
M  V30 6468 O 610.617 4.67184 3.27254 0
M  V30 6469 O 609.551 5.77949 1.68102 0
M  V30 6470 H 613.377 3.03274 -0.160735 0
M  V30 6471 H 610.962 1.48698 -0.144617 0
M  V30 6472 H 612.844 3.57469 2.23145 0
M  V30 6473 H 611.519 2.37937 2.19471 0
M  V30 6474 H 610.426 3.72811 0.310332 0
M  V30 6475 H 611.759 4.90336 0.427918 0
M  V30 6476 N 613.412 0.11024 1.57214 0
M  V30 6477 C 614.342 -0.840002 2.17867 0
M  V30 6478 C 615.323 -1.28352 1.11624 0
M  V30 6479 O 616.508 -1.3477 1.39824 0
M  V30 6480 C 613.638 -2.09349 2.77111 0
M  V30 6481 C 612.592 -1.78807 3.8886 0
M  V30 6482 C 611.918 -3.11112 4.34872 0
M  V30 6483 C 613.218 -1.0632 5.11364 0
M  V30 6484 H 614.912 -0.334608 2.97524 0
M  V30 6485 H 612.458 -0.159502 1.43114 0
M  V30 6486 H 614.411 -2.76275 3.18198 0
M  V30 6487 H 613.135 -2.62198 1.9473 0
M  V30 6488 H 611.794 -1.14273 3.48335 0
M  V30 6489 H 611.442 -3.61877 3.49362 0
M  V30 6490 H 611.142 -2.91453 5.10224 0
M  V30 6491 H 612.666 -3.79171 4.78604 0
M  V30 6492 H 614.08 -1.63383 5.49526 0
M  V30 6493 H 612.477 -0.967876 5.92243 0
M  V30 6494 H 613.547 -0.0484569 4.84876 0
M  V30 6495 N 614.89 -1.56749 -0.16351 0
M  V30 6496 C 616.136 -1.82704 -0.880168 0
M  V30 6497 C 616.469 -0.689311 -1.81555 0
M  V30 6498 O 615.744 0.308224 -1.92042 0
M  V30 6499 C 616.027 -3.19084 -1.66905 0
M  V30 6500 C 615.88 -4.43397 -0.756269 0
M  V30 6501 C 617.199 -3.52493 -2.63509 0
M  V30 6502 H 614.318 -0.664608 -0.318535 0
M  V30 6503 H 616.96 -1.89438 -0.146036 0
M  V30 6504 H 615.11 -3.13475 -2.2949 0
M  V30 6505 H 616.782 -4.61079 -0.14269 0
M  V30 6506 H 615.025 -4.33752 -0.0647944 0
M  V30 6507 H 615.696 -5.3539 -1.34393 0
M  V30 6508 H 618.172 -3.58606 -2.11047 0
M  V30 6509 H 617.048 -4.48979 -3.15767 0
M  V30 6510 H 617.309 -2.77597 -3.44082 0
M  V30 6511 N 616.368 0.432326 -1.51554 0
M  V30 6512 C 617.614 1.18309 -1.64714 0
M  V30 6513 C 617.947 1.90745 -0.364696 0
M  V30 6514 O 617.222 1.8381 0.635936 0
M  V30 6515 C 617.505 2.1961 -2.85383 0
M  V30 6516 C 617.358 1.51223 -4.23617 0
M  V30 6517 C 618.677 3.20538 -3.01569 0
M  V30 6518 H 615.796 0.428751 -0.599451 0
M  V30 6519 H 618.438 0.471689 -1.84052 0
M  V30 6520 H 616.588 2.8028 -2.69027 0
M  V30 6521 H 618.26 0.938516 -4.51652 0
M  V30 6522 H 616.503 0.814501 -4.26085 0
M  V30 6523 H 617.174 2.25024 -5.04052 0
M  V30 6524 H 619.65 2.69926 -3.16669 0
M  V30 6525 H 618.526 3.88706 -3.87555 0
M  V30 6526 H 618.787 3.86933 -2.13859 0
M  V30 6527 N 617.846 1.41785 0.688094 0
M  V30 6528 C 618.794 1.44436 1.82321 0
M  V30 6529 C 619.788 0.321544 1.6632 0
M  V30 6530 O 620.994 0.493931 1.73091 0
M  V30 6531 H 617.369 0.452084 0.600936 0
M  V30 6532 H 619.34 2.40087 1.77202 0
M  V30 6533 C 618.089 1.35071 3.20392 0
M  V30 6534 H 617.412 2.2076 3.33324 0
M  V30 6535 H 618.852 1.40988 3.99873 0
M  V30 6536 C 617.311 0.0639127 3.36839 0
M  V30 6537 O 617.841 -0.888495 3.91751 0
M  V30 6538 N 616.047 -0.0146114 2.90596 0
M  V30 6539 H 615.594 0.761191 2.46097 0
M  V30 6540 H 615.552 -0.874988 3.01979 0
M  V30 6541 N 619.324 -0.923095 1.27737 0
M  V30 6542 C 620.57 -1.67375 1.14514 0
M  V30 6543 C 620.903 -1.91751 -0.307424 0
M  V30 6544 O 620.178 -1.51119 -1.22447 0
M  V30 6545 C 620.461 -3.03745 1.9342 0
M  V30 6546 C 620.314 -2.86581 3.46686 0
M  V30 6547 C 621.633 -4.04144 1.74228 0
M  V30 6548 H 618.752 -0.607427 0.417374 0
M  V30 6549 H 621.394 -1.07089 1.56946 0
M  V30 6550 H 619.544 -3.55204 1.5736 0
M  V30 6551 H 621.216 -2.42203 3.92601 0
M  V30 6552 H 619.459 -2.21829 3.72793 0
M  V30 6553 H 620.13 -3.83381 3.97143 0
M  V30 6554 H 622.606 -3.61712 2.05678 0
M  V30 6555 H 621.482 -4.97543 2.31824 0
M  V30 6556 H 621.743 -4.36661 0.691373 0
M  V30 6557 N 620.802 -1.09834 -1.13024 0
M  V30 6558 C 622.213 -0.855651 -1.65938 0
M  V30 6559 C 622.564 0.615159 -1.86307 0
M  V30 6560 O 621.689 1.47335 -1.58497 0
M  V30 6561 C 622.284 -1.5467 -3.01434 0
M  V30 6562 C 620.843 -1.35088 -3.51323 0
M  V30 6563 C 619.99 -1.6001 -2.26478 0
M  V30 6564 H 622.941 -1.25691 -0.968889 0
M  V30 6565 H 622.962 -0.982179 -3.67605 0
M  V30 6566 H 622.474 -2.61715 -2.86578 0
M  V30 6567 H 620.575 -0.30179 -3.71376 0
M  V30 6568 H 620.688 -2.0886 -4.31178 0
M  V30 6569 H 619.052 -1.02246 -2.33276 0
M  V30 6570 H 619.835 -2.68293 -2.14182 0
M  V30 6571 N 622.28 1.30327 -0.886154 0
M  V30 6572 C 623.691 1.78243 -0.555554 0
M  V30 6573 C 624.042 1.72849 0.928314 0
M  V30 6574 O 623.167 1.30607 1.72542 0
M  V30 6575 C 623.762 3.23654 -1.00168 0
M  V30 6576 C 622.321 3.69401 -0.722471 0
M  V30 6577 C 621.468 2.50753 -1.18399 0
M  V30 6578 H 624.419 1.1718 -1.07026 0
M  V30 6579 H 624.44 3.79056 -0.331152 0
M  V30 6580 H 623.952 3.27548 -2.08169 0
M  V30 6581 H 622.053 3.70995 0.345496 0
M  V30 6582 H 622.166 4.60818 -1.31085 0
M  V30 6583 H 620.53 2.47452 -0.603303 0
M  V30 6584 H 621.313 2.57383 -2.27176 0
M  V30 6585 N 623.758 0.647228 1.43697 0
M  V30 6586 C 624.69 -0.0866232 2.29036 0
M  V30 6587 C 625.703 -0.793051 1.42178 0
M  V30 6588 O 626.892 -0.651807 1.66174 0
M  V30 6589 C 623.992 -1.14552 3.18953 0
M  V30 6590 C 623.165 -0.518422 4.34317 0
M  V30 6591 C 622.224 -1.4734 5.05151 0
M  V30 6592 O 621.25 -0.984312 5.60625 0
M  V30 6593 N 622.452 -2.8075 5.08094 0
M  V30 6594 H 625.217 0.645834 2.92659 0
M  V30 6595 H 622.778 0.489567 1.54321 0
M  V30 6596 H 624.77 -1.78505 3.63205 0
M  V30 6597 H 623.34 -1.78001 2.56971 0
M  V30 6598 H 622.56 0.300079 3.93056 0
M  V30 6599 H 623.848 -0.080401 5.08736 0
M  V30 6600 H 623.246 -3.23052 4.64386 0
M  V30 6601 H 621.803 -3.40022 5.56083 0
M  V30 6602 N 625.236 -1.5273 0.388769 0
M  V30 6603 C 626.485 -2.00757 -0.194833 0
M  V30 6604 C 626.798 -1.27951 -1.47946 0
M  V30 6605 O 628.004 -1.66686 -2.14308 0
M  V30 6606 C 626.46 -3.57695 -0.397762 0
M  V30 6607 C 626.068 -4.394 0.873583 0
M  V30 6608 C 627.812 -4.14012 -0.937759 0
M  V30 6609 C 625.719 -5.87938 0.638962 0
M  V30 6610 H 624.649 -0.750101 -0.0765845 0
M  V30 6611 H 627.3 -1.76239 0.511086 0
M  V30 6612 H 625.682 -3.7846 -1.16552 0
M  V30 6613 H 626.856 -4.30403 1.64591 0
M  V30 6614 H 625.171 -3.94301 1.33849 0
M  V30 6615 H 627.768 -5.22645 -1.12899 0
M  V30 6616 H 628.111 -3.7007 -1.90666 0
M  V30 6617 H 628.644 -3.97137 -0.229588 0
M  V30 6618 H 625.383 -6.36202 1.57885 0
M  V30 6619 H 624.903 -5.99726 -0.094443 0
M  V30 6620 H 626.582 -6.46423 0.273299 0
M  V30 6621 N 626.714 -0.118576 -1.57153 0
M  V30 6622 C 627.664 0.842924 -2.11846 0
M  V30 6623 C 628.648 1.22845 -1.03914 0
M  V30 6624 O 629.84 1.19961 -1.30148 0
M  V30 6625 C 626.969 2.09312 -2.72109 0
M  V30 6626 C 626.055 1.73198 -3.87122 0
M  V30 6627 N 626.446 1.07758 -4.94188 0
M  V30 6628 C 624.744 2.02659 -3.97298 0
M  V30 6629 C 625.445 0.907741 -5.74574 0
M  V30 6630 N 624.421 1.4326 -5.24383 0
M  V30 6631 H 628.223 0.333416 -2.92003 0
M  V30 6632 H 625.737 0.0839073 -1.62183 0
M  V30 6633 H 627.734 2.79162 -3.09635 0
M  V30 6634 H 626.394 2.60807 -1.93416 0
M  V30 6635 H 627.405 0.741613 -5.12563 0
M  V30 6636 H 624.082 2.56204 -3.29645 0
M  V30 6637 H 625.472 0.394112 -6.70743 0
M  V30 6638 N 628.193 1.56834 0.155195 0
M  V30 6639 C 629.103 2.009 1.21146 0
M  V30 6640 C 630.119 0.923029 1.475 0
M  V30 6641 O 631.295 1.23189 1.59331 0
M  V30 6642 C 628.36 2.37378 2.52691 0
M  V30 6643 C 627.421 3.59883 2.34057 0
M  V30 6644 C 626.654 3.94612 3.59329 0
M  V30 6645 O 626.877 3.30104 4.65175 0
M  V30 6646 O 625.811 4.87895 3.52479 0
M  V30 6647 H 629.637 2.9105 0.867371 0
M  V30 6648 H 627.222 1.44916 0.363298 0
M  V30 6649 H 629.104 2.61737 3.3026 0
M  V30 6650 H 627.779 1.50385 2.86646 0
M  V30 6651 H 626.686 3.40722 1.54465 0
M  V30 6652 H 628.019 4.47468 2.0502 0
M  V30 6653 N 629.671 -0.424282 1.51781 0
M  V30 6654 C 630.618 -1.51591 1.74037 0
M  V30 6655 C 631.588 -1.55556 0.582358 0
M  V30 6656 O 632.773 -1.72364 0.818245 0
M  V30 6657 C 629.913 -2.89188 1.8832 0
M  V30 6658 C 629.026 -2.9465 3.1592 0
M  V30 6659 C 628.161 -4.23452 3.20721 0
M  V30 6660 C 627.2 -4.22831 4.42584 0
M  V30 6661 N 626.337 -5.43178 4.44862 0
M  V30 6662 H 631.177 -1.31917 2.67212 0
M  V30 6663 H 628.714 -0.640599 1.32419 0
M  V30 6664 H 630.672 -3.69044 1.94583 0
M  V30 6665 H 629.302 -3.07392 0.985402 0
M  V30 6666 H 628.354 -2.07378 3.18902 0
M  V30 6667 H 629.666 -2.90055 4.05795 0
M  V30 6668 H 628.82 -5.1169 3.25973 0
M  V30 6669 H 627.559 -4.30722 2.28757 0
M  V30 6670 H 626.564 -3.32984 4.37495 0
M  V30 6671 H 627.789 -4.17213 5.35826 0
M  V30 6672 H 625.735 -5.51145 3.55775 0
M  V30 6673 H 625.652 -5.40515 5.28563 0
M  V30 6674 H 626.92 -6.33412 4.54324 0
M  V30 6675 N 631.149 -1.42148 -0.680565 0
M  V30 6676 C 632.059 -1.47565 -1.82378 0
M  V30 6677 C 633.075 -0.36489 -1.70131 0
M  V30 6678 O 634.251 -0.614916 -1.91783 0
M  V30 6679 C 631.316 -1.37013 -3.18478 0
M  V30 6680 C 630.377 -2.58532 -3.42724 0
M  V30 6681 C 629.61 -2.48473 -4.72331 0
M  V30 6682 O 629.833 -1.51745 -5.49845 0
M  V30 6683 O 628.767 -3.38503 -4.97694 0
M  V30 6684 H 632.593 -2.44045 -1.80764 0
M  V30 6685 H 630.178 -1.23849 -0.835569 0
M  V30 6686 H 632.06 -1.33468 -3.99705 0
M  V30 6687 H 630.735 -0.436552 -3.20743 0
M  V30 6688 H 629.642 -2.67652 -2.61368 0
M  V30 6689 H 630.975 -3.50769 -3.45286 0
M  V30 6690 N 632.627 0.916307 -1.28225 0
M  V30 6691 C 633.59 1.99996 -1.11957 0
M  V30 6692 C 634.59 1.60688 -0.0600152 0
M  V30 6693 O 635.78 1.71499 -0.30558 0
M  V30 6694 C 632.912 3.33458 -0.708411 0
M  V30 6695 H 634.105 2.15858 -2.08196 0
M  V30 6696 H 631.658 1.09863 -1.11175 0
M  V30 6697 H 632.393 3.23297 0.254859 0
M  V30 6698 H 632.178 3.63349 -1.47377 0
M  V30 6699 H 633.668 4.13014 -0.617164 0
M  V30 6700 N 634.105 1.10431 1.1244 0
M  V30 6701 C 635.33 0.869089 1.88313 0
M  V30 6702 C 635.755 -0.574912 1.79099 0
M  V30 6703 O 635.113 -1.40496 1.14589 0
M  V30 6704 C 635.161 1.32208 3.3549 0
M  V30 6705 O 634.265 0.487092 4.09513 0
M  V30 6706 H 633.606 0.313894 0.585121 0
M  V30 6707 H 636.136 1.47111 1.42195 0
M  V30 6708 H 636.146 1.31201 3.86329 0
M  V30 6709 H 634.821 2.37364 3.41513 0
M  V30 6710 H 633.398 0.562372 3.68635 0
M  V30 6711 N 635.583 -1.29855 0.893053 0
M  V30 6712 C 636.808 -2.00512 0.530066 0
M  V30 6713 C 637.233 -1.66446 -0.876199 0
M  V30 6714 O 636.591 -0.885446 -1.58207 0
M  V30 6715 C 636.639 -3.53308 0.721505 0
M  V30 6716 O 635.743 -4.11764 -0.228994 0
M  V30 6717 H 635.084 -0.630617 0.207891 0
M  V30 6718 H 637.614 -1.6551 1.20282 0
M  V30 6719 H 637.624 -4.03206 0.623599 0
M  V30 6720 H 636.299 -3.77439 1.74678 0
M  V30 6721 H 634.876 -3.72805 -0.0841034 0
M  V30 6722 N 637.061 -0.65484 -1.43351 0
M  V30 6723 C 638.472 -0.248506 -1.85039 0
M  V30 6724 C 638.823 1.20526 -1.54816 0
M  V30 6725 O 637.948 1.92016 -0.99794 0
M  V30 6726 C 638.543 -0.444241 -3.35875 0
M  V30 6727 C 637.102 -0.0922108 -3.76287 0
M  V30 6728 C 636.249 -0.746327 -2.67068 0
M  V30 6729 H 639.2 -0.8584 -1.33481 0
M  V30 6730 H 639.221 0.309762 -3.79237 0
M  V30 6731 H 638.733 -1.50239 -3.5784 0
M  V30 6732 H 636.834 0.96328 -3.59933 0
M  V30 6733 H 636.947 -0.518807 -4.76283 0
M  V30 6734 H 635.311 -0.179416 -2.54067 0
M  V30 6735 H 636.094 -1.80754 -2.91861 0
M  V30 6736 N 638.539 1.52521 -0.396863 0
M  V30 6737 C 639.764 2.06571 0.185258 0
M  V30 6738 C 640.189 1.26605 1.39115 0
M  V30 6739 O 639.547 0.293055 1.78916 0
M  V30 6740 C 639.595 3.5674 0.526189 0
M  V30 6741 O 638.699 3.7929 1.61903 0
M  V30 6742 H 638.04 0.663712 0.0195474 0
M  V30 6743 H 640.57 1.966 -0.566519 0
M  V30 6744 H 640.58 4.00311 0.788338 0
M  V30 6745 H 639.255 4.14379 -0.355397 0
M  V30 6746 H 637.832 3.47605 1.35 0
M  V30 6747 N 640.017 0.126909 1.57088 0
M  V30 6748 C 641.266 -0.529024 1.94639 0
M  V30 6749 C 641.579 -1.67323 1.01304 0
M  V30 6750 O 642.785 -2.39245 1.28352 0
M  V30 6751 C 641.241 -0.992483 3.45945 0
M  V30 6752 C 640.849 0.123691 4.47829 0
M  V30 6753 C 642.593 -1.61934 3.924 0
M  V30 6754 C 640.5 -0.356911 5.90322 0
M  V30 6755 H 639.43 -0.201397 0.726605 0
M  V30 6756 H 642.081 0.208032 1.82317 0
M  V30 6757 H 640.463 -1.7842 3.53528 0
M  V30 6758 H 641.637 0.900168 4.51922 0
M  V30 6759 H 639.952 0.657699 4.11173 0
M  V30 6760 H 642.549 -1.9902 4.96281 0
M  V30 6761 H 642.892 -2.50075 3.32819 0
M  V30 6762 H 643.425 -0.892894 3.8765 0
M  V30 6763 H 640.164 0.488636 6.53676 0
M  V30 6764 H 639.684 -1.0997 5.89633 0
M  V30 6765 H 641.363 -0.815547 6.41839 0
M  V30 6766 N 641.495 -1.56914 -0.146875 0
M  V30 6767 C 642.725 -1.87243 -0.873126 0
M  V30 6768 C 643.133 -0.713127 -1.75246 0
M  V30 6769 O 642.476 0.326228 -1.8078 0
M  V30 6770 C 642.538 -3.12279 -1.78107 0
M  V30 6771 C 642.202 -4.44082 -1.07889 0
M  V30 6772 C 643.199 -5.18096 -0.432734 0
M  V30 6773 C 640.884 -4.90807 -1.06836 0
M  V30 6774 C 642.878 -6.37039 0.214569 0
M  V30 6775 C 640.565 -6.09674 -0.417243 0
M  V30 6776 C 641.563 -6.82636 0.223093 0
M  V30 6777 O 641.251 -7.99245 0.863884 0
M  V30 6778 H 640.983 -0.624896 -0.257839 0
M  V30 6779 H 643.537 -2.04892 -0.14434 0
M  V30 6780 H 641.767 -2.90639 -2.5508 0
M  V30 6781 H 643.456 -3.28854 -2.37929 0
M  V30 6782 H 644.222 -4.83066 -0.432677 0
M  V30 6783 H 640.101 -4.3394 -1.55618 0
M  V30 6784 H 643.645 -6.93927 0.714965 0
M  V30 6785 H 639.542 -6.44165 -0.414967 0
M  V30 6786 H 640.31 -8.14912 0.765564 0
M  V30 6787 N 642.974 0.416227 -1.52004 0
M  V30 6788 C 644.199 1.19029 -1.69843 0
M  V30 6789 C 644.624 1.83708 -0.404103 0
M  V30 6790 O 643.982 1.69711 0.637787 0
M  V30 6791 C 644.03 2.23439 -2.83032 0
M  V30 6792 O 643.134 3.29419 -2.48106 0
M  V30 6793 H 642.475 0.347785 -0.565634 0
M  V30 6794 H 645.005 0.488871 -1.98674 0
M  V30 6795 H 645.015 2.67884 -3.07737 0
M  V30 6796 H 643.69 1.75745 -3.76944 0
M  V30 6797 H 642.267 2.90303 -2.34048 0
M  V30 6798 N 644.452 1.42507 0.673017 0
M  V30 6799 C 645.868 1.25472 0.986355 0
M  V30 6800 C 646.068 0.160181 2.00862 0
M  V30 6801 O 645.124 -0.467993 2.48125 0
M  V30 6802 C 646.437 2.61219 1.48947 0
M  V30 6803 C 647.985 2.68589 1.60715 0
M  V30 6804 C 648.46 4.04707 2.14422 0
M  V30 6805 N 649.951 4.0667 2.21752 0
M  V30 6806 C 650.686 5.0881 2.64386 0
M  V30 6807 N 650.182 6.21332 3.0646 0
M  V30 6808 N 651.975 4.96166 2.64151 0
M  V30 6809 H 644.126 2.124 -0.00378532 0
M  V30 6810 H 646.389 0.946046 0.0608367 0
M  V30 6811 H 646.095 3.42179 0.812812 0
M  V30 6812 H 645.969 2.85261 2.46791 0
M  V30 6813 H 648.356 1.87974 2.27486 0
M  V30 6814 H 648.437 2.48333 0.613552 0
M  V30 6815 H 648.081 4.8578 1.48258 0
M  V30 6816 H 648.011 4.22315 3.14575 0
M  V30 6817 H 650.502 3.25438 1.92089 0
M  V30 6818 H 650.815 6.95118 3.37684 0
M  V30 6819 H 649.16 6.24835 3.04313 0
M  V30 6820 H 652.351 4.07334 2.30644 0
M  V30 6821 H 652.524 5.759 2.97057 0
M  V30 6822 N 645.93 -0.909495 1.28709 0
M  V30 6823 C 646.88 -1.9991 1.09636 0
M  V30 6824 C 647.864 -1.60889 0.01872 0
M  V30 6825 O 649.056 -1.75374 0.239338 0
M  V30 6826 C 646.185 -3.34675 0.764702 0
M  V30 6827 C 645.271 -3.80085 1.8814 0
M  V30 6828 N 645.662 -3.97824 3.12361 0
M  V30 6829 C 643.96 -4.09278 1.77221 0
M  V30 6830 C 644.661 -4.35928 3.85151 0
M  V30 6831 N 643.637 -4.44426 3.13028 0
M  V30 6832 H 647.439 -2.11681 2.03883 0
M  V30 6833 H 644.953 -1.09763 1.1969 0
M  V30 6834 H 646.95 -4.12426 0.609132 0
M  V30 6835 H 645.61 -3.24255 -0.169952 0
M  V30 6836 H 646.621 -3.83626 3.47925 0
M  V30 6837 H 643.298 -4.0747 0.909621 0
M  V30 6838 H 644.688 -4.57581 4.92006 0
M  V30 6839 N 647.408 -1.11026 -1.11852 0
M  V30 6840 C 648.633 -0.879064 -1.87849 0
M  V30 6841 C 649.058 0.565406 -1.79401 0
M  V30 6842 O 648.416 1.39886 -1.15333 0
M  V30 6843 C 648.464 -1.33985 -3.34784 0
M  V30 6844 O 647.568 -0.508803 -4.09249 0
M  V30 6845 H 646.909 -0.316992 -0.583448 0
M  V30 6846 H 649.439 -1.47863 -1.41413 0
M  V30 6847 H 649.449 -1.33248 -3.85628 0
M  V30 6848 H 648.124 -2.39172 -3.40249 0
M  V30 6849 H 646.701 -0.581913 -3.68332 0
M  V30 6850 N 648.886 1.2938 -0.899927 0
M  V30 6851 C 650.302 1.48052 -0.596059 0
M  V30 6852 C 650.502 1.82114 0.862372 0
M  V30 6853 O 649.558 1.91774 1.64253 0
M  V30 6854 C 650.871 2.59332 -1.52208 0
M  V30 6855 C 652.419 2.73208 -1.5273 0
M  V30 6856 C 652.894 3.87617 -2.43961 0
M  V30 6857 N 654.385 3.9495 -2.42009 0
M  V30 6858 C 655.12 4.82824 -3.09303 0
M  V30 6859 N 654.616 5.75387 -3.85877 0
M  V30 6860 N 656.409 4.76317 -2.98459 0
M  V30 6861 H 648.56 1.05546 -1.8432 0
M  V30 6862 H 650.823 0.524314 -0.78981 0
M  V30 6863 H 650.529 2.41029 -2.56121 0
M  V30 6864 H 650.403 3.56139 -1.24278 0
M  V30 6865 H 652.79 2.90908 -0.495614 0
M  V30 6866 H 652.871 1.76975 -1.84698 0
M  V30 6867 H 652.515 3.70672 -3.47224 0
M  V30 6868 H 652.445 4.83218 -2.09303 0
M  V30 6869 H 654.936 3.28744 -1.86375 0
M  V30 6870 H 655.249 6.39235 -4.34279 0
M  V30 6871 H 653.594 5.75272 -3.89984 0
M  V30 6872 H 656.785 4.0299 -2.38152 0
M  V30 6873 H 656.958 5.44589 -3.51179 0
M  V30 6874 N 650.364 0.662433 1.43002 0
M  V30 6875 C 651.296 -0.062326 2.29115 0
M  V30 6876 C 652.309 -0.777926 1.43011 0
M  V30 6877 O 653.498 -0.634146 1.66856 0
M  V30 6878 C 650.598 -1.11163 3.2015 0
M  V30 6879 C 649.771 -0.472327 4.34842 0
M  V30 6880 C 648.83 -1.41974 5.06685 0
M  V30 6881 O 647.856 -0.924795 5.61637 0
M  V30 6882 N 649.058 -2.75345 5.11043 0
M  V30 6883 H 651.823 0.676838 2.91957 0
M  V30 6884 H 649.384 0.505907 1.53793 0
M  V30 6885 H 651.376 -1.74643 3.65078 0
M  V30 6886 H 649.946 -1.75266 2.58845 0
M  V30 6887 H 649.166 0.341751 3.92716 0
M  V30 6888 H 650.454 -0.0264381 5.08793 0
M  V30 6889 H 649.852 -3.18108 4.67786 0
M  V30 6890 H 648.409 -3.34105 5.59658 0
M  V30 6891 N 651.842 -1.52309 0.404946 0
M  V30 6892 C 652.805 -2.25491 -0.410651 0
M  V30 6893 C 653.805 -1.27704 -0.977154 0
M  V30 6894 O 654.995 -1.51679 -0.856691 0
M  V30 6895 C 652.127 -3.02197 -1.57765 0
M  V30 6896 H 653.32 -2.99015 0.230277 0
M  V30 6897 H 650.873 -1.55506 0.157377 0
M  V30 6898 H 651.608 -2.33013 -2.25556 0
M  V30 6899 H 651.393 -3.73987 -1.17797 0
M  V30 6900 H 652.883 -3.57719 -2.15469 0
M  V30 6901 N 653.32 -0.135238 -1.57019 0
M  V30 6902 C 654.25 0.805235 -2.19176 0
M  V30 6903 C 655.231 1.2656 -1.13651 0
M  V30 6904 O 656.416 1.32528 -1.4195 0
M  V30 6905 C 653.546 2.04914 -2.80406 0
M  V30 6906 C 652.5 1.72598 -3.91655 0
M  V30 6907 C 651.826 3.04154 -4.39766 0
M  V30 6908 C 653.126 0.981709 -5.12991 0
M  V30 6909 H 654.82 0.287232 -2.98019 0
M  V30 6910 H 652.366 0.136714 -1.4335 0
M  V30 6911 H 654.319 2.71178 -3.22553 0
M  V30 6912 H 653.043 2.59067 -1.98877 0
M  V30 6913 H 651.702 1.08717 -3.50109 0
M  V30 6914 H 651.35 3.56274 -3.55075 0
M  V30 6915 H 651.05 2.83299 -5.14796 0
M  V30 6916 H 652.574 3.71509 -4.84576 0
M  V30 6917 H 653.988 1.5462 -5.52056 0
M  V30 6918 H 652.385 0.873533 -5.93708 0
M  V30 6919 H 653.455 -0.0286887 -4.84892 0
M  V30 6920 N 654.798 1.5699 0.138552 0
M  V30 6921 C 656.026 1.87976 0.864437 0
M  V30 6922 C 656.441 0.724372 1.74351 0
M  V30 6923 O 655.798 -0.305575 1.79924 0
M  V30 6924 C 655.849 3.18276 1.71414 0
M  V30 6925 O 655.57 4.29365 0.870487 0
M  V30 6926 C 657.071 3.62834 2.54688 0
M  V30 6927 H 654.291 0.622878 0.249528 0
M  V30 6928 H 656.835 2.04094 0.128805 0
M  V30 6929 H 654.99 3.03886 2.40274 0
M  V30 6930 H 655.404 5.03924 1.45466 0
M  V30 6931 H 656.878 4.5682 3.0987 0
M  V30 6932 H 657.355 2.88533 3.31127 0
M  V30 6933 H 657.961 3.79946 1.91105 0
M  V30 6934 N 656.276 -0.40816 1.52223 0
M  V30 6935 C 657.516 -1.16418 1.68006 0
M  V30 6936 C 657.88 -1.87749 0.401793 0
M  V30 6937 O 659.081 -2.65245 0.435743 0
M  V30 6938 C 657.352 -2.13143 2.86889 0
M  V30 6939 S 658.911 -2.96839 3.2316 0
M  V30 6940 H 655.729 -0.394373 0.5916 0
M  V30 6941 H 658.331 -0.451349 1.90219 0
M  V30 6942 H 657.035 -1.59428 3.78168 0
M  V30 6943 H 656.566 -2.88963 2.66953 0
M  V30 6944 H 658.581 -4.151 2.71857 0
M  V30 6945 N 657.755 -1.42862 -0.66545 0
M  V30 6946 C 658.983 -1.47246 -1.45349 0
M  V30 6947 C 659.398 -0.0865944 -1.88601 0
M  V30 6948 O 658.755 0.900652 -1.58728 0
M  V30 6949 C 658.806 -2.40772 -2.6965 0
M  V30 6950 O 658.527 -3.73968 -2.2821 0
M  V30 6951 C 660.028 -2.54272 -3.63126 0
M  V30 6952 H 657.248 -0.500497 -0.446927 0
M  V30 6953 H 659.792 -1.87477 -0.816871 0
M  V30 6954 H 657.947 -2.0377 -3.29479 0
M  V30 6955 H 658.361 -4.24146 -3.08546 0
M  V30 6956 H 659.835 -3.23815 -4.47043 0
M  V30 6957 H 660.312 -1.58364 -4.09656 0
M  V30 6958 H 660.918 -2.92036 -3.09185 0
M  V30 6959 N 659.233 0.902656 -1.29189 0
M  V30 6960 C 660.196 1.98797 -1.14071 0
M  V30 6961 C 661.196 1.60615 -0.0770549 0
M  V30 6962 O 662.386 1.71165 -0.323753 0
M  V30 6963 C 659.518 3.32688 -0.743739 0
M  V30 6964 H 660.711 2.13637 -2.10473 0
M  V30 6965 H 658.264 1.08678 -1.12334 0
M  V30 6966 H 658.999 3.23549 0.220554 0
M  V30 6967 H 658.784 3.61765 -1.51223 0
M  V30 6968 H 660.274 4.12337 -0.660935 0
M  V30 6969 N 660.711 1.11618 1.11262 0
M  V30 6970 C 661.941 0.88745 1.86569 0
M  V30 6971 C 662.349 -0.56636 1.80524 0
M  V30 6972 O 661.692 -1.40289 1.18594 0
M  V30 6973 C 661.754 1.27313 3.36202 0
M  V30 6974 C 661.418 2.73649 3.66013 0
M  V30 6975 C 662.415 3.71863 3.63337 0
M  V30 6976 C 660.1 3.10342 3.9496 0
M  V30 6977 C 662.094 5.04788 3.89188 0
M  V30 6978 C 659.781 4.43451 4.20469 0
M  V30 6979 C 660.779 5.40484 4.17572 0
M  V30 6980 O 660.467 6.71195 4.42439 0
M  V30 6981 H 660.199 0.317543 0.596777 0
M  V30 6982 H 662.753 1.48768 1.41624 0
M  V30 6983 H 660.983 0.616062 3.81761 0
M  V30 6984 H 662.672 1.01991 3.92877 0
M  V30 6985 H 663.438 3.44861 3.41022 0
M  V30 6986 H 659.317 2.35431 3.9635 0
M  V30 6987 H 662.861 5.80516 3.86842 0
M  V30 6988 H 658.758 4.70187 4.42261 0
M  V30 6989 H 659.526 6.77012 4.59997 0
M  V30 6990 N 662.189 -1.289 0.906776 0
M  V30 6991 C 663.437 -1.94883 0.535266 0
M  V30 6992 C 663.758 -1.71784 -0.922791 0
M  V30 6993 O 663.028 -1.05359 -1.65156 0
M  V30 6994 H 661.608 -0.721109 0.194962 0
M  V30 6995 H 664.27 -1.57018 1.15461 0
M  V30 6996 H 663.366 -3.03591 0.723821 0
M  V30 6997 N 663.667 -0.670007 -1.42649 0
M  V30 6998 C 664.913 -0.190568 -2.01903 0
M  V30 6999 C 665.246 1.19817 -1.52832 0
M  V30 7000 O 664.521 1.80342 -0.728485 0
M  V30 7001 C 664.804 -0.21991 -3.59428 0
M  V30 7002 C 664.657 -1.64376 -4.18689 0
M  V30 7003 C 665.976 0.434519 -4.3795 0
M  V30 7004 H 663.095 -0.0707219 -0.733599 0
M  V30 7005 H 665.737 -0.853883 -1.69732 0
M  V30 7006 H 663.887 0.344894 -3.86966 0
M  V30 7007 H 665.559 -2.26044 -4.02122 0
M  V30 7008 H 663.802 -2.18591 -3.747 0
M  V30 7009 H 664.473 -1.61601 -5.27815 0
M  V30 7010 H 666.949 -0.0462156 -4.16074 0
M  V30 7011 H 665.825 0.38333 -5.4756 0
M  V30 7012 H 666.086 1.51135 -4.15464 0
M  V30 7013 N 665.145 1.52092 -0.413018 0
M  V30 7014 C 666.556 1.86617 0.0556967 0
M  V30 7015 C 666.907 1.33156 1.44097 0
M  V30 7016 O 666.032 0.672417 2.05688 0
M  V30 7017 C 666.627 3.38628 0.107844 0
M  V30 7018 C 665.186 3.72778 0.520904 0
M  V30 7019 C 664.333 2.75649 -0.302109 0
M  V30 7020 H 667.284 1.45663 -0.629919 0
M  V30 7021 H 667.305 3.69152 0.922324 0
M  V30 7022 H 666.817 3.77508 -0.900506 0
M  V30 7023 H 664.918 3.39478 1.53575 0
M  V30 7024 H 665.031 4.7838 0.262591 0
M  V30 7025 H 663.395 2.53603 0.236115 0
M  V30 7026 H 664.178 3.17369 -1.30888 0
M  V30 7027 N 666.623 0.143563 1.56945 0
M  V30 7028 C 667.553 -0.7936 2.196 0
M  V30 7029 C 668.534 -1.25955 1.14321 0
M  V30 7030 O 669.719 -1.31773 1.42651 0
M  V30 7031 C 666.849 -2.03424 2.81489 0
M  V30 7032 C 665.803 -1.70519 3.92565 0
M  V30 7033 C 665.129 -3.01817 4.41373 0
M  V30 7034 C 666.429 -0.95449 5.13504 0
M  V30 7035 H 668.123 -0.271423 2.98167 0
M  V30 7036 H 665.669 -0.12911 1.4342 0
M  V30 7037 H 667.622 -2.69463 3.23987 0
M  V30 7038 H 666.346 -2.58008 2.00248 0
M  V30 7039 H 665.005 -1.06859 3.5068 0
M  V30 7040 H 664.653 -3.54386 3.56959 0
M  V30 7041 H 664.353 -2.80565 5.16292 0
M  V30 7042 H 665.877 -3.68934 4.86539 0
M  V30 7043 H 667.291 -1.5169 5.52868 0
M  V30 7044 H 665.688 -0.842035 5.94163 0
M  V30 7045 H 666.758 0.0544033 4.84869 0
M  V30 7046 N 668.101 -1.57061 -0.130224 0
M  V30 7047 C 669.512 -1.73539 -0.68856 0
M  V30 7048 C 669.863 -0.760554 -1.80859 0
M  V30 7049 O 668.988 0.0690796 -2.1629 0
M  V30 7050 C 669.583 -3.14666 -1.25581 0
M  V30 7051 C 668.142 -3.32689 -1.76055 0
M  V30 7052 C 667.289 -2.69436 -0.655712 0
M  V30 7053 H 670.24 -1.58412 0.0956002 0
M  V30 7054 H 670.261 -3.15595 -2.12556 0
M  V30 7055 H 669.773 -3.85593 -0.440412 0
M  V30 7056 H 667.874 -2.66786 -2.60108 0
M  V30 7057 H 667.987 -4.4077 -1.87772 0
M  V30 7058 H 666.351 -2.30362 -1.08654 0
M  V30 7059 H 667.134 -3.42979 0.14852 0
M  V30 7060 N 669.579 0.400081 -1.52437 0
M  V30 7061 C 670.509 1.4947 -1.7939 0
M  V30 7062 C 671.49 1.57383 -0.645329 0
M  V30 7063 O 672.675 1.72511 -0.891826 0
M  V30 7064 C 669.805 2.87201 -1.95276 0
M  V30 7065 C 668.759 2.94134 -3.10917 0
M  V30 7066 C 668.085 4.34207 -3.1204 0
M  V30 7067 C 669.385 2.64791 -4.50203 0
M  V30 7068 H 671.079 1.27165 -2.71052 0
M  V30 7069 H 668.625 0.610312 -1.30427 0
M  V30 7070 H 670.578 3.63772 -2.12715 0
M  V30 7071 H 669.302 3.10819 -1.00294 0
M  V30 7072 H 667.961 2.20009 -2.93243 0
M  V30 7073 H 667.609 4.54848 -2.14761 0
M  V30 7074 H 667.309 4.39768 -3.89715 0
M  V30 7075 H 668.833 5.127 -3.31619 0
M  V30 7076 H 670.247 3.31083 -4.68035 0
M  V30 7077 H 668.644 2.81717 -5.29864 0
M  V30 7078 H 669.714 1.60184 -4.57678 0
M  V30 7079 N 671.057 1.43213 0.657864 0
M  V30 7080 C 672.282 1.48227 1.45064 0
M  V30 7081 C 672.707 0.0999939 1.87834 0
M  V30 7082 O 672.065 -0.905269 1.57081 0
M  V30 7083 C 672.113 2.42931 2.6649 0
M  V30 7084 O 671.217 1.91237 3.6538 0
M  V30 7085 H 670.558 0.501551 0.435135 0
M  V30 7086 H 673.088 1.8808 0.805431 0
M  V30 7087 H 673.098 2.6008 3.1436 0
M  V30 7088 H 671.773 3.43348 2.34701 0
M  V30 7089 H 670.35 1.83726 3.24498 0
M  V30 7090 N 672.536 -0.895792 1.29666 0
M  V30 7091 C 673.785 -1.64131 1.17234 0
M  V30 7092 C 674.098 -1.93665 -0.274416 0
M  V30 7093 O 675.304 -2.66472 -0.520105 0
M  V30 7094 C 673.76 -2.95764 2.05065 0
M  V30 7095 C 673.368 -2.7381 3.54587 0
M  V30 7096 C 675.112 -3.737 2.01367 0
M  V30 7097 C 673.019 -4.01194 4.34508 0
M  V30 7098 H 671.949 -0.615742 0.435175 0
M  V30 7099 H 674.6 -0.992626 1.54335 0
M  V30 7100 H 672.982 -3.61867 1.60837 0
M  V30 7101 H 674.156 -2.16277 4.06892 0
M  V30 7102 H 672.471 -2.09265 3.59996 0
M  V30 7103 H 675.068 -4.68152 2.58337 0
M  V30 7104 H 675.411 -4.04245 0.994575 0
M  V30 7105 H 675.944 -3.14444 2.43659 0
M  V30 7106 H 672.683 -3.75813 5.37071 0
M  V30 7107 H 672.203 -4.58272 3.86971 0
M  V30 7108 H 673.882 -4.69307 4.45376 0
M  V30 7109 N 674.014 -1.12206 -1.10668 0
M  V30 7110 C 674.946 -0.74552 -2.16736 0
M  V30 7111 C 675.959 0.226696 -1.61214 0
M  V30 7112 O 677.148 0.0083936 -1.78498 0
M  V30 7113 C 674.248 -0.0823368 -3.388 0
M  V30 7114 C 673.421 -1.08341 -4.2377 0
M  V30 7115 C 672.48 -0.448292 -5.24287 0
M  V30 7116 O 671.506 -1.10458 -5.58379 0
M  V30 7117 N 672.708 0.785336 -5.75163 0
M  V30 7118 H 675.473 -1.65818 -2.49649 0
M  V30 7119 H 673.034 -1.01335 -1.26265 0
M  V30 7120 H 675.026 0.354476 -4.03145 0
M  V30 7121 H 673.596 0.733041 -3.03884 0
M  V30 7122 H 672.816 -1.69792 -3.55759 0
M  V30 7123 H 674.104 -1.76042 -4.77375 0
M  V30 7124 H 673.502 1.33755 -5.4966 0
M  V30 7125 H 672.059 1.16501 -6.41304 0
M  V30 7126 N 675.492 1.28418 -0.913599 0
M  V30 7127 C 676.738 1.95627 -0.556933 0
M  V30 7128 C 677.093 1.706 0.889565 0
M  V30 7129 O 676.386 1.01637 1.6242 0
M  V30 7130 C 676.58 3.48283 -0.802099 0
M  V30 7131 C 676.409 3.88151 -2.27088 0
M  V30 7132 C 675.179 4.1232 -2.92096 0
M  V30 7133 C 677.377 3.98819 -3.24728 0
M  V30 7134 N 675.359 4.3886 -4.29272 0
M  V30 7135 C 676.73 4.29571 -4.47067 0
M  V30 7136 C 678.785 3.81342 -3.20129 0
M  V30 7137 C 677.488 4.44667 -5.65388 0
M  V30 7138 C 679.514 3.97656 -4.37749 0
M  V30 7139 C 678.876 4.2878 -5.58862 0
M  V30 7140 H 674.975 0.739715 -0.253664 0
M  V30 7141 H 677.559 1.55074 -1.1773 0
M  V30 7142 H 675.73 3.87826 -0.211007 0
M  V30 7143 H 677.462 4.02623 -0.409478 0
M  V30 7144 H 674.217 4.06611 -2.42826 0
M  V30 7145 H 674.641 4.56214 -5.00198 0
M  V30 7146 H 679.283 3.56331 -2.2757 0
M  V30 7147 H 677.001 4.68509 -6.58426 0
M  V30 7148 H 680.587 3.85569 -4.35692 0
M  V30 7149 H 679.467 4.41136 -6.48359 0
M  V30 7150 N 676.97 0.677563 1.42291 0
M  V30 7151 C 677.92 -0.0218641 2.2799 0
M  V30 7152 C 678.904 -0.770816 1.41235 0
M  V30 7153 O 680.096 -0.649273 1.64662 0
M  V30 7154 C 677.225 -0.970449 3.29298 0
M  V30 7155 C 676.311 -0.218695 4.23536 0
M  V30 7156 N 676.702 0.777908 4.99782 0
M  V30 7157 C 675 -0.456748 4.43655 0
M  V30 7158 C 675.701 1.22632 5.68627 0
M  V30 7159 N 674.677 0.55573 5.40752 0
M  V30 7160 H 678.479 0.742516 2.84366 0
M  V30 7161 H 675.993 0.506862 1.54288 0
M  V30 7162 H 677.99 -1.48652 3.89497 0
M  V30 7163 H 676.65 -1.73463 2.74483 0
M  V30 7164 H 677.661 1.15754 5.04798 0
M  V30 7165 H 674.338 -1.20021 3.99877 0
M  V30 7166 H 675.728 2.05231 6.39789 0
M  V30 7167 N 678.448 -1.51871 0.421078 0
M  V30 7168 C 679.694 -2.02894 -0.143346 0
M  V30 7169 C 680.049 -1.30054 -1.41787 0
M  V30 7170 O 679.342 -0.401776 -1.8734 0
M  V30 7171 C 679.536 -3.54764 -0.433292 0
M  V30 7172 C 679.365 -4.42316 0.811584 0
M  V30 7173 C 678.135 -4.872 1.34033 0
M  V30 7174 C 680.333 -4.85631 1.69313 0
M  V30 7175 N 678.315 -5.58915 2.53944 0
M  V30 7176 C 679.686 -5.56248 2.7384 0
M  V30 7177 C 681.741 -4.67634 1.70947 0
M  V30 7178 C 680.444 -6.10777 3.79927 0
M  V30 7179 C 682.47 -5.23068 2.7596 0
M  V30 7180 C 681.832 -5.93617 3.79207 0
M  V30 7181 H 677.931 -0.78188 -0.0137104 0
M  V30 7182 H 680.515 -1.85919 0.578105 0
M  V30 7183 H 678.686 -3.71787 -1.12378 0
M  V30 7184 H 680.418 -3.92464 -0.987644 0
M  V30 7185 H 677.173 -4.65035 0.896606 0
M  V30 7186 H 677.597 -5.99408 3.14704 0
M  V30 7187 H 682.239 -4.12566 0.9246 0
M  V30 7188 H 679.957 -6.64909 4.59262 0
M  V30 7189 H 683.543 -5.11005 2.78147 0
M  V30 7190 H 682.423 -6.35743 4.5913 0
M  V30 7191 N 679.926 -0.151884 -1.56866 0
M  V30 7192 C 681.342 0.204486 -1.58285 0
M  V30 7193 C 681.542 1.6431 -1.16639 0
M  V30 7194 O 680.598 2.37077 -0.868946 0
M  V30 7195 C 681.911 -0.0587019 -3.00643 0
M  V30 7196 C 683.459 0.00462303 -3.13 0
M  V30 7197 C 683.934 -0.231297 -4.57416 0
M  V30 7198 N 685.425 -0.178394 -4.62856 0
M  V30 7199 C 686.16 -0.335379 -5.72418 0
M  V30 7200 N 685.656 -0.550355 -6.90611 0
M  V30 7201 N 687.449 -0.272641 -5.61438 0
M  V30 7202 H 679.6 -1.09116 -1.82229 0
M  V30 7203 H 681.863 -0.432311 -0.843689 0
M  V30 7204 H 681.569 -1.05453 -3.35518 0
M  V30 7205 H 681.443 0.658508 -3.71407 0
M  V30 7206 H 683.83 0.991009 -2.77962 0
M  V30 7207 H 683.911 -0.744992 -2.44711 0
M  V30 7208 H 683.555 -1.2148 -4.93158 0
M  V30 7209 H 683.485 0.5387 -5.23837 0
M  V30 7210 H 685.976 -0.0170923 -3.77896 0
M  V30 7211 H 686.289 -0.660116 -7.69976 0
M  V30 7212 H 684.634 -0.586736 -6.92519 0
M  V30 7213 H 687.825 -0.105421 -4.67981 0
M  V30 7214 H 687.998 -0.398418 -6.46774 0
M  V30 7215 N 681.404 1.57128 0.121893 0
M  V30 7216 C 682.815 1.73902 0.679348 0
M  V30 7217 C 683.166 0.770135 1.80453 0
M  V30 7218 O 682.291 -0.0576083 2.16323 0
M  V30 7219 C 682.886 3.15328 1.2391 0
M  V30 7220 C 681.445 3.33618 1.74288 0
M  V30 7221 C 680.592 2.6978 0.641414 0
M  V30 7222 H 683.543 1.58359 -0.104 0
M  V30 7223 H 683.564 3.16718 2.10879 0
M  V30 7224 H 683.076 3.85821 0.419957 0
M  V30 7225 H 681.177 2.68162 2.58689 0
M  V30 7226 H 681.29 4.4176 1.85432 0
M  V30 7227 H 679.654 2.30935 1.0743 0
M  V30 7228 H 680.437 3.42895 -0.166707 0
M  V30 7229 N 682.882 -0.391992 1.52647 0
M  V30 7230 C 684.128 -1.13563 1.68745 0
M  V30 7231 C 684.483 -1.87745 0.420685 0
M  V30 7232 O 683.776 -1.82434 -0.585529 0
M  V30 7233 C 683.97 -2.14401 2.85949 0
M  V30 7234 C 683.799 -1.50124 4.23902 0
M  V30 7235 C 682.569 -1.2666 4.89168 0
M  V30 7236 C 684.767 -0.952933 5.05395 0
M  V30 7237 N 682.749 -0.584555 6.11111 0
M  V30 7238 C 684.12 -0.398784 6.18716 0
M  V30 7239 C 686.175 -0.849053 4.90607 0
M  V30 7240 C 684.878 0.249084 7.18869 0
M  V30 7241 C 686.904 -0.215011 5.91009 0
M  V30 7242 C 686.266 0.328382 7.03634 0
M  V30 7243 H 682.365 -0.401628 0.670984 0
M  V30 7244 H 684.949 -0.425585 1.89992 0
M  V30 7245 H 683.12 -2.82746 2.66288 0
M  V30 7246 H 684.852 -2.8125 2.90999 0
M  V30 7247 H 681.607 -1.54078 4.47836 0
M  V30 7248 H 682.031 -0.259663 6.76502 0
M  V30 7249 H 686.673 -1.25497 4.03745 0
M  V30 7250 H 684.391 0.667019 8.05342 0
M  V30 7251 H 687.977 -0.135921 5.81641 0
M  V30 7252 H 686.857 0.811257 7.79992 0
M  V30 7253 N 684.36 -1.4356 -0.65026 0
M  V30 7254 C 685.588 -1.48779 -1.43779 0
M  V30 7255 C 686.003 -0.106593 -1.88499 0
M  V30 7256 O 685.36 0.883766 -1.59674 0
M  V30 7257 C 685.411 -2.43618 -2.67081 0
M  V30 7258 O 685.132 -3.76367 -2.24231 0
M  V30 7259 C 686.633 -2.5811 -3.60409 0
M  V30 7260 H 683.853 -0.50521 -0.441593 0
M  V30 7261 H 686.397 -1.88332 -0.796941 0
M  V30 7262 H 684.552 -2.07253 -3.273 0
M  V30 7263 H 684.966 -4.27394 -3.0403 0
M  V30 7264 H 686.44 -3.28539 -4.43583 0
M  V30 7265 H 686.917 -1.627 -4.07953 0
M  V30 7266 H 687.523 -2.95298 -3.0607 0
M  V30 7267 N 685.838 0.888903 -1.30139 0
M  V30 7268 C 687.249 1.45578 -1.16893 0
M  V30 7269 C 687.6 1.94825 0.231866 0
M  V30 7270 O 686.725 1.84661 1.12824 0
M  V30 7271 C 687.32 2.646 -2.11595 0
M  V30 7272 C 685.879 3.17389 -2.02339 0
M  V30 7273 C 685.026 1.90081 -2.01902 0
M  V30 7274 H 687.977 0.69921 -1.42467 0
M  V30 7275 H 687.998 3.40687 -1.69449 0
M  V30 7276 H 687.51 2.28726 -3.13538 0
M  V30 7277 H 685.611 3.5793 -1.03523 0
M  V30 7278 H 685.724 3.80955 -2.90534 0
M  V30 7279 H 684.088 2.08246 -1.46648 0
M  V30 7280 H 684.871 1.5647 -3.05568 0
M  V30 7281 N 687.317 1.12792 1.10072 0
M  V30 7282 C 688.557 0.895691 1.8373 0
M  V30 7283 C 688.921 -0.568131 1.83402 0
M  V30 7284 O 690.122 -0.917666 2.52651 0
M  V30 7285 C 688.393 1.4593 3.2625 0
M  V30 7286 S 689.952 1.36615 4.16991 0
M  V30 7287 H 686.77 0.323017 0.633389 0
M  V30 7288 H 689.372 1.43816 1.32428 0
M  V30 7289 H 688.076 2.51818 3.24062 0
M  V30 7290 H 687.607 0.914478 3.82624 0
M  V30 7291 H 689.622 0.340131 4.95033 0
M  V30 7292 N 688.795 -1.27931 0.920396 0
M  V30 7293 C 689.742 -2.27085 0.412422 0
M  V30 7294 C 690.712 -1.57858 -0.516725 0
M  V30 7295 O 691.897 -1.85717 -0.437475 0
M  V30 7296 C 689.037 -3.43466 -0.335399 0
M  V30 7297 C 688.15 -4.27425 0.627017 0
M  V30 7298 C 687.285 -5.31016 -0.139916 0
M  V30 7299 C 686.324 -6.06641 0.815683 0
M  V30 7300 N 685.461 -7.02052 0.0818439 0
M  V30 7301 H 690.301 -2.69913 1.26298 0
M  V30 7302 H 687.838 -1.32732 0.634076 0
M  V30 7303 H 689.796 -4.09744 -0.785226 0
M  V30 7304 H 688.426 -3.01611 -1.15025 0
M  V30 7305 H 687.478 -3.6113 1.19537 0
M  V30 7306 H 688.79 -4.79969 1.35763 0
M  V30 7307 H 687.944 -6.03208 -0.649998 0
M  V30 7308 H 686.683 -4.79257 -0.903543 0
M  V30 7309 H 685.688 -5.33294 1.33708 0
M  V30 7310 H 686.913 -6.60489 1.57897 0
M  V30 7311 H 684.859 -6.52634 -0.663671 0
M  V30 7312 H 684.776 -7.52249 0.752163 0
M  V30 7313 H 686.044 -7.78432 -0.407825 0
M  V30 7314 N 690.273 -0.685099 -1.4193 0
M  V30 7315 C 691.206 0.0371639 -2.2817 0
M  V30 7316 C 692.184 0.798436 -1.41647 0
M  V30 7317 O 693.368 0.791428 -1.71081 0
M  V30 7318 C 690.495 1.05993 -3.21688 0
M  V30 7319 C 689.541 0.393043 -4.24685 0
M  V30 7320 S 690.374 -0.856921 -5.28599 0
M  V30 7321 C 691.53 0.164508 -6.25684 0
M  V30 7322 H 691.763 -0.694305 -2.89079 0
M  V30 7323 H 689.296 -0.474999 -1.46912 0
M  V30 7324 H 691.254 1.64489 -3.76103 0
M  V30 7325 H 689.915 1.7639 -2.59895 0
M  V30 7326 H 689.108 1.16513 -4.90348 0
M  V30 7327 H 688.71 -0.118589 -3.73812 0
M  V30 7328 H 691.002 1.02106 -6.69762 0
M  V30 7329 H 691.945 -0.457917 -7.06618 0
M  V30 7330 H 692.353 0.514596 -5.6215 0
M  V30 7331 N 691.751 1.51645 -0.429126 0
M  V30 7332 C 692.998 2.02015 0.140079 0
M  V30 7333 C 693.326 1.31374 1.43427 0
M  V30 7334 O 692.581 0.414779 1.91254 0
M  V30 7335 C 692.88 3.54989 0.414472 0
M  V30 7336 C 692.546 4.43874 -0.792911 0
M  V30 7337 C 691.208 4.67887 -1.12404 0
M  V30 7338 C 693.56 4.96074 -1.59875 0
M  V30 7339 C 690.888 5.41348 -2.26184 0
M  V30 7340 C 693.24 5.70782 -2.72747 0
M  V30 7341 C 691.904 5.93062 -3.06324 0
M  V30 7342 H 691.174 0.739225 0.0512585 0
M  V30 7343 H 693.821 1.82675 -0.574641 0
M  V30 7344 H 692.126 3.72615 1.21099 0
M  V30 7345 H 693.823 3.91489 0.868173 0
M  V30 7346 H 690.413 4.25374 -0.524871 0
M  V30 7347 H 694.597 4.77412 -1.35614 0
M  V30 7348 H 689.853 5.56815 -2.52522 0
M  V30 7349 H 694.027 6.10221 -3.35564 0
M  V30 7350 H 691.654 6.49764 -3.94602 0
M  V30 7351 N 693.229 0.160201 1.56784 0
M  V30 7352 C 694.192 -0.760405 2.16219 0
M  V30 7353 C 695.192 -1.16595 1.10735 0
M  V30 7354 O 696.382 -1.08472 1.36306 0
M  V30 7355 C 693.514 -2.03358 2.73603 0
M  V30 7356 H 694.707 -0.243173 2.98912 0
M  V30 7357 H 692.26 -0.0893139 1.56045 0
M  V30 7358 H 692.995 -2.59416 1.94612 0
M  V30 7359 H 692.78 -1.75186 3.50788 0
M  V30 7360 H 694.27 -2.69081 3.19351 0
M  V30 7361 N 694.707 -1.5719 -0.113559 0
M  V30 7362 C 695.639 -1.97393 -1.16484 0
M  V30 7363 C 696.652 -0.873964 -1.37352 0
M  V30 7364 O 697.841 -1.15222 -1.36331 0
M  V30 7365 C 694.941 -2.26174 -2.52386 0
M  V30 7366 C 694.114 -3.57479 -2.52046 0
M  V30 7367 C 693.173 -3.74409 -3.69735 0
M  V30 7368 O 692.199 -4.46463 -3.53071 0
M  V30 7369 N 693.401 -3.13588 -4.88511 0
M  V30 7370 H 696.166 -2.88184 -0.822814 0
M  V30 7371 H 693.727 -1.59044 -0.302769 0
M  V30 7372 H 695.719 -2.3471 -3.29687 0
M  V30 7373 H 694.289 -1.41483 -2.7875 0
M  V30 7374 H 693.509 -3.60081 -1.60421 0
M  V30 7375 H 694.797 -4.43775 -2.48881 0
M  V30 7376 H 694.195 -2.55026 -5.04953 0
M  V30 7377 H 692.752 -3.27637 -5.63469 0
M  V30 7378 N 696.185 0.383891 -1.52853 0
M  V30 7379 C 697.601 0.724316 -1.42218 0
M  V30 7380 C 697.801 1.93943 -0.546654 0
M  V30 7381 O 696.857 2.5249 -0.0220562 0
M  V30 7382 C 698.17 0.954635 -2.85144 0
M  V30 7383 C 699.718 1.05579 -2.94656 0
M  V30 7384 C 700.193 1.3187 -4.38605 0
M  V30 7385 N 701.684 1.38681 -4.41952 0
M  V30 7386 C 702.419 1.60699 -5.50421 0
M  V30 7387 N 701.915 1.80154 -6.68967 0
M  V30 7388 N 703.708 1.6292 -5.37972 0
M  V30 7389 H 695.859 -0.4156 -2.08294 0
M  V30 7390 H 698.122 -0.123776 -0.939885 0
M  V30 7391 H 697.828 0.133829 -3.51445 0
M  V30 7392 H 697.702 1.86788 -3.27704 0
M  V30 7393 H 700.089 1.86716 -2.2852 0
M  V30 7394 H 700.17 0.120338 -2.55517 0
M  V30 7395 H 699.814 0.512416 -5.05309 0
M  V30 7396 H 699.744 2.26708 -4.75301 0
M  V30 7397 H 702.235 1.25334 -3.56511 0
M  V30 7398 H 702.548 1.96476 -7.47407 0
M  V30 7399 H 700.893 1.77368 -6.71986 0
M  V30 7400 H 704.084 1.47276 -4.44328 0
M  V30 7401 H 704.257 1.79739 -6.22574 0
M  V30 7402 N 697.663 1.43903 0.642637 0
M  V30 7403 C 698.888 1.49758 1.43483 0
M  V30 7404 C 699.313 0.119911 1.87717 0
M  V30 7405 O 698.671 -0.888558 1.58033 0
M  V30 7406 C 698.719 2.45744 2.63898 0
M  V30 7407 O 697.823 1.95101 3.63331 0
M  V30 7408 H 697.164 0.506138 0.429791 0
M  V30 7409 H 699.694 1.88923 0.785438 0
M  V30 7410 H 699.704 2.63399 3.11584 0
M  V30 7411 H 698.379 3.45818 2.31046 0
M  V30 7412 H 696.956 1.87158 3.22531 0
M  V30 7413 N 699.141 -0.881989 1.30609 0
M  V30 7414 C 700.071 -2.00413 1.1982 0
M  V30 7415 C 701.052 -1.69871 0.0881538 0
M  V30 7416 O 702.237 -1.92304 0.2707 0
M  V30 7417 C 699.367 -3.35641 0.89233 0
M  V30 7418 C 698.321 -3.80451 1.96064 0
M  V30 7419 C 697.647 -5.13003 1.5077 0
M  V30 7420 C 698.947 -3.98855 3.37213 0
M  V30 7421 H 700.641 -2.09698 2.13699 0
M  V30 7422 H 698.187 -1.00754 1.02882 0
M  V30 7423 H 700.14 -4.13669 0.803497 0
M  V30 7424 H 698.864 -3.26497 -0.0821381 0
M  V30 7425 H 697.523 -3.04654 2.03916 0
M  V30 7426 H 697.171 -5.0029 0.521417 0
M  V30 7427 H 696.871 -5.43956 2.22229 0
M  V30 7428 H 698.395 -5.93554 1.43271 0
M  V30 7429 H 699.809 -4.67312 3.32103 0
M  V30 7430 H 698.206 -4.41188 4.06784 0
M  V30 7431 H 699.276 -3.02614 3.78883 0
M  V30 7432 N 700.619 -1.13374 -1.09472 0
M  V30 7433 C 702.035 -0.871846 -1.33682 0
M  V30 7434 C 702.235 0.492847 -1.9538 0
M  V30 7435 O 701.291 1.23946 -2.19985 0
M  V30 7436 C 702.604 -1.99608 -2.24893 0
M  V30 7437 C 704.152 -2.02812 -2.38404 0
M  V30 7438 C 704.627 -3.14497 -3.3295 0
M  V30 7439 N 706.118 -3.14004 -3.40523 0
M  V30 7440 C 706.853 -3.97061 -4.13679 0
M  V30 7441 N 706.349 -4.90131 -4.89636 0
M  V30 7442 N 708.142 -3.85162 -4.09398 0
M  V30 7443 H 700.293 -2.01288 -0.677995 0
M  V30 7444 H 702.556 -0.876492 -0.361201 0
M  V30 7445 H 702.262 -2.98 -1.86786 0
M  V30 7446 H 702.136 -1.90981 -3.25278 0
M  V30 7447 H 704.523 -1.05034 -2.75775 0
M  V30 7448 H 704.604 -2.15511 -1.37799 0
M  V30 7449 H 704.248 -4.12514 -2.96302 0
M  V30 7450 H 704.178 -2.99035 -4.33458 0
M  V30 7451 H 706.669 -2.46587 -2.86362 0
M  V30 7452 H 706.982 -5.49996 -5.42885 0
M  V30 7453 H 705.327 -4.94138 -4.88726 0
M  V30 7454 H 708.518 -3.11779 -3.49158 0
M  V30 7455 H 708.691 -4.5012 -4.6615 0
M  V30 7456 N 702.098 1.27442 -0.927168 0
M  V30 7457 C 703.514 1.46754 -0.627329 0
M  V30 7458 C 703.714 1.83902 0.823549 0
M  V30 7459 O 702.77 1.95215 1.60148 0
M  V30 7460 C 704.083 2.56045 -1.57674 0
M  V30 7461 C 705.631 2.69906 -1.58491 0
M  V30 7462 C 706.106 3.82355 -2.52128 0
M  V30 7463 N 707.597 3.89728 -2.50332 0
M  V30 7464 C 708.332 4.76155 -3.19475 0
M  V30 7465 N 707.828 5.67073 -3.97995 0
M  V30 7466 N 709.621 4.6988 -3.08496 0
M  V30 7467 H 701.772 1.01613 -1.86517 0
M  V30 7468 H 704.035 0.507443 -0.800753 0
M  V30 7469 H 703.741 2.35542 -2.61176 0
M  V30 7470 H 703.615 3.53423 -1.31804 0
M  V30 7471 H 706.002 2.89792 -0.557208 0
M  V30 7472 H 706.083 1.73018 -1.8841 0
M  V30 7473 H 705.727 3.63224 -3.55008 0
M  V30 7474 H 705.657 4.7867 -2.19505 0
M  V30 7475 H 708.148 3.24717 -1.93306 0
M  V30 7476 H 708.461 6.2988 -4.4774 0
M  V30 7477 H 706.806 5.6687 -4.02098 0
M  V30 7478 H 709.997 3.97848 -2.46646 0
M  V30 7479 H 710.17 5.37017 -3.62652 0
M  V30 7480 N 703.576 0.692616 1.41565 0
M  V30 7481 C 704.992 0.363878 1.55397 0
M  V30 7482 C 705.192 -1.1294 1.66874 0
M  V30 7483 O 704.248 -1.91517 1.64552 0
M  V30 7484 C 705.561 1.10982 2.7947 0
M  V30 7485 C 707.109 1.09387 2.93263 0
M  V30 7486 C 707.584 1.8215 4.20221 0
M  V30 7487 N 709.075 1.79105 4.27172 0
M  V30 7488 C 709.81 2.32247 5.2426 0
M  V30 7489 N 709.306 2.93847 6.27396 0
M  V30 7490 N 711.099 2.22519 5.1618 0
M  V30 7491 H 703.25 1.66116 1.3236 0
M  V30 7492 H 705.513 0.700848 0.63837 0
M  V30 7493 H 705.219 2.1647 2.77188 0
M  V30 7494 H 705.093 0.686492 3.709 0
M  V30 7495 H 707.48 0.0472638 2.95062 0
M  V30 7496 H 707.561 1.55623 2.03015 0
M  V30 7497 H 707.205 2.86789 4.19183 0
M  V30 7498 H 707.135 1.33351 5.09436 0
M  V30 7499 H 709.626 1.34191 3.53272 0
M  V30 7500 H 709.939 3.31972 6.97864 0
M  V30 7501 H 708.284 2.97924 6.27906 0
M  V30 7502 H 711.475 1.7407 4.34531 0
M  V30 7503 H 711.648 2.64239 5.91677 0
M  V30 7504 N 705.054 -1.51416 0.437162 0
M  V30 7505 C 705.986 -2.255 -0.410171 0
M  V30 7506 C 706.999 -1.29511 -0.986444 0
M  V30 7507 O 708.188 -1.55266 -0.880614 0
M  V30 7508 C 705.288 -2.99511 -1.58575 0
M  V30 7509 C 704.461 -4.22595 -1.12839 0
M  V30 7510 C 703.52 -4.79187 -2.17407 0
M  V30 7511 O 702.546 -5.4103 -1.76849 0
M  V30 7512 N 703.748 -4.63204 -3.49889 0
M  V30 7513 H 706.513 -2.98856 0.224783 0
M  V30 7514 H 704.074 -1.59699 0.266041 0
M  V30 7515 H 706.066 -3.34258 -2.28152 0
M  V30 7516 H 704.636 -2.29167 -2.12606 0
M  V30 7517 H 703.856 -3.93344 -0.259695 0
M  V30 7518 H 705.144 -5.02468 -0.800196 0
M  V30 7519 H 704.542 -4.13945 -3.85573 0
M  V30 7520 H 703.099 -5.02313 -4.15361 0
M  V30 7521 N 706.532 -0.168513 -1.56696 0
M  V30 7522 C 707.464 0.794249 -2.14998 0
M  V30 7523 C 708.477 1.1957 -1.10485 0
M  V30 7524 O 709.666 1.13604 -1.37682 0
M  V30 7525 C 706.766 2.08018 -2.67547 0
M  V30 7526 C 705.939 1.84274 -3.96689 0
M  V30 7527 C 704.998 2.97059 -4.3433 0
M  V30 7528 O 704.024 2.67815 -5.02259 0
M  V30 7529 N 705.226 4.24775 -3.9566 0
M  V30 7530 H 707.991 0.295832 -2.98236 0
M  V30 7531 H 705.552 0.0143611 -1.61894 0
M  V30 7532 H 707.544 2.82559 -2.89729 0
M  V30 7533 H 706.114 2.49059 -1.88914 0
M  V30 7534 H 705.334 0.936528 -3.82914 0
M  V30 7535 H 706.622 1.65773 -4.81037 0
M  V30 7536 H 706.02 4.51395 -3.40968 0
M  V30 7537 H 704.577 4.96027 -4.22848 0
M  V30 7538 N 708.01 1.57248 0.105221 0
M  V30 7539 C 708.942 1.98008 1.15436 0
M  V30 7540 C 709.955 0.881236 1.36887 0
M  V30 7541 O 711.144 1.15943 1.35718 0
M  V30 7542 C 708.244 2.27509 2.51183 0
M  V30 7543 C 707.417 3.58811 2.50147 0
M  V30 7544 C 706.476 3.76365 3.67745 0
M  V30 7545 O 705.502 4.48329 3.50699 0
M  V30 7546 N 706.704 3.16174 4.86841 0
M  V30 7547 H 709.469 2.88616 0.807519 0
M  V30 7548 H 707.03 1.59202 0.29433 0
M  V30 7549 H 709.022 2.36455 3.28438 0
M  V30 7550 H 707.592 1.42959 2.77995 0
M  V30 7551 H 706.812 3.60927 1.5851 0
M  V30 7552 H 708.1 4.45088 2.46524 0
M  V30 7553 H 707.498 2.57701 5.03594 0
M  V30 7554 H 706.055 3.30621 5.61723 0
M  V30 7555 N 709.488 -0.375779 1.53054 0
M  V30 7556 C 710.765 -1.13453 1.59336 0
M  V30 7557 C 711.145 -2.07379 0.394614 0
M  V30 7558 O 710.493 -2.2004 -0.616 0
M  V30 7559 C 710.703 -1.8826 2.93869 0
M  V30 7560 C 712.051 -2.43155 3.48081 0
M  V30 7561 O 713.075 -1.984 2.95831 0
M  V30 7562 O 711.934 -3.24944 4.39401 0
M  V30 7563 H 709.028 -0.519856 0.643179 0
M  V30 7564 H 711.574 -0.379865 1.65394 0
M  V30 7565 H 710.346 -1.19652 3.72558 0
M  V30 7566 H 709.969 -2.70658 2.91256 0
M  V30 7567 N 710.966 -1.44241 -0.634997 0
M  V30 7568 C 711.896 -1.53632 -1.7584 0
M  V30 7569 C 712.877 -0.389603 -1.65578 0
M  V30 7570 O 714.062 -0.609219 -1.84397 0
M  V30 7571 C 711.192 -1.47644 -3.14354 0
M  V30 7572 C 710.146 -2.60752 -3.394 0
M  V30 7573 C 709.472 -2.39817 -4.77904 0
M  V30 7574 C 710.772 -4.02921 -3.32343 0
M  V30 7575 H 712.466 -2.47662 -1.68238 0
M  V30 7576 H 710.012 -1.19197 -0.807969 0
M  V30 7577 H 711.965 -1.52815 -3.92716 0
M  V30 7578 H 710.689 -0.501284 -3.2273 0
M  V30 7579 H 709.348 -2.54965 -2.63417 0
M  V30 7580 H 708.996 -1.40502 -4.82978 0
M  V30 7581 H 708.696 -3.15649 -4.9562 0
M  V30 7582 H 710.22 -2.46799 -5.585 0
M  V30 7583 H 711.634 -4.10098 -4.00615 0
M  V30 7584 H 710.031 -4.78925 -3.61595 0
M  V30 7585 H 711.101 -4.26766 -2.30215 0
M  V30 7586 N 712.444 0.87505 -1.31075 0
M  V30 7587 C 713.377 1.98471 -1.12625 0
M  V30 7588 C 714.355 1.6257 -0.0311379 0
M  V30 7589 O 715.539 1.87574 -0.186594 0
M  V30 7590 C 712.666 3.30963 -0.719799 0
M  V30 7591 C 711.712 3.85849 -1.81722 0
M  V30 7592 S 712.545 4.11926 -3.42165 0
M  V30 7593 C 713.701 5.47423 -3.03445 0
M  V30 7594 H 713.934 2.13817 -2.06566 0
M  V30 7595 H 711.467 1.02463 -1.15502 0
M  V30 7596 H 713.425 4.07541 -0.492035 0
M  V30 7597 H 712.086 3.1346 0.200413 0
M  V30 7598 H 711.279 4.81616 -1.48533 0
M  V30 7599 H 710.881 3.16046 -1.99977 0
M  V30 7600 H 713.173 6.28881 -2.52023 0
M  V30 7601 H 714.116 5.85557 -3.98157 0
M  V30 7602 H 714.524 5.10455 -2.41031 0
M  V30 7603 N 713.922 1.13953 1.08869 0
M  V30 7604 C 715.333 0.916649 1.62648 0
M  V30 7605 C 715.684 -0.545589 1.88462 0
M  V30 7606 O 714.809 -1.41351 1.63856 0
M  V30 7607 C 715.404 1.65751 2.95486 0
M  V30 7608 C 713.963 1.48034 3.46068 0
M  V30 7609 C 713.11 1.68305 2.20383 0
M  V30 7610 H 716.061 1.292 0.921572 0
M  V30 7611 H 716.082 1.11794 3.63707 0
M  V30 7612 H 715.594 2.72171 2.76667 0
M  V30 7613 H 713.695 0.439416 3.7 0
M  V30 7614 H 713.808 2.24719 4.23129 0
M  V30 7615 H 712.172 1.10833 2.29321 0
M  V30 7616 H 712.955 2.76057 2.04077 0
M  V30 7617 N 715.4 -1.26948 0.933913 0
M  V30 7618 C 716.332 -2.25768 0.395137 0
M  V30 7619 C 717.345 -1.55637 -0.477585 0
M  V30 7620 O 718.534 -1.76142 -0.289204 0
M  V30 7621 C 715.634 -3.35874 -0.451882 0
M  V30 7622 C 714.807 -4.3554 0.40299 0
M  V30 7623 C 713.866 -5.24809 -0.3824 0
M  V30 7624 O 712.892 -5.68805 0.212057 0
M  V30 7625 N 714.094 -5.55636 -1.68072 0
M  V30 7626 H 716.859 -2.72634 1.24463 0
M  V30 7627 H 714.42 -1.40639 0.802008 0
M  V30 7628 H 716.412 -3.92542 -0.984516 0
M  V30 7629 H 714.982 -2.8856 -1.20215 0
M  V30 7630 H 714.202 -3.78047 1.11688 0
M  V30 7631 H 715.49 -4.99131 0.987201 0
M  V30 7632 H 714.888 -5.2176 -2.18592 0
M  V30 7633 H 713.445 -6.14978 -2.15975 0
M  V30 7634 N 716.879 -0.700114 -1.41195 0
M  V30 7635 C 718.119 -0.237223 -2.03019 0
M  V30 7636 C 718.483 1.14304 -1.54268 0
M  V30 7637 O 719.684 1.70204 -2.08048 0
M  V30 7638 C 717.955 -0.297442 -3.5616 0
M  V30 7639 S 719.514 0.0907367 -4.38706 0
M  V30 7640 H 716.332 -0.0952147 -0.704596 0
M  V30 7641 H 718.934 -0.918901 -1.72559 0
M  V30 7642 H 717.638 -1.30391 -3.89135 0
M  V30 7643 H 717.169 0.403233 -3.91328 0
M  V30 7644 H 719.184 1.31721 -4.78397 0
M  V30 7645 N 718.357 1.51182 -0.445186 0
M  V30 7646 C 719.773 1.59299 -0.0978954 0
M  V30 7647 C 719.973 1.4555 1.39346 0
M  V30 7648 O 719.029 1.30073 2.16419 0
M  V30 7649 C 720.342 2.94133 -0.625005 0
M  V30 7650 C 721.89 3.07463 -0.586137 0
M  V30 7651 C 722.365 4.44832 -1.09035 0
M  V30 7652 N 723.856 4.51173 -1.04867 0
M  V30 7653 C 724.591 5.55804 -1.40959 0
M  V30 7654 N 724.087 6.67816 -1.84375 0
M  V30 7655 N 725.88 5.46205 -1.32726 0
M  V30 7656 H 718.031 1.58363 -1.41544 0
M  V30 7657 H 720.294 0.746946 -0.58376 0
M  V30 7658 H 720 3.09589 -1.66876 0
M  V30 7659 H 719.874 3.77161 -0.0542262 0
M  V30 7660 H 722.261 2.9167 0.448646 0
M  V30 7661 H 722.342 2.26255 -1.19341 0
M  V30 7662 H 721.986 4.61372 -2.12364 0
M  V30 7663 H 721.916 5.24591 -0.459539 0
M  V30 7664 H 724.407 3.70783 -0.729932 0
M  V30 7665 H 724.72 7.43683 -2.10131 0
M  V30 7666 H 723.065 6.69003 -1.88308 0
M  V30 7667 H 726.256 4.57583 -0.986678 0
M  V30 7668 H 726.429 6.27634 -1.61182 0
M  V30 7669 N 719.835 0.176821 1.56605 0
M  V30 7670 C 721.112 -0.513365 1.88743 0
M  V30 7671 C 721.492 -1.80929 1.08757 0
M  V30 7672 O 720.84 -2.27765 0.183127 0
M  V30 7673 C 721.05 -0.749925 3.40848 0
M  V30 7674 C 722.398 -1.07747 4.10701 0
M  V30 7675 O 723.422 -0.838277 3.46196 0
M  V30 7676 O 722.281 -1.52901 5.24675 0
M  V30 7677 H 719.375 -0.265296 0.783292 0
M  V30 7678 H 721.921 0.215669 1.68324 0
M  V30 7679 H 720.693 0.16599 3.90948 0
M  V30 7680 H 720.316 -1.53208 3.66897 0
M  V30 7681 N 721.313 -1.57302 -0.09688 0
M  V30 7682 C 722.559 -1.87144 -0.796778 0
M  V30 7683 C 722.914 -0.767428 -1.76432 0
M  V30 7684 O 722.207 0.230728 -1.90206 0
M  V30 7685 C 722.401 -3.21272 -1.56586 0
M  V30 7686 C 722.23 -4.44616 -0.674295 0
M  V30 7687 C 721 -5.04281 -0.320705 0
M  V30 7688 C 723.198 -5.14297 0.0179445 0
M  V30 7689 N 721.18 -6.11162 0.579206 0
M  V30 7690 C 722.551 -6.15125 0.775992 0
M  V30 7691 C 724.606 -4.97815 0.0920521 0
M  V30 7692 C 723.309 -7.01251 1.60122 0
M  V30 7693 C 725.335 -5.84447 0.904175 0
M  V30 7694 C 724.697 -6.84794 1.65035 0
M  V30 7695 H 720.796 -0.734721 -0.267787 0
M  V30 7696 H 723.38 -1.94609 -0.0593955 0
M  V30 7697 H 721.551 -3.14862 -2.27413 0
M  V30 7698 H 723.283 -3.38846 -2.21281 0
M  V30 7699 H 720.038 -4.68866 -0.667961 0
M  V30 7700 H 720.462 -6.69247 1.02166 0
M  V30 7701 H 725.104 -4.20174 -0.470492 0
M  V30 7702 H 722.822 -7.78284 2.17484 0
M  V30 7703 H 726.408 -5.73755 0.964165 0
M  V30 7704 H 725.288 -7.50668 2.26864 0
M  V30 7705 N 722.791 0.367657 -1.53252 0
M  V30 7706 C 724.207 0.709191 -1.42978 0
M  V30 7707 C 724.407 1.93352 -0.567193 0
M  V30 7708 O 723.463 2.52453 -0.0488349 0
M  V30 7709 C 724.776 0.924338 -2.86141 0
M  V30 7710 C 726.324 1.02448 -2.95759 0
M  V30 7711 C 726.799 1.27211 -4.39979 0
M  V30 7712 N 728.29 1.33986 -4.43398 0
M  V30 7713 C 729.025 1.54852 -5.52095 0
M  V30 7714 N 728.521 1.73049 -6.7084 0
M  V30 7715 N 730.314 1.57205 -5.39669 0
M  V30 7716 H 722.465 -0.437669 -2.07842 0
M  V30 7717 H 724.728 -0.133737 -0.938519 0
M  V30 7718 H 724.434 0.0965455 -3.51567 0
M  V30 7719 H 724.308 1.83302 -3.29667 0
M  V30 7720 H 726.695 1.84282 -2.30487 0
M  V30 7721 H 726.776 0.0932301 -2.5563 0
M  V30 7722 H 726.42 0.458792 -5.05824 0
M  V30 7723 H 726.35 2.21654 -4.77679 0
M  V30 7724 H 728.841 1.21545 -3.5782 0
M  V30 7725 H 729.154 1.88538 -7.49449 0
M  V30 7726 H 727.499 1.70231 -6.7383 0
M  V30 7727 H 730.69 1.42555 -4.45865 0
M  V30 7728 H 730.863 1.73126 -6.24445 0
M  V30 7729 N 724.269 1.44576 0.627338 0
M  V30 7730 C 725.232 1.51372 1.72102 0
M  V30 7731 C 726.232 0.395329 1.55865 0
M  V30 7732 O 727.422 0.658094 1.61291 0
M  V30 7733 C 724.554 1.39129 3.11217 0
M  V30 7734 H 725.747 2.48798 1.6745 0
M  V30 7735 H 723.3 1.31724 0.841336 0
M  V30 7736 H 724.035 0.428114 3.21462 0
M  V30 7737 H 723.82 2.20229 3.24409 0
M  V30 7738 H 725.31 1.46874 3.90919 0
M  V30 7739 N 725.747 -0.868086 1.31537 0
M  V30 7740 C 726.993 -1.62367 1.2151 0
M  V30 7741 C 727.326 -1.92883 -0.225819 0
M  V30 7742 O 726.601 -1.56176 -1.15927 0
M  V30 7743 C 726.884 -2.95268 2.06129 0
M  V30 7744 C 726.737 -2.71619 3.58529 0
M  V30 7745 C 728.056 -3.96391 1.91212 0
M  V30 7746 H 725.175 -0.589178 0.442762 0
M  V30 7747 H 727.817 -1.00336 1.61347 0
M  V30 7748 H 725.967 -3.4821 1.72284 0
M  V30 7749 H 727.639 -2.25334 4.0252 0
M  V30 7750 H 725.882 -2.05817 3.81866 0
M  V30 7751 H 726.553 -3.66192 4.13047 0
M  V30 7752 H 729.029 -3.52663 2.20834 0
M  V30 7753 H 727.905 -4.87263 2.52718 0
M  V30 7754 H 728.166 -4.33335 0.875953 0
M  V30 7755 N 727.225 -1.14528 -1.08264 0
M  V30 7756 C 728.453 -0.937964 -1.84418 0
M  V30 7757 C 728.868 0.51357 -1.81681 0
M  V30 7758 O 728.225 1.35591 -1.22153 0
M  V30 7759 C 728.276 -1.43272 -3.31897 0
M  V30 7760 O 727.997 -2.82738 -3.34651 0
M  V30 7761 C 729.498 -1.26555 -4.24851 0
M  V30 7762 H 726.718 -0.333704 -0.582136 0
M  V30 7763 H 729.262 -1.52076 -1.36723 0
M  V30 7764 H 727.417 -0.892653 -3.76975 0
M  V30 7765 H 727.831 -3.04971 -4.26724 0
M  V30 7766 H 729.305 -1.66031 -5.26439 0
M  V30 7767 H 729.782 -0.208589 -4.38704 0
M  V30 7768 H 730.388 -1.79423 -3.856 0
M  V30 7769 N 728.703 1.26451 -0.940633 0
M  V30 7770 C 729.931 1.97868 -0.604642 0
M  V30 7771 C 730.346 1.70051 0.820251 0
M  V30 7772 O 729.703 0.96843 1.54686 0
M  V30 7773 C 729.754 3.51684 -0.836689 0
M  V30 7774 O 729.475 3.78533 -2.20554 0
M  V30 7775 C 730.976 4.40343 -0.511169 0
M  V30 7776 H 728.196 0.631105 -0.227919 0
M  V30 7777 H 730.74 1.60979 -1.26119 0
M  V30 7778 H 728.895 3.86736 -0.226759 0
M  V30 7779 H 729.309 4.73065 -2.26517 0
M  V30 7780 H 730.783 5.47229 -0.724157 0
M  V30 7781 H 731.26 4.35694 0.553815 0
M  V30 7782 H 731.866 4.10834 -1.0998 0
M  V30 7783 N 730.181 0.707592 1.40822 0
M  V30 7784 C 731.113 0.0105968 2.29198 0
M  V30 7785 C 732.126 -0.732035 1.45414 0
M  V30 7786 O 733.315 -0.580741 1.68789 0
M  V30 7787 C 730.415 -1.00921 3.23525 0
M  V30 7788 C 729.588 -0.333747 4.36125 0
M  V30 7789 C 728.647 -1.25783 5.10945 0
M  V30 7790 O 727.673 -0.745646 5.64295 0
M  V30 7791 N 728.875 -2.58947 5.19545 0
M  V30 7792 H 731.64 0.76938 2.89656 0
M  V30 7793 H 729.201 0.554579 1.52105 0
M  V30 7794 H 731.193 -1.6294 3.70449 0
M  V30 7795 H 729.763 -1.66942 2.6429 0
M  V30 7796 H 728.983 0.466518 3.9143 0
M  V30 7797 H 730.271 0.135444 5.0862 0
M  V30 7798 H 729.669 -3.03065 4.7767 0
M  V30 7799 H 728.226 -3.16131 5.70004 0
M  V30 7800 N 731.66 -1.50943 0.453197 0
M  V30 7801 C 732.937 -1.94872 -0.168633 0
M  V30 7802 C 733.317 -1.39272 -1.5864 0
M  V30 7803 O 732.665 -0.586272 -2.20851 0
M  V30 7804 C 732.875 -3.48757 -0.130217 0
M  V30 7805 C 734.223 -4.23331 -0.327975 0
M  V30 7806 O 735.247 -3.55594 -0.207619 0
M  V30 7807 O 734.106 -5.43529 -0.569077 0
M  V30 7808 H 731.2 -0.818042 -0.121394 0
M  V30 7809 H 733.746 -1.61782 0.512316 0
M  V30 7810 H 732.518 -3.81725 0.860346 0
M  V30 7811 H 732.141 -3.88333 -0.853397 0
M  V30 7812 N 733.138 -0.185124 -1.56509 0
M  V30 7813 C 734.101 0.72591 -2.17401 0
M  V30 7814 C 735.101 1.14819 -1.12575 0
M  V30 7815 O 736.291 1.0629 -1.38015 0
M  V30 7816 C 733.423 1.98979 -2.76803 0
M  V30 7817 H 734.616 0.195588 -2.99262 0
M  V30 7818 H 732.169 0.0644772 -1.56167 0
M  V30 7819 H 732.904 2.56287 -1.98714 0
M  V30 7820 H 732.689 1.69583 -3.53531 0
M  V30 7821 H 734.179 2.63966 -3.23592 0
M  V30 7822 N 734.616 1.57351 0.0885366 0
M  V30 7823 C 735.862 1.86696 0.791996 0
M  V30 7824 C 736.195 0.775148 1.78059 0
M  V30 7825 O 735.47 -0.216247 1.93294 0
M  V30 7826 C 735.753 3.26684 1.51491 0
M  V30 7827 C 735.606 4.465 0.543858 0
M  V30 7828 C 736.925 3.64664 2.46391 0
M  V30 7829 H 734.044 0.679049 0.286463 0
M  V30 7830 H 736.686 1.89919 0.0554866 0
M  V30 7831 H 734.836 3.24067 2.14273 0
M  V30 7832 H 736.508 4.61235 -0.0774597 0
M  V30 7833 H 734.751 4.33567 -0.142228 0
M  V30 7834 H 735.422 5.41192 1.08696 0
M  V30 7835 H 737.898 3.68267 1.93698 0
M  V30 7836 H 736.774 4.63534 2.93986 0
M  V30 7837 H 737.035 2.93698 3.30445 0
M  V30 7838 N 736.094 -0.359525 1.53444 0
M  V30 7839 C 737.042 -1.46104 1.80987 0
M  V30 7840 C 738.036 -1.55181 0.679351 0
M  V30 7841 O 739.242 -1.57995 0.862405 0
M  V30 7842 H 735.617 -0.486835 0.573145 0
M  V30 7843 H 737.588 -1.2008 2.73173 0
M  V30 7844 C 736.337 -2.82855 2.02208 0
M  V30 7845 H 735.66 -2.76631 2.88644 0
M  V30 7846 H 737.1 -3.59091 2.25455 0
M  V30 7847 C 735.559 -3.27192 0.802931 0
M  V30 7848 O 736.089 -4.017 -0.00544286 0
M  V30 7849 N 734.295 -2.83807 0.624657 0
M  V30 7850 H 733.842 -2.23339 1.28364 0
M  V30 7851 H 733.8 -3.13828 -0.189641 0
M  V30 7852 N 737.572 -1.44907 -0.619662 0
M  V30 7853 C 738.983 -1.42905 -1.20146 0
M  V30 7854 C 739.334 -0.150341 -1.95623 0
M  V30 7855 O 738.459 0.748732 -2.03034 0
M  V30 7856 C 739.054 -2.58889 -2.18545 0
M  V30 7857 C 737.613 -2.60046 -2.72127 0
M  V30 7858 C 736.76 -2.3493 -1.4732 0
M  V30 7859 H 739.711 -1.53321 -0.409666 0
M  V30 7860 H 739.732 -2.32298 -3.0136 0
M  V30 7861 H 739.244 -3.51941 -1.63583 0
M  V30 7862 H 737.345 -1.70968 -3.3106 0
M  V30 7863 H 737.458 -3.58893 -3.17384 0
M  V30 7864 H 735.822 -1.84248 -1.75855 0
M  V30 7865 H 736.605 -3.3011 -0.942442 0
M  V30 7866 N 739.05 0.861098 -1.31996 0
M  V30 7867 C 740.299 1.60965 -1.21545 0
M  V30 7868 C 740.612 1.94325 0.222972 0
M  V30 7869 O 741.818 2.67757 0.449272 0
M  V30 7870 C 740.274 2.90223 -2.12834 0
M  V30 7871 C 739.882 2.64313 -3.61722 0
M  V30 7872 C 741.626 3.68229 -2.11205 0
M  V30 7873 C 739.533 3.89532 -4.44993 0
M  V30 7874 H 738.463 0.603988 -0.451348 0
M  V30 7875 H 741.114 0.951358 -1.56912 0
M  V30 7876 H 739.496 3.57475 -1.70375 0
M  V30 7877 H 740.67 2.05413 -4.12483 0
M  V30 7878 H 738.985 1.99647 -3.65418 0
M  V30 7879 H 741.582 4.61138 -2.70658 0
M  V30 7880 H 741.925 4.01466 -1.1014 0
M  V30 7881 H 742.458 3.07873 -2.51911 0
M  V30 7882 H 739.197 3.61441 -5.46846 0
M  V30 7883 H 738.717 4.47851 -3.98985 0
M  V30 7884 H 740.396 4.57334 -4.57663 0
M  V30 7885 N 740.528 1.15101 1.07655 0
M  V30 7886 C 741.438 0.858869 2.18313 0
M  V30 7887 C 742.454 -0.163641 1.73229 0
M  V30 7888 O 743.63 0.00969541 2.01398 0
M  V30 7889 C 740.695 0.34893 3.4494 0
M  V30 7890 C 739.756 1.43495 4.04608 0
M  V30 7891 C 738.989 0.949253 5.2519 0
M  V30 7892 O 739.212 -0.20636 5.70027 0
M  V30 7893 O 738.146 1.73161 5.76454 0
M  V30 7894 H 741.972 1.78386 2.45788 0
M  V30 7895 H 739.557 0.929876 1.16934 0
M  V30 7896 H 741.439 0.070851 4.2134 0
M  V30 7897 H 740.114 -0.548237 3.19024 0
M  V30 7898 H 739.021 1.7666 3.29761 0
M  V30 7899 H 740.354 2.30692 4.3479 0
M  V30 7900 N 742.006 -1.2595 0.947325 0
M  V30 7901 C 743.231 -1.98083 0.614633 0
M  V30 7902 C 743.656 -1.70013 -0.804815 0
M  V30 7903 O 743.014 -0.95175 -1.54309 0
M  V30 7904 C 743.062 -3.4993 0.870706 0
M  V30 7905 O 742.166 -4.12364 -0.0541451 0
M  V30 7906 H 741.507 -0.621232 0.234451 0
M  V30 7907 H 744.037 -1.60259 1.27193 0
M  V30 7908 H 744.047 -4.00198 0.794051 0
M  V30 7909 H 742.722 -3.69691 1.90529 0
M  V30 7910 H 741.299 -3.72826 0.0740917 0
M  V30 7911 N 743.484 -0.715051 -1.40445 0
M  V30 7912 C 744.414 -0.0768699 -2.33373 0
M  V30 7913 C 745.395 0.746109 -1.52863 0
M  V30 7914 O 746.58 0.695142 -1.81332 0
M  V30 7915 C 743.71 0.846014 -3.36838 0
M  V30 7916 C 742.664 0.128694 -4.27806 0
M  V30 7917 C 741.99 1.16726 -5.21804 0
M  V30 7918 C 743.29 -1.01679 -5.12307 0
M  V30 7919 H 744.984 -0.853061 -2.8699 0
M  V30 7920 H 742.53 -0.41167 -1.3799 0
M  V30 7921 H 744.483 1.30185 -4.00786 0
M  V30 7922 H 743.207 1.6541 -2.81615 0
M  V30 7923 H 741.866 -0.307314 -3.6531 0
M  V30 7924 H 741.514 1.96838 -4.62887 0
M  V30 7925 H 741.214 0.692188 -5.83509 0
M  V30 7926 H 742.738 1.62321 -5.88629 0
M  V30 7927 H 744.152 -0.640337 -5.69713 0
M  V30 7928 H 742.549 -1.4202 -5.83053 0
M  V30 7929 H 743.619 -1.84769 -4.48317 0
M  V30 7930 N 744.962 1.50701 -0.461195 0
M  V30 7931 C 746.239 1.94958 0.158296 0
M  V30 7932 C 746.619 1.40111 1.57899 0
M  V30 7933 O 745.967 0.597976 2.20537 0
M  V30 7934 C 746.177 3.48821 0.11172 0
M  V30 7935 C 747.525 4.23499 0.30552 0
M  V30 7936 O 748.549 3.557 0.188758 0
M  V30 7937 O 747.408 5.43823 0.540244 0
M  V30 7938 H 744.502 0.818674 0.117054 0
M  V30 7939 H 747.048 1.61508 -0.520888 0
M  V30 7940 H 745.82 3.81263 -0.880577 0
M  V30 7941 H 745.443 3.88781 0.832791 0
M  V30 7942 N 746.441 0.193421 1.56409 0
M  V30 7943 C 747.669 -0.451438 2.01915 0
M  V30 7944 C 748.084 -1.55306 1.07357 0
M  V30 7945 O 747.441 -1.82333 0.0781512 0
M  V30 7946 C 747.492 -1.00931 3.47124 0
M  V30 7947 O 747.213 0.0483623 4.38073 0
M  V30 7948 C 748.714 -1.73021 4.0814 0
M  V30 7949 H 745.934 -0.113495 0.661332 0
M  V30 7950 H 748.478 0.301636 2.02263 0
M  V30 7951 H 746.633 -1.71277 3.47481 0
M  V30 7952 H 747.047 -0.366644 5.23217 0
M  V30 7953 H 748.521 -2.07289 5.11601 0
M  V30 7954 H 748.998 -2.6333 3.51502 0
M  V30 7955 H 749.604 -1.07264 4.11551 0
M  V30 7956 N 747.919 -1.57396 -0.0801906 0
M  V30 7957 C 749.165 -1.87979 -0.776884 0
M  V30 7958 C 749.52 -0.786098 -1.75608 0
M  V30 7959 O 748.813 0.210541 -1.9044 0
M  V30 7960 C 749.007 -3.22915 -1.53169 0
M  V30 7961 C 748.836 -4.45306 -0.627099 0
M  V30 7962 C 747.606 -5.04593 -0.267201 0
M  V30 7963 C 749.804 -5.14249 0.0724916 0
M  V30 7964 N 747.786 -6.10513 0.643995 0
M  V30 7965 C 749.157 -6.14267 0.841191 0
M  V30 7966 C 751.212 -4.97689 0.144847 0
M  V30 7967 C 749.915 -6.99514 1.67551 0
M  V30 7968 C 751.941 -5.83455 0.966112 0
M  V30 7969 C 751.303 -6.83005 1.72288 0
M  V30 7970 H 747.402 -0.737519 -0.259979 0
M  V30 7971 H 749.986 -1.94661 -0.0387512 0
M  V30 7972 H 748.157 -3.17256 -2.2406 0
M  V30 7973 H 749.889 -3.41174 -2.17675 0
M  V30 7974 H 746.644 -4.69548 -0.618194 0
M  V30 7975 H 747.068 -6.68125 1.09259 0
M  V30 7976 H 751.71 -4.20649 -0.4259 0
M  V30 7977 H 749.428 -7.75934 2.25726 0
M  V30 7978 H 753.014 -5.727 1.02497 0
M  V30 7979 H 751.894 -7.48219 2.34813 0
M  V30 7980 N 749.397 0.351382 -1.53633 0
M  V30 7981 C 750.625 1.11275 -1.74429 0
M  V30 7982 C 751.04 1.82602 -0.479798 0
M  V30 7983 O 750.397 1.74074 0.548125 0
M  V30 7984 C 750.448 2.13223 -2.91921 0
M  V30 7985 O 750.169 1.44798 -4.13479 0
M  V30 7986 C 751.67 3.01797 -3.24706 0
M  V30 7987 H 748.89 0.332153 -0.583023 0
M  V30 7988 H 751.434 0.405974 -2.0043 0
M  V30 7989 H 749.589 2.79477 -2.68274 0
M  V30 7990 H 750.003 2.12839 -4.79374 0
M  V30 7991 H 751.477 3.69282 -4.10286 0
M  V30 7992 H 751.954 3.67387 -2.40673 0
M  V30 7993 H 752.56 2.41141 -3.5033 0
M  V30 7994 N 750.875 1.45233 0.611969 0
M  V30 7995 C 751.785 1.56098 1.7513 0
M  V30 7996 C 752.801 0.445646 1.68196 0
M  V30 7997 O 753.977 0.705718 1.88631 0
M  V30 7998 C 751.042 1.52052 3.11579 0
M  V30 7999 C 750.103 2.74589 3.29999 0
M  V30 8000 C 749.336 2.70726 4.59938 0
M  V30 8001 O 749.559 1.77806 5.41979 0
M  V30 8002 O 748.493 3.61864 4.80976 0
M  V30 8003 H 752.319 2.52392 1.68914 0
M  V30 8004 H 749.904 1.27695 0.775528 0
M  V30 8005 H 751.786 1.52387 3.92882 0
M  V30 8006 H 750.461 0.589085 3.18295 0
M  V30 8007 H 749.368 2.79817 2.48301 0
M  V30 8008 H 750.701 3.66843 3.28157 0
M  V30 8009 N 752.353 -0.854086 1.3245 0
M  V30 8010 C 753.6 -1.60831 1.23043 0
M  V30 8011 C 753.928 -1.93389 -0.2076 0
M  V30 8012 O 753.183 -1.5756 -1.16075 0
M  V30 8013 C 753.482 -2.93746 2.03587 0
M  V30 8014 C 753.148 -2.80615 3.52939 0
M  V30 8015 C 751.81 -2.76742 3.93659 0
M  V30 8016 C 754.162 -2.66507 4.4791 0
M  V30 8017 C 751.49 -2.56638 5.27592 0
M  V30 8018 C 753.842 -2.47939 5.81987 0
M  V30 8019 C 752.506 -2.42458 6.21909 0
M  V30 8020 H 751.776 -0.588523 0.450247 0
M  V30 8021 H 754.423 -0.990699 1.63882 0
M  V30 8022 H 752.728 -3.5963 1.55478 0
M  V30 8023 H 754.425 -3.51127 1.93677 0
M  V30 8024 H 751.015 -2.84456 3.20598 0
M  V30 8025 H 755.199 -2.68544 4.1737 0
M  V30 8026 H 750.455 -2.50831 5.57579 0
M  V30 8027 H 754.629 -2.36002 6.55192 0
M  V30 8028 H 752.256 -2.2664 7.2563 0
M  V30 8029 N 753.831 -1.1567 -1.07043 0
M  V30 8030 C 755.077 -0.9349 -1.79965 0
M  V30 8031 C 755.41 0.536464 -1.86643 0
M  V30 8032 O 754.685 1.39781 -1.35247 0
M  V30 8033 C 754.968 -1.55371 -3.24857 0
M  V30 8034 C 754.821 -3.09589 -3.26305 0
M  V30 8035 C 756.14 -1.24209 -4.22209 0
M  V30 8036 H 753.259 -0.341061 -0.653335 0
M  V30 8037 H 755.901 -1.42883 -1.25237 0
M  V30 8038 H 754.051 -1.13368 -3.71591 0
M  V30 8039 H 755.723 -3.60521 -2.87789 0
M  V30 8040 H 753.966 -3.43315 -2.65174 0
M  V30 8041 H 754.637 -3.48002 -4.28484 0
M  V30 8042 H 757.113 -1.60548 -3.8388 0
M  V30 8043 H 755.989 -1.70119 -5.21872 0
M  V30 8044 H 756.25 -0.15964 -4.41812 0
M  V30 8045 N 755.309 1.25446 -0.953992 0
M  V30 8046 C 756.219 2.29632 -0.480264 0
M  V30 8047 C 757.235 1.68025 0.452071 0
M  V30 8048 O 758.411 1.98703 0.328472 0
M  V30 8049 C 755.476 3.45903 0.234974 0
M  V30 8050 C 754.537 4.22953 -0.735495 0
M  V30 8051 C 753.77 5.33672 -0.0542957 0
M  V30 8052 O 753.993 5.58477 1.16018 0
M  V30 8053 O 752.927 5.9734 -0.739509 0
M  V30 8054 H 756.753 2.72242 -1.34602 0
M  V30 8055 H 754.338 1.30883 -0.720419 0
M  V30 8056 H 756.22 4.16552 0.637341 0
M  V30 8057 H 754.895 3.05296 1.07592 0
M  V30 8058 H 753.802 3.54734 -1.18806 0
M  V30 8059 H 755.135 4.67341 -1.54444 0
M  V30 8060 N 756.787 0.722489 1.40064 0
M  V30 8061 C 758.035 0.264455 2.00362 0
M  V30 8062 C 758.356 -1.14847 1.57592 0
M  V30 8063 O 757.626 -1.77982 0.818477 0
M  V30 8064 H 756.206 0.0947846 0.740962 0
M  V30 8065 H 758.868 0.929659 1.71299 0
M  V30 8066 H 757.964 0.302977 3.10626 0
M  V30 8067 N 758.265 -1.50454 0.469181 0
M  V30 8068 C 759.212 -2.28486 -0.325982 0
M  V30 8069 C 760.182 -1.33455 -0.988893 0
M  V30 8070 O 761.367 -1.6239 -1.0017 0
M  V30 8071 C 758.507 -3.15288 -1.40313 0
M  V30 8072 C 757.62 -4.25348 -0.755183 0
M  V30 8073 C 756.755 -4.9941 -1.81006 0
M  V30 8074 C 755.794 -6.01348 -1.14226 0
M  V30 8075 N 754.931 -6.68695 -2.1399 0
M  V30 8076 H 759.771 -2.95987 0.345753 0
M  V30 8077 H 757.308 -1.45965 0.182355 0
M  V30 8078 H 759.266 -3.63964 -2.03927 0
M  V30 8079 H 757.896 -2.49837 -2.04405 0
M  V30 8080 H 756.948 -3.80399 -0.00651901 0
M  V30 8081 H 758.26 -4.98279 -0.227941 0
M  V30 8082 H 757.414 -5.51794 -2.52206 0
M  V30 8083 H 756.153 -4.26181 -2.3711 0
M  V30 8084 H 755.158 -5.48225 -0.415876 0
M  V30 8085 H 756.383 -6.76548 -0.588135 0
M  V30 8086 H 754.329 -5.98258 -2.69115 0
M  V30 8087 H 754.246 -7.37495 -1.66246 0
M  V30 8088 H 755.514 -7.25697 -2.84576 0
M  V30 8089 N 759.743 -0.201713 -1.56304 0
M  V30 8090 C 760.691 0.733133 -2.20744 0
M  V30 8091 C 761.685 1.2148 -1.18064 0
M  V30 8092 O 762.891 1.17692 -1.36193 0
M  V30 8093 H 759.266 0.254789 -0.707521 0
M  V30 8094 H 761.237 0.165996 -2.97938 0
M  V30 8095 C 759.986 1.93925 -2.88597 0
M  V30 8096 H 759.309 1.5777 -3.67353 0
M  V30 8097 H 760.749 2.57158 -3.37114 0
M  V30 8098 C 759.208 2.78219 -1.89989 0
M  V30 8099 O 759.738 3.76353 -1.40432 0
M  V30 8100 N 757.944 2.43847 -1.58072 0
M  V30 8101 H 757.491 1.64103 -1.98565 0
M  V30 8102 H 757.449 3.0053 -0.923524 0
M  V30 8103 N 761.222 1.57436 0.0718424 0
M  V30 8104 C 762.169 2.03686 1.08539 0
M  V30 8105 C 763.139 0.917474 1.38462 0
M  V30 8106 O 764.324 1.18513 1.4953 0
M  V30 8107 C 761.464 2.48566 2.39393 0
M  V30 8108 C 760.577 3.74122 2.16001 0
M  V30 8109 C 759.712 4.07786 3.40418 0
M  V30 8110 C 758.751 5.26383 3.1239 0
M  V30 8111 N 757.888 5.55685 4.29138 0
M  V30 8112 H 762.728 2.90043 0.684018 0
M  V30 8113 H 760.265 1.43438 0.326183 0
M  V30 8114 H 762.223 2.72639 3.15791 0
M  V30 8115 H 760.853 1.65186 2.77333 0
M  V30 8116 H 759.905 3.57389 1.30296 0
M  V30 8117 H 761.217 4.60659 1.91298 0
M  V30 8118 H 760.371 4.32759 4.25211 0
M  V30 8119 H 759.11 3.19817 3.68197 0
M  V30 8120 H 758.115 5.01206 2.25993 0
M  V30 8121 H 759.34 6.1597 2.85934 0
M  V30 8122 H 757.286 4.70675 4.56948 0
M  V30 8123 H 757.203 6.3664 4.07708 0
M  V30 8124 H 758.471 5.85209 5.14928 0
M  V30 8125 N 762.7 -0.34323 1.53817 0
M  V30 8126 C 763.928 -1.10348 1.75017 0
M  V30 8127 C 764.343 -1.82345 0.489475 0
M  V30 8128 O 763.7 -1.74362 -0.538886 0
M  V30 8129 C 763.751 -2.11672 2.93048 0
M  V30 8130 O 763.472 -1.42603 4.14241 0
M  V30 8131 C 764.973 -3.0007 3.26301 0
M  V30 8132 H 762.193 -0.329056 0.584776 0
M  V30 8133 H 764.737 -0.395339 2.00642 0
M  V30 8134 H 762.892 -2.78051 2.69753 0
M  V30 8135 H 763.306 -2.10294 4.80496 0
M  V30 8136 H 764.78 -3.67101 4.12239 0
M  V30 8137 H 765.257 -3.66105 2.42618 0
M  V30 8138 H 765.863 -2.3928 3.51604 0
M  V30 8139 N 764.178 -1.45556 -0.604258 0
M  V30 8140 C 765.424 -1.49968 -1.36519 0
M  V30 8141 C 765.757 -0.142236 -1.93678 0
M  V30 8142 O 765.032 0.843717 -1.75247 0
M  V30 8143 C 765.315 -2.58146 -2.51063 0
M  V30 8144 C 765.168 -4.03346 -1.99078 0
M  V30 8145 C 766.487 -2.62581 -3.53184 0
M  V30 8146 H 763.606 -0.545993 -0.495036 0
M  V30 8147 H 766.248 -1.77382 -0.680845 0
M  V30 8148 H 764.398 -2.34901 -3.09441 0
M  V30 8149 H 766.07 -4.37811 -1.45323 0
M  V30 8150 H 764.313 -4.13845 -1.30055 0
M  V30 8151 H 764.984 -4.74731 -2.81664 0
M  V30 8152 H 767.46 -2.83419 -3.04652 0
M  V30 8153 H 766.336 -3.40131 -4.30816 0
M  V30 8154 H 766.597 -1.67798 -4.09019 0
M  V30 8155 N 765.656 0.84705 -1.32902 0
M  V30 8156 C 766.881 1.63925 -1.27056 0
M  V30 8157 C 767.306 1.87443 0.157136 0
M  V30 8158 O 766.664 1.43266 1.11106 0
M  V30 8159 C 766.712 2.97134 -2.04313 0
M  V30 8160 O 765.816 3.88049 -1.39614 0
M  V30 8161 H 765.157 0.499477 -0.437514 0
M  V30 8162 H 767.687 1.05443 -1.75336 0
M  V30 8163 H 767.697 3.46896 -2.14772 0
M  V30 8164 H 766.372 2.79339 -3.08128 0
M  V30 8165 H 764.949 3.46525 -1.3775 0
M  V30 8166 N 767.134 1.16236 1.06428 0
M  V30 8167 C 768.081 0.86769 2.13869 0
M  V30 8168 C 769.051 -0.183298 1.65086 0
M  V30 8169 O 770.236 -0.0488002 1.90738 0
M  V30 8170 C 767.376 0.373427 3.43074 0
M  V30 8171 C 766.489 1.48708 4.05598 0
M  V30 8172 C 765.624 0.947977 5.22673 0
M  V30 8173 C 764.663 2.03793 5.77178 0
M  V30 8174 N 763.8 1.51451 6.85571 0
M  V30 8175 H 768.64 1.78781 2.38414 0
M  V30 8176 H 766.177 0.891892 1.16977 0
M  V30 8177 H 768.135 0.0685035 4.17144 0
M  V30 8178 H 766.765 -0.509752 3.1875 0
M  V30 8179 H 765.817 1.908 3.29089 0
M  V30 8180 H 767.129 2.30964 4.42105 0
M  V30 8181 H 766.283 0.596154 6.03764 0
M  V30 8182 H 765.022 0.0947081 4.87608 0
M  V30 8183 H 764.027 2.39847 4.94726 0
M  V30 8184 H 765.252 2.89514 6.14295 0
M  V30 8185 H 763.198 0.683755 6.52427 0
M  V30 8186 H 763.115 2.27325 7.21013 0
M  V30 8187 H 764.383 1.19123 7.70344 0
M  V30 8188 N 768.612 -1.24939 0.960631 0
M  V30 8189 C 769.542 -2.28 0.503815 0
M  V30 8190 C 770.523 -1.63959 -0.452928 0
M  V30 8191 O 771.708 -1.91009 -0.350585 0
M  V30 8192 C 768.838 -3.46643 -0.213535 0
M  V30 8193 C 767.792 -4.22903 0.658535 0
M  V30 8194 C 767.118 -5.34363 -0.189902 0
M  V30 8195 C 768.418 -4.84949 1.93963 0
M  V30 8196 H 770.112 -2.66462 1.36521 0
M  V30 8197 H 767.658 -1.28093 0.657897 0
M  V30 8198 H 769.611 -4.1787 -0.544286 0
M  V30 8199 H 768.335 -3.07187 -1.10923 0
M  V30 8200 H 766.994 -3.53467 0.972455 0
M  V30 8201 H 766.642 -4.91147 -1.08553 0
M  V30 8202 H 766.342 -5.86302 0.390331 0
M  V30 8203 H 767.866 -6.0842 -0.515484 0
M  V30 8204 H 769.28 -5.48288 1.67491 0
M  V30 8205 H 767.677 -5.47091 2.46601 0
M  V30 8206 H 768.747 -4.06799 2.639 0
M  V30 8207 N 770.09 -0.729906 -1.39679 0
M  V30 8208 C 771.336 -0.27603 -2.00913 0
M  V30 8209 C 771.669 1.13227 -1.57776 0
M  V30 8210 O 770.944 1.7709 -0.804319 0
M  V30 8211 C 771.227 -0.372157 -3.58172 0
M  V30 8212 C 771.08 -1.81986 -4.11341 0
M  V30 8213 C 772.399 0.248378 -4.39399 0
M  V30 8214 H 769.518 -0.101773 -0.729939 0
M  V30 8215 H 772.16 -0.925104 -1.65957 0
M  V30 8216 H 770.31 0.180459 -3.88081 0
M  V30 8217 H 771.982 -2.42896 -3.92172 0
M  V30 8218 H 770.225 -2.34287 -3.65092 0
M  V30 8219 H 770.896 -1.83842 -5.20486 0
M  V30 8220 H 773.372 -0.222645 -4.15504 0
M  V30 8221 H 772.248 0.150746 -5.48693 0
M  V30 8222 H 772.509 1.33378 -4.21501 0
M  V30 8223 N 771.568 1.50203 -0.477153 0
M  V30 8224 C 772.817 2.01551 0.0774548 0
M  V30 8225 C 773.13 1.36359 1.40234 0
M  V30 8226 O 774.336 1.78898 2.04225 0
M  V30 8227 C 772.792 3.59406 0.188539 0
M  V30 8228 C 772.4 4.3356 -1.12828 0
M  V30 8229 C 774.144 4.18776 0.694782 0
M  V30 8230 C 772.051 5.83213 -0.98066 0
M  V30 8231 H 770.981 0.75329 0.0327212 0
M  V30 8232 H 773.632 1.72959 -0.612969 0
M  V30 8233 H 772.014 3.84611 0.942881 0
M  V30 8234 H 773.188 4.20074 -1.89405 0
M  V30 8235 H 771.503 3.85827 -1.5661 0
M  V30 8236 H 774.1 5.28338 0.822356 0
M  V30 8237 H 774.443 3.80557 1.68766 0
M  V30 8238 H 774.976 3.978 -0.00234519 0
M  V30 8239 H 771.715 6.25914 -1.94709 0
M  V30 8240 H 771.235 5.99256 -0.255375 0
M  V30 8241 H 772.914 6.4373 -0.649717 0
M  V30 8242 N 773.046 0.209999 1.56195 0
M  V30 8243 C 773.978 -0.736967 2.17029 0
M  V30 8244 C 774.991 -1.16599 1.13616 0
M  V30 8245 O 776.18 -1.09914 1.40646 0
M  V30 8246 C 773.28 -2.00852 2.72969 0
M  V30 8247 C 772.453 -1.73691 4.01435 0
M  V30 8248 C 771.512 -2.85439 4.42053 0
M  V30 8249 O 770.538 -2.54405 5.09183 0
M  V30 8250 N 771.74 -4.14135 4.06783 0
M  V30 8251 H 774.505 -0.216656 2.98916 0
M  V30 8252 H 772.066 0.0285672 1.61875 0
M  V30 8253 H 774.058 -2.74778 2.97118 0
M  V30 8254 H 772.628 -2.43963 1.95451 0
M  V30 8255 H 771.848 -0.834676 3.85262 0
M  V30 8256 H 773.136 -1.52961 4.85263 0
M  V30 8257 H 772.534 -4.42196 3.52816 0
M  V30 8258 H 771.091 -4.84642 4.35851 0
M  V30 8259 N 774.524 -1.57472 -0.0634922 0
M  V30 8260 C 775.472 -2.05307 -1.09323 0
M  V30 8261 C 776.466 -0.959995 -1.39572 0
M  V30 8262 O 777.672 -1.14507 -1.38882 0
M  V30 8263 H 774.047 -0.65472 -0.369927 0
M  V30 8264 H 776.018 -2.90925 -0.663707 0
M  V30 8265 C 774.767 -2.51954 -2.39613 0
M  V30 8266 H 774.09 -3.35662 -2.1719 0
M  V30 8267 H 775.53 -2.89169 -3.10092 0
M  V30 8268 C 773.989 -1.40596 -3.06161 0
M  V30 8269 O 774.519 -0.752722 -3.94585 0
M  V30 8270 N 772.725 -1.14902 -2.66919 0
M  V30 8271 H 772.272 -1.68205 -1.95102 0
M  V30 8272 H 772.23 -0.406006 -3.11767 0
M  V30 8273 N 776.003 0.335068 -1.53997 0
M  V30 8274 C 776.966 1.39481 -1.81872 0
M  V30 8275 C 777.966 1.4524 -0.690078 0
M  V30 8276 O 779.156 1.45467 -0.958377 0
M  V30 8277 C 776.288 2.78329 -1.9684 0
M  V30 8278 H 777.481 1.16024 -2.76547 0
M  V30 8279 H 775.034 0.569926 -1.45539 0
M  V30 8280 H 775.769 3.07058 -1.04337 0
M  V30 8281 H 775.554 2.75544 -2.78958 0
M  V30 8282 H 777.044 3.55016 -2.19894 0
M  V30 8283 N 777.481 1.45874 0.596531 0
M  V30 8284 C 778.429 1.55739 1.72766 0
M  V30 8285 C 779.423 0.426666 1.63939 0
M  V30 8286 O 780.629 0.60301 1.69599 0
M  V30 8287 H 777.004 0.489386 0.570968 0
M  V30 8288 H 778.975 2.50871 1.61575 0
M  V30 8289 C 777.724 1.55174 3.11153 0
M  V30 8290 H 777.047 2.41511 3.1861 0
M  V30 8291 H 778.487 1.66133 3.90097 0
M  V30 8292 C 776.946 0.278001 3.35751 0
M  V30 8293 O 777.476 -0.637557 3.96608 0
M  V30 8294 N 775.682 0.170227 2.90101 0
M  V30 8295 H 775.229 0.916159 2.40758 0
M  V30 8296 H 775.187 -0.68117 3.06932 0
M  V30 8297 N 778.959 -0.83999 1.33349 0
M  V30 8298 C 780.205 -1.59753 1.24927 0
M  V30 8299 C 780.538 -1.93318 -0.184855 0
M  V30 8300 O 779.813 -1.586 -1.12589 0
M  V30 8301 C 780.096 -2.90829 2.12345 0
M  V30 8302 C 779.949 -2.63953 3.6421 0
M  V30 8303 C 781.268 -3.92246 1.99577 0
M  V30 8304 H 778.387 -0.579654 0.45516 0
M  V30 8305 H 781.029 -0.968909 1.63439 0
M  V30 8306 H 779.179 -3.44478 1.79631 0
M  V30 8307 H 780.851 -2.16745 4.07209 0
M  V30 8308 H 779.094 -1.97671 3.86146 0
M  V30 8309 H 779.765 -3.57348 4.20721 0
M  V30 8310 H 782.241 -3.479 2.28265 0
M  V30 8311 H 781.117 -4.81793 2.62996 0
M  V30 8312 H 781.378 -4.3138 0.967673 0
M  V30 8313 N 780.437 -1.16799 -1.0581 0
M  V30 8314 C 781.662 -0.977402 -1.82925 0
M  V30 8315 C 782.087 0.469514 -1.82146 0
M  V30 8316 O 781.445 1.33576 -1.22585 0
M  V30 8317 C 781.493 -1.51543 -3.27211 0
M  V30 8318 O 780.597 -0.725021 -4.05977 0
M  V30 8319 H 779.938 -0.347474 -0.565825 0
M  V30 8320 H 782.468 -1.55151 -1.33376 0
M  V30 8321 H 782.478 -1.53502 -3.78023 0
M  V30 8322 H 781.153 -2.56872 -3.27093 0
M  V30 8323 H 779.73 -0.77634 -3.64729 0
M  V30 8324 N 781.915 1.24427 -0.967243 0
M  V30 8325 C 782.878 2.23637 -0.501927 0
M  V30 8326 C 783.878 1.55712 0.401283 0
M  V30 8327 O 785.068 1.73085 0.196808 0
M  V30 8328 C 782.2 3.39804 0.273176 0
M  V30 8329 H 783.393 2.66317 -1.37897 0
M  V30 8330 H 780.946 1.37033 -0.751783 0
M  V30 8331 H 781.681 3.02562 1.16733 0
M  V30 8332 H 781.466 3.90303 -0.37498 0
M  V30 8333 H 782.956 4.13443 0.587776 0
M  V30 8334 N 783.393 0.737304 1.3929 0
M  V30 8335 C 784.326 0.0475454 2.2815 0
M  V30 8336 C 785.304 -0.745314 1.44512 0
M  V30 8337 O 786.488 -0.727387 1.739 0
M  V30 8338 C 783.615 -0.939803 3.254 0
M  V30 8339 C 782.661 -0.235153 4.25851 0
M  V30 8340 S 783.494 1.05252 5.25055 0
M  V30 8341 C 784.65 0.0678242 6.25863 0
M  V30 8342 H 784.883 0.801117 2.86303 0
M  V30 8343 H 782.416 0.529197 1.45048 0
M  V30 8344 H 784.374 -1.50417 3.81949 0
M  V30 8345 H 783.035 -1.66623 2.66262 0
M  V30 8346 H 782.228 -0.982336 4.94334 0
M  V30 8347 H 781.83 0.257245 3.73114 0
M  V30 8348 H 784.122 -0.771779 6.7309 0
M  V30 8349 H 785.065 0.719858 7.04431 0
M  V30 8350 H 785.473 -0.305604 5.63672 0
M  V30 8351 N 784.871 -1.49948 0.485112 0
M  V30 8352 C 786.101 -2.06506 -0.0621921 0
M  V30 8353 C 786.509 -1.34756 -1.32806 0
M  V30 8354 O 785.852 -0.41466 -1.78959 0
M  V30 8355 C 785.914 -3.57243 -0.402182 0
M  V30 8356 C 785.578 -4.50574 0.763671 0
M  V30 8357 C 786.575 -4.93032 1.6497 0
M  V30 8358 C 784.26 -4.9308 0.957973 0
M  V30 8359 C 786.254 -5.76718 2.71432 0
M  V30 8360 C 783.941 -5.76546 2.0258 0
M  V30 8361 C 784.939 -6.18267 2.90232 0
M  V30 8362 O 784.627 -7.00066 3.95174 0
M  V30 8363 H 784.359 -0.675925 0.0100672 0
M  V30 8364 H 786.913 -1.93922 0.677023 0
M  V30 8365 H 785.143 -3.6778 -1.19478 0
M  V30 8366 H 786.832 -3.96107 -0.886219 0
M  V30 8367 H 787.598 -4.60851 1.51134 0
M  V30 8368 H 783.477 -4.60117 0.285144 0
M  V30 8369 H 787.021 -6.09203 3.39878 0
M  V30 8370 H 782.918 -6.0814 2.16417 0
M  V30 8371 H 783.686 -7.18343 3.92333 0
M  V30 8372 N 786.349 -0.21828 -1.56081 0
M  V30 8373 C 787.296 0.693189 -2.20144 0
M  V30 8374 C 788.266 1.19274 -1.15598 0
M  V30 8375 O 789.451 1.25243 -1.4394 0
M  V30 8376 C 786.591 1.89715 -2.88275 0
M  V30 8377 C 785.704 1.4368 -4.07407 0
M  V30 8378 C 784.839 2.59807 -4.63329 0
M  V30 8379 C 783.878 2.10492 -5.74769 0
M  V30 8380 N 783.015 3.1988 -6.24997 0
M  V30 8381 H 787.855 0.14016 -2.9767 0
M  V30 8382 H 785.392 0.0574292 -1.46988 0
M  V30 8383 H 787.35 2.60398 -3.25958 0
M  V30 8384 H 785.98 2.42311 -2.13273 0
M  V30 8385 H 785.032 0.625007 -3.7523 0
M  V30 8386 H 786.344 1.03517 -4.8794 0
M  V30 8387 H 785.498 3.38577 -5.03438 0
M  V30 8388 H 784.237 3.03256 -3.81951 0
M  V30 8389 H 783.242 1.30182 -5.34165 0
M  V30 8390 H 784.467 1.68045 -6.5798 0
M  V30 8391 H 782.413 3.62817 -5.46534 0
M  V30 8392 H 782.33 2.83958 -7.00645 0
M  V30 8393 H 783.598 3.98796 -6.69763 0
M  V30 8394 N 787.827 1.57504 0.0551401 0
M  V30 8395 C 789.067 1.89895 0.756252 0
M  V30 8396 C 789.431 0.813983 1.73892 0
M  V30 8397 O 790.632 1.02145 2.48636 0
M  V30 8398 C 788.903 3.27494 1.43116 0
M  V30 8399 S 790.462 3.81669 2.16504 0
M  V30 8400 H 787.28 0.665173 0.251129 0
M  V30 8401 H 789.882 1.95496 0.0117193 0
M  V30 8402 H 788.586 4.04345 0.702391 0
M  V30 8403 H 788.117 3.25132 2.21479 0
M  V30 8404 H 790.132 3.58295 3.43277 0
M  V30 8405 N 789.305 -0.326896 1.54172 0
M  V30 8406 C 790.551 -1.06681 1.72473 0
M  V30 8407 C 790.884 -1.87779 0.49523 0
M  V30 8408 O 790.159 -1.87754 -0.507803 0
M  V30 8409 C 790.442 -1.99429 2.99834 0
M  V30 8410 C 790.295 -1.21682 4.33028 0
M  V30 8411 C 791.614 -2.99002 3.22933 0
M  V30 8412 H 788.733 -0.386438 0.627563 0
M  V30 8413 H 791.375 -0.343779 1.86864 0
M  V30 8414 H 789.525 -2.61081 2.87696 0
M  V30 8415 H 791.197 -0.625153 4.57044 0
M  V30 8416 H 789.44 -0.519045 4.30684 0
M  V30 8417 H 790.111 -1.89766 5.18356 0
M  V30 8418 H 792.587 -2.4747 3.34511 0
M  V30 8419 H 791.463 -3.61085 4.13412 0
M  V30 8420 H 791.724 -3.71281 2.40006 0
M  V30 8421 N 790.784 -1.46188 -0.588786 0
M  V30 8422 C 792.03 -1.51407 -1.34921 0
M  V30 8423 C 792.363 -0.162771 -1.93517 0
M  V30 8424 O 791.638 0.825082 -1.76132 0
M  V30 8425 C 791.921 -2.60795 -2.48311 0
M  V30 8426 C 791.774 -4.05435 -1.94789 0
M  V30 8427 C 793.093 -2.66313 -3.50379 0
M  V30 8428 H 790.212 -0.551213 -0.489217 0
M  V30 8429 H 792.854 -1.78095 -0.661993 0
M  V30 8430 H 791.004 -2.3817 -3.06932 0
M  V30 8431 H 792.676 -4.39328 -1.40672 0
M  V30 8432 H 790.919 -4.15202 -1.25659 0
M  V30 8433 H 791.59 -4.77691 -2.76613 0
M  V30 8434 H 794.066 -2.86634 -3.01629 0
M  V30 8435 H 792.942 -3.44681 -4.27184 0
M  V30 8436 H 793.203 -1.72127 -4.07216 0
M  V30 8437 N 792.262 0.832906 -1.33792 0
M  V30 8438 C 793.487 1.62568 -1.28788 0
M  V30 8439 C 793.912 1.87599 0.137246 0
M  V30 8440 O 793.27 1.44436 1.0958 0
M  V30 8441 C 793.318 2.9495 -2.07453 0
M  V30 8442 O 792.422 3.86546 -1.43722 0
M  V30 8443 H 791.763 0.494809 -0.442787 0
M  V30 8444 H 794.293 1.03578 -1.76445 0
M  V30 8445 H 794.303 3.44599 -2.1844 0
M  V30 8446 H 792.978 2.76055 -3.11073 0
M  V30 8447 H 791.555 3.45044 -1.41417 0
M  V30 8448 N 793.74 1.17359 1.05189 0
M  V30 8449 C 794.688 0.886527 2.15043 0
M  V30 8450 C 795.682 -0.148834 1.68745 0
M  V30 8451 O 796.888 -0.00175123 1.8 0
M  V30 8452 H 793.263 0.269147 0.702185 0
M  V30 8453 H 795.234 1.82016 2.36459 0
M  V30 8454 C 793.983 0.416333 3.45198 0
M  V30 8455 H 793.306 1.20449 3.81225 0
M  V30 8456 H 794.746 0.254362 4.23236 0
M  V30 8457 C 793.205 -0.866016 3.25579 0
M  V30 8458 O 793.735 -1.9328 3.52144 0
M  V30 8459 N 791.941 -0.814179 2.78961 0
M  V30 8460 H 791.488 0.0541618 2.57543 0
M  V30 8461 H 791.446 -1.67264 2.66214 0
M  V30 8462 N 795.218 -1.23913 0.973828 0
M  V30 8463 C 796.165 -2.25132 0.508366 0
M  V30 8464 C 797.135 -1.59908 -0.449307 0
M  V30 8465 O 798.32 -1.87405 -0.358313 0
M  V30 8466 C 795.46 -3.4458 -0.189422 0
M  V30 8467 C 794.573 -4.24381 0.807738 0
M  V30 8468 C 793.708 -5.31131 0.0854315 0
M  V30 8469 C 792.747 -6.02635 1.07225 0
M  V30 8470 N 791.884 -7.01073 0.379535 0
M  V30 8471 H 796.724 -2.64313 1.37632 0
M  V30 8472 H 794.261 -1.29924 0.689802 0
M  V30 8473 H 796.219 -4.12706 -0.610733 0
M  V30 8474 H 794.849 -3.06218 -1.02129 0
M  V30 8475 H 793.901 -3.55735 1.34747 0
M  V30 8476 H 795.213 -4.73778 1.55998 0
M  V30 8477 H 794.367 -6.05422 -0.393572 0
M  V30 8478 H 793.106 -4.82658 -0.699461 0
M  V30 8479 H 792.111 -5.27143 1.56207 0
M  V30 8480 H 793.336 -6.53197 1.85769 0
M  V30 8481 H 791.282 -6.54862 -0.386269 0
M  V30 8482 H 791.199 -7.48382 1.07054 0
M  V30 8483 H 792.467 -7.79462 -0.0772984 0
M  V30 8484 N 796.696 -0.74468 -1.38897 0
M  V30 8485 C 797.942 -0.297324 -2.00609 0
M  V30 8486 C 798.275 1.11547 -1.58968 0
M  V30 8487 O 797.55 1.76227 -0.823057 0
M  V30 8488 C 797.833 -0.410125 -3.57757 0
M  V30 8489 C 797.686 -1.86338 -4.09387 0
M  V30 8490 C 799.005 0.20176 -4.39637 0
M  V30 8491 H 796.124 -0.109509 -0.728819 0
M  V30 8492 H 798.766 -0.942653 -1.64967 0
M  V30 8493 H 796.916 0.139287 -3.8825 0
M  V30 8494 H 798.588 -2.47042 -3.89574 0
M  V30 8495 H 796.831 -2.38146 -3.62586 0
M  V30 8496 H 797.502 -1.89352 -5.18507 0
M  V30 8497 H 799.978 -0.266703 -4.15244 0
M  V30 8498 H 798.854 0.0925415 -5.48822 0
M  V30 8499 H 799.115 1.289 -4.22891 0
M  V30 8500 N 798.174 1.49689 -0.493057 0
M  V30 8501 C 799.422 2.02027 0.0541642 0
M  V30 8502 C 799.743 1.37554 1.38217 0
M  V30 8503 O 799.013 0.528174 1.88646 0
M  V30 8504 H 797.593 0.746646 0.0230069 0
M  V30 8505 H 800.255 1.83795 -0.648489 0
M  V30 8506 H 799.351 3.11523 0.189652 0
M  V30 8507 N 799.652 0.226554 1.55963 0
M  V30 8508 C 800.584 -0.713907 2.17798 0
M  V30 8509 C 801.597 -1.15387 1.14846 0
M  V30 8510 O 802.786 -1.08416 1.41804 0
M  V30 8511 C 799.886 -1.97945 2.75084 0
M  V30 8512 C 799.059 -1.69424 4.03255 0
M  V30 8513 C 798.118 -2.80734 4.45056 0
M  V30 8514 O 797.144 -2.4899 5.11852 0
M  V30 8515 N 798.346 -4.09797 4.11152 0
M  V30 8516 H 801.111 -0.18494 2.99129 0
M  V30 8517 H 798.672 0.0457346 1.61835 0
M  V30 8518 H 800.664 -2.71611 3.00016 0
M  V30 8519 H 799.234 -2.41876 1.98027 0
M  V30 8520 H 798.454 -0.793767 3.86126 0
M  V30 8521 H 799.742 -1.47806 4.86858 0
M  V30 8522 H 799.14 -4.38429 3.57486 0
M  V30 8523 H 797.697 -4.79992 4.40966 0
M  V30 8524 N 801.13 -1.57531 -0.0467866 0
M  V30 8525 C 802.407 -1.79568 -0.775536 0
M  V30 8526 C 802.787 -0.820322 -1.94509 0
M  V30 8527 O 802.135 0.14134 -2.28062 0
M  V30 8528 C 802.345 -3.26789 -1.22516 0
M  V30 8529 C 803.693 -3.91299 -1.64835 0
M  V30 8530 O 804.717 -3.30831 -1.3202 0
M  V30 8531 O 803.576 -4.97727 -2.25677 0
M  V30 8532 H 800.67 -0.737817 -0.373572 0
M  V30 8533 H 803.216 -1.69682 -0.0249302 0
M  V30 8534 H 801.988 -3.89357 -0.389446 0
M  V30 8535 H 801.611 -3.41496 -2.03633 0
M  V30 8536 N 802.608 0.318715 -1.54344 0
M  V30 8537 C 803.518 1.41535 -1.87097 0
M  V30 8538 C 804.534 1.56361 -0.763353 0
M  V30 8539 O 805.71 1.71365 -1.05811 0
M  V30 8540 C 802.775 2.76178 -2.09587 0
M  V30 8541 C 801.836 2.70486 -3.3337 0
M  V30 8542 C 801.069 3.98708 -3.54778 0
M  V30 8543 O 801.292 4.9721 -2.79532 0
M  V30 8544 O 800.226 4.01674 -4.48266 0
M  V30 8545 H 804.052 1.16764 -2.80357 0
M  V30 8546 H 801.637 0.51318 -1.4031 0
M  V30 8547 H 803.519 3.55873 -2.25682 0
M  V30 8548 H 802.194 3.00829 -1.19514 0
M  V30 8549 H 801.101 1.89325 -3.22656 0
M  V30 8550 H 802.434 2.50789 -4.23516 0
M  V30 8551 N 804.086 1.46499 0.581025 0
M  V30 8552 C 805.502 1.31491 0.904563 0
M  V30 8553 C 805.702 0.287598 1.99437 0
M  V30 8554 O 804.758 -0.309247 2.50599 0
M  V30 8555 C 806.071 2.70163 1.32032 0
M  V30 8556 C 807.619 2.78266 1.43308 0
M  V30 8557 C 808.094 4.17524 1.8825 0
M  V30 8558 N 809.585 4.19949 1.9544 0
M  V30 8559 C 810.32 5.24594 2.31493 0
M  V30 8560 N 809.816 6.39564 2.66326 0
M  V30 8561 N 811.609 5.11961 2.32062 0
M  V30 8562 H 803.76 2.11946 -0.138856 0
M  V30 8563 H 806.023 0.948 0.000548528 0
M  V30 8564 H 805.729 3.46655 0.593554 0
M  V30 8565 H 805.603 3.00379 2.2815 0
M  V30 8566 H 807.99 2.02061 2.15071 0
M  V30 8567 H 808.071 2.51732 0.45438 0
M  V30 8568 H 807.715 4.94225 1.17065 0
M  V30 8569 H 807.645 4.41466 2.87081 0
M  V30 8570 H 810.136 3.36996 1.71004 0
M  V30 8571 H 810.449 7.15187 2.92793 0
M  V30 8572 H 808.794 6.42923 2.6396 0
M  V30 8573 H 811.985 4.21177 2.04272 0
M  V30 8574 H 812.158 5.93626 2.5983 0
M  V30 8575 N 805.565 -0.825799 1.34232 0
M  V30 8576 C 806.495 -1.95151 1.28212 0
M  V30 8577 C 807.476 -1.69345 0.160123 0
M  V30 8578 O 808.661 -1.90983 0.352019 0
M  V30 8579 C 805.791 -3.31554 1.03388 0
M  V30 8580 C 804.745 -3.71793 2.12023 0
M  V30 8581 C 804.071 -5.06147 1.72392 0
M  V30 8582 C 805.371 -3.84193 3.53826 0
M  V30 8583 H 807.065 -2.00445 2.22401 0
M  V30 8584 H 804.611 -0.962996 1.07063 0
M  V30 8585 H 806.564 -4.09889 0.978225 0
M  V30 8586 H 805.288 -3.26551 0.0564142 0
M  V30 8587 H 803.947 -2.95731 2.16654 0
M  V30 8588 H 803.595 -4.97628 0.733137 0
M  V30 8589 H 803.295 -5.34041 2.451 0
M  V30 8590 H 804.819 -5.86943 1.68317 0
M  V30 8591 H 806.233 -4.52806 3.51624 0
M  V30 8592 H 804.63 -4.23538 4.2513 0
M  V30 8593 H 805.7 -2.86272 3.91377 0
M  V30 8594 N 807.043 -1.17915 -1.04565 0
M  V30 8595 C 808.292 -0.965816 -1.77073 0
M  V30 8596 C 808.605 0.506005 -1.88942 0
M  V30 8597 O 809.811 0.837717 -2.58253 0
M  V30 8598 C 808.267 -1.67894 -3.18339 0
M  V30 8599 C 807.875 -3.18972 -3.1458 0
M  V30 8600 C 809.619 -1.54823 -3.9526 0
M  V30 8601 C 807.526 -3.82946 -4.50674 0
M  V30 8602 H 806.456 -0.357729 -0.663736 0
M  V30 8603 H 809.107 -1.41235 -1.17153 0
M  V30 8604 H 807.489 -1.16016 -3.78624 0
M  V30 8605 H 808.663 -3.77835 -2.63776 0
M  V30 8606 H 806.978 -3.32127 -2.51159 0
M  V30 8607 H 809.575 -1.99984 -4.95894 0
M  V30 8608 H 809.918 -0.499727 -4.1329 0
M  V30 8609 H 810.451 -2.03953 -3.41538 0
M  V30 8610 H 807.19 -4.8782 -4.37849 0
M  V30 8611 H 806.71 -3.2887 -5.01602 0
M  V30 8612 H 808.389 -3.85518 -5.196 0
M  V30 8613 N 808.521 1.23394 -0.980386 0
M  V30 8614 C 809.751 1.9556 -0.666319 0
M  V30 8615 C 810.159 1.72786 0.770815 0
M  V30 8616 O 809.502 1.0162 1.53033 0
M  V30 8617 C 809.564 3.48643 -0.876825 0
M  V30 8618 C 809.228 3.95135 -2.29602 0
M  V30 8619 C 810.225 4.03806 -3.2747 0
M  V30 8620 C 807.91 4.28122 -2.62711 0
M  V30 8621 C 809.904 4.44818 -4.56526 0
M  V30 8622 C 807.591 4.68814 -3.9199 0
M  V30 8623 C 808.589 4.77129 -4.88709 0
M  V30 8624 O 808.277 5.16908 -6.15679 0
M  V30 8625 H 808.009 0.629422 -0.246585 0
M  V30 8626 H 810.563 1.57839 -1.31438 0
M  V30 8627 H 808.793 3.86319 -0.171587 0
M  V30 8628 H 810.482 4.0202 -0.55992 0
M  V30 8629 H 811.248 3.78526 -3.03222 0
M  V30 8630 H 807.127 4.20861 -1.8814 0
M  V30 8631 H 810.671 4.51223 -5.32018 0
M  V30 8632 H 806.568 4.93545 -4.16033 0
M  V30 8633 H 807.336 5.3502 -6.19432 0
M  V30 8634 N 809.999 0.752036 1.385 0
M  V30 8635 C 811.246 0.307503 2.00152 0
M  V30 8636 C 811.574 -1.11033 1.59693 0
M  V30 8637 O 810.829 -1.77455 0.825125 0
M  V30 8638 C 811.128 0.376155 3.55415 0
M  V30 8639 C 810.794 1.74942 4.15579 0
M  V30 8640 C 809.456 2.12525 4.31725 0
M  V30 8641 C 811.808 2.65031 4.48785 0
M  V30 8642 C 809.136 3.39671 4.78373 0
M  V30 8643 C 811.488 3.91567 4.96848 0
M  V30 8644 C 810.152 4.2922 5.11201 0
M  V30 8645 H 809.422 0.112523 0.732407 0
M  V30 8646 H 812.069 0.962213 1.65571 0
M  V30 8647 H 810.374 -0.362121 3.90123 0
M  V30 8648 H 812.071 0.0138065 4.00998 0
M  V30 8649 H 808.661 1.44726 4.03426 0
M  V30 8650 H 812.845 2.3726 4.35914 0
M  V30 8651 H 808.101 3.68765 4.8767 0
M  V30 8652 H 812.275 4.61517 5.21512 0
M  V30 8653 H 809.902 5.27805 5.47107 0
M  V30 8654 N 811.477 -1.49425 0.500989 0
M  V30 8655 C 812.707 -2.06561 -0.0402858 0
M  V30 8656 C 813.115 -1.36157 -1.31369 0
M  V30 8657 O 812.458 -0.433618 -1.78509 0
M  V30 8658 C 812.52 -3.5765 -0.364269 0
M  V30 8659 C 812.184 -4.49739 0.811417 0
M  V30 8660 C 813.181 -4.91255 1.7019 0
M  V30 8661 C 810.866 -4.92036 1.01022 0
M  V30 8662 C 812.86 -5.73806 2.77534 0
M  V30 8663 C 810.547 -5.74364 2.08683 0
M  V30 8664 C 811.545 -6.15154 2.96774 0
M  V30 8665 O 811.233 -6.95836 4.02577 0
M  V30 8666 H 810.965 -0.67578 0.0172357 0
M  V30 8667 H 813.519 -1.93193 0.697553 0
M  V30 8668 H 811.749 -3.69026 -1.1557 0
M  V30 8669 H 813.438 -3.97025 -0.844156 0
M  V30 8670 H 814.204 -4.59222 1.56013 0
M  V30 8671 H 810.083 -4.59789 0.333929 0
M  V30 8672 H 813.627 -6.05564 3.4632 0
M  V30 8673 H 809.524 -6.0581 2.22855 0
M  V30 8674 H 810.292 -7.14142 3.9993 0
M  V30 8675 N 812.955 -0.234822 -1.55841 0
M  V30 8676 C 814.201 0.393843 -1.98939 0
M  V30 8677 C 814.534 1.58466 -1.1226 0
M  V30 8678 O 813.809 1.93635 -0.183242 0
M  V30 8679 C 814.092 0.815492 -3.50745 0
M  V30 8680 C 813.945 -0.379878 -4.48193 0
M  V30 8681 C 815.264 1.66687 -4.07312 0
M  V30 8682 H 812.383 0.141681 -0.723253 0
M  V30 8683 H 815.025 -0.333716 -1.87046 0
M  V30 8684 H 813.175 1.43541 -3.6101 0
M  V30 8685 H 814.847 -1.0182 -4.49923 0
M  V30 8686 H 813.09 -1.02507 -4.21515 0
M  V30 8687 H 813.761 -0.0417069 -5.51984 0
M  V30 8688 H 816.237 1.14369 -4.00074 0
M  V30 8689 H 815.113 1.93078 -5.13821 0
M  V30 8690 H 815.374 2.63468 -3.55017 0
M  V30 8691 N 814.433 1.57553 0.0384317 0
M  V30 8692 C 815.661 1.93093 0.743141 0
M  V30 8693 C 816.076 0.833787 1.69391 0
M  V30 8694 O 815.433 -0.190532 1.81503 0
M  V30 8695 C 815.484 3.28533 1.50826 0
M  V30 8696 O 815.205 4.34032 0.595665 0
M  V30 8697 C 816.706 3.78297 2.31098 0
M  V30 8698 H 813.926 0.637486 0.20941 0
M  V30 8699 H 816.47 2.045 -0.00125154 0
M  V30 8700 H 814.625 3.18552 2.20462 0
M  V30 8701 H 815.039 5.12155 1.13124 0
M  V30 8702 H 816.513 4.75602 2.80191 0
M  V30 8703 H 816.99 3.09008 3.12107 0
M  V30 8704 H 817.596 3.91331 1.66555 0
M  V30 8705 N 815.911 -0.310526 1.54511 0
M  V30 8706 C 817.139 -1.06611 1.77318 0
M  V30 8707 C 817.554 -1.81265 0.528043 0
M  V30 8708 O 816.911 -1.75466 -0.50178 0
M  V30 8709 C 816.962 -2.05409 2.97472 0
M  V30 8710 O 816.683 -1.33785 4.17173 0
M  V30 8711 C 818.184 -2.93082 3.32593 0
M  V30 8712 H 815.404 -0.316578 0.591624 0
M  V30 8713 H 817.948 -0.352691 2.01436 0
M  V30 8714 H 816.103 -2.72266 2.7559 0
M  V30 8715 H 816.517 -2.00055 4.84849 0
M  V30 8716 H 817.991 -3.58274 4.19933 0
M  V30 8717 H 818.468 -3.60877 2.50329 0
M  V30 8718 H 819.074 -2.31768 3.566 0
M  V30 8719 N 817.389 -1.46805 -0.573248 0
M  V30 8720 C 818.638 -1.51868 -1.32736 0
M  V30 8721 C 818.951 -0.178765 -1.94781 0
M  V30 8722 O 820.157 -0.107272 -2.71288 0
M  V30 8723 C 818.613 -2.67641 -2.40616 0
M  V30 8724 C 818.221 -4.08094 -1.84832 0
M  V30 8725 C 819.965 -2.81984 -3.17309 0
M  V30 8726 C 817.872 -5.15193 -2.90397 0
M  V30 8727 H 816.802 -0.56523 -0.49903 0
M  V30 8728 H 819.453 -1.7304 -0.610695 0
M  V30 8729 H 817.835 -2.39818 -3.15124 0
M  V30 8730 H 819.009 -4.45751 -1.16803 0
M  V30 8731 H 817.324 -3.985 -1.20775 0
M  V30 8732 H 819.921 -3.59166 -3.96111 0
M  V30 8733 H 820.264 -1.89842 -3.70494 0
M  V30 8734 H 820.797 -3.095 -2.4991 0
M  V30 8735 H 817.536 -6.09158 -2.42088 0
M  V30 8736 H 817.056 -4.82071 -3.56886 0
M  V30 8737 H 818.735 -5.41448 -3.54179 0
M  V30 8738 N 818.867 0.818669 -1.34668 0
M  V30 8739 C 820.278 1.39177 -1.24446 0
M  V30 8740 C 820.629 1.9578 0.128268 0
M  V30 8741 O 819.754 1.90382 1.02877 0
M  V30 8742 C 820.349 2.53012 -2.25323 0
M  V30 8743 C 818.908 3.06218 -2.18878 0
M  V30 8744 C 818.055 1.79112 -2.11694 0
M  V30 8745 H 821.006 0.622709 -1.45973 0
M  V30 8746 H 821.027 3.31226 -1.8727 0
M  V30 8747 H 820.539 2.11784 -3.25221 0
M  V30 8748 H 818.64 3.51939 -1.22351 0
M  V30 8749 H 818.753 3.65019 -3.10319 0
M  V30 8750 H 817.117 2.0018 -1.57481 0
M  V30 8751 H 817.9 1.40053 -3.13433 0
M  V30 8752 N 820.346 1.18468 1.03938 0
M  V30 8753 C 821.623 0.890435 1.74157 0
M  V30 8754 C 822.003 -0.606409 2.02203 0
M  V30 8755 O 821.351 -1.5615 1.66822 0
M  V30 8756 C 821.561 1.73906 3.02585 0
M  V30 8757 C 822.909 1.96686 3.76297 0
M  V30 8758 O 823.933 1.70969 3.12487 0
M  V30 8759 O 822.792 2.39986 4.90988 0
M  V30 8760 H 819.886 0.330889 0.757919 0
M  V30 8761 H 822.432 1.29228 1.09992 0
M  V30 8762 H 821.204 2.75369 2.78006 0
M  V30 8763 H 820.827 1.33581 3.74489 0
M  V30 8764 N 821.824 -1.22873 0.986916 0
M  V30 8765 C 823.072 -1.91084 0.658121 0
M  V30 8766 C 823.393 -1.77304 -0.811675 0
M  V30 8767 O 822.663 -1.15649 -1.58121 0
M  V30 8768 H 821.243 -0.707251 0.240427 0
M  V30 8769 H 823.905 -1.49357 1.25213 0
M  V30 8770 H 823.001 -2.98373 0.915428 0
M  V30 8771 N 823.302 -0.75937 -1.38099 0
M  V30 8772 C 824.549 -0.318113 -1.99986 0
M  V30 8773 C 824.877 1.10184 -1.6028 0
M  V30 8774 O 824.132 1.77015 -0.834524 0
M  V30 8775 C 824.431 -0.394999 -3.55211 0
M  V30 8776 C 824.097 -1.77143 -4.14646 0
M  V30 8777 C 822.759 -2.14811 -4.30592 0
M  V30 8778 C 825.111 -2.67407 -4.47373 0
M  V30 8779 C 822.439 -3.42203 -4.76565 0
M  V30 8780 C 824.791 -3.94196 -4.94765 0
M  V30 8781 C 823.455 -4.31925 -5.08918 0
M  V30 8782 H 822.725 -0.116406 -0.7318 0
M  V30 8783 H 825.372 -0.97098 -1.65058 0
M  V30 8784 H 823.677 0.341426 -3.9031 0
M  V30 8785 H 825.374 -0.0350722 -4.00985 0
M  V30 8786 H 821.964 -1.46864 -4.02652 0
M  V30 8787 H 826.148 -2.39569 -4.3465 0
M  V30 8788 H 821.404 -3.71346 -4.85708 0
M  V30 8789 H 825.578 -4.64276 -5.19057 0
M  V30 8790 H 823.205 -5.30699 -5.443 0
M  V30 8791 N 824.78 1.49157 -0.508906 0
M  V30 8792 C 826.008 2.06879 0.0293734 0
M  V30 8793 C 826.423 1.36823 1.30095 0
M  V30 8794 O 825.78 0.449034 1.7689 0
M  V30 8795 C 825.831 3.60423 0.278791 0
M  V30 8796 O 825.552 4.27844 -0.942389 0
M  V30 8797 C 827.053 4.34881 0.859825 0
M  V30 8798 H 824.273 0.67057 -0.0240184 0
M  V30 8799 H 826.817 1.91834 -0.708526 0
M  V30 8800 H 824.972 3.75145 0.966689 0
M  V30 8801 H 825.386 5.19671 -0.710097 0
M  V30 8802 H 826.86 5.43161 0.983884 0
M  V30 8803 H 827.337 3.9789 1.85958 0
M  V30 8804 H 827.943 4.24785 0.209152 0
M  V30 8805 N 826.258 0.243083 1.55714 0
M  V30 8806 C 827.507 -0.383188 1.98027 0
M  V30 8807 C 827.82 -1.59347 1.13436 0
M  V30 8808 O 829.026 -2.29065 1.45745 0
M  V30 8809 C 827.482 -0.733135 3.52354 0
M  V30 8810 C 827.09 0.455539 4.45678 0
M  V30 8811 C 828.834 -1.32381 4.03331 0
M  V30 8812 C 826.741 0.0819591 5.91343 0
M  V30 8813 H 825.671 -0.146944 0.739543 0
M  V30 8814 H 828.322 0.342697 1.80272 0
M  V30 8815 H 826.704 -1.51704 3.65789 0
M  V30 8816 H 827.878 1.23291 4.44 0
M  V30 8817 H 826.193 0.960886 4.05162 0
M  V30 8818 H 828.79 -1.61658 5.09677 0
M  V30 8819 H 829.133 -2.24698 3.50452 0
M  V30 8820 H 829.666 -0.602885 3.93205 0
M  V30 8821 H 826.405 0.972171 6.48251 0
M  V30 8822 H 825.925 -0.659291 5.96166 0
M  V30 8823 H 827.604 -0.3372 6.46121 0
M  V30 8824 N 827.736 -1.57571 -0.0300757 0
M  V30 8825 C 828.646 -2.09892 -1.04798 0
M  V30 8826 C 829.662 -1.03732 -1.39698 0
M  V30 8827 O 830.838 -1.35461 -1.49038 0
M  V30 8828 C 827.903 -2.56707 -2.33028 0
M  V30 8829 C 826.964 -3.77345 -2.04718 0
M  V30 8830 C 826.197 -4.21918 -3.26834 0
M  V30 8831 O 826.42 -3.66025 -4.37472 0
M  V30 8832 O 825.354 -5.14362 -3.12594 0
M  V30 8833 H 829.18 -2.97023 -0.633344 0
M  V30 8834 H 826.765 -1.47344 -0.246991 0
M  V30 8835 H 828.647 -2.87154 -3.08417 0
M  V30 8836 H 827.322 -1.72688 -2.73789 0
M  V30 8837 H 826.229 -3.51919 -1.26901 0
M  V30 8838 H 827.562 -4.62345 -1.68813 0
M  V30 8839 N 829.214 0.302327 -1.54673 0
M  V30 8840 C 830.439 1.06103 -1.78205 0
M  V30 8841 C 830.864 1.80204 -0.53926 0
M  V30 8842 O 830.222 1.73975 0.510142 0
M  V30 8843 C 830.27 2.01829 -2.98827 0
M  V30 8844 O 829.374 3.10108 -2.71858 0
M  V30 8845 H 828.715 0.30487 -0.589873 0
M  V30 8846 H 831.245 0.340153 -2.01753 0
M  V30 8847 H 831.255 2.44319 -3.2676 0
M  V30 8848 H 829.93 1.473 -3.88942 0
M  V30 8849 H 828.507 2.72142 -2.54937 0
M  V30 8850 N 830.692 1.47107 0.565454 0
M  V30 8851 C 831.639 1.58974 1.6732 0
M  V30 8852 C 832.609 0.433146 1.60353 0
M  V30 8853 O 833.794 0.652141 1.79309 0
M  V30 8854 C 830.934 1.60224 3.05651 0
M  V30 8855 C 830.047 2.86741 3.23116 0
M  V30 8856 C 829.182 2.79381 4.51796 0
M  V30 8857 C 828.221 4.0076 4.62664 0
M  V30 8858 N 827.358 3.91685 5.8269 0
M  V30 8859 H 832.198 2.53588 1.56515 0
M  V30 8860 H 829.735 1.25791 0.762558 0
M  V30 8861 H 831.693 1.58933 3.85741 0
M  V30 8862 H 830.323 0.691285 3.15311 0
M  V30 8863 H 829.375 2.97936 2.36513 0
M  V30 8864 H 830.687 3.7665 3.27011 0
M  V30 8865 H 829.841 2.76293 5.40136 0
M  V30 8866 H 828.58 1.87142 4.50366 0
M  V30 8867 H 827.585 4.04162 3.72738 0
M  V30 8868 H 828.81 4.94117 4.6586 0
M  V30 8869 H 826.756 3.02243 5.82224 0
M  V30 8870 H 826.673 4.75264 5.87929 0
M  V30 8871 H 827.941 3.92599 6.73414 0
M  V30 8872 N 832.17 -0.811516 1.35101 0
M  V30 8873 C 833.581 -1.38515 1.25182 0
M  V30 8874 C 833.932 -1.95846 -0.117883 0
M  V30 8875 O 833.057 -1.90925 -1.01866 0
M  V30 8876 C 833.652 -2.51813 2.26662 0
M  V30 8877 C 832.211 -3.05052 2.20499 0
M  V30 8878 C 831.358 -1.77987 2.12641 0
M  V30 8879 H 834.309 -0.614959 1.46301 0
M  V30 8880 H 834.33 -3.30228 1.89023 0
M  V30 8881 H 833.842 -2.10057 3.2634 0
M  V30 8882 H 831.943 -3.51285 1.24215 0
M  V30 8883 H 832.056 -3.63368 3.1225 0
M  V30 8884 H 830.42 -1.99342 1.5854 0
M  V30 8885 H 831.203 -1.38389 3.14171 0
M  V30 8886 N 833.648 -1.19017 -1.03309 0
M  V30 8887 C 834.873 -1.01598 -1.80811 0
M  V30 8888 C 835.298 0.430773 -1.83101 0
M  V30 8889 O 834.656 1.30946 -1.25391 0
M  V30 8890 C 834.704 -1.5845 -3.23923 0
M  V30 8891 O 833.808 -0.810972 -4.04348 0
M  V30 8892 H 833.149 -0.359398 -0.558327 0
M  V30 8893 H 835.679 -1.57945 -1.30055 0
M  V30 8894 H 835.689 -1.61486 -3.74682 0
M  V30 8895 H 834.364 -2.63752 -3.21571 0
M  V30 8896 H 832.941 -0.85353 -3.63 0
M  V30 8897 N 835.127 1.22348 -0.993418 0
M  V30 8898 C 836.037 2.27987 -0.553076 0
M  V30 8899 C 837.053 1.69378 0.398386 0
M  V30 8900 O 838.229 1.99648 0.26509 0
M  V30 8901 C 835.294 3.46475 0.124809 0
M  V30 8902 C 834.355 4.20399 -0.869682 0
M  V30 8903 C 833.588 5.33229 -0.224052 0
M  V30 8904 O 833.811 5.61885 0.981915 0
M  V30 8905 O 832.745 5.94685 -0.929174 0
M  V30 8906 H 836.571 2.67822 -1.43195 0
M  V30 8907 H 834.156 1.28525 -0.761694 0
M  V30 8908 H 836.038 4.18369 0.504496 0
M  V30 8909 H 834.713 3.08565 0.978243 0
M  V30 8910 H 833.62 3.50774 -1.30031 0
M  V30 8911 H 834.953 4.62191 -1.69233 0
M  V30 8912 N 836.605 0.766683 1.37694 0
M  V30 8913 C 837.515 0.150158 2.34119 0
M  V30 8914 C 838.531 -0.685513 1.59927 0
M  V30 8915 O 839.707 -0.606616 1.92047 0
M  V30 8916 C 836.772 -0.722562 3.39087 0
M  V30 8917 C 835.833 0.128983 4.29106 0
M  V30 8918 C 835.066 -0.702178 5.29061 0
M  V30 8919 O 835.289 -1.93954 5.36412 0
M  V30 8920 O 834.223 -0.114056 6.01792 0
M  V30 8921 H 838.049 0.946829 2.88563 0
M  V30 8922 H 835.634 0.527765 1.39768 0
M  V30 8923 H 837.516 -1.22095 4.03325 0
M  V30 8924 H 836.191 -1.49751 2.86978 0
M  V30 8925 H 835.098 0.673612 3.67985 0
M  V30 8926 H 836.431 0.866892 4.84506 0
M  V30 8927 N 838.083 -1.48885 0.516809 0
M  V30 8928 C 839.013 -2.32241 -0.242157 0
M  V30 8929 C 839.994 -1.41258 -0.947633 0
M  V30 8930 O 841.179 -1.70156 -0.935973 0
M  V30 8931 C 838.309 -3.22151 -1.29754 0
M  V30 8932 C 837.263 -4.22053 -0.710995 0
M  V30 8933 C 836.589 -5.01007 -1.86806 0
M  V30 8934 C 837.889 -5.21388 0.30853 0
M  V30 8935 H 839.583 -2.95943 0.453651 0
M  V30 8936 H 837.129 -1.42316 0.219612 0
M  V30 8937 H 839.082 -3.79284 -1.83634 0
M  V30 8938 H 837.806 -2.56423 -2.02274 0
M  V30 8939 H 836.465 -3.66087 -0.193819 0
M  V30 8940 H 836.113 -4.31713 -2.58133 0
M  V30 8941 H 835.813 -5.68615 -1.48159 0
M  V30 8942 H 837.337 -5.60989 -2.4109 0
M  V30 8943 H 838.751 -5.73122 -0.142703 0
M  V30 8944 H 837.148 -5.96975 0.611673 0
M  V30 8945 H 838.218 -4.69329 1.21894 0
M  V30 8946 N 839.561 -0.251338 -1.55583 0
M  V30 8947 C 840.491 0.640437 -2.24545 0
M  V30 8948 C 841.472 1.17781 -1.22726 0
M  V30 8949 O 842.657 1.21633 -1.5139 0
M  V30 8950 C 839.787 1.8355 -2.94834 0
M  V30 8951 C 838.741 1.4307 -4.03379 0
M  V30 8952 C 838.067 2.70695 -4.61116 0
M  V30 8953 C 839.367 0.59848 -5.1886 0
M  V30 8954 H 841.061 0.0653772 -2.99329 0
M  V30 8955 H 838.607 0.0300042 -1.43969 0
M  V30 8956 H 840.56 2.46505 -3.4178 0
M  V30 8957 H 839.284 2.43601 -2.17546 0
M  V30 8958 H 837.943 0.824474 -3.57209 0
M  V30 8959 H 837.591 3.28954 -3.80524 0
M  V30 8960 H 837.291 2.44332 -5.34393 0
M  V30 8961 H 838.815 3.34541 -5.10798 0
M  V30 8962 H 840.229 1.13244 -5.62004 0
M  V30 8963 H 838.626 0.430728 -5.98552 0
M  V30 8964 H 839.696 -0.38829 -4.83343 0
M  V30 8965 N 841.039 1.57585 0.0217189 0
M  V30 8966 C 841.949 2.10444 1.03684 0
M  V30 8967 C 842.965 1.04472 1.39146 0
M  V30 8968 O 844.141 1.36249 1.48317 0
M  V30 8969 C 841.206 2.5794 2.31664 0
M  V30 8970 C 840.267 3.78425 2.02714 0
M  V30 8971 C 839.5 4.23646 3.24592 0
M  V30 8972 O 839.723 3.6834 4.35525 0
M  V30 8973 O 838.657 5.16013 3.09862 0
M  V30 8974 H 842.483 2.97354 0.617584 0
M  V30 8975 H 840.068 1.47473 0.239174 0
M  V30 8976 H 841.95 2.88785 3.06889 0
M  V30 8977 H 840.625 1.74138 2.7287 0
M  V30 8978 H 839.532 3.52587 1.25033 0
M  V30 8979 H 840.865 4.63234 1.66359 0
M  V30 8980 N 842.517 -0.29412 1.54831 0
M  V30 8981 C 843.765 -1.02643 1.74094 0
M  V30 8982 C 844.086 -1.87563 0.533402 0
M  V30 8983 O 843.356 -1.9061 -0.452192 0
M  V30 8984 H 841.936 -0.381959 0.641963 0
M  V30 8985 H 844.598 -0.323444 1.92197 0
M  V30 8986 H 843.694 -1.67558 2.63307 0
M  V30 8987 N 843.995 -1.47404 -0.557645 0
M  V30 8988 C 844.927 -1.55917 -1.67995 0
M  V30 8989 C 845.94 -0.445411 -1.56588 0
M  V30 8990 O 847.129 -0.714999 -1.63554 0
M  V30 8991 C 844.229 -1.44697 -3.06457 0
M  V30 8992 C 843.402 -2.70633 -3.43622 0
M  V30 8993 C 842.461 -2.53256 -4.61246 0
M  V30 8994 O 841.487 -3.27068 -4.65849 0
M  V30 8995 N 842.689 -1.61053 -5.57711 0
M  V30 8996 H 845.454 -2.52694 -1.61139 0
M  V30 8997 H 843.015 -1.43778 -0.744271 0
M  V30 8998 H 845.007 -1.30806 -3.82978 0
M  V30 8999 H 843.577 -0.560039 -3.07542 0
M  V30 9000 H 842.797 -2.99288 -2.56555 0
M  V30 9001 H 844.085 -3.5424 -3.65228 0
M  V30 9002 H 843.483 -1.00235 -5.56749 0
M  V30 9003 H 842.04 -1.53115 -6.33561 0
M  V30 9004 N 845.473 0.80434 -1.35529 0
M  V30 9005 C 846.884 1.37849 -1.25915 0
M  V30 9006 C 847.235 1.95905 0.107495 0
M  V30 9007 O 846.36 1.91462 1.00852 0
M  V30 9008 C 846.955 2.50608 -2.27994 0
M  V30 9009 C 845.514 3.03879 -2.22114 0
M  V30 9010 C 844.661 1.76856 -2.13582 0
M  V30 9011 H 847.612 0.607192 -1.46625 0
M  V30 9012 H 847.633 3.29221 -1.90772 0
M  V30 9013 H 847.145 2.08323 -3.27449 0
M  V30 9014 H 845.246 3.50622 -1.26077 0
M  V30 9015 H 845.359 3.61707 -3.14173 0
M  V30 9016 H 843.723 1.98498 -1.59595 0
M  V30 9017 H 844.506 1.36721 -3.14901 0
M  V30 9018 N 846.951 1.19563 1.02676 0
M  V30 9019 C 848.197 1.00105 1.76371 0
M  V30 9020 C 848.53 -0.466823 1.88506 0
M  V30 9021 O 847.805 -1.34665 1.40341 0
M  V30 9022 C 848.088 1.67321 3.18866 0
M  V30 9023 C 847.941 3.21486 3.1459 0
M  V30 9024 C 849.26 1.39794 4.17308 0
M  V30 9025 H 846.379 0.365075 0.640226 0
M  V30 9026 H 849.021 1.47433 1.19848 0
M  V30 9027 H 847.171 1.27081 3.67128 0
M  V30 9028 H 848.843 3.70953 2.7421 0
M  V30 9029 H 847.086 3.5292 2.52249 0
M  V30 9030 H 847.757 3.63665 4.15273 0
M  V30 9031 H 850.233 1.74685 3.77657 0
M  V30 9032 H 849.109 1.89371 5.15199 0
M  V30 9033 H 849.37 0.323505 4.40915 0
M  V30 9034 N 848.429 -1.21819 0.999893 0
M  V30 9035 C 849.359 -2.26282 0.576096 0
M  V30 9036 C 850.34 -1.65317 -0.400537 0
M  V30 9037 O 851.525 -1.92028 -0.28964 0
M  V30 9038 C 848.655 -3.47147 -0.103145 0
M  V30 9039 C 847.609 -4.20594 0.792745 0
M  V30 9040 C 846.935 -5.34696 -0.0198026 0
M  V30 9041 C 848.235 -4.78533 2.09293 0
M  V30 9042 H 849.929 -2.61984 1.4493 0
M  V30 9043 H 847.475 -1.25935 0.698316 0
M  V30 9044 H 849.428 -4.1939 -0.411068 0
M  V30 9045 H 848.152 -3.1056 -1.01094 0
M  V30 9046 H 846.811 -3.50194 1.08442 0
M  V30 9047 H 846.459 -4.94352 -0.928729 0
M  V30 9048 H 846.159 -5.84764 0.576661 0
M  V30 9049 H 847.683 -6.09752 -0.321659 0
M  V30 9050 H 849.097 -5.42682 1.8485 0
M  V30 9051 H 847.494 -5.38968 2.63881 0
M  V30 9052 H 848.564 -3.98197 2.76708 0
M  V30 9053 N 849.908 -0.773975 -1.37286 0
M  V30 9054 C 850.838 -0.175782 -2.32837 0
M  V30 9055 C 851.819 0.680603 -1.5589 0
M  V30 9056 O 853.004 0.617607 -1.84117 0
M  V30 9057 C 850.134 0.702388 -3.40123 0
M  V30 9058 C 849.088 -0.0528687 -4.27967 0
M  V30 9059 C 848.414 0.944891 -5.26285 0
M  V30 9060 C 849.714 -1.23316 -5.07534 0
M  V30 9061 H 851.408 -0.974016 -2.83114 0
M  V30 9062 H 848.954 -0.469826 -1.3612 0
M  V30 9063 H 850.907 1.13069 -4.05947 0
M  V30 9064 H 849.631 1.53316 -2.88378 0
M  V30 9065 H 848.29 -0.461978 -3.63678 0
M  V30 9066 H 847.938 1.77028 -4.70819 0
M  V30 9067 H 847.638 0.444079 -5.8592 0
M  V30 9068 H 849.162 1.37209 -5.94984 0
M  V30 9069 H 850.576 -0.881395 -5.66484 0
M  V30 9070 H 848.973 -1.66621 -5.76504 0
M  V30 9071 H 850.043 -2.03617 -4.40077 0
M  V30 9072 N 851.386 1.48609 -0.524698 0
M  V30 9073 C 852.611 2.07398 0.00952139 0
M  V30 9074 C 853.036 1.37939 1.27884 0
M  V30 9075 O 852.394 0.443633 1.75788 0
M  V30 9076 C 852.442 3.59916 0.221956 0
M  V30 9077 O 851.546 3.91647 1.29175 0
M  V30 9078 H 850.887 0.662981 -0.0367729 0
M  V30 9079 H 853.417 1.91092 -0.7311 0
M  V30 9080 H 853.427 4.05552 0.446236 0
M  V30 9081 H 852.102 4.09876 -0.705306 0
M  V30 9082 H 850.679 3.57796 1.05055 0
M  V30 9083 N 852.864 0.259585 1.55447 0
M  V30 9084 C 854.104 -0.362989 2.01151 0
M  V30 9085 C 854.468 -1.54201 1.14394 0
M  V30 9086 O 855.669 -2.23318 1.49608 0
M  V30 9087 C 853.94 -0.750399 3.49434 0
M  V30 9088 S 855.499 -1.3617 4.17137 0
M  V30 9089 H 852.317 -0.11365 0.701858 0
M  V30 9090 H 854.919 0.377788 1.91815 0
M  V30 9091 H 853.623 0.116807 4.10234 0
M  V30 9092 H 853.154 -1.52303 3.62722 0
M  V30 9093 H 855.169 -2.65059 4.19474 0
M  V30 9094 N 854.342 -1.57594 -0.0133615 0
M  V30 9095 C 855.274 -2.04402 -1.03695 0
M  V30 9096 C 856.287 -0.959546 -1.31516 0
M  V30 9097 O 857.476 -1.23659 -1.28727 0
M  V30 9098 C 854.576 -2.41766 -2.37491 0
M  V30 9099 C 853.749 -3.72785 -2.28802 0
M  V30 9100 C 852.808 -3.97165 -3.45176 0
M  V30 9101 O 851.834 -4.68013 -3.23963 0
M  V30 9102 N 853.036 -3.44021 -4.67579 0
M  V30 9103 H 855.801 -2.92833 -0.637874 0
M  V30 9104 H 853.362 -1.60647 -0.20101 0
M  V30 9105 H 855.354 -2.55201 -3.14093 0
M  V30 9106 H 853.924 -1.58924 -2.69188 0
M  V30 9107 H 853.144 -3.69555 -1.37197 0
M  V30 9108 H 854.432 -4.58704 -2.20154 0
M  V30 9109 H 853.83 -2.86623 -4.87713 0
M  V30 9110 H 852.387 -3.62808 -5.41492 0
M  V30 9111 N 855.82 0.285905 -1.54985 0
M  V30 9112 C 856.783 1.33625 -1.86218 0
M  V30 9113 C 857.783 1.42971 -0.735936 0
M  V30 9114 O 858.973 1.42345 -1.00417 0
M  V30 9115 C 856.105 2.71926 -2.05595 0
M  V30 9116 H 857.298 1.07167 -2.80099 0
M  V30 9117 H 854.851 0.523335 -1.47278 0
M  V30 9118 H 855.586 3.03583 -1.14053 0
M  V30 9119 H 855.371 2.6653 -2.87583 0
M  V30 9120 H 856.861 3.47841 -2.31077 0
M  V30 9121 N 857.298 1.47698 0.54982 0
M  V30 9122 C 858.575 1.45185 1.31075 0
M  V30 9123 C 858.955 0.152768 2.10547 0
M  V30 9124 O 858.303 -0.865706 2.11466 0
M  V30 9125 C 858.513 2.70192 2.20902 0
M  V30 9126 C 859.861 3.1771 2.81683 0
M  V30 9127 O 860.885 2.70971 2.312 0
M  V30 9128 O 859.744 3.98986 3.7346 0
M  V30 9129 H 856.838 0.57892 0.590577 0
M  V30 9130 H 859.384 1.59908 0.568112 0
M  V30 9131 H 858.156 3.56269 1.61828 0
M  V30 9132 H 857.779 2.58091 3.02448 0
M  V30 9133 N 858.776 -0.797141 1.35954 0
M  V30 9134 C 860.001 -1.59097 1.33053 0
M  V30 9135 C 860.426 -1.87897 -0.0874592 0
M  V30 9136 O 859.784 -1.47291 -1.05712 0
M  V30 9137 C 859.832 -2.89346 2.152 0
M  V30 9138 O 858.936 -3.826 1.5392 0
M  V30 9139 H 858.277 -0.482895 0.45575 0
M  V30 9140 H 860.807 -0.988633 1.79129 0
M  V30 9141 H 860.817 -3.38686 2.27499 0
M  V30 9142 H 859.492 -2.6771 3.18283 0
M  V30 9143 H 858.069 -3.41174 1.50516 0
M  V30 9144 N 860.254 -1.20106 -1.0204 0
M  V30 9145 C 861.484 -1.0329 -1.78927 0
M  V30 9146 C 861.892 0.421115 -1.84454 0
M  V30 9147 O 861.235 1.30422 -1.29367 0
M  V30 9148 C 861.297 -1.53627 -3.25021 0
M  V30 9149 C 860.961 -3.01869 -3.4311 0
M  V30 9150 C 861.958 -3.9956 -3.32638 0
M  V30 9151 C 859.643 -3.40746 -3.6905 0
M  V30 9152 C 861.637 -5.34119 -3.47844 0
M  V30 9153 C 859.324 -4.75462 -3.839 0
M  V30 9154 C 860.322 -5.71957 -3.73302 0
M  V30 9155 O 860.01 -7.04231 -3.87703 0
M  V30 9156 H 859.742 -0.363962 -0.569656 0
M  V30 9157 H 862.296 -1.59551 -1.29354 0
M  V30 9158 H 860.526 -0.917481 -3.75658 0
M  V30 9159 H 862.215 -1.32889 -3.8353 0
M  V30 9160 H 862.981 -3.70869 -3.12539 0
M  V30 9161 H 858.86 -2.66182 -3.76388 0
M  V30 9162 H 862.404 -6.09421 -3.39488 0
M  V30 9163 H 858.301 -5.03844 -4.03499 0
M  V30 9164 H 859.069 -7.11425 -4.04744 0
M  V30 9165 N 861.732 1.21287 -1.00634 0
M  V30 9166 C 862.679 2.23705 -0.567876 0
M  V30 9167 C 863.649 1.61043 0.406753 0
M  V30 9168 O 864.834 1.88289 0.308499 0
M  V30 9169 C 861.974 3.44961 0.097996 0
M  V30 9170 C 861.087 4.22091 -0.919972 0
M  V30 9171 C 860.222 5.30718 -0.226222 0
M  V30 9172 C 859.261 5.99581 -1.23165 0
M  V30 9173 N 858.398 6.99821 -0.565278 0
M  V30 9174 H 863.238 2.60571 -1.44592 0
M  V30 9175 H 860.775 1.28049 -0.724006 0
M  V30 9176 H 862.733 4.1418 0.501097 0
M  V30 9177 H 861.363 3.08818 0.939744 0
M  V30 9178 H 860.415 3.52038 -1.44131 0
M  V30 9179 H 861.727 4.69476 -1.68505 0
M  V30 9180 H 860.881 6.06253 0.232917 0
M  V30 9181 H 859.62 4.84343 0.571247 0
M  V30 9182 H 858.625 5.22816 -1.70128 0
M  V30 9183 H 859.85 6.48042 -2.03022 0
M  V30 9184 H 857.796 6.55656 0.212508 0
M  V30 9185 H 857.713 7.4528 -1.26858 0
M  V30 9186 H 858.981 7.79393 -0.129389 0
M  V30 9187 N 863.21 0.781244 1.36873 0
M  V30 9188 C 864.44 0.361042 2.03421 0
M  V30 9189 C 864.848 -1.02471 1.59048 0
M  V30 9190 O 864.191 -1.66712 0.771552 0
M  V30 9191 C 864.253 0.336202 3.57924 0
M  V30 9192 C 863.917 1.66815 4.25467 0
M  V30 9193 C 864.914 2.62224 4.48926 0
M  V30 9194 C 862.599 1.9452 4.63106 0
M  V30 9195 C 864.593 3.83538 5.09095 0
M  V30 9196 C 862.28 3.16103 5.22994 0
M  V30 9197 C 863.278 4.10431 5.45926 0
M  V30 9198 O 862.966 5.29871 6.04559 0
M  V30 9199 H 862.698 0.147956 0.65961 0
M  V30 9200 H 865.252 1.05895 1.75998 0
M  V30 9201 H 863.482 -0.418147 3.84433 0
M  V30 9202 H 865.171 -0.0582199 4.05858 0
M  V30 9203 H 865.937 2.42104 4.20251 0
M  V30 9204 H 861.816 1.21921 4.44585 0
M  V30 9205 H 865.36 4.57178 5.2691 0
M  V30 9206 H 861.257 3.36104 5.51094 0
M  V30 9207 H 862.025 5.30825 6.23031 0
M  V30 9208 N 864.689 -1.48329 0.532571 0
M  V30 9209 C 865.599 -2.33445 -0.232546 0
M  V30 9210 C 866.615 -1.46651 -0.93645 0
M  V30 9211 O 867.791 -1.79627 -0.910834 0
M  V30 9212 C 864.856 -3.22824 -1.26434 0
M  V30 9213 C 863.917 -4.25492 -0.570511 0
M  V30 9214 C 863.15 -5.10601 -1.55315 0
M  V30 9215 O 863.373 -4.97733 -2.78599 0
M  V30 9216 O 862.307 -5.91927 -1.09112 0
M  V30 9217 H 866.133 -3.00119 0.464988 0
M  V30 9218 H 863.718 -1.46489 0.293462 0
M  V30 9219 H 865.6 -3.78103 -1.86055 0
M  V30 9220 H 864.275 -2.58807 -1.94424 0
M  V30 9221 H 863.182 -3.74041 0.0662587 0
M  V30 9222 H 864.515 -4.92154 0.0674904 0
M  V30 9223 N 866.167 -0.267825 -1.55308 0
M  V30 9224 C 867.117 0.637168 -2.18916 0
M  V30 9225 C 868.101 1.12381 -1.15149 0
M  V30 9226 O 869.293 1.0701 -1.40989 0
M  V30 9227 C 866.422 1.82423 -2.90821 0
M  V30 9228 C 865.508 1.35512 -4.01867 0
M  V30 9229 N 865.899 0.601644 -5.02209 0
M  V30 9230 C 864.197 1.63868 -4.14805 0
M  V30 9231 C 864.898 0.35596 -5.8061 0
M  V30 9232 N 863.874 0.926271 -5.3565 0
M  V30 9233 H 867.676 0.0535787 -2.93851 0
M  V30 9234 H 865.19 -0.0710577 -1.62244 0
M  V30 9235 H 867.187 2.48379 -3.34834 0
M  V30 9236 H 865.847 2.41185 -2.17394 0
M  V30 9237 H 866.858 0.249693 -5.17298 0
M  V30 9238 H 863.535 2.23618 -3.52564 0
M  V30 9239 H 864.925 -0.246994 -6.71446 0
M  V30 9240 N 867.645 1.57599 0.00500368 0
M  V30 9241 C 868.575 2.11143 0.99705 0
M  V30 9242 C 869.556 1.0194 1.3617 0
M  V30 9243 O 870.741 1.29596 1.44632 0
M  V30 9244 C 867.871 2.61062 2.2905 0
M  V30 9245 C 866.825 3.74745 2.0676 0
M  V30 9246 C 866.151 4.10961 3.42075 0
M  V30 9247 C 867.451 5.02222 1.43424 0
M  V30 9248 H 869.145 2.94281 0.551251 0
M  V30 9249 H 866.691 1.41565 0.263715 0
M  V30 9250 H 868.644 2.97146 2.98801 0
M  V30 9251 H 867.368 1.75038 2.75734 0
M  V30 9252 H 866.027 3.39047 1.39436 0
M  V30 9253 H 865.675 3.21968 3.86453 0
M  V30 9254 H 865.375 4.87549 3.27979 0
M  V30 9255 H 866.899 4.49599 4.1315 0
M  V30 9256 H 868.313 5.36109 2.03125 0
M  V30 9257 H 866.71 5.83581 1.39831 0
M  V30 9258 H 867.78 4.83224 0.40285 0
M  V30 9259 N 869.123 -0.277682 1.55134 0
M  V30 9260 C 870.539 -0.624625 1.46869 0
M  V30 9261 C 870.739 -1.89717 0.678958 0
M  V30 9262 O 869.795 -2.51739 0.195939 0
M  V30 9263 C 871.108 -0.755937 2.91043 0
M  V30 9264 C 872.656 -0.850299 3.01229 0
M  V30 9265 C 873.131 -1.01343 4.46647 0
M  V30 9266 N 874.622 -1.07906 4.50456 0
M  V30 9267 C 875.357 -1.224 5.60184 0
M  V30 9268 N 874.853 -1.33642 6.79788 0
M  V30 9269 N 876.646 -1.25473 5.47917 0
M  V30 9270 H 868.797 0.558102 2.04937 0
M  V30 9271 H 871.06 0.188228 0.929125 0
M  V30 9272 H 870.766 0.108593 3.51532 0
M  V30 9273 H 870.64 -1.6377 3.39793 0
M  V30 9274 H 873.027 -1.7053 2.40839 0
M  V30 9275 H 873.108 0.0559681 2.55739 0
M  V30 9276 H 872.752 -0.163102 5.07638 0
M  V30 9277 H 872.682 -1.93427 4.89789 0
M  V30 9278 H 875.173 -1.00477 3.64298 0
M  V30 9279 H 875.486 -1.44522 7.59166 0
M  V30 9280 H 873.831 -1.30655 6.82608 0
M  V30 9281 H 877.022 -1.16317 4.53418 0
M  V30 9282 H 877.195 -1.36424 6.33476 0
M  V30 9283 N 870.601 -1.47988 -0.541979 0
M  V30 9284 C 871.847 -1.56604 -1.29795 0
M  V30 9285 C 872.202 -0.231728 -1.90999 0
M  V30 9286 O 871.495 0.764203 -1.757 0
M  V30 9287 C 871.689 -2.63189 -2.41798 0
M  V30 9288 C 871.518 -4.06855 -1.9157 0
M  V30 9289 C 870.288 -4.74132 -1.74719 0
M  V30 9290 C 872.486 -4.934 -1.45123 0
M  V30 9291 N 870.468 -6.02258 -1.18991 0
M  V30 9292 C 871.839 -6.11675 -1.01263 0
M  V30 9293 C 873.894 -4.7972 -1.33315 0
M  V30 9294 C 872.597 -7.17778 -0.467663 0
M  V30 9295 C 874.623 -5.85934 -0.802192 0
M  V30 9296 C 873.985 -7.03409 -0.373595 0
M  V30 9297 H 870.084 -0.627677 -0.466418 0
M  V30 9298 H 872.668 -1.84812 -0.612576 0
M  V30 9299 H 870.839 -2.36823 -3.07846 0
M  V30 9300 H 872.571 -2.6156 -3.08818 0
M  V30 9301 H 869.326 -4.30276 -1.97887 0
M  V30 9302 H 869.75 -6.70558 -0.931715 0
M  V30 9303 H 874.392 -3.89249 -1.6506 0
M  V30 9304 H 872.11 -8.07982 -0.137874 0
M  V30 9305 H 875.696 -5.774 -0.714171 0
M  V30 9306 H 874.576 -7.84194 0.0308796 0
M  V30 9307 N 872.079 0.78992 -1.36375 0
M  V30 9308 C 873.309 1.57644 -1.33536 0
M  V30 9309 C 873.717 1.89007 0.0855075 0
M  V30 9310 O 873.06 1.50547 1.05267 0
M  V30 9311 C 873.122 2.92424 -2.09113 0
M  V30 9312 C 872.786 2.83793 -3.58205 0
M  V30 9313 C 873.783 2.56072 -4.52464 0
M  V30 9314 C 871.468 3.02386 -4.01084 0
M  V30 9315 C 873.462 2.47044 -5.87578 0
M  V30 9316 C 871.149 2.9298 -5.36289 0
M  V30 9317 C 872.147 2.65347 -6.29349 0
M  V30 9318 O 871.835 2.55935 -7.62071 0
M  V30 9319 H 871.567 0.495639 -0.459694 0
M  V30 9320 H 874.121 0.988354 -1.80058 0
M  V30 9321 H 872.351 3.53282 -1.57254 0
M  V30 9322 H 874.04 3.53693 -1.99139 0
M  V30 9323 H 874.806 2.4141 -4.2065 0
M  V30 9324 H 870.685 3.229 -3.29023 0
M  V30 9325 H 874.229 2.25396 -6.60184 0
M  V30 9326 H 870.126 3.07204 -5.67711 0
M  V30 9327 H 870.894 2.7142 -7.72187 0
M  V30 9328 N 873.557 1.20646 1.01402 0
M  V30 9329 C 874.973 0.961866 1.27359 0
M  V30 9330 C 875.173 -0.357083 1.98311 0
M  V30 9331 O 874.229 -1.08498 2.28001 0
M  V30 9332 C 875.542 2.14627 2.10609 0
M  V30 9333 C 877.09 2.18753 2.23866 0
M  V30 9334 C 877.565 3.36686 3.10494 0
M  V30 9335 N 879.056 3.36716 3.18083 0
M  V30 9336 C 879.791 4.24615 3.85343 0
M  V30 9337 N 879.287 5.22697 4.54708 0
M  V30 9338 N 881.08 4.12449 3.81893 0
M  V30 9339 H 873.231 2.05481 0.537721 0
M  V30 9340 H 875.494 0.899292 0.299963 0
M  V30 9341 H 875.2 3.10159 1.65814 0
M  V30 9342 H 875.074 2.12935 3.11349 0
M  V30 9343 H 877.461 1.23782 2.67885 0
M  V30 9344 H 877.542 2.24492 1.22626 0
M  V30 9345 H 877.186 4.31945 2.67181 0
M  V30 9346 H 877.116 3.28185 4.11828 0
M  V30 9347 H 879.607 2.65728 2.68695 0
M  V30 9348 H 879.92 5.86087 5.03708 0
M  V30 9349 H 878.265 5.26631 4.53525 0
M  V30 9350 H 881.456 3.35091 3.26851 0
M  V30 9351 H 881.629 4.81162 4.34035 0
M  V30 9352 N 875.035 -1.20752 1.01276 0
M  V30 9353 C 875.965 -2.25658 0.600064 0
M  V30 9354 C 876.946 -1.65733 -0.38298 0
M  V30 9355 O 878.131 -1.92324 -0.269256 0
M  V30 9356 C 875.261 -3.47237 -0.0663197 0
M  V30 9357 C 874.215 -4.1973 0.83731 0
M  V30 9358 C 873.541 -5.34687 0.0369102 0
M  V30 9359 C 874.841 -4.76286 2.14357 0
M  V30 9360 H 876.535 -2.60432 1.477 0
M  V30 9361 H 874.081 -1.25187 0.711634 0
M  V30 9362 H 876.034 -4.19803 -0.366563 0
M  V30 9363 H 874.758 -3.11615 -0.977944 0
M  V30 9364 H 873.417 -3.49024 1.1215 0
M  V30 9365 H 873.065 -4.95309 -0.876244 0
M  V30 9366 H 872.765 -5.84119 0.63865 0
M  V30 9367 H 874.289 -6.10059 -0.256968 0
M  V30 9368 H 875.703 -5.40691 1.90595 0
M  V30 9369 H 874.1 -5.36139 2.69583 0
M  V30 9370 H 875.17 -3.9524 2.80916 0
M  V30 9371 N 876.513 -0.788492 -1.36457 0
M  V30 9372 C 877.461 -0.174192 -2.31947 0
M  V30 9373 C 878.455 0.665974 -1.5576 0
M  V30 9374 O 879.661 0.561161 -1.71029 0
M  V30 9375 H 876.036 -0.0375538 -0.751062 0
M  V30 9376 H 878.007 -0.995011 -2.81322 0
M  V30 9377 C 876.756 0.677276 -3.4104 0
M  V30 9378 H 876.079 0.0401418 -3.9978 0
M  V30 9379 H 877.519 1.07379 -4.10178 0
M  V30 9380 C 875.978 1.83512 -2.82533 0
M  V30 9381 O 876.508 2.93164 -2.74623 0
M  V30 9382 N 874.714 1.64095 -2.39836 0
M  V30 9383 H 874.261 0.749046 -2.46469 0
M  V30 9384 H 874.219 2.41726 -2.01037 0
M  V30 9385 N 877.991 1.48044 -0.54043 0
M  V30 9386 C 878.921 2.32597 0.205178 0
M  V30 9387 C 879.902 1.42748 0.925041 0
M  V30 9388 O 881.087 1.71624 0.908784 0
M  V30 9389 C 878.217 3.24175 1.24612 0
M  V30 9390 C 877.171 4.23131 0.64376 0
M  V30 9391 C 876.497 5.03915 1.78812 0
M  V30 9392 C 877.797 5.20831 -0.39144 0
M  V30 9393 H 879.491 2.95184 -0.500676 0
M  V30 9394 H 877.037 1.41948 -0.242225 0
M  V30 9395 H 878.99 3.82158 1.77576 0
M  V30 9396 H 877.714 2.59608 1.98169 0
M  V30 9397 H 876.373 3.66349 0.135554 0
M  V30 9398 H 876.021 4.35765 2.51232 0
M  V30 9399 H 875.721 5.709 1.39094 0
M  V30 9400 H 877.245 5.64753 2.32134 0
M  V30 9401 H 878.659 5.73277 0.0515064 0
M  V30 9402 H 877.056 5.95926 -0.706569 0
M  V30 9403 H 878.126 4.6733 -1.29345 0
M  V30 9404 N 879.47 0.276058 1.55163 0
M  V30 9405 C 880.695 -0.346648 2.04483 0
M  V30 9406 C 881.12 -1.48613 1.15308 0
M  V30 9407 O 880.478 -1.80663 0.151875 0
M  V30 9408 C 880.526 -0.804268 3.51517 0
M  V30 9409 O 879.63 -1.91143 3.65429 0
M  V30 9410 H 878.971 -0.0715251 0.660136 0
M  V30 9411 H 881.501 0.410631 2.00437 0
M  V30 9412 H 881.511 -1.09977 3.92898 0
M  V30 9413 H 880.186 0.0294123 4.1589 0
M  V30 9414 H 878.763 -1.61839 3.3595 0
M  V30 9415 N 880.948 -1.576 0.00335426 0
M  V30 9416 C 882.176 -1.94996 -0.691685 0
M  V30 9417 C 882.591 -0.878405 -1.67121 0
M  V30 9418 O 881.948 0.142343 -1.81944 0
M  V30 9419 C 881.999 -3.32416 -1.42063 0
M  V30 9420 O 881.72 -4.35458 -0.48038 0
M  V30 9421 C 883.221 -3.84291 -2.20987 0
M  V30 9422 H 880.441 -0.642814 -0.192434 0
M  V30 9423 H 882.985 -2.04425 0.0554706 0
M  V30 9424 H 881.14 -3.24285 -2.11939 0
M  V30 9425 H 881.554 -5.14975 -0.995054 0
M  V30 9426 H 883.028 -4.82863 -2.67483 0
M  V30 9427 H 883.505 -3.17174 -3.03805 0
M  V30 9428 H 884.111 -3.95609 -1.56121 0
M  V30 9429 N 882.426 0.269451 -1.5528 0
M  V30 9430 C 883.356 1.33729 -1.91413 0
M  V30 9431 C 884.337 1.51348 -0.776391 0
M  V30 9432 O 885.522 1.64332 -1.03482 0
M  V30 9433 C 882.652 2.69618 -2.18914 0
M  V30 9434 C 881.606 2.66725 -3.34726 0
M  V30 9435 C 880.932 4.06199 -3.47716 0
M  V30 9436 C 882.232 2.25684 -4.71025 0
M  V30 9437 H 883.926 1.03736 -2.80854 0
M  V30 9438 H 881.472 0.497579 -1.3513 0
M  V30 9439 H 883.425 3.44436 -2.42779 0
M  V30 9440 H 882.149 3.01201 -1.26275 0
M  V30 9441 H 880.808 1.94365 -3.10834 0
M  V30 9442 H 880.456 4.3501 -2.52537 0
M  V30 9443 H 880.156 4.05157 -4.25583 0
M  V30 9444 H 881.68 4.8275 -3.73877 0
M  V30 9445 H 883.094 2.90225 -4.94411 0
M  V30 9446 H 881.491 2.35797 -5.51833 0
M  V30 9447 H 882.561 1.20819 -4.69607 0
M  V30 9448 N 883.904 1.48273 0.534124 0
M  V30 9449 C 884.854 1.58889 1.63519 0
M  V30 9450 C 885.838 0.44626 1.54588 0
M  V30 9451 O 887.03 0.697474 1.62679 0
M  V30 9452 C 884.159 1.62787 3.0225 0
M  V30 9453 C 883.245 2.82515 3.16301 0
M  V30 9454 N 883.636 4.06977 3.00338 0
M  V30 9455 C 881.934 2.7976 3.47347 0
M  V30 9456 C 882.635 4.87283 3.17694 0
M  V30 9457 N 881.611 4.20024 3.45081 0
M  V30 9458 H 885.413 2.52869 1.49781 0
M  V30 9459 H 882.927 1.44587 0.739479 0
M  V30 9460 H 884.924 1.68486 3.81337 0
M  V30 9461 H 883.584 0.699201 3.17082 0
M  V30 9462 H 884.595 4.37479 2.77186 0
M  V30 9463 H 881.272 1.96132 3.68563 0
M  V30 9464 H 882.662 5.96047 3.10126 0
M  V30 9465 N 885.382 -0.782676 1.36792 0
M  V30 9466 C 886.659 -1.52939 1.21939 0
M  V30 9467 C 887.039 -2.10228 -0.191639 0
M  V30 9468 O 886.387 -1.94574 -1.19805 0
M  V30 9469 C 886.597 -2.61898 2.30674 0
M  V30 9470 C 887.945 -3.29598 2.67676 0
M  V30 9471 O 888.969 -2.72186 2.29768 0
M  V30 9472 O 887.828 -4.3337 3.32946 0
M  V30 9473 H 884.922 -0.676856 0.47518 0
M  V30 9474 H 887.468 -0.82058 1.48542 0
M  V30 9475 H 886.24 -2.17607 3.25212 0
M  V30 9476 H 885.863 -3.40391 2.05475 0
M  V30 9477 N 886.86 -1.21182 -1.00761 0
M  V30 9478 C 887.823 -0.970339 -2.07646 0
M  V30 9479 C 888.823 0.0576345 -1.60697 0
M  V30 9480 O 890.013 -0.179369 -1.73274 0
M  V30 9481 C 887.145 -0.462703 -3.37745 0
M  V30 9482 H 888.338 -1.91856 -2.30502 0
M  V30 9483 H 885.891 -1.02844 -1.17698 0
M  V30 9484 H 886.626 0.490559 -3.20568 0
M  V30 9485 H 886.411 -1.20416 -3.73152 0
M  V30 9486 H 887.901 -0.313531 -4.16421 0
M  V30 9487 N 888.338 1.20213 -1.01915 0
M  V30 9488 C 889.288 2.20957 -0.562327 0
M  V30 9489 C 890.272 1.56258 0.383704 0
M  V30 9490 O 891.464 1.75794 0.206255 0
M  V30 9491 C 888.593 3.43167 0.0954035 0
M  V30 9492 C 887.679 4.15028 -0.872487 0
M  V30 9493 N 888.07 4.63231 -2.03103 0
M  V30 9494 C 886.368 4.4057 -0.69385 0
M  V30 9495 C 887.069 5.18307 -2.64069 0
M  V30 9496 N 886.045 5.08522 -1.9211 0
M  V30 9497 H 889.847 2.55894 -1.44553 0
M  V30 9498 H 887.361 1.36178 -0.884831 0
M  V30 9499 H 889.358 4.14569 0.440232 0
M  V30 9500 H 888.018 3.09734 0.974413 0
M  V30 9501 H 889.029 4.58365 -2.41086 0
M  V30 9502 H 885.706 4.17276 0.136889 0
M  V30 9503 H 887.096 5.65961 -3.6213 0
M  V30 9504 N 889.816 0.795718 1.36037 0
M  V30 9505 C 891.064 0.370291 1.98679 0
M  V30 9506 C 891.385 -1.06332 1.63458 0
M  V30 9507 O 890.655 -1.73394 0.911671 0
M  V30 9508 H 889.235 0.133928 0.734896 0
M  V30 9509 H 891.897 1.01915 1.6613 0
M  V30 9510 H 890.993 0.467207 3.08583 0
M  V30 9511 N 891.294 -1.47756 0.548274 0
M  V30 9512 C 892.242 -2.3158 -0.217584 0
M  V30 9513 C 893.236 -1.42372 -0.917957 0
M  V30 9514 O 894.442 -1.59184 -0.840259 0
M  V30 9515 H 890.817 -0.74671 -0.0890388 0
M  V30 9516 H 892.788 -2.94032 0.508719 0
M  V30 9517 C 891.537 -3.24834 -1.24008 0
M  V30 9518 H 890.86 -3.93435 -0.710572 0
M  V30 9519 H 892.3 -3.86336 -1.74701 0
M  V30 9520 C 890.759 -2.47724 -2.2833 0
M  V30 9521 O 891.289 -2.21522 -3.35098 0
M  V30 9522 N 889.495 -2.08891 -2.02022 0
M  V30 9523 H 889.042 -2.30401 -1.1521 0
M  V30 9524 H 889 -1.57613 -2.7204 0
M  V30 9525 N 892.772 -0.284283 -1.55015 0
M  V30 9526 C 894.183 0.211681 -1.85496 0
M  V30 9527 C 894.534 1.54735 -1.2063 0
M  V30 9528 O 893.659 2.10594 -0.497918 0
M  V30 9529 C 894.254 0.390864 -3.36538 0
M  V30 9530 C 892.813 0.831055 -3.67111 0
M  V30 9531 C 891.96 -0.0703581 -2.77211 0
M  V30 9532 H 894.911 -0.505803 -1.50424 0
M  V30 9533 H 894.932 1.22803 -3.60138 0
M  V30 9534 H 894.444 -0.581409 -3.8372 0
M  V30 9535 H 892.545 1.81447 -3.25434 0
M  V30 9536 H 892.658 0.662026 -4.74504 0
M  V30 9537 H 891.022 0.447528 -2.50737 0
M  V30 9538 H 891.805 -1.03868 -3.2721 0
M  V30 9539 N 894.251 1.57596 -0.0117121 0
M  V30 9540 C 895.181 2.12188 0.9746 0
M  V30 9541 C 896.162 1.03379 1.35081 0
M  V30 9542 O 897.347 1.31123 1.4325 0
M  V30 9543 C 894.477 2.63477 2.26268 0
M  V30 9544 C 893.431 3.76917 2.02774 0
M  V30 9545 C 892.757 4.14566 3.37697 0
M  V30 9546 C 894.057 5.03715 1.38089 0
M  V30 9547 H 895.751 2.9485 0.520007 0
M  V30 9548 H 893.297 1.41836 0.248685 0
M  V30 9549 H 895.25 3.00299 2.95633 0
M  V30 9550 H 893.974 1.77953 2.73862 0
M  V30 9551 H 892.633 3.40507 1.35832 0
M  V30 9552 H 892.281 3.26048 3.83016 0
M  V30 9553 H 891.981 4.91 3.22789 0
M  V30 9554 H 893.505 4.53956 4.08358 0
M  V30 9555 H 894.919 5.38233 1.97428 0
M  V30 9556 H 893.316 5.85032 1.33634 0
M  V30 9557 H 894.386 4.83624 0.351575 0
M  V30 9558 N 895.729 -0.261212 1.5542 0
M  V30 9559 C 896.659 -1.32712 1.92119 0
M  V30 9560 C 897.64 -1.50934 0.784406 0
M  V30 9561 O 898.825 -1.63781 1.04352 0
M  V30 9562 C 895.955 -2.68453 2.20341 0
M  V30 9563 C 894.909 -2.64947 3.36136 0
M  V30 9564 C 894.235 -4.04349 3.49865 0
M  V30 9565 C 895.535 -2.23182 4.72215 0
M  V30 9566 H 897.229 -1.02245 2.81401 0
M  V30 9567 H 894.775 -0.490406 1.35392 0
M  V30 9568 H 896.728 -3.43144 2.44603 0
M  V30 9569 H 895.452 -3.00527 1.27871 0
M  V30 9570 H 894.111 -1.92714 3.11861 0
M  V30 9571 H 893.759 -4.33665 2.5484 0
M  V30 9572 H 893.459 -4.02895 4.27726 0
M  V30 9573 H 894.983 -4.80761 3.76432 0
M  V30 9574 H 896.397 -2.87599 4.95943 0
M  V30 9575 H 894.794 -2.32867 5.53076 0
M  V30 9576 H 895.864 -1.18327 4.70241 0
M  V30 9577 N 897.207 -1.48554 -0.526253 0
M  V30 9578 C 898.137 -1.66252 -1.63959 0
M  V30 9579 C 899.118 -0.511351 -1.62232 0
M  V30 9580 O 900.303 -0.744322 -1.7937 0
M  V30 9581 C 897.433 -1.70556 -3.02536 0
M  V30 9582 C 896.387 -2.8521 -3.19123 0
M  V30 9583 C 895.713 -2.74606 -4.58798 0
M  V30 9584 C 897.013 -4.26463 -3.0154 0
M  V30 9585 H 898.707 -2.59459 -1.49404 0
M  V30 9586 H 896.253 -1.24862 -0.717326 0
M  V30 9587 H 898.206 -1.81524 -3.80298 0
M  V30 9588 H 896.93 -0.739297 -3.18123 0
M  V30 9589 H 895.589 -2.73802 -2.43779 0
M  V30 9590 H 895.237 -1.75941 -4.71226 0
M  V30 9591 H 894.937 -3.51544 -4.70841 0
M  V30 9592 H 896.461 -2.87548 -5.38655 0
M  V30 9593 H 897.875 -4.38685 -3.69091 0
M  V30 9594 H 896.272 -5.04428 -3.25073 0
M  V30 9595 H 897.342 -4.42667 -1.97925 0
M  V30 9596 N 898.685 0.775411 -1.37205 0
M  V30 9597 C 899.962 1.5229 -1.22748 0
M  V30 9598 C 900.342 2.10327 0.180487 0
M  V30 9599 O 899.69 1.95206 1.18772 0
M  V30 9600 C 899.9 2.60671 -2.3206 0
M  V30 9601 C 901.248 3.28173 -2.6942 0
M  V30 9602 O 902.272 2.70963 -2.31208 0
M  V30 9603 O 901.131 4.31598 -3.3524 0
M  V30 9604 H 898.225 0.674326 -0.478762 0
M  V30 9605 H 900.771 0.812691 -1.48975 0
M  V30 9606 H 899.543 2.1588 -3.26361 0
M  V30 9607 H 899.166 3.39296 -2.07277 0
M  V30 9608 N 900.163 1.21714 1.00117 0
M  V30 9609 C 901.403 1.04818 1.75478 0
M  V30 9610 C 901.767 -0.410653 1.87557 0
M  V30 9611 O 902.968 -0.700241 2.59519 0
M  V30 9612 C 901.239 1.73055 3.12709 0
M  V30 9613 S 902.798 1.71464 4.03913 0
M  V30 9614 H 899.616 0.375534 0.603734 0
M  V30 9615 H 902.218 1.54522 1.19763 0
M  V30 9616 H 900.922 2.78376 3.01554 0
M  V30 9617 H 900.453 1.23546 3.73497 0
M  V30 9618 H 902.468 0.75845 4.90369 0
M  V30 9619 N 901.641 -1.19671 1.02551 0
M  V30 9620 C 902.588 -2.22773 0.603394 0
M  V30 9621 C 903.558 -1.61669 -0.381081 0
M  V30 9622 O 904.743 -1.88756 -0.278505 0
M  V30 9623 C 901.883 -3.45073 -0.0431034 0
M  V30 9624 C 900.996 -4.20574 0.987006 0
M  V30 9625 C 900.131 -5.30291 0.310626 0
M  V30 9626 C 899.17 -5.97545 1.32688 0
M  V30 9627 N 898.307 -6.98833 0.676542 0
M  V30 9628 H 903.147 -2.58238 1.48719 0
M  V30 9629 H 900.684 -1.26881 0.744286 0
M  V30 9630 H 902.642 -4.14925 -0.435141 0
M  V30 9631 H 901.272 -3.10274 -0.890495 0
M  V30 9632 H 900.324 -3.497 1.49713 0
M  V30 9633 H 901.636 -4.66736 1.75952 0
M  V30 9634 H 900.79 -6.06547 -0.136438 0
M  V30 9635 H 899.529 -4.8519 -0.49412 0
M  V30 9636 H 898.534 -5.20043 1.78424 0
M  V30 9637 H 899.759 -6.4473 2.13306 0
M  V30 9638 H 897.705 -6.55911 -0.108172 0
M  V30 9639 H 897.622 -7.43168 1.38699 0
M  V30 9640 H 898.89 -7.79088 0.253367 0
M  V30 9641 N 903.119 -0.802921 -1.35613 0
M  V30 9642 C 904.067 -0.198783 -2.31749 0
M  V30 9643 C 905.061 0.649416 -1.56458 0
M  V30 9644 O 906.267 0.542989 -1.71615 0
M  V30 9645 H 902.642 -0.0455177 -0.750621 0
M  V30 9646 H 904.613 -1.02479 -2.80251 0
M  V30 9647 C 903.362 0.641066 -3.41739 0
M  V30 9648 H 902.685 -0.00226244 -3.998 0
M  V30 9649 H 904.125 1.03022 -4.11294 0
M  V30 9650 C 902.584 1.80505 -2.84464 0
M  V30 9651 O 903.114 2.90235 -2.77717 0
M  V30 9652 N 901.32 1.61542 -2.41563 0
M  V30 9653 H 900.867 0.722863 -2.4725 0
M  V30 9654 H 900.825 2.39581 -2.03589 0
M  V30 9655 N 904.597 1.47463 -0.556102 0
M  V30 9656 C 905.843 2.02775 -0.0316806 0
M  V30 9657 C 906.176 1.42967 1.3143 0
M  V30 9658 O 905.451 0.584847 1.85499 0
M  V30 9659 C 905.734 3.60046 0.0625742 0
M  V30 9660 C 905.587 4.30288 -1.31043 0
M  V30 9661 C 906.906 4.33195 0.776553 0
M  V30 9662 H 904.025 0.736886 -0.0129869 0
M  V30 9663 H 906.667 1.75904 -0.718177 0
M  V30 9664 H 904.817 3.83071 0.647231 0
M  V30 9665 H 906.489 4.18607 -1.9382 0
M  V30 9666 H 904.732 3.90685 -1.8854 0
M  V30 9667 H 905.403 5.38861 -1.1972 0
M  V30 9668 H 907.879 4.15156 0.280147 0
M  V30 9669 H 906.755 5.42869 0.81146 0
M  V30 9670 H 907.016 4.02336 1.83244 0
M  V30 9671 N 906.075 0.2925 1.54862 0
M  V30 9672 C 907.025 -0.60226 2.19902 0
M  V30 9673 C 908.009 -1.10535 1.16923 0
M  V30 9674 O 909.201 -1.04753 1.42674 0
M  V30 9675 C 906.33 -1.77774 2.93686 0
M  V30 9676 C 905.416 -1.29101 4.03972 0
M  V30 9677 N 905.807 -0.521671 5.03103 0
M  V30 9678 C 904.105 -1.57248 4.17359 0
M  V30 9679 C 904.806 -0.263545 5.81103 0
M  V30 9680 N 903.782 -0.840937 5.37056 0
M  V30 9681 H 907.584 -0.00682274 2.93899 0
M  V30 9682 H 905.098 0.0968604 1.62111 0
M  V30 9683 H 907.095 -2.43021 3.38743 0
M  V30 9684 H 905.755 -2.37696 2.21203 0
M  V30 9685 H 906.766 -0.167364 5.1763 0
M  V30 9686 H 903.443 -2.1798 3.56077 0
M  V30 9687 H 904.833 0.353783 6.70968 0
M  V30 9688 N 907.553 -1.57587 0.0200696 0
M  V30 9689 C 908.483 -2.12702 -0.963333 0
M  V30 9690 C 909.464 -1.04094 -1.34531 0
M  V30 9691 O 910.649 -1.31881 -1.42552 0
M  V30 9692 C 907.779 -2.64673 -2.24868 0
M  V30 9693 C 906.733 -3.77987 -2.00772 0
M  V30 9694 C 906.059 -4.16351 -3.35494 0
M  V30 9695 C 907.359 -5.0444 -1.35416 0
M  V30 9696 H 909.053 -2.95121 -0.504363 0
M  V30 9697 H 906.599 -1.41966 -0.24116 0
M  V30 9698 H 908.552 -3.01862 -2.94036 0
M  V30 9699 H 907.276 -1.79403 -2.72914 0
M  V30 9700 H 905.935 -3.41223 -1.34025 0
M  V30 9701 H 905.583 -3.28075 -3.81282 0
M  V30 9702 H 905.283 -4.92705 -3.20181 0
M  V30 9703 H 906.807 -4.56115 -4.05945 0
M  V30 9704 H 908.221 -5.39273 -1.94571 0
M  V30 9705 H 906.618 -5.85732 -1.30529 0
M  V30 9706 H 907.688 -4.83803 -0.325923 0
M  V30 9707 N 909.032 0.252966 -1.55557 0
M  V30 9708 C 910.279 0.981852 -1.77104 0
M  V30 9709 C 910.607 1.85547 -0.583305 0
M  V30 9710 O 909.862 1.90836 0.43359 0
M  V30 9711 C 910.161 1.87785 -3.04091 0
M  V30 9712 C 909.827 1.16009 -4.35721 0
M  V30 9713 C 908.489 0.961697 -4.71492 0
M  V30 9714 C 910.841 0.650884 -5.1712 0
M  V30 9715 C 908.169 0.241704 -5.86202 0
M  V30 9716 C 910.521 -0.0556124 -6.32576 0
M  V30 9717 C 909.185 -0.265536 -6.66972 0
M  V30 9718 H 908.455 0.359285 -0.64807 0
M  V30 9719 H 911.102 0.252443 -1.89829 0
M  V30 9720 H 909.407 2.67412 -2.86353 0
M  V30 9721 H 911.104 2.44339 -3.17961 0
M  V30 9722 H 907.694 1.32465 -4.07616 0
M  V30 9723 H 911.878 0.791719 -4.89944 0
M  V30 9724 H 907.134 0.0685292 -6.11362 0
M  V30 9725 H 911.308 -0.457839 -6.94893 0
M  V30 9726 H 908.935 -0.8254 -7.55706 0
M  V30 9727 N 910.51 1.48831 0.518367 0
M  V30 9728 C 911.473 1.63721 1.604 0
M  V30 9729 C 912.473 0.509857 1.52503 0
M  V30 9730 O 913.663 0.775922 1.55965 0
M  V30 9731 C 910.795 1.61831 3.00039 0
M  V30 9732 H 911.988 2.60534 1.48533 0
M  V30 9733 H 909.541 1.37602 0.741309 0
M  V30 9734 H 910.276 0.665387 3.17401 0
M  V30 9735 H 910.061 2.43686 3.0718 0
M  V30 9736 H 911.551 1.75467 3.78947 0
M  V30 9737 N 911.988 -0.768124 1.37614 0
M  V30 9738 C 913.216 -1.55726 1.36224 0
M  V30 9739 C 913.631 -1.8873 -0.0515357 0
M  V30 9740 O 912.988 -1.51718 -1.0143 0
M  V30 9741 C 913.039 -2.86533 2.20412 0
M  V30 9742 O 912.76 -2.54942 3.56281 0
M  V30 9743 C 914.261 -3.80745 2.27041 0
M  V30 9744 H 911.481 -0.482325 0.46648 0
M  V30 9745 H 914.025 -0.95176 1.81002 0
M  V30 9746 H 912.18 -3.43496 1.79134 0
M  V30 9747 H 912.594 -3.38732 4.00451 0
M  V30 9748 H 914.068 -4.69523 2.90263 0
M  V30 9749 H 914.545 -4.20138 1.27987 0
M  V30 9750 H 915.151 -3.2971 2.68647 0
M  V30 9751 N 913.466 -1.22244 -0.994698 0
M  V30 9752 C 914.877 -1.043 -1.5485 0
M  V30 9753 C 915.228 0.394102 -1.92201 0
M  V30 9754 O 914.353 1.27883 -1.74571 0
M  V30 9755 C 914.948 -1.88708 -2.8138 0
M  V30 9756 C 913.507 -1.75067 -3.3321 0
M  V30 9757 C 912.654 -1.85286 -2.06312 0
M  V30 9758 H 915.605 -1.36115 -0.815988 0
M  V30 9759 H 915.626 -1.40342 -3.53673 0
M  V30 9760 H 915.138 -2.93296 -2.54164 0
M  V30 9761 H 913.239 -0.732047 -3.65338 0
M  V30 9762 H 913.352 -2.57632 -4.03934 0
M  V30 9763 H 911.716 -1.28706 -2.19788 0
M  V30 9764 H 912.499 -2.91401 -1.81494 0
M  V30 9765 N 914.944 1.19125 -1.03184 0
M  V30 9766 C 915.874 2.24675 -0.635889 0
M  V30 9767 C 916.855 1.66321 0.356565 0
M  V30 9768 O 918.04 1.92728 0.238625 0
M  V30 9769 C 915.17 3.47298 0.011069 0
M  V30 9770 C 914.124 4.18345 -0.903979 0
M  V30 9771 C 913.45 5.34561 -0.12197 0
M  V30 9772 C 914.75 4.72816 -2.21907 0
M  V30 9773 H 916.444 2.5805 -1.51825 0
M  V30 9774 H 913.99 1.24039 -0.73146 0
M  V30 9775 H 915.943 4.20333 0.299729 0
M  V30 9776 H 914.667 3.13131 0.928245 0
M  V30 9777 H 913.326 3.47196 -1.17688 0
M  V30 9778 H 912.974 4.9664 0.797334 0
M  V30 9779 H 912.674 5.83029 -0.731498 0
M  V30 9780 H 914.198 6.10391 0.159881 0
M  V30 9781 H 915.612 5.3759 -1.99173 0
M  V30 9782 H 914.009 5.31782 -2.78078 0
M  V30 9783 H 915.079 3.9072 -2.87168 0
M  V30 9784 N 916.422 0.810101 1.35185 0
M  V30 9785 C 917.385 0.22852 2.28058 0
M  V30 9786 C 918.385 -0.586168 1.49735 0
M  V30 9787 O 919.575 -0.40414 1.69447 0
M  V30 9788 C 916.707 -0.681041 3.34028 0
M  V30 9789 H 917.9 1.04768 2.81005 0
M  V30 9790 H 915.453 0.58101 1.451 0
M  V30 9791 H 916.188 -1.52375 2.86273 0
M  V30 9792 H 915.973 -0.0985276 3.91976 0
M  V30 9793 H 917.463 -1.08217 4.03335 0
M  V30 9794 N 917.9 -1.47166 0.563914 0
M  V30 9795 C 918.863 -2.28571 -0.169624 0
M  V30 9796 C 919.863 -1.37331 -0.836467 0
M  V30 9797 O 921.053 -1.59896 -0.6913 0
M  V30 9798 C 918.185 -3.17201 -1.24886 0
M  V30 9799 H 919.378 -2.94896 0.545539 0
M  V30 9800 H 916.931 -1.52966 0.321121 0
M  V30 9801 H 917.666 -2.55582 -1.99621 0
M  V30 9802 H 917.451 -3.84356 -0.775426 0
M  V30 9803 H 918.941 -3.7852 -1.76388 0
M  V30 9804 N 919.378 -0.300708 -1.54705 0
M  V30 9805 C 920.603 0.314073 -2.05008 0
M  V30 9806 C 921.028 1.46759 -1.17657 0
M  V30 9807 O 920.386 1.80398 -0.180598 0
M  V30 9808 C 920.434 0.748243 -3.52752 0
M  V30 9809 O 919.538 1.85305 -3.68424 0
M  V30 9810 H 918.879 0.0610139 -0.661191 0
M  V30 9811 H 921.409 -0.442467 -1.99758 0
M  V30 9812 H 921.419 1.03713 -3.94598 0
M  V30 9813 H 920.094 -0.095573 -4.1579 0
M  V30 9814 H 918.671 1.56473 -3.38483 0
M  V30 9815 N 920.856 1.57574 -0.0284266 0
M  V30 9816 C 921.786 2.1321 0.952039 0
M  V30 9817 C 922.767 1.04806 1.33977 0
M  V30 9818 O 923.952 1.32635 1.41851 0
M  V30 9819 C 921.082 2.65862 2.23461 0
M  V30 9820 C 920.036 3.79047 1.98765 0
M  V30 9821 C 919.362 4.18124 3.33281 0
M  V30 9822 C 920.662 5.05151 1.32739 0
M  V30 9823 H 922.356 2.95385 0.488705 0
M  V30 9824 H 919.902 1.42092 0.233628 0
M  V30 9825 H 921.855 3.03417 2.92431 0
M  V30 9826 H 920.579 1.80848 2.71959 0
M  V30 9827 H 919.238 3.41929 1.32213 0
M  V30 9828 H 918.886 3.30092 3.79537 0
M  V30 9829 H 918.586 4.94396 3.17563 0
M  V30 9830 H 920.11 4.58262 4.0352 0
M  V30 9831 H 921.524 5.40297 1.91708 0
M  V30 9832 H 919.921 5.86416 1.27421 0
M  V30 9833 H 920.991 4.83969 0.300261 0
M  V30 9834 N 922.334 -0.244713 1.55689 0
M  V30 9835 C 923.244 -1.32447 1.93636 0
M  V30 9836 C 924.26 -1.52541 0.837086 0
M  V30 9837 O 925.436 -1.66121 1.13867 0
M  V30 9838 C 922.501 -2.65864 2.22525 0
M  V30 9839 C 921.562 -2.54273 3.45896 0
M  V30 9840 C 920.795 -3.81327 3.73397 0
M  V30 9841 O 921.018 -4.83307 3.02936 0
M  V30 9842 O 919.952 -3.79829 4.66919 0
M  V30 9843 H 923.778 -1.03255 2.85608 0
M  V30 9844 H 921.363 -0.445652 1.42598 0
M  V30 9845 H 923.245 -3.447 2.42404 0
M  V30 9846 H 921.92 -2.94784 1.33731 0
M  V30 9847 H 920.827 -1.73715 3.31321 0
M  V30 9848 H 922.16 -2.30297 4.34999 0
M  V30 9849 N 923.813 -1.49104 -0.510467 0
M  V30 9850 C 924.723 -1.67792 -1.6396 0
M  V30 9851 C 925.739 -0.560454 -1.64727 0
M  V30 9852 O 926.915 -0.833985 -1.83321 0
M  V30 9853 C 923.98 -1.73154 -3.00364 0
M  V30 9854 C 923.041 -2.9667 -3.10299 0
M  V30 9855 C 922.274 -3.01767 -4.40196 0
M  V30 9856 O 922.497 -2.1472 -5.28443 0
M  V30 9857 O 921.431 -3.94137 -4.54906 0
M  V30 9858 H 925.257 -2.63428 -1.51126 0
M  V30 9859 H 922.842 -1.32734 -0.685719 0
M  V30 9860 H 924.724 -1.79089 -3.81451 0
M  V30 9861 H 923.399 -0.806952 -3.1348 0
M  V30 9862 H 922.306 -2.96257 -2.28435 0
M  V30 9863 H 923.639 -3.88578 -3.02106 0
M  V30 9864 N 925.291 0.760815 -1.38019 0
M  V30 9865 C 926.537 1.52198 -1.34028 0
M  V30 9866 C 926.87 1.94067 0.0718309 0
M  V30 9867 O 926.145 1.64895 1.0315 0
M  V30 9868 C 926.428 2.77954 -2.2894 0
M  V30 9869 C 926.281 2.42269 -3.7898 0
M  V30 9870 C 927.6 3.79943 -2.22107 0
M  V30 9871 H 924.719 0.552131 -0.488181 0
M  V30 9872 H 927.361 0.871971 -1.6881 0
M  V30 9873 H 925.511 3.33419 -1.9941 0
M  V30 9874 H 927.183 1.92635 -4.19153 0
M  V30 9875 H 925.426 1.74822 -3.97014 0
M  V30 9876 H 926.097 3.32211 -4.4084 0
M  V30 9877 H 928.573 3.34 -2.4816 0
M  V30 9878 H 927.449 4.6564 -2.90639 0
M  V30 9879 H 927.71 4.25004 -1.21753 0
M  V30 9880 N 926.769 1.22769 0.988202 0
M  V30 9881 C 927.732 1.00325 2.06076 0
M  V30 9882 C 928.732 -0.0320618 1.60768 0
M  V30 9883 O 929.922 0.206912 1.72967 0
M  V30 9884 C 927.054 0.516376 3.36966 0
M  V30 9885 H 928.247 1.95499 2.27421 0
M  V30 9886 H 925.8 1.04704 1.16047 0
M  V30 9887 H 926.535 -0.439498 3.21308 0
M  V30 9888 H 926.32 1.26337 3.71189 0
M  V30 9889 H 927.81 0.37974 4.1587 0
M  V30 9890 N 928.247 -1.18576 1.03814 0
M  V30 9891 C 929.658 -1.70159 0.768299 0
M  V30 9892 C 930.009 -1.8286 -0.711106 0
M  V30 9893 O 929.134 -1.5063 -1.55369 0
M  V30 9894 C 929.729 -3.09062 1.38804 0
M  V30 9895 C 928.288 -3.57866 1.16656 0
M  V30 9896 C 927.435 -2.34484 1.48029 0
M  V30 9897 H 930.386 -1.03287 1.20488 0
M  V30 9898 H 930.407 -3.72211 0.7899 0
M  V30 9899 H 929.919 -2.99785 2.46476 0
M  V30 9900 H 928.02 -3.72442 0.108471 0
M  V30 9901 H 928.133 -4.41445 1.8618 0
M  V30 9902 H 926.497 -2.38273 0.899902 0
M  V30 9903 H 927.28 -2.27829 2.56805 0
M  V30 9904 N 929.725 -0.817259 -1.34754 0
M  V30 9905 C 930.973 -0.401852 -1.98065 0
M  V30 9906 C 931.294 1.03718 -1.65129 0
M  V30 9907 O 930.564 1.71921 -0.939141 0
M  V30 9908 H 929.144 -0.145603 -0.732672 0
M  V30 9909 H 931.806 -1.04545 -1.64488 0
M  V30 9910 H 930.902 -0.516241 -3.07801 0
M  V30 9911 N 931.203 1.46865 -0.571711 0
M  V30 9912 C 932.166 2.28658 0.157499 0
M  V30 9913 C 933.166 1.37773 0.829172 0
M  V30 9914 O 934.356 1.6026 0.682811 0
M  V30 9915 C 931.488 3.17859 1.23202 0
M  V30 9916 H 932.681 2.94603 -0.561171 0
M  V30 9917 H 930.234 1.52793 -0.329229 0
M  V30 9918 H 930.969 2.56637 1.98262 0
M  V30 9919 H 930.754 3.84762 0.755031 0
M  V30 9920 H 932.244 3.7945 1.74378 0
M  V30 9921 N 932.681 0.308908 1.54543 0
M  V30 9922 C 934.097 -0.0442273 1.59539 0
M  V30 9923 C 934.297 -1.51743 1.32575 0
M  V30 9924 O 933.353 -2.27134 1.10302 0
M  V30 9925 C 934.666 0.360826 2.98527 0
M  V30 9926 C 936.214 0.310252 3.11459 0
M  V30 9927 C 936.689 0.690246 4.52769 0
M  V30 9928 N 938.18 0.643084 4.58714 0
M  V30 9929 C 938.915 0.909483 5.66141 0
M  V30 9930 N 938.411 1.24226 6.81572 0
M  V30 9931 N 940.204 0.836018 5.55848 0
M  V30 9932 H 932.355 1.26893 1.70329 0
M  V30 9933 H 934.618 0.514986 0.795923 0
M  V30 9934 H 934.324 1.38669 3.23209 0
M  V30 9935 H 934.198 -0.281563 3.76148 0
M  V30 9936 H 936.585 -0.706375 2.86521 0
M  V30 9937 H 936.666 0.987373 2.35976 0
M  V30 9938 H 936.31 1.70472 4.78437 0
M  V30 9939 H 936.24 -0.00903075 5.26599 0
M  V30 9940 H 938.731 0.397138 3.75807 0
M  V30 9941 H 939.044 1.4313 7.5943 0
M  V30 9942 H 937.389 1.28038 6.83104 0
M  V30 9943 H 940.58 0.575637 4.64547 0
M  V30 9944 H 940.753 1.047 6.39486 0
M  V30 9945 N 934.159 -1.57557 0.0367827 0
M  V30 9946 C 935.109 -2.07182 -0.95183 0
M  V30 9947 C 936.093 -0.973921 -1.28076 0
M  V30 9948 O 937.285 -1.23741 -1.26559 0
M  V30 9949 C 934.414 -2.60869 -2.23164 0
M  V30 9950 C 933.5 -3.77602 -1.93074 0
M  V30 9951 N 933.891 -4.87923 -1.33283 0
M  V30 9952 C 932.189 -3.86234 -2.23023 0
M  V30 9953 C 932.89 -5.69083 -1.20498 0
M  V30 9954 N 931.866 -5.16233 -1.70306 0
M  V30 9955 H 935.668 -2.89876 -0.484647 0
M  V30 9956 H 933.182 -1.61528 -0.16804 0
M  V30 9957 H 935.179 -2.94716 -2.9487 0
M  V30 9958 H 933.839 -1.79607 -2.70502 0
M  V30 9959 H 934.85 -5.08018 -1.00686 0
M  V30 9960 H 931.527 -3.15891 -2.72981 0
M  V30 9961 H 932.917 -6.6779 -0.741999 0
M  V30 9962 N 935.637 0.236453 -1.55816 0
M  V30 9963 C 936.6 1.27633 -1.90375 0
M  V30 9964 C 937.6 1.40557 -0.781048 0
M  V30 9965 O 938.79 1.39078 -1.04895 0
M  V30 9966 C 935.922 2.65247 -2.14142 0
M  V30 9967 H 937.115 0.982019 -2.83366 0
M  V30 9968 H 934.668 0.476215 -1.48869 0
M  V30 9969 H 935.403 2.99801 -1.23653 0
M  V30 9970 H 935.188 2.57246 -2.95917 0
M  V30 9971 H 936.678 3.40313 -2.42026 0
M  V30 9972 N 937.115 1.49373 0.502552 0
M  V30 9973 C 938.343 1.62488 1.28084 0
M  V30 9974 C 938.758 0.295667 1.86471 0
M  V30 9975 O 938.115 -0.718664 1.67754 0
M  V30 9976 C 938.166 2.69249 2.4122 0
M  V30 9977 O 937.887 3.97014 1.85234 0
M  V30 9978 C 939.388 2.93054 3.32617 0
M  V30 9979 H 936.608 0.547068 0.388533 0
M  V30 9980 H 939.152 1.95394 0.603452 0
M  V30 9981 H 937.307 2.39125 3.04792 0
M  V30 9982 H 937.721 4.55809 2.59496 0
M  V30 9983 H 939.195 3.71493 4.08285 0
M  V30 9984 H 939.672 2.02911 3.89517 0
M  V30 9985 H 940.278 3.24589 2.74813 0
M  V30 9986 N 938.594 -0.753485 1.38421 0
M  V30 9987 C 939.524 -1.8808 1.38377 0
M  V30 9988 C 940.505 -1.68258 0.249664 0
M  V30 9989 O 941.69 -1.88848 0.45276 0
M  V30 9990 C 938.82 -3.25608 1.20818 0
M  V30 9991 C 937.774 -3.60032 2.31433 0
M  V30 9992 C 937.1 -4.96297 1.9898 0
M  V30 9993 C 938.4 -3.64898 3.73694 0
M  V30 9994 H 940.094 -1.88375 2.32713 0
M  V30 9995 H 937.64 -0.90489 1.12017 0
M  V30 9996 H 939.593 -4.04127 1.19412 0
M  V30 9997 H 938.317 -3.25793 0.229433 0
M  V30 9998 H 936.976 -2.83831 2.32025 0
M  V30 9999 H 936.624 -4.93043 0.995889 0
M  V30 10000 H 936.324 -5.20298 2.73063 0
M  V30 10001 H 937.848 -5.77196 1.99193 0
M  V30 10002 H 939.262 -4.33531 3.75132 0
M  V30 10003 H 937.659 -4.00407 4.46983 0
M  V30 10004 H 938.729 -2.65124 4.06002 0
M  V30 10005 N 940.072 -1.23292 -0.981677 0
M  V30 10006 C 941.297 -1.09176 -1.76339 0
M  V30 10007 C 941.722 0.352726 -1.84763 0
M  V30 10008 O 941.08 1.25509 -1.30832 0
M  V30 10009 C 941.128 -1.72046 -3.16911 0
M  V30 10010 O 940.232 -0.98174 -4.00544 0
M  V30 10011 H 939.573 -0.382755 -0.542581 0
M  V30 10012 H 942.103 -1.63319 -1.23239 0
M  V30 10013 H 942.113 -1.77232 -3.67495 0
M  V30 10014 H 940.788 -2.77154 -3.10095 0
M  V30 10015 H 939.365 -1.00672 -3.59054 0
M  V30 10016 N 941.55 1.18024 -1.04442 0
M  V30 10017 C 942.48 2.23988 -0.659683 0
M  V30 10018 C 943.461 1.6669 0.338904 0
M  V30 10019 O 944.646 1.92971 0.21817 0
M  V30 10020 C 941.776 3.4729 -0.0257672 0
M  V30 10021 C 940.73 4.17362 -0.948299 0
M  V30 10022 C 940.056 5.34401 -0.17866 0
M  V30 10023 C 941.356 4.70435 -2.26909 0
M  V30 10024 H 943.05 2.56425 -1.54553 0
M  V30 10025 H 940.596 1.23256 -0.744575 0
M  V30 10026 H 942.549 4.20627 0.255131 0
M  V30 10027 H 941.273 3.14098 0.894981 0
M  V30 10028 H 939.932 3.45928 -1.21364 0
M  V30 10029 H 939.58 4.97458 0.744614 0
M  V30 10030 H 939.28 5.8222 -0.793294 0
M  V30 10031 H 940.804 6.10526 0.0951315 0
M  V30 10032 H 942.218 5.35447 -2.04864 0
M  V30 10033 H 940.615 5.28803 -2.83703 0
M  V30 10034 H 941.685 3.87653 -2.91296 0
M  V30 10035 N 943.028 0.824394 1.34319 0
M  V30 10036 C 944.253 0.425194 2.02995 0
M  V30 10037 C 944.678 -0.961476 1.6167 0
M  V30 10038 O 944.036 -1.62593 0.80207 0
M  V30 10039 C 944.084 0.537004 3.56579 0
M  V30 10040 O 943.188 -0.442576 4.10018 0
M  V30 10041 H 942.529 0.174853 0.640564 0
M  V30 10042 H 945.059 1.11522 1.71534 0
M  V30 10043 H 945.069 0.413311 4.05901 0
M  V30 10044 H 943.744 1.54836 3.86004 0
M  V30 10045 H 942.321 -0.277644 3.71865 0
M  V30 10046 N 944.506 -1.46559 0.579492 0
M  V30 10047 C 945.755 -2.01606 0.0615735 0
M  V30 10048 C 946.068 -1.45695 -1.30508 0
M  V30 10049 O 947.274 -1.92541 -1.91416 0
M  V30 10050 C 945.73 -3.59851 0.059496 0
M  V30 10051 C 945.338 -4.24757 1.42427 0
M  V30 10052 C 947.082 -4.22567 -0.404646 0
M  V30 10053 C 944.989 -5.75072 1.38009 0
M  V30 10054 H 943.919 -0.753754 0.0192491 0
M  V30 10055 H 946.57 -1.68326 0.73066 0
M  V30 10056 H 944.952 -3.90193 -0.675691 0
M  V30 10057 H 946.126 -4.06029 2.17893 0
M  V30 10058 H 944.441 -3.74121 1.82817 0
M  V30 10059 H 947.038 -5.32748 -0.456441 0
M  V30 10060 H 947.381 -3.91279 -1.42149 0
M  V30 10061 H 947.914 -3.96839 0.276376 0
M  V30 10062 H 944.653 -6.11014 2.37364 0
M  V30 10063 H 944.173 -5.96073 0.667583 0
M  V30 10064 H 945.852 -6.37724 1.09163 0
M  V30 10065 N 945.984 -0.3171 -1.54377 0
M  V30 10066 C 947.395 0.172287 -1.85903 0
M  V30 10067 C 947.746 1.52141 -1.23885 0
M  V30 10068 O 946.871 2.0949 -0.542476 0
M  V30 10069 C 947.466 0.319392 -3.37291 0
M  V30 10070 C 946.025 0.752998 -3.68791 0
M  V30 10071 C 945.172 -0.129143 -2.76999 0
M  V30 10072 H 948.123 -0.537597 -1.49317 0
M  V30 10073 H 948.144 1.15137 -3.62662 0
M  V30 10074 H 947.656 -0.662671 -3.82401 0
M  V30 10075 H 945.757 1.74504 -3.2921 0
M  V30 10076 H 945.87 0.561228 -4.75801 0
M  V30 10077 H 944.234 0.394242 -2.5163 0
M  V30 10078 H 945.017 -1.10785 -3.24933 0
M  V30 10079 N 947.462 1.57535 -0.0451378 0
M  V30 10080 C 948.878 1.56533 0.311373 0
M  V30 10081 C 949.078 1.05225 1.71843 0
M  V30 10082 O 948.134 0.706144 2.42425 0
M  V30 10083 C 949.447 3.00349 0.145348 0
M  V30 10084 C 950.995 3.12248 0.216908 0
M  V30 10085 C 951.47 4.57931 0.0794834 0
M  V30 10086 N 952.961 4.63 0.135954 0
M  V30 10087 C 953.696 5.73375 0.0536426 0
M  V30 10088 N 953.192 6.92753 -0.0806725 0
M  V30 10089 N 954.985 5.61995 0.108789 0
M  V30 10090 H 947.136 1.89211 -0.965044 0
M  V30 10091 H 949.399 0.871068 -0.374091 0
M  V30 10092 H 949.105 3.41898 -0.824533 0
M  V30 10093 H 948.979 3.66086 0.908903 0
M  V30 10094 H 951.366 2.70601 1.17726 0
M  V30 10095 H 951.447 2.49201 -0.577299 0
M  V30 10096 H 951.091 5.00262 -0.877516 0
M  V30 10097 H 951.021 5.18977 0.892758 0
M  V30 10098 H 953.512 3.77142 0.23926 0
M  V30 10099 H 953.825 7.7268 -0.136351 0
M  V30 10100 H 952.17 6.94904 -0.115675 0
M  V30 10101 H 955.361 4.67619 0.212235 0
M  V30 10102 H 955.534 6.47987 0.0411822 0
M  V30 10103 N 948.94 -0.228186 1.55939 0
M  V30 10104 C 950.186 -0.954964 1.78909 0
M  V30 10105 C 950.519 -1.8425 0.613648 0
M  V30 10106 O 949.794 -1.90604 -0.38737 0
M  V30 10107 C 950.077 -1.79957 3.1191 0
M  V30 10108 C 949.93 -0.938968 4.3989 0
M  V30 10109 C 951.249 -2.77859 3.41295 0
M  V30 10110 H 948.368 -0.345745 0.650868 0
M  V30 10111 H 951.01 -0.224244 1.88672 0
M  V30 10112 H 949.16 -2.42256 3.03717 0
M  V30 10113 H 950.832 -0.333225 4.60095 0
M  V30 10114 H 949.075 -0.244096 4.33113 0
M  V30 10115 H 949.746 -1.56416 5.29375 0
M  V30 10116 H 952.222 -2.25695 3.49572 0
M  V30 10117 H 951.098 -3.34062 4.35538 0
M  V30 10118 H 951.359 -3.55266 2.63132 0
M  V30 10119 N 950.418 -1.49637 -0.494624 0
M  V30 10120 C 951.381 -1.66252 -1.57775 0
M  V30 10121 C 952.381 -0.534054 -1.51672 0
M  V30 10122 O 953.571 -0.800637 -1.54711 0
M  V30 10123 C 950.703 -1.66584 -2.97426 0
M  V30 10124 H 951.896 -2.62864 -1.4437 0
M  V30 10125 H 949.449 -1.38764 -0.719323 0
M  V30 10126 H 950.184 -0.715798 -3.16302 0
M  V30 10127 H 949.969 -2.48543 -3.03264 0
M  V30 10128 H 951.459 -1.81474 -3.76108 0
M  V30 10129 N 951.896 0.746133 -1.38819 0
M  V30 10130 C 953.307 1.32384 -1.31648 0
M  V30 10131 C 953.658 1.96185 0.0243086 0
M  V30 10132 O 952.783 1.95567 0.92641 0
M  V30 10133 C 953.378 2.40712 -2.38418 0
M  V30 10134 C 951.937 2.94185 -2.34803 0
M  V30 10135 C 951.084 1.67639 -2.20891 0
M  V30 10136 H 954.035 0.544457 -1.49068 0
M  V30 10137 H 954.056 3.20833 -2.04564 0
M  V30 10138 H 953.568 1.94247 -3.3599 0
M  V30 10139 H 951.669 3.44959 -1.40834 0
M  V30 10140 H 951.782 3.48057 -3.29231 0
M  V30 10141 H 950.146 1.9155 -1.67871 0
M  V30 10142 H 950.929 1.23242 -3.20416 0
M  V30 10143 N 953.375 1.23811 0.975125 0
M  V30 10144 C 954.285 1.0408 2.10249 0
M  V30 10145 C 955.301 -0.0162404 1.73992 0
M  V30 10146 O 956.477 0.180346 2.00591 0
M  V30 10147 C 953.542 0.640013 3.40741 0
M  V30 10148 C 952.603 1.7727 3.90991 0
M  V30 10149 C 951.836 1.39094 5.15256 0
M  V30 10150 O 952.059 0.277483 5.69725 0
M  V30 10151 O 950.993 2.21392 5.59704 0
M  V30 10152 H 954.819 1.98575 2.29786 0
M  V30 10153 H 952.404 1.02563 1.08633 0
M  V30 10154 H 954.286 0.427684 4.19224 0
M  V30 10155 H 952.961 -0.27589 3.22522 0
M  V30 10156 H 951.868 2.03971 3.13602 0
M  V30 10157 H 953.201 2.66711 4.13674 0
M  V30 10158 N 954.853 -1.17469 1.05066 0
M  V30 10159 C 955.803 -2.19388 0.620713 0
M  V30 10160 C 956.787 -1.5722 -0.34214 0
M  V30 10161 O 957.979 -1.76279 -0.159574 0
M  V30 10162 C 955.108 -3.433 -0.00438518 0
M  V30 10163 C 954.194 -4.12569 0.982218 0
M  V30 10164 N 954.585 -4.57683 2.15313 0
M  V30 10165 C 952.883 -4.38575 0.810416 0
M  V30 10166 C 953.584 -5.11124 2.77719 0
M  V30 10167 N 952.56 -5.0325 2.05525 0
M  V30 10168 H 956.362 -2.51971 1.51287 0
M  V30 10169 H 953.876 -1.33784 0.920625 0
M  V30 10170 H 955.873 -4.15591 -0.330161 0
M  V30 10171 H 954.533 -3.12209 -0.89195 0
M  V30 10172 H 955.544 -4.51812 2.53154 0
M  V30 10173 H 952.221 -4.17492 -0.0262078 0
M  V30 10174 H 953.611 -5.56161 3.77008 0
M  V30 10175 N 956.331 -0.831506 -1.3388 0
M  V30 10176 C 957.241 -0.261688 -2.33136 0
M  V30 10177 C 958.257 0.608429 -1.63016 0
M  V30 10178 O 959.433 0.514297 -1.94723 0
M  V30 10179 C 956.498 0.559957 -3.42148 0
M  V30 10180 C 955.559 -0.333569 -4.28002 0
M  V30 10181 C 954.792 0.448956 -5.31808 0
M  V30 10182 O 955.015 1.6814 -5.45055 0
M  V30 10183 O 953.949 -0.173197 -6.01651 0
M  V30 10184 H 957.775 -1.08343 -2.83717 0
M  V30 10185 H 955.36 -0.593849 -1.3709 0
M  V30 10186 H 957.242 1.02712 -4.08691 0
M  V30 10187 H 955.917 1.35888 -2.93796 0
M  V30 10188 H 954.824 -0.848416 -3.64352 0
M  V30 10189 H 956.157 -1.09707 -4.79818 0
M  V30 10190 N 957.809 1.4625 -0.587256 0
M  V30 10191 C 959.057 2.01963 -0.0744273 0
M  V30 10192 C 959.378 1.46065 1.29189 0
M  V30 10193 O 958.648 0.647077 1.84905 0
M  V30 10194 H 957.228 0.746597 -0.0245236 0
M  V30 10195 H 959.89 1.79299 -0.764063 0
M  V30 10196 H 958.986 3.12099 -0.00884894 0
M  V30 10197 N 959.287 0.325282 1.54207 0
M  V30 10198 C 960.237 -0.55548 2.2113 0
M  V30 10199 C 961.221 -1.0803 1.19241 0
M  V30 10200 O 962.413 -1.01703 1.44864 0
M  V30 10201 C 959.542 -1.71504 2.97391 0
M  V30 10202 C 958.628 -1.20503 4.0662 0
M  V30 10203 N 959.019 -0.414838 5.04096 0
M  V30 10204 C 957.317 -1.4836 4.20601 0
M  V30 10205 C 958.018 -0.140225 5.81531 0
M  V30 10206 N 956.994 -0.72683 5.38719 0
M  V30 10207 H 960.796 0.0555192 2.93848 0
M  V30 10208 H 958.31 0.131225 1.61869 0
M  V30 10209 H 960.307 -2.35781 3.43821 0
M  V30 10210 H 958.967 -2.3295 2.26195 0
M  V30 10211 H 959.978 -0.0575291 5.17868 0
M  V30 10212 H 956.655 -2.10378 3.60621 0
M  V30 10213 H 958.045 0.496026 6.70067 0
M  V30 10214 N 960.765 -1.57509 0.0534917 0
M  V30 10215 C 961.995 -1.96812 -0.628386 0
M  V30 10216 C 962.403 -0.929808 -1.64776 0
M  V30 10217 O 961.746 0.0941155 -1.83459 0
M  V30 10218 C 961.808 -3.32361 -1.37027 0
M  V30 10219 C 961.472 -4.54185 -0.506465 0
M  V30 10220 C 962.469 -5.19398 0.228412 0
M  V30 10221 C 960.154 -5.00398 -0.43671 0
M  V30 10222 C 962.148 -6.29162 1.02146 0
M  V30 10223 C 959.835 -6.10039 0.360022 0
M  V30 10224 C 960.833 -6.74282 1.08779 0
M  V30 10225 O 960.521 -7.81814 1.87142 0
M  V30 10226 H 960.253 -0.65257 -0.176432 0
M  V30 10227 H 962.807 -2.05067 0.116908 0
M  V30 10228 H 961.037 -3.20667 -2.16125 0
M  V30 10229 H 962.726 -3.56395 -1.94261 0
M  V30 10230 H 963.492 -4.84651 0.184003 0
M  V30 10231 H 959.371 -4.50183 -0.992772 0
M  V30 10232 H 962.915 -6.79238 1.59002 0
M  V30 10233 H 958.812 -6.44222 0.406061 0
M  V30 10234 H 959.58 -7.98602 1.79378 0
M  V30 10235 N 962.243 0.219913 -1.56058 0
M  V30 10236 C 963.489 0.945463 -1.79412 0
M  V30 10237 C 963.822 1.83922 -0.62341 0
M  V30 10238 O 963.097 1.90806 0.377256 0
M  V30 10239 C 963.38 1.783 -3.1286 0
M  V30 10240 C 963.233 0.915626 -4.40382 0
M  V30 10241 C 964.552 2.76045 -3.42764 0
M  V30 10242 H 961.671 0.342288 -0.652693 0
M  V30 10243 H 964.313 0.214235 -1.88788 0
M  V30 10244 H 962.463 2.40642 -3.04998 0
M  V30 10245 H 964.135 0.30882 -4.60265 0
M  V30 10246 H 962.378 0.221124 -4.33236 0
M  V30 10247 H 963.049 1.53607 -5.30197 0
M  V30 10248 H 965.525 2.23838 -3.50764 0
M  V30 10249 H 964.401 3.31748 -4.37304 0
M  V30 10250 H 964.662 3.53866 -2.65012 0
M  V30 10251 N 963.721 1.49897 0.486681 0
M  V30 10252 C 964.961 1.61732 1.24988 0
M  V30 10253 C 965.325 0.303724 1.89582 0
M  V30 10254 O 966.526 0.297373 2.6715 0
M  V30 10255 C 964.797 2.75429 2.27757 0
M  V30 10256 S 966.356 3.07304 3.13225 0
M  V30 10257 H 963.174 0.570316 0.424571 0
M  V30 10258 H 965.776 1.87617 0.549549 0
M  V30 10259 H 964.48 3.69376 1.78857 0
M  V30 10260 H 964.011 2.51582 3.0244 0
M  V30 10261 H 966.026 2.49928 4.28661 0
M  V30 10262 N 965.199 -0.738761 1.39212 0
M  V30 10263 C 966.109 -1.88324 1.39897 0
M  V30 10264 C 967.125 -1.71494 0.294229 0
M  V30 10265 O 968.301 -1.94162 0.535087 0
M  V30 10266 C 965.366 -3.23871 1.23726 0
M  V30 10267 C 964.427 -3.53121 2.44139 0
M  V30 10268 C 963.66 -4.82202 2.2873 0
M  V30 10269 O 963.883 -5.55649 1.28879 0
M  V30 10270 O 962.817 -5.11265 3.17634 0
M  V30 10271 H 966.643 -1.90701 2.36362 0
M  V30 10272 H 964.228 -0.886067 1.20288 0
M  V30 10273 H 966.11 -4.04882 1.16826 0
M  V30 10274 H 964.785 -3.22274 0.303551 0
M  V30 10275 H 963.692 -2.72212 2.56615 0
M  V30 10276 H 965.025 -3.59495 3.36191 0
M  V30 10277 N 966.677 -1.24326 -0.968545 0
M  V30 10278 C 967.923 -1.08406 -1.71394 0
M  V30 10279 C 968.256 0.376353 -1.90518 0
M  V30 10280 O 967.531 1.27816 -1.46606 0
M  V30 10281 C 967.814 -1.82344 -3.1052 0
M  V30 10282 C 967.667 -3.3613 -2.98893 0
M  V30 10283 C 968.986 -1.59545 -4.10163 0
M  V30 10284 H 966.105 -0.395205 -0.622079 0
M  V30 10285 H 968.747 -1.52983 -1.12677 0
M  V30 10286 H 966.897 -1.44452 -3.60646 0
M  V30 10287 H 968.569 -3.83614 -2.56199 0
M  V30 10288 H 966.812 -3.64553 -2.35124 0
M  V30 10289 H 967.483 -3.83064 -3.97449 0
M  V30 10290 H 969.959 -1.92504 -3.68892 0
M  V30 10291 H 968.835 -2.13736 -5.05577 0
M  V30 10292 H 969.096 -0.533503 -4.38869 0
M  V30 10293 N 968.156 1.1691 -1.05688 0
M  V30 10294 C 969.088 2.20648 -0.620237 0
M  V30 10295 C 970.101 1.59652 0.318604 0
M  V30 10296 O 971.29 1.78157 0.110553 0
M  V30 10297 C 968.39 3.38716 0.111729 0
M  V30 10298 C 967.563 4.29277 -0.839062 0
M  V30 10299 C 966.622 5.25993 -0.147453 0
M  V30 10300 O 965.648 5.63787 -0.783151 0
M  V30 10301 N 966.85 5.69725 1.11327 0
M  V30 10302 H 969.615 2.58731 -1.51256 0
M  V30 10303 H 967.176 1.31858 -0.939412 0
M  V30 10304 H 969.168 4.00455 0.584657 0
M  V30 10305 H 967.738 2.99189 0.905784 0
M  V30 10306 H 966.958 3.64894 -1.4915 0
M  V30 10307 H 968.246 4.86669 -1.48428 0
M  V30 10308 H 967.644 5.41103 1.64999 0
M  V30 10309 H 966.201 6.33584 1.53018 0
M  V30 10310 N 969.634 0.838594 1.33437 0
M  V30 10311 C 970.911 0.356112 1.92331 0
M  V30 10312 C 971.291 -1.1585 1.76471 0
M  V30 10313 O 970.639 -1.97281 1.15293 0
M  V30 10314 C 970.849 0.802715 3.39643 0
M  V30 10315 C 972.197 0.810575 4.16791 0
M  V30 10316 O 973.221 0.746304 3.48294 0
M  V30 10317 O 972.08 0.898082 5.3907 0
M  V30 10318 H 969.174 0.100711 0.820845 0
M  V30 10319 H 971.72 0.924428 1.42311 0
M  V30 10320 H 970.492 1.84529 3.45057 0
M  V30 10321 H 970.115 0.210956 3.9704 0
M  V30 10322 N 971.112 -1.45937 0.595003 0
M  V30 10323 C 972.528 -1.57507 0.257641 0
M  V30 10324 C 972.728 -1.58829 -1.23998 0
M  V30 10325 O 971.784 -1.51183 -2.02237 0
M  V30 10326 C 973.097 -2.86354 0.917708 0
M  V30 10327 C 974.645 -3.00007 0.892446 0
M  V30 10328 C 975.12 -4.31607 1.53229 0
M  V30 10329 N 976.611 -4.38336 1.49719 0
M  V30 10330 C 977.346 -5.38805 1.96154 0
M  V30 10331 N 976.842 -6.45882 2.50617 0
M  V30 10332 N 978.635 -5.30084 1.86997 0
M  V30 10333 H 970.786 -1.43322 1.56756 0
M  V30 10334 H 973.049 -0.684436 0.655936 0
M  V30 10335 H 972.755 -2.91233 1.97171 0
M  V30 10336 H 972.629 -3.74703 0.433344 0
M  V30 10337 H 975.016 -2.94703 -0.152975 0
M  V30 10338 H 975.097 -2.13103 1.41495 0
M  V30 10339 H 974.741 -4.3767 2.57697 0
M  V30 10340 H 974.671 -5.17308 0.984903 0
M  V30 10341 H 977.162 -3.6156 1.09921 0
M  V30 10342 H 977.475 -7.18774 2.83874 0
M  V30 10343 H 975.82 -6.46668 2.54649 0
M  V30 10344 H 979.011 -4.45337 1.44196 0
M  V30 10345 H 979.184 -6.08237 2.23499 0
M  V30 10346 N 972.59 -0.333456 -1.54032 0
M  V30 10347 C 974.006 0.0188405 -1.59589 0
M  V30 10348 C 974.206 1.49615 -1.34972 0
M  V30 10349 O 973.262 2.2535 -1.13901 0
M  V30 10350 C 974.575 -0.408273 -2.97915 0
M  V30 10351 C 976.123 -0.359763 -3.10926 0
M  V30 10352 C 976.598 -0.76219 -4.51613 0
M  V30 10353 N 978.089 -0.715981 -4.57633 0
M  V30 10354 C 978.824 -0.999436 -5.64623 0
M  V30 10355 N 978.32 -1.35053 -6.79509 0
M  V30 10356 N 980.113 -0.924343 -5.54448 0
M  V30 10357 H 972.264 -1.29587 -1.68289 0
M  V30 10358 H 974.527 -0.527584 -0.787629 0
M  V30 10359 H 974.233 -1.43793 -3.20962 0
M  V30 10360 H 974.107 0.221685 -3.76548 0
M  V30 10361 H 976.494 0.660703 -2.87609 0
M  V30 10362 H 976.575 -1.02479 -2.34375 0
M  V30 10363 H 976.219 -1.78062 -4.75664 0
M  V30 10364 H 976.149 -0.0747478 -5.26547 0
M  V30 10365 H 978.64 -0.456875 -3.75128 0
M  V30 10366 H 978.953 -1.55194 -7.57057 0
M  V30 10367 H 977.298 -1.38889 -6.80981 0
M  V30 10368 H 980.489 -0.649469 -4.63573 0
M  V30 10369 H 980.662 -1.1486 -6.37739 0
M  V30 10370 N 974.068 1.57479 -0.061844 0
M  V30 10371 C 975.293 1.97843 0.622311 0
M  V30 10372 C 975.718 0.939602 1.62951 0
M  V30 10373 O 975.076 -0.095958 1.81046 0
M  V30 10374 C 975.124 3.37262 1.2762 0
M  V30 10375 O 974.228 3.35943 2.39199 0
M  V30 10376 H 973.569 0.644212 0.160896 0
M  V30 10377 H 976.099 2.04165 -0.133409 0
M  V30 10378 H 976.109 3.74226 1.62539 0
M  V30 10379 H 974.784 4.12404 0.538112 0
M  V30 10380 H 973.361 3.10737 2.06148 0
M  V30 10381 N 975.546 -0.211634 1.56173 0
M  V30 10382 C 976.496 -1.26602 1.8962 0
M  V30 10383 C 977.48 -1.41808 0.760222 0
M  V30 10384 O 978.672 -1.44456 1.02281 0
M  V30 10385 C 975.801 -2.61438 2.22497 0
M  V30 10386 C 974.887 -2.50094 3.42511 0
M  V30 10387 N 975.278 -2.0841 4.60868 0
M  V30 10388 C 973.576 -2.81028 3.46322 0
M  V30 10389 C 974.277 -2.08557 5.43028 0
M  V30 10390 N 973.253 -2.49427 4.82998 0
M  V30 10391 H 977.055 -0.934806 2.78637 0
M  V30 10392 H 974.569 -0.420154 1.56871 0
M  V30 10393 H 976.566 -3.37577 2.44638 0
M  V30 10394 H 975.226 -2.95397 1.34798 0
M  V30 10395 H 976.237 -1.79382 4.85842 0
M  V30 10396 H 972.914 -3.19294 2.68994 0
M  V30 10397 H 974.304 -1.7837 6.47791 0
M  V30 10398 N 977.024 -1.50153 -0.478725 0
M  V30 10399 C 978.301 -1.51274 -1.23999 0
M  V30 10400 C 978.681 -0.253048 -2.09578 0
M  V30 10401 O 978.029 0.763827 -2.15355 0
M  V30 10402 C 978.239 -2.80423 -2.07759 0
M  V30 10403 C 979.587 -3.30788 -2.66204 0
M  V30 10404 O 980.611 -2.81693 -2.18008 0
M  V30 10405 O 979.47 -4.1635 -3.53999 0
M  V30 10406 H 976.564 -0.606438 -0.562283 0
M  V30 10407 H 979.11 -1.62436 -0.491171 0
M  V30 10408 H 977.882 -3.63584 -1.44645 0
M  V30 10409 H 977.505 -2.72228 -2.89789 0
M  V30 10410 N 978.502 0.731368 -1.39602 0
M  V30 10411 C 979.449 1.84541 -1.38612 0
M  V30 10412 C 980.419 1.64279 -0.245287 0
M  V30 10413 O 981.604 1.85635 -0.440954 0
M  V30 10414 C 978.744 3.22092 -1.23897 0
M  V30 10415 C 977.857 3.54034 -2.47555 0
M  V30 10416 C 976.992 4.81007 -2.25402 0
M  V30 10417 C 976.031 5.05804 -3.44716 0
M  V30 10418 N 975.168 6.23981 -3.21857 0
M  V30 10419 H 980.008 1.84722 -2.33841 0
M  V30 10420 H 977.545 0.902569 -1.16156 0
M  V30 10421 H 979.503 4.01499 -1.13376 0
M  V30 10422 H 978.133 3.2118 -0.322958 0
M  V30 10423 H 977.185 2.69301 -2.68665 0
M  V30 10424 H 978.497 3.68275 -3.36415 0
M  V30 10425 H 977.651 5.68401 -2.12143 0
M  V30 10426 H 976.39 4.68946 -1.33943 0
M  V30 10427 H 975.395 4.1687 -3.58468 0
M  V30 10428 H 976.62 5.19747 -4.37081 0
M  V30 10429 H 974.566 6.13202 -2.33065 0
M  V30 10430 H 974.483 6.38826 -4.04274 0
M  V30 10431 H 975.751 7.14205 -3.123 0
M  V30 10432 N 979.98 1.24838 0.961938 0
M  V30 10433 C 980.93 1.01276 2.04272 0
M  V30 10434 C 981.914 -0.0478239 1.60829 0
M  V30 10435 O 983.106 0.166616 1.76214 0
M  V30 10436 C 980.235 0.625659 3.37551 0
M  V30 10437 C 979.321 1.72262 3.87539 0
M  V30 10438 N 979.712 2.95644 4.104 0
M  V30 10439 C 978.01 1.60146 4.16256 0
M  V30 10440 C 978.711 3.66796 4.51482 0
M  V30 10441 N 977.687 2.94383 4.56989 0
M  V30 10442 H 981.489 1.94956 2.19931 0
M  V30 10443 H 979.003 1.15049 1.14619 0
M  V30 10444 H 981 0.438072 4.14592 0
M  V30 10445 H 979.66 -0.303887 3.23275 0
M  V30 10446 H 980.671 3.31764 3.97685 0
M  V30 10447 H 977.348 0.740353 4.10883 0
M  V30 10448 H 978.738 4.72664 4.77534 0
M  V30 10449 N 981.458 -1.16348 1.06306 0
M  V30 10450 C 982.698 -1.88556 0.789055 0
M  V30 10451 C 983.062 -1.79849 -0.672179 0
M  V30 10452 O 984.263 -2.46984 -1.06078 0
M  V30 10453 C 982.534 -3.34069 1.27016 0
M  V30 10454 S 984.093 -4.24128 1.12522 0
M  V30 10455 H 980.911 -0.65084 0.286232 0
M  V30 10456 H 983.513 -1.40443 1.36 0
M  V30 10457 H 982.217 -3.37944 2.32856 0
M  V30 10458 H 981.748 -3.87231 0.693963 0
M  V30 10459 H 983.763 -4.96168 0.0562142 0
M  V30 10460 N 982.937 -0.845659 -1.3299 0
M  V30 10461 C 983.887 -0.2557 -2.26562 0
M  V30 10462 C 984.871 0.593245 -1.49564 0
M  V30 10463 O 986.063 0.444101 -1.71338 0
M  V30 10464 C 983.192 0.562573 -3.38659 0
M  V30 10465 C 982.278 -0.298259 -4.2305 0
M  V30 10466 N 982.669 -1.38023 -4.86604 0
M  V30 10467 C 980.967 -0.0864539 -4.45916 0
M  V30 10468 C 981.668 -1.90907 -5.49481 0
M  V30 10469 N 980.644 -1.20955 -5.29973 0
M  V30 10470 H 984.446 -1.083 -2.73219 0
M  V30 10471 H 981.96 -0.690823 -1.46974 0
M  V30 10472 H 983.957 1.00157 -4.0469 0
M  V30 10473 H 982.617 1.38777 -2.93549 0
M  V30 10474 H 983.628 -1.76314 -4.86964 0
M  V30 10475 H 980.305 0.70475 -4.11509 0
M  V30 10476 H 981.695 -2.81552 -6.10064 0
M  V30 10477 N 984.415 1.45619 -0.602734 0
M  V30 10478 C 985.362 2.30493 0.118944 0
M  V30 10479 C 986.332 1.41816 0.864723 0
M  V30 10480 O 987.517 1.7075 0.851424 0
M  V30 10481 C 984.657 3.2664 1.11356 0
M  V30 10482 C 983.77 4.3042 0.369161 0
M  V30 10483 C 982.905 5.13678 1.35307 0
M  V30 10484 C 981.944 6.09189 0.596207 0
M  V30 10485 N 981.081 6.85245 1.52916 0
M  V30 10486 H 985.921 2.91672 -0.610836 0
M  V30 10487 H 983.458 1.43731 -0.313032 0
M  V30 10488 H 985.416 3.80846 1.7033 0
M  V30 10489 H 984.046 2.67225 1.81081 0
M  V30 10490 H 983.098 3.78913 -0.335994 0
M  V30 10491 H 984.41 4.98307 -0.221603 0
M  V30 10492 H 983.564 5.7226 2.01502 0
M  V30 10493 H 982.303 4.45798 1.97777 0
M  V30 10494 H 981.308 5.49743 -0.0793984 0
M  V30 10495 H 982.533 6.79096 -0.0233734 0
M  V30 10496 H 980.479 6.20058 2.14159 0
M  V30 10497 H 980.396 7.49467 0.991713 0
M  V30 10498 H 981.664 7.48371 2.18083 0
M  V30 10499 N 985.893 0.34162 1.53853 0
M  V30 10500 C 986.84 -0.516058 2.24957 0
M  V30 10501 C 987.81 -1.09711 1.2471 0
M  V30 10502 O 988.995 -1.13409 1.53438 0
M  V30 10503 C 986.135 -1.66207 3.02439 0
M  V30 10504 C 985.248 -1.10851 4.17536 0
M  V30 10505 C 984.383 -2.22167 4.82509 0
M  V30 10506 C 983.422 -1.64152 5.89678 0
M  V30 10507 N 982.559 -2.69203 6.4844 0
M  V30 10508 H 987.399 0.0968275 2.97843 0
M  V30 10509 H 984.936 0.0595565 1.46979 0
M  V30 10510 H 986.894 -2.33672 3.4562 0
M  V30 10511 H 985.524 -2.24597 2.31853 0
M  V30 10512 H 984.576 -0.324853 3.7901 0
M  V30 10513 H 985.888 -0.644151 4.94623 0
M  V30 10514 H 985.042 -2.97501 5.28751 0
M  V30 10515 H 983.781 -2.71946 4.04842 0
M  V30 10516 H 982.786 -0.873228 5.42821 0
M  V30 10517 H 984.011 -1.15228 6.69253 0
M  V30 10518 H 981.957 -3.1824 5.73637 0
M  V30 10519 H 981.874 -2.27383 7.20994 0
M  V30 10520 H 983.142 -3.44312 6.99335 0
M  V30 10521 N 987.371 -1.57444 0.0701946 0
M  V30 10522 C 988.601 -1.97467 -0.607476 0
M  V30 10523 C 989.009 -0.947232 -1.63781 0
M  V30 10524 O 988.352 0.074652 -1.83548 0
M  V30 10525 C 988.414 -3.33795 -1.33495 0
M  V30 10526 C 988.078 -4.54697 -0.458265 0
M  V30 10527 C 989.075 -5.19127 0.283488 0
M  V30 10528 C 986.76 -5.00833 -0.383612 0
M  V30 10529 C 988.754 -6.28043 1.08813 0
M  V30 10530 C 986.441 -6.09622 0.424705 0
M  V30 10531 C 987.439 -6.7309 1.15925 0
M  V30 10532 O 987.127 -7.79785 1.95423 0
M  V30 10533 H 986.859 -0.654405 -0.169501 0
M  V30 10534 H 989.413 -2.04931 0.138651 0
M  V30 10535 H 987.643 -3.22941 -2.12711 0
M  V30 10536 H 989.332 -3.58435 -1.9047 0
M  V30 10537 H 990.098 -4.84428 0.235397 0
M  V30 10538 H 985.977 -4.51211 -0.944968 0
M  V30 10539 H 989.521 -6.77513 1.66197 0
M  V30 10540 H 985.418 -6.43755 0.474366 0
M  V30 10541 H 986.186 -7.96655 1.87838 0
M  V30 10542 N 988.849 0.203349 -1.56283 0
M  V30 10543 C 989.779 1.2549 -1.96912 0
M  V30 10544 C 990.76 1.47919 -0.839884 0
M  V30 10545 O 991.945 1.59795 -1.10359 0
M  V30 10546 C 989.075 2.6009 -2.30153 0
M  V30 10547 C 988.029 2.52289 -3.45738 0
M  V30 10548 C 987.355 3.91086 -3.64632 0
M  V30 10549 C 988.655 2.05503 -4.80173 0
M  V30 10550 H 990.349 0.917306 -2.85002 0
M  V30 10551 H 987.895 0.439818 -1.37119 0
M  V30 10552 H 989.848 3.33829 -2.5717 0
M  V30 10553 H 988.572 2.95574 -1.38937 0
M  V30 10554 H 987.231 1.81006 -3.18798 0
M  V30 10555 H 986.879 4.23908 -2.7076 0
M  V30 10556 H 986.579 3.86742 -4.42385 0
M  V30 10557 H 988.103 4.66459 -3.94016 0
M  V30 10558 H 989.517 2.68995 -5.06275 0
M  V30 10559 H 987.914 2.1218 -5.61337 0
M  V30 10560 H 988.984 1.00793 -4.74309 0
M  V30 10561 N 990.327 1.50405 0.470755 0
M  V30 10562 C 991.552 1.65442 1.25075 0
M  V30 10563 C 991.977 0.337612 1.85045 0
M  V30 10564 O 991.335 -0.698555 1.67302 0
M  V30 10565 C 991.383 2.74793 2.33498 0
M  V30 10566 O 990.487 2.36069 3.3815 0
M  V30 10567 H 989.828 0.552728 0.367951 0
M  V30 10568 H 992.358 1.96782 0.560177 0
M  V30 10569 H 992.368 2.97879 2.78804 0
M  V30 10570 H 991.043 3.70363 1.8922 0
M  V30 10571 H 989.62 2.2343 2.98552 0
M  V30 10572 N 991.805 -0.723954 1.39988 0
M  V30 10573 C 993.051 -1.48591 1.38017 0
M  V30 10574 C 993.384 -1.94189 -0.0203522 0
M  V30 10575 O 992.659 -1.67572 -0.987422 0
M  V30 10576 C 992.942 -2.71786 2.36229 0
M  V30 10577 C 992.795 -2.32136 3.8527 0
M  V30 10578 C 994.114 -3.73921 2.32102 0
M  V30 10579 H 991.233 -0.538993 0.502648 0
M  V30 10580 H 993.875 -0.826908 1.71062 0
M  V30 10581 H 992.025 -3.28015 2.0818 0
M  V30 10582 H 993.697 -1.81454 4.24113 0
M  V30 10583 H 991.94 -1.64234 4.01509 0
M  V30 10584 H 992.611 -3.20406 4.49493 0
M  V30 10585 H 995.087 -3.27303 2.56928 0
M  V30 10586 H 993.963 -4.5777 3.02882 0
M  V30 10587 H 994.224 -4.21627 1.32979 0
M  V30 10588 N 993.283 -1.25346 -0.955304 0
M  V30 10589 C 994.215 -1.0146 -2.0552 0
M  V30 10590 C 995.228 0.0202256 -1.62787 0
M  V30 10591 O 996.417 -0.218251 -1.77161 0
M  V30 10592 C 993.517 -0.511727 -3.35014 0
M  V30 10593 C 992.69 -1.61256 -4.0659 0
M  V30 10594 C 991.749 -1.11017 -5.14356 0
M  V30 10595 O 990.775 -1.80443 -5.39842 0
M  V30 10596 N 991.977 0.0489001 -5.80479 0
M  V30 10597 H 994.742 -1.96166 -2.26581 0
M  V30 10598 H 992.303 -1.16543 -1.12381 0
M  V30 10599 H 994.295 -0.160123 -4.04383 0
M  V30 10600 H 992.865 0.341377 -3.1073 0
M  V30 10601 H 992.085 -2.13577 -3.31328 0
M  V30 10602 H 993.373 -2.35213 -4.51168 0
M  V30 10603 H 992.771 0.629021 -5.62192 0
M  V30 10604 H 991.328 0.341542 -6.50905 0
M  V30 10605 N 994.761 1.15782 -1.06922 0
M  V30 10606 C 995.724 2.18578 -0.689654 0
M  V30 10607 C 996.724 1.58553 0.267872 0
M  V30 10608 O 997.914 1.7413 0.0494097 0
M  V30 10609 C 995.046 3.40896 -0.0157919 0
M  V30 10610 H 996.239 2.53672 -1.59971 0
M  V30 10611 H 993.792 1.30168 -0.865214 0
M  V30 10612 H 994.527 3.11367 0.906712 0
M  V30 10613 H 994.312 3.85721 -0.704415 0
M  V30 10614 H 995.802 4.16937 0.235266 0
M  V30 10615 N 996.239 0.8527 1.3254 0
M  V30 10616 C 997.169 0.311234 2.31416 0
M  V30 10617 C 998.15 -0.588557 1.59593 0
M  V30 10618 O 999.335 -0.509211 1.87405 0
M  V30 10619 C 996.465 -0.502892 3.4364 0
M  V30 10620 C 995.419 0.302296 4.26931 0
M  V30 10621 C 994.745 -0.636445 5.30899 0
M  V30 10622 C 996.045 1.52697 4.99481 0
M  V30 10623 H 997.739 1.13742 2.76953 0
M  V30 10624 H 995.285 0.548389 1.33149 0
M  V30 10625 H 997.238 -0.892092 4.11849 0
M  V30 10626 H 995.962 -1.36242 2.96826 0
M  V30 10627 H 994.621 0.673226 3.60365 0
M  V30 10628 H 994.269 -1.49277 4.80339 0
M  V30 10629 H 993.969 -0.101716 5.87512 0
M  V30 10630 H 995.493 -1.02286 6.01972 0
M  V30 10631 H 996.907 1.21017 5.60382 0
M  V30 10632 H 995.304 1.9995 5.65809 0
M  V30 10633 H 996.374 2.28929 4.27457 0
M  V30 10634 N 997.718 -1.45297 0.610449 0
M  V30 10635 C 998.628 -2.34349 -0.108475 0
M  V30 10636 C 999.644 -1.51409 -0.857397 0
M  V30 10637 O 1000.82 -1.84202 -0.814337 0
M  V30 10638 C 997.885 -3.29072 -1.09144 0
M  V30 10639 C 996.946 -4.27918 -0.344165 0
M  V30 10640 C 996.179 -5.18116 -1.28031 0
M  V30 10641 O 996.402 -5.11802 -2.51824 0
M  V30 10642 O 995.336 -5.96879 -0.775821 0
M  V30 10643 H 999.162 -2.97232 0.623421 0
M  V30 10644 H 996.747 -1.44728 0.3707 0
M  V30 10645 H 998.629 -3.87433 -1.65751 0
M  V30 10646 H 997.304 -2.68749 -1.80431 0
M  V30 10647 H 996.211 -3.73164 0.264437 0
M  V30 10648 H 997.544 -4.91104 0.328275 0
M  V30 10649 N 999.196 -0.349774 -1.5367 0
M  V30 10650 C 1000.16 0.491676 -2.23864 0
M  V30 10651 C 1001.16 1.02256 -1.24098 0
M  V30 10652 O 1002.35 0.910816 -1.48492 0
M  V30 10653 C 999.481 1.68557 -2.96313 0
M  V30 10654 H 1000.67 -0.12233 -2.9965 0
M  V30 10655 H 998.227 -0.101214 -1.55972 0
M  V30 10656 H 998.962 2.3381 -2.2473 0
M  V30 10657 H 998.747 1.31203 -3.69497 0
M  V30 10658 H 1000.24 2.28225 -3.49718 0
M  V30 10659 N 1000.67 1.57404 -0.0785433 0
M  V30 10660 C 1002.08 1.81118 0.45311 0
M  V30 10661 C 1002.44 0.992963 1.69218 0
M  V30 10662 O 1001.56 0.217448 2.15305 0
M  V30 10663 C 1002.16 3.28506 0.82882 0
M  V30 10664 C 1000.71 3.53042 1.3053 0
M  V30 10665 C 999.862 2.75739 0.29378 0
M  V30 10666 H 1002.81 1.55758 -0.304171 0
M  V30 10667 H 1002.83 3.40924 1.68971 0
M  V30 10668 H 1002.35 3.88031 -0.0731826 0
M  V30 10669 H 1000.45 2.98829 2.22558 0
M  V30 10670 H 1000.56 4.61724 1.27857 0
M  V30 10671 H 998.924 2.42703 0.772477 0
M  V30 10672 H 999.707 3.38005 -0.600613 0
M  V30 10673 N 1002.15 -0.195058 1.56388 0
M  V30 10674 C 1003.57 -0.545894 1.49974 0
M  V30 10675 C 1003.77 -1.85851 0.778568 0
M  V30 10676 O 1002.82 -2.50346 0.329105 0
M  V30 10677 C 1004.14 -0.600599 2.94641 0
M  V30 10678 C 1005.68 -0.689429 3.05313 0
M  V30 10679 C 1006.16 -0.775243 4.51391 0
M  V30 10680 N 1007.65 -0.838769 4.55542 0
M  V30 10681 C 1008.39 -0.925337 5.65884 0
M  V30 10682 N 1007.88 -0.974204 6.85916 0
M  V30 10683 N 1009.67 -0.962528 5.53798 0
M  V30 10684 H 1001.83 0.66595 2.0169 0
M  V30 10685 H 1004.09 0.237215 0.917842 0
M  V30 10686 H 1003.79 0.29478 3.50462 0
M  V30 10687 H 1003.67 -1.45528 3.47996 0
M  V30 10688 H 1006.06 -1.57524 2.4954 0
M  V30 10689 H 1006.14 0.191451 2.55083 0
M  V30 10690 H 1005.78 0.106215 5.07789 0
M  V30 10691 H 1005.71 -1.67193 4.99354 0
M  V30 10692 H 1008.2 -0.810249 3.69112 0
M  V30 10693 H 1008.51 -1.04077 7.6576 0
M  V30 10694 H 1006.86 -0.942881 6.88574 0
M  V30 10695 H 1010.05 -0.921188 4.58946 0
M  V30 10696 H 1010.22 -1.02653 6.39817 0
M  V30 10697 N 1003.63 -1.50653 -0.462772 0
M  V30 10698 C 1004.56 -1.73056 -1.5676 0
M  V30 10699 C 1005.54 -0.579699 -1.59917 0
M  V30 10700 O 1006.73 -0.819729 -1.76051 0
M  V30 10701 C 1003.86 -1.83234 -2.9503 0
M  V30 10702 C 1002.81 -2.98488 -3.06739 0
M  V30 10703 C 1002.14 -2.93818 -4.46738 0
M  V30 10704 C 1003.44 -4.38869 -2.83181 0
M  V30 10705 H 1005.13 -2.65562 -1.38265 0
M  V30 10706 H 1002.68 -1.27792 -0.663722 0
M  V30 10707 H 1004.63 -1.97491 -3.72257 0
M  V30 10708 H 1003.35 -0.873558 -3.14701 0
M  V30 10709 H 1002.01 -2.83895 -2.31946 0
M  V30 10710 H 1001.66 -1.95769 -4.63339 0
M  V30 10711 H 1001.36 -3.71197 -4.55507 0
M  V30 10712 H 1002.88 -3.10135 -5.25974 0
M  V30 10713 H 1004.3 -4.53945 -3.50153 0
M  V30 10714 H 1002.69 -5.17762 -3.03386 0
M  V30 10715 H 1003.76 -4.50663 -1.78972 0
M  V30 10716 N 1005.11 0.71652 -1.4037 0
M  V30 10717 C 1006.34 1.50563 -1.4191 0
M  V30 10718 C 1006.75 1.88791 -0.0185456 0
M  V30 10719 O 1006.11 1.55378 0.957289 0
M  V30 10720 C 1006.16 2.78155 -2.30894 0
M  V30 10721 O 1005.88 2.41543 -3.65497 0
M  V30 10722 C 1007.38 3.72057 -2.41016 0
M  V30 10723 H 1004.6 0.464679 -0.48406 0
M  V30 10724 H 1007.15 0.883927 -1.8441 0
M  V30 10725 H 1005.3 3.36611 -1.91759 0
M  V30 10726 H 1005.71 3.23636 -4.12747 0
M  V30 10727 H 1007.19 4.58426 -3.07489 0
M  V30 10728 H 1007.67 4.15098 -1.43492 0
M  V30 10729 H 1008.27 3.19512 -2.80699 0
M  V30 10730 N 1006.59 1.25851 0.948643 0
M  V30 10731 C 1007.52 1.02549 2.04979 0
M  V30 10732 C 1008.53 -0.0115923 1.62796 0
M  V30 10733 O 1009.72 0.227643 1.77042 0
M  V30 10734 C 1006.82 0.529486 3.34738 0
M  V30 10735 C 1005.99 1.6341 4.05729 0
M  V30 10736 C 1005.05 1.13743 5.1376 0
M  V30 10737 O 1004.08 1.83303 5.38877 0
M  V30 10738 N 1005.28 -0.0181151 5.80497 0
M  V30 10739 H 1008.05 1.97365 2.25537 0
M  V30 10740 H 1005.61 1.17137 1.11761 0
M  V30 10741 H 1007.6 0.181566 4.04293 0
M  V30 10742 H 1006.17 -0.324893 3.10907 0
M  V30 10743 H 1005.39 2.15331 3.30191 0
M  V30 10744 H 1006.68 2.37603 4.49914 0
M  V30 10745 H 1006.07 -0.599198 5.62518 0
M  V30 10746 H 1004.63 -0.307019 6.51077 0
M  V30 10747 N 1008.06 -1.15214 1.07534 0
M  V30 10748 C 1009.01 -2.22078 0.69168 0
M  V30 10749 C 1010.01 -1.66751 -0.298382 0
M  V30 10750 O 1011.21 -1.7927 -0.161897 0
M  V30 10751 H 1007.59 -0.723347 0.205604 0
M  V30 10752 H 1009.56 -2.51716 1.60256 0
M  V30 10753 C 1008.31 -3.47534 0.107546 0
M  V30 10754 H 1007.63 -3.90429 0.860522 0
M  V30 10755 H 1009.07 -4.23821 -0.123215 0
M  V30 10756 C 1007.53 -3.16583 -1.15226 0
M  V30 10757 O 1008.06 -3.33551 -2.23845 0
M  V30 10758 N 1006.27 -2.70611 -1.05915 0
M  V30 10759 H 1005.81 -2.57004 -0.175198 0
M  V30 10760 H 1005.77 -2.50277 -1.90287 0
M  V30 10761 N 1009.54 -0.859717 -1.32086 0
M  V30 10762 C 1010.47 -0.323502 -2.31248 0
M  V30 10763 C 1011.45 0.580085 -1.59903 0
M  V30 10764 O 1012.64 0.499265 -1.87673 0
M  V30 10765 C 1009.77 0.484661 -3.43902 0
M  V30 10766 C 1008.72 -0.324933 -4.26765 0
M  V30 10767 C 1008.05 0.608281 -5.31229 0
M  V30 10768 C 1009.35 -1.55344 -4.98664 0
M  V30 10769 H 1011.04 -1.15209 -2.76346 0
M  V30 10770 H 1008.59 -0.555442 -1.32856 0
M  V30 10771 H 1010.54 0.870238 -4.12316 0
M  V30 10772 H 1009.27 1.34666 -2.97544 0
M  V30 10773 H 1007.92 -0.692328 -3.60003 0
M  V30 10774 H 1007.57 1.46727 -4.81124 0
M  V30 10775 H 1007.27 0.0705571 -5.87558 0
M  V30 10776 H 1008.8 0.990925 -6.02506 0
M  V30 10777 H 1010.21 -1.23987 -5.59732 0
M  V30 10778 H 1008.61 -2.02947 -5.64741 0
M  V30 10779 H 1009.68 -2.31192 -4.26237 0
M  V30 10780 N 1011.02 1.44971 -0.618145 0
M  V30 10781 C 1012.25 2.06527 -0.124165 0
M  V30 10782 C 1012.66 1.46097 1.19588 0
M  V30 10783 O 1012.02 0.57901 1.73071 0
M  V30 10784 C 1012.07 3.61498 0.0106701 0
M  V30 10785 O 1011.79 4.19675 -1.25716 0
M  V30 10786 C 1013.29 4.40061 0.534872 0
M  V30 10787 H 1010.51 0.666941 -0.0736935 0
M  V30 10788 H 1013.06 1.8605 -0.848871 0
M  V30 10789 H 1011.21 3.81282 0.685752 0
M  V30 10790 H 1011.63 5.12972 -1.09362 0
M  V30 10791 H 1013.1 5.48963 0.57827 0
M  V30 10792 H 1013.58 4.10587 1.55931 0
M  V30 10793 H 1014.18 4.25167 -0.10652 0
M  V30 10794 N 1012.5 0.357919 1.53482 0
M  V30 10795 C 1013.78 -0.290164 1.93436 0
M  V30 10796 C 1014.16 -1.67039 1.29079 0
M  V30 10797 O 1013.5 -2.24085 0.447017 0
M  V30 10798 C 1013.71 -0.348055 3.4726 0
M  V30 10799 C 1015.06 -0.59206 4.20452 0
M  V30 10800 O 1016.09 -0.429581 3.536 0
M  V30 10801 O 1014.94 -0.907855 5.38907 0
M  V30 10802 H 1012.04 -0.172312 0.80885 0
M  V30 10803 H 1014.58 0.410144 1.64669 0
M  V30 10804 H 1013.36 0.619953 3.86358 0
M  V30 10805 H 1012.98 -1.09457 3.82237 0
M  V30 10806 N 1013.98 -1.5736 0.0868897 0
M  V30 10807 C 1014.91 -2.16596 -0.872252 0
M  V30 10808 C 1015.89 -1.09706 -1.29995 0
M  V30 10809 O 1017.07 -1.37808 -1.36831 0
M  V30 10810 C 1014.2 -2.73972 -2.1344 0
M  V30 10811 C 1013.16 -3.86163 -1.8456 0
M  V30 10812 C 1012.48 -4.30206 -3.17533 0
M  V30 10813 C 1013.78 -5.0973 -1.13899 0
M  V30 10814 H 1015.48 -2.96995 -0.378738 0
M  V30 10815 H 1013.02 -1.42861 -0.18073 0
M  V30 10816 H 1014.98 -3.14062 -2.80968 0
M  V30 10817 H 1013.7 -1.90817 -2.6506 0
M  V30 10818 H 1012.36 -3.466 -1.19432 0
M  V30 10819 H 1012.01 -3.43951 -3.67024 0
M  V30 10820 H 1011.71 -5.05841 -2.98996 0
M  V30 10821 H 1013.23 -4.72922 -3.86234 0
M  V30 10822 H 1014.64 -5.4704 -1.71523 0
M  V30 10823 H 1013.04 -5.90741 -1.05569 0
M  V30 10824 H 1014.11 -4.8475 -0.120432 0
M  V30 10825 N 1015.45 0.186762 -1.56489 0
M  V30 10826 C 1016.38 1.23395 -1.98232 0
M  V30 10827 C 1017.37 1.4702 -0.855526 0
M  V30 10828 O 1018.55 1.58616 -1.12048 0
M  V30 10829 C 1015.68 2.57635 -2.32898 0
M  V30 10830 C 1014.63 2.48607 -3.48394 0
M  V30 10831 C 1013.96 3.87196 -3.68759 0
M  V30 10832 C 1015.26 2.00398 -4.82325 0
M  V30 10833 H 1016.95 0.887026 -2.85958 0
M  V30 10834 H 1014.5 0.42525 -1.37578 0
M  V30 10835 H 1016.45 3.31082 -2.60696 0
M  V30 10836 H 1015.18 2.94084 -1.42064 0
M  V30 10837 H 1013.84 1.77615 -3.207 0
M  V30 10838 H 1013.48 4.21012 -2.75241 0
M  V30 10839 H 1013.18 3.82029 -4.46462 0
M  V30 10840 H 1014.71 4.62253 -3.98941 0
M  V30 10841 H 1016.12 2.6361 -5.091 0
M  V30 10842 H 1014.52 2.06214 -5.63556 0
M  V30 10843 H 1015.59 0.957562 -4.75351 0
M  V30 10844 N 1016.93 1.50896 0.454776 0
M  V30 10845 C 1018.18 1.6294 1.20741 0
M  V30 10846 C 1018.51 0.336339 1.91265 0
M  V30 10847 O 1017.79 -0.663153 1.82846 0
M  V30 10848 C 1018.07 2.82092 2.23822 0
M  V30 10849 C 1017.92 4.21326 1.57495 0
M  V30 10850 C 1019.24 2.96777 3.24979 0
M  V30 10851 H 1016.36 0.59302 0.437603 0
M  V30 10852 H 1019 1.83331 0.498959 0
M  V30 10853 H 1017.15 2.64837 2.84243 0
M  V30 10854 H 1018.82 4.50209 1.00546 0
M  V30 10855 H 1017.07 4.24829 0.877664 0
M  V30 10856 H 1017.74 5.00656 2.32482 0
M  V30 10857 H 1020.21 3.12627 2.74597 0
M  V30 10858 H 1019.09 3.81742 3.94416 0
M  V30 10859 H 1019.35 2.08091 3.90065 0
M  V30 10860 N 1018.41 -0.709066 1.40748 0
M  V30 10861 C 1019.36 -1.84445 1.41714 0
M  V30 10862 C 1020.35 -1.66779 0.296818 0
M  V30 10863 O 1021.56 -1.73805 0.468181 0
M  V30 10864 H 1017.93 -0.607581 0.443114 0
M  V30 10865 H 1019.9 -1.80747 2.3743 0
M  V30 10866 C 1018.65 -3.22362 1.303 0
M  V30 10867 H 1017.98 -3.36565 2.15787 0
M  V30 10868 H 1019.42 -4.01922 1.35036 0
M  V30 10869 C 1017.88 -3.36897 0.0139015 0
M  V30 10870 O 1018.41 -3.90389 -0.946553 0
M  V30 10871 N 1016.61 -2.90543 -0.0577491 0
M  V30 10872 H 1016.16 -2.472 0.724574 0
M  V30 10873 H 1016.12 -3.00647 -0.919721 0
M  V30 10874 N 1019.89 -1.26353 -0.941956 0
M  V30 10875 C 1021.14 -1.12017 -1.69056 0
M  V30 10876 C 1021.47 0.335856 -1.91274 0
M  V30 10877 O 1020.74 1.24677 -1.49285 0
M  V30 10878 C 1021.03 -1.88889 -3.06583 0
M  V30 10879 C 1020.88 -3.42394 -2.91696 0
M  V30 10880 C 1022.2 -1.68209 -4.06686 0
M  V30 10881 H 1019.32 -0.408311 -0.613556 0
M  V30 10882 H 1021.96 -1.55339 -1.09407 0
M  V30 10883 H 1020.11 -1.5207 -3.57501 0
M  V30 10884 H 1021.78 -3.88962 -2.48005 0
M  V30 10885 H 1020.02 -3.69459 -2.27338 0
M  V30 10886 H 1020.7 -3.91408 -3.89235 0
M  V30 10887 H 1023.17 -2.00286 -3.64726 0
M  V30 10888 H 1022.05 -2.24412 -5.00929 0
M  V30 10889 H 1022.31 -0.626474 -4.37639 0
M  V30 10890 N 1021.37 1.14642 -1.08144 0
M  V30 10891 C 1022.59 1.90025 -0.830972 0
M  V30 10892 C 1023.02 1.77904 0.610879 0
M  V30 10893 O 1022.38 1.11735 1.42776 0
M  V30 10894 C 1022.42 3.38085 -1.25422 0
M  V30 10895 O 1021.53 4.10412 -0.404486 0
M  V30 10896 H 1020.87 0.591327 -0.302041 0
M  V30 10897 H 1023.4 1.4513 -1.44216 0
M  V30 10898 H 1023.41 3.88894 -1.23391 0
M  V30 10899 H 1022.08 3.46226 -2.30435 0
M  V30 10900 H 1020.66 3.69693 -0.487987 0
M  V30 10901 N 1022.85 0.866709 1.31628 0
M  V30 10902 C 1024.12 0.396828 1.91532 0
M  V30 10903 C 1024.5 -1.12081 1.78889 0
M  V30 10904 O 1023.85 -1.94791 1.19452 0
M  V30 10905 C 1024.06 0.874578 3.37864 0
M  V30 10906 C 1025.41 0.8988 4.14978 0
M  V30 10907 O 1026.43 0.820014 3.46633 0
M  V30 10908 O 1025.29 1.01223 5.37044 0
M  V30 10909 H 1022.39 0.1181 0.818524 0
M  V30 10910 H 1024.93 0.954407 1.40318 0
M  V30 10911 H 1023.7 1.91807 3.41066 0
M  V30 10912 H 1023.33 0.295126 3.96503 0
M  V30 10913 N 1024.32 -1.44642 0.625825 0
M  V30 10914 C 1025.55 -2.06971 0.133373 0
M  V30 10915 C 1025.97 -1.46421 -1.18078 0
M  V30 10916 O 1025.33 -0.563676 -1.72315 0
M  V30 10917 C 1025.38 -3.6059 0.0265097 0
M  V30 10918 O 1024.48 -3.99615 -1.01889 0
M  V30 10919 H 1023.82 -0.658873 0.0823568 0
M  V30 10920 H 1026.35 -1.85601 0.861002 0
M  V30 10921 H 1026.36 -4.07663 -0.1658 0
M  V30 10922 H 1025.04 -4.04043 0.985986 0
M  V30 10923 H 1023.62 -3.64183 -0.801577 0
M  V30 10924 N 1025.8 -0.366053 -1.5329 0
M  V30 10925 C 1026.73 0.47211 -2.28677 0
M  V30 10926 C 1027.71 1.08353 -1.31125 0
M  V30 10927 O 1028.9 1.10069 -1.59995 0
M  V30 10928 C 1026.03 1.61174 -3.07637 0
M  V30 10929 C 1024.98 1.12755 -4.12881 0
M  V30 10930 C 1024.31 2.35745 -4.79925 0
M  V30 10931 C 1025.61 0.211954 -5.2187 0
M  V30 10932 H 1027.3 -0.156838 -2.98989 0
M  V30 10933 H 1024.85 -0.0768709 -1.43795 0
M  V30 10934 H 1026.8 2.20473 -3.59123 0
M  V30 10935 H 1025.52 2.26793 -2.35016 0
M  V30 10936 H 1024.18 0.557234 -3.6234 0
M  V30 10937 H 1023.83 2.99821 -4.03877 0
M  V30 10938 H 1023.53 2.04019 -5.51044 0
M  V30 10939 H 1025.06 2.95729 -5.34207 0
M  V30 10940 H 1026.47 0.71244 -5.68856 0
M  V30 10941 H 1024.87 -0.0144501 -6.00098 0
M  V30 10942 H 1025.94 -0.745753 -4.79131 0
M  V30 10943 N 1027.28 1.57312 -0.0952337 0
M  V30 10944 C 1028.19 2.17556 0.877877 0
M  V30 10945 C 1029.21 1.14505 1.31014 0
M  V30 10946 O 1030.38 1.46876 1.37802 0
M  V30 10947 C 1027.45 2.74413 2.11892 0
M  V30 10948 C 1026.51 3.92419 1.74085 0
M  V30 10949 C 1025.74 4.46556 2.92273 0
M  V30 10950 O 1025.96 3.99631 4.07002 0
M  V30 10951 O 1024.9 5.37576 2.70732 0
M  V30 10952 H 1028.72 3.01116 0.395312 0
M  V30 10953 H 1026.31 1.48841 0.129123 0
M  V30 10954 H 1028.19 3.10754 2.84622 0
M  V30 10955 H 1026.87 1.93899 2.59201 0
M  V30 10956 H 1025.77 3.6089 0.985346 0
M  V30 10957 H 1027.11 4.74298 1.31539 0
M  V30 10958 N 1028.76 -0.17846 1.56586 0
M  V30 10959 C 1029.69 -1.2496 1.90946 0
M  V30 10960 C 1030.67 -1.43136 0.771424 0
M  V30 10961 O 1031.85 -1.58258 1.02405 0
M  V30 10962 C 1028.98 -2.61368 2.15417 0
M  V30 10963 C 1028.03 -2.59969 3.3811 0
M  V30 10964 S 1028.86 -2.09756 4.9271 0
M  V30 10965 C 1030.01 -3.47956 5.20267 0
M  V30 10966 H 1030.25 -0.956287 2.815 0
M  V30 10967 H 1027.78 -0.382709 1.49582 0
M  V30 10968 H 1029.74 -3.39882 2.30197 0
M  V30 10969 H 1028.4 -2.87903 1.25582 0
M  V30 10970 H 1027.59 -3.60309 3.52411 0
M  V30 10971 H 1027.19 -1.89547 3.2241 0
M  V30 10972 H 1029.49 -4.43914 5.11807 0
M  V30 10973 H 1030.43 -3.38536 6.21932 0
M  V30 10974 H 1030.84 -3.43637 4.47855 0
M  V30 10975 N 1030.24 -1.51135 -0.446768 0
M  V30 10976 C 1031.17 -1.67949 -1.55967 0
M  V30 10977 C 1032.18 -0.560337 -1.52853 0
M  V30 10978 O 1033.37 -0.83435 -1.578 0
M  V30 10979 C 1030.47 -1.6703 -2.9488 0
M  V30 10980 C 1029.64 -2.95377 -3.22601 0
M  V30 10981 C 1028.7 -2.86772 -4.4119 0
M  V30 10982 O 1027.73 -3.60722 -4.40304 0
M  V30 10983 N 1028.93 -2.01979 -5.44228 0
M  V30 10984 H 1031.69 -2.63951 -1.41951 0
M  V30 10985 H 1029.26 -1.48903 -0.635569 0
M  V30 10986 H 1031.25 -1.58854 -3.7222 0
M  V30 10987 H 1029.82 -0.786623 -3.02541 0
M  V30 10988 H 1029.04 -3.17494 -2.33647 0
M  V30 10989 H 1030.33 -3.80356 -3.37945 0
M  V30 10990 H 1029.72 -1.41257 -5.4778 0
M  V30 10991 H 1028.28 -1.99689 -6.20457 0
M  V30 10992 N 1031.71 0.701592 -1.41122 0
M  V30 10993 C 1032.95 1.4739 -1.41618 0
M  V30 10994 C 1033.32 1.91987 -0.0219443 0
M  V30 10995 O 1034.52 2.6862 0.0982793 0
M  V30 10996 C 1032.79 2.65745 -2.38986 0
M  V30 10997 S 1034.35 3.54968 -2.5796 0
M  V30 10998 H 1031.17 0.503742 -0.501762 0
M  V30 10999 H 1033.77 0.819186 -1.77509 0
M  V30 11000 H 1032.47 2.31176 -3.39096 0
M  V30 11001 H 1032 3.36115 -2.04426 0
M  V30 11002 H 1034.02 4.60724 -1.84249 0
M  V30 11003 N 1033.19 1.2685 0.935242 0
M  V30 11004 C 1034.12 1.1143 2.05196 0
M  V30 11005 C 1035.1 0.0178362 1.70091 0
M  V30 11006 O 1036.29 0.190951 1.93259 0
M  V30 11007 C 1033.42 0.752779 3.39044 0
M  V30 11008 C 1032.37 1.80164 3.88233 0
M  V30 11009 C 1031.7 1.29428 5.18799 0
M  V30 11010 C 1033 3.20431 4.12457 0
M  V30 11011 H 1034.69 2.04845 2.18355 0
M  V30 11012 H 1032.24 0.986276 1.04922 0
M  V30 11013 H 1034.19 0.631757 4.16637 0
M  V30 11014 H 1032.91 -0.217075 3.25878 0
M  V30 11015 H 1031.57 1.91144 3.12825 0
M  V30 11016 H 1031.22 0.3141 5.02018 0
M  V30 11017 H 1030.92 1.99546 5.5268 0
M  V30 11018 H 1032.45 1.18605 5.9897 0
M  V30 11019 H 1033.86 3.12495 4.80645 0
M  V30 11020 H 1032.26 3.88193 4.57631 0
M  V30 11021 H 1033.33 3.66046 3.18023 0
M  V30 11022 N 1034.67 -1.14067 1.0875 0
M  V30 11023 C 1035.92 -1.85459 0.82053 0
M  V30 11024 C 1036.25 -1.82923 -0.65213 0
M  V30 11025 O 1035.52 -1.26241 -1.47965 0
M  V30 11026 C 1035.81 -3.33937 1.34752 0
M  V30 11027 C 1035.66 -3.45026 2.88578 0
M  V30 11028 C 1036.98 -4.2915 0.975636 0
M  V30 11029 H 1034.1 -0.673384 0.299538 0
M  V30 11030 H 1036.74 -1.33927 1.34772 0
M  V30 11031 H 1034.89 -3.77953 0.899086 0
M  V30 11032 H 1036.56 -3.09771 3.41818 0
M  V30 11033 H 1034.81 -2.86124 3.26061 0
M  V30 11034 H 1035.48 -4.49408 3.20526 0
M  V30 11035 H 1037.95 -3.93168 1.36228 0
M  V30 11036 H 1036.83 -5.31489 1.37152 0
M  V30 11037 H 1037.09 -4.41945 -0.116956 0
M  V30 11038 N 1036.15 -0.873678 -1.31166 0
M  V30 11039 C 1037.11 -0.337069 -2.26708 0
M  V30 11040 C 1038.11 0.51406 -1.52362 0
M  V30 11041 O 1039.3 0.322834 -1.71182 0
M  V30 11042 C 1036.43 0.520897 -3.36897 0
M  V30 11043 H 1037.63 -1.18056 -2.75686 0
M  V30 11044 H 1035.18 -0.649577 -1.42163 0
M  V30 11045 H 1035.91 1.38543 -2.93217 0
M  V30 11046 H 1035.7 -0.0886015 -3.92 0
M  V30 11047 H 1037.19 0.888497 -4.08039 0
M  V30 11048 N 1037.63 1.44308 -0.633487 0
M  V30 11049 C 1038.87 2.01624 -0.138643 0
M  V30 11050 C 1039.2 1.50101 1.24477 0
M  V30 11051 O 1038.47 0.705575 1.82752 0
M  V30 11052 H 1037.05 0.745439 -0.0482636 0
M  V30 11053 H 1039.71 1.76777 -0.820719 0
M  V30 11054 H 1038.8 3.11913 -0.108136 0
M  V30 11055 N 1039.1 0.374177 1.53094 0
M  V30 11056 C 1040.07 -0.455999 2.24618 0
M  V30 11057 C 1041.07 -1.00269 1.25709 0
M  V30 11058 O 1042.26 -0.887077 1.49922 0
M  V30 11059 C 1039.39 -1.63822 2.98957 0
M  V30 11060 H 1040.58 0.169986 2.99418 0
M  V30 11061 H 1038.14 0.126015 1.55791 0
M  V30 11062 H 1038.87 -2.30205 2.28421 0
M  V30 11063 H 1038.66 -1.25308 3.71538 0
M  V30 11064 H 1040.15 -2.22633 3.53305 0
M  V30 11065 N 1040.58 -1.57259 0.103575 0
M  V30 11066 C 1041.53 -2.11032 -0.863101 0
M  V30 11067 C 1042.52 -1.02737 -1.2383 0
M  V30 11068 O 1043.71 -1.28997 -1.21197 0
M  V30 11069 C 1040.84 -2.70099 -2.11899 0
M  V30 11070 C 1039.92 -3.85451 -1.76885 0
M  V30 11071 N 1040.31 -4.93137 -1.12469 0
M  V30 11072 C 1038.61 -3.95346 -2.06441 0
M  V30 11073 C 1039.31 -5.73681 -0.962527 0
M  V30 11074 N 1038.29 -5.22992 -1.48258 0
M  V30 11075 H 1042.09 -2.91671 -0.361264 0
M  V30 11076 H 1039.61 -1.62096 -0.0993794 0
M  V30 11077 H 1041.6 -3.06957 -2.82104 0
M  V30 11078 H 1040.26 -1.90918 -2.62641 0
M  V30 11079 H 1041.27 -5.11832 -0.790489 0
M  V30 11080 H 1037.95 -3.27185 -2.59338 0
M  V30 11081 H 1039.34 -6.70337 -0.458098 0
M  V30 11082 N 1042.06 0.170153 -1.56679 0
M  V30 11083 C 1043.02 1.19443 -1.95617 0
M  V30 11084 C 1044.02 1.37118 -0.83996 0
M  V30 11085 O 1045.21 1.34504 -1.10699 0
M  V30 11086 C 1042.35 2.55926 -2.25199 0
M  V30 11087 H 1043.54 0.86095 -2.87276 0
M  V30 11088 H 1041.09 0.412646 -1.50755 0
M  V30 11089 H 1041.83 2.94286 -1.36257 0
M  V30 11090 H 1041.61 2.44464 -3.06562 0
M  V30 11091 H 1043.1 3.29742 -2.56242 0
M  V30 11092 N 1043.54 1.5137 0.438746 0
M  V30 11093 C 1044.95 1.56462 1.01866 0
M  V30 11094 C 1045.3 0.387244 1.9234 0
M  V30 11095 O 1044.43 -0.496131 2.10636 0
M  V30 11096 C 1045.02 2.83557 1.85421 0
M  V30 11097 C 1043.58 2.91224 2.38464 0
M  V30 11098 C 1042.73 2.51109 1.17641 0
M  V30 11099 H 1045.68 1.57167 0.220072 0
M  V30 11100 H 1045.7 2.6724 2.70857 0
M  V30 11101 H 1045.21 3.69229 1.19546 0
M  V30 11102 H 1043.31 2.09979 3.07798 0
M  V30 11103 H 1043.42 3.94844 2.71358 0
M  V30 11104 H 1041.79 2.04276 1.5213 0
M  V30 11105 H 1042.57 3.39125 0.533785 0
M  V30 11106 N 1045.02 -0.694098 1.41492 0
M  V30 11107 C 1046.24 -1.48789 1.44488 0
M  V30 11108 C 1046.67 -1.88028 0.0521588 0
M  V30 11109 O 1046.02 -1.54727 -0.944952 0
M  V30 11110 C 1046.07 -2.72586 2.3607 0
M  V30 11111 O 1045.18 -3.70128 1.81876 0
M  V30 11112 H 1044.52 -0.447758 0.490315 0
M  V30 11113 H 1047.05 -0.853036 1.85969 0
M  V30 11114 H 1047.06 -3.20877 2.51995 0
M  V30 11115 H 1045.73 -2.43363 3.37264 0
M  V30 11116 H 1044.31 -3.29069 1.75408 0
M  V30 11117 N 1046.49 -1.27344 -0.928501 0
M  V30 11118 C 1047.74 -1.13019 -1.67061 0
M  V30 11119 C 1048.06 0.323614 -1.92904 0
M  V30 11120 O 1049.26 0.587752 -2.65062 0
M  V30 11121 C 1047.72 -1.97471 -3.00887 0
M  V30 11122 C 1047.33 -3.47504 -2.82746 0
M  V30 11123 C 1049.07 -1.91792 -3.78703 0
M  V30 11124 C 1046.98 -4.24158 -4.12122 0
M  V30 11125 H 1045.91 -0.419364 -0.626618 0
M  V30 11126 H 1048.56 -1.51759 -1.03158 0
M  V30 11127 H 1046.94 -1.51576 -3.65843 0
M  V30 11128 H 1048.11 -4.01256 -2.26562 0
M  V30 11129 H 1046.43 -3.54554 -2.18359 0
M  V30 11130 H 1049.03 -2.46339 -4.74575 0
M  V30 11131 H 1049.37 -0.891375 -4.06645 0
M  V30 11132 H 1049.9 -2.35578 -3.20543 0
M  V30 11133 H 1046.64 -5.27333 -3.89359 0
M  V30 11134 H 1046.16 -3.75183 -4.67972 0
M  V30 11135 H 1047.84 -4.33288 -4.80489 0
M  V30 11136 N 1047.97 1.13488 -1.09353 0
M  V30 11137 C 1049.22 1.85022 -0.830354 0
M  V30 11138 C 1049.55 1.83266 0.64242 0
M  V30 11139 O 1048.83 1.27024 1.47293 0
M  V30 11140 C 1049.11 3.33218 -1.36521 0
M  V30 11141 C 1048.96 3.43491 -2.90404 0
M  V30 11142 C 1050.28 4.28626 -0.998381 0
M  V30 11143 H 1047.4 0.671786 -0.303105 0
M  V30 11144 H 1050.04 1.33211 -1.3548 0
M  V30 11145 H 1048.19 3.77471 -0.919117 0
M  V30 11146 H 1049.86 3.07954 -3.43456 0
M  V30 11147 H 1048.11 2.84391 -3.27573 0
M  V30 11148 H 1048.78 4.47702 -3.22905 0
M  V30 11149 H 1051.25 3.9244 -1.38311 0
M  V30 11150 H 1050.13 5.30754 -1.39968 0
M  V30 11151 H 1050.39 4.42001 0.093517 0
M  V30 11152 N 1049.45 0.880621 1.30701 0
M  V30 11153 C 1050.7 0.506967 1.96981 0
M  V30 11154 C 1051.05 -0.932694 1.68281 0
M  V30 11155 O 1050.35 -1.64954 0.974709 0
M  V30 11156 C 1050.54 0.713203 3.50212 0
M  V30 11157 C 1050.37 2.17136 3.93805 0
M  V30 11158 C 1049.14 2.81508 4.19621 0
M  V30 11159 C 1051.34 3.14473 4.06954 0
M  V30 11160 N 1049.32 4.17965 4.49643 0
M  V30 11161 C 1050.69 4.3599 4.40809 0
M  V30 11162 C 1052.74 3.1032 3.89366 0
M  V30 11163 C 1051.45 5.53889 4.58911 0
M  V30 11164 C 1053.47 4.27487 4.08667 0
M  V30 11165 C 1052.84 5.47769 4.42864 0
M  V30 11166 H 1048.93 0.234756 0.745931 0
M  V30 11167 H 1051.52 1.13745 1.5802 0
M  V30 11168 H 1049.69 0.112239 3.88238 0
M  V30 11169 H 1051.42 0.30688 4.03535 0
M  V30 11170 H 1048.18 2.32399 4.12659 0
M  V30 11171 H 1048.6 4.88425 4.68796 0
M  V30 11172 H 1053.24 2.18428 3.62007 0
M  V30 11173 H 1050.96 6.46289 4.85114 0
M  V30 11174 H 1054.55 4.25738 3.96533 0
M  V30 11175 H 1053.43 6.36922 4.57493 0
M  V30 11176 N 1050.93 -1.4397 0.641131 0
M  V30 11177 C 1052.16 -2.06004 0.156779 0
M  V30 11178 C 1052.57 -1.48059 -1.17793 0
M  V30 11179 O 1051.91 -0.601788 -1.73563 0
M  V30 11180 C 1051.97 -3.59493 -0.0217203 0
M  V30 11181 C 1051.64 -4.39957 1.23639 0
M  V30 11182 C 1052.63 -4.72797 2.16239 0
M  V30 11183 C 1050.32 -4.80168 1.4746 0
M  V30 11184 C 1052.31 -5.44741 3.30962 0
M  V30 11185 C 1050 -5.51859 2.62478 0
M  V30 11186 C 1051 -5.84067 3.54055 0
M  V30 11187 O 1050.69 -6.54296 4.67067 0
M  V30 11188 H 1050.42 -0.671061 0.0815685 0
M  V30 11189 H 1052.97 -1.85664 0.878517 0
M  V30 11190 H 1051.2 -3.78362 -0.798707 0
M  V30 11191 H 1052.89 -4.03263 -0.461893 0
M  V30 11192 H 1053.66 -4.42261 1.99073 0
M  V30 11193 H 1049.54 -4.54513 0.770652 0
M  V30 11194 H 1053.08 -5.69798 4.02462 0
M  V30 11195 H 1048.98 -5.81811 2.79583 0
M  V30 11196 H 1049.74 -6.72772 4.66177 0
M  V30 11197 N 1052.41 -0.382291 -1.52893 0
M  V30 11198 C 1053.35 0.456234 -2.26246 0
M  V30 11199 C 1054.32 1.06366 -1.27575 0
M  V30 11200 O 1055.51 1.09301 -1.5639 0
M  V30 11201 C 1052.65 1.5813 -3.06739 0
M  V30 11202 C 1051.76 0.997416 -4.20328 0
M  V30 11203 C 1050.9 2.09296 -4.8823 0
M  V30 11204 C 1049.94 1.4846 -5.93823 0
M  V30 11205 N 1049.07 2.51916 -6.55349 0
M  V30 11206 H 1053.91 -0.175761 -2.97481 0
M  V30 11207 H 1051.45 -0.0985046 -1.4677 0
M  V30 11208 H 1053.41 2.24426 -3.51694 0
M  V30 11209 H 1052.04 2.18371 -2.37727 0
M  V30 11210 H 1051.09 0.224251 -3.79738 0
M  V30 11211 H 1052.4 0.512784 -4.96157 0
M  V30 11212 H 1051.56 2.83377 -5.36453 0
M  V30 11213 H 1050.3 2.61116 -4.1191 0
M  V30 11214 H 1049.3 0.729001 -5.44946 0
M  V30 11215 H 1050.53 0.97443 -6.72073 0
M  V30 11216 H 1048.47 3.02919 -5.81873 0
M  V30 11217 H 1048.39 2.08188 -7.26769 0
M  V30 11218 H 1049.66 3.25649 -7.08218 0
M  V30 11219 N 1053.89 1.57202 -0.111913 0
M  V30 11220 C 1055.16 1.86459 0.590972 0
M  V30 11221 C 1055.54 1.01182 1.85271 0
M  V30 11222 O 1054.89 0.0887891 2.28327 0
M  V30 11223 C 1055.1 3.37455 0.890225 0
M  V30 11224 C 1056.45 4.05895 1.24638 0
M  V30 11225 O 1057.47 3.42433 0.980713 0
M  V30 11226 O 1056.33 5.17903 1.74466 0
M  V30 11227 H 1053.43 0.771652 0.297459 0
M  V30 11228 H 1055.97 1.69072 -0.145882 0
M  V30 11229 H 1054.74 3.913 -0.00419012 0
M  V30 11230 H 1054.37 3.60248 1.68248 0
M  V30 11231 N 1055.36 -0.161842 1.56767 0
M  V30 11232 C 1056.27 -1.21996 2.00385 0
M  V30 11233 C 1057.29 -1.4789 0.916768 0
M  V30 11234 O 1058.47 -1.59852 1.22513 0
M  V30 11235 C 1055.53 -2.53695 2.36305 0
M  V30 11236 C 1054.59 -2.3558 3.58888 0
M  V30 11237 C 1053.82 -3.60998 3.93085 0
M  V30 11238 O 1054.05 -4.6657 3.28129 0
M  V30 11239 O 1052.98 -3.54544 4.86397 0
M  V30 11240 H 1056.81 -0.879701 2.9068 0
M  V30 11241 H 1054.39 -0.369437 1.4476 0
M  V30 11242 H 1056.27 -3.31366 2.60335 0
M  V30 11243 H 1054.95 -2.87281 1.49169 0
M  V30 11244 H 1053.86 -1.55908 3.40064 0
M  V30 11245 H 1055.19 -2.06915 4.46595 0
M  V30 11246 N 1056.84 -1.516 -0.430713 0
M  V30 11247 C 1058.26 -1.39923 -0.767706 0
M  V30 11248 C 1058.46 -0.486756 -1.95532 0
M  V30 11249 O 1057.51 0.0555965 -2.52439 0
M  V30 11250 C 1058.83 -2.82074 -1.04187 0
M  V30 11251 C 1060.37 -2.9127 -1.1459 0
M  V30 11252 C 1060.85 -4.34342 -1.45295 0
M  V30 11253 N 1062.34 -4.37479 -1.52206 0
M  V30 11254 C 1063.08 -5.45219 -1.77549 0
M  V30 11255 N 1062.57 -6.6311 -2.0064 0
M  V30 11256 N 1064.36 -5.32707 -1.79386 0
M  V30 11257 H 1056.52 -2.09474 0.351351 0
M  V30 11258 H 1058.78 -0.943247 0.0948151 0
M  V30 11259 H 1058.48 -3.50868 -0.241837 0
M  V30 11260 H 1058.36 -3.21805 -1.96777 0
M  V30 11261 H 1060.75 -2.2267 -1.93655 0
M  V30 11262 H 1060.83 -2.55026 -0.198854 0
M  V30 11263 H 1060.47 -5.03494 -0.667559 0
M  V30 11264 H 1060.4 -4.68105 -2.41217 0
M  V30 11265 H 1062.89 -3.52488 -1.36237 0
M  V30 11266 H 1063.2 -7.41012 -2.19366 0
M  V30 11267 H 1061.55 -6.66214 -1.97948 0
M  V30 11268 H 1064.74 -4.39589 -1.60869 0
M  V30 11269 H 1064.91 -6.16752 -1.98799 0
M  V30 11270 N 1058.32 0.686584 -1.41858 0
M  V30 11271 C 1059.25 1.81264 -1.47193 0
M  V30 11272 C 1060.23 1.66875 -0.329657 0
M  V30 11273 O 1061.42 1.86473 -0.542347 0
M  V30 11274 C 1058.55 3.19472 -1.36216 0
M  V30 11275 C 1057.5 3.4858 -2.48347 0
M  V30 11276 C 1056.83 4.86239 -2.22432 0
M  V30 11277 C 1058.13 3.46653 -3.90678 0
M  V30 11278 H 1059.82 1.77057 -2.41436 0
M  V30 11279 H 1057.37 0.850415 -1.16206 0
M  V30 11280 H 1059.32 3.97969 -1.38558 0
M  V30 11281 H 1058.04 3.24327 -0.384611 0
M  V30 11282 H 1056.7 2.72437 -2.45303 0
M  V30 11283 H 1056.35 4.8773 -1.22999 0
M  V30 11284 H 1056.05 5.06677 -2.97577 0
M  V30 11285 H 1057.57 5.67034 -2.26505 0
M  V30 11286 H 1058.99 4.15139 -3.95389 0
M  V30 11287 H 1057.38 3.78625 -4.65578 0
M  V30 11288 H 1058.45 2.45451 -4.18189 0
M  V30 11289 N 1059.8 1.27835 0.921735 0
M  V30 11290 C 1060.73 1.136 2.04003 0
M  V30 11291 C 1061.71 0.0358756 1.70062 0
M  V30 11292 O 1062.89 0.211438 1.93046 0
M  V30 11293 C 1060.02 0.788697 3.38226 0
M  V30 11294 C 1058.98 1.84272 3.863 0
M  V30 11295 C 1058.3 1.34923 5.17397 0
M  V30 11296 C 1059.6 3.24788 4.09035 0
M  V30 11297 H 1061.3 2.07149 2.1617 0
M  V30 11298 H 1058.84 0.997349 1.0387 0
M  V30 11299 H 1060.8 0.675911 4.15944 0
M  V30 11300 H 1059.52 -0.182499 3.2609 0
M  V30 11301 H 1058.18 1.94451 3.1078 0
M  V30 11302 H 1057.83 0.367328 5.01657 0
M  V30 11303 H 1057.53 2.05397 5.50532 0
M  V30 11304 H 1059.05 1.24951 5.97678 0
M  V30 11305 H 1060.47 3.17575 4.77304 0
M  V30 11306 H 1058.86 3.93025 4.53488 0
M  V30 11307 H 1059.93 3.69398 3.14122 0
M  V30 11308 N 1061.28 -1.12907 1.09954 0
M  V30 11309 C 1062.19 -2.22082 0.756095 0
M  V30 11310 C 1063.2 -1.72277 -0.244272 0
M  V30 11311 O 1064.38 -2.01224 -0.0842637 0
M  V30 11312 C 1061.44 -3.46192 0.187642 0
M  V30 11313 C 1060.5 -4.10861 1.24465 0
M  V30 11314 C 1059.74 -5.29047 0.703227 0
M  V30 11315 O 1059.96 -5.68443 -0.472043 0
M  V30 11316 O 1058.89 -5.83904 1.46082 0
M  V30 11317 H 1062.72 -2.53842 1.66727 0
M  V30 11318 H 1060.3 -1.21145 0.874316 0
M  V30 11319 H 1062.19 -4.21212 -0.125774 0
M  V30 11320 H 1060.86 -3.16119 -0.696459 0
M  V30 11321 H 1059.77 -3.37643 1.61085 0
M  V30 11322 H 1061.1 -4.45078 2.10159 0
M  V30 11323 N 1062.75 -0.88754 -1.30232 0
M  V30 11324 C 1063.66 -0.360333 -2.31816 0
M  V30 11325 C 1064.68 0.538741 -1.6545 0
M  V30 11326 O 1065.86 0.431246 -1.96729 0
M  V30 11327 C 1062.92 0.414336 -3.44215 0
M  V30 11328 C 1061.98 -0.514799 -4.26202 0
M  V30 11329 C 1061.21 0.222994 -5.33234 0
M  V30 11330 O 1061.44 1.44871 -5.51696 0
M  V30 11331 O 1060.37 -0.428221 -6.00375 0
M  V30 11332 H 1064.2 -1.20279 -2.78867 0
M  V30 11333 H 1061.78 -0.651459 -1.34448 0
M  V30 11334 H 1063.66 0.852859 -4.12679 0
M  V30 11335 H 1062.34 1.23305 -2.99295 0
M  V30 11336 H 1061.25 -1.00219 -3.60426 0
M  V30 11337 H 1062.58 -1.29959 -4.74733 0
M  V30 11338 N 1064.23 1.43628 -0.648757 0
M  V30 11339 C 1065.18 2.30755 0.0455536 0
M  V30 11340 C 1066.15 1.44495 0.819168 0
M  V30 11341 O 1067.33 1.73372 0.79667 0
M  V30 11342 C 1064.47 3.30017 1.00908 0
M  V30 11343 C 1063.59 4.31376 0.232039 0
M  V30 11344 C 1062.72 5.17723 1.18897 0
M  V30 11345 C 1061.76 6.10778 0.402096 0
M  V30 11346 N 1060.9 6.89763 1.31038 0
M  V30 11347 H 1065.74 2.89581 -0.70332 0
M  V30 11348 H 1063.28 1.42662 -0.3586 0
M  V30 11349 H 1065.23 3.86072 1.58128 0
M  V30 11350 H 1063.86 2.72851 1.72488 0
M  V30 11351 H 1062.92 3.77652 -0.456373 0
M  V30 11352 H 1064.23 4.9735 -0.380023 0
M  V30 11353 H 1063.38 5.78381 1.83194 0
M  V30 11354 H 1062.12 4.51864 1.83494 0
M  V30 11355 H 1061.13 5.49212 -0.254255 0
M  V30 11356 H 1062.35 6.78678 -0.239411 0
M  V30 11357 H 1060.3 6.26557 1.94324 0
M  V30 11358 H 1060.21 7.52243 0.752774 0
M  V30 11359 H 1061.48 7.54931 1.94164 0
M  V30 11360 N 1065.71 0.390394 1.52688 0
M  V30 11361 C 1066.94 -0.194013 2.06491 0
M  V30 11362 C 1067.36 -1.3965 1.26014 0
M  V30 11363 O 1066.72 -1.79038 0.285468 0
M  V30 11364 C 1066.77 -0.541306 3.56514 0
M  V30 11365 O 1065.87 -1.63509 3.78601 0
M  V30 11366 H 1065.21 -0.0223608 0.663623 0
M  V30 11367 H 1067.74 0.558179 1.96839 0
M  V30 11368 H 1067.75 -0.805301 3.99974 0
M  V30 11369 H 1066.43 0.337828 4.14526 0
M  V30 11370 H 1065 -1.36473 3.4703 0
M  V30 11371 N 1067.19 -1.57141 0.120249 0
M  V30 11372 C 1068.44 -1.94852 -0.536387 0
M  V30 11373 C 1068.76 -1.00452 -1.67136 0
M  V30 11374 O 1068.03 -0.061053 -1.95805 0
M  V30 11375 H 1066.61 -0.719411 -0.201138 0
M  V30 11376 H 1069.27 -1.93977 0.189482 0
M  V30 11377 H 1068.37 -2.97917 -0.930145 0
M  V30 11378 N 1068.67 0.153526 -1.5685 0
M  V30 11379 C 1069.91 0.868517 -1.83261 0
M  V30 11380 C 1070.25 1.81112 -0.700857 0
M  V30 11381 O 1069.52 1.92235 0.295989 0
M  V30 11382 C 1069.8 1.6487 -3.2014 0
M  V30 11383 C 1069.66 0.728021 -4.43869 0
M  V30 11384 C 1070.98 2.61259 -3.54163 0
M  V30 11385 H 1068.09 0.314297 -0.666623 0
M  V30 11386 H 1070.74 0.133971 -1.89527 0
M  V30 11387 H 1068.89 2.2749 -3.1493 0
M  V30 11388 H 1070.56 0.113328 -4.61161 0
M  V30 11389 H 1068.8 0.0371744 -4.33784 0
M  V30 11390 H 1069.47 1.30981 -5.36235 0
M  V30 11391 H 1071.95 2.0876 -3.59942 0
M  V30 11392 H 1070.82 3.12902 -4.50981 0
M  V30 11393 H 1071.09 3.42307 -2.79782 0
M  V30 11394 N 1070.14 1.51827 0.422667 0
M  V30 11395 C 1071.42 1.55772 1.18299 0
M  V30 11396 C 1071.8 0.330657 2.08494 0
M  V30 11397 O 1071.15 -0.683373 2.18042 0
M  V30 11398 C 1071.36 2.87941 1.97208 0
M  V30 11399 C 1072.71 3.4044 2.53744 0
M  V30 11400 O 1073.73 2.8959 2.07403 0
M  V30 11401 O 1072.59 4.29201 3.38303 0
M  V30 11402 H 1069.68 0.626889 0.539388 0
M  V30 11403 H 1072.23 1.64147 0.430545 0
M  V30 11404 H 1071 3.68702 1.31052 0
M  V30 11405 H 1070.63 2.82795 2.79486 0
M  V30 11406 N 1071.62 -0.679052 1.4222 0
M  V30 11407 C 1072.55 -1.80481 1.48152 0
M  V30 11408 C 1073.53 -1.66698 0.338502 0
M  V30 11409 O 1074.72 -1.86183 0.552228 0
M  V30 11410 C 1071.85 -3.18746 1.37908 0
M  V30 11411 C 1070.8 -3.47258 2.50192 0
M  V30 11412 C 1070.13 -4.85052 2.25008 0
M  V30 11413 C 1071.43 -3.44576 3.92511 0
M  V30 11414 H 1073.12 -1.75774 2.42371 0
M  V30 11415 H 1070.67 -0.844241 1.16656 0
M  V30 11416 H 1072.62 -3.97229 1.40666 0
M  V30 11417 H 1071.35 -3.24119 0.401806 0
M  V30 11418 H 1070 -2.71133 2.46744 0
M  V30 11419 H 1069.65 -4.8707 1.25584 0
M  V30 11420 H 1069.35 -5.05092 3.00259 0
M  V30 11421 H 1070.88 -5.65825 2.29508 0
M  V30 11422 H 1072.29 -4.13036 3.97585 0
M  V30 11423 H 1070.69 -3.76151 4.67579 0
M  V30 11424 H 1071.76 -2.4323 4.19484 0
M  V30 11425 N 1073.1 -1.28322 -0.914942 0
M  V30 11426 C 1074.06 -1.12169 -1.99877 0
M  V30 11427 C 1075.06 -0.0617252 -1.60681 0
M  V30 11428 O 1076.25 -0.307405 -1.71466 0
M  V30 11429 C 1073.39 -0.711959 -3.33383 0
M  V30 11430 H 1074.58 -2.08425 -2.15636 0
M  V30 11431 H 1072.13 -1.11291 -1.09745 0
M  V30 11432 H 1072.87 0.251418 -3.23324 0
M  V30 11433 H 1072.65 -1.47764 -3.63192 0
M  V30 11434 H 1074.14 -0.621558 -4.12948 0
M  V30 11435 N 1074.58 1.12322 -1.10551 0
M  V30 11436 C 1075.86 1.80201 -0.760715 0
M  V30 11437 C 1076.24 1.97228 0.752628 0
M  V30 11438 O 1075.58 1.54958 1.67929 0
M  V30 11439 C 1075.79 3.14491 -1.51316 0
M  V30 11440 C 1077.14 3.89671 -1.68647 0
M  V30 11441 O 1078.17 3.24151 -1.47664 0
M  V30 11442 O 1077.02 5.0722 -2.03445 0
M  V30 11443 H 1074.12 0.780084 -0.274587 0
M  V30 11444 H 1076.66 1.19147 -1.20839 0
M  V30 11445 H 1075.44 2.97396 -2.54306 0
M  V30 11446 H 1075.06 3.83253 -1.05842 0
M  V30 11447 N 1076.06 0.894434 1.2976 0
M  V30 11448 C 1077.28 0.5322 2.00455 0
M  V30 11449 C 1077.71 -0.874427 1.66539 0
M  V30 11450 O 1077.06 -1.58113 0.887129 0
M  V30 11451 C 1077.11 0.725264 3.53231 0
M  V30 11452 O 1076.22 -0.224612 4.11788 0
M  V30 11453 H 1075.56 0.208562 0.630395 0
M  V30 11454 H 1078.09 1.20458 1.65382 0
M  V30 11455 H 1078.1 0.627889 4.0314 0
M  V30 11456 H 1076.77 1.75079 3.77253 0
M  V30 11457 H 1075.35 -0.0801361 3.72814 0
M  V30 11458 N 1077.53 -1.43282 0.656365 0
M  V30 11459 C 1078.48 -2.32556 -0.0452037 0
M  V30 11460 C 1079.48 -1.48789 -0.80982 0
M  V30 11461 O 1080.68 -1.64979 -0.719865 0
M  V30 11462 H 1077.06 -0.751258 -0.0334043 0
M  V30 11463 H 1079.03 -2.89448 0.725423 0
M  V30 11464 C 1077.78 -3.33138 -0.995706 0
M  V30 11465 H 1077.1 -3.97622 -0.416774 0
M  V30 11466 H 1078.54 -3.98231 -1.45562 0
M  V30 11467 C 1077 -2.63978 -2.09325 0
M  V30 11468 O 1077.53 -2.45769 -3.17743 0
M  V30 11469 N 1075.74 -2.23301 -1.8597 0
M  V30 11470 H 1075.28 -2.38312 -0.97802 0
M  V30 11471 H 1075.24 -1.77358 -2.59599 0
M  V30 11472 N 1079.01 -0.398486 -1.52479 0
M  V30 11473 C 1079.95 0.467426 -2.24383 0
M  V30 11474 C 1080.96 1.01908 -1.26959 0
M  V30 11475 O 1082.15 0.919843 -1.52974 0
M  V30 11476 C 1079.25 1.66146 -2.95379 0
M  V30 11477 C 1078.42 1.23557 -4.19586 0
M  V30 11478 C 1077.48 2.29532 -4.73499 0
M  V30 11479 O 1076.51 1.90561 -5.36354 0
M  V30 11480 N 1077.71 3.61564 -4.5415 0
M  V30 11481 H 1080.47 -0.148653 -2.99331 0
M  V30 11482 H 1078.03 -0.225313 -1.60325 0
M  V30 11483 H 1080.03 2.36585 -3.28344 0
M  V30 11484 H 1078.6 2.18369 -2.23682 0
M  V30 11485 H 1077.82 0.359715 -3.92555 0
M  V30 11486 H 1079.1 0.927812 -5.00269 0
M  V30 11487 H 1078.5 3.95983 -4.03998 0
M  V30 11488 H 1077.06 4.2801 -4.9158 0
M  V30 11489 N 1080.49 1.57075 -0.12858 0
M  V30 11490 C 1081.44 2.15816 0.818064 0
M  V30 11491 C 1082.41 1.08581 1.25696 0
M  V30 11492 O 1083.59 1.36535 1.33277 0
M  V30 11493 C 1080.73 2.76943 2.05905 0
M  V30 11494 C 1079.85 3.98514 1.66764 0
M  V30 11495 C 1078.98 4.47698 2.85902 0
M  V30 11496 C 1078.02 5.61778 2.43047 0
M  V30 11497 N 1077.16 6.05662 3.5513 0
M  V30 11498 H 1082 2.9638 0.310318 0
M  V30 11499 H 1079.53 1.46418 0.141472 0
M  V30 11500 H 1081.49 3.10519 2.78629 0
M  V30 11501 H 1080.12 1.99053 2.54122 0
M  V30 11502 H 1079.17 3.71038 0.838766 0
M  V30 11503 H 1080.49 4.81215 1.31277 0
M  V30 11504 H 1079.64 4.83233 3.66839 0
M  V30 11505 H 1078.38 3.63967 3.24622 0
M  V30 11506 H 1077.38 5.25838 1.60544 0
M  V30 11507 H 1078.61 6.47282 2.05433 0
M  V30 11508 H 1076.56 5.2487 3.93506 0
M  V30 11509 H 1076.47 6.83242 3.23598 0
M  V30 11510 H 1077.74 6.45838 4.36479 0
M  V30 11511 N 1081.97 -0.145205 1.5693 0
M  V30 11512 C 1082.9 -1.18096 2.01434 0
M  V30 11513 C 1083.88 -1.447 0.894204 0
M  V30 11514 O 1085.07 -1.55589 1.16214 0
M  V30 11515 C 1082.2 -2.51369 2.39647 0
M  V30 11516 C 1081.15 -2.39283 3.54863 0
M  V30 11517 C 1080.48 -3.77283 3.78895 0
M  V30 11518 C 1081.78 -1.8754 4.87469 0
M  V30 11519 H 1083.47 -0.810897 2.8821 0
M  V30 11520 H 1081.02 -0.388624 1.38657 0
M  V30 11521 H 1082.97 -3.24054 2.69382 0
M  V30 11522 H 1081.69 -2.90214 1.49811 0
M  V30 11523 H 1080.35 -1.6905 3.25296 0
M  V30 11524 H 1080 -4.13567 2.86307 0
M  V30 11525 H 1079.7 -3.70057 4.56433 0
M  V30 11526 H 1081.22 -4.51514 4.11057 0
M  V30 11527 H 1082.64 -2.50019 5.1591 0
M  V30 11528 H 1081.03 -1.912 5.68826 0
M  V30 11529 H 1082.1 -0.831194 4.77723 0
M  V30 11530 N 1083.45 -1.52049 -0.414609 0
M  V30 11531 C 1084.67 -1.6997 -1.18848 0
M  V30 11532 C 1085.1 -0.406058 -1.83665 0
M  V30 11533 O 1084.46 0.635981 -1.69779 0
M  V30 11534 C 1084.5 -2.8327 -2.23138 0
M  V30 11535 O 1083.61 -2.48457 -3.29155 0
M  V30 11536 H 1082.95 -0.566003 -0.347183 0
M  V30 11537 H 1085.48 -1.98726 -0.486757 0
M  V30 11538 H 1085.49 -3.08022 -2.67557 0
M  V30 11539 H 1084.16 -3.7713 -1.75344 0
M  V30 11540 H 1082.74 -2.34357 -2.90054 0
M  V30 11541 N 1084.93 0.6715 -1.42579 0
M  V30 11542 C 1086.17 1.42731 -1.42516 0
M  V30 11543 C 1086.49 1.95545 -0.0462407 0
M  V30 11544 O 1087.69 2.71391 0.0769798 0
M  V30 11545 C 1086.15 2.58215 -2.50705 0
M  V30 11546 C 1085.76 2.12086 -3.94618 0
M  V30 11547 C 1087.5 3.35705 -2.59813 0
M  V30 11548 C 1085.41 3.24672 -4.9431 0
M  V30 11549 H 1084.34 0.536218 -0.530081 0
M  V30 11550 H 1086.99 0.726655 -1.68499 0
M  V30 11551 H 1085.37 3.30665 -2.17892 0
M  V30 11552 H 1086.55 1.46768 -4.36802 0
M  V30 11553 H 1084.86 1.47526 -3.89391 0
M  V30 11554 H 1087.46 4.1956 -3.31472 0
M  V30 11555 H 1087.8 3.82517 -1.64276 0
M  V30 11556 H 1088.33 2.70326 -2.91836 0
M  V30 11557 H 1085.07 2.82848 -5.91335 0
M  V30 11558 H 1084.59 3.88761 -4.56755 0
M  V30 11559 H 1086.27 3.90088 -5.16179 0
M  V30 11560 N 1086.4 1.28806 0.908124 0
M  V30 11561 C 1087.34 1.09018 2.01613 0
M  V30 11562 C 1088.35 0.0402059 1.6275 0
M  V30 11563 O 1089.54 0.283853 1.76229 0
M  V30 11564 C 1086.64 0.635712 3.32884 0
M  V30 11565 C 1085.81 1.76235 4.00325 0
M  V30 11566 C 1084.87 1.3003 5.09881 0
M  V30 11567 O 1083.9 2.00354 5.32773 0
M  V30 11568 N 1085.1 0.166575 5.80261 0
M  V30 11569 H 1087.86 2.0444 2.19144 0
M  V30 11570 H 1085.42 1.20633 1.07978 0
M  V30 11571 H 1087.42 0.310097 4.0351 0
M  V30 11572 H 1085.99 -0.225816 3.11783 0
M  V30 11573 H 1085.21 2.25727 3.23173 0
M  V30 11574 H 1086.49 2.51796 4.42127 0
M  V30 11575 H 1085.89 -0.419934 5.64139 0
M  V30 11576 H 1084.45 -0.0997281 6.51724 0
M  V30 11577 N 1087.88 -1.11734 1.11145 0
M  V30 11578 C 1089.3 -1.35412 0.844736 0
M  V30 11579 C 1089.5 -1.94347 -0.532111 0
M  V30 11580 O 1088.55 -2.17443 -1.28353 0
M  V30 11581 C 1089.87 -2.28869 1.95037 0
M  V30 11582 C 1091.41 -2.42442 1.97967 0
M  V30 11583 C 1091.89 -3.39219 3.07725 0
M  V30 11584 N 1093.38 -3.4678 3.07079 0
M  V30 11585 C 1094.12 -4.21595 3.88646 0
M  V30 11586 N 1093.61 -4.99411 4.80167 0
M  V30 11587 N 1095.4 -4.17075 3.76835 0
M  V30 11588 H 1087.56 -0.718412 1.99881 0
M  V30 11589 H 1089.82 -0.378787 0.869037 0
M  V30 11590 H 1089.52 -1.92752 2.94176 0
M  V30 11591 H 1089.4 -3.2906 1.84389 0
M  V30 11592 H 1091.79 -2.77835 0.994561 0
M  V30 11593 H 1091.87 -1.42113 2.12691 0
M  V30 11594 H 1091.51 -3.04553 4.0646 0
M  V30 11595 H 1091.44 -4.39394 2.90242 0
M  V30 11596 H 1093.93 -2.91272 2.40767 0
M  V30 11597 H 1094.24 -5.53856 5.38946 0
M  V30 11598 H 1092.59 -4.98582 4.84191 0
M  V30 11599 H 1095.78 -3.55369 3.04681 0
M  V30 11600 H 1095.95 -4.75125 4.40637 0
M  V30 11601 N 1089.36 -0.901303 -1.29284 0
M  V30 11602 C 1090.61 -0.528826 -1.95784 0
M  V30 11603 C 1090.94 0.922833 -1.70873 0
M  V30 11604 O 1090.21 1.65448 -1.0226 0
M  V30 11605 C 1090.5 -0.823793 -3.50551 0
M  V30 11606 C 1090.35 -2.32727 -3.84913 0
M  V30 11607 C 1091.67 -0.311382 -4.38997 0
M  V30 11608 H 1088.79 -0.193604 -0.711116 0
M  V30 11609 H 1091.43 -1.12828 -1.52872 0
M  V30 11610 H 1089.58 -0.313612 -3.87232 0
M  V30 11611 H 1091.25 -2.90712 -3.58168 0
M  V30 11612 H 1089.49 -2.78735 -3.32399 0
M  V30 11613 H 1090.17 -2.48423 -4.9294 0
M  V30 11614 H 1092.64 -0.748265 -4.09317 0
M  V30 11615 H 1091.52 -0.546957 -5.46168 0
M  V30 11616 H 1091.78 0.787959 -4.35021 0
M  V30 11617 N 1090.84 1.42931 -0.663954 0
M  V30 11618 C 1092.25 1.56098 -0.332496 0
M  V30 11619 C 1092.45 1.64564 1.16279 0
M  V30 11620 O 1091.51 1.6066 1.94794 0
M  V30 11621 C 1092.82 2.81649 -1.05329 0
M  V30 11622 C 1094.37 2.95408 -1.03457 0
M  V30 11623 C 1094.85 4.23805 -1.73647 0
M  V30 11624 N 1096.34 4.30693 -1.70462 0
M  V30 11625 C 1097.07 5.28833 -2.21637 0
M  V30 11626 N 1096.57 6.33189 -2.81147 0
M  V30 11627 N 1098.36 5.20558 -2.12075 0
M  V30 11628 H 1090.51 1.3568 -1.63416 0
M  V30 11629 H 1092.77 0.652361 -0.687844 0
M  V30 11630 H 1092.48 2.81494 -2.10842 0
M  V30 11631 H 1092.35 3.72208 -0.611626 0
M  V30 11632 H 1094.74 2.95097 0.0121936 0
M  V30 11633 H 1094.82 2.06109 -1.51502 0
M  V30 11634 H 1094.47 4.24876 -2.78285 0
M  V30 11635 H 1094.4 5.12019 -1.2306 0
M  V30 11636 H 1096.89 3.55904 -1.27046 0
M  V30 11637 H 1097.2 7.04411 -3.17844 0
M  V30 11638 H 1095.55 6.33781 -2.85212 0
M  V30 11639 H 1098.74 4.3795 -1.6528 0
M  V30 11640 H 1098.91 5.96881 -2.52264 0
M  V30 11641 N 1092.32 0.406567 1.52266 0
M  V30 11642 C 1093.23 -0.4271 2.30679 0
M  V30 11643 C 1094.24 -1.0559 1.383 0
M  V30 11644 O 1095.42 -1.05797 1.71374 0
M  V30 11645 C 1092.48 -1.53008 3.1111 0
M  V30 11646 C 1091.54 -0.924604 4.19225 0
M  V30 11647 C 1090.78 -1.97502 4.95811 0
M  V30 11648 O 1091 -3.19277 4.72671 0
M  V30 11649 O 1089.93 -1.58268 5.80719 0
M  V30 11650 H 1093.76 0.212187 3.02958 0
M  V30 11651 H 1091.34 0.169835 1.48432 0
M  V30 11652 H 1093.23 -2.17046 3.61205 0
M  V30 11653 H 1091.9 -2.15401 2.41628 0
M  V30 11654 H 1090.81 -0.247009 3.73284 0
M  V30 11655 H 1092.14 -0.34463 4.90992 0
M  V30 11656 N 1093.79 -1.57004 0.136909 0
M  V30 11657 C 1094.7 -2.19807 -0.819887 0
M  V30 11658 C 1095.72 -1.17939 -1.27932 0
M  V30 11659 O 1096.9 -1.50478 -1.3386 0
M  V30 11660 C 1093.96 -2.79935 -2.04542 0
M  V30 11661 C 1093.02 -3.96897 -1.6362 0
M  V30 11662 C 1092.26 -4.54148 -2.80331 0
M  V30 11663 O 1092.48 -4.10282 -3.96264 0
M  V30 11664 O 1091.41 -5.44565 -2.56384 0
M  V30 11665 H 1095.24 -3.02058 -0.315337 0
M  V30 11666 H 1092.82 -1.49131 -0.0896151 0
M  V30 11667 H 1094.71 -3.18191 -2.76283 0
M  V30 11668 H 1093.38 -2.00703 -2.53969 0
M  V30 11669 H 1092.29 -3.63376 -0.889316 0
M  V30 11670 H 1093.62 -4.77618 -1.18918 0
M  V30 11671 N 1095.27 0.136881 -1.57004 0
M  V30 11672 C 1096.55 0.87705 -1.74835 0
M  V30 11673 C 1096.93 1.98886 -0.707639 0
M  V30 11674 O 1096.28 2.26879 0.271652 0
M  V30 11675 C 1096.49 1.41021 -3.1924 0
M  V30 11676 C 1097.84 1.86963 -3.81222 0
M  V30 11677 O 1098.86 1.5074 -3.22732 0
M  V30 11678 O 1097.72 2.53798 -4.83993 0
M  V30 11679 H 1094.81 0.415192 -0.715223 0
M  V30 11680 H 1097.36 0.122016 -1.69261 0
M  V30 11681 H 1096.13 0.611677 -3.8649 0
M  V30 11682 H 1095.75 2.22846 -3.2928 0
M  V30 11683 N 1096.75 1.52266 0.40654 0
M  V30 11684 C 1097.71 1.75168 1.47814 0
M  V30 11685 C 1098.71 0.621575 1.48301 0
M  V30 11686 O 1099.9 0.889476 1.4978 0
M  V30 11687 C 1097.04 1.83642 2.87208 0
M  V30 11688 H 1098.23 2.70834 1.28798 0
M  V30 11689 H 1095.78 1.42722 0.637196 0
M  V30 11690 H 1096.52 0.898994 3.1159 0
M  V30 11691 H 1096.3 2.65801 2.88257 0
M  V30 11692 H 1097.79 2.03093 3.64888 0
M  V30 11693 N 1098.23 -0.663929 1.42933 0
M  V30 11694 C 1099.48 -1.42111 1.43697 0
M  V30 11695 C 1099.8 -1.94913 0.0583858 0
M  V30 11696 O 1099.07 -1.73757 -0.904719 0
M  V30 11697 H 1097.65 -0.527391 0.529026 0
M  V30 11698 H 1100.31 -0.783766 1.78446 0
M  V30 11699 H 1099.41 -2.26877 2.1432 0
M  V30 11700 N 1099.71 -1.29285 -0.901281 0
M  V30 11701 C 1101.12 -1.07263 -1.18182 0
M  V30 11702 C 1101.32 0.177087 -2.0072 0
M  V30 11703 O 1100.38 0.875292 -2.36844 0
M  V30 11704 C 1101.69 -2.32717 -1.9043 0
M  V30 11705 C 1103.24 -2.3802 -2.03262 0
M  V30 11706 C 1103.71 -3.63273 -2.7892 0
M  V30 11707 N 1105.21 -3.63986 -2.86475 0
M  V30 11708 C 1105.94 -4.57585 -3.45549 0
M  V30 11709 N 1105.44 -5.61513 -4.05801 0
M  V30 11710 N 1107.23 -4.45157 -3.43208 0
M  V30 11711 H 1099.38 -2.09487 -0.350536 0
M  V30 11712 H 1101.64 -0.922647 -0.217778 0
M  V30 11713 H 1101.35 -3.23828 -1.37216 0
M  V30 11714 H 1101.22 -2.40102 -2.90913 0
M  V30 11715 H 1103.61 -1.47398 -2.55652 0
M  V30 11716 H 1103.69 -2.3462 -1.01916 0
M  V30 11717 H 1103.34 -4.54246 -2.27206 0
M  V30 11718 H 1103.27 -3.6393 -3.80608 0
M  V30 11719 H 1105.76 -2.8884 -2.43679 0
M  V30 11720 H 1106.07 -6.29058 -4.48894 0
M  V30 11721 H 1104.41 -5.65325 -4.04268 0
M  V30 11722 H 1107.61 -3.63158 -2.95354 0
M  V30 11723 H 1107.78 -5.18286 -3.88952 0
M  V30 11724 N 1101.18 1.11143 -1.11736 0
M  V30 11725 C 1102.41 1.86474 -0.889435 0
M  V30 11726 C 1102.82 1.80584 0.564438 0
M  V30 11727 O 1102.17 1.18743 1.40163 0
M  V30 11728 C 1102.23 3.36066 -1.27671 0
M  V30 11729 C 1101.89 3.65721 -2.74038 0
M  V30 11730 C 1102.89 3.62941 -3.7225 0
M  V30 11731 C 1100.57 3.94629 -3.10762 0
M  V30 11732 C 1102.57 3.88651 -5.05202 0
M  V30 11733 C 1100.25 4.19997 -4.43899 0
M  V30 11734 C 1101.25 4.16996 -5.40928 0
M  V30 11735 O 1100.94 4.41724 -6.71666 0
M  V30 11736 H 1100.67 0.596438 -0.318178 0
M  V30 11737 H 1103.23 1.41465 -1.48918 0
M  V30 11738 H 1101.46 3.81695 -0.620124 0
M  V30 11739 H 1103.15 3.92769 -1.02409 0
M  V30 11740 H 1103.91 3.40655 -3.45223 0
M  V30 11741 H 1099.79 3.96099 -2.35853 0
M  V30 11742 H 1103.33 3.86224 -5.80927 0
M  V30 11743 H 1099.23 4.4176 -4.70657 0
M  V30 11744 H 1100 4.59276 -6.77501 0
M  V30 11745 N 1102.66 0.908147 1.28804 0
M  V30 11746 C 1103.59 0.409106 2.29888 0
M  V30 11747 C 1104.57 -0.520338 1.61946 0
M  V30 11748 O 1105.76 -0.429268 1.89396 0
M  V30 11749 C 1102.89 -0.35669 3.45463 0
M  V30 11750 C 1101.84 0.4831 4.25265 0
M  V30 11751 C 1101.17 -0.4107 5.3312 0
M  V30 11752 C 1102.47 1.73744 4.92555 0
M  V30 11753 H 1104.16 1.25386 2.7188 0
M  V30 11754 H 1101.71 0.604368 1.30703 0
M  V30 11755 H 1103.66 -0.71661 4.15262 0
M  V30 11756 H 1102.39 -1.2353 3.02337 0
M  V30 11757 H 1101.04 0.825464 3.57186 0
M  V30 11758 H 1100.69 -1.28769 4.86238 0
M  V30 11759 H 1100.39 0.14756 5.87415 0
M  V30 11760 H 1101.92 -0.766626 6.05768 0
M  V30 11761 H 1103.33 1.44676 5.54745 0
M  V30 11762 H 1101.73 2.23767 5.5682 0
M  V30 11763 H 1102.8 2.46853 4.17363 0
M  V30 11764 N 1104.14 -1.42577 0.671525 0
M  V30 11765 C 1105.38 -2.03455 0.196271 0
M  V30 11766 C 1105.74 -1.51934 -1.17389 0
M  V30 11767 O 1106.95 -2.04577 -1.74361 0
M  V30 11768 C 1105.22 -3.56687 0.225624 0
M  V30 11769 S 1106.78 -4.38434 -0.179107 0
M  V30 11770 H 1103.59 -0.706371 0.0809995 0
M  V30 11771 H 1106.2 -1.74375 0.883948 0
M  V30 11772 H 1104.9 -3.91684 1.22524 0
M  V30 11773 H 1104.43 -3.90436 -0.481994 0
M  V30 11774 H 1106.45 -4.75646 -1.41332 0
M  V30 11775 N 1105.62 -0.414636 -1.52048 0
M  V30 11776 C 1106.84 0.161137 -2.06773 0
M  V30 11777 C 1107.27 1.37628 -1.2822 0
M  V30 11778 O 1106.63 1.78562 -0.313915 0
M  V30 11779 C 1106.67 0.48452 -3.5733 0
M  V30 11780 O 1105.78 1.57466 -3.81154 0
M  V30 11781 H 1105.12 0.0118003 -0.663895 0
M  V30 11782 H 1107.65 -0.589424 -1.95926 0
M  V30 11783 H 1107.66 0.741567 -4.01204 0
M  V30 11784 H 1106.33 -0.403733 -4.13936 0
M  V30 11785 H 1104.91 1.30935 -3.49157 0
M  V30 11786 N 1107.1 1.56929 -0.145233 0
M  V30 11787 C 1108.34 1.96358 0.50707 0
M  V30 11788 C 1108.68 1.03005 1.64632 0
M  V30 11789 O 1107.95 0.0721045 1.94366 0
M  V30 11790 C 1108.23 3.45502 1.01492 0
M  V30 11791 C 1108.09 4.49633 -0.122708 0
M  V30 11792 C 1109.41 3.97103 1.89729 0
M  V30 11793 H 1106.52 0.713958 0.182848 0
M  V30 11794 H 1109.17 1.8865 -0.226102 0
M  V30 11795 H 1107.32 3.52202 1.6397 0
M  V30 11796 H 1108.99 4.55013 -0.758988 0
M  V30 11797 H 1107.23 4.26691 -0.782109 0
M  V30 11798 H 1107.9 5.51318 0.27432 0
M  V30 11799 H 1110.38 3.92871 1.37082 0
M  V30 11800 H 1109.25 5.01927 2.22173 0
M  V30 11801 H 1109.52 3.39354 2.83357 0
M  V30 11802 N 1108.58 -0.128553 1.57075 0
M  V30 11803 C 1109.82 -0.844012 1.86161 0
M  V30 11804 C 1110.18 -1.77499 0.73198 0
M  V30 11805 O 1111.38 -2.5313 0.904357 0
M  V30 11806 C 1109.65 -1.58238 3.20462 0
M  V30 11807 S 1111.21 -2.34073 3.71154 0
M  V30 11808 H 1108.03 -0.281884 0.652734 0
M  V30 11809 H 1110.63 -0.102902 1.95229 0
M  V30 11810 H 1109.33 -0.890246 4.00628 0
M  V30 11811 H 1108.87 -2.36404 3.14446 0
M  V30 11812 H 1110.88 -3.59617 3.41892 0
M  V30 11813 N 1110.05 -1.5248 -0.398459 0
M  V30 11814 C 1111 -1.77211 -1.50662 0
M  V30 11815 C 1112 -0.639638 -1.5686 0
M  V30 11816 O 1113.2 -0.821917 -1.60139 0
M  V30 11817 H 1109.58 -0.56057 -0.501264 0
M  V30 11818 H 1111.55 -2.70028 -1.26993 0
M  V30 11819 C 1110.3 -1.94944 -2.8791 0
M  V30 11820 H 1109.62 -2.8151 -2.83888 0
M  V30 11821 H 1111.06 -2.16243 -3.64712 0
M  V30 11822 C 1109.52 -0.719402 -3.29129 0
M  V30 11823 O 1110.05 0.107671 -4.01556 0
M  V30 11824 N 1108.25 -0.552228 -2.85305 0
M  V30 11825 H 1107.8 -1.22638 -2.26534 0
M  V30 11826 H 1107.76 0.269447 -3.13243 0
M  V30 11827 N 1111.53 0.65634 -1.43283 0
M  V30 11828 C 1112.49 1.75117 -1.47874 0
M  V30 11829 C 1113.49 1.56629 -0.363846 0
M  V30 11830 O 1114.68 1.62584 -0.625464 0
M  V30 11831 C 1111.82 3.13957 -1.32831 0
M  V30 11832 H 1113.01 1.72429 -2.45374 0
M  V30 11833 H 1110.56 0.867704 -1.30002 0
M  V30 11834 H 1111.3 3.22259 -0.36326 0
M  V30 11835 H 1111.08 3.28781 -2.13649 0
M  V30 11836 H 1112.57 3.93799 -1.38969 0
M  V30 11837 N 1113.01 1.29761 0.894412 0
M  V30 11838 C 1113.96 1.15341 1.99912 0
M  V30 11839 C 1114.93 0.0453488 1.66038 0
M  V30 11840 O 1116.11 0.213829 1.89598 0
M  V30 11841 C 1113.25 0.841432 3.34685 0
M  V30 11842 C 1112.36 2.03046 3.81309 0
M  V30 11843 C 1111.5 1.65739 5.04682 0
M  V30 11844 C 1110.54 2.81191 5.43689 0
M  V30 11845 N 1109.68 2.44244 6.58247 0
M  V30 11846 H 1114.52 2.09854 2.11578 0
M  V30 11847 H 1112.05 1.04421 1.03608 0
M  V30 11848 H 1114.01 0.641211 4.12243 0
M  V30 11849 H 1112.64 -0.066797 3.22731 0
M  V30 11850 H 1111.69 2.34222 2.9974 0
M  V30 11851 H 1113 2.89538 4.06164 0
M  V30 11852 H 1112.16 1.42036 5.8984 0
M  V30 11853 H 1110.9 0.764019 4.81678 0
M  V30 11854 H 1109.9 3.0557 4.57064 0
M  V30 11855 H 1111.13 3.712 5.68672 0
M  V30 11856 H 1109.07 1.57402 6.36837 0
M  V30 11857 H 1108.99 3.24269 6.82924 0
M  V30 11858 H 1110.26 2.23875 7.46659 0
M  V30 11859 N 1114.49 -1.10549 1.12324 0
M  V30 11860 C 1115.74 -1.82124 0.876083 0
M  V30 11861 C 1116.06 -1.85547 -0.599761 0
M  V30 11862 O 1115.33 -1.33269 -1.43584 0
M  V30 11863 H 1113.91 -0.674455 0.321122 0
M  V30 11864 H 1116.57 -1.33766 1.41748 0
M  V30 11865 H 1115.66 -2.85688 1.25653 0
M  V30 11866 N 1115.97 -0.914965 -1.28321 0
M  V30 11867 C 1117.21 -0.555865 -1.96696 0
M  V30 11868 C 1117.57 0.8842 -1.70429 0
M  V30 11869 O 1118.77 1.35094 -2.32386 0
M  V30 11870 C 1117.04 -0.857942 -3.4695 0
M  V30 11871 S 1118.6 -0.605441 -4.34603 0
M  V30 11872 H 1115.42 -0.20564 -0.680612 0
M  V30 11873 H 1118.02 -1.18068 -1.55821 0
M  V30 11874 H 1116.72 -1.90394 -3.63563 0
M  V30 11875 H 1116.26 -0.221831 -3.92774 0
M  V30 11876 H 1118.27 0.542657 -4.93224 0
M  V30 11877 N 1117.44 1.42219 -0.679077 0
M  V30 11878 C 1118.69 2.01777 -0.20342 0
M  V30 11879 C 1119.02 1.53592 1.18841 0
M  V30 11880 O 1118.3 0.739954 1.79875 0
M  V30 11881 C 1118.58 3.59281 -0.242791 0
M  V30 11882 C 1118.43 4.17634 -1.67038 0
M  V30 11883 C 1119.75 4.38218 0.406624 0
M  V30 11884 H 1116.87 0.733134 -0.0753916 0
M  V30 11885 H 1119.51 1.69185 -0.864673 0
M  V30 11886 H 1117.66 3.87178 0.320248 0
M  V30 11887 H 1119.34 4.00674 -2.286 0
M  V30 11888 H 1117.58 3.73301 -2.20973 0
M  V30 11889 H 1118.25 5.26776 -1.64958 0
M  V30 11890 H 1120.73 4.16036 -0.0727077 0
M  V30 11891 H 1119.6 5.47793 0.348457 0
M  V30 11892 H 1119.86 4.16418 1.48487 0
M  V30 11893 N 1118.92 0.422693 1.51826 0
M  V30 11894 C 1119.87 -0.41063 2.28947 0
M  V30 11895 C 1120.86 -1.03389 1.34191 0
M  V30 11896 O 1122.07 -0.970533 1.51594 0
M  V30 11897 H 1118.44 -0.151219 0.736639 0
M  V30 11898 H 1120.42 0.260859 2.97258 0
M  V30 11899 C 1119.16 -1.50758 3.13317 0
M  V30 11900 H 1118.49 -1.03734 3.86108 0
M  V30 11901 H 1119.93 -2.0642 3.7036 0
M  V30 11902 C 1118.39 -2.48261 2.27746 0
M  V30 11903 O 1118.92 -3.52462 1.92701 0
M  V30 11904 N 1117.12 -2.18795 1.91251 0
M  V30 11905 H 1116.67 -1.34088 2.1995 0
M  V30 11906 H 1116.63 -2.84276 1.34293 0
M  V30 11907 N 1120.4 -1.5685 0.153553 0
M  V30 11908 C 1121.62 -2.01135 -0.505904 0
M  V30 11909 C 1122.05 -1.03301 -1.57196 0
M  V30 11910 O 1121.41 -0.00976022 -1.81297 0
M  V30 11911 C 1121.46 -3.44129 -1.0774 0
M  V30 11912 O 1120.56 -3.49318 -2.19205 0
M  V30 11913 H 1119.9 -0.652496 -0.123062 0
M  V30 11914 H 1122.43 -2.03039 0.252216 0
M  V30 11915 H 1122.44 -3.83066 -1.40444 0
M  V30 11916 H 1121.12 -4.1484 -0.296754 0
M  V30 11917 H 1119.69 -3.22227 -1.8768 0
M  V30 11918 N 1121.88 0.120221 -1.57141 0
M  V30 11919 C 1123.1 0.84637 -1.89344 0
M  V30 11920 C 1123.53 1.72702 -0.745365 0
M  V30 11921 O 1122.89 1.7873 0.304155 0
M  V30 11922 C 1122.93 1.65671 -3.20289 0
M  V30 11923 O 1122.04 2.76353 -3.06109 0
M  V30 11924 H 1121.38 0.234132 -0.621352 0
M  V30 11925 H 1123.91 0.102986 -2.04341 0
M  V30 11926 H 1123.92 2.04621 -3.52979 0
M  V30 11927 H 1122.59 1.01023 -4.03444 0
M  V30 11928 H 1121.17 2.40615 -2.84884 0
M  V30 11929 N 1123.36 1.52689 0.390367 0
M  V30 11930 C 1124.32 1.76726 1.45947 0
M  V30 11931 C 1125.32 0.637269 1.47633 0
M  V30 11932 O 1126.51 0.905312 1.48828 0
M  V30 11933 C 1123.64 1.86678 2.85244 0
M  V30 11934 H 1124.83 2.72185 1.25918 0
M  V30 11935 H 1122.39 1.4339 0.622023 0
M  V30 11936 H 1123.12 0.931991 3.10619 0
M  V30 11937 H 1122.91 2.68843 2.85422 0
M  V30 11938 H 1124.4 2.06952 3.62713 0
M  V30 11939 N 1124.83 -0.648732 1.43629 0
M  V30 11940 C 1126.06 -1.44117 1.49148 0
M  V30 11941 C 1126.48 -1.87767 0.111952 0
M  V30 11942 O 1125.84 -1.57655 -0.895249 0
M  V30 11943 C 1125.89 -2.64938 2.44623 0
M  V30 11944 O 1124.99 -3.64155 1.93559 0
M  V30 11945 H 1124.34 -0.431933 0.504312 0
M  V30 11946 H 1126.87 -0.793439 1.88589 0
M  V30 11947 H 1126.88 -3.12698 2.62076 0
M  V30 11948 H 1125.55 -2.3251 3.44836 0
M  V30 11949 H 1124.13 -3.23322 1.85789 0
M  V30 11950 N 1126.31 -1.30234 -0.887518 0
M  V30 11951 C 1127.56 -1.19086 -1.64153 0
M  V30 11952 C 1127.89 0.254428 -1.92526 0
M  V30 11953 O 1127.17 1.18233 -1.54438 0
M  V30 11954 C 1127.45 -2.01723 -2.98295 0
M  V30 11955 C 1127.3 -3.54458 -2.76911 0
M  V30 11956 C 1128.62 -1.85307 -3.99186 0
M  V30 11957 H 1125.74 -0.433967 -0.595686 0
M  V30 11958 H 1128.38 -1.59839 -1.0272 0
M  V30 11959 H 1126.53 -1.67096 -3.5073 0
M  V30 11960 H 1128.2 -3.99131 -2.31284 0
M  V30 11961 H 1126.45 -3.78768 -2.11464 0
M  V30 11962 H 1127.12 -4.07565 -3.72283 0
M  V30 11963 H 1129.59 -2.15575 -3.55903 0
M  V30 11964 H 1128.47 -2.45456 -4.90961 0
M  V30 11965 H 1128.73 -0.811528 -4.34588 0
M  V30 11966 N 1127.79 1.09952 -1.12909 0
M  V30 11967 C 1128.75 2.14615 -0.804548 0
M  V30 11968 C 1129.75 1.5975 0.18345 0
M  V30 11969 O 1130.94 1.74147 -0.0429623 0
M  V30 11970 C 1128.08 3.40333 -0.196471 0
M  V30 11971 H 1129.27 2.44835 -1.73193 0
M  V30 11972 H 1126.82 1.25399 -0.932997 0
M  V30 11973 H 1127.56 3.15735 0.740388 0
M  V30 11974 H 1127.34 3.81444 -0.907886 0
M  V30 11975 H 1128.83 4.17598 0.0139264 0
M  V30 11976 N 1129.27 0.921757 1.27833 0
M  V30 11977 C 1130.51 0.559906 1.94918 0
M  V30 11978 C 1130.85 -0.895532 1.72319 0
M  V30 11979 O 1130.12 -1.638 1.04879 0
M  V30 11980 C 1130.41 0.879458 3.49196 0
M  V30 11981 C 1130.26 2.38821 3.81162 0
M  V30 11982 C 1131.58 0.381183 4.38446 0
M  V30 11983 H 1128.7 0.204893 0.707946 0
M  V30 11984 H 1131.34 1.15246 1.51058 0
M  V30 11985 H 1129.49 0.375177 3.86684 0
M  V30 11986 H 1131.16 2.96373 3.53498 0
M  V30 11987 H 1129.4 2.83988 3.27923 0
M  V30 11988 H 1130.07 2.56234 4.88926 0
M  V30 11989 H 1132.55 0.813289 4.08075 0
M  V30 11990 H 1131.43 0.633778 5.45229 0
M  V30 11991 H 1131.69 -0.718651 4.3622 0
M  V30 11992 N 1130.75 -1.41857 0.686609 0
M  V30 11993 C 1131.66 -2.34595 0.0159005 0
M  V30 11994 C 1132.67 -1.55741 -0.775933 0
M  V30 11995 O 1133.85 -1.8826 -0.71555 0
M  V30 11996 C 1130.91 -3.34395 -0.915473 0
M  V30 11997 C 1129.97 -4.29141 -0.116851 0
M  V30 11998 C 1129.21 -5.24174 -1.00386 0
M  V30 11999 O 1129.43 -5.24431 -2.2434 0
M  V30 12000 O 1128.36 -6.00152 -0.458337 0
M  V30 12001 H 1132.19 -2.9351 0.780101 0
M  V30 12002 H 1129.78 -1.42559 0.446896 0
M  V30 12003 H 1131.66 -3.95675 -1.44981 0
M  V30 12004 H 1130.33 -2.77936 -1.65932 0
M  V30 12005 H 1129.24 -3.71238 0.461871 0
M  V30 12006 H 1130.57 -4.88673 0.588138 0
M  V30 12007 N 1132.22 -0.430739 -1.51599 0
M  V30 12008 C 1133.47 0.137657 -2.01631 0
M  V30 12009 C 1133.79 1.43787 -1.31721 0
M  V30 12010 O 1133.06 1.90668 -0.449717 0
M  V30 12011 H 1131.64 0.0538611 -0.745056 0
M  V30 12012 H 1134.31 -0.571935 -1.86319 0
M  V30 12013 H 1133.4 0.318305 -3.10473 0
M  V30 12014 N 1133.7 1.56767 -0.161869 0
M  V30 12015 C 1134.93 2.01401 0.49523 0
M  V30 12016 C 1135.35 1.04133 1.56646 0
M  V30 12017 O 1134.71 0.0193747 1.8129 0
M  V30 12018 C 1134.76 3.44695 1.05913 0
M  V30 12019 O 1133.86 3.50475 2.1735 0
M  V30 12020 H 1133.2 0.65314 0.1196 0
M  V30 12021 H 1135.73 2.02903 -0.26298 0
M  V30 12022 H 1135.74 3.83805 1.3841 0
M  V30 12023 H 1134.42 4.14991 0.274749 0
M  V30 12024 H 1133 3.23218 1.85969 0
M  V30 12025 N 1135.18 -0.111886 1.57202 0
M  V30 12026 C 1136.09 -1.1556 2.04165 0
M  V30 12027 C 1137.11 -1.44898 0.963354 0
M  V30 12028 O 1138.28 -1.55873 1.27536 0
M  V30 12029 C 1135.35 -2.46048 2.44256 0
M  V30 12030 C 1134.41 -2.24043 3.66201 0
M  V30 12031 C 1133.64 -3.4831 4.04371 0
M  V30 12032 O 1133.86 -4.55895 3.42806 0
M  V30 12033 O 1132.8 -3.38891 4.9743 0
M  V30 12034 H 1136.62 -0.786778 2.93332 0
M  V30 12035 H 1134.21 -0.323196 1.45862 0
M  V30 12036 H 1136.09 -3.22916 2.70745 0
M  V30 12037 H 1134.77 -2.8239 1.58233 0
M  V30 12038 H 1133.67 -1.4501 3.44852 0
M  V30 12039 H 1135.01 -1.92602 4.52952 0
M  V30 12040 N 1136.66 -1.52894 -0.382264 0
M  V30 12041 C 1137.94 -1.58853 -1.14127 0
M  V30 12042 C 1138.32 -0.38582 -2.07544 0
M  V30 12043 O 1137.66 0.625323 -2.19777 0
M  V30 12044 C 1137.87 -2.93068 -1.89504 0
M  V30 12045 C 1139.22 -3.47048 -2.44629 0
M  V30 12046 O 1140.25 -2.94987 -1.99652 0
M  V30 12047 O 1139.1 -4.3802 -3.26804 0
M  V30 12048 H 1136.2 -0.640969 -0.522578 0
M  V30 12049 H 1138.74 -1.65231 -0.386873 0
M  V30 12050 H 1137.52 -3.72047 -1.2123 0
M  V30 12051 H 1137.14 -2.90106 -2.7189 0
M  V30 12052 N 1138.14 0.641106 -1.43971 0
M  V30 12053 C 1139.08 1.75352 -1.50068 0
M  V30 12054 C 1140.05 1.62386 -0.349266 0
M  V30 12055 O 1141.24 1.82455 -0.558118 0
M  V30 12056 C 1138.38 3.13561 -1.4413 0
M  V30 12057 C 1137.49 3.37574 -2.6957 0
M  V30 12058 C 1136.63 4.65698 -2.55535 0
M  V30 12059 C 1135.67 4.82857 -3.76186 0
M  V30 12060 N 1134.8 6.02249 -3.60888 0
M  V30 12061 H 1139.64 1.69477 -2.45116 0
M  V30 12062 H 1137.18 0.826871 -1.2166 0
M  V30 12063 H 1139.14 3.93476 -1.38681 0
M  V30 12064 H 1137.77 3.18476 -0.526563 0
M  V30 12065 H 1136.82 2.5167 -2.85248 0
M  V30 12066 H 1138.13 3.46135 -3.59154 0
M  V30 12067 H 1137.29 5.53759 -2.47862 0
M  V30 12068 H 1136.03 4.59479 -1.63495 0
M  V30 12069 H 1135.03 3.93229 -3.84254 0
M  V30 12070 H 1136.26 4.90898 -4.6925 0
M  V30 12071 H 1134.2 5.97138 -2.71591 0
M  V30 12072 H 1134.12 6.11822 -4.44083 0
M  V30 12073 H 1135.39 6.92898 -3.57088 0
M  V30 12074 N 1139.62 1.30703 0.880598 0
M  V30 12075 C 1140.86 1.19541 1.62955 0
M  V30 12076 C 1141.18 -0.249089 1.93403 0
M  V30 12077 O 1140.45 -1.1669 1.57354 0
M  V30 12078 H 1139.03 0.439434 0.604075 0
M  V30 12079 H 1141.7 1.63888 1.05483 0
M  V30 12080 H 1140.79 1.75945 2.57779 0
M  V30 12081 N 1141.09 -1.09351 1.1349 0
M  V30 12082 C 1142.32 -1.85844 0.92069 0
M  V30 12083 C 1142.74 -1.80616 -0.525303 0
M  V30 12084 O 1142.1 -1.1842 -1.37282 0
M  V30 12085 C 1142.15 -3.31716 1.4141 0
M  V30 12086 O 1141.25 -4.08014 0.599838 0
M  V30 12087 H 1140.59 -0.576242 0.32991 0
M  V30 12088 H 1143.12 -1.38084 1.50976 0
M  V30 12089 H 1143.13 -3.82564 1.41805 0
M  V30 12090 H 1141.81 -3.34837 2.46692 0
M  V30 12091 H 1140.39 -3.66944 0.663816 0
M  V30 12092 N 1142.57 -0.928524 -1.27343 0
M  V30 12093 C 1143.5 -0.372628 -2.25137 0
M  V30 12094 C 1144.48 0.531468 -1.53669 0
M  V30 12095 O 1145.67 0.471788 -1.825 0
M  V30 12096 C 1142.79 0.465841 -3.35481 0
M  V30 12097 C 1141.84 -0.374941 -4.24849 0
M  V30 12098 S 1142.67 -1.791 -5.04662 0
M  V30 12099 C 1143.83 -0.960233 -6.1849 0
M  V30 12100 H 1144.06 -1.20147 -2.71941 0
M  V30 12101 H 1141.59 -0.730764 -1.36012 0
M  V30 12102 H 1143.55 0.943741 -3.99504 0
M  V30 12103 H 1142.21 1.26922 -2.87314 0
M  V30 12104 H 1141.41 0.266871 -5.03293 0
M  V30 12105 H 1141.01 -0.787045 -3.65625 0
M  V30 12106 H 1143.3 -0.196615 -6.77215 0
M  V30 12107 H 1144.24 -1.71771 -6.8695 0
M  V30 12108 H 1144.65 -0.501881 -5.62265 0
M  V30 12109 N 1144.05 1.41491 -0.694123 0
M  V30 12110 C 1144.96 2.34583 -0.0283414 0
M  V30 12111 C 1145.98 1.5615 0.767662 0
M  V30 12112 O 1147.15 1.88637 0.705556 0
M  V30 12113 C 1144.22 3.34876 0.897726 0
M  V30 12114 C 1143.28 4.29197 0.0940905 0
M  V30 12115 C 1142.51 5.24699 0.976051 0
M  V30 12116 O 1142.73 5.25613 2.21556 0
M  V30 12117 O 1141.67 6.00387 0.426503 0
M  V30 12118 H 1145.49 2.93092 -0.795656 0
M  V30 12119 H 1143.08 1.4232 -0.45445 0
M  V30 12120 H 1144.96 3.96438 1.4288 0
M  V30 12121 H 1143.64 2.78812 1.64456 0
M  V30 12122 H 1142.54 3.70988 -0.481552 0
M  V30 12123 H 1143.88 4.88355 -0.614045 0
M  V30 12124 N 1145.53 0.438773 1.51369 0
M  V30 12125 C 1146.78 -0.128723 2.01289 0
M  V30 12126 C 1147.09 -1.43659 1.32745 0
M  V30 12127 O 1148.3 -2.08712 1.73642 0
M  V30 12128 C 1146.75 -0.279945 3.5881 0
M  V30 12129 C 1146.36 1.01758 4.3629 0
M  V30 12130 C 1148.1 -0.801133 4.16872 0
M  V30 12131 C 1146.01 0.831918 5.85519 0
M  V30 12132 H 1144.94 -0.0518814 0.752213 0
M  V30 12133 H 1147.59 0.568753 1.74463 0
M  V30 12134 H 1145.97 -1.04046 3.82087 0
M  V30 12135 H 1147.15 1.78653 4.24758 0
M  V30 12136 H 1145.46 1.46741 3.89687 0
M  V30 12137 H 1148.06 -0.956548 5.26074 0
M  V30 12138 H 1148.4 -1.78396 3.76139 0
M  V30 12139 H 1148.94 -0.0988934 3.97677 0
M  V30 12140 H 1145.67 1.78716 6.30667 0
M  V30 12141 H 1145.19 0.102785 5.99712 0
M  V30 12142 H 1146.87 0.485681 6.45174 0
M  V30 12143 N 1147.01 -1.56678 0.170181 0
M  V30 12144 C 1148.25 -1.9714 -0.475767 0
M  V30 12145 C 1148.58 -1.05611 -1.62972 0
M  V30 12146 O 1147.86 -0.103017 -1.94227 0
M  V30 12147 C 1148.14 -3.47072 -0.959828 0
M  V30 12148 C 1148 -4.4938 0.194225 0
M  V30 12149 C 1149.31 -4.00071 -1.83387 0
M  V30 12150 H 1146.43 -0.716776 -0.171466 0
M  V30 12151 H 1149.08 -1.88266 0.256086 0
M  V30 12152 H 1147.23 -3.54766 -1.58346 0
M  V30 12153 H 1148.9 -4.53748 0.83128 0
M  V30 12154 H 1147.14 -4.25393 0.849893 0
M  V30 12155 H 1147.81 -5.51685 -0.186575 0
M  V30 12156 H 1150.29 -3.95002 -1.30815 0
M  V30 12157 H 1149.16 -5.05398 -2.14159 0
M  V30 12158 H 1149.42 -3.43819 -2.77923 0
M  V30 12159 N 1148.48 0.103547 -1.57259 0
M  V30 12160 C 1149.73 0.807231 -1.84842 0
M  V30 12161 C 1150.05 1.80308 -0.758181 0
M  V30 12162 O 1151.25 2.55406 -0.920877 0
M  V30 12163 C 1149.71 1.4864 -3.27771 0
M  V30 12164 C 1149.32 0.53075 -4.44845 0
M  V30 12165 C 1151.06 2.17431 -3.64587 0
M  V30 12166 C 1148.97 1.21403 -5.78805 0
M  V30 12167 H 1147.9 0.305212 -0.689465 0
M  V30 12168 H 1150.55 0.0600855 -1.83402 0
M  V30 12169 H 1148.93 2.28071 -3.23728 0
M  V30 12170 H 1150.1 -0.231455 -4.60218 0
M  V30 12171 H 1148.42 -0.0510078 -4.16369 0
M  V30 12172 H 1151.02 2.6927 -4.6195 0
M  V30 12173 H 1151.36 2.9594 -2.92789 0
M  V30 12174 H 1151.89 1.4487 -3.70483 0
M  V30 12175 H 1148.63 0.469918 -6.53813 0
M  V30 12176 H 1148.15 1.94787 -5.6729 0
M  V30 12177 H 1149.83 1.74289 -6.23083 0
M  V30 12178 N 1149.96 1.53094 0.37415 0
M  V30 12179 C 1150.89 1.81901 1.46404 0
M  V30 12180 C 1151.87 0.671949 1.56265 0
M  V30 12181 O 1153.06 0.920978 1.70973 0
M  V30 12182 C 1150.19 2.00123 2.83845 0
M  V30 12183 C 1149.14 3.15864 2.88814 0
M  V30 12184 C 1148.47 3.19364 4.28848 0
M  V30 12185 C 1149.77 4.54633 2.57112 0
M  V30 12186 H 1151.46 2.73172 1.22546 0
M  V30 12187 H 1149.01 1.31444 0.588087 0
M  V30 12188 H 1150.96 2.18859 3.6011 0
M  V30 12189 H 1149.68 1.05555 3.09072 0
M  V30 12190 H 1148.34 2.96935 2.15 0
M  V30 12191 H 1147.99 2.2245 4.51137 0
M  V30 12192 H 1147.69 3.97123 4.3309 0
M  V30 12193 H 1149.22 3.40273 5.06997 0
M  V30 12194 H 1150.63 4.73587 3.23091 0
M  V30 12195 H 1149.03 5.34569 2.72683 0
M  V30 12196 H 1150.1 4.60331 1.52392 0
M  V30 12197 N 1151.44 -0.633461 1.44309 0
M  V30 12198 C 1152.69 -1.39513 1.47187 0
M  V30 12199 C 1153.02 -1.93926 0.103186 0
M  V30 12200 O 1152.29 -1.73512 -0.878853 0
M  V30 12201 C 1152.58 -2.56213 2.53036 0
M  V30 12202 C 1152.43 -2.07164 3.99253 0
M  V30 12203 C 1153.75 -3.58403 2.55412 0
M  V30 12204 H 1150.87 -0.505936 0.535908 0
M  V30 12205 H 1153.51 -0.716445 1.75975 0
M  V30 12206 H 1151.66 -3.14111 2.28619 0
M  V30 12207 H 1153.33 -1.54115 4.34795 0
M  V30 12208 H 1151.57 -1.38367 4.11141 0
M  V30 12209 H 1152.25 -2.91172 4.6896 0
M  V30 12210 H 1154.72 -3.103 2.77224 0
M  V30 12211 H 1153.6 -4.37581 3.31382 0
M  V30 12212 H 1153.86 -4.12316 1.59523 0
M  V30 12213 N 1152.92 -1.31168 -0.873655 0
M  V30 12214 C 1154.17 -1.20404 -1.62319 0
M  V30 12215 C 1154.49 0.238829 -1.93532 0
M  V30 12216 O 1153.76 1.15854 -1.57971 0
M  V30 12217 H 1152.34 -0.442632 -0.601736 0
M  V30 12218 H 1155 -1.64445 -1.04613 0
M  V30 12219 H 1154.1 -1.77309 -2.56842 0
M  V30 12220 N 1154.4 1.08748 -1.14068 0
M  V30 12221 C 1155.62 1.84814 -0.930138 0
M  V30 12222 C 1156.04 1.81461 0.521267 0
M  V30 12223 O 1155.4 1.21577 1.36108 0
M  V30 12224 C 1155.45 3.32501 -1.41863 0
M  V30 12225 O 1155.17 3.35846 -2.81317 0
M  V30 12226 C 1156.67 4.25384 -1.24753 0
M  V30 12227 H 1153.89 0.583546 -0.331233 0
M  V30 12228 H 1156.43 1.37366 -1.51495 0
M  V30 12229 H 1154.59 3.7735 -0.876664 0
M  V30 12230 H 1155 4.28013 -3.03159 0
M  V30 12231 H 1156.48 5.27138 -1.63798 0
M  V30 12232 H 1156.95 4.38789 -0.18999 0
M  V30 12233 H 1157.56 3.86357 -1.77787 0
M  V30 12234 N 1155.87 0.935264 1.26849 0
M  V30 12235 C 1157.12 0.578545 1.93642 0
M  V30 12236 C 1157.44 -0.884296 1.73796 0
M  V30 12237 O 1156.71 -1.62768 1.09011 0
M  V30 12238 H 1155.29 0.210976 0.716588 0
M  V30 12239 H 1157.96 1.1893 1.54407 0
M  V30 12240 H 1157.05 0.791268 3.01903 0
M  V30 12241 N 1157.35 -1.41121 0.701616 0
M  V30 12242 C 1158.6 -2.01428 0.235495 0
M  V30 12243 C 1158.93 -1.55463 -1.16382 0
M  V30 12244 O 1158.21 -0.768477 -1.78675 0
M  V30 12245 C 1158.49 -3.58849 0.299919 0
M  V30 12246 C 1158.34 -4.14924 1.73661 0
M  V30 12247 C 1159.66 -4.38809 -0.336856 0
M  V30 12248 H 1156.78 -0.731842 0.0870456 0
M  V30 12249 H 1159.42 -1.67787 0.891479 0
M  V30 12250 H 1157.57 -3.87638 -0.258611 0
M  V30 12251 H 1159.24 -3.96987 2.34945 0
M  V30 12252 H 1157.49 -3.69738 2.26884 0
M  V30 12253 H 1158.16 -5.24085 1.73318 0
M  V30 12254 H 1160.63 -4.15868 0.138886 0
M  V30 12255 H 1159.51 -5.48278 -0.261264 0
M  V30 12256 H 1159.77 -4.18728 -1.41843 0
M  V30 12257 N 1158.83 -0.446794 -1.51134 0
M  V30 12258 C 1160.08 0.118047 -2.01354 0
M  V30 12259 C 1160.39 1.42953 -1.33505 0
M  V30 12260 O 1161.6 2.07788 -1.74747 0
M  V30 12261 C 1160.05 0.260912 -3.58953 0
M  V30 12262 C 1159.66 -1.0407 -4.35745 0
M  V30 12263 C 1161.41 0.779014 -4.17291 0
M  V30 12264 C 1159.31 -0.862958 -5.8507 0
M  V30 12265 H 1158.24 0.0478915 -0.752478 0
M  V30 12266 H 1160.89 -0.577997 -1.74159 0
M  V30 12267 H 1159.28 1.02018 -3.82633 0
M  V30 12268 H 1160.45 -1.80903 -4.23805 0
M  V30 12269 H 1158.77 -1.48805 -3.88904 0
M  V30 12270 H 1161.36 0.928636 -5.26574 0
M  V30 12271 H 1161.71 1.76399 -3.7708 0
M  V30 12272 H 1162.24 0.0778022 -3.97724 0
M  V30 12273 H 1158.98 -1.82059 -6.2971 0
M  V30 12274 H 1158.5 -0.134588 -5.99649 0
M  V30 12275 H 1160.18 -0.51989 -6.44908 0
M  V30 12276 N 1160.31 1.56586 -0.178487 0
M  V30 12277 C 1161.27 2.17091 0.73512 0
M  V30 12278 C 1162.27 1.12088 1.15295 0
M  V30 12279 O 1163.46 1.37563 1.06874 0
M  V30 12280 C 1160.59 2.75957 2.00151 0
M  V30 12281 H 1161.79 2.99176 0.208272 0
M  V30 12282 H 1159.34 1.56138 0.0710967 0
M  V30 12283 H 1160.07 1.97626 2.57127 0
M  V30 12284 H 1159.86 3.52809 1.7108 0
M  V30 12285 H 1161.35 3.2247 2.65335 0
M  V30 12286 N 1161.79 -0.095206 1.57312 0
M  V30 12287 C 1163.03 -0.799903 1.86358 0
M  V30 12288 C 1163.37 -1.78386 0.767593 0
M  V30 12289 O 1162.64 -1.93201 -0.224439 0
M  V30 12290 C 1162.92 -1.52875 3.26039 0
M  V30 12291 C 1162.78 -0.562781 4.46265 0
M  V30 12292 C 1164.1 -2.47935 3.63616 0
M  V30 12293 H 1161.21 -0.289339 0.677829 0
M  V30 12294 H 1163.86 -0.0635369 1.89894 0
M  V30 12295 H 1162.01 -2.15645 3.23156 0
M  V30 12296 H 1163.68 0.0579068 4.61264 0
M  V30 12297 H 1161.92 0.123847 4.33623 0
M  V30 12298 H 1162.59 -1.10989 5.40727 0
M  V30 12299 H 1165.07 -1.95257 3.67442 0
M  V30 12300 H 1163.94 -2.95948 4.62283 0
M  V30 12301 H 1164.21 -3.31687 2.92294 0
M  V30 12302 N 1163.26 -1.53291 -0.366026 0
M  V30 12303 C 1164.51 -1.69451 -1.10872 0
M  V30 12304 C 1164.84 -0.446078 -1.89316 0
M  V30 12305 O 1164.09 0.571962 -1.87155 0
M  V30 12306 C 1164.39 -2.89547 -2.09517 0
M  V30 12307 C 1164.06 -4.26073 -1.47556 0
M  V30 12308 C 1162.72 -4.63199 -1.30386 0
M  V30 12309 C 1165.07 -5.10977 -1.02724 0
M  V30 12310 C 1162.4 -5.82866 -0.669666 0
M  V30 12311 C 1164.75 -6.31289 -0.407052 0
M  V30 12312 C 1163.42 -6.67128 -0.222839 0
M  V30 12313 H 1162.69 -0.620066 -0.405708 0
M  V30 12314 H 1165.33 -1.87475 -0.390563 0
M  V30 12315 H 1163.64 -2.66034 -2.87634 0
M  V30 12316 H 1165.34 -2.99245 -2.66933 0
M  V30 12317 H 1161.93 -3.9684 -1.61914 0
M  V30 12318 H 1166.11 -4.82844 -1.14783 0
M  V30 12319 H 1161.37 -6.09224 -0.515351 0
M  V30 12320 H 1165.54 -6.96381 -0.0514661 0
M  V30 12321 H 1163.17 -7.59718 0.270647 0
M  V30 12322 N 1164.74 0.6258 -1.44643 0
M  V30 12323 C 1165.99 1.38525 -1.47706 0
M  V30 12324 C 1166.32 1.94179 -0.111703 0
M  V30 12325 O 1165.57 1.74432 0.887237 0
M  V30 12326 C 1165.87 2.56466 -2.48917 0
M  V30 12327 C 1165.54 2.19069 -3.94106 0
M  V30 12328 C 1164.2 2.08583 -4.33643 0
M  V30 12329 C 1166.55 1.89608 -4.85488 0
M  V30 12330 C 1163.88 1.66831 -5.6248 0
M  V30 12331 C 1166.23 1.49347 -6.14718 0
M  V30 12332 C 1164.9 1.37406 -6.53204 0
M  V30 12333 H 1164.17 0.506899 -0.540494 0
M  V30 12334 H 1166.81 0.709128 -1.77887 0
M  V30 12335 H 1165.12 3.29335 -2.12239 0
M  V30 12336 H 1166.81 3.14695 -2.48532 0
M  V30 12337 H 1163.4 2.28151 -3.62829 0
M  V30 12338 H 1167.59 1.96616 -4.55693 0
M  V30 12339 H 1162.84 1.56195 -5.91112 0
M  V30 12340 H 1167.02 1.2559 -6.84982 0
M  V30 12341 H 1164.65 1.04826 -7.52938 0
M  V30 12342 N 1166.22 1.31629 0.866686 0
M  V30 12343 C 1167.47 1.22693 1.62228 0
M  V30 12344 C 1167.82 -0.212134 1.91227 0
M  V30 12345 O 1167.11 -1.1465 1.53512 0
M  V30 12346 C 1167.31 2.00775 2.95676 0
M  V30 12347 C 1167.14 3.52128 2.79708 0
M  V30 12348 C 1165.91 4.21476 2.78722 0
M  V30 12349 C 1168.11 4.47013 2.5433 0
M  V30 12350 N 1166.09 5.58963 2.53838 0
M  V30 12351 C 1167.46 5.72192 2.3874 0
M  V30 12352 C 1169.51 4.36404 2.39701 0
M  V30 12353 C 1168.22 6.8796 2.10008 0
M  V30 12354 C 1170.24 5.51959 2.12358 0
M  V30 12355 C 1169.6 6.76129 1.97559 0
M  V30 12356 H 1165.7 0.504088 0.597845 0
M  V30 12357 H 1168.29 1.65856 1.01979 0
M  V30 12358 H 1166.46 1.59975 3.53924 0
M  V30 12359 H 1168.19 1.83831 3.60539 0
M  V30 12360 H 1164.95 3.73478 2.91224 0
M  V30 12361 H 1165.37 6.31362 2.44358 0
M  V30 12362 H 1170.01 3.41066 2.49868 0
M  V30 12363 H 1167.73 7.83321 1.98578 0
M  V30 12364 H 1171.32 5.45669 2.01834 0
M  V30 12365 H 1170.2 7.64033 1.76701 0
M  V30 12366 N 1167.7 -1.08142 1.14644 0
M  V30 12367 C 1168.95 -1.80849 0.917685 0
M  V30 12368 C 1169.28 -1.86123 -0.554249 0
M  V30 12369 O 1168.55 -1.33907 -1.41065 0
M  V30 12370 C 1168.84 -3.26325 1.52264 0
M  V30 12371 C 1168.69 -3.29244 3.06461 0
M  V30 12372 C 1170.01 -4.23375 1.20175 0
M  V30 12373 H 1167.13 -0.656559 0.334812 0
M  V30 12374 H 1169.77 -1.26595 1.41682 0
M  V30 12375 H 1167.92 -3.72656 1.09817 0
M  V30 12376 H 1169.59 -2.91216 3.57758 0
M  V30 12377 H 1167.83 -2.68438 3.40769 0
M  V30 12378 H 1168.51 -4.31785 3.43897 0
M  V30 12379 H 1170.98 -3.85394 1.56877 0
M  V30 12380 H 1169.86 -5.23472 1.65132 0
M  V30 12381 H 1170.12 -4.41944 0.117474 0
M  V30 12382 N 1169.18 -0.941978 -1.26351 0
M  V30 12383 C 1170.11 -0.469913 -2.28723 0
M  V30 12384 C 1171.09 0.477218 -1.63269 0
M  V30 12385 O 1172.27 0.378902 -1.90468 0
M  V30 12386 C 1169.4 0.264971 -3.46288 0
M  V30 12387 C 1168.36 -0.595682 -4.23834 0
M  V30 12388 C 1167.68 0.269208 -5.34022 0
M  V30 12389 C 1168.98 -1.86743 -4.87775 0
M  V30 12390 H 1170.68 -1.32551 -2.6846 0
M  V30 12391 H 1168.22 -0.638809 -1.29055 0
M  V30 12392 H 1170.18 0.606259 -4.17016 0
M  V30 12393 H 1168.9 1.15471 -3.05506 0
M  V30 12394 H 1167.56 -0.919875 -3.54872 0
M  V30 12395 H 1167.21 1.15832 -4.89481 0
M  V30 12396 H 1166.91 -0.30325 -5.86817 0
M  V30 12397 H 1168.43 0.605748 -6.07588 0
M  V30 12398 H 1169.85 -1.59333 -5.50714 0
M  V30 12399 H 1168.24 -2.38452 -5.50691 0
M  V30 12400 H 1169.31 -2.57831 -4.10671 0
M  V30 12401 N 1170.66 1.40747 -0.709091 0
M  V30 12402 C 1171.59 2.33404 -0.0669763 0
M  V30 12403 C 1172.57 1.52546 0.752582 0
M  V30 12404 O 1173.75 1.81036 0.702823 0
M  V30 12405 C 1170.88 3.36476 0.860285 0
M  V30 12406 C 1169.84 4.27748 0.146828 0
M  V30 12407 C 1169.16 5.21304 1.18937 0
M  V30 12408 C 1170.46 5.12734 -0.995064 0
M  V30 12409 H 1172.16 2.87349 -0.840888 0
M  V30 12410 H 1169.7 1.38163 -0.405817 0
M  V30 12411 H 1171.65 4.00231 1.31883 0
M  V30 12412 H 1170.38 2.80912 1.66602 0
M  V30 12413 H 1169.04 3.65437 -0.291826 0
M  V30 12414 H 1168.69 4.62048 1.98798 0
M  V30 12415 H 1168.39 5.8321 0.716917 0
M  V30 12416 H 1169.91 5.87936 1.64815 0
M  V30 12417 H 1171.32 5.69979 -0.61618 0
M  V30 12418 H 1169.72 5.83649 -1.39547 0
M  V30 12419 H 1170.79 4.49097 -1.82867 0
M  V30 12420 N 1172.13 0.454803 1.50895 0
M  V30 12421 C 1173.06 -0.337982 2.31041 0
M  V30 12422 C 1174.04 -1.00523 1.37219 0
M  V30 12423 O 1175.23 -1.00553 1.66141 0
M  V30 12424 C 1172.36 -1.42964 3.1651 0
M  V30 12425 C 1171.31 -0.884907 4.18752 0
M  V30 12426 C 1170.64 -2.07363 4.92854 0
M  V30 12427 C 1171.94 0.0926716 5.22218 0
M  V30 12428 H 1173.63 0.33089 2.97566 0
M  V30 12429 H 1171.18 0.160577 1.43102 0
M  V30 12430 H 1173.13 -1.9916 3.71367 0
M  V30 12431 H 1171.86 -2.12705 2.47839 0
M  V30 12432 H 1170.52 -0.345031 3.64973 0
M  V30 12433 H 1170.16 -2.75764 4.2067 0
M  V30 12434 H 1169.86 -1.71545 5.62002 0
M  V30 12435 H 1171.39 -2.6408 5.5054 0
M  V30 12436 H 1172.8 -0.379568 5.72042 0
M  V30 12437 H 1171.2 0.3643 5.98993 0
M  V30 12438 H 1172.27 1.02383 4.73968 0
M  V30 12439 N 1173.61 -1.56489 0.186789 0
M  V30 12440 C 1174.54 -2.21705 -0.732739 0
M  V30 12441 C 1175.52 -1.17751 -1.22755 0
M  V30 12442 O 1176.71 -1.46231 -1.27789 0
M  V30 12443 C 1173.84 -2.86992 -1.95584 0
M  V30 12444 C 1172.79 -3.97118 -1.59628 0
M  V30 12445 C 1172.12 -4.49529 -2.89531 0
M  V30 12446 C 1173.42 -5.15941 -0.812518 0
M  V30 12447 H 1175.11 -2.98802 -0.189094 0
M  V30 12448 H 1172.66 -1.43722 -0.0895099 0
M  V30 12449 H 1174.61 -3.31295 -2.60426 0
M  V30 12450 H 1173.33 -2.07287 -2.52388 0
M  V30 12451 H 1171.99 -3.53494 -0.971475 0
M  V30 12452 H 1171.64 -3.66596 -3.44407 0
M  V30 12453 H 1171.34 -5.23832 -2.66221 0
M  V30 12454 H 1172.87 -4.96528 -3.55376 0
M  V30 12455 H 1174.28 -5.56841 -1.36386 0
M  V30 12456 H 1172.68 -5.96259 -0.677862 0
M  V30 12457 H 1173.75 -4.84535 0.188095 0
M  V30 12458 N 1175.09 0.086862 -1.5736 0
M  V30 12459 C 1176.34 0.787581 -1.85688 0
M  V30 12460 C 1176.65 1.79494 -0.777263 0
M  V30 12461 O 1177.86 2.54415 -0.947914 0
M  V30 12462 C 1176.31 1.45155 -3.2933 0
M  V30 12463 C 1175.92 0.483539 -4.45383 0
M  V30 12464 C 1177.67 2.13552 -3.66873 0
M  V30 12465 C 1175.57 1.15257 -5.8006 0
M  V30 12466 H 1174.5 0.297882 -0.692663 0
M  V30 12467 H 1177.15 0.0406299 -1.83455 0
M  V30 12468 H 1175.54 2.24625 -3.26128 0
M  V30 12469 H 1176.71 -0.280254 -4.59947 0
M  V30 12470 H 1175.02 -0.0951664 -4.16291 0
M  V30 12471 H 1177.62 2.64355 -4.6478 0
M  V30 12472 H 1177.96 2.92818 -2.95911 0
M  V30 12473 H 1178.5 1.40932 -3.71999 0
M  V30 12474 H 1175.24 0.400546 -6.54275 0
M  V30 12475 H 1174.76 1.88759 -5.69324 0
M  V30 12476 H 1176.44 1.67671 -6.24896 0
M  V30 12477 N 1176.57 1.53483 0.357892 0
M  V30 12478 C 1177.81 1.70037 1.09971 0
M  V30 12479 C 1178.14 0.456112 1.89076 0
M  V30 12480 O 1177.4 -0.562029 1.87456 0
M  V30 12481 C 1177.7 2.90654 2.07978 0
M  V30 12482 C 1177.36 4.26849 1.45295 0
M  V30 12483 C 1176.02 4.63884 1.27928 0
M  V30 12484 C 1178.38 5.11514 1.00013 0
M  V30 12485 C 1175.7 5.83213 0.638745 0
M  V30 12486 C 1178.06 6.31496 0.373568 0
M  V30 12487 C 1176.72 6.67237 0.187457 0
M  V30 12488 H 1175.99 0.622209 0.402414 0
M  V30 12489 H 1178.64 1.87679 0.380615 0
M  V30 12490 H 1176.94 2.67556 2.86219 0
M  V30 12491 H 1178.64 3.00656 2.65343 0
M  V30 12492 H 1175.23 3.97693 1.59807 0
M  V30 12493 H 1179.41 4.83446 1.12221 0
M  V30 12494 H 1174.67 6.09489 0.483035 0
M  V30 12495 H 1178.84 6.96398 0.0145346 0
M  V30 12496 H 1176.47 7.59564 -0.310933 0
M  V30 12497 N 1178.05 -0.61812 1.44973 0
M  V30 12498 C 1179.29 -1.38882 1.4997 0
M  V30 12499 C 1179.65 -1.91533 0.133841 0
M  V30 12500 O 1180.85 -2.68736 0.0585012 0
M  V30 12501 C 1179.12 -2.5136 2.54073 0
M  V30 12502 S 1180.68 -3.39324 2.78216 0
M  V30 12503 H 1177.5 -0.473631 0.530278 0
M  V30 12504 H 1180.1 -0.714299 1.81984 0
M  V30 12505 H 1178.8 -2.11012 3.51997 0
M  V30 12506 H 1178.34 -3.23625 2.23675 0
M  V30 12507 H 1180.35 -4.49198 2.10797 0
M  V30 12508 N 1179.52 -1.32087 -0.859693 0
M  V30 12509 C 1180.47 -1.20549 -1.98924 0
M  V30 12510 C 1181.47 -0.111422 -1.69033 0
M  V30 12511 O 1182.67 -0.27401 -1.77902 0
M  V30 12512 H 1179.05 -0.373538 -0.652667 0
M  V30 12513 H 1181.02 -2.16091 -2.05785 0
M  V30 12514 C 1179.77 -0.940226 -3.34746 0
M  V30 12515 H 1179.09 -1.77427 -3.58273 0
M  V30 12516 H 1180.53 -0.899712 -4.14344 0
M  V30 12517 C 1178.99 0.357042 -3.35003 0
M  V30 12518 O 1179.52 1.37054 -3.77596 0
M  V30 12519 N 1177.72 0.37723 -2.88141 0
M  V30 12520 H 1177.27 -0.448051 -2.53674 0
M  V30 12521 H 1177.23 1.24509 -2.88695 0
M  V30 12522 N 1181 1.07532 -1.15215 0
M  V30 12523 C 1181.93 2.1406 -0.7908 0
M  V30 12524 C 1182.91 1.60938 0.231922 0
M  V30 12525 O 1184.1 1.88125 0.118906 0
M  V30 12526 C 1181.22 3.38244 -0.175633 0
M  V30 12527 C 1180.27 4.10139 -1.16996 0
M  V30 12528 S 1181.1 4.61795 -2.71119 0
M  V30 12529 C 1182.26 5.89256 -2.11016 0
M  V30 12530 H 1182.49 2.44381 -1.69308 0
M  V30 12531 H 1180.02 1.19777 -0.974308 0
M  V30 12532 H 1181.98 4.10136 0.172859 0
M  V30 12533 H 1180.64 3.06104 0.704211 0
M  V30 12534 H 1179.84 4.99286 -0.687714 0
M  V30 12535 H 1179.44 3.44203 -1.46289 0
M  V30 12536 H 1181.73 6.61336 -1.47109 0
M  V30 12537 H 1182.67 6.42191 -2.98322 0
M  V30 12538 H 1183.08 5.4269 -1.55394 0
M  V30 12539 N 1182.48 0.948665 1.2585 0
M  V30 12540 C 1183.9 0.652147 1.45668 0
M  V30 12541 C 1184.1 -0.792217 1.85273 0
M  V30 12542 O 1183.15 -1.56812 1.97905 0
M  V30 12543 C 1184.47 1.61998 2.53332 0
M  V30 12544 C 1186.01 1.6305 2.67178 0
M  V30 12545 C 1186.49 2.58582 3.78021 0
M  V30 12546 N 1187.98 2.56911 3.85423 0
M  V30 12547 C 1188.71 3.27511 4.70664 0
M  V30 12548 N 1188.21 4.07563 5.60236 0
M  V30 12549 N 1190 3.16427 4.64576 0
M  V30 12550 H 1182.15 1.88215 0.984325 0
M  V30 12551 H 1184.42 0.809251 0.493778 0
M  V30 12552 H 1184.12 2.65137 2.31075 0
M  V30 12553 H 1184 1.37784 3.51134 0
M  V30 12554 H 1186.38 0.606315 2.88804 0
M  V30 12555 H 1186.47 1.9132 1.69795 0
M  V30 12556 H 1186.11 3.61122 3.57146 0
M  V30 12557 H 1186.04 2.27598 4.74875 0
M  V30 12558 H 1188.53 1.9879 3.21389 0
M  V30 12559 H 1188.84 4.58367 6.22189 0
M  V30 12560 H 1187.19 4.11662 5.59964 0
M  V30 12561 H 1190.38 2.53364 3.93604 0
M  V30 12562 H 1190.55 3.71714 5.30785 0
M  V30 12563 N 1183.96 -1.40369 0.716545 0
M  V30 12564 C 1185.37 -1.54757 0.390202 0
M  V30 12565 C 1185.57 -1.68767 -1.10091 0
M  V30 12566 O 1184.63 -1.67779 -1.88697 0
M  V30 12567 C 1185.94 -2.77546 1.15709 0
M  V30 12568 C 1187.49 -2.91364 1.14349 0
M  V30 12569 C 1187.97 -4.17068 1.89256 0
M  V30 12570 N 1189.46 -4.2407 1.8633 0
M  V30 12571 C 1190.19 -5.20243 2.41112 0
M  V30 12572 N 1189.69 -6.22318 3.04454 0
M  V30 12573 N 1191.48 -5.12328 2.31249 0
M  V30 12574 H 1183.63 -1.29521 1.68339 0
M  V30 12575 H 1185.9 -0.626382 0.711582 0
M  V30 12576 H 1185.6 -2.73474 2.21144 0
M  V30 12577 H 1185.48 -3.69682 0.749347 0
M  V30 12578 H 1187.86 -2.94939 0.0973383 0
M  V30 12579 H 1187.94 -2.00344 1.59047 0
M  V30 12580 H 1187.59 -4.14255 2.93863 0
M  V30 12581 H 1187.52 -5.07099 1.41978 0
M  V30 12582 H 1190.01 -3.50944 1.40168 0
M  V30 12583 H 1190.32 -6.92129 3.43769 0
M  V30 12584 H 1188.67 -6.22759 3.08538 0
M  V30 12585 H 1191.86 -4.31514 1.8142 0
M  V30 12586 H 1192.03 -5.87107 2.74243 0
M  V30 12587 N 1185.44 -0.462799 -1.50652 0
M  V30 12588 C 1186.85 -0.00568907 -1.86699 0
M  V30 12589 C 1187.2 1.39641 -1.37822 0
M  V30 12590 O 1186.32 2.03366 -0.739679 0
M  V30 12591 C 1186.92 -0.00354783 -3.388 0
M  V30 12592 C 1185.48 0.398061 -3.74289 0
M  V30 12593 C 1184.62 -0.392574 -2.74507 0
M  V30 12594 H 1187.58 -0.677469 -1.43513 0
M  V30 12595 H 1187.6 0.800456 -3.71985 0
M  V30 12596 H 1187.11 -1.02414 -3.74344 0
M  V30 12597 H 1185.21 1.42331 -3.44344 0
M  V30 12598 H 1185.32 0.105168 -4.78985 0
M  V30 12599 H 1183.69 0.152608 -2.54242 0
M  V30 12600 H 1184.47 -1.41252 -3.12894 0
M  V30 12601 N 1186.91 1.56388 -0.195085 0
M  V30 12602 C 1187.88 2.17859 0.712053 0
M  V30 12603 C 1188.88 1.13304 1.141 0
M  V30 12604 O 1190.07 1.38689 1.05409 0
M  V30 12605 C 1187.2 2.78065 1.97213 0
M  V30 12606 H 1188.39 2.9938 0.176529 0
M  V30 12607 H 1185.95 1.56205 0.0545322 0
M  V30 12608 H 1186.68 2.00342 2.55017 0
M  V30 12609 H 1186.47 3.54603 1.67329 0
M  V30 12610 H 1187.96 3.25266 2.619 0
M  V30 12611 N 1188.39 -0.0785156 1.57404 0
M  V30 12612 C 1189.34 -1.10077 1.99668 0
M  V30 12613 C 1190.33 -1.34855 0.87767 0
M  V30 12614 O 1191.52 -1.35268 1.14156 0
M  V30 12615 C 1188.65 -2.41641 2.43854 0
M  V30 12616 C 1187.73 -2.20166 3.62475 0
M  V30 12617 N 1188.12 -1.68602 4.76872 0
M  V30 12618 C 1186.42 -2.50666 3.68894 0
M  V30 12619 C 1187.12 -1.61785 5.58749 0
M  V30 12620 N 1186.1 -2.07595 5.02399 0
M  V30 12621 H 1189.9 -0.695297 2.85557 0
M  V30 12622 H 1187.42 -0.285694 1.59867 0
M  V30 12623 H 1189.41 -3.15629 2.72367 0
M  V30 12624 H 1188.07 -2.8291 1.59348 0
M  V30 12625 H 1189.08 -1.37561 4.99297 0
M  V30 12626 H 1185.76 -2.95348 2.95087 0
M  V30 12627 H 1187.15 -1.22828 6.60578 0
M  V30 12628 N 1189.87 -1.5367 -0.349747 0
M  V30 12629 C 1190.83 -1.80533 -1.41211 0
M  V30 12630 C 1191.83 -0.676188 -1.45892 0
M  V30 12631 O 1193.02 -0.944453 -1.46375 0
M  V30 12632 C 1190.16 -1.94175 -2.80195 0
M  V30 12633 H 1191.35 -2.75428 -1.18658 0
M  V30 12634 H 1188.9 -1.44988 -0.583787 0
M  V30 12635 H 1189.64 -1.01402 -3.08039 0
M  V30 12636 H 1189.42 -2.76316 -2.78194 0
M  V30 12637 H 1190.91 -2.16496 -3.57098 0
M  V30 12638 N 1191.35 0.610423 -1.45298 0
M  V30 12639 C 1192.63 1.36966 -1.39641 0
M  V30 12640 C 1193.01 2.10998 -0.0655757 0
M  V30 12641 O 1192.35 2.07705 0.952407 0
M  V30 12642 C 1192.56 2.31885 -2.60826 0
M  V30 12643 C 1193.91 2.9458 -3.05791 0
M  V30 12644 O 1194.94 2.42207 -2.61179 0
M  V30 12645 O 1193.79 3.89639 -3.83202 0
M  V30 12646 H 1190.89 0.61401 -0.554004 0
M  V30 12647 H 1193.43 0.633748 -1.57422 0
M  V30 12648 H 1192.21 1.76421 -3.49272 0
M  V30 12649 H 1191.83 3.12861 -2.45364 0
M  V30 12650 N 1192.83 1.32541 0.852676 0
M  V30 12651 C 1194.08 1.22567 1.60188 0
M  V30 12652 C 1194.39 -0.210594 1.94463 0
M  V30 12653 O 1195.59 -0.432214 2.68038 0
M  V30 12654 C 1194.05 2.14678 2.88862 0
M  V30 12655 C 1193.66 3.63398 2.62004 0
M  V30 12656 C 1195.4 2.13545 3.66877 0
M  V30 12657 C 1193.31 4.47464 3.86691 0
M  V30 12658 H 1192.24 0.455184 0.601102 0
M  V30 12659 H 1194.89 1.57515 0.941347 0
M  V30 12660 H 1193.27 1.72647 3.56383 0
M  V30 12661 H 1194.45 4.13783 2.02782 0
M  V30 12662 H 1192.76 3.66681 1.97316 0
M  V30 12663 H 1195.36 2.73589 4.59405 0
M  V30 12664 H 1195.7 1.12694 4.00756 0
M  V30 12665 H 1196.23 2.53866 3.06263 0
M  V30 12666 H 1192.97 5.49136 3.57952 0
M  V30 12667 H 1192.49 4.01829 4.45302 0
M  V30 12668 H 1194.17 4.60565 4.5441 0
M  V30 12669 N 1194.3 -1.0692 1.15784 0
M  V30 12670 C 1195.25 -2.14235 0.858616 0
M  V30 12671 C 1196.22 -1.65006 -0.190295 0
M  V30 12672 O 1197.41 -1.90715 -0.0568853 0
M  V30 12673 C 1194.55 -3.43229 0.35888 0
M  V30 12674 C 1193.66 -4.06225 1.46987 0
M  V30 12675 C 1192.79 -5.2307 0.925812 0
M  V30 12676 C 1191.83 -5.78037 2.01345 0
M  V30 12677 N 1190.97 -6.86206 1.48544 0
M  V30 12678 H 1195.81 -2.3917 1.77769 0
M  V30 12679 H 1193.35 -1.17354 0.886925 0
M  V30 12680 H 1195.31 -4.17169 0.0508198 0
M  V30 12681 H 1193.94 -3.18531 -0.523259 0
M  V30 12682 H 1192.99 -3.29895 1.89403 0
M  V30 12683 H 1194.3 -4.43081 2.29088 0
M  V30 12684 H 1193.45 -6.04011 0.570555 0
M  V30 12685 H 1192.19 -4.87644 0.0740371 0
M  V30 12686 H 1191.2 -4.95738 2.37748 0
M  V30 12687 H 1192.42 -6.15517 2.86907 0
M  V30 12688 H 1190.37 -6.52711 0.656092 0
M  V30 12689 H 1190.29 -7.2197 2.24266 0
M  V30 12690 H 1191.55 -7.70842 1.15856 0
M  V30 12691 N 1195.78 -0.955326 -1.25345 0
M  V30 12692 C 1197.01 -0.627693 -1.97149 0
M  V30 12693 C 1197.43 0.800349 -1.70997 0
M  V30 12694 O 1196.78 1.53545 -0.986417 0
M  V30 12695 C 1196.83 -0.877675 -3.50684 0
M  V30 12696 O 1196.55 -2.24957 -3.75934 0
M  V30 12697 C 1198.06 -0.562524 -4.39716 0
M  V30 12698 H 1195.28 -0.235269 -0.628402 0
M  V30 12699 H 1197.82 -1.27989 -1.59496 0
M  V30 12700 H 1195.97 -0.271878 -3.86445 0
M  V30 12701 H 1196.39 -2.32022 -4.70389 0
M  V30 12702 H 1197.86 -0.787972 -5.46347 0
M  V30 12703 H 1198.34 0.50293 -4.36311 0
M  V30 12704 H 1198.95 -1.14767 -4.09522 0
M  V30 12705 N 1197.26 1.39987 -0.723979 0
M  V30 12706 C 1198.51 2.00334 -0.266587 0
M  V30 12707 C 1198.83 1.57714 1.14679 0
M  V30 12708 O 1198.1 0.82037 1.77895 0
M  V30 12709 H 1196.68 0.740861 -0.095573 0
M  V30 12710 H 1199.34 1.712 -0.931481 0
M  V30 12711 H 1198.44 3.10594 -0.306282 0
M  V30 12712 N 1198.74 0.470782 1.50404 0
M  V30 12713 C 1199.97 -0.0818945 2.06438 0
M  V30 12714 C 1200.38 -1.34085 1.33483 0
M  V30 12715 O 1199.72 -1.79346 0.397565 0
M  V30 12716 C 1199.78 -0.436252 3.56843 0
M  V30 12717 C 1199.45 0.720641 4.51282 0
M  V30 12718 C 1200.44 1.60258 4.94584 0
M  V30 12719 C 1198.13 0.910879 4.93972 0
M  V30 12720 C 1200.12 2.65916 5.79282 0
M  V30 12721 C 1197.81 1.97069 5.78452 0
M  V30 12722 C 1198.81 2.84319 6.21008 0
M  V30 12723 O 1198.5 3.88476 7.03805 0
M  V30 12724 H 1198.23 0.00361688 0.67599 0
M  V30 12725 H 1200.78 0.658488 1.94559 0
M  V30 12726 H 1199.01 -1.22982 3.66623 0
M  V30 12727 H 1200.7 -0.923976 3.95244 0
M  V30 12728 H 1201.47 1.46729 4.62272 0
M  V30 12729 H 1197.35 0.241225 4.60368 0
M  V30 12730 H 1200.89 3.3405 6.12419 0
M  V30 12731 H 1196.79 2.10605 6.10177 0
M  V30 12732 H 1197.55 3.8546 7.22054 0
M  V30 12733 N 1200.22 -1.56282 0.203376 0
M  V30 12734 C 1201.15 -2.2247 -0.709183 0
M  V30 12735 C 1202.13 -1.19046 -1.21499 0
M  V30 12736 O 1203.31 -1.47578 -1.26231 0
M  V30 12737 C 1200.44 -2.8905 -1.92529 0
M  V30 12738 C 1199.4 -3.98789 -1.55407 0
M  V30 12739 C 1198.72 -4.52574 -2.84747 0
M  V30 12740 C 1200.02 -5.16774 -0.75775 0
M  V30 12741 H 1201.72 -2.98986 -0.157392 0
M  V30 12742 H 1199.26 -1.43808 -0.0742613 0
M  V30 12743 H 1201.22 -3.34038 -2.56898 0
M  V30 12744 H 1199.94 -2.09952 -2.50175 0
M  V30 12745 H 1198.6 -3.54504 -0.933928 0
M  V30 12746 H 1198.25 -3.70229 -3.40499 0
M  V30 12747 H 1197.95 -5.26627 -2.6065 0
M  V30 12748 H 1199.47 -5.00269 -3.5009 0
M  V30 12749 H 1200.89 -5.58256 -1.30472 0
M  V30 12750 H 1199.28 -5.96945 -0.614583 0
M  V30 12751 H 1200.35 -4.84308 0.239476 0
M  V30 12752 N 1201.7 0.070167 -1.57444 0
M  V30 12753 C 1202.92 0.785703 -1.91941 0
M  V30 12754 C 1203.35 1.70243 -0.799932 0
M  V30 12755 O 1202.7 1.79608 0.247139 0
M  V30 12756 C 1202.75 1.55398 -3.25398 0
M  V30 12757 O 1201.86 2.66475 -3.14746 0
M  V30 12758 H 1201.2 0.214245 -0.628486 0
M  V30 12759 H 1203.73 0.0379243 -2.04565 0
M  V30 12760 H 1203.74 1.93287 -3.5931 0
M  V30 12761 H 1202.41 0.881366 -4.06454 0
M  V30 12762 H 1200.99 2.3143 -2.92394 0
M  V30 12763 N 1203.17 1.53854 0.341593 0
M  V30 12764 C 1204.42 1.7041 1.07905 0
M  V30 12765 C 1204.74 0.475039 1.89744 0
M  V30 12766 O 1205.94 0.521589 2.66443 0
M  V30 12767 C 1204.4 3.01342 1.96776 0
M  V30 12768 C 1204.01 4.31592 1.20135 0
M  V30 12769 C 1205.75 3.27264 2.70367 0
M  V30 12770 C 1203.66 5.53598 2.08047 0
M  V30 12771 H 1202.59 0.635005 0.406553 0
M  V30 12772 H 1205.24 1.80353 0.338409 0
M  V30 12773 H 1203.62 2.85261 2.74667 0
M  V30 12774 H 1204.79 4.58382 0.471404 0
M  V30 12775 H 1203.11 4.12298 0.583039 0
M  V30 12776 H 1205.71 4.15607 3.36415 0
M  V30 12777 H 1206.05 2.44357 3.37039 0
M  V30 12778 H 1206.58 3.4413 1.99548 0
M  V30 12779 H 1203.32 6.39053 1.45914 0
M  V30 12780 H 1202.84 5.31052 2.78825 0
M  V30 12781 H 1204.52 5.89314 2.67055 0
M  V30 12782 N 1204.65 -0.602709 1.4562 0
M  V30 12783 C 1205.9 -1.35769 1.49163 0
M  V30 12784 C 1206.21 -1.95102 0.139485 0
M  V30 12785 O 1207.42 -2.71449 0.0525919 0
M  V30 12786 C 1205.88 -2.45959 2.62739 0
M  V30 12787 C 1205.48 -1.93017 4.04288 0
M  V30 12788 C 1207.23 -3.22926 2.75534 0
M  V30 12789 C 1205.13 -3.00718 5.09237 0
M  V30 12790 H 1204.06 -0.510317 0.555061 0
M  V30 12791 H 1206.72 -0.645434 1.71774 0
M  V30 12792 H 1205.1 -3.19892 2.3342 0
M  V30 12793 H 1206.27 -1.2576 4.43307 0
M  V30 12794 H 1204.59 -1.2878 3.95986 0
M  V30 12795 H 1207.18 -4.03267 3.51112 0
M  V30 12796 H 1207.53 -3.74243 1.82339 0
M  V30 12797 H 1208.06 -2.56095 3.04402 0
M  V30 12798 H 1204.8 -2.54312 6.04157 0
M  V30 12799 H 1204.32 -3.66526 4.74783 0
M  V30 12800 H 1206 -3.65016 5.34202 0
M  V30 12801 N 1206.13 -1.32992 -0.845635 0
M  V30 12802 C 1207.06 -1.17018 -1.95913 0
M  V30 12803 C 1208.04 -0.0673433 -1.6246 0
M  V30 12804 O 1209.22 -0.22833 -1.87112 0
M  V30 12805 C 1206.35 -0.793343 -3.29278 0
M  V30 12806 C 1205.4 -1.90271 -3.81705 0
M  V30 12807 S 1206.23 -3.51256 -4.04202 0
M  V30 12808 C 1207.39 -3.15564 -5.40528 0
M  V30 12809 H 1207.62 -2.11278 -2.09163 0
M  V30 12810 H 1205.15 -1.17756 -0.998644 0
M  V30 12811 H 1207.11 -0.582694 -4.06343 0
M  V30 12812 H 1205.77 0.130539 -3.13829 0
M  V30 12813 H 1204.96 -1.59225 -4.78188 0
M  V30 12814 H 1204.57 -2.06968 -3.11513 0
M  V30 12815 H 1206.86 -2.65969 -6.23111 0
M  V30 12816 H 1207.8 -4.11102 -5.76542 0
M  V30 12817 H 1208.21 -2.52341 -5.04959 0
M  V30 12818 N 1207.61 1.06304 -1.1635 0
M  V30 12819 C 1208.88 1.75916 -0.855166 0
M  V30 12820 C 1209.26 2.0094 0.647024 0
M  V30 12821 O 1208.61 1.63642 1.59479 0
M  V30 12822 C 1208.82 3.06028 -1.67774 0
M  V30 12823 C 1210.17 3.80184 -1.89065 0
M  V30 12824 O 1211.19 3.15868 -1.64639 0
M  V30 12825 O 1210.05 4.95723 -2.30045 0
M  V30 12826 H 1207.15 0.764432 -0.315551 0
M  V30 12827 H 1209.69 1.12574 -1.26985 0
M  V30 12828 H 1208.47 2.83498 -2.69712 0
M  V30 12829 H 1208.09 3.77104 -1.26009 0
M  V30 12830 N 1209.09 0.96196 1.24836 0
M  V30 12831 C 1210.5 0.660388 1.7463 0
M  V30 12832 C 1210.85 -0.824064 1.78055 0
M  V30 12833 O 1209.97 -1.64485 1.40619 0
M  V30 12834 C 1210.57 1.19205 3.17137 0
M  V30 12835 C 1209.13 0.940493 3.64461 0
M  V30 12836 C 1208.27 1.33076 2.43282 0
M  V30 12837 H 1211.22 1.13794 1.1062 0
M  V30 12838 H 1211.25 0.555595 3.76422 0
M  V30 12839 H 1210.76 2.27247 3.14612 0
M  V30 12840 H 1208.86 -0.124645 3.72391 0
M  V30 12841 H 1208.97 1.5821 4.52224 0
M  V30 12842 H 1207.34 0.749139 2.43434 0
M  V30 12843 H 1208.12 2.42055 2.43442 0
M  V30 12844 N 1210.56 -1.39601 0.731392 0
M  V30 12845 C 1211.81 -2.0019 0.277208 0
M  V30 12846 C 1212.13 -1.5832 -1.13841 0
M  V30 12847 O 1211.4 -0.829793 -1.77458 0
M  V30 12848 H 1209.98 -0.740344 0.0995006 0
M  V30 12849 H 1212.64 -1.70704 0.940547 0
M  V30 12850 H 1211.74 -3.10427 0.322749 0
M  V30 12851 N 1212.04 -0.478751 -1.50152 0
M  V30 12852 C 1212.95 0.316554 -2.32455 0
M  V30 12853 C 1213.97 0.98871 -1.4318 0
M  V30 12854 O 1215.14 0.974998 -1.76226 0
M  V30 12855 C 1212.21 1.3799 -3.18056 0
M  V30 12856 C 1211.27 0.723534 -4.23159 0
M  V30 12857 C 1210.5 1.73621 -5.0467 0
M  V30 12858 O 1210.73 2.96362 -4.87366 0
M  V30 12859 O 1209.66 1.30381 -5.87609 0
M  V30 12860 H 1213.49 -0.356491 -3.016 0
M  V30 12861 H 1211.07 -0.24046 -1.47452 0
M  V30 12862 H 1212.95 1.99565 -3.71149 0
M  V30 12863 H 1211.63 2.03627 -2.5163 0
M  V30 12864 H 1210.54 0.0686296 -3.74037 0
M  V30 12865 H 1211.87 0.109979 -4.92077 0
M  V30 12866 N 1213.52 1.56172 -0.211661 0
M  V30 12867 C 1214.77 1.98332 0.423332 0
M  V30 12868 C 1215.1 1.09895 1.60115 0
M  V30 12869 O 1214.37 0.154477 1.93886 0
M  V30 12870 C 1214.66 3.49495 0.86747 0
M  V30 12871 C 1214.51 4.48708 -0.313302 0
M  V30 12872 C 1215.83 4.04793 1.72716 0
M  V30 12873 H 1212.95 0.72107 0.152402 0
M  V30 12874 H 1215.59 1.87521 -0.305912 0
M  V30 12875 H 1213.74 3.58839 1.48885 0
M  V30 12876 H 1215.41 4.51385 -0.951291 0
M  V30 12877 H 1213.66 4.2299 -0.96238 0
M  V30 12878 H 1214.33 5.51985 0.0402402 0
M  V30 12879 H 1216.8 3.98332 1.20296 0
M  V30 12880 H 1215.68 5.10898 2.00684 0
M  V30 12881 H 1215.94 3.51067 2.68709 0
M  V30 12882 N 1215 -0.0618163 1.57479 0
M  V30 12883 C 1216.41 -0.612461 1.76368 0
M  V30 12884 C 1216.76 -1.77381 0.838466 0
M  V30 12885 O 1215.89 -2.16386 0.0250211 0
M  V30 12886 C 1216.48 -1.11782 3.19829 0
M  V30 12887 C 1215.04 -1.61424 3.40028 0
M  V30 12888 C 1214.19 -0.53795 2.72032 0
M  V30 12889 H 1217.14 0.164382 1.57846 0
M  V30 12890 H 1217.16 -1.98634 3.24538 0
M  V30 12891 H 1216.67 -0.272353 3.87143 0
M  V30 12892 H 1214.77 -2.48263 2.77842 0
M  V30 12893 H 1214.88 -1.68431 4.48517 0
M  V30 12894 H 1213.25 -0.985355 2.34868 0
M  V30 12895 H 1214.03 0.297495 3.42009 0
M  V30 12896 N 1216.48 -1.54033 -0.333429 0
M  V30 12897 C 1217.41 -1.85719 -1.4153 0
M  V30 12898 C 1218.39 -0.713144 -1.54429 0
M  V30 12899 O 1219.57 -0.965984 -1.68471 0
M  V30 12900 C 1216.7 -2.07578 -2.78439 0
M  V30 12901 C 1215.66 -3.23411 -2.80338 0
M  V30 12902 C 1214.98 -3.30622 -4.2023 0
M  V30 12903 C 1216.28 -4.6129 -2.44968 0
M  V30 12904 H 1217.98 -2.76325 -1.15261 0
M  V30 12905 H 1215.52 -1.32957 -0.55303 0
M  V30 12906 H 1217.48 -2.28329 -3.5418 0
M  V30 12907 H 1216.2 -1.13713 -3.06165 0
M  V30 12908 H 1214.86 -3.02531 -2.07052 0
M  V30 12909 H 1214.51 -2.34333 -4.45081 0
M  V30 12910 H 1214.21 -4.08466 -4.22409 0
M  V30 12911 H 1215.73 -3.53596 -4.97798 0
M  V30 12912 H 1217.14 -4.81987 -3.10421 0
M  V30 12913 H 1215.54 -5.41611 -2.58414 0
M  V30 12914 H 1216.61 -4.6421 -1.40134 0
M  V30 12915 N 1217.95 0.594978 -1.45938 0
M  V30 12916 C 1218.86 1.73296 -1.58132 0
M  V30 12917 C 1219.88 1.67665 -0.465245 0
M  V30 12918 O 1221.06 1.87794 -0.727684 0
M  V30 12919 C 1218.12 3.09783 -1.55677 0
M  V30 12920 C 1217.18 3.26772 -2.78422 0
M  V30 12921 C 1216.42 4.56748 -2.76075 0
M  V30 12922 O 1216.64 5.39867 -1.84119 0
M  V30 12923 O 1215.57 4.76721 -3.67452 0
M  V30 12924 H 1219.4 1.65957 -2.54346 0
M  V30 12925 H 1216.98 0.760572 -1.28591 0
M  V30 12926 H 1218.87 3.91077 -1.56961 0
M  V30 12927 H 1217.54 3.17585 -0.626191 0
M  V30 12928 H 1216.45 2.45018 -2.82696 0
M  V30 12929 H 1217.78 3.23853 -3.70648 0
M  V30 12930 N 1219.43 1.33438 0.838571 0
M  V30 12931 C 1220.34 1.25753 1.98049 0
M  V30 12932 C 1221.36 0.168051 1.73187 0
M  V30 12933 O 1222.53 0.391691 1.97554 0
M  V30 12934 C 1219.6 0.997148 3.32051 0
M  V30 12935 C 1218.66 2.17667 3.70027 0
M  V30 12936 C 1217.89 1.92861 4.97635 0
M  V30 12937 O 1218.12 0.879072 5.63585 0
M  V30 12938 O 1217.05 2.79402 5.33121 0
M  V30 12939 H 1220.88 2.21786 2.07472 0
M  V30 12940 H 1218.46 1.13488 0.971645 0
M  V30 12941 H 1220.34 0.869099 4.1234 0
M  V30 12942 H 1219.02 0.0671036 3.2363 0
M  V30 12943 H 1217.93 2.36025 2.90246 0
M  V30 12944 H 1219.26 3.09006 3.83114 0
M  V30 12945 N 1220.91 -1.05686 1.16912 0
M  V30 12946 C 1221.84 -2.1329 0.839044 0
M  V30 12947 C 1222.86 -1.62047 -0.156392 0
M  V30 12948 O 1224.04 -1.78366 0.0692192 0
M  V30 12949 C 1221.14 -3.38122 0.229558 0
M  V30 12950 C 1220.32 -4.18659 1.26662 0
M  V30 12951 C 1219.38 -5.21842 0.675811 0
M  V30 12952 O 1218.4 -5.53049 1.3463 0
M  V30 12953 N 1219.6 -5.78034 -0.534532 0
M  V30 12954 H 1222.37 -2.42203 1.76515 0
M  V30 12955 H 1219.93 -1.2174 1.06729 0
M  V30 12956 H 1221.92 -4.04305 -0.178868 0
M  V30 12957 H 1220.49 -3.06783 -0.60023 0
M  V30 12958 H 1219.71 -3.4804 1.85099 0
M  V30 12959 H 1221 -4.6927 1.9663 0
M  V30 12960 H 1220.4 -5.54955 -1.09731 0
M  V30 12961 H 1218.96 -6.45763 -0.885087 0
M  V30 12962 N 1222.39 -0.968567 -1.24324 0
M  V30 12963 C 1223.63 -0.63879 -1.94162 0
M  V30 12964 C 1223.99 0.81112 -1.74025 0
M  V30 12965 O 1225.19 1.25116 -2.37906 0
M  V30 12966 C 1223.46 -1.00432 -3.42999 0
M  V30 12967 S 1225.02 -0.789227 -4.31644 0
M  V30 12968 H 1221.84 -0.234322 -0.671278 0
M  V30 12969 H 1224.44 -1.2457 -1.50673 0
M  V30 12970 H 1223.15 -2.05643 -3.55161 0
M  V30 12971 H 1222.68 -0.388221 -3.9148 0
M  V30 12972 H 1224.69 0.332976 -4.95082 0
M  V30 12973 N 1223.87 1.39211 -0.738786 0
M  V30 12974 C 1224.78 2.34374 -0.102958 0
M  V30 12975 C 1225.79 1.58514 0.717596 0
M  V30 12976 O 1226.97 1.90786 0.645186 0
M  V30 12977 C 1224.03 3.37562 0.790733 0
M  V30 12978 C 1223.09 4.29279 -0.0425028 0
M  V30 12979 C 1222.33 5.27539 0.808628 0
M  V30 12980 O 1222.55 5.32396 2.04722 0
M  V30 12981 O 1221.48 6.0144 0.235279 0
M  V30 12982 H 1225.31 2.90412 -0.888498 0
M  V30 12983 H 1222.9 1.40803 -0.499498 0
M  V30 12984 H 1224.78 4.00783 1.30196 0
M  V30 12985 H 1223.45 2.83903 1.55502 0
M  V30 12986 H 1222.36 3.69268 -0.599335 0
M  V30 12987 H 1223.69 4.86154 -0.7691 0
M  V30 12988 N 1225.34 0.486708 1.49896 0
M  V30 12989 C 1226.57 -0.0599944 2.06513 0
M  V30 12990 C 1226.98 -1.32662 1.34898 0
M  V30 12991 O 1226.33 -1.78915 0.416565 0
M  V30 12992 C 1226.39 -0.39838 3.57286 0
M  V30 12993 C 1226.05 0.768465 4.50493 0
M  V30 12994 C 1227.05 1.65495 4.92856 0
M  V30 12995 C 1224.73 0.96322 4.92978 0
M  V30 12996 C 1226.73 2.72046 5.76429 0
M  V30 12997 C 1224.41 2.03193 5.7633 0
M  V30 12998 C 1225.41 2.9089 6.17958 0
M  V30 12999 O 1225.1 3.95919 6.99645 0
M  V30 13000 H 1224.83 0.0107865 0.675914 0
M  V30 13001 H 1227.39 0.679087 1.93849 0
M  V30 13002 H 1225.62 -1.19086 3.67907 0
M  V30 13003 H 1227.31 -0.882003 3.96201 0
M  V30 13004 H 1228.07 1.51624 4.6069 0
M  V30 13005 H 1223.95 0.29004 4.60087 0
M  V30 13006 H 1227.49 3.40526 6.08841 0
M  V30 13007 H 1223.39 2.17064 6.07909 0
M  V30 13008 H 1224.16 3.93097 7.17925 0
M  V30 13009 N 1226.82 -1.56058 0.219941 0
M  V30 13010 C 1227.75 -2.2321 -0.685547 0
M  V30 13011 C 1228.73 -1.20328 -1.20229 0
M  V30 13012 O 1229.92 -1.48909 -1.24659 0
M  V30 13013 C 1227.05 -2.91076 -1.89452 0
M  V30 13014 C 1226 -4.00415 -1.51169 0
M  V30 13015 C 1225.33 -4.55569 -2.79931 0
M  V30 13016 C 1226.63 -5.17549 -0.702896 0
M  V30 13017 H 1228.32 -2.99136 -0.125671 0
M  V30 13018 H 1225.87 -1.43879 -0.0590043 0
M  V30 13019 H 1227.82 -3.36744 -2.53341 0
M  V30 13020 H 1226.55 -2.12594 -2.47934 0
M  V30 13021 H 1225.21 -3.55475 -0.896275 0
M  V30 13022 H 1224.85 -3.73819 -3.36553 0
M  V30 13023 H 1224.55 -5.29361 -2.55049 0
M  V30 13024 H 1226.08 -5.03955 -3.44764 0
M  V30 13025 H 1227.49 -5.59608 -1.24544 0
M  V30 13026 H 1225.89 -5.97563 -0.551234 0
M  V30 13027 H 1226.96 -4.84027 0.29083 0
M  V30 13028 N 1228.3 0.053464 -1.57509 0
M  V30 13029 C 1229.53 0.765301 -1.92764 0
M  V30 13030 C 1229.95 1.69385 -0.817943 0
M  V30 13031 O 1229.31 1.7986 0.228075 0
M  V30 13032 C 1229.36 1.51938 -3.27028 0
M  V30 13033 O 1228.46 2.63121 -3.17555 0
M  V30 13034 H 1227.8 0.207567 -0.630723 0
M  V30 13035 H 1230.33 0.0162254 -2.04594 0
M  V30 13036 H 1230.34 1.89466 -3.6134 0
M  V30 13037 H 1229.02 0.838207 -4.07366 0
M  V30 13038 H 1227.59 2.28316 -2.94832 0
M  V30 13039 N 1229.78 1.54207 0.325255 0
M  V30 13040 C 1231.01 1.76037 1.08141 0
M  V30 13041 C 1231.42 0.50816 1.82248 0
M  V30 13042 O 1230.76 -0.530709 1.75867 0
M  V30 13043 C 1230.82 2.89876 2.12632 0
M  V30 13044 C 1230.49 4.28841 1.57937 0
M  V30 13045 C 1231.48 5.09755 1.02205 0
M  V30 13046 C 1229.17 4.7538 1.62232 0
M  V30 13047 C 1231.16 6.35317 0.514929 0
M  V30 13048 C 1228.85 6.0091 1.11132 0
M  V30 13049 C 1229.85 6.80712 0.558575 0
M  V30 13050 O 1229.54 8.03881 0.05526 0
M  V30 13051 H 1229.27 0.591332 0.327571 0
M  V30 13052 H 1231.82 2.019 0.377572 0
M  V30 13053 H 1230.05 2.59581 2.86627 0
M  V30 13054 H 1231.74 2.99505 2.73955 0
M  V30 13055 H 1232.51 4.74955 0.981954 0
M  V30 13056 H 1228.39 4.1331 2.04195 0
M  V30 13057 H 1231.93 6.97551 0.0828314 0
M  V30 13058 H 1227.83 6.35201 1.14848 0
M  V30 13059 H 1228.59 8.18322 0.170842 0
M  V30 13060 N 1231.26 -0.58723 1.46251 0
M  V30 13061 C 1232.53 -1.34727 1.41802 0
M  V30 13062 C 1232.91 -2.10867 0.0991354 0
M  V30 13063 O 1232.26 -2.09194 -0.919242 0
M  V30 13064 C 1232.47 -2.27706 2.64482 0
M  V30 13065 C 1233.82 -2.89678 3.10438 0
M  V30 13066 O 1234.84 -2.38021 2.64999 0
M  V30 13067 O 1233.7 -3.83493 3.89352 0
M  V30 13068 H 1230.8 -0.605119 0.563702 0
M  V30 13069 H 1233.34 -0.608623 1.5841 0
M  V30 13070 H 1232.12 -1.70842 3.52035 0
M  V30 13071 H 1231.74 -3.08918 2.50311 0
M  V30 13072 N 1232.74 -1.33881 -0.831482 0
M  V30 13073 C 1233.7 -1.24654 -1.92339 0
M  V30 13074 C 1234.7 -0.163788 -1.59964 0
M  V30 13075 O 1235.89 -0.415829 -1.69164 0
M  V30 13076 C 1233.02 -0.922537 -3.2818 0
M  V30 13077 H 1234.21 -2.21717 -2.01944 0
M  V30 13078 H 1231.77 -1.18046 -1.02445 0
M  V30 13079 H 1232.5 0.0452872 -3.24268 0
M  V30 13080 H 1232.29 -1.70562 -3.53059 0
M  V30 13081 H 1233.78 -0.88292 -4.0816 0
M  V30 13082 N 1234.21 1.05064 -1.1747 0
M  V30 13083 C 1235.44 1.82299 -0.98903 0
M  V30 13084 C 1235.86 1.82441 0.457907 0
M  V30 13085 O 1235.22 1.23433 1.32793 0
M  V30 13086 C 1235.27 3.26239 -1.53624 0
M  V30 13087 O 1234.37 4.05507 -0.750857 0
M  V30 13088 H 1233.71 0.563601 -0.35107 0
M  V30 13089 H 1236.24 1.32386 -1.55997 0
M  V30 13090 H 1236.25 3.77038 -1.55906 0
M  V30 13091 H 1234.93 3.25451 -2.58949 0
M  V30 13092 H 1233.51 3.64227 -0.799548 0
M  V30 13093 N 1235.69 0.975146 1.23809 0
M  V30 13094 C 1236.62 0.469151 2.24347 0
M  V30 13095 C 1237.64 -0.426156 1.57123 0
M  V30 13096 O 1238.83 -0.231136 1.76997 0
M  V30 13097 C 1235.93 -0.34121 3.37178 0
M  V30 13098 C 1235.1 0.545968 4.33979 0
M  V30 13099 C 1234.16 -0.209648 5.25782 0
M  V30 13100 O 1233.18 0.398953 5.678 0
M  V30 13101 N 1234.39 -1.49713 5.60862 0
M  V30 13102 H 1237.15 1.33359 2.68394 0
M  V30 13103 H 1234.71 0.847814 1.37927 0
M  V30 13104 H 1236.7 -0.854924 3.95567 0
M  V30 13105 H 1235.27 -1.10663 2.92357 0
M  V30 13106 H 1234.49 1.24057 3.7417 0
M  V30 13107 H 1235.78 1.15077 4.95615 0
M  V30 13108 H 1235.18 -2.0132 5.28665 0
M  V30 13109 H 1233.74 -1.95639 6.21746 0
M  V30 13110 N 1237.17 -1.38817 0.746158 0
M  V30 13111 C 1238.42 -2.01049 0.308389 0
M  V30 13112 C 1238.77 -1.58162 -1.09556 0
M  V30 13113 O 1238.06 -0.805685 -1.73837 0
M  V30 13114 C 1238.26 -3.55571 0.361086 0
M  V30 13115 C 1238.09 -4.13461 1.76861 0
M  V30 13116 C 1236.86 -4.45556 2.38344 0
M  V30 13117 C 1239.05 -4.36233 2.72406 0
M  V30 13118 N 1237.04 -4.89011 3.71135 0
M  V30 13119 C 1238.41 -4.82016 3.8995 0
M  V30 13120 C 1240.46 -4.1832 2.70024 0
M  V30 13121 C 1239.17 -5.11763 5.05462 0
M  V30 13122 C 1241.19 -4.49187 3.84688 0
M  V30 13123 C 1240.55 -4.95186 5.00969 0
M  V30 13124 H 1236.65 -0.765593 0.159346 0
M  V30 13125 H 1239.24 -1.68556 0.97452 0
M  V30 13126 H 1237.41 -3.87427 -0.274742 0
M  V30 13127 H 1239.14 -4.04585 -0.0962937 0
M  V30 13128 H 1235.89 -4.33741 1.90172 0
M  V30 13129 H 1236.32 -5.15082 4.39339 0
M  V30 13130 H 1240.96 -3.8195 1.81312 0
M  V30 13131 H 1238.68 -5.47032 5.94795 0
M  V30 13132 H 1242.26 -4.36938 3.84156 0
M  V30 13133 H 1241.14 -5.18616 5.88224 0
M  V30 13134 N 1238.65 -0.49465 -1.49636 0
M  V30 13135 C 1239.56 0.291881 -2.32777 0
M  V30 13136 C 1240.57 0.973468 -1.44221 0
M  V30 13137 O 1241.75 0.956252 -1.77251 0
M  V30 13138 C 1238.81 1.34609 -3.19502 0
M  V30 13139 C 1237.88 0.678611 -4.23903 0
M  V30 13140 C 1237.11 1.68259 -5.06483 0
M  V30 13141 O 1237.33 2.91176 -4.90482 0
M  V30 13142 O 1236.27 1.24141 -5.88959 0
M  V30 13143 H 1240.09 -0.388459 -3.01205 0
M  V30 13144 H 1237.68 -0.256086 -1.47189 0
M  V30 13145 H 1239.56 1.95617 -3.73245 0
M  V30 13146 H 1238.23 2.00947 -2.53775 0
M  V30 13147 H 1237.14 0.0289541 -3.74089 0
M  V30 13148 H 1238.47 0.0577817 -4.92166 0
M  V30 13149 N 1240.13 1.55939 -0.228214 0
M  V30 13150 C 1241.37 1.98476 0.401677 0
M  V30 13151 C 1241.7 1.116 1.59297 0
M  V30 13152 O 1240.96 0.162465 1.95024 0
M  V30 13153 C 1241.25 3.46581 0.872732 0
M  V30 13154 C 1240.92 4.50416 -0.208767 0
M  V30 13155 C 1239.58 4.78534 -0.505847 0
M  V30 13156 C 1241.93 5.12656 -0.939852 0
M  V30 13157 C 1239.26 5.66171 -1.53841 0
M  V30 13158 C 1241.61 6.01412 -1.9618 0
M  V30 13159 C 1240.28 6.2787 -2.26573 0
M  V30 13160 H 1239.55 0.726276 0.146984 0
M  V30 13161 H 1242.2 1.88598 -0.332128 0
M  V30 13162 H 1240.5 3.53696 1.68541 0
M  V30 13163 H 1242.2 3.76869 1.37006 0
M  V30 13164 H 1238.79 4.28587 0.0329308 0
M  V30 13165 H 1242.97 4.90997 -0.723581 0
M  V30 13166 H 1238.23 5.84933 -1.77944 0
M  V30 13167 H 1242.4 6.48688 -2.53332 0
M  V30 13168 H 1240.03 6.95574 -3.06725 0
M  V30 13169 N 1241.6 -0.0451101 1.57535 0
M  V30 13170 C 1243.02 -0.59372 1.77008 0
M  V30 13171 C 1243.37 -1.76482 0.857233 0
M  V30 13172 O 1242.49 -2.16347 0.0479703 0
M  V30 13173 C 1243.09 -1.08383 3.20996 0
M  V30 13174 C 1241.65 -1.57808 3.41721 0
M  V30 13175 C 1240.79 -0.509067 2.72587 0
M  V30 13176 H 1243.74 0.181114 1.57663 0
M  V30 13177 H 1243.76 -1.95181 3.26626 0
M  V30 13178 H 1243.28 -0.231276 3.8741 0
M  V30 13179 H 1241.38 -2.45302 2.8046 0
M  V30 13180 H 1241.49 -1.63664 4.50279 0
M  V30 13181 H 1239.85 -0.960389 2.359 0
M  V30 13182 H 1240.64 0.333753 3.41674 0
M  V30 13183 N 1243.08 -1.54377 -0.317073 0
M  V30 13184 C 1244.5 -1.45232 -0.6618 0
M  V30 13185 C 1244.7 -0.630457 -1.91383 0
M  V30 13186 O 1243.75 -0.13181 -2.52156 0
M  V30 13187 C 1245.07 -2.89025 -0.829761 0
M  V30 13188 C 1246.62 -2.98967 -0.926685 0
M  V30 13189 C 1247.09 -4.43923 -1.12677 0
M  V30 13190 N 1248.58 -4.47564 -1.19335 0
M  V30 13191 C 1249.32 -5.56887 -1.36617 0
M  V30 13192 N 1248.81 -6.76167 -1.50899 0
M  V30 13193 N 1250.61 -5.44546 -1.39377 0
M  V30 13194 H 1242.76 -2.0629 0.505766 0
M  V30 13195 H 1245.02 -0.933615 0.164522 0
M  V30 13196 H 1244.73 -3.51695 0.0190945 0
M  V30 13197 H 1244.6 -3.35515 -1.72364 0
M  V30 13198 H 1246.99 -2.36421 -1.76604 0
M  V30 13199 H 1247.07 -2.55798 -0.00913402 0
M  V30 13200 H 1246.71 -5.07059 -0.29224 0
M  V30 13201 H 1246.64 -4.84708 -2.05829 0
M  V30 13202 H 1249.13 -3.61623 -1.09715 0
M  V30 13203 H 1249.45 -7.55242 -1.63796 0
M  V30 13204 H 1247.79 -6.79062 -1.47985 0
M  V30 13205 H 1250.98 -4.50311 -1.27819 0
M  V30 13206 H 1251.15 -6.29799 -1.52502 0
M  V30 13207 N 1244.56 0.579466 -1.4656 0
M  V30 13208 C 1245.47 1.71609 -1.59961 0
M  V30 13209 C 1246.49 1.67162 -0.483002 0
M  V30 13210 O 1247.66 1.87012 -0.747561 0
M  V30 13211 C 1244.73 3.08114 -1.58954 0
M  V30 13212 C 1243.79 3.238 -2.81872 0
M  V30 13213 C 1243.02 4.53794 -2.80904 0
M  V30 13214 O 1243.24 5.37884 -1.89835 0
M  V30 13215 O 1242.18 4.72796 -3.72488 0
M  V30 13216 H 1246 1.6325 -2.56092 0
M  V30 13217 H 1243.59 0.746891 -1.2939 0
M  V30 13218 H 1245.47 3.8939 -1.611 0
M  V30 13219 H 1244.15 3.16903 -0.65984 0
M  V30 13220 H 1243.05 2.42006 -2.85279 0
M  V30 13221 H 1244.39 3.19904 -3.74062 0
M  V30 13222 N 1246.04 1.3432 0.824371 0
M  V30 13223 C 1247.45 1.1397 1.11727 0
M  V30 13224 C 1247.65 -0.0597597 2.01411 0
M  V30 13225 O 1246.71 -0.735717 2.41544 0
M  V30 13226 C 1248.02 2.43423 1.76538 0
M  V30 13227 C 1249.57 2.49466 1.89039 0
M  V30 13228 C 1250.05 3.78917 2.57266 0
M  V30 13229 N 1251.54 3.8007 2.64767 0
M  V30 13230 C 1252.27 4.76953 3.18282 0
M  V30 13231 N 1251.77 5.84217 3.72373 0
M  V30 13232 N 1253.56 4.6441 3.1667 0
M  V30 13233 H 1245.71 2.11175 0.227802 0
M  V30 13234 H 1247.98 0.933774 0.163615 0
M  V30 13235 H 1247.68 3.31278 1.18102 0
M  V30 13236 H 1247.56 2.56655 2.7642 0
M  V30 13237 H 1249.94 1.62052 2.46623 0
M  V30 13238 H 1250.02 2.40163 0.880635 0
M  V30 13239 H 1249.67 4.6672 2.00336 0
M  V30 13240 H 1249.6 3.85502 3.58742 0
M  V30 13241 H 1252.09 3.02556 2.26425 0
M  V30 13242 H 1252.4 6.54159 4.11455 0
M  V30 13243 H 1250.75 5.87933 3.70621 0
M  V30 13244 H 1253.94 3.7976 2.73678 0
M  V30 13245 H 1254.11 5.40081 3.58073 0
M  V30 13246 N 1247.52 -1.0444 1.18026 0
M  V30 13247 C 1248.45 -2.14297 0.927314 0
M  V30 13248 C 1249.43 -1.69575 -0.13357 0
M  V30 13249 O 1250.61 -1.94191 0.0182439 0
M  V30 13250 C 1247.74 -3.44397 0.448134 0
M  V30 13251 C 1246.7 -4.02723 1.44907 0
M  V30 13252 C 1246.02 -5.28257 0.827555 0
M  V30 13253 C 1247.32 -4.39331 2.82463 0
M  V30 13254 H 1249.02 -2.35715 1.84605 0
M  V30 13255 H 1246.56 -1.13281 0.889012 0
M  V30 13256 H 1248.52 -4.20606 0.258554 0
M  V30 13257 H 1247.24 -3.22654 -0.506159 0
M  V30 13258 H 1245.9 -3.28591 1.62552 0
M  V30 13259 H 1245.55 -5.02822 -0.13381 0
M  V30 13260 H 1245.25 -5.68242 1.49581 0
M  V30 13261 H 1246.77 -6.07147 0.64842 0
M  V30 13262 H 1248.18 -5.06543 2.68491 0
M  V30 13263 H 1246.58 -4.90355 3.45936 0
M  V30 13264 H 1247.65 -3.4933 3.36299 0
M  V30 13265 N 1248.99 -0.981699 -1.2329 0
M  V30 13266 C 1249.94 -0.494116 -2.22581 0
M  V30 13267 C 1250.93 0.431573 -1.55004 0
M  V30 13268 O 1252.12 0.260215 -1.75077 0
M  V30 13269 C 1249.25 0.200884 -3.42712 0
M  V30 13270 C 1248.34 -0.744451 -4.17515 0
M  V30 13271 N 1248.73 -1.88762 -4.69257 0
M  V30 13272 C 1247.02 -0.558044 -4.42495 0
M  V30 13273 C 1247.73 -2.48006 -5.26182 0
M  V30 13274 N 1246.7 -1.76382 -5.14189 0
M  V30 13275 H 1250.5 -1.36616 -2.60218 0
M  V30 13276 H 1248.02 -0.842537 -1.38835 0
M  V30 13277 H 1250.01 0.567506 -4.13019 0
M  V30 13278 H 1248.67 1.0692 -3.06591 0
M  V30 13279 H 1249.69 -2.26877 -4.65561 0
M  V30 13280 H 1246.36 0.265139 -4.16657 0
M  V30 13281 H 1247.75 -3.44555 -5.76829 0
M  V30 13282 N 1250.47 1.3842 -0.753509 0
M  V30 13283 C 1251.4 2.33073 -0.141198 0
M  V30 13284 C 1252.38 1.54863 0.70367 0
M  V30 13285 O 1253.57 1.8318 0.644872 0
M  V30 13286 C 1250.7 3.39043 0.752802 0
M  V30 13287 C 1249.65 4.27999 0.0106692 0
M  V30 13288 C 1248.98 5.24824 1.02291 0
M  V30 13289 C 1250.28 5.09308 -1.15768 0
M  V30 13290 H 1251.97 2.84528 -0.93188 0
M  V30 13291 H 1249.52 1.36802 -0.449567 0
M  V30 13292 H 1251.47 4.04224 1.19083 0
M  V30 13293 H 1250.2 2.8607 1.57581 0
M  V30 13294 H 1248.85 3.64323 -0.407939 0
M  V30 13295 H 1248.5 4.68139 1.83998 0
M  V30 13296 H 1248.2 5.85196 0.53101 0
M  V30 13297 H 1249.73 5.92882 1.46026 0
M  V30 13298 H 1251.14 5.6773 -0.797203 0
M  V30 13299 H 1249.54 5.78914 -1.58044 0
M  V30 13300 H 1250.61 4.43051 -1.97062 0
M  V30 13301 N 1251.95 0.502579 1.49372 0
M  V30 13302 C 1253.2 -0.0412993 2.02058 0
M  V30 13303 C 1253.52 -1.37338 1.38431 0
M  V30 13304 O 1252.79 -1.88305 0.540175 0
M  V30 13305 H 1251.37 -0.0182522 0.746777 0
M  V30 13306 H 1254.03 0.660179 1.83378 0
M  V30 13307 H 1253.13 -0.169812 3.11638 0
M  V30 13308 N 1253.43 -1.55816 0.23648 0
M  V30 13309 C 1254.84 -1.59159 -0.118601 0
M  V30 13310 C 1255.04 -1.25352 -1.57763 0
M  V30 13311 O 1254.1 -0.995863 -2.32032 0
M  V30 13312 C 1255.41 -2.99885 0.221175 0
M  V30 13313 C 1256.96 -3.12567 0.164624 0
M  V30 13314 C 1257.44 -4.55496 0.478285 0
M  V30 13315 N 1258.93 -4.61215 0.428402 0
M  V30 13316 C 1259.66 -5.69768 0.644398 0
M  V30 13317 N 1259.16 -6.86624 0.922966 0
M  V30 13318 N 1260.95 -5.59143 0.575814 0
M  V30 13319 H 1253.1 -1.76063 1.18809 0
M  V30 13320 H 1255.37 -0.819079 0.477297 0
M  V30 13321 H 1255.07 -3.29326 1.2344 0
M  V30 13322 H 1254.95 -3.74425 -0.456723 0
M  V30 13323 H 1257.33 -2.82914 -0.839263 0
M  V30 13324 H 1257.41 -2.40325 0.876219 0
M  V30 13325 H 1257.06 -4.85868 1.47968 0
M  V30 13326 H 1256.99 -5.25984 -0.254671 0
M  V30 13327 H 1259.48 -3.77251 0.221398 0
M  V30 13328 H 1259.79 -7.6528 1.07548 0
M  V30 13329 H 1258.14 -6.88333 0.960325 0
M  V30 13330 H 1261.33 -4.66727 0.358307 0
M  V30 13331 H 1261.5 -6.43674 0.747548 0
M  V30 13332 N 1254.91 0.036755 -1.57557 0
M  V30 13333 C 1256.15 0.730186 -1.89199 0
M  V30 13334 C 1256.49 1.75414 -0.833271 0
M  V30 13335 O 1255.76 1.93901 0.152579 0
M  V30 13336 C 1256.04 1.40669 -3.31488 0
M  V30 13337 C 1255.9 0.396764 -4.48047 0
M  V30 13338 C 1257.22 2.34268 -3.72567 0
M  V30 13339 H 1254.33 0.263983 -0.6881 0
M  V30 13340 H 1256.98 -0.0069847 -1.89999 0
M  V30 13341 H 1255.13 2.03502 -3.30937 0
M  V30 13342 H 1256.8 -0.229062 -4.60731 0
M  V30 13343 H 1255.04 -0.284698 -4.32865 0
M  V30 13344 H 1255.71 0.908436 -5.44474 0
M  V30 13345 H 1258.19 1.81485 -3.74436 0
M  V30 13346 H 1257.06 2.78587 -4.72949 0
M  V30 13347 H 1257.33 3.20611 -3.04403 0
M  V30 13348 N 1256.39 1.54543 0.308881 0
M  V30 13349 C 1257.32 1.87947 1.38557 0
M  V30 13350 C 1258.3 0.737622 1.53275 0
M  V30 13351 O 1259.48 0.992664 1.66913 0
M  V30 13352 C 1256.61 2.11982 2.75102 0
M  V30 13353 C 1255.57 3.2783 2.75158 0
M  V30 13354 C 1254.89 3.37266 4.14917 0
M  V30 13355 C 1256.19 4.65129 2.37598 0
M  V30 13356 H 1257.89 2.78123 1.1085 0
M  V30 13357 H 1255.43 1.3382 0.531808 0
M  V30 13358 H 1257.38 2.33935 3.50503 0
M  V30 13359 H 1256.11 1.18569 3.04317 0
M  V30 13360 H 1254.77 3.05787 2.02212 0
M  V30 13361 H 1254.42 2.41384 4.41296 0
M  V30 13362 H 1254.12 4.15135 4.15857 0
M  V30 13363 H 1255.64 3.61471 4.92109 0
M  V30 13364 H 1257.05 4.86865 3.02714 0
M  V30 13365 H 1255.45 5.45653 2.49765 0
M  V30 13366 H 1256.52 4.6638 1.32731 0
M  V30 13367 N 1257.86 -0.571685 1.46866 0
M  V30 13368 C 1259.11 -1.32685 1.52444 0
M  V30 13369 C 1259.43 -1.94147 0.182225 0
M  V30 13370 O 1258.7 -1.79159 -0.792385 0
M  V30 13371 H 1257.28 -0.492679 0.561495 0
M  V30 13372 H 1259.94 -0.668694 1.8307 0
M  V30 13373 H 1259.04 -2.12788 2.28315 0
M  V30 13374 N 1259.34 -1.34755 -0.817236 0
M  V30 13375 C 1260.57 -1.30333 -1.60303 0
M  V30 13376 C 1260.98 0.12357 -1.88796 0
M  V30 13377 O 1260.32 1.08279 -1.48396 0
M  V30 13378 C 1260.38 -2.03179 -2.96578 0
M  V30 13379 C 1260.05 -3.52414 -2.90952 0
M  V30 13380 C 1261.05 -4.47213 -2.65136 0
M  V30 13381 C 1258.73 -3.9491 -3.10405 0
M  V30 13382 C 1260.72 -5.82481 -2.58832 0
M  V30 13383 C 1258.41 -5.30277 -3.03726 0
M  V30 13384 C 1259.41 -6.23875 -2.77973 0
M  V30 13385 O 1259.1 -7.5676 -2.71237 0
M  V30 13386 H 1258.83 -0.449615 -0.5048 0
M  V30 13387 H 1261.38 -1.7803 -1.02443 0
M  V30 13388 H 1259.61 -1.50104 -3.56379 0
M  V30 13389 H 1261.3 -1.91972 -3.57633 0
M  V30 13390 H 1262.07 -4.157 -2.49836 0
M  V30 13391 H 1257.95 -3.22451 -3.29464 0
M  V30 13392 H 1261.49 -6.55508 -2.38652 0
M  V30 13393 H 1257.39 -5.61406 -3.1858 0
M  V30 13394 H 1258.16 -7.66562 -2.86923 0
M  V30 13395 N 1260.82 1.03812 -1.18578 0
M  V30 13396 C 1262.07 1.76706 -0.980776 0
M  V30 13397 C 1262.39 1.88729 0.490562 0
M  V30 13398 O 1261.66 1.41413 1.35569 0
M  V30 13399 H 1260.24 0.654586 -0.359898 0
M  V30 13400 H 1262.9 1.25274 -1.49306 0
M  V30 13401 H 1262 2.77876 -1.42096 0
M  V30 13402 N 1262.3 0.988223 1.22768 0
M  V30 13403 C 1263.26 0.539813 2.22752 0
M  V30 13404 C 1264.26 -0.374796 1.56371 0
M  V30 13405 O 1265.45 -0.167402 1.73394 0
M  V30 13406 C 1262.58 -0.215461 3.40218 0
M  V30 13407 H 1263.78 1.42397 2.63938 0
M  V30 13408 H 1261.33 0.774933 1.35737 0
M  V30 13409 H 1262.06 -1.11581 3.045 0
M  V30 13410 H 1261.85 0.441173 3.8961 0
M  V30 13411 H 1263.34 -0.517517 4.14381 0
M  V30 13412 N 1263.78 -1.38018 0.760839 0
M  V30 13413 C 1265.02 -1.99952 0.320241 0
M  V30 13414 C 1265.35 -1.60397 -1.10014 0
M  V30 13415 O 1264.61 -0.836407 -1.76926 0
M  V30 13416 C 1264.9 -3.55168 0.398778 0
M  V30 13417 C 1264.57 -4.14457 1.77585 0
M  V30 13418 C 1263.23 -4.30363 2.15269 0
M  V30 13419 C 1265.58 -4.47089 2.67883 0
M  V30 13420 C 1262.91 -4.762 3.4271 0
M  V30 13421 C 1265.26 -4.94345 3.94722 0
M  V30 13422 C 1263.93 -5.08458 4.32466 0
M  V30 13423 H 1263.2 -0.731675 0.117185 0
M  V30 13424 H 1265.85 -1.64955 0.972736 0
M  V30 13425 H 1264.15 -3.90346 -0.337273 0
M  V30 13426 H 1265.85 -4.00981 0.0393393 0
M  V30 13427 H 1262.44 -4.02496 1.47292 0
M  V30 13428 H 1266.62 -4.34395 2.40031 0
M  V30 13429 H 1261.88 -4.85312 3.71863 0
M  V30 13430 H 1266.05 -5.18563 4.64828 0
M  V30 13431 H 1263.68 -5.43735 5.31278 0
M  V30 13432 N 1265.25 -0.510493 -1.49103 0
M  V30 13433 C 1266.5 0.0305831 -2.02077 0
M  V30 13434 C 1266.82 1.36602 -1.39157 0
M  V30 13435 O 1266.09 1.88016 -0.550154 0
M  V30 13436 H 1264.67 0.0142916 -0.746863 0
M  V30 13437 H 1267.33 -0.669895 -1.83026 0
M  V30 13438 H 1266.43 0.153283 -3.11723 0
M  V30 13439 N 1266.73 1.55688 -0.24474 0
M  V30 13440 C 1267.68 2.21289 0.655723 0
M  V30 13441 C 1268.65 1.17606 1.17295 0
M  V30 13442 O 1269.83 1.46045 1.22782 0
M  V30 13443 C 1266.97 2.91453 1.84794 0
M  V30 13444 C 1266.09 4.09787 1.36744 0
M  V30 13445 C 1265.22 4.67672 2.51905 0
M  V30 13446 C 1264.26 5.78259 2.00706 0
M  V30 13447 N 1263.4 6.30336 3.09225 0
M  V30 13448 H 1268.24 2.97865 0.0896156 0
M  V30 13449 H 1265.77 1.47064 0.0324725 0
M  V30 13450 H 1267.73 3.30331 2.54828 0
M  V30 13451 H 1266.36 2.17355 2.38656 0
M  V30 13452 H 1265.41 3.76237 0.561228 0
M  V30 13453 H 1266.73 4.89627 0.952199 0
M  V30 13454 H 1265.88 5.09113 3.29984 0
M  V30 13455 H 1264.62 3.87044 2.9673 0
M  V30 13456 H 1263.62 5.36298 1.21097 0
M  V30 13457 H 1264.85 6.60737 1.56853 0
M  V30 13458 H 1262.8 5.52614 3.53489 0
M  V30 13459 H 1262.71 7.05364 2.72025 0
M  V30 13460 H 1263.98 6.76435 3.8737 0
M  V30 13461 N 1268.21 -0.0283989 1.57574 0
M  V30 13462 C 1269.46 -0.720142 1.89583 0
M  V30 13463 C 1269.79 -1.7497 0.842562 0
M  V30 13464 O 1269.06 -1.93979 -0.142294 0
M  V30 13465 C 1269.35 -1.38909 3.32229 0
M  V30 13466 C 1269.2 -0.372998 4.48251 0
M  V30 13467 C 1270.52 -2.32289 3.73804 0
M  V30 13468 H 1267.64 -0.26033 0.689491 0
M  V30 13469 H 1270.28 0.0170607 1.89992 0
M  V30 13470 H 1268.43 -2.01744 3.32011 0
M  V30 13471 H 1270.1 0.253492 4.60603 0
M  V30 13472 H 1268.34 0.30765 4.32708 0
M  V30 13473 H 1269.02 -0.879549 5.44948 0
M  V30 13474 H 1271.49 -1.79497 3.75393 0
M  V30 13475 H 1270.37 -2.76075 4.74419 0
M  V30 13476 H 1270.63 -3.18992 3.06099 0
M  V30 13477 N 1269.69 -1.54705 -0.300681 0
M  V30 13478 C 1270.93 -1.74259 -1.03738 0
M  V30 13479 C 1271.27 -0.52703 -1.86912 0
M  V30 13480 O 1270.54 0.475862 -1.88589 0
M  V30 13481 C 1270.82 -3.03175 -1.94311 0
M  V30 13482 C 1270.68 -4.35031 -1.14315 0
M  V30 13483 C 1272 -3.27962 -2.93478 0
M  V30 13484 H 1269.12 -0.634031 -0.37573 0
M  V30 13485 H 1271.76 -1.87421 -0.312012 0
M  V30 13486 H 1269.91 -2.92086 -2.5616 0
M  V30 13487 H 1271.58 -4.5804 -0.547489 0
M  V30 13488 H 1269.82 -4.31503 -0.44587 0
M  V30 13489 H 1270.49 -5.21502 -1.80941 0
M  V30 13490 H 1272.97 -3.38663 -2.41757 0
M  V30 13491 H 1271.85 -4.19481 -3.54016 0
M  V30 13492 H 1272.11 -2.46273 -3.67154 0
M  V30 13493 N 1271.17 0.563888 -1.47167 0
M  V30 13494 C 1272.08 1.69903 -1.61772 0
M  V30 13495 C 1273.09 1.6664 -0.500705 0
M  V30 13496 O 1274.27 1.86209 -0.767354 0
M  V30 13497 C 1271.33 3.06411 -1.62213 0
M  V30 13498 C 1270.39 3.20793 -2.8529 0
M  V30 13499 C 1269.63 4.50789 -2.85701 0
M  V30 13500 O 1269.85 5.3584 -1.95529 0
M  V30 13501 O 1268.78 4.68819 -3.77481 0
M  V30 13502 H 1272.61 1.60525 -2.57809 0
M  V30 13503 H 1270.2 0.733125 -1.30175 0
M  V30 13504 H 1272.08 3.87659 -1.65221 0
M  V30 13505 H 1270.75 3.16186 -0.693415 0
M  V30 13506 H 1269.66 2.38967 -2.87829 0
M  V30 13507 H 1270.99 3.15918 -3.77434 0
M  V30 13508 N 1272.64 1.35187 0.810078 0
M  V30 13509 C 1273.61 1.27698 1.90331 0
M  V30 13510 C 1274.61 0.189216 1.59683 0
M  V30 13511 O 1275.8 0.442689 1.68481 0
M  V30 13512 C 1272.93 0.974631 3.26671 0
M  V30 13513 H 1274.12 2.24902 1.98392 0
M  V30 13514 H 1271.68 1.1966 1.00554 0
M  V30 13515 H 1272.41 0.0063068 3.24299 0
M  V30 13516 H 1272.2 1.76158 3.50301 0
M  V30 13517 H 1273.69 0.947743 4.06703 0
M  V30 13518 N 1274.12 -1.03182 1.19127 0
M  V30 13519 C 1275.35 -1.80703 1.01791 0
M  V30 13520 C 1275.77 -1.83147 -0.428824 0
M  V30 13521 O 1275.13 -1.2553 -1.30812 0
M  V30 13522 C 1275.18 -3.23754 1.58794 0
M  V30 13523 O 1274.28 -4.04261 0.815274 0
M  V30 13524 H 1273.62 -0.557944 0.359992 0
M  V30 13525 H 1276.15 -1.29887 1.58084 0
M  V30 13526 H 1276.16 -3.7451 1.61884 0
M  V30 13527 H 1274.84 -3.2129 2.64094 0
M  V30 13528 H 1273.42 -3.62909 0.857392 0
M  V30 13529 N 1275.6 -0.99472 -1.22242 0
M  V30 13530 C 1276.56 -0.551619 -2.22463 0
M  V30 13531 C 1277.56 0.366498 -1.56568 0
M  V30 13532 O 1278.75 0.158204 -1.7348 0
M  V30 13533 C 1275.89 0.197416 -3.40328 0
M  V30 13534 H 1277.08 -1.43795 -2.63179 0
M  V30 13535 H 1274.63 -0.782121 -1.35324 0
M  V30 13536 H 1275.37 1.09965 -3.05087 0
M  V30 13537 H 1275.15 -0.461829 -3.89371 0
M  V30 13538 H 1276.64 0.495534 -4.1465 0
M  V30 13539 N 1277.08 1.37613 -0.768148 0
M  V30 13540 C 1278.33 1.99779 -0.330841 0
M  V30 13541 C 1278.65 1.60978 1.09162 0
M  V30 13542 O 1277.91 0.845778 1.7648 0
M  V30 13543 C 1278.21 3.54952 -0.417608 0
M  V30 13544 C 1277.87 4.13509 -1.7978 0
M  V30 13545 C 1276.54 4.29216 -2.17549 0
M  V30 13546 C 1278.89 4.45662 -2.7025 0
M  V30 13547 C 1276.22 4.74376 -3.45231 0
M  V30 13548 C 1278.57 4.92245 -3.97338 0
M  V30 13549 C 1277.23 5.06157 -4.35157 0
M  V30 13550 H 1276.5 0.731044 -0.121063 0
M  V30 13551 H 1279.15 1.64437 -0.98147 0
M  V30 13552 H 1277.45 3.90519 0.316567 0
M  V30 13553 H 1279.15 4.00954 -0.0606037 0
M  V30 13554 H 1275.74 4.01709 -1.49425 0
M  V30 13555 H 1279.92 4.33116 -2.42332 0
M  V30 13556 H 1275.18 4.83333 -3.74431 0
M  V30 13557 H 1279.35 5.16091 -4.67572 0
M  V30 13558 H 1276.98 5.4091 -5.34154 0
M  V30 13559 N 1278.56 0.518393 1.4883 0
M  V30 13560 C 1279.8 -0.019866 2.0209 0
M  V30 13561 C 1280.13 -1.35863 1.3988 0
M  V30 13562 O 1279.4 -1.87722 0.560117 0
M  V30 13563 H 1277.98 -0.0103306 0.746929 0
M  V30 13564 H 1280.64 0.679591 1.82668 0
M  V30 13565 H 1279.73 -0.136749 3.118 0
M  V30 13566 N 1280.03 -1.55556 0.252993 0
M  V30 13567 C 1281.28 -1.98267 -0.370571 0
M  V30 13568 C 1281.6 -1.14449 -1.58622 0
M  V30 13569 O 1282.8 -1.472 -2.28132 0
M  V30 13570 C 1281.26 -3.52813 -0.710685 0
M  V30 13571 C 1280.87 -4.45379 0.483908 0
M  V30 13572 C 1282.61 -4.04165 -1.2981 0
M  V30 13573 C 1280.52 -5.91279 0.119611 0
M  V30 13574 H 1279.45 -0.740463 -0.142232 0
M  V30 13575 H 1282.1 -1.8005 0.354169 0
M  V30 13576 H 1280.48 -3.66748 -1.49372 0
M  V30 13577 H 1281.65 -4.43206 1.26116 0
M  V30 13578 H 1279.97 -4.04542 0.986664 0
M  V30 13579 H 1282.57 -5.10696 -1.5841 0
M  V30 13580 H 1282.91 -3.51875 -2.22462 0
M  V30 13581 H 1283.44 -3.93581 -0.577836 0
M  V30 13582 H 1280.18 -6.47619 1.01343 0
M  V30 13583 H 1279.7 -5.96573 -0.621318 0
M  V30 13584 H 1281.38 -6.46322 -0.296052 0
M  V30 13585 N 1281.51 0.0200419 -1.57587 0
M  V30 13586 C 1282.46 1.0259 -2.03615 0
M  V30 13587 C 1283.45 1.31504 -0.927116 0
M  V30 13588 O 1284.64 1.30938 -1.19098 0
M  V30 13589 C 1281.77 2.32424 -2.52654 0
M  V30 13590 C 1280.85 2.06561 -3.70396 0
M  V30 13591 N 1281.24 1.50787 -4.82801 0
M  V30 13592 C 1279.54 2.36802 -3.77943 0
M  V30 13593 C 1280.24 1.40935 -5.64369 0
M  V30 13594 N 1279.22 1.88806 -5.09758 0
M  V30 13595 H 1283.02 0.588835 -2.87941 0
M  V30 13596 H 1280.54 0.226163 -1.60817 0
M  V30 13597 H 1282.53 3.05303 -2.83894 0
M  V30 13598 H 1281.19 2.76801 -1.69738 0
M  V30 13599 H 1282.2 1.18935 -5.04058 0
M  V30 13600 H 1278.88 2.84192 -3.05845 0
M  V30 13601 H 1280.27 0.982261 -6.64681 0
M  V30 13602 N 1282.99 1.54862 0.292472 0
M  V30 13603 C 1283.94 1.86403 1.36098 0
M  V30 13604 C 1284.91 0.713694 1.49985 0
M  V30 13605 O 1286.09 0.963134 1.64707 0
M  V30 13606 C 1283.23 2.1244 2.71962 0
M  V30 13607 C 1282.35 3.40038 2.66454 0
M  V30 13608 C 1281.48 3.55875 3.94368 0
M  V30 13609 C 1280.52 4.77235 3.83293 0
M  V30 13610 N 1279.66 4.89832 5.03 0
M  V30 13611 H 1284.5 2.77546 1.085 0
M  V30 13612 H 1282.03 1.37427 0.524607 0
M  V30 13613 H 1283.99 2.25533 3.50985 0
M  V30 13614 H 1282.62 1.24554 2.97802 0
M  V30 13615 H 1281.67 3.35521 1.79248 0
M  V30 13616 H 1282.99 4.29188 2.54163 0
M  V30 13617 H 1282.14 3.68679 4.8183 0
M  V30 13618 H 1280.88 2.64874 4.09503 0
M  V30 13619 H 1279.88 4.64455 2.94214 0
M  V30 13620 H 1281.11 5.69651 3.69695 0
M  V30 13621 H 1279.05 4.01756 5.18582 0
M  V30 13622 H 1278.97 5.72996 4.93165 0
M  V30 13623 H 1280.24 5.07001 5.92089 0
M  V30 13624 N 1284.47 -0.556076 1.47464 0
M  V30 13625 C 1285.72 -1.31061 1.53842 0
M  V30 13626 C 1286.04 -1.93943 0.202806 0
M  V30 13627 O 1285.31 -1.7999 -0.773338 0
M  V30 13628 H 1283.89 -0.486696 0.566689 0
M  V30 13629 H 1286.55 -0.64924 1.83769 0
M  V30 13630 H 1285.65 -2.10354 2.30559 0
M  V30 13631 N 1285.95 -1.35615 -0.802897 0
M  V30 13632 C 1287.17 -1.32377 -1.59659 0
M  V30 13633 C 1287.6 0.0954235 -1.87858 0
M  V30 13634 O 1286.96 1.06336 -1.46842 0
M  V30 13635 C 1287 -2.13972 -2.90256 0
M  V30 13636 O 1286.11 -1.52296 -3.83249 0
M  V30 13637 H 1285.45 -0.453699 -0.484823 0
M  V30 13638 H 1287.98 -1.78708 -0.996217 0
M  V30 13639 H 1287.99 -2.26061 -3.39647 0
M  V30 13640 H 1286.66 -3.17145 -2.69057 0
M  V30 13641 H 1285.24 -1.49068 -3.41809 0
M  V30 13642 N 1287.43 1.02549 -1.19673 0
M  V30 13643 C 1288.65 1.8016 -1.02748 0
M  V30 13644 C 1289.08 1.83372 0.419105 0
M  V30 13645 O 1288.43 1.26222 1.30144 0
M  V30 13646 C 1288.48 3.22907 -1.60509 0
M  V30 13647 O 1287.59 4.03823 -0.836702 0
M  V30 13648 H 1286.93 0.556027 -0.362946 0
M  V30 13649 H 1289.46 1.29047 -1.5877 0
M  V30 13650 H 1289.47 3.73646 -1.63868 0
M  V30 13651 H 1288.14 3.19885 -2.65794 0
M  V30 13652 H 1286.72 3.6245 -0.876626 0
M  V30 13653 N 1288.9 1.00119 1.21713 0
M  V30 13654 C 1290.14 0.690044 1.924 0
M  V30 13655 C 1290.51 -0.764695 1.76115 0
M  V30 13656 O 1291.71 -1.18764 2.4114 0
M  V30 13657 C 1289.98 1.09491 3.40215 0
M  V30 13658 S 1291.54 0.903392 4.294 0
M  V30 13659 H 1288.36 0.252037 0.66483 0
M  V30 13660 H 1290.96 1.28521 1.47318 0
M  V30 13661 H 1289.66 2.14987 3.49584 0
M  V30 13662 H 1289.19 0.491878 3.90313 0
M  V30 13663 H 1291.21 -0.201597 4.9579 0
M  V30 13664 N 1290.38 -1.37203 0.775435 0
M  V30 13665 C 1291.66 -1.93783 0.266005 0
M  V30 13666 C 1292.04 -1.70875 -1.23956 0
M  V30 13667 O 1291.39 -1.05965 -2.02444 0
M  V30 13668 C 1291.6 -3.43018 0.643404 0
M  V30 13669 C 1292.94 -4.20119 0.615267 0
M  V30 13670 O 1293.97 -3.51396 0.583018 0
M  V30 13671 O 1292.83 -5.42673 0.645637 0
M  V30 13672 H 1289.92 -0.824649 0.0623107 0
M  V30 13673 H 1292.47 -1.46468 0.857036 0
M  V30 13674 H 1291.24 -3.5329 1.68232 0
M  V30 13675 H 1290.86 -3.97592 0.0255138 0
M  V30 13676 N 1291.86 -0.526279 -1.48553 0
M  V30 13677 C 1293.09 0.0052277 -2.06899 0
M  V30 13678 C 1293.5 1.2849 -1.38332 0
M  V30 13679 O 1292.86 1.76354 -0.469648 0
M  V30 13680 C 1292.91 0.236709 -3.60724 0
M  V30 13681 O 1292.63 -0.992256 -4.26715 0
M  V30 13682 C 1294.13 0.809014 -4.35855 0
M  V30 13683 H 1291.35 -0.0318426 -0.670244 0
M  V30 13684 H 1293.9 -0.730865 -1.90994 0
M  V30 13685 H 1292.05 0.922842 -3.76248 0
M  V30 13686 H 1292.47 -0.770697 -5.18807 0
M  V30 13687 H 1293.94 0.920428 -5.44272 0
M  V30 13688 H 1294.42 1.81302 -4.00033 0
M  V30 13689 H 1295.02 0.159564 -4.25001 0
M  V30 13690 N 1293.34 1.5542 -0.261239 0
M  V30 13691 C 1294.58 1.99579 0.36002 0
M  V30 13692 C 1294.92 1.14933 1.56538 0
M  V30 13693 O 1294.19 0.216082 1.93296 0
M  V30 13694 C 1294.47 3.52078 0.755842 0
M  V30 13695 C 1294.33 4.47484 -0.455896 0
M  V30 13696 C 1295.65 4.10083 1.5975 0
M  V30 13697 H 1292.77 0.725554 0.129385 0
M  V30 13698 H 1295.41 1.86453 -0.365415 0
M  V30 13699 H 1293.56 3.63394 1.37393 0
M  V30 13700 H 1295.23 4.4813 -1.09441 0
M  V30 13701 H 1293.47 4.19714 -1.09646 0
M  V30 13702 H 1294.14 5.51834 -0.13539 0
M  V30 13703 H 1296.62 4.01957 1.07562 0
M  V30 13704 H 1295.5 5.17024 1.84329 0
M  V30 13705 H 1295.76 3.59438 2.57404 0
M  V30 13706 N 1294.82 -0.0116844 1.57596 0
M  V30 13707 C 1295.78 -0.991601 2.0664 0
M  V30 13708 C 1296.78 -1.27973 0.973629 0
M  V30 13709 O 1297.97 -1.22686 1.23668 0
M  V30 13710 C 1295.1 -2.31975 2.49801 0
M  V30 13711 H 1296.29 -0.567607 2.9448 0
M  V30 13712 H 1293.85 -0.258906 1.54141 0
M  V30 13713 H 1294.58 -2.79087 1.65169 0
M  V30 13714 H 1294.37 -2.12386 3.29598 0
M  V30 13715 H 1295.86 -3.02294 2.88112 0
M  V30 13716 N 1296.29 -1.55015 -0.284256 0
M  V30 13717 C 1297.54 -1.7535 -1.01884 0
M  V30 13718 C 1297.87 -0.546825 -1.86342 0
M  V30 13719 O 1297.15 0.455832 -1.89083 0
M  V30 13720 C 1297.43 -3.05219 -1.91084 0
M  V30 13721 C 1297.28 -4.36219 -1.09694 0
M  V30 13722 C 1298.6 -3.31056 -2.89983 0
M  V30 13723 H 1295.72 -0.637981 -0.368984 0
M  V30 13724 H 1298.36 -1.87741 -0.292116 0
M  V30 13725 H 1296.51 -2.94786 -2.53048 0
M  V30 13726 H 1298.19 -4.58594 -0.498876 0
M  V30 13727 H 1296.43 -4.31951 -0.400078 0
M  V30 13728 H 1297.1 -5.23392 -1.75399 0
M  V30 13729 H 1299.58 -3.41209 -2.38151 0
M  V30 13730 H 1298.45 -4.23212 -3.49547 0
M  V30 13731 H 1298.71 -2.50153 -3.64521 0
M  V30 13732 N 1297.77 0.548248 -1.47757 0
M  V30 13733 C 1298.72 1.65453 -1.60916 0
M  V30 13734 C 1299.69 1.59836 -0.451831 0
M  V30 13735 O 1300.87 1.78536 -0.673023 0
M  V30 13736 C 1298.01 3.0376 -1.6378 0
M  V30 13737 C 1297.13 3.19747 -2.90492 0
M  V30 13738 C 1296.26 4.48505 -2.84635 0
M  V30 13739 C 1295.3 4.57956 -4.06132 0
M  V30 13740 N 1294.44 5.78079 -3.98458 0
M  V30 13741 H 1299.28 1.53545 -2.55398 0
M  V30 13742 H 1296.81 0.747826 -1.26673 0
M  V30 13743 H 1298.77 3.8386 -1.63424 0
M  V30 13744 H 1297.4 3.14483 -0.728036 0
M  V30 13745 H 1296.45 2.3302 -3.00676 0
M  V30 13746 H 1297.77 3.22594 -3.8044 0
M  V30 13747 H 1296.92 5.36875 -2.82577 0
M  V30 13748 H 1295.66 4.48151 -1.92385 0
M  V30 13749 H 1294.66 3.67995 -4.08484 0
M  V30 13750 H 1295.89 4.60062 -4.9952 0
M  V30 13751 H 1293.84 5.78657 -3.09017 0
M  V30 13752 H 1293.75 5.82342 -4.82093 0
M  V30 13753 H 1295.02 6.68786 -4.00431 0
M  V30 13754 N 1299.25 1.36039 0.795694 0
M  V30 13755 C 1300.18 1.24209 1.91435 0
M  V30 13756 C 1301.16 0.127593 1.62099 0
M  V30 13757 O 1302.34 0.297619 1.86136 0
M  V30 13758 C 1299.47 0.915006 3.26106 0
M  V30 13759 C 1298.52 2.04307 3.74381 0
M  V30 13760 S 1299.35 3.66016 3.90887 0
M  V30 13761 C 1300.51 3.35408 5.28443 0
M  V30 13762 H 1300.74 2.18895 2.01177 0
M  V30 13763 H 1298.27 1.21381 0.954251 0
M  V30 13764 H 1300.23 0.733104 4.03901 0
M  V30 13765 H 1298.89 -0.0139734 3.14097 0
M  V30 13766 H 1298.08 1.76863 4.71949 0
M  V30 13767 H 1297.69 2.18387 3.03617 0
M  V30 13768 H 1299.98 2.88912 6.1281 0
M  V30 13769 H 1300.92 4.32216 5.60887 0
M  V30 13770 H 1301.33 2.70909 4.95246 0
M  V30 13771 N 1300.73 -1.01913 1.20215 0
M  V30 13772 C 1301.66 -2.12282 0.97256 0
M  V30 13773 C 1302.64 -1.6982 -0.0975709 0
M  V30 13774 O 1303.82 -1.94109 0.0594307 0
M  V30 13775 C 1300.95 -3.43369 0.521085 0
M  V30 13776 C 1299.91 -3.99559 1.53417 0
M  V30 13777 C 1299.23 -5.26383 0.93942 0
M  V30 13778 C 1300.53 -4.33241 2.91718 0
M  V30 13779 H 1302.23 -2.31746 1.89563 0
M  V30 13780 H 1299.77 -1.1137 0.912841 0
M  V30 13781 H 1301.73 -4.19963 0.347713 0
M  V30 13782 H 1300.45 -3.23655 -0.437605 0
M  V30 13783 H 1299.11 -3.25069 1.69486 0
M  V30 13784 H 1298.76 -5.02993 -0.0271236 0
M  V30 13785 H 1298.46 -5.64942 1.616 0
M  V30 13786 H 1299.98 -6.05635 0.777059 0
M  V30 13787 H 1301.4 -5.00734 2.79175 0
M  V30 13788 H 1299.79 -4.82907 3.56259 0
M  V30 13789 H 1300.86 -3.42118 3.43633 0
M  V30 13790 N 1302.21 -1.00763 -1.2118 0
M  V30 13791 C 1303.15 -0.570257 -2.23644 0
M  V30 13792 C 1304.12 0.405039 -1.61086 0
M  V30 13793 O 1305.31 0.306496 -1.88322 0
M  V30 13794 C 1302.45 0.094325 -3.44971 0
M  V30 13795 C 1301.56 -0.924463 -4.21993 0
M  V30 13796 C 1300.7 -0.231869 -5.30694 0
M  V30 13797 C 1299.74 -1.23803 -5.99449 0
M  V30 13798 N 1298.87 -0.572725 -6.9976 0
M  V30 13799 H 1303.71 -1.44869 -2.60417 0
M  V30 13800 H 1301.25 -0.725369 -1.27972 0
M  V30 13801 H 1303.21 0.496689 -4.14233 0
M  V30 13802 H 1301.84 0.936457 -3.08918 0
M  V30 13803 H 1300.89 -1.44505 -3.51884 0
M  V30 13804 H 1302.2 -1.69004 -4.69296 0
M  V30 13805 H 1301.36 0.226465 -6.06277 0
M  V30 13806 H 1300.09 0.566092 -4.84403 0
M  V30 13807 H 1299.1 -1.70684 -5.22635 0
M  V30 13808 H 1300.32 -2.03711 -6.47826 0
M  V30 13809 H 1298.27 0.205531 -6.55678 0
M  V30 13810 H 1298.19 -1.27651 -7.45145 0
M  V30 13811 H 1299.46 -0.137683 -7.79378 0
M  V30 13812 N 1303.68 1.3679 -0.7827 0
M  V30 13813 C 1304.59 2.33928 -0.17747 0
M  V30 13814 C 1305.61 1.60716 0.666802 0
M  V30 13815 O 1306.79 1.92742 0.584162 0
M  V30 13816 C 1303.85 3.39907 0.68294 0
M  V30 13817 C 1302.91 4.28926 -0.179053 0
M  V30 13818 C 1302.15 5.29844 0.640386 0
M  V30 13819 O 1302.37 5.38639 1.87681 0
M  V30 13820 O 1301.3 6.01884 0.0438164 0
M  V30 13821 H 1305.13 2.87439 -0.980441 0
M  V30 13822 H 1302.71 1.39142 -0.54404 0
M  V30 13823 H 1304.6 4.04722 1.17379 0
M  V30 13824 H 1303.27 2.88706 1.46391 0
M  V30 13825 H 1302.18 3.67174 -0.716512 0
M  V30 13826 H 1303.51 4.83461 -0.923377 0
M  V30 13827 N 1305.16 0.53415 1.48272 0
M  V30 13828 C 1306.41 0.00156948 2.021 0
M  V30 13829 C 1306.73 -1.34371 1.41313 0
M  V30 13830 O 1306 -1.87117 0.579996 0
M  V30 13831 H 1304.58 -0.00240789 0.746996 0
M  V30 13832 H 1307.24 0.698928 1.81937 0
M  V30 13833 H 1306.34 -0.103671 3.11928 0
M  V30 13834 N 1306.64 -1.55279 0.269478 0
M  V30 13835 C 1307.6 -2.21008 -0.607299 0
M  V30 13836 C 1308.6 -1.18619 -1.08564 0
M  V30 13837 O 1309.79 -1.4356 -0.986721 0
M  V30 13838 C 1306.93 -2.87157 -1.83721 0
M  V30 13839 H 1308.12 -2.99881 -0.0334894 0
M  V30 13840 H 1305.67 -1.56287 0.0200573 0
M  V30 13841 H 1306.41 -2.12281 -2.45168 0
M  V30 13842 H 1306.19 -3.62183 -1.5022 0
M  V30 13843 H 1307.68 -3.37391 -2.46083 0
M  V30 13844 N 1308.12 0.00332656 -1.576 0
M  V30 13845 C 1309.35 0.699945 -1.94701 0
M  V30 13846 C 1309.76 1.67492 -0.871312 0
M  V30 13847 O 1309.12 1.81882 0.150054 0
M  V30 13848 C 1309.17 1.43471 -3.31811 0
M  V30 13849 O 1308.89 0.498835 -4.35251 0
M  V30 13850 C 1310.39 2.22614 -3.83351 0
M  V30 13851 H 1307.61 0.195158 -0.641993 0
M  V30 13852 H 1310.16 -0.0468044 -2.04446 0
M  V30 13853 H 1308.31 2.13311 -3.23384 0
M  V30 13854 H 1308.72 1.01688 -5.14548 0
M  V30 13855 H 1310.2 2.69527 -4.81725 0
M  V30 13856 H 1310.68 3.05146 -3.15883 0
M  V30 13857 H 1311.28 1.57796 -3.94944 0
M  V30 13858 N 1309.6 1.55164 0.276031 0
M  V30 13859 C 1310.56 1.87065 1.32436 0
M  V30 13860 C 1311.56 0.745024 1.42499 0
M  V30 13861 O 1312.75 1.01321 1.41702 0
M  V30 13862 C 1309.88 2.07322 2.70611 0
M  V30 13863 H 1311.07 2.80775 1.05382 0
M  V30 13864 H 1308.63 1.47609 0.513947 0
M  V30 13865 H 1309.36 1.15983 3.0285 0
M  V30 13866 H 1309.15 2.89275 2.64693 0
M  V30 13867 H 1310.64 2.33287 3.46362 0
M  V30 13868 N 1311.07 -0.540404 1.48045 0
M  V30 13869 C 1312.3 -1.32656 1.59427 0
M  V30 13870 C 1312.72 -1.86419 0.250924 0
M  V30 13871 O 1312.08 -1.63861 -0.775838 0
M  V30 13872 C 1312.13 -2.46062 2.63602 0
M  V30 13873 O 1311.23 -3.48794 2.20038 0
M  V30 13874 H 1310.58 -0.393334 0.534962 0
M  V30 13875 H 1313.11 -0.651363 1.93955 0
M  V30 13876 H 1313.12 -2.92396 2.84549 0
M  V30 13877 H 1311.79 -2.06291 3.61133 0
M  V30 13878 H 1310.37 -3.0865 2.0926 0
M  V30 13879 N 1312.55 -1.36459 -0.788468 0
M  V30 13880 C 1313.46 -1.33017 -1.93245 0
M  V30 13881 C 1314.48 -0.232212 -1.72444 0
M  V30 13882 O 1315.65 -0.464743 -1.95965 0
M  V30 13883 C 1312.72 -1.1197 -3.28121 0
M  V30 13884 C 1311.78 -2.3125 -3.61693 0
M  V30 13885 C 1311.01 -2.11197 -4.90134 0
M  V30 13886 O 1311.24 -1.08764 -5.59934 0
M  V30 13887 O 1310.17 -2.98996 -5.22384 0
M  V30 13888 H 1314 -2.29333 -1.99098 0
M  V30 13889 H 1311.58 -1.17016 -0.928856 0
M  V30 13890 H 1313.46 -1.02154 -4.08831 0
M  V30 13891 H 1312.14 -0.187171 -3.23158 0
M  V30 13892 H 1311.05 -2.46635 -2.81286 0
M  V30 13893 H 1312.38 -3.23012 -3.71381 0
M  V30 13894 N 1314.03 1.01274 -1.20754 0
M  V30 13895 C 1314.98 2.08285 -0.927426 0
M  V30 13896 C 1315.96 1.60494 0.114286 0
M  V30 13897 O 1317.16 1.76752 -0.0936086 0
M  V30 13898 C 1314.29 3.39849 -0.485546 0
M  V30 13899 C 1313.37 3.94331 -1.5609 0
M  V30 13900 N 1313.76 4.22274 -2.78421 0
M  V30 13901 C 1312.06 4.22522 -1.42797 0
M  V30 13902 C 1312.76 4.66262 -3.47813 0
M  V30 13903 N 1311.74 4.68771 -2.75235 0
M  V30 13904 H 1315.54 2.27804 -1.85695 0
M  V30 13905 H 1313.05 1.19278 -1.10211 0
M  V30 13906 H 1315.05 4.16049 -0.266263 0
M  V30 13907 H 1313.71 3.21742 0.437301 0
M  V30 13908 H 1314.72 4.11063 -3.15036 0
M  V30 13909 H 1311.4 4.13593 -0.569819 0
M  V30 13910 H 1312.79 4.9667 -4.52513 0
M  V30 13911 N 1315.51 1.01404 1.20644 0
M  V30 13912 C 1316.93 0.728446 1.42006 0
M  V30 13913 C 1317.13 -0.692894 1.89212 0
M  V30 13914 O 1316.18 -1.46101 2.05939 0
M  V30 13915 C 1317.49 1.75198 2.44389 0
M  V30 13916 C 1319.04 1.76983 2.58159 0
M  V30 13917 C 1319.52 2.78256 3.63782 0
M  V30 13918 N 1321.01 2.7698 3.71263 0
M  V30 13919 C 1321.74 3.51999 4.52641 0
M  V30 13920 N 1321.24 4.36687 5.37844 0
M  V30 13921 N 1323.03 3.40608 4.47149 0
M  V30 13922 H 1315.18 1.93168 0.883172 0
M  V30 13923 H 1317.45 0.834287 0.450187 0
M  V30 13924 H 1317.15 2.77013 2.16695 0
M  V30 13925 H 1317.03 1.56203 3.43337 0
M  V30 13926 H 1319.41 0.758551 2.85184 0
M  V30 13927 H 1319.49 2.00051 1.59415 0
M  V30 13928 H 1319.14 3.79546 3.37501 0
M  V30 13929 H 1319.07 2.5245 4.62143 0
M  V30 13930 H 1321.56 2.15546 3.104 0
M  V30 13931 H 1321.87 4.90703 5.97018 0
M  V30 13932 H 1320.22 4.40766 5.37355 0
M  V30 13933 H 1323.41 2.73872 3.79621 0
M  V30 13934 H 1323.58 3.99327 5.10335 0
M  V30 13935 N 1316.99 -1.36373 0.789944 0
M  V30 13936 C 1317.95 -2.28372 0.194639 0
M  V30 13937 C 1318.95 -1.48849 -0.608332 0
M  V30 13938 O 1320.14 -1.68829 -0.42925 0
M  V30 13939 C 1317.27 -3.3298 -0.730553 0
M  V30 13940 H 1318.47 -2.82529 1.00585 0
M  V30 13941 H 1316.02 -1.45946 0.559406 0
M  V30 13942 H 1316.75 -2.8398 -1.56608 0
M  V30 13943 H 1316.54 -3.91787 -0.156706 0
M  V30 13944 H 1318.03 -4.01684 -1.14192 0
M  V30 13945 N 1318.47 -0.542005 -1.47987 0
M  V30 13946 C 1319.4 0.202703 -2.32618 0
M  V30 13947 C 1320.38 0.923521 -1.42846 0
M  V30 13948 O 1321.56 0.906957 -1.7172 0
M  V30 13949 C 1318.69 1.24267 -3.24307 0
M  V30 13950 C 1317.65 0.639257 -4.23199 0
M  V30 13951 C 1316.97 1.78275 -5.04105 0
M  V30 13952 C 1318.27 -0.396982 -5.20789 0
M  V30 13953 H 1319.97 -0.503817 -2.95131 0
M  V30 13954 H 1317.51 -0.243736 -1.41922 0
M  V30 13955 H 1319.46 1.7717 -3.82347 0
M  V30 13956 H 1318.19 1.97893 -2.59819 0
M  V30 13957 H 1316.85 0.131655 -3.66364 0
M  V30 13958 H 1316.5 2.50768 -4.36032 0
M  V30 13959 H 1316.2 1.38487 -5.71047 0
M  V30 13960 H 1317.72 2.31533 -5.65 0
M  V30 13961 H 1319.13 0.0454057 -5.73282 0
M  V30 13962 H 1317.53 -0.712911 -5.9585 0
M  V30 13963 H 1318.6 -1.29843 -4.67193 0
M  V30 13964 N 1319.94 1.55134 -0.277709 0
M  V30 13965 C 1320.88 2.18745 0.650058 0
M  V30 13966 C 1321.85 1.14922 1.15029 0
M  V30 13967 O 1323.04 1.43458 1.22278 0
M  V30 13968 C 1320.17 2.81277 1.88683 0
M  V30 13969 C 1319.21 3.98425 1.52185 0
M  V30 13970 S 1320.04 5.32153 0.597782 0
M  V30 13971 C 1321.2 5.98155 1.84287 0
M  V30 13972 H 1321.43 2.97098 0.109571 0
M  V30 13973 H 1318.97 1.54276 -0.0619536 0
M  V30 13974 H 1320.92 3.17934 2.59669 0
M  V30 13975 H 1319.59 2.02813 2.39845 0
M  V30 13976 H 1318.78 4.40877 2.4422 0
M  V30 13977 H 1318.38 3.63203 0.892146 0
M  V30 13978 H 1320.67 6.17546 2.78646 0
M  V30 13979 H 1321.62 6.92857 1.46131 0
M  V30 13980 H 1322.02 5.27541 2.00899 0
M  V30 13981 N 1321.42 0.00503138 1.57599 0
M  V30 13982 C 1322.65 -0.693231 1.95471 0
M  V30 13983 C 1323.07 -1.66233 0.880246 0
M  V30 13984 O 1322.43 -1.80582 -0.161164 0
M  V30 13985 C 1322.48 -1.39696 3.32442 0
M  V30 13986 O 1321.58 -2.51154 3.27101 0
M  V30 13987 H 1320.92 -0.184015 0.637992 0
M  V30 13988 H 1323.45 0.0597194 2.04513 0
M  V30 13989 H 1323.46 -1.75924 3.68123 0
M  V30 13990 H 1322.14 -0.686438 4.10196 0
M  V30 13991 H 1320.71 -2.17216 3.03103 0
M  V30 13992 N 1322.9 -1.55308 -0.267798 0
M  V30 13993 C 1323.81 -1.91649 -1.35307 0
M  V30 13994 C 1324.83 -0.814349 -1.53767 0
M  V30 13995 O 1326 -1.11388 -1.67793 0
M  V30 13996 C 1323.07 -2.18553 -2.69138 0
M  V30 13997 C 1322.13 -3.42083 -2.5938 0
M  V30 13998 C 1321.36 -3.67695 -3.86828 0
M  V30 13999 O 1321.58 -2.95728 -4.87751 0
M  V30 14000 O 1320.52 -4.61229 -3.86718 0
M  V30 14001 H 1324.34 -2.84044 -1.07483 0
M  V30 14002 H 1321.93 -1.41921 -0.466772 0
M  V30 14003 H 1323.81 -2.3726 -3.48261 0
M  V30 14004 H 1322.49 -1.2934 -2.96737 0
M  V30 14005 H 1321.39 -3.28706 -1.78614 0
M  V30 14006 H 1322.73 -4.31532 -2.36729 0
M  V30 14007 N 1324.38 0.532545 -1.4833 0
M  V30 14008 C 1325.31 1.64662 -1.65555 0
M  V30 14009 C 1326.29 1.62447 -0.50447 0
M  V30 14010 O 1327.47 1.79684 -0.736712 0
M  V30 14011 C 1324.6 3.03256 -1.69272 0
M  V30 14012 C 1323.56 3.20329 -2.83854 0
M  V30 14013 C 1322.88 4.59958 -2.72659 0
M  V30 14014 C 1324.18 3.03345 -4.25181 0
M  V30 14015 H 1325.88 1.50502 -2.58823 0
M  V30 14016 H 1323.42 0.722612 -1.24556 0
M  V30 14017 H 1325.38 3.81064 -1.79911 0
M  V30 14018 H 1324.1 3.18433 -0.725805 0
M  V30 14019 H 1322.76 2.44937 -2.72766 0
M  V30 14020 H 1322.41 4.71967 -1.73942 0
M  V30 14021 H 1322.11 4.72327 -3.49544 0
M  V30 14022 H 1323.63 5.39869 -2.85262 0
M  V30 14023 H 1325.05 3.70948 -4.37116 0
M  V30 14024 H 1323.44 3.27208 -5.03045 0
M  V30 14025 H 1324.51 1.998 -4.41824 0
M  V30 14026 N 1325.86 1.36875 0.78122 0
M  V30 14027 C 1326.8 1.31869 1.89418 0
M  V30 14028 C 1327.77 0.185904 1.65056 0
M  V30 14029 O 1328.96 0.373745 1.87104 0
M  V30 14030 C 1326.1 1.12205 3.2635 0
M  V30 14031 C 1325.21 2.34631 3.62729 0
M  V30 14032 C 1324.35 2.07914 4.8882 0
M  V30 14033 C 1323.38 3.26257 5.17902 0
M  V30 14034 N 1322.52 2.99152 6.35179 0
M  V30 14035 H 1327.36 2.2703 1.93032 0
M  V30 14036 H 1324.9 1.12826 0.943857 0
M  V30 14037 H 1326.86 0.988282 4.05326 0
M  V30 14038 H 1325.49 0.206959 3.22136 0
M  V30 14039 H 1324.54 2.58782 2.78812 0
M  V30 14040 H 1325.85 3.22919 3.80164 0
M  V30 14041 H 1325 1.91514 5.7568 0
M  V30 14042 H 1323.74 1.1695 4.7347 0
M  V30 14043 H 1322.75 3.43207 4.29522 0
M  V30 14044 H 1323.97 4.1806 5.35166 0
M  V30 14045 H 1321.92 2.10807 6.21205 0
M  V30 14046 H 1321.84 3.80981 6.52985 0
M  V30 14047 H 1323.1 2.86349 7.25 0
M  V30 14048 N 1327.33 -1.00632 1.21289 0
M  V30 14049 C 1328.58 -1.73802 1.02351 0
M  V30 14050 C 1328.9 -1.90503 -0.443611 0
M  V30 14051 O 1330.1 -2.60868 -0.752356 0
M  V30 14052 C 1328.56 -3.12647 1.78269 0
M  V30 14053 C 1328.17 -3.03923 3.29142 0
M  V30 14054 C 1329.91 -3.89956 1.67735 0
M  V30 14055 C 1327.82 -4.3784 3.97556 0
M  V30 14056 H 1326.75 -0.651616 0.379358 0
M  V30 14057 H 1329.4 -1.12446 1.45011 0
M  V30 14058 H 1327.78 -3.74605 1.28401 0
M  V30 14059 H 1328.95 -2.51211 3.86303 0
M  V30 14060 H 1327.27 -2.40103 3.40205 0
M  V30 14061 H 1329.87 -4.89051 2.1618 0
M  V30 14062 H 1330.21 -4.11423 0.635338 0
M  V30 14063 H 1330.74 -3.34647 2.15072 0
M  V30 14064 H 1327.48 -4.21573 5.01952 0
M  V30 14065 H 1327 -4.90518 3.45184 0
M  V30 14066 H 1328.68 -5.06644 4.02393 0
M  V30 14067 N 1328.81 -1.02043 -1.20104 0
M  V30 14068 C 1329.74 -0.614421 -2.25271 0
M  V30 14069 C 1330.72 0.37242 -1.65973 0
M  V30 14070 O 1331.91 0.257005 -1.92492 0
M  V30 14071 C 1329.04 0.0442085 -3.47272 0
M  V30 14072 C 1327.99 -0.864019 -4.19188 0
M  V30 14073 C 1327.32 -0.0709551 -5.34653 0
M  V30 14074 C 1328.62 -2.17385 -4.74912 0
M  V30 14075 H 1330.31 -1.49355 -2.59487 0
M  V30 14076 H 1327.86 -0.719591 -1.24731 0
M  V30 14077 H 1329.81 0.339825 -4.20028 0
M  V30 14078 H 1328.53 0.958082 -3.12231 0
M  V30 14079 H 1327.19 -1.1437 -3.48303 0
M  V30 14080 H 1326.84 0.844688 -4.95857 0
M  V30 14081 H 1326.54 -0.67583 -5.83701 0
M  V30 14082 H 1328.07 0.218118 -6.1021 0
M  V30 14083 H 1329.48 -1.94034 -5.39466 0
M  V30 14084 H 1327.88 -2.72991 -5.34412 0
M  V30 14085 H 1328.95 -2.83427 -3.93443 0
M  V30 14086 N 1330.29 1.35952 -0.797165 0
M  V30 14087 C 1331.54 1.98283 -0.369685 0
M  V30 14088 C 1331.85 1.63968 1.06649 0
M  V30 14089 O 1333.06 2.19591 1.59662 0
M  V30 14090 C 1331.51 3.54692 -0.610046 0
M  V30 14091 C 1331.12 3.97925 -2.05814 0
M  V30 14092 C 1332.87 4.23778 -0.247457 0
M  V30 14093 C 1330.77 5.47142 -2.24475 0
M  V30 14094 H 1329.7 0.741909 -0.134489 0
M  V30 14095 H 1332.35 1.55146 -0.979893 0
M  V30 14096 H 1330.74 3.95938 0.0699822 0
M  V30 14097 H 1331.91 3.67857 -2.77521 0
M  V30 14098 H 1330.23 3.417 -2.37971 0
M  V30 14099 H 1332.82 5.33452 -0.365059 0
M  V30 14100 H 1333.17 4.08436 0.805315 0
M  V30 14101 H 1333.7 3.87921 -0.881028 0
M  V30 14102 H 1330.44 5.67441 -3.28163 0
M  V30 14103 H 1329.96 5.78811 -1.57282 0
M  V30 14104 H 1331.64 6.13475 -2.05567 0
M  V30 14105 N 1331.77 0.549846 1.47697 0
M  V30 14106 C 1332.72 -0.222213 2.26915 0
M  V30 14107 C 1333.7 -0.891996 1.33911 0
M  V30 14108 O 1334.89 -0.791519 1.58316 0
M  V30 14109 C 1332.02 -1.25619 3.19491 0
M  V30 14110 C 1331.11 -0.590193 4.19973 0
M  V30 14111 N 1331.5 0.335519 5.04686 0
M  V30 14112 C 1329.8 -0.845012 4.37922 0
M  V30 14113 C 1330.5 0.721672 5.77206 0
M  V30 14114 N 1329.48 0.078184 5.43544 0
M  V30 14115 H 1333.28 0.489645 2.89792 0
M  V30 14116 H 1330.79 0.36926 1.58146 0
M  V30 14117 H 1332.79 -1.82319 3.74921 0
M  V30 14118 H 1331.45 -1.96922 2.5817 0
M  V30 14119 H 1332.46 0.709271 5.1302 0
M  V30 14120 H 1329.14 -1.54711 3.87777 0
M  V30 14121 H 1330.53 1.48191 6.55354 0
M  V30 14122 N 1333.25 -1.54984 0.285932 0
M  V30 14123 C 1334.5 -1.99008 -0.328433 0
M  V30 14124 C 1334.81 -1.17787 -1.56158 0
M  V30 14125 O 1336.01 -1.52006 -2.24959 0
M  V30 14126 C 1334.47 -3.54241 -0.635688 0
M  V30 14127 C 1334.08 -4.44252 0.578271 0
M  V30 14128 C 1335.82 -4.06828 -1.21208 0
M  V30 14129 C 1333.73 -5.90892 0.245003 0
M  V30 14130 H 1332.66 -0.743314 -0.126494 0
M  V30 14131 H 1335.31 -1.79258 0.39228 0
M  V30 14132 H 1333.69 -3.69834 -1.41559 0
M  V30 14133 H 1334.87 -4.40431 1.35489 0
M  V30 14134 H 1333.18 -4.02358 1.07225 0
M  V30 14135 H 1335.78 -5.13941 -1.47542 0
M  V30 14136 H 1336.12 -3.56515 -2.14948 0
M  V30 14137 H 1336.65 -3.94718 -0.494222 0
M  V30 14138 H 1333.39 -6.45323 1.15057 0
M  V30 14139 H 1332.91 -5.97757 -0.494636 0
M  V30 14140 H 1334.59 -6.46805 -0.158891 0
M  V30 14141 N 1334.72 -0.0133892 -1.57594 0
M  V30 14142 C 1335.97 0.667313 -1.90765 0
M  V30 14143 C 1336.29 1.73564 -0.888847 0
M  V30 14144 O 1335.56 1.95768 0.0718946 0
M  V30 14145 H 1334.14 0.24947 -0.704112 0
M  V30 14146 H 1336.81 -0.0574789 -1.94815 0
M  V30 14147 H 1335.9 1.13007 -2.90922 0
M  V30 14148 N 1336.2 1.55448 0.259558 0
M  V30 14149 C 1337.15 1.90056 1.34096 0
M  V30 14150 C 1338.14 0.778267 1.50464 0
M  V30 14151 O 1339.35 0.962758 1.52089 0
M  V30 14152 H 1335.73 0.603424 0.448758 0
M  V30 14153 H 1337.7 2.80365 1.02166 0
M  V30 14154 C 1336.45 2.20074 2.69189 0
M  V30 14155 H 1335.77 3.05926 2.57389 0
M  V30 14156 H 1337.21 2.48201 3.43762 0
M  V30 14157 C 1335.67 1.01281 3.21316 0
M  V30 14158 O 1336.2 0.2543 4.00894 0
M  V30 14159 N 1334.4 0.806855 2.79174 0
M  V30 14160 H 1333.95 1.42536 2.14572 0
M  V30 14161 H 1333.91 0.0136714 3.14397 0
M  V30 14162 N 1337.68 -0.524672 1.4861 0
M  V30 14163 C 1338.63 -1.62504 1.59927 0
M  V30 14164 C 1339.61 -1.543 0.456094 0
M  V30 14165 O 1340.81 -1.62231 0.707818 0
M  V30 14166 C 1337.94 -3.01207 1.64709 0
M  V30 14167 C 1337.02 -3.14495 2.84523 0
M  V30 14168 N 1337.41 -2.97741 4.08882 0
M  V30 14169 C 1335.71 -3.45559 2.81967 0
M  V30 14170 C 1336.41 -3.14585 4.89297 0
M  V30 14171 N 1335.39 -3.424 4.22212 0
M  V30 14172 H 1339.19 -1.48168 2.53818 0
M  V30 14173 H 1336.7 -0.730258 1.45055 0
M  V30 14174 H 1338.7 -3.80257 1.7091 0
M  V30 14175 H 1337.36 -3.16631 0.719376 0
M  V30 14176 H 1338.37 -2.74395 4.39235 0
M  V30 14177 H 1335.05 -3.67307 1.98474 0
M  V30 14178 H 1336.44 -3.06324 5.98009 0
M  V30 14179 N 1339.16 -1.37287 -0.77395 0
M  V30 14180 C 1340.09 -1.35569 -1.90114 0
M  V30 14181 C 1341.07 -0.224658 -1.6861 0
M  V30 14182 O 1342.25 -0.424676 -1.895 0
M  V30 14183 C 1339.38 -1.15971 -3.27365 0
M  V30 14184 C 1338.34 -2.26063 -3.63427 0
M  V30 14185 C 1337.66 -1.9159 -4.99197 0
M  V30 14186 C 1338.96 -3.68236 -3.70405 0
M  V30 14187 H 1340.66 -2.29891 -1.91808 0
M  V30 14188 H 1338.2 -1.10661 -0.92142 0
M  V30 14189 H 1340.16 -1.134 -4.05855 0
M  V30 14190 H 1338.88 -0.181043 -3.26098 0
M  V30 14191 H 1337.54 -2.27786 -2.87244 0
M  V30 14192 H 1337.19 -0.922586 -4.94467 0
M  V30 14193 H 1336.89 -2.65309 -5.24294 0
M  V30 14194 H 1338.41 -1.90602 -5.80089 0
M  V30 14195 H 1339.83 -3.68655 -4.39052 0
M  V30 14196 H 1338.22 -4.4099 -4.06999 0
M  V30 14197 H 1339.29 -4.02021 -2.71122 0
M  V30 14198 N 1340.64 0.999871 -1.21821 0
M  V30 14199 C 1341.58 2.10985 -0.979183 0
M  V30 14200 C 1342.58 1.69232 0.0753287 0
M  V30 14201 O 1343.78 1.79837 -0.0765083 0
M  V30 14202 H 1340.16 0.689819 -0.299421 0
M  V30 14203 H 1342.13 2.28322 -1.92124 0
M  V30 14204 C 1340.88 3.43062 -0.56602 0
M  V30 14205 H 1340.2 3.75627 -1.36909 0
M  V30 14206 H 1341.64 4.2173 -0.43813 0
M  V30 14207 C 1340.1 3.29036 0.723647 0
M  V30 14208 O 1340.63 3.60214 1.77788 0
M  V30 14209 N 1338.84 2.82237 0.692126 0
M  V30 14210 H 1338.38 2.57064 -0.166082 0
M  V30 14211 H 1338.34 2.73235 1.55532 0
M  V30 14212 N 1342.11 1.02678 1.19562 0
M  V30 14213 C 1343.36 0.723086 1.89471 0
M  V30 14214 C 1343.69 -0.746269 1.79289 0
M  V30 14215 O 1342.97 -1.54322 1.18384 0
M  V30 14216 C 1343.25 1.17224 3.40486 0
M  V30 14217 C 1343.1 2.70266 3.5955 0
M  V30 14218 C 1344.42 0.751397 4.33638 0
M  V30 14219 H 1341.54 0.264155 0.688034 0
M  V30 14220 H 1344.18 1.27633 1.40747 0
M  V30 14221 H 1342.33 0.701544 3.82113 0
M  V30 14222 H 1344.01 3.25266 3.27108 0
M  V30 14223 H 1342.25 3.10758 3.02675 0
M  V30 14224 H 1342.92 2.96748 4.65451 0
M  V30 14225 H 1345.4 1.15621 3.99714 0
M  V30 14226 H 1344.27 1.09358 5.37896 0
M  V30 14227 H 1344.53 -0.346367 4.40741 0
M  V30 14228 N 1343.59 -1.35528 0.804364 0
M  V30 14229 C 1344.84 -1.99126 0.384261 0
M  V30 14230 C 1345.17 -1.63668 -1.0453 0
M  V30 14231 O 1344.45 -0.898896 -1.72482 0
M  V30 14232 C 1344.73 -3.55636 0.565278 0
M  V30 14233 C 1344.58 -4.00899 2.03961 0
M  V30 14234 C 1345.9 -4.40099 -0.0104301 0
M  V30 14235 H 1343.02 -0.723369 0.141092 0
M  V30 14236 H 1345.66 -1.60712 1.01348 0
M  V30 14237 H 1343.81 -3.88489 0.0296425 0
M  V30 14238 H 1345.48 -3.78465 2.63746 0
M  V30 14239 H 1343.73 -3.5189 2.53685 0
M  V30 14240 H 1344.4 -5.09785 2.11716 0
M  V30 14241 H 1346.87 -4.13692 0.446985 0
M  V30 14242 H 1345.75 -5.48705 0.146155 0
M  V30 14243 H 1346.01 -4.28096 -1.10392 0
M  V30 14244 N 1345.07 -0.557671 -1.47404 0
M  V30 14245 C 1346.02 0.202834 -2.31714 0
M  V30 14246 C 1347.01 0.908873 -1.42954 0
M  V30 14247 O 1348.22 0.830106 -1.59716 0
M  V30 14248 H 1344.59 0.0842824 -0.747262 0
M  V30 14249 H 1346.57 -0.527431 -2.93702 0
M  V30 14250 C 1345.31 1.21937 -3.25617 0
M  V30 14251 H 1344.64 0.685506 -3.93879 0
M  V30 14252 H 1346.08 1.72237 -3.87441 0
M  V30 14253 C 1344.54 2.26748 -2.49173 0
M  V30 14254 O 1345.07 3.33681 -2.23651 0
M  V30 14255 N 1343.27 2.00687 -2.10174 0
M  V30 14256 H 1342.82 1.13741 -2.3113 0
M  V30 14257 H 1342.78 2.71031 -1.59342 0
M  V30 14258 N 1346.55 1.54831 -0.294147 0
M  V30 14259 C 1347.48 2.26226 0.57827 0
M  V30 14260 C 1348.46 1.25928 1.14351 0
M  V30 14261 O 1349.65 1.54687 1.17412 0
M  V30 14262 C 1346.78 2.99783 1.75349 0
M  V30 14263 C 1345.73 4.07171 1.31892 0
M  V30 14264 C 1345.06 4.68406 2.57876 0
M  V30 14265 C 1346.36 5.20313 0.455167 0
M  V30 14266 H 1348.05 2.99395 -0.0171936 0
M  V30 14267 H 1345.6 1.43997 -0.00970944 0
M  V30 14268 H 1347.55 3.48448 2.36986 0
M  V30 14269 H 1346.27 2.24181 2.37509 0
M  V30 14270 H 1344.93 3.59346 0.725653 0
M  V30 14271 H 1344.58 3.89451 3.18335 0
M  V30 14272 H 1344.28 5.40927 2.29502 0
M  V30 14273 H 1345.8 5.1983 3.20327 0
M  V30 14274 H 1347.22 5.64913 0.977026 0
M  V30 14275 H 1345.61 5.99512 0.265501 0
M  V30 14276 H 1346.68 4.82088 -0.521434 0
M  V30 14277 N 1348.03 0.0217466 1.57585 0
M  V30 14278 C 1348.96 -0.961069 2.12804 0
M  V30 14279 C 1349.94 -1.3442 1.04237 0
M  V30 14280 O 1351.12 -1.42412 1.32032 0
M  V30 14281 C 1348.25 -2.24586 2.64912 0
M  V30 14282 C 1347.21 -2.0037 3.78201 0
M  V30 14283 C 1346.53 -3.35051 4.16708 0
M  V30 14284 C 1347.83 -1.34879 5.04584 0
M  V30 14285 H 1349.53 -0.501222 2.95175 0
M  V30 14286 H 1347.07 -0.239649 1.41992 0
M  V30 14287 H 1349.03 -2.93715 3.02175 0
M  V30 14288 H 1347.75 -2.72723 1.79693 0
M  V30 14289 H 1346.41 -1.33662 3.41365 0
M  V30 14290 H 1346.06 -3.80932 3.28481 0
M  V30 14291 H 1345.76 -3.19656 4.93045 0
M  V30 14292 H 1347.28 -4.05459 4.56547 0
M  V30 14293 H 1348.7 -1.93997 5.3948 0
M  V30 14294 H 1347.09 -1.29906 5.85871 0
M  V30 14295 H 1348.16 -0.320774 4.83838 0
M  V30 14296 N 1349.51 -1.55583 -0.251311 0
M  V30 14297 C 1350.75 -1.76859 -0.978031 0
M  V30 14298 C 1351.07 -0.584924 -1.86021 0
M  V30 14299 O 1350.34 0.399456 -1.91784 0
M  V30 14300 H 1348.92 -0.652252 -0.364111 0
M  V30 14301 H 1351.59 -1.93016 -0.270319 0
M  V30 14302 H 1350.68 -2.67828 -1.60233 0
M  V30 14303 N 1350.98 0.516783 -1.48886 0
M  V30 14304 C 1351.95 1.60226 -1.63891 0
M  V30 14305 C 1352.95 1.52448 -0.511479 0
M  V30 14306 O 1354.14 1.55882 -0.777582 0
M  V30 14307 C 1351.27 2.99867 -1.62151 0
M  V30 14308 H 1352.46 1.48256 -2.60692 0
M  V30 14309 H 1350.01 0.739844 -1.37681 0
M  V30 14310 H 1350.75 3.1733 -0.668764 0
M  V30 14311 H 1350.53 3.0692 -2.44013 0
M  V30 14312 H 1352.02 3.7876 -1.7587 0
M  V30 14313 N 1352.46 1.37696 0.766659 0
M  V30 14314 C 1353.7 1.34588 1.53836 0
M  V30 14315 C 1354.07 -0.0676384 1.91881 0
M  V30 14316 O 1355.27 -0.223479 2.67869 0
M  V30 14317 C 1353.54 2.26329 2.76604 0
M  V30 14318 S 1355.1 2.4112 3.66615 0
M  V30 14319 H 1351.91 0.477717 0.5266 0
M  V30 14320 H 1354.52 1.73495 0.901099 0
M  V30 14321 H 1353.22 3.27943 2.46742 0
M  V30 14322 H 1352.75 1.88525 3.45285 0
M  V30 14323 H 1354.77 1.62556 4.68818 0
M  V30 14324 N 1353.94 -0.993397 1.22349 0
M  V30 14325 C 1355.17 -1.76838 1.07406 0
M  V30 14326 C 1355.58 -1.8503 -0.37542 0
M  V30 14327 O 1354.94 -1.32008 -1.26016 0
M  V30 14328 C 1354.99 -3.20177 1.67837 0
M  V30 14329 O 1354.71 -3.12429 3.07115 0
M  V30 14330 C 1356.21 -4.14125 1.58161 0
M  V30 14331 H 1353.43 -0.555379 0.376557 0
M  V30 14332 H 1355.98 -1.24893 1.61932 0
M  V30 14333 H 1354.13 -3.69191 1.17375 0
M  V30 14334 H 1354.55 -4.02568 3.36213 0
M  V30 14335 H 1356.02 -5.12455 2.05169 0
M  V30 14336 H 1356.5 -4.35892 0.538073 0
M  V30 14337 H 1357.1 -3.71008 2.07926 0
M  V30 14338 N 1355.42 -1.03311 -1.19015 0
M  V30 14339 C 1356.36 -0.617567 -2.22384 0
M  V30 14340 C 1357.33 0.370779 -1.61909 0
M  V30 14341 O 1358.52 0.266481 -1.8893 0
M  V30 14342 C 1355.66 0.0211303 -3.45094 0
M  V30 14343 C 1354.77 -1.01377 -4.19937 0
M  V30 14344 C 1353.91 -0.344385 -5.30082 0
M  V30 14345 C 1352.95 -1.3649 -5.96688 0
M  V30 14346 N 1352.08 -0.721026 -6.98388 0
M  V30 14347 H 1356.92 -1.5036 -2.57286 0
M  V30 14348 H 1354.46 -0.75235 -1.26405 0
M  V30 14349 H 1356.42 0.408713 -4.15193 0
M  V30 14350 H 1355.05 0.870721 -3.10835 0
M  V30 14351 H 1354.1 -1.51937 -3.4874 0
M  V30 14352 H 1355.41 -1.78921 -4.65606 0
M  V30 14353 H 1354.57 0.097814 -6.06621 0
M  V30 14354 H 1353.31 0.463216 -4.85495 0
M  V30 14355 H 1352.31 -1.81732 -5.18897 0
M  V30 14356 H 1353.54 -2.17407 -6.43359 0
M  V30 14357 H 1351.48 0.0664057 -6.55966 0
M  V30 14358 H 1351.4 -1.43428 -7.4227 0
M  V30 14359 H 1352.67 -0.30297 -7.78911 0
M  V30 14360 N 1356.9 1.35099 -0.81154 0
M  V30 14361 C 1358.31 1.81082 -0.454543 0
M  V30 14362 C 1358.66 1.67361 1.02395 0
M  V30 14363 O 1357.78 1.20707 1.79607 0
M  V30 14364 C 1358.38 3.2877 -0.818274 0
M  V30 14365 C 1356.94 3.72877 -0.513808 0
M  V30 14366 C 1356.08 2.57008 -1.04125 0
M  V30 14367 H 1359.03 1.23007 -1.00274 0
M  V30 14368 H 1359.06 3.80318 -0.117683 0
M  V30 14369 H 1358.57 3.38725 -1.89439 0
M  V30 14370 H 1356.67 3.68468 0.553368 0
M  V30 14371 H 1356.78 4.67455 -1.0499 0
M  V30 14372 H 1355.15 2.5045 -0.463337 0
M  V30 14373 H 1355.93 2.69738 -2.12358 0
M  V30 14374 N 1358.37 0.56548 1.47106 0
M  V30 14375 C 1359.31 -0.215154 2.28188 0
M  V30 14376 C 1360.32 -0.871671 1.37498 0
M  V30 14377 O 1361.51 -0.744131 1.6225 0
M  V30 14378 C 1358.61 -1.32289 3.12014 0
M  V30 14379 C 1357.78 -0.761594 4.30719 0
M  V30 14380 C 1356.84 -1.75486 4.96076 0
M  V30 14381 O 1355.87 -1.29771 5.5421 0
M  V30 14382 N 1357.07 -3.0885 4.9152 0
M  V30 14383 H 1359.83 0.480405 2.95825 0
M  V30 14384 H 1357.39 0.402099 1.56827 0
M  V30 14385 H 1359.39 -1.98628 3.52603 0
M  V30 14386 H 1357.96 -1.92156 2.46566 0
M  V30 14387 H 1357.18 0.078794 3.94121 0
M  V30 14388 H 1358.46 -0.366072 5.07481 0
M  V30 14389 H 1357.86 -3.4863 4.45504 0
M  V30 14390 H 1356.42 -3.70725 5.36103 0
M  V30 14391 N 1359.85 -1.54672 0.302354 0
M  V30 14392 C 1361.1 -1.99771 -0.305919 0
M  V30 14393 C 1361.42 -1.19225 -1.54306 0
M  V30 14394 O 1360.69 -0.288569 -1.93763 0
M  V30 14395 H 1359.27 -0.737934 -0.116026 0
M  V30 14396 H 1361.93 -1.90452 0.413997 0
M  V30 14397 H 1361.03 -3.06719 -0.577024 0
M  V30 14398 N 1361.33 -0.0301034 -1.57571 0
M  V30 14399 C 1362.74 0.508591 -1.79639 0
M  V30 14400 C 1363.09 1.72191 -0.940458 0
M  V30 14401 O 1362.22 2.15872 -0.151138 0
M  V30 14402 C 1362.81 0.929446 -3.25802 0
M  V30 14403 C 1361.37 1.41325 -3.48861 0
M  V30 14404 C 1360.52 0.378433 -2.74706 0
M  V30 14405 H 1363.47 -0.256131 -1.56619 0
M  V30 14406 H 1363.49 1.79374 -3.35567 0
M  V30 14407 H 1363 0.0461738 -3.88073 0
M  V30 14408 H 1361.1 2.31641 -2.91844 0
M  V30 14409 H 1361.22 1.41995 -4.57574 0
M  V30 14410 H 1359.58 0.846744 -2.40213 0
M  V30 14411 H 1360.36 -0.49639 -3.39692 0
M  V30 14412 N 1362.81 1.55714 0.243056 0
M  V30 14413 C 1363.74 1.93655 1.30461 0
M  V30 14414 C 1364.72 0.801968 1.50008 0
M  V30 14415 O 1365.9 1.06256 1.62552 0
M  V30 14416 C 1363.03 2.23459 2.65863 0
M  V30 14417 C 1361.99 3.39205 2.61006 0
M  V30 14418 C 1361.31 3.5456 4.00239 0
M  V30 14419 C 1362.61 4.74787 2.17656 0
M  V30 14420 H 1364.31 2.82575 0.98954 0
M  V30 14421 H 1361.85 1.35955 0.474572 0
M  V30 14422 H 1363.81 2.48591 3.40266 0
M  V30 14423 H 1362.53 1.31369 2.99014 0
M  V30 14424 H 1361.19 3.14088 1.89061 0
M  V30 14425 H 1360.84 2.59884 4.30661 0
M  V30 14426 H 1360.54 4.32399 3.97876 0
M  V30 14427 H 1362.06 3.82017 4.76335 0
M  V30 14428 H 1363.48 4.99266 2.81792 0
M  V30 14429 H 1361.87 5.55756 2.26397 0
M  V30 14430 H 1362.94 4.7159 1.12831 0
M  V30 14431 N 1364.29 -0.50888 1.49158 0
M  V30 14432 C 1365.22 -1.62869 1.5984 0
M  V30 14433 C 1366.2 -1.56312 0.447809 0
M  V30 14434 O 1367.38 -1.76482 0.662292 0
M  V30 14435 C 1364.51 -3.01356 1.54603 0
M  V30 14436 C 1363.55 -3.26202 2.74763 0
M  V30 14437 S 1364.39 -3.10178 4.3652 0
M  V30 14438 C 1365.54 -4.51075 4.33915 0
M  V30 14439 H 1365.78 -1.53562 2.5457 0
M  V30 14440 H 1363.31 -0.693448 1.37952 0
M  V30 14441 H 1365.27 -3.81215 1.52267 0
M  V30 14442 H 1363.93 -3.08085 0.611737 0
M  V30 14443 H 1363.12 -4.27281 2.67296 0
M  V30 14444 H 1362.72 -2.54052 2.7447 0
M  V30 14445 H 1365.02 -5.4301 4.05149 0
M  V30 14446 H 1365.96 -4.63593 5.35245 0
M  V30 14447 H 1366.37 -4.31385 3.64097 0
M  V30 14448 N 1365.76 -1.381 -0.759346 0
M  V30 14449 C 1367.01 -1.3419 -1.52055 0
M  V30 14450 C 1367.34 0.0697657 -1.94075 0
M  V30 14451 O 1366.62 1.02975 -1.65004 0
M  V30 14452 C 1366.9 -2.29236 -2.7771 0
M  V30 14453 C 1366.75 -3.79237 -2.41866 0
M  V30 14454 C 1368.07 -2.22511 -3.79706 0
M  V30 14455 H 1365.19 -0.488768 -0.551611 0
M  V30 14456 H 1367.83 -1.68902 -0.870174 0
M  V30 14457 H 1365.98 -1.99764 -3.33206 0
M  V30 14458 H 1367.66 -4.19358 -1.92189 0
M  V30 14459 H 1365.9 -3.97199 -1.74399 0
M  V30 14460 H 1366.57 -4.41193 -3.31742 0
M  V30 14461 H 1369.05 -2.48516 -3.33735 0
M  V30 14462 H 1367.92 -2.91134 -4.6533 0
M  V30 14463 H 1368.18 -1.22206 -4.24874 0
M  V30 14464 N 1367.24 0.986894 -1.22875 0
M  V30 14465 C 1368.49 1.72152 -1.05103 0
M  V30 14466 C 1368.8 1.91185 0.413248 0
M  V30 14467 O 1370.01 2.62031 0.710759 0
M  V30 14468 C 1368.47 3.09771 -1.8322 0
M  V30 14469 C 1368.07 2.98648 -3.33936 0
M  V30 14470 C 1369.82 3.87238 -1.73917 0
M  V30 14471 C 1367.73 4.31459 -4.04471 0
M  V30 14472 H 1366.66 0.645498 -0.389677 0
M  V30 14473 H 1369.31 1.10125 -1.46781 0
M  V30 14474 H 1367.69 3.72515 -1.34345 0
M  V30 14475 H 1368.86 2.45033 -3.9025 0
M  V30 14476 H 1367.18 2.34661 -3.43982 0
M  V30 14477 H 1369.77 4.85549 -2.23933 0
M  V30 14478 H 1370.12 4.1036 -0.700711 0
M  V30 14479 H 1370.65 3.31183 -2.20369 0
M  V30 14480 H 1367.39 4.13534 -5.08596 0
M  V30 14481 H 1366.91 4.84964 -3.52944 0
M  V30 14482 H 1368.59 5.00179 -4.10403 0
M  V30 14483 N 1368.72 1.0394 1.18466 0
M  V30 14484 C 1369.97 0.743141 1.88694 0
M  V30 14485 C 1370.3 -0.727211 1.8007 0
M  V30 14486 O 1369.57 -1.53058 1.20014 0
M  V30 14487 C 1369.86 1.20829 3.39223 0
M  V30 14488 C 1369.71 2.74064 3.56664 0
M  V30 14489 C 1371.03 0.797348 4.32817 0
M  V30 14490 H 1368.15 0.271437 0.685194 0
M  V30 14491 H 1370.79 1.29119 1.39386 0
M  V30 14492 H 1368.94 0.742033 3.81348 0
M  V30 14493 H 1370.61 3.28717 3.2364 0
M  V30 14494 H 1368.86 3.1395 2.99362 0
M  V30 14495 H 1369.53 3.01668 4.62277 0
M  V30 14496 H 1372 1.19854 3.98465 0
M  V30 14497 H 1370.88 1.15057 5.36706 0
M  V30 14498 H 1371.14 -0.299601 4.41084 0
M  V30 14499 N 1370.2 -1.34667 0.818693 0
M  V30 14500 C 1371.11 -2.33375 0.239429 0
M  V30 14501 C 1372.12 -1.62428 -0.623957 0
M  V30 14502 O 1373.3 -1.94223 -0.532854 0
M  V30 14503 C 1370.37 -3.41598 -0.59258 0
M  V30 14504 C 1369.43 -4.28301 0.292712 0
M  V30 14505 C 1368.66 -5.31356 -0.499682 0
M  V30 14506 O 1368.88 -5.43426 -1.73334 0
M  V30 14507 O 1367.82 -6.01789 0.115778 0
M  V30 14508 H 1371.64 -2.84738 1.05631 0
M  V30 14509 H 1369.23 -1.37651 0.58074 0
M  V30 14510 H 1371.11 -4.07692 -1.06607 0
M  V30 14511 H 1369.78 -2.92486 -1.38685 0
M  V30 14512 H 1368.69 -3.65145 0.81361 0
M  V30 14513 H 1370.02 -4.80843 1.05123 0
M  V30 14514 N 1371.68 -0.573274 -1.46804 0
M  V30 14515 C 1372.92 -0.0552613 -2.02425 0
M  V30 14516 C 1373.25 1.30098 -1.44585 0
M  V30 14517 O 1372.51 1.86366 -0.597166 0
M  V30 14518 C 1372.81 0.0704285 -3.57331 0
M  V30 14519 C 1372.47 -1.217 -4.34166 0
M  V30 14520 C 1371.13 -1.56973 -4.54877 0
M  V30 14521 C 1373.49 -2.06939 -4.78357 0
M  V30 14522 C 1370.81 -2.77302 -5.1703 0
M  V30 14523 C 1373.17 -3.26486 -5.41839 0
M  V30 14524 C 1371.83 -3.62053 -5.6078 0
M  V30 14525 H 1371.1 -0.0202215 -0.740724 0
M  V30 14526 H 1373.75 -0.748016 -1.76287 0
M  V30 14527 H 1372.05 0.846254 -3.82552 0
M  V30 14528 H 1373.75 0.486841 -3.98034 0
M  V30 14529 H 1370.34 -0.932374 -4.18336 0
M  V30 14530 H 1374.52 -1.80992 -4.62121 0
M  V30 14531 H 1369.78 -3.05008 -5.29887 0
M  V30 14532 H 1373.95 -3.92811 -5.75042 0
M  V30 14533 H 1371.58 -4.55385 -6.08711 0
M  V30 14534 N 1373.15 1.5451 -0.310553 0
M  V30 14535 C 1374.39 2.02236 0.296659 0
M  V30 14536 C 1374.76 1.19402 1.50357 0
M  V30 14537 O 1375.96 1.5687 2.18278 0
M  V30 14538 C 1374.23 3.51712 0.635107 0
M  V30 14539 S 1375.79 4.21388 1.22382 0
M  V30 14540 H 1372.61 0.705215 0.0905134 0
M  V30 14541 H 1375.21 1.90469 -0.440649 0
M  V30 14542 H 1373.91 4.09628 -0.251619 0
M  V30 14543 H 1373.44 3.67533 1.40295 0
M  V30 14544 H 1375.46 4.27962 2.51124 0
M  V30 14545 N 1374.63 0.0384594 1.57553 0
M  V30 14546 C 1375.58 -0.940256 2.10779 0
M  V30 14547 C 1376.55 -1.31705 1.01208 0
M  V30 14548 O 1377.74 -1.40874 1.28683 0
M  V30 14549 C 1374.88 -2.21419 2.64703 0
M  V30 14550 C 1373.99 -1.89302 3.88315 0
M  V30 14551 C 1373.12 -3.1106 4.30599 0
M  V30 14552 C 1372.16 -2.74805 5.46945 0
M  V30 14553 N 1371.3 -3.89217 5.84341 0
M  V30 14554 H 1376.14 -0.479458 2.94118 0
M  V30 14555 H 1373.68 -0.22505 1.45368 0
M  V30 14556 H 1375.63 -2.95946 2.94061 0
M  V30 14557 H 1374.26 -2.65099 1.84181 0
M  V30 14558 H 1373.32 -1.04977 3.65628 0
M  V30 14559 H 1374.63 -1.58607 4.72912 0
M  V30 14560 H 1373.78 -3.93898 4.61442 0
M  V30 14561 H 1372.52 -3.44924 3.44788 0
M  V30 14562 H 1371.53 -1.9038 5.15786 0
M  V30 14563 H 1372.75 -2.42147 6.34462 0
M  V30 14564 H 1370.7 -4.22905 5.01485 0
M  V30 14565 H 1370.61 -3.62177 6.63599 0
M  V30 14566 H 1371.88 -4.72732 6.19794 0
M  V30 14567 N 1376.11 -1.55841 -0.234795 0
M  V30 14568 C 1377.34 -1.82043 -0.976937 0
M  V30 14569 C 1377.75 -0.613552 -1.78975 0
M  V30 14570 O 1377.09 0.427271 -1.78662 0
M  V30 14571 C 1377.15 -3.0178 -1.95369 0
M  V30 14572 C 1376.82 -4.3732 -1.32666 0
M  V30 14573 C 1377.82 -5.14847 -0.723107 0
M  V30 14574 C 1375.5 -4.8403 -1.3424 0
M  V30 14575 C 1377.49 -6.37238 -0.143646 0
M  V30 14576 C 1375.18 -6.06367 -0.759087 0
M  V30 14577 C 1376.18 -6.82811 -0.16075 0
M  V30 14578 O 1375.87 -8.02836 0.41352 0
M  V30 14579 H 1375.6 -0.609424 -0.292537 0
M  V30 14580 H 1378.15 -2.03758 -0.259216 0
M  V30 14581 H 1376.38 -2.7585 -2.71005 0
M  V30 14582 H 1378.07 -3.14968 -2.56027 0
M  V30 14583 H 1378.84 -4.79873 -0.703371 0
M  V30 14584 H 1374.72 -4.24512 -1.7975 0
M  V30 14585 H 1378.26 -6.96847 0.324002 0
M  V30 14586 H 1374.16 -6.40816 -0.776191 0
M  V30 14587 H 1374.93 -8.17926 0.306554 0
M  V30 14588 N 1377.59 0.500963 -1.49426 0
M  V30 14589 C 1378.84 1.25261 -1.58601 0
M  V30 14590 C 1379.16 1.93056 -0.274647 0
M  V30 14591 O 1378.43 1.82736 0.706003 0
M  V30 14592 H 1377.01 0.465328 -0.584362 0
M  V30 14593 H 1379.67 0.580588 -1.86052 0
M  V30 14594 H 1378.77 2.01652 -2.38208 0
M  V30 14595 N 1379.07 1.38501 0.752011 0
M  V30 14596 C 1380.02 1.35975 1.88716 0
M  V30 14597 C 1381.01 0.245392 1.67613 0
M  V30 14598 O 1382.22 0.414514 1.75162 0
M  V30 14599 H 1378.59 0.424221 0.620919 0
M  V30 14600 H 1380.56 2.3176 1.87962 0
M  V30 14601 C 1379.31 1.20326 3.26216 0
M  V30 14602 H 1378.63 2.05336 3.43041 0
M  V30 14603 H 1380.07 1.22613 4.05884 0
M  V30 14604 C 1378.53 -0.0897029 3.36781 0
M  V30 14605 O 1379.06 -1.06615 3.87293 0
M  V30 14606 N 1377.27 -0.147065 2.90228 0
M  V30 14607 H 1376.82 0.648216 2.49311 0
M  V30 14608 H 1376.77 -1.01174 2.97676 0
M  V30 14609 N 1380.55 -0.980364 1.23396 0
M  V30 14610 C 1381.48 -2.0908 1.0396 0
M  V30 14611 C 1382.46 -1.70044 -0.0434946 0
M  V30 14612 O 1383.64 -1.93822 0.121155 0
M  V30 14613 C 1380.77 -3.41537 0.630061 0
M  V30 14614 C 1379.73 -3.94476 1.66051 0
M  V30 14615 C 1379.05 -5.23128 1.10641 0
M  V30 14616 C 1380.35 -4.23741 3.05354 0
M  V30 14617 H 1382.05 -2.25598 1.9684 0
M  V30 14618 H 1379.59 -1.08409 0.94781 0
M  V30 14619 H 1381.54 -4.18644 0.481145 0
M  V30 14620 H 1380.27 -3.24883 -0.334416 0
M  V30 14621 H 1378.93 -3.19513 1.79742 0
M  V30 14622 H 1378.58 -5.02824 0.132913 0
M  V30 14623 H 1378.28 -5.59515 1.79492 0
M  V30 14624 H 1379.8 -6.02857 0.969344 0
M  V30 14625 H 1381.21 -4.91598 2.94964 0
M  V30 14626 H 1379.61 -4.71329 3.71442 0
M  V30 14627 H 1380.68 -3.31012 3.54343 0
M  V30 14628 N 1382.02 -1.04567 -1.17913 0
M  V30 14629 C 1383.25 -0.772146 -1.92491 0
M  V30 14630 C 1383.67 0.665297 -1.75942 0
M  V30 14631 O 1383.03 1.46144 -1.07292 0
M  V30 14632 C 1383.08 -1.14966 -3.41782 0
M  V30 14633 O 1382.18 -0.278091 -4.11461 0
M  V30 14634 H 1381.52 -0.283715 -0.600335 0
M  V30 14635 H 1384.05 -1.39685 -1.49496 0
M  V30 14636 H 1384.06 -1.11374 -3.92505 0
M  V30 14637 H 1382.74 -2.1968 -3.53148 0
M  V30 14638 H 1381.32 -0.374073 -3.71019 0
M  V30 14639 N 1383.5 1.34231 -0.825823 0
M  V30 14640 C 1384.45 2.31378 -0.23809 0
M  V30 14641 C 1385.44 1.57537 0.622767 0
M  V30 14642 O 1386.65 1.72512 0.513783 0
M  V30 14643 H 1383.02 0.74974 -0.0582516 0
M  V30 14644 H 1385 2.78471 -1.07221 0
M  V30 14645 C 1383.74 3.42778 0.582969 0
M  V30 14646 H 1383.07 3.99739 -0.0701208 0
M  V30 14647 H 1384.51 4.12983 0.960266 0
M  V30 14648 C 1382.97 2.87486 1.75651 0
M  V30 14649 O 1383.5 2.82603 2.85479 0
M  V30 14650 N 1381.7 2.4427 1.57418 0
M  V30 14651 H 1381.25 2.48441 0.680792 0
M  V30 14652 H 1381.21 2.07626 2.36091 0
M  V30 14653 N 1384.98 0.581051 1.46498 0
M  V30 14654 C 1386.23 0.0659956 2.02392 0
M  V30 14655 C 1386.55 -1.29329 1.45273 0
M  V30 14656 O 1385.81 -1.86047 0.607041 0
M  V30 14657 C 1386.11 -0.0514774 3.57363 0
M  V30 14658 C 1385.77 1.24 4.33514 0
M  V30 14659 C 1384.44 1.59383 4.54038 0
M  V30 14660 C 1386.79 2.09473 4.77253 0
M  V30 14661 C 1384.12 2.8004 5.15552 0
M  V30 14662 C 1386.47 3.29355 5.401 0
M  V30 14663 C 1385.13 3.65022 5.58852 0
M  V30 14664 H 1384.4 0.0241495 0.740606 0
M  V30 14665 H 1387.05 0.757354 1.75887 0
M  V30 14666 H 1385.35 -0.825955 3.82995 0
M  V30 14667 H 1387.05 -0.465726 3.98286 0
M  V30 14668 H 1383.64 0.954547 4.17835 0
M  V30 14669 H 1387.83 1.83441 4.61154 0
M  V30 14670 H 1383.08 3.07814 5.28262 0
M  V30 14671 H 1387.26 3.95855 5.7295 0
M  V30 14672 H 1384.88 4.58607 6.06287 0
M  V30 14673 N 1386.46 -1.54343 0.318742 0
M  V30 14674 C 1387.39 -2.27118 -0.542206 0
M  V30 14675 C 1388.37 -1.27731 -1.12334 0
M  V30 14676 O 1389.55 -1.56535 -1.14937 0
M  V30 14677 C 1386.68 -3.02535 -1.70558 0
M  V30 14678 C 1385.64 -4.09218 -1.25398 0
M  V30 14679 C 1384.96 -4.72449 -2.50391 0
M  V30 14680 C 1386.26 -5.20971 -0.372332 0
M  V30 14681 H 1387.96 -2.9933 0.0648226 0
M  V30 14682 H 1385.5 -1.43963 0.0326168 0
M  V30 14683 H 1387.46 -3.52174 -2.31412 0
M  V30 14684 H 1386.18 -2.27931 -2.33912 0
M  V30 14685 H 1384.84 -3.60455 -0.668392 0
M  V30 14686 H 1384.49 -3.94466 -3.12099 0
M  V30 14687 H 1384.19 -5.4451 -2.20868 0
M  V30 14688 H 1385.71 -5.2486 -3.12016 0
M  V30 14689 H 1387.13 -5.66396 -0.887029 0
M  V30 14690 H 1385.52 -5.99859 -0.17009 0
M  V30 14691 H 1386.59 -4.81198 0.598064 0
M  V30 14692 N 1387.94 -0.0468143 -1.5753 0
M  V30 14693 C 1389.35 0.309707 -1.56566 0
M  V30 14694 C 1389.55 1.7173 -1.05408 0
M  V30 14695 O 1388.61 2.4235 -0.708723 0
M  V30 14696 C 1389.92 0.142151 -3.00364 0
M  V30 14697 C 1391.47 0.213585 -3.1227 0
M  V30 14698 C 1391.94 0.0746102 -4.57939 0
M  V30 14699 N 1393.43 0.131027 -4.63015 0
M  V30 14700 C 1394.17 0.0475409 -5.7338 0
M  V30 14701 N 1393.67 -0.0880445 -6.92744 0
M  V30 14702 N 1395.46 0.102809 -5.62006 0
M  V30 14703 H 1387.61 -0.967057 -1.89108 0
M  V30 14704 H 1389.87 -0.375018 -0.870669 0
M  V30 14705 H 1389.58 -0.828171 -3.4181 0
M  V30 14706 H 1389.45 0.905006 -3.66182 0
M  V30 14707 H 1391.84 1.17438 -2.70726 0
M  V30 14708 H 1391.92 -0.57995 -2.49139 0
M  V30 14709 H 1391.56 -0.882839 -5.00168 0
M  V30 14710 H 1391.49 0.887235 -5.19072 0
M  V30 14711 H 1393.99 0.235246 -3.77167 0
M  V30 14712 H 1394.3 -0.144574 -7.72665 0
M  V30 14713 H 1392.64 -0.12307 -6.94891 0
M  V30 14714 H 1395.83 0.207259 -4.67641 0
M  V30 14715 H 1396.01 0.0342865 -6.47991 0
M  V30 14716 N 1389.41 1.55964 0.226527 0
M  V30 14717 C 1390.38 1.91184 1.26418 0
M  V30 14718 C 1391.38 0.789982 1.40057 0
M  V30 14719 O 1392.57 1.05778 1.38407 0
M  V30 14720 C 1389.7 2.15826 2.63878 0
M  V30 14721 H 1390.89 2.83986 0.963956 0
M  V30 14722 H 1388.45 1.49169 0.466726 0
M  V30 14723 H 1389.18 1.2556 2.99007 0
M  V30 14724 H 1388.97 2.97549 2.55356 0
M  V30 14725 H 1390.46 2.44188 3.38765 0
M  V30 14726 N 1390.89 -0.493031 1.4969 0
M  V30 14727 C 1391.84 -1.59367 1.66945 0
M  V30 14728 C 1392.81 -1.58049 0.510842 0
M  V30 14729 O 1393.99 -1.75915 0.738822 0
M  V30 14730 C 1391.13 -2.97472 1.74941 0
M  V30 14731 C 1390.25 -3.08745 3.02159 0
M  V30 14732 C 1389.38 -4.37632 3.01085 0
M  V30 14733 C 1388.42 -4.42567 4.22849 0
M  V30 14734 N 1387.56 -5.62892 4.19639 0
M  V30 14735 H 1392.4 -1.4396 2.6092 0
M  V30 14736 H 1389.94 -0.700297 1.29361 0
M  V30 14737 H 1391.89 -3.7753 1.77558 0
M  V30 14738 H 1390.52 -3.11564 0.844252 0
M  V30 14739 H 1389.58 -2.217 3.09117 0
M  V30 14740 H 1390.89 -3.08251 3.92151 0
M  V30 14741 H 1390.04 -5.26018 3.02309 0
M  V30 14742 H 1388.78 -4.40702 2.08885 0
M  V30 14743 H 1387.79 -3.52581 4.21861 0
M  V30 14744 H 1389.01 -4.41205 5.1625 0
M  V30 14745 H 1386.96 -5.6679 3.30281 0
M  V30 14746 H 1386.87 -5.64048 5.03374 0
M  V30 14747 H 1388.14 -6.53464 4.24977 0
M  V30 14748 N 1392.37 -1.38898 -0.744656 0
M  V30 14749 C 1393.79 -1.20291 -1.04892 0
M  V30 14750 C 1393.99 -0.0577705 -2.01417 0
M  V30 14751 O 1393.04 0.593638 -2.45422 0
M  V30 14752 C 1394.36 -2.53302 -1.62045 0
M  V30 14753 C 1395.9 -2.60063 -1.74173 0
M  V30 14754 C 1396.38 -3.93272 -2.34736 0
M  V30 14755 N 1397.87 -3.9486 -2.42157 0
M  V30 14756 C 1398.6 -4.94698 -2.89933 0
M  V30 14757 N 1398.1 -6.04934 -3.37678 0
M  V30 14758 N 1399.89 -4.82083 -2.89055 0
M  V30 14759 H 1392.04 -2.12144 -0.104294 0
M  V30 14760 H 1394.31 -0.941725 -0.108895 0
M  V30 14761 H 1394.01 -3.376 -0.985868 0
M  V30 14762 H 1393.89 -2.72335 -2.60986 0
M  V30 14763 H 1396.27 -1.76155 -2.36756 0
M  V30 14764 H 1396.36 -2.44889 -0.739115 0
M  V30 14765 H 1396 -4.77607 -1.72784 0
M  V30 14766 H 1395.93 -4.05762 -3.35656 0
M  V30 14767 H 1398.42 -3.15243 -2.08399 0
M  V30 14768 H 1398.73 -6.77036 -3.72616 0
M  V30 14769 H 1397.08 -6.08541 -3.35712 0
M  V30 14770 H 1400.27 -3.9507 -2.51072 0
M  V30 14771 H 1400.44 -5.60039 -3.25975 0
M  V30 14772 N 1393.85 0.973806 -1.23914 0
M  V30 14773 C 1395.13 1.69087 -0.9833 0
M  V30 14774 C 1395.51 2.05186 0.49619 0
M  V30 14775 O 1394.85 1.75021 1.46901 0
M  V30 14776 C 1395.06 2.92739 -1.90012 0
M  V30 14777 C 1396.41 3.65112 -2.16745 0
M  V30 14778 O 1397.44 3.02785 -1.87616 0
M  V30 14779 O 1396.29 4.77293 -2.66183 0
M  V30 14780 H 1393.39 0.738919 -0.371386 0
M  V30 14781 H 1395.93 1.02844 -1.34986 0
M  V30 14782 H 1394.71 2.6271 -2.89999 0
M  V30 14783 H 1394.33 3.66718 -1.53635 0
M  V30 14784 N 1395.33 1.05191 1.17357 0
M  V30 14785 C 1396.29 0.65713 2.19578 0
M  V30 14786 C 1397.29 -0.29138 1.58138 0
M  V30 14787 O 1398.48 -0.075254 1.74037 0
M  V30 14788 C 1395.61 -0.0348162 3.40882 0
M  V30 14789 H 1396.8 1.56188 2.56018 0
M  V30 14790 H 1394.36 0.845795 1.31438 0
M  V30 14791 H 1395.09 -0.952835 3.09986 0
M  V30 14792 H 1394.88 0.647076 3.86724 0
M  V30 14793 H 1396.37 -0.297135 4.16542 0
M  V30 14794 N 1396.8 -1.33791 0.83293 0
M  V30 14795 C 1398.05 -1.97973 0.425781 0
M  V30 14796 C 1398.38 -1.66003 -1.01357 0
M  V30 14797 O 1397.63 -0.929016 -1.72243 0
M  V30 14798 C 1397.93 -3.52555 0.586485 0
M  V30 14799 C 1397.6 -4.04461 1.99304 0
M  V30 14800 C 1396.26 -4.18347 2.37779 0
M  V30 14801 C 1398.61 -4.3226 2.91206 0
M  V30 14802 C 1395.94 -4.57364 3.67471 0
M  V30 14803 C 1398.29 -4.72727 4.20371 0
M  V30 14804 C 1396.96 -4.84819 4.5881 0
M  V30 14805 H 1396.23 -0.724435 0.155804 0
M  V30 14806 H 1398.87 -1.59567 1.05881 0
M  V30 14807 H 1397.18 -3.91585 -0.129885 0
M  V30 14808 H 1398.88 -4.00208 0.251835 0
M  V30 14809 H 1395.47 -3.94122 1.68421 0
M  V30 14810 H 1399.65 -4.2106 2.6272 0
M  V30 14811 H 1394.91 -4.64918 3.97065 0
M  V30 14812 H 1399.08 -4.93194 4.91663 0
M  V30 14813 H 1396.71 -5.14809 5.59353 0
M  V30 14814 N 1398.28 -0.588812 -1.46187 0
M  V30 14815 C 1399.51 -0.0806571 -2.07243 0
M  V30 14816 C 1399.93 1.21766 -1.43369 0
M  V30 14817 O 1399.29 1.73694 -0.51964 0
M  V30 14818 C 1399.34 0.065267 -3.60541 0
M  V30 14819 O 1398.44 1.12026 -3.96893 0
M  V30 14820 H 1397.78 -0.0655622 -0.660755 0
M  V30 14821 H 1400.31 -0.813489 -1.87733 0
M  V30 14822 H 1400.32 0.269494 -4.07109 0
M  V30 14823 H 1399 -0.88284 -4.06422 0
M  V30 14824 H 1397.58 0.894 -3.62025 0
M  V30 14825 N 1399.76 1.54172 -0.326923 0
M  V30 14826 C 1401.17 1.86009 0.160446 0
M  V30 14827 C 1401.52 1.24851 1.51349 0
M  V30 14828 O 1400.65 0.555804 2.09141 0
M  V30 14829 C 1401.24 3.37488 0.297909 0
M  V30 14830 C 1399.8 3.69263 0.7295 0
M  V30 14831 C 1398.95 2.76911 -0.146778 0
M  V30 14832 H 1401.9 1.48972 -0.547093 0
M  V30 14833 H 1401.92 3.63388 1.12825 0
M  V30 14834 H 1401.43 3.81971 -0.687007 0
M  V30 14835 H 1399.53 3.30314 1.72404 0
M  V30 14836 H 1399.65 4.76149 0.53092 0
M  V30 14837 H 1398.01 2.51876 0.378212 0
M  V30 14838 H 1398.79 3.24221 -1.12852 0
M  V30 14839 N 1401.24 0.0551678 1.57503 0
M  V30 14840 C 1402.48 -0.621569 1.9472 0
M  V30 14841 C 1402.84 -1.67772 0.933626 0
M  V30 14842 O 1404.04 -2.40882 1.19287 0
M  V30 14843 C 1402.31 -1.19858 3.36703 0
M  V30 14844 S 1403.87 -1.89276 3.95879 0
M  V30 14845 H 1400.69 -0.203985 0.68111 0
M  V30 14846 H 1403.29 0.125058 1.951 0
M  V30 14847 H 1402 -0.417833 4.08267 0
M  V30 14848 H 1401.53 -1.98193 3.39828 0
M  V30 14849 H 1403.54 -3.17373 3.8143 0
M  V30 14850 N 1402.72 -1.56081 -0.218252 0
M  V30 14851 C 1403.68 -1.91851 -1.25402 0
M  V30 14852 C 1404.68 -0.797399 -1.39636 0
M  V30 14853 O 1405.87 -1.06511 -1.37844 0
M  V30 14854 C 1403 -2.17223 -2.6273 0
M  V30 14855 H 1404.19 -2.84493 -0.948882 0
M  V30 14856 H 1401.75 -1.49414 -0.458809 0
M  V30 14857 H 1402.48 -1.27144 -2.98337 0
M  V30 14858 H 1402.27 -2.98899 -2.53775 0
M  V30 14859 H 1403.76 -2.45981 -3.37466 0
M  V30 14860 N 1404.2 0.485086 -1.49949 0
M  V30 14861 C 1405.11 1.61089 -1.70551 0
M  V30 14862 C 1406.12 1.63752 -0.588333 0
M  V30 14863 O 1407.3 1.81879 -0.86498 0
M  V30 14864 C 1404.36 2.97382 -1.78227 0
M  V30 14865 C 1403.42 3.05219 -3.01894 0
M  V30 14866 C 1402.66 4.35011 -3.09195 0
M  V30 14867 O 1402.88 5.24722 -2.23658 0
M  V30 14868 O 1401.81 4.48151 -4.01802 0
M  V30 14869 H 1405.64 1.46633 -2.65956 0
M  V30 14870 H 1403.22 0.663091 -1.33879 0
M  V30 14871 H 1405.11 3.78356 -1.85538 0
M  V30 14872 H 1403.78 3.12066 -0.860043 0
M  V30 14873 H 1402.69 2.23373 -3.00092 0
M  V30 14874 H 1404.02 2.95467 -3.93649 0
M  V30 14875 N 1405.67 1.39291 0.737279 0
M  V30 14876 C 1406.62 1.37829 1.85127 0
M  V30 14877 C 1407.59 0.238321 1.64381 0
M  V30 14878 O 1408.78 0.433081 1.8582 0
M  V30 14879 C 1405.92 1.22531 3.22615 0
M  V30 14880 C 1405.03 2.46052 3.55081 0
M  V30 14881 C 1404.16 2.2336 4.81958 0
M  V30 14882 C 1403.2 3.42569 5.0726 0
M  V30 14883 N 1402.34 3.19209 6.2534 0
M  V30 14884 H 1407.18 2.33056 1.85712 0
M  V30 14885 H 1404.72 1.15772 0.907484 0
M  V30 14886 H 1406.67 1.11673 4.01976 0
M  V30 14887 H 1405.3 0.30934 3.21314 0
M  V30 14888 H 1404.36 2.67521 2.70438 0
M  V30 14889 H 1405.67 3.3485 3.69698 0
M  V30 14890 H 1404.82 2.09732 5.69295 0
M  V30 14891 H 1403.56 1.31953 4.6951 0
M  V30 14892 H 1402.57 3.56698 4.18386 0
M  V30 14893 H 1403.79 4.34874 5.21595 0
M  V30 14894 H 1401.74 2.30464 6.14184 0
M  V30 14895 H 1401.65 4.01562 6.40534 0
M  V30 14896 H 1402.92 3.09269 7.15523 0
M  V30 14897 N 1407.15 -0.967221 1.24429 0
M  V30 14898 C 1408.38 -1.75053 1.11226 0
M  V30 14899 C 1408.8 -1.85162 -0.331139 0
M  V30 14900 O 1408.16 -1.32288 -1.23974 0
M  V30 14901 C 1408.21 -3.14882 1.75733 0
M  V30 14902 O 1407.31 -3.99371 1.02842 0
M  V30 14903 H 1406.65 -0.538078 0.389061 0
M  V30 14904 H 1409.18 -1.21325 1.64746 0
M  V30 14905 H 1409.19 -3.65402 1.81509 0
M  V30 14906 H 1407.87 -3.06839 2.80754 0
M  V30 14907 H 1406.44 -3.57854 1.04856 0
M  V30 14908 N 1408.63 -1.05812 -1.16797 0
M  V30 14909 C 1410.04 -0.79707 -1.6883 0
M  V30 14910 C 1410.39 0.679967 -1.8404 0
M  V30 14911 O 1409.52 1.5279 -1.53245 0
M  V30 14912 C 1410.11 -1.44029 -3.06661 0
M  V30 14913 C 1408.67 -1.22714 -3.55835 0
M  V30 14914 C 1407.82 -1.51988 -2.31937 0
M  V30 14915 H 1410.77 -1.22224 -1.01227 0
M  V30 14916 H 1410.79 -0.852962 -3.70816 0
M  V30 14917 H 1410.3 -2.51529 -2.95559 0
M  V30 14918 H 1408.4 -0.171671 -3.72204 0
M  V30 14919 H 1408.52 -1.93646 -4.38221 0
M  V30 14920 H 1406.88 -0.940215 -2.36711 0
M  V30 14921 H 1407.66 -2.60635 -2.23438 0
M  V30 14922 N 1410.11 1.33347 -0.840014 0
M  V30 14923 C 1411.02 2.32965 -0.276527 0
M  V30 14924 C 1412.03 1.634 0.598037 0
M  V30 14925 O 1413.21 1.95046 0.501888 0
M  V30 14926 C 1410.27 3.42498 0.53816 0
M  V30 14927 C 1409.34 4.27781 -0.360814 0
M  V30 14928 C 1408.57 5.32083 0.415085 0
M  V30 14929 O 1408.79 5.46115 1.64666 0
M  V30 14930 O 1407.73 6.01528 -0.211503 0
M  V30 14931 H 1411.55 2.83022 -1.10147 0
M  V30 14932 H 1409.14 1.3671 -0.602566 0
M  V30 14933 H 1411.02 4.09336 1.00108 0
M  V30 14934 H 1409.69 2.94655 1.34015 0
M  V30 14935 H 1408.6 3.63805 -0.871598 0
M  V30 14936 H 1409.93 4.7911 -1.1276 0
M  V30 14937 N 1411.59 0.596556 1.45873 0
M  V30 14938 C 1412.52 -0.166704 2.28593 0
M  V30 14939 C 1413.53 -0.84231 1.39316 0
M  V30 14940 O 1414.72 -0.709548 1.63792 0
M  V30 14941 C 1411.82 -1.25641 3.1475 0
M  V30 14942 C 1410.99 -0.67006 4.32237 0
M  V30 14943 C 1410.05 -1.64924 4.99686 0
M  V30 14944 O 1409.08 -1.17986 5.56838 0
M  V30 14945 N 1410.28 -2.98355 4.9796 0
M  V30 14946 H 1413.04 0.543045 2.94739 0
M  V30 14947 H 1410.61 0.435274 1.55939 0
M  V30 14948 H 1412.6 -1.91104 3.56737 0
M  V30 14949 H 1411.17 -1.86883 2.50586 0
M  V30 14950 H 1410.39 0.162375 3.93865 0
M  V30 14951 H 1411.68 -0.258345 5.08144 0
M  V30 14952 H 1411.07 -3.39101 4.52799 0
M  V30 14953 H 1409.63 -3.5927 5.43846 0
M  V30 14954 N 1413.06 -1.53996 0.335095 0
M  V30 14955 C 1414.48 -1.59591 -0.0171422 0
M  V30 14956 C 1414.68 -1.35132 -1.49471 0
M  V30 14957 O 1413.74 -1.14141 -2.25229 0
M  V30 14958 C 1415.05 -2.97872 0.411443 0
M  V30 14959 C 1416.6 -3.10887 0.363072 0
M  V30 14960 C 1417.07 -4.51532 0.766995 0
M  V30 14961 N 1418.56 -4.57557 0.72085 0
M  V30 14962 C 1419.3 -5.64516 1.00544 0
M  V30 14963 N 1418.79 -6.79365 1.35777 0
M  V30 14964 N 1420.59 -5.54349 0.930243 0
M  V30 14965 H 1412.74 -1.68151 1.29766 0
M  V30 14966 H 1415 -0.787067 0.528422 0
M  V30 14967 H 1414.71 -3.20809 1.44134 0
M  V30 14968 H 1414.58 -3.76571 -0.217678 0
M  V30 14969 H 1416.97 -2.87679 -0.657642 0
M  V30 14970 H 1417.05 -2.34266 1.02728 0
M  V30 14971 H 1416.69 -4.75474 1.78568 0
M  V30 14972 H 1416.62 -5.26539 0.0803511 0
M  V30 14973 H 1419.11 -3.75079 0.460867 0
M  V30 14974 H 1419.43 -7.56891 1.55999 0
M  V30 14975 H 1417.77 -6.80833 1.39614 0
M  V30 14976 H 1420.96 -4.63503 0.654402 0
M  V30 14977 H 1421.14 -6.37616 1.15539 0
M  V30 14978 N 1414.54 -0.0635198 -1.57472 0
M  V30 14979 C 1415.79 0.606285 -1.92792 0
M  V30 14980 C 1416.11 1.70648 -0.943615 0
M  V30 14981 O 1415.38 1.95898 0.00957612 0
M  V30 14982 H 1413.96 0.226943 -0.711692 0
M  V30 14983 H 1416.62 -0.119429 -1.94534 0
M  V30 14984 H 1415.72 1.03694 -2.9437 0
M  V30 14985 N 1416.02 1.56195 0.209972 0
M  V30 14986 C 1417.44 1.49446 0.56018 0
M  V30 14987 C 1417.64 0.760799 1.86585 0
M  V30 14988 O 1416.69 0.305201 2.50649 0
M  V30 14989 C 1418 2.94054 0.628687 0
M  V30 14990 C 1419.55 3.04641 0.718531 0
M  V30 14991 C 1420.03 4.50631 0.81828 0
M  V30 14992 N 1421.52 4.54721 0.8822 0
M  V30 14993 C 1422.25 5.64976 0.979292 0
M  V30 14994 N 1421.75 6.84955 1.03961 0
M  V30 14995 N 1423.54 5.52854 1.01533 0
M  V30 14996 H 1415.69 2.02316 -0.646674 0
M  V30 14997 H 1417.96 0.920063 -0.228446 0
M  V30 14998 H 1417.66 3.50728 -0.261324 0
M  V30 14999 H 1417.54 3.46592 1.48842 0
M  V30 15000 H 1419.92 2.48026 1.59898 0
M  V30 15001 H 1420 2.55254 -0.167102 0
M  V30 15002 H 1419.65 5.07867 -0.0577557 0
M  V30 15003 H 1419.58 4.97736 1.7195 0
M  V30 15004 H 1422.07 3.68322 0.845433 0
M  V30 15005 H 1422.38 7.64732 1.11379 0
M  V30 15006 H 1420.73 6.87643 1.00854 0
M  V30 15007 H 1423.92 4.58046 0.96494 0
M  V30 15008 H 1424.09 6.38809 1.08754 0
M  V30 15009 N 1417.5 -0.477127 1.50204 0
M  V30 15010 C 1418.74 -1.22964 1.60891 0
M  V30 15011 C 1419.07 -1.9207 0.306464 0
M  V30 15012 O 1418.33 -1.82472 -0.707272 0
M  V30 15013 C 1418.63 -2.30126 2.73453 0
M  V30 15014 C 1418.29 -1.78314 4.14143 0
M  V30 15015 C 1416.95 -1.63904 4.52425 0
M  V30 15016 C 1419.31 -1.3981 5.02098 0
M  V30 15017 C 1416.63 -1.09404 5.76409 0
M  V30 15018 C 1418.99 -0.867538 6.26623 0
M  V30 15019 C 1417.65 -0.710022 6.63713 0
M  V30 15020 H 1416.92 -0.449959 0.588743 0
M  V30 15021 H 1419.57 -0.526592 1.84118 0
M  V30 15022 H 1417.87 -3.06315 2.44291 0
M  V30 15023 H 1419.57 -2.88099 2.78927 0
M  V30 15024 H 1416.16 -1.90496 3.83939 0
M  V30 15025 H 1420.34 -1.49779 4.73159 0
M  V30 15026 H 1415.6 -0.959413 6.03825 0
M  V30 15027 H 1419.77 -0.560496 6.94141 0
M  V30 15028 H 1417.4 -0.285555 7.59663 0
M  V30 15029 N 1418.98 -1.3968 -0.729882 0
M  V30 15030 C 1420.39 -1.21396 -1.0361 0
M  V30 15031 C 1420.59 -0.0791302 -2.01345 0
M  V30 15032 O 1419.65 0.567575 -2.46038 0
M  V30 15033 C 1420.96 -2.55006 -1.59349 0
M  V30 15034 C 1422.51 -2.61896 -1.71405 0
M  V30 15035 C 1422.98 -3.9574 -2.30552 0
M  V30 15036 N 1424.48 -3.97406 -2.37955 0
M  V30 15037 C 1425.21 -4.97745 -2.8467 0
M  V30 15038 N 1424.71 -6.08482 -3.31243 0
M  V30 15039 N 1426.5 -4.85121 -2.83925 0
M  V30 15040 H 1418.65 -2.12242 -0.081787 0
M  V30 15041 H 1420.91 -0.942827 -0.0989005 0
M  V30 15042 H 1420.62 -3.38626 -0.950005 0
M  V30 15043 H 1420.49 -2.75087 -2.58083 0
M  V30 15044 H 1422.88 -1.78656 -2.34874 0
M  V30 15045 H 1422.96 -2.45659 -0.7131 0
M  V30 15046 H 1422.61 -4.79412 -1.67709 0
M  V30 15047 H 1422.54 -4.09299 -3.31334 0
M  V30 15048 H 1425.03 -3.17435 -2.05044 0
M  V30 15049 H 1425.34 -6.8095 -3.65414 0
M  V30 15050 H 1423.68 -6.12068 -3.29239 0
M  V30 15051 H 1426.88 -3.97711 -2.46867 0
M  V30 15052 H 1427.05 -5.63465 -3.20017 0
M  V30 15053 N 1420.45 0.960609 -1.2494 0
M  V30 15054 C 1421.42 2.03791 -1.04891 0
M  V30 15055 C 1422.42 1.608 -0.00375792 0
M  V30 15056 O 1423.61 1.72463 -0.24539 0
M  V30 15057 C 1420.74 3.35733 -0.591309 0
M  V30 15058 H 1421.93 2.2301 -2.00516 0
M  V30 15059 H 1419.49 1.13686 -1.07263 0
M  V30 15060 H 1420.22 3.22207 0.367816 0
M  V30 15061 H 1420.01 3.68283 -1.34574 0
M  V30 15062 H 1421.5 4.14921 -0.472283 0
M  V30 15063 N 1421.93 1.0643 1.16234 0
M  V30 15064 C 1422.87 0.620534 2.19601 0
M  V30 15065 C 1423.84 -0.35739 1.58624 0
M  V30 15066 O 1425.03 -0.266037 1.86613 0
M  V30 15067 C 1422.15 -0.0901061 3.3858 0
M  V30 15068 C 1421.2 0.844789 4.1805 0
M  V30 15069 S 1422.03 2.34077 4.81631 0
M  V30 15070 C 1423.19 1.64167 6.03987 0
M  V30 15071 H 1423.42 1.49626 2.56903 0
M  V30 15072 H 1420.96 0.877398 1.27048 0
M  V30 15073 H 1422.91 -0.493891 4.07518 0
M  V30 15074 H 1421.57 -0.942042 2.9964 0
M  V30 15075 H 1420.77 0.294135 5.03141 0
M  V30 15076 H 1420.37 1.18852 3.54613 0
M  V30 15077 H 1422.66 0.948043 6.70834 0
M  V30 15078 H 1423.6 2.47054 6.63604 0
M  V30 15079 H 1424.01 1.12366 5.53203 0
M  V30 15080 N 1423.41 -1.329 0.847073 0
M  V30 15081 C 1424.66 -1.97803 0.447417 0
M  V30 15082 C 1424.99 -1.6691 -0.9927 0
M  V30 15083 O 1424.26 -0.953315 -1.69535 0
M  V30 15084 C 1424.55 -3.53657 0.678135 0
M  V30 15085 C 1424.4 -3.94207 2.16612 0
M  V30 15086 C 1425.72 -4.39909 0.129589 0
M  V30 15087 H 1422.84 -0.718514 0.164034 0
M  V30 15088 H 1425.48 -1.57407 1.0641 0
M  V30 15089 H 1423.63 -3.88198 0.153222 0
M  V30 15090 H 1425.3 -3.69883 2.75653 0
M  V30 15091 H 1423.55 -3.43641 2.64752 0
M  V30 15092 H 1424.22 -5.02791 2.27827 0
M  V30 15093 H 1426.69 -4.12061 0.578371 0
M  V30 15094 H 1425.57 -5.47963 0.320648 0
M  V30 15095 H 1425.83 -4.31391 -0.967167 0
M  V30 15096 N 1424.89 -0.604284 -1.45555 0
M  V30 15097 C 1425.8 0.118409 -2.34301 0
M  V30 15098 C 1426.81 0.863807 -1.51044 0
M  V30 15099 O 1427.99 0.822138 -1.83856 0
M  V30 15100 C 1425.06 1.10538 -3.28606 0
M  V30 15101 C 1424.12 0.362301 -4.27768 0
M  V30 15102 C 1423.35 1.30226 -5.17568 0
M  V30 15103 O 1423.57 2.53991 -5.10729 0
M  V30 15104 O 1422.51 0.801116 -5.96545 0
M  V30 15105 H 1426.33 -0.610816 -2.97494 0
M  V30 15106 H 1423.92 -0.364562 -1.44884 0
M  V30 15107 H 1425.8 1.67392 -3.86727 0
M  V30 15108 H 1424.47 1.81569 -2.67982 0
M  V30 15109 H 1423.38 -0.248616 -3.73273 0
M  V30 15110 H 1424.71 -0.307454 -4.91239 0
M  V30 15111 N 1426.37 1.53816 -0.343257 0
M  V30 15112 C 1427.3 2.27951 0.506005 0
M  V30 15113 C 1428.28 1.29502 1.10287 0
M  V30 15114 O 1429.46 1.58344 1.12432 0
M  V30 15115 C 1426.59 3.0521 1.65723 0
M  V30 15116 C 1425.55 4.11161 1.18871 0
M  V30 15117 C 1424.87 4.76373 2.42843 0
M  V30 15118 C 1426.17 5.21498 0.289403 0
M  V30 15119 H 1427.87 2.99189 -0.112435 0
M  V30 15120 H 1425.41 1.43893 -0.055516 0
M  V30 15121 H 1427.37 3.55811 2.2578 0
M  V30 15122 H 1426.09 2.31624 2.30256 0
M  V30 15123 H 1424.75 3.61473 0.610962 0
M  V30 15124 H 1424.4 3.99381 3.05784 0
M  V30 15125 H 1424.1 5.47955 2.12177 0
M  V30 15126 H 1425.62 5.29758 3.03627 0
M  V30 15127 H 1427.03 5.67736 0.796808 0
M  V30 15128 H 1425.43 6.00054 0.0746366 0
M  V30 15129 H 1426.5 4.80185 -0.674543 0
M  V30 15130 N 1427.84 0.0718701 1.57436 0
M  V30 15131 C 1428.81 -0.880671 2.11605 0
M  V30 15132 C 1429.81 -1.22632 1.0401 0
M  V30 15133 O 1431 -1.15958 1.29997 0
M  V30 15134 C 1428.13 -2.18407 2.61746 0
M  V30 15135 H 1429.32 -0.410712 2.97074 0
M  V30 15136 H 1426.88 -0.176836 1.55296 0
M  V30 15137 H 1427.61 -2.6994 1.79731 0
M  V30 15138 H 1427.4 -1.94616 3.40392 0
M  V30 15139 H 1428.89 -2.86596 3.03731 0
M  V30 15140 N 1429.32 -1.56304 -0.201686 0
M  V30 15141 C 1430.74 -1.49741 -0.552247 0
M  V30 15142 C 1430.94 -0.770683 -1.86179 0
M  V30 15143 O 1429.99 -0.318489 -2.50483 0
M  V30 15144 C 1431.31 -2.94384 -0.613083 0
M  V30 15145 C 1432.86 -3.05018 -0.702365 0
M  V30 15146 C 1433.33 -4.51058 -0.794371 0
M  V30 15147 N 1434.82 -4.55183 -0.858072 0
M  V30 15148 C 1435.56 -5.65487 -0.949317 0
M  V30 15149 N 1435.05 -6.85497 -1.00327 0
M  V30 15150 N 1436.85 -5.53385 -0.985995 0
M  V30 15151 H 1429 -2.01971 0.657394 0
M  V30 15152 H 1431.26 -0.918839 0.233322 0
M  V30 15153 H 1430.97 -3.50584 0.279921 0
M  V30 15154 H 1430.84 -3.47376 -1.47002 0
M  V30 15155 H 1433.23 -2.4887 -1.5858 0
M  V30 15156 H 1433.31 -2.55161 0.180636 0
M  V30 15157 H 1432.95 -5.07829 0.0846883 0
M  V30 15158 H 1432.88 -4.98641 -1.69308 0
M  V30 15159 H 1435.37 -3.68765 -0.825888 0
M  V30 15160 H 1435.69 -7.65312 -1.07322 0
M  V30 15161 H 1434.03 -6.88169 -0.972061 0
M  V30 15162 H 1437.22 -4.58552 -0.940635 0
M  V30 15163 H 1437.39 -6.39376 -1.05365 0
M  V30 15164 N 1430.8 0.469154 -1.50455 0
M  V30 15165 C 1431.73 1.57493 -1.7239 0
M  V30 15166 C 1432.71 1.60161 -0.572915 0
M  V30 15167 O 1433.9 1.76397 -0.812259 0
M  V30 15168 C 1431.03 2.95804 -1.81981 0
M  V30 15169 C 1429.98 3.08001 -2.97185 0
M  V30 15170 C 1429.31 4.4798 -2.91922 0
M  V30 15171 C 1430.61 2.85039 -4.37665 0
M  V30 15172 H 1432.3 1.39389 -2.64974 0
M  V30 15173 H 1429.85 0.669133 -1.27509 0
M  V30 15174 H 1431.8 3.73091 -1.95911 0
M  V30 15175 H 1430.52 3.15068 -0.86021 0
M  V30 15176 H 1429.18 2.33148 -2.82909 0
M  V30 15177 H 1428.83 4.64165 -1.93803 0
M  V30 15178 H 1428.53 4.57076 -3.69263 0
M  V30 15179 H 1430.05 5.27284 -3.07903 0
M  V30 15180 H 1431.47 3.52074 -4.52456 0
M  V30 15181 H 1429.87 3.05578 -5.16471 0
M  V30 15182 H 1430.94 1.8088 -4.499 0
M  V30 15183 N 1432.28 1.40065 0.722464 0
M  V30 15184 C 1433.56 1.28473 1.47493 0
M  V30 15185 C 1433.94 -0.100058 2.10863 0
M  V30 15186 O 1433.28 -1.11232 1.99599 0
M  V30 15187 C 1433.49 2.41842 2.51621 0
M  V30 15188 C 1434.84 2.81753 3.17648 0
M  V30 15189 O 1435.87 2.41385 2.61939 0
M  V30 15190 O 1434.72 3.51473 4.18484 0
M  V30 15191 H 1431.82 0.504158 0.655556 0
M  V30 15192 H 1434.36 1.51969 0.755223 0
M  V30 15193 H 1433.14 3.34365 2.03263 0
M  V30 15194 H 1432.76 2.20079 3.31136 0
M  V30 15195 N 1433.76 -0.95397 1.25448 0
M  V30 15196 C 1435.17 -1.22516 1.02284 0
M  V30 15197 C 1435.37 -1.99816 -0.259933 0
M  V30 15198 O 1434.43 -2.33022 -0.972479 0
M  V30 15199 C 1435.74 -1.9989 2.24643 0
M  V30 15200 C 1437.29 -2.1293 2.29412 0
M  V30 15201 C 1437.77 -2.93703 3.51429 0
M  V30 15202 N 1439.26 -3.01281 3.51829 0
M  V30 15203 C 1439.99 -3.64174 4.42905 0
M  V30 15204 N 1439.49 -4.28673 5.44253 0
M  V30 15205 N 1441.28 -3.61321 4.30585 0
M  V30 15206 H 1433.43 -0.436859 2.07859 0
M  V30 15207 H 1435.69 -0.255744 0.912852 0
M  V30 15208 H 1435.4 -1.50489 3.17877 0
M  V30 15209 H 1435.27 -3.00593 2.27868 0
M  V30 15210 H 1437.66 -2.61528 1.367 0
M  V30 15211 H 1437.74 -1.1153 2.30206 0
M  V30 15212 H 1437.39 -2.45795 4.44463 0
M  V30 15213 H 1437.32 -3.95331 3.47881 0
M  V30 15214 H 1439.81 -2.55414 2.78517 0
M  V30 15215 H 1440.12 -4.74522 6.09958 0
M  V30 15216 H 1438.47 -4.27299 5.48125 0
M  V30 15217 H 1441.66 -3.10118 3.50634 0
M  V30 15218 H 1441.83 -4.1005 5.0176 0
M  V30 15219 N 1435.24 -1.07045 -1.15668 0
M  V30 15220 C 1436.65 -0.795369 -1.38369 0
M  V30 15221 C 1436.85 0.601829 -1.92303 0
M  V30 15222 O 1435.91 1.36109 -2.12675 0
M  V30 15223 C 1437.22 -1.86659 -2.35752 0
M  V30 15224 C 1438.77 -1.89098 -2.49421 0
M  V30 15225 C 1439.24 -2.95296 -3.50092 0
M  V30 15226 N 1440.73 -2.94378 -3.57625 0
M  V30 15227 C 1441.47 -3.73194 -4.35331 0
M  V30 15228 N 1440.97 -4.61851 -5.16397 0
M  V30 15229 N 1442.76 -3.61554 -4.30389 0
M  V30 15230 H 1434.91 -1.97162 -0.790004 0
M  V30 15231 H 1437.17 -0.854816 -0.40987 0
M  V30 15232 H 1436.88 -2.87036 -2.03232 0
M  V30 15233 H 1436.75 -1.72406 -3.35494 0
M  V30 15234 H 1439.14 -0.893752 -2.8124 0
M  V30 15235 H 1439.22 -2.07429 -1.49689 0
M  V30 15236 H 1438.86 -3.95217 -3.19008 0
M  V30 15237 H 1438.79 -2.74212 -4.49572 0
M  V30 15238 H 1441.29 -2.3011 -2.99763 0
M  V30 15239 H 1441.6 -5.18629 -5.72926 0
M  V30 15240 H 1439.94 -4.65902 -5.15714 0
M  V30 15241 H 1443.13 -2.91672 -3.66122 0
M  V30 15242 H 1443.31 -4.23221 -4.90701 0
M  V30 15243 N 1436.71 1.32449 -0.85411 0
M  V30 15244 C 1438.13 1.50046 -0.543895 0
M  V30 15245 C 1438.33 1.78985 0.925561 0
M  V30 15246 O 1437.39 1.85909 1.70862 0
M  V30 15247 C 1438.7 2.64499 -1.43041 0
M  V30 15248 C 1440.25 2.78384 -1.43078 0
M  V30 15249 C 1440.72 3.95915 -2.3025 0
M  V30 15250 N 1442.21 4.03176 -2.28043 0
M  V30 15251 C 1442.95 4.9335 -2.92221 0
M  V30 15252 N 1442.44 5.88536 -3.6551 0
M  V30 15253 N 1444.24 4.86468 -2.81612 0
M  V30 15254 H 1436.39 1.11931 -1.80514 0
M  V30 15255 H 1438.65 0.551626 -0.770982 0
M  V30 15256 H 1438.36 2.49842 -2.47532 0
M  V30 15257 H 1438.23 3.60269 -1.11742 0
M  V30 15258 H 1440.62 2.92464 -0.393529 0
M  V30 15259 H 1440.7 1.83329 -1.78393 0
M  V30 15260 H 1440.34 3.82594 -3.34043 0
M  V30 15261 H 1440.27 4.90245 -1.92268 0
M  V30 15262 H 1442.76 3.35064 -1.74759 0
M  V30 15263 H 1443.08 6.54038 -4.11648 0
M  V30 15264 H 1441.42 5.88564 -3.69618 0
M  V30 15265 H 1444.61 4.11076 -2.23907 0
M  V30 15266 H 1444.79 5.56542 -3.3191 0
M  V30 15267 N 1438.19 0.611994 1.45232 0
M  V30 15268 C 1439.6 0.193464 1.85695 0
M  V30 15269 C 1439.95 -1.25069 1.5117 0
M  V30 15270 O 1439.08 -1.94894 0.940497 0
M  V30 15271 C 1439.67 0.344334 3.37046 0
M  V30 15272 C 1438.23 -0.0195378 3.76395 0
M  V30 15273 C 1437.38 0.666714 2.69166 0
M  V30 15274 H 1440.33 0.818395 1.35971 0
M  V30 15275 H 1440.35 -0.422209 3.7815 0
M  V30 15276 H 1439.86 1.3955 3.62143 0
M  V30 15277 H 1437.96 -1.06971 3.56915 0
M  V30 15278 H 1438.08 0.377184 4.77613 0
M  V30 15279 H 1436.44 0.103912 2.54488 0
M  V30 15280 H 1437.22 1.7201 2.97099 0
M  V30 15281 N 1439.67 -1.53632 0.351409 0
M  V30 15282 C 1440.92 -2.00643 -0.242208 0
M  V30 15283 C 1441.24 -1.24074 -1.50435 0
M  V30 15284 O 1440.51 -0.350067 -1.92747 0
M  V30 15285 H 1439.09 -0.741252 -0.0924904 0
M  V30 15286 H 1441.75 -1.89039 0.474379 0
M  V30 15287 H 1440.85 -3.084 -0.479151 0
M  V30 15288 N 1441.15 -0.0802183 -1.57396 0
M  V30 15289 C 1442.37 0.599179 -1.98556 0
M  V30 15290 C 1442.8 1.61844 -0.958555 0
M  V30 15291 O 1442.16 1.81146 0.0748226 0
M  V30 15292 C 1442.2 1.23675 -3.38728 0
M  V30 15293 O 1441.31 2.35262 -3.38712 0
M  V30 15294 H 1440.65 0.153366 -0.646045 0
M  V30 15295 H 1443.18 -0.157227 -2.03995 0
M  V30 15296 H 1443.19 1.5816 -3.76098 0
M  V30 15297 H 1441.86 0.489946 -4.13004 0
M  V30 15298 H 1440.44 2.02507 -3.13122 0
M  V30 15299 N 1442.63 1.56409 0.193394 0
M  V30 15300 C 1443.85 1.8519 0.933775 0
M  V30 15301 C 1444.28 0.663991 1.75991 0
M  V30 15302 O 1443.63 -0.387198 1.77117 0
M  V30 15303 C 1443.68 3.12212 1.80432 0
M  V30 15304 O 1442.79 2.92884 2.90332 0
M  V30 15305 H 1442.13 0.609754 0.262862 0
M  V30 15306 H 1444.66 2.03638 0.198195 0
M  V30 15307 H 1444.67 3.4305 2.20864 0
M  V30 15308 H 1443.34 3.98292 1.19733 0
M  V30 15309 H 1441.92 2.73349 2.53643 0
M  V30 15310 N 1444.1 -0.461169 1.50702 0
M  V30 15311 C 1445.38 -1.22225 1.52711 0
M  V30 15312 C 1445.76 -2.09268 0.27749 0
M  V30 15313 O 1445.11 -2.16232 -0.738642 0
M  V30 15314 C 1445.32 -2.04472 2.82829 0
M  V30 15315 C 1446.67 -2.62326 3.33872 0
M  V30 15316 O 1447.69 -2.14706 2.84218 0
M  V30 15317 O 1446.55 -3.49116 4.20453 0
M  V30 15318 H 1443.64 -0.555168 0.612958 0
M  V30 15319 H 1446.19 -0.47218 1.62999 0
M  V30 15320 H 1444.96 -1.40392 3.65247 0
M  V30 15321 H 1444.58 -2.86593 2.75591 0
M  V30 15322 N 1445.58 -1.40446 -0.715026 0
M  V30 15323 C 1447 -1.22488 -1.02317 0
M  V30 15324 C 1447.2 -0.100481 -2.01249 0
M  V30 15325 O 1446.25 0.541447 -2.46626 0
M  V30 15326 C 1447.57 -2.56682 -1.56636 0
M  V30 15327 C 1449.11 -2.63699 -1.68617 0
M  V30 15328 C 1449.59 -3.98163 -2.26342 0
M  V30 15329 N 1451.08 -3.99907 -2.33727 0
M  V30 15330 C 1451.82 -5.00737 -2.79375 0
M  V30 15331 N 1451.31 -6.11961 -3.24771 0
M  V30 15332 N 1453.1 -4.88106 -2.78764 0
M  V30 15333 H 1445.26 -2.12317 -0.0592712 0
M  V30 15334 H 1447.52 -0.943823 -0.088895 0
M  V30 15335 H 1447.22 -3.39615 -0.914036 0
M  V30 15336 H 1447.1 -2.77809 -2.55151 0
M  V30 15337 H 1449.49 -1.81138 -2.32966 0
M  V30 15338 H 1449.57 -2.46402 -0.687004 0
M  V30 15339 H 1449.21 -4.81164 -1.62614 0
M  V30 15340 H 1449.14 -4.1279 -3.26974 0
M  V30 15341 H 1451.63 -3.19592 -2.01666 0
M  V30 15342 H 1451.94 -6.84787 -3.58171 0
M  V30 15343 H 1450.29 -6.15525 -3.22729 0
M  V30 15344 H 1453.48 -4.00307 -2.42635 0
M  V30 15345 H 1453.65 -5.66828 -3.14023 0
M  V30 15346 N 1447.06 0.947303 -1.25952 0
M  V30 15347 C 1448.31 1.6953 -1.11299 0
M  V30 15348 C 1448.64 1.9113 0.343961 0
M  V30 15349 O 1447.91 1.48755 1.25309 0
M  V30 15350 C 1448.2 3.0738 -1.87588 0
M  V30 15351 C 1448.05 2.93145 -3.41154 0
M  V30 15352 C 1449.37 4.07396 -1.66483 0
M  V30 15353 H 1446.49 0.615281 -0.405707 0
M  V30 15354 H 1449.13 1.10064 -1.54874 0
M  V30 15355 H 1447.28 3.58143 -1.50553 0
M  V30 15356 H 1448.95 2.49651 -3.87907 0
M  V30 15357 H 1447.19 2.28902 -3.68492 0
M  V30 15358 H 1447.87 3.9089 -3.89755 0
M  V30 15359 H 1450.34 3.65572 -1.98738 0
M  V30 15360 H 1449.22 5.01876 -2.22287 0
M  V30 15361 H 1449.48 4.379 -0.607916 0
M  V30 15362 N 1448.54 1.07657 1.15099 0
M  V30 15363 C 1449.47 0.721201 2.22083 0
M  V30 15364 C 1450.45 -0.292808 1.67561 0
M  V30 15365 O 1451.63 -0.164872 1.93499 0
M  V30 15366 C 1448.76 0.12153 3.47087 0
M  V30 15367 C 1447.72 1.06303 4.14588 0
M  V30 15368 C 1447.04 0.325964 5.33706 0
M  V30 15369 C 1448.34 2.39796 4.63999 0
M  V30 15370 H 1450.04 1.61566 2.52065 0
M  V30 15371 H 1447.58 0.778282 1.21156 0
M  V30 15372 H 1449.54 -0.139037 4.21171 0
M  V30 15373 H 1448.26 -0.808022 3.16447 0
M  V30 15374 H 1446.92 1.30858 3.4245 0
M  V30 15375 H 1446.57 -0.607147 4.99322 0
M  V30 15376 H 1446.27 0.953552 5.79811 0
M  V30 15377 H 1447.79 0.0732695 6.10556 0
M  V30 15378 H 1449.21 2.19552 5.29594 0
M  V30 15379 H 1447.6 2.98178 5.20778 0
M  V30 15380 H 1448.67 3.01876 3.79472 0
M  V30 15381 N 1450.02 -1.31994 0.861122 0
M  V30 15382 C 1451.26 -1.97025 0.467678 0
M  V30 15383 C 1451.59 -1.68116 -0.978129 0
M  V30 15384 O 1450.85 -0.965342 -1.70234 0
M  V30 15385 C 1451.15 -3.51232 0.661135 0
M  V30 15386 C 1450.81 -4.00142 2.07839 0
M  V30 15387 C 1449.47 -4.1321 2.466 0
M  V30 15388 C 1451.83 -4.25986 3.00309 0
M  V30 15389 C 1449.15 -4.49467 3.7709 0
M  V30 15390 C 1451.51 -4.63704 4.30304 0
M  V30 15391 C 1450.17 -4.74978 4.68991 0
M  V30 15392 H 1449.44 -0.720967 0.171136 0
M  V30 15393 H 1452.09 -1.57285 1.09242 0
M  V30 15394 H 1450.39 -3.91772 -0.0467947 0
M  V30 15395 H 1452.09 -3.99584 0.336669 0
M  V30 15396 H 1448.68 -3.90461 1.76743 0
M  V30 15397 H 1452.86 -4.15393 2.71592 0
M  V30 15398 H 1448.12 -4.56391 4.06838 0
M  V30 15399 H 1452.29 -4.82654 5.02014 0
M  V30 15400 H 1449.92 -5.02828 5.70147 0
M  V30 15401 N 1451.49 -0.619688 -1.44906 0
M  V30 15402 C 1452.46 0.0822364 -2.29052 0
M  V30 15403 C 1453.46 0.783427 -1.40425 0
M  V30 15404 O 1454.65 0.629751 -1.62419 0
M  V30 15405 C 1451.78 1.12685 -3.21737 0
M  V30 15406 H 1452.97 -0.657726 -2.92599 0
M  V30 15407 H 1450.53 -0.379286 -1.51628 0
M  V30 15408 H 1451.26 1.89717 -2.63017 0
M  V30 15409 H 1451.05 0.628122 -3.87036 0
M  V30 15410 H 1452.54 1.61808 -3.84978 0
M  V30 15411 N 1452.97 1.53444 -0.359552 0
M  V30 15412 C 1454.39 1.59598 -0.00824946 0
M  V30 15413 C 1454.59 1.37492 1.47303 0
M  V30 15414 O 1453.64 1.1771 2.23385 0
M  V30 15415 C 1454.96 2.9718 -0.45878 0
M  V30 15416 C 1456.51 3.1027 -0.412485 0
M  V30 15417 C 1456.98 4.50255 -0.838733 0
M  V30 15418 N 1458.47 4.56352 -0.793552 0
M  V30 15419 C 1459.21 5.62845 -1.09513 0
M  V30 15420 N 1458.7 6.77119 -1.46567 0
M  V30 15421 N 1460.5 5.52799 -1.01832 0
M  V30 15422 H 1452.65 1.66065 -1.32424 0
M  V30 15423 H 1454.91 0.778561 -0.540876 0
M  V30 15424 H 1454.62 3.18475 -1.4922 0
M  V30 15425 H 1454.49 3.7687 0.157741 0
M  V30 15426 H 1456.88 2.88689 0.611791 0
M  V30 15427 H 1456.96 2.32602 -1.06442 0
M  V30 15428 H 1456.6 4.72573 -1.8611 0
M  V30 15429 H 1456.53 5.26344 -0.164109 0
M  V30 15430 H 1459.02 3.74299 -0.52048 0
M  V30 15431 H 1459.34 7.54313 -1.68021 0
M  V30 15432 H 1457.68 6.78525 -1.50427 0
M  V30 15433 H 1460.87 4.62403 -0.728059 0
M  V30 15434 H 1461.04 6.35698 -1.25668 0
M  V30 15435 N 1454.45 0.0885642 1.57351 0
M  V30 15436 C 1455.7 -0.576675 1.94115 0
M  V30 15437 C 1456.03 -1.68595 0.969842 0
M  V30 15438 O 1455.28 -1.95697 -0.0116998 0
M  V30 15439 C 1455.58 -1.17764 3.37441 0
M  V30 15440 C 1455.25 -0.192813 4.50488 0
M  V30 15441 C 1453.91 0.0780722 4.81137 0
M  V30 15442 C 1456.26 0.479997 5.18985 0
M  V30 15443 C 1453.59 1.02857 5.77613 0
M  V30 15444 C 1455.94 1.41892 6.16481 0
M  V30 15445 C 1454.6 1.69811 6.45539 0
M  V30 15446 H 1453.87 -0.21102 0.710318 0
M  V30 15447 H 1456.52 0.163009 1.90805 0
M  V30 15448 H 1454.83 -1.99343 3.37298 0
M  V30 15449 H 1456.52 -1.69994 3.63185 0
M  V30 15450 H 1453.11 -0.41413 4.26595 0
M  V30 15451 H 1457.3 0.283854 4.95488 0
M  V30 15452 H 1452.55 1.25194 5.98445 0
M  V30 15453 H 1456.73 1.94612 6.68655 0
M  V30 15454 H 1454.35 2.43621 7.20106 0
M  V30 15455 N 1455.93 -1.56509 -0.185096 0
M  V30 15456 C 1457.15 -1.85683 -0.923941 0
M  V30 15457 C 1457.58 -0.673315 -1.75636 0
M  V30 15458 O 1456.94 0.3778 -1.7732 0
M  V30 15459 C 1456.98 -3.13165 -1.78774 0
M  V30 15460 O 1456.09 -2.9442 -2.88775 0
M  V30 15461 H 1455.43 -0.611139 -0.259624 0
M  V30 15462 H 1457.96 -2.0374 -0.187393 0
M  V30 15463 H 1457.97 -3.44216 -2.19042 0
M  V30 15464 H 1456.64 -3.98922 -1.17619 0
M  V30 15465 H 1455.22 -2.7469 -2.5219 0
M  V30 15466 N 1457.41 0.45317 -1.50944 0
M  V30 15467 C 1458.35 1.54885 -1.71112 0
M  V30 15468 C 1459.32 1.56639 -0.552566 0
M  V30 15469 O 1460.51 1.73894 -0.785203 0
M  V30 15470 C 1457.65 2.92729 -1.82766 0
M  V30 15471 C 1456.76 3.00626 -3.10239 0
M  V30 15472 C 1455.9 4.29495 -3.12582 0
M  V30 15473 C 1454.94 4.312 -4.34434 0
M  V30 15474 N 1454.07 5.51568 -4.34415 0
M  V30 15475 H 1458.91 1.36992 -2.64645 0
M  V30 15476 H 1456.45 0.665753 -1.31172 0
M  V30 15477 H 1458.41 3.7269 -1.87505 0
M  V30 15478 H 1457.04 3.09216 -0.926561 0
M  V30 15479 H 1456.09 2.13426 -3.14886 0
M  V30 15480 H 1457.4 2.97746 -4.00186 0
M  V30 15481 H 1456.56 5.17817 -3.16149 0
M  V30 15482 H 1455.29 4.35009 -2.20496 0
M  V30 15483 H 1454.3 3.41272 -4.3106 0
M  V30 15484 H 1455.52 4.27363 -5.27767 0
M  V30 15485 H 1453.47 5.57834 -3.45192 0
M  V30 15486 H 1453.39 5.50504 -5.18152 0
M  V30 15487 H 1454.66 6.41966 -4.42153 0
M  V30 15488 N 1458.88 1.40823 0.707568 0
M  V30 15489 C 1460.11 1.42866 1.49656 0
M  V30 15490 C 1460.53 0.0305663 1.88775 0
M  V30 15491 O 1459.88 -0.947376 1.55984 0
M  V30 15492 C 1459.94 2.32661 2.76679 0
M  V30 15493 O 1459.66 3.67028 2.39211 0
M  V30 15494 C 1461.16 2.4338 3.70514 0
M  V30 15495 H 1458.38 0.487009 0.461588 0
M  V30 15496 H 1460.92 1.84969 0.872167 0
M  V30 15497 H 1459.08 1.93898 3.35384 0
M  V30 15498 H 1459.49 4.14799 3.21002 0
M  V30 15499 H 1460.96 3.10401 4.56459 0
M  V30 15500 H 1461.44 1.46132 4.14176 0
M  V30 15501 H 1462.05 2.82728 3.17718 0
M  V30 15502 N 1460.36 -0.94061 1.26453 0
M  V30 15503 C 1461.27 -2.07298 1.09839 0
M  V30 15504 C 1462.29 -1.73971 0.0317477 0
M  V30 15505 O 1463.46 -2.00017 0.235594 0
M  V30 15506 C 1460.53 -3.38847 0.733736 0
M  V30 15507 C 1459.59 -3.85954 1.87985 0
M  V30 15508 C 1458.82 -5.11224 1.5325 0
M  V30 15509 O 1459.05 -5.68743 0.434491 0
M  V30 15510 O 1457.98 -5.53386 2.36743 0
M  V30 15511 H 1461.81 -2.24222 2.04837 0
M  V30 15512 H 1459.39 -1.05763 1.0552 0
M  V30 15513 H 1461.27 -4.17885 0.543131 0
M  V30 15514 H 1459.95 -3.2316 -0.186843 0
M  V30 15515 H 1458.86 -3.07858 2.12542 0
M  V30 15516 H 1460.19 -4.06162 2.78017 0
M  V30 15517 N 1461.84 -1.08266 -1.14527 0
M  V30 15518 C 1463.09 -0.809856 -1.85164 0
M  V30 15519 C 1463.41 0.666263 -1.83265 0
M  V30 15520 O 1462.68 1.48295 -1.28006 0
M  V30 15521 H 1461.26 -0.296598 -0.685594 0
M  V30 15522 H 1463.92 -1.36834 -1.38789 0
M  V30 15523 H 1463.02 -1.15272 -2.90032 0
M  V30 15524 N 1463.32 1.31536 -0.86811 0
M  V30 15525 C 1464.57 1.96386 -0.477176 0
M  V30 15526 C 1464.89 1.68968 0.973381 0
M  V30 15527 O 1464.16 1.00409 1.68211 0
M  V30 15528 H 1462.74 0.726579 -0.173468 0
M  V30 15529 H 1465.4 1.60377 -1.10749 0
M  V30 15530 H 1464.5 3.05606 -0.633376 0
M  V30 15531 N 1464.8 0.627364 1.44575 0
M  V30 15532 C 1465.76 -0.0700881 2.29093 0
M  V30 15533 C 1466.76 -0.775969 1.40838 0
M  V30 15534 O 1467.95 -0.621129 1.6275 0
M  V30 15535 C 1465.08 -1.10977 3.2233 0
M  V30 15536 H 1466.28 0.673234 2.92246 0
M  V30 15537 H 1463.83 0.387322 1.51425 0
M  V30 15538 H 1464.56 -1.8832 2.64019 0
M  V30 15539 H 1464.35 -0.607587 3.87364 0
M  V30 15540 H 1465.84 -1.59764 3.8583 0
M  V30 15541 N 1466.28 -1.53251 0.367684 0
M  V30 15542 C 1467.69 -1.59591 0.0167132 0
M  V30 15543 C 1467.89 -1.38272 -1.46571 0
M  V30 15544 O 1466.95 -1.18893 -2.22757 0
M  V30 15545 C 1468.26 -2.96932 0.474534 0
M  V30 15546 C 1469.81 -3.10047 0.428934 0
M  V30 15547 C 1470.28 -4.49804 0.862599 0
M  V30 15548 N 1471.77 -4.55925 0.817742 0
M  V30 15549 C 1472.51 -5.62256 1.12496 0
M  V30 15550 N 1472.01 -6.76332 1.50156 0
M  V30 15551 N 1473.8 -5.52251 1.04762 0
M  V30 15552 H 1465.95 -1.6536 1.33303 0
M  V30 15553 H 1468.21 -0.775681 0.544998 0
M  V30 15554 H 1467.92 -3.17679 1.50907 0
M  V30 15555 H 1467.79 -3.76948 -0.137752 0
M  V30 15556 H 1470.18 -2.89009 -0.596473 0
M  V30 15557 H 1470.26 -2.32034 1.07674 0
M  V30 15558 H 1469.9 -4.7158 1.88613 0
M  V30 15559 H 1469.83 -5.2625 0.19202 0
M  V30 15560 H 1472.33 -3.74017 0.540323 0
M  V30 15561 H 1472.64 -7.53412 1.72019 0
M  V30 15562 H 1470.98 -6.77718 1.54024 0
M  V30 15563 H 1474.17 -4.62011 0.752571 0
M  V30 15564 H 1474.35 -6.35022 1.29038 0
M  V30 15565 N 1467.75 -0.0969077 -1.57302 0
M  V30 15566 C 1469.17 0.25974 -1.57472 0
M  V30 15567 C 1469.37 1.6829 -1.10818 0
M  V30 15568 O 1468.43 2.39972 -0.785466 0
M  V30 15569 C 1469.74 0.0465211 -3.00664 0
M  V30 15570 C 1471.29 0.114131 -3.12792 0
M  V30 15571 C 1471.76 -0.0711175 -4.57945 0
M  V30 15572 N 1473.25 -0.0163438 -4.63197 0
M  V30 15573 C 1473.99 -0.1349 -5.73241 0
M  V30 15574 N 1473.48 -0.308391 -6.92113 0
M  V30 15575 N 1475.28 -0.0760411 -5.62049 0
M  V30 15576 H 1467.43 -1.02673 -1.85935 0
M  V30 15577 H 1469.69 -0.402528 -0.858298 0
M  V30 15578 H 1469.4 -0.936496 -3.39002 0
M  V30 15579 H 1469.27 0.78805 -3.68876 0
M  V30 15580 H 1471.66 1.08765 -2.74325 0
M  V30 15581 H 1471.74 -0.658918 -2.47168 0
M  V30 15582 H 1471.38 -1.04152 -4.97106 0
M  V30 15583 H 1471.31 0.721647 -5.21632 0
M  V30 15584 H 1473.8 0.115134 -3.77725 0
M  V30 15585 H 1474.12 -0.390318 -7.71814 0
M  V30 15586 H 1472.46 -0.344082 -6.94148 0
M  V30 15587 H 1475.65 0.0583778 -4.68064 0
M  V30 15588 H 1475.83 -0.171884 -6.47772 0
M  V30 15589 N 1469.23 1.56605 0.176793 0
M  V30 15590 C 1470.19 1.95109 1.20271 0
M  V30 15591 C 1471.19 0.83414 1.37473 0
M  V30 15592 O 1472.38 1.10128 1.34972 0
M  V30 15593 C 1469.52 2.24112 2.56878 0
M  V30 15594 H 1470.71 2.86909 0.87312 0
M  V30 15595 H 1468.26 1.50578 0.419033 0
M  V30 15596 H 1469 1.35009 2.94861 0
M  V30 15597 H 1468.78 3.05523 2.45761 0
M  V30 15598 H 1470.27 2.54842 3.30825 0
M  V30 15599 N 1470.71 -0.445159 1.51182 0
M  V30 15600 C 1471.93 -1.22249 1.67541 0
M  V30 15601 C 1472.36 -1.84446 0.368972 0
M  V30 15602 O 1471.72 -1.68463 -0.670058 0
M  V30 15603 C 1471.77 -2.288 2.78717 0
M  V30 15604 O 1470.87 -3.34094 2.41775 0
M  V30 15605 H 1470.21 -0.358516 0.558894 0
M  V30 15606 H 1472.74 -0.526696 1.97704 0
M  V30 15607 H 1472.75 -2.73708 3.02569 0
M  V30 15608 H 1471.43 -1.82906 3.73521 0
M  V30 15609 H 1470 -2.94717 2.28466 0
M  V30 15610 N 1472.19 -1.41197 -0.700089 0
M  V30 15611 C 1473.6 -1.3593 -1.27985 0
M  V30 15612 C 1473.95 -0.0402059 -1.96159 0
M  V30 15613 O 1473.07 0.861611 -1.98508 0
M  V30 15614 C 1473.67 -2.46203 -2.32743 0
M  V30 15615 C 1472.23 -2.44348 -2.86306 0
M  V30 15616 C 1471.38 -2.26283 -1.60285 0
M  V30 15617 H 1474.33 -1.50778 -0.495152 0
M  V30 15618 H 1474.35 -2.15001 -3.13934 0
M  V30 15619 H 1473.86 -3.42195 -1.83096 0
M  V30 15620 H 1471.96 -1.521 -3.40142 0
M  V30 15621 H 1472.07 -3.40497 -3.37044 0
M  V30 15622 H 1470.44 -1.74078 -1.85928 0
M  V30 15623 H 1471.22 -3.24295 -1.1264 0
M  V30 15624 N 1473.67 0.933891 -1.2695 0
M  V30 15625 C 1474.94 1.65874 -1.0366 0
M  V30 15626 C 1475.32 2.0666 0.43066 0
M  V30 15627 O 1474.67 1.79606 1.41259 0
M  V30 15628 C 1474.88 2.86546 -1.99229 0
M  V30 15629 C 1476.23 3.58031 -2.28251 0
M  V30 15630 O 1477.25 2.96663 -1.97154 0
M  V30 15631 O 1476.11 4.68583 -2.81233 0
M  V30 15632 H 1473.21 0.72673 -0.394706 0
M  V30 15633 H 1475.75 0.984975 -1.38189 0
M  V30 15634 H 1474.52 2.53351 -2.9821 0
M  V30 15635 H 1474.15 3.61645 -1.65224 0
M  V30 15636 N 1475.14 1.08871 1.13951 0
M  V30 15637 C 1476.08 0.680849 2.18854 0
M  V30 15638 C 1477.09 -0.274456 1.6047 0
M  V30 15639 O 1478.28 -0.0613804 1.78394 0
M  V30 15640 C 1475.38 -0.0182788 3.38895 0
M  V30 15641 C 1474.55 0.957125 4.268 0
M  V30 15642 C 1473.61 0.29245 5.25387 0
M  V30 15643 O 1472.64 0.938329 5.61413 0
M  V30 15644 N 1473.84 -0.955738 5.72578 0
M  V30 15645 H 1476.6 1.58334 2.54461 0
M  V30 15646 H 1474.16 0.975417 1.29218 0
M  V30 15647 H 1476.16 -0.474001 4.01915 0
M  V30 15648 H 1474.73 -0.822932 3.01574 0
M  V30 15649 H 1473.95 1.59156 3.60642 0
M  V30 15650 H 1475.23 1.61792 4.82391 0
M  V30 15651 H 1474.63 -1.50014 5.45447 0
M  V30 15652 H 1473.19 -1.35488 6.37563 0
M  V30 15653 N 1476.62 -1.31073 0.875073 0
M  V30 15654 C 1477.53 -2.3215 0.338196 0
M  V30 15655 C 1478.55 -1.64928 -0.554504 0
M  V30 15656 O 1479.72 -1.96308 -0.449998 0
M  V30 15657 C 1476.79 -3.43804 -0.447163 0
M  V30 15658 C 1475.85 -4.26674 0.474106 0
M  V30 15659 C 1475.08 -5.32997 -0.273867 0
M  V30 15660 O 1475.31 -5.50288 -1.50129 0
M  V30 15661 O 1474.24 -6.00756 0.370913 0
M  V30 15662 H 1478.07 -2.80002 1.17612 0
M  V30 15663 H 1475.65 -1.35064 0.6386 0
M  V30 15664 H 1477.53 -4.11847 -0.892199 0
M  V30 15665 H 1476.21 -2.98105 -1.26155 0
M  V30 15666 H 1475.11 -3.61366 0.967748 0
M  V30 15667 H 1476.45 -4.75952 1.25423 0
M  V30 15668 N 1478.1 -0.635022 -1.4424 0
M  V30 15669 C 1479.06 0.0579377 -2.29127 0
M  V30 15670 C 1480.06 0.768489 -1.41248 0
M  V30 15671 O 1481.25 0.612489 -1.63077 0
M  V30 15672 C 1478.39 1.09266 -3.22914 0
M  V30 15673 H 1479.58 -0.688723 -2.91885 0
M  V30 15674 H 1477.13 -0.395347 -1.51217 0
M  V30 15675 H 1477.87 1.86917 -2.65014 0
M  V30 15676 H 1477.65 0.587036 -3.87681 0
M  V30 15677 H 1479.14 1.57716 -3.86672 0
M  V30 15678 N 1479.58 1.53054 -0.375806 0
M  V30 15679 C 1480.49 2.29772 0.47349 0
M  V30 15680 C 1481.5 1.36144 1.08355 0
M  V30 15681 O 1482.68 1.69208 1.09228 0
M  V30 15682 C 1479.75 3.07964 1.59245 0
M  V30 15683 C 1478.81 4.17277 1.00888 0
M  V30 15684 C 1478.04 4.91731 2.07451 0
M  V30 15685 O 1478.26 4.66143 3.28736 0
M  V30 15686 O 1477.2 5.77413 1.69936 0
M  V30 15687 H 1481.02 3.03324 -0.151105 0
M  V30 15688 H 1478.61 1.48744 -0.139895 0
M  V30 15689 H 1480.49 3.56759 2.24279 0
M  V30 15690 H 1479.16 2.37239 2.20226 0
M  V30 15691 H 1478.07 3.7271 0.322167 0
M  V30 15692 H 1479.4 4.90198 0.443483 0
M  V30 15693 N 1481.06 0.105248 1.57248 0
M  V30 15694 C 1482.33 -0.598871 1.86207 0
M  V30 15695 C 1482.71 -1.85698 1.00396 0
M  V30 15696 O 1482.06 -2.28363 0.0791093 0
M  V30 15697 C 1482.27 -0.904522 3.37075 0
M  V30 15698 C 1483.62 -1.26357 4.05363 0
M  V30 15699 O 1484.64 -0.99522 3.42014 0
M  V30 15700 O 1483.5 -1.76659 5.17159 0
M  V30 15701 H 1480.6 -0.300727 0.770384 0
M  V30 15702 H 1483.14 0.138713 1.69132 0
M  V30 15703 H 1481.91 -0.0123974 3.91298 0
M  V30 15704 H 1481.54 -1.69774 3.59531 0
M  V30 15705 N 1482.53 -1.56697 -0.168486 0
M  V30 15706 C 1483.46 -1.99659 -1.21073 0
M  V30 15707 C 1484.45 -0.872625 -1.46011 0
M  V30 15708 O 1485.63 -1.13891 -1.57297 0
M  V30 15709 C 1482.76 -2.35889 -2.54899 0
M  V30 15710 C 1481.71 -3.51272 -2.44524 0
M  V30 15711 C 1481.04 -3.73253 -3.82866 0
M  V30 15712 C 1482.34 -4.84631 -1.94756 0
M  V30 15713 H 1484.03 -2.86974 -0.853593 0
M  V30 15714 H 1481.58 -1.38065 -0.409165 0
M  V30 15715 H 1483.53 -2.64542 -3.28017 0
M  V30 15716 H 1482.26 -1.45486 -2.92406 0
M  V30 15717 H 1480.92 -3.22751 -1.7386 0
M  V30 15718 H 1480.56 -2.80136 -4.17772 0
M  V30 15719 H 1480.26 -4.5089 -3.76792 0
M  V30 15720 H 1481.79 -4.04309 -4.57566 0
M  V30 15721 H 1483.2 -5.12142 -2.5765 0
M  V30 15722 H 1481.6 -5.65925 -1.99623 0
M  V30 15723 H 1482.67 -4.76436 -0.902021 0
M  V30 15724 N 1484.01 0.437135 -1.51416 0
M  V30 15725 C 1485.26 1.18523 -1.653 0
M  V30 15726 C 1485.61 1.88911 -0.364764 0
M  V30 15727 O 1484.91 1.80615 0.63943 0
M  V30 15728 C 1485.1 2.22795 -2.79458 0
M  V30 15729 C 1484.93 1.62642 -4.19259 0
M  V30 15730 C 1483.7 1.41126 -4.85192 0
M  V30 15731 C 1485.9 1.10255 -5.02343 0
M  V30 15732 N 1483.88 0.765717 -6.09106 0
M  V30 15733 C 1485.25 0.582285 -6.1726 0
M  V30 15734 C 1487.31 0.994325 -4.8787 0
M  V30 15735 C 1486.01 -0.0355648 -7.19291 0
M  V30 15736 C 1488.03 0.390369 -5.9011 0
M  V30 15737 C 1487.4 -0.11935 -7.04299 0
M  V30 15738 H 1483.5 0.42137 -0.658765 0
M  V30 15739 H 1486.08 0.4818 -1.88645 0
M  V30 15740 H 1484.25 2.90526 -2.57777 0
M  V30 15741 H 1485.98 2.89765 -2.82521 0
M  V30 15742 H 1482.74 1.67305 -4.43064 0
M  V30 15743 H 1483.16 0.460381 -6.75433 0
M  V30 15744 H 1487.8 1.37428 -3.99842 0
M  V30 15745 H 1485.52 -0.427644 -8.06968 0
M  V30 15746 H 1489.11 0.308533 -5.80981 0
M  V30 15747 H 1487.99 -0.579344 -7.82057 0
M  V30 15748 N 1485.49 1.41566 0.692592 0
M  V30 15749 C 1486.42 1.46423 1.81886 0
M  V30 15750 C 1487.4 0.32258 1.67013 0
M  V30 15751 O 1488.59 0.534437 1.86701 0
M  V30 15752 C 1485.72 1.3486 3.20047 0
M  V30 15753 C 1484.67 2.46867 3.49629 0
M  V30 15754 C 1484 2.20369 4.87177 0
M  V30 15755 C 1485.3 3.89205 3.48306 0
M  V30 15756 H 1486.99 2.40683 1.78079 0
M  V30 15757 H 1484.54 1.15845 0.855334 0
M  V30 15758 H 1486.49 1.36869 3.98553 0
M  V30 15759 H 1485.21 0.370859 3.24488 0
M  V30 15760 H 1483.87 2.44146 2.73475 0
M  V30 15761 H 1483.52 1.20931 4.88247 0
M  V30 15762 H 1483.22 2.95426 5.07934 0
M  V30 15763 H 1484.74 2.24099 5.6799 0
M  V30 15764 H 1486.16 3.93626 4.16811 0
M  V30 15765 H 1484.56 4.63969 3.80595 0
M  V30 15766 H 1485.63 4.17144 2.47222 0
M  V30 15767 N 1486.97 -0.927146 1.27443 0
M  V30 15768 C 1488.19 -1.71426 1.16739 0
M  V30 15769 C 1488.62 -1.86122 -0.272063 0
M  V30 15770 O 1487.98 -1.36165 -1.19703 0
M  V30 15771 C 1488.02 -3.09131 1.85661 0
M  V30 15772 O 1487.13 -3.95897 1.15495 0
M  V30 15773 H 1486.47 -0.525428 0.405983 0
M  V30 15774 H 1489 -1.16022 1.68523 0
M  V30 15775 H 1489.01 -3.59442 1.93042 0
M  V30 15776 H 1487.68 -2.97752 2.90373 0
M  V30 15777 H 1486.26 -3.54337 1.16187 0
M  V30 15778 N 1488.45 -1.09474 -1.13372 0
M  V30 15779 C 1489.86 -0.850378 -1.66209 0
M  V30 15780 C 1490.21 0.621071 -1.86111 0
M  V30 15781 O 1489.33 1.47837 -1.58029 0
M  V30 15782 C 1489.93 -1.53713 -3.01924 0
M  V30 15783 C 1488.49 -1.33972 -3.5175 0
M  V30 15784 C 1487.63 -1.5929 -2.26985 0
M  V30 15785 H 1490.59 -1.25383 -0.972874 0
M  V30 15786 H 1490.61 -0.970503 -3.67915 0
M  V30 15787 H 1490.12 -2.60804 -2.87407 0
M  V30 15788 H 1488.22 -0.289998 -3.7147 0
M  V30 15789 H 1488.33 -2.0749 -4.31839 0
M  V30 15790 H 1486.7 -1.01505 -2.336 0
M  V30 15791 H 1487.48 -2.67611 -2.15033 0
M  V30 15792 N 1489.92 1.30607 -0.882012 0
M  V30 15793 C 1490.85 2.30666 -0.362706 0
M  V30 15794 C 1491.84 1.60865 0.552861 0
M  V30 15795 O 1493.02 1.88493 0.467339 0
M  V30 15796 C 1490.15 3.44675 0.42622 0
M  V30 15797 C 1489.1 4.26152 -0.397322 0
M  V30 15798 C 1488.43 5.32185 0.518027 0
M  V30 15799 C 1489.73 4.95955 -1.63785 0
M  V30 15800 H 1491.42 2.74351 -1.19883 0
M  V30 15801 H 1488.97 1.31895 -0.577912 0
M  V30 15802 H 1490.92 4.13734 0.80013 0
M  V30 15803 H 1489.65 2.99787 1.29597 0
M  V30 15804 H 1488.31 3.58776 -0.753332 0
M  V30 15805 H 1487.95 4.83545 1.3854 0
M  V30 15806 H 1487.65 5.87593 -0.0291802 0
M  V30 15807 H 1489.18 6.04101 0.888518 0
M  V30 15808 H 1490.59 5.57547 -1.3347 0
M  V30 15809 H 1488.99 5.61215 -2.12504 0
M  V30 15810 H 1490.06 4.22252 -2.38394 0
M  V30 15811 N 1491.4 0.642663 1.43901 0
M  V30 15812 C 1492.63 0.159202 2.06287 0
M  V30 15813 C 1493.05 -1.17091 1.48105 0
M  V30 15814 O 1492.4 -1.72064 0.608302 0
M  V30 15815 C 1492.45 0.0506891 3.61464 0
M  V30 15816 O 1492.17 1.32821 4.17481 0
M  V30 15817 C 1493.68 -0.460103 4.40906 0
M  V30 15818 H 1490.9 0.085003 0.665594 0
M  V30 15819 H 1493.44 0.880328 1.84582 0
M  V30 15820 H 1491.59 -0.620938 3.82391 0
M  V30 15821 H 1492.01 1.18053 5.11042 0
M  V30 15822 H 1493.48 -0.48501 5.49865 0
M  V30 15823 H 1493.96 -1.4894 4.13175 0
M  V30 15824 H 1494.57 0.178668 4.24925 0
M  V30 15825 N 1492.88 -1.52852 0.383918 0
M  V30 15826 C 1493.81 -2.22704 -0.497825 0
M  V30 15827 C 1494.79 -1.22573 -1.06839 0
M  V30 15828 O 1495.98 -1.51541 -1.12105 0
M  V30 15829 C 1493.1 -2.93606 -1.68858 0
M  V30 15830 C 1492.15 -4.07962 -1.24376 0
M  V30 15831 S 1492.98 -5.35007 -0.229773 0
M  V30 15832 C 1494.14 -6.09429 -1.42643 0
M  V30 15833 H 1494.37 -2.97147 0.0953535 0
M  V30 15834 H 1491.9 -1.53482 0.168084 0
M  V30 15835 H 1493.86 -3.35067 -2.3715 0
M  V30 15836 H 1492.52 -2.18853 -2.25304 0
M  V30 15837 H 1491.72 -4.56654 -2.13269 0
M  V30 15838 H 1491.32 -3.68486 -0.639823 0
M  V30 15839 H 1493.61 -6.35274 -2.35443 0
M  V30 15840 H 1494.55 -7.01278 -0.980541 0
M  V30 15841 H 1494.96 -5.40128 -1.6408 0
M  V30 15842 N 1494.36 -0.113586 -1.5719 0
M  V30 15843 C 1495.27 0.852428 -2.18565 0
M  V30 15844 C 1496.29 1.29668 -1.16026 0
M  V30 15845 O 1497.46 1.36079 -1.48474 0
M  V30 15846 C 1494.53 2.08675 -2.76867 0
M  V30 15847 C 1493.59 1.69493 -3.94424 0
M  V30 15848 C 1492.82 2.87042 -4.49936 0
M  V30 15849 O 1493.04 4.02311 -4.04354 0
M  V30 15850 O 1491.98 2.64439 -5.40699 0
M  V30 15851 H 1495.8 0.360144 -3.01557 0
M  V30 15852 H 1493.39 0.111744 -1.48982 0
M  V30 15853 H 1495.27 2.80976 -3.14054 0
M  V30 15854 H 1493.95 2.5692 -1.9691 0
M  V30 15855 H 1492.85 0.943161 -3.62016 0
M  V30 15856 H 1494.19 1.25995 -4.758 0
M  V30 15857 N 1495.84 1.56784 0.160173 0
M  V30 15858 C 1497.11 1.73513 0.902908 0
M  V30 15859 C 1497.49 0.678036 1.99915 0
M  V30 15860 O 1496.84 -0.305302 2.26451 0
M  V30 15861 C 1497.05 3.17111 1.45744 0
M  V30 15862 C 1498.4 3.78404 1.92602 0
M  V30 15863 O 1499.42 3.20459 1.55515 0
M  V30 15864 O 1498.28 4.80172 2.60954 0
M  V30 15865 H 1495.38 0.708981 0.425764 0
M  V30 15866 H 1497.92 1.69061 0.147129 0
M  V30 15867 H 1496.7 3.85539 0.668985 0
M  V30 15868 H 1496.32 3.25936 2.2771 0
M  V30 15869 N 1497.32 -0.429099 1.51646 0
M  V30 15870 C 1498.25 -1.52867 1.76505 0
M  V30 15871 C 1499.23 -1.58586 0.615178 0
M  V30 15872 O 1500.41 -1.74182 0.858742 0
M  V30 15873 C 1497.54 -2.90875 1.8976 0
M  V30 15874 C 1496.5 -3.00014 3.05247 0
M  V30 15875 C 1495.82 -4.40082 3.03696 0
M  V30 15876 C 1497.12 -2.73334 4.45068 0
M  V30 15877 H 1498.82 -1.32315 2.68576 0
M  V30 15878 H 1496.36 -0.635091 1.29238 0
M  V30 15879 H 1498.31 -3.67765 2.05734 0
M  V30 15880 H 1497.04 -3.12677 0.943442 0
M  V30 15881 H 1495.7 -2.25565 2.88991 0
M  V30 15882 H 1495.35 -4.58864 2.06042 0
M  V30 15883 H 1495.05 -4.47125 3.81252 0
M  V30 15884 H 1496.57 -5.18935 3.21774 0
M  V30 15885 H 1497.98 -3.39954 4.61632 0
M  V30 15886 H 1496.38 -2.91777 5.24391 0
M  V30 15887 H 1497.45 -1.68889 4.54538 0
M  V30 15888 N 1498.79 -1.41931 -0.685074 0
M  V30 15889 C 1500.04 -1.42062 -1.44728 0
M  V30 15890 C 1500.37 -0.0332072 -1.94172 0
M  V30 15891 O 1499.65 0.940835 -1.70231 0
M  V30 15892 C 1499.93 -2.43634 -2.65168 0
M  V30 15893 C 1499.78 -3.91525 -2.21423 0
M  V30 15894 C 1501.1 -2.42325 -3.67378 0
M  V30 15895 H 1498.22 -0.517321 -0.524927 0
M  V30 15896 H 1500.86 -1.73277 -0.779419 0
M  V30 15897 H 1499.01 -2.17146 -3.22149 0
M  V30 15898 H 1500.69 -4.28956 -1.69689 0
M  V30 15899 H 1498.93 -4.05886 -1.53099 0
M  V30 15900 H 1499.6 -4.58158 -3.07889 0
M  V30 15901 H 1502.08 -2.65857 -3.20093 0
M  V30 15902 H 1500.95 -3.15391 -4.49243 0
M  V30 15903 H 1501.21 -1.44555 -4.17799 0
M  V30 15904 N 1500.27 0.920374 -1.27933 0
M  V30 15905 C 1501.51 1.68333 -1.15945 0
M  V30 15906 C 1501.88 1.8982 0.288522 0
M  V30 15907 O 1503.08 2.63503 0.530976 0
M  V30 15908 C 1501.35 3.00865 -1.92912 0
M  V30 15909 S 1502.91 3.91981 -1.97221 0
M  V30 15910 H 1499.72 0.578189 -0.413785 0
M  V30 15911 H 1502.33 1.09521 -1.61943 0
M  V30 15912 H 1501.03 2.82924 -2.97292 0
M  V30 15913 H 1500.56 3.64727 -1.47437 0
M  V30 15914 H 1502.58 4.84439 -1.07393 0
M  V30 15915 N 1501.75 1.10074 1.1279 0
M  V30 15916 C 1502.98 0.861655 1.87774 0
M  V30 15917 C 1503.39 -0.591184 1.79727 0
M  V30 15918 O 1502.73 -1.4191 1.1665 0
M  V30 15919 C 1502.79 1.22668 3.37924 0
M  V30 15920 C 1502.46 2.68579 3.69749 0
M  V30 15921 C 1503.45 3.66821 3.68427 0
M  V30 15922 C 1501.14 3.04869 3.99199 0
M  V30 15923 C 1503.13 4.99377 3.96108 0
M  V30 15924 C 1500.82 4.37615 4.2654 0
M  V30 15925 C 1501.82 5.34678 4.24981 0
M  V30 15926 O 1501.51 6.65034 4.51647 0
M  V30 15927 H 1501.24 0.309289 0.601096 0
M  V30 15928 H 1503.79 1.46802 1.43661 0
M  V30 15929 H 1502.02 0.563393 3.82574 0
M  V30 15930 H 1503.71 0.965675 3.94246 0
M  V30 15931 H 1504.48 3.40128 3.45742 0
M  V30 15932 H 1500.36 2.29947 3.99557 0
M  V30 15933 H 1503.9 5.7513 3.94806 0
M  V30 15934 H 1499.8 4.64047 4.48698 0
M  V30 15935 H 1500.56 6.70608 4.69283 0
M  V30 15936 N 1503.23 -1.30138 0.888926 0
M  V30 15937 C 1504.45 -2.00679 0.523697 0
M  V30 15938 C 1504.88 -1.66167 -0.881479 0
M  V30 15939 O 1504.24 -0.880418 -1.58488 0
M  V30 15940 C 1504.28 -3.53535 0.710284 0
M  V30 15941 O 1503.39 -4.11689 -0.242066 0
M  V30 15942 H 1502.73 -0.631273 0.205888 0
M  V30 15943 H 1505.26 -1.65891 1.19756 0
M  V30 15944 H 1505.27 -4.03402 0.610794 0
M  V30 15945 H 1503.94 -3.77992 1.73478 0
M  V30 15946 H 1502.52 -3.72777 -0.0959393 0
M  V30 15947 N 1504.71 -0.650285 -1.43559 0
M  V30 15948 C 1505.95 -0.162484 -2.01847 0
M  V30 15949 C 1506.28 1.22251 -1.51278 0
M  V30 15950 O 1505.54 1.82939 -0.695115 0
M  V30 15951 C 1505.83 -0.119084 -3.57202 0
M  V30 15952 C 1505.5 -1.44543 -4.27104 0
M  V30 15953 C 1504.16 -1.80864 -4.45917 0
M  V30 15954 C 1506.51 -2.32005 -4.66715 0
M  V30 15955 C 1503.84 -3.04319 -5.01604 0
M  V30 15956 C 1506.19 -3.54748 -5.23771 0
M  V30 15957 C 1504.86 -3.9127 -5.408 0
M  V30 15958 H 1504.13 -0.0594573 -0.738611 0
M  V30 15959 H 1506.78 -0.84041 -1.72074 0
M  V30 15960 H 1505.08 0.642282 -3.865 0
M  V30 15961 H 1506.78 0.275168 -4.00055 0
M  V30 15962 H 1503.37 -1.15281 -4.12805 0
M  V30 15963 H 1507.55 -2.05234 -4.51877 0
M  V30 15964 H 1502.81 -3.32668 -5.12974 0
M  V30 15965 H 1506.98 -4.2274 -5.53411 0
M  V30 15966 H 1504.61 -4.87011 -5.83716 0
M  V30 15967 N 1506.18 1.52647 -0.392018 0
M  V30 15968 C 1507.12 2.24183 0.476934 0
M  V30 15969 C 1508.13 1.26526 1.02446 0
M  V30 15970 O 1509.32 1.52583 0.92632 0
M  V30 15971 C 1506.42 2.94672 1.67397 0
M  V30 15972 C 1505.59 4.19058 1.25335 0
M  V30 15973 C 1504.65 4.72522 2.31537 0
M  V30 15974 O 1503.68 5.35541 1.92833 0
M  V30 15975 N 1504.88 4.52613 3.63486 0
M  V30 15976 H 1507.64 2.99391 -0.135963 0
M  V30 15977 H 1505.2 1.60419 -0.218514 0
M  V30 15978 H 1507.2 3.27338 2.37975 0
M  V30 15979 H 1505.77 2.22755 2.19315 0
M  V30 15980 H 1504.99 3.92399 0.376352 0
M  V30 15981 H 1506.27 4.99871 0.94901 0
M  V30 15982 H 1505.67 4.02316 3.97692 0
M  V30 15983 H 1504.23 4.89761 4.3009 0
M  V30 15984 N 1507.66 0.121921 1.57128 0
M  V30 15985 C 1508.91 -0.536164 1.95584 0
M  V30 15986 C 1509.24 -1.66143 1.0055 0
M  V30 15987 O 1508.52 -1.94452 0.0432427 0
M  V30 15988 C 1508.8 -1.0661 3.43957 0
M  V30 15989 C 1508.65 0.0559458 4.49765 0
M  V30 15990 C 1509.97 -1.95603 3.94243 0
M  V30 15991 H 1507.09 -0.193427 0.711165 0
M  V30 15992 H 1509.73 0.198072 1.88965 0
M  V30 15993 H 1507.88 -1.69181 3.49729 0
M  V30 15994 H 1509.55 0.691357 4.5609 0
M  V30 15995 H 1507.8 0.71868 4.27805 0
M  V30 15996 H 1508.47 -0.356133 5.5085 0
M  V30 15997 H 1510.94 -1.42899 3.90793 0
M  V30 15998 H 1509.82 -2.29599 4.98573 0
M  V30 15999 H 1510.08 -2.88364 3.3511 0
M  V30 16000 N 1509.14 -1.56867 -0.151857 0
M  V30 16001 C 1510.1 -1.96997 -1.17152 0
M  V30 16002 C 1511.1 -0.855905 -1.36128 0
M  V30 16003 O 1512.29 -1.12261 -1.33203 0
M  V30 16004 C 1509.43 -2.28171 -2.5328 0
M  V30 16005 H 1510.62 -2.88261 -0.827365 0
M  V30 16006 H 1508.17 -1.51226 -0.395024 0
M  V30 16007 H 1508.91 -1.39683 -2.92676 0
M  V30 16008 H 1508.69 -3.09394 -2.40869 0
M  V30 16009 H 1510.18 -2.60073 -3.26729 0
M  V30 16010 N 1510.62 0.421051 -1.51871 0
M  V30 16011 C 1512.03 0.758781 -1.40409 0
M  V30 16012 C 1512.23 1.95219 -0.499197 0
M  V30 16013 O 1511.29 2.52469 0.0395216 0
M  V30 16014 C 1512.6 1.02388 -2.82731 0
M  V30 16015 C 1514.15 1.12733 -2.91994 0
M  V30 16016 C 1514.63 1.42527 -4.35259 0
M  V30 16017 N 1516.12 1.49417 -4.38439 0
M  V30 16018 C 1516.85 1.74074 -5.46339 0
M  V30 16019 N 1516.35 1.96414 -6.64375 0
M  V30 16020 N 1518.14 1.7599 -5.33839 0
M  V30 16021 H 1510.29 -0.364682 -2.09246 0
M  V30 16022 H 1512.56 -0.100819 -0.942624 0
M  V30 16023 H 1512.26 0.219491 -3.51014 0
M  V30 16024 H 1512.14 1.94724 -3.23052 0
M  V30 16025 H 1514.52 1.92233 -2.23899 0
M  V30 16026 H 1514.6 0.182611 -2.55147 0
M  V30 16027 H 1514.25 0.635486 -5.03909 0
M  V30 16028 H 1514.18 2.38231 -4.69631 0
M  V30 16029 H 1516.67 1.3399 -3.53348 0
M  V30 16030 H 1516.98 2.14644 -7.42393 0
M  V30 16031 H 1515.33 1.93702 -6.67461 0
M  V30 16032 H 1518.52 1.58067 -4.40605 0
M  V30 16033 H 1518.69 1.94868 -6.18005 0
M  V30 16034 N 1512.1 1.42293 0.677538 0
M  V30 16035 C 1513.34 1.42334 1.43476 0
M  V30 16036 C 1513.67 0.0397842 1.94959 0
M  V30 16037 O 1512.94 -0.921258 1.72886 0
M  V30 16038 H 1511.52 0.523969 0.532415 0
M  V30 16039 H 1514.18 1.7769 0.800758 0
M  V30 16040 H 1513.27 2.12146 2.28912 0
M  V30 16041 N 1513.57 -0.913576 1.28419 0
M  V30 16042 C 1514.51 -2.01727 1.06683 0
M  V30 16043 C 1515.49 -1.62591 -0.0171379 0
M  V30 16044 O 1516.67 -1.88045 0.130827 0
M  V30 16045 C 1513.8 -3.32954 0.621229 0
M  V30 16046 C 1512.84 -3.91074 1.70187 0
M  V30 16047 S 1513.68 -4.21902 3.29786 0
M  V30 16048 C 1514.83 -5.5619 2.8706 0
M  V30 16049 H 1515.06 -2.19855 2.00127 0
M  V30 16050 H 1512.6 -1.05846 1.1241 0
M  V30 16051 H 1514.56 -4.08822 0.370832 0
M  V30 16052 H 1513.22 -3.12727 -0.293381 0
M  V30 16053 H 1512.41 -4.85813 1.3417 0
M  V30 16054 H 1512.01 -3.21843 1.90507 0
M  V30 16055 H 1514.3 -6.36085 2.33242 0
M  V30 16056 H 1515.25 -5.97119 3.80598 0
M  V30 16057 H 1515.65 -5.17386 2.25771 0
M  V30 16058 N 1515.05 -1.1067 -1.12204 0
M  V30 16059 C 1515.96 -0.770221 -2.21596 0
M  V30 16060 C 1516.98 0.233297 -1.72429 0
M  V30 16061 O 1518.15 0.0714493 -2.01273 0
M  V30 16062 C 1515.22 -0.209682 -3.46065 0
M  V30 16063 C 1514.28 -1.27079 -4.1006 0
M  V30 16064 C 1513.51 -0.736899 -5.28588 0
M  V30 16065 O 1513.74 0.435838 -5.68732 0
M  V30 16066 O 1512.67 -1.49797 -5.82962 0
M  V30 16067 H 1516.5 -1.6834 -2.52776 0
M  V30 16068 H 1514.08 -0.882012 -1.20586 0
M  V30 16069 H 1515.96 0.0989516 -4.21284 0
M  V30 16070 H 1514.64 0.676316 -3.16556 0
M  V30 16071 H 1513.55 -1.63231 -3.3661 0
M  V30 16072 H 1514.88 -2.12989 -4.4373 0
M  V30 16073 N 1516.53 1.29665 -0.895815 0
M  V30 16074 C 1517.78 1.95716 -0.519752 0
M  V30 16075 C 1518.11 1.7065 0.933212 0
M  V30 16076 O 1517.36 1.01014 1.67615 0
M  V30 16077 C 1517.66 3.49355 -0.754025 0
M  V30 16078 C 1517.33 3.94491 -2.18375 0
M  V30 16079 C 1515.99 4.06526 -2.57468 0
M  V30 16080 C 1518.34 4.17874 -3.11498 0
M  V30 16081 C 1515.67 4.39311 -3.88874 0
M  V30 16082 C 1518.02 4.52132 -4.42447 0
M  V30 16083 C 1516.68 4.62376 -4.81419 0
M  V30 16084 H 1515.95 0.716176 -0.190191 0
M  V30 16085 H 1518.6 1.54333 -1.13373 0
M  V30 16086 H 1516.91 3.91758 -0.0570932 0
M  V30 16087 H 1518.6 3.98551 -0.442493 0
M  V30 16088 H 1515.19 3.85638 -1.87033 0
M  V30 16089 H 1519.38 4.08046 -2.8251 0
M  V30 16090 H 1514.63 4.45444 -4.18795 0
M  V30 16091 H 1518.81 4.69175 -5.14634 0
M  V30 16092 H 1516.43 4.87535 -5.83278 0
M  V30 16093 N 1518.01 0.657889 1.43212 0
M  V30 16094 C 1518.94 -0.0172114 2.33494 0
M  V30 16095 C 1519.92 -0.807087 1.49733 0
M  V30 16096 O 1521.1 -0.767631 1.78385 0
M  V30 16097 C 1518.23 -0.981029 3.33156 0
M  V30 16098 C 1517.19 -0.30094 4.26941 0
M  V30 16099 C 1516.51 -1.37653 5.16678 0
M  V30 16100 C 1517.81 0.809572 5.15988 0
M  V30 16101 H 1519.51 0.736749 2.90194 0
M  V30 16102 H 1517.05 0.355744 1.39537 0
M  V30 16103 H 1519.01 -1.46226 3.95216 0
M  V30 16104 H 1517.73 -1.76621 2.74723 0
M  V30 16105 H 1516.39 0.159893 3.66251 0
M  V30 16106 H 1516.04 -2.15326 4.54581 0
M  V30 16107 H 1515.74 -0.926704 5.80246 0
M  V30 16108 H 1517.26 -1.85903 5.81612 0
M  V30 16109 H 1518.68 0.410297 5.7183 0
M  V30 16110 H 1517.07 1.18415 5.88301 0
M  V30 16111 H 1518.14 1.66558 4.55397 0
M  V30 16112 N 1519.49 -1.52437 0.400108 0
M  V30 16113 C 1520.45 -2.2536 -0.417808 0
M  V30 16114 C 1521.45 -1.27393 -0.981204 0
M  V30 16115 O 1522.64 -1.51406 -0.861503 0
M  V30 16116 C 1519.77 -3.01695 -1.58724 0
M  V30 16117 H 1520.96 -2.99086 0.220782 0
M  V30 16118 H 1518.52 -1.55555 0.152439 0
M  V30 16119 H 1519.25 -2.32295 -2.26295 0
M  V30 16120 H 1519.04 -3.73611 -1.18984 0
M  V30 16121 H 1520.53 -3.57033 -2.16604 0
M  V30 16122 N 1520.96 -0.130252 -1.57061 0
M  V30 16123 C 1522.19 0.535707 -2.00362 0
M  V30 16124 C 1522.61 1.58712 -1.00956 0
M  V30 16125 O 1521.97 1.81292 0.0171546 0
M  V30 16126 C 1522.02 1.12836 -3.42491 0
M  V30 16127 O 1521.12 2.24367 -3.46025 0
M  V30 16128 H 1520.47 0.132735 -0.650598 0
M  V30 16129 H 1523 -0.222047 -2.03392 0
M  V30 16130 H 1523.01 1.46115 -3.80939 0
M  V30 16131 H 1521.68 0.358304 -4.14354 0
M  V30 16132 H 1520.26 1.92443 -3.19406 0
M  V30 16133 N 1522.44 1.56945 0.143535 0
M  V30 16134 C 1523.86 1.51688 0.496291 0
M  V30 16135 C 1524.06 0.839251 1.83191 0
M  V30 16136 O 1523.12 0.411235 2.49129 0
M  V30 16137 C 1524.43 2.96456 0.503402 0
M  V30 16138 C 1525.98 3.07414 0.588676 0
M  V30 16139 C 1526.45 4.53696 0.626416 0
M  V30 16140 N 1527.94 4.58054 0.688543 0
M  V30 16141 C 1528.68 5.68621 0.738786 0
M  V30 16142 N 1528.17 6.88748 0.748163 0
M  V30 16143 N 1529.97 5.56663 0.779931 0
M  V30 16144 H 1522.12 1.99392 -0.731901 0
M  V30 16145 H 1524.38 0.909546 -0.267263 0
M  V30 16146 H 1524.09 3.49304 -0.409845 0
M  V30 16147 H 1523.96 3.52593 1.34008 0
M  V30 16148 H 1526.35 2.54584 1.49234 0
M  V30 16149 H 1526.43 2.54315 -0.275213 0
M  V30 16150 H 1526.07 5.07165 -0.273108 0
M  V30 16151 H 1526 5.04581 1.50684 0
M  V30 16152 H 1528.49 3.71576 0.688455 0
M  V30 16153 H 1528.81 7.68767 0.788444 0
M  V30 16154 H 1527.15 6.91302 0.715982 0
M  V30 16155 H 1530.34 4.61727 0.769799 0
M  V30 16156 H 1530.52 6.42847 0.815621 0
M  V30 16157 N 1523.92 -0.412991 1.52093 0
M  V30 16158 C 1524.87 -1.50294 1.75158 0
M  V30 16159 C 1525.84 -1.55119 0.593902 0
M  V30 16160 O 1527.02 -1.71751 0.831032 0
M  V30 16161 C 1524.16 -2.87781 1.90463 0
M  V30 16162 C 1523.28 -2.92295 3.181 0
M  V30 16163 C 1522.41 -4.21056 3.23859 0
M  V30 16164 C 1521.45 -4.1953 4.45714 0
M  V30 16165 N 1520.59 -5.39857 4.48886 0
M  V30 16166 H 1525.43 -1.29927 2.68185 0
M  V30 16167 H 1522.96 -0.630741 1.32891 0
M  V30 16168 H 1524.92 -3.67588 1.9732 0
M  V30 16169 H 1523.55 -3.06651 1.00822 0
M  V30 16170 H 1522.6 -2.05002 3.20434 0
M  V30 16171 H 1523.92 -2.87031 4.0794 0
M  V30 16172 H 1523.07 -5.09253 3.29767 0
M  V30 16173 H 1521.81 -4.2901 2.31952 0
M  V30 16174 H 1520.81 -3.29724 4.39957 0
M  V30 16175 H 1522.04 -4.1322 5.38912 0
M  V30 16176 H 1519.99 -5.48486 3.59861 0
M  V30 16177 H 1519.9 -5.36572 5.32566 0
M  V30 16178 H 1521.17 -6.30018 4.59018 0
M  V30 16179 N 1525.4 -1.4265 -0.669982 0
M  V30 16180 C 1526.64 -1.44866 -1.44199 0
M  V30 16181 C 1527 -0.0647049 -1.91891 0
M  V30 16182 O 1528.2 0.0384187 -2.68773 0
M  V30 16183 C 1526.48 -2.44846 -2.60356 0
M  V30 16184 S 1528.03 -2.65803 -3.49134 0
M  V30 16185 H 1524.85 -0.512859 -0.49244 0
M  V30 16186 H 1527.45 -1.7929 -0.779442 0
M  V30 16187 H 1526.16 -3.44161 -2.23565 0
M  V30 16188 H 1525.69 -2.11863 -3.31478 0
M  V30 16189 H 1527.7 -1.94466 -4.56506 0
M  V30 16190 N 1526.88 0.906753 -1.28902 0
M  V30 16191 C 1528.13 1.65119 -1.15839 0
M  V30 16192 C 1528.44 1.93426 0.290825 0
M  V30 16193 O 1529.65 2.66021 0.542678 0
M  V30 16194 C 1528.1 2.97492 -2.0255 0
M  V30 16195 C 1527.71 2.76807 -3.52253 0
M  V30 16196 C 1529.45 3.75393 -1.98192 0
M  V30 16197 C 1527.36 4.04863 -4.31091 0
M  V30 16198 H 1526.29 0.619409 -0.429939 0
M  V30 16199 H 1528.94 1.00567 -1.53488 0
M  V30 16200 H 1527.32 3.63217 -1.57763 0
M  V30 16201 H 1528.5 2.19719 -4.05044 0
M  V30 16202 H 1526.81 2.1231 -3.58209 0
M  V30 16203 H 1529.41 4.70325 -2.54358 0
M  V30 16204 H 1529.75 4.05074 -0.960267 0
M  V30 16205 H 1530.29 3.16498 -2.40985 0
M  V30 16206 H 1527.02 3.80353 -5.33865 0
M  V30 16207 H 1526.54 4.61537 -3.83072 0
M  V30 16208 H 1528.22 4.73066 -4.41381 0
M  V30 16209 N 1528.36 1.11264 1.11616 0
M  V30 16210 C 1529.31 0.738429 2.15711 0
M  V30 16211 C 1530.29 -0.25663 1.5884 0
M  V30 16212 O 1531.48 -0.0640255 1.76884 0
M  V30 16213 C 1528.61 0.181245 3.42821 0
M  V30 16214 C 1527.7 1.20386 4.06655 0
M  V30 16215 N 1528.09 2.39745 4.45372 0
M  V30 16216 C 1526.39 1.04637 4.33552 0
M  V30 16217 C 1527.09 3.04949 4.95359 0
M  V30 16218 N 1526.06 2.32435 4.91401 0
M  V30 16219 H 1529.86 1.6469 2.43423 0
M  V30 16220 H 1527.38 0.991616 1.28611 0
M  V30 16221 H 1529.38 -0.104966 4.16768 0
M  V30 16222 H 1528.04 -0.721832 3.16575 0
M  V30 16223 H 1529.05 2.77213 4.37462 0
M  V30 16224 H 1525.72 0.19957 4.17023 0
M  V30 16225 H 1527.11 4.06528 5.34962 0
M  V30 16226 N 1529.83 -1.29188 0.902679 0
M  V30 16227 C 1531.25 -1.47924 0.599209 0
M  V30 16228 C 1531.45 -1.82297 -0.858494 0
M  V30 16229 O 1530.51 -1.92123 -1.63845 0
M  V30 16230 C 1531.82 -2.59008 1.52759 0
M  V30 16231 C 1533.37 -2.72882 1.53312 0
M  V30 16232 C 1533.84 -3.87097 2.44785 0
M  V30 16233 N 1535.33 -3.94435 2.42849 0
M  V30 16234 C 1536.07 -4.82165 3.1033 0
M  V30 16235 N 1535.56 -5.74565 3.87101 0
M  V30 16236 N 1537.36 -4.75681 2.99473 0
M  V30 16237 H 1529.51 -1.05154 1.84544 0
M  V30 16238 H 1531.77 -0.522632 0.790924 0
M  V30 16239 H 1531.48 -2.40483 2.56634 0
M  V30 16240 H 1531.35 -3.55873 1.25036 0
M  V30 16241 H 1533.74 -2.90802 0.501804 0
M  V30 16242 H 1533.82 -1.76582 1.85074 0
M  V30 16243 H 1533.46 -3.69932 3.48012 0
M  V30 16244 H 1533.39 -4.82772 2.10331 0
M  V30 16245 H 1535.88 -3.28347 1.87074 0
M  V30 16246 H 1536.2 -6.3831 4.35638 0
M  V30 16247 H 1534.54 -5.74441 3.91207 0
M  V30 16248 H 1537.73 -4.02483 2.39009 0
M  V30 16249 H 1537.91 -5.4384 3.52337 0
M  V30 16250 N 1531.31 -0.665475 -1.42861 0
M  V30 16251 C 1532.59 -0.113252 -1.95272 0
M  V30 16252 C 1532.97 1.36972 -1.6063 0
M  V30 16253 O 1532.32 2.10129 -0.897662 0
M  V30 16254 C 1532.53 -0.372482 -3.47007 0
M  V30 16255 C 1533.87 -0.283982 -4.23649 0
M  V30 16256 O 1534.9 -0.305714 -3.54886 0
M  V30 16257 O 1533.76 -0.218171 -5.46064 0
M  V30 16258 H 1530.85 0.00253712 -0.826996 0
M  V30 16259 H 1533.4 -0.739561 -1.52737 0
M  V30 16260 H 1532.17 -1.40015 -3.65392 0
M  V30 16261 H 1531.79 0.286294 -3.96568 0
M  V30 16262 N 1532.79 1.52222 -0.408187 0
M  V30 16263 C 1533.72 2.29892 0.408868 0
M  V30 16264 C 1534.7 1.34063 1.04695 0
M  V30 16265 O 1535.89 1.6297 1.05615 0
M  V30 16266 C 1533.02 3.11964 1.52629 0
M  V30 16267 C 1531.97 4.15833 1.01326 0
M  V30 16268 C 1531.3 4.86244 2.2242 0
M  V30 16269 C 1532.6 5.22256 0.0679573 0
M  V30 16270 H 1534.29 2.98443 -0.23923 0
M  V30 16271 H 1531.84 1.43528 -0.116496 0
M  V30 16272 H 1533.79 3.65067 2.10486 0
M  V30 16273 H 1532.51 2.41181 2.20225 0
M  V30 16274 H 1531.17 3.63739 0.4571 0
M  V30 16275 H 1530.82 4.11991 2.88569 0
M  V30 16276 H 1530.52 5.56461 1.88746 0
M  V30 16277 H 1532.04 5.42159 2.80885 0
M  V30 16278 H 1533.46 5.70604 0.555295 0
M  V30 16279 H 1531.85 5.9983 -0.179934 0
M  V30 16280 H 1532.92 4.76892 -0.877599 0
M  V30 16281 N 1534.27 0.138579 1.5699 0
M  V30 16282 C 1535.23 -0.79013 2.1515 0
M  V30 16283 C 1536.23 -1.1811 1.09117 0
M  V30 16284 O 1537.42 -1.1034 1.34798 0
M  V30 16285 C 1534.55 -2.07109 2.70774 0
M  V30 16286 H 1535.75 -0.284343 2.98549 0
M  V30 16287 H 1533.3 -0.11081 1.55907 0
M  V30 16288 H 1534.03 -2.62074 1.91018 0
M  V30 16289 H 1533.82 -1.80004 3.4834 0
M  V30 16290 H 1535.31 -2.73456 3.15613 0
M  V30 16291 N 1535.75 -1.57019 -0.13521 0
M  V30 16292 C 1536.71 -1.98229 -1.15056 0
M  V30 16293 C 1537.71 -0.870295 -1.35213 0
M  V30 16294 O 1538.9 -1.13668 -1.32005 0
M  V30 16295 C 1536.03 -2.30844 -2.50846 0
M  V30 16296 H 1537.22 -2.89123 -0.796744 0
M  V30 16297 H 1534.78 -1.51636 -0.378962 0
M  V30 16298 H 1535.51 -1.42779 -2.91178 0
M  V30 16299 H 1535.3 -3.11931 -2.37574 0
M  V30 16300 H 1536.79 -2.63524 -3.23952 0
M  V30 16301 N 1537.22 0.404919 -1.52309 0
M  V30 16302 C 1538.64 0.743846 -1.41206 0
M  V30 16303 C 1538.84 1.94678 -0.519874 0
M  V30 16304 O 1537.9 2.52497 0.0127417 0
M  V30 16305 C 1539.21 0.99384 -2.83802 0
M  V30 16306 C 1540.76 1.0963 -2.93173 0
M  V30 16307 C 1541.23 1.37902 -4.36746 0
M  V30 16308 N 1542.72 1.44758 -4.39999 0
M  V30 16309 C 1543.46 1.68269 -5.48154 0
M  V30 16310 N 1542.95 1.89356 -6.6642 0
M  V30 16311 N 1544.75 1.70318 -5.35675 0
M  V30 16312 H 1536.9 -0.386855 -2.08847 0
M  V30 16313 H 1539.16 -0.110811 -0.941501 0
M  V30 16314 H 1538.87 0.182249 -3.51227 0
M  V30 16315 H 1538.74 1.91287 -3.25099 0
M  V30 16316 H 1541.13 1.89847 -2.25925 0
M  V30 16317 H 1541.21 0.155539 -2.55327 0
M  V30 16318 H 1540.85 0.582004 -5.04554 0
M  V30 16319 H 1540.78 2.33237 -4.72132 0
M  V30 16320 H 1543.27 1.30235 -3.5475 0
M  V30 16321 H 1543.59 2.06758 -7.44628 0
M  V30 16322 H 1541.93 1.86612 -6.69478 0
M  V30 16323 H 1545.12 1.53385 -4.42256 0
M  V30 16324 H 1545.3 1.88302 -6.20037 0
M  V30 16325 N 1538.7 1.43003 0.662408 0
M  V30 16326 C 1539.65 1.47701 1.79686 0
M  V30 16327 C 1540.64 0.351491 1.65713 0
M  V30 16328 O 1541.85 0.525071 1.72171 0
M  V30 16329 H 1538.23 0.46285 0.592684 0
M  V30 16330 H 1540.2 2.43245 1.72843 0
M  V30 16331 C 1538.95 1.40828 3.17904 0
M  V30 16332 H 1538.27 2.26736 3.29288 0
M  V30 16333 H 1539.71 1.48177 3.97265 0
M  V30 16334 C 1538.17 0.124659 3.36669 0
M  V30 16335 O 1538.7 -0.81769 3.9329 0
M  V30 16336 N 1536.9 0.0378063 2.90575 0
M  V30 16337 H 1536.45 0.805456 2.44684 0
M  V30 16338 H 1536.41 -0.820377 3.03508 0
M  V30 16339 N 1540.18 -0.899904 1.29381 0
M  V30 16340 C 1541.43 -1.64502 1.16713 0
M  V30 16341 C 1541.74 -1.93577 -0.280563 0
M  V30 16342 O 1542.95 -2.66305 -0.528563 0
M  V30 16343 C 1541.4 -2.96414 2.04125 0
M  V30 16344 C 1541.01 -2.74935 3.53716 0
M  V30 16345 C 1542.76 -3.74337 2.0018 0
M  V30 16346 C 1540.66 -4.02571 4.33232 0
M  V30 16347 H 1539.59 -0.617121 0.433218 0
M  V30 16348 H 1542.24 -0.997521 1.54019 0
M  V30 16349 H 1540.63 -3.62375 1.59687 0
M  V30 16350 H 1541.8 -2.17567 4.06203 0
M  V30 16351 H 1540.12 -2.10407 3.5933 0
M  V30 16352 H 1542.71 -4.6897 2.56849 0
M  V30 16353 H 1543.06 -4.04559 0.981735 0
M  V30 16354 H 1543.59 -3.15216 2.4266 0
M  V30 16355 H 1540.33 -3.77516 5.35875 0
M  V30 16356 H 1539.85 -4.59499 3.85514 0
M  V30 16357 H 1541.53 -4.70719 4.43884 0
M  V30 16358 N 1541.66 -1.11854 -1.11024 0
M  V30 16359 C 1542.59 -0.803129 -2.19253 0
M  V30 16360 C 1543.57 0.230417 -1.68532 0
M  V30 16361 O 1544.75 0.0929421 -1.93977 0
M  V30 16362 C 1541.88 -0.250265 -3.46397 0
M  V30 16363 C 1540.84 -1.21617 -4.10357 0
M  V30 16364 C 1540.16 -0.523821 -5.32128 0
M  V30 16365 C 1541.46 -2.56852 -4.54779 0
M  V30 16366 H 1543.16 -1.7081 -2.45895 0
M  V30 16367 H 1540.7 -0.822712 -1.18184 0
M  V30 16368 H 1542.66 -0.0173732 -4.21396 0
M  V30 16369 H 1541.38 0.690018 -3.19228 0
M  V30 16370 H 1540.04 -1.43477 -3.37357 0
M  V30 16371 H 1539.69 0.421408 -5.01232 0
M  V30 16372 H 1539.39 -1.16809 -5.75873 0
M  V30 16373 H 1540.91 -0.299823 -6.09863 0
M  V30 16374 H 1542.33 -2.39056 -5.21081 0
M  V30 16375 H 1540.72 -3.17301 -5.09353 0
M  V30 16376 H 1541.79 -3.15751 -3.68007 0
M  V30 16377 N 1543.14 1.28707 -0.909517 0
M  V30 16378 C 1544.07 2.29845 -0.411552 0
M  V30 16379 C 1545.05 1.62001 0.518615 0
M  V30 16380 O 1546.23 1.89442 0.427252 0
M  V30 16381 C 1543.36 3.45501 0.353013 0
M  V30 16382 C 1542.32 4.25213 -0.487625 0
M  V30 16383 C 1541.64 5.33164 0.405026 0
M  V30 16384 C 1542.94 4.9237 -1.74268 0
M  V30 16385 H 1544.64 2.71746 -1.25676 0
M  V30 16386 H 1542.18 1.30639 -0.605759 0
M  V30 16387 H 1544.14 4.15338 0.712191 0
M  V30 16388 H 1542.86 3.02469 1.23209 0
M  V30 16389 H 1541.52 3.57098 -0.829265 0
M  V30 16390 H 1541.17 4.86375 1.28252 0
M  V30 16391 H 1540.87 5.87399 -0.153811 0
M  V30 16392 H 1542.39 6.0585 0.760179 0
M  V30 16393 H 1543.8 5.5459 -1.45266 0
M  V30 16394 H 1542.2 5.56581 -2.2436 0
M  V30 16395 H 1543.27 4.171 -2.47297 0
M  V30 16396 N 1544.61 0.673042 1.42506 0
M  V30 16397 C 1545.84 0.201349 2.0642 0
M  V30 16398 C 1546.26 -1.132 1.50224 0
M  V30 16399 O 1545.62 -1.70368 0.620024 0
M  V30 16400 C 1545.67 0.14505 3.60308 0
M  V30 16401 O 1544.77 -0.886953 4.02749 0
M  V30 16402 H 1544.12 0.103975 0.655809 0
M  V30 16403 H 1546.65 0.921559 1.8267 0
M  V30 16404 H 1546.66 -0.0316792 4.07988 0
M  V30 16405 H 1545.33 1.11829 4.00583 0
M  V30 16406 H 1543.91 -0.681408 3.66621 0
M  V30 16407 N 1546.09 -1.52004 0.416254 0
M  V30 16408 C 1547 -2.30947 -0.412403 0
M  V30 16409 C 1548.02 -1.38969 -1.04707 0
M  V30 16410 O 1549.19 -1.72044 -1.04703 0
M  V30 16411 C 1546.26 -3.12078 -1.51024 0
M  V30 16412 C 1545.32 -4.19805 -0.897892 0
M  V30 16413 C 1544.55 -4.97059 -1.94341 0
M  V30 16414 O 1544.78 -4.74695 -3.16261 0
M  V30 16415 O 1543.71 -5.81715 -1.54567 0
M  V30 16416 H 1547.54 -3.02817 0.231473 0
M  V30 16417 H 1545.12 -1.4832 0.179283 0
M  V30 16418 H 1547 -3.6258 -2.14741 0
M  V30 16419 H 1545.68 -2.42995 -2.13858 0
M  V30 16420 H 1544.59 -3.73433 -0.223236 0
M  V30 16421 H 1545.92 -4.91201 -0.31336 0
M  V30 16422 N 1547.57 -0.146903 -1.56914 0
M  V30 16423 C 1548.8 0.514426 -2.00919 0
M  V30 16424 C 1549.22 1.57632 -1.02634 0
M  V30 16425 O 1548.58 1.813 -0.00207478 0
M  V30 16426 C 1548.63 1.09197 -3.43669 0
M  V30 16427 O 1547.73 2.20684 -3.48385 0
M  V30 16428 H 1547.07 0.125827 -0.651969 0
M  V30 16429 H 1549.6 -0.243607 -2.03145 0
M  V30 16430 H 1549.61 1.42066 -3.82467 0
M  V30 16431 H 1548.29 0.314336 -4.1471 0
M  V30 16432 H 1546.86 1.89045 -3.21429 0
M  V30 16433 N 1549.05 1.57088 0.126881 0
M  V30 16434 C 1550.33 1.7539 0.8659 0
M  V30 16435 C 1550.71 0.720288 1.98432 0
M  V30 16436 O 1550.05 -0.2572 2.27048 0
M  V30 16437 C 1550.26 3.20131 1.38985 0
M  V30 16438 C 1551.61 3.82404 1.84532 0
M  V30 16439 O 1552.64 3.23685 1.48682 0
M  V30 16440 O 1551.49 4.85599 2.50711 0
M  V30 16441 H 1548.59 0.717853 0.41063 0
M  V30 16442 H 1551.13 1.69335 0.111236 0
M  V30 16443 H 1549.91 3.86871 0.587056 0
M  V30 16444 H 1549.53 3.30692 2.20745 0
M  V30 16445 N 1550.53 -0.396836 1.52522 0
M  V30 16446 C 1551.77 -1.14432 1.67431 0
M  V30 16447 C 1552.11 -1.89842 0.409115 0
M  V30 16448 O 1551.38 -1.85244 -0.592863 0
M  V30 16449 C 1551.66 -2.12889 2.90431 0
M  V30 16450 C 1551.52 -1.41295 4.27031 0
M  V30 16451 C 1552.84 -3.13412 3.08967 0
M  V30 16452 H 1549.95 -0.414643 0.609295 0
M  V30 16453 H 1552.6 -0.428604 1.85103 0
M  V30 16454 H 1550.75 -2.73924 2.75495 0
M  V30 16455 H 1552.42 -0.832848 4.53719 0
M  V30 16456 H 1550.66 -0.714834 4.2787 0
M  V30 16457 H 1551.33 -2.13198 5.09167 0
M  V30 16458 H 1553.81 -2.62462 3.22883 0
M  V30 16459 H 1552.68 -3.79555 3.96522 0
M  V30 16460 H 1552.95 -3.81836 2.22831 0
M  V30 16461 N 1552.01 -1.43353 -0.654814 0
M  V30 16462 C 1553.25 -1.451 -1.41682 0
M  V30 16463 C 1553.58 -0.0743864 -1.94057 0
M  V30 16464 O 1552.86 0.904515 -1.72188 0
M  V30 16465 C 1553.14 -2.49204 -2.59941 0
M  V30 16466 C 1553 -3.96134 -2.13069 0
M  V30 16467 C 1554.31 -2.50064 -3.62155 0
M  V30 16468 H 1551.43 -0.528339 -0.513836 0
M  V30 16469 H 1554.08 -1.74892 -0.742489 0
M  V30 16470 H 1552.23 -2.2393 -3.1747 0
M  V30 16471 H 1553.9 -4.32459 -1.60552 0
M  V30 16472 H 1552.14 -4.09042 -1.44455 0
M  V30 16473 H 1552.81 -4.64585 -2.98101 0
M  V30 16474 H 1555.29 -2.72587 -3.14382 0
M  V30 16475 H 1554.16 -3.24849 -4.42452 0
M  V30 16476 H 1554.42 -1.53385 -4.14639 0
M  V30 16477 N 1553.48 0.89303 -1.29857 0
M  V30 16478 C 1554.43 1.9979 -1.15554 0
M  V30 16479 C 1555.4 1.66033 -0.0471157 0
M  V30 16480 O 1556.59 1.89575 -0.215846 0
M  V30 16481 C 1553.73 3.34595 -0.844993 0
M  V30 16482 C 1552.84 3.81093 -2.03451 0
M  V30 16483 C 1551.97 5.04506 -1.66275 0
M  V30 16484 C 1551.01 5.4339 -2.8177 0
M  V30 16485 N 1550.15 6.57987 -2.44945 0
M  V30 16486 H 1554.99 2.11355 -2.10079 0
M  V30 16487 H 1552.53 1.03497 -1.04531 0
M  V30 16488 H 1554.48 4.12175 -0.645598 0
M  V30 16489 H 1553.11 3.22738 0.0633626 0
M  V30 16490 H 1552.17 2.99491 -2.34541 0
M  V30 16491 H 1553.48 4.05855 -2.8997 0
M  V30 16492 H 1552.63 5.89688 -1.42664 0
M  V30 16493 H 1551.37 4.81597 -0.769144 0
M  V30 16494 H 1550.38 4.56738 -3.06056 0
M  V30 16495 H 1551.6 5.68276 -3.71805 0
M  V30 16496 H 1549.55 6.36669 -1.58079 0
M  V30 16497 H 1549.46 6.82579 -3.24996 0
M  V30 16498 H 1550.73 7.46421 -2.24669 0
M  V30 16499 N 1554.96 1.12442 1.10429 0
M  V30 16500 C 1556.21 0.874466 1.81758 0
M  V30 16501 C 1556.52 -0.601487 1.86122 0
M  V30 16502 O 1557.73 -0.968037 2.53656 0
M  V30 16503 C 1556.19 1.51478 3.2647 0
M  V30 16504 C 1555.79 3.02552 3.30403 0
M  V30 16505 C 1557.54 1.34511 4.02625 0
M  V30 16506 C 1555.44 3.59518 4.69575 0
M  V30 16507 H 1554.37 0.323494 0.681078 0
M  V30 16508 H 1557.03 1.35091 1.24188 0
M  V30 16509 H 1555.41 0.966 3.84037 0
M  V30 16510 H 1556.58 3.63924 2.82659 0
M  V30 16511 H 1554.9 3.18917 2.67733 0
M  V30 16512 H 1557.49 1.74492 5.05427 0
M  V30 16513 H 1557.84 0.288788 4.15297 0
M  V30 16514 H 1558.37 1.86311 3.51473 0
M  V30 16515 H 1555.11 4.6491 4.62103 0
M  V30 16516 H 1554.63 3.02922 5.17686 0
M  V30 16517 H 1556.31 3.58581 5.38543 0
M  V30 16518 N 1556.44 -1.28223 0.91633 0
M  V30 16519 C 1557.68 -1.96637 0.557957 0
M  V30 16520 C 1558.04 -1.70523 -0.882386 0
M  V30 16521 O 1559.24 -2.32529 -1.34846 0
M  V30 16522 C 1557.52 -3.46858 0.861633 0
M  V30 16523 S 1559.07 -4.34538 0.610066 0
M  V30 16524 H 1555.89 -0.680393 0.206364 0
M  V30 16525 H 1558.49 -1.55696 1.18233 0
M  V30 16526 H 1557.2 -3.63361 1.90781 0
M  V30 16527 H 1556.73 -3.9275 0.226011 0
M  V30 16528 H 1558.74 -4.93281 -0.537408 0
M  V30 16529 N 1557.92 -0.68059 -1.42147 0
M  V30 16530 C 1559.19 -0.133957 -1.95141 0
M  V30 16531 C 1559.57 1.3526 -1.62074 0
M  V30 16532 O 1558.92 2.09165 -0.919898 0
M  V30 16533 C 1559.13 -0.409266 -3.46592 0
M  V30 16534 C 1560.48 -0.328899 -4.23324 0
M  V30 16535 O 1561.5 -0.343337 -3.54541 0
M  V30 16536 O 1560.36 -0.276076 -5.45802 0
M  V30 16537 H 1557.46 -0.00623443 -0.826977 0
M  V30 16538 H 1560 -0.755719 -1.51944 0
M  V30 16539 H 1558.78 -1.43883 -3.63887 0
M  V30 16540 H 1558.4 0.244216 -3.96849 0
M  V30 16541 N 1559.4 1.51781 -0.424309 0
M  V30 16542 C 1560.64 2.01969 0.146492 0
M  V30 16543 C 1560.97 1.30918 1.43843 0
M  V30 16544 O 1560.23 0.408705 1.91385 0
M  V30 16545 C 1560.52 3.54855 0.42574 0
M  V30 16546 C 1560.19 4.44123 -0.778814 0
M  V30 16547 C 1558.85 4.68242 -1.10918 0
M  V30 16548 C 1561.2 4.96579 -1.58299 0
M  V30 16549 C 1558.53 5.42063 -2.24464 0
M  V30 16550 C 1560.88 5.71645 -2.70934 0
M  V30 16551 C 1559.55 5.94031 -3.04439 0
M  V30 16552 H 1558.82 0.739059 0.0536052 0
M  V30 16553 H 1561.47 1.82856 -0.568838 0
M  V30 16554 H 1559.77 3.72229 1.22282 0
M  V30 16555 H 1561.47 3.91212 0.880598 0
M  V30 16556 H 1558.06 4.25539 -0.511363 0
M  V30 16557 H 1562.24 4.77841 -1.34098 0
M  V30 16558 H 1557.5 5.57614 -2.50753 0
M  V30 16559 H 1561.67 6.11284 -3.33624 0
M  V30 16560 H 1559.3 6.51014 -3.92537 0
M  V30 16561 N 1560.87 0.155222 1.56834 0
M  V30 16562 C 1562.12 -0.49285 1.95998 0
M  V30 16563 C 1562.44 -1.64857 1.0415 0
M  V30 16564 O 1561.71 -1.9562 0.104654 0
M  V30 16565 H 1560.29 -0.185063 0.723713 0
M  V30 16566 H 1562.95 0.232644 1.93507 0
M  V30 16567 H 1562.05 -0.863552 2.99915 0
M  V30 16568 N 1562.35 -1.57153 -0.118549 0
M  V30 16569 C 1563.28 -2.03409 -1.1466 0
M  V30 16570 C 1564.26 -0.918636 -1.43161 0
M  V30 16571 O 1565.45 -1.18838 -1.53594 0
M  V30 16572 C 1562.58 -2.43879 -2.47265 0
M  V30 16573 C 1561.53 -3.58873 -2.33225 0
M  V30 16574 C 1560.86 -3.85244 -3.70798 0
M  V30 16575 C 1562.16 -4.90582 -1.79239 0
M  V30 16576 H 1563.85 -2.89545 -0.761862 0
M  V30 16577 H 1561.4 -1.39296 -0.365034 0
M  V30 16578 H 1563.35 -2.74844 -3.19435 0
M  V30 16579 H 1562.07 -1.54715 -2.8763 0
M  V30 16580 H 1560.73 -3.28119 -1.63504 0
M  V30 16581 H 1560.38 -2.93285 -4.08648 0
M  V30 16582 H 1560.08 -4.62649 -3.62257 0
M  V30 16583 H 1561.61 -4.18661 -4.44472 0
M  V30 16584 H 1563.02 -5.20079 -2.41227 0
M  V30 16585 H 1561.42 -5.71989 -1.81518 0
M  V30 16586 H 1562.49 -4.79065 -0.74999 0
M  V30 16587 N 1563.83 0.388742 -1.5273 0
M  V30 16588 C 1564.79 1.45759 -1.76881 0
M  V30 16589 C 1565.79 1.47565 -0.63884 0
M  V30 16590 O 1566.98 1.48731 -0.906895 0
M  V30 16591 C 1564.11 2.85045 -1.86981 0
M  V30 16592 H 1565.31 1.25629 -2.72319 0
M  V30 16593 H 1562.86 0.620497 -1.43456 0
M  V30 16594 H 1563.6 3.1052 -0.935296 0
M  V30 16595 H 1563.38 2.85136 -2.69147 0
M  V30 16596 H 1564.87 3.62492 -2.07338 0
M  V30 16597 N 1565.31 1.43698 0.647203 0
M  V30 16598 C 1566.72 1.27231 0.963563 0
M  V30 16599 C 1566.92 0.196385 2.00541 0
M  V30 16600 O 1565.98 -0.423162 2.48929 0
M  V30 16601 C 1567.29 2.63863 1.44211 0
M  V30 16602 C 1568.84 2.71444 1.55844 0
M  V30 16603 C 1569.32 4.08508 2.07087 0
M  V30 16604 N 1570.81 4.10603 2.14381 0
M  V30 16605 C 1571.54 5.13496 2.55166 0
M  V30 16606 N 1571.04 6.26759 2.95203 0
M  V30 16607 N 1572.83 5.0085 2.55158 0
M  V30 16608 H 1564.98 2.12358 -0.0420956 0
M  V30 16609 H 1567.24 0.946989 0.0437628 0
M  V30 16610 H 1566.95 3.43589 0.75096 0
M  V30 16611 H 1566.82 2.89666 2.41605 0
M  V30 16612 H 1569.21 1.92046 2.24058 0
M  V30 16613 H 1569.29 2.49399 0.56866 0
M  V30 16614 H 1568.94 4.88375 1.39472 0
M  V30 16615 H 1568.87 4.2792 3.06907 0
M  V30 16616 H 1571.36 3.2885 1.86188 0
M  V30 16617 H 1571.67 7.01096 3.25091 0
M  V30 16618 H 1570.02 6.30222 2.92993 0
M  V30 16619 H 1573.21 4.11428 2.2326 0
M  V30 16620 H 1573.38 5.81165 2.86621 0
M  V30 16621 N 1566.79 -0.886131 1.30328 0
M  V30 16622 C 1568.06 -1.61912 1.09744 0
M  V30 16623 C 1568.44 -2.08116 -0.353663 0
M  V30 16624 O 1567.79 -1.84725 -1.34495 0
M  V30 16625 C 1568 -2.78954 2.09727 0
M  V30 16626 C 1569.35 -3.49313 2.41382 0
M  V30 16627 O 1570.37 -2.89141 2.08028 0
M  V30 16628 O 1569.23 -4.57823 2.98431 0
M  V30 16629 H 1566.33 -0.71158 0.421406 0
M  V30 16630 H 1568.87 -0.933009 1.4175 0
M  V30 16631 H 1567.64 -2.42109 3.07407 0
M  V30 16632 H 1567.27 -3.55263 1.78532 0
M  V30 16633 N 1568.26 -1.13026 -1.09832 0
M  V30 16634 C 1569.51 -0.884093 -1.81292 0
M  V30 16635 C 1569.83 0.591608 -1.86439 0
M  V30 16636 O 1571.03 0.954571 -2.54166 0
M  V30 16637 C 1569.49 -1.53207 -3.25662 0
M  V30 16638 C 1569.1 -3.043 -3.28794 0
M  V30 16639 C 1570.84 -1.36644 -4.01906 0
M  V30 16640 C 1568.75 -3.62003 -4.67662 0
M  V30 16641 H 1567.68 -0.327101 -0.679353 0
M  V30 16642 H 1570.33 -1.35748 -1.2347 0
M  V30 16643 H 1568.71 -0.986353 -3.83519 0
M  V30 16644 H 1569.88 -3.65418 -2.80725 0
M  V30 16645 H 1568.2 -3.20332 -2.66038 0
M  V30 16646 H 1570.8 -1.7717 -5.04495 0
M  V30 16647 H 1571.14 -0.310809 -4.15138 0
M  V30 16648 H 1571.67 -1.88172 -3.5048 0
M  V30 16649 H 1568.41 -4.67354 -4.59631 0
M  V30 16650 H 1567.93 -3.05663 -5.16072 0
M  V30 16651 H 1569.61 -3.61432 -5.36634 0
M  V30 16652 N 1569.74 1.27735 -0.923117 0
M  V30 16653 C 1570.97 1.98394 -0.57648 0
M  V30 16654 C 1571.38 1.69093 0.848778 0
M  V30 16655 O 1570.72 0.945385 1.57506 0
M  V30 16656 C 1570.79 3.52278 -0.716984 0
M  V30 16657 C 1570.45 4.05191 -2.11351 0
M  V30 16658 C 1571.45 4.18314 -3.08722 0
M  V30 16659 C 1569.13 4.39652 -2.42922 0
M  V30 16660 C 1571.13 4.65166 -4.35774 0
M  V30 16661 C 1568.81 4.86196 -3.70211 0
M  V30 16662 C 1569.81 4.98911 -4.66451 0
M  V30 16663 O 1569.5 5.44437 -5.91476 0
M  V30 16664 H 1569.23 0.640008 -0.217636 0
M  V30 16665 H 1571.78 1.63666 -1.24107 0
M  V30 16666 H 1570.01 3.867 0.00469601 0
M  V30 16667 H 1571.7 4.04154 -0.376077 0
M  V30 16668 H 1572.47 3.91955 -2.85651 0
M  V30 16669 H 1568.35 4.29 -1.6876 0
M  V30 16670 H 1571.89 4.75006 -5.10896 0
M  V30 16671 H 1567.79 5.11997 -3.93103 0
M  V30 16672 H 1568.56 5.62701 -5.94399 0
M  V30 16673 N 1571.22 0.688118 1.41784 0
M  V30 16674 C 1572.17 0.018099 2.30793 0
M  V30 16675 C 1573.14 -0.779009 1.46699 0
M  V30 16676 O 1574.32 -0.748556 1.75503 0
M  V30 16677 C 1571.46 -0.91769 3.32675 0
M  V30 16678 C 1570.58 -0.11299 4.31852 0
M  V30 16679 C 1569.71 -1.04574 5.20805 0
M  V30 16680 C 1568.75 -0.233509 6.11654 0
M  V30 16681 N 1567.89 -1.11967 6.93115 0
M  V30 16682 H 1572.73 0.782911 2.87532 0
M  V30 16683 H 1570.26 0.397806 1.41619 0
M  V30 16684 H 1572.22 -1.47421 3.90286 0
M  V30 16685 H 1570.85 -1.64898 2.77504 0
M  V30 16686 H 1569.9 0.560344 3.7625 0
M  V30 16687 H 1571.22 0.517033 4.96113 0
M  V30 16688 H 1570.37 -1.67174 5.83213 0
M  V30 16689 H 1569.11 -1.70963 4.56753 0
M  V30 16690 H 1568.11 0.405614 5.48302 0
M  V30 16691 H 1569.34 0.426479 6.7776 0
M  V30 16692 H 1567.28 -1.76972 6.31678 0
M  V30 16693 H 1567.2 -0.545042 7.54033 0
M  V30 16694 H 1568.47 -1.73272 7.59998 0
M  V30 16695 N 1572.7 -1.51554 0.432352 0
M  V30 16696 C 1573.98 -1.94621 -0.195472 0
M  V30 16697 C 1574.36 -1.37072 -1.60544 0
M  V30 16698 O 1573.7 -0.555781 -2.21638 0
M  V30 16699 C 1573.91 -3.48544 -0.178267 0
M  V30 16700 C 1575.26 -4.22839 -0.386283 0
M  V30 16701 O 1576.29 -3.55275 -0.256604 0
M  V30 16702 O 1575.14 -5.42693 -0.643927 0
M  V30 16703 H 1572.24 -0.816291 -0.132656 0
M  V30 16704 H 1574.78 -1.62473 0.489972 0
M  V30 16705 H 1573.56 -3.82874 0.807658 0
M  V30 16706 H 1573.18 -3.87121 -0.906832 0
M  V30 16707 N 1574.18 -0.163538 -1.56749 0
M  V30 16708 C 1575.59 0.354516 -1.83303 0
M  V30 16709 C 1575.94 1.63601 -1.08301 0
M  V30 16710 O 1575.06 2.13814 -0.333546 0
M  V30 16711 C 1575.66 0.649983 -3.32507 0
M  V30 16712 C 1574.22 1.1125 -3.59584 0
M  V30 16713 C 1573.36 0.144257 -2.76925 0
M  V30 16714 H 1576.32 -0.387945 -1.53885 0
M  V30 16715 H 1576.34 1.5029 -3.49562 0
M  V30 16716 H 1575.85 -0.282886 -3.87068 0
M  V30 16717 H 1573.95 2.06074 -3.10426 0
M  V30 16718 H 1574.06 1.02704 -4.67962 0
M  V30 16719 H 1572.43 0.640116 -2.46525 0
M  V30 16720 H 1573.21 -0.782495 -3.34263 0
M  V30 16721 N 1575.65 1.57214 0.110213 0
M  V30 16722 C 1576.93 1.76298 0.847249 0
M  V30 16723 C 1577.31 0.741294 1.97656 0
M  V30 16724 O 1576.66 -0.233104 2.27308 0
M  V30 16725 C 1576.87 3.21588 1.35582 0
M  V30 16726 C 1578.22 3.8434 1.80465 0
M  V30 16727 O 1579.24 3.25244 1.45241 0
M  V30 16728 O 1578.1 4.88231 2.45546 0
M  V30 16729 H 1575.19 0.722167 0.402993 0
M  V30 16730 H 1577.74 1.69443 0.0932694 0
M  V30 16731 H 1576.51 3.87472 0.54599 0
M  V30 16732 H 1576.14 3.33015 2.17225 0
M  V30 16733 N 1577.13 -0.380637 1.52934 0
M  V30 16734 C 1578.36 -1.14417 1.72024 0
M  V30 16735 C 1578.77 -1.83962 0.442128 0
M  V30 16736 O 1578.11 -1.73839 -0.593766 0
M  V30 16737 C 1578.18 -2.22944 2.82022 0
M  V30 16738 C 1577.84 -1.73295 4.22869 0
M  V30 16739 C 1578.84 -1.20515 5.05739 0
M  V30 16740 C 1576.52 -1.79264 4.69222 0
M  V30 16741 C 1578.52 -0.743632 6.33047 0
M  V30 16742 C 1576.2 -1.32724 5.96513 0
M  V30 16743 C 1577.2 -0.803615 6.78256 0
M  V30 16744 O 1576.89 -0.34503 8.03159 0
M  V30 16745 H 1576.62 -0.348676 0.579138 0
M  V30 16746 H 1579.17 -0.450113 2.00407 0
M  V30 16747 H 1577.4 -2.95798 2.49079 0
M  V30 16748 H 1579.09 -2.84575 2.89434 0
M  V30 16749 H 1579.86 -1.15254 4.71107 0
M  V30 16750 H 1575.74 -2.18962 4.0568 0
M  V30 16751 H 1579.28 -0.334251 6.96799 0
M  V30 16752 H 1575.18 -1.37673 6.30648 0
M  V30 16753 H 1575.95 -0.465743 8.17174 0
M  V30 16754 N 1578.61 -1.44039 -0.639573 0
M  V30 16755 C 1579.86 -1.46594 -1.40136 0
M  V30 16756 C 1580.19 -0.0949646 -1.93968 0
M  V30 16757 O 1579.46 0.886201 -1.73138 0
M  V30 16758 C 1579.75 -2.51947 -2.57283 0
M  V30 16759 C 1579.6 -3.98371 -2.08855 0
M  V30 16760 C 1580.92 -2.53891 -3.59482 0
M  V30 16761 H 1578.04 -0.533759 -0.508203 0
M  V30 16762 H 1580.68 -1.75669 -0.723898 0
M  V30 16763 H 1578.83 -2.27285 -3.15077 0
M  V30 16764 H 1580.5 -4.34137 -1.55956 0
M  V30 16765 H 1578.75 -4.10551 -1.40109 0
M  V30 16766 H 1579.42 -4.67721 -2.93157 0
M  V30 16767 H 1581.89 -2.75906 -3.11473 0
M  V30 16768 H 1580.77 -3.29524 -4.38982 0
M  V30 16769 H 1581.03 -1.57774 -4.12989 0
M  V30 16770 N 1580.09 0.879207 -1.30796 0
M  V30 16771 C 1581.5 1.16344 -1.09253 0
M  V30 16772 C 1581.7 2.00992 0.142993 0
M  V30 16773 O 1580.76 2.38295 0.834966 0
M  V30 16774 C 1582.07 1.86452 -2.35915 0
M  V30 16775 C 1583.62 1.99193 -2.41436 0
M  V30 16776 C 1584.1 2.72714 -3.67955 0
M  V30 16777 N 1585.59 2.80256 -3.68796 0
M  V30 16778 C 1586.32 3.37732 -4.63384 0
M  V30 16779 N 1585.82 3.96212 -5.6832 0
M  V30 16780 N 1587.61 3.35602 -4.50918 0
M  V30 16781 H 1579.76 0.314928 -2.10052 0
M  V30 16782 H 1582.03 0.202087 -0.92621 0
M  V30 16783 H 1581.73 1.31699 -3.26111 0
M  V30 16784 H 1581.61 2.86796 -2.45006 0
M  V30 16785 H 1583.99 2.53113 -1.51716 0
M  V30 16786 H 1584.07 0.97919 -2.36317 0
M  V30 16787 H 1583.72 2.19464 -4.58037 0
M  V30 16788 H 1583.65 3.74376 -3.70338 0
M  V30 16789 H 1586.14 2.38742 -2.92935 0
M  V30 16790 H 1586.45 4.38153 -6.36586 0
M  V30 16791 H 1584.8 3.94615 -5.72105 0
M  V30 16792 H 1587.99 2.89147 -3.68119 0
M  V30 16793 H 1588.16 3.80099 -5.24813 0
M  V30 16794 N 1581.57 1.13606 1.09231 0
M  V30 16795 C 1582.51 0.815279 2.15921 0
M  V30 16796 C 1583.48 -0.223501 1.64589 0
M  V30 16797 O 1584.67 -0.0952982 1.90562 0
M  V30 16798 C 1581.81 0.289655 3.43882 0
M  V30 16799 C 1580.92 1.38773 4.09104 0
M  V30 16800 C 1580.06 0.820238 5.24829 0
M  V30 16801 C 1579.1 1.89658 5.81976 0
M  V30 16802 N 1578.23 1.34688 6.8906 0
M  V30 16803 H 1583.07 1.72914 2.42703 0
M  V30 16804 H 1580.61 0.863101 1.19117 0
M  V30 16805 H 1582.57 -0.0332398 4.17187 0
M  V30 16806 H 1581.2 -0.587329 3.17412 0
M  V30 16807 H 1580.25 1.82718 3.33644 0
M  V30 16808 H 1581.56 2.20114 4.47606 0
M  V30 16809 H 1580.72 0.448745 6.05038 0
M  V30 16810 H 1579.46 -0.0242261 4.87694 0
M  V30 16811 H 1578.46 2.27712 5.00427 0
M  V30 16812 H 1579.69 2.74448 6.21172 0
M  V30 16813 H 1577.63 0.524453 6.539 0
M  V30 16814 H 1577.55 2.09675 7.26342 0
M  V30 16815 H 1578.82 1.00302 7.7302 0
M  V30 16816 N 1583.05 -1.27244 0.929878 0
M  V30 16817 C 1584.29 -1.93886 0.570331 0
M  V30 16818 C 1584.61 -1.7342 -0.891656 0
M  V30 16819 O 1583.88 -1.0832 -1.63228 0
M  V30 16820 H 1582.46 -0.717476 0.207937 0
M  V30 16821 H 1585.13 -1.5491 1.18275 0
M  V30 16822 H 1584.22 -3.02236 0.778463 0
M  V30 16823 N 1584.52 -0.695628 -1.41417 0
M  V30 16824 C 1585.75 -0.234163 -2.06074 0
M  V30 16825 C 1586.17 1.10796 -1.52006 0
M  V30 16826 O 1585.53 1.6936 -0.64705 0
M  V30 16827 C 1585.58 -0.202353 -3.60032 0
M  V30 16828 O 1584.68 0.822767 -4.04109 0
M  V30 16829 H 1584.02 -0.114395 -0.654072 0
M  V30 16830 H 1586.55 -0.950503 -1.81181 0
M  V30 16831 H 1586.56 -0.0332321 -4.07986 0
M  V30 16832 H 1585.24 -1.18188 -3.98754 0
M  V30 16833 H 1583.82 0.622995 -3.67659 0
M  V30 16834 N 1586 1.51322 -0.440383 0
M  V30 16835 C 1586.96 2.26388 0.357911 0
M  V30 16836 C 1587.96 1.2995 0.947083 0
M  V30 16837 O 1589.15 1.53637 0.821057 0
M  V30 16838 C 1586.29 3.05797 1.50669 0
M  V30 16839 H 1587.48 2.98396 -0.300002 0
M  V30 16840 H 1585.03 1.55096 -0.193628 0
M  V30 16841 H 1585.77 2.38213 2.20057 0
M  V30 16842 H 1585.55 3.76634 1.09037 0
M  V30 16843 H 1587.04 3.6265 2.07062 0
M  V30 16844 N 1587.48 0.171848 1.5666 0
M  V30 16845 C 1588.9 -0.184312 1.58532 0
M  V30 16846 C 1589.1 -1.62811 1.18721 0
M  V30 16847 O 1588.15 -2.35951 0.899066 0
M  V30 16848 C 1589.46 0.0969826 3.00544 0
M  V30 16849 C 1591.01 0.0352364 3.1298 0
M  V30 16850 C 1591.49 0.289528 4.57084 0
M  V30 16851 N 1592.98 0.237322 4.62592 0
M  V30 16852 C 1593.71 0.408247 5.71945 0
M  V30 16853 N 1593.21 0.638256 6.89854 0
M  V30 16854 N 1595 0.344115 5.61046 0
M  V30 16855 H 1587.15 1.11427 1.80825 0
M  V30 16856 H 1589.42 0.44302 0.838115 0
M  V30 16857 H 1589.12 1.09717 3.34148 0
M  V30 16858 H 1589 -0.611157 3.72216 0
M  V30 16859 H 1591.38 -0.955531 2.79202 0
M  V30 16860 H 1591.46 0.776095 2.43743 0
M  V30 16861 H 1591.11 1.27751 4.91571 0
M  V30 16862 H 1591.04 -0.471948 5.24481 0
M  V30 16863 H 1593.53 0.0652142 3.77844 0
M  V30 16864 H 1593.84 0.758116 7.69072 0
M  V30 16865 H 1592.19 0.674877 6.91716 0
M  V30 16866 H 1595.38 0.165008 4.67809 0
M  V30 16867 H 1595.55 0.480749 6.46214 0
M  V30 16868 N 1588.96 -1.5727 -0.101874 0
M  V30 16869 C 1589.89 -2.04614 -1.12496 0
M  V30 16870 C 1590.87 -0.933768 -1.42179 0
M  V30 16871 O 1592.05 -1.2046 -1.52325 0
M  V30 16872 C 1589.18 -2.46488 -2.44665 0
M  V30 16873 C 1588.14 -3.61327 -2.29406 0
M  V30 16874 C 1587.46 -3.89155 -3.66691 0
M  V30 16875 C 1588.76 -4.92455 -1.74026 0
M  V30 16876 H 1590.46 -2.90336 -0.731109 0
M  V30 16877 H 1588 -1.39676 -0.350239 0
M  V30 16878 H 1589.96 -2.78216 -3.16502 0
M  V30 16879 H 1588.68 -1.57757 -2.85972 0
M  V30 16880 H 1587.34 -3.29835 -1.60015 0
M  V30 16881 H 1586.99 -2.97603 -4.05514 0
M  V30 16882 H 1586.69 -4.66465 -3.57329 0
M  V30 16883 H 1588.21 -4.23352 -4.40006 0
M  V30 16884 H 1589.63 -5.22609 -2.35697 0
M  V30 16885 H 1588.02 -5.73882 -1.75441 0
M  V30 16886 H 1589.09 -4.79833 -0.699136 0
M  V30 16887 N 1590.44 0.372521 -1.53134 0
M  V30 16888 C 1591.85 0.949671 -1.60742 0
M  V30 16889 C 1592.2 1.90475 -0.470501 0
M  V30 16890 O 1591.32 2.12594 0.404085 0
M  V30 16891 C 1591.92 1.72918 -2.9135 0
M  V30 16892 C 1590.48 2.25577 -3.01317 0
M  V30 16893 C 1589.62 1.06612 -2.55986 0
M  V30 16894 H 1592.57 0.151533 -1.57975 0
M  V30 16895 H 1592.6 2.58982 -2.78763 0
M  V30 16896 H 1592.11 1.0338 -3.74078 0
M  V30 16897 H 1590.21 2.98378 -2.23162 0
M  V30 16898 H 1590.32 2.53935 -4.06268 0
M  V30 16899 H 1588.69 1.43105 -2.10697 0
M  V30 16900 H 1589.47 0.38584 -3.41125 0
M  V30 16901 N 1591.91 1.44376 0.631925 0
M  V30 16902 C 1592.84 1.54005 1.75512 0
M  V30 16903 C 1593.82 0.393126 1.65495 0
M  V30 16904 O 1595.01 0.613143 1.84267 0
M  V30 16905 C 1592.14 1.48313 3.14039 0
M  V30 16906 C 1591.09 2.61474 3.38844 0
M  V30 16907 C 1590.42 2.40834 4.77392 0
M  V30 16908 C 1591.72 4.03627 3.31485 0
M  V30 16909 H 1593.41 2.48019 1.6771 0
M  V30 16910 H 1590.96 1.19368 0.80543 0
M  V30 16911 H 1592.91 1.5365 3.9239 0
M  V30 16912 H 1591.64 0.508152 3.22623 0
M  V30 16913 H 1590.3 2.55525 2.62874 0
M  V30 16914 H 1589.94 1.4153 4.82678 0
M  V30 16915 H 1589.64 3.16703 4.94947 0
M  V30 16916 H 1591.17 2.47988 5.57974 0
M  V30 16917 H 1592.58 4.1095 3.99741 0
M  V30 16918 H 1590.98 4.79694 3.60574 0
M  V30 16919 H 1592.05 4.27255 2.29307 0
M  V30 16920 N 1593.39 -0.872258 1.31261 0
M  V30 16921 C 1594.34 -1.97926 1.18718 0
M  V30 16922 C 1595.31 -1.65937 0.0735242 0
M  V30 16923 O 1596.49 -1.89208 0.245979 0
M  V30 16924 C 1593.63 -3.33208 0.898117 0
M  V30 16925 C 1592.75 -3.77808 2.09488 0
M  V30 16926 C 1591.88 -5.01796 1.74281 0
M  V30 16927 C 1590.92 -5.38838 2.90379 0
M  V30 16928 N 1590.06 -6.54007 2.55382 0
M  V30 16929 H 1594.9 -2.07986 2.13415 0
M  V30 16930 H 1592.43 -1.01821 1.06165 0
M  V30 16931 H 1594.39 -4.11095 0.711089 0
M  V30 16932 H 1593.02 -3.22798 -0.0120097 0
M  V30 16933 H 1592.07 -2.95722 2.39276 0
M  V30 16934 H 1593.39 -4.01191 2.96391 0
M  V30 16935 H 1592.54 -5.87344 1.52027 0
M  V30 16936 H 1591.28 -4.80312 0.845665 0
M  V30 16937 H 1590.28 -4.51811 3.13284 0
M  V30 16938 H 1591.51 -5.62289 3.80799 0
M  V30 16939 H 1589.46 -6.34073 1.68188 0
M  V30 16940 H 1589.37 -6.77322 3.35814 0
M  V30 16941 H 1590.64 -7.42752 2.36516 0
M  V30 16942 N 1594.87 -1.14184 -1.08627 0
M  V30 16943 C 1596.12 -0.919966 -1.81406 0
M  V30 16944 C 1596.47 0.547709 -1.84439 0
M  V30 16945 O 1595.76 1.40044 -1.30761 0
M  V30 16946 C 1595.96 -1.4519 -3.2658 0
M  V30 16947 C 1595.79 -2.96977 -3.37691 0
M  V30 16948 C 1594.56 -3.65402 -3.49012 0
M  V30 16949 C 1596.75 -3.94858 -3.29532 0
M  V30 16950 N 1594.74 -5.05122 -3.48891 0
M  V30 16951 C 1596.11 -5.20818 -3.36376 0
M  V30 16952 C 1598.16 -3.87009 -3.13254 0
M  V30 16953 C 1596.87 -6.39846 -3.28618 0
M  V30 16954 C 1598.89 -5.05581 -3.06825 0
M  V30 16955 C 1598.25 -6.30408 -3.14269 0
M  V30 16956 H 1594.35 -0.390144 -0.677725 0
M  V30 16957 H 1596.94 -1.45155 -1.29761 0
M  V30 16958 H 1595.11 -0.947121 -3.76675 0
M  V30 16959 H 1596.84 -1.17018 -3.87413 0
M  V30 16960 H 1593.59 -3.15948 -3.52809 0
M  V30 16961 H 1594.02 -5.78056 -3.52392 0
M  V30 16962 H 1598.66 -2.91379 -3.06363 0
M  V30 16963 H 1596.38 -7.35723 -3.34271 0
M  V30 16964 H 1599.96 -5.01256 -2.95354 0
M  V30 16965 H 1598.84 -7.20618 -3.09321 0
M  V30 16966 N 1596.35 1.26749 -0.936613 0
M  V30 16967 C 1597.28 2.24895 -0.386956 0
M  V30 16968 C 1598.26 1.54004 0.521673 0
M  V30 16969 O 1599.44 1.82797 0.460158 0
M  V30 16970 C 1596.57 3.35771 0.44447 0
M  V30 16971 C 1595.62 4.24601 -0.401985 0
M  V30 16972 S 1596.45 5.03511 -1.82309 0
M  V30 16973 C 1597.61 6.17866 -0.999596 0
M  V30 16974 H 1597.84 2.71171 -1.21876 0
M  V30 16975 H 1595.37 1.35544 -0.739409 0
M  V30 16976 H 1597.33 4.00097 0.918284 0
M  V30 16977 H 1595.99 2.88117 1.2509 0
M  V30 16978 H 1595.18 5.03453 0.234819 0
M  V30 16979 H 1594.79 3.65116 -0.810309 0
M  V30 16980 H 1597.08 6.77076 -0.239732 0
M  V30 16981 H 1598.02 6.85842 -1.76142 0
M  V30 16982 H 1598.43 5.61934 -0.537672 0
M  V30 16983 N 1597.83 0.703118 1.41046 0
M  V30 16984 C 1598.79 0.0514476 2.29142 0
M  V30 16985 C 1599.79 -0.700223 1.44753 0
M  V30 16986 O 1600.98 -0.533985 1.65814 0
M  V30 16987 C 1598.11 -0.93735 3.2776 0
M  V30 16988 H 1599.3 0.827201 2.88266 0
M  V30 16989 H 1596.86 0.467045 1.49159 0
M  V30 16990 H 1597.59 -1.7406 2.7363 0
M  V30 16991 H 1597.38 -0.4014 3.9004 0
M  V30 16992 H 1598.87 -1.39088 3.93757 0
M  V30 16993 N 1599.3 -1.51086 0.448402 0
M  V30 16994 C 1600.72 -1.86696 -0.0121264 0
M  V30 16995 C 1601.07 -1.36483 -1.40949 0
M  V30 16996 O 1600.19 -0.72024 -2.04062 0
M  V30 16997 C 1600.79 -3.38788 -0.0287814 0
M  V30 16998 C 1599.35 -3.73892 -0.433758 0
M  V30 16999 C 1598.49 -2.74869 0.366362 0
M  V30 17000 H 1601.44 -1.44153 0.663744 0
M  V30 17001 H 1601.46 -3.71204 -0.835915 0
M  V30 17002 H 1600.98 -3.75304 0.988368 0
M  V30 17003 H 1599.08 -3.4297 -1.4561 0
M  V30 17004 H 1599.19 -4.78862 -0.150869 0
M  V30 17005 H 1597.55 -2.54085 -0.176862 0
M  V30 17006 H 1598.34 -3.14228 1.3826 0
M  V30 17007 N 1600.78 -0.180154 -1.56567 0
M  V30 17008 C 1601.69 0.758959 -2.21984 0
M  V30 17009 C 1602.71 1.24631 -1.21422 0
M  V30 17010 O 1603.88 1.29659 -1.54112 0
M  V30 17011 C 1600.95 1.96744 -2.85469 0
M  V30 17012 C 1600.01 1.52612 -4.01258 0
M  V30 17013 C 1599.24 2.677 -4.61706 0
M  V30 17014 O 1599.47 3.84799 -4.21054 0
M  V30 17015 O 1598.4 2.41269 -5.51428 0
M  V30 17016 H 1602.23 0.231919 -3.02813 0
M  V30 17017 H 1599.81 0.0484552 -1.49321 0
M  V30 17018 H 1601.69 2.67404 -3.25689 0
M  V30 17019 H 1600.37 2.48337 -2.0763 0
M  V30 17020 H 1599.28 0.78877 -3.6569 0
M  V30 17021 H 1600.61 1.05701 -4.80716 0
M  V30 17022 N 1602.26 1.57322 0.0935319 0
M  V30 17023 C 1603.49 1.90754 0.814111 0
M  V30 17024 C 1603.91 0.774571 1.71412 0
M  V30 17025 O 1603.27 -0.273775 1.79221 0
M  V30 17026 C 1603.32 3.23055 1.60211 0
M  V30 17027 O 1602.42 3.10755 2.71118 0
M  V30 17028 H 1601.76 0.625237 0.223552 0
M  V30 17029 H 1604.29 2.04486 0.068288 0
M  V30 17030 H 1604.3 3.56401 1.986 0
M  V30 17031 H 1602.98 4.05101 0.941607 0
M  V30 17032 H 1601.55 2.88926 2.35745 0
M  V30 17033 N 1603.74 -0.364395 1.53329 0
M  V30 17034 C 1604.99 -1.10423 1.68789 0
M  V30 17035 C 1605.3 -1.90428 0.446819 0
M  V30 17036 O 1606.51 -2.67188 0.481978 0
M  V30 17037 C 1604.96 -2.01228 2.98388 0
M  V30 17038 C 1604.57 -1.26529 4.29761 0
M  V30 17039 C 1606.31 -2.75196 3.23214 0
M  V30 17040 C 1604.22 -2.16243 5.50448 0
M  V30 17041 H 1603.15 -0.415935 0.628899 0
M  V30 17042 H 1605.8 -0.365145 1.7983 0
M  V30 17043 H 1604.18 -2.78872 2.81152 0
M  V30 17044 H 1605.36 -0.5394 4.57632 0
M  V30 17045 H 1603.67 -0.644181 4.11387 0
M  V30 17046 H 1606.27 -3.42548 4.10567 0
M  V30 17047 H 1606.61 -3.40629 2.39327 0
M  V30 17048 H 1607.15 -2.04635 3.4113 0
M  V30 17049 H 1603.89 -1.55385 6.36817 0
M  V30 17050 H 1603.41 -2.86678 5.26855 0
M  V30 17051 H 1605.08 -2.75774 5.85284 0
M  V30 17052 N 1605.22 -1.44709 -0.62426 0
M  V30 17053 C 1606.46 -1.47853 -1.38368 0
M  V30 17054 C 1606.79 -0.113769 -1.94167 0
M  V30 17055 O 1606.05 0.88538 -1.74527 0
M  V30 17056 C 1606.35 -2.4919 -2.56201 0
M  V30 17057 C 1606.01 -3.94339 -2.1865 0
M  V30 17058 C 1604.67 -4.33865 -2.08122 0
M  V30 17059 C 1607.03 -4.85689 -1.89091 0
M  V30 17060 C 1604.35 -5.62658 -1.66233 0
M  V30 17061 C 1606.71 -6.14877 -1.48693 0
M  V30 17062 C 1605.37 -6.5335 -1.36711 0
M  V30 17063 H 1604.64 -0.541034 -0.506324 0
M  V30 17064 H 1607.29 -1.77962 -0.707235 0
M  V30 17065 H 1605.59 -2.1259 -3.29109 0
M  V30 17066 H 1607.29 -2.48867 -3.1443 0
M  V30 17067 H 1603.88 -3.63072 -2.27764 0
M  V30 17068 H 1608.06 -4.55902 -1.96131 0
M  V30 17069 H 1603.32 -5.91278 -1.55565 0
M  V30 17070 H 1607.49 -6.85115 -1.24861 0
M  V30 17071 H 1605.12 -7.53049 -1.04025 0
M  V30 17072 N 1606.69 0.865285 -1.31722 0
M  V30 17073 C 1607.97 1.60146 -1.12306 0
M  V30 17074 C 1608.35 2.08653 0.320508 0
M  V30 17075 O 1607.7 1.86841 1.31539 0
M  V30 17076 C 1607.91 2.75583 -2.14138 0
M  V30 17077 C 1609.26 3.45429 -2.46909 0
M  V30 17078 O 1610.28 2.85795 -2.12602 0
M  V30 17079 O 1609.14 4.53017 -3.05676 0
M  V30 17080 H 1606.23 0.704786 -0.432673 0
M  V30 17081 H 1608.78 0.910339 -1.43216 0
M  V30 17082 H 1607.55 2.37187 -3.1122 0
M  V30 17083 H 1607.18 3.52378 -1.84161 0
M  V30 17084 N 1608.17 1.14759 1.0802 0
M  V30 17085 C 1609.12 0.838134 2.15044 0
M  V30 17086 C 1610.09 -0.206031 1.64817 0
M  V30 17087 O 1611.27 -0.0750812 1.90652 0
M  V30 17088 C 1608.41 0.326112 3.43556 0
M  V30 17089 C 1607.53 1.43104 4.07609 0
M  V30 17090 C 1606.66 0.875857 5.2393 0
M  V30 17091 C 1605.7 1.9582 5.79932 0
M  V30 17092 N 1604.84 1.41989 6.87593 0
M  V30 17093 H 1609.68 1.75478 2.40856 0
M  V30 17094 H 1607.22 0.875686 1.18195 0
M  V30 17095 H 1609.17 0.0110103 4.17199 0
M  V30 17096 H 1607.8 -0.55363 3.18017 0
M  V30 17097 H 1606.86 1.86247 3.31687 0
M  V30 17098 H 1608.17 2.24849 4.45246 0
M  V30 17099 H 1607.32 0.512893 6.04528 0
M  V30 17100 H 1606.06 0.0275017 4.87692 0
M  V30 17101 H 1605.07 2.33006 4.97984 0
M  V30 17102 H 1606.29 2.81021 6.18227 0
M  V30 17103 H 1604.24 0.593779 6.53307 0
M  V30 17104 H 1604.15 2.17367 7.24077 0
M  V30 17105 H 1605.42 1.08495 7.71913 0
M  V30 17106 N 1609.65 -1.26251 0.943322 0
M  V30 17107 C 1610.9 -1.93939 0.592909 0
M  V30 17108 C 1611.23 -1.73814 -0.866155 0
M  V30 17109 O 1610.5 -1.07645 -1.61997 0
M  V30 17110 C 1610.79 -3.47653 0.938601 0
M  V30 17111 C 1610.64 -3.77053 2.45257 0
M  V30 17112 C 1611.96 -4.37736 0.455546 0
M  V30 17113 H 1609.08 -0.704367 0.21688 0
M  V30 17114 H 1611.72 -1.4908 1.17793 0
M  V30 17115 H 1609.87 -3.85992 0.440756 0
M  V30 17116 H 1611.54 -3.48417 3.0233 0
M  V30 17117 H 1609.79 -3.23055 2.89513 0
M  V30 17118 H 1610.46 -4.84506 2.64495 0
M  V30 17119 H 1612.93 -4.06635 0.882435 0
M  V30 17120 H 1611.81 -5.44075 0.72623 0
M  V30 17121 H 1612.07 -4.37377 -0.644508 0
M  V30 17122 N 1611.13 -0.710588 -1.40671 0
M  V30 17123 C 1612.36 -0.257069 -2.04994 0
M  V30 17124 C 1612.77 1.10431 -1.53628 0
M  V30 17125 O 1612.11 1.70422 -0.685726 0
M  V30 17126 C 1612.17 -0.153646 -3.59172 0
M  V30 17127 C 1611.84 -1.4495 -4.33403 0
M  V30 17128 C 1612.83 -2.39042 -4.61687 0
M  V30 17129 C 1610.52 -1.70704 -4.72404 0
M  V30 17130 C 1612.51 -3.57137 -5.27951 0
M  V30 17131 C 1610.2 -2.89082 -5.384 0
M  V30 17132 C 1611.2 -3.82121 -5.66103 0
M  V30 17133 O 1610.89 -4.98424 -6.30737 0
M  V30 17134 H 1610.62 -0.114202 -0.666284 0
M  V30 17135 H 1613.17 -0.968028 -1.81158 0
M  V30 17136 H 1611.4 0.613213 -3.81807 0
M  V30 17137 H 1613.09 0.264655 -4.05036 0
M  V30 17138 H 1613.86 -2.20407 -4.32025 0
M  V30 17139 H 1609.74 -0.99142 -4.50213 0
M  V30 17140 H 1613.28 -4.29775 -5.4949 0
M  V30 17141 H 1609.18 -3.07627 -5.67482 0
M  V30 17142 H 1609.94 -4.98436 -6.49233 0
M  V30 17143 N 1612.61 1.50847 -0.456408 0
M  V30 17144 C 1613.84 2.0665 0.101737 0
M  V30 17145 C 1614.25 1.32188 1.34803 0
M  V30 17146 O 1613.61 0.38687 1.78352 0
M  V30 17147 C 1613.66 3.59227 0.404724 0
M  V30 17148 O 1613.38 4.30879 -0.79212 0
M  V30 17149 C 1614.88 4.31607 1.01145 0
M  V30 17150 H 1612.1 0.671 -0.000542219 0
M  V30 17151 H 1614.64 1.94195 -0.640974 0
M  V30 17152 H 1612.8 3.71533 1.09735 0
M  V30 17153 H 1613.21 5.21837 -0.527843 0
M  V30 17154 H 1614.69 5.39386 1.17332 0
M  V30 17155 H 1615.16 3.9114 1.99765 0
M  V30 17156 H 1615.77 4.23794 0.357645 0
M  V30 17157 N 1614.09 0.188454 1.56469 0
M  V30 17158 C 1615.31 -0.457846 2.01771 0
M  V30 17159 C 1615.73 -1.55646 1.06863 0
M  V30 17160 O 1615.09 -1.82356 0.0723619 0
M  V30 17161 C 1615.14 -1.02032 3.46802 0
M  V30 17162 O 1614.86 0.0344536 4.38086 0
M  V30 17163 C 1616.36 -1.74316 4.07589 0
M  V30 17164 H 1613.58 -0.115594 0.660968 0
M  V30 17165 H 1616.12 0.295213 2.02358 0
M  V30 17166 H 1614.28 -1.7238 3.46935 0
M  V30 17167 H 1614.69 -0.383254 5.23098 0
M  V30 17168 H 1616.17 -2.08912 5.1094 0
M  V30 17169 H 1616.64 -2.64445 3.50665 0
M  V30 17170 H 1617.25 -1.0857 4.11209 0
M  V30 17171 N 1615.56 -1.5737 -0.0851874 0
M  V30 17172 C 1616.5 -1.99462 -1.12905 0
M  V30 17173 C 1617.51 -0.898597 -1.35754 0
M  V30 17174 O 1618.7 -1.17662 -1.34231 0
M  V30 17175 C 1615.8 -2.30689 -2.48266 0
M  V30 17176 C 1614.97 -3.61967 -2.45557 0
M  V30 17177 C 1614.03 -3.81017 -3.62922 0
M  V30 17178 O 1613.06 -4.52759 -3.44961 0
M  V30 17179 N 1614.26 -3.22348 -4.82775 0
M  V30 17180 H 1617.02 -2.89621 -0.7707 0
M  V30 17181 H 1614.58 -1.59564 -0.274033 0
M  V30 17182 H 1616.58 -2.40618 -3.254 0
M  V30 17183 H 1615.15 -1.46488 -2.76152 0
M  V30 17184 H 1614.37 -3.62916 -1.539 0
M  V30 17185 H 1615.65 -4.48191 -2.40836 0
M  V30 17186 H 1615.05 -2.64093 -5.00271 0
M  V30 17187 H 1613.61 -3.37747 -5.57468 0
M  V30 17188 N 1617.04 0.356258 -1.53521 0
M  V30 17189 C 1618.27 1.12273 -1.74383 0
M  V30 17190 C 1618.69 1.81981 -0.475881 0
M  V30 17191 O 1618.05 1.72083 0.570699 0
M  V30 17192 C 1618.1 2.12161 -2.91582 0
M  V30 17193 O 1617.2 3.1943 -2.60842 0
M  V30 17194 H 1616.54 0.325321 -0.578845 0
M  V30 17195 H 1619.07 0.410533 -2.00439 0
M  V30 17196 H 1619.08 2.55602 -3.18012 0
M  V30 17197 H 1617.76 1.60818 -3.8355 0
M  V30 17198 H 1616.33 2.80895 -2.4526 0
M  V30 17199 N 1618.52 1.45038 0.616577 0
M  V30 17200 C 1619.8 1.39059 1.37557 0
M  V30 17201 C 1620.18 0.0566307 2.11024 0
M  V30 17202 O 1619.52 -0.961203 2.073 0
M  V30 17203 C 1619.73 2.59841 2.32989 0
M  V30 17204 C 1621.08 3.04539 2.95874 0
M  V30 17205 O 1622.11 2.6015 2.43312 0
M  V30 17206 O 1620.97 3.81547 3.9126 0
M  V30 17207 H 1618.06 0.551396 0.616353 0
M  V30 17208 H 1620.61 1.57152 0.640416 0
M  V30 17209 H 1619.38 3.48521 1.779 0
M  V30 17210 H 1619 2.44036 3.13899 0
M  V30 17211 N 1620 -0.858287 1.32179 0
M  V30 17212 C 1621.24 -1.6146 1.22713 0
M  V30 17213 C 1621.58 -1.93045 -0.211479 0
M  V30 17214 O 1620.85 -1.57034 -1.14764 0
M  V30 17215 C 1621.13 -2.93728 2.08317 0
M  V30 17216 C 1620.99 -2.68947 3.60538 0
M  V30 17217 C 1622.31 -3.94959 1.94153 0
M  V30 17218 H 1619.43 -0.585872 0.447128 0
M  V30 17219 H 1622.07 -0.99134 1.62088 0
M  V30 17220 H 1620.22 -3.4692 1.74867 0
M  V30 17221 H 1621.89 -2.22336 4.04183 0
M  V30 17222 H 1620.13 -2.02974 3.83385 0
M  V30 17223 H 1620.8 -3.63112 4.15756 0
M  V30 17224 H 1623.28 -3.51013 2.23449 0
M  V30 17225 H 1622.16 -4.85371 2.56332 0
M  V30 17226 H 1622.42 -4.32672 0.908132 0
M  V30 17227 N 1621.48 -1.1533 -1.07409 0
M  V30 17228 C 1622.72 -0.939155 -1.8042 0
M  V30 17229 C 1623.08 0.528116 -1.8501 0
M  V30 17230 O 1622.37 1.38649 -1.32239 0
M  V30 17231 C 1622.56 -1.48646 -3.25022 0
M  V30 17232 C 1622.39 -3.00542 -3.34522 0
M  V30 17233 C 1621.16 -3.69083 -3.45117 0
M  V30 17234 C 1623.36 -3.98331 -3.25326 0
M  V30 17235 N 1621.34 -5.08794 -3.43513 0
M  V30 17236 C 1622.71 -5.24356 -3.30833 0
M  V30 17237 C 1624.77 -3.9031 -3.09132 0
M  V30 17238 C 1623.47 -6.43295 -3.21813 0
M  V30 17239 C 1625.5 -5.08807 -3.01446 0
M  V30 17240 C 1624.86 -6.33706 -3.07565 0
M  V30 17241 H 1620.96 -0.397311 -0.673549 0
M  V30 17242 H 1623.54 -1.46524 -1.28214 0
M  V30 17243 H 1621.71 -0.987019 -3.75649 0
M  V30 17244 H 1623.45 -1.2112 -3.8615 0
M  V30 17245 H 1620.2 -3.19672 -3.49438 0
M  V30 17246 H 1620.62 -5.81761 -3.46242 0
M  V30 17247 H 1625.27 -2.94612 -3.03255 0
M  V30 17248 H 1622.98 -7.39227 -3.26449 0
M  V30 17249 H 1626.57 -5.0436 -2.9002 0
M  V30 17250 H 1625.45 -7.23858 -3.01661 0
M  V30 17251 N 1622.95 1.25748 -0.950004 0
M  V30 17252 C 1624.18 1.97952 -0.618848 0
M  V30 17253 C 1624.6 1.70184 0.801194 0
M  V30 17254 O 1623.96 0.955032 1.54107 0
M  V30 17255 C 1624.01 3.49744 -0.878151 0
M  V30 17256 O 1623.11 4.12375 0.0453685 0
M  V30 17257 H 1622.45 0.620731 -0.235773 0
M  V30 17258 H 1624.98 1.59988 -1.27534 0
M  V30 17259 H 1624.99 4.00029 -0.802567 0
M  V30 17260 H 1623.67 3.69285 -1.91315 0
M  V30 17261 H 1622.25 3.7281 -0.0820265 0
M  V30 17262 N 1624.43 0.718038 1.40292 0
M  V30 17263 C 1625.68 0.258603 2.00842 0
M  V30 17264 C 1626.01 -1.14894 1.56938 0
M  V30 17265 O 1625.26 -1.79414 0.781606 0
M  V30 17266 C 1625.56 0.289374 3.56227 0
M  V30 17267 C 1625.23 1.64756 4.19722 0
M  V30 17268 C 1623.89 2.01934 4.36779 0
M  V30 17269 C 1626.24 2.54008 4.55115 0
M  V30 17270 C 1623.57 3.27905 4.86513 0
M  V30 17271 C 1625.92 3.79334 5.06249 0
M  V30 17272 C 1624.58 4.16626 5.21516 0
M  V30 17273 H 1623.85 0.0946296 0.734933 0
M  V30 17274 H 1626.5 0.921552 1.67868 0
M  V30 17275 H 1624.81 -0.457147 3.89124 0
M  V30 17276 H 1626.5 -0.0839832 4.00912 0
M  V30 17277 H 1623.09 1.34846 4.06835 0
M  V30 17278 H 1627.28 2.2656 4.4157 0
M  V30 17279 H 1622.53 3.56763 4.96518 0
M  V30 17280 H 1626.71 4.48663 5.32611 0
M  V30 17281 H 1624.33 5.14306 5.59815 0
M  V30 17282 N 1625.91 -1.50602 0.464402 0
M  V30 17283 C 1627.16 -2.01887 -0.0927084 0
M  V30 17284 C 1627.48 -1.34891 -1.40817 0
M  V30 17285 O 1626.75 -0.492078 -1.89619 0
M  V30 17286 H 1625.33 -0.746071 -0.0372514 0
M  V30 17287 H 1627.99 -1.84999 0.613296 0
M  V30 17288 H 1627.09 -3.11105 -0.249067 0
M  V30 17289 N 1627.39 -0.19675 -1.56367 0
M  V30 17290 C 1628.63 0.442238 -1.97919 0
M  V30 17291 C 1628.97 1.61156 -1.08362 0
M  V30 17292 O 1628.24 1.94024 -0.135969 0
M  V30 17293 C 1628.53 0.90078 -3.48652 0
M  V30 17294 C 1628.38 -0.270471 -4.48986 0
M  V30 17295 C 1629.7 1.7657 -4.03126 0
M  V30 17296 H 1626.82 0.159276 -0.719583 0
M  V30 17297 H 1629.46 -0.288004 -1.87805 0
M  V30 17298 H 1627.61 1.52302 -3.57402 0
M  V30 17299 H 1629.28 -0.908176 -4.52272 0
M  V30 17300 H 1627.52 -0.921973 -4.23889 0
M  V30 17301 H 1628.19 0.0929101 -5.51922 0
M  V30 17302 H 1630.67 1.24091 -3.97166 0
M  V30 17303 H 1629.55 2.0555 -5.0896 0
M  V30 17304 H 1629.81 2.72047 -3.48486 0
M  V30 17305 N 1628.87 1.57413 0.0768405 0
M  V30 17306 C 1629.8 2.06378 1.09226 0
M  V30 17307 C 1630.78 0.956269 1.40675 0
M  V30 17308 O 1631.96 1.22868 1.5039 0
M  V30 17309 C 1629.09 2.50349 2.40712 0
M  V30 17310 C 1628.05 3.64931 2.23628 0
M  V30 17311 C 1627.37 3.9494 3.60453 0
M  V30 17312 C 1628.67 4.95162 1.66169 0
M  V30 17313 H 1630.37 2.91463 0.684827 0
M  V30 17314 H 1627.91 1.40215 0.327974 0
M  V30 17315 H 1629.87 2.83216 3.12036 0
M  V30 17316 H 1628.59 1.62287 2.83426 0
M  V30 17317 H 1627.25 3.32339 1.54747 0
M  V30 17318 H 1626.9 3.04016 4.00728 0
M  V30 17319 H 1626.6 4.72091 3.49863 0
M  V30 17320 H 1628.12 4.30299 4.33215 0
M  V30 17321 H 1629.53 5.26292 2.27353 0
M  V30 17322 H 1627.93 5.76601 1.66289 0
M  V30 17323 H 1629 4.80885 0.62271 0
M  V30 17324 N 1630.34 -0.348112 1.53707 0
M  V30 17325 C 1631.27 -1.43296 1.8436 0
M  V30 17326 C 1632.26 -1.55102 0.698376 0
M  V30 17327 O 1633.44 -1.69385 0.949864 0
M  V30 17328 C 1630.57 -2.80407 2.04912 0
M  V30 17329 C 1629.52 -2.83412 3.20721 0
M  V30 17330 C 1628.85 -4.23365 3.26597 0
M  V30 17331 C 1630.15 -2.49358 4.58931 0
M  V30 17332 H 1631.84 -1.17892 2.75212 0
M  V30 17333 H 1629.39 -0.565692 1.32423 0
M  V30 17334 H 1631.34 -3.56343 2.24939 0
M  V30 17335 H 1630.07 -3.07236 1.10786 0
M  V30 17336 H 1628.73 -2.09929 3.00542 0
M  V30 17337 H 1628.37 -4.47297 2.30076 0
M  V30 17338 H 1628.07 -4.26287 4.04417 0
M  V30 17339 H 1629.6 -5.01149 3.4883 0
M  V30 17340 H 1631.01 -3.15006 4.79003 0
M  V30 17341 H 1629.41 -2.6357 5.3912 0
M  V30 17342 H 1630.48 -1.44557 4.62851 0
M  V30 17343 N 1631.82 -1.45363 -0.608876 0
M  V30 17344 C 1633.07 -1.50525 -1.36799 0
M  V30 17345 C 1633.42 -0.14442 -1.91857 0
M  V30 17346 O 1632.72 0.843502 -1.72034 0
M  V30 17347 C 1632.91 -2.51893 -2.53544 0
M  V30 17348 C 1632.74 -3.97699 -2.09918 0
M  V30 17349 C 1631.51 -4.65675 -1.96151 0
M  V30 17350 C 1633.71 -4.86272 -1.67464 0
M  V30 17351 N 1631.69 -5.96207 -1.46321 0
M  V30 17352 C 1633.06 -6.06423 -1.29041 0
M  V30 17353 C 1635.12 -4.73144 -1.55045 0
M  V30 17354 C 1633.82 -7.149 -0.794378 0
M  V30 17355 C 1635.84 -5.81668 -1.06846 0
M  V30 17356 C 1635.21 -7.00974 -0.693858 0
M  V30 17357 H 1631.31 -0.605762 -0.494546 0
M  V30 17358 H 1633.89 -1.81828 -0.696187 0
M  V30 17359 H 1632.06 -2.22544 -3.18322 0
M  V30 17360 H 1633.79 -2.47211 -3.2042 0
M  V30 17361 H 1630.55 -4.20808 -2.17296 0
M  V30 17362 H 1630.97 -6.65614 -1.23642 0
M  V30 17363 H 1635.61 -3.81321 -1.82632 0
M  V30 17364 H 1633.33 -8.06514 -0.506051 0
M  V30 17365 H 1636.92 -5.73544 -0.976637 0
M  V30 17366 H 1635.8 -7.83519 -0.326629 0
M  V30 17367 N 1633.3 0.851265 -1.32632 0
M  V30 17368 C 1634.21 1.99239 -1.23858 0
M  V30 17369 C 1635.23 1.73339 -0.151517 0
M  V30 17370 O 1636.4 1.97919 -0.372822 0
M  V30 17371 C 1633.47 3.32987 -0.965417 0
M  V30 17372 C 1632.53 3.72087 -2.14126 0
M  V30 17373 C 1631.76 4.99453 -1.88103 0
M  V30 17374 O 1631.98 5.64399 -0.825253 0
M  V30 17375 O 1630.92 5.35763 -2.74302 0
M  V30 17376 H 1634.74 2.09579 -2.19796 0
M  V30 17377 H 1632.33 0.98243 -1.12555 0
M  V30 17378 H 1634.21 4.13151 -0.829713 0
M  V30 17379 H 1632.89 3.2368 -0.036219 0
M  V30 17380 H 1631.79 2.92485 -2.33245 0
M  V30 17381 H 1633.13 3.86045 -3.05336 0
M  V30 17382 N 1634.78 1.15898 1.06796 0
M  V30 17383 C 1636.03 0.931848 1.78884 0
M  V30 17384 C 1636.34 -0.54197 1.87942 0
M  V30 17385 O 1637.55 -0.886848 2.56607 0
M  V30 17386 C 1636 1.61788 3.21485 0
M  V30 17387 C 1635.61 3.12911 3.2061 0
M  V30 17388 C 1637.35 1.47252 3.98142 0
M  V30 17389 C 1635.26 3.74275 4.579 0
M  V30 17390 H 1634.19 0.344998 0.670442 0
M  V30 17391 H 1636.84 1.38974 1.19827 0
M  V30 17392 H 1635.22 1.08769 3.80769 0
M  V30 17393 H 1636.4 3.72732 2.70938 0
M  V30 17394 H 1634.71 3.27273 2.57451 0
M  V30 17395 H 1637.31 1.90484 4.9962 0
M  V30 17396 H 1637.65 0.420766 4.14168 0
M  V30 17397 H 1638.19 1.97398 3.45367 0
M  V30 17398 H 1634.93 4.79376 4.47078 0
M  V30 17399 H 1634.45 3.19238 5.07786 0
M  V30 17400 H 1636.12 3.75532 5.26863 0
M  V30 17401 N 1636.26 -1.25243 0.956659 0
M  V30 17402 C 1637.5 -1.93014 0.612538 0
M  V30 17403 C 1637.83 -1.74908 -0.85073 0
M  V30 17404 O 1637.09 -1.08896 -1.62604 0
M  V30 17405 C 1637.39 -3.4536 0.919849 0
M  V30 17406 C 1637.05 -3.83623 2.36948 0
M  V30 17407 C 1635.71 -3.93779 2.76571 0
M  V30 17408 C 1638.07 -4.02536 3.3108 0
M  V30 17409 C 1635.39 -4.20257 4.09391 0
M  V30 17410 C 1637.75 -4.30507 4.63515 0
M  V30 17411 C 1636.41 -4.3888 5.02932 0
M  V30 17412 H 1635.68 -0.706286 0.224144 0
M  V30 17413 H 1638.33 -1.48748 1.20608 0
M  V30 17414 H 1636.63 -3.9104 0.243941 0
M  V30 17415 H 1638.33 -3.95986 0.632143 0
M  V30 17416 H 1634.92 -3.76275 2.05219 0
M  V30 17417 H 1639.1 -3.94102 3.01657 0
M  V30 17418 H 1634.36 -4.24956 4.39571 0
M  V30 17419 H 1638.53 -4.44087 5.36433 0
M  V30 17420 H 1636.16 -4.59151 6.05875 0
M  V30 17421 N 1637.73 -0.725468 -1.3991 0
M  V30 17422 C 1638.96 -0.277821 -2.05531 0
M  V30 17423 C 1639.38 1.07547 -1.54322 0
M  V30 17424 O 1638.74 1.6795 -0.682828 0
M  V30 17425 C 1638.79 -0.278676 -3.59522 0
M  V30 17426 O 1637.89 0.736864 -4.05764 0
M  V30 17427 H 1637.24 -0.128243 -0.651498 0
M  V30 17428 H 1639.77 -0.988721 -1.79124 0
M  V30 17429 H 1639.78 -0.119765 -4.07824 0
M  V30 17430 H 1638.45 -1.2662 -3.96157 0
M  V30 17431 H 1637.03 0.544869 -3.68898 0
M  V30 17432 N 1639.21 1.50354 -0.472382 0
M  V30 17433 C 1640.14 2.3142 0.310995 0
M  V30 17434 C 1641.12 1.38383 0.989151 0
M  V30 17435 O 1642.31 1.67303 0.986074 0
M  V30 17436 C 1639.44 3.18157 1.3926 0
M  V30 17437 C 1638.39 4.19756 0.835977 0
M  V30 17438 C 1637.72 4.9524 2.01597 0
M  V30 17439 C 1639.02 5.22074 -0.15361 0
M  V30 17440 H 1640.71 2.97159 -0.365595 0
M  V30 17441 H 1638.26 1.42905 -0.177266 0
M  V30 17442 H 1640.21 3.73666 1.94813 0
M  V30 17443 H 1638.94 2.50305 2.09798 0
M  V30 17444 H 1637.59 3.65351 0.302414 0
M  V30 17445 H 1637.24 4.2386 2.70836 0
M  V30 17446 H 1636.94 5.63966 1.64974 0
M  V30 17447 H 1638.47 5.53584 2.57637 0
M  V30 17448 H 1639.88 5.72446 0.312783 0
M  V30 17449 H 1638.28 5.98527 -0.43418 0
M  V30 17450 H 1639.35 4.72741 -1.07908 0
M  V30 17451 N 1640.69 0.205039 1.56261 0
M  V30 17452 C 1641.94 -0.430245 1.97467 0
M  V30 17453 C 1642.26 -1.6146 1.09342 0
M  V30 17454 O 1641.53 -1.95188 0.166836 0
M  V30 17455 H 1640.11 -0.161945 0.729234 0
M  V30 17456 H 1642.77 0.294089 1.92668 0
M  V30 17457 H 1641.87 -0.767699 3.02511 0
M  V30 17458 N 1642.17 -1.57451 -0.0684915 0
M  V30 17459 C 1643.13 -2.0293 -1.06545 0
M  V30 17460 C 1644.13 -0.926861 -1.314 0
M  V30 17461 O 1645.32 -1.19164 -1.27065 0
M  V30 17462 C 1642.45 -2.41276 -2.4083 0
M  V30 17463 H 1643.65 -2.92242 -0.673401 0
M  V30 17464 H 1641.2 -1.53107 -0.314307 0
M  V30 17465 H 1641.94 -1.55 -2.8486 0
M  V30 17466 H 1641.72 -3.21727 -2.2413 0
M  V30 17467 H 1643.21 -2.77026 -3.12484 0
M  V30 17468 N 1643.65 0.339955 -1.5389 0
M  V30 17469 C 1644.87 1.10417 -1.75564 0
M  V30 17470 C 1645.3 1.81466 -0.495156 0
M  V30 17471 O 1644.66 1.72679 0.552415 0
M  V30 17472 C 1644.7 2.09056 -2.93816 0
M  V30 17473 O 1643.81 3.16645 -2.64215 0
M  V30 17474 H 1643.15 0.319164 -0.582263 0
M  V30 17475 H 1645.68 0.389251 -2.00863 0
M  V30 17476 H 1645.69 2.52215 -3.20705 0
M  V30 17477 H 1644.36 1.56741 -3.85234 0
M  V30 17478 H 1642.94 2.78278 -2.48225 0
M  V30 17479 N 1645.13 1.45684 0.601159 0
M  V30 17480 C 1646.54 1.44423 1.18317 0
M  V30 17481 C 1646.89 0.17524 1.95416 0
M  V30 17482 O 1646.01 -0.722816 2.03971 0
M  V30 17483 C 1646.61 2.61651 2.1523 0
M  V30 17484 C 1645.17 2.6349 2.68793 0
M  V30 17485 C 1644.31 2.36787 1.44317 0
M  V30 17486 H 1647.26 1.53831 0.390108 0
M  V30 17487 H 1647.29 2.36117 2.98377 0
M  V30 17488 H 1646.8 3.53995 1.59088 0
M  V30 17489 H 1644.9 1.7517 3.28856 0
M  V30 17490 H 1645.01 3.62906 3.12787 0
M  V30 17491 H 1643.38 1.86472 1.73494 0
M  V30 17492 H 1644.16 3.31284 0.900327 0
M  V30 17493 N 1646.6 -0.84422 1.33082 0
M  V30 17494 C 1647.83 -1.62896 1.27076 0
M  V30 17495 C 1648.24 -1.88509 -0.161583 0
M  V30 17496 O 1647.58 -1.46184 -1.11247 0
M  V30 17497 C 1647.65 -3.00611 1.97163 0
M  V30 17498 C 1647.31 -2.97993 3.46481 0
M  V30 17499 C 1648.31 -2.74092 4.4178 0
M  V30 17500 C 1645.99 -3.18299 3.88576 0
M  V30 17501 C 1647.99 -2.70515 5.77148 0
M  V30 17502 C 1645.67 -3.14348 5.2405 0
M  V30 17503 C 1646.67 -2.90486 6.18148 0
M  V30 17504 O 1646.36 -2.86429 7.51142 0
M  V30 17505 H 1646.09 -0.513756 0.439353 0
M  V30 17506 H 1648.65 -1.06009 1.7593 0
M  V30 17507 H 1646.88 -3.5933 1.42893 0
M  V30 17508 H 1648.56 -3.61428 1.84728 0
M  V30 17509 H 1649.33 -2.58161 4.10582 0
M  V30 17510 H 1645.21 -3.35893 3.15748 0
M  V30 17511 H 1648.75 -2.5181 6.50567 0
M  V30 17512 H 1644.65 -3.29826 5.54874 0
M  V30 17513 H 1645.42 -3.02309 7.60626 0
M  V30 17514 N 1648.08 -1.16463 -1.0618 0
M  V30 17515 C 1649.49 -0.95436 -1.60465 0
M  V30 17516 C 1649.84 0.501455 -1.89684 0
M  V30 17517 O 1648.97 1.37488 -1.67111 0
M  V30 17518 C 1649.56 -1.72603 -2.91537 0
M  V30 17519 C 1648.12 -1.56071 -3.42518 0
M  V30 17520 C 1647.27 -1.73403 -2.16395 0
M  V30 17521 H 1650.22 -1.31316 -0.891166 0
M  V30 17522 H 1650.24 -1.20252 -3.60998 0
M  V30 17523 H 1649.75 -2.78554 -2.70239 0
M  V30 17524 H 1647.85 -0.525652 -3.68874 0
M  V30 17525 H 1647.97 -2.34533 -4.17769 0
M  V30 17526 H 1646.33 -1.16155 -2.26672 0
M  V30 17527 H 1647.11 -2.80745 -1.97578 0
M  V30 17528 N 1649.56 1.24734 -0.963288 0
M  V30 17529 C 1650.81 1.92305 -0.621536 0
M  V30 17530 C 1651.13 1.75723 0.845363 0
M  V30 17531 O 1650.4 1.1261 1.60299 0
M  V30 17532 H 1648.98 0.71171 -0.226886 0
M  V30 17533 H 1651.64 1.5172 -1.2234 0
M  V30 17534 H 1650.74 3.00065 -0.858322 0
M  V30 17535 N 1651.04 0.732878 1.39523 0
M  V30 17536 C 1652.28 0.280305 2.00854 0
M  V30 17537 C 1652.62 -1.12891 1.58017 0
M  V30 17538 O 1651.89 -1.76919 0.808086 0
M  V30 17539 C 1652.17 0.37978 3.58092 0
M  V30 17540 C 1652.03 1.82861 4.10953 0
M  V30 17541 C 1653.35 -0.239026 4.3945 0
M  V30 17542 H 1650.47 0.103326 0.729721 0
M  V30 17543 H 1653.11 0.928634 1.6576 0
M  V30 17544 H 1651.26 -0.172198 3.88118 0
M  V30 17545 H 1652.93 2.4373 3.91655 0
M  V30 17546 H 1651.17 2.35064 3.64592 0
M  V30 17547 H 1651.84 1.84949 5.20094 0
M  V30 17548 H 1654.32 0.231488 4.15456 0
M  V30 17549 H 1653.2 -0.139068 5.48724 0
M  V30 17550 H 1653.46 -1.32481 4.21783 0
M  V30 17551 N 1652.52 -1.50101 0.480349 0
M  V30 17552 C 1653.45 -2.26582 -0.345418 0
M  V30 17553 C 1654.46 -1.32283 -0.948947 0
M  V30 17554 O 1655.65 -1.57724 -0.835784 0
M  V30 17555 C 1652.75 -3.0393 -1.49932 0
M  V30 17556 C 1651.92 -4.25653 -1.00689 0
M  V30 17557 C 1650.98 -4.85217 -2.03594 0
M  V30 17558 O 1650.01 -5.45873 -1.61281 0
M  V30 17559 N 1651.21 -4.73035 -3.36479 0
M  V30 17560 H 1653.97 -2.98089 0.310285 0
M  V30 17561 H 1651.54 -1.58872 0.311671 0
M  V30 17562 H 1653.53 -3.40656 -2.18485 0
M  V30 17563 H 1652.1 -2.35162 -2.05955 0
M  V30 17564 H 1651.32 -3.93926 -0.146932 0
M  V30 17565 H 1652.61 -5.04554 -0.655957 0
M  V30 17566 H 1652 -4.24818 -3.73559 0
M  V30 17567 H 1650.56 -5.14004 -4.00804 0
M  V30 17568 N 1653.99 -0.213323 -1.5615 0
M  V30 17569 C 1655.24 0.420909 -1.97259 0
M  V30 17570 C 1655.56 1.61483 -1.10375 0
M  V30 17571 O 1656.76 2.31804 -1.41347 0
M  V30 17572 C 1655.22 0.800243 -3.5089 0
M  V30 17573 C 1654.83 -0.370405 -4.46466 0
M  V30 17574 C 1656.57 1.40054 -4.00731 0
M  V30 17575 C 1654.48 0.0309052 -5.91392 0
M  V30 17576 H 1653.41 0.16103 -0.736604 0
M  V30 17577 H 1656.06 -0.308232 -1.80893 0
M  V30 17578 H 1654.44 1.58657 -3.62828 0
M  V30 17579 H 1655.61 -1.14796 -4.46272 0
M  V30 17580 H 1653.93 -0.883391 -4.06922 0
M  V30 17581 H 1656.53 1.71355 -5.06499 0
M  V30 17582 H 1656.87 2.31345 -3.461 0
M  V30 17583 H 1657.4 0.677813 -3.91983 0
M  V30 17584 H 1654.14 -0.848284 -6.49988 0
M  V30 17585 H 1653.66 0.772941 -5.94799 0
M  V30 17586 H 1655.34 0.460441 -6.4536 0
M  V30 17587 N 1655.47 1.57485 0.0601405 0
M  V30 17588 C 1656.42 2.0554 1.08886 0
M  V30 17589 C 1657.41 0.962963 1.39368 0
M  V30 17590 O 1658.62 1.14802 1.38638 0
M  V30 17591 H 1655 0.655506 0.368532 0
M  V30 17592 H 1656.97 2.91066 0.657513 0
M  V30 17593 C 1655.72 2.52464 2.39076 0
M  V30 17594 H 1655.04 3.36123 2.16475 0
M  V30 17595 H 1656.48 2.89829 3.09476 0
M  V30 17596 C 1654.94 1.41248 3.05861 0
M  V30 17597 O 1655.47 0.761119 3.94423 0
M  V30 17598 N 1653.67 1.1547 2.66674 0
M  V30 17599 H 1653.22 1.6862 1.94744 0
M  V30 17600 H 1653.18 0.412641 3.1168 0
M  V30 17601 N 1656.95 -0.331789 1.54068 0
M  V30 17602 C 1657.86 -1.43116 1.8589 0
M  V30 17603 C 1658.88 -1.57003 0.75007 0
M  V30 17604 O 1660.05 -1.72256 1.04355 0
M  V30 17605 C 1657.12 -2.77945 2.07238 0
M  V30 17606 C 1656.18 -2.73303 3.31065 0
M  V30 17607 C 1655.41 -4.01702 3.51385 0
M  V30 17608 O 1655.63 -4.99562 2.75306 0
M  V30 17609 O 1654.57 -4.0546 4.44844 0
M  V30 17610 H 1658.39 -1.19137 2.79357 0
M  V30 17611 H 1655.98 -0.525057 1.3987 0
M  V30 17612 H 1657.86 -3.57774 2.22656 0
M  V30 17613 H 1656.54 -3.01831 1.16959 0
M  V30 17614 H 1655.44 -1.92054 3.21039 0
M  V30 17615 H 1656.78 -2.54371 4.21374 0
M  V30 17616 N 1658.43 -1.46001 -0.593424 0
M  V30 17617 C 1659.34 -1.58316 -1.73128 0
M  V30 17618 C 1660.35 -0.467029 -1.67615 0
M  V30 17619 O 1661.53 -0.729682 -1.87717 0
M  V30 17620 C 1658.6 -1.56007 -3.09617 0
M  V30 17621 C 1657.66 -2.78769 -3.26475 0
M  V30 17622 C 1656.89 -2.76561 -4.56453 0
M  V30 17623 O 1657.11 -1.84694 -5.39671 0
M  V30 17624 O 1656.05 -3.67959 -4.76329 0
M  V30 17625 H 1659.87 -2.54522 -1.65686 0
M  V30 17626 H 1657.46 -1.28672 -0.759204 0
M  V30 17627 H 1659.34 -1.57377 -3.9091 0
M  V30 17628 H 1658.01 -0.629571 -3.17519 0
M  V30 17629 H 1656.92 -2.82956 -2.44717 0
M  V30 17630 H 1658.25 -3.70992 -3.23459 0
M  V30 17631 N 1659.91 0.83715 -1.33527 0
M  V30 17632 C 1661.15 1.59251 -1.25081 0
M  V30 17633 C 1661.48 1.93638 0.182956 0
M  V30 17634 O 1660.74 1.59025 1.14059 0
M  V30 17635 C 1661.04 2.9113 -2.07312 0
M  V30 17636 C 1660.7 2.76098 -3.56484 0
M  V30 17637 C 1659.36 2.71706 -3.97151 0
M  V30 17638 C 1661.72 2.60781 -4.51268 0
M  V30 17639 C 1659.04 2.49899 -5.30818 0
M  V30 17640 C 1661.4 2.40507 -5.85097 0
M  V30 17641 C 1660.06 2.34519 -6.24946 0
M  V30 17642 H 1659.33 0.582741 -0.457705 0
M  V30 17643 H 1661.98 0.969749 -1.65131 0
M  V30 17644 H 1660.28 3.57621 -1.60045 0
M  V30 17645 H 1661.98 3.48632 -1.98133 0
M  V30 17646 H 1658.57 2.8035 -3.24194 0
M  V30 17647 H 1662.75 2.63207 -4.20756 0
M  V30 17648 H 1658.01 2.4371 -5.60728 0
M  V30 17649 H 1662.18 2.27639 -6.58144 0
M  V30 17650 H 1659.81 2.17381 -7.28457 0
M  V30 17651 N 1661.38 1.17024 1.05561 0
M  V30 17652 C 1662.62 0.967099 1.80074 0
M  V30 17653 C 1662.99 -0.495724 1.8549 0
M  V30 17654 O 1664.19 -0.817816 2.56057 0
M  V30 17655 C 1662.46 1.5862 3.20273 0
M  V30 17656 S 1664.02 1.52873 4.11309 0
M  V30 17657 H 1660.84 0.347623 0.620225 0
M  V30 17658 H 1663.44 1.48902 1.26682 0
M  V30 17659 H 1662.14 2.64341 3.1393 0
M  V30 17660 H 1661.67 1.06392 3.7874 0
M  V30 17661 H 1663.69 0.534126 4.93317 0
M  V30 17662 N 1662.86 -1.24221 0.969889 0
M  V30 17663 C 1663.79 -2.24544 0.459636 0
M  V30 17664 C 1664.81 -1.56941 -0.432813 0
M  V30 17665 O 1666 -1.76898 -0.238637 0
M  V30 17666 C 1663.1 -3.3703 -0.3555 0
M  V30 17667 C 1662.27 -4.34207 0.527566 0
M  V30 17668 C 1661.33 -5.25689 -0.231934 0
M  V30 17669 O 1660.35 -5.67964 0.37488 0
M  V30 17670 N 1661.56 -5.60222 -1.5209 0
M  V30 17671 H 1664.32 -2.68957 1.3222 0
M  V30 17672 H 1661.88 -1.38285 0.84196 0
M  V30 17673 H 1663.87 -3.95201 -0.871685 0
M  V30 17674 H 1662.44 -2.91885 -1.11901 0
M  V30 17675 H 1661.66 -3.74693 1.2247 0
M  V30 17676 H 1662.95 -4.96099 1.12975 0
M  V30 17677 H 1662.35 -5.27807 -2.03559 0
M  V30 17678 H 1660.91 -6.20911 -1.98273 0
M  V30 17679 N 1664.34 -0.740267 -1.39132 0
M  V30 17680 C 1665.76 -0.416412 -1.54072 0
M  V30 17681 C 1665.96 1.07211 -1.70611 0
M  V30 17682 O 1665.01 1.85822 -1.70958 0
M  V30 17683 C 1666.33 -1.20403 -2.75542 0
M  V30 17684 C 1667.87 -1.19278 -2.89382 0
M  V30 17685 C 1668.35 -1.96308 -4.13796 0
M  V30 17686 N 1669.84 -1.93501 -4.20846 0
M  V30 17687 C 1670.57 -2.49907 -5.16075 0
M  V30 17688 N 1670.07 -3.14973 -6.17061 0
M  V30 17689 N 1671.86 -2.39911 -5.0833 0
M  V30 17690 H 1664.01 -1.70513 -1.26645 0
M  V30 17691 H 1666.28 -0.722111 -0.614214 0
M  V30 17692 H 1665.98 -2.25754 -2.69681 0
M  V30 17693 H 1665.86 -0.811986 -3.68357 0
M  V30 17694 H 1668.24 -0.147385 -2.94732 0
M  V30 17695 H 1668.33 -1.62424 -1.97616 0
M  V30 17696 H 1667.97 -3.00851 -4.09208 0
M  V30 17697 H 1667.9 -1.50565 -5.04617 0
M  V30 17698 H 1670.39 -1.46104 -3.48514 0
M  V30 17699 H 1670.7 -3.55467 -6.86195 0
M  V30 17700 H 1669.05 -3.19064 -6.17433 0
M  V30 17701 H 1672.24 -1.88718 -4.28373 0
M  V30 17702 H 1672.41 -2.84169 -5.82368 0
M  V30 17703 N 1665.82 1.49844 -0.488302 0
M  V30 17704 C 1666.75 2.31737 0.286432 0
M  V30 17705 C 1667.73 1.39424 0.974418 0
M  V30 17706 O 1668.91 1.68339 0.968274 0
M  V30 17707 C 1666.04 3.19616 1.35878 0
M  V30 17708 C 1665 4.20619 0.791409 0
M  V30 17709 C 1664.32 4.9735 1.96333 0
M  V30 17710 C 1665.62 5.21882 -0.208975 0
M  V30 17711 H 1667.32 2.96755 -0.397092 0
M  V30 17712 H 1664.86 1.42709 -0.192413 0
M  V30 17713 H 1666.82 3.75711 1.90838 0
M  V30 17714 H 1665.54 2.52516 2.07131 0
M  V30 17715 H 1664.2 3.65651 0.263647 0
M  V30 17716 H 1663.85 4.26708 2.66325 0
M  V30 17717 H 1663.55 5.65684 1.58983 0
M  V30 17718 H 1665.07 5.56286 2.51751 0
M  V30 17719 H 1666.49 5.72746 0.252049 0
M  V30 17720 H 1664.88 5.98033 -0.497638 0
M  V30 17721 H 1665.95 4.7157 -1.12916 0
M  V30 17722 N 1667.3 0.221601 1.56034 0
M  V30 17723 C 1668.71 -0.133783 1.59038 0
M  V30 17724 C 1668.91 -1.58952 1.23841 0
M  V30 17725 O 1667.97 -2.32972 0.973677 0
M  V30 17726 C 1669.28 0.192549 3.00083 0
M  V30 17727 C 1670.83 0.134791 3.1271 0
M  V30 17728 C 1671.3 0.434799 4.55931 0
M  V30 17729 N 1672.8 0.384372 4.61602 0
M  V30 17730 C 1673.53 0.59 5.70357 0
M  V30 17731 N 1673.03 0.857405 6.87474 0
M  V30 17732 N 1674.82 0.522433 5.59667 0
M  V30 17733 H 1666.97 1.17124 1.77189 0
M  V30 17734 H 1669.23 0.46946 0.823597 0
M  V30 17735 H 1668.94 1.20292 3.30488 0
M  V30 17736 H 1668.81 -0.49243 3.73972 0
M  V30 17737 H 1671.2 -0.866221 2.821 0
M  V30 17738 H 1671.28 0.853247 2.4115 0
M  V30 17739 H 1670.93 1.43325 4.87258 0
M  V30 17740 H 1670.86 -0.304849 5.25717 0
M  V30 17741 H 1673.35 0.185389 3.77445 0
M  V30 17742 H 1673.66 1.00241 7.66271 0
M  V30 17743 H 1672 0.894599 6.89218 0
M  V30 17744 H 1675.2 0.313754 4.67047 0
M  V30 17745 H 1675.37 0.686094 6.44358 0
M  V30 17746 N 1668.77 -1.57515 -0.0517878 0
M  V30 17747 C 1670.05 -1.79321 -0.781233 0
M  V30 17748 C 1670.43 -0.814142 -1.94769 0
M  V30 17749 O 1669.78 0.14858 -2.28016 0
M  V30 17750 C 1669.99 -3.26398 -1.23553 0
M  V30 17751 C 1671.34 -3.90773 -1.66077 0
M  V30 17752 O 1672.36 -3.3041 -1.33069 0
M  V30 17753 O 1671.22 -4.97008 -2.27257 0
M  V30 17754 H 1668.31 -0.736627 -0.375912 0
M  V30 17755 H 1670.86 -1.69673 -0.0303173 0
M  V30 17756 H 1669.63 -3.89232 -0.401806 0
M  V30 17757 H 1669.26 -3.40848 -2.04716 0
M  V30 17758 N 1670.25 0.323614 -1.54242 0
M  V30 17759 C 1671.5 1.05947 -1.72104 0
M  V30 17760 C 1671.82 1.88547 -0.497512 0
M  V30 17761 O 1671.09 1.89712 0.488485 0
M  V30 17762 H 1669.67 0.394141 -0.634557 0
M  V30 17763 H 1672.33 0.360063 -1.91545 0
M  V30 17764 H 1671.43 1.72552 -2.60062 0
M  V30 17765 N 1671.73 1.46313 0.585673 0
M  V30 17766 C 1672.96 1.55035 1.3701 0
M  V30 17767 C 1673.37 0.190444 1.87837 0
M  V30 17768 O 1672.73 -0.81177 1.63452 0
M  V30 17769 C 1672.78 2.55272 2.55965 0
M  V30 17770 O 1672.5 3.85981 2.07245 0
M  V30 17771 C 1674 2.73906 3.48555 0
M  V30 17772 H 1671.22 0.524377 0.418653 0
M  V30 17773 H 1673.77 1.91695 0.712267 0
M  V30 17774 H 1671.92 2.21625 3.17744 0
M  V30 17775 H 1672.34 4.40512 2.84692 0
M  V30 17776 H 1673.81 3.4797 4.2851 0
M  V30 17777 H 1674.29 1.80708 4.00301 0
M  V30 17778 H 1674.89 3.08638 2.92614 0
M  V30 17779 N 1673.21 -0.830057 1.33969 0
M  V30 17780 C 1674.63 -1.12209 1.13496 0
M  V30 17781 C 1674.83 -2.01384 -0.0682972 0
M  V30 17782 O 1673.88 -2.4123 -0.745949 0
M  V30 17783 C 1675.19 -1.77568 2.42673 0
M  V30 17784 C 1676.74 -1.90095 2.48662 0
M  V30 17785 C 1677.22 -2.5887 3.77823 0
M  V30 17786 N 1678.71 -2.66375 3.78944 0
M  V30 17787 C 1679.44 -3.20301 4.75599 0
M  V30 17788 N 1678.94 -3.74846 5.82634 0
M  V30 17789 N 1680.73 -3.18636 4.63063 0
M  V30 17790 H 1672.88 -0.236752 2.11076 0
M  V30 17791 H 1675.15 -0.167572 0.933072 0
M  V30 17792 H 1674.85 -1.19505 3.30774 0
M  V30 17793 H 1674.73 -2.77505 2.55481 0
M  V30 17794 H 1677.11 -2.47308 1.61005 0
M  V30 17795 H 1677.19 -0.890808 2.39788 0
M  V30 17796 H 1676.84 -2.02313 4.65867 0
M  V30 17797 H 1676.77 -3.60373 3.83978 0
M  V30 17798 H 1679.26 -2.27705 3.01594 0
M  V30 17799 H 1679.57 -4.14224 6.52409 0
M  V30 17800 H 1677.92 -3.7311 5.86357 0
M  V30 17801 H 1681.11 -2.75286 3.78597 0
M  V30 17802 H 1681.28 -3.60359 5.38559 0
M  V30 17803 N 1674.69 -1.17582 -1.04939 0
M  V30 17804 C 1675.62 -0.838287 -2.12245 0
M  V30 17805 C 1676.6 0.196015 -1.61414 0
M  V30 17806 O 1677.78 0.0769706 -1.88343 0
M  V30 17807 C 1674.91 -0.250934 -3.37769 0
M  V30 17808 C 1673.96 -1.26103 -4.07431 0
M  V30 17809 S 1674.79 -2.81338 -4.55641 0
M  V30 17810 C 1675.94 -2.2409 -5.8441 0
M  V30 17811 H 1676.18 -1.74709 -2.40549 0
M  V30 17812 H 1673.71 -1.00075 -1.17577 0
M  V30 17813 H 1675.67 0.0814566 -4.10419 0
M  V30 17814 H 1674.33 0.635851 -3.07597 0
M  V30 17815 H 1673.52 -0.798761 -4.9763 0
M  V30 17816 H 1673.12 -1.5392 -3.40859 0
M  V30 17817 H 1675.42 -1.61804 -6.57895 0
M  V30 17818 H 1676.36 -3.12554 -6.35386 0
M  V30 17819 H 1676.77 -1.67444 -5.39094 0
M  V30 17820 N 1676.17 1.23705 -0.976463 0
M  V30 17821 C 1677.58 1.44179 -0.684434 0
M  V30 17822 C 1677.78 1.86992 0.75075 0
M  V30 17823 O 1676.84 2.01349 1.52365 0
M  V30 17824 C 1678.15 2.49661 -1.676 0
M  V30 17825 C 1679.7 2.63479 -1.68961 0
M  V30 17826 C 1680.17 3.72167 -2.66938 0
M  V30 17827 N 1681.66 3.79605 -2.65433 0
M  V30 17828 C 1682.4 4.63251 -3.37914 0
M  V30 17829 N 1681.9 5.51018 -4.19941 0
M  V30 17830 N 1683.69 4.57412 -3.26697 0
M  V30 17831 H 1675.84 0.942155 -1.90361 0
M  V30 17832 H 1678.1 0.475629 -0.820049 0
M  V30 17833 H 1677.81 2.25111 -2.70218 0
M  V30 17834 H 1677.68 3.47978 -1.45571 0
M  V30 17835 H 1680.07 2.87382 -0.670497 0
M  V30 17836 H 1680.15 1.65491 -1.95055 0
M  V30 17837 H 1679.79 3.49013 -3.68988 0
M  V30 17838 H 1679.72 4.69688 -2.3812 0
M  V30 17839 H 1682.22 3.16882 -2.05899 0
M  V30 17840 H 1682.53 6.11825 -4.72113 0
M  V30 17841 H 1680.87 5.50655 -4.24033 0
M  V30 17842 H 1684.06 3.87863 -2.62069 0
M  V30 17843 H 1684.24 5.22373 -3.83446 0
M  V30 17844 N 1677.64 0.747635 1.38738 0
M  V30 17845 C 1678.61 0.124321 2.28863 0
M  V30 17846 C 1679.61 -0.653816 1.46908 0
M  V30 17847 O 1680.8 -0.480963 1.67429 0
M  V30 17848 C 1677.93 -0.832601 3.30576 0
M  V30 17849 H 1679.12 0.918492 2.85489 0
M  V30 17850 H 1676.67 0.514262 1.47598 0
M  V30 17851 H 1677.41 -1.65267 2.79029 0
M  V30 17852 H 1677.19 -0.277109 3.9112 0
M  V30 17853 H 1678.68 -1.2649 3.97982 0
M  V30 17854 N 1679.12 -1.49583 0.496242 0
M  V30 17855 C 1680.53 -1.8664 0.0472756 0
M  V30 17856 C 1680.88 -1.40898 -1.36536 0
M  V30 17857 O 1680.01 -0.784796 -2.01668 0
M  V30 17858 C 1680.6 -3.38708 0.079016 0
M  V30 17859 C 1679.16 -3.75083 -0.314587 0
M  V30 17860 C 1678.31 -2.73565 0.453624 0
M  V30 17861 H 1681.26 -1.41969 0.709269 0
M  V30 17862 H 1681.28 -3.73676 -0.717396 0
M  V30 17863 H 1680.79 -3.71969 1.10727 0
M  V30 17864 H 1678.89 -3.47429 -1.34625 0
M  V30 17865 H 1679.01 -4.791 0.00155427 0
M  V30 17866 H 1677.37 -2.54519 -0.095937 0
M  V30 17867 H 1678.15 -3.0967 1.48186 0
M  V30 17868 N 1680.6 -0.229873 -1.55915 0
M  V30 17869 C 1681.51 0.687953 -2.24286 0
M  V30 17870 C 1682.53 1.20705 -1.25325 0
M  V30 17871 O 1683.7 1.2469 -1.58159 0
M  V30 17872 C 1680.77 1.87563 -2.91584 0
M  V30 17873 C 1679.83 1.39769 -4.0591 0
M  V30 17874 C 1679.06 2.52876 -4.69989 0
M  V30 17875 O 1679.28 3.71208 -4.33083 0
M  V30 17876 O 1678.22 2.23603 -5.58825 0
M  V30 17877 H 1682.04 0.135464 -3.03398 0
M  V30 17878 H 1679.63 0.000925172 -1.494 0
M  V30 17879 H 1681.51 2.56907 -3.34031 0
M  V30 17880 H 1680.19 2.41606 -2.15426 0
M  V30 17881 H 1679.09 0.672029 -3.68014 0
M  V30 17882 H 1680.43 0.903543 -4.83836 0
M  V30 17883 N 1682.08 1.5754 0.0434337 0
M  V30 17884 C 1683.01 2.08648 1.04824 0
M  V30 17885 C 1683.99 0.985894 1.38615 0
M  V30 17886 O 1685.17 1.2603 1.4775 0
M  V30 17887 C 1682.3 2.55399 2.35348 0
M  V30 17888 C 1681.26 3.69592 2.15837 0
M  V30 17889 C 1680.58 4.02497 3.51995 0
M  V30 17890 C 1681.88 4.98575 1.55629 0
M  V30 17891 H 1683.58 2.9285 0.622849 0
M  V30 17892 H 1681.12 1.40879 0.298158 0
M  V30 17893 H 1683.08 2.89771 3.05958 0
M  V30 17894 H 1681.8 1.68262 2.7992 0
M  V30 17895 H 1680.46 3.35546 1.47663 0
M  V30 17896 H 1680.11 3.12448 3.94189 0
M  V30 17897 H 1679.81 4.79406 3.39771 0
M  V30 17898 H 1681.33 4.39391 4.23991 0
M  V30 17899 H 1682.75 5.30996 2.16138 0
M  V30 17900 H 1681.14 5.79998 1.54021 0
M  V30 17901 H 1682.21 4.82098 0.520567 0
M  V30 17902 N 1683.56 -0.31543 1.54411 0
M  V30 17903 C 1684.52 -1.37154 1.83634 0
M  V30 17904 C 1685.52 -1.44349 0.708518 0
M  V30 17905 O 1686.71 -1.44235 0.976824 0
M  V30 17906 C 1683.84 -2.758 2.00368 0
M  V30 17907 H 1685.03 -1.12493 2.78002 0
M  V30 17908 H 1682.59 -0.551346 1.46253 0
M  V30 17909 H 1683.32 -3.05704 1.08238 0
M  V30 17910 H 1683.11 -2.7197 2.82445 0
M  V30 17911 H 1684.6 -3.52187 2.24397 0
M  V30 17912 N 1685.03 -1.46622 -0.577906 0
M  V30 17913 C 1686.26 -1.5576 -1.36185 0
M  V30 17914 C 1686.68 -0.200403 -1.87733 0
M  V30 17915 O 1686.03 0.803091 -1.6388 0
M  V30 17916 C 1686.09 -2.56626 -2.54608 0
M  V30 17917 O 1685.81 -3.87074 -2.05195 0
M  V30 17918 C 1687.31 -2.75751 -3.47097 0
M  V30 17919 H 1684.53 -0.526589 -0.415866 0
M  V30 17920 H 1687.07 -1.9207 -0.702091 0
M  V30 17921 H 1685.23 -2.23307 -3.16564 0
M  V30 17922 H 1685.64 -4.42015 -2.82352 0
M  V30 17923 H 1687.11 -3.50237 -4.26659 0
M  V30 17924 H 1687.59 -1.82829 -3.99337 0
M  V30 17925 H 1688.2 -3.10185 -2.90973 0
M  V30 17926 N 1686.51 0.822941 -1.34408 0
M  V30 17927 C 1687.92 1.39571 -1.24003 0
M  V30 17928 C 1688.27 1.95739 0.134483 0
M  V30 17929 O 1687.4 1.90054 1.03481 0
M  V30 17930 C 1687.99 2.53726 -2.24519 0
M  V30 17931 C 1686.55 3.06911 -2.17905 0
M  V30 17932 C 1685.7 1.79783 -2.11124 0
M  V30 17933 H 1688.65 0.62734 -1.45774 0
M  V30 17934 H 1688.67 3.31818 -1.86217 0
M  V30 17935 H 1688.18 2.12816 -3.24547 0
M  V30 17936 H 1686.29 3.52326 -1.21233 0
M  V30 17937 H 1686.4 3.66003 -3.09158 0
M  V30 17938 H 1684.76 2.00679 -1.56845 0
M  V30 17939 H 1685.55 1.41047 -3.12987 0
M  V30 17940 N 1687.99 1.18137 1.04314 0
M  V30 17941 C 1688.95 0.908268 2.10436 0
M  V30 17942 C 1689.95 -0.105315 1.60455 0
M  V30 17943 O 1691.14 0.12785 1.7373 0
M  V30 17944 C 1688.28 0.362233 3.3897 0
M  V30 17945 H 1689.47 1.84928 2.36096 0
M  V30 17946 H 1687.02 0.993048 1.20699 0
M  V30 17947 H 1687.76 -0.58551 3.18971 0
M  V30 17948 H 1687.54 1.09285 3.76562 0
M  V30 17949 H 1689.03 0.18977 4.17169 0
M  V30 17950 N 1689.47 -1.23186 0.98301 0
M  V30 17951 C 1690.72 -1.90979 0.648851 0
M  V30 17952 C 1691.03 -1.77508 -0.82159 0
M  V30 17953 O 1692.24 -2.40128 -1.26692 0
M  V30 17954 C 1690.69 -3.42357 1.10995 0
M  V30 17955 C 1690.3 -3.64483 2.60492 0
M  V30 17956 C 1692.04 -4.1591 0.849653 0
M  V30 17957 C 1689.95 -5.09511 3.00255 0
M  V30 17958 H 1688.88 -0.715125 0.238983 0
M  V30 17959 H 1691.53 -1.39575 1.19126 0
M  V30 17960 H 1689.91 -3.92885 0.495735 0
M  V30 17961 H 1691.09 -3.24491 3.27173 0
M  V30 17962 H 1689.4 -3.04245 2.84296 0
M  V30 17963 H 1692 -5.22784 1.12256 0
M  V30 17964 H 1692.34 -4.15748 -0.214237 0
M  V30 17965 H 1692.88 -3.71379 1.42557 0
M  V30 17966 H 1689.62 -5.14805 4.05778 0
M  V30 17967 H 1689.14 -5.50443 2.38269 0
M  V30 17968 H 1690.81 -5.77862 2.91005 0
M  V30 17969 N 1690.95 -0.754982 -1.38339 0
M  V30 17970 C 1692.36 -0.43273 -1.53622 0
M  V30 17971 C 1692.56 1.05395 -1.71739 0
M  V30 17972 O 1691.62 1.83998 -1.72919 0
M  V30 17973 C 1692.93 -1.23319 -2.7425 0
M  V30 17974 C 1694.48 -1.22341 -2.881 0
M  V30 17975 C 1694.95 -2.00686 -4.11691 0
M  V30 17976 N 1696.45 -1.97953 -4.1877 0
M  V30 17977 C 1697.18 -2.55367 -5.13396 0
M  V30 17978 N 1696.68 -3.215 -6.13685 0
M  V30 17979 N 1698.47 -2.45289 -5.05757 0
M  V30 17980 H 1690.62 -1.71847 -1.2483 0
M  V30 17981 H 1692.88 -0.728585 -0.606521 0
M  V30 17982 H 1692.59 -2.28602 -2.67272 0
M  V30 17983 H 1692.46 -0.851009 -3.67475 0
M  V30 17984 H 1694.85 -0.178637 -2.94559 0
M  V30 17985 H 1694.93 -1.64511 -1.95882 0
M  V30 17986 H 1694.58 -3.05175 -4.05994 0
M  V30 17987 H 1694.51 -1.55908 -5.02991 0
M  V30 17988 H 1697 -1.49792 -3.46945 0
M  V30 17989 H 1697.31 -3.62725 -6.82386 0
M  V30 17990 H 1695.65 -3.25595 -6.14014 0
M  V30 17991 H 1698.85 -1.93251 -4.26347 0
M  V30 17992 H 1699.02 -2.9033 -5.79321 0
M  V30 17993 N 1692.42 1.49318 -0.504168 0
M  V30 17994 C 1693.84 1.58793 -0.160331 0
M  V30 17995 C 1694.04 1.50906 1.33527 0
M  V30 17996 O 1693.1 1.38466 2.11148 0
M  V30 17997 C 1694.41 2.91454 -0.739945 0
M  V30 17998 C 1695.96 3.04926 -0.706338 0
M  V30 17999 C 1696.43 4.4021 -1.26407 0
M  V30 18000 N 1697.92 4.46711 -1.22491 0
M  V30 18001 C 1698.66 5.49844 -1.62661 0
M  V30 18002 N 1698.15 6.60066 -2.10439 0
M  V30 18003 N 1699.95 5.40576 -1.54058 0
M  V30 18004 H 1692.1 1.52687 -1.4765 0
M  V30 18005 H 1694.36 0.723463 -0.612622 0
M  V30 18006 H 1694.07 3.02802 -1.78896 0
M  V30 18007 H 1693.94 3.76658 -0.202187 0
M  V30 18008 H 1696.33 2.93206 0.333845 0
M  V30 18009 H 1696.41 2.21398 -1.28128 0
M  V30 18010 H 1696.05 4.52683 -2.30305 0
M  V30 18011 H 1695.98 5.22384 -0.665041 0
M  V30 18012 H 1698.47 3.67634 -0.874869 0
M  V30 18013 H 1698.79 7.34865 -2.39153 0
M  V30 18014 H 1697.13 6.61098 -2.14415 0
M  V30 18015 H 1700.32 4.53359 -1.16548 0
M  V30 18016 H 1700.5 6.20826 -1.85687 0
M  V30 18017 N 1693.9 0.238138 1.5579 0
M  V30 18018 C 1695.15 -0.389474 1.97904 0
M  V30 18019 C 1695.46 -1.59707 1.1293 0
M  V30 18020 O 1696.67 -2.29526 1.45017 0
M  V30 18021 C 1695.13 -0.744319 3.52119 0
M  V30 18022 C 1694.73 0.441387 4.4582 0
M  V30 18023 C 1696.48 -1.33661 4.02908 0
M  V30 18024 C 1694.39 0.063184 5.91366 0
M  V30 18025 H 1693.32 -0.149291 0.739072 0
M  V30 18026 H 1695.97 0.336972 1.80379 0
M  V30 18027 H 1694.35 -1.52865 3.65306 0
M  V30 18028 H 1695.52 1.21881 4.44389 0
M  V30 18029 H 1693.84 0.948017 4.05465 0
M  V30 18030 H 1696.43 -1.63276 5.09161 0
M  V30 18031 H 1696.78 -2.2581 3.49737 0
M  V30 18032 H 1697.31 -0.615366 3.93012 0
M  V30 18033 H 1694.05 0.951584 6.48556 0
M  V30 18034 H 1693.57 -0.678216 5.95953 0
M  V30 18035 H 1695.25 -0.357712 6.4601 0
M  V30 18036 N 1695.38 -1.57561 -0.0350783 0
M  V30 18037 C 1696.31 -2.01535 -1.07046 0
M  V30 18038 C 1697.29 -0.898604 -1.35513 0
M  V30 18039 O 1698.48 -1.16395 -1.48271 0
M  V30 18040 C 1695.6 -2.3833 -2.40659 0
M  V30 18041 C 1694.65 -3.60386 -2.28088 0
M  V30 18042 S 1695.48 -5.09768 -1.64001 0
M  V30 18043 C 1696.64 -5.498 -2.99116 0
M  V30 18044 H 1696.87 -2.89041 -0.695884 0
M  V30 18045 H 1694.4 -1.52446 -0.244859 0
M  V30 18046 H 1696.36 -2.602 -3.175 0
M  V30 18047 H 1695.02 -1.51286 -2.75266 0
M  V30 18048 H 1694.22 -3.83767 -3.26709 0
M  V30 18049 H 1693.82 -3.38336 -1.59389 0
M  V30 18050 H 1696.11 -5.50117 -3.95447 0
M  V30 18051 H 1697.05 -6.50184 -2.80475 0
M  V30 18052 H 1697.46 -4.77296 -3.01412 0
M  V30 18053 N 1696.86 0.307236 -1.54576 0
M  V30 18054 C 1697.79 1.38357 -1.88095 0
M  V30 18055 C 1698.77 1.53196 -0.739253 0
M  V30 18056 O 1699.95 1.66807 -0.99444 0
M  V30 18057 C 1697.08 2.74876 -2.12274 0
M  V30 18058 C 1696.04 2.74809 -3.28122 0
M  V30 18059 C 1695.36 4.14557 -3.37707 0
M  V30 18060 C 1696.66 2.37103 -4.65381 0
M  V30 18061 H 1698.36 1.10554 -2.78241 0
M  V30 18062 H 1695.9 0.530383 -1.33877 0
M  V30 18063 H 1697.86 3.50254 -2.34308 0
M  V30 18064 H 1696.58 3.04191 -1.18893 0
M  V30 18065 H 1695.24 2.01887 -3.06002 0
M  V30 18066 H 1694.89 4.41039 -2.41854 0
M  V30 18067 H 1694.59 4.15415 -4.15577 0
M  V30 18068 H 1696.11 4.91724 -3.61994 0
M  V30 18069 H 1697.53 3.02196 -4.87186 0
M  V30 18070 H 1695.92 2.49184 -5.45919 0
M  V30 18071 H 1696.99 1.32235 -4.66521 0
M  V30 18072 N 1698.34 1.46926 0.570122 0
M  V30 18073 C 1699.28 1.5883 1.69929 0
M  V30 18074 C 1700.28 0.456167 1.63143 0
M  V30 18075 O 1701.48 0.633503 1.68484 0
M  V30 18076 H 1697.86 0.499606 0.562048 0
M  V30 18077 H 1699.83 2.53744 1.57023 0
M  V30 18078 C 1698.58 1.60761 3.08304 0
M  V30 18079 H 1697.9 2.47219 3.14202 0
M  V30 18080 H 1699.34 1.73142 3.87037 0
M  V30 18081 C 1697.8 0.338515 3.35195 0
M  V30 18082 O 1698.33 -0.565917 3.97694 0
M  V30 18083 N 1696.54 0.222525 2.89747 0
M  V30 18084 H 1696.08 0.959435 2.39066 0
M  V30 18085 H 1696.04 -0.625697 3.08111 0
M  V30 18086 N 1699.82 -0.815801 1.34842 0
M  V30 18087 C 1701.06 -1.58588 1.28955 0
M  V30 18088 C 1701.42 -1.91512 -0.136769 0
M  V30 18089 O 1702.62 -2.6689 -0.319903 0
M  V30 18090 C 1700.89 -2.84584 2.1621 0
M  V30 18091 S 1702.45 -3.75069 2.27747 0
M  V30 18092 H 1699.27 -0.543479 0.458422 0
M  V30 18093 H 1701.87 -0.96306 1.70133 0
M  V30 18094 H 1700.57 -2.58405 3.18834 0
M  V30 18095 H 1700.11 -3.51857 1.75954 0
M  V30 18096 H 1702.12 -4.74373 1.45549 0
M  V30 18097 N 1701.29 -1.18689 -1.03686 0
M  V30 18098 C 1702.54 -0.996079 -1.77341 0
M  V30 18099 C 1702.89 0.468989 -1.86597 0
M  V30 18100 O 1702.19 1.34372 -1.36583 0
M  V30 18101 C 1702.38 -1.58911 -3.20128 0
M  V30 18102 C 1702.21 -3.11032 -3.24791 0
M  V30 18103 C 1700.98 -3.79876 -3.332 0
M  V30 18104 C 1703.18 -4.0848 -3.12488 0
M  V30 18105 N 1701.16 -5.19465 -3.27153 0
M  V30 18106 C 1702.53 -5.34616 -3.13984 0
M  V30 18107 C 1704.59 -3.99947 -2.96558 0
M  V30 18108 C 1703.29 -6.53208 -3.01185 0
M  V30 18109 C 1705.32 -5.1814 -2.85106 0
M  V30 18110 C 1704.68 -6.4317 -2.87249 0
M  V30 18111 H 1700.78 -0.418538 -0.660568 0
M  V30 18112 H 1703.36 -1.50528 -1.23488 0
M  V30 18113 H 1701.53 -1.10603 -3.72319 0
M  V30 18114 H 1703.26 -1.33344 -3.82101 0
M  V30 18115 H 1700.02 -3.30627 -3.39091 0
M  V30 18116 H 1700.44 -5.92482 -3.27558 0
M  V30 18117 H 1705.08 -3.04111 -2.93729 0
M  V30 18118 H 1702.8 -7.49239 -3.02766 0
M  V30 18119 H 1706.39 -5.13332 -2.73828 0
M  V30 18120 H 1705.27 -7.33089 -2.78479 0
M  V30 18121 N 1702.77 1.22662 -0.989529 0
M  V30 18122 C 1704 1.95883 -0.681511 0
M  V30 18123 C 1704.42 1.72646 0.746646 0
M  V30 18124 O 1703.78 1.00358 1.5099 0
M  V30 18125 C 1703.83 3.46773 -0.988975 0
M  V30 18126 O 1702.93 4.12311 -0.0858485 0
M  V30 18127 H 1702.27 0.612916 -0.255401 0
M  V30 18128 H 1704.8 1.5585 -1.32559 0
M  V30 18129 H 1704.81 3.97273 -0.929426 0
M  V30 18130 H 1703.49 3.63011 -2.02967 0
M  V30 18131 H 1702.06 3.7236 -0.200592 0
M  V30 18132 N 1704.25 0.762308 1.37937 0
M  V30 18133 C 1705.5 0.321732 1.99523 0
M  V30 18134 C 1705.82 -1.10286 1.60816 0
M  V30 18135 O 1705.09 -1.75565 0.869117 0
M  V30 18136 H 1703.67 0.115967 0.737943 0
M  V30 18137 H 1706.33 0.978339 1.68566 0
M  V30 18138 H 1705.43 0.391818 3.09631 0
M  V30 18139 N 1705.73 -1.49049 0.51208 0
M  V30 18140 C 1707 -1.95383 -0.0920331 0
M  V30 18141 C 1707.38 -1.4539 -1.53053 0
M  V30 18142 O 1706.73 -0.672485 -2.1838 0
M  V30 18143 C 1706.94 -3.48999 0.00673901 0
M  V30 18144 C 1708.29 -4.24292 -0.161602 0
M  V30 18145 O 1709.31 -3.56135 -0.0679198 0
M  V30 18146 O 1708.17 -5.45343 -0.355351 0
M  V30 18147 H 1705.27 -0.822175 -0.0891992 0
M  V30 18148 H 1707.81 -1.59647 0.575406 0
M  V30 18149 H 1706.59 -3.78055 1.00948 0
M  V30 18150 H 1706.21 -3.91383 -0.700353 0
M  V30 18151 N 1707.21 -0.246397 -1.55662 0
M  V30 18152 C 1708.62 0.256853 -1.84925 0
M  V30 18153 C 1708.97 1.5763 -1.16821 0
M  V30 18154 O 1708.09 2.11745 -0.446415 0
M  V30 18155 C 1708.69 0.472815 -3.35485 0
M  V30 18156 C 1707.25 0.92033 -3.64975 0
M  V30 18157 C 1706.39 -0.00273772 -2.773 0
M  V30 18158 H 1709.34 -0.468971 -1.51612 0
M  V30 18159 H 1709.37 1.31549 -3.57037 0
M  V30 18160 H 1708.88 -0.487664 -3.85024 0
M  V30 18161 H 1706.98 1.89329 -3.20913 0
M  V30 18162 H 1707.09 0.77754 -4.72748 0
M  V30 18163 H 1705.46 0.508539 -2.49572 0
M  V30 18164 H 1706.24 -0.958581 -3.29645 0
M  V30 18165 N 1708.68 1.57577 0.026722 0
M  V30 18166 C 1709.63 2.06711 1.02661 0
M  V30 18167 C 1710.6 0.956754 1.35777 0
M  V30 18168 O 1711.79 1.22747 1.46074 0
M  V30 18169 C 1708.93 2.55321 2.32175 0
M  V30 18170 C 1708.04 3.80155 2.05197 0
M  V30 18171 C 1707.17 4.17368 3.28599 0
M  V30 18172 C 1706.21 5.35114 2.97186 0
M  V30 18173 N 1705.35 5.67747 4.13046 0
M  V30 18174 H 1710.19 2.91884 0.600666 0
M  V30 18175 H 1707.73 1.44313 0.284968 0
M  V30 18176 H 1709.68 2.81572 3.07853 0
M  V30 18177 H 1708.31 1.73061 2.72488 0
M  V30 18178 H 1707.37 3.60975 1.20006 0
M  V30 18179 H 1708.68 4.65949 1.78026 0
M  V30 18180 H 1707.83 4.4476 4.12642 0
M  V30 18181 H 1706.57 3.30231 3.58886 0
M  V30 18182 H 1705.58 5.07473 2.11545 0
M  V30 18183 H 1706.8 6.23906 2.68175 0
M  V30 18184 H 1704.75 4.83569 4.4328 0
M  V30 18185 H 1704.66 6.48056 3.89307 0
M  V30 18186 H 1705.93 5.99717 4.97956 0
M  V30 18187 N 1710.16 -0.299034 1.54737 0
M  V30 18188 C 1711.12 -1.35199 1.85078 0
M  V30 18189 C 1712.12 -1.4359 0.723788 0
M  V30 18190 O 1713.31 -1.43191 0.992067 0
M  V30 18191 C 1710.45 -2.73659 2.03282 0
M  V30 18192 H 1711.64 -1.09538 2.7918 0
M  V30 18193 H 1709.19 -0.535803 1.46829 0
M  V30 18194 H 1709.93 -3.04539 1.11475 0
M  V30 18195 H 1709.71 -2.68959 2.85313 0
M  V30 18196 H 1711.2 -3.49787 2.28119 0
M  V30 18197 N 1711.64 -1.47227 -0.562322 0
M  V30 18198 C 1713.06 -1.32632 -0.887745 0
M  V30 18199 C 1713.26 -0.312972 -1.99055 0
M  V30 18200 O 1712.31 0.277309 -2.50973 0
M  V30 18201 C 1713.62 -2.71822 -1.28581 0
M  V30 18202 C 1715.17 -2.80068 -1.39753 0
M  V30 18203 C 1715.65 -4.19887 -1.82917 0
M  V30 18204 N 1717.14 -4.22404 -1.90077 0
M  V30 18205 C 1717.87 -5.27499 -2.24793 0
M  V30 18206 N 1717.37 -6.42904 -2.58159 0
M  V30 18207 N 1719.16 -5.14874 -2.25523 0
M  V30 18208 H 1711.31 -2.11752 0.165835 0
M  V30 18209 H 1713.58 -0.94793 0.0115238 0
M  V30 18210 H 1713.28 -3.47383 -0.549361 0
M  V30 18211 H 1713.16 -3.0326 -2.24306 0
M  V30 18212 H 1715.54 -2.04783 -2.1248 0
M  V30 18213 H 1715.62 -2.5229 -0.422286 0
M  V30 18214 H 1715.27 -4.95676 -1.10761 0
M  V30 18215 H 1715.2 -4.45086 -2.81436 0
M  V30 18216 H 1717.69 -3.39146 -1.66698 0
M  V30 18217 H 1718 -7.18857 -2.83662 0
M  V30 18218 H 1716.35 -6.46232 -2.55751 0
M  V30 18219 H 1719.54 -4.23745 -1.98892 0
M  V30 18220 H 1719.71 -5.96887 -2.5225 0
M  V30 18221 N 1713.12 0.808639 -1.35273 0
M  V30 18222 C 1714.53 1.38248 -1.25477 0
M  V30 18223 C 1714.88 1.9587 0.113715 0
M  V30 18224 O 1714 1.91141 1.0146 0
M  V30 18225 C 1714.6 2.5133 -2.27197 0
M  V30 18226 C 1713.16 3.04582 -2.21148 0
M  V30 18227 C 1712.31 1.77534 -2.13019 0
M  V30 18228 H 1715.26 0.611844 -1.46431 0
M  V30 18229 H 1715.28 3.29825 -1.89726 0
M  V30 18230 H 1714.79 2.09362 -3.26786 0
M  V30 18231 H 1712.89 3.5102 -1.24963 0
M  V30 18232 H 1713 3.62703 -3.13023 0
M  V30 18233 H 1711.37 1.99004 -1.58964 0
M  V30 18234 H 1712.15 1.3772 -3.14465 0
M  V30 18235 N 1714.6 1.19237 1.03055 0
M  V30 18236 C 1715.56 0.930536 2.0946 0
M  V30 18237 C 1716.56 -0.0882907 1.60557 0
M  V30 18238 O 1717.75 0.146269 1.73585 0
M  V30 18239 C 1714.88 0.398165 3.38567 0
M  V30 18240 H 1716.07 1.87422 2.34122 0
M  V30 18241 H 1713.63 1.00579 1.19639 0
M  V30 18242 H 1714.36 -0.551646 3.19574 0
M  V30 18243 H 1714.15 1.13273 3.75382 0
M  V30 18244 H 1715.64 0.234006 4.16944 0
M  V30 18245 N 1716.07 -1.22136 0.99602 0
M  V30 18246 C 1717.32 -1.90967 0.673634 0
M  V30 18247 C 1717.65 -1.77526 -0.794654 0
M  V30 18248 O 1716.9 -1.14014 -1.59058 0
M  V30 18249 C 1717.2 -3.42259 1.02926 0
M  V30 18250 C 1716.87 -3.75891 2.49032 0
M  V30 18251 C 1715.53 -3.84781 2.88959 0
M  V30 18252 C 1717.88 -3.91799 3.43719 0
M  V30 18253 C 1715.21 -4.0702 4.22554 0
M  V30 18254 C 1717.56 -4.15543 4.76977 0
M  V30 18255 C 1716.23 -4.22658 5.1664 0
M  V30 18256 H 1715.5 -0.698798 0.2465 0
M  V30 18257 H 1718.14 -1.44836 1.25279 0
M  V30 18258 H 1716.45 -3.90066 0.368224 0
M  V30 18259 H 1718.15 -3.93774 0.757803 0
M  V30 18260 H 1714.74 -3.69556 2.17086 0
M  V30 18261 H 1718.92 -3.84306 3.14042 0
M  V30 18262 H 1714.18 -4.10756 4.52868 0
M  V30 18263 H 1718.35 -4.26796 5.50289 0
M  V30 18264 H 1715.98 -4.39643 6.20176 0
M  V30 18265 N 1717.55 -0.769612 -1.37531 0
M  V30 18266 C 1718.78 -0.343069 -2.04543 0
M  V30 18267 C 1719.2 1.02583 -1.57665 0
M  V30 18268 O 1718.56 1.65692 -0.735915 0
M  V30 18269 C 1718.61 -0.392914 -3.58453 0
M  V30 18270 O 1717.71 0.607401 -4.07902 0
M  V30 18271 H 1717.05 -0.148905 -0.647088 0
M  V30 18272 H 1719.58 -1.04521 -1.75888 0
M  V30 18273 H 1719.59 -0.24945 -4.07237 0
M  V30 18274 H 1718.27 -1.39159 -3.91928 0
M  V30 18275 H 1716.85 0.427231 -3.70445 0
M  V30 18276 N 1719.03 1.48775 -0.519977 0
M  V30 18277 C 1719.94 2.33239 0.252329 0
M  V30 18278 C 1720.96 1.45852 0.948849 0
M  V30 18279 O 1722.13 1.78848 0.92603 0
M  V30 18280 C 1719.2 3.2174 1.29166 0
M  V30 18281 C 1718.26 4.24993 0.606564 0
M  V30 18282 C 1717.49 5.09266 1.59638 0
M  V30 18283 O 1717.71 4.95353 2.82809 0
M  V30 18284 O 1716.65 5.90981 1.14127 0
M  V30 18285 H 1720.47 3.00503 -0.439527 0
M  V30 18286 H 1718.06 1.46733 -0.281032 0
M  V30 18287 H 1719.94 3.76512 1.89254 0
M  V30 18288 H 1718.62 2.5715 1.96611 0
M  V30 18289 H 1717.52 3.74084 -0.0345447 0
M  V30 18290 H 1718.86 4.92193 -0.0257627 0
M  V30 18291 N 1720.51 0.254649 1.55529 0
M  V30 18292 C 1721.44 -0.635656 2.24681 0
M  V30 18293 C 1722.42 -1.17519 1.22977 0
M  V30 18294 O 1723.6 -1.21311 1.51649 0
M  V30 18295 C 1720.73 -1.82922 2.95224 0
M  V30 18296 C 1719.69 -1.42212 4.03683 0
M  V30 18297 C 1719.01 -2.69713 4.61691 0
M  V30 18298 C 1720.31 -0.587436 5.18986 0
M  V30 18299 H 1722.01 -0.0590063 2.99342 0
M  V30 18300 H 1719.55 -0.02694 1.43975 0
M  V30 18301 H 1721.51 -2.45777 3.42304 0
M  V30 18302 H 1720.23 -2.43137 2.18064 0
M  V30 18303 H 1718.89 -0.81687 3.57383 0
M  V30 18304 H 1718.54 -3.28143 3.81223 0
M  V30 18305 H 1718.24 -2.43194 5.34911 0
M  V30 18306 H 1719.76 -3.33453 5.11509 0
M  V30 18307 H 1721.18 -1.12048 5.62244 0
M  V30 18308 H 1719.57 -0.417988 5.98643 0
M  V30 18309 H 1720.64 0.398577 4.83259 0
M  V30 18310 N 1721.99 -1.57589 -0.0183649 0
M  V30 18311 C 1723.23 -1.90038 -0.708056 0
M  V30 18312 C 1723.57 -0.853686 -1.7443 0
M  V30 18313 O 1722.84 0.12994 -1.94065 0
M  V30 18314 C 1723.12 -3.33107 -1.3679 0
M  V30 18315 C 1722.98 -4.48479 -0.344448 0
M  V30 18316 C 1724.3 -3.75276 -2.29904 0
M  V30 18317 H 1721.41 -0.691134 -0.255934 0
M  V30 18318 H 1724.06 -1.89978 0.0291579 0
M  V30 18319 H 1722.21 -3.33289 -1.99626 0
M  V30 18320 H 1723.88 -4.60432 0.282816 0
M  V30 18321 H 1722.12 -4.32503 0.335196 0
M  V30 18322 H 1722.79 -5.45497 -0.844832 0
M  V30 18323 H 1725.27 -3.76529 -1.77103 0
M  V30 18324 H 1724.14 -4.76168 -2.73049 0
M  V30 18325 H 1724.41 -3.08124 -3.17036 0
M  V30 18326 N 1723.46 0.290824 -1.54893 0
M  V30 18327 C 1724.37 1.38137 -1.89619 0
M  V30 18328 C 1725.39 1.54959 -0.791432 0
M  V30 18329 O 1726.57 1.69428 -1.08885 0
M  V30 18330 C 1723.63 2.72353 -2.14534 0
M  V30 18331 C 1722.69 2.64429 -3.38195 0
M  V30 18332 C 1721.93 3.92244 -3.61912 0
M  V30 18333 O 1722.15 4.92088 -2.88454 0
M  V30 18334 O 1721.08 3.93523 -4.55438 0
M  V30 18335 H 1724.91 1.11688 -2.82417 0
M  V30 18336 H 1722.49 0.487789 -1.41213 0
M  V30 18337 H 1724.38 3.51745 -2.32064 0
M  V30 18338 H 1723.05 2.98624 -1.24921 0
M  V30 18339 H 1721.96 1.83474 -3.26018 0
M  V30 18340 H 1723.29 2.43109 -4.2797 0
M  V30 18341 N 1724.94 1.47523 0.554506 0
M  V30 18342 C 1726.19 1.53546 1.30791 0
M  V30 18343 C 1726.5 0.203555 1.94538 0
M  V30 18344 O 1727.71 0.14181 2.71129 0
M  V30 18345 C 1726.17 2.70684 2.37188 0
M  V30 18346 C 1725.77 4.10415 1.7962 0
M  V30 18347 C 1727.52 2.86002 3.13693 0
M  V30 18348 C 1725.43 5.18849 2.83813 0
M  V30 18349 H 1724.36 0.571539 0.491792 0
M  V30 18350 H 1727.01 1.73803 0.58861 0
M  V30 18351 H 1725.39 2.43812 3.12045 0
M  V30 18352 H 1726.56 4.47202 1.11117 0
M  V30 18353 H 1724.88 4.00006 1.15691 0
M  V30 18354 H 1727.47 3.64181 3.91505 0
M  V30 18355 H 1727.82 1.94545 3.68046 0
M  V30 18356 H 1728.35 3.12657 2.45948 0
M  V30 18357 H 1725.09 6.12192 2.34311 0
M  V30 18358 H 1724.61 4.86577 3.50718 0
M  V30 18359 H 1726.29 5.45915 3.47255 0
M  V30 18360 N 1726.42 -0.801453 1.357 0
M  V30 18361 C 1727.35 -1.92807 1.31711 0
M  V30 18362 C 1728.33 -1.69028 0.190642 0
M  V30 18363 O 1729.52 -1.90317 0.38641 0
M  V30 18364 C 1726.65 -3.29635 1.09352 0
M  V30 18365 C 1725.6 -3.67908 2.18695 0
M  V30 18366 C 1724.93 -5.02955 1.81494 0
M  V30 18367 C 1726.23 -3.77749 3.60698 0
M  V30 18368 H 1727.92 -1.96401 2.2598 0
M  V30 18369 H 1725.47 -0.943528 1.08782 0
M  V30 18370 H 1727.42 -4.08058 1.052 0
M  V30 18371 H 1726.14 -3.26396 0.115306 0
M  V30 18372 H 1724.8 -2.91775 2.21952 0
M  V30 18373 H 1724.45 -4.96225 0.822776 0
M  V30 18374 H 1724.15 -5.29533 2.54692 0
M  V30 18375 H 1725.67 -5.83811 1.78876 0
M  V30 18376 H 1727.09 -4.4639 3.59734 0
M  V30 18377 H 1725.49 -4.15801 4.327 0
M  V30 18378 H 1726.56 -2.79167 3.96477 0
M  V30 18379 N 1727.9 -1.19782 -1.02421 0
M  V30 18380 C 1729.15 -1.00133 -1.7555 0
M  V30 18381 C 1729.47 0.468503 -1.89288 0
M  V30 18382 O 1728.74 1.3391 -1.42986 0
M  V30 18383 H 1727.32 -0.367513 -0.650341 0
M  V30 18384 H 1729.98 -1.50758 -1.23523 0
M  V30 18385 H 1729.08 -1.45329 -2.76199 0
M  V30 18386 N 1729.38 1.21606 -1.00248 0
M  V30 18387 C 1730.65 1.86191 -0.599348 0
M  V30 18388 C 1731.03 1.89847 0.923104 0
M  V30 18389 O 1730.38 1.39595 1.80902 0
M  V30 18390 C 1730.59 3.26576 -1.23082 0
M  V30 18391 C 1731.94 4.02989 -1.33736 0
M  V30 18392 O 1732.96 3.35877 -1.18595 0
M  V30 18393 O 1731.82 5.23142 -1.58065 0
M  V30 18394 H 1728.92 0.801204 -0.204943 0
M  V30 18395 H 1731.46 1.29309 -1.09897 0
M  V30 18396 H 1730.24 3.18601 -2.27176 0
M  V30 18397 H 1729.86 3.91074 -0.717394 0
M  V30 18398 N 1730.86 0.776895 1.37121 0
M  V30 18399 C 1731.79 0.180738 2.32799 0
M  V30 18400 C 1732.77 -0.677284 1.56035 0
M  V30 18401 O 1733.95 -0.613687 1.84249 0
M  V30 18402 C 1731.08 -0.695148 3.40272 0
M  V30 18403 C 1730.04 0.0619772 4.27955 0
M  V30 18404 C 1729.36 -0.933688 5.26485 0
M  V30 18405 C 1730.66 1.24396 5.0727 0
M  V30 18406 H 1732.36 0.980039 2.82906 0
M  V30 18407 H 1729.9 0.472722 1.3602 0
M  V30 18408 H 1731.85 -1.12205 4.06187 0
M  V30 18409 H 1730.58 -1.52702 2.88703 0
M  V30 18410 H 1729.24 0.469717 3.63578 0
M  V30 18411 H 1728.89 -1.76025 4.71194 0
M  V30 18412 H 1728.59 -0.431608 5.86013 0
M  V30 18413 H 1730.11 -1.35942 5.95275 0
M  V30 18414 H 1731.52 0.89345 5.66295 0
M  V30 18415 H 1729.92 1.67848 5.76149 0
M  V30 18416 H 1730.99 2.04553 4.39643 0
M  V30 18417 N 1732.33 -1.48497 0.527859 0
M  V30 18418 C 1733.26 -2.32414 -0.224891 0
M  V30 18419 C 1734.24 -1.41959 -0.93711 0
M  V30 18420 O 1735.43 -1.70847 -0.923302 0
M  V30 18421 C 1732.56 -3.23106 -1.27356 0
M  V30 18422 C 1731.51 -4.2257 -0.679611 0
M  V30 18423 C 1730.84 -5.02381 -1.83077 0
M  V30 18424 C 1732.14 -5.21144 0.347269 0
M  V30 18425 H 1733.83 -2.95598 0.475632 0
M  V30 18426 H 1731.38 -1.42148 0.230182 0
M  V30 18427 H 1733.33 -3.80639 -1.8081 0
M  V30 18428 H 1732.06 -2.57919 -2.00363 0
M  V30 18429 H 1730.72 -3.66221 -0.166608 0
M  V30 18430 H 1730.36 -4.3362 -2.54918 0
M  V30 18431 H 1730.06 -5.697 -1.43929 0
M  V30 18432 H 1731.59 -5.62765 -2.36914 0
M  V30 18433 H 1733 -5.73213 -0.100107 0
M  V30 18434 H 1731.4 -5.96503 0.656021 0
M  V30 18435 H 1732.47 -4.6841 1.25379 0
M  V30 18436 N 1733.81 -0.262893 -1.55392 0
M  V30 18437 C 1734.74 0.66288 -2.19405 0
M  V30 18438 C 1735.76 1.12675 -1.17508 0
M  V30 18439 O 1736.95 1.05077 -1.44295 0
M  V30 18440 C 1734.05 1.91471 -2.79628 0
M  V30 18441 C 1733.22 1.59966 -4.07099 0
M  V30 18442 C 1732.28 2.7027 -4.51487 0
M  V30 18443 O 1731.3 2.36976 -5.17524 0
M  V30 18444 N 1732.51 4.0009 -4.20605 0
M  V30 18445 H 1735.27 0.115075 -2.99479 0
M  V30 18446 H 1732.83 -0.0834933 -1.61685 0
M  V30 18447 H 1734.82 2.64535 -3.06273 0
M  V30 18448 H 1733.39 2.37188 -2.03619 0
M  V30 18449 H 1732.61 0.703431 -3.87873 0
M  V30 18450 H 1733.9 1.36402 -4.90175 0
M  V30 18451 H 1733.3 4.29966 -3.67621 0
M  V30 18452 H 1731.86 4.69569 -4.52049 0
M  V30 18453 N 1735.29 1.57597 0.0100073 0
M  V30 18454 C 1736.54 1.89754 0.695559 0
M  V30 18455 C 1736.86 0.862983 1.74865 0
M  V30 18456 O 1736.13 -0.100949 1.9564 0
M  V30 18457 H 1734.71 0.700331 0.259895 0
M  V30 18458 H 1737.37 1.94879 -0.0285521 0
M  V30 18459 H 1736.47 2.89213 1.17313 0
M  V30 18460 N 1736.77 -0.282606 1.55045 0
M  V30 18461 C 1738.18 -0.629284 1.4667 0
M  V30 18462 C 1738.38 -1.89931 0.672932 0
M  V30 18463 O 1737.44 -2.518 0.187946 0
M  V30 18464 C 1738.75 -0.765174 2.90802 0
M  V30 18465 C 1740.3 -0.859859 3.00958 0
M  V30 18466 C 1740.78 -1.0276 4.46323 0
M  V30 18467 N 1742.27 -1.09336 4.50111 0
M  V30 18468 C 1743 -1.24178 5.59792 0
M  V30 18469 N 1742.5 -1.358 6.7936 0
M  V30 18470 N 1744.29 -1.27212 5.47516 0
M  V30 18471 H 1736.44 0.551592 2.05113 0
M  V30 18472 H 1738.7 0.185277 0.929718 0
M  V30 18473 H 1738.41 0.0974312 3.51565 0
M  V30 18474 H 1738.28 -1.64848 3.39271 0
M  V30 18475 H 1740.67 -1.71294 2.40297 0
M  V30 18476 H 1740.75 0.0478484 2.55755 0
M  V30 18477 H 1740.4 -0.179219 5.07584 0
M  V30 18478 H 1740.33 -1.94981 4.89173 0
M  V30 18479 H 1742.82 -1.01633 3.63977 0
M  V30 18480 H 1743.13 -1.46932 7.58703 0
M  V30 18481 H 1741.48 -1.32822 6.8219 0
M  V30 18482 H 1744.67 -1.17756 4.53046 0
M  V30 18483 H 1744.84 -1.38435 6.3304 0
M  V30 18484 N 1738.25 -1.47815 -0.546675 0
M  V30 18485 C 1739.49 -1.54674 -1.30078 0
M  V30 18486 C 1739.81 -0.215151 -1.93809 0
M  V30 18487 O 1739.08 0.761862 -1.80478 0
M  V30 18488 H 1737.66 -0.569776 -0.483078 0
M  V30 18489 H 1740.33 -1.84178 -0.637525 0
M  V30 18490 H 1739.42 -2.31894 -2.08882 0
M  V30 18491 N 1739.72 0.794246 -1.36123 0
M  V30 18492 C 1740.65 1.92105 -1.32732 0
M  V30 18493 C 1741.63 1.68925 -0.199603 0
M  V30 18494 O 1742.82 1.90109 -0.396498 0
M  V30 18495 C 1739.95 3.29051 -1.11098 0
M  V30 18496 C 1738.9 3.66743 -2.20643 0
M  V30 18497 C 1738.23 5.01986 -1.84159 0
M  V30 18498 C 1739.53 3.75831 -3.62696 0
M  V30 18499 H 1741.22 1.952 -2.27018 0
M  V30 18500 H 1738.77 0.937746 -1.09281 0
M  V30 18501 H 1740.72 4.07494 -1.07362 0
M  V30 18502 H 1739.45 3.26331 -0.132614 0
M  V30 18503 H 1738.11 2.90594 -2.23497 0
M  V30 18504 H 1737.75 4.95782 -0.849081 0
M  V30 18505 H 1737.45 5.28175 -2.57497 0
M  V30 18506 H 1738.98 5.82855 -1.8197 0
M  V30 18507 H 1740.39 4.44476 -3.62096 0
M  V30 18508 H 1738.79 4.135 -4.34899 0
M  V30 18509 H 1739.86 2.7706 -3.97952 0
M  V30 18510 N 1741.2 1.20323 1.01785 0
M  V30 18511 C 1742.13 0.908716 2.10416 0
M  V30 18512 C 1743.15 -0.103029 1.62474 0
M  V30 18513 O 1744.34 0.127825 1.78042 0
M  V30 18514 C 1741.44 0.340601 3.37184 0
M  V30 18515 C 1740.61 1.40358 4.14268 0
M  V30 18516 C 1739.67 0.847016 5.19338 0
M  V30 18517 O 1738.69 1.5274 5.48324 0
M  V30 18518 N 1739.9 -0.344198 5.79479 0
M  V30 18519 H 1742.66 1.84383 2.36269 0
M  V30 18520 H 1740.22 1.10673 1.18165 0
M  V30 18521 H 1742.21 -0.0458443 4.04674 0
M  V30 18522 H 1740.78 -0.499042 3.08591 0
M  V30 18523 H 1740 1.96442 3.41766 0
M  V30 18524 H 1741.29 2.11952 4.62551 0
M  V30 18525 H 1740.69 -0.914263 5.58263 0
M  V30 18526 H 1739.25 -0.672296 6.48324 0
M  V30 18527 N 1742.68 -1.21073 1.00892 0
M  V30 18528 C 1743.59 -2.27265 0.582065 0
M  V30 18529 C 1744.61 -1.69872 -0.376785 0
M  V30 18530 O 1745.78 -1.99969 -0.239644 0
M  V30 18531 C 1742.85 -3.46606 -0.0806764 0
M  V30 18532 C 1741.91 -4.19257 0.923147 0
M  V30 18533 C 1741.14 -5.32901 0.291938 0
M  V30 18534 O 1741.36 -5.6309 -0.910282 0
M  V30 18535 O 1740.3 -5.93453 1.00483 0
M  V30 18536 H 1744.12 -2.65977 1.46594 0
M  V30 18537 H 1741.71 -1.27544 0.777999 0
M  V30 18538 H 1743.59 -4.18978 -0.451177 0
M  V30 18539 H 1742.27 -3.09785 -0.93887 0
M  V30 18540 H 1741.17 -3.4909 1.34488 0
M  V30 18541 H 1742.51 -4.59999 1.75106 0
M  V30 18542 N 1744.16 -0.784156 -1.36707 0
M  V30 18543 C 1745.07 -0.179959 -2.33909 0
M  V30 18544 C 1746.08 0.665092 -1.60787 0
M  V30 18545 O 1747.26 0.582111 -1.92804 0
M  V30 18546 C 1744.33 0.679323 -3.3998 0
M  V30 18547 C 1743.39 -0.183618 -4.28907 0
M  V30 18548 C 1742.62 0.634747 -5.29912 0
M  V30 18549 O 1742.84 1.87107 -5.38839 0
M  V30 18550 O 1741.78 0.0374113 -6.01888 0
M  V30 18551 H 1745.6 -0.983499 -2.87334 0
M  V30 18552 H 1743.19 -0.545521 -1.39084 0
M  V30 18553 H 1745.07 1.16948 -4.04847 0
M  V30 18554 H 1743.74 1.46084 -2.88862 0
M  V30 18555 H 1742.65 -0.720419 -3.67098 0
M  V30 18556 H 1743.98 -0.928522 -4.83363 0
M  V30 18557 N 1745.64 1.48215 -0.535727 0
M  V30 18558 C 1746.55 2.33494 0.227577 0
M  V30 18559 C 1747.56 1.4685 0.933327 0
M  V30 18560 O 1748.74 1.7982 0.907008 0
M  V30 18561 C 1745.8 3.23092 1.25747 0
M  V30 18562 C 1744.86 4.25613 0.561454 0
M  V30 18563 C 1744.1 5.1093 1.54228 0
M  V30 18564 O 1744.32 4.98325 2.77539 0
M  V30 18565 O 1743.25 5.92158 1.07852 0
M  V30 18566 H 1747.08 3.0002 -0.471375 0
M  V30 18567 H 1744.67 1.46427 -0.296579 0
M  V30 18568 H 1746.55 3.78498 1.8525 0
M  V30 18569 H 1745.22 2.5922 1.93872 0
M  V30 18570 H 1744.13 3.74026 -0.0742194 0
M  V30 18571 H 1745.46 4.92138 -0.0779649 0
M  V30 18572 N 1747.11 0.27113 1.5525 0
M  V30 18573 C 1748.02 -0.628245 2.26031 0
M  V30 18574 C 1749.04 -1.17339 1.28481 0
M  V30 18575 O 1750.22 -1.20453 1.61409 0
M  V30 18576 C 1747.28 -1.79766 2.96454 0
M  V30 18577 C 1746.34 -1.28958 4.09473 0
M  V30 18578 C 1745.58 -2.40326 4.76528 0
M  V30 18579 O 1745.8 -3.59595 4.42772 0
M  V30 18580 O 1744.73 -2.08708 5.64557 0
M  V30 18581 H 1748.56 -0.0549756 3.0365 0
M  V30 18582 H 1746.14 0.0386859 1.4935 0
M  V30 18583 H 1748.03 -2.4796 3.40725 0
M  V30 18584 H 1746.7 -2.35809 2.21756 0
M  V30 18585 H 1745.61 -0.57422 3.69667 0
M  V30 18586 H 1746.94 -0.774945 4.86061 0
M  V30 18587 N 1748.59 -1.576 -0.00164943 0
M  V30 18588 C 1749.84 -1.90778 -0.68786 0
M  V30 18589 C 1750.17 -0.872138 -1.73515 0
M  V30 18590 O 1749.45 0.109349 -1.94192 0
M  V30 18591 C 1749.73 -3.34539 -1.3325 0
M  V30 18592 C 1749.58 -4.48819 -0.296862 0
M  V30 18593 C 1750.9 -3.77693 -2.25911 0
M  V30 18594 H 1748.02 -0.69381 -0.24859 0
M  V30 18595 H 1750.66 -1.89936 0.0493059 0
M  V30 18596 H 1748.81 -3.35388 -1.9608 0
M  V30 18597 H 1750.48 -4.60106 0.331635 0
M  V30 18598 H 1748.73 -4.32123 0.38105 0
M  V30 18599 H 1749.4 -5.46362 -0.786927 0
M  V30 18600 H 1751.87 -3.78386 -1.73099 0
M  V30 18601 H 1750.75 -4.79037 -2.67983 0
M  V30 18602 H 1751.01 -3.11469 -3.1375 0
M  V30 18603 N 1750.07 0.274379 -1.55193 0
M  V30 18604 C 1751.31 1.01383 -1.77485 0
M  V30 18605 C 1751.67 1.83549 -0.563373 0
M  V30 18606 O 1752.88 2.60457 -0.664517 0
M  V30 18607 C 1751.15 1.87414 -3.0432 0
M  V30 18608 S 1752.71 2.67644 -3.47725 0
M  V30 18609 H 1749.52 0.341489 -0.623623 0
M  V30 18610 H 1752.13 0.284398 -1.9342 0
M  V30 18611 H 1750.83 1.25974 -3.90588 0
M  V30 18612 H 1750.36 2.6468 -2.91046 0
M  V30 18613 H 1752.38 3.89914 -3.06889 0
M  V30 18614 N 1751.55 1.48103 0.538828 0
M  V30 18615 C 1752.48 1.56526 1.66057 0
M  V30 18616 C 1753.46 0.416225 1.57182 0
M  V30 18617 O 1754.64 0.626601 1.77781 0
M  V30 18618 C 1751.77 1.485 3.0441 0
M  V30 18619 C 1750.82 2.68135 3.31672 0
M  V30 18620 S 1751.65 4.30182 3.1891 0
M  V30 18621 C 1752.81 4.24739 4.59725 0
M  V30 18622 H 1753.04 2.51425 1.5866 0
M  V30 18623 H 1750.57 1.36527 0.721101 0
M  V30 18624 H 1752.53 1.44556 3.84206 0
M  V30 18625 H 1751.19 0.549541 3.09255 0
M  V30 18626 H 1750.38 2.58633 4.3258 0
M  V30 18627 H 1749.99 2.69296 2.5953 0
M  V30 18628 H 1752.28 3.94127 5.51063 0
M  V30 18629 H 1753.22 5.25796 4.74283 0
M  V30 18630 H 1753.63 3.55332 4.38634 0
M  V30 18631 N 1753.03 -0.787016 1.36542 0
M  V30 18632 C 1753.99 -1.88136 1.3091 0
M  V30 18633 C 1754.99 -1.59339 0.216292 0
M  V30 18634 O 1756.18 -1.67706 0.471222 0
M  V30 18635 C 1753.31 -3.24969 1.02994 0
M  V30 18636 H 1754.5 -1.94546 2.28237 0
M  V30 18637 H 1752.06 -0.985084 1.2135 0
M  V30 18638 H 1752.79 -3.24242 0.0613497 0
M  V30 18639 H 1752.58 -3.47261 1.82078 0
M  V30 18640 H 1754.07 -4.05036 1.01664 0
M  V30 18641 N 1754.5 -1.20861 -1.01145 0
M  V30 18642 C 1755.92 -1.02156 -1.56272 0
M  V30 18643 C 1756.27 0.420552 -1.9164 0
M  V30 18644 O 1755.39 1.30277 -1.72792 0
M  V30 18645 C 1755.99 -1.84812 -2.83954 0
M  V30 18646 C 1754.55 -1.70458 -3.35591 0
M  V30 18647 C 1753.69 -1.82425 -2.08846 0
M  V30 18648 H 1756.64 -1.34978 -0.834669 0
M  V30 18649 H 1756.66 -1.35455 -3.55573 0
M  V30 18650 H 1756.18 -2.89765 -2.58181 0
M  V30 18651 H 1754.28 -0.681631 -3.66312 0
M  V30 18652 H 1754.39 -2.52041 -4.07446 0
M  V30 18653 H 1752.75 -1.25665 -2.21541 0
M  V30 18654 H 1753.54 -2.88872 -1.85493 0
M  V30 18655 N 1755.98 1.20536 -1.01532 0
M  V30 18656 C 1757.4 1.41929 -0.729957 0
M  V30 18657 C 1757.6 1.89286 0.69088 0
M  V30 18658 O 1756.65 2.06094 1.45882 0
M  V30 18659 C 1757.97 2.44202 -1.75458 0
M  V30 18660 C 1759.52 2.57971 -1.77257 0
M  V30 18661 C 1759.99 3.63486 -2.78643 0
M  V30 18662 N 1761.48 3.70968 -2.77375 0
M  V30 18663 C 1762.22 4.52266 -3.52481 0
M  V30 18664 N 1761.71 5.37379 -4.37259 0
M  V30 18665 N 1763.51 4.46787 -3.41084 0
M  V30 18666 H 1755.66 0.881116 -1.93262 0
M  V30 18667 H 1757.92 0.449299 -0.834766 0
M  V30 18668 H 1757.63 2.16401 -2.77243 0
M  V30 18669 H 1757.5 3.43171 -1.56568 0
M  V30 18670 H 1759.89 2.85103 -0.761586 0
M  V30 18671 H 1759.97 1.59202 -2.00221 0
M  V30 18672 H 1759.61 3.37097 -3.79905 0
M  V30 18673 H 1759.54 4.61874 -2.52942 0
M  V30 18674 H 1762.03 3.10171 -2.15876 0
M  V30 18675 H 1762.35 5.96495 -4.91338 0
M  V30 18676 H 1760.69 5.36886 -4.41337 0
M  V30 18677 H 1763.88 3.79329 -2.74275 0
M  V30 18678 H 1764.05 5.0991 -3.9987 0
M  V30 18679 N 1757.46 0.791395 1.36289 0
M  V30 18680 C 1758.69 0.375566 2.03971 0
M  V30 18681 C 1759.11 -1.00061 1.59277 0
M  V30 18682 O 1758.47 -1.64501 0.762182 0
M  V30 18683 C 1758.52 0.449891 3.57783 0
M  V30 18684 O 1757.62 -0.54243 4.08817 0
M  V30 18685 H 1756.96 0.159181 0.644637 0
M  V30 18686 H 1759.49 1.07306 1.74203 0
M  V30 18687 H 1759.5 0.314206 4.06788 0
M  V30 18688 H 1758.18 1.45377 3.89665 0
M  V30 18689 H 1756.75 -0.368243 3.71077 0
M  V30 18690 N 1758.94 -1.47929 0.54358 0
M  V30 18691 C 1760.16 -2.07393 0.0168905 0
M  V30 18692 C 1760.59 -1.39557 -1.26117 0
M  V30 18693 O 1759.95 -0.465983 -1.75209 0
M  V30 18694 C 1760 -3.6017 -0.176105 0
M  V30 18695 O 1759.1 -3.9326 -1.24178 0
M  V30 18696 H 1758.44 -0.662459 0.0452126 0
M  V30 18697 H 1760.97 -1.90145 0.755376 0
M  V30 18698 H 1760.98 -4.06088 -0.394555 0
M  V30 18699 H 1759.66 -4.08944 0.757445 0
M  V30 18700 H 1758.23 -3.59105 -1.0049 0
M  V30 18701 N 1760.42 -0.27936 -1.55104 0
M  V30 18702 C 1761.35 0.639572 -2.20096 0
M  V30 18703 C 1762.36 1.11423 -1.18696 0
M  V30 18704 O 1763.55 1.0354 -1.45402 0
M  V30 18705 C 1760.65 1.88494 -2.81644 0
M  V30 18706 C 1759.82 1.55639 -4.08773 0
M  V30 18707 C 1758.88 2.65466 -4.54328 0
M  V30 18708 O 1757.91 2.31473 -5.20008 0
M  V30 18709 N 1759.11 3.95606 -4.24825 0
M  V30 18710 H 1761.88 0.0833048 -2.99584 0
M  V30 18711 H 1759.44 -0.100637 -1.61587 0
M  V30 18712 H 1761.43 2.61272 -3.09062 0
M  V30 18713 H 1760 2.35015 -2.06123 0
M  V30 18714 H 1759.22 0.662253 -3.88597 0
M  V30 18715 H 1760.51 1.31196 -4.91594 0
M  V30 18716 H 1759.91 4.26043 -3.72161 0
M  V30 18717 H 1758.46 4.64748 -4.57004 0
M  V30 18718 N 1761.9 1.57599 -0.0067085 0
M  V30 18719 C 1763.12 1.95545 0.69115 0
M  V30 18720 C 1763.55 0.882014 1.66139 0
M  V30 18721 O 1762.9 -0.159242 1.80599 0
M  V30 18722 C 1762.95 3.3259 1.39342 0
M  V30 18723 O 1762.06 3.27368 2.50806 0
M  V30 18724 H 1761.4 0.638188 0.183336 0
M  V30 18725 H 1763.93 2.04506 -0.0618957 0
M  V30 18726 H 1763.94 3.6831 1.75532 0
M  V30 18727 H 1762.61 4.10269 0.682072 0
M  V30 18728 H 1761.19 3.03334 2.16894 0
M  V30 18729 N 1763.37 -0.266145 1.55336 0
M  V30 18730 C 1764.6 -1.01915 1.80633 0
M  V30 18731 C 1765.02 -1.78897 0.581172 0
M  V30 18732 O 1764.38 -1.75118 -0.469399 0
M  V30 18733 C 1764.43 -1.948 3.03456 0
M  V30 18734 O 1763.53 -3.03678 2.79022 0
M  V30 18735 H 1762.87 -0.29102 0.596828 0
M  V30 18736 H 1765.4 -0.292973 2.02492 0
M  V30 18737 H 1765.41 -2.36626 3.32373 0
M  V30 18738 H 1764.09 -1.38182 3.92273 0
M  V30 18739 H 1762.67 -2.66118 2.61219 0
M  V30 18740 N 1764.85 -1.48386 -0.530967 0
M  V30 18741 C 1765.76 -1.65516 -1.66257 0
M  V30 18742 C 1766.78 -0.5377 -1.65483 0
M  V30 18743 O 1767.95 -0.808642 -1.84453 0
M  V30 18744 C 1765.02 -1.68999 -3.02722 0
M  V30 18745 C 1764.08 -2.92365 -3.14358 0
M  V30 18746 C 1763.31 -2.95672 -4.44313 0
M  V30 18747 O 1763.54 -2.07417 -5.31352 0
M  V30 18748 O 1762.47 -3.87831 -4.60294 0
M  V30 18749 H 1766.3 -2.61321 -1.54742 0
M  V30 18750 H 1763.88 -1.31776 -0.703946 0
M  V30 18751 H 1765.76 -1.73816 -3.83883 0
M  V30 18752 H 1764.44 -0.763675 -3.14563 0
M  V30 18753 H 1763.34 -2.93081 -2.32496 0
M  V30 18754 H 1764.68 -3.84378 -3.07433 0
M  V30 18755 N 1766.33 0.779763 -1.36958 0
M  V30 18756 C 1767.24 1.92394 -1.34245 0
M  V30 18757 C 1768.26 1.72292 -0.243187 0
M  V30 18758 O 1769.43 1.95665 -0.477211 0
M  V30 18759 C 1766.5 3.27402 -1.14057 0
M  V30 18760 C 1765.56 3.60213 -2.33548 0
M  V30 18761 C 1764.79 4.88779 -2.14314 0
M  V30 18762 O 1765.01 5.59231 -1.12327 0
M  V30 18763 O 1763.95 5.20469 -3.02316 0
M  V30 18764 H 1767.77 1.97633 -2.30596 0
M  V30 18765 H 1765.36 0.921386 -1.17605 0
M  V30 18766 H 1767.24 4.08172 -1.04755 0
M  V30 18767 H 1765.92 3.23033 -0.207744 0
M  V30 18768 H 1764.82 2.7971 -2.48421 0
M  V30 18769 H 1766.16 3.69317 -3.25371 0
M  V30 18770 N 1767.81 1.21396 1.00503 0
M  V30 18771 C 1769.06 1.02913 1.73935 0
M  V30 18772 C 1769.38 -0.438329 1.9001 0
M  V30 18773 O 1768.65 -1.31618 1.45098 0
M  V30 18774 H 1767.23 0.377813 0.644412 0
M  V30 18775 H 1769.89 1.52704 1.21109 0
M  V30 18776 H 1768.98 1.49705 2.73852 0
M  V30 18777 N 1769.29 -1.19996 1.0217 0
M  V30 18778 C 1770.51 -1.94007 0.733207 0
M  V30 18779 C 1770.94 -1.74565 -0.70061 0
M  V30 18780 O 1770.29 -1.04326 -1.48276 0
M  V30 18781 C 1770.34 -3.44029 1.08057 0
M  V30 18782 O 1769.45 -4.11938 0.195135 0
M  V30 18783 H 1768.79 -0.605929 0.271562 0
M  V30 18784 H 1771.32 -1.5228 1.36645 0
M  V30 18785 H 1771.33 -3.94669 1.03443 0
M  V30 18786 H 1770 -3.57502 2.1252 0
M  V30 18787 H 1768.58 -3.71697 0.299246 0
M  V30 18788 N 1770.76 -0.798611 -1.35867 0
M  V30 18789 C 1772.01 -0.37526 -1.98993 0
M  V30 18790 C 1772.34 1.05549 -1.6337 0
M  V30 18791 O 1771.59 1.74552 -0.88488 0
M  V30 18792 C 1771.89 -0.496572 -3.53934 0
M  V30 18793 C 1771.56 -1.88946 -4.09402 0
M  V30 18794 C 1770.22 -2.27056 -4.24263 0
M  V30 18795 C 1772.57 -2.8011 -4.39531 0
M  V30 18796 C 1769.9 -3.55712 -4.66568 0
M  V30 18797 C 1772.25 -4.08205 -4.83272 0
M  V30 18798 C 1770.92 -4.46323 -4.96338 0
M  V30 18799 H 1770.19 -0.137317 -0.728165 0
M  V30 18800 H 1772.83 -1.01786 -1.6221 0
M  V30 18801 H 1771.14 0.229499 -3.91127 0
M  V30 18802 H 1772.84 -0.149903 -4.0072 0
M  V30 18803 H 1769.43 -1.58336 -3.98281 0
M  V30 18804 H 1773.61 -2.51919 -4.2761 0
M  V30 18805 H 1768.87 -3.85105 -4.74873 0
M  V30 18806 H 1773.04 -4.78952 -5.05547 0
M  V30 18807 H 1770.67 -5.4607 -5.28877 0
M  V30 18808 N 1772.24 1.47639 -0.551417 0
M  V30 18809 C 1773.47 2.07381 -0.0278888 0
M  V30 18810 C 1773.89 1.40223 1.25375 0
M  V30 18811 O 1773.25 0.475268 1.7496 0
M  V30 18812 C 1773.3 3.60258 0.157001 0
M  V30 18813 O 1772.4 3.93913 1.2209 0
M  V30 18814 H 1771.74 0.66221 -0.0487252 0
M  V30 18815 H 1774.27 1.89742 -0.765449 0
M  V30 18816 H 1774.28 4.06291 0.373013 0
M  V30 18817 H 1772.96 4.08537 -0.779122 0
M  V30 18818 H 1771.53 3.59633 0.985843 0
M  V30 18819 N 1773.72 0.287581 1.54954 0
M  V30 18820 C 1774.65 -0.62789 2.20432 0
M  V30 18821 C 1775.67 -1.10792 1.19286 0
M  V30 18822 O 1776.85 -1.02768 1.45949 0
M  V30 18823 C 1773.95 -1.86998 2.82639 0
M  V30 18824 C 1773.13 -1.53469 4.09592 0
M  V30 18825 C 1772.19 -2.63053 4.5573 0
M  V30 18826 O 1771.21 -2.28712 5.21229 0
M  V30 18827 N 1772.41 -3.93348 4.26917 0
M  V30 18828 H 1775.18 -0.067416 2.99624 0
M  V30 18829 H 1772.74 0.109205 1.61531 0
M  V30 18830 H 1774.73 -2.59629 3.10443 0
M  V30 18831 H 1773.3 -2.33919 2.07366 0
M  V30 18832 H 1772.52 -0.641635 3.88943 0
M  V30 18833 H 1773.81 -1.28587 4.92283 0
M  V30 18834 H 1773.21 -4.24063 3.74415 0
M  V30 18835 H 1771.77 -4.62318 4.59462 0
M  V30 18836 N 1775.2 -1.57593 0.0150662 0
M  V30 18837 C 1776.44 -1.91497 -0.667587 0
M  V30 18838 C 1776.78 -0.890493 -1.7258 0
M  V30 18839 O 1776.05 0.0887462 -1.94297 0
M  V30 18840 C 1776.34 -3.35934 -1.29694 0
M  V30 18841 C 1776.19 -4.49109 -0.249242 0
M  V30 18842 C 1777.51 -3.80068 -2.21893 0
M  V30 18843 H 1774.63 -0.696408 -0.241217 0
M  V30 18844 H 1777.27 -1.89873 0.0694484 0
M  V30 18845 H 1775.42 -3.37448 -1.92512 0
M  V30 18846 H 1777.09 -4.59729 0.380417 0
M  V30 18847 H 1775.33 -4.31695 0.426861 0
M  V30 18848 H 1776 -5.47166 -0.728934 0
M  V30 18849 H 1778.48 -3.80201 -1.69076 0
M  V30 18850 H 1777.36 -4.81852 -2.62887 0
M  V30 18851 H 1777.62 -3.1478 -3.10429 0
M  V30 18852 N 1776.68 0.257904 -1.55475 0
M  V30 18853 C 1777.9 1.00955 -1.81171 0
M  V30 18854 C 1778.33 1.78586 -0.590651 0
M  V30 18855 O 1777.68 1.75365 0.460105 0
M  V30 18856 C 1777.73 1.93188 -3.04485 0
M  V30 18857 O 1776.84 3.02194 -2.80628 0
M  V30 18858 H 1776.18 0.28785 -0.598363 0
M  V30 18859 H 1778.71 0.28223 -2.02644 0
M  V30 18860 H 1778.72 2.3486 -3.33624 0
M  V30 18861 H 1777.39 1.361 -3.93001 0
M  V30 18862 H 1775.97 2.64729 -2.62627 0
M  V30 18863 N 1778.15 1.48666 0.52309 0
M  V30 18864 C 1779.38 1.60707 1.30311 0
M  V30 18865 C 1779.8 0.269941 1.8686 0
M  V30 18866 O 1779.15 -0.741714 1.66748 0
M  V30 18867 C 1779.21 2.65899 2.44908 0
M  V30 18868 O 1778.93 3.94423 1.90688 0
M  V30 18869 C 1780.43 2.88443 3.36624 0
M  V30 18870 H 1777.65 0.541661 0.396035 0
M  V30 18871 H 1780.19 1.94544 0.630322 0
M  V30 18872 H 1778.35 2.34902 3.08058 0
M  V30 18873 H 1778.76 4.5219 2.65753 0
M  V30 18874 H 1780.23 3.65831 4.13366 0
M  V30 18875 H 1780.71 1.97524 3.92277 0
M  V30 18876 H 1781.32 3.20771 2.7926 0
M  V30 18877 N 1779.63 -0.772489 1.37369 0
M  V30 18878 C 1780.57 -1.89299 1.2744 0
M  V30 18879 C 1781.54 -1.61859 0.155088 0
M  V30 18880 O 1782.73 -1.85604 0.329169 0
M  V30 18881 C 1779.85 -3.24506 0.970225 0
M  V30 18882 C 1778.9 -3.70859 2.10632 0
M  V30 18883 S 1779.73 -3.84618 3.72598 0
M  V30 18884 C 1780.89 -5.22674 3.44329 0
M  V30 18885 H 1781.12 -1.97433 2.22278 0
M  V30 18886 H 1778.66 -0.933512 1.22983 0
M  V30 18887 H 1780.61 -4.02598 0.801553 0
M  V30 18888 H 1779.27 -3.14075 0.0393408 0
M  V30 18889 H 1778.47 -4.68879 1.84848 0
M  V30 18890 H 1778.07 -2.99866 2.23509 0
M  V30 18891 H 1780.36 -6.07818 2.99272 0
M  V30 18892 H 1781.3 -5.53471 4.41674 0
M  V30 18893 H 1781.71 -4.90577 2.79276 0
M  V30 18894 N 1781.11 -1.21927 -0.998575 0
M  V30 18895 C 1782.07 -0.985744 -2.0692 0
M  V30 18896 C 1783.07 0.0456907 -1.60735 0
M  V30 18897 O 1784.26 -0.192241 -1.73136 0
M  V30 18898 C 1781.4 -0.48779 -3.37392 0
M  V30 18899 H 1782.59 -1.93563 -2.2907 0
M  V30 18900 H 1780.14 -1.03716 -1.1693 0
M  V30 18901 H 1780.88 0.466723 -3.20924 0
M  V30 18902 H 1780.66 -1.23186 -3.72247 0
M  V30 18903 H 1782.15 -0.344469 -4.16177 0
M  V30 18904 N 1782.59 1.19452 -1.02805 0
M  V30 18905 C 1783.52 2.24875 -0.628752 0
M  V30 18906 C 1784.5 1.66207 0.361844 0
M  V30 18907 O 1785.68 1.92652 0.244743 0
M  V30 18908 C 1782.81 3.47293 0.0220954 0
M  V30 18909 C 1781.77 4.1863 -0.890693 0
M  V30 18910 C 1781.09 5.34597 -0.104997 0
M  V30 18911 C 1782.39 4.73518 -2.20405 0
M  V30 18912 H 1784.09 2.5853 -1.51005 0
M  V30 18913 H 1781.63 1.24271 -0.727518 0
M  V30 18914 H 1783.59 4.20235 0.313073 0
M  V30 18915 H 1782.31 3.12835 0.938182 0
M  V30 18916 H 1780.97 3.47568 -1.16585 0
M  V30 18917 H 1780.62 4.96385 0.813098 0
M  V30 18918 H 1780.32 5.83258 -0.712983 0
M  V30 18919 H 1781.84 6.10337 0.179259 0
M  V30 18920 H 1783.26 5.3822 -1.97465 0
M  V30 18921 H 1781.65 5.32663 -2.76388 0
M  V30 18922 H 1782.72 3.9163 -2.85926 0
M  V30 18923 N 1784.07 0.805805 1.35442 0
M  V30 18924 C 1785.02 0.188328 2.27221 0
M  V30 18925 C 1786 -0.637384 1.47737 0
M  V30 18926 O 1787.19 -0.49477 1.69944 0
M  V30 18927 C 1784.32 -0.662862 3.3684 0
M  V30 18928 C 1783.41 0.172537 4.23749 0
M  V30 18929 N 1783.8 1.23516 4.90487 0
M  V30 18930 C 1782.1 -0.0459629 4.45976 0
M  V30 18931 C 1782.8 1.74511 5.54906 0
M  V30 18932 N 1781.77 1.05168 5.3333 0
M  V30 18933 H 1785.58 1.00141 2.76313 0
M  V30 18934 H 1783.09 0.646886 1.4896 0
M  V30 18935 H 1785.09 -1.12126 4.01539 0
M  V30 18936 H 1783.75 -1.4743 2.893 0
M  V30 18937 H 1784.76 1.6178 4.91983 0
M  V30 18938 H 1781.43 -0.826604 4.09235 0
M  V30 18939 H 1782.82 2.63317 6.18154 0
M  V30 18940 N 1785.54 -1.47344 0.559239 0
M  V30 18941 C 1786.79 -2.01672 0.0337843 0
M  V30 18942 C 1787.11 -1.43883 -1.32503 0
M  V30 18943 O 1788.31 -1.89885 -1.94051 0
M  V30 18944 C 1786.77 -3.59899 0.00989925 0
M  V30 18945 C 1786.38 -4.2668 1.3656 0
M  V30 18946 C 1788.12 -4.21969 -0.462842 0
M  V30 18947 C 1786.03 -5.76919 1.30071 0
M  V30 18948 H 1784.96 -0.753948 0.00885972 0
M  V30 18949 H 1787.61 -1.69317 0.707394 0
M  V30 18950 H 1785.99 -3.89225 -0.729399 0
M  V30 18951 H 1787.16 -4.08993 2.12277 0
M  V30 18952 H 1785.48 -3.76605 1.77644 0
M  V30 18953 H 1788.08 -5.32069 -0.529816 0
M  V30 18954 H 1788.42 -3.89283 -1.47528 0
M  V30 18955 H 1788.95 -3.97182 0.221661 0
M  V30 18956 H 1785.69 -6.14227 2.28921 0
M  V30 18957 H 1785.21 -5.96937 0.585375 0
M  V30 18958 H 1786.89 -6.39168 1.00364 0
M  V30 18959 N 1787.02 -0.295795 -1.54799 0
M  V30 18960 C 1787.99 0.569699 -2.22007 0
M  V30 18961 C 1788.99 1.06535 -1.20445 0
M  V30 18962 O 1790.18 0.962212 -1.45214 0
M  V30 18963 C 1787.31 1.78821 -2.90234 0
M  V30 18964 H 1788.5 -0.0174148 -2.99895 0
M  V30 18965 H 1786.05 -0.0465813 -1.56231 0
M  V30 18966 H 1786.79 2.4153 -2.16412 0
M  V30 18967 H 1786.57 1.44051 -3.6468 0
M  V30 18968 H 1788.06 2.40321 -3.41519 0
M  V30 18969 N 1788.5 1.57583 -0.0234236 0
M  V30 18970 C 1789.43 2.06766 0.988961 0
M  V30 18971 C 1790.45 0.98998 1.29241 0
M  V30 18972 O 1791.64 1.2663 1.25806 0
M  V30 18973 C 1788.74 2.47244 2.31784 0
M  V30 18974 C 1787.91 3.78023 2.20039 0
M  V30 18975 C 1786.97 4.05113 3.35812 0
M  V30 18976 O 1785.99 4.75447 3.12952 0
M  V30 18977 N 1787.2 3.5484 4.59422 0
M  V30 18978 H 1789.96 2.94242 0.569355 0
M  V30 18979 H 1787.52 1.61073 0.163461 0
M  V30 18980 H 1789.51 2.62463 3.08051 0
M  V30 18981 H 1788.08 1.65163 2.65405 0
M  V30 18982 H 1787.3 3.72656 1.28534 0
M  V30 18983 H 1788.59 4.63717 2.09389 0
M  V30 18984 H 1787.99 2.97928 4.8089 0
M  V30 18985 H 1786.55 3.75348 5.32877 0
M  V30 18986 N 1789.98 -0.249655 1.5561 0
M  V30 18987 C 1790.94 -1.29242 1.89286 0
M  V30 18988 C 1791.94 -1.41214 0.769104 0
M  V30 18989 O 1793.13 -1.39962 1.03712 0
M  V30 18990 C 1790.26 -2.67053 2.11885 0
M  V30 18991 H 1791.46 -1.00601 2.82523 0
M  V30 18992 H 1789.01 -0.488819 1.4846 0
M  V30 18993 H 1789.75 -3.00838 1.21107 0
M  V30 18994 H 1789.53 -2.59745 2.93726 0
M  V30 18995 H 1791.02 -3.42353 2.39132 0
M  V30 18996 N 1791.46 -1.48941 -0.515198 0
M  V30 18997 C 1792.73 -1.48205 -1.27651 0
M  V30 18998 C 1793.11 -0.201866 -2.10133 0
M  V30 18999 O 1792.46 0.816115 -2.13429 0
M  V30 19000 C 1792.67 -2.75274 -2.14535 0
M  V30 19001 C 1794.02 -3.24198 -2.74192 0
M  V30 19002 O 1795.04 -2.76293 -2.24813 0
M  V30 19003 O 1793.9 -4.07593 -3.64047 0
M  V30 19004 H 1791 -0.592546 -0.576904 0
M  V30 19005 H 1793.54 -1.6119 -0.530636 0
M  V30 19006 H 1792.32 -3.59949 -1.53469 0
M  V30 19007 H 1791.94 -2.6508 -2.96342 0
M  V30 19008 N 1792.94 0.765193 -1.37777 0
M  V30 19009 C 1793.9 1.8603 -1.33886 0
M  V30 19010 C 1794.9 1.58974 -0.241614 0
M  V30 19011 O 1796.09 1.66935 -0.497843 0
M  V30 19012 C 1793.22 3.2329 -1.08151 0
M  V30 19013 H 1794.41 1.9089 -2.31303 0
M  V30 19014 H 1791.97 0.965653 -1.22902 0
M  V30 19015 H 1792.7 3.24103 -0.112926 0
M  V30 19016 H 1792.49 3.4432 -1.8758 0
M  V30 19017 H 1793.98 4.03367 -1.08095 0
M  V30 19018 N 1794.41 1.22455 0.992094 0
M  V30 19019 C 1795.32 1.01173 2.11663 0
M  V30 19020 C 1796.34 -0.0402168 1.73954 0
M  V30 19021 O 1797.52 0.152685 2.0082 0
M  V30 19022 C 1794.58 0.592995 3.41591 0
M  V30 19023 C 1793.64 1.71865 3.93397 0
M  V30 19024 C 1792.87 1.3198 5.17124 0
M  V30 19025 O 1793.1 0.198943 5.70053 0
M  V30 19026 O 1792.03 2.13658 5.62702 0
M  V30 19027 H 1795.86 1.9539 2.32501 0
M  V30 19028 H 1793.44 1.01056 1.10036 0
M  V30 19029 H 1795.32 0.36987 4.19774 0
M  V30 19030 H 1794 -0.320311 3.22111 0
M  V30 19031 H 1792.91 1.9963 3.16384 0
M  V30 19032 H 1794.24 2.60985 4.1731 0
M  V30 19033 N 1795.89 -1.18905 1.03437 0
M  V30 19034 C 1797.17 -1.84537 0.648503 0
M  V30 19035 C 1797.55 -1.92228 -0.872445 0
M  V30 19036 O 1796.9 -1.44342 -1.77137 0
M  V30 19037 C 1797.11 -3.23198 1.31698 0
M  V30 19038 C 1798.45 -3.99301 1.44374 0
M  V30 19039 O 1799.48 -3.32615 1.27458 0
M  V30 19040 O 1798.34 -5.18767 1.7188 0
M  V30 19041 H 1795.43 -0.795488 0.226114 0
M  V30 19042 H 1797.98 -1.2635 1.13287 0
M  V30 19043 H 1796.75 -3.12466 2.35543 0
M  V30 19044 H 1796.37 -3.89035 0.820829 0
M  V30 19045 N 1797.37 -0.812977 -1.35013 0
M  V30 19046 C 1798.59 -0.407969 -2.03348 0
M  V30 19047 C 1799.02 0.975148 -1.60849 0
M  V30 19048 O 1798.38 1.63267 -0.788256 0
M  V30 19049 C 1798.43 -0.506754 -3.57022 0
M  V30 19050 O 1797.53 0.477322 -4.09628 0
M  V30 19051 H 1796.87 -0.169416 -0.642023 0
M  V30 19052 H 1799.4 -1.10064 -1.72474 0
M  V30 19053 H 1799.41 -0.378883 -4.06237 0
M  V30 19054 H 1798.09 -1.51557 -3.87302 0
M  V30 19055 H 1796.66 0.309161 -3.71616 0
M  V30 19056 N 1798.85 1.47045 -0.567045 0
M  V30 19057 C 1800.26 1.86202 -0.13627 0
M  V30 19058 C 1800.61 1.47252 1.29658 0
M  V30 19059 O 1799.73 0.880121 1.97694 0
M  V30 19060 C 1800.33 3.37945 -0.240528 0
M  V30 19061 C 1798.89 3.76157 0.135272 0
M  V30 19062 C 1798.04 2.71089 -0.583628 0
M  V30 19063 H 1800.99 1.38423 -0.776196 0
M  V30 19064 H 1801.01 3.76673 0.538293 0
M  V30 19065 H 1800.52 3.66263 -1.28348 0
M  V30 19066 H 1798.62 3.53456 1.17896 0
M  V30 19067 H 1798.73 4.78547 -0.230137 0
M  V30 19068 H 1797.1 2.54687 -0.0256067 0
M  V30 19069 H 1797.88 3.02247 -1.62792 0
M  V30 19070 N 1800.33 0.304 1.5464 0
M  V30 19071 C 1801.74 -0.188042 1.85751 0
M  V30 19072 C 1802.09 -1.53186 1.22591 0
M  V30 19073 O 1801.21 -2.09943 0.524696 0
M  V30 19074 C 1801.81 -0.347976 3.37008 0
M  V30 19075 C 1800.37 -0.784238 3.68139 0
M  V30 19076 C 1799.51 0.105654 2.77099 0
M  V30 19077 H 1802.46 0.524918 1.49767 0
M  V30 19078 H 1802.49 -1.18207 3.61673 0
M  V30 19079 H 1802 0.630227 3.82949 0
M  V30 19080 H 1800.1 -1.77288 3.27719 0
M  V30 19081 H 1800.21 -0.601546 4.75309 0
M  V30 19082 H 1798.58 -0.415561 2.51287 0
M  V30 19083 H 1799.36 1.08027 3.25861 0
M  V30 19084 N 1801.8 -1.57568 0.0317802 0
M  V30 19085 C 1803.03 -1.9662 -0.659953 0
M  V30 19086 C 1803.45 -0.908334 -1.64715 0
M  V30 19087 O 1802.81 0.130491 -1.8083 0
M  V30 19088 C 1802.86 -3.34765 -1.34033 0
M  V30 19089 O 1801.96 -3.31317 -2.45566 0
M  V30 19090 H 1801.3 -0.641024 -0.17316 0
M  V30 19091 H 1803.83 -2.04382 0.0944231 0
M  V30 19092 H 1803.84 -3.71056 -1.69651 0
M  V30 19093 H 1802.52 -4.11302 -0.616716 0
M  V30 19094 H 1801.1 -3.06746 -2.1204 0
M  V30 19095 N 1803.28 0.241399 -1.5574 0
M  V30 19096 C 1804.21 1.30255 -1.93793 0
M  V30 19097 C 1805.19 1.49923 -0.803563 0
M  V30 19098 O 1806.38 1.62439 -1.06429 0
M  V30 19099 C 1803.51 2.65625 -2.23742 0
M  V30 19100 C 1802.46 2.60645 -3.39483 0
M  V30 19101 C 1801.79 3.99861 -3.54986 0
M  V30 19102 C 1803.09 2.17151 -4.75019 0
M  V30 19103 H 1804.78 0.986532 -2.8268 0
M  V30 19104 H 1802.33 0.473125 -1.36006 0
M  V30 19105 H 1804.28 3.40001 -2.48953 0
M  V30 19106 H 1803.01 2.98874 -1.31688 0
M  V30 19107 H 1801.66 1.88727 -3.14289 0
M  V30 19108 H 1801.31 4.30385 -2.60342 0
M  V30 19109 H 1801.01 3.97415 -4.32822 0
M  V30 19110 H 1802.54 4.75928 -3.82524 0
M  V30 19111 H 1803.95 2.8126 -4.99565 0
M  V30 19112 H 1802.35 2.25805 -5.55996 0
M  V30 19113 H 1803.42 1.12329 -4.7171 0
M  V30 19114 N 1804.76 1.49212 0.507292 0
M  V30 19115 C 1805.69 1.61529 1.62606 0
M  V30 19116 C 1806.71 0.498303 1.54986 0
M  V30 19117 O 1807.89 0.7701 1.61033 0
M  V30 19118 C 1804.99 1.55015 3.0137 0
M  V30 19119 C 1804.17 2.8214 3.34239 0
M  V30 19120 C 1803.23 2.68765 4.52385 0
M  V30 19121 O 1802.25 3.42691 4.54479 0
M  V30 19122 N 1803.45 1.7989 5.51924 0
M  V30 19123 H 1806.22 2.58018 1.52469 0
M  V30 19124 H 1803.78 1.46222 0.695042 0
M  V30 19125 H 1805.77 1.4373 3.78317 0
M  V30 19126 H 1804.34 0.6641 3.05464 0
M  V30 19127 H 1803.56 3.07823 2.46249 0
M  V30 19128 H 1804.85 3.66432 3.52994 0
M  V30 19129 H 1804.25 1.19074 5.53026 0
M  V30 19130 H 1802.81 1.74531 6.27999 0
M  V30 19131 N 1806.24 -0.757876 1.38181 0
M  V30 19132 C 1807.65 -1.06035 1.19284 0
M  V30 19133 C 1807.85 -2.01463 0.0385482 0
M  V30 19134 O 1806.91 -2.44845 -0.61703 0
M  V30 19135 C 1808.22 -1.64455 2.51744 0
M  V30 19136 C 1809.77 -1.76646 2.58389 0
M  V30 19137 C 1810.25 -2.38478 3.91014 0
M  V30 19138 N 1811.74 -2.45914 3.92531 0
M  V30 19139 C 1812.47 -2.94641 4.91909 0
M  V30 19140 N 1811.97 -3.43435 6.01684 0
M  V30 19141 N 1813.76 -2.93642 4.79303 0
M  V30 19142 H 1805.91 -0.124532 2.12035 0
M  V30 19143 H 1808.18 -0.117876 0.940643 0
M  V30 19144 H 1807.88 -1.01804 3.36644 0
M  V30 19145 H 1807.76 -2.63573 2.69832 0
M  V30 19146 H 1810.14 -2.38426 1.73888 0
M  V30 19147 H 1810.22 -0.762449 2.44173 0
M  V30 19148 H 1809.87 -1.77334 4.75936 0
M  V30 19149 H 1809.8 -3.39513 4.0254 0
M  V30 19150 H 1812.29 -2.11398 3.1324 0
M  V30 19151 H 1812.6 -3.79059 6.73449 0
M  V30 19152 H 1810.95 -3.41504 6.0531 0
M  V30 19153 H 1814.14 -2.5483 3.92657 0
M  V30 19154 H 1814.31 -3.31304 5.56903 0
M  V30 19155 N 1807.72 -1.22979 -0.985586 0
M  V30 19156 C 1808.67 -0.973592 -2.06168 0
M  V30 19157 C 1809.65 0.0785071 -1.60708 0
M  V30 19158 O 1810.84 -0.132958 -1.765 0
M  V30 19159 C 1807.97 -0.561129 -3.38683 0
M  V30 19160 C 1807.06 -1.64835 -3.90756 0
M  V30 19161 N 1807.45 -2.87758 -4.15967 0
M  V30 19162 C 1805.75 -1.52173 -4.19237 0
M  V30 19163 C 1806.45 -3.58113 -4.58399 0
M  V30 19164 N 1805.42 -2.85609 -4.62524 0
M  V30 19165 H 1809.23 -1.90723 -2.23611 0
M  V30 19166 H 1806.74 -1.12841 -1.16793 0
M  V30 19167 H 1808.74 -0.358874 -4.15353 0
M  V30 19168 H 1807.4 0.365524 -3.22636 0
M  V30 19169 H 1808.41 -3.24114 -4.03943 0
M  V30 19170 H 1805.08 -0.661807 -4.12221 0
M  V30 19171 H 1806.47 -4.63465 -4.86467 0
M  V30 19172 N 1809.19 1.18355 -1.04066 0
M  V30 19173 C 1810.42 1.92816 -0.763979 0
M  V30 19174 C 1810.84 1.75658 0.672749 0
M  V30 19175 O 1810.2 1.06671 1.46598 0
M  V30 19176 C 1810.25 3.42267 -1.13516 0
M  V30 19177 O 1809.35 4.11576 -0.260646 0
M  V30 19178 H 1808.7 0.601532 -0.281167 0
M  V30 19179 H 1811.23 1.50087 -1.3905 0
M  V30 19180 H 1811.24 3.92973 -1.09709 0
M  V30 19181 H 1809.91 3.54076 -2.18181 0
M  V30 19182 H 1808.49 3.71174 -0.358342 0
M  V30 19183 N 1810.67 0.820125 1.3458 0
M  V30 19184 C 1811.6 0.254709 2.32107 0
M  V30 19185 C 1812.58 -0.6273 1.58111 0
M  V30 19186 O 1813.77 -0.554759 1.86108 0
M  V30 19187 C 1810.9 -0.586541 3.42311 0
M  V30 19188 C 1809.85 0.198096 4.27541 0
M  V30 19189 C 1809.18 -0.765718 5.29189 0
M  V30 19190 C 1810.48 1.40472 5.03056 0
M  V30 19191 H 1812.17 1.06955 2.79644 0
M  V30 19192 H 1809.72 0.515756 1.34447 0
M  V30 19193 H 1811.67 -0.992259 4.09551 0
M  V30 19194 H 1810.4 -1.4344 2.93415 0
M  V30 19195 H 1809.05 0.585149 3.619 0
M  V30 19196 H 1808.7 -1.60946 4.76556 0
M  V30 19197 H 1808.4 -0.244954 5.87089 0
M  V30 19198 H 1809.93 -1.16935 5.99298 0
M  V30 19199 H 1811.34 1.07316 5.63166 0
M  V30 19200 H 1809.74 1.86092 5.70517 0
M  V30 19201 H 1810.81 2.18437 4.32913 0
M  V30 19202 N 1812.15 -1.46743 0.574835 0
M  V30 19203 C 1813.11 -2.28691 -0.152633 0
M  V30 19204 C 1814.11 -1.37949 -0.826238 0
M  V30 19205 O 1815.3 -1.60405 -0.679398 0
M  V30 19206 C 1812.44 -3.1812 -1.22525 0
M  V30 19207 H 1813.63 -2.94483 0.567439 0
M  V30 19208 H 1811.18 -1.52723 0.33248 0
M  V30 19209 H 1811.92 -2.57058 -1.97716 0
M  V30 19210 H 1811.7 -3.84922 -0.746841 0
M  V30 19211 H 1813.19 -3.7982 -1.7357 0
M  V30 19212 N 1813.63 -0.312197 -1.54477 0
M  V30 19213 C 1814.59 0.54612 -2.22599 0
M  V30 19214 C 1815.59 1.05252 -1.21568 0
M  V30 19215 O 1816.78 0.946756 -1.46226 0
M  V30 19216 C 1813.91 1.75733 -2.92114 0
M  V30 19217 H 1815.11 -0.0492216 -2.9986 0
M  V30 19218 H 1812.66 -0.063149 -1.56172 0
M  V30 19219 H 1813.39 2.39221 -2.18961 0
M  V30 19220 H 1813.18 1.40175 -3.66188 0
M  V30 19221 H 1814.67 2.36685 -3.44049 0
M  V30 19222 N 1815.11 1.57549 -0.040136 0
M  V30 19223 C 1816.52 1.56434 0.316341 0
M  V30 19224 C 1816.72 1.04679 1.72176 0
M  V30 19225 O 1815.78 0.698444 2.42648 0
M  V30 19226 C 1817.09 3.00301 0.154883 0
M  V30 19227 C 1818.64 3.12177 0.226821 0
M  V30 19228 C 1819.11 4.57903 0.0940219 0
M  V30 19229 N 1820.61 4.62955 0.150654 0
M  V30 19230 C 1821.34 5.73355 0.0718466 0
M  V30 19231 N 1820.84 6.92775 -0.0586777 0
M  V30 19232 N 1822.63 5.61957 0.126632 0
M  V30 19233 H 1814.78 1.89516 -0.959032 0
M  V30 19234 H 1817.04 0.872251 -0.371324 0
M  V30 19235 H 1816.75 3.42158 -0.813674 0
M  V30 19236 H 1816.62 3.65795 0.920521 0
M  V30 19237 H 1819.01 2.70225 1.18584 0
M  V30 19238 H 1819.09 2.49383 -0.569384 0
M  V30 19239 H 1818.74 5.00538 -0.861629 0
M  V30 19240 H 1818.67 5.18691 0.909231 0
M  V30 19241 H 1821.16 3.77064 0.251232 0
M  V30 19242 H 1821.47 7.72719 -0.111818 0
M  V30 19243 H 1819.81 6.94937 -0.0936119 0
M  V30 19244 H 1823.01 4.67549 0.227081 0
M  V30 19245 H 1823.18 6.47971 0.0617551 0
M  V30 19246 N 1816.58 -0.233136 1.55866 0
M  V30 19247 C 1817.81 -0.974999 1.82146 0
M  V30 19248 C 1818.22 -1.7891 0.615456 0
M  V30 19249 O 1817.57 -1.78707 -0.42537 0
M  V30 19250 C 1817.63 -1.95048 3.01988 0
M  V30 19251 C 1817.29 -1.32201 4.37461 0
M  V30 19252 C 1818.29 -0.717627 5.14923 0
M  V30 19253 C 1815.97 -1.33725 4.84173 0
M  V30 19254 C 1817.97 -0.136864 6.37253 0
M  V30 19255 C 1815.65 -0.752633 6.06448 0
M  V30 19256 C 1816.65 -0.153484 6.82828 0
M  V30 19257 O 1816.34 0.422063 8.02791 0
M  V30 19258 H 1816.07 -0.291889 0.609735 0
M  V30 19259 H 1818.63 -0.257048 2.03785 0
M  V30 19260 H 1816.86 -2.70711 2.76138 0
M  V30 19261 H 1818.55 -2.55692 3.1524 0
M  V30 19262 H 1819.31 -0.698263 4.79947 0
M  V30 19263 H 1815.19 -1.79298 4.24704 0
M  V30 19264 H 1818.73 0.331417 6.96812 0
M  V30 19265 H 1814.63 -0.769371 6.40899 0
M  V30 19266 H 1815.4 0.315258 8.17893 0
M  V30 19267 N 1818.06 -1.49479 -0.499372 0
M  V30 19268 C 1819.29 -1.62524 -1.27552 0
M  V30 19269 C 1819.7 -0.296533 -1.86862 0
M  V30 19270 O 1819.04 0.728236 -1.68649 0
M  V30 19271 C 1819.11 -2.63674 -2.44369 0
M  V30 19272 C 1818.77 -4.0798 -2.05916 0
M  V30 19273 C 1819.77 -4.94733 -1.59797 0
M  V30 19274 C 1817.45 -4.53723 -2.15501 0
M  V30 19275 C 1819.45 -6.25268 -1.23768 0
M  V30 19276 C 1817.13 -5.84271 -1.79084 0
M  V30 19277 C 1818.13 -6.69867 -1.33292 0
M  V30 19278 O 1817.82 -7.97982 -0.97368 0
M  V30 19279 H 1817.55 -0.550018 -0.393009 0
M  V30 19280 H 1820.11 -1.96261 -0.605856 0
M  V30 19281 H 1818.34 -2.2512 -3.14417 0
M  V30 19282 H 1820.02 -2.66231 -3.06392 0
M  V30 19283 H 1820.79 -4.6062 -1.51836 0
M  V30 19284 H 1816.67 -3.87264 -2.50095 0
M  V30 19285 H 1820.21 -6.92033 -0.879542 0
M  V30 19286 H 1816.11 -6.17912 -1.86695 0
M  V30 19287 H 1816.88 -8.11007 -1.10501 0
M  V30 19288 N 1819.54 0.750537 -1.38581 0
M  V30 19289 C 1820.49 1.88571 -1.36176 0
M  V30 19290 C 1821.48 1.67587 -0.247175 0
M  V30 19291 O 1822.69 1.75118 -0.416377 0
M  V30 19292 H 1819.06 0.620468 -0.424881 0
M  V30 19293 H 1821.04 1.87716 -2.3196 0
M  V30 19294 C 1819.78 3.26088 -1.20673 0
M  V30 19295 H 1819.11 3.42822 -2.05701 0
M  V30 19296 H 1820.55 4.05754 -1.23044 0
M  V30 19297 C 1819.01 3.3679 0.0861189 0
M  V30 19298 O 1819.54 3.87407 1.06203 0
M  V30 19299 N 1817.74 2.90243 0.143977 0
M  V30 19300 H 1817.29 2.49242 -0.650869 0
M  V30 19301 H 1817.25 2.97784 1.00857 0
M  V30 19302 N 1821.02 1.235 0.979051 0
M  V30 19303 C 1822.27 1.07956 1.72387 0
M  V30 19304 C 1822.62 -0.379427 1.88622 0
M  V30 19305 O 1821.91 -1.27702 1.42838 0
M  V30 19306 C 1822.11 1.74004 3.12182 0
M  V30 19307 C 1821.94 3.26174 3.09581 0
M  V30 19308 C 1820.71 3.95341 3.14696 0
M  V30 19309 C 1822.9 4.22924 2.92643 0
M  V30 19310 N 1820.89 5.34483 3.01996 0
M  V30 19311 C 1822.26 5.48988 2.88119 0
M  V30 19312 C 1824.31 4.13641 2.77138 0
M  V30 19313 C 1823.02 6.66834 2.69676 0
M  V30 19314 C 1825.04 5.31152 2.6006 0
M  V30 19315 C 1824.4 6.56143 2.56235 0
M  V30 19316 H 1820.5 0.449578 0.639847 0
M  V30 19317 H 1823.09 1.56249 1.16165 0
M  V30 19318 H 1821.26 1.28241 3.66618 0
M  V30 19319 H 1822.99 1.51423 3.75304 0
M  V30 19320 H 1819.74 3.46429 3.2293 0
M  V30 19321 H 1820.17 6.07435 2.98917 0
M  V30 19322 H 1824.81 3.17778 2.78885 0
M  V30 19323 H 1822.53 7.62831 2.66674 0
M  V30 19324 H 1826.11 5.25812 2.49024 0
M  V30 19325 H 1824.99 7.4554 2.43185 0
M  V30 19326 N 1822.5 -1.17802 1.04693 0
M  V30 19327 C 1823.74 -1.88217 0.755141 0
M  V30 19328 C 1824.08 -1.8053 -0.715731 0
M  V30 19329 O 1823.35 -1.20987 -1.52291 0
M  V30 19330 C 1823.63 -3.38447 1.22986 0
M  V30 19331 C 1823.49 -3.54911 2.7633 0
M  V30 19332 C 1824.81 -4.323 0.824891 0
M  V30 19333 H 1821.93 -0.683452 0.275795 0
M  V30 19334 H 1824.57 -1.38561 1.30004 0
M  V30 19335 H 1822.72 -3.80868 0.7663 0
M  V30 19336 H 1824.39 -3.2154 3.30771 0
M  V30 19337 H 1822.63 -2.97357 3.1585 0
M  V30 19338 H 1823.3 -4.60347 3.04606 0
M  V30 19339 H 1825.78 -3.97694 1.22389 0
M  V30 19340 H 1824.66 -5.35962 1.18472 0
M  V30 19341 H 1824.92 -4.41265 -0.27151 0
M  V30 19342 N 1823.98 -0.827251 -1.34143 0
M  V30 19343 C 1825.2 -0.429514 -2.02904 0
M  V30 19344 C 1825.63 0.958033 -1.61874 0
M  V30 19345 O 1824.98 1.62422 -0.805528 0
M  V30 19346 C 1825.03 -0.544592 -3.56464 0
M  V30 19347 O 1824.14 0.433849 -4.10112 0
M  V30 19348 H 1823.48 -0.176216 -0.64019 0
M  V30 19349 H 1826.01 -1.11887 -1.71297 0
M  V30 19350 H 1826.02 -0.421949 -4.05812 0
M  V30 19351 H 1824.69 -1.55657 -3.85673 0
M  V30 19352 H 1823.27 0.269729 -3.71923 0
M  V30 19353 N 1825.45 1.46436 -0.582609 0
M  V30 19354 C 1826.7 2.02385 -0.0681494 0
M  V30 19355 C 1827.03 1.4541 1.29175 0
M  V30 19356 O 1826.28 0.609021 1.85982 0
M  V30 19357 C 1826.58 3.57368 0.0476745 0
M  V30 19358 C 1826.25 4.33382 -1.24462 0
M  V30 19359 C 1824.91 4.53868 -1.59866 0
M  V30 19360 C 1827.26 4.7703 -2.09981 0
M  V30 19361 C 1824.59 5.15254 -2.80589 0
M  V30 19362 C 1826.94 5.39749 -3.29929 0
M  V30 19363 C 1825.61 5.58463 -3.65616 0
M  V30 19364 H 1824.88 0.74058 -0.0249376 0
M  V30 19365 H 1827.52 1.75807 -0.759226 0
M  V30 19366 H 1825.83 3.83083 0.821879 0
M  V30 19367 H 1827.53 3.98336 0.461487 0
M  V30 19368 H 1824.12 4.17734 -0.958993 0
M  V30 19369 H 1828.3 4.60959 -1.83931 0
M  V30 19370 H 1823.56 5.27934 -3.08376 0
M  V30 19371 H 1827.73 5.72529 -3.96464 0
M  V30 19372 H 1825.36 6.05799 -4.59252 0
M  V30 19373 N 1826.93 0.320385 1.54309 0
M  V30 19374 C 1828.34 -0.16833 1.8594 0
M  V30 19375 C 1828.69 -1.51877 1.24208 0
M  V30 19376 O 1827.82 -2.09374 0.546933 0
M  V30 19377 C 1828.41 -0.312212 3.37358 0
M  V30 19378 C 1826.97 -0.745147 3.68951 0
M  V30 19379 C 1826.12 0.135038 2.76971 0
M  V30 19380 H 1829.07 0.540773 1.49202 0
M  V30 19381 H 1829.09 -1.14364 3.62906 0
M  V30 19382 H 1828.6 0.670809 3.82259 0
M  V30 19383 H 1826.7 -1.73803 3.29581 0
M  V30 19384 H 1826.82 -0.5511 4.7592 0
M  V30 19385 H 1825.18 -0.388886 2.51714 0
M  V30 19386 H 1825.96 1.11477 3.24697 0
M  V30 19387 N 1828.41 -1.57525 0.0484906 0
M  V30 19388 C 1829.66 -1.92204 -0.624654 0
M  V30 19389 C 1829.98 -0.927289 -1.71541 0
M  V30 19390 O 1829.25 0.0282687 -1.9588 0
M  V30 19391 H 1827.83 -0.709494 -0.233724 0
M  V30 19392 H 1830.49 -1.94639 0.100861 0
M  V30 19393 H 1829.59 -2.93368 -1.06498 0
M  V30 19394 N 1829.89 0.224867 -1.55988 0
M  V30 19395 C 1831.13 0.956853 -1.8062 0
M  V30 19396 C 1831.49 1.81663 -0.621483 0
M  V30 19397 O 1832.69 2.58211 -0.747043 0
M  V30 19398 C 1830.96 1.77638 -3.10128 0
M  V30 19399 S 1832.52 2.56445 -3.56063 0
M  V30 19400 H 1829.34 0.321476 -0.634172 0
M  V30 19401 H 1831.94 0.222719 -1.94227 0
M  V30 19402 H 1830.65 1.13484 -3.94398 0
M  V30 19403 H 1830.18 2.55287 -2.99319 0
M  V30 19404 H 1832.19 3.79954 -3.19139 0
M  V30 19405 N 1831.37 1.49742 0.491438 0
M  V30 19406 C 1832.3 1.70033 1.60034 0
M  V30 19407 C 1833.28 0.549076 1.60994 0
M  V30 19408 O 1834.46 0.785983 1.77584 0
M  V30 19409 C 1831.59 1.7757 2.98473 0
M  V30 19410 C 1830.55 2.9258 3.12379 0
M  V30 19411 C 1829.87 2.85239 4.52264 0
M  V30 19412 C 1831.17 4.33385 2.91504 0
M  V30 19413 H 1832.87 2.62875 1.43307 0
M  V30 19414 H 1830.41 1.26502 0.687989 0
M  V30 19415 H 1832.36 1.90351 3.75958 0
M  V30 19416 H 1831.09 0.813343 3.1631 0
M  V30 19417 H 1829.75 2.79417 2.37322 0
M  V30 19418 H 1829.4 1.86892 4.66991 0
M  V30 19419 H 1829.1 3.62437 4.62508 0
M  V30 19420 H 1830.62 3.00041 5.31797 0
M  V30 19421 H 1832.03 4.4718 3.58752 0
M  V30 19422 H 1830.43 5.11878 3.13211 0
M  V30 19423 H 1831.5 4.47166 1.87539 0
M  V30 19424 N 1832.84 -0.743177 1.38977 0
M  V30 19425 C 1833.81 -1.83876 1.36829 0
M  V30 19426 C 1834.81 -1.5857 0.266875 0
M  V30 19427 O 1836 -1.66121 0.524337 0
M  V30 19428 C 1833.13 -3.21528 1.1328 0
M  V30 19429 H 1834.32 -1.87186 2.3431 0
M  V30 19430 H 1831.88 -0.945979 1.24422 0
M  V30 19431 H 1832.61 -3.23883 0.164474 0
M  V30 19432 H 1832.4 -3.41292 1.93034 0
M  V30 19433 H 1833.89 -4.01597 1.14498 0
M  V30 19434 N 1834.32 -1.24018 -0.972487 0
M  V30 19435 C 1835.74 -1.00454 -1.24021 0
M  V30 19436 C 1835.94 0.289568 -1.99409 0
M  V30 19437 O 1834.99 1.00696 -2.31552 0
M  V30 19438 C 1836.31 -2.21651 -2.03202 0
M  V30 19439 C 1837.86 -2.26225 -2.16312 0
M  V30 19440 C 1838.33 -3.47031 -2.98888 0
M  V30 19441 N 1839.82 -3.47318 -3.06471 0
M  V30 19442 C 1840.56 -4.3745 -3.70709 0
M  V30 19443 N 1840.05 -5.37829 -4.36705 0
M  V30 19444 N 1841.85 -4.25173 -3.67674 0
M  V30 19445 H 1834 -2.07187 -0.467668 0
M  V30 19446 H 1836.26 -0.908955 -0.269267 0
M  V30 19447 H 1835.97 -3.15608 -1.55191 0
M  V30 19448 H 1835.84 -2.2338 -3.03943 0
M  V30 19449 H 1838.23 -1.32803 -2.63529 0
M  V30 19450 H 1838.31 -2.28525 -1.14936 0
M  V30 19451 H 1837.95 -4.40765 -2.52366 0
M  V30 19452 H 1837.88 -3.41974 -4.00452 0
M  V30 19453 H 1840.37 -2.74695 -2.59521 0
M  V30 19454 H 1840.69 -6.02846 -4.83525 0
M  V30 19455 H 1839.03 -5.41721 -4.35389 0
M  V30 19456 H 1842.22 -3.45992 -3.15289 0
M  V30 19457 H 1842.39 -4.95617 -4.17454 0
M  V30 19458 N 1835.8 1.17245 -1.05316 0
M  V30 19459 C 1837.05 1.87165 -0.762471 0
M  V30 19460 C 1837.37 1.8151 0.712687 0
M  V30 19461 O 1836.64 1.2419 1.51504 0
M  V30 19462 H 1835.22 0.69292 -0.279054 0
M  V30 19463 H 1837.88 1.42227 -1.33257 0
M  V30 19464 H 1836.98 2.92872 -1.07854 0
M  V30 19465 N 1837.28 0.834353 1.33702 0
M  V30 19466 C 1838.24 0.269618 2.27609 0
M  V30 19467 C 1839.24 -0.559065 1.50768 0
M  V30 19468 O 1840.43 -0.373511 1.70149 0
M  V30 19469 C 1837.56 -0.620682 3.35202 0
M  V30 19470 H 1838.76 1.09819 2.79069 0
M  V30 19471 H 1836.31 0.607087 1.44028 0
M  V30 19472 H 1837.04 -1.47187 2.88975 0
M  V30 19473 H 1836.83 -0.0278102 3.9209 0
M  V30 19474 H 1838.32 -1.00924 4.05221 0
M  V30 19475 N 1838.76 -1.46125 0.590367 0
M  V30 19476 C 1839.67 -2.34177 -0.140761 0
M  V30 19477 C 1840.68 -1.50213 -0.878181 0
M  V30 19478 O 1841.86 -1.83063 -0.839644 0
M  V30 19479 C 1838.92 -3.27537 -1.13669 0
M  V30 19480 C 1837.98 -4.27403 -0.403103 0
M  V30 19481 C 1837.22 -5.16302 -1.35159 0
M  V30 19482 O 1837.44 -5.08283 -2.58853 0
M  V30 19483 O 1836.37 -5.95753 -0.858003 0
M  V30 19484 H 1840.2 -2.98063 0.582401 0
M  V30 19485 H 1837.79 -1.45225 0.35072 0
M  V30 19486 H 1839.67 -3.85112 -1.71074 0
M  V30 19487 H 1838.34 -2.66237 -1.84118 0
M  V30 19488 H 1837.25 -3.73493 0.212986 0
M  V30 19489 H 1838.58 -4.9151 0.260565 0
M  V30 19490 N 1840.23 -0.328564 -1.54137 0
M  V30 19491 C 1841.46 0.274326 -2.05073 0
M  V30 19492 C 1841.88 1.45393 -1.20442 0
M  V30 19493 O 1841.23 1.80964 -0.23625 0
M  V30 19494 C 1841.29 0.703941 -3.5458 0
M  V30 19495 O 1841.01 -0.428738 -4.35997 0
M  V30 19496 C 1842.51 1.36912 -4.21628 0
M  V30 19497 H 1839.73 0.0556157 -0.668691 0
M  V30 19498 H 1842.27 -0.476204 -1.98878 0
M  V30 19499 H 1840.43 1.40444 -3.61046 0
M  V30 19500 H 1840.84 -0.0892654 -5.24424 0
M  V30 19501 H 1842.31 1.62062 -5.27674 0
M  V30 19502 H 1842.79 2.31799 -3.73049 0
M  V30 19503 H 1843.4 0.711064 -4.19314 0
M  V30 19504 N 1841.71 1.57497 -0.0568439 0
M  V30 19505 C 1843.13 1.5676 0.299732 0
M  V30 19506 C 1843.33 1.065 1.71056 0
M  V30 19507 O 1842.38 0.72414 2.41893 0
M  V30 19508 C 1843.7 3.00448 0.123023 0
M  V30 19509 C 1845.25 3.124 0.193697 0
M  V30 19510 C 1845.72 4.57977 0.0454499 0
M  V30 19511 N 1847.21 4.63089 0.101543 0
M  V30 19512 C 1847.95 5.73399 0.0110306 0
M  V30 19513 N 1847.44 6.92674 -0.132152 0
M  V30 19514 N 1849.24 5.6206 0.0670216 0
M  V30 19515 H 1841.39 1.88488 -0.979078 0
M  V30 19516 H 1843.65 0.868264 -0.380554 0
M  V30 19517 H 1843.36 3.41276 -0.849919 0
M  V30 19518 H 1843.23 3.66751 0.881672 0
M  V30 19519 H 1845.62 2.71468 1.15712 0
M  V30 19520 H 1845.7 2.48765 -0.595802 0
M  V30 19521 H 1845.34 4.99596 -0.914669 0
M  V30 19522 H 1845.27 5.19626 0.854166 0
M  V30 19523 H 1847.76 3.77309 0.211226 0
M  V30 19524 H 1848.08 7.72557 -0.193769 0
M  V30 19525 H 1846.42 6.94799 -0.167314 0
M  V30 19526 H 1849.61 4.67763 0.177478 0
M  V30 19527 H 1849.78 6.48 -0.00697432 0
M  V30 19528 N 1843.19 -0.216591 1.56105 0
M  V30 19529 C 1844.44 -0.938392 1.78993 0
M  V30 19530 C 1844.76 -1.84671 0.626215 0
M  V30 19531 O 1844.03 -1.92626 -0.356636 0
M  V30 19532 H 1842.61 -0.349491 0.660201 0
M  V30 19533 H 1845.27 -0.227256 1.93571 0
M  V30 19534 H 1844.37 -1.54227 2.71331 0
M  V30 19535 N 1844.67 -1.5 -0.48349 0
M  V30 19536 C 1845.89 -1.64376 -1.26473 0
M  V30 19537 C 1846.32 -0.321912 -1.85325 0
M  V30 19538 O 1845.68 0.712714 -1.66704 0
M  V30 19539 C 1845.72 -2.72803 -2.35819 0
M  V30 19540 O 1844.83 -2.33194 -3.40139 0
M  V30 19541 H 1844.17 -0.549589 -0.372624 0
M  V30 19542 H 1846.7 -1.963 -0.57684 0
M  V30 19543 H 1846.71 -2.95505 -2.8132 0
M  V30 19544 H 1845.38 -3.68745 -1.92353 0
M  V30 19545 H 1843.96 -2.20891 -3.00436 0
M  V30 19546 N 1846.15 0.735796 -1.39369 0
M  V30 19547 C 1847.37 1.53013 -1.40007 0
M  V30 19548 C 1847.8 1.881 0.00368376 0
M  V30 19549 O 1847.15 1.51853 0.990469 0
M  V30 19550 C 1847.2 2.79474 -2.27874 0
M  V30 19551 O 1846.31 3.75364 -1.70808 0
M  V30 19552 H 1845.65 0.462117 -0.476806 0
M  V30 19553 H 1848.18 0.907868 -1.83355 0
M  V30 19554 H 1848.19 3.28217 -2.42358 0
M  V30 19555 H 1846.86 2.53268 -3.29891 0
M  V30 19556 H 1845.44 3.34131 -1.65562 0
M  V30 19557 N 1847.63 1.24532 0.965897 0
M  V30 19558 C 1849.04 1.0111 1.23486 0
M  V30 19559 C 1849.24 -0.278989 1.99559 0
M  V30 19560 O 1848.3 -0.99467 2.32083 0
M  V30 19561 C 1849.61 2.22726 2.02024 0
M  V30 19562 C 1851.16 2.27369 2.1511 0
M  V30 19563 C 1851.63 3.48611 2.97043 0
M  V30 19564 N 1853.12 3.48938 3.04625 0
M  V30 19565 C 1853.86 4.3941 3.68384 0
M  V30 19566 N 1853.36 5.40138 4.33847 0
M  V30 19567 N 1855.15 4.27117 3.65414 0
M  V30 19568 H 1847.3 2.07433 0.456674 0
M  V30 19569 H 1849.56 0.91037 0.264443 0
M  V30 19570 H 1849.27 3.16427 1.53515 0
M  V30 19571 H 1849.14 2.24989 3.02754 0
M  V30 19572 H 1851.53 1.34198 2.62821 0
M  V30 19573 H 1851.61 2.29131 1.13722 0
M  V30 19574 H 1851.25 4.42097 2.50025 0
M  V30 19575 H 1851.18 3.44093 3.98632 0
M  V30 19576 H 1853.68 2.76067 2.58061 0
M  V30 19577 H 1853.99 6.05402 4.80321 0
M  V30 19578 H 1852.33 5.44022 4.3251 0
M  V30 19579 H 1855.52 3.47659 3.1345 0
M  V30 19580 H 1855.7 4.97824 4.1482 0
M  V30 19581 N 1849.1 -1.16685 1.05936 0
M  V30 19582 C 1850.04 -2.19862 0.611219 0
M  V30 19583 C 1851.01 -1.58471 -0.364111 0
M  V30 19584 O 1852.2 -1.86499 -0.273946 0
M  V30 19585 C 1849.33 -3.38539 -0.104458 0
M  V30 19586 C 1848.37 -4.18404 0.82706 0
M  V30 19587 S 1849.2 -4.82619 2.32034 0
M  V30 19588 C 1850.36 -6.04677 1.61605 0
M  V30 19589 H 1850.59 -2.57535 1.48536 0
M  V30 19590 H 1848.13 -1.27418 0.872005 0
M  V30 19591 H 1850.08 -4.07305 -0.511162 0
M  V30 19592 H 1848.75 -2.99238 -0.954736 0
M  V30 19593 H 1847.94 -5.03261 0.272804 0
M  V30 19594 H 1847.54 -3.55113 1.17348 0
M  V30 19595 H 1849.83 -6.7123 0.919598 0
M  V30 19596 H 1850.78 -6.64645 2.44238 0
M  V30 19597 H 1851.18 -5.53675 1.1002 0
M  V30 19598 N 1850.58 -0.841432 -1.33258 0
M  V30 19599 C 1851.53 -0.274487 -2.29162 0
M  V30 19600 C 1852.5 0.611143 -1.54448 0
M  V30 19601 O 1853.68 0.548868 -1.82735 0
M  V30 19602 C 1850.82 0.542275 -3.40813 0
M  V30 19603 C 1849.94 -0.367664 -4.30433 0
M  V30 19604 C 1849.07 0.460447 -5.29201 0
M  V30 19605 C 1848.11 -0.447722 -6.1046 0
M  V30 19606 N 1847.25 0.342415 -7.01265 0
M  V30 19607 H 1852.09 -1.09762 -2.77049 0
M  V30 19608 H 1849.62 -0.552735 -1.3632 0
M  V30 19609 H 1851.58 1.03132 -4.04252 0
M  V30 19610 H 1850.21 1.33035 -2.94111 0
M  V30 19611 H 1849.26 -0.975032 -3.67692 0
M  V30 19612 H 1850.58 -1.0652 -4.87293 0
M  V30 19613 H 1849.73 1.01321 -5.9818 0
M  V30 19614 H 1848.47 1.19141 -4.72924 0
M  V30 19615 H 1847.47 -1.01248 -5.40397 0
M  V30 19616 H 1848.7 -1.17709 -6.68821 0
M  V30 19617 H 1846.65 1.05671 -6.47433 0
M  V30 19618 H 1846.56 -0.296356 -7.55419 0
M  V30 19619 H 1847.83 0.877331 -7.74547 0
M  V30 19620 N 1852.06 1.4581 -0.598108 0
M  V30 19621 C 1853.29 2.06679 -0.0956921 0
M  V30 19622 C 1853.7 1.44435 1.2159 0
M  V30 19623 O 1853.06 0.555104 1.73853 0
M  V30 19624 C 1853.11 3.61449 0.0604873 0
M  V30 19625 O 1852.83 4.21368 -1.1992 0
M  V30 19626 C 1854.33 4.39282 0.595466 0
M  V30 19627 H 1851.55 0.667893 -0.0644954 0
M  V30 19628 H 1854.1 1.87202 -0.823151 0
M  V30 19629 H 1852.25 3.80301 0.738231 0
M  V30 19630 H 1852.67 5.1443 -1.02282 0
M  V30 19631 H 1854.14 5.48114 0.653868 0
M  V30 19632 H 1854.62 4.084 1.61575 0
M  V30 19633 H 1855.22 4.25273 -0.0479171 0
M  V30 19634 N 1853.54 0.336733 1.53961 0
M  V30 19635 C 1854.78 -0.26186 2.008 0
M  V30 19636 C 1855.11 -1.51101 1.22469 0
M  V30 19637 O 1854.37 -1.9341 0.298485 0
M  V30 19638 C 1854.67 -0.628163 3.51836 0
M  V30 19639 C 1854.33 0.523319 4.47853 0
M  V30 19640 C 1852.99 0.83934 4.73823 0
M  V30 19641 C 1855.35 1.29615 5.04826 0
M  V30 19642 C 1852.67 1.93068 5.54023 0
M  V30 19643 C 1855.03 2.37768 5.86216 0
M  V30 19644 C 1853.69 2.69937 6.10483 0
M  V30 19645 H 1852.96 -0.0958214 0.734778 0
M  V30 19646 H 1855.61 0.463238 1.85813 0
M  V30 19647 H 1853.91 -1.43388 3.64619 0
M  V30 19648 H 1855.61 -1.10309 3.8553 0
M  V30 19649 H 1852.2 0.266944 4.27768 0
M  V30 19650 H 1856.38 1.06526 4.84733 0
M  V30 19651 H 1851.64 2.18423 5.71053 0
M  V30 19652 H 1855.81 2.98087 6.29378 0
M  V30 19653 H 1853.44 3.54629 6.72415 0
M  V30 19654 N 1855.02 -1.57465 0.0651956 0
M  V30 19655 C 1855.93 -2.15841 -0.919235 0
M  V30 19656 C 1856.94 -1.11984 -1.33175 0
M  V30 19657 O 1858.12 -1.44219 -1.4058 0
M  V30 19658 C 1855.18 -2.7032 -2.1709 0
M  V30 19659 C 1854.24 -3.89026 -1.81542 0
M  V30 19660 C 1853.48 -4.40897 -3.00742 0
M  V30 19661 O 1853.7 -3.91792 -4.14555 0
M  V30 19662 O 1852.63 -5.32312 -2.80941 0
M  V30 19663 H 1856.46 -3.00307 -0.452704 0
M  V30 19664 H 1854.04 -1.48567 -0.157504 0
M  V30 19665 H 1855.93 -3.05266 -2.90501 0
M  V30 19666 H 1854.6 -1.88917 -2.62854 0
M  V30 19667 H 1853.51 -3.58944 -1.05404 0
M  V30 19668 H 1854.84 -4.71701 -1.40567 0
M  V30 19669 N 1856.49 0.20831 -1.56217 0
M  V30 19670 C 1857.4 1.27891 -1.96675 0
M  V30 19671 C 1858.42 1.50546 -0.87246 0
M  V30 19672 O 1859.6 1.63418 -1.17713 0
M  V30 19673 C 1856.66 2.60598 -2.28669 0
M  V30 19674 C 1855.72 2.4613 -3.51736 0
M  V30 19675 C 1854.95 3.72509 -3.82195 0
M  V30 19676 O 1855.18 4.76105 -3.14133 0
M  V30 19677 O 1854.11 3.68828 -4.75657 0
M  V30 19678 H 1857.94 0.965607 -2.8794 0
M  V30 19679 H 1855.52 0.412249 -1.436 0
M  V30 19680 H 1857.4 3.38949 -2.50383 0
M  V30 19681 H 1856.08 2.91583 -1.40575 0
M  V30 19682 H 1854.99 1.65935 -3.35286 0
M  V30 19683 H 1856.32 2.20082 -4.40255 0
M  V30 19684 N 1857.97 1.50255 0.475528 0
M  V30 19685 C 1859.22 1.61022 1.22793 0
M  V30 19686 C 1859.55 0.308508 1.92038 0
M  V30 19687 O 1858.8 -0.70533 1.82547 0
M  V30 19688 C 1859.1 2.73698 2.29835 0
M  V30 19689 C 1858.77 4.14333 1.77873 0
M  V30 19690 C 1857.43 4.526 1.63423 0
M  V30 19691 C 1859.78 5.02247 1.39275 0
M  V30 19692 C 1857.11 5.76525 1.08791 0
M  V30 19693 C 1859.46 6.26715 0.860869 0
M  V30 19694 C 1858.12 6.63788 0.702959 0
M  V30 19695 H 1857.39 0.589221 0.449332 0
M  V30 19696 H 1860.04 1.84173 0.524633 0
M  V30 19697 H 1858.35 2.44617 3.06055 0
M  V30 19698 H 1860.04 2.79233 2.87802 0
M  V30 19699 H 1856.63 3.84142 1.90087 0
M  V30 19700 H 1860.82 4.73319 1.49276 0
M  V30 19701 H 1856.07 6.03927 0.952987 0
M  V30 19702 H 1860.25 6.942 0.553109 0
M  V30 19703 H 1857.87 7.59693 0.277471 0
M  V30 19704 N 1859.45 -0.728395 1.39758 0
M  V30 19705 C 1860.86 -1.30697 1.33323 0
M  V30 19706 C 1861.21 -1.962 0.000676614 0
M  V30 19707 O 1860.34 -1.96731 -0.90143 0
M  V30 19708 C 1860.93 -2.37656 2.41464 0
M  V30 19709 C 1859.49 -2.91171 2.3853 0
M  V30 19710 C 1858.64 -1.64812 2.23007 0
M  V30 19711 H 1861.59 -0.525429 1.4975 0
M  V30 19712 H 1861.61 -3.18202 2.08633 0
M  V30 19713 H 1861.12 -1.89953 3.38437 0
M  V30 19714 H 1859.22 -3.43137 1.45216 0
M  V30 19715 H 1859.34 -3.43836 3.33637 0
M  V30 19716 H 1857.7 -1.89397 1.70296 0
M  V30 19717 H 1858.48 -1.19151 3.21959 0
M  V30 19718 N 1860.93 -1.25042 -0.959279 0
M  V30 19719 C 1861.86 -0.993416 -2.05442 0
M  V30 19720 C 1862.84 0.0757423 -1.62423 0
M  V30 19721 O 1864.02 -0.0629495 -1.88395 0
M  V30 19722 C 1861.15 -0.500792 -3.34977 0
M  V30 19723 C 1860.2 -1.55978 -3.96955 0
M  V30 19724 S 1861.03 -3.14361 -4.33517 0
M  V30 19725 C 1862.18 -2.66823 -5.66177 0
M  V30 19726 H 1862.42 -1.92071 -2.26927 0
M  V30 19727 H 1859.95 -1.08521 -1.0983 0
M  V30 19728 H 1861.91 -0.223207 -4.09893 0
M  V30 19729 H 1860.57 0.405931 -3.11466 0
M  V30 19730 H 1859.76 -1.16569 -4.90334 0
M  V30 19731 H 1859.36 -1.7878 -3.28502 0
M  V30 19732 H 1861.66 -2.10159 -6.4408 0
M  V30 19733 H 1862.6 -3.58824 -6.10452 0
M  V30 19734 H 1863.01 -2.06972 -5.25189 0
M  V30 19735 N 1862.41 1.16121 -1.06553 0
M  V30 19736 C 1863.63 1.90611 -0.804673 0
M  V30 19737 C 1864.05 1.77576 0.641255 0
M  V30 19738 O 1863.41 1.12218 1.43921 0
M  V30 19739 C 1863.46 3.41231 -1.19348 0
M  V30 19740 O 1863.18 3.53879 -2.58266 0
M  V30 19741 C 1864.68 4.32764 -0.960738 0
M  V30 19742 H 1861.9 0.604358 -0.291534 0
M  V30 19743 H 1864.44 1.47174 -1.41986 0
M  V30 19744 H 1862.6 3.82361 -0.622772 0
M  V30 19745 H 1863.01 4.47298 -2.73907 0
M  V30 19746 H 1864.49 5.36898 -1.28238 0
M  V30 19747 H 1864.96 4.39078 0.103389 0
M  V30 19748 H 1865.57 3.97365 -1.51595 0
M  V30 19749 N 1863.88 0.848487 1.3281 0
M  V30 19750 C 1865.3 0.504307 1.7976 0
M  V30 19751 C 1865.65 -0.977408 1.70121 0
M  V30 19752 O 1864.77 -1.7621 1.25614 0
M  V30 19753 C 1865.37 0.908628 3.26388 0
M  V30 19754 C 1863.93 0.616441 3.71318 0
M  V30 19755 C 1863.07 1.11173 2.54039 0
M  V30 19756 H 1866.02 1.03628 1.20195 0
M  V30 19757 H 1866.04 0.222518 3.79849 0
M  V30 19758 H 1865.56 1.98708 3.33372 0
M  V30 19759 H 1863.66 -0.451545 3.69854 0
M  V30 19760 H 1863.77 1.17841 4.64382 0
M  V30 19761 H 1862.13 0.532227 2.49077 0
M  V30 19762 H 1862.92 2.19716 2.6378 0
M  V30 19763 N 1865.36 -1.4549 0.605832 0
M  V30 19764 C 1866.59 -2.06625 0.106651 0
M  V30 19765 C 1867.01 -1.45077 -1.20822 0
M  V30 19766 O 1866.36 -0.564316 -1.73556 0
M  V30 19767 C 1866.41 -3.61476 -0.0413179 0
M  V30 19768 O 1866.13 -4.20726 1.22153 0
M  V30 19769 C 1867.64 -4.39592 -0.572162 0
M  V30 19770 H 1864.86 -0.667542 0.0680365 0
M  V30 19771 H 1867.4 -1.86763 0.833067 0
M  V30 19772 H 1865.55 -3.80687 -0.718053 0
M  V30 19773 H 1865.97 -5.13881 1.05009 0
M  V30 19774 H 1867.44 -5.48453 -0.624791 0
M  V30 19775 H 1867.92 -4.09251 -1.59407 0
M  V30 19776 H 1868.53 -4.25242 0.0704697 0
M  V30 19777 N 1866.84 -0.344893 -1.5378 0
M  V30 19778 C 1868.07 0.252559 -2.05353 0
M  V30 19779 C 1868.48 1.44107 -1.21978 0
M  V30 19780 O 1867.84 1.80704 -0.25543 0
M  V30 19781 C 1867.89 0.666294 -3.55307 0
M  V30 19782 O 1867.61 -0.474957 -4.35518 0
M  V30 19783 C 1869.11 1.32432 -4.23056 0
M  V30 19784 H 1866.33 0.0485202 -0.669243 0
M  V30 19785 H 1868.88 -0.497271 -1.98362 0
M  V30 19786 H 1867.03 1.36606 -3.62515 0
M  V30 19787 H 1867.45 -0.144883 -5.243 0
M  V30 19788 H 1868.92 1.56456 -5.29363 0
M  V30 19789 H 1869.4 2.27829 -3.75487 0
M  V30 19790 H 1870 0.66655 -4.20044 0
M  V30 19791 N 1868.32 1.57428 -0.0735454 0
M  V30 19792 C 1869.55 1.97596 0.603272 0
M  V30 19793 C 1869.96 0.950716 1.63579 0
M  V30 19794 O 1869.3 -0.0707453 1.83564 0
M  V30 19795 C 1869.36 3.34079 1.32784 0
M  V30 19796 C 1869.03 4.54793 0.448586 0
M  V30 19797 C 1870.02 5.19065 -0.294536 0
M  V30 19798 C 1867.71 5.00914 0.372952 0
M  V30 19799 C 1869.7 6.2781 -1.1015 0
M  V30 19800 C 1867.39 6.09531 -0.437679 0
M  V30 19801 C 1868.39 6.72842 -1.17357 0
M  V30 19802 O 1868.07 7.79367 -1.97083 0
M  V30 19803 H 1867.81 0.654764 0.168108 0
M  V30 19804 H 1870.36 2.04902 -0.143013 0
M  V30 19805 H 1868.59 3.23393 2.12023 0
M  V30 19806 H 1870.28 3.5884 1.89707 0
M  V30 19807 H 1871.05 4.84377 -0.245706 0
M  V30 19808 H 1866.92 4.51411 0.935363 0
M  V30 19809 H 1870.47 6.77158 -1.67639 0
M  V30 19810 H 1866.37 6.43652 -0.488066 0
M  V30 19811 H 1867.13 7.96253 -1.89533 0
M  V30 19812 N 1869.8 -0.200022 1.56326 0
M  V30 19813 C 1870.74 -1.24792 1.94154 0
M  V30 19814 C 1871.71 -1.45484 0.801474 0
M  V30 19815 O 1872.9 -1.58699 1.05921 0
M  V30 19816 C 1870.04 -2.5887 2.28211 0
M  V30 19817 C 1869.15 -2.45798 3.55257 0
M  V30 19818 C 1868.29 -3.72546 3.78659 0
M  V30 19819 C 1867.33 -3.54286 4.99147 0
M  V30 19820 N 1866.46 -4.73034 5.18829 0
M  V30 19821 H 1871.3 -0.918324 2.83497 0
M  V30 19822 H 1868.84 -0.442097 1.40299 0
M  V30 19823 H 1870.8 -3.36977 2.45972 0
M  V30 19824 H 1869.43 -2.89883 1.42014 0
M  V30 19825 H 1868.48 -1.59013 3.4557 0
M  V30 19826 H 1869.79 -2.28236 4.4352 0
M  V30 19827 H 1868.95 -4.59094 3.96633 0
M  V30 19828 H 1867.68 -3.93057 2.88717 0
M  V30 19829 H 1866.69 -2.66123 4.81102 0
M  V30 19830 H 1867.91 -3.35225 5.90594 0
M  V30 19831 H 1865.86 -4.93818 4.31834 0
M  V30 19832 H 1865.78 -4.58279 6.01262 0
M  V30 19833 H 1867.05 -5.60947 5.41257 0
M  V30 19834 N 1871.27 -1.50505 -0.467553 0
M  V30 19835 C 1872.52 -1.61352 -1.21697 0
M  V30 19836 C 1872.84 -0.317583 -1.92396 0
M  V30 19837 O 1872.11 0.665123 -1.84263 0
M  V30 19838 H 1870.69 -0.594582 -0.452196 0
M  V30 19839 H 1873.36 -1.87299 -0.539 0
M  V30 19840 H 1872.45 -2.4264 -1.96296 0
M  V30 19841 N 1872.75 0.720973 -1.40142 0
M  V30 19842 C 1873.98 1.51519 -1.41622 0
M  V30 19843 C 1874.4 1.88093 -0.0162669 0
M  V30 19844 O 1873.76 1.52895 0.974307 0
M  V30 19845 C 1873.81 2.77041 -2.30826 0
M  V30 19846 O 1872.91 3.73532 -1.74779 0
M  V30 19847 H 1872.25 0.457034 -0.481681 0
M  V30 19848 H 1874.78 0.88837 -1.84307 0
M  V30 19849 H 1874.79 3.25628 -2.45826 0
M  V30 19850 H 1873.47 2.49755 -3.32558 0
M  V30 19851 H 1872.05 3.32356 -1.69097 0
M  V30 19852 N 1874.23 1.25549 0.952634 0
M  V30 19853 C 1875.48 1.1058 1.7 0
M  V30 19854 C 1875.81 -0.35206 1.90982 0
M  V30 19855 O 1875.08 -1.25938 1.48222 0
M  V30 19856 C 1875.37 1.86283 3.08173 0
M  V30 19857 C 1875.22 3.39909 2.94588 0
M  V30 19858 C 1876.54 1.64755 4.08098 0
M  V30 19859 H 1873.66 0.403095 0.616996 0
M  V30 19860 H 1876.3 1.54406 1.1072 0
M  V30 19861 H 1874.45 1.49033 3.58778 0
M  V30 19862 H 1876.12 3.86845 2.51294 0
M  V30 19863 H 1874.37 3.67518 2.30462 0
M  V30 19864 H 1875.04 3.88094 3.92539 0
M  V30 19865 H 1877.51 1.97186 3.66411 0
M  V30 19866 H 1876.39 2.20157 5.02814 0
M  V30 19867 H 1876.65 0.589348 4.38154 0
M  V30 19868 N 1875.71 -1.15554 1.07168 0
M  V30 19869 C 1876.99 -1.8238 0.706884 0
M  V30 19870 C 1877.37 -1.94906 -0.810848 0
M  V30 19871 O 1876.71 -1.49905 -1.72455 0
M  V30 19872 C 1876.92 -3.18844 1.41913 0
M  V30 19873 C 1878.27 -3.94506 1.57004 0
M  V30 19874 O 1879.3 -3.28392 1.37976 0
M  V30 19875 O 1878.15 -5.13036 1.88297 0
M  V30 19876 H 1875.25 -0.787892 0.251307 0
M  V30 19877 H 1877.79 -1.22681 1.17249 0
M  V30 19878 H 1876.57 -3.04814 2.45365 0
M  V30 19879 H 1876.19 -3.86227 0.944182 0
M  V30 19880 N 1877.19 -0.855519 -1.32358 0
M  V30 19881 C 1878.14 -0.289571 -2.3079 0
M  V30 19882 C 1879.13 0.58752 -1.58885 0
M  V30 19883 O 1880.34 0.475228 -1.73613 0
M  V30 19884 H 1876.71 -0.0749379 -0.748257 0
M  V30 19885 H 1878.68 -1.13398 -2.76014 0
M  V30 19886 C 1877.43 0.50647 -3.43992 0
M  V30 19887 H 1876.75 -0.159147 -3.99483 0
M  V30 19888 H 1878.19 0.868035 -4.15019 0
M  V30 19889 C 1876.65 1.69203 -2.91328 0
M  V30 19890 O 1877.18 2.79113 -2.88892 0
M  V30 19891 N 1875.39 1.51938 -2.47716 0
M  V30 19892 H 1874.94 0.625282 -2.49896 0
M  V30 19893 H 1874.89 2.31407 -2.12834 0
M  V30 19894 N 1878.67 1.45167 -0.61354 0
M  V30 19895 C 1879.6 2.28772 0.140015 0
M  V30 19896 C 1880.61 1.4029 0.825993 0
M  V30 19897 O 1881.8 1.64608 0.690385 0
M  V30 19898 C 1878.9 3.16195 1.21959 0
M  V30 19899 C 1878.07 4.3299 0.619571 0
M  V30 19900 C 1877.13 5.01577 1.59081 0
M  V30 19901 O 1876.16 5.58177 1.11479 0
M  V30 19902 N 1877.36 5.01408 2.92523 0
M  V30 19903 H 1880.12 2.94085 -0.577406 0
M  V30 19904 H 1877.69 1.5542 -0.453443 0
M  V30 19905 H 1879.68 3.58943 1.86927 0
M  V30 19906 H 1878.25 2.5275 1.83946 0
M  V30 19907 H 1877.47 3.93649 -0.20833 0
M  V30 19908 H 1878.76 5.08411 0.199025 0
M  V30 19909 H 1878.15 4.56725 3.33794 0
M  V30 19910 H 1876.71 5.48002 3.52898 0
M  V30 19911 N 1880.14 0.353044 1.53595 0
M  V30 19912 C 1881.37 -0.241665 2.05484 0
M  V30 19913 C 1881.79 -1.43458 1.2274 0
M  V30 19914 O 1881.14 -1.80566 0.26501 0
M  V30 19915 C 1881.19 -0.647442 3.55655 0
M  V30 19916 O 1880.92 0.498047 4.3526 0
M  V30 19917 C 1882.42 -1.30187 4.23753 0
M  V30 19918 H 1879.64 -0.0449704 0.669491 0
M  V30 19919 H 1882.18 0.507783 1.98095 0
M  V30 19920 H 1880.34 -1.34682 3.63235 0
M  V30 19921 H 1880.75 0.172685 5.24216 0
M  V30 19922 H 1882.22 -1.53646 5.30186 0
M  V30 19923 H 1882.7 -2.25835 3.7669 0
M  V30 19924 H 1883.31 -0.644265 4.20392 0
M  V30 19925 N 1881.62 -1.57387 0.0818932 0
M  V30 19926 C 1882.9 -1.85297 -0.626447 0
M  V30 19927 C 1883.28 -0.976281 -1.87168 0
M  V30 19928 O 1882.63 -0.0451999 -2.28455 0
M  V30 19929 C 1882.84 -3.35695 -0.954461 0
M  V30 19930 C 1884.18 -4.03442 -1.32361 0
M  V30 19931 O 1885.21 -3.40499 -1.04588 0
M  V30 19932 O 1884.07 -5.1448 -1.84317 0
M  V30 19933 H 1881.16 -0.765835 -0.31213 0
M  V30 19934 H 1883.71 -1.69319 0.11359 0
M  V30 19935 H 1882.48 -3.91237 -0.0704846 0
M  V30 19936 H 1882.1 -3.56971 -1.75092 0
M  V30 19937 N 1883.1 0.191729 -1.56429 0
M  V30 19938 C 1884.32 0.931804 -1.85289 0
M  V30 19939 C 1884.75 1.7592 -0.665864 0
M  V30 19940 O 1884.11 1.77158 0.385313 0
M  V30 19941 C 1884.16 1.801 -3.12404 0
M  V30 19942 O 1883.26 2.9002 -2.93193 0
M  V30 19943 H 1882.6 0.262213 -0.610033 0
M  V30 19944 H 1885.13 0.196028 -2.03659 0
M  V30 19945 H 1885.14 2.20499 -3.43285 0
M  V30 19946 H 1883.82 1.19309 -3.9842 0
M  V30 19947 H 1882.39 2.53352 -2.73619 0
M  V30 19948 N 1884.58 1.50751 0.459565 0
M  V30 19949 C 1885.83 1.61995 1.20839 0
M  V30 19950 C 1886.15 0.327782 1.92225 0
M  V30 19951 O 1885.42 -0.655341 1.84613 0
M  V30 19952 H 1884 0.596972 0.449036 0
M  V30 19953 H 1886.66 1.87582 0.52906 0
M  V30 19954 H 1885.75 2.43678 1.95006 0
M  V30 19955 N 1886.06 -0.713531 1.40522 0
M  V30 19956 C 1886.99 -1.83724 1.35354 0
M  V30 19957 C 1887.97 -1.61055 0.223598 0
M  V30 19958 O 1889.15 -1.84041 0.407593 0
M  V30 19959 C 1886.28 -3.20099 1.10699 0
M  V30 19960 C 1885.32 -3.61592 2.26172 0
M  V30 19961 S 1886.16 -3.68469 3.88576 0
M  V30 19962 C 1887.31 -5.076 3.66188 0
M  V30 19963 H 1887.55 -1.87828 2.30452 0
M  V30 19964 H 1885.08 -0.88051 1.26832 0
M  V30 19965 H 1887.04 -3.98836 0.971588 0
M  V30 19966 H 1885.7 -3.13626 0.172515 0
M  V30 19967 H 1884.89 -4.60617 2.04568 0
M  V30 19968 H 1884.49 -2.90117 2.36026 0
M  V30 19969 H 1886.78 -5.94578 3.24782 0
M  V30 19970 H 1887.73 -5.3424 4.64751 0
M  V30 19971 H 1888.14 -4.7829 2.99831 0
M  V30 19972 N 1887.53 -1.26053 -0.945962 0
M  V30 19973 C 1888.78 -1.1148 -1.69411 0
M  V30 19974 C 1889.11 0.341927 -1.91166 0
M  V30 19975 O 1888.39 1.2515 -1.48888 0
M  V30 19976 C 1888.67 -1.87915 -3.07181 0
M  V30 19977 C 1888.52 -3.41466 -2.92781 0
M  V30 19978 C 1889.84 -1.66917 -4.07218 0
M  V30 19979 H 1886.96 -0.406361 -0.614849 0
M  V30 19980 H 1889.6 -1.54991 -1.099 0
M  V30 19981 H 1887.75 -1.50934 -3.57982 0
M  V30 19982 H 1889.43 -3.88172 -2.49238 0
M  V30 19983 H 1887.67 -3.68735 -2.2851 0
M  V30 19984 H 1888.34 -3.90171 -3.90475 0
M  V30 19985 H 1890.82 -1.99127 -3.6536 0
M  V30 19986 H 1889.69 -2.22821 -5.01639 0
M  V30 19987 H 1889.95 -0.612576 -4.37835 0
M  V30 19988 N 1889.01 1.14984 -1.07779 0
M  V30 19989 C 1889.94 2.22006 -0.723564 0
M  V30 19990 C 1890.92 1.67592 0.291024 0
M  V30 19991 O 1892.11 1.93516 0.162812 0
M  V30 19992 C 1889.24 3.47074 -0.125223 0
M  V30 19993 C 1888.19 4.14475 -1.06745 0
M  V30 19994 C 1887.52 5.33671 -0.331643 0
M  V30 19995 C 1888.82 4.63744 -2.4029 0
M  V30 19996 H 1890.51 2.51893 -1.61834 0
M  V30 19997 H 1888.06 1.21073 -0.779571 0
M  V30 19998 H 1890.01 4.21185 0.134555 0
M  V30 19999 H 1888.73 3.16533 0.804654 0
M  V30 20000 H 1887.39 3.4231 -1.31222 0
M  V30 20001 H 1887.04 4.99387 0.601833 0
M  V30 20002 H 1886.74 5.7971 -0.959721 0
M  V30 20003 H 1888.27 6.10548 -0.0797668 0
M  V30 20004 H 1889.68 5.2936 -2.20115 0
M  V30 20005 H 1888.08 5.20461 -2.98732 0
M  V30 20006 H 1889.15 3.79151 -3.02279 0
M  V30 20007 N 1890.49 0.862526 1.31902 0
M  V30 20008 C 1891.45 0.317836 2.26986 0
M  V30 20009 C 1892.45 -0.526959 1.5192 0
M  V30 20010 O 1893.64 -0.337336 1.70903 0
M  V30 20011 C 1890.77 -0.549441 3.36443 0
M  V30 20012 H 1891.97 1.15714 2.76677 0
M  V30 20013 H 1889.52 0.637501 1.42708 0
M  V30 20014 H 1890.26 -1.41024 2.92032 0
M  V30 20015 H 1890.04 0.0553642 3.92061 0
M  V30 20016 H 1891.53 -0.923059 4.07271 0
M  V30 20017 N 1891.97 -1.4484 0.62123 0
M  V30 20018 C 1893.19 -2.07012 0.126801 0
M  V30 20019 C 1893.62 -1.46046 -1.18542 0
M  V30 20020 O 1892.98 -0.558202 -1.72493 0
M  V30 20021 C 1893.02 -3.60597 0.0150611 0
M  V30 20022 O 1892.13 -3.9929 -1.03157 0
M  V30 20023 H 1891.47 -0.659131 0.0802646 0
M  V30 20024 H 1894 -1.85874 0.855105 0
M  V30 20025 H 1894.01 -4.07608 -0.178742 0
M  V30 20026 H 1892.68 -4.04354 0.973153 0
M  V30 20027 H 1891.26 -3.63927 -0.813135 0
M  V30 20028 N 1893.45 -0.361184 -1.53405 0
M  V30 20029 C 1894.36 0.495394 -2.2931 0
M  V30 20030 C 1895.37 1.09649 -1.35104 0
M  V30 20031 O 1896.55 1.10838 -1.68158 0
M  V30 20032 C 1893.61 1.62176 -3.06431 0
M  V30 20033 C 1892.67 1.04865 -4.16295 0
M  V30 20034 C 1891.91 2.12134 -4.89729 0
M  V30 20035 O 1892.13 3.33169 -4.62985 0
M  V30 20036 O 1891.06 1.75438 -5.75765 0
M  V30 20037 H 1894.89 -0.122155 -3.03454 0
M  V30 20038 H 1892.48 -0.125695 -1.4887 0
M  V30 20039 H 1894.36 2.27673 -3.54603 0
M  V30 20040 H 1893.03 2.22479 -2.35127 0
M  V30 20041 H 1891.94 0.357717 -3.72386 0
M  V30 20042 H 1893.27 0.490239 -4.89752 0
M  V30 20043 N 1894.92 1.57341 -0.0902386 0
M  V30 20044 C 1895.83 2.17276 0.88478 0
M  V30 20045 C 1896.85 1.14089 1.31376 0
M  V30 20046 O 1898.03 1.46438 1.38268 0
M  V30 20047 C 1895.09 2.73739 2.12762 0
M  V30 20048 C 1894.15 3.91865 1.7533 0
M  V30 20049 C 1893.39 4.45626 2.93689 0
M  V30 20050 O 1893.61 3.98337 4.08269 0
M  V30 20051 O 1892.54 5.36714 2.72437 0
M  V30 20052 H 1896.37 3.00989 0.40487 0
M  V30 20053 H 1893.95 1.48799 0.133848 0
M  V30 20054 H 1895.84 3.09849 2.85608 0
M  V30 20055 H 1894.51 1.93075 2.59815 0
M  V30 20056 H 1893.42 3.60576 0.996799 0
M  V30 20057 H 1894.75 4.73878 1.33045 0
M  V30 20058 N 1896.4 -0.183431 1.56529 0
M  V30 20059 C 1897.65 -0.901995 1.81302 0
M  V30 20060 C 1897.98 -1.82765 0.665368 0
M  V30 20061 O 1897.23 -1.92578 -0.348162 0
M  V30 20062 C 1897.53 -1.74055 3.12153 0
M  V30 20063 C 1897.2 -0.964866 4.40456 0
M  V30 20064 C 1895.86 -0.750741 4.75308 0
M  V30 20065 C 1898.21 -0.419915 5.19506 0
M  V30 20066 C 1895.54 0.0196291 5.86697 0
M  V30 20067 C 1897.89 0.337305 6.317 0
M  V30 20068 C 1896.56 0.56234 6.65127 0
M  V30 20069 H 1895.83 -0.330064 0.66343 0
M  V30 20070 H 1898.47 -0.167643 1.90765 0
M  V30 20071 H 1896.78 -2.54393 2.97979 0
M  V30 20072 H 1898.47 -2.29935 3.28528 0
M  V30 20073 H 1895.06 -1.14178 4.13112 0
M  V30 20074 H 1899.25 -0.572714 4.92984 0
M  V30 20075 H 1894.5 0.203838 6.1106 0
M  V30 20076 H 1898.68 0.766889 6.92165 0
M  V30 20077 H 1896.31 1.16117 7.51279 0
M  V30 20078 N 1897.88 -1.50992 -0.451564 0
M  V30 20079 C 1898.79 -1.74097 -1.5725 0
M  V30 20080 C 1899.81 -0.624663 -1.62401 0
M  V30 20081 O 1900.98 -0.90528 -1.79907 0
M  V30 20082 C 1898.05 -1.84808 -2.93338 0
M  V30 20083 C 1897.11 -3.08618 -2.98418 0
M  V30 20084 C 1896.34 -3.18808 -4.28015 0
M  V30 20085 O 1896.56 -2.35291 -5.1961 0
M  V30 20086 O 1895.5 -4.11685 -4.39089 0
M  V30 20087 H 1899.32 -2.69156 -1.40673 0
M  V30 20088 H 1896.91 -1.35322 -0.633105 0
M  V30 20089 H 1898.79 -1.9392 -3.7413 0
M  V30 20090 H 1897.47 -0.929344 -3.10072 0
M  V30 20091 H 1896.37 -3.04993 -2.16633 0
M  V30 20092 H 1897.71 -4.00133 -2.86625 0
M  V30 20093 N 1899.36 0.706069 -1.40899 0
M  V30 20094 C 1900.29 1.83119 -1.37841 0
M  V30 20095 C 1901.3 1.60335 -0.282253 0
M  V30 20096 O 1902.49 1.70032 -0.543263 0
M  V30 20097 C 1899.59 3.19696 -1.12461 0
M  V30 20098 C 1898.77 3.69598 -2.33915 0
M  V30 20099 C 1897.82 4.84815 -2.04551 0
M  V30 20100 O 1896.85 4.96973 -2.775 0
M  V30 20101 N 1898.05 5.71302 -1.0293 0
M  V30 20102 H 1900.82 1.86237 -2.34811 0
M  V30 20103 H 1898.38 0.887984 -1.35375 0
M  V30 20104 H 1900.37 3.94386 -0.90786 0
M  V30 20105 H 1898.94 3.11668 -0.241258 0
M  V30 20106 H 1898.16 2.85933 -2.7136 0
M  V30 20107 H 1899.45 3.99674 -3.14862 0
M  V30 20108 H 1898.85 5.64099 -0.425314 0
M  V30 20109 H 1897.4 6.45935 -0.872446 0
M  V30 20110 N 1900.84 1.26553 0.939264 0
M  V30 20111 C 1902.09 1.11599 1.68014 0
M  V30 20112 C 1902.4 -0.339956 1.92623 0
M  V30 20113 O 1903.6 -0.610203 2.64554 0
M  V30 20114 C 1902.06 1.94913 3.02551 0
M  V30 20115 C 1901.67 3.45094 2.85682 0
M  V30 20116 C 1903.41 1.88574 3.80316 0
M  V30 20117 C 1901.32 4.20648 4.15703 0
M  V30 20118 H 1900.25 0.414037 0.630151 0
M  V30 20119 H 1902.9 1.50878 1.04441 0
M  V30 20120 H 1901.28 1.48469 3.67115 0
M  V30 20121 H 1902.46 3.99321 2.29956 0
M  V30 20122 H 1900.77 3.5269 2.21357 0
M  V30 20123 H 1903.37 2.42307 4.76646 0
M  V30 20124 H 1903.71 0.856867 4.07386 0
M  V30 20125 H 1904.24 2.32852 3.22529 0
M  V30 20126 H 1900.98 5.24013 3.93816 0
M  V30 20127 H 1900.5 3.71202 4.71136 0
M  V30 20128 H 1902.18 4.29199 4.84146 0
M  V30 20129 N 1902.31 -1.14411 1.08387 0
M  V30 20130 C 1903.22 -2.23103 0.725418 0
M  V30 20131 C 1904.24 -1.71924 -0.26799 0
M  V30 20132 O 1905.42 -2.01088 -0.111986 0
M  V30 20133 C 1902.48 -3.46418 0.139915 0
M  V30 20134 C 1901.54 -4.12537 1.18791 0
M  V30 20135 C 1900.78 -5.29966 0.630252 0
M  V30 20136 O 1901 -5.67739 -0.550335 0
M  V30 20137 O 1899.93 -5.85862 1.38021 0
M  V30 20138 H 1903.76 -2.56116 1.63213 0
M  V30 20139 H 1901.34 -1.22338 0.857538 0
M  V30 20140 H 1903.23 -4.20999 -0.18381 0
M  V30 20141 H 1901.9 -3.15129 -0.739957 0
M  V30 20142 H 1900.81 -3.39831 1.56416 0
M  V30 20143 H 1902.14 -4.47932 2.04005 0
M  V30 20144 N 1903.79 -0.869509 -1.31443 0
M  V30 20145 C 1905.02 -0.493849 -2.01435 0
M  V30 20146 C 1905.44 0.906049 -1.6484 0
M  V30 20147 O 1904.8 1.59777 -0.856794 0
M  V30 20148 C 1904.85 -0.657723 -3.54551 0
M  V30 20149 O 1903.95 0.303155 -4.11284 0
M  V30 20150 H 1903.29 -0.196494 -0.63426 0
M  V30 20151 H 1905.82 -1.1728 -1.6765 0
M  V30 20152 H 1905.83 -0.550841 -4.04264 0
M  V30 20153 H 1904.51 -1.67848 -3.80526 0
M  V30 20154 H 1903.09 0.151268 -3.72593 0
M  V30 20155 N 1905.27 1.44508 -0.628902 0
M  V30 20156 C 1906.69 1.56863 -0.294332 0
M  V30 20157 C 1906.89 1.6168 1.20257 0
M  V30 20158 O 1905.94 1.55862 1.98653 0
M  V30 20159 C 1907.26 2.84134 -0.984291 0
M  V30 20160 C 1908.8 2.97843 -0.962223 0
M  V30 20161 C 1909.28 4.27914 -1.6326 0
M  V30 20162 N 1910.77 4.34722 -1.59909 0
M  V30 20163 C 1911.5 5.34081 -2.08675 0
M  V30 20164 N 1911 6.39857 -2.65623 0
M  V30 20165 N 1912.79 5.25575 -1.99317 0
M  V30 20166 H 1904.94 1.39624 -1.60059 0
M  V30 20167 H 1907.21 0.66894 -0.671731 0
M  V30 20168 H 1906.91 2.86551 -2.03915 0
M  V30 20169 H 1906.79 3.73589 -0.520679 0
M  V30 20170 H 1909.17 2.9498 0.0841512 0
M  V30 20171 H 1909.26 2.09742 -1.4643 0
M  V30 20172 H 1908.9 4.31536 -2.67842 0
M  V30 20173 H 1908.83 5.14868 -1.10537 0
M  V30 20174 H 1911.32 3.58896 -1.18329 0
M  V30 20175 H 1911.63 7.11952 -3.00572 0
M  V30 20176 H 1909.98 6.40548 -2.69672 0
M  V30 20177 H 1913.17 4.4185 -1.54551 0
M  V30 20178 H 1913.34 6.02855 -2.37634 0
M  V30 20179 N 1906.75 0.369315 1.53212 0
M  V30 20180 C 1907.7 -0.491919 2.2263 0
M  V30 20181 C 1908.68 -1.0457 1.22286 0
M  V30 20182 O 1909.88 -0.975125 1.47717 0
M  V30 20183 C 1907 -1.62916 3.02181 0
M  V30 20184 C 1906.09 -1.08808 4.09904 0
M  V30 20185 N 1906.48 -0.270291 5.05077 0
M  V30 20186 C 1904.78 -1.36253 4.24678 0
M  V30 20187 C 1905.48 0.0263875 5.81694 0
M  V30 20188 N 1904.46 -0.572239 5.4058 0
M  V30 20189 H 1908.26 0.139657 2.93568 0
M  V30 20190 H 1905.77 0.177531 1.61427 0
M  V30 20191 H 1907.77 -2.25837 3.50433 0
M  V30 20192 H 1906.43 -2.26376 2.32774 0
M  V30 20193 H 1907.44 0.0908158 5.1782 0
M  V30 20194 H 1904.12 -1.99964 3.66498 0
M  V30 20195 H 1905.51 0.687735 6.68371 0
M  V30 20196 N 1908.23 -1.57291 0.0985816 0
M  V30 20197 C 1909.64 -1.575 -0.258064 0
M  V30 20198 C 1909.84 -1.10997 -1.68172 0
M  V30 20199 O 1908.9 -0.78802 -2.39889 0
M  V30 20200 C 1910.21 -3.00669 -0.0433215 0
M  V30 20201 C 1911.76 -3.12804 -0.110802 0
M  V30 20202 C 1912.24 -4.57937 0.0759907 0
M  V30 20203 N 1913.73 -4.63195 0.021273 0
M  V30 20204 C 1914.46 -5.73227 0.141 0
M  V30 20205 N 1913.96 -6.9208 0.315756 0
M  V30 20206 N 1915.75 -5.6204 0.0820222 0
M  V30 20207 H 1907.9 -1.85826 1.02871 0
M  V30 20208 H 1910.16 -0.857869 0.403441 0
M  V30 20209 H 1909.87 -3.38903 0.940103 0
M  V30 20210 H 1909.74 -3.6896 -0.784124 0
M  V30 20211 H 1912.13 -2.7444 -1.08473 0
M  V30 20212 H 1912.21 -2.47098 0.661548 0
M  V30 20213 H 1911.86 -4.96995 1.04681 0
M  V30 20214 H 1911.79 -5.21708 -0.716096 0
M  V30 20215 H 1914.28 -3.77737 -0.111114 0
M  V30 20216 H 1914.59 -7.71772 0.398531 0
M  V30 20217 H 1912.94 -6.94111 0.351469 0
M  V30 20218 H 1916.13 -4.6807 -0.0533968 0
M  V30 20219 H 1916.3 -6.47753 0.178778 0
M  V30 20220 N 1909.71 0.175127 -1.56624 0
M  V30 20221 C 1910.64 1.24137 -1.92672 0
M  V30 20222 C 1911.65 1.40675 -0.819417 0
M  V30 20223 O 1912.84 1.40746 -1.09786 0
M  V30 20224 C 1909.94 2.61063 -2.161 0
M  V30 20225 C 1909.11 2.65874 -3.47318 0
M  V30 20226 C 1908.17 3.84136 -3.59619 0
M  V30 20227 O 1907.2 3.70311 -4.32271 0
M  V30 20228 N 1908.4 5.00435 -2.94186 0
M  V30 20229 H 1911.16 0.935217 -2.84735 0
M  V30 20230 H 1908.73 0.364919 -1.57734 0
M  V30 20231 H 1910.72 3.38639 -2.21597 0
M  V30 20232 H 1909.29 2.84085 -1.3044 0
M  V30 20233 H 1908.51 1.74422 -3.53512 0
M  V30 20234 H 1909.8 2.66096 -4.33671 0
M  V30 20235 H 1909.19 5.14568 -2.35024 0
M  V30 20236 H 1907.75 5.75886 -3.05284 0
M  V30 20237 N 1911.18 1.5123 0.44355 0
M  V30 20238 C 1912.09 1.74928 1.56324 0
M  V30 20239 C 1913.11 0.633267 1.62067 0
M  V30 20240 O 1914.29 0.914808 1.79425 0
M  V30 20241 C 1911.35 1.86361 2.92354 0
M  V30 20242 C 1910.41 3.10196 2.96778 0
M  V30 20243 C 1909.64 3.21073 4.26319 0
M  V30 20244 O 1909.87 2.38043 5.18355 0
M  V30 20245 O 1908.8 4.14008 4.369 0
M  V30 20246 H 1912.63 2.69898 1.39243 0
M  V30 20247 H 1910.21 1.35656 0.62592 0
M  V30 20248 H 1912.09 1.95901 3.73096 0
M  V30 20249 H 1910.77 0.945775 3.09575 0
M  V30 20250 H 1909.68 3.06138 2.15013 0
M  V30 20251 H 1911.01 4.01648 2.84499 0
M  V30 20252 N 1912.66 -0.698586 1.41271 0
M  V30 20253 C 1913.89 -1.49247 1.44014 0
M  V30 20254 C 1914.31 -1.88043 0.0461888 0
M  V30 20255 O 1913.67 -1.54426 -0.94986 0
M  V30 20256 C 1913.72 -2.73334 2.35204 0
M  V30 20257 O 1912.82 -3.70704 1.807 0
M  V30 20258 H 1912.16 -0.449313 0.488891 0
M  V30 20259 H 1914.69 -0.858936 1.85697 0
M  V30 20260 H 1914.7 -3.21676 2.50975 0
M  V30 20261 H 1913.38 -2.44433 3.3649 0
M  V30 20262 H 1911.95 -3.29624 1.74363 0
M  V30 20263 N 1914.14 -1.27049 -0.93254 0
M  V30 20264 C 1915.39 -1.12879 -1.67639 0
M  V30 20265 C 1915.71 0.326803 -1.92242 0
M  V30 20266 O 1914.98 1.22934 -1.52525 0
M  V30 20267 H 1913.56 -0.414741 -0.621288 0
M  V30 20268 H 1916.22 -1.59505 -1.12 0
M  V30 20269 H 1915.32 -1.65417 -2.64658 0
M  V30 20270 N 1915.62 1.13835 -1.08993 0
M  V30 20271 C 1916.86 1.8501 -0.823256 0
M  V30 20272 C 1917.19 1.83279 0.65107 0
M  V30 20273 O 1916.45 1.26293 1.49495 0
M  V30 20274 C 1916.75 3.32997 -1.29798 0
M  V30 20275 C 1916.41 3.54912 -2.78115 0
M  V30 20276 C 1915.07 3.60602 -3.18622 0
M  V30 20277 C 1917.43 3.63247 -3.73766 0
M  V30 20278 C 1914.75 3.72154 -4.53562 0
M  V30 20279 C 1917.11 3.76326 -5.0849 0
M  V30 20280 C 1915.77 3.80267 -5.48592 0
M  V30 20281 H 1915.04 0.677 -0.301251 0
M  V30 20282 H 1917.69 1.34423 -1.36392 0
M  V30 20283 H 1915.99 3.85906 -0.677026 0
M  V30 20284 H 1917.69 3.86507 -1.06832 0
M  V30 20285 H 1914.28 3.51136 -2.45767 0
M  V30 20286 H 1918.46 3.58135 -3.43588 0
M  V30 20287 H 1913.72 3.7347 -4.84077 0
M  V30 20288 H 1917.89 3.81717 -5.82465 0
M  V30 20289 H 1915.52 3.8897 -6.53151 0
M  V30 20290 N 1917.1 0.876467 1.3098 0
M  V30 20291 C 1918.32 0.504524 2.0117 0
M  V30 20292 C 1918.75 -0.897295 1.65319 0
M  V30 20293 O 1918.1 -1.59321 0.865255 0
M  V30 20294 C 1918.15 0.676516 3.54197 0
M  V30 20295 O 1917.26 -0.28134 4.11439 0
M  V30 20296 H 1916.6 0.199855 0.633209 0
M  V30 20297 H 1919.13 1.18167 1.67026 0
M  V30 20298 H 1919.14 0.572273 4.03967 0
M  V30 20299 H 1917.81 1.69864 3.7963 0
M  V30 20300 H 1916.39 -0.131506 3.72668 0
M  V30 20301 N 1918.57 -1.44173 0.636557 0
M  V30 20302 C 1919.81 -2.03874 0.146599 0
M  V30 20303 C 1920.18 -1.49026 -1.21059 0
M  V30 20304 O 1921.38 -2.00264 -1.79298 0
M  V30 20305 C 1919.65 -3.57131 0.138577 0
M  V30 20306 S 1921.21 -4.37867 -0.285968 0
M  V30 20307 H 1918.03 -0.708136 0.0637502 0
M  V30 20308 H 1920.63 -1.76479 0.841163 0
M  V30 20309 H 1919.33 -3.94555 1.12936 0
M  V30 20310 H 1918.86 -3.89145 -0.577061 0
M  V30 20311 H 1920.88 -4.72059 -1.52889 0
M  V30 20312 N 1920.05 -0.377435 -1.53014 0
M  V30 20313 C 1921 0.463415 -2.261 0
M  V30 20314 C 1921.97 1.06771 -1.27237 0
M  V30 20315 O 1923.15 1.09797 -1.56043 0
M  V30 20316 C 1920.29 1.59103 -3.06236 0
M  V30 20317 C 1919.41 1.01076 -4.20009 0
M  V30 20318 C 1918.54 2.10845 -4.87563 0
M  V30 20319 C 1917.58 1.50345 -5.93349 0
M  V30 20320 N 1916.72 2.53995 -6.54546 0
M  V30 20321 H 1921.56 -0.166315 -2.97536 0
M  V30 20322 H 1919.09 -0.0938442 -1.468 0
M  V30 20323 H 1921.05 2.25542 -3.5098 0
M  V30 20324 H 1919.68 2.19125 -2.37032 0
M  V30 20325 H 1918.73 0.236306 -3.79665 0
M  V30 20326 H 1920.05 0.528534 -4.95992 0
M  V30 20327 H 1919.2 2.85079 -5.35551 0
M  V30 20328 H 1917.94 2.62423 -4.11079 0
M  V30 20329 H 1916.94 0.746299 -5.44711 0
M  V30 20330 H 1918.17 0.995763 -6.7176 0
M  V30 20331 H 1916.12 3.04765 -5.80908 0
M  V30 20332 H 1916.03 2.10494 -7.26105 0
M  V30 20333 H 1917.3 3.27896 -7.07181 0
M  V30 20334 N 1921.53 1.57237 -0.106922 0
M  V30 20335 C 1922.78 1.9439 0.552888 0
M  V30 20336 C 1923.1 0.990316 1.67981 0
M  V30 20337 O 1922.37 0.0444502 1.9585 0
M  V30 20338 H 1920.95 0.71768 0.20723 0
M  V30 20339 H 1923.61 1.9413 -0.17303 0
M  V30 20340 H 1922.71 2.97118 0.955369 0
M  V30 20341 N 1923.01 -0.166818 1.56715 0
M  V30 20342 C 1924.42 -0.728845 1.71886 0
M  V30 20343 C 1924.77 -1.82584 0.718168 0
M  V30 20344 O 1923.9 -2.1607 -0.119503 0
M  V30 20345 C 1924.49 -1.32885 3.11652 0
M  V30 20346 C 1923.05 -1.83766 3.28492 0
M  V30 20347 C 1922.2 -0.718371 2.67833 0
M  V30 20348 H 1925.15 0.0586298 1.58592 0
M  V30 20349 H 1925.17 -2.19858 3.10552 0
M  V30 20350 H 1924.68 -0.530219 3.84461 0
M  V30 20351 H 1922.78 -2.66259 2.60647 0
M  V30 20352 H 1922.89 -1.98 4.36271 0
M  V30 20353 H 1921.26 -1.13996 2.27765 0
M  V30 20354 H 1922.04 0.0684914 3.43232 0
M  V30 20355 N 1924.49 -1.51463 -0.435524 0
M  V30 20356 C 1925.73 -1.63897 -1.18247 0
M  V30 20357 C 1926.06 -0.358322 -1.9168 0
M  V30 20358 O 1925.33 0.625888 -1.85633 0
M  V30 20359 H 1923.91 -0.60404 -0.439482 0
M  V30 20360 H 1926.57 -1.884 -0.49915 0
M  V30 20361 H 1925.66 -2.46749 -1.91105 0
M  V30 20362 N 1925.96 0.691085 -1.4164 0
M  V30 20363 C 1926.9 1.81646 -1.39776 0
M  V30 20364 C 1927.91 1.60026 -0.299243 0
M  V30 20365 O 1929.1 1.69446 -0.561266 0
M  V30 20366 C 1926.2 3.18486 -1.15845 0
M  V30 20367 C 1925.37 3.67096 -2.37822 0
M  V30 20368 C 1924.43 4.82618 -2.09681 0
M  V30 20369 O 1923.46 4.94002 -2.82756 0
M  V30 20370 N 1924.66 5.70178 -1.08983 0
M  V30 20371 H 1927.42 1.83736 -2.36773 0
M  V30 20372 H 1924.98 0.873576 -1.36309 0
M  V30 20373 H 1926.98 3.934 -0.949639 0
M  V30 20374 H 1925.55 3.11394 -0.274301 0
M  V30 20375 H 1924.77 2.83038 -2.74377 0
M  V30 20376 H 1926.05 3.96312 -3.19083 0
M  V30 20377 H 1925.45 5.63616 -0.48512 0
M  V30 20378 H 1924.01 6.44973 -0.940906 0
M  V30 20379 N 1927.44 1.27542 0.925789 0
M  V30 20380 C 1928.39 1.10271 2.048 0
M  V30 20381 C 1929.38 0.0252694 1.69381 0
M  V30 20382 O 1930.59 0.183134 1.79066 0
M  V30 20383 H 1926.97 0.339845 0.670828 0
M  V30 20384 H 1928.94 2.0534 2.16513 0
M  V30 20385 C 1927.69 0.768681 3.39097 0
M  V30 20386 H 1927.01 1.58967 3.66837 0
M  V30 20387 H 1928.45 0.687719 4.18386 0
M  V30 20388 C 1926.91 -0.527037 3.32752 0
M  V30 20389 O 1927.44 -1.5609 3.70134 0
M  V30 20390 N 1925.64 -0.523354 2.85848 0
M  V30 20391 H 1925.19 0.318395 2.55625 0
M  V30 20392 H 1925.15 -1.39037 2.81986 0
M  V30 20393 N 1928.92 -1.13255 1.09595 0
M  V30 20394 C 1930.17 -1.84844 0.83429 0
M  V30 20395 C 1930.5 -1.83403 -0.638518 0
M  V30 20396 O 1929.77 -1.27337 -1.47022 0
M  V30 20397 C 1930.06 -3.32926 1.3723 0
M  V30 20398 C 1929.91 -3.42872 2.91134 0
M  V30 20399 C 1931.23 -4.28413 1.0075 0
M  V30 20400 H 1928.35 -0.671139 0.304534 0
M  V30 20401 H 1930.99 -1.32922 1.35764 0
M  V30 20402 H 1929.14 -3.77275 0.927149 0
M  V30 20403 H 1930.81 -3.07222 3.44111 0
M  V30 20404 H 1929.06 -2.83693 3.28178 0
M  V30 20405 H 1929.73 -4.47013 3.23857 0
M  V30 20406 H 1932.2 -3.92145 1.39146 0
M  V30 20407 H 1931.08 -5.30455 1.41098 0
M  V30 20408 H 1931.34 -4.4202 -0.0841095 0
M  V30 20409 N 1930.4 -0.883401 -1.30514 0
M  V30 20410 C 1931.36 -0.353908 -2.26451 0
M  V30 20411 C 1932.36 0.502723 -1.52739 0
M  V30 20412 O 1933.55 0.310104 -1.71418 0
M  V30 20413 C 1930.68 0.495846 -3.37275 0
M  V30 20414 H 1931.88 -1.20101 -2.74801 0
M  V30 20415 H 1929.43 -0.660124 -1.41676 0
M  V30 20416 H 1930.16 1.3636 -2.94239 0
M  V30 20417 H 1929.95 -0.117731 -3.91923 0
M  V30 20418 H 1931.44 0.858149 -4.08688 0
M  V30 20419 N 1931.88 1.43833 -0.644194 0
M  V30 20420 C 1933.12 2.02213 -0.154155 0
M  V30 20421 C 1933.46 1.50648 1.22551 0
M  V30 20422 O 1932.73 0.69587 1.81626 0
M  V30 20423 C 1933.01 3.59766 -0.155107 0
M  V30 20424 C 1932.87 4.21583 -1.56804 0
M  V30 20425 C 1934.19 4.37096 0.513365 0
M  V30 20426 H 1931.3 0.734754 -0.0574913 0
M  V30 20427 H 1933.95 1.71243 -0.823159 0
M  V30 20428 H 1932.1 3.86282 0.414568 0
M  V30 20429 H 1933.77 4.0613 -2.18761 0
M  V30 20430 H 1932.01 3.78578 -2.11804 0
M  V30 20431 H 1932.68 5.30642 -1.52064 0
M  V30 20432 H 1935.16 4.1609 0.0287668 0
M  V30 20433 H 1934.03 5.4678 0.481936 0
M  V30 20434 H 1934.3 4.12673 1.58597 0
M  V30 20435 N 1933.35 0.385544 1.52811 0
M  V30 20436 C 1934.58 -0.198025 2.0595 0
M  V30 20437 C 1935 -1.40822 1.25756 0
M  V30 20438 O 1934.35 -1.79963 0.303251 0
M  V30 20439 C 1934.41 -0.571856 3.56948 0
M  V30 20440 O 1934.13 0.59026 4.34105 0
M  V30 20441 C 1935.63 -1.21169 4.26419 0
M  V30 20442 H 1932.85 -0.0307594 0.670295 0
M  V30 20443 H 1935.39 0.549688 1.96974 0
M  V30 20444 H 1933.55 -1.26947 3.6601 0
M  V30 20445 H 1933.96 0.28384 5.23731 0
M  V30 20446 H 1935.43 -1.42366 5.33325 0
M  V30 20447 H 1935.91 -2.17794 3.81395 0
M  V30 20448 H 1936.52 -0.554949 4.21664 0
M  V30 20449 N 1934.83 -1.57178 0.115259 0
M  V30 20450 C 1936.25 -1.57765 -0.241345 0
M  V30 20451 C 1936.45 -1.12775 -1.66985 0
M  V30 20452 O 1935.5 -0.813419 -2.39039 0
M  V30 20453 C 1936.82 -3.00698 -0.0114291 0
M  V30 20454 C 1938.37 -3.12904 -0.0776187 0
M  V30 20455 C 1938.84 -4.57831 0.124557 0
M  V30 20456 N 1940.33 -4.63146 0.0703998 0
M  V30 20457 C 1941.07 -5.73045 0.20179 0
M  V30 20458 N 1940.56 -6.91706 0.389143 0
M  V30 20459 N 1942.36 -5.61922 0.141629 0
M  V30 20460 H 1934.51 -1.84725 1.04836 0
M  V30 20461 H 1936.77 -0.853542 0.412517 0
M  V30 20462 H 1936.48 -3.37886 0.975995 0
M  V30 20463 H 1936.35 -3.69771 -0.744947 0
M  V30 20464 H 1938.74 -2.75575 -1.05556 0
M  V30 20465 H 1938.82 -2.46382 0.687719 0
M  V30 20466 H 1938.46 -4.95857 1.09946 0
M  V30 20467 H 1938.39 -5.22439 -0.660721 0
M  V30 20468 H 1940.88 -3.77833 -0.0710442 0
M  V30 20469 H 1941.2 -7.71306 0.480365 0
M  V30 20470 H 1939.54 -6.93699 0.425069 0
M  V30 20471 H 1942.73 -4.681 -0.00374873 0
M  V30 20472 H 1942.9 -6.47527 0.24747 0
M  V30 20473 N 1936.31 0.158505 -1.56801 0
M  V30 20474 C 1937.27 1.17986 -1.96499 0
M  V30 20475 C 1938.27 1.3649 -0.850127 0
M  V30 20476 O 1939.46 1.33678 -1.11696 0
M  V30 20477 C 1936.6 2.54245 -2.27095 0
M  V30 20478 H 1937.79 0.839577 -2.87908 0
M  V30 20479 H 1935.34 0.401431 -1.51057 0
M  V30 20480 H 1936.08 2.93266 -1.38441 0
M  V30 20481 H 1935.86 2.42179 -3.0837 0
M  V30 20482 H 1937.35 3.27829 -2.58686 0
M  V30 20483 N 1937.79 1.51692 0.427485 0
M  V30 20484 C 1938.74 1.70099 1.51823 0
M  V30 20485 C 1939.72 0.554908 1.51028 0
M  V30 20486 O 1940.92 0.811233 1.57315 0
M  V30 20487 C 1938.04 1.8384 2.89927 0
M  V30 20488 C 1937.13 3.04263 2.9544 0
M  V30 20489 N 1937.52 4.27277 2.7068 0
M  V30 20490 C 1935.82 3.0372 3.26604 0
M  V30 20491 C 1936.52 5.08613 2.8229 0
M  V30 20492 N 1935.5 4.43468 3.14384 0
M  V30 20493 H 1939.3 2.62867 1.31447 0
M  V30 20494 H 1936.81 1.49473 0.63494 0
M  V30 20495 H 1938.81 1.95139 3.6841 0
M  V30 20496 H 1937.47 0.922599 3.11317 0
M  V30 20497 H 1938.48 4.56058 2.45421 0
M  V30 20498 H 1935.16 2.21808 3.53705 0
M  V30 20499 H 1936.55 6.16564 2.67017 0
M  V30 20500 N 1939.27 -0.683564 1.42004 0
M  V30 20501 C 1940.68 -1.26389 1.37414 0
M  V30 20502 C 1941.03 -1.96099 0.0630958 0
M  V30 20503 O 1940.15 -1.995 -0.838385 0
M  V30 20504 C 1940.75 -2.29854 2.48903 0
M  V30 20505 C 1939.31 -2.83435 2.47673 0
M  V30 20506 C 1938.46 -1.57634 2.28138 0
M  V30 20507 H 1941.41 -0.477522 1.51345 0
M  V30 20508 H 1941.43 -3.11404 2.18651 0
M  V30 20509 H 1940.94 -1.7909 3.44309 0
M  V30 20510 H 1939.04 -3.38344 1.56059 0
M  V30 20511 H 1939.15 -3.33048 3.44407 0
M  V30 20512 H 1937.52 -1.83883 1.76236 0
M  V30 20513 H 1938.3 -1.08848 3.25587 0
M  V30 20514 N 1940.75 -1.28031 -0.919012 0
M  V30 20515 C 1942.02 -1.05588 -1.64653 0
M  V30 20516 C 1942.4 0.406513 -2.07149 0
M  V30 20517 O 1941.75 1.39153 -1.81242 0
M  V30 20518 C 1941.96 -2.0256 -2.84202 0
M  V30 20519 C 1943.31 -2.32414 -3.55343 0
M  V30 20520 O 1944.33 -2.00602 -2.94342 0
M  V30 20521 O 1943.19 -2.86683 -4.65269 0
M  V30 20522 H 1940.29 -0.40316 -0.722074 0
M  V30 20523 H 1942.83 -1.3933 -0.968781 0
M  V30 20524 H 1941.6 -3.01146 -2.49853 0
M  V30 20525 H 1941.23 -1.69433 -3.59692 0
M  V30 20526 N 1942.22 1.12672 -1.10194 0
M  V30 20527 C 1943.45 1.88496 -0.865112 0
M  V30 20528 C 1943.87 1.78977 0.578691 0
M  V30 20529 O 1943.23 1.14292 1.40737 0
M  V30 20530 C 1943.28 3.35768 -1.315 0
M  V30 20531 O 1942.38 4.09615 -0.478447 0
M  V30 20532 H 1941.72 0.585782 -0.312658 0
M  V30 20533 H 1944.25 1.42506 -1.46811 0
M  V30 20534 H 1944.26 3.86605 -1.30385 0
M  V30 20535 H 1942.94 3.42013 -2.36643 0
M  V30 20536 H 1941.52 3.68753 -0.554589 0
M  V30 20537 N 1943.7 0.89031 1.30043 0
M  V30 20538 C 1944.63 0.31832 2.26979 0
M  V30 20539 C 1945.65 -0.530108 1.53928 0
M  V30 20540 O 1946.84 -0.348791 1.75059 0
M  V30 20541 C 1943.94 -0.565563 3.34148 0
M  V30 20542 C 1943.11 0.255006 4.36656 0
M  V30 20543 C 1942.17 -0.560216 5.23209 0
M  V30 20544 O 1941.19 0.0189739 5.69197 0
M  V30 20545 N 1942.4 -1.86825 5.49615 0
M  V30 20546 H 1945.16 1.15143 2.76699 0
M  V30 20547 H 1942.72 0.753836 1.43279 0
M  V30 20548 H 1944.71 -1.11711 3.88976 0
M  V30 20549 H 1943.28 -1.29935 2.84316 0
M  V30 20550 H 1942.5 0.987993 3.81618 0
M  V30 20551 H 1943.79 0.817308 5.02193 0
M  V30 20552 H 1943.19 -2.36167 5.14045 0
M  V30 20553 H 1941.75 -2.36713 6.07297 0
M  V30 20554 N 1945.18 -1.43489 0.651812 0
M  V30 20555 C 1946.43 -2.01431 0.164307 0
M  V30 20556 C 1946.75 -1.51674 -1.22556 0
M  V30 20557 O 1946.02 -0.728791 -1.81839 0
M  V30 20558 H 1944.6 -0.744764 0.0577525 0
M  V30 20559 H 1947.26 -1.75718 0.843164 0
M  V30 20560 H 1946.36 -3.1175 0.147848 0
M  V30 20561 N 1946.66 -0.393643 -1.52605 0
M  V30 20562 C 1948.07 -0.0437985 -1.5954 0
M  V30 20563 C 1948.27 1.44203 -1.4074 0
M  V30 20564 O 1947.33 2.20707 -1.22657 0
M  V30 20565 C 1948.64 -0.524864 -2.96084 0
M  V30 20566 C 1950.19 -0.481497 -3.09274 0
M  V30 20567 C 1950.67 -0.938821 -4.48275 0
M  V30 20568 N 1952.16 -0.895009 -4.54471 0
M  V30 20569 C 1952.89 -1.22023 -5.60266 0
M  V30 20570 N 1952.39 -1.61614 -6.73686 0
M  V30 20571 N 1954.18 -1.1412 -5.50393 0
M  V30 20572 H 1946.33 -1.36091 -1.63074 0
M  V30 20573 H 1948.59 -0.558085 -0.766319 0
M  V30 20574 H 1948.3 -1.56277 -3.15072 0
M  V30 20575 H 1948.17 0.0737526 -3.77128 0
M  V30 20576 H 1950.56 0.547333 -2.8998 0
M  V30 20577 H 1950.64 -1.11597 -2.30173 0
M  V30 20578 H 1950.29 -1.9659 -4.6831 0
M  V30 20579 H 1950.22 -0.281313 -5.25848 0
M  V30 20580 H 1952.71 -0.603728 -3.73046 0
M  V30 20581 H 1953.02 -1.84782 -7.50384 0
M  V30 20582 H 1951.37 -1.65504 -6.75006 0
M  V30 20583 H 1954.56 -0.83088 -4.60667 0
M  V30 20584 H 1954.73 -1.39797 -6.32741 0
M  V30 20585 N 1948.14 1.57115 -0.123593 0
M  V30 20586 C 1949.55 1.5789 0.232975 0
M  V30 20587 C 1949.75 1.13659 1.66385 0
M  V30 20588 O 1948.81 0.826084 2.38604 0
M  V30 20589 C 1950.12 3.007 -0.0045178 0
M  V30 20590 C 1951.67 3.12941 0.0610235 0
M  V30 20591 C 1952.14 4.57758 -0.148835 0
M  V30 20592 N 1953.63 4.63103 -0.0949606 0
M  V30 20593 C 1954.37 5.7293 -0.232177 0
M  V30 20594 N 1953.87 6.9149 -0.42582 0
M  V30 20595 N 1955.66 5.61839 -0.171428 0
M  V30 20596 H 1947.81 1.84166 -1.05814 0
M  V30 20597 H 1950.07 0.851342 -0.417038 0
M  V30 20598 H 1949.78 3.37364 -0.993901 0
M  V30 20599 H 1949.65 3.70161 0.725327 0
M  V30 20600 H 1952.04 2.76131 1.04094 0
M  V30 20601 H 1952.12 2.46014 -0.700776 0
M  V30 20602 H 1951.76 4.95267 -1.12574 0
M  V30 20603 H 1951.69 5.22782 0.633006 0
M  V30 20604 H 1954.19 3.77866 0.0510058 0
M  V30 20605 H 1954.5 7.7104 -0.521263 0
M  V30 20606 H 1952.84 6.93464 -0.461851 0
M  V30 20607 H 1956.03 4.68095 -0.0210758 0
M  V30 20608 H 1956.21 6.47387 -0.281807 0
M  V30 20609 N 1949.61 -0.150187 1.56883 0
M  V30 20610 C 1951.03 -0.502717 1.51476 0
M  V30 20611 C 1951.23 -1.83545 0.831478 0
M  V30 20612 O 1950.29 -2.49301 0.400671 0
M  V30 20613 C 1951.6 -0.515965 2.9624 0
M  V30 20614 C 1953.15 -0.601702 3.07162 0
M  V30 20615 C 1953.62 -0.645643 4.53426 0
M  V30 20616 N 1955.11 -0.707954 4.57758 0
M  V30 20617 C 1955.85 -0.762883 5.68302 0
M  V30 20618 N 1955.34 -0.777353 6.88425 0
M  V30 20619 N 1957.14 -0.803521 5.56327 0
M  V30 20620 H 1949.29 0.723442 1.997 0
M  V30 20621 H 1951.55 0.263405 0.910671 0
M  V30 20622 H 1951.26 0.395034 3.49474 0
M  V30 20623 H 1951.13 -1.35501 3.52022 0
M  V30 20624 H 1953.52 -1.50312 2.53949 0
M  V30 20625 H 1953.6 0.26443 2.5443 0
M  V30 20626 H 1953.24 0.251606 5.07276 0
M  V30 20627 H 1953.17 -1.52822 5.03937 0
M  V30 20628 H 1955.66 -0.7042 3.71281 0
M  V30 20629 H 1955.98 -0.821026 7.68426 0
M  V30 20630 H 1954.32 -0.745281 6.90992 0
M  V30 20631 H 1957.51 -0.789365 4.61396 0
M  V30 20632 H 1957.69 -0.842864 6.42495 0
M  V30 20633 N 1951.09 -1.51916 -0.419434 0
M  V30 20634 C 1952.51 -1.4049 -0.757287 0
M  V30 20635 C 1952.71 -0.501274 -1.95165 0
M  V30 20636 O 1951.76 0.0368349 -2.52473 0
M  V30 20637 C 1953.08 -2.8284 -1.02088 0
M  V30 20638 C 1954.63 -2.92113 -1.12422 0
M  V30 20639 C 1955.1 -4.3541 -1.42064 0
M  V30 20640 N 1956.59 -4.38598 -1.4895 0
M  V30 20641 C 1957.33 -5.46524 -1.73492 0
M  V30 20642 N 1956.82 -6.64583 -1.95706 0
M  V30 20643 N 1958.62 -5.34026 -1.75422 0
M  V30 20644 H 1950.77 -2.09207 0.366909 0
M  V30 20645 H 1953.03 -0.942516 0.101822 0
M  V30 20646 H 1952.74 -3.51038 -0.215755 0
M  V30 20647 H 1952.61 -3.23259 -1.9438 0
M  V30 20648 H 1955 -2.24103 -1.91994 0
M  V30 20649 H 1955.08 -2.55167 -0.179896 0
M  V30 20650 H 1954.72 -5.03976 -0.630123 0
M  V30 20651 H 1954.65 -4.69884 -2.37731 0
M  V30 20652 H 1957.14 -3.53491 -1.33614 0
M  V30 20653 H 1957.46 -7.42621 -2.13854 0
M  V30 20654 H 1955.8 -6.67667 -1.92992 0
M  V30 20655 H 1958.99 -4.40773 -1.57598 0
M  V30 20656 H 1959.16 -6.18212 -1.9421 0
M  V30 20657 N 1952.57 0.676023 -1.42365 0
M  V30 20658 C 1953.98 1.25659 -1.38082 0
M  V30 20659 C 1954.33 1.96062 -0.0734945 0
M  V30 20660 O 1953.46 1.99941 0.827793 0
M  V30 20661 C 1954.05 2.28531 -2.50118 0
M  V30 20662 C 1952.61 2.82117 -2.49172 0
M  V30 20663 C 1951.76 1.56422 -2.28971 0
M  V30 20664 H 1954.71 0.469489 -1.51596 0
M  V30 20665 H 1954.73 3.1024 -2.20299 0
M  V30 20666 H 1954.24 1.77261 -3.45254 0
M  V30 20667 H 1952.34 3.37511 -1.57851 0
M  V30 20668 H 1952.46 3.31216 -3.46168 0
M  V30 20669 H 1950.82 1.82946 -1.77208 0
M  V30 20670 H 1951.6 1.0712 -3.2616 0
M  V30 20671 N 1954.05 1.28517 0.912209 0
M  V30 20672 C 1954.96 1.14429 2.048 0
M  V30 20673 C 1955.97 0.0704926 1.73857 0
M  V30 20674 O 1957.15 0.280091 1.99443 0
M  V30 20675 C 1954.22 0.809034 3.37128 0
M  V30 20676 C 1953.28 1.96535 3.8167 0
M  V30 20677 C 1952.51 1.646 5.07684 0
M  V30 20678 O 1952.73 0.561072 5.67634 0
M  V30 20679 O 1951.67 2.49011 5.47975 0
M  V30 20680 H 1955.49 2.0978 2.19604 0
M  V30 20681 H 1953.08 1.0785 1.03387 0
M  V30 20682 H 1954.96 0.636082 4.16572 0
M  V30 20683 H 1953.63 -0.114812 3.23496 0
M  V30 20684 H 1952.54 2.19347 3.03047 0
M  V30 20685 H 1953.87 2.86996 3.99868 0
M  V30 20686 N 1955.53 -1.12086 1.1079 0
M  V30 20687 C 1956.94 -1.35679 0.840432 0
M  V30 20688 C 1957.14 -1.94177 -0.538279 0
M  V30 20689 O 1956.2 -2.17035 -1.29043 0
M  V30 20690 C 1957.51 -2.29487 1.94309 0
M  V30 20691 C 1959.06 -2.43069 1.97197 0
M  V30 20692 C 1959.53 -3.40194 3.06646 0
M  V30 20693 N 1961.03 -3.47753 3.05977 0
M  V30 20694 C 1961.76 -4.22826 3.87305 0
M  V30 20695 N 1961.26 -5.00933 4.78579 0
M  V30 20696 N 1963.05 -4.1827 3.75509 0
M  V30 20697 H 1955.2 -0.724754 1.99652 0
M  V30 20698 H 1957.46 -0.381544 0.86783 0
M  V30 20699 H 1957.17 -1.93685 2.93563 0
M  V30 20700 H 1957.04 -3.29644 1.83343 0
M  V30 20701 H 1959.43 -2.7815 0.985735 0
M  V30 20702 H 1959.51 -1.42788 2.12239 0
M  V30 20703 H 1959.16 -3.05842 4.05491 0
M  V30 20704 H 1959.09 -4.40314 2.88845 0
M  V30 20705 H 1961.58 -2.92035 2.39841 0
M  V30 20706 H 1961.89 -5.55565 5.37185 0
M  V30 20707 H 1960.23 -5.00117 4.82605 0
M  V30 20708 H 1963.43 -3.56334 3.03551 0
M  V30 20709 H 1963.6 -4.76521 4.39126 0
M  V30 20710 N 1957 -0.897194 -1.29569 0
M  V30 20711 C 1958.25 -0.520803 -1.95274 0
M  V30 20712 C 1958.57 0.935501 -1.71095 0
M  V30 20713 O 1957.84 1.65932 -1.04131 0
M  V30 20714 H 1956.42 -0.18961 -0.722535 0
M  V30 20715 H 1959.09 -1.14294 -1.5787 0
M  V30 20716 H 1958.18 -0.701293 -3.04119 0
M  V30 20717 N 1958.48 1.43142 -0.659413 0
M  V30 20718 C 1959.45 2.29192 0.0190393 0
M  V30 20719 C 1960.45 1.42532 0.744404 0
M  V30 20720 O 1961.64 1.64093 0.584722 0
M  V30 20721 C 1958.77 3.24723 1.03769 0
M  V30 20722 H 1959.96 2.90674 -0.738166 0
M  V30 20723 H 1957.51 1.50525 -0.420956 0
M  V30 20724 H 1958.25 2.68149 1.82392 0
M  V30 20725 H 1958.03 3.88621 0.52115 0
M  V30 20726 H 1959.52 3.89294 1.5113 0
M  V30 20727 N 1959.96 0.40173 1.52394 0
M  V30 20728 C 1961.38 0.0522587 1.59514 0
M  V30 20729 C 1961.58 -1.43455 1.41502 0
M  V30 20730 O 1960.63 -2.20053 1.23825 0
M  V30 20731 C 1961.95 0.540559 2.95801 0
M  V30 20732 C 1963.49 0.497892 3.09015 0
M  V30 20733 C 1963.97 0.962581 4.4777 0
M  V30 20734 N 1965.46 0.919099 4.5399 0
M  V30 20735 C 1966.19 1.24993 5.59611 0
M  V30 20736 N 1965.69 1.65185 6.72819 0
M  V30 20737 N 1967.48 1.17038 5.49781 0
M  V30 20738 H 1959.63 1.36954 1.6235 0
M  V30 20739 H 1961.9 0.562141 0.763349 0
M  V30 20740 H 1961.6 1.57946 3.14239 0
M  V30 20741 H 1961.48 -0.0537516 3.77162 0
M  V30 20742 H 1963.86 -0.531947 2.90266 0
M  V30 20743 H 1963.95 1.12816 2.29578 0
M  V30 20744 H 1963.59 1.99071 4.67261 0
M  V30 20745 H 1963.52 0.309196 5.25691 0
M  V30 20746 H 1966.01 0.623503 3.72721 0
M  V30 20747 H 1966.32 1.88759 7.49393 0
M  V30 20748 H 1964.67 1.69082 6.74119 0
M  V30 20749 H 1967.86 0.855299 4.6022 0
M  V30 20750 H 1968.03 1.43151 6.3199 0
M  V30 20751 N 1961.44 -1.57047 0.131923 0
M  V30 20752 C 1962.69 -1.95245 -0.521892 0
M  V30 20753 C 1963.01 -1.01692 -1.66385 0
M  V30 20754 O 1962.28 -0.0756026 -1.95754 0
M  V30 20755 H 1960.86 -0.720886 -0.195786 0
M  V30 20756 H 1963.52 -1.93831 0.203893 0
M  V30 20757 H 1962.62 -2.986 -0.907979 0
M  V30 20758 N 1962.92 0.141865 -1.5696 0
M  V30 20759 C 1964.16 0.851923 -1.83267 0
M  V30 20760 C 1964.49 1.81473 -0.713611 0
M  V30 20761 O 1963.76 1.94109 0.264326 0
M  V30 20762 H 1962.34 0.317594 -0.676124 0
M  V30 20763 H 1965 0.134643 -1.94434 0
M  V30 20764 H 1964.09 1.41106 -2.7838 0
M  V30 20765 N 1964.39 1.52136 0.411372 0
M  V30 20766 C 1965.33 1.71544 1.52005 0
M  V30 20767 C 1966.34 0.595859 1.51504 0
M  V30 20768 O 1967.53 0.870952 1.5581 0
M  V30 20769 C 1964.63 1.73867 2.90901 0
M  V30 20770 C 1963.8 3.02826 3.15619 0
M  V30 20771 C 1962.86 2.96991 4.34376 0
M  V30 20772 O 1961.89 3.70901 4.31765 0
M  V30 20773 N 1963.09 2.14626 5.39366 0
M  V30 20774 H 1965.85 2.67192 1.35752 0
M  V30 20775 H 1963.41 1.50346 0.600643 0
M  V30 20776 H 1965.41 1.67498 3.68411 0
M  V30 20777 H 1963.98 0.85702 3.00623 0
M  V30 20778 H 1963.2 3.22861 2.26174 0
M  V30 20779 H 1964.48 3.8814 3.28976 0
M  V30 20780 H 1963.88 1.54003 5.44334 0
M  V30 20781 H 1962.44 2.14116 6.15628 0
M  V30 20782 N 1965.87 -0.668464 1.42721 0
M  V30 20783 C 1967.12 -1.43061 1.43741 0
M  V30 20784 C 1967.45 -1.9412 0.0558656 0
M  V30 20785 O 1966.73 -1.71317 -0.920904 0
M  V30 20786 C 1967.01 -2.62307 2.46712 0
M  V30 20787 C 1966.86 -2.16839 3.94082 0
M  V30 20788 C 1968.18 -3.64525 2.46596 0
M  V30 20789 H 1965.3 -0.518854 0.523412 0
M  V30 20790 H 1967.94 -0.759144 1.74175 0
M  V30 20791 H 1966.09 -3.19593 2.20891 0
M  V30 20792 H 1967.77 -1.64672 4.30907 0
M  V30 20793 H 1966.01 -1.48352 4.07645 0
M  V30 20794 H 1966.68 -3.02521 4.6172 0
M  V30 20795 H 1969.16 -3.16968 2.69574 0
M  V30 20796 H 1968.03 -4.45532 3.20613 0
M  V30 20797 H 1968.29 -4.16084 1.49421 0
M  V30 20798 N 1967.35 -1.28999 -0.905381 0
M  V30 20799 C 1968.6 -1.1664 -1.65534 0
M  V30 20800 C 1968.93 0.283294 -1.92426 0
M  V30 20801 O 1968.18 1.22166 -1.52885 0
M  V30 20802 C 1968.48 -1.91909 -3.01506 0
M  V30 20803 C 1968.15 -3.4166 -2.94243 0
M  V30 20804 C 1966.81 -3.82501 -2.91969 0
M  V30 20805 C 1969.16 -4.37112 -2.8387 0
M  V30 20806 C 1966.49 -5.1712 -2.77135 0
M  V30 20807 C 1968.84 -5.71814 -2.70576 0
M  V30 20808 C 1967.5 -6.1192 -2.66665 0
M  V30 20809 H 1966.77 -0.426816 -0.60573 0
M  V30 20810 H 1969.42 -1.5987 -1.05422 0
M  V30 20811 H 1967.73 -1.41252 -3.65452 0
M  V30 20812 H 1969.42 -1.79756 -3.58453 0
M  V30 20813 H 1966.01 -3.09194 -2.96812 0
M  V30 20814 H 1970.2 -4.06516 -2.84708 0
M  V30 20815 H 1965.45 -5.47311 -2.72508 0
M  V30 20816 H 1969.63 -6.45431 -2.61519 0
M  V30 20817 H 1967.25 -7.16182 -2.54928 0
M  V30 20818 N 1968.83 1.11497 -1.11383 0
M  V30 20819 C 1970.06 1.86756 -0.88351 0
M  V30 20820 C 1970.47 1.80404 0.570169 0
M  V30 20821 O 1969.81 1.18298 1.40539 0
M  V30 20822 C 1969.87 3.3647 -1.26603 0
M  V30 20823 C 1969.54 3.6659 -2.72876 0
M  V30 20824 C 1970.53 3.64121 -3.71095 0
M  V30 20825 C 1968.22 3.95614 -3.09507 0
M  V30 20826 C 1970.21 3.90253 -5.03966 0
M  V30 20827 C 1967.9 4.21404 -4.42563 0
M  V30 20828 C 1968.9 4.18712 -5.39601 0
M  V30 20829 O 1968.59 4.43855 -6.7026 0
M  V30 20830 H 1968.32 0.597446 -0.316283 0
M  V30 20831 H 1970.87 1.41938 -1.48469 0
M  V30 20832 H 1969.1 3.8189 -0.608003 0
M  V30 20833 H 1970.79 3.93092 -1.01162 0
M  V30 20834 H 1971.56 3.41749 -3.4414 0
M  V30 20835 H 1967.44 3.96846 -2.34594 0
M  V30 20836 H 1970.98 3.88067 -5.79698 0
M  V30 20837 H 1966.88 4.43252 -4.69252 0
M  V30 20838 H 1967.64 4.61425 -6.76039 0
M  V30 20839 N 1970.31 0.904053 1.29092 0
M  V30 20840 C 1971.26 0.375028 2.29557 0
M  V30 20841 C 1972.25 -0.528146 1.60956 0
M  V30 20842 O 1973.46 -0.410465 1.75257 0
M  V30 20843 H 1969.83 0.102657 0.74496 0
M  V30 20844 H 1971.8 1.23564 2.71615 0
M  V30 20845 C 1970.55 -0.37845 3.45634 0
M  V30 20846 H 1969.87 0.307303 3.98617 0
M  V30 20847 H 1971.31 -0.713405 4.17955 0
M  V30 20848 C 1969.77 -1.58274 2.97407 0
M  V30 20849 O 1970.3 -2.68199 2.99052 0
M  V30 20850 N 1968.51 -1.4264 2.53184 0
M  V30 20851 H 1968.06 -0.532104 2.52044 0
M  V30 20852 H 1968.01 -2.23348 2.21276 0
M  V30 20853 N 1971.79 -1.4279 0.666995 0
M  V30 20854 C 1973.01 -2.06504 0.192596 0
M  V30 20855 C 1973.44 -1.49743 -1.13836 0
M  V30 20856 O 1972.79 -0.612797 -1.7063 0
M  V30 20857 C 1972.84 -3.60366 0.129775 0
M  V30 20858 O 1971.95 -4.0237 -0.904018 0
M  V30 20859 H 1971.29 -0.656244 0.101194 0
M  V30 20860 H 1973.82 -1.83059 0.913807 0
M  V30 20861 H 1973.83 -4.07971 -0.0489739 0
M  V30 20862 H 1972.5 -4.01054 1.1013 0
M  V30 20863 H 1971.08 -3.66329 -0.696943 0
M  V30 20864 N 1973.26 -0.409806 -1.52179 0
M  V30 20865 C 1974.17 0.42219 -2.3077 0
M  V30 20866 C 1975.19 1.05295 -1.38524 0
M  V30 20867 O 1976.37 1.05432 -1.71599 0
M  V30 20868 C 1973.43 1.52345 -3.11435 0
M  V30 20869 C 1972.49 0.91568 -4.19421 0
M  V30 20870 C 1971.72 1.96446 -4.9623 0
M  V30 20871 O 1971.95 3.18271 -4.7335 0
M  V30 20872 O 1970.88 1.57032 -5.81055 0
M  V30 20873 H 1974.71 -0.218635 -3.02912 0
M  V30 20874 H 1972.29 -0.172994 -1.48395 0
M  V30 20875 H 1974.17 2.16276 -3.61666 0
M  V30 20876 H 1972.85 2.14886 -2.42086 0
M  V30 20877 H 1971.76 0.239064 -3.73335 0
M  V30 20878 H 1973.09 0.33418 -4.91064 0
M  V30 20879 N 1974.74 1.56975 -0.14025 0
M  V30 20880 C 1975.97 1.99977 0.518922 0
M  V30 20881 C 1976.38 1.01924 1.59399 0
M  V30 20882 O 1975.72 0.007174 1.83699 0
M  V30 20883 C 1975.78 3.3941 1.18495 0
M  V30 20884 C 1975.45 4.56286 0.255289 0
M  V30 20885 C 1976.45 5.17349 -0.514424 0
M  V30 20886 C 1974.13 5.02045 0.160162 0
M  V30 20887 C 1976.12 6.22574 -1.36678 0
M  V30 20888 C 1973.81 6.07126 -0.695808 0
M  V30 20889 C 1974.81 6.67259 -1.45789 0
M  V30 20890 O 1974.5 7.70307 -2.29961 0
M  V30 20891 H 1974.23 0.661305 0.140186 0
M  V30 20892 H 1976.78 2.04111 -0.22979 0
M  V30 20893 H 1975.01 3.32095 1.98116 0
M  V30 20894 H 1976.7 3.66563 1.74316 0
M  V30 20895 H 1977.47 4.82899 -0.450926 0
M  V30 20896 H 1973.35 4.54972 0.743062 0
M  V30 20897 H 1976.89 6.69439 -1.96208 0
M  V30 20898 H 1972.79 6.41003 -0.760622 0
M  V30 20899 H 1973.56 7.87498 -2.23135 0
M  V30 20900 N 1976.22 -0.133539 1.57033 0
M  V30 20901 C 1977.47 -0.842192 1.83716 0
M  V30 20902 C 1977.79 -1.81092 0.723225 0
M  V30 20903 O 1977.06 -1.94246 -0.254028 0
M  V30 20904 H 1975.64 -0.314004 0.677798 0
M  V30 20905 H 1978.3 -0.124329 1.94503 0
M  V30 20906 H 1977.4 -1.39628 2.79125 0
M  V30 20907 N 1977.7 -1.52352 -0.403298 0
M  V30 20908 C 1978.61 -1.79011 -1.51631 0
M  V30 20909 C 1979.62 -0.676014 -1.60331 0
M  V30 20910 O 1980.8 -0.962058 -1.76936 0
M  V30 20911 C 1977.86 -1.94046 -2.8731 0
M  V30 20912 C 1976.93 -3.17955 -2.88449 0
M  V30 20913 C 1976.16 -3.32264 -4.17656 0
M  V30 20914 O 1976.38 -2.51703 -5.11861 0
M  V30 20915 O 1975.32 -4.25446 -4.25769 0
M  V30 20916 H 1979.14 -2.73495 -1.32038 0
M  V30 20917 H 1976.73 -1.37268 -0.589733 0
M  V30 20918 H 1978.61 -2.05724 -3.67771 0
M  V30 20919 H 1977.28 -1.02752 -3.06959 0
M  V30 20920 H 1976.19 -3.11731 -2.0682 0
M  V30 20921 H 1977.52 -4.0905 -2.7375 0
M  V30 20922 N 1979.18 0.660885 -1.43074 0
M  V30 20923 C 1980.11 1.78579 -1.50438 0
M  V30 20924 C 1981.09 1.66253 -0.359703 0
M  V30 20925 O 1982.27 1.85465 -0.575893 0
M  V30 20926 C 1979.4 3.16963 -1.41956 0
M  V30 20927 C 1978.36 3.44043 -2.54594 0
M  V30 20928 C 1977.68 4.82147 -2.31166 0
M  V30 20929 C 1978.98 3.3955 -3.96867 0
M  V30 20930 H 1980.68 1.72673 -2.4459 0
M  V30 20931 H 1978.22 0.829317 -1.17721 0
M  V30 20932 H 1980.17 3.95406 -1.45713 0
M  V30 20933 H 1978.9 3.23581 -0.443048 0
M  V30 20934 H 1977.56 2.67969 -2.50177 0
M  V30 20935 H 1977.21 4.85432 -1.31776 0
M  V30 20936 H 1976.91 5.01228 -3.06667 0
M  V30 20937 H 1978.43 5.62857 -2.36695 0
M  V30 20938 H 1979.84 4.0794 -4.02813 0
M  V30 20939 H 1978.24 3.70166 -4.72332 0
M  V30 20940 H 1979.31 2.37868 -4.22548 0
M  V30 20941 N 1980.65 1.29477 0.898527 0
M  V30 20942 C 1981.88 1.20529 1.68783 0
M  V30 20943 C 1982.3 -0.230536 1.86682 0
M  V30 20944 O 1981.66 -1.1664 1.38798 0
M  V30 20945 C 1981.71 1.92501 3.04919 0
M  V30 20946 O 1980.81 1.24286 3.93226 0
M  V30 20947 H 1980.16 0.417586 0.516254 0
M  V30 20948 H 1982.69 1.71066 1.1224 0
M  V30 20949 H 1982.7 2.01001 3.55053 0
M  V30 20950 H 1981.37 2.96934 2.9121 0
M  V30 20951 H 1979.95 1.24052 3.51661 0
M  V30 20952 N 1982.13 -1.10905 1.11972 0
M  V30 20953 C 1983.04 -2.20682 0.796029 0
M  V30 20954 C 1984.06 -1.72689 -0.213158 0
M  V30 20955 O 1985.23 -2.01343 -0.047955 0
M  V30 20956 C 1982.3 -3.45797 0.250055 0
M  V30 20957 C 1981.36 -4.08549 1.31855 0
M  V30 20958 C 1980.59 -5.27692 0.798538 0
M  V30 20959 O 1980.82 -5.69202 -0.369435 0
M  V30 20960 O 1979.75 -5.81174 1.5659 0
M  V30 20961 H 1983.58 -2.50794 1.71278 0
M  V30 20962 H 1981.16 -1.19548 0.896024 0
M  V30 20963 H 1983.04 -4.21371 -0.0497791 0
M  V30 20964 H 1981.72 -3.17324 -0.639327 0
M  V30 20965 H 1980.63 -3.34682 1.67148 0
M  V30 20966 H 1981.96 -4.41215 2.18153 0
M  V30 20967 N 1983.61 -0.910886 -1.2861 0
M  V30 20968 C 1985.02 -0.589499 -1.77149 0
M  V30 20969 C 1985.37 0.895128 -1.74591 0
M  V30 20970 O 1984.5 1.70016 -1.33879 0
M  V30 20971 C 1985.09 -1.06332 -3.21682 0
M  V30 20972 C 1983.65 -0.792899 -3.67954 0
M  V30 20973 C 1982.8 -1.23167 -2.48445 0
M  V30 20974 H 1985.75 -1.09245 -1.15114 0
M  V30 20975 H 1985.77 -0.403495 -3.78355 0
M  V30 20976 H 1985.28 -2.14387 -3.23512 0
M  V30 20977 H 1983.38 0.274569 -3.71587 0
M  V30 20978 H 1983.5 -1.39863 -4.5823 0
M  V30 20979 H 1981.86 -0.650459 -2.46254 0
M  V30 20980 H 1982.64 -2.32051 -2.52996 0
M  V30 20981 N 1985.09 1.42434 -0.674558 0
M  V30 20982 C 1986.31 2.06399 -0.203545 0
M  V30 20983 C 1986.74 1.50345 1.1304 0
M  V30 20984 O 1986.1 0.621837 1.70302 0
M  V30 20985 C 1986.14 3.60293 -0.148884 0
M  V30 20986 O 1985.25 4.02843 0.882667 0
M  V30 20987 H 1984.59 0.655698 -0.104672 0
M  V30 20988 H 1987.12 1.82572 -0.923502 0
M  V30 20989 H 1987.13 4.07991 0.0273375 0
M  V30 20990 H 1985.8 4.00464 -1.12256 0
M  V30 20991 H 1984.38 3.66694 0.677506 0
M  V30 20992 N 1986.57 0.417871 1.51959 0
M  V30 20993 C 1987.48 -0.409946 2.3099 0
M  V30 20994 C 1988.49 -1.04559 1.39081 0
M  V30 20995 O 1989.67 -1.0452 1.72155 0
M  V30 20996 C 1986.73 -1.50691 3.12239 0
M  V30 20997 C 1985.79 -0.893424 4.199 0
M  V30 20998 C 1985.03 -1.93812 4.97265 0
M  V30 20999 O 1985.25 -3.15756 4.75031 0
M  V30 21000 O 1984.18 -1.53948 5.81879 0
M  V30 21001 H 1988.01 0.234696 3.02792 0
M  V30 21002 H 1985.6 0.180861 1.48301 0
M  V30 21003 H 1987.48 -2.14355 3.62808 0
M  V30 21004 H 1986.15 -2.136 2.43222 0
M  V30 21005 H 1985.06 -0.219262 3.73457 0
M  V30 21006 H 1986.39 -0.308133 4.91235 0
M  V30 21007 N 1988.04 -1.56898 0.148573 0
M  V30 21008 C 1988.95 -2.2041 -0.80353 0
M  V30 21009 C 1989.97 -1.18886 -1.27052 0
M  V30 21010 O 1991.15 -1.51468 -1.32738 0
M  V30 21011 C 1988.21 -2.81447 -2.02456 0
M  V30 21012 C 1987.27 -3.98102 -1.60665 0
M  V30 21013 C 1986.51 -4.56219 -2.76948 0
M  V30 21014 O 1986.73 -4.13215 -3.93204 0
M  V30 21015 O 1985.66 -5.46455 -2.52329 0
M  V30 21016 H 1989.49 -3.02284 -0.292881 0
M  V30 21017 H 1987.07 -1.49193 -0.0785299 0
M  V30 21018 H 1988.96 -3.20235 -2.73911 0
M  V30 21019 H 1987.63 -2.02585 -2.5247 0
M  V30 21020 H 1986.54 -3.64027 -0.862287 0
M  V30 21021 H 1987.87 -4.78489 -1.15365 0
M  V30 21022 N 1989.52 0.125209 -1.57102 0
M  V30 21023 C 1990.8 0.864033 -1.75482 0
M  V30 21024 C 1991.18 1.98355 -0.722399 0
M  V30 21025 O 1990.53 2.27075 0.254784 0
M  V30 21026 C 1990.74 1.38644 -3.20279 0
M  V30 21027 C 1992.09 1.84125 -3.82601 0
M  V30 21028 O 1993.11 1.48338 -3.23843 0
M  V30 21029 O 1991.97 2.50194 -4.85866 0
M  V30 21030 H 1989.06 0.409865 -0.718289 0
M  V30 21031 H 1991.61 0.109434 -1.69347 0
M  V30 21032 H 1990.38 0.582938 -3.86933 0
M  V30 21033 H 1990 2.20393 -3.30927 0
M  V30 21034 N 1991 1.52564 0.395213 0
M  V30 21035 C 1991.95 1.73281 1.48181 0
M  V30 21036 C 1992.93 0.586818 1.49817 0
M  V30 21037 O 1994.13 0.844419 1.55559 0
M  V30 21038 C 1991.26 1.89948 2.85963 0
M  V30 21039 C 1990.34 3.10461 2.8892 0
M  V30 21040 N 1990.73 4.32923 2.61556 0
M  V30 21041 C 1989.03 3.10579 3.20088 0
M  V30 21042 C 1989.73 5.14487 2.71438 0
M  V30 21043 N 1988.71 4.50037 3.04906 0
M  V30 21044 H 1992.51 2.65596 1.25841 0
M  V30 21045 H 1990.02 1.50787 0.603091 0
M  V30 21046 H 1992.02 2.0291 3.64188 0
M  V30 21047 H 1990.68 0.988426 3.0929 0
M  V30 21048 H 1991.69 4.61161 2.35692 0
M  V30 21049 H 1988.37 2.29261 3.48921 0
M  V30 21050 H 1989.76 6.22089 2.53879 0
M  V30 21051 N 1992.48 -0.653289 1.43422 0
M  V30 21052 C 1993.72 -1.42498 1.46539 0
M  V30 21053 C 1994.08 -1.91802 0.087095 0
M  V30 21054 O 1995.28 -2.68799 -0.00704917 0
M  V30 21055 C 1993.55 -2.57481 2.47868 0
M  V30 21056 S 1995.11 -3.46008 2.69859 0
M  V30 21057 H 1991.93 -0.486421 0.518571 0
M  V30 21058 H 1994.53 -0.758465 1.80188 0
M  V30 21059 H 1993.24 -2.19533 3.46747 0
M  V30 21060 H 1992.77 -3.28983 2.15717 0
M  V30 21061 H 1994.78 -4.54205 1.9978 0
M  V30 21062 N 1993.96 -1.29952 -0.891648 0
M  V30 21063 C 1995.18 -1.21422 -1.68141 0
M  V30 21064 C 1995.61 0.220633 -1.86802 0
M  V30 21065 O 1994.96 1.15902 -1.39414 0
M  V30 21066 C 1995.01 -1.94116 -3.03894 0
M  V30 21067 O 1994.12 -1.26369 -3.92562 0
M  V30 21068 H 1993.46 -0.420318 -0.514032 0
M  V30 21069 H 1995.99 -1.71658 -1.11331 0
M  V30 21070 H 1996 -2.02881 -3.53982 0
M  V30 21071 H 1994.67 -2.98474 -2.89631 0
M  V30 21072 H 1993.25 -1.25915 -3.50998 0
M  V30 21073 N 1995.44 1.1031 -1.12559 0
M  V30 21074 C 1996.85 1.63801 -0.895891 0
M  V30 21075 C 1997.2 1.87753 0.569511 0
M  V30 21076 O 1996.32 1.62046 1.43423 0
M  V30 21077 C 1996.92 2.9757 -1.6198 0
M  V30 21078 C 1995.48 3.47922 -1.43622 0
M  V30 21079 C 1994.62 2.22506 -1.65489 0
M  V30 21080 H 1997.57 0.937927 -1.28018 0
M  V30 21081 H 1997.6 3.65099 -1.07159 0
M  V30 21082 H 1997.11 2.80105 -2.68631 0
M  V30 21083 H 1995.21 3.70529 -0.392328 0
M  V30 21084 H 1995.32 4.25953 -2.1932 0
M  V30 21085 H 1993.69 2.30712 -1.07908 0
M  V30 21086 H 1994.47 2.07571 -2.7344 0
M  V30 21087 N 1996.91 0.917694 1.28125 0
M  V30 21088 C 1998.14 0.56827 1.99463 0
M  V30 21089 C 1998.56 -0.844246 1.6809 0
M  V30 21090 O 1997.92 -1.56487 0.915504 0
M  V30 21091 C 1997.97 0.788859 3.51866 0
M  V30 21092 O 1997.07 -0.150301 4.12126 0
M  V30 21093 H 1996.41 0.219899 0.626531 0
M  V30 21094 H 1998.94 1.23421 1.63182 0
M  V30 21095 H 1998.95 0.700502 4.01942 0
M  V30 21096 H 1997.63 1.81855 3.74034 0
M  V30 21097 H 1996.21 -0.012878 3.72898 0
M  V30 21098 N 1998.39 -1.42074 0.682102 0
M  V30 21099 C 1999.35 -2.29193 0.0174256 0
M  V30 21100 C 2000.35 -1.43698 -0.721635 0
M  V30 21101 O 2001.54 -1.65003 -0.558542 0
M  V30 21102 C 1998.68 -3.26332 -0.985903 0
M  V30 21103 H 1999.87 -2.89462 0.784316 0
M  V30 21104 H 1997.42 -1.49836 0.44485 0
M  V30 21105 H 1998.16 -2.71016 -1.78103 0
M  V30 21106 H 1997.94 -3.89401 -0.459258 0
M  V30 21107 H 1999.43 -3.91649 -1.44918 0
M  V30 21108 N 1999.87 -0.425924 -1.51735 0
M  V30 21109 C 2001.29 -0.0776294 -1.59411 0
M  V30 21110 C 2001.49 1.41186 -1.43767 0
M  V30 21111 O 2000.54 2.18056 -1.27311 0
M  V30 21112 C 2001.85 -0.58755 -2.94904 0
M  V30 21113 C 2003.4 -0.54699 -3.08183 0
M  V30 21114 C 2003.88 -1.0337 -4.46182 0
M  V30 21115 N 2005.37 -0.991208 -4.5247 0
M  V30 21116 C 2006.1 -1.3388 -5.57552 0
M  V30 21117 N 2005.6 -1.75868 -6.70106 0
M  V30 21118 N 2007.39 -1.25769 -5.47849 0
M  V30 21119 H 1999.54 -1.39519 -1.60151 0
M  V30 21120 H 2001.81 -0.574214 -0.754309 0
M  V30 21121 H 2001.51 -1.62925 -3.11686 0
M  V30 21122 H 2001.39 -0.0062584 -3.77199 0
M  V30 21123 H 2003.77 0.485701 -2.91076 0
M  V30 21124 H 2003.85 -1.16454 -2.27754 0
M  V30 21125 H 2003.5 -2.0648 -4.64035 0
M  V30 21126 H 2003.43 -0.39279 -5.25133 0
M  V30 21127 H 2005.92 -0.682721 -3.71682 0
M  V30 21128 H 2006.23 -2.00657 -7.46295 0
M  V30 21129 H 2004.58 -1.79785 -6.71344 0
M  V30 21130 H 2007.77 -0.928407 -4.58801 0
M  V30 21131 H 2007.94 -1.53187 -6.29633 0
M  V30 21132 N 2001.35 1.56817 -0.156891 0
M  V30 21133 C 2002.59 1.9673 0.492464 0
M  V30 21134 C 2002.93 1.04226 1.63862 0
M  V30 21135 O 2002.2 0.0865469 1.94307 0
M  V30 21136 C 2002.48 3.46246 0.989218 0
M  V30 21137 C 2002.34 4.49529 -0.156119 0
M  V30 21138 C 2003.66 3.98502 1.86773 0
M  V30 21139 H 2000.78 0.715297 0.177537 0
M  V30 21140 H 2003.42 1.88477 -0.240116 0
M  V30 21141 H 2001.57 3.53411 1.61348 0
M  V30 21142 H 2003.24 4.54437 -0.792781 0
M  V30 21143 H 2001.48 4.26098 -0.813797 0
M  V30 21144 H 2002.15 5.51507 0.233341 0
M  V30 21145 H 2004.63 3.93879 1.34159 0
M  V30 21146 H 2003.51 5.03564 2.18436 0
M  V30 21147 H 2003.77 3.4145 2.80828 0
M  V30 21148 N 2002.83 -0.116876 1.57166 0
M  V30 21149 C 2004.05 -0.838417 1.89151 0
M  V30 21150 C 2004.47 -1.73335 0.748361 0
M  V30 21151 O 2003.83 -1.80328 -0.280719 0
M  V30 21152 C 2003.88 -1.67006 3.20611 0
M  V30 21153 O 2003.6 -0.811158 4.30525 0
M  V30 21154 C 2005.1 -2.49657 3.66314 0
M  V30 21155 H 2002.32 -0.240909 0.626262 0
M  V30 21156 H 2004.86 -0.100631 2.04252 0
M  V30 21157 H 2003.02 -2.36058 3.07173 0
M  V30 21158 H 2003.43 -1.38499 5.05884 0
M  V30 21159 H 2004.91 -3.03537 4.61052 0
M  V30 21160 H 2005.38 -3.27114 2.93075 0
M  V30 21161 H 2005.99 -1.85844 3.82547 0
M  V30 21162 N 2004.3 -1.52772 -0.387116 0
M  V30 21163 C 2005.55 -1.67907 -1.13196 0
M  V30 21164 C 2005.88 -0.419946 -1.89912 0
M  V30 21165 O 2005.13 0.5977 -1.86349 0
M  V30 21166 C 2005.43 -2.86632 -2.13487 0
M  V30 21167 C 2005.1 -4.23999 -1.53414 0
M  V30 21168 C 2003.76 -4.61358 -1.36757 0
M  V30 21169 C 2006.11 -5.09513 -1.09756 0
M  V30 21170 C 2003.44 -5.81887 -0.749927 0
M  V30 21171 C 2005.79 -6.30668 -0.494012 0
M  V30 21172 C 2004.46 -6.66757 -0.314755 0
M  V30 21173 H 2003.73 -0.614416 -0.414214 0
M  V30 21174 H 2006.37 -1.86919 -0.416362 0
M  V30 21175 H 2004.68 -2.62045 -2.91273 0
M  V30 21176 H 2006.38 -2.95538 -2.71032 0
M  V30 21177 H 2002.97 -3.94571 -1.67367 0
M  V30 21178 H 2007.15 -4.81217 -1.21426 0
M  V30 21179 H 2002.41 -6.08456 -0.599259 0
M  V30 21180 H 2006.58 -6.96244 -0.14743 0
M  V30 21181 H 2004.21 -7.60019 0.165924 0
M  V30 21182 N 2005.78 0.645673 -1.43767 0
M  V30 21183 C 2007.03 1.40547 -1.45783 0
M  V30 21184 C 2007.36 1.94314 -0.0849322 0
M  V30 21185 O 2006.61 1.73193 0.911191 0
M  V30 21186 C 2006.91 2.59872 -2.45359 0
M  V30 21187 C 2006.58 2.2448 -3.91049 0
M  V30 21188 C 2005.24 2.1454 -4.30728 0
M  V30 21189 C 2007.59 1.9628 -4.82829 0
M  V30 21190 C 2004.92 1.74567 -5.60128 0
M  V30 21191 C 2007.27 1.57804 -6.12602 0
M  V30 21192 C 2005.93 1.46395 -6.51249 0
M  V30 21193 H 2005.2 0.5143 -0.533458 0
M  V30 21194 H 2007.85 0.733575 -1.76892 0
M  V30 21195 H 2006.16 3.32229 -2.07681 0
M  V30 21196 H 2007.85 3.1809 -2.44171 0
M  V30 21197 H 2004.44 2.33129 -3.59651 0
M  V30 21198 H 2008.63 2.02877 -4.5294 0
M  V30 21199 H 2003.88 1.64326 -5.88903 0
M  V30 21200 H 2008.06 1.35018 -6.83186 0
M  V30 21201 H 2005.68 1.15193 -7.51422 0
M  V30 21202 N 2007.26 1.30423 0.884744 0
M  V30 21203 C 2008.49 1.22184 1.66969 0
M  V30 21204 C 2008.9 -0.215259 1.87569 0
M  V30 21205 O 2008.26 -1.14224 1.42335 0
M  V30 21206 C 2008.31 1.94692 3.04593 0
M  V30 21207 O 2008.03 3.32792 2.84923 0
M  V30 21208 C 2009.53 1.93114 3.99026 0
M  V30 21209 H 2006.75 0.422826 0.521018 0
M  V30 21210 H 2009.3 1.72052 1.10537 0
M  V30 21211 H 2007.45 1.48623 3.57757 0
M  V30 21212 H 2007.87 3.69517 3.72233 0
M  V30 21213 H 2009.34 2.48386 4.92959 0
M  V30 21214 H 2009.82 0.91013 4.29666 0
M  V30 21215 H 2010.42 2.38996 3.51797 0
M  V30 21216 N 2008.74 -1.09711 1.13142 0
M  V30 21217 C 2010.01 -1.78377 0.802565 0
M  V30 21218 C 2010.39 -1.9893 -0.706392 0
M  V30 21219 O 2009.74 -1.58835 -1.64267 0
M  V30 21220 C 2009.95 -3.10873 1.58615 0
M  V30 21221 C 2011.3 -3.85629 1.77695 0
M  V30 21222 O 2012.32 -3.20616 1.55189 0
M  V30 21223 O 2011.18 -5.02334 2.15228 0
M  V30 21224 H 2008.28 -0.773463 0.292718 0
M  V30 21225 H 2010.82 -1.16294 1.23587 0
M  V30 21226 H 2009.6 -2.9138 2.61177 0
M  V30 21227 H 2009.22 -3.80679 1.14758 0
M  V30 21228 N 2010.22 -0.924476 -1.27637 0
M  V30 21229 C 2011.16 -0.411501 -2.28931 0
M  V30 21230 C 2012.16 0.502472 -1.61776 0
M  V30 21231 O 2013.36 0.382531 -1.75888 0
M  V30 21232 H 2009.74 -0.114496 -0.743233 0
M  V30 21233 H 2011.71 -1.27869 -2.69615 0
M  V30 21234 C 2010.46 0.323415 -3.46193 0
M  V30 21235 H 2009.78 -0.37068 -3.98078 0
M  V30 21236 H 2011.22 0.646821 -4.19037 0
M  V30 21237 C 2009.68 1.53523 -2.99887 0
M  V30 21238 O 2010.21 2.63407 -3.03281 0
M  V30 21239 N 2008.42 1.38594 -2.55421 0
M  V30 21240 H 2007.96 0.491939 -2.52859 0
M  V30 21241 H 2007.92 2.198 -2.24801 0
M  V30 21242 N 2011.69 1.41711 -0.689627 0
M  V30 21243 C 2012.92 2.06171 -0.225425 0
M  V30 21244 C 2013.34 1.51535 1.11439 0
M  V30 21245 O 2012.7 0.639865 1.69633 0
M  V30 21246 C 2012.75 3.60114 -0.187089 0
M  V30 21247 O 2011.85 4.03757 0.83989 0
M  V30 21248 H 2011.2 0.654551 -0.111621 0
M  V30 21249 H 2013.73 1.81582 -0.942814 0
M  V30 21250 H 2013.74 4.07997 -0.0159369 0
M  V30 21251 H 2012.41 3.99251 -1.16497 0
M  V30 21252 H 2010.99 3.67392 0.638575 0
M  V30 21253 N 2013.17 0.433965 1.51507 0
M  V30 21254 C 2014.4 -0.132211 2.06177 0
M  V30 21255 C 2014.81 -1.37301 1.30174 0
M  V30 21256 O 2014.15 -1.80262 0.353712 0
M  V30 21257 C 2014.22 -0.523141 3.55673 0
M  V30 21258 C 2013.88 0.610379 4.52905 0
M  V30 21259 C 2014.88 1.4815 4.98345 0
M  V30 21260 C 2012.56 0.79015 4.96046 0
M  V30 21261 C 2014.56 2.51711 5.85594 0
M  V30 21262 C 2012.24 1.82904 5.83086 0
M  V30 21263 C 2013.24 2.69091 6.27757 0
M  V30 21264 O 2012.93 3.71197 7.13069 0
M  V30 21265 H 2012.66 -0.0128686 0.675878 0
M  V30 21266 H 2015.21 0.610848 1.96107 0
M  V30 21267 H 2013.44 -1.31885 3.63515 0
M  V30 21268 H 2015.13 -1.02008 3.92873 0
M  V30 21269 H 2015.9 1.35413 4.65713 0
M  V30 21270 H 2011.78 0.12889 4.6082 0
M  V30 21271 H 2015.32 3.19016 6.20383 0
M  V30 21272 H 2011.22 1.95662 6.15131 0
M  V30 21273 H 2011.99 3.67738 7.31239 0
M  V30 21274 O 2014.69 -1.5857 0.30621 0
M  V30 21275 H 2015.38 -1.91983 -0.257325 0
M  V30 END ATOM
M  V30 BEGIN BOND
M  V30 END BOND
M  V30 END CTAB
M  END
$$$$
