drugbank_target|P08922 Proto-oncogene tyrosine-protein kinase ROS (DB11986; DB12010)
 OpenBabel12092121193D

  0  0  0     0  0            999 V3000
M  V30 BEGIN CTAB
M  V30 COUNTS 91604 98207 0 0 0
M  V30 BEGIN ATOM
M  V30 1 H -1.547 9.37743 -1.21644 0
M  V30 2 O -1.44 8.89599 -0.40059 0
M  V30 3 P 0 8.91 0 0
M  V30 4 O 0.22 10.1746 0.733838 0
M  V30 5 O 0.79 8.73346 -1.23964 0
M  V30 6 O 0.25 7.66872 0.971405 0
M  V30 7 C -0.69 7.42405 2.04668 0
M  V30 8 C 0.04 6.86059 3.24661 0
M  V30 9 O 0.25 5.42934 3.03695 0
M  V30 10 C 1.44 7.41287 3.50796 0
M  V30 11 O 1.83 7.27073 4.86816 0
M  V30 12 C 2.32 6.5273 2.63741 0
M  V30 13 C 1.61 5.1842 2.73198 0
M  V30 14 N 1.66 4.38762 1.4784 0
M  V30 15 H -1.178 8.36899 2.3252 0
M  V30 16 H -1.45 6.70391 1.71179 0
M  V30 17 H -0.582 7.03638 4.13219 0
M  V30 18 H 2.073 4.59931 3.54016 0
M  V30 19 H 2.353 6.88995 1.59871 0
M  V30 20 H 3.344 6.4684 3.0373 0
M  V30 21 H 1.51 8.47002 3.20749 0
M  V30 22 P 3.37998 7.20834 5.23717 0
M  V30 23 O 3.59998 7.79853 6.57286 0
M  V30 24 O 4.16998 7.79239 4.12957 0
M  V30 25 O 3.62998 5.63315 5.29344 0
M  V30 26 C 2.68998 4.80255 6.01876 0
M  V30 27 C 3.41998 3.64202 6.65911 0
M  V30 28 O 3.62998 2.60694 5.64732 0
M  V30 29 C 4.81998 3.93473 7.1943 0
M  V30 30 O 5.20998 3.02071 8.21205 0
M  V30 31 C 5.69998 3.73047 5.97036 0
M  V30 32 C 4.98998 2.58828 5.25741 0
M  V30 33 N 5.03998 2.68068 3.77503 0
M  V30 34 H 2.20098 5.40332 6.79951 0
M  V30 35 H 1.93098 4.41613 5.32378 0
M  V30 36 H 2.79798 3.26331 7.47797 0
M  V30 37 P 6.75996 2.75334 8.47391 0
M  V30 38 O 6.97996 2.44571 9.90142 0
M  V30 39 O 7.54996 3.87688 7.92115 0
M  V30 40 O 7.00996 1.4459 7.59357 0
M  V30 41 C 6.06996 0.347608 7.69215 0
M  V30 42 C 6.79996 -0.96767 7.52806 0
M  V30 43 O 7.00996 -1.21036 6.1011 0
M  V30 44 C 8.19996 -1.04544 8.13308 0
M  V30 45 O 8.58996 -2.38311 8.41922 0
M  V30 46 C 9.07996 -0.491279 7.02284 0
M  V30 47 C 8.36996 -0.996264 5.77469 0
M  V30 48 N 8.41996 -0.0501916 4.62973 0
M  V30 49 H 5.58096 0.374722 8.67691 0
M  V30 50 H 5.31096 0.443485 6.90277 0
M  V30 51 H 6.17796 -1.75537 7.96793 0
M  V30 52 P 10.1399 -2.75334 8.47391 0
M  V30 53 O 10.3599 -3.84128 9.44797 0
M  V30 54 O 10.9299 -1.51947 8.68712 0
M  V30 55 O 10.3899 -3.29363 6.99321 0
M  V30 56 C 9.44994 -4.24011 6.4274 0
M  V30 57 C 10.1799 -5.20775 5.52155 0
M  V30 58 O 10.3899 -4.56534 4.22446 0
M  V30 59 C 11.5799 -5.62629 5.96531 0
M  V30 60 O 11.9699 -6.87667 5.41053 0
M  V30 61 C 12.4599 -4.52537 5.39283 0
M  V30 62 C 11.7499 -4.20027 4.08623 0
M  V30 63 N 11.7999 -2.76189 3.71603 0
M  V30 64 H 8.96094 -4.797 7.24003 0
M  V30 65 H 8.69094 -3.69856 5.84513 0
M  V30 66 H 9.55794 -6.10356 5.41441 0
M  V30 67 P 13.5199 -7.20834 5.23717 0
M  V30 68 O 13.7399 -8.66189 5.38625 0
M  V30 69 O 14.3099 -6.33615 6.1356 0
M  V30 70 O 13.7699 -6.7751 3.72168 0
M  V30 71 C 12.8299 -7.20732 2.70725 0
M  V30 72 C 13.5599 -7.45864 1.40599 0
M  V30 73 O 13.7699 -6.17651 0.734225 0
M  V30 74 C 14.9599 -8.05808 1.51899 0
M  V30 75 O 15.3499 -8.74358 0.335205 0
M  V30 76 C 15.8399 -6.83093 1.70294 0
M  V30 77 C 15.1299 -5.79992 0.836974 0
M  V30 78 N 15.1799 -4.41769 1.38263 0
M  V30 79 C 15.3299 -3.38591 0.481702 0
M  V30 80 O 15.4199 -3.56839 -0.718452 0
M  V30 81 N 15.3699 -2.1206 1.03569 0
M  V30 82 C 15.2799 -1.80696 2.36966 0
M  V30 83 C 15.1299 -2.94845 3.23898 0
M  V30 84 C 15.0799 -4.19803 2.73435 0
M  V30 85 H 12.3399 -8.13644 3.0377 0
M  V30 86 H 12.0709 -6.42695 2.55448 0
M  V30 87 H 12.9379 -8.12039 0.792769 0
M  V30 88 H 15.5929 -5.79978 -0.160587 0
M  V30 89 H 15.8719 -6.51379 2.75643 0
M  V30 90 H 16.8639 -7.01734 1.34462 0
M  V30 91 H 15.0299 -8.73674 2.38337 0
M  V30 92 H 14.9589 -5.04492 3.4095 0
M  V30 93 P 16.8999 -8.91 1.09116e-15 0
M  V30 94 O 17.1199 -10.1736 -0.733766 0
M  V30 95 O 17.6899 -8.73247 1.2395 0
M  V30 96 O 17.1499 -7.66872 -0.971405 0
M  V30 97 C 16.2099 -7.42309 -2.04641 0
M  V30 98 C 16.9399 -6.86059 -3.24661 0
M  V30 99 O 17.1499 -5.42847 -3.03646 0
M  V30 100 C 18.3399 -7.41196 -3.50753 0
M  V30 101 O 18.7299 -7.27073 -4.86816 0
M  V30 102 C 19.2199 -6.5273 -2.63741 0
M  V30 103 C 18.5099 -5.1842 -2.73198 0
M  V30 104 N 18.5599 -4.38668 -1.47808 0
M  V30 105 C 18.7099 -3.00789 -1.58511 0
M  V30 106 O 18.7999 -2.50116 -2.71298 0
M  V30 107 N 18.7599 -2.29703 -0.253698 0
M  V30 108 C 18.6599 -2.84269 0.750133 0
M  V30 109 N 18.7099 -2.06951 1.82612 0
M  V30 110 C 18.5099 -4.25803 0.889776 0
M  V30 111 C 18.4599 -4.98326 -0.259363 0
M  V30 112 H 15.7199 -8.36707 -2.32466 0
M  V30 113 H 15.4509 -6.701 -1.71105 0
M  V30 114 H 16.3179 -7.03638 -4.13219 0
M  V30 115 H 18.9729 -4.59852 -3.53955 0
M  V30 116 H 19.2519 -6.88995 -1.59871 0
M  V30 117 H 20.2439 -6.46749 -3.03687 0
M  V30 118 H 18.4099 -8.46908 -3.20714 0
M  V30 119 H 18.3379 -6.06349 -0.206238 0
M  V30 120 H 18.4399 -4.73163 1.86796 0
M  V30 121 H 18.8279 -1.05099 1.72271 0
M  V30 122 H 18.6309 -2.48716 2.76361 0
M  V30 123 P 20.2799 -7.20834 -5.23717 0
M  V30 124 O 20.4999 -7.79853 -6.57286 0
M  V30 125 O 21.0699 -7.79239 -4.12957 0
M  V30 126 O 20.5299 -5.63315 -5.29344 0
M  V30 127 C 19.5899 -4.80255 -6.01876 0
M  V30 128 C 20.3199 -3.64202 -6.65911 0
M  V30 129 O 20.5299 -2.60694 -5.64732 0
M  V30 130 C 21.7199 -3.93473 -7.1943 0
M  V30 131 O 22.1099 -3.02071 -8.21205 0
M  V30 132 C 22.5999 -3.73047 -5.97036 0
M  V30 133 C 21.8899 -2.58828 -5.25741 0
M  V30 134 N 21.9399 -2.68068 -3.77503 0
M  V30 135 H 19.1009 -5.40332 -6.79951 0
M  V30 136 H 18.8309 -4.41613 -5.32378 0
M  V30 137 H 19.6979 -3.26331 -7.47797 0
M  V30 138 P 23.6599 -2.75334 -8.47391 0
M  V30 139 O 23.8799 -2.44571 -9.90142 0
M  V30 140 O 24.4499 -3.87688 -7.92115 0
M  V30 141 O 23.9099 -1.4459 -7.59357 0
M  V30 142 C 22.9699 -0.347608 -7.69215 0
M  V30 143 C 23.6999 0.96767 -7.52806 0
M  V30 144 O 23.9099 1.21036 -6.1011 0
M  V30 145 C 25.0999 1.04544 -8.13308 0
M  V30 146 O 25.4899 2.38311 -8.41922 0
M  V30 147 C 25.9799 0.491279 -7.02284 0
M  V30 148 C 25.2699 0.996264 -5.77469 0
M  V30 149 N 25.3199 0.0501916 -4.62973 0
M  V30 150 H 22.4809 -0.374722 -8.67691 0
M  V30 151 H 22.2109 -0.443485 -6.90277 0
M  V30 152 H 23.0779 1.75537 -7.96793 0
M  V30 153 P 27.0398 2.75334 -8.47391 0
M  V30 154 O 27.2598 3.84128 -9.44797 0
M  V30 155 O 27.8298 1.51947 -8.68712 0
M  V30 156 O 27.2898 3.29363 -6.99321 0
M  V30 157 C 26.3498 4.24011 -6.4274 0
M  V30 158 C 27.0798 5.20775 -5.52155 0
M  V30 159 O 27.2898 4.56534 -4.22446 0
M  V30 160 C 28.4798 5.62629 -5.96531 0
M  V30 161 O 28.8698 6.87667 -5.41053 0
M  V30 162 C 29.3598 4.52537 -5.39283 0
M  V30 163 C 28.6498 4.20027 -4.08623 0
M  V30 164 N 28.6998 2.76189 -3.71603 0
M  V30 165 H 25.8608 4.797 -7.24003 0
M  V30 166 H 25.5908 3.69856 -5.84513 0
M  V30 167 H 26.4578 6.10356 -5.41441 0
M  V30 168 P 30.4198 7.20834 -5.23717 0
M  V30 169 O 30.6398 8.66104 -5.38572 0
M  V30 170 O 31.2098 6.33544 -6.1349 0
M  V30 171 O 30.6698 6.7751 -3.72168 0
M  V30 172 C 29.7298 7.20825 -2.7076 0
M  V30 173 C 30.4598 7.45864 -1.40599 0
M  V30 174 O 30.6698 6.17651 -0.734225 0
M  V30 175 C 31.8598 8.05808 -1.51899 0
M  V30 176 O 32.2498 8.74358 -0.335205 0
M  V30 177 C 32.7398 6.83093 -1.70294 0
M  V30 178 C 32.0298 5.79992 -0.836974 0
M  V30 179 N 32.0798 4.41864 -1.38293 0
M  V30 180 H 29.2408 8.13644 -3.0377 0
M  V30 181 H 28.9708 6.42788 -2.55485 0
M  V30 182 H 29.8378 8.12039 -0.792769 0
M  V30 183 P 33.7998 8.91 -2.18232e-15 0
M  V30 184 O 34.0198 10.1726 0.733694 0
M  V30 185 O 34.5898 8.73148 -1.23936 0
M  V30 186 O 34.0498 7.66872 0.971405 0
M  V30 187 C 33.1098 7.42309 2.04641 0
M  V30 188 C 33.8398 6.86059 3.24661 0
M  V30 189 O 34.0498 5.42847 3.03646 0
M  V30 190 C 35.2398 7.41196 3.50753 0
M  V30 191 O 35.6298 7.27073 4.86816 0
M  V30 192 C 36.1198 6.5273 2.63741 0
M  V30 193 C 35.4098 5.1842 2.73198 0
M  V30 194 N 35.4598 4.38762 1.4784 0
M  V30 195 H 32.6208 8.36803 2.32493 0
M  V30 196 H 32.3508 6.70197 1.71129 0
M  V30 197 H 33.2178 7.03551 4.13168 0
M  V30 198 P 37.1798 7.20834 5.23717 0
M  V30 199 O 37.3998 7.79853 6.57286 0
M  V30 200 O 37.9698 7.79239 4.12957 0
M  V30 201 O 37.4298 5.63315 5.29344 0
M  V30 202 C 36.4898 4.80255 6.01876 0
M  V30 203 C 37.2198 3.64202 6.65911 0
M  V30 204 O 37.4298 2.60694 5.64732 0
M  V30 205 C 38.6198 3.93473 7.1943 0
M  V30 206 O 39.0098 3.02071 8.21205 0
M  V30 207 C 39.4998 3.73047 5.97036 0
M  V30 208 C 38.7898 2.58828 5.25741 0
M  V30 209 N 38.8398 2.68068 3.77503 0
M  V30 210 H 36.0008 5.40332 6.79951 0
M  V30 211 H 35.7308 4.41613 5.32378 0
M  V30 212 H 36.5978 3.26331 7.47797 0
M  V30 213 P 40.5598 2.75334 8.47391 0
M  V30 214 O 40.7798 2.44571 9.90142 0
M  V30 215 O 41.3498 3.87688 7.92115 0
M  V30 216 O 40.8098 1.4459 7.59357 0
M  V30 217 C 39.8698 0.347608 7.69215 0
M  V30 218 C 40.5998 -0.96767 7.52806 0
M  V30 219 O 40.8098 -1.21036 6.1011 0
M  V30 220 C 41.9998 -1.04544 8.13308 0
M  V30 221 O 42.3898 -2.38311 8.41922 0
M  V30 222 C 42.8798 -0.491279 7.02284 0
M  V30 223 C 42.1698 -0.996264 5.77469 0
M  V30 224 N 42.2198 -0.0501916 4.62973 0
M  V30 225 H 39.3808 0.374722 8.67691 0
M  V30 226 H 39.1108 0.443485 6.90277 0
M  V30 227 H 39.9778 -1.75537 7.96793 0
M  V30 228 P 43.9397 -2.75334 8.47391 0
M  V30 229 O 44.1597 -3.84128 9.44797 0
M  V30 230 O 44.7297 -1.51947 8.68712 0
M  V30 231 O 44.1897 -3.29363 6.99321 0
M  V30 232 C 43.2497 -4.24011 6.4274 0
M  V30 233 C 43.9797 -5.20775 5.52155 0
M  V30 234 O 44.1897 -4.56534 4.22446 0
M  V30 235 C 45.3797 -5.62629 5.96531 0
M  V30 236 O 45.7697 -6.87667 5.41053 0
M  V30 237 C 46.2597 -4.52537 5.39283 0
M  V30 238 C 45.5497 -4.20027 4.08623 0
M  V30 239 N 45.5997 -2.76189 3.71603 0
M  V30 240 H 42.7607 -4.797 7.24003 0
M  V30 241 H 42.4907 -3.69856 5.84513 0
M  V30 242 H 43.3577 -6.10356 5.41441 0
M  V30 243 P 47.3197 -7.20834 5.23717 0
M  V30 244 O 47.5397 -8.66274 5.38678 0
M  V30 245 O 48.1097 -6.33687 6.13629 0
M  V30 246 O 47.5697 -6.7751 3.72168 0
M  V30 247 C 46.6297 -7.20919 2.70795 0
M  V30 248 C 47.3597 -7.45864 1.40599 0
M  V30 249 O 47.5697 -6.17751 0.734343 0
M  V30 250 C 48.7597 -8.05906 1.51917 0
M  V30 251 O 49.1497 -8.74358 0.335205 0
M  V30 252 C 49.6397 -6.83093 1.70294 0
M  V30 253 C 48.9297 -5.79992 0.836974 0
M  V30 254 N 48.9797 -4.41864 1.38293 0
M  V30 255 C 48.8997 -4.02089 2.69407 0
M  V30 256 N 48.9697 -2.73403 2.85089 0
M  V30 257 C 49.1197 -2.25086 1.5642 0
M  V30 258 C 49.2497 -0.942887 1.04836 0
M  V30 259 N 49.2597 0.150999 1.80369 0
M  V30 260 N 49.3697 -0.812565 -0.28167 0
M  V30 261 C 49.3597 -1.90572 -1.03784 0
M  V30 262 N 49.2397 -3.167 -0.683905 0
M  V30 263 C 49.1197 -3.26538 0.652815 0
M  V30 264 H 46.1417 -8.13738 3.03804 0
M  V30 265 H 45.8697 -6.42974 2.55559 0
M  V30 266 H 46.7377 -8.12139 0.792866 0
M  V30 267 H 49.3927 -5.80178 -0.160643 0
M  V30 268 H 49.6727 -6.51379 2.75643 0
M  V30 269 H 50.6637 -7.01832 1.3448 0
M  V30 270 H 48.8297 -8.73771 2.38364 0
M  V30 271 H 48.7887 -4.7189 3.52311 0
M  V30 272 H 49.1697 0.0721434 2.82608 0
M  V30 273 H 49.3587 1.0785 1.36544 0
M  V30 274 H 49.4667 -1.73207 -2.10241 0
M  V30 275 P 50.6997 -8.91 3.27348e-15 0
M  V30 276 O 50.9197 -10.1736 -0.733766 0
M  V30 277 O 51.4897 -8.73247 1.2395 0
M  V30 278 O 50.9497 -7.66872 -0.971405 0
M  V30 279 C 50.0097 -7.42212 -2.04614 0
M  V30 280 C 50.7397 -6.86059 -3.24661 0
M  V30 281 O 50.9497 -5.42847 -3.03646 0
M  V30 282 C 52.1397 -7.41196 -3.50753 0
M  V30 283 O 52.5297 -7.27073 -4.86816 0
M  V30 284 C 53.0197 -6.5273 -2.63741 0
M  V30 285 C 52.3097 -5.1842 -2.73198 0
M  V30 286 N 52.3597 -4.38668 -1.47808 0
M  V30 287 C 52.5097 -3.02239 -1.60048 0
M  V30 288 O 52.5997 -2.46459 -2.67869 0
M  V30 289 N 52.5497 -2.32436 -0.408571 0
M  V30 290 C 52.4597 -2.85471 0.854993 0
M  V30 291 O 52.5097 -2.12566 1.8531 0
M  V30 292 C 52.3097 -4.28918 0.887335 0
M  V30 293 C 52.1997 -4.91066 2.24619 0
M  V30 294 C 52.2597 -5.00349 -0.255399 0
M  V30 295 H 49.5197 -8.36803 -2.32493 0
M  V30 296 H 49.2507 -6.701 -1.71105 0
M  V30 297 H 50.1177 -7.03551 -4.13168 0
M  V30 298 H 52.7727 -4.59773 -3.53894 0
M  V30 299 H 53.0517 -6.88995 -1.59871 0
M  V30 300 H 54.0437 -6.46749 -3.03687 0
M  V30 301 H 52.2097 -8.46908 -3.20714 0
M  V30 302 H 52.1387 -6.08548 -0.206986 0
M  V30 303 H 53.1687 -5.34836 2.53099 0
M  V30 304 H 51.4317 -5.69638 2.2291 0
M  V30 305 H 51.9197 -4.13971 2.98044 0
M  V30 306 H 52.6557 -1.33211 -0.474216 0
M  V30 307 P 54.0797 -7.20834 -5.23717 0
M  V30 308 O 54.2997 -7.79853 -6.57286 0
M  V30 309 O 54.8697 -7.79239 -4.12957 0
M  V30 310 O 54.3297 -5.63315 -5.29344 0
M  V30 311 C 53.3897 -4.80255 -6.01876 0
M  V30 312 C 54.1197 -3.64202 -6.65911 0
M  V30 313 O 54.3297 -2.60694 -5.64732 0
M  V30 314 C 55.5197 -3.93473 -7.1943 0
M  V30 315 O 55.9097 -3.02071 -8.21205 0
M  V30 316 C 56.3997 -3.73047 -5.97036 0
M  V30 317 C 55.6897 -2.58828 -5.25741 0
M  V30 318 N 55.7397 -2.68068 -3.77503 0
M  V30 319 H 52.9007 -5.40332 -6.79951 0
M  V30 320 H 52.6307 -4.41613 -5.32378 0
M  V30 321 H 53.4977 -3.26331 -7.47797 0
M  V30 322 P 57.4597 -2.75334 -8.47391 0
M  V30 323 O 57.6797 -2.44571 -9.90142 0
M  V30 324 O 58.2497 -3.87688 -7.92115 0
M  V30 325 O 57.7097 -1.4459 -7.59357 0
M  V30 326 C 56.7697 -0.347608 -7.69215 0
M  V30 327 C 57.4997 0.96767 -7.52806 0
M  V30 328 O 57.7097 1.21036 -6.1011 0
M  V30 329 C 58.8997 1.04544 -8.13308 0
M  V30 330 O 59.2897 2.38311 -8.41922 0
M  V30 331 C 59.7797 0.491279 -7.02284 0
M  V30 332 C 59.0697 0.996264 -5.77469 0
M  V30 333 N 59.1197 0.0501916 -4.62973 0
M  V30 334 C 59.0397 -1.32786 -4.63244 0
M  V30 335 N 59.1197 -1.86957 -3.44545 0
M  V30 336 C 59.2597 -0.780241 -2.58481 0
M  V30 337 C 59.3897 -0.738536 -1.17757 0
M  V30 338 O 59.4097 -1.66794 -0.372349 0
M  V30 339 N 59.5097 0.58337 -0.711393 0
M  V30 340 C 59.5097 1.70816 -1.51017 0
M  V30 341 N 59.6397 2.87826 -0.880757 0
M  V30 342 N 59.3797 1.67126 -2.8339 0
M  V30 343 C 59.2597 0.401421 -3.30572 0
M  V30 344 H 56.2807 -0.374722 -8.67691 0
M  V30 345 H 56.0107 -0.443485 -6.90277 0
M  V30 346 H 56.8777 1.75537 -7.96793 0
M  V30 347 H 59.5327 1.95076 -5.46529 0
M  V30 348 H 59.8117 -0.608565 -7.04577 0
M  V30 349 H 60.8037 0.889672 -7.08939 0
M  V30 350 H 58.9697 0.43308 -9.04564 0
M  V30 351 H 58.9207 -1.91249 -5.54442 0
M  V30 352 H 59.6027 0.718054 0.275244 0
M  V30 353 H 59.6397 3.75721 -1.41832 0
M  V30 354 H 59.7407 2.90436 0.145468 0
M  V30 355 P 60.8396 2.75334 -8.47391 0
M  V30 356 O 61.0596 3.84166 -9.4489 0
M  V30 357 O 61.6296 1.51964 -8.6881 0
M  V30 358 O 61.0896 3.29363 -6.99321 0
M  V30 359 C 60.1496 4.24011 -6.4274 0
M  V30 360 C 60.8796 5.20775 -5.52155 0
M  V30 361 O 61.0896 4.56534 -4.22446 0
M  V30 362 C 62.2796 5.62629 -5.96531 0
M  V30 363 O 62.6696 6.87667 -5.41053 0
M  V30 364 C 63.1596 4.52537 -5.39283 0
M  V30 365 C 62.4496 4.20027 -4.08623 0
M  V30 366 N 62.4996 2.7613 -3.71522 0
M  V30 367 C 62.6496 2.43702 -2.37085 0
M  V30 368 O 62.7396 3.3531 -1.54039 0
M  V30 369 N 62.6996 0.951103 -2.10621 0
M  V30 370 C 62.5996 0.165021 -2.93537 0
M  V30 371 N 62.6496 -1.09723 -2.53253 0
M  V30 372 C 62.4496 0.469576 -4.32458 0
M  V30 373 C 62.3996 1.78658 -4.65921 0
M  V30 374 H 59.6596 4.79645 -7.23919 0
M  V30 375 H 59.3906 3.69802 -5.84429 0
M  V30 376 H 60.2576 6.10431 -5.41508 0
M  V30 377 H 62.9126 4.78733 -3.27967 0
M  V30 378 H 63.1916 3.64957 -6.05871 0
M  V30 379 H 64.1836 4.8868 -5.2125 0
M  V30 380 H 62.3496 5.66726 -7.06352 0
M  V30 381 H 62.2776 2.06987 -5.70299 0
M  V30 382 H 62.3796 -0.314383 -5.07728 0
M  V30 383 H 62.7676 -1.31363 -1.5319 0
M  V30 384 H 62.5706 -1.85978 -3.21943 0
M  V30 385 P 64.2196 7.20834 -5.23717 0
M  V30 386 O 64.4396 8.66104 -5.38572 0
M  V30 387 O 65.0096 6.33544 -6.1349 0
M  V30 388 O 64.4696 6.7751 -3.72168 0
M  V30 389 C 63.5296 7.20825 -2.7076 0
M  V30 390 C 64.2596 7.45864 -1.40599 0
M  V30 391 O 64.4696 6.17651 -0.734225 0
M  V30 392 C 65.6596 8.05808 -1.51899 0
M  V30 393 O 66.0496 8.74358 -0.335205 0
M  V30 394 C 66.5396 6.83093 -1.70294 0
M  V30 395 C 65.8296 5.79992 -0.836974 0
M  V30 396 N 65.8796 4.41864 -1.38293 0
M  V30 397 H 63.0406 8.13644 -3.0377 0
M  V30 398 H 62.7706 6.42788 -2.55485 0
M  V30 399 H 63.6376 8.12039 -0.792769 0
M  V30 400 P 67.5996 8.91 -4.36464e-15 0
M  V30 401 O 67.8196 10.1746 0.733838 0
M  V30 402 O 68.3896 8.73346 -1.23964 0
M  V30 403 O 67.8496 7.66872 0.971405 0
M  V30 404 C 66.9096 7.42405 2.04668 0
M  V30 405 C 67.6396 6.86059 3.24661 0
M  V30 406 O 67.8496 5.42934 3.03695 0
M  V30 407 C 69.0396 7.41287 3.50796 0
M  V30 408 O 69.4296 7.27073 4.86816 0
M  V30 409 C 69.9196 6.5273 2.63741 0
M  V30 410 C 69.2096 5.1842 2.73198 0
M  V30 411 N 69.2596 4.38762 1.4784 0
M  V30 412 H 66.4216 8.36899 2.3252 0
M  V30 413 H 66.1496 6.70391 1.71179 0
M  V30 414 H 67.0176 7.03638 4.13219 0
M  V30 415 H 69.6726 4.59931 3.54016 0
M  V30 416 H 69.9526 6.88995 1.59871 0
M  V30 417 H 70.9436 6.4684 3.0373 0
M  V30 418 H 69.1096 8.47002 3.20749 0
M  V30 419 P 70.9796 7.20834 5.23717 0
M  V30 420 O 71.1996 7.79853 6.57286 0
M  V30 421 O 71.7696 7.79239 4.12957 0
M  V30 422 O 71.2296 5.63315 5.29344 0
M  V30 423 C 70.2896 4.80255 6.01876 0
M  V30 424 C 71.0196 3.64202 6.65911 0
M  V30 425 O 71.2296 2.60694 5.64732 0
M  V30 426 C 72.4196 3.93473 7.1943 0
M  V30 427 O 72.8096 3.02071 8.21205 0
M  V30 428 C 73.2996 3.73047 5.97036 0
M  V30 429 C 72.5896 2.58828 5.25741 0
M  V30 430 N 72.6396 2.68068 3.77503 0
M  V30 431 H 69.8006 5.40332 6.79951 0
M  V30 432 H 69.5306 4.41613 5.32378 0
M  V30 433 H 70.3976 3.26331 7.47797 0
M  V30 434 P 74.3596 2.75334 8.47391 0
M  V30 435 O 74.5796 2.44571 9.90142 0
M  V30 436 O 75.1496 3.87688 7.92115 0
M  V30 437 O 74.6096 1.4459 7.59357 0
M  V30 438 C 73.6696 0.347608 7.69215 0
M  V30 439 C 74.3996 -0.96767 7.52806 0
M  V30 440 O 74.6096 -1.21036 6.1011 0
M  V30 441 C 75.7996 -1.04544 8.13308 0
M  V30 442 O 76.1896 -2.38311 8.41922 0
M  V30 443 C 76.6796 -0.491279 7.02284 0
M  V30 444 C 75.9696 -0.996264 5.77469 0
M  V30 445 N 76.0196 -0.0501916 4.62973 0
M  V30 446 H 73.1806 0.374722 8.67691 0
M  V30 447 H 72.9106 0.443485 6.90277 0
M  V30 448 H 73.7776 -1.75537 7.96793 0
M  V30 449 P 77.7395 -2.75334 8.47391 0
M  V30 450 O 77.9595 -3.84128 9.44797 0
M  V30 451 O 78.5295 -1.51947 8.68712 0
M  V30 452 O 77.9895 -3.29363 6.99321 0
M  V30 453 C 77.0495 -4.24011 6.4274 0
M  V30 454 C 77.7795 -5.20775 5.52155 0
M  V30 455 O 77.9895 -4.56534 4.22446 0
M  V30 456 C 79.1795 -5.62629 5.96531 0
M  V30 457 O 79.5695 -6.87667 5.41053 0
M  V30 458 C 80.0595 -4.52537 5.39283 0
M  V30 459 C 79.3495 -4.20027 4.08623 0
M  V30 460 N 79.3995 -2.76189 3.71603 0
M  V30 461 H 76.5605 -4.797 7.24003 0
M  V30 462 H 76.2905 -3.69856 5.84513 0
M  V30 463 H 77.1575 -6.10356 5.41441 0
M  V30 464 P 81.1195 -7.20834 5.23717 0
M  V30 465 O 81.3395 -8.66104 5.38572 0
M  V30 466 O 81.9095 -6.33544 6.1349 0
M  V30 467 O 81.3695 -6.7751 3.72168 0
M  V30 468 C 80.4295 -7.20825 2.7076 0
M  V30 469 C 81.1595 -7.45864 1.40599 0
M  V30 470 O 81.3695 -6.17651 0.734225 0
M  V30 471 C 82.5595 -8.05808 1.51899 0
M  V30 472 O 82.9495 -8.74358 0.335205 0
M  V30 473 C 83.4395 -6.83093 1.70294 0
M  V30 474 C 82.7295 -5.79992 0.836974 0
M  V30 475 N 82.7795 -4.41864 1.38293 0
M  V30 476 H 79.9405 -8.13644 3.0377 0
M  V30 477 H 79.6705 -6.42788 2.55485 0
M  V30 478 H 80.5375 -8.12039 0.792769 0
M  V30 479 P 84.4995 -8.91 5.4558e-15 0
M  V30 480 O 84.7195 -10.1726 -0.733694 0
M  V30 481 O 85.2895 -8.73148 1.23936 0
M  V30 482 O 84.7495 -7.66872 -0.971405 0
M  V30 483 C 83.8095 -7.42309 -2.04641 0
M  V30 484 C 84.5395 -6.86059 -3.24661 0
M  V30 485 O 84.7495 -5.42847 -3.03646 0
M  V30 486 C 85.9395 -7.41196 -3.50753 0
M  V30 487 O 86.3295 -7.27073 -4.86816 0
M  V30 488 C 86.8195 -6.5273 -2.63741 0
M  V30 489 C 86.1095 -5.1842 -2.73198 0
M  V30 490 N 86.1595 -4.38762 -1.4784 0
M  V30 491 H 83.3205 -8.36803 -2.32493 0
M  V30 492 H 83.0505 -6.70197 -1.71129 0
M  V30 493 H 83.9175 -7.03551 -4.13168 0
M  V30 494 P 87.8795 -7.20834 -5.23717 0
M  V30 495 O 88.0995 -7.7993 -6.57351 0
M  V30 496 O 88.6695 -7.79328 -4.13004 0
M  V30 497 O 88.1295 -5.63315 -5.29344 0
M  V30 498 C 87.1895 -4.80255 -6.01876 0
M  V30 499 C 87.9195 -3.64202 -6.65911 0
M  V30 500 O 88.1295 -2.60694 -5.64732 0
M  V30 501 C 89.3195 -3.93473 -7.1943 0
M  V30 502 O 89.7095 -3.02071 -8.21205 0
M  V30 503 C 90.1995 -3.73047 -5.97036 0
M  V30 504 C 89.4895 -2.58828 -5.25741 0
M  V30 505 N 89.5395 -2.6801 -3.77422 0
M  V30 506 C 89.6895 -1.50173 -3.05038 0
M  V30 507 O 89.7795 -0.428832 -3.665 0
M  V30 508 N 89.7395 -1.70922 -1.55541 0
M  V30 509 C 89.6395 -2.7407 -1.06402 0
M  V30 510 N 89.6895 -2.74764 0.260931 0
M  V30 511 C 89.4895 -3.96781 -1.78296 0
M  V30 512 C 89.4395 -3.87909 -3.13891 0
M  V30 513 H 86.6995 -5.4027 -6.79873 0
M  V30 514 H 86.4305 -4.41549 -5.32301 0
M  V30 515 H 87.2975 -3.26371 -7.47889 0
M  V30 516 H 89.9525 -1.63978 -5.5665 0
M  V30 517 H 90.2315 -4.63439 -5.3432 0
M  V30 518 H 91.2235 -3.44728 -6.25838 0
M  V30 519 H 89.3895 -4.96652 -7.57263 0
M  V30 520 H 89.3175 -4.78425 -3.73088 0
M  V30 521 H 89.4195 -4.92593 -1.26997 0
M  V30 522 H 89.8075 -1.86285 0.77595 0
M  V30 523 H 89.6105 -3.63657 0.773896 0
M  V30 524 P 91.2595 -2.75334 -8.47391 0
M  V30 525 O 91.4795 -2.44595 -9.90239 0
M  V30 526 O 92.0495 -3.87732 -7.92204 0
M  V30 527 O 91.5095 -1.4459 -7.59357 0
M  V30 528 C 90.5695 -0.347563 -7.69115 0
M  V30 529 C 91.2995 0.96767 -7.52806 0
M  V30 530 O 91.5095 1.21036 -6.1011 0
M  V30 531 C 92.6995 1.04544 -8.13308 0
M  V30 532 O 93.0895 2.38311 -8.41922 0
M  V30 533 C 93.5795 0.491279 -7.02284 0
M  V30 534 C 92.8695 0.996264 -5.77469 0
M  V30 535 N 92.9195 0.0501808 -4.62873 0
M  V30 536 C 93.0695 0.588177 -3.36904 0
M  V30 537 O 93.1595 1.78598 -3.17173 0
M  V30 538 N 93.1095 -0.329694 -2.33686 0
M  V30 539 C 93.0195 -1.6953 -2.45079 0
M  V30 540 O 93.0695 -2.41926 -1.44899 0
M  V30 541 C 92.8695 -2.16933 -3.80505 0
M  V30 542 C 92.7595 -3.65373 -3.97621 0
M  V30 543 C 92.8195 -1.30326 -4.83752 0
M  V30 544 H 90.0795 -0.374722 -8.67691 0
M  V30 545 H 89.8105 -0.443421 -6.90177 0
M  V30 546 H 90.6775 1.75537 -7.96793 0
M  V30 547 H 93.3325 1.94496 -5.46629 0
M  V30 548 H 93.6115 -0.608651 -7.04676 0
M  V30 549 H 94.6035 0.889672 -7.08939 0
M  V30 550 H 92.7695 0.43308 -9.04564 0
M  V30 551 H 92.6985 -1.68366 -5.8516 0
M  V30 552 H 93.7285 -4.05985 -4.30448 0
M  V30 553 H 91.9915 -3.88028 -4.72875 0
M  V30 554 H 92.4795 -4.11381 -3.01609 0
M  V30 555 H 93.2155 0.0393617 -1.41345 0
M  V30 556 P 94.6394 2.75334 -8.47391 0
M  V30 557 O 94.8594 3.84128 -9.44797 0
M  V30 558 O 95.4294 1.51947 -8.68712 0
M  V30 559 O 94.8894 3.29363 -6.99321 0
M  V30 560 C 93.9494 4.24011 -6.4274 0
M  V30 561 C 94.6794 5.20775 -5.52155 0
M  V30 562 O 94.8894 4.56534 -4.22446 0
M  V30 563 C 96.0794 5.62629 -5.96531 0
M  V30 564 O 96.4694 6.87667 -5.41053 0
M  V30 565 C 96.9594 4.52537 -5.39283 0
M  V30 566 C 96.2494 4.20027 -4.08623 0
M  V30 567 N 96.2994 2.76189 -3.71603 0
M  V30 568 H 93.4604 4.797 -7.24003 0
M  V30 569 H 93.1904 3.69856 -5.84513 0
M  V30 570 H 94.0574 6.10356 -5.41441 0
M  V30 571 P 98.0194 7.20834 -5.23717 0
M  V30 572 O 98.2394 8.66104 -5.38572 0
M  V30 573 O 98.8094 6.33544 -6.1349 0
M  V30 574 O 98.2694 6.7751 -3.72168 0
M  V30 575 C 97.3294 7.20825 -2.7076 0
M  V30 576 C 98.0594 7.45864 -1.40599 0
M  V30 577 O 98.2694 6.17651 -0.734225 0
M  V30 578 C 99.4594 8.05808 -1.51899 0
M  V30 579 O 99.8494 8.74358 -0.335205 0
M  V30 580 C 100.339 6.83093 -1.70294 0
M  V30 581 C 99.6294 5.79992 -0.836974 0
M  V30 582 N 99.6794 4.41864 -1.38293 0
M  V30 583 H 96.8404 8.13644 -3.0377 0
M  V30 584 H 96.5704 6.42788 -2.55485 0
M  V30 585 H 97.4374 8.12039 -0.792769 0
M  V30 586 P 101.399 8.91 -6.54696e-15 0
M  V30 587 O 101.619 10.1726 0.733694 0
M  V30 588 O 102.189 8.73148 -1.23936 0
M  V30 589 O 101.649 7.66872 0.971405 0
M  V30 590 C 100.709 7.42309 2.04641 0
M  V30 591 C 101.439 6.86059 3.24661 0
M  V30 592 O 101.649 5.42847 3.03646 0
M  V30 593 C 102.839 7.41196 3.50753 0
M  V30 594 O 103.229 7.27073 4.86816 0
M  V30 595 C 103.719 6.5273 2.63741 0
M  V30 596 C 103.009 5.1842 2.73198 0
M  V30 597 N 103.059 4.38762 1.4784 0
M  V30 598 H 100.22 8.36803 2.32493 0
M  V30 599 H 99.9504 6.70197 1.71129 0
M  V30 600 H 100.817 7.03551 4.13168 0
M  V30 601 P 104.779 7.20834 5.23717 0
M  V30 602 O 104.999 7.79853 6.57286 0
M  V30 603 O 105.569 7.79239 4.12957 0
M  V30 604 O 105.029 5.63315 5.29344 0
M  V30 605 C 104.089 4.80255 6.01876 0
M  V30 606 C 104.819 3.64202 6.65911 0
M  V30 607 O 105.029 2.60694 5.64732 0
M  V30 608 C 106.219 3.93473 7.1943 0
M  V30 609 O 106.609 3.02071 8.21205 0
M  V30 610 C 107.099 3.73047 5.97036 0
M  V30 611 C 106.389 2.58828 5.25741 0
M  V30 612 N 106.439 2.68068 3.77503 0
M  V30 613 H 103.6 5.40332 6.79951 0
M  V30 614 H 103.33 4.41613 5.32378 0
M  V30 615 H 104.197 3.26331 7.47797 0
M  V30 616 P 108.159 2.75334 8.47391 0
M  V30 617 O 108.379 2.44595 9.90239 0
M  V30 618 O 108.949 3.87732 7.92204 0
M  V30 619 O 108.409 1.4459 7.59357 0
M  V30 620 C 107.469 0.347608 7.69215 0
M  V30 621 C 108.199 -0.96767 7.52806 0
M  V30 622 O 108.409 -1.21036 6.1011 0
M  V30 623 C 109.599 -1.04544 8.13308 0
M  V30 624 O 109.989 -2.38311 8.41922 0
M  V30 625 C 110.479 -0.491279 7.02284 0
M  V30 626 C 109.769 -0.996264 5.77469 0
M  V30 627 N 109.819 -0.0501808 4.62873 0
M  V30 628 C 109.969 -0.578037 3.3505 0
M  V30 629 O 110.059 -1.8073 3.21711 0
M  V30 630 N 110.019 0.468541 2.263 0
M  V30 631 C 109.919 1.59186 2.47176 0
M  V30 632 N 109.969 2.37626 1.40392 0
M  V30 633 C 109.769 2.16203 3.77467 0
M  V30 634 C 109.719 1.29324 4.8195 0
M  V30 635 H 106.979 0.374679 8.67591 0
M  V30 636 H 106.71 0.443421 6.90177 0
M  V30 637 H 107.577 -1.75559 7.96891 0
M  V30 638 H 110.232 -1.94529 5.46723 0
M  V30 639 H 110.511 0.608651 7.04676 0
M  V30 640 H 111.503 -0.889672 7.08939 0
M  V30 641 H 109.669 -0.43308 9.04564 0
M  V30 642 H 109.597 1.67758 5.83046 0
M  V30 643 H 109.699 3.23869 3.92281 0
M  V30 644 H 110.087 1.96317 0.467202 0
M  V30 645 H 109.89 3.39693 1.51142 0
M  V30 646 P 111.539 -2.75334 8.47391 0
M  V30 647 O 111.759 -3.84128 9.44797 0
M  V30 648 O 112.329 -1.51947 8.68712 0
M  V30 649 O 111.789 -3.29363 6.99321 0
M  V30 650 C 110.849 -4.24011 6.4274 0
M  V30 651 C 111.579 -5.20775 5.52155 0
M  V30 652 O 111.789 -4.56534 4.22446 0
M  V30 653 C 112.979 -5.62629 5.96531 0
M  V30 654 O 113.369 -6.87667 5.41053 0
M  V30 655 C 113.859 -4.52537 5.39283 0
M  V30 656 C 113.149 -4.20027 4.08623 0
M  V30 657 N 113.199 -2.76189 3.71603 0
M  V30 658 H 110.36 -4.797 7.24003 0
M  V30 659 H 110.09 -3.69856 5.84513 0
M  V30 660 H 110.957 -6.10356 5.41441 0
M  V30 661 P 114.919 -7.20834 5.23717 0
M  V30 662 O 115.139 -8.66104 5.38572 0
M  V30 663 O 115.709 -6.33544 6.1349 0
M  V30 664 O 115.169 -6.7751 3.72168 0
M  V30 665 C 114.229 -7.20825 2.7076 0
M  V30 666 C 114.959 -7.45864 1.40599 0
M  V30 667 O 115.169 -6.17651 0.734225 0
M  V30 668 C 116.359 -8.05808 1.51899 0
M  V30 669 O 116.749 -8.74358 0.335205 0
M  V30 670 C 117.239 -6.83093 1.70294 0
M  V30 671 C 116.529 -5.79992 0.836974 0
M  V30 672 N 116.579 -4.41864 1.38293 0
M  V30 673 H 113.74 -8.13644 3.0377 0
M  V30 674 H 113.47 -6.42788 2.55485 0
M  V30 675 H 114.337 -8.12039 0.792769 0
M  V30 676 P 118.299 -8.91 7.63812e-15 0
M  V30 677 O 118.519 -10.1726 -0.733694 0
M  V30 678 O 119.089 -8.73148 1.23936 0
M  V30 679 O 118.549 -7.66872 -0.971405 0
M  V30 680 C 117.609 -7.42309 -2.04641 0
M  V30 681 C 118.339 -6.86059 -3.24661 0
M  V30 682 O 118.549 -5.42847 -3.03646 0
M  V30 683 C 119.739 -7.41196 -3.50753 0
M  V30 684 O 120.129 -7.27073 -4.86816 0
M  V30 685 C 120.619 -6.5273 -2.63741 0
M  V30 686 C 119.909 -5.1842 -2.73198 0
M  V30 687 N 119.959 -4.38762 -1.4784 0
M  V30 688 H 117.12 -8.36803 -2.32493 0
M  V30 689 H 116.85 -6.70197 -1.71129 0
M  V30 690 H 117.717 -7.03551 -4.13168 0
M  V30 691 P 121.679 -7.20834 -5.23717 0
M  V30 692 O 121.899 -7.7993 -6.57351 0
M  V30 693 O 122.469 -7.79328 -4.13004 0
M  V30 694 O 121.929 -5.63315 -5.29344 0
M  V30 695 C 120.989 -4.80255 -6.01876 0
M  V30 696 C 121.719 -3.64202 -6.65911 0
M  V30 697 O 121.929 -2.60694 -5.64732 0
M  V30 698 C 123.119 -3.93473 -7.1943 0
M  V30 699 O 123.509 -3.02071 -8.21205 0
M  V30 700 C 123.999 -3.73047 -5.97036 0
M  V30 701 C 123.289 -2.58828 -5.25741 0
M  V30 702 N 123.339 -2.6801 -3.77422 0
M  V30 703 C 123.489 -1.50173 -3.05038 0
M  V30 704 O 123.579 -0.428832 -3.665 0
M  V30 705 N 123.539 -1.70922 -1.55541 0
M  V30 706 C 123.439 -2.7407 -1.06402 0
M  V30 707 N 123.489 -2.74764 0.260931 0
M  V30 708 C 123.289 -3.96781 -1.78296 0
M  V30 709 C 123.239 -3.87909 -3.13891 0
M  V30 710 H 120.499 -5.4027 -6.79873 0
M  V30 711 H 120.23 -4.41549 -5.32301 0
M  V30 712 H 121.097 -3.26371 -7.47889 0
M  V30 713 H 123.752 -1.63978 -5.5665 0
M  V30 714 H 124.031 -4.63439 -5.3432 0
M  V30 715 H 125.023 -3.44728 -6.25838 0
M  V30 716 H 123.189 -4.96652 -7.57263 0
M  V30 717 H 123.117 -4.78425 -3.73088 0
M  V30 718 H 123.219 -4.92593 -1.26997 0
M  V30 719 H 123.607 -1.86285 0.77595 0
M  V30 720 H 123.41 -3.63657 0.773896 0
M  V30 721 P 125.059 -2.75334 -8.47391 0
M  V30 722 O 125.279 -2.44571 -9.90142 0
M  V30 723 O 125.849 -3.87688 -7.92115 0
M  V30 724 O 125.309 -1.4459 -7.59357 0
M  V30 725 C 124.369 -0.347608 -7.69215 0
M  V30 726 C 125.099 0.96767 -7.52806 0
M  V30 727 O 125.309 1.21036 -6.1011 0
M  V30 728 C 126.499 1.04544 -8.13308 0
M  V30 729 O 126.889 2.38311 -8.41922 0
M  V30 730 C 127.379 0.491279 -7.02284 0
M  V30 731 C 126.669 0.996264 -5.77469 0
M  V30 732 N 126.719 0.0501916 -4.62973 0
M  V30 733 H 123.88 -0.374722 -8.67691 0
M  V30 734 H 123.61 -0.443485 -6.90277 0
M  V30 735 H 124.477 1.75537 -7.96793 0
M  V30 736 P 128.439 2.75334 -8.47391 0
M  V30 737 O 128.659 3.84166 -9.4489 0
M  V30 738 O 129.229 1.51964 -8.6881 0
M  V30 739 O 128.689 3.29363 -6.99321 0
M  V30 740 C 127.749 4.23956 -6.42656 0
M  V30 741 C 128.479 5.20775 -5.52155 0
M  V30 742 O 128.689 4.56534 -4.22446 0
M  V30 743 C 129.879 5.62629 -5.96531 0
M  V30 744 O 130.269 6.87667 -5.41053 0
M  V30 745 C 130.759 4.52537 -5.39283 0
M  V30 746 C 130.049 4.20027 -4.08623 0
M  V30 747 N 130.099 2.7613 -3.71522 0
M  V30 748 C 130.249 2.45612 -2.37989 0
M  V30 749 O 130.339 3.30919 -1.51621 0
M  V30 750 N 130.289 1.10684 -2.08435 0
M  V30 751 C 130.199 0.0690084 -2.9792 0
M  V30 752 O 130.249 -1.10553 -2.59426 0
M  V30 753 C 130.049 0.481522 -4.35345 0
M  V30 754 C 129.939 -0.618778 -5.36443 0
M  V30 755 C 129.999 1.78906 -4.67968 0
M  V30 756 H 127.259 4.797 -7.24003 0
M  V30 757 H 126.99 3.69802 -5.84429 0
M  V30 758 H 127.857 6.10356 -5.41441 0
M  V30 759 H 130.512 4.78651 -3.27911 0
M  V30 760 H 130.791 3.64957 -6.05871 0
M  V30 761 H 131.783 4.8868 -5.2125 0
M  V30 762 H 129.949 5.66726 -7.06352 0
M  V30 763 H 129.878 2.07737 -5.72367 0
M  V30 764 H 130.908 -0.754375 -5.86871 0
M  V30 765 H 129.171 -0.359721 -6.10641 0
M  V30 766 H 129.659 -1.55533 -4.8581 0
M  V30 767 H 130.395 0.862651 -1.12037 0
M  V30 768 P 131.819 7.20834 -5.23717 0
M  V30 769 O 132.039 8.66104 -5.38572 0
M  V30 770 O 132.609 6.33544 -6.1349 0
M  V30 771 O 132.069 6.7751 -3.72168 0
M  V30 772 C 131.129 7.20825 -2.7076 0
M  V30 773 C 131.859 7.45864 -1.40599 0
M  V30 774 O 132.069 6.17651 -0.734225 0
M  V30 775 C 133.259 8.05808 -1.51899 0
M  V30 776 O 133.649 8.74358 -0.335205 0
M  V30 777 C 134.139 6.83093 -1.70294 0
M  V30 778 C 133.429 5.79992 -0.836974 0
M  V30 779 N 133.479 4.41864 -1.38293 0
M  V30 780 H 130.64 8.13644 -3.0377 0
M  V30 781 H 130.37 6.42788 -2.55485 0
M  V30 782 H 131.237 8.12039 -0.792769 0
M  V30 783 P 135.199 8.91 -8.72928e-15 0
M  V30 784 O 135.419 10.1726 0.733694 0
M  V30 785 O 135.989 8.73148 -1.23936 0
M  V30 786 O 135.449 7.66872 0.971405 0
M  V30 787 C 134.509 7.42309 2.04641 0
M  V30 788 C 135.239 6.86059 3.24661 0
M  V30 789 O 135.449 5.42847 3.03646 0
M  V30 790 C 136.639 7.41196 3.50753 0
M  V30 791 O 137.029 7.27073 4.86816 0
M  V30 792 C 137.519 6.5273 2.63741 0
M  V30 793 C 136.809 5.1842 2.73198 0
M  V30 794 N 136.859 4.38762 1.4784 0
M  V30 795 H 134.02 8.36803 2.32493 0
M  V30 796 H 133.75 6.70197 1.71129 0
M  V30 797 H 134.617 7.03551 4.13168 0
M  V30 798 P 138.579 7.20834 5.23717 0
M  V30 799 O 138.799 7.79853 6.57286 0
M  V30 800 O 139.369 7.79239 4.12957 0
M  V30 801 O 138.829 5.63315 5.29344 0
M  V30 802 C 137.889 4.80255 6.01876 0
M  V30 803 C 138.619 3.64202 6.65911 0
M  V30 804 O 138.829 2.60694 5.64732 0
M  V30 805 C 140.019 3.93473 7.1943 0
M  V30 806 O 140.409 3.02071 8.21205 0
M  V30 807 C 140.899 3.73047 5.97036 0
M  V30 808 C 140.189 2.58828 5.25741 0
M  V30 809 N 140.239 2.68068 3.77503 0
M  V30 810 C 140.159 3.79715 2.96723 0
M  V30 811 N 140.239 3.5377 1.68852 0
M  V30 812 C 140.379 2.15054 1.63254 0
M  V30 813 C 140.509 1.28964 0.518571 0
M  V30 814 O 140.529 1.56826 -0.679156 0
M  V30 815 N 140.629 -0.0538097 0.918425 0
M  V30 816 C 140.629 -0.494275 2.22578 0
M  V30 817 N 140.759 -1.81086 2.40434 0
M  V30 818 N 140.499 0.313645 3.27502 0
M  V30 819 C 140.379 1.61829 2.91033 0
M  V30 820 H 137.4 5.40332 6.79951 0
M  V30 821 H 137.13 4.41613 5.32378 0
M  V30 822 H 137.997 3.26331 7.47797 0
M  V30 823 H 140.652 1.63422 5.56814 0
M  V30 824 H 140.931 4.63374 5.34244 0
M  V30 825 H 141.923 3.44728 6.25838 0
M  V30 826 H 140.089 4.96652 7.57263 0
M  V30 827 H 140.04 4.80617 3.3614 0
M  V30 828 H 140.722 -0.742702 0.199384 0
M  V30 829 H 140.759 -2.20598 3.35588 0
M  V30 830 H 140.86 -2.43518 1.58945 0
M  V30 831 P 141.959 2.75334 8.47391 0
M  V30 832 O 142.179 2.44571 9.90142 0
M  V30 833 O 142.749 3.87688 7.92115 0
M  V30 834 O 142.209 1.4459 7.59357 0
M  V30 835 C 141.269 0.347608 7.69215 0
M  V30 836 C 141.999 -0.96767 7.52806 0
M  V30 837 O 142.209 -1.21036 6.1011 0
M  V30 838 C 143.399 -1.04544 8.13308 0
M  V30 839 O 143.789 -2.38311 8.41922 0
M  V30 840 C 144.279 -0.491279 7.02284 0
M  V30 841 C 143.569 -0.996264 5.77469 0
M  V30 842 N 143.619 -0.0501916 4.62973 0
M  V30 843 H 140.78 0.374722 8.67691 0
M  V30 844 H 140.51 0.443485 6.90277 0
M  V30 845 H 141.377 -1.75537 7.96793 0
M  V30 846 P 145.339 -2.75334 8.47391 0
M  V30 847 O 145.559 -3.84128 9.44797 0
M  V30 848 O 146.129 -1.51947 8.68712 0
M  V30 849 O 145.589 -3.29363 6.99321 0
M  V30 850 C 144.649 -4.24011 6.4274 0
M  V30 851 C 145.379 -5.20775 5.52155 0
M  V30 852 O 145.589 -4.56534 4.22446 0
M  V30 853 C 146.779 -5.62629 5.96531 0
M  V30 854 O 147.169 -6.87667 5.41053 0
M  V30 855 C 147.659 -4.52537 5.39283 0
M  V30 856 C 146.949 -4.20027 4.08623 0
M  V30 857 N 146.999 -2.76189 3.71603 0
M  V30 858 H 144.16 -4.797 7.24003 0
M  V30 859 H 143.89 -3.69856 5.84513 0
M  V30 860 H 144.757 -6.10356 5.41441 0
M  V30 861 P 148.719 -7.20834 5.23717 0
M  V30 862 O 148.939 -8.66104 5.38572 0
M  V30 863 O 149.509 -6.33544 6.1349 0
M  V30 864 O 148.969 -6.7751 3.72168 0
M  V30 865 C 148.029 -7.20825 2.7076 0
M  V30 866 C 148.759 -7.45864 1.40599 0
M  V30 867 O 148.969 -6.17651 0.734225 0
M  V30 868 C 150.159 -8.05808 1.51899 0
M  V30 869 O 150.549 -8.74358 0.335205 0
M  V30 870 C 151.039 -6.83093 1.70294 0
M  V30 871 C 150.329 -5.79992 0.836974 0
M  V30 872 N 150.379 -4.41864 1.38293 0
M  V30 873 H 147.54 -8.13644 3.0377 0
M  V30 874 H 147.27 -6.42788 2.55485 0
M  V30 875 H 148.137 -8.12039 0.792769 0
M  V30 876 P 152.099 -8.91 9.82044e-15 0
M  V30 877 O 152.319 -10.1726 -0.733694 0
M  V30 878 O 152.889 -8.73148 1.23936 0
M  V30 879 O 152.349 -7.66872 -0.971405 0
M  V30 880 C 151.409 -7.42309 -2.04641 0
M  V30 881 C 152.139 -6.86059 -3.24661 0
M  V30 882 O 152.349 -5.42847 -3.03646 0
M  V30 883 C 153.539 -7.41196 -3.50753 0
M  V30 884 O 153.929 -7.27073 -4.86816 0
M  V30 885 C 154.419 -6.5273 -2.63741 0
M  V30 886 C 153.709 -5.1842 -2.73198 0
M  V30 887 N 153.759 -4.38762 -1.4784 0
M  V30 888 H 150.92 -8.36803 -2.32493 0
M  V30 889 H 150.65 -6.70197 -1.71129 0
M  V30 890 H 151.517 -7.03551 -4.13168 0
M  V30 891 P 155.479 -7.20834 -5.23717 0
M  V30 892 O 155.699 -7.79853 -6.57286 0
M  V30 893 O 156.269 -7.79239 -4.12957 0
M  V30 894 O 155.729 -5.63315 -5.29344 0
M  V30 895 C 154.789 -4.80255 -6.01876 0
M  V30 896 C 155.519 -3.64202 -6.65911 0
M  V30 897 O 155.729 -2.60694 -5.64732 0
M  V30 898 C 156.919 -3.93473 -7.1943 0
M  V30 899 O 157.309 -3.02071 -8.21205 0
M  V30 900 C 157.799 -3.73047 -5.97036 0
M  V30 901 C 157.089 -2.58828 -5.25741 0
M  V30 902 N 157.139 -2.68068 -3.77503 0
M  V30 903 H 154.3 -5.40332 -6.79951 0
M  V30 904 H 154.03 -4.41613 -5.32378 0
M  V30 905 H 154.897 -3.26331 -7.47797 0
M  V30 906 P 158.859 -2.75334 -8.47391 0
M  V30 907 O 159.079 -2.44571 -9.90142 0
M  V30 908 O 159.649 -3.87688 -7.92115 0
M  V30 909 O 159.109 -1.4459 -7.59357 0
M  V30 910 C 158.169 -0.347608 -7.69215 0
M  V30 911 C 158.899 0.96767 -7.52806 0
M  V30 912 O 159.109 1.21036 -6.1011 0
M  V30 913 C 160.299 1.04544 -8.13308 0
M  V30 914 O 160.689 2.38311 -8.41922 0
M  V30 915 C 161.179 0.491279 -7.02284 0
M  V30 916 C 160.469 0.996264 -5.77469 0
M  V30 917 N 160.519 0.0501916 -4.62973 0
M  V30 918 C 160.439 -1.32786 -4.63244 0
M  V30 919 N 160.519 -1.86957 -3.44545 0
M  V30 920 C 160.659 -0.780241 -2.58481 0
M  V30 921 C 160.789 -0.738536 -1.17757 0
M  V30 922 O 160.809 -1.66794 -0.372349 0
M  V30 923 N 160.909 0.58337 -0.711393 0
M  V30 924 C 160.909 1.70816 -1.51017 0
M  V30 925 N 161.039 2.87826 -0.880757 0
M  V30 926 N 160.779 1.67126 -2.8339 0
M  V30 927 C 160.659 0.401421 -3.30572 0
M  V30 928 H 157.68 -0.374722 -8.67691 0
M  V30 929 H 157.41 -0.443485 -6.90277 0
M  V30 930 H 158.277 1.75537 -7.96793 0
M  V30 931 H 160.932 1.95076 -5.46529 0
M  V30 932 H 161.211 -0.608565 -7.04577 0
M  V30 933 H 162.203 0.889672 -7.08939 0
M  V30 934 H 160.369 0.43308 -9.04564 0
M  V30 935 H 160.32 -1.91249 -5.54442 0
M  V30 936 H 161.002 0.718054 0.275244 0
M  V30 937 H 161.039 3.75721 -1.41832 0
M  V30 938 H 161.14 2.90436 0.145468 0
M  V30 939 P 162.239 2.75334 -8.47391 0
M  V30 940 O 162.459 3.84166 -9.4489 0
M  V30 941 O 163.029 1.51964 -8.6881 0
M  V30 942 O 162.489 3.29363 -6.99321 0
M  V30 943 C 161.549 4.23956 -6.42656 0
M  V30 944 C 162.279 5.20775 -5.52155 0
M  V30 945 O 162.489 4.56534 -4.22446 0
M  V30 946 C 163.679 5.62629 -5.96531 0
M  V30 947 O 164.069 6.87667 -5.41053 0
M  V30 948 C 164.559 4.52537 -5.39283 0
M  V30 949 C 163.849 4.20027 -4.08623 0
M  V30 950 N 163.899 2.7613 -3.71522 0
M  V30 951 C 164.049 2.45612 -2.37989 0
M  V30 952 O 164.139 3.30919 -1.51621 0
M  V30 953 N 164.089 1.10684 -2.08435 0
M  V30 954 C 163.999 0.0690084 -2.9792 0
M  V30 955 O 164.049 -1.10553 -2.59426 0
M  V30 956 C 163.849 0.481522 -4.35345 0
M  V30 957 C 163.739 -0.618778 -5.36443 0
M  V30 958 C 163.799 1.78906 -4.67968 0
M  V30 959 H 161.059 4.797 -7.24003 0
M  V30 960 H 160.79 3.69802 -5.84429 0
M  V30 961 H 161.657 6.10356 -5.41441 0
M  V30 962 H 164.312 4.78651 -3.27911 0
M  V30 963 H 164.591 3.64957 -6.05871 0
M  V30 964 H 165.583 4.8868 -5.2125 0
M  V30 965 H 163.749 5.66726 -7.06352 0
M  V30 966 H 163.678 2.07737 -5.72367 0
M  V30 967 H 164.708 -0.754375 -5.86871 0
M  V30 968 H 162.971 -0.359721 -6.10641 0
M  V30 969 H 163.459 -1.55533 -4.8581 0
M  V30 970 H 164.195 0.862651 -1.12037 0
M  V30 971 P 165.619 7.20834 -5.23717 0
M  V30 972 O 165.839 8.66104 -5.38572 0
M  V30 973 O 166.409 6.33544 -6.1349 0
M  V30 974 O 165.869 6.7751 -3.72168 0
M  V30 975 C 164.929 7.20825 -2.7076 0
M  V30 976 C 165.659 7.45864 -1.40599 0
M  V30 977 O 165.869 6.17651 -0.734225 0
M  V30 978 C 167.059 8.05808 -1.51899 0
M  V30 979 O 167.449 8.74358 -0.335205 0
M  V30 980 C 167.939 6.83093 -1.70294 0
M  V30 981 C 167.229 5.79992 -0.836974 0
M  V30 982 N 167.279 4.41864 -1.38293 0
M  V30 983 H 164.44 8.13644 -3.0377 0
M  V30 984 H 164.17 6.42788 -2.55485 0
M  V30 985 H 165.037 8.12039 -0.792769 0
M  V30 986 P 168.999 8.91 -1.09116e-14 0
M  V30 987 O 169.219 10.1746 0.733838 0
M  V30 988 O 169.789 8.73346 -1.23964 0
M  V30 989 O 169.249 7.66872 0.971405 0
M  V30 990 C 168.309 7.42405 2.04668 0
M  V30 991 C 169.039 6.86059 3.24661 0
M  V30 992 O 169.249 5.42934 3.03695 0
M  V30 993 C 170.439 7.41287 3.50796 0
M  V30 994 O 170.829 7.27073 4.86816 0
M  V30 995 C 171.319 6.5273 2.63741 0
M  V30 996 C 170.609 5.1842 2.73198 0
M  V30 997 N 170.659 4.38762 1.4784 0
M  V30 998 H 167.821 8.36899 2.3252 0
M  V30 999 H 167.549 6.70391 1.71179 0
M  V30 1000 H 168.417 7.03638 4.13219 0
M  V30 1001 H 171.072 4.59931 3.54016 0
M  V30 1002 H 171.352 6.88995 1.59871 0
M  V30 1003 H 172.343 6.4684 3.0373 0
M  V30 1004 H 170.509 8.47002 3.20749 0
M  V30 1005 P 172.379 7.20834 5.23717 0
M  V30 1006 O 172.599 7.79853 6.57286 0
M  V30 1007 O 173.169 7.79239 4.12957 0
M  V30 1008 O 172.629 5.63315 5.29344 0
M  V30 1009 C 171.689 4.80255 6.01876 0
M  V30 1010 C 172.419 3.64202 6.65911 0
M  V30 1011 O 172.629 2.60694 5.64732 0
M  V30 1012 C 173.819 3.93473 7.1943 0
M  V30 1013 O 174.209 3.02071 8.21205 0
M  V30 1014 C 174.699 3.73047 5.97036 0
M  V30 1015 C 173.989 2.58828 5.25741 0
M  V30 1016 N 174.039 2.68068 3.77503 0
M  V30 1017 H 171.2 5.40332 6.79951 0
M  V30 1018 H 170.93 4.41613 5.32378 0
M  V30 1019 H 171.797 3.26331 7.47797 0
M  V30 1020 P 175.759 2.75334 8.47391 0
M  V30 1021 O 175.979 2.44571 9.90142 0
M  V30 1022 O 176.549 3.87688 7.92115 0
M  V30 1023 O 176.009 1.4459 7.59357 0
M  V30 1024 C 175.069 0.347608 7.69215 0
M  V30 1025 C 175.799 -0.96767 7.52806 0
M  V30 1026 O 176.009 -1.21036 6.1011 0
M  V30 1027 C 177.199 -1.04544 8.13308 0
M  V30 1028 O 177.589 -2.38311 8.41922 0
M  V30 1029 C 178.079 -0.491279 7.02284 0
M  V30 1030 C 177.369 -0.996264 5.77469 0
M  V30 1031 N 177.419 -0.0501916 4.62973 0
M  V30 1032 H 174.58 0.374722 8.67691 0
M  V30 1033 H 174.31 0.443485 6.90277 0
M  V30 1034 H 175.177 -1.75537 7.96793 0
M  V30 1035 P 179.139 -2.75334 8.47391 0
M  V30 1036 O 179.359 -3.84128 9.44797 0
M  V30 1037 O 179.929 -1.51947 8.68712 0
M  V30 1038 O 179.389 -3.29363 6.99321 0
M  V30 1039 C 178.449 -4.24011 6.4274 0
M  V30 1040 C 179.179 -5.20775 5.52155 0
M  V30 1041 O 179.389 -4.56534 4.22446 0
M  V30 1042 C 180.579 -5.62629 5.96531 0
M  V30 1043 O 180.969 -6.87667 5.41053 0
M  V30 1044 C 181.459 -4.52537 5.39283 0
M  V30 1045 C 180.749 -4.20027 4.08623 0
M  V30 1046 N 180.799 -2.76189 3.71603 0
M  V30 1047 H 177.96 -4.797 7.24003 0
M  V30 1048 H 177.69 -3.69856 5.84513 0
M  V30 1049 H 178.557 -6.10356 5.41441 0
M  V30 1050 P 182.519 -7.20834 5.23717 0
M  V30 1051 O 182.739 -8.66104 5.38572 0
M  V30 1052 O 183.309 -6.33544 6.1349 0
M  V30 1053 O 182.769 -6.7751 3.72168 0
M  V30 1054 C 181.829 -7.20825 2.7076 0
M  V30 1055 C 182.559 -7.45864 1.40599 0
M  V30 1056 O 182.769 -6.17651 0.734225 0
M  V30 1057 C 183.959 -8.05808 1.51899 0
M  V30 1058 O 184.349 -8.74358 0.335205 0
M  V30 1059 C 184.839 -6.83093 1.70294 0
M  V30 1060 C 184.129 -5.79992 0.836974 0
M  V30 1061 N 184.179 -4.41864 1.38293 0
M  V30 1062 H 181.34 -8.13644 3.0377 0
M  V30 1063 H 181.07 -6.42788 2.55485 0
M  V30 1064 H 181.937 -8.12039 0.792769 0
M  V30 1065 P 185.899 -8.91 -8.29613e-14 0
M  V30 1066 O 186.119 -10.1726 -0.733694 0
M  V30 1067 O 186.689 -8.73148 1.23936 0
M  V30 1068 O 186.149 -7.66872 -0.971405 0
M  V30 1069 C 185.209 -7.42309 -2.04641 0
M  V30 1070 C 185.939 -6.86059 -3.24661 0
M  V30 1071 O 186.149 -5.42847 -3.03646 0
M  V30 1072 C 187.339 -7.41196 -3.50753 0
M  V30 1073 O 187.729 -7.27073 -4.86816 0
M  V30 1074 C 188.219 -6.5273 -2.63741 0
M  V30 1075 C 187.509 -5.1842 -2.73198 0
M  V30 1076 N 187.559 -4.38762 -1.4784 0
M  V30 1077 H 184.72 -8.36803 -2.32493 0
M  V30 1078 H 184.45 -6.70197 -1.71129 0
M  V30 1079 H 185.317 -7.03551 -4.13168 0
M  V30 1080 P 189.279 -7.20834 -5.23717 0
M  V30 1081 O 189.499 -7.7993 -6.57351 0
M  V30 1082 O 190.069 -7.79328 -4.13004 0
M  V30 1083 O 189.529 -5.63315 -5.29344 0
M  V30 1084 C 188.589 -4.80255 -6.01876 0
M  V30 1085 C 189.319 -3.64202 -6.65911 0
M  V30 1086 O 189.529 -2.60694 -5.64732 0
M  V30 1087 C 190.719 -3.93473 -7.1943 0
M  V30 1088 O 191.109 -3.02071 -8.21205 0
M  V30 1089 C 191.599 -3.73047 -5.97036 0
M  V30 1090 C 190.889 -2.58828 -5.25741 0
M  V30 1091 N 190.939 -2.6801 -3.77422 0
M  V30 1092 C 191.089 -1.50173 -3.05038 0
M  V30 1093 O 191.179 -0.428832 -3.665 0
M  V30 1094 N 191.139 -1.70922 -1.55541 0
M  V30 1095 C 191.039 -2.7407 -1.06402 0
M  V30 1096 N 191.089 -2.74764 0.260931 0
M  V30 1097 C 190.889 -3.96781 -1.78296 0
M  V30 1098 C 190.839 -3.87909 -3.13891 0
M  V30 1099 H 188.099 -5.4027 -6.79873 0
M  V30 1100 H 187.83 -4.41549 -5.32301 0
M  V30 1101 H 188.697 -3.26371 -7.47889 0
M  V30 1102 H 191.352 -1.63978 -5.5665 0
M  V30 1103 H 191.631 -4.63439 -5.3432 0
M  V30 1104 H 192.623 -3.44728 -6.25838 0
M  V30 1105 H 190.789 -4.96652 -7.57263 0
M  V30 1106 H 190.717 -4.78425 -3.73088 0
M  V30 1107 H 190.819 -4.92593 -1.26997 0
M  V30 1108 H 191.207 -1.86285 0.77595 0
M  V30 1109 H 191.01 -3.63657 0.773896 0
M  V30 1110 P 192.659 -2.75334 -8.47391 0
M  V30 1111 O 192.879 -2.44571 -9.90142 0
M  V30 1112 O 193.449 -3.87688 -7.92115 0
M  V30 1113 O 192.909 -1.4459 -7.59357 0
M  V30 1114 C 191.969 -0.347608 -7.69215 0
M  V30 1115 C 192.699 0.96767 -7.52806 0
M  V30 1116 O 192.909 1.21036 -6.1011 0
M  V30 1117 C 194.099 1.04544 -8.13308 0
M  V30 1118 O 194.489 2.38311 -8.41922 0
M  V30 1119 C 194.979 0.491279 -7.02284 0
M  V30 1120 C 194.269 0.996264 -5.77469 0
M  V30 1121 N 194.319 0.0501916 -4.62973 0
M  V30 1122 H 191.48 -0.374722 -8.67691 0
M  V30 1123 H 191.21 -0.443485 -6.90277 0
M  V30 1124 H 192.077 1.75537 -7.96793 0
M  V30 1125 P 196.039 2.75334 -8.47391 0
M  V30 1126 O 196.259 3.84128 -9.44797 0
M  V30 1127 O 196.829 1.51947 -8.68712 0
M  V30 1128 O 196.289 3.29363 -6.99321 0
M  V30 1129 C 195.349 4.24011 -6.4274 0
M  V30 1130 C 196.079 5.20775 -5.52155 0
M  V30 1131 O 196.289 4.56534 -4.22446 0
M  V30 1132 C 197.479 5.62629 -5.96531 0
M  V30 1133 O 197.869 6.87667 -5.41053 0
M  V30 1134 C 198.359 4.52537 -5.39283 0
M  V30 1135 C 197.649 4.20027 -4.08623 0
M  V30 1136 N 197.699 2.76189 -3.71603 0
M  V30 1137 H 194.86 4.797 -7.24003 0
M  V30 1138 H 194.59 3.69856 -5.84513 0
M  V30 1139 H 195.457 6.10356 -5.41441 0
M  V30 1140 P 199.419 7.20834 -5.23717 0
M  V30 1141 O 199.639 8.66104 -5.38572 0
M  V30 1142 O 200.209 6.33544 -6.1349 0
M  V30 1143 O 199.669 6.7751 -3.72168 0
M  V30 1144 C 198.729 7.20825 -2.7076 0
M  V30 1145 C 199.459 7.45864 -1.40599 0
M  V30 1146 O 199.669 6.17651 -0.734225 0
M  V30 1147 C 200.859 8.05808 -1.51899 0
M  V30 1148 O 201.249 8.74358 -0.335205 0
M  V30 1149 C 201.739 6.83093 -1.70294 0
M  V30 1150 C 201.029 5.79992 -0.836974 0
M  V30 1151 N 201.079 4.41864 -1.38293 0
M  V30 1152 C 200.999 3.99538 -2.69438 0
M  V30 1153 N 201.079 2.69909 -2.84277 0
M  V30 1154 C 201.219 2.21719 -1.5408 0
M  V30 1155 C 201.349 0.891712 -1.06628 0
M  V30 1156 O 201.369 -0.161298 -1.70137 0
M  V30 1157 N 201.469 0.856846 0.334985 0
M  V30 1158 C 201.469 1.9641 1.15789 0
M  V30 1159 N 201.599 1.72708 2.46522 0
M  V30 1160 N 201.339 3.21165 0.713741 0
M  V30 1161 C 201.219 3.26797 -0.639748 0
M  V30 1162 H 198.24 8.13644 -3.0377 0
M  V30 1163 H 197.97 6.42788 -2.55485 0
M  V30 1164 H 198.837 8.12039 -0.792769 0
M  V30 1165 H 201.492 5.80061 0.166416 0
M  V30 1166 H 201.771 6.51287 -2.75604 0
M  V30 1167 H 202.763 7.01734 -1.34462 0
M  V30 1168 H 200.929 8.73674 -2.38337 0
M  V30 1169 H 200.88 4.68207 -3.53221 0
M  V30 1170 H 201.562 -0.0398818 0.767965 0
M  V30 1171 H 201.599 2.50995 3.13503 0
M  V30 1172 H 201.7 0.759148 2.80716 0
M  V30 1173 P 202.799 8.91 2.40144e-13 0
M  V30 1174 O 203.019 10.1736 0.733766 0
M  V30 1175 O 203.589 8.73247 -1.2395 0
M  V30 1176 O 203.049 7.66872 0.971405 0
M  V30 1177 C 202.109 7.42309 2.04641 0
M  V30 1178 C 202.839 6.86059 3.24661 0
M  V30 1179 O 203.049 5.42847 3.03646 0
M  V30 1180 C 204.239 7.41196 3.50753 0
M  V30 1181 O 204.629 7.27073 4.86816 0
M  V30 1182 C 205.119 6.5273 2.63741 0
M  V30 1183 C 204.409 5.1842 2.73198 0
M  V30 1184 N 204.459 4.38668 1.47808 0
M  V30 1185 C 204.609 3.00789 1.58511 0
M  V30 1186 O 204.699 2.50116 2.71298 0
M  V30 1187 N 204.659 2.29703 0.253698 0
M  V30 1188 C 204.559 2.84269 -0.750133 0
M  V30 1189 N 204.609 2.06951 -1.82612 0
M  V30 1190 C 204.409 4.25803 -0.889776 0
M  V30 1191 C 204.359 4.98326 0.259363 0
M  V30 1192 H 201.619 8.36707 2.32466 0
M  V30 1193 H 201.35 6.701 1.71105 0
M  V30 1194 H 202.217 7.03638 4.13219 0
M  V30 1195 H 204.872 4.59852 3.53955 0
M  V30 1196 H 205.151 6.88995 1.59871 0
M  V30 1197 H 206.143 6.46749 3.03687 0
M  V30 1198 H 204.309 8.46908 3.20714 0
M  V30 1199 H 204.237 6.06349 0.206238 0
M  V30 1200 H 204.339 4.73163 -1.86796 0
M  V30 1201 H 204.727 1.05099 -1.72271 0
M  V30 1202 H 204.53 2.48716 -2.76361 0
M  V30 1203 P 206.179 7.20834 5.23717 0
M  V30 1204 O 206.399 7.80006 6.57415 0
M  V30 1205 O 206.969 7.79416 4.13051 0
M  V30 1206 O 206.429 5.63315 5.29344 0
M  V30 1207 C 205.489 4.80318 6.01954 0
M  V30 1208 C 206.219 3.64202 6.65911 0
M  V30 1209 O 206.429 2.60736 5.64823 0
M  V30 1210 C 207.619 3.93521 7.19518 0
M  V30 1211 O 208.009 3.02071 8.21205 0
M  V30 1212 C 208.499 3.73047 5.97036 0
M  V30 1213 C 207.789 2.58828 5.25741 0
M  V30 1214 N 207.839 2.68068 3.77503 0
M  V30 1215 H 205.001 5.40394 6.8003 0
M  V30 1216 H 204.729 4.41741 5.32532 0
M  V30 1217 H 205.597 3.26371 7.47889 0
M  V30 1218 H 208.252 1.64007 5.56746 0
M  V30 1219 H 208.532 4.63439 5.3432 0
M  V30 1220 H 209.523 3.44776 6.25925 0
M  V30 1221 H 207.689 4.96707 7.57347 0
M  V30 1222 P 209.559 2.75334 8.47391 0
M  V30 1223 O 209.779 2.44571 9.90142 0
M  V30 1224 O 210.349 3.87688 7.92115 0
M  V30 1225 O 209.809 1.4459 7.59357 0
M  V30 1226 C 208.869 0.347608 7.69215 0
M  V30 1227 C 209.599 -0.96767 7.52806 0
M  V30 1228 O 209.809 -1.21036 6.1011 0
M  V30 1229 C 210.999 -1.04544 8.13308 0
M  V30 1230 O 211.389 -2.38311 8.41922 0
M  V30 1231 C 211.879 -0.491279 7.02284 0
M  V30 1232 C 211.169 -0.996264 5.77469 0
M  V30 1233 N 211.219 -0.0501916 4.62973 0
M  V30 1234 H 208.38 0.374722 8.67691 0
M  V30 1235 H 208.11 0.443485 6.90277 0
M  V30 1236 H 208.977 -1.75537 7.96793 0
M  V30 1237 P 212.939 -2.75334 8.47391 0
M  V30 1238 O 213.159 -3.84204 9.44982 0
M  V30 1239 O 213.729 -1.51982 8.68909 0
M  V30 1240 O 213.189 -3.29363 6.99321 0
M  V30 1241 C 212.249 -4.24066 6.42823 0
M  V30 1242 C 212.979 -5.20775 5.52155 0
M  V30 1243 O 213.189 -4.56607 4.22514 0
M  V30 1244 C 214.379 -5.62697 5.96604 0
M  V30 1245 O 214.769 -6.87667 5.41053 0
M  V30 1246 C 215.259 -4.52537 5.39283 0
M  V30 1247 C 214.549 -4.20027 4.08623 0
M  V30 1248 N 214.599 -2.76189 3.71603 0
M  V30 1249 H 211.761 -4.79756 7.24086 0
M  V30 1250 H 211.489 -3.69963 5.84682 0
M  V30 1251 H 212.357 -6.10431 5.41508 0
M  V30 1252 H 215.012 -4.78816 3.28024 0
M  V30 1253 H 215.292 -3.64957 6.05871 0
M  V30 1254 H 216.283 -4.88748 5.21323 0
M  V30 1255 H 214.449 -5.66789 7.0643 0
M  V30 1256 P 216.319 -7.20834 5.23717 0
M  V30 1257 O 216.539 -8.66104 5.38572 0
M  V30 1258 O 217.109 -6.33544 6.1349 0
M  V30 1259 O 216.569 -6.7751 3.72168 0
M  V30 1260 C 215.629 -7.20825 2.7076 0
M  V30 1261 C 216.359 -7.45864 1.40599 0
M  V30 1262 O 216.569 -6.17651 0.734225 0
M  V30 1263 C 217.759 -8.05808 1.51899 0
M  V30 1264 O 218.149 -8.74358 0.335205 0
M  V30 1265 C 218.639 -6.83093 1.70294 0
M  V30 1266 C 217.929 -5.79992 0.836974 0
M  V30 1267 N 217.979 -4.41864 1.38293 0
M  V30 1268 H 215.14 -8.13644 3.0377 0
M  V30 1269 H 214.87 -6.42788 2.55485 0
M  V30 1270 H 215.737 -8.12039 0.792769 0
M  V30 1271 P 219.699 -8.91 -3.97326e-13 0
M  V30 1272 O 219.919 -10.1726 -0.733694 0
M  V30 1273 O 220.489 -8.73148 1.23936 0
M  V30 1274 O 219.949 -7.66872 -0.971405 0
M  V30 1275 C 219.009 -7.42309 -2.04641 0
M  V30 1276 C 219.739 -6.86059 -3.24661 0
M  V30 1277 O 219.949 -5.42847 -3.03646 0
M  V30 1278 C 221.139 -7.41196 -3.50753 0
M  V30 1279 O 221.529 -7.27073 -4.86816 0
M  V30 1280 C 222.019 -6.5273 -2.63741 0
M  V30 1281 C 221.309 -5.1842 -2.73198 0
M  V30 1282 N 221.359 -4.38762 -1.4784 0
M  V30 1283 H 218.52 -8.36803 -2.32493 0
M  V30 1284 H 218.25 -6.70197 -1.71129 0
M  V30 1285 H 219.117 -7.03551 -4.13168 0
M  V30 1286 P 223.079 -7.20834 -5.23717 0
M  V30 1287 O 223.299 -7.79853 -6.57286 0
M  V30 1288 O 223.869 -7.79239 -4.12957 0
M  V30 1289 O 223.329 -5.63315 -5.29344 0
M  V30 1290 C 222.389 -4.80255 -6.01876 0
M  V30 1291 C 223.119 -3.64202 -6.65911 0
M  V30 1292 O 223.329 -2.60694 -5.64732 0
M  V30 1293 C 224.519 -3.93473 -7.1943 0
M  V30 1294 O 224.909 -3.02071 -8.21205 0
M  V30 1295 C 225.399 -3.73047 -5.97036 0
M  V30 1296 C 224.689 -2.58828 -5.25741 0
M  V30 1297 N 224.739 -2.68068 -3.77503 0
M  V30 1298 H 221.9 -5.40332 -6.79951 0
M  V30 1299 H 221.63 -4.41613 -5.32378 0
M  V30 1300 H 222.497 -3.26331 -7.47797 0
M  V30 1301 P 226.459 -2.75334 -8.47391 0
M  V30 1302 O 226.679 -2.44571 -9.90142 0
M  V30 1303 O 227.249 -3.87688 -7.92115 0
M  V30 1304 O 226.709 -1.4459 -7.59357 0
M  V30 1305 C 225.769 -0.347608 -7.69215 0
M  V30 1306 C 226.499 0.96767 -7.52806 0
M  V30 1307 O 226.709 1.21036 -6.1011 0
M  V30 1308 C 227.899 1.04544 -8.13308 0
M  V30 1309 O 228.289 2.38311 -8.41922 0
M  V30 1310 C 228.779 0.491279 -7.02284 0
M  V30 1311 C 228.069 0.996264 -5.77469 0
M  V30 1312 N 228.119 0.0501916 -4.62973 0
M  V30 1313 H 225.28 -0.374722 -8.67691 0
M  V30 1314 H 225.01 -0.443485 -6.90277 0
M  V30 1315 H 225.877 1.75537 -7.96793 0
M  V30 1316 P 229.839 2.75334 -8.47391 0
M  V30 1317 O 230.059 3.84128 -9.44797 0
M  V30 1318 O 230.629 1.51947 -8.68712 0
M  V30 1319 O 230.089 3.29363 -6.99321 0
M  V30 1320 C 229.149 4.24011 -6.4274 0
M  V30 1321 C 229.879 5.20775 -5.52155 0
M  V30 1322 O 230.089 4.56534 -4.22446 0
M  V30 1323 C 231.279 5.62629 -5.96531 0
M  V30 1324 O 231.669 6.87667 -5.41053 0
M  V30 1325 C 232.159 4.52537 -5.39283 0
M  V30 1326 C 231.449 4.20027 -4.08623 0
M  V30 1327 N 231.499 2.76189 -3.71603 0
M  V30 1328 H 228.66 4.797 -7.24003 0
M  V30 1329 H 228.39 3.69856 -5.84513 0
M  V30 1330 H 229.257 6.10356 -5.41441 0
M  V30 1331 P 233.219 7.20834 -5.23717 0
M  V30 1332 O 233.439 8.66104 -5.38572 0
M  V30 1333 O 234.009 6.33544 -6.1349 0
M  V30 1334 O 233.469 6.7751 -3.72168 0
M  V30 1335 C 232.529 7.20825 -2.7076 0
M  V30 1336 C 233.259 7.45864 -1.40599 0
M  V30 1337 O 233.469 6.17651 -0.734225 0
M  V30 1338 C 234.659 8.05808 -1.51899 0
M  V30 1339 O 235.049 8.74358 -0.335205 0
M  V30 1340 C 235.539 6.83093 -1.70294 0
M  V30 1341 C 234.829 5.79992 -0.836974 0
M  V30 1342 N 234.879 4.41864 -1.38293 0
M  V30 1343 H 232.04 8.13644 -3.0377 0
M  V30 1344 H 231.77 6.42788 -2.55485 0
M  V30 1345 H 232.637 8.12039 -0.792769 0
M  V30 1346 P 236.599 8.91 5.54508e-13 0
M  V30 1347 O 236.819 10.1726 0.733694 0
M  V30 1348 O 237.389 8.73148 -1.23936 0
M  V30 1349 O 236.849 7.66872 0.971405 0
M  V30 1350 C 235.909 7.42309 2.04641 0
M  V30 1351 C 236.639 6.86059 3.24661 0
M  V30 1352 O 236.849 5.42847 3.03646 0
M  V30 1353 C 238.039 7.41196 3.50753 0
M  V30 1354 O 238.429 7.27073 4.86816 0
M  V30 1355 C 238.919 6.5273 2.63741 0
M  V30 1356 C 238.209 5.1842 2.73198 0
M  V30 1357 N 238.259 4.38762 1.4784 0
M  V30 1358 H 235.42 8.36803 2.32493 0
M  V30 1359 H 235.15 6.70197 1.71129 0
M  V30 1360 H 236.017 7.03551 4.13168 0
M  V30 1361 P 239.979 7.20834 5.23717 0
M  V30 1362 O 240.199 7.7993 6.57351 0
M  V30 1363 O 240.769 7.79328 4.13004 0
M  V30 1364 O 240.229 5.63315 5.29344 0
M  V30 1365 C 239.289 4.80255 6.01876 0
M  V30 1366 C 240.019 3.64202 6.65911 0
M  V30 1367 O 240.229 2.60694 5.64732 0
M  V30 1368 C 241.419 3.93473 7.1943 0
M  V30 1369 O 241.809 3.02071 8.21205 0
M  V30 1370 C 242.299 3.73047 5.97036 0
M  V30 1371 C 241.589 2.58828 5.25741 0
M  V30 1372 N 241.639 2.6801 3.77422 0
M  V30 1373 C 241.789 1.50173 3.05038 0
M  V30 1374 O 241.879 0.428832 3.665 0
M  V30 1375 N 241.839 1.70922 1.55541 0
M  V30 1376 C 241.739 2.7407 1.06402 0
M  V30 1377 N 241.789 2.74764 -0.260931 0
M  V30 1378 C 241.589 3.96781 1.78296 0
M  V30 1379 C 241.539 3.87909 3.13891 0
M  V30 1380 H 238.799 5.4027 6.79873 0
M  V30 1381 H 238.53 4.41549 5.32301 0
M  V30 1382 H 239.397 3.26371 7.47889 0
M  V30 1383 H 242.052 1.63978 5.5665 0
M  V30 1384 H 242.331 4.63439 5.3432 0
M  V30 1385 H 243.323 3.44728 6.25838 0
M  V30 1386 H 241.489 4.96652 7.57263 0
M  V30 1387 H 241.417 4.78425 3.73088 0
M  V30 1388 H 241.519 4.92593 1.26997 0
M  V30 1389 H 241.907 1.86285 -0.77595 0
M  V30 1390 H 241.71 3.63657 -0.773896 0
M  V30 1391 P 243.359 2.75334 8.47391 0
M  V30 1392 O 243.579 2.44619 9.90336 0
M  V30 1393 O 244.149 3.87776 7.92294 0
M  V30 1394 O 243.609 1.4459 7.59357 0
M  V30 1395 C 242.669 0.347653 7.69315 0
M  V30 1396 C 243.399 -0.96767 7.52806 0
M  V30 1397 O 243.609 -1.21055 6.10208 0
M  V30 1398 C 244.799 -1.04557 8.13408 0
M  V30 1399 O 245.189 -2.38311 8.41922 0
M  V30 1400 C 245.679 -0.491279 7.02284 0
M  V30 1401 C 244.969 -0.996264 5.77469 0
M  V30 1402 N 245.019 -0.0501916 4.62973 0
M  V30 1403 C 244.939 1.31969 4.65661 0
M  V30 1404 N 245.009 1.86649 3.48119 0
M  V30 1405 C 245.159 0.792089 2.62406 0
M  V30 1406 C 245.289 0.705684 1.2207 0
M  V30 1407 N 245.299 1.76207 0.413762 0
M  V30 1408 N 245.409 -0.518981 0.685754 0
M  V30 1409 C 245.399 -1.57595 1.49174 0
M  V30 1410 N 245.279 -1.62909 2.80066 0
M  V30 1411 C 245.159 -0.388195 3.3073 0
M  V30 1412 H 242.181 0.374765 8.67791 0
M  V30 1413 H 241.909 0.443613 6.90476 0
M  V30 1414 H 242.777 -1.75559 7.96891 0
M  V30 1415 H 245.432 -1.94563 5.46818 0
M  V30 1416 H 245.712 0.608651 7.04676 0
M  V30 1417 H 246.703 -0.889796 7.09039 0
M  V30 1418 H 244.869 -0.433128 9.04664 0
M  V30 1419 H 244.828 1.89246 5.57664 0
M  V30 1420 H 245.209 2.71005 0.804694 0
M  V30 1421 H 245.398 1.63189 -0.603768 0
M  V30 1422 H 245.506 -2.53475 0.997614 0
M  V30 1423 P 246.739 -2.75334 8.47391 0
M  V30 1424 O 246.959 -3.84128 9.44797 0
M  V30 1425 O 247.529 -1.51947 8.68712 0
M  V30 1426 O 246.989 -3.29363 6.99321 0
M  V30 1427 C 246.049 -4.24011 6.4274 0
M  V30 1428 C 246.779 -5.20775 5.52155 0
M  V30 1429 O 246.989 -4.56534 4.22446 0
M  V30 1430 C 248.179 -5.62629 5.96531 0
M  V30 1431 O 248.569 -6.87667 5.41053 0
M  V30 1432 C 249.059 -4.52537 5.39283 0
M  V30 1433 C 248.349 -4.20027 4.08623 0
M  V30 1434 N 248.399 -2.76189 3.71603 0
M  V30 1435 H 245.56 -4.797 7.24003 0
M  V30 1436 H 245.29 -3.69856 5.84513 0
M  V30 1437 H 246.157 -6.10356 5.41441 0
M  V30 1438 P 250.119 -7.20834 5.23717 0
M  V30 1439 O 250.339 -8.66104 5.38572 0
M  V30 1440 O 250.909 -6.33544 6.1349 0
M  V30 1441 O 250.369 -6.7751 3.72168 0
M  V30 1442 C 249.429 -7.20825 2.7076 0
M  V30 1443 C 250.159 -7.45864 1.40599 0
M  V30 1444 O 250.369 -6.17651 0.734225 0
M  V30 1445 C 251.559 -8.05808 1.51899 0
M  V30 1446 O 251.949 -8.74358 0.335205 0
M  V30 1447 C 252.439 -6.83093 1.70294 0
M  V30 1448 C 251.729 -5.79992 0.836974 0
M  V30 1449 N 251.779 -4.41864 1.38293 0
M  V30 1450 H 248.94 -8.13644 3.0377 0
M  V30 1451 H 248.67 -6.42788 2.55485 0
M  V30 1452 H 249.537 -8.12039 0.792769 0
M  V30 1453 P 253.498 -8.91 -7.1169e-13 0
M  V30 1454 O 253.718 -10.1736 -0.733766 0
M  V30 1455 O 254.288 -8.73247 1.2395 0
M  V30 1456 O 253.748 -7.66872 -0.971405 0
M  V30 1457 C 252.808 -7.42309 -2.04641 0
M  V30 1458 C 253.538 -6.86059 -3.24661 0
M  V30 1459 O 253.748 -5.42847 -3.03646 0
M  V30 1460 C 254.938 -7.41196 -3.50753 0
M  V30 1461 O 255.328 -7.27073 -4.86816 0
M  V30 1462 C 255.818 -6.5273 -2.63741 0
M  V30 1463 C 255.108 -5.1842 -2.73198 0
M  V30 1464 N 255.158 -4.38668 -1.47808 0
M  V30 1465 C 255.308 -3.00789 -1.58511 0
M  V30 1466 O 255.398 -2.50116 -2.71298 0
M  V30 1467 N 255.358 -2.29703 -0.253698 0
M  V30 1468 C 255.258 -2.84269 0.750133 0
M  V30 1469 N 255.308 -2.06951 1.82612 0
M  V30 1470 C 255.108 -4.25803 0.889776 0
M  V30 1471 C 255.058 -4.98326 -0.259363 0
M  V30 1472 H 252.318 -8.36707 -2.32466 0
M  V30 1473 H 252.049 -6.701 -1.71105 0
M  V30 1474 H 252.916 -7.03638 -4.13219 0
M  V30 1475 H 255.571 -4.59852 -3.53955 0
M  V30 1476 H 255.85 -6.88995 -1.59871 0
M  V30 1477 H 256.842 -6.46749 -3.03687 0
M  V30 1478 H 255.008 -8.46908 -3.20714 0
M  V30 1479 H 254.936 -6.06349 -0.206238 0
M  V30 1480 H 255.038 -4.73163 1.86796 0
M  V30 1481 H 255.426 -1.05099 1.72271 0
M  V30 1482 H 255.229 -2.48716 2.76361 0
M  V30 1483 P 256.878 -7.20834 -5.23717 0
M  V30 1484 O 257.098 -7.79853 -6.57286 0
M  V30 1485 O 257.668 -7.79239 -4.12957 0
M  V30 1486 O 257.128 -5.63315 -5.29344 0
M  V30 1487 C 256.188 -4.80255 -6.01876 0
M  V30 1488 C 256.918 -3.64202 -6.65911 0
M  V30 1489 O 257.128 -2.60694 -5.64732 0
M  V30 1490 C 258.318 -3.93473 -7.1943 0
M  V30 1491 O 258.708 -3.02071 -8.21205 0
M  V30 1492 C 259.198 -3.73047 -5.97036 0
M  V30 1493 C 258.488 -2.58828 -5.25741 0
M  V30 1494 N 258.538 -2.68068 -3.77503 0
M  V30 1495 C 258.458 -3.79715 -2.96723 0
M  V30 1496 N 258.538 -3.5377 -1.68852 0
M  V30 1497 C 258.678 -2.15054 -1.63254 0
M  V30 1498 C 258.808 -1.28964 -0.518571 0
M  V30 1499 N 258.928 0.0538097 -0.918425 0
M  V30 1500 C 258.928 0.494275 -2.22578 0
M  V30 1501 N 259.058 1.81086 -2.40434 0
M  V30 1502 N 258.798 -0.313645 -3.27502 0
M  V30 1503 C 258.678 -1.61829 -2.91033 0
M  V30 1504 H 255.699 -5.40332 -6.79951 0
M  V30 1505 H 255.429 -4.41613 -5.32378 0
M  V30 1506 H 256.296 -3.26331 -7.47797 0
M  V30 1507 P 260.258 -2.75334 -8.47391 0
M  V30 1508 O 260.478 -2.44571 -9.90142 0
M  V30 1509 O 261.048 -3.87688 -7.92115 0
M  V30 1510 O 260.508 -1.4459 -7.59357 0
M  V30 1511 C 259.568 -0.347608 -7.69215 0
M  V30 1512 C 260.298 0.96767 -7.52806 0
M  V30 1513 O 260.508 1.21036 -6.1011 0
M  V30 1514 C 261.698 1.04544 -8.13308 0
M  V30 1515 O 262.088 2.38311 -8.41922 0
M  V30 1516 C 262.578 0.491279 -7.02284 0
M  V30 1517 C 261.868 0.996264 -5.77469 0
M  V30 1518 N 261.918 0.0501916 -4.62973 0
M  V30 1519 H 259.079 -0.374722 -8.67691 0
M  V30 1520 H 258.809 -0.443485 -6.90277 0
M  V30 1521 H 259.676 1.75537 -7.96793 0
M  V30 1522 P 263.638 2.75334 -8.47391 0
M  V30 1523 O 263.858 3.84128 -9.44797 0
M  V30 1524 O 264.428 1.51947 -8.68712 0
M  V30 1525 O 263.888 3.29363 -6.99321 0
M  V30 1526 C 262.948 4.24011 -6.4274 0
M  V30 1527 C 263.678 5.20775 -5.52155 0
M  V30 1528 O 263.888 4.56534 -4.22446 0
M  V30 1529 C 265.078 5.62629 -5.96531 0
M  V30 1530 O 265.468 6.87667 -5.41053 0
M  V30 1531 C 265.958 4.52537 -5.39283 0
M  V30 1532 C 265.248 4.20027 -4.08623 0
M  V30 1533 N 265.298 2.76189 -3.71603 0
M  V30 1534 H 262.459 4.797 -7.24003 0
M  V30 1535 H 262.189 3.69856 -5.84513 0
M  V30 1536 H 263.056 6.10356 -5.41441 0
M  V30 1537 P 267.018 7.20834 -5.23717 0
M  V30 1538 O 267.238 8.66189 -5.38625 0
M  V30 1539 O 267.808 6.33615 -6.1356 0
M  V30 1540 O 267.268 6.7751 -3.72168 0
M  V30 1541 C 266.328 7.20825 -2.7076 0
M  V30 1542 C 267.058 7.45864 -1.40599 0
M  V30 1543 O 267.268 6.17651 -0.734225 0
M  V30 1544 C 268.458 8.05808 -1.51899 0
M  V30 1545 O 268.848 8.74358 -0.335205 0
M  V30 1546 C 269.338 6.83093 -1.70294 0
M  V30 1547 C 268.628 5.79992 -0.836974 0
M  V30 1548 N 268.678 4.41769 -1.38263 0
M  V30 1549 C 268.828 3.36514 -0.485617 0
M  V30 1550 O 268.918 3.61814 0.724703 0
M  V30 1551 N 268.878 2.00746 -1.14492 0
M  V30 1552 C 268.778 1.85887 -2.27776 0
M  V30 1553 N 268.828 0.600907 -2.69379 0
M  V30 1554 C 268.628 2.92182 -3.22265 0
M  V30 1555 C 268.578 4.18399 -2.71925 0
M  V30 1556 H 265.838 8.1355 -3.03735 0
M  V30 1557 H 265.569 6.42695 -2.55448 0
M  V30 1558 H 266.436 8.12139 -0.792866 0
M  V30 1559 H 269.091 5.80078 0.160615 0
M  V30 1560 H 269.37 6.51379 -2.75643 0
M  V30 1561 H 270.362 7.01734 -1.34462 0
M  V30 1562 H 268.528 8.73674 -2.38337 0
M  V30 1563 H 268.456 5.02669 -3.39718 0
M  V30 1564 H 268.558 2.73001 -4.29239 0
M  V30 1565 H 268.946 -0.162318 -2.01146 0
M  V30 1566 H 268.749 0.387742 -3.69773 0
M  V30 1567 P 270.398 8.91 8.68872e-13 0
M  V30 1568 O 270.618 10.1726 0.733694 0
M  V30 1569 O 271.188 8.73148 -1.23936 0
M  V30 1570 O 270.648 7.66872 0.971405 0
M  V30 1571 C 269.708 7.42309 2.04641 0
M  V30 1572 C 270.438 6.86059 3.24661 0
M  V30 1573 O 270.648 5.42847 3.03646 0
M  V30 1574 C 271.838 7.41196 3.50753 0
M  V30 1575 O 272.228 7.27073 4.86816 0
M  V30 1576 C 272.718 6.5273 2.63741 0
M  V30 1577 C 272.008 5.1842 2.73198 0
M  V30 1578 N 272.058 4.38762 1.4784 0
M  V30 1579 H 269.219 8.36803 2.32493 0
M  V30 1580 H 268.949 6.70197 1.71129 0
M  V30 1581 H 269.816 7.03551 4.13168 0
M  V30 1582 P 273.778 7.20834 5.23717 0
M  V30 1583 O 273.998 7.79853 6.57286 0
M  V30 1584 O 274.568 7.79239 4.12957 0
M  V30 1585 O 274.028 5.63315 5.29344 0
M  V30 1586 C 273.088 4.80255 6.01876 0
M  V30 1587 C 273.818 3.64202 6.65911 0
M  V30 1588 O 274.028 2.60694 5.64732 0
M  V30 1589 C 275.218 3.93473 7.1943 0
M  V30 1590 O 275.608 3.02071 8.21205 0
M  V30 1591 C 276.098 3.73047 5.97036 0
M  V30 1592 C 275.388 2.58828 5.25741 0
M  V30 1593 N 275.438 2.68068 3.77503 0
M  V30 1594 H 272.599 5.40332 6.79951 0
M  V30 1595 H 272.329 4.41613 5.32378 0
M  V30 1596 H 273.196 3.26331 7.47797 0
M  V30 1597 P 277.158 2.75334 8.47391 0
M  V30 1598 O 277.378 2.44571 9.90142 0
M  V30 1599 O 277.948 3.87688 7.92115 0
M  V30 1600 O 277.408 1.4459 7.59357 0
M  V30 1601 C 276.468 0.347608 7.69215 0
M  V30 1602 C 277.198 -0.96767 7.52806 0
M  V30 1603 O 277.408 -1.21036 6.1011 0
M  V30 1604 C 278.598 -1.04544 8.13308 0
M  V30 1605 O 278.988 -2.38311 8.41922 0
M  V30 1606 C 279.478 -0.491279 7.02284 0
M  V30 1607 C 278.768 -0.996264 5.77469 0
M  V30 1608 N 278.818 -0.0501916 4.62973 0
M  V30 1609 C 278.738 1.32786 4.63244 0
M  V30 1610 N 278.818 1.86957 3.44545 0
M  V30 1611 C 278.958 0.780241 2.58481 0
M  V30 1612 C 279.088 0.738536 1.17757 0
M  V30 1613 O 279.108 1.66794 0.372349 0
M  V30 1614 N 279.208 -0.58337 0.711393 0
M  V30 1615 C 279.208 -1.70816 1.51017 0
M  V30 1616 N 279.338 -2.87826 0.880757 0
M  V30 1617 N 279.078 -1.67126 2.8339 0
M  V30 1618 C 278.958 -0.401421 3.30572 0
M  V30 1619 H 275.979 0.374722 8.67691 0
M  V30 1620 H 275.709 0.443485 6.90277 0
M  V30 1621 H 276.576 -1.75537 7.96793 0
M  V30 1622 H 279.231 -1.95076 5.46529 0
M  V30 1623 H 279.51 0.608565 7.04577 0
M  V30 1624 H 280.502 -0.889672 7.08939 0
M  V30 1625 H 278.668 -0.43308 9.04564 0
M  V30 1626 H 278.619 1.91249 5.54442 0
M  V30 1627 H 279.301 -0.718054 -0.275244 0
M  V30 1628 H 279.338 -3.75721 1.41832 0
M  V30 1629 H 279.439 -2.90436 -0.145468 0
M  V30 1630 P 280.538 -2.75334 8.47391 0
M  V30 1631 O 280.758 -3.84166 9.4489 0
M  V30 1632 O 281.328 -1.51964 8.6881 0
M  V30 1633 O 280.788 -3.29363 6.99321 0
M  V30 1634 C 279.848 -4.24011 6.4274 0
M  V30 1635 C 280.578 -5.20775 5.52155 0
M  V30 1636 O 280.788 -4.56534 4.22446 0
M  V30 1637 C 281.978 -5.62629 5.96531 0
M  V30 1638 O 282.368 -6.87667 5.41053 0
M  V30 1639 C 282.858 -4.52537 5.39283 0
M  V30 1640 C 282.148 -4.20027 4.08623 0
M  V30 1641 N 282.198 -2.7613 3.71522 0
M  V30 1642 C 282.348 -2.43702 2.37085 0
M  V30 1643 O 282.438 -3.3531 1.54039 0
M  V30 1644 N 282.398 -0.951103 2.10621 0
M  V30 1645 C 282.298 -0.165021 2.93537 0
M  V30 1646 N 282.348 1.09723 2.53253 0
M  V30 1647 C 282.148 -0.469576 4.32458 0
M  V30 1648 C 282.098 -1.78658 4.65921 0
M  V30 1649 H 279.358 -4.79645 7.23919 0
M  V30 1650 H 279.089 -3.69802 5.84429 0
M  V30 1651 H 279.956 -6.10431 5.41508 0
M  V30 1652 H 282.611 -4.78733 3.27967 0
M  V30 1653 H 282.89 -3.64957 6.05871 0
M  V30 1654 H 283.882 -4.8868 5.2125 0
M  V30 1655 H 282.048 -5.66726 7.06352 0
M  V30 1656 H 281.976 -2.06987 5.70299 0
M  V30 1657 H 282.078 0.314383 5.07728 0
M  V30 1658 H 282.466 1.31363 1.5319 0
M  V30 1659 H 282.269 1.85978 3.21943 0
M  V30 1660 P 283.918 -7.20834 5.23717 0
M  V30 1661 O 284.138 -8.66104 5.38572 0
M  V30 1662 O 284.708 -6.33544 6.1349 0
M  V30 1663 O 284.168 -6.7751 3.72168 0
M  V30 1664 C 283.228 -7.20825 2.7076 0
M  V30 1665 C 283.958 -7.45864 1.40599 0
M  V30 1666 O 284.168 -6.17651 0.734225 0
M  V30 1667 C 285.358 -8.05808 1.51899 0
M  V30 1668 O 285.748 -8.74358 0.335205 0
M  V30 1669 C 286.238 -6.83093 1.70294 0
M  V30 1670 C 285.528 -5.79992 0.836974 0
M  V30 1671 N 285.578 -4.41864 1.38293 0
M  V30 1672 H 282.739 -8.13644 3.0377 0
M  V30 1673 H 282.469 -6.42788 2.55485 0
M  V30 1674 H 283.336 -8.12039 0.792769 0
M  V30 1675 P 287.298 -8.91 -1.02605e-12 0
M  V30 1676 O 287.518 -10.1726 -0.733694 0
M  V30 1677 O 288.088 -8.73148 1.23936 0
M  V30 1678 O 287.548 -7.66872 -0.971405 0
M  V30 1679 C 286.608 -7.42309 -2.04641 0
M  V30 1680 C 287.338 -6.86059 -3.24661 0
M  V30 1681 O 287.548 -5.42847 -3.03646 0
M  V30 1682 C 288.738 -7.41196 -3.50753 0
M  V30 1683 O 289.128 -7.27073 -4.86816 0
M  V30 1684 C 289.618 -6.5273 -2.63741 0
M  V30 1685 C 288.908 -5.1842 -2.73198 0
M  V30 1686 N 288.958 -4.38762 -1.4784 0
M  V30 1687 H 286.119 -8.36803 -2.32493 0
M  V30 1688 H 285.849 -6.70197 -1.71129 0
M  V30 1689 H 286.716 -7.03551 -4.13168 0
M  V30 1690 P 290.678 -7.20834 -5.23717 0
M  V30 1691 O 290.898 -7.80006 -6.57415 0
M  V30 1692 O 291.468 -7.79416 -4.13051 0
M  V30 1693 O 290.928 -5.63315 -5.29344 0
M  V30 1694 C 289.988 -4.80318 -6.01954 0
M  V30 1695 C 290.718 -3.64202 -6.65911 0
M  V30 1696 O 290.928 -2.60736 -5.64823 0
M  V30 1697 C 292.118 -3.93521 -7.19518 0
M  V30 1698 O 292.508 -3.02071 -8.21205 0
M  V30 1699 C 292.998 -3.73047 -5.97036 0
M  V30 1700 C 292.288 -2.58828 -5.25741 0
M  V30 1701 N 292.338 -2.68068 -3.77503 0
M  V30 1702 C 292.258 -3.80474 -2.99159 0
M  V30 1703 N 292.328 -3.55622 -1.71925 0
M  V30 1704 C 292.478 -2.1832 -1.65733 0
M  V30 1705 C 292.608 -1.28842 -0.572777 0
M  V30 1706 N 292.618 -1.66875 0.70098 0
M  V30 1707 N 292.728 0.016788 -0.859836 0
M  V30 1708 C 292.718 0.398145 -2.13316 0
M  V30 1709 N 292.598 -0.328224 -3.22333 0
M  V30 1710 C 292.478 -1.62992 -2.90383 0
M  V30 1711 H 289.5 -5.40394 -6.8003 0
M  V30 1712 H 289.228 -4.41741 -5.32532 0
M  V30 1713 H 290.096 -3.26371 -7.47889 0
M  V30 1714 H 292.751 -1.64007 -5.56746 0
M  V30 1715 H 293.031 -4.63439 -5.3432 0
M  V30 1716 H 294.022 -3.44776 -6.25925 0
M  V30 1717 H 292.188 -4.96707 -7.57347 0
M  V30 1718 H 292.147 -4.8089 -3.39924 0
M  V30 1719 H 292.528 -2.66547 0.941919 0
M  V30 1720 H 292.717 -0.965341 1.44766 0
M  V30 1721 H 292.825 1.46427 -2.29697 0
M  V30 1722 P 294.058 -2.75334 -8.47391 0
M  V30 1723 O 294.278 -2.44571 -9.90142 0
M  V30 1724 O 294.848 -3.87688 -7.92115 0
M  V30 1725 O 294.308 -1.4459 -7.59357 0
M  V30 1726 C 293.368 -0.347608 -7.69215 0
M  V30 1727 C 294.098 0.96767 -7.52806 0
M  V30 1728 O 294.308 1.21036 -6.1011 0
M  V30 1729 C 295.498 1.04544 -8.13308 0
M  V30 1730 O 295.888 2.38311 -8.41922 0
M  V30 1731 C 296.378 0.491279 -7.02284 0
M  V30 1732 C 295.668 0.996264 -5.77469 0
M  V30 1733 N 295.718 0.0501916 -4.62973 0
M  V30 1734 H 292.879 -0.374722 -8.67691 0
M  V30 1735 H 292.609 -0.443485 -6.90277 0
M  V30 1736 H 293.476 1.75537 -7.96793 0
M  V30 1737 P 297.438 2.75334 -8.47391 0
M  V30 1738 O 297.658 3.84128 -9.44797 0
M  V30 1739 O 298.228 1.51947 -8.68712 0
M  V30 1740 O 297.688 3.29363 -6.99321 0
M  V30 1741 C 296.748 4.24011 -6.4274 0
M  V30 1742 C 297.478 5.20775 -5.52155 0
M  V30 1743 O 297.688 4.56534 -4.22446 0
M  V30 1744 C 298.878 5.62629 -5.96531 0
M  V30 1745 O 299.268 6.87667 -5.41053 0
M  V30 1746 C 299.758 4.52537 -5.39283 0
M  V30 1747 C 299.048 4.20027 -4.08623 0
M  V30 1748 N 299.098 2.76189 -3.71603 0
M  V30 1749 C 299.018 1.64862 -4.52822 0
M  V30 1750 N 299.098 0.512671 -3.88633 0
M  V30 1751 C 299.238 0.888083 -2.54977 0
M  V30 1752 C 299.368 0.094668 -1.38677 0
M  V30 1753 O 299.388 -1.13053 -1.28163 0
M  V30 1754 N 299.488 0.890102 -0.232633 0
M  V30 1755 C 299.488 2.26958 -0.21772 0
M  V30 1756 N 299.618 2.84626 0.97925 0
M  V30 1757 N 299.358 3.0178 -1.31033 0
M  V30 1758 C 299.238 2.26781 -2.43843 0
M  V30 1759 H 296.259 4.797 -7.24003 0
M  V30 1760 H 295.989 3.69856 -5.84513 0
M  V30 1761 H 296.856 6.10356 -5.41441 0
M  V30 1762 H 299.511 4.79061 -3.27488 0
M  V30 1763 H 299.79 3.64906 -6.05785 0
M  V30 1764 H 300.782 4.8868 -5.2125 0
M  V30 1765 H 298.948 5.66726 -7.06352 0
M  V30 1766 H 298.899 1.71169 -5.60966 0
M  V30 1767 H 299.581 0.419134 0.644739 0
M  V30 1768 H 299.618 3.87332 1.06098 0
M  V30 1769 H 299.719 2.26417 1.82483 0
M  V30 1770 P 300.818 7.20834 -5.23717 0
M  V30 1771 O 301.038 8.66274 -5.38678 0
M  V30 1772 O 301.608 6.33687 -6.13629 0
M  V30 1773 O 301.068 6.7751 -3.72168 0
M  V30 1774 C 300.128 7.20919 -2.70795 0
M  V30 1775 C 300.858 7.45864 -1.40599 0
M  V30 1776 O 301.068 6.17751 -0.734343 0
M  V30 1777 C 302.258 8.05906 -1.51917 0
M  V30 1778 O 302.648 8.74358 -0.335205 0
M  V30 1779 C 303.138 6.83093 -1.70294 0
M  V30 1780 C 302.428 5.79992 -0.836974 0
M  V30 1781 N 302.478 4.41864 -1.38293 0
M  V30 1782 C 302.398 4.02089 -2.69407 0
M  V30 1783 N 302.468 2.73403 -2.85089 0
M  V30 1784 C 302.618 2.25086 -1.5642 0
M  V30 1785 C 302.748 0.942887 -1.04836 0
M  V30 1786 N 302.758 -0.150999 -1.80369 0
M  V30 1787 N 302.868 0.812565 0.28167 0
M  V30 1788 C 302.858 1.90572 1.03784 0
M  V30 1789 N 302.738 3.167 0.683905 0
M  V30 1790 C 302.618 3.26538 -0.652815 0
M  V30 1791 H 299.64 8.13738 -3.03804 0
M  V30 1792 H 299.368 6.42974 -2.55559 0
M  V30 1793 H 300.236 8.12139 -0.792866 0
M  V30 1794 H 302.891 5.80178 0.160643 0
M  V30 1795 H 303.171 6.51379 -2.75643 0
M  V30 1796 H 304.162 7.01832 -1.3448 0
M  V30 1797 H 302.328 8.73771 -2.38364 0
M  V30 1798 H 302.287 4.7189 -3.52311 0
M  V30 1799 H 302.668 -0.0721434 -2.82608 0
M  V30 1800 H 302.857 -1.0785 -1.36544 0
M  V30 1801 H 302.965 1.73207 2.10241 0
M  V30 1802 P 304.198 8.91 1.18324e-12 0
M  V30 1803 O 304.418 10.1736 0.733766 0
M  V30 1804 O 304.988 8.73247 -1.2395 0
M  V30 1805 O 304.448 7.66872 0.971405 0
M  V30 1806 C 303.508 7.42212 2.04614 0
M  V30 1807 C 304.238 6.86059 3.24661 0
M  V30 1808 O 304.448 5.42847 3.03646 0
M  V30 1809 C 305.638 7.41196 3.50753 0
M  V30 1810 O 306.028 7.27073 4.86816 0
M  V30 1811 C 306.518 6.5273 2.63741 0
M  V30 1812 C 305.808 5.1842 2.73198 0
M  V30 1813 N 305.858 4.38668 1.47808 0
M  V30 1814 C 306.008 3.02239 1.60048 0
M  V30 1815 O 306.098 2.46459 2.67869 0
M  V30 1816 N 306.048 2.32436 0.408571 0
M  V30 1817 C 305.958 2.85471 -0.854993 0
M  V30 1818 C 305.808 4.28918 -0.887335 0
M  V30 1819 C 305.758 5.00349 0.255399 0
M  V30 1820 H 303.018 8.36803 2.32493 0
M  V30 1821 H 302.749 6.701 1.71105 0
M  V30 1822 H 303.616 7.03551 4.13168 0
M  V30 1823 H 306.271 4.59773 3.53894 0
M  V30 1824 H 306.55 6.88995 1.59871 0
M  V30 1825 H 307.542 6.46749 3.03687 0
M  V30 1826 H 305.708 8.46908 3.20714 0
M  V30 1827 H 305.637 6.08548 0.206986 0
M  V30 1828 P 307.578 7.20834 5.23717 0
M  V30 1829 O 307.798 7.79853 6.57286 0
M  V30 1830 O 308.368 7.79239 4.12957 0
M  V30 1831 O 307.828 5.63315 5.29344 0
M  V30 1832 C 306.888 4.80255 6.01876 0
M  V30 1833 C 307.618 3.64202 6.65911 0
M  V30 1834 O 307.828 2.60694 5.64732 0
M  V30 1835 C 309.018 3.93473 7.1943 0
M  V30 1836 O 309.408 3.02071 8.21205 0
M  V30 1837 C 309.898 3.73047 5.97036 0
M  V30 1838 C 309.188 2.58828 5.25741 0
M  V30 1839 N 309.238 2.68068 3.77503 0
M  V30 1840 H 306.399 5.40332 6.79951 0
M  V30 1841 H 306.129 4.41613 5.32378 0
M  V30 1842 H 306.996 3.26331 7.47797 0
M  V30 1843 P 310.958 2.75334 8.47391 0
M  V30 1844 O 311.178 2.44571 9.90142 0
M  V30 1845 O 311.748 3.87688 7.92115 0
M  V30 1846 O 311.208 1.4459 7.59357 0
M  V30 1847 C 310.268 0.347608 7.69215 0
M  V30 1848 C 310.998 -0.96767 7.52806 0
M  V30 1849 O 311.208 -1.21036 6.1011 0
M  V30 1850 C 312.398 -1.04544 8.13308 0
M  V30 1851 O 312.788 -2.38311 8.41922 0
M  V30 1852 C 313.278 -0.491279 7.02284 0
M  V30 1853 C 312.568 -0.996264 5.77469 0
M  V30 1854 N 312.618 -0.0501916 4.62973 0
M  V30 1855 H 309.779 0.374722 8.67691 0
M  V30 1856 H 309.509 0.443485 6.90277 0
M  V30 1857 H 310.376 -1.75537 7.96793 0
M  V30 1858 P 314.338 -2.75334 8.47391 0
M  V30 1859 O 314.558 -3.84128 9.44797 0
M  V30 1860 O 315.128 -1.51947 8.68712 0
M  V30 1861 O 314.588 -3.29363 6.99321 0
M  V30 1862 C 313.648 -4.24011 6.4274 0
M  V30 1863 C 314.378 -5.20775 5.52155 0
M  V30 1864 O 314.588 -4.56534 4.22446 0
M  V30 1865 C 315.778 -5.62629 5.96531 0
M  V30 1866 O 316.168 -6.87667 5.41053 0
M  V30 1867 C 316.658 -4.52537 5.39283 0
M  V30 1868 C 315.948 -4.20027 4.08623 0
M  V30 1869 N 315.998 -2.76189 3.71603 0
M  V30 1870 H 313.159 -4.797 7.24003 0
M  V30 1871 H 312.889 -3.69856 5.84513 0
M  V30 1872 H 313.756 -6.10356 5.41441 0
M  V30 1873 P 317.718 -7.20834 5.23717 0
M  V30 1874 O 317.938 -8.66104 5.38572 0
M  V30 1875 O 318.508 -6.33544 6.1349 0
M  V30 1876 O 317.968 -6.7751 3.72168 0
M  V30 1877 C 317.028 -7.20825 2.7076 0
M  V30 1878 C 317.758 -7.45864 1.40599 0
M  V30 1879 O 317.968 -6.17651 0.734225 0
M  V30 1880 C 319.158 -8.05808 1.51899 0
M  V30 1881 O 319.548 -8.74358 0.335205 0
M  V30 1882 C 320.038 -6.83093 1.70294 0
M  V30 1883 C 319.328 -5.79992 0.836974 0
M  V30 1884 N 319.378 -4.41864 1.38293 0
M  V30 1885 H 316.539 -8.13644 3.0377 0
M  V30 1886 H 316.269 -6.42788 2.55485 0
M  V30 1887 H 317.136 -8.12039 0.792769 0
M  V30 1888 P 321.098 -8.91 -1.34042e-12 0
M  V30 1889 O 321.318 -10.1726 -0.733694 0
M  V30 1890 O 321.888 -8.73148 1.23936 0
M  V30 1891 O 321.348 -7.66872 -0.971405 0
M  V30 1892 C 320.408 -7.42309 -2.04641 0
M  V30 1893 C 321.138 -6.86059 -3.24661 0
M  V30 1894 O 321.348 -5.42847 -3.03646 0
M  V30 1895 C 322.538 -7.41196 -3.50753 0
M  V30 1896 O 322.928 -7.27073 -4.86816 0
M  V30 1897 C 323.418 -6.5273 -2.63741 0
M  V30 1898 C 322.708 -5.1842 -2.73198 0
M  V30 1899 N 322.758 -4.38762 -1.4784 0
M  V30 1900 H 319.919 -8.36803 -2.32493 0
M  V30 1901 H 319.649 -6.70197 -1.71129 0
M  V30 1902 H 320.516 -7.03551 -4.13168 0
M  V30 1903 P 324.478 -7.20834 -5.23717 0
M  V30 1904 O 324.698 -7.79853 -6.57286 0
M  V30 1905 O 325.268 -7.79239 -4.12957 0
M  V30 1906 O 324.728 -5.63315 -5.29344 0
M  V30 1907 C 323.788 -4.80255 -6.01876 0
M  V30 1908 C 324.518 -3.64202 -6.65911 0
M  V30 1909 O 324.728 -2.60694 -5.64732 0
M  V30 1910 C 325.918 -3.93473 -7.1943 0
M  V30 1911 O 326.308 -3.02071 -8.21205 0
M  V30 1912 C 326.798 -3.73047 -5.97036 0
M  V30 1913 C 326.088 -2.58828 -5.25741 0
M  V30 1914 N 326.138 -2.68068 -3.77503 0
M  V30 1915 H 323.299 -5.40332 -6.79951 0
M  V30 1916 H 323.029 -4.41613 -5.32378 0
M  V30 1917 H 323.896 -3.26331 -7.47797 0
M  V30 1918 P 327.858 -2.75334 -8.47391 0
M  V30 1919 O 328.078 -2.44571 -9.90142 0
M  V30 1920 O 328.648 -3.87688 -7.92115 0
M  V30 1921 O 328.108 -1.4459 -7.59357 0
M  V30 1922 C 327.168 -0.347608 -7.69215 0
M  V30 1923 C 327.898 0.96767 -7.52806 0
M  V30 1924 O 328.108 1.21036 -6.1011 0
M  V30 1925 C 329.298 1.04544 -8.13308 0
M  V30 1926 O 329.688 2.38311 -8.41922 0
M  V30 1927 C 330.178 0.491279 -7.02284 0
M  V30 1928 C 329.468 0.996264 -5.77469 0
M  V30 1929 N 329.518 0.0501916 -4.62973 0
M  V30 1930 H 326.679 -0.374722 -8.67691 0
M  V30 1931 H 326.409 -0.443485 -6.90277 0
M  V30 1932 H 327.276 1.75537 -7.96793 0
M  V30 1933 P 331.238 2.75334 -8.47391 0
M  V30 1934 O 331.458 3.84204 -9.44982 0
M  V30 1935 O 332.028 1.51982 -8.68909 0
M  V30 1936 O 331.488 3.29363 -6.99321 0
M  V30 1937 C 330.548 4.24066 -6.42823 0
M  V30 1938 C 331.278 5.20775 -5.52155 0
M  V30 1939 O 331.488 4.56607 -4.22514 0
M  V30 1940 C 332.678 5.62697 -5.96604 0
M  V30 1941 O 333.068 6.87667 -5.41053 0
M  V30 1942 C 333.558 4.52537 -5.39283 0
M  V30 1943 C 332.848 4.20027 -4.08623 0
M  V30 1944 N 332.898 2.76189 -3.71603 0
M  V30 1945 C 332.818 1.66944 -4.54297 0
M  V30 1946 N 332.888 0.536169 -3.91344 0
M  V30 1947 C 333.038 0.901569 -2.58849 0
M  V30 1948 C 333.168 0.146599 -1.40236 0
M  V30 1949 N 333.178 -1.18234 -1.37046 0
M  V30 1950 N 333.288 0.822941 -0.249738 0
M  V30 1951 C 333.278 2.15179 -0.280525 0
M  V30 1952 N 333.158 2.96414 -1.30822 0
M  V30 1953 C 333.038 2.25804 -2.44748 0
M  V30 1954 H 330.06 4.79756 -7.24086 0
M  V30 1955 H 329.788 3.69963 -5.84682 0
M  V30 1956 H 330.656 6.10431 -5.41508 0
M  V30 1957 H 333.311 4.78816 -3.28024 0
M  V30 1958 H 333.591 3.64957 -6.05871 0
M  V30 1959 H 334.582 4.88748 -5.21323 0
M  V30 1960 H 332.748 5.66789 -7.0643 0
M  V30 1961 H 332.707 1.74684 -5.62396 0
M  V30 1962 H 333.088 -1.71949 -2.24394 0
M  V30 1963 H 333.277 -1.67511 -0.470742 0
M  V30 1964 H 333.385 2.63704 0.6828 0
M  V30 1965 P 334.618 7.20834 -5.23717 0
M  V30 1966 O 334.838 8.66104 -5.38572 0
M  V30 1967 O 335.408 6.33544 -6.1349 0
M  V30 1968 O 334.868 6.7751 -3.72168 0
M  V30 1969 C 333.928 7.20825 -2.7076 0
M  V30 1970 C 334.658 7.45864 -1.40599 0
M  V30 1971 O 334.868 6.17651 -0.734225 0
M  V30 1972 C 336.058 8.05808 -1.51899 0
M  V30 1973 O 336.448 8.74358 -0.335205 0
M  V30 1974 C 336.938 6.83093 -1.70294 0
M  V30 1975 C 336.228 5.79992 -0.836974 0
M  V30 1976 N 336.278 4.41864 -1.38293 0
M  V30 1977 H 333.439 8.13644 -3.0377 0
M  V30 1978 H 333.169 6.42788 -2.55485 0
M  V30 1979 H 334.036 8.12039 -0.792769 0
M  V30 1980 P 337.998 8.91 1.4976e-12 0
M  V30 1981 O 338.218 10.1726 0.733694 0
M  V30 1982 O 338.788 8.73148 -1.23936 0
M  V30 1983 O 338.248 7.66872 0.971405 0
M  V30 1984 C 337.308 7.42309 2.04641 0
M  V30 1985 C 338.038 6.86059 3.24661 0
M  V30 1986 O 338.248 5.42847 3.03646 0
M  V30 1987 C 339.438 7.41196 3.50753 0
M  V30 1988 O 339.828 7.27073 4.86816 0
M  V30 1989 C 340.318 6.5273 2.63741 0
M  V30 1990 C 339.608 5.1842 2.73198 0
M  V30 1991 N 339.658 4.38762 1.4784 0
M  V30 1992 H 336.819 8.36803 2.32493 0
M  V30 1993 H 336.549 6.70197 1.71129 0
M  V30 1994 H 337.416 7.03551 4.13168 0
M  V30 1995 P 341.378 7.20834 5.23717 0
M  V30 1996 O 341.598 7.79853 6.57286 0
M  V30 1997 O 342.168 7.79239 4.12957 0
M  V30 1998 O 341.628 5.63315 5.29344 0
M  V30 1999 C 340.688 4.80255 6.01876 0
M  V30 2000 C 341.418 3.64202 6.65911 0
M  V30 2001 O 341.628 2.60694 5.64732 0
M  V30 2002 C 342.818 3.93473 7.1943 0
M  V30 2003 O 343.208 3.02071 8.21205 0
M  V30 2004 C 343.698 3.73047 5.97036 0
M  V30 2005 C 342.988 2.58828 5.25741 0
M  V30 2006 N 343.038 2.68068 3.77503 0
M  V30 2007 H 340.199 5.40332 6.79951 0
M  V30 2008 H 339.929 4.41613 5.32378 0
M  V30 2009 H 340.796 3.26331 7.47797 0
M  V30 2010 P 344.758 2.75334 8.47391 0
M  V30 2011 O 344.978 2.44595 9.90239 0
M  V30 2012 O 345.548 3.87732 7.92204 0
M  V30 2013 O 345.008 1.4459 7.59357 0
M  V30 2014 C 344.068 0.347563 7.69115 0
M  V30 2015 C 344.798 -0.96767 7.52806 0
M  V30 2016 O 345.008 -1.21036 6.1011 0
M  V30 2017 C 346.198 -1.04544 8.13308 0
M  V30 2018 O 346.588 -2.38311 8.41922 0
M  V30 2019 C 347.078 -0.491279 7.02284 0
M  V30 2020 C 346.368 -0.996264 5.77469 0
M  V30 2021 N 346.418 -0.0501808 4.62873 0
M  V30 2022 C 346.568 -0.588177 3.36904 0
M  V30 2023 O 346.658 -1.78598 3.17173 0
M  V30 2024 N 346.608 0.329694 2.33686 0
M  V30 2025 C 346.518 1.6953 2.45079 0
M  V30 2026 O 346.568 2.41926 1.44899 0
M  V30 2027 C 346.368 2.16933 3.80505 0
M  V30 2028 C 346.258 3.65373 3.97621 0
M  V30 2029 C 346.318 1.30326 4.83752 0
M  V30 2030 H 343.578 0.374722 8.67691 0
M  V30 2031 H 343.309 0.443421 6.90177 0
M  V30 2032 H 344.176 -1.75537 7.96793 0
M  V30 2033 H 346.831 -1.94496 5.46629 0
M  V30 2034 H 347.11 0.608651 7.04676 0
M  V30 2035 H 348.102 -0.889672 7.08939 0
M  V30 2036 H 346.268 -0.43308 9.04564 0
M  V30 2037 H 346.197 1.68366 5.8516 0
M  V30 2038 H 347.227 4.05985 4.30448 0
M  V30 2039 H 345.49 3.88028 4.72875 0
M  V30 2040 H 345.978 4.11381 3.01609 0
M  V30 2041 H 346.714 -0.0393617 1.41345 0
M  V30 2042 P 348.138 -2.75334 8.47391 0
M  V30 2043 O 348.358 -3.84204 9.44982 0
M  V30 2044 O 348.928 -1.51982 8.68909 0
M  V30 2045 O 348.388 -3.29363 6.99321 0
M  V30 2046 C 347.448 -4.24066 6.42823 0
M  V30 2047 C 348.178 -5.20775 5.52155 0
M  V30 2048 O 348.388 -4.56607 4.22514 0
M  V30 2049 C 349.578 -5.62697 5.96604 0
M  V30 2050 O 349.968 -6.87667 5.41053 0
M  V30 2051 C 350.458 -4.52537 5.39283 0
M  V30 2052 C 349.748 -4.20027 4.08623 0
M  V30 2053 N 349.798 -2.76189 3.71603 0
M  V30 2054 C 349.718 -1.66944 4.54297 0
M  V30 2055 N 349.788 -0.536169 3.91344 0
M  V30 2056 C 349.938 -0.901569 2.58849 0
M  V30 2057 C 350.068 -0.146599 1.40236 0
M  V30 2058 N 350.078 1.18234 1.37046 0
M  V30 2059 N 350.188 -0.822941 0.249738 0
M  V30 2060 C 350.178 -2.15179 0.280525 0
M  V30 2061 N 350.058 -2.96414 1.30822 0
M  V30 2062 C 349.938 -2.25804 2.44748 0
M  V30 2063 H 346.96 -4.79756 7.24086 0
M  V30 2064 H 346.688 -3.69963 5.84682 0
M  V30 2065 H 347.556 -6.10431 5.41508 0
M  V30 2066 H 350.211 -4.78816 3.28024 0
M  V30 2067 H 350.491 -3.64957 6.05871 0
M  V30 2068 H 351.482 -4.88748 5.21323 0
M  V30 2069 H 349.648 -5.66789 7.0643 0
M  V30 2070 H 349.607 -1.74684 5.62396 0
M  V30 2071 H 349.988 1.71949 2.24394 0
M  V30 2072 H 350.177 1.67511 0.470742 0
M  V30 2073 H 350.285 -2.63704 -0.6828 0
M  V30 2074 P 351.518 -7.20834 5.23717 0
M  V30 2075 O 351.738 -8.66104 5.38572 0
M  V30 2076 O 352.308 -6.33544 6.1349 0
M  V30 2077 O 351.768 -6.7751 3.72168 0
M  V30 2078 C 350.828 -7.20825 2.7076 0
M  V30 2079 C 351.558 -7.45864 1.40599 0
M  V30 2080 O 351.768 -6.17651 0.734225 0
M  V30 2081 C 352.958 -8.05808 1.51899 0
M  V30 2082 O 353.348 -8.74358 0.335205 0
M  V30 2083 C 353.838 -6.83093 1.70294 0
M  V30 2084 C 353.128 -5.79992 0.836974 0
M  V30 2085 N 353.178 -4.41864 1.38293 0
M  V30 2086 H 350.339 -8.13644 3.0377 0
M  V30 2087 H 350.069 -6.42788 2.55485 0
M  V30 2088 H 350.936 -8.12039 0.792769 0
M  V30 2089 P 354.898 -8.91 -1.65478e-12 0
M  V30 2090 O 355.118 -10.1726 -0.733694 0
M  V30 2091 O 355.688 -8.73148 1.23936 0
M  V30 2092 O 355.148 -7.66872 -0.971405 0
M  V30 2093 C 354.208 -7.42309 -2.04641 0
M  V30 2094 C 354.938 -6.86059 -3.24661 0
M  V30 2095 O 355.148 -5.42847 -3.03646 0
M  V30 2096 C 356.338 -7.41196 -3.50753 0
M  V30 2097 O 356.728 -7.27073 -4.86816 0
M  V30 2098 C 357.218 -6.5273 -2.63741 0
M  V30 2099 C 356.508 -5.1842 -2.73198 0
M  V30 2100 N 356.558 -4.38762 -1.4784 0
M  V30 2101 H 353.719 -8.36803 -2.32493 0
M  V30 2102 H 353.449 -6.70197 -1.71129 0
M  V30 2103 H 354.316 -7.03551 -4.13168 0
M  V30 2104 P 358.278 -7.20834 -5.23717 0
M  V30 2105 O 358.498 -7.80006 -6.57415 0
M  V30 2106 O 359.068 -7.79416 -4.13051 0
M  V30 2107 O 358.528 -5.63315 -5.29344 0
M  V30 2108 C 357.588 -4.80318 -6.01954 0
M  V30 2109 C 358.318 -3.64202 -6.65911 0
M  V30 2110 O 358.528 -2.60736 -5.64823 0
M  V30 2111 C 359.718 -3.93521 -7.19518 0
M  V30 2112 O 360.108 -3.02071 -8.21205 0
M  V30 2113 C 360.598 -3.73047 -5.97036 0
M  V30 2114 C 359.888 -2.58828 -5.25741 0
M  V30 2115 N 359.938 -2.68068 -3.77503 0
M  V30 2116 C 359.858 -3.80474 -2.99159 0
M  V30 2117 N 359.928 -3.55622 -1.71925 0
M  V30 2118 C 360.078 -2.1832 -1.65733 0
M  V30 2119 C 360.208 -1.28842 -0.572777 0
M  V30 2120 N 360.218 -1.66875 0.70098 0
M  V30 2121 N 360.328 0.016788 -0.859836 0
M  V30 2122 C 360.318 0.398145 -2.13316 0
M  V30 2123 N 360.198 -0.328224 -3.22333 0
M  V30 2124 C 360.078 -1.62992 -2.90383 0
M  V30 2125 H 357.1 -5.40394 -6.8003 0
M  V30 2126 H 356.828 -4.41741 -5.32532 0
M  V30 2127 H 357.696 -3.26371 -7.47889 0
M  V30 2128 H 360.351 -1.64007 -5.56746 0
M  V30 2129 H 360.631 -4.63439 -5.3432 0
M  V30 2130 H 361.622 -3.44776 -6.25925 0
M  V30 2131 H 359.788 -4.96707 -7.57347 0
M  V30 2132 H 359.747 -4.8089 -3.39924 0
M  V30 2133 H 360.128 -2.66547 0.941919 0
M  V30 2134 H 360.317 -0.965341 1.44766 0
M  V30 2135 H 360.425 1.46427 -2.29697 0
M  V30 2136 P 361.658 -2.75334 -8.47391 0
M  V30 2137 O 361.878 -2.44571 -9.90142 0
M  V30 2138 O 362.448 -3.87688 -7.92115 0
M  V30 2139 O 361.908 -1.4459 -7.59357 0
M  V30 2140 C 360.968 -0.347608 -7.69215 0
M  V30 2141 C 361.698 0.96767 -7.52806 0
M  V30 2142 O 361.908 1.21036 -6.1011 0
M  V30 2143 C 363.098 1.04544 -8.13308 0
M  V30 2144 O 363.488 2.38311 -8.41922 0
M  V30 2145 C 363.978 0.491279 -7.02284 0
M  V30 2146 C 363.268 0.996264 -5.77469 0
M  V30 2147 N 363.318 0.0501916 -4.62973 0
M  V30 2148 H 360.479 -0.374722 -8.67691 0
M  V30 2149 H 360.209 -0.443485 -6.90277 0
M  V30 2150 H 361.076 1.75537 -7.96793 0
M  V30 2151 P 365.038 2.75334 -8.47391 0
M  V30 2152 O 365.258 3.84128 -9.44797 0
M  V30 2153 O 365.828 1.51947 -8.68712 0
M  V30 2154 O 365.288 3.29363 -6.99321 0
M  V30 2155 C 364.348 4.24011 -6.4274 0
M  V30 2156 C 365.078 5.20775 -5.52155 0
M  V30 2157 O 365.288 4.56534 -4.22446 0
M  V30 2158 C 366.478 5.62629 -5.96531 0
M  V30 2159 O 366.868 6.87667 -5.41053 0
M  V30 2160 C 367.358 4.52537 -5.39283 0
M  V30 2161 C 366.648 4.20027 -4.08623 0
M  V30 2162 N 366.698 2.76189 -3.71603 0
M  V30 2163 H 363.859 4.797 -7.24003 0
M  V30 2164 H 363.589 3.69856 -5.84513 0
M  V30 2165 H 364.456 6.10356 -5.41441 0
M  V30 2166 P 368.418 7.20834 -5.23717 0
M  V30 2167 O 368.638 8.66104 -5.38572 0
M  V30 2168 O 369.208 6.33544 -6.1349 0
M  V30 2169 O 368.668 6.7751 -3.72168 0
M  V30 2170 C 367.728 7.20825 -2.7076 0
M  V30 2171 C 368.458 7.45864 -1.40599 0
M  V30 2172 O 368.668 6.17651 -0.734225 0
M  V30 2173 C 369.858 8.05808 -1.51899 0
M  V30 2174 O 370.248 8.74358 -0.335205 0
M  V30 2175 C 370.738 6.83093 -1.70294 0
M  V30 2176 C 370.028 5.79992 -0.836974 0
M  V30 2177 N 370.078 4.41864 -1.38293 0
M  V30 2178 H 367.239 8.13644 -3.0377 0
M  V30 2179 H 366.969 6.42788 -2.55485 0
M  V30 2180 H 367.836 8.12039 -0.792769 0
M  V30 2181 P 371.798 8.91 1.81197e-12 0
M  V30 2182 O 372.018 10.1726 0.733694 0
M  V30 2183 O 372.588 8.73148 -1.23936 0
M  V30 2184 O 372.048 7.66872 0.971405 0
M  V30 2185 C 371.108 7.42309 2.04641 0
M  V30 2186 C 371.838 6.86059 3.24661 0
M  V30 2187 O 372.048 5.42847 3.03646 0
M  V30 2188 C 373.238 7.41196 3.50753 0
M  V30 2189 O 373.628 7.27073 4.86816 0
M  V30 2190 C 374.118 6.5273 2.63741 0
M  V30 2191 C 373.408 5.1842 2.73198 0
M  V30 2192 N 373.458 4.38762 1.4784 0
M  V30 2193 C 373.378 4.81605 0.168631 0
M  V30 2194 N 373.458 3.85454 -0.713363 0
M  V30 2195 C 373.598 2.6994 0.0566958 0
M  V30 2196 C 373.728 1.34815 -0.338502 0
M  V30 2197 O 373.748 0.869548 -1.47125 0
M  V30 2198 N 373.848 0.496304 0.77465 0
M  V30 2199 C 373.848 0.908403 2.09122 0
M  V30 2200 N 373.978 -0.0517805 3.00955 0
M  V30 2201 N 373.718 2.17875 2.46519 0
M  V30 2202 C 373.598 3.01988 1.4033 0
M  V30 2203 H 370.619 8.36803 2.32493 0
M  V30 2204 H 370.349 6.70197 1.71129 0
M  V30 2205 H 371.216 7.03551 4.13168 0
M  V30 2206 H 373.871 4.59498 3.54415 0
M  V30 2207 H 374.15 6.88898 1.59848 0
M  V30 2208 H 375.142 6.46749 3.03687 0
M  V30 2209 H 373.308 8.46908 3.20714 0
M  V30 2210 H 373.259 5.86405 -0.105564 0
M  V30 2211 H 373.941 -0.483664 0.597855 0
M  V30 2212 H 373.978 0.187865 4.0116 0
M  V30 2213 H 374.079 -1.03585 2.71726 0
M  V30 2214 P 375.178 7.20834 5.23717 0
M  V30 2215 O 375.398 7.79853 6.57286 0
M  V30 2216 O 375.968 7.79239 4.12957 0
M  V30 2217 O 375.428 5.63315 5.29344 0
M  V30 2218 C 374.488 4.80255 6.01876 0
M  V30 2219 C 375.218 3.64202 6.65911 0
M  V30 2220 O 375.428 2.60694 5.64732 0
M  V30 2221 C 376.618 3.93473 7.1943 0
M  V30 2222 O 377.008 3.02071 8.21205 0
M  V30 2223 C 377.498 3.73047 5.97036 0
M  V30 2224 C 376.788 2.58828 5.25741 0
M  V30 2225 N 376.838 2.68068 3.77503 0
M  V30 2226 H 373.999 5.40332 6.79951 0
M  V30 2227 H 373.729 4.41613 5.32378 0
M  V30 2228 H 374.596 3.26331 7.47797 0
M  V30 2229 P 378.558 2.75334 8.47391 0
M  V30 2230 O 378.778 2.44619 9.90336 0
M  V30 2231 O 379.348 3.87776 7.92294 0
M  V30 2232 O 378.808 1.4459 7.59357 0
M  V30 2233 C 377.868 0.347653 7.69315 0
M  V30 2234 C 378.598 -0.96767 7.52806 0
M  V30 2235 O 378.808 -1.21055 6.10208 0
M  V30 2236 C 379.998 -1.04557 8.13408 0
M  V30 2237 O 380.388 -2.38311 8.41922 0
M  V30 2238 C 380.878 -0.491279 7.02284 0
M  V30 2239 C 380.168 -0.996264 5.77469 0
M  V30 2240 N 380.218 -0.0501916 4.62973 0
M  V30 2241 H 377.38 0.374765 8.67791 0
M  V30 2242 H 377.108 0.443613 6.90476 0
M  V30 2243 H 377.976 -1.75559 7.96891 0
M  V30 2244 H 380.631 -1.94563 5.46818 0
M  V30 2245 H 380.911 0.608651 7.04676 0
M  V30 2246 H 381.902 -0.889796 7.09039 0
M  V30 2247 H 380.068 -0.433128 9.04664 0
M  V30 2248 P 381.938 -2.75334 8.47391 0
M  V30 2249 O 382.158 -3.84128 9.44797 0
M  V30 2250 O 382.728 -1.51947 8.68712 0
M  V30 2251 O 382.188 -3.29363 6.99321 0
M  V30 2252 C 381.248 -4.24011 6.4274 0
M  V30 2253 C 381.978 -5.20775 5.52155 0
M  V30 2254 O 382.188 -4.56534 4.22446 0
M  V30 2255 C 383.378 -5.62629 5.96531 0
M  V30 2256 O 383.768 -6.87667 5.41053 0
M  V30 2257 C 384.258 -4.52537 5.39283 0
M  V30 2258 C 383.548 -4.20027 4.08623 0
M  V30 2259 N 383.598 -2.76189 3.71603 0
M  V30 2260 H 380.759 -4.797 7.24003 0
M  V30 2261 H 380.489 -3.69856 5.84513 0
M  V30 2262 H 381.356 -6.10356 5.41441 0
M  V30 2263 P 385.318 -7.20834 5.23717 0
M  V30 2264 O 385.538 -8.66274 5.38678 0
M  V30 2265 O 386.108 -6.33687 6.13629 0
M  V30 2266 O 385.568 -6.7751 3.72168 0
M  V30 2267 C 384.628 -7.20919 2.70795 0
M  V30 2268 C 385.358 -7.45864 1.40599 0
M  V30 2269 O 385.568 -6.17751 0.734343 0
M  V30 2270 C 386.758 -8.05906 1.51917 0
M  V30 2271 O 387.148 -8.74358 0.335205 0
M  V30 2272 C 387.638 -6.83093 1.70294 0
M  V30 2273 C 386.928 -5.79992 0.836974 0
M  V30 2274 N 386.978 -4.41864 1.38293 0
M  V30 2275 H 384.14 -8.13738 3.03804 0
M  V30 2276 H 383.868 -6.42974 2.55559 0
M  V30 2277 H 384.736 -8.12139 0.792866 0
M  V30 2278 H 387.391 -5.80178 -0.160643 0
M  V30 2279 H 387.671 -6.51379 2.75643 0
M  V30 2280 H 388.662 -7.01832 1.3448 0
M  V30 2281 H 386.828 -8.73771 2.38364 0
M  V30 2282 P 388.698 -8.91 -1.96915e-12 0
M  V30 2283 O 388.918 -10.1736 -0.733766 0
M  V30 2284 O 389.488 -8.73247 1.2395 0
M  V30 2285 O 388.948 -7.66872 -0.971405 0
M  V30 2286 C 388.008 -7.42212 -2.04614 0
M  V30 2287 C 388.738 -6.86059 -3.24661 0
M  V30 2288 O 388.948 -5.42847 -3.03646 0
M  V30 2289 C 390.138 -7.41196 -3.50753 0
M  V30 2290 O 390.528 -7.27073 -4.86816 0
M  V30 2291 C 391.018 -6.5273 -2.63741 0
M  V30 2292 C 390.308 -5.1842 -2.73198 0
M  V30 2293 N 390.358 -4.38668 -1.47808 0
M  V30 2294 C 390.508 -3.02239 -1.60048 0
M  V30 2295 O 390.598 -2.46459 -2.67869 0
M  V30 2296 N 390.548 -2.32436 -0.408571 0
M  V30 2297 C 390.458 -2.85471 0.854993 0
M  V30 2298 O 390.508 -2.12566 1.8531 0
M  V30 2299 C 390.308 -4.28918 0.887335 0
M  V30 2300 C 390.198 -4.91066 2.24619 0
M  V30 2301 C 390.258 -5.00349 -0.255399 0
M  V30 2302 H 387.518 -8.36803 -2.32493 0
M  V30 2303 H 387.249 -6.701 -1.71105 0
M  V30 2304 H 388.116 -7.03551 -4.13168 0
M  V30 2305 H 390.771 -4.59773 -3.53894 0
M  V30 2306 H 391.05 -6.88995 -1.59871 0
M  V30 2307 H 392.042 -6.46749 -3.03687 0
M  V30 2308 H 390.208 -8.46908 -3.20714 0
M  V30 2309 H 390.137 -6.08548 -0.206986 0
M  V30 2310 H 391.167 -5.34836 2.53099 0
M  V30 2311 H 389.43 -5.69638 2.2291 0
M  V30 2312 H 389.918 -4.13971 2.98044 0
M  V30 2313 H 390.654 -1.33211 -0.474216 0
M  V30 2314 P 392.078 -7.20834 -5.23717 0
M  V30 2315 O 392.298 -7.79853 -6.57286 0
M  V30 2316 O 392.868 -7.79239 -4.12957 0
M  V30 2317 O 392.328 -5.63315 -5.29344 0
M  V30 2318 C 391.388 -4.80255 -6.01876 0
M  V30 2319 C 392.118 -3.64202 -6.65911 0
M  V30 2320 O 392.328 -2.60694 -5.64732 0
M  V30 2321 C 393.518 -3.93473 -7.1943 0
M  V30 2322 O 393.908 -3.02071 -8.21205 0
M  V30 2323 C 394.398 -3.73047 -5.97036 0
M  V30 2324 C 393.688 -2.58828 -5.25741 0
M  V30 2325 N 393.738 -2.68068 -3.77503 0
M  V30 2326 H 390.899 -5.40332 -6.79951 0
M  V30 2327 H 390.629 -4.41613 -5.32378 0
M  V30 2328 H 391.496 -3.26331 -7.47797 0
M  V30 2329 P 395.458 -2.75334 -8.47391 0
M  V30 2330 O 395.678 -2.44571 -9.90142 0
M  V30 2331 O 396.248 -3.87688 -7.92115 0
M  V30 2332 O 395.708 -1.4459 -7.59357 0
M  V30 2333 C 394.768 -0.347608 -7.69215 0
M  V30 2334 C 395.498 0.96767 -7.52806 0
M  V30 2335 O 395.708 1.21036 -6.1011 0
M  V30 2336 C 396.898 1.04544 -8.13308 0
M  V30 2337 O 397.288 2.38311 -8.41922 0
M  V30 2338 C 397.778 0.491279 -7.02284 0
M  V30 2339 C 397.068 0.996264 -5.77469 0
M  V30 2340 N 397.118 0.0501916 -4.62973 0
M  V30 2341 C 397.038 -1.32786 -4.63244 0
M  V30 2342 N 397.118 -1.86957 -3.44545 0
M  V30 2343 C 397.258 -0.780241 -2.58481 0
M  V30 2344 C 397.388 -0.738536 -1.17757 0
M  V30 2345 N 397.508 0.58337 -0.711393 0
M  V30 2346 C 397.508 1.70816 -1.51017 0
M  V30 2347 N 397.638 2.87826 -0.880757 0
M  V30 2348 N 397.378 1.67126 -2.8339 0
M  V30 2349 C 397.258 0.401421 -3.30572 0
M  V30 2350 H 394.279 -0.374722 -8.67691 0
M  V30 2351 H 394.009 -0.443485 -6.90277 0
M  V30 2352 H 394.876 1.75537 -7.96793 0
M  V30 2353 P 398.838 2.75334 -8.47391 0
M  V30 2354 O 399.058 3.84204 -9.44982 0
M  V30 2355 O 399.628 1.51982 -8.68909 0
M  V30 2356 O 399.088 3.29363 -6.99321 0
M  V30 2357 C 398.148 4.24066 -6.42823 0
M  V30 2358 C 398.878 5.20775 -5.52155 0
M  V30 2359 O 399.088 4.56607 -4.22514 0
M  V30 2360 C 400.278 5.62697 -5.96604 0
M  V30 2361 O 400.668 6.87667 -5.41053 0
M  V30 2362 C 401.158 4.52537 -5.39283 0
M  V30 2363 C 400.448 4.20027 -4.08623 0
M  V30 2364 N 400.498 2.76189 -3.71603 0
M  V30 2365 H 397.66 4.79756 -7.24086 0
M  V30 2366 H 397.388 3.69963 -5.84682 0
M  V30 2367 H 398.256 6.10431 -5.41508 0
M  V30 2368 H 400.911 4.78816 -3.28024 0
M  V30 2369 H 401.191 3.64957 -6.05871 0
M  V30 2370 H 402.182 4.88748 -5.21323 0
M  V30 2371 H 400.348 5.66789 -7.0643 0
M  V30 2372 P 402.218 7.20834 -5.23717 0
M  V30 2373 O 402.438 8.66104 -5.38572 0
M  V30 2374 O 403.008 6.33544 -6.1349 0
M  V30 2375 O 402.468 6.7751 -3.72168 0
M  V30 2376 C 401.528 7.20825 -2.7076 0
M  V30 2377 C 402.258 7.45864 -1.40599 0
M  V30 2378 O 402.468 6.17651 -0.734225 0
M  V30 2379 C 403.658 8.05808 -1.51899 0
M  V30 2380 O 404.048 8.74358 -0.335205 0
M  V30 2381 C 404.538 6.83093 -1.70294 0
M  V30 2382 C 403.828 5.79992 -0.836974 0
M  V30 2383 N 403.878 4.41864 -1.38293 0
M  V30 2384 H 401.039 8.13644 -3.0377 0
M  V30 2385 H 400.769 6.42788 -2.55485 0
M  V30 2386 H 401.636 8.12039 -0.792769 0
M  V30 2387 P 405.598 8.91 2.12633e-12 0
M  V30 2388 O 405.818 10.1726 0.733694 0
M  V30 2389 O 406.388 8.73148 -1.23936 0
M  V30 2390 O 405.848 7.66872 0.971405 0
M  V30 2391 C 404.908 7.42309 2.04641 0
M  V30 2392 C 405.638 6.86059 3.24661 0
M  V30 2393 O 405.848 5.42847 3.03646 0
M  V30 2394 C 407.038 7.41196 3.50753 0
M  V30 2395 O 407.428 7.27073 4.86816 0
M  V30 2396 C 407.918 6.5273 2.63741 0
M  V30 2397 C 407.208 5.1842 2.73198 0
M  V30 2398 N 407.258 4.38762 1.4784 0
M  V30 2399 H 404.419 8.36803 2.32493 0
M  V30 2400 H 404.149 6.70197 1.71129 0
M  V30 2401 H 405.016 7.03551 4.13168 0
M  V30 2402 P 408.978 7.20834 5.23717 0
M  V30 2403 O 409.198 7.80006 6.57415 0
M  V30 2404 O 409.768 7.79416 4.13051 0
M  V30 2405 O 409.228 5.63315 5.29344 0
M  V30 2406 C 408.288 4.80318 6.01954 0
M  V30 2407 C 409.018 3.64202 6.65911 0
M  V30 2408 O 409.228 2.60736 5.64823 0
M  V30 2409 C 410.418 3.93521 7.19518 0
M  V30 2410 O 410.808 3.02071 8.21205 0
M  V30 2411 C 411.298 3.73047 5.97036 0
M  V30 2412 C 410.588 2.58828 5.25741 0
M  V30 2413 N 410.638 2.68068 3.77503 0
M  V30 2414 C 410.558 3.80474 2.99159 0
M  V30 2415 N 410.628 3.55622 1.71925 0
M  V30 2416 C 410.778 2.1832 1.65733 0
M  V30 2417 C 410.908 1.28842 0.572777 0
M  V30 2418 N 410.918 1.66875 -0.70098 0
M  V30 2419 N 411.028 -0.016788 0.859836 0
M  V30 2420 C 411.018 -0.398145 2.13316 0
M  V30 2421 N 410.898 0.328224 3.22333 0
M  V30 2422 C 410.778 1.62992 2.90383 0
M  V30 2423 H 407.8 5.40394 6.8003 0
M  V30 2424 H 407.528 4.41741 5.32532 0
M  V30 2425 H 408.396 3.26371 7.47889 0
M  V30 2426 H 411.051 1.64007 5.56746 0
M  V30 2427 H 411.331 4.63439 5.3432 0
M  V30 2428 H 412.322 3.44776 6.25925 0
M  V30 2429 H 410.488 4.96707 7.57347 0
M  V30 2430 H 410.447 4.8089 3.39924 0
M  V30 2431 H 410.828 2.66547 -0.941919 0
M  V30 2432 H 411.017 0.965341 -1.44766 0
M  V30 2433 H 411.125 -1.46427 2.29697 0
M  V30 2434 P 412.358 2.75334 8.47391 0
M  V30 2435 O 412.578 2.44571 9.90142 0
M  V30 2436 O 413.148 3.87688 7.92115 0
M  V30 2437 O 412.608 1.4459 7.59357 0
M  V30 2438 C 411.668 0.347608 7.69215 0
M  V30 2439 C 412.398 -0.96767 7.52806 0
M  V30 2440 O 412.608 -1.21036 6.1011 0
M  V30 2441 C 413.798 -1.04544 8.13308 0
M  V30 2442 O 414.188 -2.38311 8.41922 0
M  V30 2443 C 414.678 -0.491279 7.02284 0
M  V30 2444 C 413.968 -0.996264 5.77469 0
M  V30 2445 N 414.018 -0.0501916 4.62973 0
M  V30 2446 H 411.179 0.374722 8.67691 0
M  V30 2447 H 410.909 0.443485 6.90277 0
M  V30 2448 H 411.776 -1.75537 7.96793 0
M  V30 2449 P 415.738 -2.75334 8.47391 0
M  V30 2450 O 415.958 -3.84128 9.44797 0
M  V30 2451 O 416.528 -1.51947 8.68712 0
M  V30 2452 O 415.988 -3.29363 6.99321 0
M  V30 2453 C 415.048 -4.24011 6.4274 0
M  V30 2454 C 415.778 -5.20775 5.52155 0
M  V30 2455 O 415.988 -4.56534 4.22446 0
M  V30 2456 C 417.178 -5.62629 5.96531 0
M  V30 2457 O 417.568 -6.87667 5.41053 0
M  V30 2458 C 418.058 -4.52537 5.39283 0
M  V30 2459 C 417.348 -4.20027 4.08623 0
M  V30 2460 N 417.398 -2.76189 3.71603 0
M  V30 2461 H 414.559 -4.797 7.24003 0
M  V30 2462 H 414.289 -3.69856 5.84513 0
M  V30 2463 H 415.156 -6.10356 5.41441 0
M  V30 2464 P 419.118 -7.20834 5.23717 0
M  V30 2465 O 419.338 -8.66104 5.38572 0
M  V30 2466 O 419.908 -6.33544 6.1349 0
M  V30 2467 O 419.368 -6.7751 3.72168 0
M  V30 2468 C 418.428 -7.20825 2.7076 0
M  V30 2469 C 419.158 -7.45864 1.40599 0
M  V30 2470 O 419.368 -6.17651 0.734225 0
M  V30 2471 C 420.558 -8.05808 1.51899 0
M  V30 2472 O 420.948 -8.74358 0.335205 0
M  V30 2473 C 421.438 -6.83093 1.70294 0
M  V30 2474 C 420.728 -5.79992 0.836974 0
M  V30 2475 N 420.778 -4.41864 1.38293 0
M  V30 2476 H 417.939 -8.13644 3.0377 0
M  V30 2477 H 417.669 -6.42788 2.55485 0
M  V30 2478 H 418.536 -8.12039 0.792769 0
M  V30 2479 P 422.497 -8.91 -2.28351e-12 0
M  V30 2480 O 422.717 -10.1726 -0.733694 0
M  V30 2481 O 423.287 -8.73148 1.23936 0
M  V30 2482 O 422.747 -7.66872 -0.971405 0
M  V30 2483 C 421.807 -7.42309 -2.04641 0
M  V30 2484 C 422.537 -6.86059 -3.24661 0
M  V30 2485 O 422.747 -5.42847 -3.03646 0
M  V30 2486 C 423.937 -7.41196 -3.50753 0
M  V30 2487 O 424.327 -7.27073 -4.86816 0
M  V30 2488 C 424.817 -6.5273 -2.63741 0
M  V30 2489 C 424.107 -5.1842 -2.73198 0
M  V30 2490 N 424.157 -4.38762 -1.4784 0
M  V30 2491 C 424.077 -4.81605 -0.168631 0
M  V30 2492 N 424.157 -3.85454 0.713363 0
M  V30 2493 C 424.297 -2.6994 -0.0566958 0
M  V30 2494 C 424.427 -1.34815 0.338502 0
M  V30 2495 O 424.447 -0.869548 1.47125 0
M  V30 2496 N 424.547 -0.496304 -0.77465 0
M  V30 2497 C 424.547 -0.908403 -2.09122 0
M  V30 2498 N 424.677 0.0517805 -3.00955 0
M  V30 2499 N 424.417 -2.17875 -2.46519 0
M  V30 2500 C 424.297 -3.01988 -1.4033 0
M  V30 2501 H 421.318 -8.36803 -2.32493 0
M  V30 2502 H 421.048 -6.70197 -1.71129 0
M  V30 2503 H 421.915 -7.03551 -4.13168 0
M  V30 2504 H 424.57 -4.59498 -3.54415 0
M  V30 2505 H 424.849 -6.88898 -1.59848 0
M  V30 2506 H 425.841 -6.46749 -3.03687 0
M  V30 2507 H 424.007 -8.46908 -3.20714 0
M  V30 2508 H 423.958 -5.86405 0.105564 0
M  V30 2509 H 424.64 0.483664 -0.597855 0
M  V30 2510 H 424.677 -0.187865 -4.0116 0
M  V30 2511 H 424.778 1.03585 -2.71726 0
M  V30 2512 P 425.877 -7.20834 -5.23717 0
M  V30 2513 O 426.097 -7.79853 -6.57286 0
M  V30 2514 O 426.667 -7.79239 -4.12957 0
M  V30 2515 O 426.127 -5.63315 -5.29344 0
M  V30 2516 C 425.187 -4.80255 -6.01876 0
M  V30 2517 C 425.917 -3.64202 -6.65911 0
M  V30 2518 O 426.127 -2.60694 -5.64732 0
M  V30 2519 C 427.317 -3.93473 -7.1943 0
M  V30 2520 O 427.707 -3.02071 -8.21205 0
M  V30 2521 C 428.197 -3.73047 -5.97036 0
M  V30 2522 C 427.487 -2.58828 -5.25741 0
M  V30 2523 N 427.537 -2.68068 -3.77503 0
M  V30 2524 H 424.698 -5.40332 -6.79951 0
M  V30 2525 H 424.428 -4.41613 -5.32378 0
M  V30 2526 H 425.295 -3.26331 -7.47797 0
M  V30 2527 P 429.257 -2.75334 -8.47391 0
M  V30 2528 O 429.477 -2.44571 -9.90142 0
M  V30 2529 O 430.047 -3.87688 -7.92115 0
M  V30 2530 O 429.507 -1.4459 -7.59357 0
M  V30 2531 C 428.567 -0.347608 -7.69215 0
M  V30 2532 C 429.297 0.96767 -7.52806 0
M  V30 2533 O 429.507 1.21036 -6.1011 0
M  V30 2534 C 430.697 1.04544 -8.13308 0
M  V30 2535 O 431.087 2.38311 -8.41922 0
M  V30 2536 C 431.577 0.491279 -7.02284 0
M  V30 2537 C 430.867 0.996264 -5.77469 0
M  V30 2538 N 430.917 0.0501916 -4.62973 0
M  V30 2539 H 428.078 -0.374722 -8.67691 0
M  V30 2540 H 427.808 -0.443485 -6.90277 0
M  V30 2541 H 428.675 1.75537 -7.96793 0
M  V30 2542 P 432.637 2.75334 -8.47391 0
M  V30 2543 O 432.857 3.84166 -9.4489 0
M  V30 2544 O 433.427 1.51964 -8.6881 0
M  V30 2545 O 432.887 3.29363 -6.99321 0
M  V30 2546 C 431.947 4.23956 -6.42656 0
M  V30 2547 C 432.677 5.20775 -5.52155 0
M  V30 2548 O 432.887 4.56534 -4.22446 0
M  V30 2549 C 434.077 5.62629 -5.96531 0
M  V30 2550 O 434.467 6.87667 -5.41053 0
M  V30 2551 C 434.957 4.52537 -5.39283 0
M  V30 2552 C 434.247 4.20027 -4.08623 0
M  V30 2553 N 434.297 2.7613 -3.71522 0
M  V30 2554 C 434.447 2.45612 -2.37989 0
M  V30 2555 O 434.537 3.30919 -1.51621 0
M  V30 2556 N 434.487 1.10684 -2.08435 0
M  V30 2557 C 434.397 0.0690084 -2.9792 0
M  V30 2558 C 434.247 0.481522 -4.35345 0
M  V30 2559 C 434.197 1.78906 -4.67968 0
M  V30 2560 H 431.457 4.797 -7.24003 0
M  V30 2561 H 431.188 3.69802 -5.84429 0
M  V30 2562 H 432.055 6.10356 -5.41441 0
M  V30 2563 H 434.71 4.78651 -3.27911 0
M  V30 2564 H 434.989 3.64957 -6.05871 0
M  V30 2565 H 435.981 4.8868 -5.2125 0
M  V30 2566 H 434.147 5.66726 -7.06352 0
M  V30 2567 H 434.076 2.07737 -5.72367 0
M  V30 2568 P 436.017 7.20834 -5.23717 0
M  V30 2569 O 436.237 8.66104 -5.38572 0
M  V30 2570 O 436.807 6.33544 -6.1349 0
M  V30 2571 O 436.267 6.7751 -3.72168 0
M  V30 2572 C 435.327 7.20825 -2.7076 0
M  V30 2573 C 436.057 7.45864 -1.40599 0
M  V30 2574 O 436.267 6.17651 -0.734225 0
M  V30 2575 C 437.457 8.05808 -1.51899 0
M  V30 2576 O 437.847 8.74358 -0.335205 0
M  V30 2577 C 438.337 6.83093 -1.70294 0
M  V30 2578 C 437.627 5.79992 -0.836974 0
M  V30 2579 N 437.677 4.41864 -1.38293 0
M  V30 2580 H 434.838 8.13644 -3.0377 0
M  V30 2581 H 434.568 6.42788 -2.55485 0
M  V30 2582 H 435.435 8.12039 -0.792769 0
M  V30 2583 P 439.397 8.91 2.44069e-12 0
M  V30 2584 O 439.617 10.1726 0.733694 0
M  V30 2585 O 440.187 8.73148 -1.23936 0
M  V30 2586 O 439.647 7.66872 0.971405 0
M  V30 2587 C 438.707 7.42309 2.04641 0
M  V30 2588 C 439.437 6.86059 3.24661 0
M  V30 2589 O 439.647 5.42847 3.03646 0
M  V30 2590 C 440.837 7.41196 3.50753 0
M  V30 2591 O 441.227 7.27073 4.86816 0
M  V30 2592 C 441.717 6.5273 2.63741 0
M  V30 2593 C 441.007 5.1842 2.73198 0
M  V30 2594 N 441.057 4.38762 1.4784 0
M  V30 2595 H 438.218 8.36803 2.32493 0
M  V30 2596 H 437.948 6.70197 1.71129 0
M  V30 2597 H 438.815 7.03551 4.13168 0
M  V30 2598 P 442.777 7.20834 5.23717 0
M  V30 2599 O 442.997 7.79853 6.57286 0
M  V30 2600 O 443.567 7.79239 4.12957 0
M  V30 2601 O 443.027 5.63315 5.29344 0
M  V30 2602 C 442.087 4.80255 6.01876 0
M  V30 2603 C 442.817 3.64202 6.65911 0
M  V30 2604 O 443.027 2.60694 5.64732 0
M  V30 2605 C 444.217 3.93473 7.1943 0
M  V30 2606 O 444.607 3.02071 8.21205 0
M  V30 2607 C 445.097 3.73047 5.97036 0
M  V30 2608 C 444.387 2.58828 5.25741 0
M  V30 2609 N 444.437 2.68068 3.77503 0
M  V30 2610 H 441.598 5.40332 6.79951 0
M  V30 2611 H 441.328 4.41613 5.32378 0
M  V30 2612 H 442.195 3.26331 7.47797 0
M  V30 2613 P 446.157 2.75334 8.47391 0
M  V30 2614 O 446.377 2.44619 9.90336 0
M  V30 2615 O 446.947 3.87776 7.92294 0
M  V30 2616 O 446.407 1.4459 7.59357 0
M  V30 2617 C 445.467 0.347653 7.69315 0
M  V30 2618 C 446.197 -0.96767 7.52806 0
M  V30 2619 O 446.407 -1.21055 6.10208 0
M  V30 2620 C 447.597 -1.04557 8.13408 0
M  V30 2621 O 447.987 -2.38311 8.41922 0
M  V30 2622 C 448.477 -0.491279 7.02284 0
M  V30 2623 C 447.767 -0.996264 5.77469 0
M  V30 2624 N 447.817 -0.0501916 4.62973 0
M  V30 2625 H 444.979 0.374765 8.67791 0
M  V30 2626 H 444.707 0.443613 6.90476 0
M  V30 2627 H 445.575 -1.75559 7.96891 0
M  V30 2628 H 448.23 -1.94563 5.46818 0
M  V30 2629 H 448.51 0.608651 7.04676 0
M  V30 2630 H 449.501 -0.889796 7.09039 0
M  V30 2631 H 447.667 -0.433128 9.04664 0
M  V30 2632 P 449.537 -2.75334 8.47391 0
M  V30 2633 O 449.757 -3.84128 9.44797 0
M  V30 2634 O 450.327 -1.51947 8.68712 0
M  V30 2635 O 449.787 -3.29363 6.99321 0
M  V30 2636 C 448.847 -4.24011 6.4274 0
M  V30 2637 C 449.577 -5.20775 5.52155 0
M  V30 2638 O 449.787 -4.56534 4.22446 0
M  V30 2639 C 450.977 -5.62629 5.96531 0
M  V30 2640 O 451.367 -6.87667 5.41053 0
M  V30 2641 C 451.857 -4.52537 5.39283 0
M  V30 2642 C 451.147 -4.20027 4.08623 0
M  V30 2643 N 451.197 -2.76189 3.71603 0
M  V30 2644 H 448.358 -4.797 7.24003 0
M  V30 2645 H 448.088 -3.69856 5.84513 0
M  V30 2646 H 448.955 -6.10356 5.41441 0
M  V30 2647 P 452.917 -7.20834 5.23717 0
M  V30 2648 O 453.137 -8.66189 5.38625 0
M  V30 2649 O 453.707 -6.33615 6.1356 0
M  V30 2650 O 453.167 -6.7751 3.72168 0
M  V30 2651 C 452.227 -7.20732 2.70725 0
M  V30 2652 C 452.957 -7.45864 1.40599 0
M  V30 2653 O 453.167 -6.17651 0.734225 0
M  V30 2654 C 454.357 -8.05808 1.51899 0
M  V30 2655 O 454.747 -8.74358 0.335205 0
M  V30 2656 C 455.237 -6.83093 1.70294 0
M  V30 2657 C 454.527 -5.79992 0.836974 0
M  V30 2658 N 454.577 -4.41769 1.38263 0
M  V30 2659 C 454.727 -3.38591 0.481702 0
M  V30 2660 O 454.817 -3.56839 -0.718452 0
M  V30 2661 N 454.767 -2.1206 1.03569 0
M  V30 2662 C 454.677 -1.80696 2.36966 0
M  V30 2663 C 454.527 -2.94845 3.23898 0
M  V30 2664 C 454.477 -4.19803 2.73435 0
M  V30 2665 H 451.737 -8.13644 3.0377 0
M  V30 2666 H 451.468 -6.42695 2.55448 0
M  V30 2667 H 452.335 -8.12039 0.792769 0
M  V30 2668 H 454.99 -5.79978 -0.160587 0
M  V30 2669 H 455.269 -6.51379 2.75643 0
M  V30 2670 H 456.261 -7.01734 1.34462 0
M  V30 2671 H 454.427 -8.73674 2.38337 0
M  V30 2672 H 454.356 -5.04492 3.4095 0
M  V30 2673 P 456.297 -8.91 -2.59788e-12 0
M  V30 2674 O 456.517 -10.1746 -0.733838 0
M  V30 2675 O 457.087 -8.73346 1.23964 0
M  V30 2676 O 456.547 -7.66872 -0.971405 0
M  V30 2677 C 455.607 -7.42405 -2.04668 0
M  V30 2678 C 456.337 -6.86059 -3.24661 0
M  V30 2679 O 456.547 -5.42934 -3.03695 0
M  V30 2680 C 457.737 -7.41287 -3.50796 0
M  V30 2681 O 458.127 -7.27073 -4.86816 0
M  V30 2682 C 458.617 -6.5273 -2.63741 0
M  V30 2683 C 457.907 -5.1842 -2.73198 0
M  V30 2684 N 457.957 -4.38762 -1.4784 0
M  V30 2685 C 457.877 -4.83651 -0.183876 0
M  V30 2686 N 457.947 -3.88759 0.699393 0
M  V30 2687 C 458.097 -2.7404 -0.0575568 0
M  V30 2688 C 458.227 -1.37902 0.293928 0
M  V30 2689 N 458.237 -0.938021 1.54797 0
M  V30 2690 N 458.347 -0.491817 -0.70549 0
M  V30 2691 C 458.337 -0.931735 -1.95979 0
M  V30 2692 N 458.217 -2.16017 -2.41481 0
M  V30 2693 C 458.097 -3.02547 -1.39121 0
M  V30 2694 H 455.119 -8.36899 -2.3252 0
M  V30 2695 H 454.847 -6.70391 -1.71179 0
M  V30 2696 H 455.715 -7.03638 -4.13219 0
M  V30 2697 H 458.37 -4.59931 -3.54016 0
M  V30 2698 H 458.65 -6.88995 -1.59871 0
M  V30 2699 H 459.641 -6.4684 -3.0373 0
M  V30 2700 H 457.807 -8.47002 -3.20749 0
M  V30 2701 H 457.766 -5.8885 0.0765548 0
M  V30 2702 H 458.147 -1.60276 2.32875 0
M  V30 2703 H 458.336 0.0699355 1.73859 0
M  V30 2704 H 458.444 -0.165507 -2.71897 0
M  V30 2705 P 459.677 -7.20834 -5.23717 0
M  V30 2706 O 459.897 -7.79853 -6.57286 0
M  V30 2707 O 460.467 -7.79239 -4.12957 0
M  V30 2708 O 459.927 -5.63315 -5.29344 0
M  V30 2709 C 458.987 -4.80255 -6.01876 0
M  V30 2710 C 459.717 -3.64202 -6.65911 0
M  V30 2711 O 459.927 -2.60694 -5.64732 0
M  V30 2712 C 461.117 -3.93473 -7.1943 0
M  V30 2713 O 461.507 -3.02071 -8.21205 0
M  V30 2714 C 461.997 -3.73047 -5.97036 0
M  V30 2715 C 461.287 -2.58828 -5.25741 0
M  V30 2716 N 461.337 -2.68068 -3.77503 0
M  V30 2717 H 458.498 -5.40332 -6.79951 0
M  V30 2718 H 458.228 -4.41613 -5.32378 0
M  V30 2719 H 459.095 -3.26331 -7.47797 0
M  V30 2720 P 463.057 -2.75334 -8.47391 0
M  V30 2721 O 463.277 -2.44571 -9.90142 0
M  V30 2722 O 463.847 -3.87688 -7.92115 0
M  V30 2723 O 463.307 -1.4459 -7.59357 0
M  V30 2724 C 462.367 -0.347608 -7.69215 0
M  V30 2725 C 463.097 0.96767 -7.52806 0
M  V30 2726 O 463.307 1.21036 -6.1011 0
M  V30 2727 C 464.497 1.04544 -8.13308 0
M  V30 2728 O 464.887 2.38311 -8.41922 0
M  V30 2729 C 465.377 0.491279 -7.02284 0
M  V30 2730 C 464.667 0.996264 -5.77469 0
M  V30 2731 N 464.717 0.0501916 -4.62973 0
M  V30 2732 H 461.878 -0.374722 -8.67691 0
M  V30 2733 H 461.608 -0.443485 -6.90277 0
M  V30 2734 H 462.475 1.75537 -7.96793 0
M  V30 2735 P 466.437 2.75334 -8.47391 0
M  V30 2736 O 466.657 3.84128 -9.44797 0
M  V30 2737 O 467.227 1.51947 -8.68712 0
M  V30 2738 O 466.687 3.29363 -6.99321 0
M  V30 2739 C 465.747 4.24011 -6.4274 0
M  V30 2740 C 466.477 5.20775 -5.52155 0
M  V30 2741 O 466.687 4.56534 -4.22446 0
M  V30 2742 C 467.877 5.62629 -5.96531 0
M  V30 2743 O 468.267 6.87667 -5.41053 0
M  V30 2744 C 468.757 4.52537 -5.39283 0
M  V30 2745 C 468.047 4.20027 -4.08623 0
M  V30 2746 N 468.097 2.76189 -3.71603 0
M  V30 2747 H 465.258 4.797 -7.24003 0
M  V30 2748 H 464.988 3.69856 -5.84513 0
M  V30 2749 H 465.855 6.10356 -5.41441 0
M  V30 2750 P 469.817 7.20834 -5.23717 0
M  V30 2751 O 470.037 8.66104 -5.38572 0
M  V30 2752 O 470.607 6.33544 -6.1349 0
M  V30 2753 O 470.067 6.7751 -3.72168 0
M  V30 2754 C 469.127 7.20825 -2.7076 0
M  V30 2755 C 469.857 7.45864 -1.40599 0
M  V30 2756 O 470.067 6.17651 -0.734225 0
M  V30 2757 C 471.257 8.05808 -1.51899 0
M  V30 2758 O 471.647 8.74358 -0.335205 0
M  V30 2759 C 472.137 6.83093 -1.70294 0
M  V30 2760 C 471.427 5.79992 -0.836974 0
M  V30 2761 N 471.477 4.41864 -1.38293 0
M  V30 2762 C 471.397 3.99538 -2.69438 0
M  V30 2763 N 471.477 2.69909 -2.84277 0
M  V30 2764 C 471.617 2.21719 -1.5408 0
M  V30 2765 C 471.747 0.891712 -1.06628 0
M  V30 2766 O 471.767 -0.161298 -1.70137 0
M  V30 2767 N 471.867 0.856846 0.334985 0
M  V30 2768 C 471.867 1.9641 1.15789 0
M  V30 2769 N 471.997 1.72708 2.46522 0
M  V30 2770 N 471.737 3.21165 0.713741 0
M  V30 2771 C 471.617 3.26797 -0.639748 0
M  V30 2772 H 468.638 8.13644 -3.0377 0
M  V30 2773 H 468.368 6.42788 -2.55485 0
M  V30 2774 H 469.235 8.12039 -0.792769 0
M  V30 2775 H 471.89 5.80061 0.166416 0
M  V30 2776 H 472.169 6.51287 -2.75604 0
M  V30 2777 H 473.161 7.01734 -1.34462 0
M  V30 2778 H 471.327 8.73674 -2.38337 0
M  V30 2779 H 471.278 4.68207 -3.53221 0
M  V30 2780 H 471.96 -0.0398818 0.767965 0
M  V30 2781 H 471.997 2.50995 3.13503 0
M  V30 2782 H 472.098 0.759148 2.80716 0
M  V30 2783 P 473.197 8.91 2.75506e-12 0
M  V30 2784 O 473.417 10.1726 0.733694 0
M  V30 2785 O 473.987 8.73148 -1.23936 0
M  V30 2786 O 473.447 7.66872 0.971405 0
M  V30 2787 C 472.507 7.42309 2.04641 0
M  V30 2788 C 473.237 6.86059 3.24661 0
M  V30 2789 O 473.447 5.42847 3.03646 0
M  V30 2790 C 474.637 7.41196 3.50753 0
M  V30 2791 O 475.027 7.27073 4.86816 0
M  V30 2792 C 475.517 6.5273 2.63741 0
M  V30 2793 C 474.807 5.1842 2.73198 0
M  V30 2794 N 474.857 4.38762 1.4784 0
M  V30 2795 H 472.018 8.36803 2.32493 0
M  V30 2796 H 471.748 6.70197 1.71129 0
M  V30 2797 H 472.615 7.03551 4.13168 0
M  V30 2798 P 476.577 7.20834 5.23717 0
M  V30 2799 O 476.797 7.80006 6.57415 0
M  V30 2800 O 477.367 7.79416 4.13051 0
M  V30 2801 O 476.827 5.63315 5.29344 0
M  V30 2802 C 475.887 4.80318 6.01954 0
M  V30 2803 C 476.617 3.64202 6.65911 0
M  V30 2804 O 476.827 2.60736 5.64823 0
M  V30 2805 C 478.017 3.93521 7.19518 0
M  V30 2806 O 478.407 3.02071 8.21205 0
M  V30 2807 C 478.897 3.73047 5.97036 0
M  V30 2808 C 478.187 2.58828 5.25741 0
M  V30 2809 N 478.237 2.68068 3.77503 0
M  V30 2810 H 475.399 5.40394 6.8003 0
M  V30 2811 H 475.127 4.41741 5.32532 0
M  V30 2812 H 475.995 3.26371 7.47889 0
M  V30 2813 H 478.65 1.64007 5.56746 0
M  V30 2814 H 478.93 4.63439 5.3432 0
M  V30 2815 H 479.921 3.44776 6.25925 0
M  V30 2816 H 478.087 4.96707 7.57347 0
M  V30 2817 P 479.957 2.75334 8.47391 0
M  V30 2818 O 480.177 2.44595 9.90239 0
M  V30 2819 O 480.747 3.87732 7.92204 0
M  V30 2820 O 480.207 1.4459 7.59357 0
M  V30 2821 C 479.267 0.347563 7.69115 0
M  V30 2822 C 479.997 -0.96767 7.52806 0
M  V30 2823 O 480.207 -1.21036 6.1011 0
M  V30 2824 C 481.397 -1.04544 8.13308 0
M  V30 2825 O 481.787 -2.38311 8.41922 0
M  V30 2826 C 482.277 -0.491279 7.02284 0
M  V30 2827 C 481.567 -0.996264 5.77469 0
M  V30 2828 N 481.617 -0.0501808 4.62873 0
M  V30 2829 C 481.767 -0.588177 3.36904 0
M  V30 2830 O 481.857 -1.78598 3.17173 0
M  V30 2831 N 481.807 0.329694 2.33686 0
M  V30 2832 C 481.717 1.6953 2.45079 0
M  V30 2833 O 481.767 2.41926 1.44899 0
M  V30 2834 C 481.567 2.16933 3.80505 0
M  V30 2835 C 481.457 3.65373 3.97621 0
M  V30 2836 C 481.517 1.30326 4.83752 0
M  V30 2837 H 478.777 0.374722 8.67691 0
M  V30 2838 H 478.508 0.443421 6.90177 0
M  V30 2839 H 479.375 -1.75537 7.96793 0
M  V30 2840 H 482.03 -1.94496 5.46629 0
M  V30 2841 H 482.309 0.608651 7.04676 0
M  V30 2842 H 483.301 -0.889672 7.08939 0
M  V30 2843 H 481.467 -0.43308 9.04564 0
M  V30 2844 H 481.396 1.68366 5.8516 0
M  V30 2845 H 482.426 4.05985 4.30448 0
M  V30 2846 H 480.689 3.88028 4.72875 0
M  V30 2847 H 481.177 4.11381 3.01609 0
M  V30 2848 H 481.913 -0.0393617 1.41345 0
M  V30 2849 P 483.337 -2.75334 8.47391 0
M  V30 2850 O 483.557 -3.84166 9.4489 0
M  V30 2851 O 484.127 -1.51964 8.6881 0
M  V30 2852 O 483.587 -3.29363 6.99321 0
M  V30 2853 C 482.647 -4.23956 6.42656 0
M  V30 2854 C 483.377 -5.20775 5.52155 0
M  V30 2855 O 483.587 -4.56534 4.22446 0
M  V30 2856 C 484.777 -5.62629 5.96531 0
M  V30 2857 O 485.167 -6.87667 5.41053 0
M  V30 2858 C 485.657 -4.52537 5.39283 0
M  V30 2859 C 484.947 -4.20027 4.08623 0
M  V30 2860 N 484.997 -2.7613 3.71522 0
M  V30 2861 C 485.147 -2.45612 2.37989 0
M  V30 2862 O 485.237 -3.30919 1.51621 0
M  V30 2863 N 485.187 -1.10684 2.08435 0
M  V30 2864 C 485.097 -0.0690084 2.9792 0
M  V30 2865 C 484.947 -0.481522 4.35345 0
M  V30 2866 C 484.897 -1.78906 4.67968 0
M  V30 2867 H 482.157 -4.797 7.24003 0
M  V30 2868 H 481.888 -3.69802 5.84429 0
M  V30 2869 H 482.755 -6.10356 5.41441 0
M  V30 2870 H 485.41 -4.78651 3.27911 0
M  V30 2871 H 485.689 -3.64957 6.05871 0
M  V30 2872 H 486.681 -4.8868 5.2125 0
M  V30 2873 H 484.847 -5.66726 7.06352 0
M  V30 2874 H 484.776 -2.07737 5.72367 0
M  V30 2875 P 486.717 -7.20834 5.23717 0
M  V30 2876 O 486.937 -8.66189 5.38625 0
M  V30 2877 O 487.507 -6.33615 6.1356 0
M  V30 2878 O 486.967 -6.7751 3.72168 0
M  V30 2879 C 486.027 -7.20732 2.70725 0
M  V30 2880 C 486.757 -7.45864 1.40599 0
M  V30 2881 O 486.967 -6.17651 0.734225 0
M  V30 2882 C 488.157 -8.05808 1.51899 0
M  V30 2883 O 488.547 -8.74358 0.335205 0
M  V30 2884 C 489.037 -6.83093 1.70294 0
M  V30 2885 C 488.327 -5.79992 0.836974 0
M  V30 2886 N 488.377 -4.41769 1.38263 0
M  V30 2887 C 488.527 -3.38591 0.481702 0
M  V30 2888 O 488.617 -3.56839 -0.718452 0
M  V30 2889 N 488.567 -2.1206 1.03569 0
M  V30 2890 C 488.477 -1.80696 2.36966 0
M  V30 2891 O 488.527 -0.630473 2.74862 0
M  V30 2892 C 488.327 -2.94845 3.23898 0
M  V30 2893 C 488.217 -2.65253 4.70362 0
M  V30 2894 C 488.277 -4.19803 2.73435 0
M  V30 2895 H 485.537 -8.13644 3.0377 0
M  V30 2896 H 485.268 -6.42695 2.55448 0
M  V30 2897 H 486.135 -8.12039 0.792769 0
M  V30 2898 H 488.79 -5.79978 -0.160587 0
M  V30 2899 H 489.069 -6.51379 2.75643 0
M  V30 2900 H 490.061 -7.01734 1.34462 0
M  V30 2901 H 488.227 -8.73674 2.38337 0
M  V30 2902 H 488.156 -5.04492 3.4095 0
M  V30 2903 H 489.186 -2.83924 5.1913 0
M  V30 2904 H 487.449 -3.29824 5.15163 0
M  V30 2905 H 487.937 -1.59723 4.84449 0
M  V30 2906 H 488.673 -1.35644 0.399345 0
M  V30 2907 P 490.097 -8.91 -2.91224e-12 0
M  V30 2908 O 490.317 -10.1726 -0.733694 0
M  V30 2909 O 490.887 -8.73148 1.23936 0
M  V30 2910 O 490.347 -7.66872 -0.971405 0
M  V30 2911 C 489.407 -7.42309 -2.04641 0
M  V30 2912 C 490.137 -6.86059 -3.24661 0
M  V30 2913 O 490.347 -5.42847 -3.03646 0
M  V30 2914 C 491.537 -7.41196 -3.50753 0
M  V30 2915 O 491.927 -7.27073 -4.86816 0
M  V30 2916 C 492.417 -6.5273 -2.63741 0
M  V30 2917 C 491.707 -5.1842 -2.73198 0
M  V30 2918 N 491.757 -4.38762 -1.4784 0
M  V30 2919 H 488.918 -8.36803 -2.32493 0
M  V30 2920 H 488.648 -6.70197 -1.71129 0
M  V30 2921 H 489.515 -7.03551 -4.13168 0
M  V30 2922 P 493.477 -7.20834 -5.23717 0
M  V30 2923 O 493.697 -7.7993 -6.57351 0
M  V30 2924 O 494.267 -7.79328 -4.13004 0
M  V30 2925 O 493.727 -5.63315 -5.29344 0
M  V30 2926 C 492.787 -4.80193 -6.01798 0
M  V30 2927 C 493.517 -3.64202 -6.65911 0
M  V30 2928 O 493.727 -2.60694 -5.64732 0
M  V30 2929 C 494.917 -3.93473 -7.1943 0
M  V30 2930 O 495.307 -3.02071 -8.21205 0
M  V30 2931 C 495.797 -3.73047 -5.97036 0
M  V30 2932 C 495.087 -2.58828 -5.25741 0
M  V30 2933 N 495.137 -2.6801 -3.77422 0
M  V30 2934 C 495.287 -1.50443 -3.07133 0
M  V30 2935 O 495.377 -0.419406 -3.61576 0
M  V30 2936 N 495.327 -1.6403 -1.69677 0
M  V30 2937 C 495.237 -2.81206 -0.986255 0
M  V30 2938 O 495.287 -2.80892 0.249754 0
M  V30 2939 C 495.087 -3.99158 -1.80325 0
M  V30 2940 C 494.977 -5.29309 -1.06921 0
M  V30 2941 C 495.037 -3.89779 -3.1476 0
M  V30 2942 H 492.297 -5.40332 -6.79951 0
M  V30 2943 H 492.028 -4.41549 -5.32301 0
M  V30 2944 H 492.895 -3.26331 -7.47797 0
M  V30 2945 H 495.55 -1.6395 -5.56554 0
M  V30 2946 H 495.829 -4.63439 -5.3432 0
M  V30 2947 H 496.821 -3.44728 -6.25838 0
M  V30 2948 H 494.987 -4.96652 -7.57263 0
M  V30 2949 H 494.916 -4.80159 -3.74441 0
M  V30 2950 H 495.946 -5.81459 -1.09608 0
M  V30 2951 H 494.209 -5.9187 -1.54487 0
M  V30 2952 H 494.697 -5.10095 -0.0220288 0
M  V30 2953 H 495.433 -0.798962 -1.16664 0
M  V30 2954 P 496.857 -2.75334 -8.47391 0
M  V30 2955 O 497.077 -2.44571 -9.90142 0
M  V30 2956 O 497.647 -3.87688 -7.92115 0
M  V30 2957 O 497.107 -1.4459 -7.59357 0
M  V30 2958 C 496.167 -0.347608 -7.69215 0
M  V30 2959 C 496.897 0.96767 -7.52806 0
M  V30 2960 O 497.107 1.21036 -6.1011 0
M  V30 2961 C 498.297 1.04544 -8.13308 0
M  V30 2962 O 498.687 2.38311 -8.41922 0
M  V30 2963 C 499.177 0.491279 -7.02284 0
M  V30 2964 C 498.467 0.996264 -5.77469 0
M  V30 2965 N 498.517 0.0501916 -4.62973 0
M  V30 2966 H 495.678 -0.374722 -8.67691 0
M  V30 2967 H 495.408 -0.443485 -6.90277 0
M  V30 2968 H 496.275 1.75537 -7.96793 0
M  V30 2969 P 500.237 2.75334 -8.47391 0
M  V30 2970 O 500.457 3.84128 -9.44797 0
M  V30 2971 O 501.027 1.51947 -8.68712 0
M  V30 2972 O 500.487 3.29363 -6.99321 0
M  V30 2973 C 499.547 4.24011 -6.4274 0
M  V30 2974 C 500.277 5.20775 -5.52155 0
M  V30 2975 O 500.487 4.56534 -4.22446 0
M  V30 2976 C 501.677 5.62629 -5.96531 0
M  V30 2977 O 502.067 6.87667 -5.41053 0
M  V30 2978 C 502.557 4.52537 -5.39283 0
M  V30 2979 C 501.847 4.20027 -4.08623 0
M  V30 2980 N 501.897 2.76189 -3.71603 0
M  V30 2981 H 499.058 4.797 -7.24003 0
M  V30 2982 H 498.788 3.69856 -5.84513 0
M  V30 2983 H 499.655 6.10356 -5.41441 0
M  V30 2984 P 503.617 7.20834 -5.23717 0
M  V30 2985 O 503.837 8.66104 -5.38572 0
M  V30 2986 O 504.407 6.33544 -6.1349 0
M  V30 2987 O 503.867 6.7751 -3.72168 0
M  V30 2988 C 502.927 7.20825 -2.7076 0
M  V30 2989 C 503.657 7.45864 -1.40599 0
M  V30 2990 O 503.867 6.17651 -0.734225 0
M  V30 2991 C 505.057 8.05808 -1.51899 0
M  V30 2992 O 505.447 8.74358 -0.335205 0
M  V30 2993 C 505.937 6.83093 -1.70294 0
M  V30 2994 C 505.227 5.79992 -0.836974 0
M  V30 2995 N 505.277 4.41864 -1.38293 0
M  V30 2996 C 505.197 3.99538 -2.69438 0
M  V30 2997 N 505.277 2.69909 -2.84277 0
M  V30 2998 C 505.417 2.21719 -1.5408 0
M  V30 2999 C 505.547 0.891712 -1.06628 0
M  V30 3000 N 505.667 0.856846 0.334985 0
M  V30 3001 C 505.667 1.9641 1.15789 0
M  V30 3002 N 505.797 1.72708 2.46522 0
M  V30 3003 N 505.537 3.21165 0.713741 0
M  V30 3004 C 505.417 3.26797 -0.639748 0
M  V30 3005 H 502.438 8.13644 -3.0377 0
M  V30 3006 H 502.168 6.42788 -2.55485 0
M  V30 3007 H 503.035 8.12039 -0.792769 0
M  V30 3008 P 506.997 8.91 3.06942e-12 0
M  V30 3009 O 507.217 10.1726 0.733694 0
M  V30 3010 O 507.787 8.73148 -1.23936 0
M  V30 3011 O 507.247 7.66872 0.971405 0
M  V30 3012 C 506.307 7.42309 2.04641 0
M  V30 3013 C 507.037 6.86059 3.24661 0
M  V30 3014 O 507.247 5.42847 3.03646 0
M  V30 3015 C 508.437 7.41196 3.50753 0
M  V30 3016 O 508.827 7.27073 4.86816 0
M  V30 3017 C 509.317 6.5273 2.63741 0
M  V30 3018 C 508.607 5.1842 2.73198 0
M  V30 3019 N 508.657 4.38762 1.4784 0
M  V30 3020 H 505.818 8.36803 2.32493 0
M  V30 3021 H 505.548 6.70197 1.71129 0
M  V30 3022 H 506.415 7.03551 4.13168 0
M  V30 3023 P 510.377 7.20834 5.23717 0
M  V30 3024 O 510.597 7.79853 6.57286 0
M  V30 3025 O 511.167 7.79239 4.12957 0
M  V30 3026 O 510.627 5.63315 5.29344 0
M  V30 3027 C 509.687 4.80255 6.01876 0
M  V30 3028 C 510.417 3.64202 6.65911 0
M  V30 3029 O 510.627 2.60694 5.64732 0
M  V30 3030 C 511.817 3.93473 7.1943 0
M  V30 3031 O 512.207 3.02071 8.21205 0
M  V30 3032 C 512.697 3.73047 5.97036 0
M  V30 3033 C 511.987 2.58828 5.25741 0
M  V30 3034 N 512.037 2.68068 3.77503 0
M  V30 3035 H 509.198 5.40332 6.79951 0
M  V30 3036 H 508.928 4.41613 5.32378 0
M  V30 3037 H 509.795 3.26331 7.47797 0
M  V30 3038 P 513.757 2.75334 8.47391 0
M  V30 3039 O 513.977 2.44595 9.90239 0
M  V30 3040 O 514.547 3.87732 7.92204 0
M  V30 3041 O 514.007 1.4459 7.59357 0
M  V30 3042 C 513.067 0.347563 7.69115 0
M  V30 3043 C 513.797 -0.96767 7.52806 0
M  V30 3044 O 514.007 -1.21036 6.1011 0
M  V30 3045 C 515.197 -1.04544 8.13308 0
M  V30 3046 O 515.587 -2.38311 8.41922 0
M  V30 3047 C 516.077 -0.491279 7.02284 0
M  V30 3048 C 515.367 -0.996264 5.77469 0
M  V30 3049 N 515.417 -0.0501808 4.62873 0
M  V30 3050 C 515.567 -0.588177 3.36904 0
M  V30 3051 O 515.657 -1.78598 3.17173 0
M  V30 3052 N 515.607 0.329694 2.33686 0
M  V30 3053 C 515.517 1.6953 2.45079 0
M  V30 3054 C 515.367 2.16933 3.80505 0
M  V30 3055 C 515.317 1.30326 4.83752 0
M  V30 3056 H 512.577 0.374722 8.67691 0
M  V30 3057 H 512.308 0.443421 6.90177 0
M  V30 3058 H 513.175 -1.75537 7.96793 0
M  V30 3059 H 515.83 -1.94496 5.46629 0
M  V30 3060 H 516.109 0.608651 7.04676 0
M  V30 3061 H 517.101 -0.889672 7.08939 0
M  V30 3062 H 515.267 -0.43308 9.04564 0
M  V30 3063 H 515.196 1.68366 5.8516 0
M  V30 3064 P 517.137 -2.75334 8.47391 0
M  V30 3065 O 517.357 -3.84128 9.44797 0
M  V30 3066 O 517.927 -1.51947 8.68712 0
M  V30 3067 O 517.387 -3.29363 6.99321 0
M  V30 3068 C 516.447 -4.24011 6.4274 0
M  V30 3069 C 517.177 -5.20775 5.52155 0
M  V30 3070 O 517.387 -4.56534 4.22446 0
M  V30 3071 C 518.577 -5.62629 5.96531 0
M  V30 3072 O 518.967 -6.87667 5.41053 0
M  V30 3073 C 519.457 -4.52537 5.39283 0
M  V30 3074 C 518.747 -4.20027 4.08623 0
M  V30 3075 N 518.797 -2.76189 3.71603 0
M  V30 3076 H 515.958 -4.797 7.24003 0
M  V30 3077 H 515.688 -3.69856 5.84513 0
M  V30 3078 H 516.555 -6.10356 5.41441 0
M  V30 3079 P 520.517 -7.20834 5.23717 0
M  V30 3080 O 520.737 -8.66104 5.38572 0
M  V30 3081 O 521.307 -6.33544 6.1349 0
M  V30 3082 O 520.767 -6.7751 3.72168 0
M  V30 3083 C 519.827 -7.20825 2.7076 0
M  V30 3084 C 520.557 -7.45864 1.40599 0
M  V30 3085 O 520.767 -6.17651 0.734225 0
M  V30 3086 C 521.957 -8.05808 1.51899 0
M  V30 3087 O 522.347 -8.74358 0.335205 0
M  V30 3088 C 522.837 -6.83093 1.70294 0
M  V30 3089 C 522.127 -5.79992 0.836974 0
M  V30 3090 N 522.177 -4.41864 1.38293 0
M  V30 3091 H 519.338 -8.13644 3.0377 0
M  V30 3092 H 519.068 -6.42788 2.55485 0
M  V30 3093 H 519.935 -8.12039 0.792769 0
M  V30 3094 P 523.897 -8.91 -3.22661e-12 0
M  V30 3095 O 524.117 -10.1726 -0.733694 0
M  V30 3096 O 524.687 -8.73148 1.23936 0
M  V30 3097 O 524.147 -7.66872 -0.971405 0
M  V30 3098 C 523.207 -7.42309 -2.04641 0
M  V30 3099 C 523.937 -6.86059 -3.24661 0
M  V30 3100 O 524.147 -5.42847 -3.03646 0
M  V30 3101 C 525.337 -7.41196 -3.50753 0
M  V30 3102 O 525.727 -7.27073 -4.86816 0
M  V30 3103 C 526.217 -6.5273 -2.63741 0
M  V30 3104 C 525.507 -5.1842 -2.73198 0
M  V30 3105 N 525.557 -4.38762 -1.4784 0
M  V30 3106 H 522.718 -8.36803 -2.32493 0
M  V30 3107 H 522.448 -6.70197 -1.71129 0
M  V30 3108 H 523.315 -7.03551 -4.13168 0
M  V30 3109 P 527.277 -7.20834 -5.23717 0
M  V30 3110 O 527.497 -7.79853 -6.57286 0
M  V30 3111 O 528.067 -7.79239 -4.12957 0
M  V30 3112 O 527.527 -5.63315 -5.29344 0
M  V30 3113 C 526.587 -4.80255 -6.01876 0
M  V30 3114 C 527.317 -3.64202 -6.65911 0
M  V30 3115 O 527.527 -2.60694 -5.64732 0
M  V30 3116 C 528.717 -3.93473 -7.1943 0
M  V30 3117 O 529.107 -3.02071 -8.21205 0
M  V30 3118 C 529.597 -3.73047 -5.97036 0
M  V30 3119 C 528.887 -2.58828 -5.25741 0
M  V30 3120 N 528.937 -2.68068 -3.77503 0
M  V30 3121 H 526.098 -5.40332 -6.79951 0
M  V30 3122 H 525.828 -4.41613 -5.32378 0
M  V30 3123 H 526.695 -3.26331 -7.47797 0
M  V30 3124 P 530.657 -2.75334 -8.47391 0
M  V30 3125 O 530.877 -2.44571 -9.90142 0
M  V30 3126 O 531.447 -3.87688 -7.92115 0
M  V30 3127 O 530.907 -1.4459 -7.59357 0
M  V30 3128 C 529.967 -0.347608 -7.69215 0
M  V30 3129 C 530.697 0.96767 -7.52806 0
M  V30 3130 O 530.907 1.21036 -6.1011 0
M  V30 3131 C 532.097 1.04544 -8.13308 0
M  V30 3132 O 532.487 2.38311 -8.41922 0
M  V30 3133 C 532.977 0.491279 -7.02284 0
M  V30 3134 C 532.267 0.996264 -5.77469 0
M  V30 3135 N 532.317 0.0501916 -4.62973 0
M  V30 3136 H 529.478 -0.374722 -8.67691 0
M  V30 3137 H 529.208 -0.443485 -6.90277 0
M  V30 3138 H 530.075 1.75537 -7.96793 0
M  V30 3139 P 534.037 2.75334 -8.47391 0
M  V30 3140 O 534.257 3.84204 -9.44982 0
M  V30 3141 O 534.827 1.51982 -8.68909 0
M  V30 3142 O 534.287 3.29363 -6.99321 0
M  V30 3143 C 533.347 4.24066 -6.42823 0
M  V30 3144 C 534.077 5.20775 -5.52155 0
M  V30 3145 O 534.287 4.56607 -4.22514 0
M  V30 3146 C 535.477 5.62697 -5.96604 0
M  V30 3147 O 535.867 6.87667 -5.41053 0
M  V30 3148 C 536.357 4.52537 -5.39283 0
M  V30 3149 C 535.647 4.20027 -4.08623 0
M  V30 3150 N 535.697 2.76189 -3.71603 0
M  V30 3151 H 532.859 4.79756 -7.24086 0
M  V30 3152 H 532.587 3.69963 -5.84682 0
M  V30 3153 H 533.455 6.10431 -5.41508 0
M  V30 3154 H 536.11 4.78816 -3.28024 0
M  V30 3155 H 536.39 3.64957 -6.05871 0
M  V30 3156 H 537.381 4.88748 -5.21323 0
M  V30 3157 H 535.547 5.66789 -7.0643 0
M  V30 3158 P 537.417 7.20834 -5.23717 0
M  V30 3159 O 537.637 8.66104 -5.38572 0
M  V30 3160 O 538.207 6.33544 -6.1349 0
M  V30 3161 O 537.667 6.7751 -3.72168 0
M  V30 3162 C 536.727 7.20825 -2.7076 0
M  V30 3163 C 537.457 7.45864 -1.40599 0
M  V30 3164 O 537.667 6.17651 -0.734225 0
M  V30 3165 C 538.857 8.05808 -1.51899 0
M  V30 3166 O 539.247 8.74358 -0.335205 0
M  V30 3167 C 539.737 6.83093 -1.70294 0
M  V30 3168 C 539.027 5.79992 -0.836974 0
M  V30 3169 N 539.077 4.41864 -1.38293 0
M  V30 3170 H 536.238 8.13644 -3.0377 0
M  V30 3171 H 535.968 6.42788 -2.55485 0
M  V30 3172 H 536.835 8.12039 -0.792769 0
M  V30 3173 P 540.797 8.91 3.38379e-12 0
M  V30 3174 O 541.017 10.1726 0.733694 0
M  V30 3175 O 541.587 8.73148 -1.23936 0
M  V30 3176 O 541.047 7.66872 0.971405 0
M  V30 3177 C 540.107 7.42309 2.04641 0
M  V30 3178 C 540.837 6.86059 3.24661 0
M  V30 3179 O 541.047 5.42847 3.03646 0
M  V30 3180 C 542.237 7.41196 3.50753 0
M  V30 3181 O 542.627 7.27073 4.86816 0
M  V30 3182 C 543.117 6.5273 2.63741 0
M  V30 3183 C 542.407 5.1842 2.73198 0
M  V30 3184 N 542.457 4.38762 1.4784 0
M  V30 3185 H 539.618 8.36803 2.32493 0
M  V30 3186 H 539.348 6.70197 1.71129 0
M  V30 3187 H 540.215 7.03551 4.13168 0
M  V30 3188 P 544.177 7.20834 5.23717 0
M  V30 3189 O 544.397 7.7993 6.57351 0
M  V30 3190 O 544.967 7.79328 4.13004 0
M  V30 3191 O 544.427 5.63315 5.29344 0
M  V30 3192 C 543.487 4.80193 6.01798 0
M  V30 3193 C 544.217 3.64202 6.65911 0
M  V30 3194 O 544.427 2.60694 5.64732 0
M  V30 3195 C 545.617 3.93473 7.1943 0
M  V30 3196 O 546.007 3.02071 8.21205 0
M  V30 3197 C 546.497 3.73047 5.97036 0
M  V30 3198 C 545.787 2.58828 5.25741 0
M  V30 3199 N 545.837 2.6801 3.77422 0
M  V30 3200 C 545.987 1.50443 3.07133 0
M  V30 3201 O 546.077 0.419406 3.61576 0
M  V30 3202 N 546.027 1.6403 1.69677 0
M  V30 3203 C 545.937 2.81206 0.986255 0
M  V30 3204 O 545.987 2.80892 -0.249754 0
M  V30 3205 C 545.787 3.99158 1.80325 0
M  V30 3206 C 545.677 5.29309 1.06921 0
M  V30 3207 C 545.737 3.89779 3.1476 0
M  V30 3208 H 542.997 5.40332 6.79951 0
M  V30 3209 H 542.728 4.41549 5.32301 0
M  V30 3210 H 543.595 3.26331 7.47797 0
M  V30 3211 H 546.25 1.6395 5.56554 0
M  V30 3212 H 546.529 4.63439 5.3432 0
M  V30 3213 H 547.521 3.44728 6.25838 0
M  V30 3214 H 545.687 4.96652 7.57263 0
M  V30 3215 H 545.616 4.80159 3.74441 0
M  V30 3216 H 546.646 5.81459 1.09608 0
M  V30 3217 H 544.909 5.9187 1.54487 0
M  V30 3218 H 545.397 5.10095 0.0220288 0
M  V30 3219 H 546.133 0.798962 1.16664 0
M  V30 3220 P 547.557 2.75334 8.47391 0
M  V30 3221 O 547.777 2.44571 9.90142 0
M  V30 3222 O 548.347 3.87688 7.92115 0
M  V30 3223 O 547.807 1.4459 7.59357 0
M  V30 3224 C 546.867 0.347608 7.69215 0
M  V30 3225 C 547.597 -0.96767 7.52806 0
M  V30 3226 O 547.807 -1.21036 6.1011 0
M  V30 3227 C 548.997 -1.04544 8.13308 0
M  V30 3228 O 549.387 -2.38311 8.41922 0
M  V30 3229 C 549.877 -0.491279 7.02284 0
M  V30 3230 C 549.167 -0.996264 5.77469 0
M  V30 3231 N 549.217 -0.0501916 4.62973 0
M  V30 3232 H 546.378 0.374722 8.67691 0
M  V30 3233 H 546.108 0.443485 6.90277 0
M  V30 3234 H 546.975 -1.75537 7.96793 0
M  V30 3235 P 550.937 -2.75334 8.47391 0
M  V30 3236 O 551.157 -3.84166 9.4489 0
M  V30 3237 O 551.727 -1.51964 8.6881 0
M  V30 3238 O 551.187 -3.29363 6.99321 0
M  V30 3239 C 550.247 -4.23956 6.42656 0
M  V30 3240 C 550.977 -5.20775 5.52155 0
M  V30 3241 O 551.187 -4.56534 4.22446 0
M  V30 3242 C 552.377 -5.62629 5.96531 0
M  V30 3243 O 552.767 -6.87667 5.41053 0
M  V30 3244 C 553.257 -4.52537 5.39283 0
M  V30 3245 C 552.547 -4.20027 4.08623 0
M  V30 3246 N 552.597 -2.7613 3.71522 0
M  V30 3247 C 552.747 -2.45612 2.37989 0
M  V30 3248 O 552.837 -3.30919 1.51621 0
M  V30 3249 N 552.787 -1.10684 2.08435 0
M  V30 3250 C 552.697 -0.0690084 2.9792 0
M  V30 3251 C 552.547 -0.481522 4.35345 0
M  V30 3252 C 552.497 -1.78906 4.67968 0
M  V30 3253 H 549.757 -4.797 7.24003 0
M  V30 3254 H 549.488 -3.69802 5.84429 0
M  V30 3255 H 550.355 -6.10356 5.41441 0
M  V30 3256 H 553.01 -4.78651 3.27911 0
M  V30 3257 H 553.289 -3.64957 6.05871 0
M  V30 3258 H 554.281 -4.8868 5.2125 0
M  V30 3259 H 552.447 -5.66726 7.06352 0
M  V30 3260 H 552.376 -2.07737 5.72367 0
M  V30 3261 P 554.317 -7.20834 5.23717 0
M  V30 3262 O 554.537 -8.66104 5.38572 0
M  V30 3263 O 555.107 -6.33544 6.1349 0
M  V30 3264 O 554.567 -6.7751 3.72168 0
M  V30 3265 C 553.627 -7.20825 2.7076 0
M  V30 3266 C 554.357 -7.45864 1.40599 0
M  V30 3267 O 554.567 -6.17651 0.734225 0
M  V30 3268 C 555.757 -8.05808 1.51899 0
M  V30 3269 O 556.147 -8.74358 0.335205 0
M  V30 3270 C 556.637 -6.83093 1.70294 0
M  V30 3271 C 555.927 -5.79992 0.836974 0
M  V30 3272 N 555.977 -4.41864 1.38293 0
M  V30 3273 H 553.138 -8.13644 3.0377 0
M  V30 3274 H 552.868 -6.42788 2.55485 0
M  V30 3275 H 553.735 -8.12039 0.792769 0
M  V30 3276 P 557.697 -8.91 -3.54097e-12 0
M  V30 3277 O 557.917 -10.1726 -0.733694 0
M  V30 3278 O 558.487 -8.73148 1.23936 0
M  V30 3279 O 557.947 -7.66872 -0.971405 0
M  V30 3280 C 557.007 -7.42309 -2.04641 0
M  V30 3281 C 557.737 -6.86059 -3.24661 0
M  V30 3282 O 557.947 -5.42847 -3.03646 0
M  V30 3283 C 559.137 -7.41196 -3.50753 0
M  V30 3284 O 559.527 -7.27073 -4.86816 0
M  V30 3285 C 560.017 -6.5273 -2.63741 0
M  V30 3286 C 559.307 -5.1842 -2.73198 0
M  V30 3287 N 559.357 -4.38762 -1.4784 0
M  V30 3288 H 556.518 -8.36803 -2.32493 0
M  V30 3289 H 556.248 -6.70197 -1.71129 0
M  V30 3290 H 557.115 -7.03551 -4.13168 0
M  V30 3291 P 561.077 -7.20834 -5.23717 0
M  V30 3292 O 561.297 -7.79853 -6.57286 0
M  V30 3293 O 561.867 -7.79239 -4.12957 0
M  V30 3294 O 561.327 -5.63315 -5.29344 0
M  V30 3295 C 560.387 -4.80255 -6.01876 0
M  V30 3296 C 561.117 -3.64202 -6.65911 0
M  V30 3297 O 561.327 -2.60694 -5.64732 0
M  V30 3298 C 562.517 -3.93473 -7.1943 0
M  V30 3299 O 562.907 -3.02071 -8.21205 0
M  V30 3300 C 563.397 -3.73047 -5.97036 0
M  V30 3301 C 562.687 -2.58828 -5.25741 0
M  V30 3302 N 562.737 -2.68068 -3.77503 0
M  V30 3303 C 562.657 -3.79715 -2.96723 0
M  V30 3304 N 562.737 -3.5377 -1.68852 0
M  V30 3305 C 562.877 -2.15054 -1.63254 0
M  V30 3306 C 563.007 -1.28964 -0.518571 0
M  V30 3307 N 563.127 0.0538097 -0.918425 0
M  V30 3308 C 563.127 0.494275 -2.22578 0
M  V30 3309 N 563.257 1.81086 -2.40434 0
M  V30 3310 N 562.997 -0.313645 -3.27502 0
M  V30 3311 C 562.877 -1.61829 -2.91033 0
M  V30 3312 H 559.898 -5.40332 -6.79951 0
M  V30 3313 H 559.628 -4.41613 -5.32378 0
M  V30 3314 H 560.495 -3.26331 -7.47797 0
M  V30 3315 P 564.457 -2.75334 -8.47391 0
M  V30 3316 O 564.677 -2.44571 -9.90142 0
M  V30 3317 O 565.247 -3.87688 -7.92115 0
M  V30 3318 O 564.707 -1.4459 -7.59357 0
M  V30 3319 C 563.767 -0.347608 -7.69215 0
M  V30 3320 C 564.497 0.96767 -7.52806 0
M  V30 3321 O 564.707 1.21036 -6.1011 0
M  V30 3322 C 565.897 1.04544 -8.13308 0
M  V30 3323 O 566.287 2.38311 -8.41922 0
M  V30 3324 C 566.777 0.491279 -7.02284 0
M  V30 3325 C 566.067 0.996264 -5.77469 0
M  V30 3326 N 566.117 0.0501916 -4.62973 0
M  V30 3327 H 563.278 -0.374722 -8.67691 0
M  V30 3328 H 563.008 -0.443485 -6.90277 0
M  V30 3329 H 563.875 1.75537 -7.96793 0
M  V30 3330 P 567.837 2.75334 -8.47391 0
M  V30 3331 O 568.057 3.84128 -9.44797 0
M  V30 3332 O 568.627 1.51947 -8.68712 0
M  V30 3333 O 568.087 3.29363 -6.99321 0
M  V30 3334 C 567.147 4.24011 -6.4274 0
M  V30 3335 C 567.877 5.20775 -5.52155 0
M  V30 3336 O 568.087 4.56534 -4.22446 0
M  V30 3337 C 569.277 5.62629 -5.96531 0
M  V30 3338 O 569.667 6.87667 -5.41053 0
M  V30 3339 C 570.157 4.52537 -5.39283 0
M  V30 3340 C 569.447 4.20027 -4.08623 0
M  V30 3341 N 569.497 2.76189 -3.71603 0
M  V30 3342 H 566.658 4.797 -7.24003 0
M  V30 3343 H 566.388 3.69856 -5.84513 0
M  V30 3344 H 567.255 6.10356 -5.41441 0
M  V30 3345 P 571.217 7.20834 -5.23717 0
M  V30 3346 O 571.437 8.66274 -5.38678 0
M  V30 3347 O 572.007 6.33687 -6.13629 0
M  V30 3348 O 571.467 6.7751 -3.72168 0
M  V30 3349 C 570.527 7.20919 -2.70795 0
M  V30 3350 C 571.257 7.45864 -1.40599 0
M  V30 3351 O 571.467 6.17751 -0.734343 0
M  V30 3352 C 572.657 8.05906 -1.51917 0
M  V30 3353 O 573.047 8.74358 -0.335205 0
M  V30 3354 C 573.537 6.83093 -1.70294 0
M  V30 3355 C 572.827 5.79992 -0.836974 0
M  V30 3356 N 572.877 4.41864 -1.38293 0
M  V30 3357 H 570.039 8.13738 -3.03804 0
M  V30 3358 H 569.767 6.42974 -2.55559 0
M  V30 3359 H 570.635 8.12139 -0.792866 0
M  V30 3360 H 573.29 5.80178 0.160643 0
M  V30 3361 H 573.57 6.51379 -2.75643 0
M  V30 3362 H 574.561 7.01832 -1.3448 0
M  V30 3363 H 572.727 8.73771 -2.38364 0
M  V30 3364 P 574.597 8.91 3.69815e-12 0
M  V30 3365 O 574.817 10.1726 0.733694 0
M  V30 3366 O 575.387 8.73148 -1.23936 0
M  V30 3367 O 574.847 7.66872 0.971405 0
M  V30 3368 C 573.907 7.42309 2.04641 0
M  V30 3369 C 574.637 6.86059 3.24661 0
M  V30 3370 O 574.847 5.42847 3.03646 0
M  V30 3371 C 576.037 7.41196 3.50753 0
M  V30 3372 O 576.427 7.27073 4.86816 0
M  V30 3373 C 576.917 6.5273 2.63741 0
M  V30 3374 C 576.207 5.1842 2.73198 0
M  V30 3375 N 576.257 4.38762 1.4784 0
M  V30 3376 H 573.418 8.36803 2.32493 0
M  V30 3377 H 573.148 6.70197 1.71129 0
M  V30 3378 H 574.015 7.03551 4.13168 0
M  V30 3379 P 577.977 7.20834 5.23717 0
M  V30 3380 O 578.197 7.79853 6.57286 0
M  V30 3381 O 578.767 7.79239 4.12957 0
M  V30 3382 O 578.227 5.63315 5.29344 0
M  V30 3383 C 577.287 4.80255 6.01876 0
M  V30 3384 C 578.017 3.64202 6.65911 0
M  V30 3385 O 578.227 2.60694 5.64732 0
M  V30 3386 C 579.417 3.93473 7.1943 0
M  V30 3387 O 579.807 3.02071 8.21205 0
M  V30 3388 C 580.297 3.73047 5.97036 0
M  V30 3389 C 579.587 2.58828 5.25741 0
M  V30 3390 N 579.637 2.68068 3.77503 0
M  V30 3391 H 576.798 5.40332 6.79951 0
M  V30 3392 H 576.528 4.41613 5.32378 0
M  V30 3393 H 577.395 3.26331 7.47797 0
M  V30 3394 P 581.357 2.75334 8.47391 0
M  V30 3395 O 581.577 2.44595 9.90239 0
M  V30 3396 O 582.147 3.87732 7.92204 0
M  V30 3397 O 581.607 1.4459 7.59357 0
M  V30 3398 C 580.667 0.347563 7.69115 0
M  V30 3399 C 581.397 -0.96767 7.52806 0
M  V30 3400 O 581.607 -1.21036 6.1011 0
M  V30 3401 C 582.797 -1.04544 8.13308 0
M  V30 3402 O 583.187 -2.38311 8.41922 0
M  V30 3403 C 583.677 -0.491279 7.02284 0
M  V30 3404 C 582.967 -0.996264 5.77469 0
M  V30 3405 N 583.017 -0.0501808 4.62873 0
M  V30 3406 C 583.167 -0.588177 3.36904 0
M  V30 3407 O 583.257 -1.78598 3.17173 0
M  V30 3408 N 583.207 0.329694 2.33686 0
M  V30 3409 C 583.117 1.6953 2.45079 0
M  V30 3410 O 583.167 2.41926 1.44899 0
M  V30 3411 C 582.967 2.16933 3.80505 0
M  V30 3412 C 582.857 3.65373 3.97621 0
M  V30 3413 C 582.917 1.30326 4.83752 0
M  V30 3414 H 580.177 0.374722 8.67691 0
M  V30 3415 H 579.908 0.443421 6.90177 0
M  V30 3416 H 580.775 -1.75537 7.96793 0
M  V30 3417 H 583.43 -1.94496 5.46629 0
M  V30 3418 H 583.709 0.608651 7.04676 0
M  V30 3419 H 584.701 -0.889672 7.08939 0
M  V30 3420 H 582.867 -0.43308 9.04564 0
M  V30 3421 H 582.796 1.68366 5.8516 0
M  V30 3422 H 583.826 4.05985 4.30448 0
M  V30 3423 H 582.089 3.88028 4.72875 0
M  V30 3424 H 582.577 4.11381 3.01609 0
M  V30 3425 H 583.313 -0.0393617 1.41345 0
M  V30 3426 P 584.737 -2.75334 8.47391 0
M  V30 3427 O 584.957 -3.84204 9.44982 0
M  V30 3428 O 585.527 -1.51982 8.68909 0
M  V30 3429 O 584.987 -3.29363 6.99321 0
M  V30 3430 C 584.047 -4.24066 6.42823 0
M  V30 3431 C 584.777 -5.20775 5.52155 0
M  V30 3432 O 584.987 -4.56607 4.22514 0
M  V30 3433 C 586.177 -5.62697 5.96604 0
M  V30 3434 O 586.567 -6.87667 5.41053 0
M  V30 3435 C 587.057 -4.52537 5.39283 0
M  V30 3436 C 586.347 -4.20027 4.08623 0
M  V30 3437 N 586.397 -2.76189 3.71603 0
M  V30 3438 C 586.317 -1.66944 4.54297 0
M  V30 3439 N 586.387 -0.536169 3.91344 0
M  V30 3440 C 586.537 -0.901569 2.58849 0
M  V30 3441 C 586.667 -0.146599 1.40236 0
M  V30 3442 N 586.677 1.18234 1.37046 0
M  V30 3443 N 586.787 -0.822941 0.249738 0
M  V30 3444 C 586.777 -2.15179 0.280525 0
M  V30 3445 N 586.657 -2.96414 1.30822 0
M  V30 3446 C 586.537 -2.25804 2.44748 0
M  V30 3447 H 583.559 -4.79756 7.24086 0
M  V30 3448 H 583.287 -3.69963 5.84682 0
M  V30 3449 H 584.155 -6.10431 5.41508 0
M  V30 3450 H 586.81 -4.78816 3.28024 0
M  V30 3451 H 587.09 -3.64957 6.05871 0
M  V30 3452 H 588.081 -4.88748 5.21323 0
M  V30 3453 H 586.247 -5.66789 7.0643 0
M  V30 3454 H 586.206 -1.74684 5.62396 0
M  V30 3455 H 586.587 1.71949 2.24394 0
M  V30 3456 H 586.776 1.67511 0.470742 0
M  V30 3457 H 586.884 -2.63704 -0.6828 0
M  V30 3458 P 588.117 -7.20834 5.23717 0
M  V30 3459 O 588.337 -8.66104 5.38572 0
M  V30 3460 O 588.907 -6.33544 6.1349 0
M  V30 3461 O 588.367 -6.7751 3.72168 0
M  V30 3462 C 587.427 -7.20825 2.7076 0
M  V30 3463 C 588.157 -7.45864 1.40599 0
M  V30 3464 O 588.367 -6.17651 0.734225 0
M  V30 3465 C 589.557 -8.05808 1.51899 0
M  V30 3466 O 589.947 -8.74358 0.335205 0
M  V30 3467 C 590.437 -6.83093 1.70294 0
M  V30 3468 C 589.727 -5.79992 0.836974 0
M  V30 3469 N 589.777 -4.41864 1.38293 0
M  V30 3470 H 586.938 -8.13644 3.0377 0
M  V30 3471 H 586.668 -6.42788 2.55485 0
M  V30 3472 H 587.535 -8.12039 0.792769 0
M  V30 3473 P 591.496 -8.91 -3.85533e-12 0
M  V30 3474 O 591.716 -10.1726 -0.733694 0
M  V30 3475 O 592.286 -8.73148 1.23936 0
M  V30 3476 O 591.746 -7.66872 -0.971405 0
M  V30 3477 C 590.806 -7.42309 -2.04641 0
M  V30 3478 C 591.536 -6.86059 -3.24661 0
M  V30 3479 O 591.746 -5.42847 -3.03646 0
M  V30 3480 C 592.937 -7.41196 -3.50753 0
M  V30 3481 O 593.327 -7.27073 -4.86816 0
M  V30 3482 C 593.817 -6.5273 -2.63741 0
M  V30 3483 C 593.106 -5.1842 -2.73198 0
M  V30 3484 N 593.156 -4.38762 -1.4784 0
M  V30 3485 H 590.317 -8.36803 -2.32493 0
M  V30 3486 H 590.048 -6.70197 -1.71129 0
M  V30 3487 H 590.914 -7.03551 -4.13168 0
M  V30 3488 P 594.876 -7.20834 -5.23717 0
M  V30 3489 O 595.096 -7.79853 -6.57286 0
M  V30 3490 O 595.666 -7.79239 -4.12957 0
M  V30 3491 O 595.126 -5.63315 -5.29344 0
M  V30 3492 C 594.186 -4.80255 -6.01876 0
M  V30 3493 C 594.916 -3.64202 -6.65911 0
M  V30 3494 O 595.126 -2.60694 -5.64732 0
M  V30 3495 C 596.316 -3.93473 -7.1943 0
M  V30 3496 O 596.706 -3.02071 -8.21205 0
M  V30 3497 C 597.196 -3.73047 -5.97036 0
M  V30 3498 C 596.486 -2.58828 -5.25741 0
M  V30 3499 N 596.536 -2.68068 -3.77503 0
M  V30 3500 H 593.697 -5.40332 -6.79951 0
M  V30 3501 H 593.427 -4.41613 -5.32378 0
M  V30 3502 H 594.294 -3.26331 -7.47797 0
M  V30 3503 P 598.256 -2.75334 -8.47391 0
M  V30 3504 O 598.476 -2.44571 -9.90142 0
M  V30 3505 O 599.046 -3.87688 -7.92115 0
M  V30 3506 O 598.506 -1.4459 -7.59357 0
M  V30 3507 C 597.566 -0.347608 -7.69215 0
M  V30 3508 C 598.296 0.96767 -7.52806 0
M  V30 3509 O 598.506 1.21036 -6.1011 0
M  V30 3510 C 599.696 1.04544 -8.13308 0
M  V30 3511 O 600.086 2.38311 -8.41922 0
M  V30 3512 C 600.576 0.491279 -7.02284 0
M  V30 3513 C 599.866 0.996264 -5.77469 0
M  V30 3514 N 599.916 0.0501916 -4.62973 0
M  V30 3515 H 597.077 -0.374722 -8.67691 0
M  V30 3516 H 596.807 -0.443485 -6.90277 0
M  V30 3517 H 597.674 1.75537 -7.96793 0
M  V30 3518 P 601.636 2.75334 -8.47391 0
M  V30 3519 O 601.856 3.84166 -9.4489 0
M  V30 3520 O 602.426 1.51964 -8.6881 0
M  V30 3521 O 601.886 3.29363 -6.99321 0
M  V30 3522 C 600.946 4.23956 -6.42656 0
M  V30 3523 C 601.676 5.20775 -5.52155 0
M  V30 3524 O 601.886 4.56534 -4.22446 0
M  V30 3525 C 603.076 5.62629 -5.96531 0
M  V30 3526 O 603.466 6.87667 -5.41053 0
M  V30 3527 C 603.956 4.52537 -5.39283 0
M  V30 3528 C 603.246 4.20027 -4.08623 0
M  V30 3529 N 603.296 2.7613 -3.71522 0
M  V30 3530 C 603.446 2.45612 -2.37989 0
M  V30 3531 O 603.536 3.30919 -1.51621 0
M  V30 3532 N 603.486 1.10684 -2.08435 0
M  V30 3533 C 603.396 0.0690084 -2.9792 0
M  V30 3534 C 603.246 0.481522 -4.35345 0
M  V30 3535 C 603.196 1.78906 -4.67968 0
M  V30 3536 H 600.456 4.797 -7.24003 0
M  V30 3537 H 600.187 3.69802 -5.84429 0
M  V30 3538 H 601.054 6.10356 -5.41441 0
M  V30 3539 H 603.709 4.78651 -3.27911 0
M  V30 3540 H 603.988 3.64957 -6.05871 0
M  V30 3541 H 604.98 4.8868 -5.2125 0
M  V30 3542 H 603.146 5.66726 -7.06352 0
M  V30 3543 H 603.075 2.07737 -5.72367 0
M  V30 3544 P 605.016 7.20834 -5.23717 0
M  V30 3545 O 605.236 8.66104 -5.38572 0
M  V30 3546 O 605.806 6.33544 -6.1349 0
M  V30 3547 O 605.266 6.7751 -3.72168 0
M  V30 3548 C 604.326 7.20825 -2.7076 0
M  V30 3549 C 605.056 7.45864 -1.40599 0
M  V30 3550 O 605.266 6.17651 -0.734225 0
M  V30 3551 C 606.456 8.05808 -1.51899 0
M  V30 3552 O 606.846 8.74358 -0.335205 0
M  V30 3553 C 607.336 6.83093 -1.70294 0
M  V30 3554 C 606.626 5.79992 -0.836974 0
M  V30 3555 N 606.676 4.41864 -1.38293 0
M  V30 3556 H 603.837 8.13644 -3.0377 0
M  V30 3557 H 603.567 6.42788 -2.55485 0
M  V30 3558 H 604.434 8.12039 -0.792769 0
M  V30 3559 P 608.396 8.91 4.01252e-12 0
M  V30 3560 O 608.616 10.1726 0.733694 0
M  V30 3561 O 609.186 8.73148 -1.23936 0
M  V30 3562 O 608.646 7.66872 0.971405 0
M  V30 3563 C 607.706 7.42309 2.04641 0
M  V30 3564 C 608.436 6.86059 3.24661 0
M  V30 3565 O 608.646 5.42847 3.03646 0
M  V30 3566 C 609.836 7.41196 3.50753 0
M  V30 3567 O 610.226 7.27073 4.86816 0
M  V30 3568 C 610.716 6.5273 2.63741 0
M  V30 3569 C 610.006 5.1842 2.73198 0
M  V30 3570 N 610.056 4.38762 1.4784 0
M  V30 3571 H 607.217 8.36803 2.32493 0
M  V30 3572 H 606.947 6.70197 1.71129 0
M  V30 3573 H 607.814 7.03551 4.13168 0
M  V30 3574 P 611.776 7.20834 5.23717 0
M  V30 3575 O 611.996 7.79853 6.57286 0
M  V30 3576 O 612.566 7.79239 4.12957 0
M  V30 3577 O 612.026 5.63315 5.29344 0
M  V30 3578 C 611.086 4.80255 6.01876 0
M  V30 3579 C 611.816 3.64202 6.65911 0
M  V30 3580 O 612.026 2.60694 5.64732 0
M  V30 3581 C 613.216 3.93473 7.1943 0
M  V30 3582 O 613.606 3.02071 8.21205 0
M  V30 3583 C 614.096 3.73047 5.97036 0
M  V30 3584 C 613.386 2.58828 5.25741 0
M  V30 3585 N 613.436 2.68068 3.77503 0
M  V30 3586 H 610.597 5.40332 6.79951 0
M  V30 3587 H 610.327 4.41613 5.32378 0
M  V30 3588 H 611.194 3.26331 7.47797 0
M  V30 3589 P 615.156 2.75334 8.47391 0
M  V30 3590 O 615.376 2.44571 9.90142 0
M  V30 3591 O 615.946 3.87688 7.92115 0
M  V30 3592 O 615.406 1.4459 7.59357 0
M  V30 3593 C 614.466 0.347608 7.69215 0
M  V30 3594 C 615.196 -0.96767 7.52806 0
M  V30 3595 O 615.406 -1.21036 6.1011 0
M  V30 3596 C 616.596 -1.04544 8.13308 0
M  V30 3597 O 616.986 -2.38311 8.41922 0
M  V30 3598 C 617.476 -0.491279 7.02284 0
M  V30 3599 C 616.766 -0.996264 5.77469 0
M  V30 3600 N 616.816 -0.0501916 4.62973 0
M  V30 3601 H 613.977 0.374722 8.67691 0
M  V30 3602 H 613.707 0.443485 6.90277 0
M  V30 3603 H 614.574 -1.75537 7.96793 0
M  V30 3604 P 618.536 -2.75334 8.47391 0
M  V30 3605 O 618.756 -3.84128 9.44797 0
M  V30 3606 O 619.326 -1.51947 8.68712 0
M  V30 3607 O 618.786 -3.29363 6.99321 0
M  V30 3608 C 617.846 -4.24011 6.4274 0
M  V30 3609 C 618.576 -5.20775 5.52155 0
M  V30 3610 O 618.786 -4.56534 4.22446 0
M  V30 3611 C 619.976 -5.62629 5.96531 0
M  V30 3612 O 620.366 -6.87667 5.41053 0
M  V30 3613 C 620.856 -4.52537 5.39283 0
M  V30 3614 C 620.146 -4.20027 4.08623 0
M  V30 3615 N 620.196 -2.76189 3.71603 0
M  V30 3616 H 617.357 -4.797 7.24003 0
M  V30 3617 H 617.087 -3.69856 5.84513 0
M  V30 3618 H 617.954 -6.10356 5.41441 0
M  V30 3619 P 621.916 -7.20834 5.23717 0
M  V30 3620 O 622.136 -8.66104 5.38572 0
M  V30 3621 O 622.706 -6.33544 6.1349 0
M  V30 3622 O 622.166 -6.7751 3.72168 0
M  V30 3623 C 621.226 -7.20825 2.7076 0
M  V30 3624 C 621.956 -7.45864 1.40599 0
M  V30 3625 O 622.166 -6.17651 0.734225 0
M  V30 3626 C 623.356 -8.05808 1.51899 0
M  V30 3627 O 623.746 -8.74358 0.335205 0
M  V30 3628 C 624.236 -6.83093 1.70294 0
M  V30 3629 C 623.526 -5.79992 0.836974 0
M  V30 3630 N 623.576 -4.41864 1.38293 0
M  V30 3631 H 620.737 -8.13644 3.0377 0
M  V30 3632 H 620.467 -6.42788 2.55485 0
M  V30 3633 H 621.334 -8.12039 0.792769 0
M  V30 3634 P 625.296 -8.91 -4.1697e-12 0
M  V30 3635 O 625.516 -10.1736 -0.733766 0
M  V30 3636 O 626.086 -8.73247 1.2395 0
M  V30 3637 O 625.546 -7.66872 -0.971405 0
M  V30 3638 C 624.606 -7.42212 -2.04614 0
M  V30 3639 C 625.336 -6.86059 -3.24661 0
M  V30 3640 O 625.546 -5.42847 -3.03646 0
M  V30 3641 C 626.736 -7.41196 -3.50753 0
M  V30 3642 O 627.126 -7.27073 -4.86816 0
M  V30 3643 C 627.616 -6.5273 -2.63741 0
M  V30 3644 C 626.906 -5.1842 -2.73198 0
M  V30 3645 N 626.956 -4.38668 -1.47808 0
M  V30 3646 C 627.106 -3.02239 -1.60048 0
M  V30 3647 O 627.196 -2.46459 -2.67869 0
M  V30 3648 N 627.146 -2.32436 -0.408571 0
M  V30 3649 C 627.056 -2.85471 0.854993 0
M  V30 3650 C 626.906 -4.28918 0.887335 0
M  V30 3651 C 626.856 -5.00349 -0.255399 0
M  V30 3652 H 624.116 -8.36803 -2.32493 0
M  V30 3653 H 623.847 -6.701 -1.71105 0
M  V30 3654 H 624.714 -7.03551 -4.13168 0
M  V30 3655 H 627.369 -4.59773 -3.53894 0
M  V30 3656 H 627.648 -6.88995 -1.59871 0
M  V30 3657 H 628.64 -6.46749 -3.03687 0
M  V30 3658 H 626.806 -8.46908 -3.20714 0
M  V30 3659 H 626.735 -6.08548 -0.206986 0
M  V30 3660 P 628.676 -7.20834 -5.23717 0
M  V30 3661 O 628.896 -7.79853 -6.57286 0
M  V30 3662 O 629.466 -7.79239 -4.12957 0
M  V30 3663 O 628.926 -5.63315 -5.29344 0
M  V30 3664 C 627.986 -4.80255 -6.01876 0
M  V30 3665 C 628.716 -3.64202 -6.65911 0
M  V30 3666 O 628.926 -2.60694 -5.64732 0
M  V30 3667 C 630.116 -3.93473 -7.1943 0
M  V30 3668 O 630.506 -3.02071 -8.21205 0
M  V30 3669 C 630.996 -3.73047 -5.97036 0
M  V30 3670 C 630.286 -2.58828 -5.25741 0
M  V30 3671 N 630.336 -2.68068 -3.77503 0
M  V30 3672 C 630.256 -3.79715 -2.96723 0
M  V30 3673 N 630.336 -3.5377 -1.68852 0
M  V30 3674 C 630.476 -2.15054 -1.63254 0
M  V30 3675 C 630.606 -1.28964 -0.518571 0
M  V30 3676 N 630.726 0.0538097 -0.918425 0
M  V30 3677 C 630.726 0.494275 -2.22578 0
M  V30 3678 N 630.856 1.81086 -2.40434 0
M  V30 3679 N 630.596 -0.313645 -3.27502 0
M  V30 3680 C 630.476 -1.61829 -2.91033 0
M  V30 3681 H 627.497 -5.40332 -6.79951 0
M  V30 3682 H 627.227 -4.41613 -5.32378 0
M  V30 3683 H 628.094 -3.26331 -7.47797 0
M  V30 3684 P 632.056 -2.75334 -8.47391 0
M  V30 3685 O 632.276 -2.44595 -9.90239 0
M  V30 3686 O 632.846 -3.87732 -7.92204 0
M  V30 3687 O 632.306 -1.4459 -7.59357 0
M  V30 3688 C 631.366 -0.347563 -7.69115 0
M  V30 3689 C 632.096 0.96767 -7.52806 0
M  V30 3690 O 632.306 1.21036 -6.1011 0
M  V30 3691 C 633.496 1.04544 -8.13308 0
M  V30 3692 O 633.886 2.38311 -8.41922 0
M  V30 3693 C 634.376 0.491279 -7.02284 0
M  V30 3694 C 633.666 0.996264 -5.77469 0
M  V30 3695 N 633.716 0.0501808 -4.62873 0
M  V30 3696 C 633.866 0.588177 -3.36904 0
M  V30 3697 O 633.956 1.78598 -3.17173 0
M  V30 3698 N 633.906 -0.329694 -2.33686 0
M  V30 3699 C 633.816 -1.6953 -2.45079 0
M  V30 3700 O 633.866 -2.41926 -1.44899 0
M  V30 3701 C 633.666 -2.16933 -3.80505 0
M  V30 3702 C 633.556 -3.65373 -3.97621 0
M  V30 3703 C 633.616 -1.30326 -4.83752 0
M  V30 3704 H 630.876 -0.374722 -8.67691 0
M  V30 3705 H 630.607 -0.443421 -6.90177 0
M  V30 3706 H 631.474 1.75537 -7.96793 0
M  V30 3707 H 634.129 1.94496 -5.46629 0
M  V30 3708 H 634.408 -0.608651 -7.04676 0
M  V30 3709 H 635.4 0.889672 -7.08939 0
M  V30 3710 H 633.566 0.43308 -9.04564 0
M  V30 3711 H 633.495 -1.68366 -5.8516 0
M  V30 3712 H 634.525 -4.05985 -4.30448 0
M  V30 3713 H 632.788 -3.88028 -4.72875 0
M  V30 3714 H 633.276 -4.11381 -3.01609 0
M  V30 3715 H 634.012 0.0393617 -1.41345 0
M  V30 3716 P 635.436 2.75334 -8.47391 0
M  V30 3717 O 635.656 3.84204 -9.44982 0
M  V30 3718 O 636.226 1.51982 -8.68909 0
M  V30 3719 O 635.686 3.29363 -6.99321 0
M  V30 3720 C 634.746 4.24066 -6.42823 0
M  V30 3721 C 635.476 5.20775 -5.52155 0
M  V30 3722 O 635.686 4.56607 -4.22514 0
M  V30 3723 C 636.876 5.62697 -5.96604 0
M  V30 3724 O 637.266 6.87667 -5.41053 0
M  V30 3725 C 637.756 4.52537 -5.39283 0
M  V30 3726 C 637.046 4.20027 -4.08623 0
M  V30 3727 N 637.096 2.76189 -3.71603 0
M  V30 3728 H 634.258 4.79756 -7.24086 0
M  V30 3729 H 633.986 3.69963 -5.84682 0
M  V30 3730 H 634.854 6.10431 -5.41508 0
M  V30 3731 H 637.509 4.78816 -3.28024 0
M  V30 3732 H 637.789 3.64957 -6.05871 0
M  V30 3733 H 638.78 4.88748 -5.21323 0
M  V30 3734 H 636.946 5.66789 -7.0643 0
M  V30 3735 P 638.816 7.20834 -5.23717 0
M  V30 3736 O 639.036 8.66104 -5.38572 0
M  V30 3737 O 639.606 6.33544 -6.1349 0
M  V30 3738 O 639.066 6.7751 -3.72168 0
M  V30 3739 C 638.126 7.20825 -2.7076 0
M  V30 3740 C 638.856 7.45864 -1.40599 0
M  V30 3741 O 639.066 6.17651 -0.734225 0
M  V30 3742 C 640.256 8.05808 -1.51899 0
M  V30 3743 O 640.646 8.74358 -0.335205 0
M  V30 3744 C 641.136 6.83093 -1.70294 0
M  V30 3745 C 640.426 5.79992 -0.836974 0
M  V30 3746 N 640.476 4.41864 -1.38293 0
M  V30 3747 H 637.637 8.13644 -3.0377 0
M  V30 3748 H 637.367 6.42788 -2.55485 0
M  V30 3749 H 638.234 8.12039 -0.792769 0
M  V30 3750 P 642.196 8.91 4.32688e-12 0
M  V30 3751 O 642.416 10.1746 0.733838 0
M  V30 3752 O 642.986 8.73346 -1.23964 0
M  V30 3753 O 642.446 7.66872 0.971405 0
M  V30 3754 C 641.506 7.42405 2.04668 0
M  V30 3755 C 642.236 6.86059 3.24661 0
M  V30 3756 O 642.446 5.42934 3.03695 0
M  V30 3757 C 643.636 7.41287 3.50796 0
M  V30 3758 O 644.026 7.27073 4.86816 0
M  V30 3759 C 644.516 6.5273 2.63741 0
M  V30 3760 C 643.806 5.1842 2.73198 0
M  V30 3761 N 643.856 4.38762 1.4784 0
M  V30 3762 H 641.018 8.36899 2.3252 0
M  V30 3763 H 640.746 6.70391 1.71179 0
M  V30 3764 H 641.614 7.03638 4.13219 0
M  V30 3765 H 644.269 4.59931 3.54016 0
M  V30 3766 H 644.549 6.88995 1.59871 0
M  V30 3767 H 645.54 6.4684 3.0373 0
M  V30 3768 H 643.706 8.47002 3.20749 0
M  V30 3769 P 645.576 7.20834 5.23717 0
M  V30 3770 O 645.796 7.79853 6.57286 0
M  V30 3771 O 646.366 7.79239 4.12957 0
M  V30 3772 O 645.826 5.63315 5.29344 0
M  V30 3773 C 644.886 4.80255 6.01876 0
M  V30 3774 C 645.616 3.64202 6.65911 0
M  V30 3775 O 645.826 2.60694 5.64732 0
M  V30 3776 C 647.016 3.93473 7.1943 0
M  V30 3777 O 647.406 3.02071 8.21205 0
M  V30 3778 C 647.896 3.73047 5.97036 0
M  V30 3779 C 647.186 2.58828 5.25741 0
M  V30 3780 N 647.236 2.68068 3.77503 0
M  V30 3781 C 647.156 3.79715 2.96723 0
M  V30 3782 N 647.236 3.5377 1.68852 0
M  V30 3783 C 647.376 2.15054 1.63254 0
M  V30 3784 C 647.506 1.28964 0.518571 0
M  V30 3785 O 647.526 1.56826 -0.679156 0
M  V30 3786 N 647.626 -0.0538097 0.918425 0
M  V30 3787 C 647.626 -0.494275 2.22578 0
M  V30 3788 N 647.756 -1.81086 2.40434 0
M  V30 3789 N 647.496 0.313645 3.27502 0
M  V30 3790 C 647.376 1.61829 2.91033 0
M  V30 3791 H 644.397 5.40332 6.79951 0
M  V30 3792 H 644.127 4.41613 5.32378 0
M  V30 3793 H 644.994 3.26331 7.47797 0
M  V30 3794 H 647.649 1.63422 5.56814 0
M  V30 3795 H 647.928 4.63374 5.34244 0
M  V30 3796 H 648.92 3.44728 6.25838 0
M  V30 3797 H 647.086 4.96652 7.57263 0
M  V30 3798 H 647.037 4.80617 3.3614 0
M  V30 3799 H 647.719 -0.742702 0.199384 0
M  V30 3800 H 647.756 -2.20598 3.35588 0
M  V30 3801 H 647.857 -2.43518 1.58945 0
M  V30 3802 P 648.956 2.75334 8.47391 0
M  V30 3803 O 649.176 2.44571 9.90142 0
M  V30 3804 O 649.746 3.87688 7.92115 0
M  V30 3805 O 649.206 1.4459 7.59357 0
M  V30 3806 C 648.266 0.347608 7.69215 0
M  V30 3807 C 648.996 -0.96767 7.52806 0
M  V30 3808 O 649.206 -1.21036 6.1011 0
M  V30 3809 C 650.396 -1.04544 8.13308 0
M  V30 3810 O 650.786 -2.38311 8.41922 0
M  V30 3811 C 651.276 -0.491279 7.02284 0
M  V30 3812 C 650.566 -0.996264 5.77469 0
M  V30 3813 N 650.616 -0.0501916 4.62973 0
M  V30 3814 H 647.777 0.374722 8.67691 0
M  V30 3815 H 647.507 0.443485 6.90277 0
M  V30 3816 H 648.374 -1.75537 7.96793 0
M  V30 3817 P 652.336 -2.75334 8.47391 0
M  V30 3818 O 652.556 -3.84128 9.44797 0
M  V30 3819 O 653.126 -1.51947 8.68712 0
M  V30 3820 O 652.586 -3.29363 6.99321 0
M  V30 3821 C 651.646 -4.24011 6.4274 0
M  V30 3822 C 652.376 -5.20775 5.52155 0
M  V30 3823 O 652.586 -4.56534 4.22446 0
M  V30 3824 C 653.776 -5.62629 5.96531 0
M  V30 3825 O 654.166 -6.87667 5.41053 0
M  V30 3826 C 654.656 -4.52537 5.39283 0
M  V30 3827 C 653.946 -4.20027 4.08623 0
M  V30 3828 N 653.996 -2.76189 3.71603 0
M  V30 3829 H 651.157 -4.797 7.24003 0
M  V30 3830 H 650.887 -3.69856 5.84513 0
M  V30 3831 H 651.754 -6.10356 5.41441 0
M  V30 3832 P 655.716 -7.20834 5.23717 0
M  V30 3833 O 655.936 -8.66104 5.38572 0
M  V30 3834 O 656.506 -6.33544 6.1349 0
M  V30 3835 O 655.966 -6.7751 3.72168 0
M  V30 3836 C 655.026 -7.20825 2.7076 0
M  V30 3837 C 655.756 -7.45864 1.40599 0
M  V30 3838 O 655.966 -6.17651 0.734225 0
M  V30 3839 C 657.156 -8.05808 1.51899 0
M  V30 3840 O 657.546 -8.74358 0.335205 0
M  V30 3841 C 658.036 -6.83093 1.70294 0
M  V30 3842 C 657.326 -5.79992 0.836974 0
M  V30 3843 N 657.376 -4.41864 1.38293 0
M  V30 3844 H 654.537 -8.13644 3.0377 0
M  V30 3845 H 654.267 -6.42788 2.55485 0
M  V30 3846 H 655.134 -8.12039 0.792769 0
M  V30 3847 P 659.096 -8.91 -4.48406e-12 0
M  V30 3848 O 659.316 -10.1736 -0.733766 0
M  V30 3849 O 659.886 -8.73247 1.2395 0
M  V30 3850 O 659.346 -7.66872 -0.971405 0
M  V30 3851 C 658.406 -7.42212 -2.04614 0
M  V30 3852 C 659.136 -6.86059 -3.24661 0
M  V30 3853 O 659.346 -5.42847 -3.03646 0
M  V30 3854 C 660.536 -7.41196 -3.50753 0
M  V30 3855 O 660.926 -7.27073 -4.86816 0
M  V30 3856 C 661.416 -6.5273 -2.63741 0
M  V30 3857 C 660.706 -5.1842 -2.73198 0
M  V30 3858 N 660.756 -4.38668 -1.47808 0
M  V30 3859 C 660.906 -3.02239 -1.60048 0
M  V30 3860 O 660.996 -2.46459 -2.67869 0
M  V30 3861 N 660.946 -2.32436 -0.408571 0
M  V30 3862 C 660.856 -2.85471 0.854993 0
M  V30 3863 O 660.906 -2.12566 1.8531 0
M  V30 3864 C 660.706 -4.28918 0.887335 0
M  V30 3865 C 660.596 -4.91066 2.24619 0
M  V30 3866 C 660.656 -5.00349 -0.255399 0
M  V30 3867 H 657.916 -8.36803 -2.32493 0
M  V30 3868 H 657.647 -6.701 -1.71105 0
M  V30 3869 H 658.514 -7.03551 -4.13168 0
M  V30 3870 H 661.169 -4.59773 -3.53894 0
M  V30 3871 H 661.448 -6.88995 -1.59871 0
M  V30 3872 H 662.44 -6.46749 -3.03687 0
M  V30 3873 H 660.606 -8.46908 -3.20714 0
M  V30 3874 H 660.535 -6.08548 -0.206986 0
M  V30 3875 H 661.565 -5.34836 2.53099 0
M  V30 3876 H 659.828 -5.69638 2.2291 0
M  V30 3877 H 660.316 -4.13971 2.98044 0
M  V30 3878 H 661.052 -1.33211 -0.474216 0
M  V30 3879 P 662.476 -7.20834 -5.23717 0
M  V30 3880 O 662.696 -7.80006 -6.57415 0
M  V30 3881 O 663.266 -7.79416 -4.13051 0
M  V30 3882 O 662.726 -5.63315 -5.29344 0
M  V30 3883 C 661.786 -4.80318 -6.01954 0
M  V30 3884 C 662.516 -3.64202 -6.65911 0
M  V30 3885 O 662.726 -2.60736 -5.64823 0
M  V30 3886 C 663.916 -3.93521 -7.19518 0
M  V30 3887 O 664.306 -3.02071 -8.21205 0
M  V30 3888 C 664.796 -3.73047 -5.97036 0
M  V30 3889 C 664.086 -2.58828 -5.25741 0
M  V30 3890 N 664.136 -2.68068 -3.77503 0
M  V30 3891 C 664.056 -3.80474 -2.99159 0
M  V30 3892 N 664.126 -3.55622 -1.71925 0
M  V30 3893 C 664.276 -2.1832 -1.65733 0
M  V30 3894 C 664.406 -1.28842 -0.572777 0
M  V30 3895 N 664.416 -1.66875 0.70098 0
M  V30 3896 N 664.526 0.016788 -0.859836 0
M  V30 3897 C 664.516 0.398145 -2.13316 0
M  V30 3898 N 664.396 -0.328224 -3.22333 0
M  V30 3899 C 664.276 -1.62992 -2.90383 0
M  V30 3900 H 661.298 -5.40394 -6.8003 0
M  V30 3901 H 661.026 -4.41741 -5.32532 0
M  V30 3902 H 661.894 -3.26371 -7.47889 0
M  V30 3903 H 664.549 -1.64007 -5.56746 0
M  V30 3904 H 664.829 -4.63439 -5.3432 0
M  V30 3905 H 665.82 -3.44776 -6.25925 0
M  V30 3906 H 663.986 -4.96707 -7.57347 0
M  V30 3907 H 663.945 -4.8089 -3.39924 0
M  V30 3908 H 664.326 -2.66547 0.941919 0
M  V30 3909 H 664.515 -0.965341 1.44766 0
M  V30 3910 H 664.623 1.46427 -2.29697 0
M  V30 3911 P 665.856 -2.75334 -8.47391 0
M  V30 3912 O 666.076 -2.44571 -9.90142 0
M  V30 3913 O 666.646 -3.87688 -7.92115 0
M  V30 3914 O 666.106 -1.4459 -7.59357 0
M  V30 3915 C 665.166 -0.347608 -7.69215 0
M  V30 3916 C 665.896 0.96767 -7.52806 0
M  V30 3917 O 666.106 1.21036 -6.1011 0
M  V30 3918 C 667.296 1.04544 -8.13308 0
M  V30 3919 O 667.686 2.38311 -8.41922 0
M  V30 3920 C 668.176 0.491279 -7.02284 0
M  V30 3921 C 667.466 0.996264 -5.77469 0
M  V30 3922 N 667.516 0.0501916 -4.62973 0
M  V30 3923 H 664.677 -0.374722 -8.67691 0
M  V30 3924 H 664.407 -0.443485 -6.90277 0
M  V30 3925 H 665.274 1.75537 -7.96793 0
M  V30 3926 P 669.236 2.75334 -8.47391 0
M  V30 3927 O 669.456 3.84128 -9.44797 0
M  V30 3928 O 670.026 1.51947 -8.68712 0
M  V30 3929 O 669.486 3.29363 -6.99321 0
M  V30 3930 C 668.546 4.24011 -6.4274 0
M  V30 3931 C 669.276 5.20775 -5.52155 0
M  V30 3932 O 669.486 4.56534 -4.22446 0
M  V30 3933 C 670.676 5.62629 -5.96531 0
M  V30 3934 O 671.066 6.87667 -5.41053 0
M  V30 3935 C 671.556 4.52537 -5.39283 0
M  V30 3936 C 670.846 4.20027 -4.08623 0
M  V30 3937 N 670.896 2.76189 -3.71603 0
M  V30 3938 H 668.057 4.797 -7.24003 0
M  V30 3939 H 667.787 3.69856 -5.84513 0
M  V30 3940 H 668.654 6.10356 -5.41441 0
M  V30 3941 P 672.616 7.20834 -5.23717 0
M  V30 3942 O 672.836 8.66104 -5.38572 0
M  V30 3943 O 673.406 6.33544 -6.1349 0
M  V30 3944 O 672.866 6.7751 -3.72168 0
M  V30 3945 C 671.926 7.20825 -2.7076 0
M  V30 3946 C 672.656 7.45864 -1.40599 0
M  V30 3947 O 672.866 6.17651 -0.734225 0
M  V30 3948 C 674.056 8.05808 -1.51899 0
M  V30 3949 O 674.446 8.74358 -0.335205 0
M  V30 3950 C 674.936 6.83093 -1.70294 0
M  V30 3951 C 674.226 5.79992 -0.836974 0
M  V30 3952 N 674.276 4.41864 -1.38293 0
M  V30 3953 H 671.437 8.13644 -3.0377 0
M  V30 3954 H 671.167 6.42788 -2.55485 0
M  V30 3955 H 672.034 8.12039 -0.792769 0
M  V30 3956 P 675.996 8.91 4.64125e-12 0
M  V30 3957 O 676.216 10.1726 0.733694 0
M  V30 3958 O 676.786 8.73148 -1.23936 0
M  V30 3959 O 676.246 7.66872 0.971405 0
M  V30 3960 C 675.306 7.42309 2.04641 0
M  V30 3961 C 676.036 6.86059 3.24661 0
M  V30 3962 O 676.246 5.42847 3.03646 0
M  V30 3963 C 677.436 7.41196 3.50753 0
M  V30 3964 O 677.826 7.27073 4.86816 0
M  V30 3965 C 678.316 6.5273 2.63741 0
M  V30 3966 C 677.606 5.1842 2.73198 0
M  V30 3967 N 677.656 4.38762 1.4784 0
M  V30 3968 C 677.576 4.81605 0.168631 0
M  V30 3969 N 677.656 3.85454 -0.713363 0
M  V30 3970 C 677.796 2.6994 0.0566958 0
M  V30 3971 C 677.926 1.34815 -0.338502 0
M  V30 3972 N 678.046 0.496304 0.77465 0
M  V30 3973 C 678.046 0.908403 2.09122 0
M  V30 3974 N 678.176 -0.0517805 3.00955 0
M  V30 3975 N 677.916 2.17875 2.46519 0
M  V30 3976 C 677.796 3.01988 1.4033 0
M  V30 3977 H 674.817 8.36803 2.32493 0
M  V30 3978 H 674.547 6.70197 1.71129 0
M  V30 3979 H 675.414 7.03551 4.13168 0
M  V30 3980 P 679.376 7.20834 5.23717 0
M  V30 3981 O 679.596 7.79853 6.57286 0
M  V30 3982 O 680.166 7.79239 4.12957 0
M  V30 3983 O 679.626 5.63315 5.29344 0
M  V30 3984 C 678.686 4.80255 6.01876 0
M  V30 3985 C 679.416 3.64202 6.65911 0
M  V30 3986 O 679.626 2.60694 5.64732 0
M  V30 3987 C 680.816 3.93473 7.1943 0
M  V30 3988 O 681.206 3.02071 8.21205 0
M  V30 3989 C 681.696 3.73047 5.97036 0
M  V30 3990 C 680.986 2.58828 5.25741 0
M  V30 3991 N 681.036 2.68068 3.77503 0
M  V30 3992 H 678.197 5.40332 6.79951 0
M  V30 3993 H 677.927 4.41613 5.32378 0
M  V30 3994 H 678.794 3.26331 7.47797 0
M  V30 3995 P 682.756 2.75334 8.47391 0
M  V30 3996 O 682.976 2.44571 9.90142 0
M  V30 3997 O 683.546 3.87688 7.92115 0
M  V30 3998 O 683.006 1.4459 7.59357 0
M  V30 3999 C 682.066 0.347608 7.69215 0
M  V30 4000 C 682.796 -0.96767 7.52806 0
M  V30 4001 O 683.006 -1.21036 6.1011 0
M  V30 4002 C 684.196 -1.04544 8.13308 0
M  V30 4003 O 684.586 -2.38311 8.41922 0
M  V30 4004 C 685.076 -0.491279 7.02284 0
M  V30 4005 C 684.366 -0.996264 5.77469 0
M  V30 4006 N 684.416 -0.0501916 4.62973 0
M  V30 4007 H 681.577 0.374722 8.67691 0
M  V30 4008 H 681.307 0.443485 6.90277 0
M  V30 4009 H 682.174 -1.75537 7.96793 0
M  V30 4010 P 686.136 -2.75334 8.47391 0
M  V30 4011 O 686.356 -3.84128 9.44797 0
M  V30 4012 O 686.926 -1.51947 8.68712 0
M  V30 4013 O 686.386 -3.29363 6.99321 0
M  V30 4014 C 685.446 -4.24011 6.4274 0
M  V30 4015 C 686.176 -5.20775 5.52155 0
M  V30 4016 O 686.386 -4.56534 4.22446 0
M  V30 4017 C 687.576 -5.62629 5.96531 0
M  V30 4018 O 687.966 -6.87667 5.41053 0
M  V30 4019 C 688.456 -4.52537 5.39283 0
M  V30 4020 C 687.746 -4.20027 4.08623 0
M  V30 4021 N 687.796 -2.76189 3.71603 0
M  V30 4022 H 684.957 -4.797 7.24003 0
M  V30 4023 H 684.687 -3.69856 5.84513 0
M  V30 4024 H 685.554 -6.10356 5.41441 0
M  V30 4025 P 689.516 -7.20834 5.23717 0
M  V30 4026 O 689.736 -8.66104 5.38572 0
M  V30 4027 O 690.306 -6.33544 6.1349 0
M  V30 4028 O 689.766 -6.7751 3.72168 0
M  V30 4029 C 688.826 -7.20825 2.7076 0
M  V30 4030 C 689.556 -7.45864 1.40599 0
M  V30 4031 O 689.766 -6.17651 0.734225 0
M  V30 4032 C 690.956 -8.05808 1.51899 0
M  V30 4033 O 691.346 -8.74358 0.335205 0
M  V30 4034 C 691.836 -6.83093 1.70294 0
M  V30 4035 C 691.126 -5.79992 0.836974 0
M  V30 4036 N 691.176 -4.41864 1.38293 0
M  V30 4037 H 688.337 -8.13644 3.0377 0
M  V30 4038 H 688.067 -6.42788 2.55485 0
M  V30 4039 H 688.934 -8.12039 0.792769 0
M  V30 4040 P 692.896 -8.91 -4.67181e-12 0
M  V30 4041 O 693.116 -10.1726 -0.733694 0
M  V30 4042 O 693.686 -8.73148 1.23936 0
M  V30 4043 O 693.146 -7.66872 -0.971405 0
M  V30 4044 C 692.206 -7.42309 -2.04641 0
M  V30 4045 C 692.936 -6.86059 -3.24661 0
M  V30 4046 O 693.146 -5.42847 -3.03646 0
M  V30 4047 C 694.336 -7.41196 -3.50753 0
M  V30 4048 O 694.726 -7.27073 -4.86816 0
M  V30 4049 C 695.216 -6.5273 -2.63741 0
M  V30 4050 C 694.506 -5.1842 -2.73198 0
M  V30 4051 N 694.556 -4.38762 -1.4784 0
M  V30 4052 H 691.717 -8.36803 -2.32493 0
M  V30 4053 H 691.447 -6.70197 -1.71129 0
M  V30 4054 H 692.314 -7.03551 -4.13168 0
M  V30 4055 P 696.276 -7.20834 -5.23717 0
M  V30 4056 O 696.496 -7.79853 -6.57286 0
M  V30 4057 O 697.066 -7.79239 -4.12957 0
M  V30 4058 O 696.526 -5.63315 -5.29344 0
M  V30 4059 C 695.586 -4.80255 -6.01876 0
M  V30 4060 C 696.316 -3.64202 -6.65911 0
M  V30 4061 O 696.526 -2.60694 -5.64732 0
M  V30 4062 C 697.716 -3.93473 -7.1943 0
M  V30 4063 O 698.106 -3.02071 -8.21205 0
M  V30 4064 C 698.596 -3.73047 -5.97036 0
M  V30 4065 C 697.886 -2.58828 -5.25741 0
M  V30 4066 N 697.936 -2.68068 -3.77503 0
M  V30 4067 H 695.097 -5.40332 -6.79951 0
M  V30 4068 H 694.827 -4.41613 -5.32378 0
M  V30 4069 H 695.694 -3.26331 -7.47797 0
M  V30 4070 P 699.656 -2.75334 -8.47391 0
M  V30 4071 O 699.876 -2.44571 -9.90142 0
M  V30 4072 O 700.446 -3.87688 -7.92115 0
M  V30 4073 O 699.906 -1.4459 -7.59357 0
M  V30 4074 C 698.966 -0.347608 -7.69215 0
M  V30 4075 C 699.696 0.96767 -7.52806 0
M  V30 4076 O 699.906 1.21036 -6.1011 0
M  V30 4077 C 701.096 1.04544 -8.13308 0
M  V30 4078 O 701.486 2.38311 -8.41922 0
M  V30 4079 C 701.976 0.491279 -7.02284 0
M  V30 4080 C 701.266 0.996264 -5.77469 0
M  V30 4081 N 701.316 0.0501916 -4.62973 0
M  V30 4082 H 698.477 -0.374722 -8.67691 0
M  V30 4083 H 698.207 -0.443485 -6.90277 0
M  V30 4084 H 699.074 1.75537 -7.96793 0
M  V30 4085 P 703.036 2.75334 -8.47391 0
M  V30 4086 O 703.256 3.84128 -9.44797 0
M  V30 4087 O 703.826 1.51947 -8.68712 0
M  V30 4088 O 703.286 3.29363 -6.99321 0
M  V30 4089 C 702.346 4.24011 -6.4274 0
M  V30 4090 C 703.076 5.20775 -5.52155 0
M  V30 4091 O 703.286 4.56534 -4.22446 0
M  V30 4092 C 704.476 5.62629 -5.96531 0
M  V30 4093 O 704.866 6.87667 -5.41053 0
M  V30 4094 C 705.356 4.52537 -5.39283 0
M  V30 4095 C 704.646 4.20027 -4.08623 0
M  V30 4096 N 704.696 2.76189 -3.71603 0
M  V30 4097 H 701.857 4.797 -7.24003 0
M  V30 4098 H 701.587 3.69856 -5.84513 0
M  V30 4099 H 702.454 6.10356 -5.41441 0
M  V30 4100 P 706.416 7.20834 -5.23717 0
M  V30 4101 O 706.636 8.66189 -5.38625 0
M  V30 4102 O 707.206 6.33615 -6.1356 0
M  V30 4103 O 706.666 6.7751 -3.72168 0
M  V30 4104 C 705.726 7.20732 -2.70725 0
M  V30 4105 C 706.456 7.45864 -1.40599 0
M  V30 4106 O 706.666 6.17651 -0.734225 0
M  V30 4107 C 707.856 8.05808 -1.51899 0
M  V30 4108 O 708.246 8.74358 -0.335205 0
M  V30 4109 C 708.736 6.83093 -1.70294 0
M  V30 4110 C 708.026 5.79992 -0.836974 0
M  V30 4111 N 708.076 4.41769 -1.38263 0
M  V30 4112 C 708.226 3.38591 -0.481702 0
M  V30 4113 O 708.316 3.56839 0.718452 0
M  V30 4114 N 708.266 2.1206 -1.03569 0
M  V30 4115 C 708.176 1.80696 -2.36966 0
M  V30 4116 O 708.226 0.630473 -2.74862 0
M  V30 4117 C 708.026 2.94845 -3.23898 0
M  V30 4118 C 707.916 2.65253 -4.70362 0
M  V30 4119 C 707.976 4.19803 -2.73435 0
M  V30 4120 H 705.236 8.13644 -3.0377 0
M  V30 4121 H 704.967 6.42695 -2.55448 0
M  V30 4122 H 705.834 8.12039 -0.792769 0
M  V30 4123 H 708.489 5.79978 0.160587 0
M  V30 4124 H 708.768 6.51379 -2.75643 0
M  V30 4125 H 709.76 7.01734 -1.34462 0
M  V30 4126 H 707.926 8.73674 -2.38337 0
M  V30 4127 H 707.855 5.04492 -3.4095 0
M  V30 4128 H 708.885 2.83924 -5.1913 0
M  V30 4129 H 707.148 3.29824 -5.15163 0
M  V30 4130 H 707.636 1.59723 -4.84449 0
M  V30 4131 H 708.372 1.35644 -0.399345 0
M  V30 4132 P 709.796 8.91 4.82899e-12 0
M  V30 4133 O 710.016 10.1726 0.733694 0
M  V30 4134 O 710.586 8.73148 -1.23936 0
M  V30 4135 O 710.046 7.66872 0.971405 0
M  V30 4136 C 709.106 7.42309 2.04641 0
M  V30 4137 C 709.836 6.86059 3.24661 0
M  V30 4138 O 710.046 5.42847 3.03646 0
M  V30 4139 C 711.236 7.41196 3.50753 0
M  V30 4140 O 711.626 7.27073 4.86816 0
M  V30 4141 C 712.116 6.5273 2.63741 0
M  V30 4142 C 711.406 5.1842 2.73198 0
M  V30 4143 N 711.456 4.38762 1.4784 0
M  V30 4144 H 708.617 8.36803 2.32493 0
M  V30 4145 H 708.347 6.70197 1.71129 0
M  V30 4146 H 709.214 7.03551 4.13168 0
M  V30 4147 P 713.176 7.20834 5.23717 0
M  V30 4148 O 713.396 7.79853 6.57286 0
M  V30 4149 O 713.966 7.79239 4.12957 0
M  V30 4150 O 713.426 5.63315 5.29344 0
M  V30 4151 C 712.486 4.80255 6.01876 0
M  V30 4152 C 713.216 3.64202 6.65911 0
M  V30 4153 O 713.426 2.60694 5.64732 0
M  V30 4154 C 714.616 3.93473 7.1943 0
M  V30 4155 O 715.006 3.02071 8.21205 0
M  V30 4156 C 715.496 3.73047 5.97036 0
M  V30 4157 C 714.786 2.58828 5.25741 0
M  V30 4158 N 714.836 2.68068 3.77503 0
M  V30 4159 H 711.997 5.40332 6.79951 0
M  V30 4160 H 711.727 4.41613 5.32378 0
M  V30 4161 H 712.594 3.26331 7.47797 0
M  V30 4162 P 716.556 2.75334 8.47391 0
M  V30 4163 O 716.776 2.44571 9.90142 0
M  V30 4164 O 717.346 3.87688 7.92115 0
M  V30 4165 O 716.806 1.4459 7.59357 0
M  V30 4166 C 715.866 0.347608 7.69215 0
M  V30 4167 C 716.596 -0.96767 7.52806 0
M  V30 4168 O 716.806 -1.21036 6.1011 0
M  V30 4169 C 717.996 -1.04544 8.13308 0
M  V30 4170 O 718.386 -2.38311 8.41922 0
M  V30 4171 C 718.876 -0.491279 7.02284 0
M  V30 4172 C 718.166 -0.996264 5.77469 0
M  V30 4173 N 718.216 -0.0501916 4.62973 0
M  V30 4174 H 715.377 0.374722 8.67691 0
M  V30 4175 H 715.107 0.443485 6.90277 0
M  V30 4176 H 715.974 -1.75537 7.96793 0
M  V30 4177 P 719.936 -2.75334 8.47391 0
M  V30 4178 O 720.156 -3.84128 9.44797 0
M  V30 4179 O 720.726 -1.51947 8.68712 0
M  V30 4180 O 720.186 -3.29363 6.99321 0
M  V30 4181 C 719.246 -4.24011 6.4274 0
M  V30 4182 C 719.976 -5.20775 5.52155 0
M  V30 4183 O 720.186 -4.56534 4.22446 0
M  V30 4184 C 721.376 -5.62629 5.96531 0
M  V30 4185 O 721.766 -6.87667 5.41053 0
M  V30 4186 C 722.256 -4.52537 5.39283 0
M  V30 4187 C 721.546 -4.20027 4.08623 0
M  V30 4188 N 721.596 -2.76189 3.71603 0
M  V30 4189 H 718.757 -4.797 7.24003 0
M  V30 4190 H 718.487 -3.69856 5.84513 0
M  V30 4191 H 719.354 -6.10356 5.41441 0
M  V30 4192 P 723.316 -7.20834 5.23717 0
M  V30 4193 O 723.536 -8.66274 5.38678 0
M  V30 4194 O 724.106 -6.33687 6.13629 0
M  V30 4195 O 723.566 -6.7751 3.72168 0
M  V30 4196 C 722.626 -7.20919 2.70795 0
M  V30 4197 C 723.356 -7.45864 1.40599 0
M  V30 4198 O 723.566 -6.17751 0.734343 0
M  V30 4199 C 724.756 -8.05906 1.51917 0
M  V30 4200 O 725.146 -8.74358 0.335205 0
M  V30 4201 C 725.636 -6.83093 1.70294 0
M  V30 4202 C 724.926 -5.79992 0.836974 0
M  V30 4203 N 724.976 -4.41864 1.38293 0
M  V30 4204 H 722.138 -8.13738 3.03804 0
M  V30 4205 H 721.866 -6.42974 2.55559 0
M  V30 4206 H 722.734 -8.12139 0.792866 0
M  V30 4207 H 725.389 -5.80178 -0.160643 0
M  V30 4208 H 725.669 -6.51379 2.75643 0
M  V30 4209 H 726.66 -7.01832 1.3448 0
M  V30 4210 H 724.826 -8.73771 2.38364 0
M  V30 4211 P 726.696 -8.91 -4.98617e-12 0
M  V30 4212 O 726.916 -10.1726 -0.733694 0
M  V30 4213 O 727.486 -8.73148 1.23936 0
M  V30 4214 O 726.946 -7.66872 -0.971405 0
M  V30 4215 C 726.006 -7.42309 -2.04641 0
M  V30 4216 C 726.736 -6.86059 -3.24661 0
M  V30 4217 O 726.946 -5.42847 -3.03646 0
M  V30 4218 C 728.136 -7.41196 -3.50753 0
M  V30 4219 O 728.526 -7.27073 -4.86816 0
M  V30 4220 C 729.016 -6.5273 -2.63741 0
M  V30 4221 C 728.306 -5.1842 -2.73198 0
M  V30 4222 N 728.356 -4.38762 -1.4784 0
M  V30 4223 H 725.517 -8.36803 -2.32493 0
M  V30 4224 H 725.247 -6.70197 -1.71129 0
M  V30 4225 H 726.114 -7.03551 -4.13168 0
M  V30 4226 P 730.076 -7.20834 -5.23717 0
M  V30 4227 O 730.296 -7.79853 -6.57286 0
M  V30 4228 O 730.866 -7.79239 -4.12957 0
M  V30 4229 O 730.326 -5.63315 -5.29344 0
M  V30 4230 C 729.386 -4.80255 -6.01876 0
M  V30 4231 C 730.116 -3.64202 -6.65911 0
M  V30 4232 O 730.326 -2.60694 -5.64732 0
M  V30 4233 C 731.516 -3.93473 -7.1943 0
M  V30 4234 O 731.906 -3.02071 -8.21205 0
M  V30 4235 C 732.396 -3.73047 -5.97036 0
M  V30 4236 C 731.686 -2.58828 -5.25741 0
M  V30 4237 N 731.736 -2.68068 -3.77503 0
M  V30 4238 H 728.897 -5.40332 -6.79951 0
M  V30 4239 H 728.627 -4.41613 -5.32378 0
M  V30 4240 H 729.494 -3.26331 -7.47797 0
M  V30 4241 P 733.456 -2.75334 -8.47391 0
M  V30 4242 O 733.676 -2.44571 -9.90142 0
M  V30 4243 O 734.246 -3.87688 -7.92115 0
M  V30 4244 O 733.706 -1.4459 -7.59357 0
M  V30 4245 C 732.766 -0.347608 -7.69215 0
M  V30 4246 C 733.496 0.96767 -7.52806 0
M  V30 4247 O 733.706 1.21036 -6.1011 0
M  V30 4248 C 734.896 1.04544 -8.13308 0
M  V30 4249 O 735.286 2.38311 -8.41922 0
M  V30 4250 C 735.776 0.491279 -7.02284 0
M  V30 4251 C 735.066 0.996264 -5.77469 0
M  V30 4252 N 735.116 0.0501916 -4.62973 0
M  V30 4253 H 732.277 -0.374722 -8.67691 0
M  V30 4254 H 732.007 -0.443485 -6.90277 0
M  V30 4255 H 732.874 1.75537 -7.96793 0
M  V30 4256 P 736.836 2.75334 -8.47391 0
M  V30 4257 O 737.056 3.84128 -9.44797 0
M  V30 4258 O 737.626 1.51947 -8.68712 0
M  V30 4259 O 737.086 3.29363 -6.99321 0
M  V30 4260 C 736.146 4.24011 -6.4274 0
M  V30 4261 C 736.876 5.20775 -5.52155 0
M  V30 4262 O 737.086 4.56534 -4.22446 0
M  V30 4263 C 738.276 5.62629 -5.96531 0
M  V30 4264 O 738.666 6.87667 -5.41053 0
M  V30 4265 C 739.156 4.52537 -5.39283 0
M  V30 4266 C 738.446 4.20027 -4.08623 0
M  V30 4267 N 738.496 2.76189 -3.71603 0
M  V30 4268 H 735.657 4.797 -7.24003 0
M  V30 4269 H 735.387 3.69856 -5.84513 0
M  V30 4270 H 736.254 6.10356 -5.41441 0
M  V30 4271 P 740.216 7.20834 -5.23717 0
M  V30 4272 O 740.436 8.66104 -5.38572 0
M  V30 4273 O 741.006 6.33544 -6.1349 0
M  V30 4274 O 740.466 6.7751 -3.72168 0
M  V30 4275 C 739.526 7.20825 -2.7076 0
M  V30 4276 C 740.256 7.45864 -1.40599 0
M  V30 4277 O 740.466 6.17651 -0.734225 0
M  V30 4278 C 741.656 8.05808 -1.51899 0
M  V30 4279 O 742.046 8.74358 -0.335205 0
M  V30 4280 C 742.536 6.83093 -1.70294 0
M  V30 4281 C 741.826 5.79992 -0.836974 0
M  V30 4282 N 741.876 4.41864 -1.38293 0
M  V30 4283 H 739.037 8.13644 -3.0377 0
M  V30 4284 H 738.767 6.42788 -2.55485 0
M  V30 4285 H 739.634 8.12039 -0.792769 0
M  V30 4286 P 743.596 8.91 5.14336e-12 0
M  V30 4287 O 743.816 10.1726 0.733694 0
M  V30 4288 O 744.386 8.73148 -1.23936 0
M  V30 4289 O 743.846 7.66872 0.971405 0
M  V30 4290 C 742.906 7.42309 2.04641 0
M  V30 4291 C 743.636 6.86059 3.24661 0
M  V30 4292 O 743.846 5.42847 3.03646 0
M  V30 4293 C 745.036 7.41196 3.50753 0
M  V30 4294 O 745.426 7.27073 4.86816 0
M  V30 4295 C 745.916 6.5273 2.63741 0
M  V30 4296 C 745.206 5.1842 2.73198 0
M  V30 4297 N 745.256 4.38762 1.4784 0
M  V30 4298 H 742.417 8.36803 2.32493 0
M  V30 4299 H 742.147 6.70197 1.71129 0
M  V30 4300 H 743.014 7.03551 4.13168 0
M  V30 4301 P 746.976 7.20834 5.23717 0
M  V30 4302 O 747.196 7.79853 6.57286 0
M  V30 4303 O 747.766 7.79239 4.12957 0
M  V30 4304 O 747.226 5.63315 5.29344 0
M  V30 4305 C 746.286 4.80255 6.01876 0
M  V30 4306 C 747.016 3.64202 6.65911 0
M  V30 4307 O 747.226 2.60694 5.64732 0
M  V30 4308 C 748.416 3.93473 7.1943 0
M  V30 4309 O 748.806 3.02071 8.21205 0
M  V30 4310 C 749.296 3.73047 5.97036 0
M  V30 4311 C 748.586 2.58828 5.25741 0
M  V30 4312 N 748.636 2.68068 3.77503 0
M  V30 4313 C 748.556 3.79715 2.96723 0
M  V30 4314 N 748.636 3.5377 1.68852 0
M  V30 4315 C 748.776 2.15054 1.63254 0
M  V30 4316 C 748.906 1.28964 0.518571 0
M  V30 4317 O 748.926 1.56826 -0.679156 0
M  V30 4318 N 749.026 -0.0538097 0.918425 0
M  V30 4319 C 749.026 -0.494275 2.22578 0
M  V30 4320 N 749.156 -1.81086 2.40434 0
M  V30 4321 N 748.896 0.313645 3.27502 0
M  V30 4322 C 748.776 1.61829 2.91033 0
M  V30 4323 H 745.797 5.40332 6.79951 0
M  V30 4324 H 745.527 4.41613 5.32378 0
M  V30 4325 H 746.394 3.26331 7.47797 0
M  V30 4326 H 749.049 1.63422 5.56814 0
M  V30 4327 H 749.328 4.63374 5.34244 0
M  V30 4328 H 750.32 3.44728 6.25838 0
M  V30 4329 H 748.486 4.96652 7.57263 0
M  V30 4330 H 748.437 4.80617 3.3614 0
M  V30 4331 H 749.119 -0.742702 0.199384 0
M  V30 4332 H 749.156 -2.20598 3.35588 0
M  V30 4333 H 749.257 -2.43518 1.58945 0
M  V30 4334 P 750.356 2.75334 8.47391 0
M  V30 4335 O 750.576 2.44571 9.90142 0
M  V30 4336 O 751.146 3.87688 7.92115 0
M  V30 4337 O 750.606 1.4459 7.59357 0
M  V30 4338 C 749.666 0.347608 7.69215 0
M  V30 4339 C 750.396 -0.96767 7.52806 0
M  V30 4340 O 750.606 -1.21036 6.1011 0
M  V30 4341 C 751.796 -1.04544 8.13308 0
M  V30 4342 O 752.186 -2.38311 8.41922 0
M  V30 4343 C 752.676 -0.491279 7.02284 0
M  V30 4344 C 751.966 -0.996264 5.77469 0
M  V30 4345 N 752.016 -0.0501916 4.62973 0
M  V30 4346 C 751.936 1.32786 4.63244 0
M  V30 4347 N 752.016 1.86957 3.44545 0
M  V30 4348 C 752.156 0.780241 2.58481 0
M  V30 4349 C 752.286 0.738536 1.17757 0
M  V30 4350 O 752.306 1.66794 0.372349 0
M  V30 4351 N 752.406 -0.58337 0.711393 0
M  V30 4352 C 752.406 -1.70816 1.51017 0
M  V30 4353 N 752.536 -2.87826 0.880757 0
M  V30 4354 N 752.276 -1.67126 2.8339 0
M  V30 4355 C 752.156 -0.401421 3.30572 0
M  V30 4356 H 749.177 0.374722 8.67691 0
M  V30 4357 H 748.907 0.443485 6.90277 0
M  V30 4358 H 749.774 -1.75537 7.96793 0
M  V30 4359 H 752.429 -1.95076 5.46529 0
M  V30 4360 H 752.708 0.608565 7.04577 0
M  V30 4361 H 753.7 -0.889672 7.08939 0
M  V30 4362 H 751.866 -0.43308 9.04564 0
M  V30 4363 H 751.817 1.91249 5.54442 0
M  V30 4364 H 752.499 -0.718054 -0.275244 0
M  V30 4365 H 752.536 -3.75721 1.41832 0
M  V30 4366 H 752.637 -2.90436 -0.145468 0
M  V30 4367 P 753.736 -2.75334 8.47391 0
M  V30 4368 O 753.956 -3.84128 9.44797 0
M  V30 4369 O 754.526 -1.51947 8.68712 0
M  V30 4370 O 753.986 -3.29363 6.99321 0
M  V30 4371 C 753.046 -4.24011 6.4274 0
M  V30 4372 C 753.776 -5.20775 5.52155 0
M  V30 4373 O 753.986 -4.56534 4.22446 0
M  V30 4374 C 755.176 -5.62629 5.96531 0
M  V30 4375 O 755.566 -6.87667 5.41053 0
M  V30 4376 C 756.056 -4.52537 5.39283 0
M  V30 4377 C 755.346 -4.20027 4.08623 0
M  V30 4378 N 755.396 -2.76189 3.71603 0
M  V30 4379 H 752.557 -4.797 7.24003 0
M  V30 4380 H 752.287 -3.69856 5.84513 0
M  V30 4381 H 753.154 -6.10356 5.41441 0
M  V30 4382 P 757.116 -7.20834 5.23717 0
M  V30 4383 O 757.336 -8.66104 5.38572 0
M  V30 4384 O 757.906 -6.33544 6.1349 0
M  V30 4385 O 757.366 -6.7751 3.72168 0
M  V30 4386 C 756.426 -7.20825 2.7076 0
M  V30 4387 C 757.156 -7.45864 1.40599 0
M  V30 4388 O 757.366 -6.17651 0.734225 0
M  V30 4389 C 758.556 -8.05808 1.51899 0
M  V30 4390 O 758.946 -8.74358 0.335205 0
M  V30 4391 C 759.436 -6.83093 1.70294 0
M  V30 4392 C 758.726 -5.79992 0.836974 0
M  V30 4393 N 758.776 -4.41864 1.38293 0
M  V30 4394 H 755.937 -8.13644 3.0377 0
M  V30 4395 H 755.667 -6.42788 2.55485 0
M  V30 4396 H 756.534 -8.12039 0.792769 0
M  V30 4397 P 760.496 -8.91 -5.30054e-12 0
M  V30 4398 O 760.716 -10.1726 -0.733694 0
M  V30 4399 O 761.286 -8.73148 1.23936 0
M  V30 4400 O 760.746 -7.66872 -0.971405 0
M  V30 4401 C 759.806 -7.42309 -2.04641 0
M  V30 4402 C 760.536 -6.86059 -3.24661 0
M  V30 4403 O 760.746 -5.42847 -3.03646 0
M  V30 4404 C 761.936 -7.41196 -3.50753 0
M  V30 4405 O 762.326 -7.27073 -4.86816 0
M  V30 4406 C 762.816 -6.5273 -2.63741 0
M  V30 4407 C 762.106 -5.1842 -2.73198 0
M  V30 4408 N 762.156 -4.38762 -1.4784 0
M  V30 4409 H 759.317 -8.36803 -2.32493 0
M  V30 4410 H 759.047 -6.70197 -1.71129 0
M  V30 4411 H 759.914 -7.03551 -4.13168 0
M  V30 4412 P 763.875 -7.20834 -5.23717 0
M  V30 4413 O 764.095 -7.79853 -6.57286 0
M  V30 4414 O 764.665 -7.79239 -4.12957 0
M  V30 4415 O 764.125 -5.63315 -5.29344 0
M  V30 4416 C 763.185 -4.80255 -6.01876 0
M  V30 4417 C 763.915 -3.64202 -6.65911 0
M  V30 4418 O 764.125 -2.60694 -5.64732 0
M  V30 4419 C 765.315 -3.93473 -7.1943 0
M  V30 4420 O 765.705 -3.02071 -8.21205 0
M  V30 4421 C 766.195 -3.73047 -5.97036 0
M  V30 4422 C 765.485 -2.58828 -5.25741 0
M  V30 4423 N 765.535 -2.68068 -3.77503 0
M  V30 4424 C 765.455 -3.79715 -2.96723 0
M  V30 4425 N 765.535 -3.5377 -1.68852 0
M  V30 4426 C 765.675 -2.15054 -1.63254 0
M  V30 4427 C 765.805 -1.28964 -0.518571 0
M  V30 4428 O 765.825 -1.56826 0.679156 0
M  V30 4429 N 765.925 0.0538097 -0.918425 0
M  V30 4430 C 765.925 0.494275 -2.22578 0
M  V30 4431 N 766.055 1.81086 -2.40434 0
M  V30 4432 N 765.795 -0.313645 -3.27502 0
M  V30 4433 C 765.675 -1.61829 -2.91033 0
M  V30 4434 H 762.696 -5.40332 -6.79951 0
M  V30 4435 H 762.426 -4.41613 -5.32378 0
M  V30 4436 H 763.293 -3.26331 -7.47797 0
M  V30 4437 H 765.948 -1.63422 -5.56814 0
M  V30 4438 H 766.227 -4.63374 -5.34244 0
M  V30 4439 H 767.219 -3.44728 -6.25838 0
M  V30 4440 H 765.385 -4.96652 -7.57263 0
M  V30 4441 H 765.336 -4.80617 -3.3614 0
M  V30 4442 H 766.018 0.742702 -0.199384 0
M  V30 4443 H 766.055 2.20598 -3.35588 0
M  V30 4444 H 766.156 2.43518 -1.58945 0
M  V30 4445 P 767.255 -2.75334 -8.47391 0
M  V30 4446 O 767.475 -2.44595 -9.90239 0
M  V30 4447 O 768.045 -3.87732 -7.92204 0
M  V30 4448 O 767.505 -1.4459 -7.59357 0
M  V30 4449 C 766.565 -0.347563 -7.69115 0
M  V30 4450 C 767.295 0.96767 -7.52806 0
M  V30 4451 O 767.505 1.21036 -6.1011 0
M  V30 4452 C 768.695 1.04544 -8.13308 0
M  V30 4453 O 769.085 2.38311 -8.41922 0
M  V30 4454 C 769.575 0.491279 -7.02284 0
M  V30 4455 C 768.865 0.996264 -5.77469 0
M  V30 4456 N 768.915 0.0501808 -4.62873 0
M  V30 4457 C 769.065 0.588177 -3.36904 0
M  V30 4458 O 769.155 1.78598 -3.17173 0
M  V30 4459 N 769.105 -0.329694 -2.33686 0
M  V30 4460 C 769.015 -1.6953 -2.45079 0
M  V30 4461 C 768.865 -2.16933 -3.80505 0
M  V30 4462 C 768.815 -1.30326 -4.83752 0
M  V30 4463 H 766.075 -0.374722 -8.67691 0
M  V30 4464 H 765.806 -0.443421 -6.90177 0
M  V30 4465 H 766.673 1.75537 -7.96793 0
M  V30 4466 H 769.328 1.94496 -5.46629 0
M  V30 4467 H 769.607 -0.608651 -7.04676 0
M  V30 4468 H 770.599 0.889672 -7.08939 0
M  V30 4469 H 768.765 0.43308 -9.04564 0
M  V30 4470 H 768.694 -1.68366 -5.8516 0
M  V30 4471 P 770.635 2.75334 -8.47391 0
M  V30 4472 O 770.855 3.84128 -9.44797 0
M  V30 4473 O 771.425 1.51947 -8.68712 0
M  V30 4474 O 770.885 3.29363 -6.99321 0
M  V30 4475 C 769.945 4.24011 -6.4274 0
M  V30 4476 C 770.675 5.20775 -5.52155 0
M  V30 4477 O 770.885 4.56534 -4.22446 0
M  V30 4478 C 772.075 5.62629 -5.96531 0
M  V30 4479 O 772.465 6.87667 -5.41053 0
M  V30 4480 C 772.955 4.52537 -5.39283 0
M  V30 4481 C 772.245 4.20027 -4.08623 0
M  V30 4482 N 772.295 2.76189 -3.71603 0
M  V30 4483 H 769.456 4.797 -7.24003 0
M  V30 4484 H 769.186 3.69856 -5.84513 0
M  V30 4485 H 770.053 6.10356 -5.41441 0
M  V30 4486 P 774.015 7.20834 -5.23717 0
M  V30 4487 O 774.235 8.66104 -5.38572 0
M  V30 4488 O 774.805 6.33544 -6.1349 0
M  V30 4489 O 774.265 6.7751 -3.72168 0
M  V30 4490 C 773.325 7.20825 -2.7076 0
M  V30 4491 C 774.055 7.45864 -1.40599 0
M  V30 4492 O 774.265 6.17651 -0.734225 0
M  V30 4493 C 775.455 8.05808 -1.51899 0
M  V30 4494 O 775.845 8.74358 -0.335205 0
M  V30 4495 C 776.335 6.83093 -1.70294 0
M  V30 4496 C 775.625 5.79992 -0.836974 0
M  V30 4497 N 775.675 4.41864 -1.38293 0
M  V30 4498 H 772.836 8.13644 -3.0377 0
M  V30 4499 H 772.566 6.42788 -2.55485 0
M  V30 4500 H 773.433 8.12039 -0.792769 0
M  V30 4501 P 777.395 8.91 5.45772e-12 0
M  V30 4502 O 777.615 10.1726 0.733694 0
M  V30 4503 O 778.185 8.73148 -1.23936 0
M  V30 4504 O 777.645 7.66872 0.971405 0
M  V30 4505 C 776.705 7.42309 2.04641 0
M  V30 4506 C 777.435 6.86059 3.24661 0
M  V30 4507 O 777.645 5.42847 3.03646 0
M  V30 4508 C 778.835 7.41196 3.50753 0
M  V30 4509 O 779.225 7.27073 4.86816 0
M  V30 4510 C 779.715 6.5273 2.63741 0
M  V30 4511 C 779.005 5.1842 2.73198 0
M  V30 4512 N 779.055 4.38762 1.4784 0
M  V30 4513 C 778.975 4.81605 0.168631 0
M  V30 4514 N 779.055 3.85454 -0.713363 0
M  V30 4515 C 779.195 2.6994 0.0566958 0
M  V30 4516 C 779.325 1.34815 -0.338502 0
M  V30 4517 N 779.445 0.496304 0.77465 0
M  V30 4518 C 779.445 0.908403 2.09122 0
M  V30 4519 N 779.575 -0.0517805 3.00955 0
M  V30 4520 N 779.315 2.17875 2.46519 0
M  V30 4521 C 779.195 3.01988 1.4033 0
M  V30 4522 H 776.216 8.36803 2.32493 0
M  V30 4523 H 775.946 6.70197 1.71129 0
M  V30 4524 H 776.813 7.03551 4.13168 0
M  V30 4525 P 780.775 7.20834 5.23717 0
M  V30 4526 O 780.995 7.79853 6.57286 0
M  V30 4527 O 781.565 7.79239 4.12957 0
M  V30 4528 O 781.025 5.63315 5.29344 0
M  V30 4529 C 780.085 4.80255 6.01876 0
M  V30 4530 C 780.815 3.64202 6.65911 0
M  V30 4531 O 781.025 2.60694 5.64732 0
M  V30 4532 C 782.215 3.93473 7.1943 0
M  V30 4533 O 782.605 3.02071 8.21205 0
M  V30 4534 C 783.095 3.73047 5.97036 0
M  V30 4535 C 782.385 2.58828 5.25741 0
M  V30 4536 N 782.435 2.68068 3.77503 0
M  V30 4537 H 779.596 5.40332 6.79951 0
M  V30 4538 H 779.326 4.41613 5.32378 0
M  V30 4539 H 780.193 3.26331 7.47797 0
M  V30 4540 P 784.155 2.75334 8.47391 0
M  V30 4541 O 784.375 2.44571 9.90142 0
M  V30 4542 O 784.945 3.87688 7.92115 0
M  V30 4543 O 784.405 1.4459 7.59357 0
M  V30 4544 C 783.465 0.347608 7.69215 0
M  V30 4545 C 784.195 -0.96767 7.52806 0
M  V30 4546 O 784.405 -1.21036 6.1011 0
M  V30 4547 C 785.595 -1.04544 8.13308 0
M  V30 4548 O 785.985 -2.38311 8.41922 0
M  V30 4549 C 786.475 -0.491279 7.02284 0
M  V30 4550 C 785.765 -0.996264 5.77469 0
M  V30 4551 N 785.815 -0.0501916 4.62973 0
M  V30 4552 H 782.976 0.374722 8.67691 0
M  V30 4553 H 782.706 0.443485 6.90277 0
M  V30 4554 H 783.573 -1.75537 7.96793 0
M  V30 4555 P 787.535 -2.75334 8.47391 0
M  V30 4556 O 787.755 -3.84128 9.44797 0
M  V30 4557 O 788.325 -1.51947 8.68712 0
M  V30 4558 O 787.785 -3.29363 6.99321 0
M  V30 4559 C 786.845 -4.24011 6.4274 0
M  V30 4560 C 787.575 -5.20775 5.52155 0
M  V30 4561 O 787.785 -4.56534 4.22446 0
M  V30 4562 C 788.975 -5.62629 5.96531 0
M  V30 4563 O 789.365 -6.87667 5.41053 0
M  V30 4564 C 789.855 -4.52537 5.39283 0
M  V30 4565 C 789.145 -4.20027 4.08623 0
M  V30 4566 N 789.195 -2.76189 3.71603 0
M  V30 4567 H 786.356 -4.797 7.24003 0
M  V30 4568 H 786.086 -3.69856 5.84513 0
M  V30 4569 H 786.953 -6.10356 5.41441 0
M  V30 4570 P 790.915 -7.20834 5.23717 0
M  V30 4571 O 791.135 -8.66104 5.38572 0
M  V30 4572 O 791.705 -6.33544 6.1349 0
M  V30 4573 O 791.165 -6.7751 3.72168 0
M  V30 4574 C 790.225 -7.20825 2.7076 0
M  V30 4575 C 790.955 -7.45864 1.40599 0
M  V30 4576 O 791.165 -6.17651 0.734225 0
M  V30 4577 C 792.355 -8.05808 1.51899 0
M  V30 4578 O 792.745 -8.74358 0.335205 0
M  V30 4579 C 793.235 -6.83093 1.70294 0
M  V30 4580 C 792.525 -5.79992 0.836974 0
M  V30 4581 N 792.575 -4.41864 1.38293 0
M  V30 4582 H 789.736 -8.13644 3.0377 0
M  V30 4583 H 789.466 -6.42788 2.55485 0
M  V30 4584 H 790.333 -8.12039 0.792769 0
M  V30 4585 P 794.295 -8.91 -5.6149e-12 0
M  V30 4586 O 794.515 -10.1726 -0.733694 0
M  V30 4587 O 795.085 -8.73148 1.23936 0
M  V30 4588 O 794.545 -7.66872 -0.971405 0
M  V30 4589 C 793.605 -7.42309 -2.04641 0
M  V30 4590 C 794.335 -6.86059 -3.24661 0
M  V30 4591 O 794.545 -5.42847 -3.03646 0
M  V30 4592 C 795.735 -7.41196 -3.50753 0
M  V30 4593 O 796.125 -7.27073 -4.86816 0
M  V30 4594 C 796.615 -6.5273 -2.63741 0
M  V30 4595 C 795.905 -5.1842 -2.73198 0
M  V30 4596 N 795.955 -4.38762 -1.4784 0
M  V30 4597 H 793.116 -8.36803 -2.32493 0
M  V30 4598 H 792.846 -6.70197 -1.71129 0
M  V30 4599 H 793.713 -7.03551 -4.13168 0
M  V30 4600 P 797.675 -7.20834 -5.23717 0
M  V30 4601 O 797.895 -7.79853 -6.57286 0
M  V30 4602 O 798.465 -7.79239 -4.12957 0
M  V30 4603 O 797.925 -5.63315 -5.29344 0
M  V30 4604 C 796.985 -4.80255 -6.01876 0
M  V30 4605 C 797.715 -3.64202 -6.65911 0
M  V30 4606 O 797.925 -2.60694 -5.64732 0
M  V30 4607 C 799.115 -3.93473 -7.1943 0
M  V30 4608 O 799.505 -3.02071 -8.21205 0
M  V30 4609 C 799.995 -3.73047 -5.97036 0
M  V30 4610 C 799.285 -2.58828 -5.25741 0
M  V30 4611 N 799.335 -2.68068 -3.77503 0
M  V30 4612 H 796.496 -5.40332 -6.79951 0
M  V30 4613 H 796.226 -4.41613 -5.32378 0
M  V30 4614 H 797.093 -3.26331 -7.47797 0
M  V30 4615 P 801.055 -2.75334 -8.47391 0
M  V30 4616 O 801.275 -2.44571 -9.90142 0
M  V30 4617 O 801.845 -3.87688 -7.92115 0
M  V30 4618 O 801.305 -1.4459 -7.59357 0
M  V30 4619 C 800.365 -0.347608 -7.69215 0
M  V30 4620 C 801.095 0.96767 -7.52806 0
M  V30 4621 O 801.305 1.21036 -6.1011 0
M  V30 4622 C 802.495 1.04544 -8.13308 0
M  V30 4623 O 802.885 2.38311 -8.41922 0
M  V30 4624 C 803.375 0.491279 -7.02284 0
M  V30 4625 C 802.665 0.996264 -5.77469 0
M  V30 4626 N 802.715 0.0501916 -4.62973 0
M  V30 4627 H 799.876 -0.374722 -8.67691 0
M  V30 4628 H 799.606 -0.443485 -6.90277 0
M  V30 4629 H 800.473 1.75537 -7.96793 0
M  V30 4630 P 804.435 2.75334 -8.47391 0
M  V30 4631 O 804.655 3.84128 -9.44797 0
M  V30 4632 O 805.225 1.51947 -8.68712 0
M  V30 4633 O 804.685 3.29363 -6.99321 0
M  V30 4634 C 803.745 4.24011 -6.4274 0
M  V30 4635 C 804.475 5.20775 -5.52155 0
M  V30 4636 O 804.685 4.56534 -4.22446 0
M  V30 4637 C 805.875 5.62629 -5.96531 0
M  V30 4638 O 806.265 6.87667 -5.41053 0
M  V30 4639 C 806.755 4.52537 -5.39283 0
M  V30 4640 C 806.045 4.20027 -4.08623 0
M  V30 4641 N 806.095 2.76189 -3.71603 0
M  V30 4642 H 803.256 4.797 -7.24003 0
M  V30 4643 H 802.986 3.69856 -5.84513 0
M  V30 4644 H 803.853 6.10356 -5.41441 0
M  V30 4645 P 807.815 7.20834 -5.23717 0
M  V30 4646 O 808.035 8.66104 -5.38572 0
M  V30 4647 O 808.605 6.33544 -6.1349 0
M  V30 4648 O 808.065 6.7751 -3.72168 0
M  V30 4649 C 807.125 7.20825 -2.7076 0
M  V30 4650 C 807.855 7.45864 -1.40599 0
M  V30 4651 O 808.065 6.17651 -0.734225 0
M  V30 4652 C 809.255 8.05808 -1.51899 0
M  V30 4653 O 809.645 8.74358 -0.335205 0
M  V30 4654 C 810.135 6.83093 -1.70294 0
M  V30 4655 C 809.425 5.79992 -0.836974 0
M  V30 4656 N 809.475 4.41864 -1.38293 0
M  V30 4657 H 806.636 8.13644 -3.0377 0
M  V30 4658 H 806.366 6.42788 -2.55485 0
M  V30 4659 H 807.233 8.12039 -0.792769 0
M  V30 4660 P 811.195 8.91 5.77209e-12 0
M  V30 4661 O 811.415 10.1746 0.733838 0
M  V30 4662 O 811.985 8.73346 -1.23964 0
M  V30 4663 O 811.445 7.66872 0.971405 0
M  V30 4664 C 810.505 7.42405 2.04668 0
M  V30 4665 C 811.235 6.86059 3.24661 0
M  V30 4666 O 811.445 5.42934 3.03695 0
M  V30 4667 C 812.635 7.41287 3.50796 0
M  V30 4668 O 813.025 7.27073 4.86816 0
M  V30 4669 C 813.515 6.5273 2.63741 0
M  V30 4670 C 812.805 5.1842 2.73198 0
M  V30 4671 N 812.855 4.38762 1.4784 0
M  V30 4672 C 812.775 4.83651 0.183876 0
M  V30 4673 N 812.845 3.88759 -0.699393 0
M  V30 4674 C 812.995 2.7404 0.0575568 0
M  V30 4675 C 813.125 1.37902 -0.293928 0
M  V30 4676 N 813.135 0.938021 -1.54797 0
M  V30 4677 N 813.245 0.491817 0.70549 0
M  V30 4678 C 813.235 0.931735 1.95979 0
M  V30 4679 N 813.115 2.16017 2.41481 0
M  V30 4680 C 812.995 3.02547 1.39121 0
M  V30 4681 H 810.017 8.36899 2.3252 0
M  V30 4682 H 809.745 6.70391 1.71179 0
M  V30 4683 H 810.613 7.03638 4.13219 0
M  V30 4684 H 813.268 4.59931 3.54016 0
M  V30 4685 H 813.548 6.88995 1.59871 0
M  V30 4686 H 814.539 6.4684 3.0373 0
M  V30 4687 H 812.705 8.47002 3.20749 0
M  V30 4688 H 812.664 5.8885 -0.0765548 0
M  V30 4689 H 813.045 1.60276 -2.32875 0
M  V30 4690 H 813.234 -0.0699355 -1.73859 0
M  V30 4691 H 813.342 0.165507 2.71897 0
M  V30 4692 P 814.575 7.20834 5.23717 0
M  V30 4693 O 814.795 7.79853 6.57286 0
M  V30 4694 O 815.365 7.79239 4.12957 0
M  V30 4695 O 814.825 5.63315 5.29344 0
M  V30 4696 C 813.885 4.80255 6.01876 0
M  V30 4697 C 814.615 3.64202 6.65911 0
M  V30 4698 O 814.825 2.60694 5.64732 0
M  V30 4699 C 816.015 3.93473 7.1943 0
M  V30 4700 O 816.405 3.02071 8.21205 0
M  V30 4701 C 816.895 3.73047 5.97036 0
M  V30 4702 C 816.185 2.58828 5.25741 0
M  V30 4703 N 816.235 2.68068 3.77503 0
M  V30 4704 C 816.155 3.79715 2.96723 0
M  V30 4705 N 816.235 3.5377 1.68852 0
M  V30 4706 C 816.375 2.15054 1.63254 0
M  V30 4707 C 816.505 1.28964 0.518571 0
M  V30 4708 O 816.525 1.56826 -0.679156 0
M  V30 4709 N 816.625 -0.0538097 0.918425 0
M  V30 4710 C 816.625 -0.494275 2.22578 0
M  V30 4711 N 816.755 -1.81086 2.40434 0
M  V30 4712 N 816.495 0.313645 3.27502 0
M  V30 4713 C 816.375 1.61829 2.91033 0
M  V30 4714 H 813.396 5.40332 6.79951 0
M  V30 4715 H 813.126 4.41613 5.32378 0
M  V30 4716 H 813.993 3.26331 7.47797 0
M  V30 4717 H 816.648 1.63422 5.56814 0
M  V30 4718 H 816.927 4.63374 5.34244 0
M  V30 4719 H 817.919 3.44728 6.25838 0
M  V30 4720 H 816.085 4.96652 7.57263 0
M  V30 4721 H 816.036 4.80617 3.3614 0
M  V30 4722 H 816.718 -0.742702 0.199384 0
M  V30 4723 H 816.755 -2.20598 3.35588 0
M  V30 4724 H 816.856 -2.43518 1.58945 0
M  V30 4725 P 817.955 2.75334 8.47391 0
M  V30 4726 O 818.175 2.44595 9.90239 0
M  V30 4727 O 818.745 3.87732 7.92204 0
M  V30 4728 O 818.205 1.4459 7.59357 0
M  V30 4729 C 817.265 0.347563 7.69115 0
M  V30 4730 C 817.995 -0.96767 7.52806 0
M  V30 4731 O 818.205 -1.21036 6.1011 0
M  V30 4732 C 819.395 -1.04544 8.13308 0
M  V30 4733 O 819.785 -2.38311 8.41922 0
M  V30 4734 C 820.275 -0.491279 7.02284 0
M  V30 4735 C 819.565 -0.996264 5.77469 0
M  V30 4736 N 819.615 -0.0501808 4.62873 0
M  V30 4737 C 819.765 -0.588177 3.36904 0
M  V30 4738 O 819.855 -1.78598 3.17173 0
M  V30 4739 N 819.805 0.329694 2.33686 0
M  V30 4740 C 819.715 1.6953 2.45079 0
M  V30 4741 O 819.765 2.41926 1.44899 0
M  V30 4742 C 819.565 2.16933 3.80505 0
M  V30 4743 C 819.455 3.65373 3.97621 0
M  V30 4744 C 819.515 1.30326 4.83752 0
M  V30 4745 H 816.775 0.374722 8.67691 0
M  V30 4746 H 816.506 0.443421 6.90177 0
M  V30 4747 H 817.373 -1.75537 7.96793 0
M  V30 4748 H 820.028 -1.94496 5.46629 0
M  V30 4749 H 820.307 0.608651 7.04676 0
M  V30 4750 H 821.299 -0.889672 7.08939 0
M  V30 4751 H 819.465 -0.43308 9.04564 0
M  V30 4752 H 819.394 1.68366 5.8516 0
M  V30 4753 H 820.424 4.05985 4.30448 0
M  V30 4754 H 818.687 3.88028 4.72875 0
M  V30 4755 H 819.175 4.11381 3.01609 0
M  V30 4756 H 819.911 -0.0393617 1.41345 0
M  V30 4757 P 821.335 -2.75334 8.47391 0
M  V30 4758 O 821.555 -3.84128 9.44797 0
M  V30 4759 O 822.125 -1.51947 8.68712 0
M  V30 4760 O 821.585 -3.29363 6.99321 0
M  V30 4761 C 820.645 -4.24011 6.4274 0
M  V30 4762 C 821.375 -5.20775 5.52155 0
M  V30 4763 O 821.585 -4.56534 4.22446 0
M  V30 4764 C 822.775 -5.62629 5.96531 0
M  V30 4765 O 823.165 -6.87667 5.41053 0
M  V30 4766 C 823.655 -4.52537 5.39283 0
M  V30 4767 C 822.945 -4.20027 4.08623 0
M  V30 4768 N 822.995 -2.76189 3.71603 0
M  V30 4769 H 820.156 -4.797 7.24003 0
M  V30 4770 H 819.886 -3.69856 5.84513 0
M  V30 4771 H 820.753 -6.10356 5.41441 0
M  V30 4772 P 824.715 -7.20834 5.23717 0
M  V30 4773 O 824.935 -8.66104 5.38572 0
M  V30 4774 O 825.505 -6.33544 6.1349 0
M  V30 4775 O 824.965 -6.7751 3.72168 0
M  V30 4776 C 824.025 -7.20825 2.7076 0
M  V30 4777 C 824.755 -7.45864 1.40599 0
M  V30 4778 O 824.965 -6.17651 0.734225 0
M  V30 4779 C 826.155 -8.05808 1.51899 0
M  V30 4780 O 826.545 -8.74358 0.335205 0
M  V30 4781 C 827.035 -6.83093 1.70294 0
M  V30 4782 C 826.325 -5.79992 0.836974 0
M  V30 4783 N 826.375 -4.41864 1.38293 0
M  V30 4784 C 826.295 -3.99538 2.69438 0
M  V30 4785 N 826.375 -2.69909 2.84277 0
M  V30 4786 C 826.515 -2.21719 1.5408 0
M  V30 4787 C 826.645 -0.891712 1.06628 0
M  V30 4788 N 826.765 -0.856846 -0.334985 0
M  V30 4789 C 826.765 -1.9641 -1.15789 0
M  V30 4790 N 826.895 -1.72708 -2.46522 0
M  V30 4791 N 826.635 -3.21165 -0.713741 0
M  V30 4792 C 826.515 -3.26797 0.639748 0
M  V30 4793 H 823.536 -8.13644 3.0377 0
M  V30 4794 H 823.266 -6.42788 2.55485 0
M  V30 4795 H 824.133 -8.12039 0.792769 0
M  V30 4796 P 828.095 -8.91 -5.92927e-12 0
M  V30 4797 O 828.315 -10.1736 -0.733766 0
M  V30 4798 O 828.885 -8.73247 1.2395 0
M  V30 4799 O 828.345 -7.66872 -0.971405 0
M  V30 4800 C 827.405 -7.42212 -2.04614 0
M  V30 4801 C 828.135 -6.86059 -3.24661 0
M  V30 4802 O 828.345 -5.42847 -3.03646 0
M  V30 4803 C 829.535 -7.41196 -3.50753 0
M  V30 4804 O 829.925 -7.27073 -4.86816 0
M  V30 4805 C 830.415 -6.5273 -2.63741 0
M  V30 4806 C 829.705 -5.1842 -2.73198 0
M  V30 4807 N 829.755 -4.38668 -1.47808 0
M  V30 4808 C 829.905 -3.02239 -1.60048 0
M  V30 4809 O 829.995 -2.46459 -2.67869 0
M  V30 4810 N 829.945 -2.32436 -0.408571 0
M  V30 4811 C 829.855 -2.85471 0.854993 0
M  V30 4812 O 829.905 -2.12566 1.8531 0
M  V30 4813 C 829.705 -4.28918 0.887335 0
M  V30 4814 C 829.595 -4.91066 2.24619 0
M  V30 4815 C 829.655 -5.00349 -0.255399 0
M  V30 4816 H 826.915 -8.36803 -2.32493 0
M  V30 4817 H 826.646 -6.701 -1.71105 0
M  V30 4818 H 827.513 -7.03551 -4.13168 0
M  V30 4819 H 830.168 -4.59773 -3.53894 0
M  V30 4820 H 830.447 -6.88995 -1.59871 0
M  V30 4821 H 831.439 -6.46749 -3.03687 0
M  V30 4822 H 829.605 -8.46908 -3.20714 0
M  V30 4823 H 829.534 -6.08548 -0.206986 0
M  V30 4824 H 830.564 -5.34836 2.53099 0
M  V30 4825 H 828.827 -5.69638 2.2291 0
M  V30 4826 H 829.315 -4.13971 2.98044 0
M  V30 4827 H 830.051 -1.33211 -0.474216 0
M  V30 4828 P 831.475 -7.20834 -5.23717 0
M  V30 4829 O 831.695 -7.79853 -6.57286 0
M  V30 4830 O 832.265 -7.79239 -4.12957 0
M  V30 4831 O 831.725 -5.63315 -5.29344 0
M  V30 4832 C 830.785 -4.80255 -6.01876 0
M  V30 4833 C 831.515 -3.64202 -6.65911 0
M  V30 4834 O 831.725 -2.60694 -5.64732 0
M  V30 4835 C 832.915 -3.93473 -7.1943 0
M  V30 4836 O 833.305 -3.02071 -8.21205 0
M  V30 4837 C 833.795 -3.73047 -5.97036 0
M  V30 4838 C 833.085 -2.58828 -5.25741 0
M  V30 4839 N 833.135 -2.68068 -3.77503 0
M  V30 4840 H 830.296 -5.40332 -6.79951 0
M  V30 4841 H 830.026 -4.41613 -5.32378 0
M  V30 4842 H 830.893 -3.26331 -7.47797 0
M  V30 4843 P 834.855 -2.75334 -8.47391 0
M  V30 4844 O 835.075 -2.44571 -9.90142 0
M  V30 4845 O 835.645 -3.87688 -7.92115 0
M  V30 4846 O 835.105 -1.4459 -7.59357 0
M  V30 4847 C 834.165 -0.347608 -7.69215 0
M  V30 4848 C 834.895 0.96767 -7.52806 0
M  V30 4849 O 835.105 1.21036 -6.1011 0
M  V30 4850 C 836.295 1.04544 -8.13308 0
M  V30 4851 O 836.685 2.38311 -8.41922 0
M  V30 4852 C 837.175 0.491279 -7.02284 0
M  V30 4853 C 836.465 0.996264 -5.77469 0
M  V30 4854 N 836.515 0.0501916 -4.62973 0
M  V30 4855 H 833.676 -0.374722 -8.67691 0
M  V30 4856 H 833.406 -0.443485 -6.90277 0
M  V30 4857 H 834.273 1.75537 -7.96793 0
M  V30 4858 P 838.235 2.75334 -8.47391 0
M  V30 4859 O 838.455 3.84128 -9.44797 0
M  V30 4860 O 839.025 1.51947 -8.68712 0
M  V30 4861 O 838.485 3.29363 -6.99321 0
M  V30 4862 C 837.545 4.24011 -6.4274 0
M  V30 4863 C 838.275 5.20775 -5.52155 0
M  V30 4864 O 838.485 4.56534 -4.22446 0
M  V30 4865 C 839.675 5.62629 -5.96531 0
M  V30 4866 O 840.065 6.87667 -5.41053 0
M  V30 4867 C 840.555 4.52537 -5.39283 0
M  V30 4868 C 839.845 4.20027 -4.08623 0
M  V30 4869 N 839.895 2.76189 -3.71603 0
M  V30 4870 H 837.056 4.797 -7.24003 0
M  V30 4871 H 836.786 3.69856 -5.84513 0
M  V30 4872 H 837.653 6.10356 -5.41441 0
M  V30 4873 P 841.615 7.20834 -5.23717 0
M  V30 4874 O 841.835 8.66104 -5.38572 0
M  V30 4875 O 842.405 6.33544 -6.1349 0
M  V30 4876 O 841.865 6.7751 -3.72168 0
M  V30 4877 C 840.925 7.20825 -2.7076 0
M  V30 4878 C 841.655 7.45864 -1.40599 0
M  V30 4879 O 841.865 6.17651 -0.734225 0
M  V30 4880 C 843.055 8.05808 -1.51899 0
M  V30 4881 O 843.445 8.74358 -0.335205 0
M  V30 4882 C 843.935 6.83093 -1.70294 0
M  V30 4883 C 843.225 5.79992 -0.836974 0
M  V30 4884 N 843.275 4.41864 -1.38293 0
M  V30 4885 H 840.436 8.13644 -3.0377 0
M  V30 4886 H 840.166 6.42788 -2.55485 0
M  V30 4887 H 841.033 8.12039 -0.792769 0
M  V30 4888 P 844.995 8.91 6.08645e-12 0
M  V30 4889 O 845.215 10.1736 0.733766 0
M  V30 4890 O 845.785 8.73247 -1.2395 0
M  V30 4891 O 845.245 7.66872 0.971405 0
M  V30 4892 C 844.305 7.42212 2.04614 0
M  V30 4893 C 845.035 6.86059 3.24661 0
M  V30 4894 O 845.245 5.42847 3.03646 0
M  V30 4895 C 846.435 7.41196 3.50753 0
M  V30 4896 O 846.825 7.27073 4.86816 0
M  V30 4897 C 847.315 6.5273 2.63741 0
M  V30 4898 C 846.605 5.1842 2.73198 0
M  V30 4899 N 846.655 4.38668 1.47808 0
M  V30 4900 C 846.805 3.02239 1.60048 0
M  V30 4901 O 846.895 2.46459 2.67869 0
M  V30 4902 N 846.845 2.32436 0.408571 0
M  V30 4903 C 846.755 2.85471 -0.854993 0
M  V30 4904 C 846.605 4.28918 -0.887335 0
M  V30 4905 C 846.555 5.00349 0.255399 0
M  V30 4906 H 843.815 8.36803 2.32493 0
M  V30 4907 H 843.546 6.701 1.71105 0
M  V30 4908 H 844.413 7.03551 4.13168 0
M  V30 4909 H 847.068 4.59773 3.53894 0
M  V30 4910 H 847.347 6.88995 1.59871 0
M  V30 4911 H 848.339 6.46749 3.03687 0
M  V30 4912 H 846.505 8.46908 3.20714 0
M  V30 4913 H 846.434 6.08548 0.206986 0
M  V30 4914 P 848.375 7.20834 5.23717 0
M  V30 4915 O 848.595 7.79853 6.57286 0
M  V30 4916 O 849.165 7.79239 4.12957 0
M  V30 4917 O 848.625 5.63315 5.29344 0
M  V30 4918 C 847.685 4.80255 6.01876 0
M  V30 4919 C 848.415 3.64202 6.65911 0
M  V30 4920 O 848.625 2.60694 5.64732 0
M  V30 4921 C 849.815 3.93473 7.1943 0
M  V30 4922 O 850.205 3.02071 8.21205 0
M  V30 4923 C 850.695 3.73047 5.97036 0
M  V30 4924 C 849.985 2.58828 5.25741 0
M  V30 4925 N 850.035 2.68068 3.77503 0
M  V30 4926 H 847.196 5.40332 6.79951 0
M  V30 4927 H 846.926 4.41613 5.32378 0
M  V30 4928 H 847.793 3.26331 7.47797 0
M  V30 4929 P 851.755 2.75334 8.47391 0
M  V30 4930 O 851.975 2.44595 9.90239 0
M  V30 4931 O 852.545 3.87732 7.92204 0
M  V30 4932 O 852.005 1.4459 7.59357 0
M  V30 4933 C 851.065 0.347563 7.69115 0
M  V30 4934 C 851.795 -0.96767 7.52806 0
M  V30 4935 O 852.005 -1.21036 6.1011 0
M  V30 4936 C 853.195 -1.04544 8.13308 0
M  V30 4937 O 853.585 -2.38311 8.41922 0
M  V30 4938 C 854.075 -0.491279 7.02284 0
M  V30 4939 C 853.365 -0.996264 5.77469 0
M  V30 4940 N 853.415 -0.0501808 4.62873 0
M  V30 4941 C 853.565 -0.588177 3.36904 0
M  V30 4942 O 853.655 -1.78598 3.17173 0
M  V30 4943 N 853.605 0.329694 2.33686 0
M  V30 4944 C 853.515 1.6953 2.45079 0
M  V30 4945 O 853.565 2.41926 1.44899 0
M  V30 4946 C 853.365 2.16933 3.80505 0
M  V30 4947 C 853.255 3.65373 3.97621 0
M  V30 4948 C 853.315 1.30326 4.83752 0
M  V30 4949 H 850.575 0.374722 8.67691 0
M  V30 4950 H 850.306 0.443421 6.90177 0
M  V30 4951 H 851.173 -1.75537 7.96793 0
M  V30 4952 H 853.828 -1.94496 5.46629 0
M  V30 4953 H 854.107 0.608651 7.04676 0
M  V30 4954 H 855.099 -0.889672 7.08939 0
M  V30 4955 H 853.265 -0.43308 9.04564 0
M  V30 4956 H 853.194 1.68366 5.8516 0
M  V30 4957 H 854.224 4.05985 4.30448 0
M  V30 4958 H 852.487 3.88028 4.72875 0
M  V30 4959 H 852.975 4.11381 3.01609 0
M  V30 4960 H 853.711 -0.0393617 1.41345 0
M  V30 4961 P 855.135 -2.75334 8.47391 0
M  V30 4962 O 855.355 -3.84128 9.44797 0
M  V30 4963 O 855.925 -1.51947 8.68712 0
M  V30 4964 O 855.385 -3.29363 6.99321 0
M  V30 4965 C 854.445 -4.24011 6.4274 0
M  V30 4966 C 855.175 -5.20775 5.52155 0
M  V30 4967 O 855.385 -4.56534 4.22446 0
M  V30 4968 C 856.575 -5.62629 5.96531 0
M  V30 4969 O 856.965 -6.87667 5.41053 0
M  V30 4970 C 857.455 -4.52537 5.39283 0
M  V30 4971 C 856.745 -4.20027 4.08623 0
M  V30 4972 N 856.795 -2.76189 3.71603 0
M  V30 4973 H 853.956 -4.797 7.24003 0
M  V30 4974 H 853.686 -3.69856 5.84513 0
M  V30 4975 H 854.553 -6.10356 5.41441 0
M  V30 4976 P 858.515 -7.20834 5.23717 0
M  V30 4977 O 858.735 -8.66104 5.38572 0
M  V30 4978 O 859.305 -6.33544 6.1349 0
M  V30 4979 O 858.765 -6.7751 3.72168 0
M  V30 4980 C 857.825 -7.20825 2.7076 0
M  V30 4981 C 858.555 -7.45864 1.40599 0
M  V30 4982 O 858.765 -6.17651 0.734225 0
M  V30 4983 C 859.955 -8.05808 1.51899 0
M  V30 4984 O 860.345 -8.74358 0.335205 0
M  V30 4985 C 860.835 -6.83093 1.70294 0
M  V30 4986 C 860.125 -5.79992 0.836974 0
M  V30 4987 N 860.175 -4.41864 1.38293 0
M  V30 4988 H 857.336 -8.13644 3.0377 0
M  V30 4989 H 857.066 -6.42788 2.55485 0
M  V30 4990 H 857.933 -8.12039 0.792769 0
M  V30 4991 P 861.895 -8.91 -6.24363e-12 0
M  V30 4992 O 862.115 -10.1726 -0.733694 0
M  V30 4993 O 862.685 -8.73148 1.23936 0
M  V30 4994 O 862.145 -7.66872 -0.971405 0
M  V30 4995 C 861.205 -7.42309 -2.04641 0
M  V30 4996 C 861.935 -6.86059 -3.24661 0
M  V30 4997 O 862.145 -5.42847 -3.03646 0
M  V30 4998 C 863.335 -7.41196 -3.50753 0
M  V30 4999 O 863.725 -7.27073 -4.86816 0
M  V30 5000 C 864.215 -6.5273 -2.63741 0
M  V30 5001 C 863.505 -5.1842 -2.73198 0
M  V30 5002 N 863.555 -4.38762 -1.4784 0
M  V30 5003 H 860.716 -8.36803 -2.32493 0
M  V30 5004 H 860.446 -6.70197 -1.71129 0
M  V30 5005 H 861.313 -7.03551 -4.13168 0
M  V30 5006 P 865.275 -7.20834 -5.23717 0
M  V30 5007 O 865.495 -7.7993 -6.57351 0
M  V30 5008 O 866.065 -7.79328 -4.13004 0
M  V30 5009 O 865.525 -5.63315 -5.29344 0
M  V30 5010 C 864.585 -4.80193 -6.01798 0
M  V30 5011 C 865.315 -3.64202 -6.65911 0
M  V30 5012 O 865.525 -2.60694 -5.64732 0
M  V30 5013 C 866.715 -3.93473 -7.1943 0
M  V30 5014 O 867.105 -3.02071 -8.21205 0
M  V30 5015 C 867.595 -3.73047 -5.97036 0
M  V30 5016 C 866.885 -2.58828 -5.25741 0
M  V30 5017 N 866.935 -2.6801 -3.77422 0
M  V30 5018 C 867.085 -1.50443 -3.07133 0
M  V30 5019 O 867.175 -0.419406 -3.61576 0
M  V30 5020 N 867.125 -1.6403 -1.69677 0
M  V30 5021 C 867.035 -2.81206 -0.986255 0
M  V30 5022 O 867.085 -2.80892 0.249754 0
M  V30 5023 C 866.885 -3.99158 -1.80325 0
M  V30 5024 C 866.775 -5.29309 -1.06921 0
M  V30 5025 C 866.835 -3.89779 -3.1476 0
M  V30 5026 H 864.095 -5.40332 -6.79951 0
M  V30 5027 H 863.826 -4.41549 -5.32301 0
M  V30 5028 H 864.693 -3.26331 -7.47797 0
M  V30 5029 H 867.348 -1.6395 -5.56554 0
M  V30 5030 H 867.627 -4.63439 -5.3432 0
M  V30 5031 H 868.619 -3.44728 -6.25838 0
M  V30 5032 H 866.785 -4.96652 -7.57263 0
M  V30 5033 H 866.714 -4.80159 -3.74441 0
M  V30 5034 H 867.744 -5.81459 -1.09608 0
M  V30 5035 H 866.007 -5.9187 -1.54487 0
M  V30 5036 H 866.495 -5.10095 -0.0220288 0
M  V30 5037 H 867.231 -0.798962 -1.16664 0
M  V30 5038 P 868.655 -2.75334 -8.47391 0
M  V30 5039 O 868.875 -2.44571 -9.90142 0
M  V30 5040 O 869.445 -3.87688 -7.92115 0
M  V30 5041 O 868.905 -1.4459 -7.59357 0
M  V30 5042 C 867.965 -0.347608 -7.69215 0
M  V30 5043 C 868.695 0.96767 -7.52806 0
M  V30 5044 O 868.905 1.21036 -6.1011 0
M  V30 5045 C 870.095 1.04544 -8.13308 0
M  V30 5046 O 870.485 2.38311 -8.41922 0
M  V30 5047 C 870.975 0.491279 -7.02284 0
M  V30 5048 C 870.265 0.996264 -5.77469 0
M  V30 5049 N 870.315 0.0501916 -4.62973 0
M  V30 5050 H 867.476 -0.374722 -8.67691 0
M  V30 5051 H 867.206 -0.443485 -6.90277 0
M  V30 5052 H 868.073 1.75537 -7.96793 0
M  V30 5053 P 872.035 2.75334 -8.47391 0
M  V30 5054 O 872.255 3.84166 -9.4489 0
M  V30 5055 O 872.825 1.51964 -8.6881 0
M  V30 5056 O 872.285 3.29363 -6.99321 0
M  V30 5057 C 871.345 4.23956 -6.42656 0
M  V30 5058 C 872.075 5.20775 -5.52155 0
M  V30 5059 O 872.285 4.56534 -4.22446 0
M  V30 5060 C 873.475 5.62629 -5.96531 0
M  V30 5061 O 873.865 6.87667 -5.41053 0
M  V30 5062 C 874.355 4.52537 -5.39283 0
M  V30 5063 C 873.645 4.20027 -4.08623 0
M  V30 5064 N 873.695 2.7613 -3.71522 0
M  V30 5065 C 873.845 2.45612 -2.37989 0
M  V30 5066 O 873.935 3.30919 -1.51621 0
M  V30 5067 N 873.885 1.10684 -2.08435 0
M  V30 5068 C 873.795 0.0690084 -2.9792 0
M  V30 5069 C 873.645 0.481522 -4.35345 0
M  V30 5070 C 873.595 1.78906 -4.67968 0
M  V30 5071 H 870.855 4.797 -7.24003 0
M  V30 5072 H 870.586 3.69802 -5.84429 0
M  V30 5073 H 871.453 6.10356 -5.41441 0
M  V30 5074 H 874.108 4.78651 -3.27911 0
M  V30 5075 H 874.387 3.64957 -6.05871 0
M  V30 5076 H 875.379 4.8868 -5.2125 0
M  V30 5077 H 873.545 5.66726 -7.06352 0
M  V30 5078 H 873.474 2.07737 -5.72367 0
M  V30 5079 P 875.415 7.20834 -5.23717 0
M  V30 5080 O 875.635 8.66104 -5.38572 0
M  V30 5081 O 876.205 6.33544 -6.1349 0
M  V30 5082 O 875.665 6.7751 -3.72168 0
M  V30 5083 C 874.725 7.20825 -2.7076 0
M  V30 5084 C 875.455 7.45864 -1.40599 0
M  V30 5085 O 875.665 6.17651 -0.734225 0
M  V30 5086 C 876.855 8.05808 -1.51899 0
M  V30 5087 O 877.245 8.74358 -0.335205 0
M  V30 5088 C 877.735 6.83093 -1.70294 0
M  V30 5089 C 877.025 5.79992 -0.836974 0
M  V30 5090 N 877.075 4.41864 -1.38293 0
M  V30 5091 C 876.995 3.99538 -2.69438 0
M  V30 5092 N 877.075 2.69909 -2.84277 0
M  V30 5093 C 877.215 2.21719 -1.5408 0
M  V30 5094 C 877.345 0.891712 -1.06628 0
M  V30 5095 N 877.465 0.856846 0.334985 0
M  V30 5096 C 877.465 1.9641 1.15789 0
M  V30 5097 N 877.595 1.72708 2.46522 0
M  V30 5098 N 877.335 3.21165 0.713741 0
M  V30 5099 C 877.215 3.26797 -0.639748 0
M  V30 5100 H 874.236 8.13644 -3.0377 0
M  V30 5101 H 873.966 6.42788 -2.55485 0
M  V30 5102 H 874.833 8.12039 -0.792769 0
M  V30 5103 P 878.795 8.91 6.40081e-12 0
M  V30 5104 O 879.015 10.1726 0.733694 0
M  V30 5105 O 879.585 8.73148 -1.23936 0
M  V30 5106 O 879.045 7.66872 0.971405 0
M  V30 5107 C 878.105 7.42309 2.04641 0
M  V30 5108 C 878.835 6.86059 3.24661 0
M  V30 5109 O 879.045 5.42847 3.03646 0
M  V30 5110 C 880.235 7.41196 3.50753 0
M  V30 5111 O 880.625 7.27073 4.86816 0
M  V30 5112 C 881.115 6.5273 2.63741 0
M  V30 5113 C 880.405 5.1842 2.73198 0
M  V30 5114 N 880.455 4.38762 1.4784 0
M  V30 5115 H 877.616 8.36803 2.32493 0
M  V30 5116 H 877.346 6.70197 1.71129 0
M  V30 5117 H 878.213 7.03551 4.13168 0
M  V30 5118 P 882.175 7.20834 5.23717 0
M  V30 5119 O 882.395 7.79853 6.57286 0
M  V30 5120 O 882.965 7.79239 4.12957 0
M  V30 5121 O 882.425 5.63315 5.29344 0
M  V30 5122 C 881.485 4.80255 6.01876 0
M  V30 5123 C 882.215 3.64202 6.65911 0
M  V30 5124 O 882.425 2.60694 5.64732 0
M  V30 5125 C 883.615 3.93473 7.1943 0
M  V30 5126 O 884.005 3.02071 8.21205 0
M  V30 5127 C 884.495 3.73047 5.97036 0
M  V30 5128 C 883.785 2.58828 5.25741 0
M  V30 5129 N 883.835 2.68068 3.77503 0
M  V30 5130 H 880.996 5.40332 6.79951 0
M  V30 5131 H 880.726 4.41613 5.32378 0
M  V30 5132 H 881.593 3.26331 7.47797 0
M  V30 5133 P 885.555 2.75334 8.47391 0
M  V30 5134 O 885.775 2.44571 9.90142 0
M  V30 5135 O 886.345 3.87688 7.92115 0
M  V30 5136 O 885.805 1.4459 7.59357 0
M  V30 5137 C 884.865 0.347608 7.69215 0
M  V30 5138 C 885.595 -0.96767 7.52806 0
M  V30 5139 O 885.805 -1.21036 6.1011 0
M  V30 5140 C 886.995 -1.04544 8.13308 0
M  V30 5141 O 887.385 -2.38311 8.41922 0
M  V30 5142 C 887.875 -0.491279 7.02284 0
M  V30 5143 C 887.165 -0.996264 5.77469 0
M  V30 5144 N 887.215 -0.0501916 4.62973 0
M  V30 5145 H 884.376 0.374722 8.67691 0
M  V30 5146 H 884.106 0.443485 6.90277 0
M  V30 5147 H 884.973 -1.75537 7.96793 0
M  V30 5148 P 888.935 -2.75334 8.47391 0
M  V30 5149 O 889.155 -3.84204 9.44982 0
M  V30 5150 O 889.725 -1.51982 8.68909 0
M  V30 5151 O 889.185 -3.29363 6.99321 0
M  V30 5152 C 888.245 -4.24066 6.42823 0
M  V30 5153 C 888.975 -5.20775 5.52155 0
M  V30 5154 O 889.185 -4.56607 4.22514 0
M  V30 5155 C 890.375 -5.62697 5.96604 0
M  V30 5156 O 890.765 -6.87667 5.41053 0
M  V30 5157 C 891.255 -4.52537 5.39283 0
M  V30 5158 C 890.545 -4.20027 4.08623 0
M  V30 5159 N 890.595 -2.76189 3.71603 0
M  V30 5160 C 890.515 -1.66944 4.54297 0
M  V30 5161 N 890.585 -0.536169 3.91344 0
M  V30 5162 C 890.735 -0.901569 2.58849 0
M  V30 5163 C 890.865 -0.146599 1.40236 0
M  V30 5164 N 890.875 1.18234 1.37046 0
M  V30 5165 N 890.985 -0.822941 0.249738 0
M  V30 5166 C 890.975 -2.15179 0.280525 0
M  V30 5167 N 890.855 -2.96414 1.30822 0
M  V30 5168 C 890.735 -2.25804 2.44748 0
M  V30 5169 H 887.757 -4.79756 7.24086 0
M  V30 5170 H 887.485 -3.69963 5.84682 0
M  V30 5171 H 888.353 -6.10431 5.41508 0
M  V30 5172 H 891.008 -4.78816 3.28024 0
M  V30 5173 H 891.288 -3.64957 6.05871 0
M  V30 5174 H 892.279 -4.88748 5.21323 0
M  V30 5175 H 890.445 -5.66789 7.0643 0
M  V30 5176 H 890.404 -1.74684 5.62396 0
M  V30 5177 H 890.785 1.71949 2.24394 0
M  V30 5178 H 890.974 1.67511 0.470742 0
M  V30 5179 H 891.082 -2.63704 -0.6828 0
M  V30 5180 P 892.315 -7.20834 5.23717 0
M  V30 5181 O 892.535 -8.66274 5.38678 0
M  V30 5182 O 893.105 -6.33687 6.13629 0
M  V30 5183 O 892.565 -6.7751 3.72168 0
M  V30 5184 C 891.625 -7.20919 2.70795 0
M  V30 5185 C 892.355 -7.45864 1.40599 0
M  V30 5186 O 892.565 -6.17751 0.734343 0
M  V30 5187 C 893.755 -8.05906 1.51917 0
M  V30 5188 O 894.145 -8.74358 0.335205 0
M  V30 5189 C 894.635 -6.83093 1.70294 0
M  V30 5190 C 893.925 -5.79992 0.836974 0
M  V30 5191 N 893.975 -4.41864 1.38293 0
M  V30 5192 C 893.895 -4.02089 2.69407 0
M  V30 5193 N 893.965 -2.73403 2.85089 0
M  V30 5194 C 894.115 -2.25086 1.5642 0
M  V30 5195 C 894.245 -0.942887 1.04836 0
M  V30 5196 N 894.255 0.150999 1.80369 0
M  V30 5197 N 894.365 -0.812565 -0.28167 0
M  V30 5198 C 894.355 -1.90572 -1.03784 0
M  V30 5199 N 894.235 -3.167 -0.683905 0
M  V30 5200 C 894.115 -3.26538 0.652815 0
M  V30 5201 H 891.137 -8.13738 3.03804 0
M  V30 5202 H 890.865 -6.42974 2.55559 0
M  V30 5203 H 891.733 -8.12139 0.792866 0
M  V30 5204 H 894.388 -5.80178 -0.160643 0
M  V30 5205 H 894.668 -6.51379 2.75643 0
M  V30 5206 H 895.659 -7.01832 1.3448 0
M  V30 5207 H 893.825 -8.73771 2.38364 0
M  V30 5208 H 893.784 -4.7189 3.52311 0
M  V30 5209 H 894.165 0.0721434 2.82608 0
M  V30 5210 H 894.354 1.0785 1.36544 0
M  V30 5211 H 894.462 -1.73207 -2.10241 0
M  V30 5212 P 895.695 -8.91 -6.558e-12 0
M  V30 5213 O 895.915 -10.1726 -0.733694 0
M  V30 5214 O 896.485 -8.73148 1.23936 0
M  V30 5215 O 895.945 -7.66872 -0.971405 0
M  V30 5216 C 895.005 -7.42309 -2.04641 0
M  V30 5217 C 895.735 -6.86059 -3.24661 0
M  V30 5218 O 895.945 -5.42847 -3.03646 0
M  V30 5219 C 897.135 -7.41196 -3.50753 0
M  V30 5220 O 897.525 -7.27073 -4.86816 0
M  V30 5221 C 898.015 -6.5273 -2.63741 0
M  V30 5222 C 897.305 -5.1842 -2.73198 0
M  V30 5223 N 897.355 -4.38762 -1.4784 0
M  V30 5224 H 894.516 -8.36803 -2.32493 0
M  V30 5225 H 894.246 -6.70197 -1.71129 0
M  V30 5226 H 895.113 -7.03551 -4.13168 0
M  V30 5227 P 899.075 -7.20834 -5.23717 0
M  V30 5228 O 899.295 -7.79853 -6.57286 0
M  V30 5229 O 899.865 -7.79239 -4.12957 0
M  V30 5230 O 899.325 -5.63315 -5.29344 0
M  V30 5231 C 898.385 -4.80255 -6.01876 0
M  V30 5232 C 899.115 -3.64202 -6.65911 0
M  V30 5233 O 899.325 -2.60694 -5.64732 0
M  V30 5234 C 900.515 -3.93473 -7.1943 0
M  V30 5235 O 900.905 -3.02071 -8.21205 0
M  V30 5236 C 901.395 -3.73047 -5.97036 0
M  V30 5237 C 900.685 -2.58828 -5.25741 0
M  V30 5238 N 900.735 -2.68068 -3.77503 0
M  V30 5239 H 897.896 -5.40332 -6.79951 0
M  V30 5240 H 897.626 -4.41613 -5.32378 0
M  V30 5241 H 898.493 -3.26331 -7.47797 0
M  V30 5242 P 902.455 -2.75334 -8.47391 0
M  V30 5243 O 902.675 -2.44571 -9.90142 0
M  V30 5244 O 903.245 -3.87688 -7.92115 0
M  V30 5245 O 902.705 -1.4459 -7.59357 0
M  V30 5246 C 901.765 -0.347608 -7.69215 0
M  V30 5247 C 902.495 0.96767 -7.52806 0
M  V30 5248 O 902.705 1.21036 -6.1011 0
M  V30 5249 C 903.895 1.04544 -8.13308 0
M  V30 5250 O 904.285 2.38311 -8.41922 0
M  V30 5251 C 904.775 0.491279 -7.02284 0
M  V30 5252 C 904.065 0.996264 -5.77469 0
M  V30 5253 N 904.115 0.0501916 -4.62973 0
M  V30 5254 H 901.276 -0.374722 -8.67691 0
M  V30 5255 H 901.006 -0.443485 -6.90277 0
M  V30 5256 H 901.873 1.75537 -7.96793 0
M  V30 5257 P 905.835 2.75334 -8.47391 0
M  V30 5258 O 906.055 3.84128 -9.44797 0
M  V30 5259 O 906.625 1.51947 -8.68712 0
M  V30 5260 O 906.085 3.29363 -6.99321 0
M  V30 5261 C 905.145 4.24011 -6.4274 0
M  V30 5262 C 905.875 5.20775 -5.52155 0
M  V30 5263 O 906.085 4.56534 -4.22446 0
M  V30 5264 C 907.275 5.62629 -5.96531 0
M  V30 5265 O 907.665 6.87667 -5.41053 0
M  V30 5266 C 908.155 4.52537 -5.39283 0
M  V30 5267 C 907.445 4.20027 -4.08623 0
M  V30 5268 N 907.495 2.76189 -3.71603 0
M  V30 5269 H 904.656 4.797 -7.24003 0
M  V30 5270 H 904.386 3.69856 -5.84513 0
M  V30 5271 H 905.253 6.10356 -5.41441 0
M  V30 5272 P 909.215 7.20834 -5.23717 0
M  V30 5273 O 909.435 8.66104 -5.38572 0
M  V30 5274 O 910.005 6.33544 -6.1349 0
M  V30 5275 O 909.465 6.7751 -3.72168 0
M  V30 5276 C 908.525 7.20825 -2.7076 0
M  V30 5277 C 909.255 7.45864 -1.40599 0
M  V30 5278 O 909.465 6.17651 -0.734225 0
M  V30 5279 C 910.655 8.05808 -1.51899 0
M  V30 5280 O 911.045 8.74358 -0.335205 0
M  V30 5281 C 911.535 6.83093 -1.70294 0
M  V30 5282 C 910.825 5.79992 -0.836974 0
M  V30 5283 N 910.875 4.41864 -1.38293 0
M  V30 5284 C 910.795 3.99538 -2.69438 0
M  V30 5285 N 910.875 2.69909 -2.84277 0
M  V30 5286 C 911.015 2.21719 -1.5408 0
M  V30 5287 C 911.145 0.891712 -1.06628 0
M  V30 5288 O 911.165 -0.161298 -1.70137 0
M  V30 5289 N 911.265 0.856846 0.334985 0
M  V30 5290 C 911.265 1.9641 1.15789 0
M  V30 5291 N 911.395 1.72708 2.46522 0
M  V30 5292 N 911.135 3.21165 0.713741 0
M  V30 5293 C 911.015 3.26797 -0.639748 0
M  V30 5294 H 908.036 8.13644 -3.0377 0
M  V30 5295 H 907.766 6.42788 -2.55485 0
M  V30 5296 H 908.633 8.12039 -0.792769 0
M  V30 5297 H 911.288 5.80061 0.166416 0
M  V30 5298 H 911.567 6.51287 -2.75604 0
M  V30 5299 H 912.559 7.01734 -1.34462 0
M  V30 5300 H 910.725 8.73674 -2.38337 0
M  V30 5301 H 910.676 4.68207 -3.53221 0
M  V30 5302 H 911.358 -0.0398818 0.767965 0
M  V30 5303 H 911.395 2.50995 3.13503 0
M  V30 5304 H 911.496 0.759148 2.80716 0
M  V30 5305 P 912.595 8.91 6.71518e-12 0
M  V30 5306 O 912.815 10.1726 0.733694 0
M  V30 5307 O 913.385 8.73148 -1.23936 0
M  V30 5308 O 912.845 7.66872 0.971405 0
M  V30 5309 C 911.905 7.42309 2.04641 0
M  V30 5310 C 912.635 6.86059 3.24661 0
M  V30 5311 O 912.845 5.42847 3.03646 0
M  V30 5312 C 914.035 7.41196 3.50753 0
M  V30 5313 O 914.425 7.27073 4.86816 0
M  V30 5314 C 914.915 6.5273 2.63741 0
M  V30 5315 C 914.205 5.1842 2.73198 0
M  V30 5316 N 914.255 4.38762 1.4784 0
M  V30 5317 H 911.416 8.36803 2.32493 0
M  V30 5318 H 911.146 6.70197 1.71129 0
M  V30 5319 H 912.013 7.03551 4.13168 0
M  V30 5320 P 915.975 7.20834 5.23717 0
M  V30 5321 O 916.195 7.79853 6.57286 0
M  V30 5322 O 916.765 7.79239 4.12957 0
M  V30 5323 O 916.225 5.63315 5.29344 0
M  V30 5324 C 915.285 4.80255 6.01876 0
M  V30 5325 C 916.015 3.64202 6.65911 0
M  V30 5326 O 916.225 2.60694 5.64732 0
M  V30 5327 C 917.415 3.93473 7.1943 0
M  V30 5328 O 917.805 3.02071 8.21205 0
M  V30 5329 C 918.295 3.73047 5.97036 0
M  V30 5330 C 917.585 2.58828 5.25741 0
M  V30 5331 N 917.635 2.68068 3.77503 0
M  V30 5332 C 917.555 3.79715 2.96723 0
M  V30 5333 N 917.635 3.5377 1.68852 0
M  V30 5334 C 917.775 2.15054 1.63254 0
M  V30 5335 C 917.905 1.28964 0.518571 0
M  V30 5336 O 917.925 1.56826 -0.679156 0
M  V30 5337 N 918.025 -0.0538097 0.918425 0
M  V30 5338 C 918.025 -0.494275 2.22578 0
M  V30 5339 N 918.155 -1.81086 2.40434 0
M  V30 5340 N 917.895 0.313645 3.27502 0
M  V30 5341 C 917.775 1.61829 2.91033 0
M  V30 5342 H 914.796 5.40332 6.79951 0
M  V30 5343 H 914.526 4.41613 5.32378 0
M  V30 5344 H 915.393 3.26331 7.47797 0
M  V30 5345 H 918.048 1.63422 5.56814 0
M  V30 5346 H 918.327 4.63374 5.34244 0
M  V30 5347 H 919.319 3.44728 6.25838 0
M  V30 5348 H 917.485 4.96652 7.57263 0
M  V30 5349 H 917.436 4.80617 3.3614 0
M  V30 5350 H 918.118 -0.742702 0.199384 0
M  V30 5351 H 918.155 -2.20598 3.35588 0
M  V30 5352 H 918.256 -2.43518 1.58945 0
M  V30 5353 P 919.355 2.75334 8.47391 0
M  V30 5354 O 919.575 2.44571 9.90142 0
M  V30 5355 O 920.145 3.87688 7.92115 0
M  V30 5356 O 919.605 1.4459 7.59357 0
M  V30 5357 C 918.665 0.347608 7.69215 0
M  V30 5358 C 919.395 -0.96767 7.52806 0
M  V30 5359 O 919.605 -1.21036 6.1011 0
M  V30 5360 C 920.795 -1.04544 8.13308 0
M  V30 5361 O 921.185 -2.38311 8.41922 0
M  V30 5362 C 921.675 -0.491279 7.02284 0
M  V30 5363 C 920.965 -0.996264 5.77469 0
M  V30 5364 N 921.015 -0.0501916 4.62973 0
M  V30 5365 H 918.176 0.374722 8.67691 0
M  V30 5366 H 917.906 0.443485 6.90277 0
M  V30 5367 H 918.773 -1.75537 7.96793 0
M  V30 5368 P 922.735 -2.75334 8.47391 0
M  V30 5369 O 922.955 -3.84128 9.44797 0
M  V30 5370 O 923.525 -1.51947 8.68712 0
M  V30 5371 O 922.985 -3.29363 6.99321 0
M  V30 5372 C 922.045 -4.24011 6.4274 0
M  V30 5373 C 922.775 -5.20775 5.52155 0
M  V30 5374 O 922.985 -4.56534 4.22446 0
M  V30 5375 C 924.175 -5.62629 5.96531 0
M  V30 5376 O 924.565 -6.87667 5.41053 0
M  V30 5377 C 925.055 -4.52537 5.39283 0
M  V30 5378 C 924.345 -4.20027 4.08623 0
M  V30 5379 N 924.395 -2.76189 3.71603 0
M  V30 5380 H 921.556 -4.797 7.24003 0
M  V30 5381 H 921.286 -3.69856 5.84513 0
M  V30 5382 H 922.153 -6.10356 5.41441 0
M  V30 5383 P 926.115 -7.20834 5.23717 0
M  V30 5384 O 926.335 -8.66274 5.38678 0
M  V30 5385 O 926.905 -6.33687 6.13629 0
M  V30 5386 O 926.365 -6.7751 3.72168 0
M  V30 5387 C 925.425 -7.20919 2.70795 0
M  V30 5388 C 926.155 -7.45864 1.40599 0
M  V30 5389 O 926.365 -6.17751 0.734343 0
M  V30 5390 C 927.555 -8.05906 1.51917 0
M  V30 5391 O 927.945 -8.74358 0.335205 0
M  V30 5392 C 928.435 -6.83093 1.70294 0
M  V30 5393 C 927.725 -5.79992 0.836974 0
M  V30 5394 N 927.775 -4.41864 1.38293 0
M  V30 5395 C 927.695 -4.02089 2.69407 0
M  V30 5396 N 927.765 -2.73403 2.85089 0
M  V30 5397 C 927.915 -2.25086 1.5642 0
M  V30 5398 C 928.045 -0.942887 1.04836 0
M  V30 5399 N 928.055 0.150999 1.80369 0
M  V30 5400 N 928.165 -0.812565 -0.28167 0
M  V30 5401 C 928.155 -1.90572 -1.03784 0
M  V30 5402 N 928.035 -3.167 -0.683905 0
M  V30 5403 C 927.915 -3.26538 0.652815 0
M  V30 5404 H 924.937 -8.13738 3.03804 0
M  V30 5405 H 924.665 -6.42974 2.55559 0
M  V30 5406 H 925.533 -8.12139 0.792866 0
M  V30 5407 H 928.188 -5.80178 -0.160643 0
M  V30 5408 H 928.468 -6.51379 2.75643 0
M  V30 5409 H 929.459 -7.01832 1.3448 0
M  V30 5410 H 927.625 -8.73771 2.38364 0
M  V30 5411 H 927.584 -4.7189 3.52311 0
M  V30 5412 H 927.965 0.0721434 2.82608 0
M  V30 5413 H 928.154 1.0785 1.36544 0
M  V30 5414 H 928.262 -1.73207 -2.10241 0
M  V30 5415 P 929.495 -8.91 -6.87236e-12 0
M  V30 5416 O 929.715 -10.1726 -0.733694 0
M  V30 5417 O 930.285 -8.73148 1.23936 0
M  V30 5418 O 929.745 -7.66872 -0.971405 0
M  V30 5419 C 928.805 -7.42309 -2.04641 0
M  V30 5420 C 929.535 -6.86059 -3.24661 0
M  V30 5421 O 929.745 -5.42847 -3.03646 0
M  V30 5422 C 930.935 -7.41196 -3.50753 0
M  V30 5423 O 931.325 -7.27073 -4.86816 0
M  V30 5424 C 931.815 -6.5273 -2.63741 0
M  V30 5425 C 931.105 -5.1842 -2.73198 0
M  V30 5426 N 931.155 -4.38762 -1.4784 0
M  V30 5427 H 928.316 -8.36803 -2.32493 0
M  V30 5428 H 928.046 -6.70197 -1.71129 0
M  V30 5429 H 928.913 -7.03551 -4.13168 0
M  V30 5430 P 932.874 -7.20834 -5.23717 0
M  V30 5431 O 933.094 -7.79853 -6.57286 0
M  V30 5432 O 933.664 -7.79239 -4.12957 0
M  V30 5433 O 933.124 -5.63315 -5.29344 0
M  V30 5434 C 932.184 -4.80255 -6.01876 0
M  V30 5435 C 932.914 -3.64202 -6.65911 0
M  V30 5436 O 933.124 -2.60694 -5.64732 0
M  V30 5437 C 934.314 -3.93473 -7.1943 0
M  V30 5438 O 934.704 -3.02071 -8.21205 0
M  V30 5439 C 935.194 -3.73047 -5.97036 0
M  V30 5440 C 934.484 -2.58828 -5.25741 0
M  V30 5441 N 934.534 -2.68068 -3.77503 0
M  V30 5442 H 931.695 -5.40332 -6.79951 0
M  V30 5443 H 931.425 -4.41613 -5.32378 0
M  V30 5444 H 932.292 -3.26331 -7.47797 0
M  V30 5445 P 936.254 -2.75334 -8.47391 0
M  V30 5446 O 936.474 -2.44571 -9.90142 0
M  V30 5447 O 937.044 -3.87688 -7.92115 0
M  V30 5448 O 936.504 -1.4459 -7.59357 0
M  V30 5449 C 935.564 -0.347608 -7.69215 0
M  V30 5450 C 936.294 0.96767 -7.52806 0
M  V30 5451 O 936.504 1.21036 -6.1011 0
M  V30 5452 C 937.694 1.04544 -8.13308 0
M  V30 5453 O 938.084 2.38311 -8.41922 0
M  V30 5454 C 938.574 0.491279 -7.02284 0
M  V30 5455 C 937.864 0.996264 -5.77469 0
M  V30 5456 N 937.914 0.0501916 -4.62973 0
M  V30 5457 H 935.075 -0.374722 -8.67691 0
M  V30 5458 H 934.805 -0.443485 -6.90277 0
M  V30 5459 H 935.672 1.75537 -7.96793 0
M  V30 5460 P 939.634 2.75334 -8.47391 0
M  V30 5461 O 939.854 3.84128 -9.44797 0
M  V30 5462 O 940.424 1.51947 -8.68712 0
M  V30 5463 O 939.884 3.29363 -6.99321 0
M  V30 5464 C 938.944 4.24011 -6.4274 0
M  V30 5465 C 939.674 5.20775 -5.52155 0
M  V30 5466 O 939.884 4.56534 -4.22446 0
M  V30 5467 C 941.074 5.62629 -5.96531 0
M  V30 5468 O 941.464 6.87667 -5.41053 0
M  V30 5469 C 941.954 4.52537 -5.39283 0
M  V30 5470 C 941.244 4.20027 -4.08623 0
M  V30 5471 N 941.294 2.76189 -3.71603 0
M  V30 5472 H 938.455 4.797 -7.24003 0
M  V30 5473 H 938.185 3.69856 -5.84513 0
M  V30 5474 H 939.052 6.10356 -5.41441 0
M  V30 5475 P 943.014 7.20834 -5.23717 0
M  V30 5476 O 943.234 8.66189 -5.38625 0
M  V30 5477 O 943.804 6.33615 -6.1356 0
M  V30 5478 O 943.264 6.7751 -3.72168 0
M  V30 5479 C 942.324 7.20732 -2.70725 0
M  V30 5480 C 943.054 7.45864 -1.40599 0
M  V30 5481 O 943.264 6.17651 -0.734225 0
M  V30 5482 C 944.454 8.05808 -1.51899 0
M  V30 5483 O 944.844 8.74358 -0.335205 0
M  V30 5484 C 945.334 6.83093 -1.70294 0
M  V30 5485 C 944.624 5.79992 -0.836974 0
M  V30 5486 N 944.674 4.41769 -1.38263 0
M  V30 5487 C 944.824 3.38591 -0.481702 0
M  V30 5488 O 944.914 3.56839 0.718452 0
M  V30 5489 N 944.864 2.1206 -1.03569 0
M  V30 5490 C 944.774 1.80696 -2.36966 0
M  V30 5491 O 944.824 0.630473 -2.74862 0
M  V30 5492 C 944.624 2.94845 -3.23898 0
M  V30 5493 C 944.514 2.65253 -4.70362 0
M  V30 5494 C 944.574 4.19803 -2.73435 0
M  V30 5495 H 941.834 8.13644 -3.0377 0
M  V30 5496 H 941.565 6.42695 -2.55448 0
M  V30 5497 H 942.432 8.12039 -0.792769 0
M  V30 5498 H 945.087 5.79978 0.160587 0
M  V30 5499 H 945.366 6.51379 -2.75643 0
M  V30 5500 H 946.358 7.01734 -1.34462 0
M  V30 5501 H 944.524 8.73674 -2.38337 0
M  V30 5502 H 944.453 5.04492 -3.4095 0
M  V30 5503 H 945.483 2.83924 -5.1913 0
M  V30 5504 H 943.746 3.29824 -5.15163 0
M  V30 5505 H 944.234 1.59723 -4.84449 0
M  V30 5506 H 944.97 1.35644 -0.399345 0
M  V30 5507 P 946.394 8.91 7.02954e-12 0
M  V30 5508 O 946.614 10.1736 0.733766 0
M  V30 5509 O 947.184 8.73247 -1.2395 0
M  V30 5510 O 946.644 7.66872 0.971405 0
M  V30 5511 C 945.704 7.42212 2.04614 0
M  V30 5512 C 946.434 6.86059 3.24661 0
M  V30 5513 O 946.644 5.42847 3.03646 0
M  V30 5514 C 947.834 7.41196 3.50753 0
M  V30 5515 O 948.224 7.27073 4.86816 0
M  V30 5516 C 948.714 6.5273 2.63741 0
M  V30 5517 C 948.004 5.1842 2.73198 0
M  V30 5518 N 948.054 4.38668 1.47808 0
M  V30 5519 C 948.204 3.02239 1.60048 0
M  V30 5520 O 948.294 2.46459 2.67869 0
M  V30 5521 N 948.244 2.32436 0.408571 0
M  V30 5522 C 948.154 2.85471 -0.854993 0
M  V30 5523 O 948.204 2.12566 -1.8531 0
M  V30 5524 C 948.004 4.28918 -0.887335 0
M  V30 5525 C 947.894 4.91066 -2.24619 0
M  V30 5526 C 947.954 5.00349 0.255399 0
M  V30 5527 H 945.214 8.36803 2.32493 0
M  V30 5528 H 944.945 6.701 1.71105 0
M  V30 5529 H 945.812 7.03551 4.13168 0
M  V30 5530 H 948.467 4.59773 3.53894 0
M  V30 5531 H 948.746 6.88995 1.59871 0
M  V30 5532 H 949.738 6.46749 3.03687 0
M  V30 5533 H 947.904 8.46908 3.20714 0
M  V30 5534 H 947.833 6.08548 0.206986 0
M  V30 5535 H 948.863 5.34836 -2.53099 0
M  V30 5536 H 947.126 5.69638 -2.2291 0
M  V30 5537 H 947.614 4.13971 -2.98044 0
M  V30 5538 H 948.35 1.33211 0.474216 0
M  V30 5539 P 949.774 7.20834 5.23717 0
M  V30 5540 O 949.994 7.79853 6.57286 0
M  V30 5541 O 950.564 7.79239 4.12957 0
M  V30 5542 O 950.024 5.63315 5.29344 0
M  V30 5543 C 949.084 4.80255 6.01876 0
M  V30 5544 C 949.814 3.64202 6.65911 0
M  V30 5545 O 950.024 2.60694 5.64732 0
M  V30 5546 C 951.214 3.93473 7.1943 0
M  V30 5547 O 951.604 3.02071 8.21205 0
M  V30 5548 C 952.094 3.73047 5.97036 0
M  V30 5549 C 951.384 2.58828 5.25741 0
M  V30 5550 N 951.434 2.68068 3.77503 0
M  V30 5551 H 948.595 5.40332 6.79951 0
M  V30 5552 H 948.325 4.41613 5.32378 0
M  V30 5553 H 949.192 3.26331 7.47797 0
M  V30 5554 P 953.154 2.75334 8.47391 0
M  V30 5555 O 953.374 2.44571 9.90142 0
M  V30 5556 O 953.944 3.87688 7.92115 0
M  V30 5557 O 953.404 1.4459 7.59357 0
M  V30 5558 C 952.464 0.347608 7.69215 0
M  V30 5559 C 953.194 -0.96767 7.52806 0
M  V30 5560 O 953.404 -1.21036 6.1011 0
M  V30 5561 C 954.594 -1.04544 8.13308 0
M  V30 5562 O 954.984 -2.38311 8.41922 0
M  V30 5563 C 955.474 -0.491279 7.02284 0
M  V30 5564 C 954.764 -0.996264 5.77469 0
M  V30 5565 N 954.814 -0.0501916 4.62973 0
M  V30 5566 H 951.975 0.374722 8.67691 0
M  V30 5567 H 951.705 0.443485 6.90277 0
M  V30 5568 H 952.572 -1.75537 7.96793 0
M  V30 5569 P 956.534 -2.75334 8.47391 0
M  V30 5570 O 956.754 -3.84128 9.44797 0
M  V30 5571 O 957.324 -1.51947 8.68712 0
M  V30 5572 O 956.784 -3.29363 6.99321 0
M  V30 5573 C 955.844 -4.24011 6.4274 0
M  V30 5574 C 956.574 -5.20775 5.52155 0
M  V30 5575 O 956.784 -4.56534 4.22446 0
M  V30 5576 C 957.974 -5.62629 5.96531 0
M  V30 5577 O 958.364 -6.87667 5.41053 0
M  V30 5578 C 958.854 -4.52537 5.39283 0
M  V30 5579 C 958.144 -4.20027 4.08623 0
M  V30 5580 N 958.194 -2.76189 3.71603 0
M  V30 5581 H 955.355 -4.797 7.24003 0
M  V30 5582 H 955.085 -3.69856 5.84513 0
M  V30 5583 H 955.952 -6.10356 5.41441 0
M  V30 5584 P 959.914 -7.20834 5.23717 0
M  V30 5585 O 960.134 -8.66274 5.38678 0
M  V30 5586 O 960.704 -6.33687 6.13629 0
M  V30 5587 O 960.164 -6.7751 3.72168 0
M  V30 5588 C 959.224 -7.20919 2.70795 0
M  V30 5589 C 959.954 -7.45864 1.40599 0
M  V30 5590 O 960.164 -6.17751 0.734343 0
M  V30 5591 C 961.354 -8.05906 1.51917 0
M  V30 5592 O 961.744 -8.74358 0.335205 0
M  V30 5593 C 962.234 -6.83093 1.70294 0
M  V30 5594 C 961.524 -5.79992 0.836974 0
M  V30 5595 N 961.574 -4.41864 1.38293 0
M  V30 5596 C 961.494 -4.02089 2.69407 0
M  V30 5597 N 961.564 -2.73403 2.85089 0
M  V30 5598 C 961.714 -2.25086 1.5642 0
M  V30 5599 C 961.844 -0.942887 1.04836 0
M  V30 5600 N 961.854 0.150999 1.80369 0
M  V30 5601 N 961.964 -0.812565 -0.28167 0
M  V30 5602 C 961.954 -1.90572 -1.03784 0
M  V30 5603 N 961.834 -3.167 -0.683905 0
M  V30 5604 C 961.714 -3.26538 0.652815 0
M  V30 5605 H 958.736 -8.13738 3.03804 0
M  V30 5606 H 958.464 -6.42974 2.55559 0
M  V30 5607 H 959.332 -8.12139 0.792866 0
M  V30 5608 H 961.987 -5.80178 -0.160643 0
M  V30 5609 H 962.267 -6.51379 2.75643 0
M  V30 5610 H 963.258 -7.01832 1.3448 0
M  V30 5611 H 961.424 -8.73771 2.38364 0
M  V30 5612 H 961.383 -4.7189 3.52311 0
M  V30 5613 H 961.764 0.0721434 2.82608 0
M  V30 5614 H 961.953 1.0785 1.36544 0
M  V30 5615 H 962.061 -1.73207 -2.10241 0
M  V30 5616 P 963.294 -8.91 -7.18673e-12 0
M  V30 5617 O 963.514 -10.1726 -0.733694 0
M  V30 5618 O 964.084 -8.73148 1.23936 0
M  V30 5619 O 963.544 -7.66872 -0.971405 0
M  V30 5620 C 962.604 -7.42309 -2.04641 0
M  V30 5621 C 963.334 -6.86059 -3.24661 0
M  V30 5622 O 963.544 -5.42847 -3.03646 0
M  V30 5623 C 964.734 -7.41196 -3.50753 0
M  V30 5624 O 965.124 -7.27073 -4.86816 0
M  V30 5625 C 965.614 -6.5273 -2.63741 0
M  V30 5626 C 964.904 -5.1842 -2.73198 0
M  V30 5627 N 964.954 -4.38762 -1.4784 0
M  V30 5628 H 962.115 -8.36803 -2.32493 0
M  V30 5629 H 961.845 -6.70197 -1.71129 0
M  V30 5630 H 962.712 -7.03551 -4.13168 0
M  V30 5631 P 966.674 -7.20834 -5.23717 0
M  V30 5632 O 966.894 -7.79853 -6.57286 0
M  V30 5633 O 967.464 -7.79239 -4.12957 0
M  V30 5634 O 966.924 -5.63315 -5.29344 0
M  V30 5635 C 965.984 -4.80255 -6.01876 0
M  V30 5636 C 966.714 -3.64202 -6.65911 0
M  V30 5637 O 966.924 -2.60694 -5.64732 0
M  V30 5638 C 968.114 -3.93473 -7.1943 0
M  V30 5639 O 968.504 -3.02071 -8.21205 0
M  V30 5640 C 968.994 -3.73047 -5.97036 0
M  V30 5641 C 968.284 -2.58828 -5.25741 0
M  V30 5642 N 968.334 -2.68068 -3.77503 0
M  V30 5643 H 965.495 -5.40332 -6.79951 0
M  V30 5644 H 965.225 -4.41613 -5.32378 0
M  V30 5645 H 966.092 -3.26331 -7.47797 0
M  V30 5646 P 970.054 -2.75334 -8.47391 0
M  V30 5647 O 970.274 -2.44571 -9.90142 0
M  V30 5648 O 970.844 -3.87688 -7.92115 0
M  V30 5649 O 970.304 -1.4459 -7.59357 0
M  V30 5650 C 969.364 -0.347608 -7.69215 0
M  V30 5651 C 970.094 0.96767 -7.52806 0
M  V30 5652 O 970.304 1.21036 -6.1011 0
M  V30 5653 C 971.494 1.04544 -8.13308 0
M  V30 5654 O 971.884 2.38311 -8.41922 0
M  V30 5655 C 972.374 0.491279 -7.02284 0
M  V30 5656 C 971.664 0.996264 -5.77469 0
M  V30 5657 N 971.714 0.0501916 -4.62973 0
M  V30 5658 H 968.875 -0.374722 -8.67691 0
M  V30 5659 H 968.605 -0.443485 -6.90277 0
M  V30 5660 H 969.472 1.75537 -7.96793 0
M  V30 5661 P 973.434 2.75334 -8.47391 0
M  V30 5662 O 973.654 3.84128 -9.44797 0
M  V30 5663 O 974.224 1.51947 -8.68712 0
M  V30 5664 O 973.684 3.29363 -6.99321 0
M  V30 5665 C 972.744 4.24011 -6.4274 0
M  V30 5666 C 973.474 5.20775 -5.52155 0
M  V30 5667 O 973.684 4.56534 -4.22446 0
M  V30 5668 C 974.874 5.62629 -5.96531 0
M  V30 5669 O 975.264 6.87667 -5.41053 0
M  V30 5670 C 975.754 4.52537 -5.39283 0
M  V30 5671 C 975.044 4.20027 -4.08623 0
M  V30 5672 N 975.094 2.76189 -3.71603 0
M  V30 5673 H 972.255 4.797 -7.24003 0
M  V30 5674 H 971.985 3.69856 -5.84513 0
M  V30 5675 H 972.852 6.10356 -5.41441 0
M  V30 5676 P 976.814 7.20834 -5.23717 0
M  V30 5677 O 977.034 8.66104 -5.38572 0
M  V30 5678 O 977.604 6.33544 -6.1349 0
M  V30 5679 O 977.064 6.7751 -3.72168 0
M  V30 5680 C 976.124 7.20825 -2.7076 0
M  V30 5681 C 976.854 7.45864 -1.40599 0
M  V30 5682 O 977.064 6.17651 -0.734225 0
M  V30 5683 C 978.254 8.05808 -1.51899 0
M  V30 5684 O 978.644 8.74358 -0.335205 0
M  V30 5685 C 979.134 6.83093 -1.70294 0
M  V30 5686 C 978.424 5.79992 -0.836974 0
M  V30 5687 N 978.474 4.41864 -1.38293 0
M  V30 5688 H 975.635 8.13644 -3.0377 0
M  V30 5689 H 975.365 6.42788 -2.55485 0
M  V30 5690 H 976.232 8.12039 -0.792769 0
M  V30 5691 P 980.194 8.91 7.34391e-12 0
M  V30 5692 O 980.414 10.1726 0.733694 0
M  V30 5693 O 980.984 8.73148 -1.23936 0
M  V30 5694 O 980.444 7.66872 0.971405 0
M  V30 5695 C 979.504 7.42309 2.04641 0
M  V30 5696 C 980.234 6.86059 3.24661 0
M  V30 5697 O 980.444 5.42847 3.03646 0
M  V30 5698 C 981.634 7.41196 3.50753 0
M  V30 5699 O 982.024 7.27073 4.86816 0
M  V30 5700 C 982.514 6.5273 2.63741 0
M  V30 5701 C 981.804 5.1842 2.73198 0
M  V30 5702 N 981.854 4.38762 1.4784 0
M  V30 5703 H 979.015 8.36803 2.32493 0
M  V30 5704 H 978.745 6.70197 1.71129 0
M  V30 5705 H 979.612 7.03551 4.13168 0
M  V30 5706 P 983.574 7.20834 5.23717 0
M  V30 5707 O 983.794 7.80006 6.57415 0
M  V30 5708 O 984.364 7.79416 4.13051 0
M  V30 5709 O 983.824 5.63315 5.29344 0
M  V30 5710 C 982.884 4.80318 6.01954 0
M  V30 5711 C 983.614 3.64202 6.65911 0
M  V30 5712 O 983.824 2.60736 5.64823 0
M  V30 5713 C 985.014 3.93521 7.19518 0
M  V30 5714 O 985.404 3.02071 8.21205 0
M  V30 5715 C 985.894 3.73047 5.97036 0
M  V30 5716 C 985.184 2.58828 5.25741 0
M  V30 5717 N 985.234 2.68068 3.77503 0
M  V30 5718 H 982.396 5.40394 6.8003 0
M  V30 5719 H 982.124 4.41741 5.32532 0
M  V30 5720 H 982.992 3.26371 7.47889 0
M  V30 5721 H 985.647 1.64007 5.56746 0
M  V30 5722 H 985.927 4.63439 5.3432 0
M  V30 5723 H 986.918 3.44776 6.25925 0
M  V30 5724 H 985.084 4.96707 7.57347 0
M  V30 5725 P 986.954 2.75334 8.47391 0
M  V30 5726 O 987.174 2.44571 9.90142 0
M  V30 5727 O 987.744 3.87688 7.92115 0
M  V30 5728 O 987.204 1.4459 7.59357 0
M  V30 5729 C 986.264 0.347608 7.69215 0
M  V30 5730 C 986.994 -0.96767 7.52806 0
M  V30 5731 O 987.204 -1.21036 6.1011 0
M  V30 5732 C 988.394 -1.04544 8.13308 0
M  V30 5733 O 988.784 -2.38311 8.41922 0
M  V30 5734 C 989.274 -0.491279 7.02284 0
M  V30 5735 C 988.564 -0.996264 5.77469 0
M  V30 5736 N 988.614 -0.0501916 4.62973 0
M  V30 5737 H 985.775 0.374722 8.67691 0
M  V30 5738 H 985.505 0.443485 6.90277 0
M  V30 5739 H 986.372 -1.75537 7.96793 0
M  V30 5740 P 990.334 -2.75334 8.47391 0
M  V30 5741 O 990.554 -3.84128 9.44797 0
M  V30 5742 O 991.124 -1.51947 8.68712 0
M  V30 5743 O 990.584 -3.29363 6.99321 0
M  V30 5744 C 989.644 -4.24011 6.4274 0
M  V30 5745 C 990.374 -5.20775 5.52155 0
M  V30 5746 O 990.584 -4.56534 4.22446 0
M  V30 5747 C 991.774 -5.62629 5.96531 0
M  V30 5748 O 992.164 -6.87667 5.41053 0
M  V30 5749 C 992.654 -4.52537 5.39283 0
M  V30 5750 C 991.944 -4.20027 4.08623 0
M  V30 5751 N 991.994 -2.76189 3.71603 0
M  V30 5752 H 989.155 -4.797 7.24003 0
M  V30 5753 H 988.885 -3.69856 5.84513 0
M  V30 5754 H 989.752 -6.10356 5.41441 0
M  V30 5755 P 993.714 -7.20834 5.23717 0
M  V30 5756 O 993.934 -8.66104 5.38572 0
M  V30 5757 O 994.504 -6.33544 6.1349 0
M  V30 5758 O 993.964 -6.7751 3.72168 0
M  V30 5759 C 993.024 -7.20825 2.7076 0
M  V30 5760 C 993.754 -7.45864 1.40599 0
M  V30 5761 O 993.964 -6.17651 0.734225 0
M  V30 5762 C 995.154 -8.05808 1.51899 0
M  V30 5763 O 995.544 -8.74358 0.335205 0
M  V30 5764 C 996.034 -6.83093 1.70294 0
M  V30 5765 C 995.324 -5.79992 0.836974 0
M  V30 5766 N 995.374 -4.41864 1.38293 0
M  V30 5767 H 992.535 -8.13644 3.0377 0
M  V30 5768 H 992.265 -6.42788 2.55485 0
M  V30 5769 H 993.132 -8.12039 0.792769 0
M  V30 5770 P 997.094 -8.91 -7.50109e-12 0
M  V30 5771 O 997.314 -10.1726 -0.733694 0
M  V30 5772 O 997.884 -8.73148 1.23936 0
M  V30 5773 O 997.344 -7.66872 -0.971405 0
M  V30 5774 C 996.404 -7.42309 -2.04641 0
M  V30 5775 C 997.134 -6.86059 -3.24661 0
M  V30 5776 O 997.344 -5.42847 -3.03646 0
M  V30 5777 C 998.534 -7.41196 -3.50753 0
M  V30 5778 O 998.924 -7.27073 -4.86816 0
M  V30 5779 C 999.414 -6.5273 -2.63741 0
M  V30 5780 C 998.704 -5.1842 -2.73198 0
M  V30 5781 N 998.754 -4.38762 -1.4784 0
M  V30 5782 H 995.915 -8.36803 -2.32493 0
M  V30 5783 H 995.645 -6.70197 -1.71129 0
M  V30 5784 H 996.512 -7.03551 -4.13168 0
M  V30 5785 P 1000.47 -7.20834 -5.23717 0
M  V30 5786 O 1000.69 -7.79853 -6.57286 0
M  V30 5787 O 1001.26 -7.79239 -4.12957 0
M  V30 5788 O 1000.72 -5.63315 -5.29344 0
M  V30 5789 C 999.784 -4.80255 -6.01876 0
M  V30 5790 C 1000.51 -3.64202 -6.65911 0
M  V30 5791 O 1000.72 -2.60694 -5.64732 0
M  V30 5792 C 1001.91 -3.93473 -7.1943 0
M  V30 5793 O 1002.3 -3.02071 -8.21205 0
M  V30 5794 C 1002.79 -3.73047 -5.97036 0
M  V30 5795 C 1002.08 -2.58828 -5.25741 0
M  V30 5796 N 1002.13 -2.68068 -3.77503 0
M  V30 5797 C 1002.05 -3.79715 -2.96723 0
M  V30 5798 N 1002.13 -3.5377 -1.68852 0
M  V30 5799 C 1002.27 -2.15054 -1.63254 0
M  V30 5800 C 1002.4 -1.28964 -0.518571 0
M  V30 5801 N 1002.52 0.0538097 -0.918425 0
M  V30 5802 C 1002.52 0.494275 -2.22578 0
M  V30 5803 N 1002.65 1.81086 -2.40434 0
M  V30 5804 N 1002.39 -0.313645 -3.27502 0
M  V30 5805 C 1002.27 -1.61829 -2.91033 0
M  V30 5806 H 999.295 -5.40332 -6.79951 0
M  V30 5807 H 999.025 -4.41613 -5.32378 0
M  V30 5808 H 999.892 -3.26331 -7.47797 0
M  V30 5809 P 1003.85 -2.75334 -8.47391 0
M  V30 5810 O 1004.07 -2.44571 -9.90142 0
M  V30 5811 O 1004.64 -3.87688 -7.92115 0
M  V30 5812 O 1004.1 -1.4459 -7.59357 0
M  V30 5813 C 1003.16 -0.347608 -7.69215 0
M  V30 5814 C 1003.89 0.96767 -7.52806 0
M  V30 5815 O 1004.1 1.21036 -6.1011 0
M  V30 5816 C 1005.29 1.04544 -8.13308 0
M  V30 5817 O 1005.68 2.38311 -8.41922 0
M  V30 5818 C 1006.17 0.491279 -7.02284 0
M  V30 5819 C 1005.46 0.996264 -5.77469 0
M  V30 5820 N 1005.51 0.0501916 -4.62973 0
M  V30 5821 H 1002.68 -0.374722 -8.67691 0
M  V30 5822 H 1002.41 -0.443485 -6.90277 0
M  V30 5823 H 1003.27 1.75537 -7.96793 0
M  V30 5824 P 1007.23 2.75334 -8.47391 0
M  V30 5825 O 1007.45 3.84166 -9.4489 0
M  V30 5826 O 1008.02 1.51964 -8.6881 0
M  V30 5827 O 1007.48 3.29363 -6.99321 0
M  V30 5828 C 1006.54 4.23956 -6.42656 0
M  V30 5829 C 1007.27 5.20775 -5.52155 0
M  V30 5830 O 1007.48 4.56534 -4.22446 0
M  V30 5831 C 1008.67 5.62629 -5.96531 0
M  V30 5832 O 1009.06 6.87667 -5.41053 0
M  V30 5833 C 1009.55 4.52537 -5.39283 0
M  V30 5834 C 1008.84 4.20027 -4.08623 0
M  V30 5835 N 1008.89 2.7613 -3.71522 0
M  V30 5836 C 1009.04 2.45612 -2.37989 0
M  V30 5837 O 1009.13 3.30919 -1.51621 0
M  V30 5838 N 1009.08 1.10684 -2.08435 0
M  V30 5839 C 1008.99 0.0690084 -2.9792 0
M  V30 5840 O 1009.04 -1.10553 -2.59426 0
M  V30 5841 C 1008.84 0.481522 -4.35345 0
M  V30 5842 C 1008.73 -0.618778 -5.36443 0
M  V30 5843 C 1008.79 1.78906 -4.67968 0
M  V30 5844 H 1006.05 4.797 -7.24003 0
M  V30 5845 H 1005.79 3.69802 -5.84429 0
M  V30 5846 H 1006.65 6.10356 -5.41441 0
M  V30 5847 H 1009.31 4.78651 -3.27911 0
M  V30 5848 H 1009.59 3.64957 -6.05871 0
M  V30 5849 H 1010.58 4.8868 -5.2125 0
M  V30 5850 H 1008.74 5.66726 -7.06352 0
M  V30 5851 H 1008.67 2.07737 -5.72367 0
M  V30 5852 H 1009.7 -0.754375 -5.86871 0
M  V30 5853 H 1007.97 -0.359721 -6.10641 0
M  V30 5854 H 1008.45 -1.55533 -4.8581 0
M  V30 5855 H 1009.19 0.862651 -1.12037 0
M  V30 5856 P 1010.61 7.20834 -5.23717 0
M  V30 5857 O 1010.83 8.66104 -5.38572 0
M  V30 5858 O 1011.4 6.33544 -6.1349 0
M  V30 5859 O 1010.86 6.7751 -3.72168 0
M  V30 5860 C 1009.92 7.20825 -2.7076 0
M  V30 5861 C 1010.65 7.45864 -1.40599 0
M  V30 5862 O 1010.86 6.17651 -0.734225 0
M  V30 5863 C 1012.05 8.05808 -1.51899 0
M  V30 5864 O 1012.44 8.74358 -0.335205 0
M  V30 5865 C 1012.93 6.83093 -1.70294 0
M  V30 5866 C 1012.22 5.79992 -0.836974 0
M  V30 5867 N 1012.27 4.41864 -1.38293 0
M  V30 5868 H 1009.44 8.13644 -3.0377 0
M  V30 5869 H 1009.17 6.42788 -2.55485 0
M  V30 5870 H 1010.03 8.12039 -0.792769 0
M  V30 5871 P 1013.99 8.91 7.65827e-12 0
M  V30 5872 O 1014.21 10.1726 0.733694 0
M  V30 5873 O 1014.78 8.73148 -1.23936 0
M  V30 5874 O 1014.24 7.66872 0.971405 0
M  V30 5875 C 1013.3 7.42309 2.04641 0
M  V30 5876 C 1014.03 6.86059 3.24661 0
M  V30 5877 O 1014.24 5.42847 3.03646 0
M  V30 5878 C 1015.43 7.41196 3.50753 0
M  V30 5879 O 1015.82 7.27073 4.86816 0
M  V30 5880 C 1016.31 6.5273 2.63741 0
M  V30 5881 C 1015.6 5.1842 2.73198 0
M  V30 5882 N 1015.65 4.38762 1.4784 0
M  V30 5883 H 1012.82 8.36803 2.32493 0
M  V30 5884 H 1012.55 6.70197 1.71129 0
M  V30 5885 H 1013.41 7.03551 4.13168 0
M  V30 5886 P 1017.37 7.20834 5.23717 0
M  V30 5887 O 1017.59 7.79853 6.57286 0
M  V30 5888 O 1018.16 7.79239 4.12957 0
M  V30 5889 O 1017.62 5.63315 5.29344 0
M  V30 5890 C 1016.68 4.80255 6.01876 0
M  V30 5891 C 1017.41 3.64202 6.65911 0
M  V30 5892 O 1017.62 2.60694 5.64732 0
M  V30 5893 C 1018.81 3.93473 7.1943 0
M  V30 5894 O 1019.2 3.02071 8.21205 0
M  V30 5895 C 1019.69 3.73047 5.97036 0
M  V30 5896 C 1018.98 2.58828 5.25741 0
M  V30 5897 N 1019.03 2.68068 3.77503 0
M  V30 5898 C 1018.95 3.79715 2.96723 0
M  V30 5899 N 1019.03 3.5377 1.68852 0
M  V30 5900 C 1019.17 2.15054 1.63254 0
M  V30 5901 C 1019.3 1.28964 0.518571 0
M  V30 5902 N 1019.42 -0.0538097 0.918425 0
M  V30 5903 C 1019.42 -0.494275 2.22578 0
M  V30 5904 N 1019.55 -1.81086 2.40434 0
M  V30 5905 N 1019.29 0.313645 3.27502 0
M  V30 5906 C 1019.17 1.61829 2.91033 0
M  V30 5907 H 1016.19 5.40332 6.79951 0
M  V30 5908 H 1015.92 4.41613 5.32378 0
M  V30 5909 H 1016.79 3.26331 7.47797 0
M  V30 5910 P 1020.75 2.75334 8.47391 0
M  V30 5911 O 1020.97 2.44571 9.90142 0
M  V30 5912 O 1021.54 3.87688 7.92115 0
M  V30 5913 O 1021 1.4459 7.59357 0
M  V30 5914 C 1020.06 0.347608 7.69215 0
M  V30 5915 C 1020.79 -0.96767 7.52806 0
M  V30 5916 O 1021 -1.21036 6.1011 0
M  V30 5917 C 1022.19 -1.04544 8.13308 0
M  V30 5918 O 1022.58 -2.38311 8.41922 0
M  V30 5919 C 1023.07 -0.491279 7.02284 0
M  V30 5920 C 1022.36 -0.996264 5.77469 0
M  V30 5921 N 1022.41 -0.0501916 4.62973 0
M  V30 5922 H 1019.57 0.374722 8.67691 0
M  V30 5923 H 1019.3 0.443485 6.90277 0
M  V30 5924 H 1020.17 -1.75537 7.96793 0
M  V30 5925 P 1024.13 -2.75334 8.47391 0
M  V30 5926 O 1024.35 -3.84128 9.44797 0
M  V30 5927 O 1024.92 -1.51947 8.68712 0
M  V30 5928 O 1024.38 -3.29363 6.99321 0
M  V30 5929 C 1023.44 -4.24011 6.4274 0
M  V30 5930 C 1024.17 -5.20775 5.52155 0
M  V30 5931 O 1024.38 -4.56534 4.22446 0
M  V30 5932 C 1025.57 -5.62629 5.96531 0
M  V30 5933 O 1025.96 -6.87667 5.41053 0
M  V30 5934 C 1026.45 -4.52537 5.39283 0
M  V30 5935 C 1025.74 -4.20027 4.08623 0
M  V30 5936 N 1025.79 -2.76189 3.71603 0
M  V30 5937 C 1025.71 -1.64862 4.52822 0
M  V30 5938 N 1025.79 -0.512671 3.88633 0
M  V30 5939 C 1025.93 -0.888083 2.54977 0
M  V30 5940 C 1026.06 -0.094668 1.38677 0
M  V30 5941 N 1026.18 -0.890102 0.232633 0
M  V30 5942 C 1026.18 -2.26958 0.21772 0
M  V30 5943 N 1026.31 -2.84626 -0.97925 0
M  V30 5944 N 1026.05 -3.0178 1.31033 0
M  V30 5945 C 1025.93 -2.26781 2.43843 0
M  V30 5946 H 1022.95 -4.797 7.24003 0
M  V30 5947 H 1022.68 -3.69856 5.84513 0
M  V30 5948 H 1023.55 -6.10356 5.41441 0
M  V30 5949 P 1027.51 -7.20834 5.23717 0
M  V30 5950 O 1027.73 -8.66104 5.38572 0
M  V30 5951 O 1028.3 -6.33544 6.1349 0
M  V30 5952 O 1027.76 -6.7751 3.72168 0
M  V30 5953 C 1026.82 -7.20825 2.7076 0
M  V30 5954 C 1027.55 -7.45864 1.40599 0
M  V30 5955 O 1027.76 -6.17651 0.734225 0
M  V30 5956 C 1028.95 -8.05808 1.51899 0
M  V30 5957 O 1029.34 -8.74358 0.335205 0
M  V30 5958 C 1029.83 -6.83093 1.70294 0
M  V30 5959 C 1029.12 -5.79992 0.836974 0
M  V30 5960 N 1029.17 -4.41864 1.38293 0
M  V30 5961 H 1026.33 -8.13644 3.0377 0
M  V30 5962 H 1026.06 -6.42788 2.55485 0
M  V30 5963 H 1026.93 -8.12039 0.792769 0
M  V30 5964 P 1030.89 -8.91 -7.81545e-12 0
M  V30 5965 O 1031.11 -10.1726 -0.733694 0
M  V30 5966 O 1031.68 -8.73148 1.23936 0
M  V30 5967 O 1031.14 -7.66872 -0.971405 0
M  V30 5968 C 1030.2 -7.42309 -2.04641 0
M  V30 5969 C 1030.93 -6.86059 -3.24661 0
M  V30 5970 O 1031.14 -5.42847 -3.03646 0
M  V30 5971 C 1032.33 -7.41196 -3.50753 0
M  V30 5972 O 1032.72 -7.27073 -4.86816 0
M  V30 5973 C 1033.21 -6.5273 -2.63741 0
M  V30 5974 C 1032.5 -5.1842 -2.73198 0
M  V30 5975 N 1032.55 -4.38762 -1.4784 0
M  V30 5976 H 1029.71 -8.36803 -2.32493 0
M  V30 5977 H 1029.44 -6.70197 -1.71129 0
M  V30 5978 H 1030.31 -7.03551 -4.13168 0
M  V30 5979 P 1034.27 -7.20834 -5.23717 0
M  V30 5980 O 1034.49 -7.79853 -6.57286 0
M  V30 5981 O 1035.06 -7.79239 -4.12957 0
M  V30 5982 O 1034.52 -5.63315 -5.29344 0
M  V30 5983 C 1033.58 -4.80255 -6.01876 0
M  V30 5984 C 1034.31 -3.64202 -6.65911 0
M  V30 5985 O 1034.52 -2.60694 -5.64732 0
M  V30 5986 C 1035.71 -3.93473 -7.1943 0
M  V30 5987 O 1036.1 -3.02071 -8.21205 0
M  V30 5988 C 1036.59 -3.73047 -5.97036 0
M  V30 5989 C 1035.88 -2.58828 -5.25741 0
M  V30 5990 N 1035.93 -2.68068 -3.77503 0
M  V30 5991 H 1033.09 -5.40332 -6.79951 0
M  V30 5992 H 1032.82 -4.41613 -5.32378 0
M  V30 5993 H 1033.69 -3.26331 -7.47797 0
M  V30 5994 P 1037.65 -2.75334 -8.47391 0
M  V30 5995 O 1037.87 -2.44619 -9.90336 0
M  V30 5996 O 1038.44 -3.87776 -7.92294 0
M  V30 5997 O 1037.9 -1.4459 -7.59357 0
M  V30 5998 C 1036.96 -0.347653 -7.69315 0
M  V30 5999 C 1037.69 0.96767 -7.52806 0
M  V30 6000 O 1037.9 1.21055 -6.10208 0
M  V30 6001 C 1039.09 1.04557 -8.13408 0
M  V30 6002 O 1039.48 2.38311 -8.41922 0
M  V30 6003 C 1039.97 0.491279 -7.02284 0
M  V30 6004 C 1039.26 0.996264 -5.77469 0
M  V30 6005 N 1039.31 0.0501916 -4.62973 0
M  V30 6006 H 1036.48 -0.374765 -8.67791 0
M  V30 6007 H 1036.2 -0.443613 -6.90476 0
M  V30 6008 H 1037.07 1.75559 -7.96891 0
M  V30 6009 H 1039.73 1.94563 -5.46818 0
M  V30 6010 H 1040.01 -0.608651 -7.04676 0
M  V30 6011 H 1041 0.889796 -7.09039 0
M  V30 6012 H 1039.16 0.433128 -9.04664 0
M  V30 6013 P 1041.03 2.75334 -8.47391 0
M  V30 6014 O 1041.25 3.84128 -9.44797 0
M  V30 6015 O 1041.82 1.51947 -8.68712 0
M  V30 6016 O 1041.28 3.29363 -6.99321 0
M  V30 6017 C 1040.34 4.24011 -6.4274 0
M  V30 6018 C 1041.07 5.20775 -5.52155 0
M  V30 6019 O 1041.28 4.56534 -4.22446 0
M  V30 6020 C 1042.47 5.62629 -5.96531 0
M  V30 6021 O 1042.86 6.87667 -5.41053 0
M  V30 6022 C 1043.35 4.52537 -5.39283 0
M  V30 6023 C 1042.64 4.20027 -4.08623 0
M  V30 6024 N 1042.69 2.76189 -3.71603 0
M  V30 6025 H 1039.85 4.797 -7.24003 0
M  V30 6026 H 1039.58 3.69856 -5.84513 0
M  V30 6027 H 1040.45 6.10356 -5.41441 0
M  V30 6028 P 1044.41 7.20834 -5.23717 0
M  V30 6029 O 1044.63 8.66104 -5.38572 0
M  V30 6030 O 1045.2 6.33544 -6.1349 0
M  V30 6031 O 1044.66 6.7751 -3.72168 0
M  V30 6032 C 1043.72 7.20825 -2.7076 0
M  V30 6033 C 1044.45 7.45864 -1.40599 0
M  V30 6034 O 1044.66 6.17651 -0.734225 0
M  V30 6035 C 1045.85 8.05808 -1.51899 0
M  V30 6036 O 1046.24 8.74358 -0.335205 0
M  V30 6037 C 1046.73 6.83093 -1.70294 0
M  V30 6038 C 1046.02 5.79992 -0.836974 0
M  V30 6039 N 1046.07 4.41864 -1.38293 0
M  V30 6040 H 1043.23 8.13644 -3.0377 0
M  V30 6041 H 1042.96 6.42788 -2.55485 0
M  V30 6042 H 1043.83 8.12039 -0.792769 0
M  V30 6043 P 1047.79 8.91 7.97264e-12 0
M  V30 6044 O 1048.01 10.1726 0.733694 0
M  V30 6045 O 1048.58 8.73148 -1.23936 0
M  V30 6046 O 1048.04 7.66872 0.971405 0
M  V30 6047 C 1047.1 7.42309 2.04641 0
M  V30 6048 C 1047.83 6.86059 3.24661 0
M  V30 6049 O 1048.04 5.42847 3.03646 0
M  V30 6050 C 1049.23 7.41196 3.50753 0
M  V30 6051 O 1049.62 7.27073 4.86816 0
M  V30 6052 C 1050.11 6.5273 2.63741 0
M  V30 6053 C 1049.4 5.1842 2.73198 0
M  V30 6054 N 1049.45 4.38762 1.4784 0
M  V30 6055 H 1046.61 8.36803 2.32493 0
M  V30 6056 H 1046.34 6.70197 1.71129 0
M  V30 6057 H 1047.21 7.03551 4.13168 0
M  V30 6058 P 1051.17 7.20834 5.23717 0
M  V30 6059 O 1051.39 7.79853 6.57286 0
M  V30 6060 O 1051.96 7.79239 4.12957 0
M  V30 6061 O 1051.42 5.63315 5.29344 0
M  V30 6062 C 1050.48 4.80255 6.01876 0
M  V30 6063 C 1051.21 3.64202 6.65911 0
M  V30 6064 O 1051.42 2.60694 5.64732 0
M  V30 6065 C 1052.61 3.93473 7.1943 0
M  V30 6066 O 1053 3.02071 8.21205 0
M  V30 6067 C 1053.49 3.73047 5.97036 0
M  V30 6068 C 1052.78 2.58828 5.25741 0
M  V30 6069 N 1052.83 2.68068 3.77503 0
M  V30 6070 H 1049.99 5.40332 6.79951 0
M  V30 6071 H 1049.72 4.41613 5.32378 0
M  V30 6072 H 1050.59 3.26331 7.47797 0
M  V30 6073 P 1054.55 2.75334 8.47391 0
M  V30 6074 O 1054.77 2.44619 9.90336 0
M  V30 6075 O 1055.34 3.87776 7.92294 0
M  V30 6076 O 1054.8 1.4459 7.59357 0
M  V30 6077 C 1053.86 0.347653 7.69315 0
M  V30 6078 C 1054.59 -0.96767 7.52806 0
M  V30 6079 O 1054.8 -1.21055 6.10208 0
M  V30 6080 C 1055.99 -1.04557 8.13408 0
M  V30 6081 O 1056.38 -2.38311 8.41922 0
M  V30 6082 C 1056.87 -0.491279 7.02284 0
M  V30 6083 C 1056.16 -0.996264 5.77469 0
M  V30 6084 N 1056.21 -0.0501916 4.62973 0
M  V30 6085 C 1056.13 1.31969 4.65661 0
M  V30 6086 N 1056.2 1.86649 3.48119 0
M  V30 6087 C 1056.35 0.792089 2.62406 0
M  V30 6088 C 1056.48 0.705684 1.2207 0
M  V30 6089 N 1056.49 1.76207 0.413762 0
M  V30 6090 N 1056.6 -0.518981 0.685754 0
M  V30 6091 C 1056.59 -1.57595 1.49174 0
M  V30 6092 N 1056.47 -1.62909 2.80066 0
M  V30 6093 C 1056.35 -0.388195 3.3073 0
M  V30 6094 H 1053.38 0.374765 8.67791 0
M  V30 6095 H 1053.1 0.443613 6.90476 0
M  V30 6096 H 1053.97 -1.75559 7.96891 0
M  V30 6097 H 1056.63 -1.94563 5.46818 0
M  V30 6098 H 1056.91 0.608651 7.04676 0
M  V30 6099 H 1057.9 -0.889796 7.09039 0
M  V30 6100 H 1056.06 -0.433128 9.04664 0
M  V30 6101 H 1056.02 1.89246 5.57664 0
M  V30 6102 H 1056.4 2.71005 0.804694 0
M  V30 6103 H 1056.59 1.63189 -0.603768 0
M  V30 6104 H 1056.7 -2.53475 0.997614 0
M  V30 6105 P 1057.93 -2.75334 8.47391 0
M  V30 6106 O 1058.15 -3.84204 9.44982 0
M  V30 6107 O 1058.72 -1.51982 8.68909 0
M  V30 6108 O 1058.18 -3.29363 6.99321 0
M  V30 6109 C 1057.24 -4.24066 6.42823 0
M  V30 6110 C 1057.97 -5.20775 5.52155 0
M  V30 6111 O 1058.18 -4.56607 4.22514 0
M  V30 6112 C 1059.37 -5.62697 5.96604 0
M  V30 6113 O 1059.76 -6.87667 5.41053 0
M  V30 6114 C 1060.25 -4.52537 5.39283 0
M  V30 6115 C 1059.54 -4.20027 4.08623 0
M  V30 6116 N 1059.59 -2.76189 3.71603 0
M  V30 6117 H 1056.76 -4.79756 7.24086 0
M  V30 6118 H 1056.48 -3.69963 5.84682 0
M  V30 6119 H 1057.35 -6.10431 5.41508 0
M  V30 6120 H 1060.01 -4.78816 3.28024 0
M  V30 6121 H 1060.29 -3.64957 6.05871 0
M  V30 6122 H 1061.28 -4.88748 5.21323 0
M  V30 6123 H 1059.44 -5.66789 7.0643 0
M  V30 6124 P 1061.31 -7.20834 5.23717 0
M  V30 6125 O 1061.53 -8.66189 5.38625 0
M  V30 6126 O 1062.1 -6.33615 6.1356 0
M  V30 6127 O 1061.56 -6.7751 3.72168 0
M  V30 6128 C 1060.62 -7.20825 2.7076 0
M  V30 6129 C 1061.35 -7.45864 1.40599 0
M  V30 6130 O 1061.56 -6.17651 0.734225 0
M  V30 6131 C 1062.75 -8.05808 1.51899 0
M  V30 6132 O 1063.14 -8.74358 0.335205 0
M  V30 6133 C 1063.63 -6.83093 1.70294 0
M  V30 6134 C 1062.92 -5.79992 0.836974 0
M  V30 6135 N 1062.97 -4.41769 1.38263 0
M  V30 6136 C 1063.12 -3.36514 0.485617 0
M  V30 6137 O 1063.21 -3.61814 -0.724703 0
M  V30 6138 N 1063.17 -2.00746 1.14492 0
M  V30 6139 C 1063.07 -1.85887 2.27776 0
M  V30 6140 N 1063.12 -0.600907 2.69379 0
M  V30 6141 C 1062.92 -2.92182 3.22265 0
M  V30 6142 C 1062.87 -4.18399 2.71925 0
M  V30 6143 H 1060.13 -8.1355 3.03735 0
M  V30 6144 H 1059.86 -6.42695 2.55448 0
M  V30 6145 H 1060.73 -8.12139 0.792866 0
M  V30 6146 H 1063.39 -5.80078 -0.160615 0
M  V30 6147 H 1063.67 -6.51379 2.75643 0
M  V30 6148 H 1064.66 -7.01734 1.34462 0
M  V30 6149 H 1062.82 -8.73674 2.38337 0
M  V30 6150 H 1062.75 -5.02669 3.39718 0
M  V30 6151 H 1062.85 -2.73001 4.29239 0
M  V30 6152 H 1063.24 0.162318 2.01146 0
M  V30 6153 H 1063.04 -0.387742 3.69773 0
M  V30 6154 P 1064.69 -8.91 -8.12982e-12 0
M  V30 6155 O 1064.91 -10.1726 -0.733694 0
M  V30 6156 O 1065.48 -8.73148 1.23936 0
M  V30 6157 O 1064.94 -7.66872 -0.971405 0
M  V30 6158 C 1064 -7.42309 -2.04641 0
M  V30 6159 C 1064.73 -6.86059 -3.24661 0
M  V30 6160 O 1064.94 -5.42847 -3.03646 0
M  V30 6161 C 1066.13 -7.41196 -3.50753 0
M  V30 6162 O 1066.52 -7.27073 -4.86816 0
M  V30 6163 C 1067.01 -6.5273 -2.63741 0
M  V30 6164 C 1066.3 -5.1842 -2.73198 0
M  V30 6165 N 1066.35 -4.38762 -1.4784 0
M  V30 6166 H 1063.51 -8.36803 -2.32493 0
M  V30 6167 H 1063.24 -6.70197 -1.71129 0
M  V30 6168 H 1064.11 -7.03551 -4.13168 0
M  V30 6169 P 1068.07 -7.20834 -5.23717 0
M  V30 6170 O 1068.29 -7.79853 -6.57286 0
M  V30 6171 O 1068.86 -7.79239 -4.12957 0
M  V30 6172 O 1068.32 -5.63315 -5.29344 0
M  V30 6173 C 1067.38 -4.80255 -6.01876 0
M  V30 6174 C 1068.11 -3.64202 -6.65911 0
M  V30 6175 O 1068.32 -2.60694 -5.64732 0
M  V30 6176 C 1069.51 -3.93473 -7.1943 0
M  V30 6177 O 1069.9 -3.02071 -8.21205 0
M  V30 6178 C 1070.39 -3.73047 -5.97036 0
M  V30 6179 C 1069.68 -2.58828 -5.25741 0
M  V30 6180 N 1069.73 -2.68068 -3.77503 0
M  V30 6181 C 1069.65 -3.79715 -2.96723 0
M  V30 6182 N 1069.73 -3.5377 -1.68852 0
M  V30 6183 C 1069.87 -2.15054 -1.63254 0
M  V30 6184 C 1070 -1.28964 -0.518571 0
M  V30 6185 N 1070.12 0.0538097 -0.918425 0
M  V30 6186 C 1070.12 0.494275 -2.22578 0
M  V30 6187 N 1070.25 1.81086 -2.40434 0
M  V30 6188 N 1069.99 -0.313645 -3.27502 0
M  V30 6189 C 1069.87 -1.61829 -2.91033 0
M  V30 6190 H 1066.89 -5.40332 -6.79951 0
M  V30 6191 H 1066.62 -4.41613 -5.32378 0
M  V30 6192 H 1067.49 -3.26331 -7.47797 0
M  V30 6193 P 1071.45 -2.75334 -8.47391 0
M  V30 6194 O 1071.67 -2.44571 -9.90142 0
M  V30 6195 O 1072.24 -3.87688 -7.92115 0
M  V30 6196 O 1071.7 -1.4459 -7.59357 0
M  V30 6197 C 1070.76 -0.347608 -7.69215 0
M  V30 6198 C 1071.49 0.96767 -7.52806 0
M  V30 6199 O 1071.7 1.21036 -6.1011 0
M  V30 6200 C 1072.89 1.04544 -8.13308 0
M  V30 6201 O 1073.28 2.38311 -8.41922 0
M  V30 6202 C 1073.77 0.491279 -7.02284 0
M  V30 6203 C 1073.06 0.996264 -5.77469 0
M  V30 6204 N 1073.11 0.0501916 -4.62973 0
M  V30 6205 H 1070.27 -0.374722 -8.67691 0
M  V30 6206 H 1070 -0.443485 -6.90277 0
M  V30 6207 H 1070.87 1.75537 -7.96793 0
M  V30 6208 P 1074.83 2.75334 -8.47391 0
M  V30 6209 O 1075.05 3.84128 -9.44797 0
M  V30 6210 O 1075.62 1.51947 -8.68712 0
M  V30 6211 O 1075.08 3.29363 -6.99321 0
M  V30 6212 C 1074.14 4.24011 -6.4274 0
M  V30 6213 C 1074.87 5.20775 -5.52155 0
M  V30 6214 O 1075.08 4.56534 -4.22446 0
M  V30 6215 C 1076.27 5.62629 -5.96531 0
M  V30 6216 O 1076.66 6.87667 -5.41053 0
M  V30 6217 C 1077.15 4.52537 -5.39283 0
M  V30 6218 C 1076.44 4.20027 -4.08623 0
M  V30 6219 N 1076.49 2.76189 -3.71603 0
M  V30 6220 H 1073.65 4.797 -7.24003 0
M  V30 6221 H 1073.38 3.69856 -5.84513 0
M  V30 6222 H 1074.25 6.10356 -5.41441 0
M  V30 6223 P 1078.21 7.20834 -5.23717 0
M  V30 6224 O 1078.43 8.66274 -5.38678 0
M  V30 6225 O 1079 6.33687 -6.13629 0
M  V30 6226 O 1078.46 6.7751 -3.72168 0
M  V30 6227 C 1077.52 7.20919 -2.70795 0
M  V30 6228 C 1078.25 7.45864 -1.40599 0
M  V30 6229 O 1078.46 6.17751 -0.734343 0
M  V30 6230 C 1079.65 8.05906 -1.51917 0
M  V30 6231 O 1080.04 8.74358 -0.335205 0
M  V30 6232 C 1080.53 6.83093 -1.70294 0
M  V30 6233 C 1079.82 5.79992 -0.836974 0
M  V30 6234 N 1079.87 4.41864 -1.38293 0
M  V30 6235 C 1079.79 4.02089 -2.69407 0
M  V30 6236 N 1079.86 2.73403 -2.85089 0
M  V30 6237 C 1080.01 2.25086 -1.5642 0
M  V30 6238 C 1080.14 0.942887 -1.04836 0
M  V30 6239 N 1080.15 -0.150999 -1.80369 0
M  V30 6240 N 1080.26 0.812565 0.28167 0
M  V30 6241 C 1080.25 1.90572 1.03784 0
M  V30 6242 N 1080.13 3.167 0.683905 0
M  V30 6243 C 1080.01 3.26538 -0.652815 0
M  V30 6244 H 1077.04 8.13738 -3.03804 0
M  V30 6245 H 1076.76 6.42974 -2.55559 0
M  V30 6246 H 1077.63 8.12139 -0.792866 0
M  V30 6247 H 1080.29 5.80178 0.160643 0
M  V30 6248 H 1080.57 6.51379 -2.75643 0
M  V30 6249 H 1081.56 7.01832 -1.3448 0
M  V30 6250 H 1079.72 8.73771 -2.38364 0
M  V30 6251 H 1079.68 4.7189 -3.52311 0
M  V30 6252 H 1080.06 -0.0721434 -2.82608 0
M  V30 6253 H 1080.25 -1.0785 -1.36544 0
M  V30 6254 H 1080.36 1.73207 2.10241 0
M  V30 6255 P 1081.59 8.91 8.287e-12 0
M  V30 6256 O 1081.81 10.1726 0.733694 0
M  V30 6257 O 1082.38 8.73148 -1.23936 0
M  V30 6258 O 1081.84 7.66872 0.971405 0
M  V30 6259 C 1080.9 7.42309 2.04641 0
M  V30 6260 C 1081.63 6.86059 3.24661 0
M  V30 6261 O 1081.84 5.42847 3.03646 0
M  V30 6262 C 1083.03 7.41196 3.50753 0
M  V30 6263 O 1083.42 7.27073 4.86816 0
M  V30 6264 C 1083.91 6.5273 2.63741 0
M  V30 6265 C 1083.2 5.1842 2.73198 0
M  V30 6266 N 1083.25 4.38762 1.4784 0
M  V30 6267 H 1080.41 8.36803 2.32493 0
M  V30 6268 H 1080.14 6.70197 1.71129 0
M  V30 6269 H 1081.01 7.03551 4.13168 0
M  V30 6270 P 1084.97 7.20834 5.23717 0
M  V30 6271 O 1085.19 7.7993 6.57351 0
M  V30 6272 O 1085.76 7.79328 4.13004 0
M  V30 6273 O 1085.22 5.63315 5.29344 0
M  V30 6274 C 1084.28 4.80193 6.01798 0
M  V30 6275 C 1085.01 3.64202 6.65911 0
M  V30 6276 O 1085.22 2.60694 5.64732 0
M  V30 6277 C 1086.41 3.93473 7.1943 0
M  V30 6278 O 1086.8 3.02071 8.21205 0
M  V30 6279 C 1087.29 3.73047 5.97036 0
M  V30 6280 C 1086.58 2.58828 5.25741 0
M  V30 6281 N 1086.63 2.6801 3.77422 0
M  V30 6282 C 1086.78 1.50443 3.07133 0
M  V30 6283 O 1086.87 0.419406 3.61576 0
M  V30 6284 N 1086.82 1.6403 1.69677 0
M  V30 6285 C 1086.73 2.81206 0.986255 0
M  V30 6286 C 1086.58 3.99158 1.80325 0
M  V30 6287 C 1086.53 3.89779 3.1476 0
M  V30 6288 H 1083.79 5.40332 6.79951 0
M  V30 6289 H 1083.52 4.41549 5.32301 0
M  V30 6290 H 1084.39 3.26331 7.47797 0
M  V30 6291 H 1087.05 1.6395 5.56554 0
M  V30 6292 H 1087.33 4.63439 5.3432 0
M  V30 6293 H 1088.32 3.44728 6.25838 0
M  V30 6294 H 1086.48 4.96652 7.57263 0
M  V30 6295 H 1086.41 4.80159 3.74441 0
M  V30 6296 P 1088.35 2.75334 8.47391 0
M  V30 6297 O 1088.57 2.44619 9.90336 0
M  V30 6298 O 1089.14 3.87776 7.92294 0
M  V30 6299 O 1088.6 1.4459 7.59357 0
M  V30 6300 C 1087.66 0.347653 7.69315 0
M  V30 6301 C 1088.39 -0.96767 7.52806 0
M  V30 6302 O 1088.6 -1.21055 6.10208 0
M  V30 6303 C 1089.79 -1.04557 8.13408 0
M  V30 6304 O 1090.18 -2.38311 8.41922 0
M  V30 6305 C 1090.67 -0.491279 7.02284 0
M  V30 6306 C 1089.96 -0.996264 5.77469 0
M  V30 6307 N 1090.01 -0.0501916 4.62973 0
M  V30 6308 H 1087.18 0.374765 8.67791 0
M  V30 6309 H 1086.9 0.443613 6.90476 0
M  V30 6310 H 1087.77 -1.75559 7.96891 0
M  V30 6311 H 1090.43 -1.94563 5.46818 0
M  V30 6312 H 1090.71 0.608651 7.04676 0
M  V30 6313 H 1091.7 -0.889796 7.09039 0
M  V30 6314 H 1089.86 -0.433128 9.04664 0
M  V30 6315 P 1091.73 -2.75334 8.47391 0
M  V30 6316 O 1091.95 -3.84128 9.44797 0
M  V30 6317 O 1092.52 -1.51947 8.68712 0
M  V30 6318 O 1091.98 -3.29363 6.99321 0
M  V30 6319 C 1091.04 -4.24011 6.4274 0
M  V30 6320 C 1091.77 -5.20775 5.52155 0
M  V30 6321 O 1091.98 -4.56534 4.22446 0
M  V30 6322 C 1093.17 -5.62629 5.96531 0
M  V30 6323 O 1093.56 -6.87667 5.41053 0
M  V30 6324 C 1094.05 -4.52537 5.39283 0
M  V30 6325 C 1093.34 -4.20027 4.08623 0
M  V30 6326 N 1093.39 -2.76189 3.71603 0
M  V30 6327 H 1090.55 -4.797 7.24003 0
M  V30 6328 H 1090.28 -3.69856 5.84513 0
M  V30 6329 H 1091.15 -6.10356 5.41441 0
M  V30 6330 P 1095.11 -7.20834 5.23717 0
M  V30 6331 O 1095.33 -8.66104 5.38572 0
M  V30 6332 O 1095.9 -6.33544 6.1349 0
M  V30 6333 O 1095.36 -6.7751 3.72168 0
M  V30 6334 C 1094.42 -7.20825 2.7076 0
M  V30 6335 C 1095.15 -7.45864 1.40599 0
M  V30 6336 O 1095.36 -6.17651 0.734225 0
M  V30 6337 C 1096.55 -8.05808 1.51899 0
M  V30 6338 O 1096.94 -8.74358 0.335205 0
M  V30 6339 C 1097.43 -6.83093 1.70294 0
M  V30 6340 C 1096.72 -5.79992 0.836974 0
M  V30 6341 N 1096.77 -4.41864 1.38293 0
M  V30 6342 H 1093.93 -8.13644 3.0377 0
M  V30 6343 H 1093.66 -6.42788 2.55485 0
M  V30 6344 H 1094.53 -8.12039 0.792769 0
M  V30 6345 P 1098.49 -8.91 -8.44418e-12 0
M  V30 6346 O 1098.71 -10.1736 -0.733766 0
M  V30 6347 O 1099.28 -8.73247 1.2395 0
M  V30 6348 O 1098.74 -7.66872 -0.971405 0
M  V30 6349 C 1097.8 -7.42212 -2.04614 0
M  V30 6350 C 1098.53 -6.86059 -3.24661 0
M  V30 6351 O 1098.74 -5.42847 -3.03646 0
M  V30 6352 C 1099.93 -7.41196 -3.50753 0
M  V30 6353 O 1100.32 -7.27073 -4.86816 0
M  V30 6354 C 1100.81 -6.5273 -2.63741 0
M  V30 6355 C 1100.1 -5.1842 -2.73198 0
M  V30 6356 N 1100.15 -4.38668 -1.47808 0
M  V30 6357 C 1100.3 -3.02239 -1.60048 0
M  V30 6358 O 1100.39 -2.46459 -2.67869 0
M  V30 6359 N 1100.34 -2.32436 -0.408571 0
M  V30 6360 C 1100.25 -2.85471 0.854993 0
M  V30 6361 O 1100.3 -2.12566 1.8531 0
M  V30 6362 C 1100.1 -4.28918 0.887335 0
M  V30 6363 C 1099.99 -4.91066 2.24619 0
M  V30 6364 C 1100.05 -5.00349 -0.255399 0
M  V30 6365 H 1097.31 -8.36803 -2.32493 0
M  V30 6366 H 1097.04 -6.701 -1.71105 0
M  V30 6367 H 1097.91 -7.03551 -4.13168 0
M  V30 6368 H 1100.57 -4.59773 -3.53894 0
M  V30 6369 H 1100.85 -6.88995 -1.59871 0
M  V30 6370 H 1101.84 -6.46749 -3.03687 0
M  V30 6371 H 1100 -8.46908 -3.20714 0
M  V30 6372 H 1099.93 -6.08548 -0.206986 0
M  V30 6373 H 1100.96 -5.34836 2.53099 0
M  V30 6374 H 1099.23 -5.69638 2.2291 0
M  V30 6375 H 1099.71 -4.13971 2.98044 0
M  V30 6376 H 1100.45 -1.33211 -0.474216 0
M  V30 6377 P 1101.87 -7.20834 -5.23717 0
M  V30 6378 O 1102.09 -7.79853 -6.57286 0
M  V30 6379 O 1102.66 -7.79239 -4.12957 0
M  V30 6380 O 1102.12 -5.63315 -5.29344 0
M  V30 6381 C 1101.18 -4.80255 -6.01876 0
M  V30 6382 C 1101.91 -3.64202 -6.65911 0
M  V30 6383 O 1102.12 -2.60694 -5.64732 0
M  V30 6384 C 1103.31 -3.93473 -7.1943 0
M  V30 6385 O 1103.7 -3.02071 -8.21205 0
M  V30 6386 C 1104.19 -3.73047 -5.97036 0
M  V30 6387 C 1103.48 -2.58828 -5.25741 0
M  V30 6388 N 1103.53 -2.68068 -3.77503 0
M  V30 6389 C 1103.45 -3.79715 -2.96723 0
M  V30 6390 N 1103.53 -3.5377 -1.68852 0
M  V30 6391 C 1103.67 -2.15054 -1.63254 0
M  V30 6392 C 1103.8 -1.28964 -0.518571 0
M  V30 6393 O 1103.82 -1.56826 0.679156 0
M  V30 6394 N 1103.92 0.0538097 -0.918425 0
M  V30 6395 C 1103.92 0.494275 -2.22578 0
M  V30 6396 N 1104.05 1.81086 -2.40434 0
M  V30 6397 N 1103.79 -0.313645 -3.27502 0
M  V30 6398 C 1103.67 -1.61829 -2.91033 0
M  V30 6399 H 1100.69 -5.40332 -6.79951 0
M  V30 6400 H 1100.42 -4.41613 -5.32378 0
M  V30 6401 H 1101.29 -3.26331 -7.47797 0
M  V30 6402 H 1103.95 -1.63422 -5.56814 0
M  V30 6403 H 1104.23 -4.63374 -5.34244 0
M  V30 6404 H 1105.22 -3.44728 -6.25838 0
M  V30 6405 H 1103.38 -4.96652 -7.57263 0
M  V30 6406 H 1103.33 -4.80617 -3.3614 0
M  V30 6407 H 1104.02 0.742702 -0.199384 0
M  V30 6408 H 1104.05 2.20598 -3.35588 0
M  V30 6409 H 1104.15 2.43518 -1.58945 0
M  V30 6410 P 1105.25 -2.75334 -8.47391 0
M  V30 6411 O 1105.47 -2.44571 -9.90142 0
M  V30 6412 O 1106.04 -3.87688 -7.92115 0
M  V30 6413 O 1105.5 -1.4459 -7.59357 0
M  V30 6414 C 1104.56 -0.347608 -7.69215 0
M  V30 6415 C 1105.29 0.96767 -7.52806 0
M  V30 6416 O 1105.5 1.21036 -6.1011 0
M  V30 6417 C 1106.69 1.04544 -8.13308 0
M  V30 6418 O 1107.08 2.38311 -8.41922 0
M  V30 6419 C 1107.57 0.491279 -7.02284 0
M  V30 6420 C 1106.86 0.996264 -5.77469 0
M  V30 6421 N 1106.91 0.0501916 -4.62973 0
M  V30 6422 H 1104.07 -0.374722 -8.67691 0
M  V30 6423 H 1103.8 -0.443485 -6.90277 0
M  V30 6424 H 1104.67 1.75537 -7.96793 0
M  V30 6425 P 1108.63 2.75334 -8.47391 0
M  V30 6426 O 1108.85 3.84128 -9.44797 0
M  V30 6427 O 1109.42 1.51947 -8.68712 0
M  V30 6428 O 1108.88 3.29363 -6.99321 0
M  V30 6429 C 1107.94 4.24011 -6.4274 0
M  V30 6430 C 1108.67 5.20775 -5.52155 0
M  V30 6431 O 1108.88 4.56534 -4.22446 0
M  V30 6432 C 1110.07 5.62629 -5.96531 0
M  V30 6433 O 1110.46 6.87667 -5.41053 0
M  V30 6434 C 1110.95 4.52537 -5.39283 0
M  V30 6435 C 1110.24 4.20027 -4.08623 0
M  V30 6436 N 1110.29 2.76189 -3.71603 0
M  V30 6437 H 1107.45 4.797 -7.24003 0
M  V30 6438 H 1107.18 3.69856 -5.84513 0
M  V30 6439 H 1108.05 6.10356 -5.41441 0
M  V30 6440 P 1112.01 7.20834 -5.23717 0
M  V30 6441 O 1112.23 8.66104 -5.38572 0
M  V30 6442 O 1112.8 6.33544 -6.1349 0
M  V30 6443 O 1112.26 6.7751 -3.72168 0
M  V30 6444 C 1111.32 7.20825 -2.7076 0
M  V30 6445 C 1112.05 7.45864 -1.40599 0
M  V30 6446 O 1112.26 6.17651 -0.734225 0
M  V30 6447 C 1113.45 8.05808 -1.51899 0
M  V30 6448 O 1113.84 8.74358 -0.335205 0
M  V30 6449 C 1114.33 6.83093 -1.70294 0
M  V30 6450 C 1113.62 5.79992 -0.836974 0
M  V30 6451 N 1113.67 4.41864 -1.38293 0
M  V30 6452 H 1110.83 8.13644 -3.0377 0
M  V30 6453 H 1110.56 6.42788 -2.55485 0
M  V30 6454 H 1111.43 8.12039 -0.792769 0
M  V30 6455 P 1115.39 8.91 8.60137e-12 0
M  V30 6456 O 1115.61 10.1726 0.733694 0
M  V30 6457 O 1116.18 8.73148 -1.23936 0
M  V30 6458 O 1115.64 7.66872 0.971405 0
M  V30 6459 C 1114.7 7.42309 2.04641 0
M  V30 6460 C 1115.43 6.86059 3.24661 0
M  V30 6461 O 1115.64 5.42847 3.03646 0
M  V30 6462 C 1116.83 7.41196 3.50753 0
M  V30 6463 O 1117.22 7.27073 4.86816 0
M  V30 6464 C 1117.71 6.5273 2.63741 0
M  V30 6465 C 1117 5.1842 2.73198 0
M  V30 6466 N 1117.05 4.38762 1.4784 0
M  V30 6467 H 1114.21 8.36803 2.32493 0
M  V30 6468 H 1113.94 6.70197 1.71129 0
M  V30 6469 H 1114.81 7.03551 4.13168 0
M  V30 6470 P 1118.77 7.20834 5.23717 0
M  V30 6471 O 1118.99 7.79853 6.57286 0
M  V30 6472 O 1119.56 7.79239 4.12957 0
M  V30 6473 O 1119.02 5.63315 5.29344 0
M  V30 6474 C 1118.08 4.80255 6.01876 0
M  V30 6475 C 1118.81 3.64202 6.65911 0
M  V30 6476 O 1119.02 2.60694 5.64732 0
M  V30 6477 C 1120.21 3.93473 7.1943 0
M  V30 6478 O 1120.6 3.02071 8.21205 0
M  V30 6479 C 1121.09 3.73047 5.97036 0
M  V30 6480 C 1120.38 2.58828 5.25741 0
M  V30 6481 N 1120.43 2.68068 3.77503 0
M  V30 6482 H 1117.59 5.40332 6.79951 0
M  V30 6483 H 1117.32 4.41613 5.32378 0
M  V30 6484 H 1118.19 3.26331 7.47797 0
M  V30 6485 P 1122.15 2.75334 8.47391 0
M  V30 6486 O 1122.37 2.44619 9.90336 0
M  V30 6487 O 1122.94 3.87776 7.92294 0
M  V30 6488 O 1122.4 1.4459 7.59357 0
M  V30 6489 C 1121.46 0.347653 7.69315 0
M  V30 6490 C 1122.19 -0.96767 7.52806 0
M  V30 6491 O 1122.4 -1.21055 6.10208 0
M  V30 6492 C 1123.59 -1.04557 8.13408 0
M  V30 6493 O 1123.98 -2.38311 8.41922 0
M  V30 6494 C 1124.47 -0.491279 7.02284 0
M  V30 6495 C 1123.76 -0.996264 5.77469 0
M  V30 6496 N 1123.81 -0.0501916 4.62973 0
M  V30 6497 H 1120.98 0.374765 8.67791 0
M  V30 6498 H 1120.7 0.443613 6.90476 0
M  V30 6499 H 1121.57 -1.75559 7.96891 0
M  V30 6500 H 1124.23 -1.94563 5.46818 0
M  V30 6501 H 1124.51 0.608651 7.04676 0
M  V30 6502 H 1125.5 -0.889796 7.09039 0
M  V30 6503 H 1123.66 -0.433128 9.04664 0
M  V30 6504 P 1125.53 -2.75334 8.47391 0
M  V30 6505 O 1125.75 -3.84128 9.44797 0
M  V30 6506 O 1126.32 -1.51947 8.68712 0
M  V30 6507 O 1125.78 -3.29363 6.99321 0
M  V30 6508 C 1124.84 -4.24011 6.4274 0
M  V30 6509 C 1125.57 -5.20775 5.52155 0
M  V30 6510 O 1125.78 -4.56534 4.22446 0
M  V30 6511 C 1126.97 -5.62629 5.96531 0
M  V30 6512 O 1127.36 -6.87667 5.41053 0
M  V30 6513 C 1127.85 -4.52537 5.39283 0
M  V30 6514 C 1127.14 -4.20027 4.08623 0
M  V30 6515 N 1127.19 -2.76189 3.71603 0
M  V30 6516 H 1124.35 -4.797 7.24003 0
M  V30 6517 H 1124.08 -3.69856 5.84513 0
M  V30 6518 H 1124.95 -6.10356 5.41441 0
M  V30 6519 P 1128.91 -7.20834 5.23717 0
M  V30 6520 O 1129.13 -8.66104 5.38572 0
M  V30 6521 O 1129.7 -6.33544 6.1349 0
M  V30 6522 O 1129.16 -6.7751 3.72168 0
M  V30 6523 C 1128.22 -7.20825 2.7076 0
M  V30 6524 C 1128.95 -7.45864 1.40599 0
M  V30 6525 O 1129.16 -6.17651 0.734225 0
M  V30 6526 C 1130.35 -8.05808 1.51899 0
M  V30 6527 O 1130.74 -8.74358 0.335205 0
M  V30 6528 C 1131.23 -6.83093 1.70294 0
M  V30 6529 C 1130.52 -5.79992 0.836974 0
M  V30 6530 N 1130.57 -4.41864 1.38293 0
M  V30 6531 H 1127.73 -8.13644 3.0377 0
M  V30 6532 H 1127.46 -6.42788 2.55485 0
M  V30 6533 H 1128.33 -8.12039 0.792769 0
M  V30 6534 P 1132.29 -8.91 -8.75855e-12 0
M  V30 6535 O 1132.51 -10.1726 -0.733694 0
M  V30 6536 O 1133.08 -8.73148 1.23936 0
M  V30 6537 O 1132.54 -7.66872 -0.971405 0
M  V30 6538 C 1131.6 -7.42309 -2.04641 0
M  V30 6539 C 1132.33 -6.86059 -3.24661 0
M  V30 6540 O 1132.54 -5.42847 -3.03646 0
M  V30 6541 C 1133.73 -7.41196 -3.50753 0
M  V30 6542 O 1134.12 -7.27073 -4.86816 0
M  V30 6543 C 1134.61 -6.5273 -2.63741 0
M  V30 6544 C 1133.9 -5.1842 -2.73198 0
M  V30 6545 N 1133.95 -4.38762 -1.4784 0
M  V30 6546 H 1131.11 -8.36803 -2.32493 0
M  V30 6547 H 1130.84 -6.70197 -1.71129 0
M  V30 6548 H 1131.71 -7.03551 -4.13168 0
M  V30 6549 P 1135.67 -7.20834 -5.23717 0
M  V30 6550 O 1135.89 -7.79853 -6.57286 0
M  V30 6551 O 1136.46 -7.79239 -4.12957 0
M  V30 6552 O 1135.92 -5.63315 -5.29344 0
M  V30 6553 C 1134.98 -4.80255 -6.01876 0
M  V30 6554 C 1135.71 -3.64202 -6.65911 0
M  V30 6555 O 1135.92 -2.60694 -5.64732 0
M  V30 6556 C 1137.11 -3.93473 -7.1943 0
M  V30 6557 O 1137.5 -3.02071 -8.21205 0
M  V30 6558 C 1137.99 -3.73047 -5.97036 0
M  V30 6559 C 1137.28 -2.58828 -5.25741 0
M  V30 6560 N 1137.33 -2.68068 -3.77503 0
M  V30 6561 H 1134.49 -5.40332 -6.79951 0
M  V30 6562 H 1134.22 -4.41613 -5.32378 0
M  V30 6563 H 1135.09 -3.26331 -7.47797 0
M  V30 6564 P 1139.05 -2.75334 -8.47391 0
M  V30 6565 O 1139.27 -2.44595 -9.90239 0
M  V30 6566 O 1139.84 -3.87732 -7.92204 0
M  V30 6567 O 1139.3 -1.4459 -7.59357 0
M  V30 6568 C 1138.36 -0.347563 -7.69115 0
M  V30 6569 C 1139.09 0.96767 -7.52806 0
M  V30 6570 O 1139.3 1.21036 -6.1011 0
M  V30 6571 C 1140.49 1.04544 -8.13308 0
M  V30 6572 O 1140.88 2.38311 -8.41922 0
M  V30 6573 C 1141.37 0.491279 -7.02284 0
M  V30 6574 C 1140.66 0.996264 -5.77469 0
M  V30 6575 N 1140.71 0.0501808 -4.62873 0
M  V30 6576 C 1140.86 0.588177 -3.36904 0
M  V30 6577 O 1140.95 1.78598 -3.17173 0
M  V30 6578 N 1140.9 -0.329694 -2.33686 0
M  V30 6579 C 1140.81 -1.6953 -2.45079 0
M  V30 6580 C 1140.66 -2.16933 -3.80505 0
M  V30 6581 C 1140.61 -1.30326 -4.83752 0
M  V30 6582 H 1137.87 -0.374722 -8.67691 0
M  V30 6583 H 1137.6 -0.443421 -6.90177 0
M  V30 6584 H 1138.47 1.75537 -7.96793 0
M  V30 6585 H 1141.13 1.94496 -5.46629 0
M  V30 6586 H 1141.41 -0.608651 -7.04676 0
M  V30 6587 H 1142.4 0.889672 -7.08939 0
M  V30 6588 H 1140.56 0.43308 -9.04564 0
M  V30 6589 H 1140.49 -1.68366 -5.8516 0
M  V30 6590 P 1142.43 2.75334 -8.47391 0
M  V30 6591 O 1142.65 3.84128 -9.44797 0
M  V30 6592 O 1143.22 1.51947 -8.68712 0
M  V30 6593 O 1142.68 3.29363 -6.99321 0
M  V30 6594 C 1141.74 4.24011 -6.4274 0
M  V30 6595 C 1142.47 5.20775 -5.52155 0
M  V30 6596 O 1142.68 4.56534 -4.22446 0
M  V30 6597 C 1143.87 5.62629 -5.96531 0
M  V30 6598 O 1144.26 6.87667 -5.41053 0
M  V30 6599 C 1144.75 4.52537 -5.39283 0
M  V30 6600 C 1144.04 4.20027 -4.08623 0
M  V30 6601 N 1144.09 2.76189 -3.71603 0
M  V30 6602 H 1141.25 4.797 -7.24003 0
M  V30 6603 H 1140.98 3.69856 -5.84513 0
M  V30 6604 H 1141.85 6.10356 -5.41441 0
M  V30 6605 P 1145.81 7.20834 -5.23717 0
M  V30 6606 O 1146.03 8.66104 -5.38572 0
M  V30 6607 O 1146.6 6.33544 -6.1349 0
M  V30 6608 O 1146.06 6.7751 -3.72168 0
M  V30 6609 C 1145.12 7.20825 -2.7076 0
M  V30 6610 C 1145.85 7.45864 -1.40599 0
M  V30 6611 O 1146.06 6.17651 -0.734225 0
M  V30 6612 C 1147.25 8.05808 -1.51899 0
M  V30 6613 O 1147.64 8.74358 -0.335205 0
M  V30 6614 C 1148.13 6.83093 -1.70294 0
M  V30 6615 C 1147.42 5.79992 -0.836974 0
M  V30 6616 N 1147.47 4.41864 -1.38293 0
M  V30 6617 H 1144.63 8.13644 -3.0377 0
M  V30 6618 H 1144.36 6.42788 -2.55485 0
M  V30 6619 H 1145.23 8.12039 -0.792769 0
M  V30 6620 P 1149.19 8.91 8.91573e-12 0
M  V30 6621 O 1149.41 10.1726 0.733694 0
M  V30 6622 O 1149.98 8.73148 -1.23936 0
M  V30 6623 O 1149.44 7.66872 0.971405 0
M  V30 6624 C 1148.5 7.42309 2.04641 0
M  V30 6625 C 1149.23 6.86059 3.24661 0
M  V30 6626 O 1149.44 5.42847 3.03646 0
M  V30 6627 C 1150.63 7.41196 3.50753 0
M  V30 6628 O 1151.02 7.27073 4.86816 0
M  V30 6629 C 1151.51 6.5273 2.63741 0
M  V30 6630 C 1150.8 5.1842 2.73198 0
M  V30 6631 N 1150.85 4.38762 1.4784 0
M  V30 6632 H 1148.01 8.36803 2.32493 0
M  V30 6633 H 1147.74 6.70197 1.71129 0
M  V30 6634 H 1148.61 7.03551 4.13168 0
M  V30 6635 P 1152.57 7.20834 5.23717 0
M  V30 6636 O 1152.79 7.79853 6.57286 0
M  V30 6637 O 1153.36 7.79239 4.12957 0
M  V30 6638 O 1152.82 5.63315 5.29344 0
M  V30 6639 C 1151.88 4.80255 6.01876 0
M  V30 6640 C 1152.61 3.64202 6.65911 0
M  V30 6641 O 1152.82 2.60694 5.64732 0
M  V30 6642 C 1154.01 3.93473 7.1943 0
M  V30 6643 O 1154.4 3.02071 8.21205 0
M  V30 6644 C 1154.89 3.73047 5.97036 0
M  V30 6645 C 1154.18 2.58828 5.25741 0
M  V30 6646 N 1154.23 2.68068 3.77503 0
M  V30 6647 C 1154.15 3.79715 2.96723 0
M  V30 6648 N 1154.23 3.5377 1.68852 0
M  V30 6649 C 1154.37 2.15054 1.63254 0
M  V30 6650 C 1154.5 1.28964 0.518571 0
M  V30 6651 O 1154.52 1.56826 -0.679156 0
M  V30 6652 N 1154.62 -0.0538097 0.918425 0
M  V30 6653 C 1154.62 -0.494275 2.22578 0
M  V30 6654 N 1154.75 -1.81086 2.40434 0
M  V30 6655 N 1154.49 0.313645 3.27502 0
M  V30 6656 C 1154.37 1.61829 2.91033 0
M  V30 6657 H 1151.39 5.40332 6.79951 0
M  V30 6658 H 1151.12 4.41613 5.32378 0
M  V30 6659 H 1151.99 3.26331 7.47797 0
M  V30 6660 H 1154.65 1.63422 5.56814 0
M  V30 6661 H 1154.93 4.63374 5.34244 0
M  V30 6662 H 1155.92 3.44728 6.25838 0
M  V30 6663 H 1154.08 4.96652 7.57263 0
M  V30 6664 H 1154.03 4.80617 3.3614 0
M  V30 6665 H 1154.72 -0.742702 0.199384 0
M  V30 6666 H 1154.75 -2.20598 3.35588 0
M  V30 6667 H 1154.85 -2.43518 1.58945 0
M  V30 6668 P 1155.95 2.75334 8.47391 0
M  V30 6669 O 1156.17 2.44595 9.90239 0
M  V30 6670 O 1156.74 3.87732 7.92204 0
M  V30 6671 O 1156.2 1.4459 7.59357 0
M  V30 6672 C 1155.26 0.347563 7.69115 0
M  V30 6673 C 1155.99 -0.96767 7.52806 0
M  V30 6674 O 1156.2 -1.21036 6.1011 0
M  V30 6675 C 1157.39 -1.04544 8.13308 0
M  V30 6676 O 1157.78 -2.38311 8.41922 0
M  V30 6677 C 1158.27 -0.491279 7.02284 0
M  V30 6678 C 1157.56 -0.996264 5.77469 0
M  V30 6679 N 1157.61 -0.0501808 4.62873 0
M  V30 6680 C 1157.76 -0.588177 3.36904 0
M  V30 6681 O 1157.85 -1.78598 3.17173 0
M  V30 6682 N 1157.8 0.329694 2.33686 0
M  V30 6683 C 1157.71 1.6953 2.45079 0
M  V30 6684 O 1157.76 2.41926 1.44899 0
M  V30 6685 C 1157.56 2.16933 3.80505 0
M  V30 6686 C 1157.45 3.65373 3.97621 0
M  V30 6687 C 1157.51 1.30326 4.83752 0
M  V30 6688 H 1154.77 0.374722 8.67691 0
M  V30 6689 H 1154.5 0.443421 6.90177 0
M  V30 6690 H 1155.37 -1.75537 7.96793 0
M  V30 6691 H 1158.03 -1.94496 5.46629 0
M  V30 6692 H 1158.31 0.608651 7.04676 0
M  V30 6693 H 1159.3 -0.889672 7.08939 0
M  V30 6694 H 1157.46 -0.43308 9.04564 0
M  V30 6695 H 1157.39 1.68366 5.8516 0
M  V30 6696 H 1158.42 4.05985 4.30448 0
M  V30 6697 H 1156.69 3.88028 4.72875 0
M  V30 6698 H 1157.17 4.11381 3.01609 0
M  V30 6699 H 1157.91 -0.0393617 1.41345 0
M  V30 6700 P 1159.33 -2.75334 8.47391 0
M  V30 6701 O 1159.55 -3.84128 9.44797 0
M  V30 6702 O 1160.12 -1.51947 8.68712 0
M  V30 6703 O 1159.58 -3.29363 6.99321 0
M  V30 6704 C 1158.64 -4.24011 6.4274 0
M  V30 6705 C 1159.37 -5.20775 5.52155 0
M  V30 6706 O 1159.58 -4.56534 4.22446 0
M  V30 6707 C 1160.77 -5.62629 5.96531 0
M  V30 6708 O 1161.16 -6.87667 5.41053 0
M  V30 6709 C 1161.65 -4.52537 5.39283 0
M  V30 6710 C 1160.94 -4.20027 4.08623 0
M  V30 6711 N 1160.99 -2.76189 3.71603 0
M  V30 6712 H 1158.15 -4.797 7.24003 0
M  V30 6713 H 1157.88 -3.69856 5.84513 0
M  V30 6714 H 1158.75 -6.10356 5.41441 0
M  V30 6715 P 1162.71 -7.20834 5.23717 0
M  V30 6716 O 1162.93 -8.66104 5.38572 0
M  V30 6717 O 1163.5 -6.33544 6.1349 0
M  V30 6718 O 1162.96 -6.7751 3.72168 0
M  V30 6719 C 1162.02 -7.20825 2.7076 0
M  V30 6720 C 1162.75 -7.45864 1.40599 0
M  V30 6721 O 1162.96 -6.17651 0.734225 0
M  V30 6722 C 1164.15 -8.05808 1.51899 0
M  V30 6723 O 1164.54 -8.74358 0.335205 0
M  V30 6724 C 1165.03 -6.83093 1.70294 0
M  V30 6725 C 1164.32 -5.79992 0.836974 0
M  V30 6726 N 1164.37 -4.41864 1.38293 0
M  V30 6727 H 1161.53 -8.13644 3.0377 0
M  V30 6728 H 1161.26 -6.42788 2.55485 0
M  V30 6729 H 1162.13 -8.12039 0.792769 0
M  V30 6730 P 1166.09 -8.91 -9.07291e-12 0
M  V30 6731 O 1166.31 -10.1746 -0.733838 0
M  V30 6732 O 1166.88 -8.73346 1.23964 0
M  V30 6733 O 1166.34 -7.66872 -0.971405 0
M  V30 6734 C 1165.4 -7.42405 -2.04668 0
M  V30 6735 C 1166.13 -6.86059 -3.24661 0
M  V30 6736 O 1166.34 -5.42934 -3.03695 0
M  V30 6737 C 1167.53 -7.41287 -3.50796 0
M  V30 6738 O 1167.92 -7.27073 -4.86816 0
M  V30 6739 C 1168.41 -6.5273 -2.63741 0
M  V30 6740 C 1167.7 -5.1842 -2.73198 0
M  V30 6741 N 1167.75 -4.38762 -1.4784 0
M  V30 6742 H 1164.92 -8.36899 -2.3252 0
M  V30 6743 H 1164.64 -6.70391 -1.71179 0
M  V30 6744 H 1165.51 -7.03638 -4.13219 0
M  V30 6745 H 1168.17 -4.59931 -3.54016 0
M  V30 6746 H 1168.45 -6.88995 -1.59871 0
M  V30 6747 H 1169.44 -6.4684 -3.0373 0
M  V30 6748 H 1167.6 -8.47002 -3.20749 0
M  V30 6749 P 1169.47 -7.20834 -5.23717 0
M  V30 6750 O 1169.69 -7.80006 -6.57415 0
M  V30 6751 O 1170.26 -7.79416 -4.13051 0
M  V30 6752 O 1169.72 -5.63315 -5.29344 0
M  V30 6753 C 1168.78 -4.80318 -6.01954 0
M  V30 6754 C 1169.51 -3.64202 -6.65911 0
M  V30 6755 O 1169.72 -2.60736 -5.64823 0
M  V30 6756 C 1170.91 -3.93521 -7.19518 0
M  V30 6757 O 1171.3 -3.02071 -8.21205 0
M  V30 6758 C 1171.79 -3.73047 -5.97036 0
M  V30 6759 C 1171.08 -2.58828 -5.25741 0
M  V30 6760 N 1171.13 -2.68068 -3.77503 0
M  V30 6761 C 1171.05 -3.80474 -2.99159 0
M  V30 6762 N 1171.12 -3.55622 -1.71925 0
M  V30 6763 C 1171.27 -2.1832 -1.65733 0
M  V30 6764 C 1171.4 -1.28842 -0.572777 0
M  V30 6765 N 1171.41 -1.66875 0.70098 0
M  V30 6766 N 1171.52 0.016788 -0.859836 0
M  V30 6767 C 1171.51 0.398145 -2.13316 0
M  V30 6768 N 1171.39 -0.328224 -3.22333 0
M  V30 6769 C 1171.27 -1.62992 -2.90383 0
M  V30 6770 H 1168.3 -5.40394 -6.8003 0
M  V30 6771 H 1168.02 -4.41741 -5.32532 0
M  V30 6772 H 1168.89 -3.26371 -7.47889 0
M  V30 6773 H 1171.55 -1.64007 -5.56746 0
M  V30 6774 H 1171.83 -4.63439 -5.3432 0
M  V30 6775 H 1172.82 -3.44776 -6.25925 0
M  V30 6776 H 1170.98 -4.96707 -7.57347 0
M  V30 6777 H 1170.94 -4.8089 -3.39924 0
M  V30 6778 H 1171.32 -2.66547 0.941919 0
M  V30 6779 H 1171.51 -0.965341 1.44766 0
M  V30 6780 H 1171.62 1.46427 -2.29697 0
M  V30 6781 P 1172.85 -2.75334 -8.47391 0
M  V30 6782 O 1173.07 -2.44571 -9.90142 0
M  V30 6783 O 1173.64 -3.87688 -7.92115 0
M  V30 6784 O 1173.1 -1.4459 -7.59357 0
M  V30 6785 C 1172.16 -0.347608 -7.69215 0
M  V30 6786 C 1172.89 0.96767 -7.52806 0
M  V30 6787 O 1173.1 1.21036 -6.1011 0
M  V30 6788 C 1174.29 1.04544 -8.13308 0
M  V30 6789 O 1174.68 2.38311 -8.41922 0
M  V30 6790 C 1175.17 0.491279 -7.02284 0
M  V30 6791 C 1174.46 0.996264 -5.77469 0
M  V30 6792 N 1174.51 0.0501916 -4.62973 0
M  V30 6793 H 1171.67 -0.374722 -8.67691 0
M  V30 6794 H 1171.4 -0.443485 -6.90277 0
M  V30 6795 H 1172.27 1.75537 -7.96793 0
M  V30 6796 P 1176.23 2.75334 -8.47391 0
M  V30 6797 O 1176.45 3.84128 -9.44797 0
M  V30 6798 O 1177.02 1.51947 -8.68712 0
M  V30 6799 O 1176.48 3.29363 -6.99321 0
M  V30 6800 C 1175.54 4.24011 -6.4274 0
M  V30 6801 C 1176.27 5.20775 -5.52155 0
M  V30 6802 O 1176.48 4.56534 -4.22446 0
M  V30 6803 C 1177.67 5.62629 -5.96531 0
M  V30 6804 O 1178.06 6.87667 -5.41053 0
M  V30 6805 C 1178.55 4.52537 -5.39283 0
M  V30 6806 C 1177.84 4.20027 -4.08623 0
M  V30 6807 N 1177.89 2.76189 -3.71603 0
M  V30 6808 H 1175.05 4.797 -7.24003 0
M  V30 6809 H 1174.78 3.69856 -5.84513 0
M  V30 6810 H 1175.65 6.10356 -5.41441 0
M  V30 6811 P 1179.61 7.20834 -5.23717 0
M  V30 6812 O 1179.83 8.66274 -5.38678 0
M  V30 6813 O 1180.4 6.33687 -6.13629 0
M  V30 6814 O 1179.86 6.7751 -3.72168 0
M  V30 6815 C 1178.92 7.20919 -2.70795 0
M  V30 6816 C 1179.65 7.45864 -1.40599 0
M  V30 6817 O 1179.86 6.17751 -0.734343 0
M  V30 6818 C 1181.05 8.05906 -1.51917 0
M  V30 6819 O 1181.44 8.74358 -0.335205 0
M  V30 6820 C 1181.93 6.83093 -1.70294 0
M  V30 6821 C 1181.22 5.79992 -0.836974 0
M  V30 6822 N 1181.27 4.41864 -1.38293 0
M  V30 6823 C 1181.19 4.02089 -2.69407 0
M  V30 6824 N 1181.26 2.73403 -2.85089 0
M  V30 6825 C 1181.41 2.25086 -1.5642 0
M  V30 6826 C 1181.54 0.942887 -1.04836 0
M  V30 6827 N 1181.55 -0.150999 -1.80369 0
M  V30 6828 N 1181.66 0.812565 0.28167 0
M  V30 6829 C 1181.65 1.90572 1.03784 0
M  V30 6830 N 1181.53 3.167 0.683905 0
M  V30 6831 C 1181.41 3.26538 -0.652815 0
M  V30 6832 H 1178.44 8.13738 -3.03804 0
M  V30 6833 H 1178.16 6.42974 -2.55559 0
M  V30 6834 H 1179.03 8.12139 -0.792866 0
M  V30 6835 H 1181.69 5.80178 0.160643 0
M  V30 6836 H 1181.97 6.51379 -2.75643 0
M  V30 6837 H 1182.96 7.01832 -1.3448 0
M  V30 6838 H 1181.12 8.73771 -2.38364 0
M  V30 6839 H 1181.08 4.7189 -3.52311 0
M  V30 6840 H 1181.46 -0.0721434 -2.82608 0
M  V30 6841 H 1181.65 -1.0785 -1.36544 0
M  V30 6842 H 1181.76 1.73207 2.10241 0
M  V30 6843 P 1182.99 8.91 9.23009e-12 0
M  V30 6844 O 1183.21 10.1746 0.733838 0
M  V30 6845 O 1183.78 8.73346 -1.23964 0
M  V30 6846 O 1183.24 7.66872 0.971405 0
M  V30 6847 C 1182.3 7.42405 2.04668 0
M  V30 6848 C 1183.03 6.86059 3.24661 0
M  V30 6849 O 1183.24 5.42934 3.03695 0
M  V30 6850 C 1184.43 7.41287 3.50796 0
M  V30 6851 O 1184.82 7.27073 4.86816 0
M  V30 6852 C 1185.31 6.5273 2.63741 0
M  V30 6853 C 1184.6 5.1842 2.73198 0
M  V30 6854 N 1184.65 4.38762 1.4784 0
M  V30 6855 C 1184.57 4.83651 0.183876 0
M  V30 6856 N 1184.64 3.88759 -0.699393 0
M  V30 6857 C 1184.79 2.7404 0.0575568 0
M  V30 6858 C 1184.92 1.37902 -0.293928 0
M  V30 6859 N 1184.93 0.938021 -1.54797 0
M  V30 6860 N 1185.04 0.491817 0.70549 0
M  V30 6861 C 1185.03 0.931735 1.95979 0
M  V30 6862 N 1184.91 2.16017 2.41481 0
M  V30 6863 C 1184.79 3.02547 1.39121 0
M  V30 6864 H 1181.82 8.36899 2.3252 0
M  V30 6865 H 1181.54 6.70391 1.71179 0
M  V30 6866 H 1182.41 7.03638 4.13219 0
M  V30 6867 H 1185.07 4.59931 3.54016 0
M  V30 6868 H 1185.35 6.88995 1.59871 0
M  V30 6869 H 1186.34 6.4684 3.0373 0
M  V30 6870 H 1184.5 8.47002 3.20749 0
M  V30 6871 H 1184.46 5.8885 -0.0765548 0
M  V30 6872 H 1184.84 1.60276 -2.32875 0
M  V30 6873 H 1185.03 -0.0699355 -1.73859 0
M  V30 6874 H 1185.14 0.165507 2.71897 0
M  V30 6875 P 1186.37 7.20834 5.23717 0
M  V30 6876 O 1186.59 7.79853 6.57286 0
M  V30 6877 O 1187.16 7.79239 4.12957 0
M  V30 6878 O 1186.62 5.63315 5.29344 0
M  V30 6879 C 1185.68 4.80255 6.01876 0
M  V30 6880 C 1186.41 3.64202 6.65911 0
M  V30 6881 O 1186.62 2.60694 5.64732 0
M  V30 6882 C 1187.81 3.93473 7.1943 0
M  V30 6883 O 1188.2 3.02071 8.21205 0
M  V30 6884 C 1188.69 3.73047 5.97036 0
M  V30 6885 C 1187.98 2.58828 5.25741 0
M  V30 6886 N 1188.03 2.68068 3.77503 0
M  V30 6887 H 1185.19 5.40332 6.79951 0
M  V30 6888 H 1184.92 4.41613 5.32378 0
M  V30 6889 H 1185.79 3.26331 7.47797 0
M  V30 6890 P 1189.75 2.75334 8.47391 0
M  V30 6891 O 1189.97 2.44619 9.90336 0
M  V30 6892 O 1190.54 3.87776 7.92294 0
M  V30 6893 O 1190 1.4459 7.59357 0
M  V30 6894 C 1189.06 0.347653 7.69315 0
M  V30 6895 C 1189.79 -0.96767 7.52806 0
M  V30 6896 O 1190 -1.21055 6.10208 0
M  V30 6897 C 1191.19 -1.04557 8.13408 0
M  V30 6898 O 1191.58 -2.38311 8.41922 0
M  V30 6899 C 1192.07 -0.491279 7.02284 0
M  V30 6900 C 1191.36 -0.996264 5.77469 0
M  V30 6901 N 1191.41 -0.0501916 4.62973 0
M  V30 6902 H 1188.57 0.374765 8.67791 0
M  V30 6903 H 1188.3 0.443613 6.90476 0
M  V30 6904 H 1189.17 -1.75559 7.96891 0
M  V30 6905 H 1191.83 -1.94563 5.46818 0
M  V30 6906 H 1192.11 0.608651 7.04676 0
M  V30 6907 H 1193.1 -0.889796 7.09039 0
M  V30 6908 H 1191.26 -0.433128 9.04664 0
M  V30 6909 P 1193.13 -2.75334 8.47391 0
M  V30 6910 O 1193.35 -3.84128 9.44797 0
M  V30 6911 O 1193.92 -1.51947 8.68712 0
M  V30 6912 O 1193.38 -3.29363 6.99321 0
M  V30 6913 C 1192.44 -4.24011 6.4274 0
M  V30 6914 C 1193.17 -5.20775 5.52155 0
M  V30 6915 O 1193.38 -4.56534 4.22446 0
M  V30 6916 C 1194.57 -5.62629 5.96531 0
M  V30 6917 O 1194.96 -6.87667 5.41053 0
M  V30 6918 C 1195.45 -4.52537 5.39283 0
M  V30 6919 C 1194.74 -4.20027 4.08623 0
M  V30 6920 N 1194.79 -2.76189 3.71603 0
M  V30 6921 H 1191.95 -4.797 7.24003 0
M  V30 6922 H 1191.68 -3.69856 5.84513 0
M  V30 6923 H 1192.55 -6.10356 5.41441 0
M  V30 6924 P 1196.51 -7.20834 5.23717 0
M  V30 6925 O 1196.73 -8.66104 5.38572 0
M  V30 6926 O 1197.3 -6.33544 6.1349 0
M  V30 6927 O 1196.76 -6.7751 3.72168 0
M  V30 6928 C 1195.82 -7.20825 2.7076 0
M  V30 6929 C 1196.55 -7.45864 1.40599 0
M  V30 6930 O 1196.76 -6.17651 0.734225 0
M  V30 6931 C 1197.95 -8.05808 1.51899 0
M  V30 6932 O 1198.34 -8.74358 0.335205 0
M  V30 6933 C 1198.83 -6.83093 1.70294 0
M  V30 6934 C 1198.12 -5.79992 0.836974 0
M  V30 6935 N 1198.17 -4.41864 1.38293 0
M  V30 6936 H 1195.33 -8.13644 3.0377 0
M  V30 6937 H 1195.06 -6.42788 2.55485 0
M  V30 6938 H 1195.93 -8.12039 0.792769 0
M  V30 6939 P 1199.89 -8.91 -9.38728e-12 0
M  V30 6940 O 1200.11 -10.1726 -0.733694 0
M  V30 6941 O 1200.68 -8.73148 1.23936 0
M  V30 6942 O 1200.14 -7.66872 -0.971405 0
M  V30 6943 C 1199.2 -7.42309 -2.04641 0
M  V30 6944 C 1199.93 -6.86059 -3.24661 0
M  V30 6945 O 1200.14 -5.42847 -3.03646 0
M  V30 6946 C 1201.33 -7.41196 -3.50753 0
M  V30 6947 O 1201.72 -7.27073 -4.86816 0
M  V30 6948 C 1202.21 -6.5273 -2.63741 0
M  V30 6949 C 1201.5 -5.1842 -2.73198 0
M  V30 6950 N 1201.55 -4.38762 -1.4784 0
M  V30 6951 H 1198.71 -8.36803 -2.32493 0
M  V30 6952 H 1198.44 -6.70197 -1.71129 0
M  V30 6953 H 1199.31 -7.03551 -4.13168 0
M  V30 6954 P 1203.27 -7.20834 -5.23717 0
M  V30 6955 O 1203.49 -7.79853 -6.57286 0
M  V30 6956 O 1204.06 -7.79239 -4.12957 0
M  V30 6957 O 1203.52 -5.63315 -5.29344 0
M  V30 6958 C 1202.58 -4.80255 -6.01876 0
M  V30 6959 C 1203.31 -3.64202 -6.65911 0
M  V30 6960 O 1203.52 -2.60694 -5.64732 0
M  V30 6961 C 1204.71 -3.93473 -7.1943 0
M  V30 6962 O 1205.1 -3.02071 -8.21205 0
M  V30 6963 C 1205.59 -3.73047 -5.97036 0
M  V30 6964 C 1204.88 -2.58828 -5.25741 0
M  V30 6965 N 1204.93 -2.68068 -3.77503 0
M  V30 6966 H 1202.09 -5.40332 -6.79951 0
M  V30 6967 H 1201.82 -4.41613 -5.32378 0
M  V30 6968 H 1202.69 -3.26331 -7.47797 0
M  V30 6969 P 1206.65 -2.75334 -8.47391 0
M  V30 6970 O 1206.87 -2.44571 -9.90142 0
M  V30 6971 O 1207.44 -3.87688 -7.92115 0
M  V30 6972 O 1206.9 -1.4459 -7.59357 0
M  V30 6973 C 1205.96 -0.347608 -7.69215 0
M  V30 6974 C 1206.69 0.96767 -7.52806 0
M  V30 6975 O 1206.9 1.21036 -6.1011 0
M  V30 6976 C 1208.09 1.04544 -8.13308 0
M  V30 6977 O 1208.48 2.38311 -8.41922 0
M  V30 6978 C 1208.97 0.491279 -7.02284 0
M  V30 6979 C 1208.26 0.996264 -5.77469 0
M  V30 6980 N 1208.31 0.0501916 -4.62973 0
M  V30 6981 H 1205.47 -0.374722 -8.67691 0
M  V30 6982 H 1205.2 -0.443485 -6.90277 0
M  V30 6983 H 1206.07 1.75537 -7.96793 0
M  V30 6984 P 1210.03 2.75334 -8.47391 0
M  V30 6985 O 1210.25 3.84128 -9.44797 0
M  V30 6986 O 1210.82 1.51947 -8.68712 0
M  V30 6987 O 1210.28 3.29363 -6.99321 0
M  V30 6988 C 1209.34 4.24011 -6.4274 0
M  V30 6989 C 1210.07 5.20775 -5.52155 0
M  V30 6990 O 1210.28 4.56534 -4.22446 0
M  V30 6991 C 1211.47 5.62629 -5.96531 0
M  V30 6992 O 1211.86 6.87667 -5.41053 0
M  V30 6993 C 1212.35 4.52537 -5.39283 0
M  V30 6994 C 1211.64 4.20027 -4.08623 0
M  V30 6995 N 1211.69 2.76189 -3.71603 0
M  V30 6996 H 1208.85 4.797 -7.24003 0
M  V30 6997 H 1208.58 3.69856 -5.84513 0
M  V30 6998 H 1209.45 6.10356 -5.41441 0
M  V30 6999 P 1213.41 7.20834 -5.23717 0
M  V30 7000 O 1213.63 8.66104 -5.38572 0
M  V30 7001 O 1214.2 6.33544 -6.1349 0
M  V30 7002 O 1213.66 6.7751 -3.72168 0
M  V30 7003 C 1212.72 7.20825 -2.7076 0
M  V30 7004 C 1213.45 7.45864 -1.40599 0
M  V30 7005 O 1213.66 6.17651 -0.734225 0
M  V30 7006 C 1214.85 8.05808 -1.51899 0
M  V30 7007 O 1215.24 8.74358 -0.335205 0
M  V30 7008 C 1215.73 6.83093 -1.70294 0
M  V30 7009 C 1215.02 5.79992 -0.836974 0
M  V30 7010 N 1215.07 4.41864 -1.38293 0
M  V30 7011 C 1214.99 3.99538 -2.69438 0
M  V30 7012 N 1215.07 2.69909 -2.84277 0
M  V30 7013 C 1215.21 2.21719 -1.5408 0
M  V30 7014 C 1215.34 0.891712 -1.06628 0
M  V30 7015 N 1215.46 0.856846 0.334985 0
M  V30 7016 C 1215.46 1.9641 1.15789 0
M  V30 7017 N 1215.59 1.72708 2.46522 0
M  V30 7018 N 1215.33 3.21165 0.713741 0
M  V30 7019 C 1215.21 3.26797 -0.639748 0
M  V30 7020 H 1212.23 8.13644 -3.0377 0
M  V30 7021 H 1211.96 6.42788 -2.55485 0
M  V30 7022 H 1212.83 8.12039 -0.792769 0
M  V30 7023 P 1216.79 8.91 9.54446e-12 0
M  V30 7024 O 1217.01 10.1726 0.733694 0
M  V30 7025 O 1217.58 8.73148 -1.23936 0
M  V30 7026 O 1217.04 7.66872 0.971405 0
M  V30 7027 C 1216.1 7.42309 2.04641 0
M  V30 7028 C 1216.83 6.86059 3.24661 0
M  V30 7029 O 1217.04 5.42847 3.03646 0
M  V30 7030 C 1218.23 7.41196 3.50753 0
M  V30 7031 O 1218.62 7.27073 4.86816 0
M  V30 7032 C 1219.11 6.5273 2.63741 0
M  V30 7033 C 1218.4 5.1842 2.73198 0
M  V30 7034 N 1218.45 4.38762 1.4784 0
M  V30 7035 H 1215.61 8.36803 2.32493 0
M  V30 7036 H 1215.34 6.70197 1.71129 0
M  V30 7037 H 1216.21 7.03551 4.13168 0
M  V30 7038 P 1220.17 7.20834 5.23717 0
M  V30 7039 O 1220.39 7.79853 6.57286 0
M  V30 7040 O 1220.96 7.79239 4.12957 0
M  V30 7041 O 1220.42 5.63315 5.29344 0
M  V30 7042 C 1219.48 4.80255 6.01876 0
M  V30 7043 C 1220.21 3.64202 6.65911 0
M  V30 7044 O 1220.42 2.60694 5.64732 0
M  V30 7045 C 1221.61 3.93473 7.1943 0
M  V30 7046 O 1222 3.02071 8.21205 0
M  V30 7047 C 1222.49 3.73047 5.97036 0
M  V30 7048 C 1221.78 2.58828 5.25741 0
M  V30 7049 N 1221.83 2.68068 3.77503 0
M  V30 7050 H 1218.99 5.40332 6.79951 0
M  V30 7051 H 1218.72 4.41613 5.32378 0
M  V30 7052 H 1219.59 3.26331 7.47797 0
M  V30 7053 P 1223.55 2.75334 8.47391 0
M  V30 7054 O 1223.77 2.44595 9.90239 0
M  V30 7055 O 1224.34 3.87732 7.92204 0
M  V30 7056 O 1223.8 1.4459 7.59357 0
M  V30 7057 C 1222.86 0.347563 7.69115 0
M  V30 7058 C 1223.59 -0.96767 7.52806 0
M  V30 7059 O 1223.8 -1.21036 6.1011 0
M  V30 7060 C 1224.99 -1.04544 8.13308 0
M  V30 7061 O 1225.38 -2.38311 8.41922 0
M  V30 7062 C 1225.87 -0.491279 7.02284 0
M  V30 7063 C 1225.16 -0.996264 5.77469 0
M  V30 7064 N 1225.21 -0.0501808 4.62873 0
M  V30 7065 C 1225.36 -0.588177 3.36904 0
M  V30 7066 O 1225.45 -1.78598 3.17173 0
M  V30 7067 N 1225.4 0.329694 2.33686 0
M  V30 7068 C 1225.31 1.6953 2.45079 0
M  V30 7069 C 1225.16 2.16933 3.80505 0
M  V30 7070 C 1225.11 1.30326 4.83752 0
M  V30 7071 H 1222.37 0.374722 8.67691 0
M  V30 7072 H 1222.1 0.443421 6.90177 0
M  V30 7073 H 1222.97 -1.75537 7.96793 0
M  V30 7074 H 1225.63 -1.94496 5.46629 0
M  V30 7075 H 1225.9 0.608651 7.04676 0
M  V30 7076 H 1226.9 -0.889672 7.08939 0
M  V30 7077 H 1225.06 -0.43308 9.04564 0
M  V30 7078 H 1224.99 1.68366 5.8516 0
M  V30 7079 P 1226.93 -2.75334 8.47391 0
M  V30 7080 O 1227.15 -3.84128 9.44797 0
M  V30 7081 O 1227.72 -1.51947 8.68712 0
M  V30 7082 O 1227.18 -3.29363 6.99321 0
M  V30 7083 C 1226.24 -4.24011 6.4274 0
M  V30 7084 C 1226.97 -5.20775 5.52155 0
M  V30 7085 O 1227.18 -4.56534 4.22446 0
M  V30 7086 C 1228.37 -5.62629 5.96531 0
M  V30 7087 O 1228.76 -6.87667 5.41053 0
M  V30 7088 C 1229.25 -4.52537 5.39283 0
M  V30 7089 C 1228.54 -4.20027 4.08623 0
M  V30 7090 N 1228.59 -2.76189 3.71603 0
M  V30 7091 C 1228.51 -1.64862 4.52822 0
M  V30 7092 N 1228.59 -0.512671 3.88633 0
M  V30 7093 C 1228.73 -0.888083 2.54977 0
M  V30 7094 C 1228.86 -0.094668 1.38677 0
M  V30 7095 N 1228.98 -0.890102 0.232633 0
M  V30 7096 C 1228.98 -2.26958 0.21772 0
M  V30 7097 N 1229.11 -2.84626 -0.97925 0
M  V30 7098 N 1228.85 -3.0178 1.31033 0
M  V30 7099 C 1228.73 -2.26781 2.43843 0
M  V30 7100 H 1225.75 -4.797 7.24003 0
M  V30 7101 H 1225.48 -3.69856 5.84513 0
M  V30 7102 H 1226.35 -6.10356 5.41441 0
M  V30 7103 P 1230.31 -7.20834 5.23717 0
M  V30 7104 O 1230.53 -8.66104 5.38572 0
M  V30 7105 O 1231.1 -6.33544 6.1349 0
M  V30 7106 O 1230.56 -6.7751 3.72168 0
M  V30 7107 C 1229.62 -7.20825 2.7076 0
M  V30 7108 C 1230.35 -7.45864 1.40599 0
M  V30 7109 O 1230.56 -6.17651 0.734225 0
M  V30 7110 C 1231.75 -8.05808 1.51899 0
M  V30 7111 O 1232.14 -8.74358 0.335205 0
M  V30 7112 C 1232.63 -6.83093 1.70294 0
M  V30 7113 C 1231.92 -5.79992 0.836974 0
M  V30 7114 N 1231.97 -4.41864 1.38293 0
M  V30 7115 C 1231.89 -3.99538 2.69438 0
M  V30 7116 N 1231.97 -2.69909 2.84277 0
M  V30 7117 C 1232.11 -2.21719 1.5408 0
M  V30 7118 C 1232.24 -0.891712 1.06628 0
M  V30 7119 O 1232.26 0.161298 1.70137 0
M  V30 7120 N 1232.36 -0.856846 -0.334985 0
M  V30 7121 C 1232.36 -1.9641 -1.15789 0
M  V30 7122 N 1232.49 -1.72708 -2.46522 0
M  V30 7123 N 1232.23 -3.21165 -0.713741 0
M  V30 7124 C 1232.11 -3.26797 0.639748 0
M  V30 7125 H 1229.13 -8.13644 3.0377 0
M  V30 7126 H 1228.86 -6.42788 2.55485 0
M  V30 7127 H 1229.73 -8.12039 0.792769 0
M  V30 7128 H 1232.39 -5.80061 -0.166416 0
M  V30 7129 H 1232.66 -6.51287 2.75604 0
M  V30 7130 H 1233.66 -7.01734 1.34462 0
M  V30 7131 H 1231.82 -8.73674 2.38337 0
M  V30 7132 H 1231.77 -4.68207 3.53221 0
M  V30 7133 H 1232.46 0.0398818 -0.767965 0
M  V30 7134 H 1232.49 -2.50995 -3.13503 0
M  V30 7135 H 1232.59 -0.759148 -2.80716 0
M  V30 7136 P 1233.69 -8.91 -9.70164e-12 0
M  V30 7137 O 1233.91 -10.1726 -0.733694 0
M  V30 7138 O 1234.48 -8.73148 1.23936 0
M  V30 7139 O 1233.94 -7.66872 -0.971405 0
M  V30 7140 C 1233 -7.42309 -2.04641 0
M  V30 7141 C 1233.73 -6.86059 -3.24661 0
M  V30 7142 O 1233.94 -5.42847 -3.03646 0
M  V30 7143 C 1235.13 -7.41196 -3.50753 0
M  V30 7144 O 1235.52 -7.27073 -4.86816 0
M  V30 7145 C 1236.01 -6.5273 -2.63741 0
M  V30 7146 C 1235.3 -5.1842 -2.73198 0
M  V30 7147 N 1235.35 -4.38762 -1.4784 0
M  V30 7148 H 1232.51 -8.36803 -2.32493 0
M  V30 7149 H 1232.24 -6.70197 -1.71129 0
M  V30 7150 H 1233.11 -7.03551 -4.13168 0
M  V30 7151 P 1237.07 -7.20834 -5.23717 0
M  V30 7152 O 1237.29 -7.79853 -6.57286 0
M  V30 7153 O 1237.86 -7.79239 -4.12957 0
M  V30 7154 O 1237.32 -5.63315 -5.29344 0
M  V30 7155 C 1236.38 -4.80255 -6.01876 0
M  V30 7156 C 1237.11 -3.64202 -6.65911 0
M  V30 7157 O 1237.32 -2.60694 -5.64732 0
M  V30 7158 C 1238.51 -3.93473 -7.1943 0
M  V30 7159 O 1238.9 -3.02071 -8.21205 0
M  V30 7160 C 1239.39 -3.73047 -5.97036 0
M  V30 7161 C 1238.68 -2.58828 -5.25741 0
M  V30 7162 N 1238.73 -2.68068 -3.77503 0
M  V30 7163 C 1238.65 -3.79715 -2.96723 0
M  V30 7164 N 1238.73 -3.5377 -1.68852 0
M  V30 7165 C 1238.87 -2.15054 -1.63254 0
M  V30 7166 C 1239 -1.28964 -0.518571 0
M  V30 7167 O 1239.02 -1.56826 0.679156 0
M  V30 7168 N 1239.12 0.0538097 -0.918425 0
M  V30 7169 C 1239.12 0.494275 -2.22578 0
M  V30 7170 N 1239.25 1.81086 -2.40434 0
M  V30 7171 N 1238.99 -0.313645 -3.27502 0
M  V30 7172 C 1238.87 -1.61829 -2.91033 0
M  V30 7173 H 1235.89 -5.40332 -6.79951 0
M  V30 7174 H 1235.62 -4.41613 -5.32378 0
M  V30 7175 H 1236.49 -3.26331 -7.47797 0
M  V30 7176 H 1239.15 -1.63422 -5.56814 0
M  V30 7177 H 1239.42 -4.63374 -5.34244 0
M  V30 7178 H 1240.42 -3.44728 -6.25838 0
M  V30 7179 H 1238.58 -4.96652 -7.57263 0
M  V30 7180 H 1238.53 -4.80617 -3.3614 0
M  V30 7181 H 1239.22 0.742702 -0.199384 0
M  V30 7182 H 1239.25 2.20598 -3.35588 0
M  V30 7183 H 1239.35 2.43518 -1.58945 0
M  V30 7184 P 1240.45 -2.75334 -8.47391 0
M  V30 7185 O 1240.67 -2.44571 -9.90142 0
M  V30 7186 O 1241.24 -3.87688 -7.92115 0
M  V30 7187 O 1240.7 -1.4459 -7.59357 0
M  V30 7188 C 1239.76 -0.347608 -7.69215 0
M  V30 7189 C 1240.49 0.96767 -7.52806 0
M  V30 7190 O 1240.7 1.21036 -6.1011 0
M  V30 7191 C 1241.89 1.04544 -8.13308 0
M  V30 7192 O 1242.28 2.38311 -8.41922 0
M  V30 7193 C 1242.77 0.491279 -7.02284 0
M  V30 7194 C 1242.06 0.996264 -5.77469 0
M  V30 7195 N 1242.11 0.0501916 -4.62973 0
M  V30 7196 H 1239.27 -0.374722 -8.67691 0
M  V30 7197 H 1239 -0.443485 -6.90277 0
M  V30 7198 H 1239.87 1.75537 -7.96793 0
M  V30 7199 P 1243.83 2.75334 -8.47391 0
M  V30 7200 O 1244.05 3.84128 -9.44797 0
M  V30 7201 O 1244.62 1.51947 -8.68712 0
M  V30 7202 O 1244.08 3.29363 -6.99321 0
M  V30 7203 C 1243.14 4.24011 -6.4274 0
M  V30 7204 C 1243.87 5.20775 -5.52155 0
M  V30 7205 O 1244.08 4.56534 -4.22446 0
M  V30 7206 C 1245.27 5.62629 -5.96531 0
M  V30 7207 O 1245.66 6.87667 -5.41053 0
M  V30 7208 C 1246.15 4.52537 -5.39283 0
M  V30 7209 C 1245.44 4.20027 -4.08623 0
M  V30 7210 N 1245.49 2.76189 -3.71603 0
M  V30 7211 H 1242.65 4.797 -7.24003 0
M  V30 7212 H 1242.38 3.69856 -5.84513 0
M  V30 7213 H 1243.25 6.10356 -5.41441 0
M  V30 7214 P 1247.21 7.20834 -5.23717 0
M  V30 7215 O 1247.43 8.66104 -5.38572 0
M  V30 7216 O 1248 6.33544 -6.1349 0
M  V30 7217 O 1247.46 6.7751 -3.72168 0
M  V30 7218 C 1246.52 7.20825 -2.7076 0
M  V30 7219 C 1247.25 7.45864 -1.40599 0
M  V30 7220 O 1247.46 6.17651 -0.734225 0
M  V30 7221 C 1248.65 8.05808 -1.51899 0
M  V30 7222 O 1249.04 8.74358 -0.335205 0
M  V30 7223 C 1249.53 6.83093 -1.70294 0
M  V30 7224 C 1248.82 5.79992 -0.836974 0
M  V30 7225 N 1248.87 4.41864 -1.38293 0
M  V30 7226 H 1246.03 8.13644 -3.0377 0
M  V30 7227 H 1245.76 6.42788 -2.55485 0
M  V30 7228 H 1246.63 8.12039 -0.792769 0
M  V30 7229 P 1250.59 8.91 9.85882e-12 0
M  V30 7230 O 1250.81 10.1726 0.733694 0
M  V30 7231 O 1251.38 8.73148 -1.23936 0
M  V30 7232 O 1250.84 7.66872 0.971405 0
M  V30 7233 C 1249.9 7.42309 2.04641 0
M  V30 7234 C 1250.63 6.86059 3.24661 0
M  V30 7235 O 1250.84 5.42847 3.03646 0
M  V30 7236 C 1252.03 7.41196 3.50753 0
M  V30 7237 O 1252.42 7.27073 4.86816 0
M  V30 7238 C 1252.91 6.5273 2.63741 0
M  V30 7239 C 1252.2 5.1842 2.73198 0
M  V30 7240 N 1252.25 4.38762 1.4784 0
M  V30 7241 H 1249.41 8.36803 2.32493 0
M  V30 7242 H 1249.14 6.70197 1.71129 0
M  V30 7243 H 1250.01 7.03551 4.13168 0
M  V30 7244 P 1253.97 7.20834 5.23717 0
M  V30 7245 O 1254.19 7.79853 6.57286 0
M  V30 7246 O 1254.76 7.79239 4.12957 0
M  V30 7247 O 1254.22 5.63315 5.29344 0
M  V30 7248 C 1253.28 4.80255 6.01876 0
M  V30 7249 C 1254.01 3.64202 6.65911 0
M  V30 7250 O 1254.22 2.60694 5.64732 0
M  V30 7251 C 1255.41 3.93473 7.1943 0
M  V30 7252 O 1255.8 3.02071 8.21205 0
M  V30 7253 C 1256.29 3.73047 5.97036 0
M  V30 7254 C 1255.58 2.58828 5.25741 0
M  V30 7255 N 1255.63 2.68068 3.77503 0
M  V30 7256 H 1252.79 5.40332 6.79951 0
M  V30 7257 H 1252.52 4.41613 5.32378 0
M  V30 7258 H 1253.39 3.26331 7.47797 0
M  V30 7259 P 1257.35 2.75334 8.47391 0
M  V30 7260 O 1257.57 2.44571 9.90142 0
M  V30 7261 O 1258.14 3.87688 7.92115 0
M  V30 7262 O 1257.6 1.4459 7.59357 0
M  V30 7263 C 1256.66 0.347608 7.69215 0
M  V30 7264 C 1257.39 -0.96767 7.52806 0
M  V30 7265 O 1257.6 -1.21036 6.1011 0
M  V30 7266 C 1258.79 -1.04544 8.13308 0
M  V30 7267 O 1259.18 -2.38311 8.41922 0
M  V30 7268 C 1259.67 -0.491279 7.02284 0
M  V30 7269 C 1258.96 -0.996264 5.77469 0
M  V30 7270 N 1259.01 -0.0501916 4.62973 0
M  V30 7271 H 1256.17 0.374722 8.67691 0
M  V30 7272 H 1255.9 0.443485 6.90277 0
M  V30 7273 H 1256.77 -1.75537 7.96793 0
M  V30 7274 P 1260.73 -2.75334 8.47391 0
M  V30 7275 O 1260.95 -3.84128 9.44797 0
M  V30 7276 O 1261.52 -1.51947 8.68712 0
M  V30 7277 O 1260.98 -3.29363 6.99321 0
M  V30 7278 C 1260.04 -4.24011 6.4274 0
M  V30 7279 C 1260.77 -5.20775 5.52155 0
M  V30 7280 O 1260.98 -4.56534 4.22446 0
M  V30 7281 C 1262.17 -5.62629 5.96531 0
M  V30 7282 O 1262.56 -6.87667 5.41053 0
M  V30 7283 C 1263.05 -4.52537 5.39283 0
M  V30 7284 C 1262.34 -4.20027 4.08623 0
M  V30 7285 N 1262.39 -2.76189 3.71603 0
M  V30 7286 H 1259.55 -4.797 7.24003 0
M  V30 7287 H 1259.28 -3.69856 5.84513 0
M  V30 7288 H 1260.15 -6.10356 5.41441 0
M  V30 7289 P 1264.11 -7.20834 5.23717 0
M  V30 7290 O 1264.33 -8.66104 5.38572 0
M  V30 7291 O 1264.9 -6.33544 6.1349 0
M  V30 7292 O 1264.36 -6.7751 3.72168 0
M  V30 7293 C 1263.42 -7.20825 2.7076 0
M  V30 7294 C 1264.15 -7.45864 1.40599 0
M  V30 7295 O 1264.36 -6.17651 0.734225 0
M  V30 7296 C 1265.55 -8.05808 1.51899 0
M  V30 7297 O 1265.94 -8.74358 0.335205 0
M  V30 7298 C 1266.43 -6.83093 1.70294 0
M  V30 7299 C 1265.72 -5.79992 0.836974 0
M  V30 7300 N 1265.77 -4.41864 1.38293 0
M  V30 7301 H 1262.93 -8.13644 3.0377 0
M  V30 7302 H 1262.66 -6.42788 2.55485 0
M  V30 7303 H 1263.53 -8.12039 0.792769 0
M  V30 7304 P 1267.49 -8.91 -1.0016e-11 0
M  V30 7305 O 1267.71 -10.1746 -0.733838 0
M  V30 7306 O 1268.28 -8.73346 1.23964 0
M  V30 7307 O 1267.74 -7.66872 -0.971405 0
M  V30 7308 C 1266.8 -7.42405 -2.04668 0
M  V30 7309 C 1267.53 -6.86059 -3.24661 0
M  V30 7310 O 1267.74 -5.42934 -3.03695 0
M  V30 7311 C 1268.93 -7.41287 -3.50796 0
M  V30 7312 O 1269.32 -7.27073 -4.86816 0
M  V30 7313 C 1269.81 -6.5273 -2.63741 0
M  V30 7314 C 1269.1 -5.1842 -2.73198 0
M  V30 7315 N 1269.15 -4.38762 -1.4784 0
M  V30 7316 H 1266.31 -8.36899 -2.3252 0
M  V30 7317 H 1266.04 -6.70391 -1.71179 0
M  V30 7318 H 1266.91 -7.03638 -4.13219 0
M  V30 7319 H 1269.57 -4.59931 -3.54016 0
M  V30 7320 H 1269.85 -6.88995 -1.59871 0
M  V30 7321 H 1270.84 -6.4684 -3.0373 0
M  V30 7322 H 1269 -8.47002 -3.20749 0
M  V30 7323 P 1270.87 -7.20834 -5.23717 0
M  V30 7324 O 1271.09 -7.79853 -6.57286 0
M  V30 7325 O 1271.66 -7.79239 -4.12957 0
M  V30 7326 O 1271.12 -5.63315 -5.29344 0
M  V30 7327 C 1270.18 -4.80255 -6.01876 0
M  V30 7328 C 1270.91 -3.64202 -6.65911 0
M  V30 7329 O 1271.12 -2.60694 -5.64732 0
M  V30 7330 C 1272.31 -3.93473 -7.1943 0
M  V30 7331 O 1272.7 -3.02071 -8.21205 0
M  V30 7332 C 1273.19 -3.73047 -5.97036 0
M  V30 7333 C 1272.48 -2.58828 -5.25741 0
M  V30 7334 N 1272.53 -2.68068 -3.77503 0
M  V30 7335 H 1269.69 -5.40332 -6.79951 0
M  V30 7336 H 1269.42 -4.41613 -5.32378 0
M  V30 7337 H 1270.29 -3.26331 -7.47797 0
M  V30 7338 P 1274.25 -2.75334 -8.47391 0
M  V30 7339 O 1274.47 -2.44595 -9.90239 0
M  V30 7340 O 1275.04 -3.87732 -7.92204 0
M  V30 7341 O 1274.5 -1.4459 -7.59357 0
M  V30 7342 C 1273.56 -0.347563 -7.69115 0
M  V30 7343 C 1274.29 0.96767 -7.52806 0
M  V30 7344 O 1274.5 1.21036 -6.1011 0
M  V30 7345 C 1275.69 1.04544 -8.13308 0
M  V30 7346 O 1276.08 2.38311 -8.41922 0
M  V30 7347 C 1276.57 0.491279 -7.02284 0
M  V30 7348 C 1275.86 0.996264 -5.77469 0
M  V30 7349 N 1275.91 0.0501808 -4.62873 0
M  V30 7350 C 1276.06 0.588177 -3.36904 0
M  V30 7351 O 1276.15 1.78598 -3.17173 0
M  V30 7352 N 1276.1 -0.329694 -2.33686 0
M  V30 7353 C 1276.01 -1.6953 -2.45079 0
M  V30 7354 C 1275.86 -2.16933 -3.80505 0
M  V30 7355 C 1275.81 -1.30326 -4.83752 0
M  V30 7356 H 1273.07 -0.374722 -8.67691 0
M  V30 7357 H 1272.8 -0.443421 -6.90177 0
M  V30 7358 H 1273.67 1.75537 -7.96793 0
M  V30 7359 H 1276.33 1.94496 -5.46629 0
M  V30 7360 H 1276.6 -0.608651 -7.04676 0
M  V30 7361 H 1277.6 0.889672 -7.08939 0
M  V30 7362 H 1275.76 0.43308 -9.04564 0
M  V30 7363 H 1275.69 -1.68366 -5.8516 0
M  V30 7364 P 1277.63 2.75334 -8.47391 0
M  V30 7365 O 1277.85 3.84128 -9.44797 0
M  V30 7366 O 1278.42 1.51947 -8.68712 0
M  V30 7367 O 1277.88 3.29363 -6.99321 0
M  V30 7368 C 1276.94 4.24011 -6.4274 0
M  V30 7369 C 1277.67 5.20775 -5.52155 0
M  V30 7370 O 1277.88 4.56534 -4.22446 0
M  V30 7371 C 1279.07 5.62629 -5.96531 0
M  V30 7372 O 1279.46 6.87667 -5.41053 0
M  V30 7373 C 1279.95 4.52537 -5.39283 0
M  V30 7374 C 1279.24 4.20027 -4.08623 0
M  V30 7375 N 1279.29 2.76189 -3.71603 0
M  V30 7376 H 1276.45 4.797 -7.24003 0
M  V30 7377 H 1276.18 3.69856 -5.84513 0
M  V30 7378 H 1277.05 6.10356 -5.41441 0
M  V30 7379 P 1281.01 7.20834 -5.23717 0
M  V30 7380 O 1281.23 8.66104 -5.38572 0
M  V30 7381 O 1281.8 6.33544 -6.1349 0
M  V30 7382 O 1281.26 6.7751 -3.72168 0
M  V30 7383 C 1280.32 7.20825 -2.7076 0
M  V30 7384 C 1281.05 7.45864 -1.40599 0
M  V30 7385 O 1281.26 6.17651 -0.734225 0
M  V30 7386 C 1282.45 8.05808 -1.51899 0
M  V30 7387 O 1282.84 8.74358 -0.335205 0
M  V30 7388 C 1283.33 6.83093 -1.70294 0
M  V30 7389 C 1282.62 5.79992 -0.836974 0
M  V30 7390 N 1282.67 4.41864 -1.38293 0
M  V30 7391 C 1282.59 3.99538 -2.69438 0
M  V30 7392 N 1282.67 2.69909 -2.84277 0
M  V30 7393 C 1282.81 2.21719 -1.5408 0
M  V30 7394 C 1282.94 0.891712 -1.06628 0
M  V30 7395 N 1283.06 0.856846 0.334985 0
M  V30 7396 C 1283.06 1.9641 1.15789 0
M  V30 7397 N 1283.19 1.72708 2.46522 0
M  V30 7398 N 1282.93 3.21165 0.713741 0
M  V30 7399 C 1282.81 3.26797 -0.639748 0
M  V30 7400 H 1279.83 8.13644 -3.0377 0
M  V30 7401 H 1279.56 6.42788 -2.55485 0
M  V30 7402 H 1280.43 8.12039 -0.792769 0
M  V30 7403 P 1284.39 8.91 1.01732e-11 0
M  V30 7404 O 1284.61 10.1746 0.733838 0
M  V30 7405 O 1285.18 8.73346 -1.23964 0
M  V30 7406 O 1284.64 7.66872 0.971405 0
M  V30 7407 C 1283.7 7.42405 2.04668 0
M  V30 7408 C 1284.43 6.86059 3.24661 0
M  V30 7409 O 1284.64 5.42934 3.03695 0
M  V30 7410 C 1285.83 7.41287 3.50796 0
M  V30 7411 O 1286.22 7.27073 4.86816 0
M  V30 7412 C 1286.71 6.5273 2.63741 0
M  V30 7413 C 1286 5.1842 2.73198 0
M  V30 7414 N 1286.05 4.38762 1.4784 0
M  V30 7415 H 1283.21 8.36899 2.3252 0
M  V30 7416 H 1282.94 6.70391 1.71179 0
M  V30 7417 H 1283.81 7.03638 4.13219 0
M  V30 7418 H 1286.47 4.59931 3.54016 0
M  V30 7419 H 1286.75 6.88995 1.59871 0
M  V30 7420 H 1287.74 6.4684 3.0373 0
M  V30 7421 H 1285.9 8.47002 3.20749 0
M  V30 7422 P 1287.77 7.20834 5.23717 0
M  V30 7423 O 1287.99 7.7993 6.57351 0
M  V30 7424 O 1288.56 7.79328 4.13004 0
M  V30 7425 O 1288.02 5.63315 5.29344 0
M  V30 7426 C 1287.08 4.80193 6.01798 0
M  V30 7427 C 1287.81 3.64202 6.65911 0
M  V30 7428 O 1288.02 2.60694 5.64732 0
M  V30 7429 C 1289.21 3.93473 7.1943 0
M  V30 7430 O 1289.6 3.02071 8.21205 0
M  V30 7431 C 1290.09 3.73047 5.97036 0
M  V30 7432 C 1289.38 2.58828 5.25741 0
M  V30 7433 N 1289.43 2.6801 3.77422 0
M  V30 7434 C 1289.58 1.50443 3.07133 0
M  V30 7435 O 1289.67 0.419406 3.61576 0
M  V30 7436 N 1289.62 1.6403 1.69677 0
M  V30 7437 C 1289.53 2.81206 0.986255 0
M  V30 7438 C 1289.38 3.99158 1.80325 0
M  V30 7439 C 1289.33 3.89779 3.1476 0
M  V30 7440 H 1286.59 5.40332 6.79951 0
M  V30 7441 H 1286.32 4.41549 5.32301 0
M  V30 7442 H 1287.19 3.26331 7.47797 0
M  V30 7443 H 1289.85 1.6395 5.56554 0
M  V30 7444 H 1290.12 4.63439 5.3432 0
M  V30 7445 H 1291.12 3.44728 6.25838 0
M  V30 7446 H 1289.28 4.96652 7.57263 0
M  V30 7447 H 1289.21 4.80159 3.74441 0
M  V30 7448 P 1291.15 2.75334 8.47391 0
M  V30 7449 O 1291.37 2.44571 9.90142 0
M  V30 7450 O 1291.94 3.87688 7.92115 0
M  V30 7451 O 1291.4 1.4459 7.59357 0
M  V30 7452 C 1290.46 0.347608 7.69215 0
M  V30 7453 C 1291.19 -0.96767 7.52806 0
M  V30 7454 O 1291.4 -1.21036 6.1011 0
M  V30 7455 C 1292.59 -1.04544 8.13308 0
M  V30 7456 O 1292.98 -2.38311 8.41922 0
M  V30 7457 C 1293.47 -0.491279 7.02284 0
M  V30 7458 C 1292.76 -0.996264 5.77469 0
M  V30 7459 N 1292.81 -0.0501916 4.62973 0
M  V30 7460 H 1289.97 0.374722 8.67691 0
M  V30 7461 H 1289.7 0.443485 6.90277 0
M  V30 7462 H 1290.57 -1.75537 7.96793 0
M  V30 7463 P 1294.53 -2.75334 8.47391 0
M  V30 7464 O 1294.75 -3.84128 9.44797 0
M  V30 7465 O 1295.32 -1.51947 8.68712 0
M  V30 7466 O 1294.78 -3.29363 6.99321 0
M  V30 7467 C 1293.84 -4.24011 6.4274 0
M  V30 7468 C 1294.57 -5.20775 5.52155 0
M  V30 7469 O 1294.78 -4.56534 4.22446 0
M  V30 7470 C 1295.97 -5.62629 5.96531 0
M  V30 7471 O 1296.36 -6.87667 5.41053 0
M  V30 7472 C 1296.85 -4.52537 5.39283 0
M  V30 7473 C 1296.14 -4.20027 4.08623 0
M  V30 7474 N 1296.19 -2.76189 3.71603 0
M  V30 7475 H 1293.35 -4.797 7.24003 0
M  V30 7476 H 1293.08 -3.69856 5.84513 0
M  V30 7477 H 1293.95 -6.10356 5.41441 0
M  V30 7478 P 1297.91 -7.20834 5.23717 0
M  V30 7479 O 1298.13 -8.66274 5.38678 0
M  V30 7480 O 1298.7 -6.33687 6.13629 0
M  V30 7481 O 1298.16 -6.7751 3.72168 0
M  V30 7482 C 1297.22 -7.20919 2.70795 0
M  V30 7483 C 1297.95 -7.45864 1.40599 0
M  V30 7484 O 1298.16 -6.17751 0.734343 0
M  V30 7485 C 1299.35 -8.05906 1.51917 0
M  V30 7486 O 1299.74 -8.74358 0.335205 0
M  V30 7487 C 1300.23 -6.83093 1.70294 0
M  V30 7488 C 1299.52 -5.79992 0.836974 0
M  V30 7489 N 1299.57 -4.41864 1.38293 0
M  V30 7490 H 1296.73 -8.13738 3.03804 0
M  V30 7491 H 1296.46 -6.42974 2.55559 0
M  V30 7492 H 1297.33 -8.12139 0.792866 0
M  V30 7493 H 1299.99 -5.80178 -0.160643 0
M  V30 7494 H 1300.27 -6.51379 2.75643 0
M  V30 7495 H 1301.26 -7.01832 1.3448 0
M  V30 7496 H 1299.42 -8.73771 2.38364 0
M  V30 7497 P 1301.29 -8.91 -1.03304e-11 0
M  V30 7498 O 1301.51 -10.1726 -0.733694 0
M  V30 7499 O 1302.08 -8.73148 1.23936 0
M  V30 7500 O 1301.54 -7.66872 -0.971405 0
M  V30 7501 C 1300.6 -7.42309 -2.04641 0
M  V30 7502 C 1301.33 -6.86059 -3.24661 0
M  V30 7503 O 1301.54 -5.42847 -3.03646 0
M  V30 7504 C 1302.73 -7.41196 -3.50753 0
M  V30 7505 O 1303.12 -7.27073 -4.86816 0
M  V30 7506 C 1303.61 -6.5273 -2.63741 0
M  V30 7507 C 1302.9 -5.1842 -2.73198 0
M  V30 7508 N 1302.95 -4.38762 -1.4784 0
M  V30 7509 H 1300.11 -8.36803 -2.32493 0
M  V30 7510 H 1299.84 -6.70197 -1.71129 0
M  V30 7511 H 1300.71 -7.03551 -4.13168 0
M  V30 7512 P 1304.67 -7.20834 -5.23717 0
M  V30 7513 O 1304.89 -7.79853 -6.57286 0
M  V30 7514 O 1305.46 -7.79239 -4.12957 0
M  V30 7515 O 1304.92 -5.63315 -5.29344 0
M  V30 7516 C 1303.98 -4.80255 -6.01876 0
M  V30 7517 C 1304.71 -3.64202 -6.65911 0
M  V30 7518 O 1304.92 -2.60694 -5.64732 0
M  V30 7519 C 1306.11 -3.93473 -7.1943 0
M  V30 7520 O 1306.5 -3.02071 -8.21205 0
M  V30 7521 C 1306.99 -3.73047 -5.97036 0
M  V30 7522 C 1306.28 -2.58828 -5.25741 0
M  V30 7523 N 1306.33 -2.68068 -3.77503 0
M  V30 7524 H 1303.49 -5.40332 -6.79951 0
M  V30 7525 H 1303.22 -4.41613 -5.32378 0
M  V30 7526 H 1304.09 -3.26331 -7.47797 0
M  V30 7527 P 1308.05 -2.75334 -8.47391 0
M  V30 7528 O 1308.27 -2.44571 -9.90142 0
M  V30 7529 O 1308.84 -3.87688 -7.92115 0
M  V30 7530 O 1308.3 -1.4459 -7.59357 0
M  V30 7531 C 1307.36 -0.347608 -7.69215 0
M  V30 7532 C 1308.09 0.96767 -7.52806 0
M  V30 7533 O 1308.3 1.21036 -6.1011 0
M  V30 7534 C 1309.49 1.04544 -8.13308 0
M  V30 7535 O 1309.88 2.38311 -8.41922 0
M  V30 7536 C 1310.37 0.491279 -7.02284 0
M  V30 7537 C 1309.66 0.996264 -5.77469 0
M  V30 7538 N 1309.71 0.0501916 -4.62973 0
M  V30 7539 H 1306.87 -0.374722 -8.67691 0
M  V30 7540 H 1306.6 -0.443485 -6.90277 0
M  V30 7541 H 1307.47 1.75537 -7.96793 0
M  V30 7542 P 1311.43 2.75334 -8.47391 0
M  V30 7543 O 1311.65 3.84128 -9.44797 0
M  V30 7544 O 1312.22 1.51947 -8.68712 0
M  V30 7545 O 1311.68 3.29363 -6.99321 0
M  V30 7546 C 1310.74 4.24011 -6.4274 0
M  V30 7547 C 1311.47 5.20775 -5.52155 0
M  V30 7548 O 1311.68 4.56534 -4.22446 0
M  V30 7549 C 1312.87 5.62629 -5.96531 0
M  V30 7550 O 1313.26 6.87667 -5.41053 0
M  V30 7551 C 1313.75 4.52537 -5.39283 0
M  V30 7552 C 1313.04 4.20027 -4.08623 0
M  V30 7553 N 1313.09 2.76189 -3.71603 0
M  V30 7554 H 1310.25 4.797 -7.24003 0
M  V30 7555 H 1309.98 3.69856 -5.84513 0
M  V30 7556 H 1310.85 6.10356 -5.41441 0
M  V30 7557 P 1314.81 7.20834 -5.23717 0
M  V30 7558 O 1315.03 8.66189 -5.38625 0
M  V30 7559 O 1315.6 6.33615 -6.1356 0
M  V30 7560 O 1315.06 6.7751 -3.72168 0
M  V30 7561 C 1314.12 7.20825 -2.7076 0
M  V30 7562 C 1314.85 7.45864 -1.40599 0
M  V30 7563 O 1315.06 6.17651 -0.734225 0
M  V30 7564 C 1316.25 8.05808 -1.51899 0
M  V30 7565 O 1316.64 8.74358 -0.335205 0
M  V30 7566 C 1317.13 6.83093 -1.70294 0
M  V30 7567 C 1316.42 5.79992 -0.836974 0
M  V30 7568 N 1316.47 4.41769 -1.38263 0
M  V30 7569 C 1316.62 3.36514 -0.485617 0
M  V30 7570 O 1316.71 3.61814 0.724703 0
M  V30 7571 N 1316.67 2.00746 -1.14492 0
M  V30 7572 C 1316.57 1.85887 -2.27776 0
M  V30 7573 N 1316.62 0.600907 -2.69379 0
M  V30 7574 C 1316.42 2.92182 -3.22265 0
M  V30 7575 C 1316.37 4.18399 -2.71925 0
M  V30 7576 H 1313.63 8.1355 -3.03735 0
M  V30 7577 H 1313.36 6.42695 -2.55448 0
M  V30 7578 H 1314.23 8.12139 -0.792866 0
M  V30 7579 H 1316.89 5.80078 0.160615 0
M  V30 7580 H 1317.16 6.51379 -2.75643 0
M  V30 7581 H 1318.16 7.01734 -1.34462 0
M  V30 7582 H 1316.32 8.73674 -2.38337 0
M  V30 7583 H 1316.25 5.02669 -3.39718 0
M  V30 7584 H 1316.35 2.73001 -4.29239 0
M  V30 7585 H 1316.74 -0.162318 -2.01146 0
M  V30 7586 H 1316.54 0.387742 -3.69773 0
M  V30 7587 P 1318.19 8.91 1.04876e-11 0
M  V30 7588 O 1318.41 10.1726 0.733694 0
M  V30 7589 O 1318.98 8.73148 -1.23936 0
M  V30 7590 O 1318.44 7.66872 0.971405 0
M  V30 7591 C 1317.5 7.42309 2.04641 0
M  V30 7592 C 1318.23 6.86059 3.24661 0
M  V30 7593 O 1318.44 5.42847 3.03646 0
M  V30 7594 C 1319.63 7.41196 3.50753 0
M  V30 7595 O 1320.02 7.27073 4.86816 0
M  V30 7596 C 1320.51 6.5273 2.63741 0
M  V30 7597 C 1319.8 5.1842 2.73198 0
M  V30 7598 N 1319.85 4.38762 1.4784 0
M  V30 7599 H 1317.01 8.36803 2.32493 0
M  V30 7600 H 1316.74 6.70197 1.71129 0
M  V30 7601 H 1317.61 7.03551 4.13168 0
M  V30 7602 P 1321.57 7.20834 5.23717 0
M  V30 7603 O 1321.79 7.7993 6.57351 0
M  V30 7604 O 1322.36 7.79328 4.13004 0
M  V30 7605 O 1321.82 5.63315 5.29344 0
M  V30 7606 C 1320.88 4.80255 6.01876 0
M  V30 7607 C 1321.61 3.64202 6.65911 0
M  V30 7608 O 1321.82 2.60694 5.64732 0
M  V30 7609 C 1323.01 3.93473 7.1943 0
M  V30 7610 O 1323.4 3.02071 8.21205 0
M  V30 7611 C 1323.89 3.73047 5.97036 0
M  V30 7612 C 1323.18 2.58828 5.25741 0
M  V30 7613 N 1323.23 2.6801 3.77422 0
M  V30 7614 C 1323.38 1.50173 3.05038 0
M  V30 7615 O 1323.47 0.428832 3.665 0
M  V30 7616 N 1323.43 1.70922 1.55541 0
M  V30 7617 C 1323.33 2.7407 1.06402 0
M  V30 7618 N 1323.38 2.74764 -0.260931 0
M  V30 7619 C 1323.18 3.96781 1.78296 0
M  V30 7620 C 1323.13 3.87909 3.13891 0
M  V30 7621 H 1320.39 5.4027 6.79873 0
M  V30 7622 H 1320.12 4.41549 5.32301 0
M  V30 7623 H 1320.99 3.26371 7.47889 0
M  V30 7624 H 1323.65 1.63978 5.5665 0
M  V30 7625 H 1323.92 4.63439 5.3432 0
M  V30 7626 H 1324.92 3.44728 6.25838 0
M  V30 7627 H 1323.08 4.96652 7.57263 0
M  V30 7628 H 1323.01 4.78425 3.73088 0
M  V30 7629 H 1323.11 4.92593 1.26997 0
M  V30 7630 H 1323.5 1.86285 -0.77595 0
M  V30 7631 H 1323.3 3.63657 -0.773896 0
M  V30 7632 P 1324.95 2.75334 8.47391 0
M  V30 7633 O 1325.17 2.44571 9.90142 0
M  V30 7634 O 1325.74 3.87688 7.92115 0
M  V30 7635 O 1325.2 1.4459 7.59357 0
M  V30 7636 C 1324.26 0.347608 7.69215 0
M  V30 7637 C 1324.99 -0.96767 7.52806 0
M  V30 7638 O 1325.2 -1.21036 6.1011 0
M  V30 7639 C 1326.39 -1.04544 8.13308 0
M  V30 7640 O 1326.78 -2.38311 8.41922 0
M  V30 7641 C 1327.27 -0.491279 7.02284 0
M  V30 7642 C 1326.56 -0.996264 5.77469 0
M  V30 7643 N 1326.61 -0.0501916 4.62973 0
M  V30 7644 H 1323.77 0.374722 8.67691 0
M  V30 7645 H 1323.5 0.443485 6.90277 0
M  V30 7646 H 1324.37 -1.75537 7.96793 0
M  V30 7647 P 1328.33 -2.75334 8.47391 0
M  V30 7648 O 1328.55 -3.84128 9.44797 0
M  V30 7649 O 1329.12 -1.51947 8.68712 0
M  V30 7650 O 1328.58 -3.29363 6.99321 0
M  V30 7651 C 1327.64 -4.24011 6.4274 0
M  V30 7652 C 1328.37 -5.20775 5.52155 0
M  V30 7653 O 1328.58 -4.56534 4.22446 0
M  V30 7654 C 1329.77 -5.62629 5.96531 0
M  V30 7655 O 1330.16 -6.87667 5.41053 0
M  V30 7656 C 1330.65 -4.52537 5.39283 0
M  V30 7657 C 1329.94 -4.20027 4.08623 0
M  V30 7658 N 1329.99 -2.76189 3.71603 0
M  V30 7659 H 1327.15 -4.797 7.24003 0
M  V30 7660 H 1326.88 -3.69856 5.84513 0
M  V30 7661 H 1327.75 -6.10356 5.41441 0
M  V30 7662 P 1331.71 -7.20834 5.23717 0
M  V30 7663 O 1331.93 -8.66104 5.38572 0
M  V30 7664 O 1332.5 -6.33544 6.1349 0
M  V30 7665 O 1331.96 -6.7751 3.72168 0
M  V30 7666 C 1331.02 -7.20825 2.7076 0
M  V30 7667 C 1331.75 -7.45864 1.40599 0
M  V30 7668 O 1331.96 -6.17651 0.734225 0
M  V30 7669 C 1333.15 -8.05808 1.51899 0
M  V30 7670 O 1333.54 -8.74358 0.335205 0
M  V30 7671 C 1334.03 -6.83093 1.70294 0
M  V30 7672 C 1333.32 -5.79992 0.836974 0
M  V30 7673 N 1333.37 -4.41864 1.38293 0
M  V30 7674 H 1330.53 -8.13644 3.0377 0
M  V30 7675 H 1330.26 -6.42788 2.55485 0
M  V30 7676 H 1331.13 -8.12039 0.792769 0
M  V30 7677 P 1335.09 -8.91 -1.06447e-11 0
M  V30 7678 O 1335.31 -10.1726 -0.733694 0
M  V30 7679 O 1335.88 -8.73148 1.23936 0
M  V30 7680 O 1335.34 -7.66872 -0.971405 0
M  V30 7681 C 1334.4 -7.42309 -2.04641 0
M  V30 7682 C 1335.13 -6.86059 -3.24661 0
M  V30 7683 O 1335.34 -5.42847 -3.03646 0
M  V30 7684 C 1336.53 -7.41196 -3.50753 0
M  V30 7685 O 1336.92 -7.27073 -4.86816 0
M  V30 7686 C 1337.41 -6.5273 -2.63741 0
M  V30 7687 C 1336.7 -5.1842 -2.73198 0
M  V30 7688 N 1336.75 -4.38762 -1.4784 0
M  V30 7689 H 1333.91 -8.36803 -2.32493 0
M  V30 7690 H 1333.64 -6.70197 -1.71129 0
M  V30 7691 H 1334.51 -7.03551 -4.13168 0
M  V30 7692 P 1338.47 -7.20834 -5.23717 0
M  V30 7693 O 1338.69 -7.7993 -6.57351 0
M  V30 7694 O 1339.26 -7.79328 -4.13004 0
M  V30 7695 O 1338.72 -5.63315 -5.29344 0
M  V30 7696 C 1337.78 -4.80255 -6.01876 0
M  V30 7697 C 1338.51 -3.64202 -6.65911 0
M  V30 7698 O 1338.72 -2.60694 -5.64732 0
M  V30 7699 C 1339.91 -3.93473 -7.1943 0
M  V30 7700 O 1340.3 -3.02071 -8.21205 0
M  V30 7701 C 1340.79 -3.73047 -5.97036 0
M  V30 7702 C 1340.08 -2.58828 -5.25741 0
M  V30 7703 N 1340.13 -2.6801 -3.77422 0
M  V30 7704 C 1340.28 -1.50173 -3.05038 0
M  V30 7705 O 1340.37 -0.428832 -3.665 0
M  V30 7706 N 1340.33 -1.70922 -1.55541 0
M  V30 7707 C 1340.23 -2.7407 -1.06402 0
M  V30 7708 N 1340.28 -2.74764 0.260931 0
M  V30 7709 C 1340.08 -3.96781 -1.78296 0
M  V30 7710 C 1340.03 -3.87909 -3.13891 0
M  V30 7711 H 1337.29 -5.4027 -6.79873 0
M  V30 7712 H 1337.02 -4.41549 -5.32301 0
M  V30 7713 H 1337.89 -3.26371 -7.47889 0
M  V30 7714 H 1340.55 -1.63978 -5.5665 0
M  V30 7715 H 1340.82 -4.63439 -5.3432 0
M  V30 7716 H 1341.82 -3.44728 -6.25838 0
M  V30 7717 H 1339.98 -4.96652 -7.57263 0
M  V30 7718 H 1339.91 -4.78425 -3.73088 0
M  V30 7719 H 1340.01 -4.92593 -1.26997 0
M  V30 7720 H 1340.4 -1.86285 0.77595 0
M  V30 7721 H 1340.2 -3.63657 0.773896 0
M  V30 7722 P 1341.85 -2.75334 -8.47391 0
M  V30 7723 O 1342.07 -2.44571 -9.90142 0
M  V30 7724 O 1342.64 -3.87688 -7.92115 0
M  V30 7725 O 1342.1 -1.4459 -7.59357 0
M  V30 7726 C 1341.16 -0.347608 -7.69215 0
M  V30 7727 C 1341.89 0.96767 -7.52806 0
M  V30 7728 O 1342.1 1.21036 -6.1011 0
M  V30 7729 C 1343.29 1.04544 -8.13308 0
M  V30 7730 O 1343.68 2.38311 -8.41922 0
M  V30 7731 C 1344.17 0.491279 -7.02284 0
M  V30 7732 C 1343.46 0.996264 -5.77469 0
M  V30 7733 N 1343.51 0.0501916 -4.62973 0
M  V30 7734 H 1340.67 -0.374722 -8.67691 0
M  V30 7735 H 1340.4 -0.443485 -6.90277 0
M  V30 7736 H 1341.27 1.75537 -7.96793 0
M  V30 7737 P 1345.23 2.75334 -8.47391 0
M  V30 7738 O 1345.45 3.84128 -9.44797 0
M  V30 7739 O 1346.02 1.51947 -8.68712 0
M  V30 7740 O 1345.48 3.29363 -6.99321 0
M  V30 7741 C 1344.54 4.24011 -6.4274 0
M  V30 7742 C 1345.27 5.20775 -5.52155 0
M  V30 7743 O 1345.48 4.56534 -4.22446 0
M  V30 7744 C 1346.67 5.62629 -5.96531 0
M  V30 7745 O 1347.06 6.87667 -5.41053 0
M  V30 7746 C 1347.55 4.52537 -5.39283 0
M  V30 7747 C 1346.84 4.20027 -4.08623 0
M  V30 7748 N 1346.89 2.76189 -3.71603 0
M  V30 7749 H 1344.05 4.797 -7.24003 0
M  V30 7750 H 1343.78 3.69856 -5.84513 0
M  V30 7751 H 1344.65 6.10356 -5.41441 0
M  V30 7752 P 1348.61 7.20834 -5.23717 0
M  V30 7753 O 1348.83 8.66104 -5.38572 0
M  V30 7754 O 1349.4 6.33544 -6.1349 0
M  V30 7755 O 1348.86 6.7751 -3.72168 0
M  V30 7756 C 1347.92 7.20825 -2.7076 0
M  V30 7757 C 1348.65 7.45864 -1.40599 0
M  V30 7758 O 1348.86 6.17651 -0.734225 0
M  V30 7759 C 1350.05 8.05808 -1.51899 0
M  V30 7760 O 1350.44 8.74358 -0.335205 0
M  V30 7761 C 1350.93 6.83093 -1.70294 0
M  V30 7762 C 1350.22 5.79992 -0.836974 0
M  V30 7763 N 1350.27 4.41864 -1.38293 0
M  V30 7764 H 1347.43 8.13644 -3.0377 0
M  V30 7765 H 1347.16 6.42788 -2.55485 0
M  V30 7766 H 1348.03 8.12039 -0.792769 0
M  V30 7767 P 1351.99 8.91 1.08019e-11 0
M  V30 7768 O 1352.21 10.1726 0.733694 0
M  V30 7769 O 1352.78 8.73148 -1.23936 0
M  V30 7770 O 1352.24 7.66872 0.971405 0
M  V30 7771 C 1351.3 7.42309 2.04641 0
M  V30 7772 C 1352.03 6.86059 3.24661 0
M  V30 7773 O 1352.24 5.42847 3.03646 0
M  V30 7774 C 1353.43 7.41196 3.50753 0
M  V30 7775 O 1353.82 7.27073 4.86816 0
M  V30 7776 C 1354.31 6.5273 2.63741 0
M  V30 7777 C 1353.6 5.1842 2.73198 0
M  V30 7778 N 1353.65 4.38762 1.4784 0
M  V30 7779 H 1350.81 8.36803 2.32493 0
M  V30 7780 H 1350.54 6.70197 1.71129 0
M  V30 7781 H 1351.41 7.03551 4.13168 0
M  V30 7782 P 1355.37 7.20834 5.23717 0
M  V30 7783 O 1355.59 7.79853 6.57286 0
M  V30 7784 O 1356.16 7.79239 4.12957 0
M  V30 7785 O 1355.62 5.63315 5.29344 0
M  V30 7786 C 1354.68 4.80255 6.01876 0
M  V30 7787 C 1355.41 3.64202 6.65911 0
M  V30 7788 O 1355.62 2.60694 5.64732 0
M  V30 7789 C 1356.81 3.93473 7.1943 0
M  V30 7790 O 1357.2 3.02071 8.21205 0
M  V30 7791 C 1357.69 3.73047 5.97036 0
M  V30 7792 C 1356.98 2.58828 5.25741 0
M  V30 7793 N 1357.03 2.68068 3.77503 0
M  V30 7794 H 1354.19 5.40332 6.79951 0
M  V30 7795 H 1353.92 4.41613 5.32378 0
M  V30 7796 H 1354.79 3.26331 7.47797 0
M  V30 7797 P 1358.75 2.75334 8.47391 0
M  V30 7798 O 1358.97 2.44571 9.90142 0
M  V30 7799 O 1359.54 3.87688 7.92115 0
M  V30 7800 O 1359 1.4459 7.59357 0
M  V30 7801 C 1358.06 0.347608 7.69215 0
M  V30 7802 C 1358.79 -0.96767 7.52806 0
M  V30 7803 O 1359 -1.21036 6.1011 0
M  V30 7804 C 1360.19 -1.04544 8.13308 0
M  V30 7805 O 1360.58 -2.38311 8.41922 0
M  V30 7806 C 1361.07 -0.491279 7.02284 0
M  V30 7807 C 1360.36 -0.996264 5.77469 0
M  V30 7808 N 1360.41 -0.0501916 4.62973 0
M  V30 7809 H 1357.57 0.374722 8.67691 0
M  V30 7810 H 1357.3 0.443485 6.90277 0
M  V30 7811 H 1358.17 -1.75537 7.96793 0
M  V30 7812 P 1362.13 -2.75334 8.47391 0
M  V30 7813 O 1362.35 -3.84166 9.4489 0
M  V30 7814 O 1362.92 -1.51964 8.6881 0
M  V30 7815 O 1362.38 -3.29363 6.99321 0
M  V30 7816 C 1361.44 -4.23956 6.42656 0
M  V30 7817 C 1362.17 -5.20775 5.52155 0
M  V30 7818 O 1362.38 -4.56534 4.22446 0
M  V30 7819 C 1363.57 -5.62629 5.96531 0
M  V30 7820 O 1363.96 -6.87667 5.41053 0
M  V30 7821 C 1364.45 -4.52537 5.39283 0
M  V30 7822 C 1363.74 -4.20027 4.08623 0
M  V30 7823 N 1363.79 -2.7613 3.71522 0
M  V30 7824 C 1363.94 -2.45612 2.37989 0
M  V30 7825 O 1364.03 -3.30919 1.51621 0
M  V30 7826 N 1363.98 -1.10684 2.08435 0
M  V30 7827 C 1363.89 -0.0690084 2.9792 0
M  V30 7828 O 1363.94 1.10553 2.59426 0
M  V30 7829 C 1363.74 -0.481522 4.35345 0
M  V30 7830 C 1363.63 0.618778 5.36443 0
M  V30 7831 C 1363.69 -1.78906 4.67968 0
M  V30 7832 H 1360.95 -4.797 7.24003 0
M  V30 7833 H 1360.68 -3.69802 5.84429 0
M  V30 7834 H 1361.55 -6.10356 5.41441 0
M  V30 7835 H 1364.2 -4.78651 3.27911 0
M  V30 7836 H 1364.48 -3.64957 6.05871 0
M  V30 7837 H 1365.48 -4.8868 5.2125 0
M  V30 7838 H 1363.64 -5.66726 7.06352 0
M  V30 7839 H 1363.57 -2.07737 5.72367 0
M  V30 7840 H 1364.6 0.754375 5.86871 0
M  V30 7841 H 1362.86 0.359721 6.10641 0
M  V30 7842 H 1363.35 1.55533 4.8581 0
M  V30 7843 H 1364.09 -0.862651 1.12037 0
M  V30 7844 P 1365.51 -7.20834 5.23717 0
M  V30 7845 O 1365.73 -8.66104 5.38572 0
M  V30 7846 O 1366.3 -6.33544 6.1349 0
M  V30 7847 O 1365.76 -6.7751 3.72168 0
M  V30 7848 C 1364.82 -7.20825 2.7076 0
M  V30 7849 C 1365.55 -7.45864 1.40599 0
M  V30 7850 O 1365.76 -6.17651 0.734225 0
M  V30 7851 C 1366.95 -8.05808 1.51899 0
M  V30 7852 O 1367.34 -8.74358 0.335205 0
M  V30 7853 C 1367.83 -6.83093 1.70294 0
M  V30 7854 C 1367.12 -5.79992 0.836974 0
M  V30 7855 N 1367.17 -4.41864 1.38293 0
M  V30 7856 H 1364.33 -8.13644 3.0377 0
M  V30 7857 H 1364.06 -6.42788 2.55485 0
M  V30 7858 H 1364.93 -8.12039 0.792769 0
M  V30 7859 P 1368.89 -8.91 -1.09591e-11 0
M  V30 7860 O 1369.11 -10.1726 -0.733694 0
M  V30 7861 O 1369.68 -8.73148 1.23936 0
M  V30 7862 O 1369.14 -7.66872 -0.971405 0
M  V30 7863 C 1368.2 -7.42309 -2.04641 0
M  V30 7864 C 1368.93 -6.86059 -3.24661 0
M  V30 7865 O 1369.14 -5.42847 -3.03646 0
M  V30 7866 C 1370.33 -7.41196 -3.50753 0
M  V30 7867 O 1370.72 -7.27073 -4.86816 0
M  V30 7868 C 1371.21 -6.5273 -2.63741 0
M  V30 7869 C 1370.5 -5.1842 -2.73198 0
M  V30 7870 N 1370.55 -4.38762 -1.4784 0
M  V30 7871 H 1367.71 -8.36803 -2.32493 0
M  V30 7872 H 1367.44 -6.70197 -1.71129 0
M  V30 7873 H 1368.31 -7.03551 -4.13168 0
M  V30 7874 P 1372.27 -7.20834 -5.23717 0
M  V30 7875 O 1372.49 -7.79853 -6.57286 0
M  V30 7876 O 1373.06 -7.79239 -4.12957 0
M  V30 7877 O 1372.52 -5.63315 -5.29344 0
M  V30 7878 C 1371.58 -4.80255 -6.01876 0
M  V30 7879 C 1372.31 -3.64202 -6.65911 0
M  V30 7880 O 1372.52 -2.60694 -5.64732 0
M  V30 7881 C 1373.71 -3.93473 -7.1943 0
M  V30 7882 O 1374.1 -3.02071 -8.21205 0
M  V30 7883 C 1374.59 -3.73047 -5.97036 0
M  V30 7884 C 1373.88 -2.58828 -5.25741 0
M  V30 7885 N 1373.93 -2.68068 -3.77503 0
M  V30 7886 H 1371.09 -5.40332 -6.79951 0
M  V30 7887 H 1370.82 -4.41613 -5.32378 0
M  V30 7888 H 1371.69 -3.26331 -7.47797 0
M  V30 7889 P 1375.65 -2.75334 -8.47391 0
M  V30 7890 O 1375.87 -2.44571 -9.90142 0
M  V30 7891 O 1376.44 -3.87688 -7.92115 0
M  V30 7892 O 1375.9 -1.4459 -7.59357 0
M  V30 7893 C 1374.96 -0.347608 -7.69215 0
M  V30 7894 C 1375.69 0.96767 -7.52806 0
M  V30 7895 O 1375.9 1.21036 -6.1011 0
M  V30 7896 C 1377.09 1.04544 -8.13308 0
M  V30 7897 O 1377.48 2.38311 -8.41922 0
M  V30 7898 C 1377.97 0.491279 -7.02284 0
M  V30 7899 C 1377.26 0.996264 -5.77469 0
M  V30 7900 N 1377.31 0.0501916 -4.62973 0
M  V30 7901 H 1374.47 -0.374722 -8.67691 0
M  V30 7902 H 1374.2 -0.443485 -6.90277 0
M  V30 7903 H 1375.07 1.75537 -7.96793 0
M  V30 7904 P 1379.03 2.75334 -8.47391 0
M  V30 7905 O 1379.25 3.84128 -9.44797 0
M  V30 7906 O 1379.82 1.51947 -8.68712 0
M  V30 7907 O 1379.28 3.29363 -6.99321 0
M  V30 7908 C 1378.34 4.24011 -6.4274 0
M  V30 7909 C 1379.07 5.20775 -5.52155 0
M  V30 7910 O 1379.28 4.56534 -4.22446 0
M  V30 7911 C 1380.47 5.62629 -5.96531 0
M  V30 7912 O 1380.86 6.87667 -5.41053 0
M  V30 7913 C 1381.35 4.52537 -5.39283 0
M  V30 7914 C 1380.64 4.20027 -4.08623 0
M  V30 7915 N 1380.69 2.76189 -3.71603 0
M  V30 7916 H 1377.85 4.797 -7.24003 0
M  V30 7917 H 1377.58 3.69856 -5.84513 0
M  V30 7918 H 1378.45 6.10356 -5.41441 0
M  V30 7919 P 1382.41 7.20834 -5.23717 0
M  V30 7920 O 1382.63 8.66274 -5.38678 0
M  V30 7921 O 1383.2 6.33687 -6.13629 0
M  V30 7922 O 1382.66 6.7751 -3.72168 0
M  V30 7923 C 1381.72 7.20919 -2.70795 0
M  V30 7924 C 1382.45 7.45864 -1.40599 0
M  V30 7925 O 1382.66 6.17751 -0.734343 0
M  V30 7926 C 1383.85 8.05906 -1.51917 0
M  V30 7927 O 1384.24 8.74358 -0.335205 0
M  V30 7928 C 1384.73 6.83093 -1.70294 0
M  V30 7929 C 1384.02 5.79992 -0.836974 0
M  V30 7930 N 1384.07 4.41864 -1.38293 0
M  V30 7931 C 1383.99 4.02089 -2.69407 0
M  V30 7932 N 1384.06 2.73403 -2.85089 0
M  V30 7933 C 1384.21 2.25086 -1.5642 0
M  V30 7934 C 1384.34 0.942887 -1.04836 0
M  V30 7935 N 1384.35 -0.150999 -1.80369 0
M  V30 7936 N 1384.46 0.812565 0.28167 0
M  V30 7937 C 1384.45 1.90572 1.03784 0
M  V30 7938 N 1384.33 3.167 0.683905 0
M  V30 7939 C 1384.21 3.26538 -0.652815 0
M  V30 7940 H 1381.23 8.13738 -3.03804 0
M  V30 7941 H 1380.96 6.42974 -2.55559 0
M  V30 7942 H 1381.83 8.12139 -0.792866 0
M  V30 7943 H 1384.48 5.80178 0.160643 0
M  V30 7944 H 1384.76 6.51379 -2.75643 0
M  V30 7945 H 1385.76 7.01832 -1.3448 0
M  V30 7946 H 1383.92 8.73771 -2.38364 0
M  V30 7947 H 1383.88 4.7189 -3.52311 0
M  V30 7948 H 1384.26 -0.0721434 -2.82608 0
M  V30 7949 H 1384.45 -1.0785 -1.36544 0
M  V30 7950 H 1384.56 1.73207 2.10241 0
M  V30 7951 P 1385.79 8.91 1.03566e-11 0
M  V30 7952 O 1386.01 10.1726 0.733694 0
M  V30 7953 O 1386.58 8.73148 -1.23936 0
M  V30 7954 O 1386.04 7.66872 0.971405 0
M  V30 7955 C 1385.1 7.42309 2.04641 0
M  V30 7956 C 1385.83 6.86059 3.24661 0
M  V30 7957 O 1386.04 5.42847 3.03646 0
M  V30 7958 C 1387.23 7.41196 3.50753 0
M  V30 7959 O 1387.62 7.27073 4.86816 0
M  V30 7960 C 1388.11 6.5273 2.63741 0
M  V30 7961 C 1387.4 5.1842 2.73198 0
M  V30 7962 N 1387.45 4.38762 1.4784 0
M  V30 7963 H 1384.61 8.36803 2.32493 0
M  V30 7964 H 1384.34 6.70197 1.71129 0
M  V30 7965 H 1385.21 7.03551 4.13168 0
M  V30 7966 P 1389.17 7.20834 5.23717 0
M  V30 7967 O 1389.39 7.79853 6.57286 0
M  V30 7968 O 1389.96 7.79239 4.12957 0
M  V30 7969 O 1389.42 5.63315 5.29344 0
M  V30 7970 C 1388.48 4.80255 6.01876 0
M  V30 7971 C 1389.21 3.64202 6.65911 0
M  V30 7972 O 1389.42 2.60694 5.64732 0
M  V30 7973 C 1390.61 3.93473 7.1943 0
M  V30 7974 O 1391 3.02071 8.21205 0
M  V30 7975 C 1391.49 3.73047 5.97036 0
M  V30 7976 C 1390.78 2.58828 5.25741 0
M  V30 7977 N 1390.83 2.68068 3.77503 0
M  V30 7978 H 1387.99 5.40332 6.79951 0
M  V30 7979 H 1387.72 4.41613 5.32378 0
M  V30 7980 H 1388.59 3.26331 7.47797 0
M  V30 7981 P 1392.55 2.75334 8.47391 0
M  V30 7982 O 1392.77 2.44571 9.90142 0
M  V30 7983 O 1393.34 3.87688 7.92115 0
M  V30 7984 O 1392.8 1.4459 7.59357 0
M  V30 7985 C 1391.86 0.347608 7.69215 0
M  V30 7986 C 1392.59 -0.96767 7.52806 0
M  V30 7987 O 1392.8 -1.21036 6.1011 0
M  V30 7988 C 1393.99 -1.04544 8.13308 0
M  V30 7989 O 1394.38 -2.38311 8.41922 0
M  V30 7990 C 1394.87 -0.491279 7.02284 0
M  V30 7991 C 1394.16 -0.996264 5.77469 0
M  V30 7992 N 1394.21 -0.0501916 4.62973 0
M  V30 7993 H 1391.37 0.374722 8.67691 0
M  V30 7994 H 1391.1 0.443485 6.90277 0
M  V30 7995 H 1391.97 -1.75537 7.96793 0
M  V30 7996 P 1395.93 -2.75334 8.47391 0
M  V30 7997 O 1396.15 -3.84128 9.44797 0
M  V30 7998 O 1396.72 -1.51947 8.68712 0
M  V30 7999 O 1396.18 -3.29363 6.99321 0
M  V30 8000 C 1395.24 -4.24011 6.4274 0
M  V30 8001 C 1395.97 -5.20775 5.52155 0
M  V30 8002 O 1396.18 -4.56534 4.22446 0
M  V30 8003 C 1397.37 -5.62629 5.96531 0
M  V30 8004 O 1397.76 -6.87667 5.41053 0
M  V30 8005 C 1398.25 -4.52537 5.39283 0
M  V30 8006 C 1397.54 -4.20027 4.08623 0
M  V30 8007 N 1397.59 -2.76189 3.71603 0
M  V30 8008 H 1394.75 -4.797 7.24003 0
M  V30 8009 H 1394.48 -3.69856 5.84513 0
M  V30 8010 H 1395.35 -6.10356 5.41441 0
M  V30 8011 P 1399.31 -7.20834 5.23717 0
M  V30 8012 O 1399.53 -8.66104 5.38572 0
M  V30 8013 O 1400.1 -6.33544 6.1349 0
M  V30 8014 O 1399.56 -6.7751 3.72168 0
M  V30 8015 C 1398.62 -7.20825 2.7076 0
M  V30 8016 C 1399.35 -7.45864 1.40599 0
M  V30 8017 O 1399.56 -6.17651 0.734225 0
M  V30 8018 C 1400.75 -8.05808 1.51899 0
M  V30 8019 O 1401.14 -8.74358 0.335205 0
M  V30 8020 C 1401.63 -6.83093 1.70294 0
M  V30 8021 C 1400.92 -5.79992 0.836974 0
M  V30 8022 N 1400.97 -4.41864 1.38293 0
M  V30 8023 H 1398.13 -8.13644 3.0377 0
M  V30 8024 H 1397.86 -6.42788 2.55485 0
M  V30 8025 H 1398.73 -8.12039 0.792769 0
M  V30 8026 P 1402.69 -8.91 -9.24756e-12 0
M  V30 8027 O 1402.91 -10.1746 -0.733838 0
M  V30 8028 O 1403.48 -8.73346 1.23964 0
M  V30 8029 O 1402.94 -7.66872 -0.971405 0
M  V30 8030 C 1402 -7.42405 -2.04668 0
M  V30 8031 C 1402.73 -6.86059 -3.24661 0
M  V30 8032 O 1402.94 -5.42934 -3.03695 0
M  V30 8033 C 1404.13 -7.41287 -3.50796 0
M  V30 8034 O 1404.52 -7.27073 -4.86816 0
M  V30 8035 C 1405.01 -6.5273 -2.63741 0
M  V30 8036 C 1404.3 -5.1842 -2.73198 0
M  V30 8037 N 1404.35 -4.38762 -1.4784 0
M  V30 8038 C 1404.27 -4.83651 -0.183876 0
M  V30 8039 N 1404.34 -3.88759 0.699393 0
M  V30 8040 C 1404.49 -2.7404 -0.0575568 0
M  V30 8041 C 1404.62 -1.37902 0.293928 0
M  V30 8042 N 1404.63 -0.938021 1.54797 0
M  V30 8043 N 1404.74 -0.491817 -0.70549 0
M  V30 8044 C 1404.73 -0.931735 -1.95979 0
M  V30 8045 N 1404.61 -2.16017 -2.41481 0
M  V30 8046 C 1404.49 -3.02547 -1.39121 0
M  V30 8047 H 1401.51 -8.36899 -2.3252 0
M  V30 8048 H 1401.24 -6.70391 -1.71179 0
M  V30 8049 H 1402.11 -7.03638 -4.13219 0
M  V30 8050 H 1404.76 -4.59931 -3.54016 0
M  V30 8051 H 1405.04 -6.88995 -1.59871 0
M  V30 8052 H 1406.04 -6.4684 -3.0373 0
M  V30 8053 H 1404.2 -8.47002 -3.20749 0
M  V30 8054 H 1404.16 -5.8885 0.0765548 0
M  V30 8055 H 1404.54 -1.60276 2.32875 0
M  V30 8056 H 1404.73 0.0699355 1.73859 0
M  V30 8057 H 1404.84 -0.165507 -2.71897 0
M  V30 8058 P 1406.07 -7.20834 -5.23717 0
M  V30 8059 O 1406.29 -7.79853 -6.57286 0
M  V30 8060 O 1406.86 -7.79239 -4.12957 0
M  V30 8061 O 1406.32 -5.63315 -5.29344 0
M  V30 8062 C 1405.38 -4.80255 -6.01876 0
M  V30 8063 C 1406.11 -3.64202 -6.65911 0
M  V30 8064 O 1406.32 -2.60694 -5.64732 0
M  V30 8065 C 1407.51 -3.93473 -7.1943 0
M  V30 8066 O 1407.9 -3.02071 -8.21205 0
M  V30 8067 C 1408.39 -3.73047 -5.97036 0
M  V30 8068 C 1407.68 -2.58828 -5.25741 0
M  V30 8069 N 1407.73 -2.68068 -3.77503 0
M  V30 8070 H 1404.89 -5.40332 -6.79951 0
M  V30 8071 H 1404.62 -4.41613 -5.32378 0
M  V30 8072 H 1405.49 -3.26331 -7.47797 0
M  V30 8073 P 1409.45 -2.75334 -8.47391 0
M  V30 8074 O 1409.67 -2.44571 -9.90142 0
M  V30 8075 O 1410.24 -3.87688 -7.92115 0
M  V30 8076 O 1409.7 -1.4459 -7.59357 0
M  V30 8077 C 1408.76 -0.347608 -7.69215 0
M  V30 8078 C 1409.49 0.96767 -7.52806 0
M  V30 8079 O 1409.7 1.21036 -6.1011 0
M  V30 8080 C 1410.89 1.04544 -8.13308 0
M  V30 8081 O 1411.28 2.38311 -8.41922 0
M  V30 8082 C 1411.77 0.491279 -7.02284 0
M  V30 8083 C 1411.06 0.996264 -5.77469 0
M  V30 8084 N 1411.11 0.0501916 -4.62973 0
M  V30 8085 H 1408.27 -0.374722 -8.67691 0
M  V30 8086 H 1408 -0.443485 -6.90277 0
M  V30 8087 H 1408.87 1.75537 -7.96793 0
M  V30 8088 P 1412.83 2.75334 -8.47391 0
M  V30 8089 O 1413.05 3.84166 -9.4489 0
M  V30 8090 O 1413.62 1.51964 -8.6881 0
M  V30 8091 O 1413.08 3.29363 -6.99321 0
M  V30 8092 C 1412.14 4.23956 -6.42656 0
M  V30 8093 C 1412.87 5.20775 -5.52155 0
M  V30 8094 O 1413.08 4.56534 -4.22446 0
M  V30 8095 C 1414.27 5.62629 -5.96531 0
M  V30 8096 O 1414.66 6.87667 -5.41053 0
M  V30 8097 C 1415.15 4.52537 -5.39283 0
M  V30 8098 C 1414.44 4.20027 -4.08623 0
M  V30 8099 N 1414.49 2.7613 -3.71522 0
M  V30 8100 C 1414.64 2.45612 -2.37989 0
M  V30 8101 O 1414.73 3.30919 -1.51621 0
M  V30 8102 N 1414.68 1.10684 -2.08435 0
M  V30 8103 C 1414.59 0.0690084 -2.9792 0
M  V30 8104 C 1414.44 0.481522 -4.35345 0
M  V30 8105 C 1414.39 1.78906 -4.67968 0
M  V30 8106 H 1411.65 4.797 -7.24003 0
M  V30 8107 H 1411.38 3.69802 -5.84429 0
M  V30 8108 H 1412.25 6.10356 -5.41441 0
M  V30 8109 H 1414.9 4.78651 -3.27911 0
M  V30 8110 H 1415.18 3.64957 -6.05871 0
M  V30 8111 H 1416.18 4.8868 -5.2125 0
M  V30 8112 H 1414.34 5.66726 -7.06352 0
M  V30 8113 H 1414.27 2.07737 -5.72367 0
M  V30 8114 P 1416.21 7.20834 -5.23717 0
M  V30 8115 O 1416.43 8.66104 -5.38572 0
M  V30 8116 O 1417 6.33544 -6.1349 0
M  V30 8117 O 1416.46 6.7751 -3.72168 0
M  V30 8118 C 1415.52 7.20825 -2.7076 0
M  V30 8119 C 1416.25 7.45864 -1.40599 0
M  V30 8120 O 1416.46 6.17651 -0.734225 0
M  V30 8121 C 1417.65 8.05808 -1.51899 0
M  V30 8122 O 1418.04 8.74358 -0.335205 0
M  V30 8123 C 1418.53 6.83093 -1.70294 0
M  V30 8124 C 1417.82 5.79992 -0.836974 0
M  V30 8125 N 1417.87 4.41864 -1.38293 0
M  V30 8126 H 1415.03 8.13644 -3.0377 0
M  V30 8127 H 1414.76 6.42788 -2.55485 0
M  V30 8128 H 1415.63 8.12039 -0.792769 0
M  V30 8129 P 1419.59 8.91 8.13856e-12 0
M  V30 8130 O 1419.81 10.1726 0.733694 0
M  V30 8131 O 1420.38 8.73148 -1.23936 0
M  V30 8132 O 1419.84 7.66872 0.971405 0
M  V30 8133 C 1418.9 7.42309 2.04641 0
M  V30 8134 C 1419.63 6.86059 3.24661 0
M  V30 8135 O 1419.84 5.42847 3.03646 0
M  V30 8136 C 1421.03 7.41196 3.50753 0
M  V30 8137 O 1421.42 7.27073 4.86816 0
M  V30 8138 C 1421.91 6.5273 2.63741 0
M  V30 8139 C 1421.2 5.1842 2.73198 0
M  V30 8140 N 1421.25 4.38762 1.4784 0
M  V30 8141 C 1421.17 4.81605 0.168631 0
M  V30 8142 N 1421.25 3.85454 -0.713363 0
M  V30 8143 C 1421.39 2.6994 0.0566958 0
M  V30 8144 C 1421.52 1.34815 -0.338502 0
M  V30 8145 O 1421.54 0.869548 -1.47125 0
M  V30 8146 N 1421.64 0.496304 0.77465 0
M  V30 8147 C 1421.64 0.908403 2.09122 0
M  V30 8148 N 1421.77 -0.0517805 3.00955 0
M  V30 8149 N 1421.51 2.17875 2.46519 0
M  V30 8150 C 1421.39 3.01988 1.4033 0
M  V30 8151 H 1418.41 8.36803 2.32493 0
M  V30 8152 H 1418.14 6.70197 1.71129 0
M  V30 8153 H 1419.01 7.03551 4.13168 0
M  V30 8154 H 1421.66 4.59498 3.54415 0
M  V30 8155 H 1421.94 6.88898 1.59848 0
M  V30 8156 H 1422.94 6.46749 3.03687 0
M  V30 8157 H 1421.1 8.46908 3.20714 0
M  V30 8158 H 1421.05 5.86405 -0.105564 0
M  V30 8159 H 1421.73 -0.483664 0.597855 0
M  V30 8160 H 1421.77 0.187865 4.0116 0
M  V30 8161 H 1421.87 -1.03585 2.71726 0
M  V30 8162 P 1422.97 7.20834 5.23717 0
M  V30 8163 O 1423.19 7.7993 6.57351 0
M  V30 8164 O 1423.76 7.79328 4.13004 0
M  V30 8165 O 1423.22 5.63315 5.29344 0
M  V30 8166 C 1422.28 4.80193 6.01798 0
M  V30 8167 C 1423.01 3.64202 6.65911 0
M  V30 8168 O 1423.22 2.60694 5.64732 0
M  V30 8169 C 1424.41 3.93473 7.1943 0
M  V30 8170 O 1424.8 3.02071 8.21205 0
M  V30 8171 C 1425.29 3.73047 5.97036 0
M  V30 8172 C 1424.58 2.58828 5.25741 0
M  V30 8173 N 1424.63 2.6801 3.77422 0
M  V30 8174 C 1424.78 1.50443 3.07133 0
M  V30 8175 O 1424.87 0.419406 3.61576 0
M  V30 8176 N 1424.82 1.6403 1.69677 0
M  V30 8177 C 1424.73 2.81206 0.986255 0
M  V30 8178 C 1424.58 3.99158 1.80325 0
M  V30 8179 C 1424.53 3.89779 3.1476 0
M  V30 8180 H 1421.79 5.40332 6.79951 0
M  V30 8181 H 1421.52 4.41549 5.32301 0
M  V30 8182 H 1422.39 3.26331 7.47797 0
M  V30 8183 H 1425.04 1.6395 5.56554 0
M  V30 8184 H 1425.32 4.63439 5.3432 0
M  V30 8185 H 1426.32 3.44728 6.25838 0
M  V30 8186 H 1424.48 4.96652 7.57263 0
M  V30 8187 H 1424.41 4.80159 3.74441 0
M  V30 8188 P 1426.35 2.75334 8.47391 0
M  V30 8189 O 1426.57 2.44571 9.90142 0
M  V30 8190 O 1427.14 3.87688 7.92115 0
M  V30 8191 O 1426.6 1.4459 7.59357 0
M  V30 8192 C 1425.66 0.347608 7.69215 0
M  V30 8193 C 1426.39 -0.96767 7.52806 0
M  V30 8194 O 1426.6 -1.21036 6.1011 0
M  V30 8195 C 1427.79 -1.04544 8.13308 0
M  V30 8196 O 1428.18 -2.38311 8.41922 0
M  V30 8197 C 1428.67 -0.491279 7.02284 0
M  V30 8198 C 1427.96 -0.996264 5.77469 0
M  V30 8199 N 1428.01 -0.0501916 4.62973 0
M  V30 8200 H 1425.17 0.374722 8.67691 0
M  V30 8201 H 1424.9 0.443485 6.90277 0
M  V30 8202 H 1425.77 -1.75537 7.96793 0
M  V30 8203 P 1429.73 -2.75334 8.47391 0
M  V30 8204 O 1429.95 -3.84128 9.44797 0
M  V30 8205 O 1430.52 -1.51947 8.68712 0
M  V30 8206 O 1429.98 -3.29363 6.99321 0
M  V30 8207 C 1429.04 -4.24011 6.4274 0
M  V30 8208 C 1429.77 -5.20775 5.52155 0
M  V30 8209 O 1429.98 -4.56534 4.22446 0
M  V30 8210 C 1431.17 -5.62629 5.96531 0
M  V30 8211 O 1431.56 -6.87667 5.41053 0
M  V30 8212 C 1432.05 -4.52537 5.39283 0
M  V30 8213 C 1431.34 -4.20027 4.08623 0
M  V30 8214 N 1431.39 -2.76189 3.71603 0
M  V30 8215 H 1428.55 -4.797 7.24003 0
M  V30 8216 H 1428.28 -3.69856 5.84513 0
M  V30 8217 H 1429.15 -6.10356 5.41441 0
M  V30 8218 P 1433.11 -7.20834 5.23717 0
M  V30 8219 O 1433.33 -8.66189 5.38625 0
M  V30 8220 O 1433.9 -6.33615 6.1356 0
M  V30 8221 O 1433.36 -6.7751 3.72168 0
M  V30 8222 C 1432.42 -7.20732 2.70725 0
M  V30 8223 C 1433.15 -7.45864 1.40599 0
M  V30 8224 O 1433.36 -6.17651 0.734225 0
M  V30 8225 C 1434.55 -8.05808 1.51899 0
M  V30 8226 O 1434.94 -8.74358 0.335205 0
M  V30 8227 C 1435.43 -6.83093 1.70294 0
M  V30 8228 C 1434.72 -5.79992 0.836974 0
M  V30 8229 N 1434.77 -4.41769 1.38263 0
M  V30 8230 C 1434.92 -3.38591 0.481702 0
M  V30 8231 O 1435.01 -3.56839 -0.718452 0
M  V30 8232 N 1434.96 -2.1206 1.03569 0
M  V30 8233 C 1434.87 -1.80696 2.36966 0
M  V30 8234 C 1434.72 -2.94845 3.23898 0
M  V30 8235 C 1434.67 -4.19803 2.73435 0
M  V30 8236 H 1431.93 -8.13644 3.0377 0
M  V30 8237 H 1431.66 -6.42695 2.55448 0
M  V30 8238 H 1432.53 -8.12039 0.792769 0
M  V30 8239 H 1435.18 -5.79978 -0.160587 0
M  V30 8240 H 1435.46 -6.51379 2.75643 0
M  V30 8241 H 1436.46 -7.01734 1.34462 0
M  V30 8242 H 1434.62 -8.73674 2.38337 0
M  V30 8243 H 1434.55 -5.04492 3.4095 0
M  V30 8244 P 1436.49 -8.91 -7.02955e-12 0
M  V30 8245 O 1436.71 -10.1726 -0.733694 0
M  V30 8246 O 1437.28 -8.73148 1.23936 0
M  V30 8247 O 1436.74 -7.66872 -0.971405 0
M  V30 8248 C 1435.8 -7.42309 -2.04641 0
M  V30 8249 C 1436.53 -6.86059 -3.24661 0
M  V30 8250 O 1436.74 -5.42847 -3.03646 0
M  V30 8251 C 1437.93 -7.41196 -3.50753 0
M  V30 8252 O 1438.32 -7.27073 -4.86816 0
M  V30 8253 C 1438.81 -6.5273 -2.63741 0
M  V30 8254 C 1438.1 -5.1842 -2.73198 0
M  V30 8255 N 1438.15 -4.38762 -1.4784 0
M  V30 8256 H 1435.31 -8.36803 -2.32493 0
M  V30 8257 H 1435.04 -6.70197 -1.71129 0
M  V30 8258 H 1435.91 -7.03551 -4.13168 0
M  V30 8259 P 1439.87 -7.20834 -5.23717 0
M  V30 8260 O 1440.09 -7.79853 -6.57286 0
M  V30 8261 O 1440.66 -7.79239 -4.12957 0
M  V30 8262 O 1440.12 -5.63315 -5.29344 0
M  V30 8263 C 1439.18 -4.80255 -6.01876 0
M  V30 8264 C 1439.91 -3.64202 -6.65911 0
M  V30 8265 O 1440.12 -2.60694 -5.64732 0
M  V30 8266 C 1441.31 -3.93473 -7.1943 0
M  V30 8267 O 1441.7 -3.02071 -8.21205 0
M  V30 8268 C 1442.19 -3.73047 -5.97036 0
M  V30 8269 C 1441.48 -2.58828 -5.25741 0
M  V30 8270 N 1441.53 -2.68068 -3.77503 0
M  V30 8271 H 1438.69 -5.40332 -6.79951 0
M  V30 8272 H 1438.42 -4.41613 -5.32378 0
M  V30 8273 H 1439.29 -3.26331 -7.47797 0
M  V30 8274 P 1443.25 -2.75334 -8.47391 0
M  V30 8275 O 1443.47 -2.44571 -9.90142 0
M  V30 8276 O 1444.04 -3.87688 -7.92115 0
M  V30 8277 O 1443.5 -1.4459 -7.59357 0
M  V30 8278 C 1442.56 -0.347608 -7.69215 0
M  V30 8279 C 1443.29 0.96767 -7.52806 0
M  V30 8280 O 1443.5 1.21036 -6.1011 0
M  V30 8281 C 1444.69 1.04544 -8.13308 0
M  V30 8282 O 1445.08 2.38311 -8.41922 0
M  V30 8283 C 1445.57 0.491279 -7.02284 0
M  V30 8284 C 1444.86 0.996264 -5.77469 0
M  V30 8285 N 1444.91 0.0501916 -4.62973 0
M  V30 8286 C 1444.83 -1.32786 -4.63244 0
M  V30 8287 N 1444.91 -1.86957 -3.44545 0
M  V30 8288 C 1445.05 -0.780241 -2.58481 0
M  V30 8289 C 1445.18 -0.738536 -1.17757 0
M  V30 8290 N 1445.3 0.58337 -0.711393 0
M  V30 8291 C 1445.3 1.70816 -1.51017 0
M  V30 8292 N 1445.43 2.87826 -0.880757 0
M  V30 8293 N 1445.17 1.67126 -2.8339 0
M  V30 8294 C 1445.05 0.401421 -3.30572 0
M  V30 8295 H 1442.07 -0.374722 -8.67691 0
M  V30 8296 H 1441.8 -0.443485 -6.90277 0
M  V30 8297 H 1442.67 1.75537 -7.96793 0
M  V30 8298 P 1446.63 2.75334 -8.47391 0
M  V30 8299 O 1446.85 3.84128 -9.44797 0
M  V30 8300 O 1447.42 1.51947 -8.68712 0
M  V30 8301 O 1446.88 3.29363 -6.99321 0
M  V30 8302 C 1445.94 4.24011 -6.4274 0
M  V30 8303 C 1446.67 5.20775 -5.52155 0
M  V30 8304 O 1446.88 4.56534 -4.22446 0
M  V30 8305 C 1448.07 5.62629 -5.96531 0
M  V30 8306 O 1448.46 6.87667 -5.41053 0
M  V30 8307 C 1448.95 4.52537 -5.39283 0
M  V30 8308 C 1448.24 4.20027 -4.08623 0
M  V30 8309 N 1448.29 2.76189 -3.71603 0
M  V30 8310 H 1445.45 4.797 -7.24003 0
M  V30 8311 H 1445.18 3.69856 -5.84513 0
M  V30 8312 H 1446.05 6.10356 -5.41441 0
M  V30 8313 P 1450.01 7.20834 -5.23717 0
M  V30 8314 O 1450.23 8.66104 -5.38572 0
M  V30 8315 O 1450.8 6.33544 -6.1349 0
M  V30 8316 O 1450.26 6.7751 -3.72168 0
M  V30 8317 C 1449.32 7.20825 -2.7076 0
M  V30 8318 C 1450.05 7.45864 -1.40599 0
M  V30 8319 O 1450.26 6.17651 -0.734225 0
M  V30 8320 C 1451.45 8.05808 -1.51899 0
M  V30 8321 O 1451.84 8.74358 -0.335205 0
M  V30 8322 C 1452.33 6.83093 -1.70294 0
M  V30 8323 C 1451.62 5.79992 -0.836974 0
M  V30 8324 N 1451.67 4.41864 -1.38293 0
M  V30 8325 C 1451.59 3.99538 -2.69438 0
M  V30 8326 N 1451.67 2.69909 -2.84277 0
M  V30 8327 C 1451.81 2.21719 -1.5408 0
M  V30 8328 C 1451.94 0.891712 -1.06628 0
M  V30 8329 O 1451.96 -0.161298 -1.70137 0
M  V30 8330 N 1452.06 0.856846 0.334985 0
M  V30 8331 C 1452.06 1.9641 1.15789 0
M  V30 8332 N 1452.19 1.72708 2.46522 0
M  V30 8333 N 1451.93 3.21165 0.713741 0
M  V30 8334 C 1451.81 3.26797 -0.639748 0
M  V30 8335 H 1448.83 8.13644 -3.0377 0
M  V30 8336 H 1448.56 6.42788 -2.55485 0
M  V30 8337 H 1449.43 8.12039 -0.792769 0
M  V30 8338 H 1452.08 5.80061 0.166416 0
M  V30 8339 H 1452.36 6.51287 -2.75604 0
M  V30 8340 H 1453.36 7.01734 -1.34462 0
M  V30 8341 H 1451.52 8.73674 -2.38337 0
M  V30 8342 H 1451.47 4.68207 -3.53221 0
M  V30 8343 H 1452.15 -0.0398818 0.767965 0
M  V30 8344 H 1452.19 2.50995 3.13503 0
M  V30 8345 H 1452.29 0.759148 2.80716 0
M  V30 8346 P 1453.39 8.91 5.92055e-12 0
M  V30 8347 O 1453.61 10.1726 0.733694 0
M  V30 8348 O 1454.18 8.73148 -1.23936 0
M  V30 8349 O 1453.64 7.66872 0.971405 0
M  V30 8350 C 1452.7 7.42309 2.04641 0
M  V30 8351 C 1453.43 6.86059 3.24661 0
M  V30 8352 O 1453.64 5.42847 3.03646 0
M  V30 8353 C 1454.83 7.41196 3.50753 0
M  V30 8354 O 1455.22 7.27073 4.86816 0
M  V30 8355 C 1455.71 6.5273 2.63741 0
M  V30 8356 C 1455 5.1842 2.73198 0
M  V30 8357 N 1455.05 4.38762 1.4784 0
M  V30 8358 H 1452.21 8.36803 2.32493 0
M  V30 8359 H 1451.94 6.70197 1.71129 0
M  V30 8360 H 1452.81 7.03551 4.13168 0
M  V30 8361 P 1456.77 7.20834 5.23717 0
M  V30 8362 O 1456.99 7.7993 6.57351 0
M  V30 8363 O 1457.56 7.79328 4.13004 0
M  V30 8364 O 1457.02 5.63315 5.29344 0
M  V30 8365 C 1456.08 4.80193 6.01798 0
M  V30 8366 C 1456.81 3.64202 6.65911 0
M  V30 8367 O 1457.02 2.60694 5.64732 0
M  V30 8368 C 1458.21 3.93473 7.1943 0
M  V30 8369 O 1458.6 3.02071 8.21205 0
M  V30 8370 C 1459.09 3.73047 5.97036 0
M  V30 8371 C 1458.38 2.58828 5.25741 0
M  V30 8372 N 1458.43 2.6801 3.77422 0
M  V30 8373 C 1458.58 1.50443 3.07133 0
M  V30 8374 O 1458.67 0.419406 3.61576 0
M  V30 8375 N 1458.62 1.6403 1.69677 0
M  V30 8376 C 1458.53 2.81206 0.986255 0
M  V30 8377 C 1458.38 3.99158 1.80325 0
M  V30 8378 C 1458.33 3.89779 3.1476 0
M  V30 8379 H 1455.59 5.40332 6.79951 0
M  V30 8380 H 1455.32 4.41549 5.32301 0
M  V30 8381 H 1456.19 3.26331 7.47797 0
M  V30 8382 H 1458.84 1.6395 5.56554 0
M  V30 8383 H 1459.12 4.63439 5.3432 0
M  V30 8384 H 1460.12 3.44728 6.25838 0
M  V30 8385 H 1458.28 4.96652 7.57263 0
M  V30 8386 H 1458.21 4.80159 3.74441 0
M  V30 8387 P 1460.15 2.75334 8.47391 0
M  V30 8388 O 1460.37 2.44571 9.90142 0
M  V30 8389 O 1460.94 3.87688 7.92115 0
M  V30 8390 O 1460.4 1.4459 7.59357 0
M  V30 8391 C 1459.46 0.347608 7.69215 0
M  V30 8392 C 1460.19 -0.96767 7.52806 0
M  V30 8393 O 1460.4 -1.21036 6.1011 0
M  V30 8394 C 1461.59 -1.04544 8.13308 0
M  V30 8395 O 1461.98 -2.38311 8.41922 0
M  V30 8396 C 1462.47 -0.491279 7.02284 0
M  V30 8397 C 1461.76 -0.996264 5.77469 0
M  V30 8398 N 1461.81 -0.0501916 4.62973 0
M  V30 8399 C 1461.73 1.32786 4.63244 0
M  V30 8400 N 1461.81 1.86957 3.44545 0
M  V30 8401 C 1461.95 0.780241 2.58481 0
M  V30 8402 C 1462.08 0.738536 1.17757 0
M  V30 8403 N 1462.2 -0.58337 0.711393 0
M  V30 8404 C 1462.2 -1.70816 1.51017 0
M  V30 8405 N 1462.33 -2.87826 0.880757 0
M  V30 8406 N 1462.07 -1.67126 2.8339 0
M  V30 8407 C 1461.95 -0.401421 3.30572 0
M  V30 8408 H 1458.97 0.374722 8.67691 0
M  V30 8409 H 1458.7 0.443485 6.90277 0
M  V30 8410 H 1459.57 -1.75537 7.96793 0
M  V30 8411 P 1463.53 -2.75334 8.47391 0
M  V30 8412 O 1463.75 -3.84204 9.44982 0
M  V30 8413 O 1464.32 -1.51982 8.68909 0
M  V30 8414 O 1463.78 -3.29363 6.99321 0
M  V30 8415 C 1462.84 -4.24066 6.42823 0
M  V30 8416 C 1463.57 -5.20775 5.52155 0
M  V30 8417 O 1463.78 -4.56607 4.22514 0
M  V30 8418 C 1464.97 -5.62697 5.96604 0
M  V30 8419 O 1465.36 -6.87667 5.41053 0
M  V30 8420 C 1465.85 -4.52537 5.39283 0
M  V30 8421 C 1465.14 -4.20027 4.08623 0
M  V30 8422 N 1465.19 -2.76189 3.71603 0
M  V30 8423 C 1465.11 -1.66944 4.54297 0
M  V30 8424 N 1465.18 -0.536169 3.91344 0
M  V30 8425 C 1465.33 -0.901569 2.58849 0
M  V30 8426 C 1465.46 -0.146599 1.40236 0
M  V30 8427 N 1465.47 1.18234 1.37046 0
M  V30 8428 N 1465.58 -0.822941 0.249738 0
M  V30 8429 C 1465.57 -2.15179 0.280525 0
M  V30 8430 N 1465.45 -2.96414 1.30822 0
M  V30 8431 C 1465.33 -2.25804 2.44748 0
M  V30 8432 H 1462.35 -4.79756 7.24086 0
M  V30 8433 H 1462.08 -3.69963 5.84682 0
M  V30 8434 H 1462.95 -6.10431 5.41508 0
M  V30 8435 H 1465.6 -4.78816 3.28024 0
M  V30 8436 H 1465.88 -3.64957 6.05871 0
M  V30 8437 H 1466.88 -4.88748 5.21323 0
M  V30 8438 H 1465.04 -5.66789 7.0643 0
M  V30 8439 H 1465 -1.74684 5.62396 0
M  V30 8440 H 1465.38 1.71949 2.24394 0
M  V30 8441 H 1465.57 1.67511 0.470742 0
M  V30 8442 H 1465.68 -2.63704 -0.6828 0
M  V30 8443 P 1466.91 -7.20834 5.23717 0
M  V30 8444 O 1467.13 -8.66104 5.38572 0
M  V30 8445 O 1467.7 -6.33544 6.1349 0
M  V30 8446 O 1467.16 -6.7751 3.72168 0
M  V30 8447 C 1466.22 -7.20825 2.7076 0
M  V30 8448 C 1466.95 -7.45864 1.40599 0
M  V30 8449 O 1467.16 -6.17651 0.734225 0
M  V30 8450 C 1468.35 -8.05808 1.51899 0
M  V30 8451 O 1468.74 -8.74358 0.335205 0
M  V30 8452 C 1469.23 -6.83093 1.70294 0
M  V30 8453 C 1468.52 -5.79992 0.836974 0
M  V30 8454 N 1468.57 -4.41864 1.38293 0
M  V30 8455 H 1465.73 -8.13644 3.0377 0
M  V30 8456 H 1465.46 -6.42788 2.55485 0
M  V30 8457 H 1466.33 -8.12039 0.792769 0
M  V30 8458 P 1470.29 -8.91 -4.81154e-12 0
M  V30 8459 O 1470.51 -10.1726 -0.733694 0
M  V30 8460 O 1471.08 -8.73148 1.23936 0
M  V30 8461 O 1470.54 -7.66872 -0.971405 0
M  V30 8462 C 1469.6 -7.42309 -2.04641 0
M  V30 8463 C 1470.33 -6.86059 -3.24661 0
M  V30 8464 O 1470.54 -5.42847 -3.03646 0
M  V30 8465 C 1471.73 -7.41196 -3.50753 0
M  V30 8466 O 1472.12 -7.27073 -4.86816 0
M  V30 8467 C 1472.61 -6.5273 -2.63741 0
M  V30 8468 C 1471.9 -5.1842 -2.73198 0
M  V30 8469 N 1471.95 -4.38762 -1.4784 0
M  V30 8470 H 1469.11 -8.36803 -2.32493 0
M  V30 8471 H 1468.84 -6.70197 -1.71129 0
M  V30 8472 H 1469.71 -7.03551 -4.13168 0
M  V30 8473 P 1473.67 -7.20834 -5.23717 0
M  V30 8474 O 1473.89 -7.79853 -6.57286 0
M  V30 8475 O 1474.46 -7.79239 -4.12957 0
M  V30 8476 O 1473.92 -5.63315 -5.29344 0
M  V30 8477 C 1472.98 -4.80255 -6.01876 0
M  V30 8478 C 1473.71 -3.64202 -6.65911 0
M  V30 8479 O 1473.92 -2.60694 -5.64732 0
M  V30 8480 C 1475.11 -3.93473 -7.1943 0
M  V30 8481 O 1475.5 -3.02071 -8.21205 0
M  V30 8482 C 1475.99 -3.73047 -5.97036 0
M  V30 8483 C 1475.28 -2.58828 -5.25741 0
M  V30 8484 N 1475.33 -2.68068 -3.77503 0
M  V30 8485 H 1472.49 -5.40332 -6.79951 0
M  V30 8486 H 1472.22 -4.41613 -5.32378 0
M  V30 8487 H 1473.09 -3.26331 -7.47797 0
M  V30 8488 P 1477.05 -2.75334 -8.47391 0
M  V30 8489 O 1477.27 -2.44571 -9.90142 0
M  V30 8490 O 1477.84 -3.87688 -7.92115 0
M  V30 8491 O 1477.3 -1.4459 -7.59357 0
M  V30 8492 C 1476.36 -0.347608 -7.69215 0
M  V30 8493 C 1477.09 0.96767 -7.52806 0
M  V30 8494 O 1477.3 1.21036 -6.1011 0
M  V30 8495 C 1478.49 1.04544 -8.13308 0
M  V30 8496 O 1478.88 2.38311 -8.41922 0
M  V30 8497 C 1479.37 0.491279 -7.02284 0
M  V30 8498 C 1478.66 0.996264 -5.77469 0
M  V30 8499 N 1478.71 0.0501916 -4.62973 0
M  V30 8500 H 1475.87 -0.374722 -8.67691 0
M  V30 8501 H 1475.6 -0.443485 -6.90277 0
M  V30 8502 H 1476.47 1.75537 -7.96793 0
M  V30 8503 P 1480.43 2.75334 -8.47391 0
M  V30 8504 O 1480.65 3.84128 -9.44797 0
M  V30 8505 O 1481.22 1.51947 -8.68712 0
M  V30 8506 O 1480.68 3.29363 -6.99321 0
M  V30 8507 C 1479.74 4.24011 -6.4274 0
M  V30 8508 C 1480.47 5.20775 -5.52155 0
M  V30 8509 O 1480.68 4.56534 -4.22446 0
M  V30 8510 C 1481.87 5.62629 -5.96531 0
M  V30 8511 O 1482.26 6.87667 -5.41053 0
M  V30 8512 C 1482.75 4.52537 -5.39283 0
M  V30 8513 C 1482.04 4.20027 -4.08623 0
M  V30 8514 N 1482.09 2.76189 -3.71603 0
M  V30 8515 H 1479.25 4.797 -7.24003 0
M  V30 8516 H 1478.98 3.69856 -5.84513 0
M  V30 8517 H 1479.85 6.10356 -5.41441 0
M  V30 8518 P 1483.81 7.20834 -5.23717 0
M  V30 8519 O 1484.03 8.66104 -5.38572 0
M  V30 8520 O 1484.6 6.33544 -6.1349 0
M  V30 8521 O 1484.06 6.7751 -3.72168 0
M  V30 8522 C 1483.12 7.20825 -2.7076 0
M  V30 8523 C 1483.85 7.45864 -1.40599 0
M  V30 8524 O 1484.06 6.17651 -0.734225 0
M  V30 8525 C 1485.25 8.05808 -1.51899 0
M  V30 8526 O 1485.64 8.74358 -0.335205 0
M  V30 8527 C 1486.13 6.83093 -1.70294 0
M  V30 8528 C 1485.42 5.79992 -0.836974 0
M  V30 8529 N 1485.47 4.41864 -1.38293 0
M  V30 8530 H 1482.63 8.13644 -3.0377 0
M  V30 8531 H 1482.36 6.42788 -2.55485 0
M  V30 8532 H 1483.23 8.12039 -0.792769 0
M  V30 8533 P 1487.19 8.91 3.70254e-12 0
M  V30 8534 O 1487.41 10.1726 0.733694 0
M  V30 8535 O 1487.98 8.73148 -1.23936 0
M  V30 8536 O 1487.44 7.66872 0.971405 0
M  V30 8537 C 1486.5 7.42309 2.04641 0
M  V30 8538 C 1487.23 6.86059 3.24661 0
M  V30 8539 O 1487.44 5.42847 3.03646 0
M  V30 8540 C 1488.63 7.41196 3.50753 0
M  V30 8541 O 1489.02 7.27073 4.86816 0
M  V30 8542 C 1489.51 6.5273 2.63741 0
M  V30 8543 C 1488.8 5.1842 2.73198 0
M  V30 8544 N 1488.85 4.38762 1.4784 0
M  V30 8545 C 1488.77 4.81605 0.168631 0
M  V30 8546 N 1488.85 3.85454 -0.713363 0
M  V30 8547 C 1488.99 2.6994 0.0566958 0
M  V30 8548 C 1489.12 1.34815 -0.338502 0
M  V30 8549 O 1489.14 0.869548 -1.47125 0
M  V30 8550 N 1489.24 0.496304 0.77465 0
M  V30 8551 C 1489.24 0.908403 2.09122 0
M  V30 8552 N 1489.37 -0.0517805 3.00955 0
M  V30 8553 N 1489.11 2.17875 2.46519 0
M  V30 8554 C 1488.99 3.01988 1.4033 0
M  V30 8555 H 1486.01 8.36803 2.32493 0
M  V30 8556 H 1485.74 6.70197 1.71129 0
M  V30 8557 H 1486.61 7.03551 4.13168 0
M  V30 8558 H 1489.26 4.59498 3.54415 0
M  V30 8559 H 1489.54 6.88898 1.59848 0
M  V30 8560 H 1490.54 6.46749 3.03687 0
M  V30 8561 H 1488.7 8.46908 3.20714 0
M  V30 8562 H 1488.65 5.86405 -0.105564 0
M  V30 8563 H 1489.33 -0.483664 0.597855 0
M  V30 8564 H 1489.37 0.187865 4.0116 0
M  V30 8565 H 1489.47 -1.03585 2.71726 0
M  V30 8566 P 1490.57 7.20834 5.23717 0
M  V30 8567 O 1490.79 7.79853 6.57286 0
M  V30 8568 O 1491.36 7.79239 4.12957 0
M  V30 8569 O 1490.82 5.63315 5.29344 0
M  V30 8570 C 1489.88 4.80255 6.01876 0
M  V30 8571 C 1490.61 3.64202 6.65911 0
M  V30 8572 O 1490.82 2.60694 5.64732 0
M  V30 8573 C 1492.01 3.93473 7.1943 0
M  V30 8574 O 1492.4 3.02071 8.21205 0
M  V30 8575 C 1492.89 3.73047 5.97036 0
M  V30 8576 C 1492.18 2.58828 5.25741 0
M  V30 8577 N 1492.23 2.68068 3.77503 0
M  V30 8578 C 1492.15 3.79715 2.96723 0
M  V30 8579 N 1492.23 3.5377 1.68852 0
M  V30 8580 C 1492.37 2.15054 1.63254 0
M  V30 8581 C 1492.5 1.28964 0.518571 0
M  V30 8582 N 1492.62 -0.0538097 0.918425 0
M  V30 8583 C 1492.62 -0.494275 2.22578 0
M  V30 8584 N 1492.75 -1.81086 2.40434 0
M  V30 8585 N 1492.49 0.313645 3.27502 0
M  V30 8586 C 1492.37 1.61829 2.91033 0
M  V30 8587 H 1489.39 5.40332 6.79951 0
M  V30 8588 H 1489.12 4.41613 5.32378 0
M  V30 8589 H 1489.99 3.26331 7.47797 0
M  V30 8590 P 1493.95 2.75334 8.47391 0
M  V30 8591 O 1494.17 2.44595 9.90239 0
M  V30 8592 O 1494.74 3.87732 7.92204 0
M  V30 8593 O 1494.2 1.4459 7.59357 0
M  V30 8594 C 1493.26 0.347608 7.69215 0
M  V30 8595 C 1493.99 -0.96767 7.52806 0
M  V30 8596 O 1494.2 -1.21036 6.1011 0
M  V30 8597 C 1495.39 -1.04544 8.13308 0
M  V30 8598 O 1495.78 -2.38311 8.41922 0
M  V30 8599 C 1496.27 -0.491279 7.02284 0
M  V30 8600 C 1495.56 -0.996264 5.77469 0
M  V30 8601 N 1495.61 -0.0501808 4.62873 0
M  V30 8602 C 1495.76 -0.578037 3.3505 0
M  V30 8603 O 1495.85 -1.8073 3.21711 0
M  V30 8604 N 1495.81 0.468541 2.263 0
M  V30 8605 C 1495.71 1.59186 2.47176 0
M  V30 8606 N 1495.76 2.37626 1.40392 0
M  V30 8607 C 1495.56 2.16203 3.77467 0
M  V30 8608 C 1495.51 1.29324 4.8195 0
M  V30 8609 H 1492.77 0.374679 8.67591 0
M  V30 8610 H 1492.5 0.443421 6.90177 0
M  V30 8611 H 1493.37 -1.75559 7.96891 0
M  V30 8612 H 1496.02 -1.94529 5.46723 0
M  V30 8613 H 1496.3 0.608651 7.04676 0
M  V30 8614 H 1497.3 -0.889672 7.08939 0
M  V30 8615 H 1495.46 -0.43308 9.04564 0
M  V30 8616 H 1495.39 1.67758 5.83046 0
M  V30 8617 H 1495.49 3.23869 3.92281 0
M  V30 8618 H 1495.88 1.96317 0.467202 0
M  V30 8619 H 1495.68 3.39693 1.51142 0
M  V30 8620 P 1497.33 -2.75334 8.47391 0
M  V30 8621 O 1497.55 -3.84204 9.44982 0
M  V30 8622 O 1498.12 -1.51982 8.68909 0
M  V30 8623 O 1497.58 -3.29363 6.99321 0
M  V30 8624 C 1496.64 -4.24066 6.42823 0
M  V30 8625 C 1497.37 -5.20775 5.52155 0
M  V30 8626 O 1497.58 -4.56607 4.22514 0
M  V30 8627 C 1498.77 -5.62697 5.96604 0
M  V30 8628 O 1499.16 -6.87667 5.41053 0
M  V30 8629 C 1499.65 -4.52537 5.39283 0
M  V30 8630 C 1498.94 -4.20027 4.08623 0
M  V30 8631 N 1498.99 -2.76189 3.71603 0
M  V30 8632 C 1498.91 -1.66944 4.54297 0
M  V30 8633 N 1498.98 -0.536169 3.91344 0
M  V30 8634 C 1499.13 -0.901569 2.58849 0
M  V30 8635 C 1499.26 -0.146599 1.40236 0
M  V30 8636 N 1499.27 1.18234 1.37046 0
M  V30 8637 N 1499.38 -0.822941 0.249738 0
M  V30 8638 C 1499.37 -2.15179 0.280525 0
M  V30 8639 N 1499.25 -2.96414 1.30822 0
M  V30 8640 C 1499.13 -2.25804 2.44748 0
M  V30 8641 H 1496.15 -4.79756 7.24086 0
M  V30 8642 H 1495.88 -3.69963 5.84682 0
M  V30 8643 H 1496.75 -6.10431 5.41508 0
M  V30 8644 H 1499.4 -4.78816 3.28024 0
M  V30 8645 H 1499.68 -3.64957 6.05871 0
M  V30 8646 H 1500.68 -4.88748 5.21323 0
M  V30 8647 H 1498.84 -5.66789 7.0643 0
M  V30 8648 H 1498.8 -1.74684 5.62396 0
M  V30 8649 H 1499.18 1.71949 2.24394 0
M  V30 8650 H 1499.37 1.67511 0.470742 0
M  V30 8651 H 1499.48 -2.63704 -0.6828 0
M  V30 8652 P 1500.71 -7.20834 5.23717 0
M  V30 8653 O 1500.93 -8.66104 5.38572 0
M  V30 8654 O 1501.5 -6.33544 6.1349 0
M  V30 8655 O 1500.96 -6.7751 3.72168 0
M  V30 8656 C 1500.02 -7.20825 2.7076 0
M  V30 8657 C 1500.75 -7.45864 1.40599 0
M  V30 8658 O 1500.96 -6.17651 0.734225 0
M  V30 8659 C 1502.15 -8.05808 1.51899 0
M  V30 8660 O 1502.54 -8.74358 0.335205 0
M  V30 8661 C 1503.03 -6.83093 1.70294 0
M  V30 8662 C 1502.32 -5.79992 0.836974 0
M  V30 8663 N 1502.37 -4.41864 1.38293 0
M  V30 8664 H 1499.53 -8.13644 3.0377 0
M  V30 8665 H 1499.26 -6.42788 2.55485 0
M  V30 8666 H 1500.13 -8.12039 0.792769 0
M  V30 8667 P 1504.09 -8.91 -2.59353e-12 0
M  V30 8668 O 1504.31 -10.1746 -0.733838 0
M  V30 8669 O 1504.88 -8.73346 1.23964 0
M  V30 8670 O 1504.34 -7.66872 -0.971405 0
M  V30 8671 C 1503.4 -7.42405 -2.04668 0
M  V30 8672 C 1504.13 -6.86059 -3.24661 0
M  V30 8673 O 1504.34 -5.42934 -3.03695 0
M  V30 8674 C 1505.53 -7.41287 -3.50796 0
M  V30 8675 O 1505.92 -7.27073 -4.86816 0
M  V30 8676 C 1506.41 -6.5273 -2.63741 0
M  V30 8677 C 1505.7 -5.1842 -2.73198 0
M  V30 8678 N 1505.75 -4.38762 -1.4784 0
M  V30 8679 C 1505.67 -4.83651 -0.183876 0
M  V30 8680 N 1505.74 -3.88759 0.699393 0
M  V30 8681 C 1505.89 -2.7404 -0.0575568 0
M  V30 8682 C 1506.02 -1.37902 0.293928 0
M  V30 8683 N 1506.03 -0.938021 1.54797 0
M  V30 8684 N 1506.14 -0.491817 -0.70549 0
M  V30 8685 C 1506.13 -0.931735 -1.95979 0
M  V30 8686 N 1506.01 -2.16017 -2.41481 0
M  V30 8687 C 1505.89 -3.02547 -1.39121 0
M  V30 8688 H 1502.91 -8.36899 -2.3252 0
M  V30 8689 H 1502.64 -6.70391 -1.71179 0
M  V30 8690 H 1503.51 -7.03638 -4.13219 0
M  V30 8691 H 1506.16 -4.59931 -3.54016 0
M  V30 8692 H 1506.44 -6.88995 -1.59871 0
M  V30 8693 H 1507.44 -6.4684 -3.0373 0
M  V30 8694 H 1505.6 -8.47002 -3.20749 0
M  V30 8695 H 1505.56 -5.8885 0.0765548 0
M  V30 8696 H 1505.94 -1.60276 2.32875 0
M  V30 8697 H 1506.13 0.0699355 1.73859 0
M  V30 8698 H 1506.24 -0.165507 -2.71897 0
M  V30 8699 P 1507.47 -7.20834 -5.23717 0
M  V30 8700 O 1507.69 -7.79853 -6.57286 0
M  V30 8701 O 1508.26 -7.79239 -4.12957 0
M  V30 8702 O 1507.72 -5.63315 -5.29344 0
M  V30 8703 C 1506.78 -4.80255 -6.01876 0
M  V30 8704 C 1507.51 -3.64202 -6.65911 0
M  V30 8705 O 1507.72 -2.60694 -5.64732 0
M  V30 8706 C 1508.91 -3.93473 -7.1943 0
M  V30 8707 O 1509.3 -3.02071 -8.21205 0
M  V30 8708 C 1509.79 -3.73047 -5.97036 0
M  V30 8709 C 1509.08 -2.58828 -5.25741 0
M  V30 8710 N 1509.13 -2.68068 -3.77503 0
M  V30 8711 H 1506.29 -5.40332 -6.79951 0
M  V30 8712 H 1506.02 -4.41613 -5.32378 0
M  V30 8713 H 1506.89 -3.26331 -7.47797 0
M  V30 8714 P 1510.85 -2.75334 -8.47391 0
M  V30 8715 O 1511.07 -2.44571 -9.90142 0
M  V30 8716 O 1511.64 -3.87688 -7.92115 0
M  V30 8717 O 1511.1 -1.4459 -7.59357 0
M  V30 8718 C 1510.16 -0.347608 -7.69215 0
M  V30 8719 C 1510.89 0.96767 -7.52806 0
M  V30 8720 O 1511.1 1.21036 -6.1011 0
M  V30 8721 C 1512.29 1.04544 -8.13308 0
M  V30 8722 O 1512.68 2.38311 -8.41922 0
M  V30 8723 C 1513.17 0.491279 -7.02284 0
M  V30 8724 C 1512.46 0.996264 -5.77469 0
M  V30 8725 N 1512.51 0.0501916 -4.62973 0
M  V30 8726 C 1512.43 -1.32786 -4.63244 0
M  V30 8727 N 1512.51 -1.86957 -3.44545 0
M  V30 8728 C 1512.65 -0.780241 -2.58481 0
M  V30 8729 C 1512.78 -0.738536 -1.17757 0
M  V30 8730 N 1512.9 0.58337 -0.711393 0
M  V30 8731 C 1512.9 1.70816 -1.51017 0
M  V30 8732 N 1513.03 2.87826 -0.880757 0
M  V30 8733 N 1512.77 1.67126 -2.8339 0
M  V30 8734 C 1512.65 0.401421 -3.30572 0
M  V30 8735 H 1509.67 -0.374722 -8.67691 0
M  V30 8736 H 1509.4 -0.443485 -6.90277 0
M  V30 8737 H 1510.27 1.75537 -7.96793 0
M  V30 8738 P 1514.23 2.75334 -8.47391 0
M  V30 8739 O 1514.45 3.84128 -9.44797 0
M  V30 8740 O 1515.02 1.51947 -8.68712 0
M  V30 8741 O 1514.48 3.29363 -6.99321 0
M  V30 8742 C 1513.54 4.24011 -6.4274 0
M  V30 8743 C 1514.27 5.20775 -5.52155 0
M  V30 8744 O 1514.48 4.56534 -4.22446 0
M  V30 8745 C 1515.67 5.62629 -5.96531 0
M  V30 8746 O 1516.06 6.87667 -5.41053 0
M  V30 8747 C 1516.55 4.52537 -5.39283 0
M  V30 8748 C 1515.84 4.20027 -4.08623 0
M  V30 8749 N 1515.89 2.76189 -3.71603 0
M  V30 8750 H 1513.05 4.797 -7.24003 0
M  V30 8751 H 1512.78 3.69856 -5.84513 0
M  V30 8752 H 1513.65 6.10356 -5.41441 0
M  V30 8753 P 1517.61 7.20834 -5.23717 0
M  V30 8754 O 1517.83 8.66104 -5.38572 0
M  V30 8755 O 1518.4 6.33544 -6.1349 0
M  V30 8756 O 1517.86 6.7751 -3.72168 0
M  V30 8757 C 1516.92 7.20825 -2.7076 0
M  V30 8758 C 1517.65 7.45864 -1.40599 0
M  V30 8759 O 1517.86 6.17651 -0.734225 0
M  V30 8760 C 1519.05 8.05808 -1.51899 0
M  V30 8761 O 1519.44 8.74358 -0.335205 0
M  V30 8762 C 1519.93 6.83093 -1.70294 0
M  V30 8763 C 1519.22 5.79992 -0.836974 0
M  V30 8764 N 1519.27 4.41864 -1.38293 0
M  V30 8765 H 1516.43 8.13644 -3.0377 0
M  V30 8766 H 1516.16 6.42788 -2.55485 0
M  V30 8767 H 1517.03 8.12039 -0.792769 0
M  V30 8768 P 1520.99 8.91 1.48453e-12 0
M  V30 8769 O 1521.21 10.1726 0.733694 0
M  V30 8770 O 1521.78 8.73148 -1.23936 0
M  V30 8771 O 1521.24 7.66872 0.971405 0
M  V30 8772 C 1520.3 7.42309 2.04641 0
M  V30 8773 C 1521.03 6.86059 3.24661 0
M  V30 8774 O 1521.24 5.42847 3.03646 0
M  V30 8775 C 1522.43 7.41196 3.50753 0
M  V30 8776 O 1522.82 7.27073 4.86816 0
M  V30 8777 C 1523.31 6.5273 2.63741 0
M  V30 8778 C 1522.6 5.1842 2.73198 0
M  V30 8779 N 1522.65 4.38762 1.4784 0
M  V30 8780 H 1519.81 8.36803 2.32493 0
M  V30 8781 H 1519.54 6.70197 1.71129 0
M  V30 8782 H 1520.41 7.03551 4.13168 0
M  V30 8783 P 1524.37 7.20834 5.23717 0
M  V30 8784 O 1524.59 7.79853 6.57286 0
M  V30 8785 O 1525.16 7.79239 4.12957 0
M  V30 8786 O 1524.62 5.63315 5.29344 0
M  V30 8787 C 1523.68 4.80255 6.01876 0
M  V30 8788 C 1524.41 3.64202 6.65911 0
M  V30 8789 O 1524.62 2.60694 5.64732 0
M  V30 8790 C 1525.81 3.93473 7.1943 0
M  V30 8791 O 1526.2 3.02071 8.21205 0
M  V30 8792 C 1526.69 3.73047 5.97036 0
M  V30 8793 C 1525.98 2.58828 5.25741 0
M  V30 8794 N 1526.03 2.68068 3.77503 0
M  V30 8795 H 1523.19 5.40332 6.79951 0
M  V30 8796 H 1522.92 4.41613 5.32378 0
M  V30 8797 H 1523.79 3.26331 7.47797 0
M  V30 8798 P 1527.75 2.75334 8.47391 0
M  V30 8799 O 1527.97 2.44595 9.90239 0
M  V30 8800 O 1528.54 3.87732 7.92204 0
M  V30 8801 O 1528 1.4459 7.59357 0
M  V30 8802 C 1527.06 0.347608 7.69215 0
M  V30 8803 C 1527.79 -0.96767 7.52806 0
M  V30 8804 O 1528 -1.21036 6.1011 0
M  V30 8805 C 1529.19 -1.04544 8.13308 0
M  V30 8806 O 1529.58 -2.38311 8.41922 0
M  V30 8807 C 1530.07 -0.491279 7.02284 0
M  V30 8808 C 1529.36 -0.996264 5.77469 0
M  V30 8809 N 1529.41 -0.0501808 4.62873 0
M  V30 8810 C 1529.56 -0.578037 3.3505 0
M  V30 8811 O 1529.65 -1.8073 3.21711 0
M  V30 8812 N 1529.61 0.468541 2.263 0
M  V30 8813 C 1529.51 1.59186 2.47176 0
M  V30 8814 N 1529.56 2.37626 1.40392 0
M  V30 8815 C 1529.36 2.16203 3.77467 0
M  V30 8816 C 1529.31 1.29324 4.8195 0
M  V30 8817 H 1526.57 0.374679 8.67591 0
M  V30 8818 H 1526.3 0.443421 6.90177 0
M  V30 8819 H 1527.17 -1.75559 7.96891 0
M  V30 8820 H 1529.82 -1.94529 5.46723 0
M  V30 8821 H 1530.1 0.608651 7.04676 0
M  V30 8822 H 1531.09 -0.889672 7.08939 0
M  V30 8823 H 1529.26 -0.43308 9.04564 0
M  V30 8824 H 1529.19 1.67758 5.83046 0
M  V30 8825 H 1529.29 3.23869 3.92281 0
M  V30 8826 H 1529.68 1.96317 0.467202 0
M  V30 8827 H 1529.48 3.39693 1.51142 0
M  V30 8828 P 1531.13 -2.75334 8.47391 0
M  V30 8829 O 1531.35 -3.84166 9.4489 0
M  V30 8830 O 1531.92 -1.51964 8.6881 0
M  V30 8831 O 1531.38 -3.29363 6.99321 0
M  V30 8832 C 1530.44 -4.23956 6.42656 0
M  V30 8833 C 1531.17 -5.20775 5.52155 0
M  V30 8834 O 1531.38 -4.56534 4.22446 0
M  V30 8835 C 1532.57 -5.62629 5.96531 0
M  V30 8836 O 1532.96 -6.87667 5.41053 0
M  V30 8837 C 1533.45 -4.52537 5.39283 0
M  V30 8838 C 1532.74 -4.20027 4.08623 0
M  V30 8839 N 1532.79 -2.7613 3.71522 0
M  V30 8840 C 1532.94 -2.45612 2.37989 0
M  V30 8841 O 1533.03 -3.30919 1.51621 0
M  V30 8842 N 1532.98 -1.10684 2.08435 0
M  V30 8843 C 1532.89 -0.0690084 2.9792 0
M  V30 8844 O 1532.94 1.10553 2.59426 0
M  V30 8845 C 1532.74 -0.481522 4.35345 0
M  V30 8846 C 1532.63 0.618778 5.36443 0
M  V30 8847 C 1532.69 -1.78906 4.67968 0
M  V30 8848 H 1529.95 -4.797 7.24003 0
M  V30 8849 H 1529.68 -3.69802 5.84429 0
M  V30 8850 H 1530.55 -6.10356 5.41441 0
M  V30 8851 H 1533.2 -4.78651 3.27911 0
M  V30 8852 H 1533.48 -3.64957 6.05871 0
M  V30 8853 H 1534.47 -4.8868 5.2125 0
M  V30 8854 H 1532.64 -5.66726 7.06352 0
M  V30 8855 H 1532.57 -2.07737 5.72367 0
M  V30 8856 H 1533.6 0.754375 5.86871 0
M  V30 8857 H 1531.86 0.359721 6.10641 0
M  V30 8858 H 1532.35 1.55533 4.8581 0
M  V30 8859 H 1533.09 -0.862651 1.12037 0
M  V30 8860 P 1534.51 -7.20834 5.23717 0
M  V30 8861 O 1534.73 -8.66104 5.38572 0
M  V30 8862 O 1535.3 -6.33544 6.1349 0
M  V30 8863 O 1534.76 -6.7751 3.72168 0
M  V30 8864 C 1533.82 -7.20825 2.7076 0
M  V30 8865 C 1534.55 -7.45864 1.40599 0
M  V30 8866 O 1534.76 -6.17651 0.734225 0
M  V30 8867 C 1535.95 -8.05808 1.51899 0
M  V30 8868 O 1536.34 -8.74358 0.335205 0
M  V30 8869 C 1536.83 -6.83093 1.70294 0
M  V30 8870 C 1536.12 -5.79992 0.836974 0
M  V30 8871 N 1536.17 -4.41864 1.38293 0
M  V30 8872 H 1533.33 -8.13644 3.0377 0
M  V30 8873 H 1533.06 -6.42788 2.55485 0
M  V30 8874 H 1533.93 -8.12039 0.792769 0
M  V30 8875 P 1537.89 -8.91 -3.75525e-13 0
M  V30 8876 O 1538.11 -10.1726 -0.733694 0
M  V30 8877 O 1538.68 -8.73148 1.23936 0
M  V30 8878 O 1538.14 -7.66872 -0.971405 0
M  V30 8879 C 1537.2 -7.42309 -2.04641 0
M  V30 8880 C 1537.93 -6.86059 -3.24661 0
M  V30 8881 O 1538.14 -5.42847 -3.03646 0
M  V30 8882 C 1539.33 -7.41196 -3.50753 0
M  V30 8883 O 1539.72 -7.27073 -4.86816 0
M  V30 8884 C 1540.21 -6.5273 -2.63741 0
M  V30 8885 C 1539.5 -5.1842 -2.73198 0
M  V30 8886 N 1539.55 -4.38762 -1.4784 0
M  V30 8887 H 1536.71 -8.36803 -2.32493 0
M  V30 8888 H 1536.44 -6.70197 -1.71129 0
M  V30 8889 H 1537.31 -7.03551 -4.13168 0
M  V30 8890 P 1541.27 -7.20834 -5.23717 0
M  V30 8891 O 1541.49 -7.79853 -6.57286 0
M  V30 8892 O 1542.06 -7.79239 -4.12957 0
M  V30 8893 O 1541.52 -5.63315 -5.29344 0
M  V30 8894 C 1540.58 -4.80255 -6.01876 0
M  V30 8895 C 1541.31 -3.64202 -6.65911 0
M  V30 8896 O 1541.52 -2.60694 -5.64732 0
M  V30 8897 C 1542.71 -3.93473 -7.1943 0
M  V30 8898 O 1543.1 -3.02071 -8.21205 0
M  V30 8899 C 1543.59 -3.73047 -5.97036 0
M  V30 8900 C 1542.88 -2.58828 -5.25741 0
M  V30 8901 N 1542.93 -2.68068 -3.77503 0
M  V30 8902 H 1540.09 -5.40332 -6.79951 0
M  V30 8903 H 1539.82 -4.41613 -5.32378 0
M  V30 8904 H 1540.69 -3.26331 -7.47797 0
M  V30 8905 P 1544.65 -2.75334 -8.47391 0
M  V30 8906 O 1544.87 -2.44571 -9.90142 0
M  V30 8907 O 1545.44 -3.87688 -7.92115 0
M  V30 8908 O 1544.9 -1.4459 -7.59357 0
M  V30 8909 C 1543.96 -0.347608 -7.69215 0
M  V30 8910 C 1544.69 0.96767 -7.52806 0
M  V30 8911 O 1544.9 1.21036 -6.1011 0
M  V30 8912 C 1546.09 1.04544 -8.13308 0
M  V30 8913 O 1546.48 2.38311 -8.41922 0
M  V30 8914 C 1546.97 0.491279 -7.02284 0
M  V30 8915 C 1546.26 0.996264 -5.77469 0
M  V30 8916 N 1546.31 0.0501916 -4.62973 0
M  V30 8917 H 1543.47 -0.374722 -8.67691 0
M  V30 8918 H 1543.2 -0.443485 -6.90277 0
M  V30 8919 H 1544.07 1.75537 -7.96793 0
M  V30 8920 P 1548.03 2.75334 -8.47391 0
M  V30 8921 O 1548.25 3.84204 -9.44982 0
M  V30 8922 O 1548.82 1.51982 -8.68909 0
M  V30 8923 O 1548.28 3.29363 -6.99321 0
M  V30 8924 C 1547.34 4.24066 -6.42823 0
M  V30 8925 C 1548.07 5.20775 -5.52155 0
M  V30 8926 O 1548.28 4.56607 -4.22514 0
M  V30 8927 C 1549.47 5.62697 -5.96604 0
M  V30 8928 O 1549.86 6.87667 -5.41053 0
M  V30 8929 C 1550.35 4.52537 -5.39283 0
M  V30 8930 C 1549.64 4.20027 -4.08623 0
M  V30 8931 N 1549.69 2.76189 -3.71603 0
M  V30 8932 C 1549.61 1.66944 -4.54297 0
M  V30 8933 N 1549.68 0.536169 -3.91344 0
M  V30 8934 C 1549.83 0.901569 -2.58849 0
M  V30 8935 C 1549.96 0.146599 -1.40236 0
M  V30 8936 N 1549.97 -1.18234 -1.37046 0
M  V30 8937 N 1550.08 0.822941 -0.249738 0
M  V30 8938 C 1550.07 2.15179 -0.280525 0
M  V30 8939 N 1549.95 2.96414 -1.30822 0
M  V30 8940 C 1549.83 2.25804 -2.44748 0
M  V30 8941 H 1546.85 4.79756 -7.24086 0
M  V30 8942 H 1546.58 3.69963 -5.84682 0
M  V30 8943 H 1547.45 6.10431 -5.41508 0
M  V30 8944 H 1550.1 4.78816 -3.28024 0
M  V30 8945 H 1550.38 3.64957 -6.05871 0
M  V30 8946 H 1551.37 4.88748 -5.21323 0
M  V30 8947 H 1549.54 5.66789 -7.0643 0
M  V30 8948 H 1549.5 1.74684 -5.62396 0
M  V30 8949 H 1549.88 -1.71949 -2.24394 0
M  V30 8950 H 1550.07 -1.67511 -0.470742 0
M  V30 8951 H 1550.18 2.63704 0.6828 0
M  V30 8952 P 1551.41 7.20834 -5.23717 0
M  V30 8953 O 1551.63 8.66104 -5.38572 0
M  V30 8954 O 1552.2 6.33544 -6.1349 0
M  V30 8955 O 1551.66 6.7751 -3.72168 0
M  V30 8956 C 1550.72 7.20825 -2.7076 0
M  V30 8957 C 1551.45 7.45864 -1.40599 0
M  V30 8958 O 1551.66 6.17651 -0.734225 0
M  V30 8959 C 1552.85 8.05808 -1.51899 0
M  V30 8960 O 1553.24 8.74358 -0.335205 0
M  V30 8961 C 1553.73 6.83093 -1.70294 0
M  V30 8962 C 1553.02 5.79992 -0.836974 0
M  V30 8963 N 1553.07 4.41864 -1.38293 0
M  V30 8964 H 1550.23 8.13644 -3.0377 0
M  V30 8965 H 1549.96 6.42788 -2.55485 0
M  V30 8966 H 1550.83 8.12039 -0.792769 0
M  V30 8967 P 1554.79 8.91 -7.3348e-13 0
M  V30 8968 O 1555.01 10.1726 0.733694 0
M  V30 8969 O 1555.58 8.73148 -1.23936 0
M  V30 8970 O 1555.04 7.66872 0.971405 0
M  V30 8971 C 1554.1 7.42309 2.04641 0
M  V30 8972 C 1554.83 6.86059 3.24661 0
M  V30 8973 O 1555.04 5.42847 3.03646 0
M  V30 8974 C 1556.23 7.41196 3.50753 0
M  V30 8975 O 1556.62 7.27073 4.86816 0
M  V30 8976 C 1557.11 6.5273 2.63741 0
M  V30 8977 C 1556.4 5.1842 2.73198 0
M  V30 8978 N 1556.45 4.38762 1.4784 0
M  V30 8979 H 1553.61 8.36803 2.32493 0
M  V30 8980 H 1553.34 6.70197 1.71129 0
M  V30 8981 H 1554.21 7.03551 4.13168 0
M  V30 8982 P 1558.17 7.20834 5.23717 0
M  V30 8983 O 1558.39 7.79853 6.57286 0
M  V30 8984 O 1558.96 7.79239 4.12957 0
M  V30 8985 O 1558.42 5.63315 5.29344 0
M  V30 8986 C 1557.48 4.80255 6.01876 0
M  V30 8987 C 1558.21 3.64202 6.65911 0
M  V30 8988 O 1558.42 2.60694 5.64732 0
M  V30 8989 C 1559.61 3.93473 7.1943 0
M  V30 8990 O 1560 3.02071 8.21205 0
M  V30 8991 C 1560.49 3.73047 5.97036 0
M  V30 8992 C 1559.78 2.58828 5.25741 0
M  V30 8993 N 1559.83 2.68068 3.77503 0
M  V30 8994 H 1556.99 5.40332 6.79951 0
M  V30 8995 H 1556.72 4.41613 5.32378 0
M  V30 8996 H 1557.59 3.26331 7.47797 0
M  V30 8997 P 1561.55 2.75334 8.47391 0
M  V30 8998 O 1561.77 2.44571 9.90142 0
M  V30 8999 O 1562.34 3.87688 7.92115 0
M  V30 9000 O 1561.8 1.4459 7.59357 0
M  V30 9001 C 1560.86 0.347608 7.69215 0
M  V30 9002 C 1561.59 -0.96767 7.52806 0
M  V30 9003 O 1561.8 -1.21036 6.1011 0
M  V30 9004 C 1562.99 -1.04544 8.13308 0
M  V30 9005 O 1563.38 -2.38311 8.41922 0
M  V30 9006 C 1563.87 -0.491279 7.02284 0
M  V30 9007 C 1563.16 -0.996264 5.77469 0
M  V30 9008 N 1563.21 -0.0501916 4.62973 0
M  V30 9009 H 1560.37 0.374722 8.67691 0
M  V30 9010 H 1560.1 0.443485 6.90277 0
M  V30 9011 H 1560.97 -1.75537 7.96793 0
M  V30 9012 P 1564.93 -2.75334 8.47391 0
M  V30 9013 O 1565.15 -3.84204 9.44982 0
M  V30 9014 O 1565.72 -1.51982 8.68909 0
M  V30 9015 O 1565.18 -3.29363 6.99321 0
M  V30 9016 C 1564.24 -4.24066 6.42823 0
M  V30 9017 C 1564.97 -5.20775 5.52155 0
M  V30 9018 O 1565.18 -4.56607 4.22514 0
M  V30 9019 C 1566.37 -5.62697 5.96604 0
M  V30 9020 O 1566.76 -6.87667 5.41053 0
M  V30 9021 C 1567.25 -4.52537 5.39283 0
M  V30 9022 C 1566.54 -4.20027 4.08623 0
M  V30 9023 N 1566.59 -2.76189 3.71603 0
M  V30 9024 C 1566.51 -1.66944 4.54297 0
M  V30 9025 N 1566.58 -0.536169 3.91344 0
M  V30 9026 C 1566.73 -0.901569 2.58849 0
M  V30 9027 C 1566.86 -0.146599 1.40236 0
M  V30 9028 N 1566.87 1.18234 1.37046 0
M  V30 9029 N 1566.98 -0.822941 0.249738 0
M  V30 9030 C 1566.97 -2.15179 0.280525 0
M  V30 9031 N 1566.85 -2.96414 1.30822 0
M  V30 9032 C 1566.73 -2.25804 2.44748 0
M  V30 9033 H 1563.75 -4.79756 7.24086 0
M  V30 9034 H 1563.48 -3.69963 5.84682 0
M  V30 9035 H 1564.35 -6.10431 5.41508 0
M  V30 9036 H 1567 -4.78816 3.28024 0
M  V30 9037 H 1567.28 -3.64957 6.05871 0
M  V30 9038 H 1568.27 -4.88748 5.21323 0
M  V30 9039 H 1566.44 -5.66789 7.0643 0
M  V30 9040 H 1566.4 -1.74684 5.62396 0
M  V30 9041 H 1566.78 1.71949 2.24394 0
M  V30 9042 H 1566.97 1.67511 0.470742 0
M  V30 9043 H 1567.08 -2.63704 -0.6828 0
M  V30 9044 P 1568.31 -7.20834 5.23717 0
M  V30 9045 O 1568.53 -8.66104 5.38572 0
M  V30 9046 O 1569.1 -6.33544 6.1349 0
M  V30 9047 O 1568.56 -6.7751 3.72168 0
M  V30 9048 C 1567.62 -7.20825 2.7076 0
M  V30 9049 C 1568.35 -7.45864 1.40599 0
M  V30 9050 O 1568.56 -6.17651 0.734225 0
M  V30 9051 C 1569.75 -8.05808 1.51899 0
M  V30 9052 O 1570.14 -8.74358 0.335205 0
M  V30 9053 C 1570.63 -6.83093 1.70294 0
M  V30 9054 C 1569.92 -5.79992 0.836974 0
M  V30 9055 N 1569.97 -4.41864 1.38293 0
M  V30 9056 H 1567.13 -8.13644 3.0377 0
M  V30 9057 H 1566.86 -6.42788 2.55485 0
M  V30 9058 H 1567.73 -8.12039 0.792769 0
M  V30 9059 P 1571.69 -8.91 1.84249e-12 0
M  V30 9060 O 1571.91 -10.1726 -0.733694 0
M  V30 9061 O 1572.48 -8.73148 1.23936 0
M  V30 9062 O 1571.94 -7.66872 -0.971405 0
M  V30 9063 C 1571 -7.42309 -2.04641 0
M  V30 9064 C 1571.73 -6.86059 -3.24661 0
M  V30 9065 O 1571.94 -5.42847 -3.03646 0
M  V30 9066 C 1573.13 -7.41196 -3.50753 0
M  V30 9067 O 1573.52 -7.27073 -4.86816 0
M  V30 9068 C 1574.01 -6.5273 -2.63741 0
M  V30 9069 C 1573.3 -5.1842 -2.73198 0
M  V30 9070 N 1573.35 -4.38762 -1.4784 0
M  V30 9071 C 1573.27 -4.81605 -0.168631 0
M  V30 9072 N 1573.35 -3.85454 0.713363 0
M  V30 9073 C 1573.49 -2.6994 -0.0566958 0
M  V30 9074 C 1573.62 -1.34815 0.338502 0
M  V30 9075 N 1573.74 -0.496304 -0.77465 0
M  V30 9076 C 1573.74 -0.908403 -2.09122 0
M  V30 9077 N 1573.87 0.0517805 -3.00955 0
M  V30 9078 N 1573.61 -2.17875 -2.46519 0
M  V30 9079 C 1573.49 -3.01988 -1.4033 0
M  V30 9080 H 1570.51 -8.36803 -2.32493 0
M  V30 9081 H 1570.24 -6.70197 -1.71129 0
M  V30 9082 H 1571.11 -7.03551 -4.13168 0
M  V30 9083 P 1575.07 -7.20834 -5.23717 0
M  V30 9084 O 1575.29 -7.79853 -6.57286 0
M  V30 9085 O 1575.86 -7.79239 -4.12957 0
M  V30 9086 O 1575.32 -5.63315 -5.29344 0
M  V30 9087 C 1574.38 -4.80255 -6.01876 0
M  V30 9088 C 1575.11 -3.64202 -6.65911 0
M  V30 9089 O 1575.32 -2.60694 -5.64732 0
M  V30 9090 C 1576.51 -3.93473 -7.1943 0
M  V30 9091 O 1576.9 -3.02071 -8.21205 0
M  V30 9092 C 1577.39 -3.73047 -5.97036 0
M  V30 9093 C 1576.68 -2.58828 -5.25741 0
M  V30 9094 N 1576.73 -2.68068 -3.77503 0
M  V30 9095 H 1573.89 -5.40332 -6.79951 0
M  V30 9096 H 1573.62 -4.41613 -5.32378 0
M  V30 9097 H 1574.49 -3.26331 -7.47797 0
M  V30 9098 P 1578.45 -2.75334 -8.47391 0
M  V30 9099 O 1578.67 -2.44571 -9.90142 0
M  V30 9100 O 1579.24 -3.87688 -7.92115 0
M  V30 9101 O 1578.7 -1.4459 -7.59357 0
M  V30 9102 C 1577.76 -0.347608 -7.69215 0
M  V30 9103 C 1578.49 0.96767 -7.52806 0
M  V30 9104 O 1578.7 1.21036 -6.1011 0
M  V30 9105 C 1579.89 1.04544 -8.13308 0
M  V30 9106 O 1580.28 2.38311 -8.41922 0
M  V30 9107 C 1580.77 0.491279 -7.02284 0
M  V30 9108 C 1580.06 0.996264 -5.77469 0
M  V30 9109 N 1580.11 0.0501916 -4.62973 0
M  V30 9110 H 1577.27 -0.374722 -8.67691 0
M  V30 9111 H 1577 -0.443485 -6.90277 0
M  V30 9112 H 1577.87 1.75537 -7.96793 0
M  V30 9113 P 1581.83 2.75334 -8.47391 0
M  V30 9114 O 1582.05 3.84166 -9.4489 0
M  V30 9115 O 1582.62 1.51964 -8.6881 0
M  V30 9116 O 1582.08 3.29363 -6.99321 0
M  V30 9117 C 1581.14 4.23956 -6.42656 0
M  V30 9118 C 1581.87 5.20775 -5.52155 0
M  V30 9119 O 1582.08 4.56534 -4.22446 0
M  V30 9120 C 1583.27 5.62629 -5.96531 0
M  V30 9121 O 1583.66 6.87667 -5.41053 0
M  V30 9122 C 1584.15 4.52537 -5.39283 0
M  V30 9123 C 1583.44 4.20027 -4.08623 0
M  V30 9124 N 1583.49 2.7613 -3.71522 0
M  V30 9125 C 1583.64 2.45612 -2.37989 0
M  V30 9126 O 1583.73 3.30919 -1.51621 0
M  V30 9127 N 1583.68 1.10684 -2.08435 0
M  V30 9128 C 1583.59 0.0690084 -2.9792 0
M  V30 9129 C 1583.44 0.481522 -4.35345 0
M  V30 9130 C 1583.39 1.78906 -4.67968 0
M  V30 9131 H 1580.65 4.797 -7.24003 0
M  V30 9132 H 1580.38 3.69802 -5.84429 0
M  V30 9133 H 1581.25 6.10356 -5.41441 0
M  V30 9134 H 1583.9 4.78651 -3.27911 0
M  V30 9135 H 1584.18 3.64957 -6.05871 0
M  V30 9136 H 1585.17 4.8868 -5.2125 0
M  V30 9137 H 1583.34 5.66726 -7.06352 0
M  V30 9138 H 1583.27 2.07737 -5.72367 0
M  V30 9139 P 1585.21 7.20834 -5.23717 0
M  V30 9140 O 1585.43 8.66104 -5.38572 0
M  V30 9141 O 1586 6.33544 -6.1349 0
M  V30 9142 O 1585.46 6.7751 -3.72168 0
M  V30 9143 C 1584.52 7.20825 -2.7076 0
M  V30 9144 C 1585.25 7.45864 -1.40599 0
M  V30 9145 O 1585.46 6.17651 -0.734225 0
M  V30 9146 C 1586.65 8.05808 -1.51899 0
M  V30 9147 O 1587.04 8.74358 -0.335205 0
M  V30 9148 C 1587.53 6.83093 -1.70294 0
M  V30 9149 C 1586.82 5.79992 -0.836974 0
M  V30 9150 N 1586.87 4.41864 -1.38293 0
M  V30 9151 H 1584.03 8.13644 -3.0377 0
M  V30 9152 H 1583.76 6.42788 -2.55485 0
M  V30 9153 H 1584.63 8.12039 -0.792769 0
M  V30 9154 P 1588.59 8.91 -2.95149e-12 0
M  V30 9155 O 1588.81 10.1726 0.733694 0
M  V30 9156 O 1589.38 8.73148 -1.23936 0
M  V30 9157 O 1588.84 7.66872 0.971405 0
M  V30 9158 C 1587.9 7.42309 2.04641 0
M  V30 9159 C 1588.63 6.86059 3.24661 0
M  V30 9160 O 1588.84 5.42847 3.03646 0
M  V30 9161 C 1590.03 7.41196 3.50753 0
M  V30 9162 O 1590.42 7.27073 4.86816 0
M  V30 9163 C 1590.91 6.5273 2.63741 0
M  V30 9164 C 1590.2 5.1842 2.73198 0
M  V30 9165 N 1590.25 4.38762 1.4784 0
M  V30 9166 H 1587.41 8.36803 2.32493 0
M  V30 9167 H 1587.14 6.70197 1.71129 0
M  V30 9168 H 1588.01 7.03551 4.13168 0
M  V30 9169 P 1591.97 7.20834 5.23717 0
M  V30 9170 O 1592.19 7.79853 6.57286 0
M  V30 9171 O 1592.76 7.79239 4.12957 0
M  V30 9172 O 1592.22 5.63315 5.29344 0
M  V30 9173 C 1591.28 4.80255 6.01876 0
M  V30 9174 C 1592.01 3.64202 6.65911 0
M  V30 9175 O 1592.22 2.60694 5.64732 0
M  V30 9176 C 1593.41 3.93473 7.1943 0
M  V30 9177 O 1593.8 3.02071 8.21205 0
M  V30 9178 C 1594.29 3.73047 5.97036 0
M  V30 9179 C 1593.58 2.58828 5.25741 0
M  V30 9180 N 1593.63 2.68068 3.77503 0
M  V30 9181 H 1590.79 5.40332 6.79951 0
M  V30 9182 H 1590.52 4.41613 5.32378 0
M  V30 9183 H 1591.39 3.26331 7.47797 0
M  V30 9184 P 1595.35 2.75334 8.47391 0
M  V30 9185 O 1595.57 2.44595 9.90239 0
M  V30 9186 O 1596.14 3.87732 7.92204 0
M  V30 9187 O 1595.6 1.4459 7.59357 0
M  V30 9188 C 1594.66 0.347563 7.69115 0
M  V30 9189 C 1595.39 -0.96767 7.52806 0
M  V30 9190 O 1595.6 -1.21036 6.1011 0
M  V30 9191 C 1596.79 -1.04544 8.13308 0
M  V30 9192 O 1597.18 -2.38311 8.41922 0
M  V30 9193 C 1597.67 -0.491279 7.02284 0
M  V30 9194 C 1596.96 -0.996264 5.77469 0
M  V30 9195 N 1597.01 -0.0501808 4.62873 0
M  V30 9196 C 1597.16 -0.588177 3.36904 0
M  V30 9197 O 1597.25 -1.78598 3.17173 0
M  V30 9198 N 1597.2 0.329694 2.33686 0
M  V30 9199 C 1597.11 1.6953 2.45079 0
M  V30 9200 O 1597.16 2.41926 1.44899 0
M  V30 9201 C 1596.96 2.16933 3.80505 0
M  V30 9202 C 1596.85 3.65373 3.97621 0
M  V30 9203 C 1596.91 1.30326 4.83752 0
M  V30 9204 H 1594.17 0.374722 8.67691 0
M  V30 9205 H 1593.9 0.443421 6.90177 0
M  V30 9206 H 1594.77 -1.75537 7.96793 0
M  V30 9207 H 1597.42 -1.94496 5.46629 0
M  V30 9208 H 1597.7 0.608651 7.04676 0
M  V30 9209 H 1598.69 -0.889672 7.08939 0
M  V30 9210 H 1596.86 -0.43308 9.04564 0
M  V30 9211 H 1596.79 1.68366 5.8516 0
M  V30 9212 H 1597.82 4.05985 4.30448 0
M  V30 9213 H 1596.08 3.88028 4.72875 0
M  V30 9214 H 1596.57 4.11381 3.01609 0
M  V30 9215 H 1597.31 -0.0393617 1.41345 0
M  V30 9216 P 1598.73 -2.75334 8.47391 0
M  V30 9217 O 1598.95 -3.84204 9.44982 0
M  V30 9218 O 1599.52 -1.51982 8.68909 0
M  V30 9219 O 1598.98 -3.29363 6.99321 0
M  V30 9220 C 1598.04 -4.24066 6.42823 0
M  V30 9221 C 1598.77 -5.20775 5.52155 0
M  V30 9222 O 1598.98 -4.56607 4.22514 0
M  V30 9223 C 1600.17 -5.62697 5.96604 0
M  V30 9224 O 1600.56 -6.87667 5.41053 0
M  V30 9225 C 1601.05 -4.52537 5.39283 0
M  V30 9226 C 1600.34 -4.20027 4.08623 0
M  V30 9227 N 1600.39 -2.76189 3.71603 0
M  V30 9228 C 1600.31 -1.66944 4.54297 0
M  V30 9229 N 1600.38 -0.536169 3.91344 0
M  V30 9230 C 1600.53 -0.901569 2.58849 0
M  V30 9231 C 1600.66 -0.146599 1.40236 0
M  V30 9232 N 1600.67 1.18234 1.37046 0
M  V30 9233 N 1600.78 -0.822941 0.249738 0
M  V30 9234 C 1600.77 -2.15179 0.280525 0
M  V30 9235 N 1600.65 -2.96414 1.30822 0
M  V30 9236 C 1600.53 -2.25804 2.44748 0
M  V30 9237 H 1597.55 -4.79756 7.24086 0
M  V30 9238 H 1597.28 -3.69963 5.84682 0
M  V30 9239 H 1598.15 -6.10431 5.41508 0
M  V30 9240 H 1600.8 -4.78816 3.28024 0
M  V30 9241 H 1601.08 -3.64957 6.05871 0
M  V30 9242 H 1602.07 -4.88748 5.21323 0
M  V30 9243 H 1600.24 -5.66789 7.0643 0
M  V30 9244 H 1600.2 -1.74684 5.62396 0
M  V30 9245 H 1600.58 1.71949 2.24394 0
M  V30 9246 H 1600.77 1.67511 0.470742 0
M  V30 9247 H 1600.88 -2.63704 -0.6828 0
M  V30 9248 P 1602.11 -7.20834 5.23717 0
M  V30 9249 O 1602.33 -8.66104 5.38572 0
M  V30 9250 O 1602.9 -6.33544 6.1349 0
M  V30 9251 O 1602.36 -6.7751 3.72168 0
M  V30 9252 C 1601.42 -7.20825 2.7076 0
M  V30 9253 C 1602.15 -7.45864 1.40599 0
M  V30 9254 O 1602.36 -6.17651 0.734225 0
M  V30 9255 C 1603.55 -8.05808 1.51899 0
M  V30 9256 O 1603.94 -8.74358 0.335205 0
M  V30 9257 C 1604.43 -6.83093 1.70294 0
M  V30 9258 C 1603.72 -5.79992 0.836974 0
M  V30 9259 N 1603.77 -4.41864 1.38293 0
M  V30 9260 H 1600.93 -8.13644 3.0377 0
M  V30 9261 H 1600.66 -6.42788 2.55485 0
M  V30 9262 H 1601.53 -8.12039 0.792769 0
M  V30 9263 P 1605.49 -8.91 4.0605e-12 0
M  V30 9264 O 1605.71 -10.1726 -0.733694 0
M  V30 9265 O 1606.28 -8.73148 1.23936 0
M  V30 9266 O 1605.74 -7.66872 -0.971405 0
M  V30 9267 C 1604.8 -7.42309 -2.04641 0
M  V30 9268 C 1605.53 -6.86059 -3.24661 0
M  V30 9269 O 1605.74 -5.42847 -3.03646 0
M  V30 9270 C 1606.93 -7.41196 -3.50753 0
M  V30 9271 O 1607.32 -7.27073 -4.86816 0
M  V30 9272 C 1607.81 -6.5273 -2.63741 0
M  V30 9273 C 1607.1 -5.1842 -2.73198 0
M  V30 9274 N 1607.15 -4.38762 -1.4784 0
M  V30 9275 H 1604.31 -8.36803 -2.32493 0
M  V30 9276 H 1604.04 -6.70197 -1.71129 0
M  V30 9277 H 1604.91 -7.03551 -4.13168 0
M  V30 9278 P 1608.87 -7.20834 -5.23717 0
M  V30 9279 O 1609.09 -7.79853 -6.57286 0
M  V30 9280 O 1609.66 -7.79239 -4.12957 0
M  V30 9281 O 1609.12 -5.63315 -5.29344 0
M  V30 9282 C 1608.18 -4.80255 -6.01876 0
M  V30 9283 C 1608.91 -3.64202 -6.65911 0
M  V30 9284 O 1609.12 -2.60694 -5.64732 0
M  V30 9285 C 1610.31 -3.93473 -7.1943 0
M  V30 9286 O 1610.7 -3.02071 -8.21205 0
M  V30 9287 C 1611.19 -3.73047 -5.97036 0
M  V30 9288 C 1610.48 -2.58828 -5.25741 0
M  V30 9289 N 1610.53 -2.68068 -3.77503 0
M  V30 9290 H 1607.69 -5.40332 -6.79951 0
M  V30 9291 H 1607.42 -4.41613 -5.32378 0
M  V30 9292 H 1608.29 -3.26331 -7.47797 0
M  V30 9293 P 1612.25 -2.75334 -8.47391 0
M  V30 9294 O 1612.47 -2.44619 -9.90336 0
M  V30 9295 O 1613.04 -3.87776 -7.92294 0
M  V30 9296 O 1612.5 -1.4459 -7.59357 0
M  V30 9297 C 1611.56 -0.347653 -7.69315 0
M  V30 9298 C 1612.29 0.96767 -7.52806 0
M  V30 9299 O 1612.5 1.21055 -6.10208 0
M  V30 9300 C 1613.69 1.04557 -8.13408 0
M  V30 9301 O 1614.08 2.38311 -8.41922 0
M  V30 9302 C 1614.57 0.491279 -7.02284 0
M  V30 9303 C 1613.86 0.996264 -5.77469 0
M  V30 9304 N 1613.91 0.0501916 -4.62973 0
M  V30 9305 H 1611.07 -0.374765 -8.67791 0
M  V30 9306 H 1610.8 -0.443613 -6.90476 0
M  V30 9307 H 1611.67 1.75559 -7.96891 0
M  V30 9308 H 1614.32 1.94563 -5.46818 0
M  V30 9309 H 1614.6 -0.608651 -7.04676 0
M  V30 9310 H 1615.59 0.889796 -7.09039 0
M  V30 9311 H 1613.76 0.433128 -9.04664 0
M  V30 9312 P 1615.63 2.75334 -8.47391 0
M  V30 9313 O 1615.85 3.84128 -9.44797 0
M  V30 9314 O 1616.42 1.51947 -8.68712 0
M  V30 9315 O 1615.88 3.29363 -6.99321 0
M  V30 9316 C 1614.94 4.24011 -6.4274 0
M  V30 9317 C 1615.67 5.20775 -5.52155 0
M  V30 9318 O 1615.88 4.56534 -4.22446 0
M  V30 9319 C 1617.07 5.62629 -5.96531 0
M  V30 9320 O 1617.46 6.87667 -5.41053 0
M  V30 9321 C 1617.95 4.52537 -5.39283 0
M  V30 9322 C 1617.24 4.20027 -4.08623 0
M  V30 9323 N 1617.29 2.76189 -3.71603 0
M  V30 9324 H 1614.45 4.797 -7.24003 0
M  V30 9325 H 1614.18 3.69856 -5.84513 0
M  V30 9326 H 1615.05 6.10356 -5.41441 0
M  V30 9327 P 1619.01 7.20834 -5.23717 0
M  V30 9328 O 1619.23 8.66189 -5.38625 0
M  V30 9329 O 1619.8 6.33615 -6.1356 0
M  V30 9330 O 1619.26 6.7751 -3.72168 0
M  V30 9331 C 1618.32 7.20732 -2.70725 0
M  V30 9332 C 1619.05 7.45864 -1.40599 0
M  V30 9333 O 1619.26 6.17651 -0.734225 0
M  V30 9334 C 1620.45 8.05808 -1.51899 0
M  V30 9335 O 1620.84 8.74358 -0.335205 0
M  V30 9336 C 1621.33 6.83093 -1.70294 0
M  V30 9337 C 1620.62 5.79992 -0.836974 0
M  V30 9338 N 1620.67 4.41769 -1.38263 0
M  V30 9339 C 1620.82 3.38591 -0.481702 0
M  V30 9340 O 1620.91 3.56839 0.718452 0
M  V30 9341 N 1620.86 2.1206 -1.03569 0
M  V30 9342 C 1620.77 1.80696 -2.36966 0
M  V30 9343 O 1620.82 0.630473 -2.74862 0
M  V30 9344 C 1620.62 2.94845 -3.23898 0
M  V30 9345 C 1620.51 2.65253 -4.70362 0
M  V30 9346 C 1620.57 4.19803 -2.73435 0
M  V30 9347 H 1617.83 8.13644 -3.0377 0
M  V30 9348 H 1617.56 6.42695 -2.55448 0
M  V30 9349 H 1618.43 8.12039 -0.792769 0
M  V30 9350 H 1621.08 5.79978 0.160587 0
M  V30 9351 H 1621.36 6.51379 -2.75643 0
M  V30 9352 H 1622.35 7.01734 -1.34462 0
M  V30 9353 H 1620.52 8.73674 -2.38337 0
M  V30 9354 H 1620.45 5.04492 -3.4095 0
M  V30 9355 H 1621.48 2.83924 -5.1913 0
M  V30 9356 H 1619.74 3.29824 -5.15163 0
M  V30 9357 H 1620.23 1.59723 -4.84449 0
M  V30 9358 H 1620.97 1.35644 -0.399345 0
M  V30 9359 P 1622.39 8.91 -5.1695e-12 0
M  V30 9360 O 1622.61 10.1726 0.733694 0
M  V30 9361 O 1623.18 8.73148 -1.23936 0
M  V30 9362 O 1622.64 7.66872 0.971405 0
M  V30 9363 C 1621.7 7.42309 2.04641 0
M  V30 9364 C 1622.43 6.86059 3.24661 0
M  V30 9365 O 1622.64 5.42847 3.03646 0
M  V30 9366 C 1623.83 7.41196 3.50753 0
M  V30 9367 O 1624.22 7.27073 4.86816 0
M  V30 9368 C 1624.71 6.5273 2.63741 0
M  V30 9369 C 1624 5.1842 2.73198 0
M  V30 9370 N 1624.05 4.38762 1.4784 0
M  V30 9371 H 1621.21 8.36803 2.32493 0
M  V30 9372 H 1620.94 6.70197 1.71129 0
M  V30 9373 H 1621.81 7.03551 4.13168 0
M  V30 9374 P 1625.77 7.20834 5.23717 0
M  V30 9375 O 1625.99 7.79853 6.57286 0
M  V30 9376 O 1626.56 7.79239 4.12957 0
M  V30 9377 O 1626.02 5.63315 5.29344 0
M  V30 9378 C 1625.08 4.80255 6.01876 0
M  V30 9379 C 1625.81 3.64202 6.65911 0
M  V30 9380 O 1626.02 2.60694 5.64732 0
M  V30 9381 C 1627.21 3.93473 7.1943 0
M  V30 9382 O 1627.6 3.02071 8.21205 0
M  V30 9383 C 1628.09 3.73047 5.97036 0
M  V30 9384 C 1627.38 2.58828 5.25741 0
M  V30 9385 N 1627.43 2.68068 3.77503 0
M  V30 9386 H 1624.59 5.40332 6.79951 0
M  V30 9387 H 1624.32 4.41613 5.32378 0
M  V30 9388 H 1625.19 3.26331 7.47797 0
M  V30 9389 P 1629.15 2.75334 8.47391 0
M  V30 9390 O 1629.37 2.44571 9.90142 0
M  V30 9391 O 1629.94 3.87688 7.92115 0
M  V30 9392 O 1629.4 1.4459 7.59357 0
M  V30 9393 C 1628.46 0.347608 7.69215 0
M  V30 9394 C 1629.19 -0.96767 7.52806 0
M  V30 9395 O 1629.4 -1.21036 6.1011 0
M  V30 9396 C 1630.59 -1.04544 8.13308 0
M  V30 9397 O 1630.98 -2.38311 8.41922 0
M  V30 9398 C 1631.47 -0.491279 7.02284 0
M  V30 9399 C 1630.76 -0.996264 5.77469 0
M  V30 9400 N 1630.81 -0.0501916 4.62973 0
M  V30 9401 H 1627.97 0.374722 8.67691 0
M  V30 9402 H 1627.7 0.443485 6.90277 0
M  V30 9403 H 1628.57 -1.75537 7.96793 0
M  V30 9404 P 1632.53 -2.75334 8.47391 0
M  V30 9405 O 1632.75 -3.84128 9.44797 0
M  V30 9406 O 1633.32 -1.51947 8.68712 0
M  V30 9407 O 1632.78 -3.29363 6.99321 0
M  V30 9408 C 1631.84 -4.24011 6.4274 0
M  V30 9409 C 1632.57 -5.20775 5.52155 0
M  V30 9410 O 1632.78 -4.56534 4.22446 0
M  V30 9411 C 1633.97 -5.62629 5.96531 0
M  V30 9412 O 1634.36 -6.87667 5.41053 0
M  V30 9413 C 1634.85 -4.52537 5.39283 0
M  V30 9414 C 1634.14 -4.20027 4.08623 0
M  V30 9415 N 1634.19 -2.76189 3.71603 0
M  V30 9416 C 1634.11 -1.64862 4.52822 0
M  V30 9417 N 1634.19 -0.512671 3.88633 0
M  V30 9418 C 1634.33 -0.888083 2.54977 0
M  V30 9419 C 1634.46 -0.094668 1.38677 0
M  V30 9420 O 1634.48 1.13053 1.28163 0
M  V30 9421 N 1634.58 -0.890102 0.232633 0
M  V30 9422 C 1634.58 -2.26958 0.21772 0
M  V30 9423 N 1634.71 -2.84626 -0.97925 0
M  V30 9424 N 1634.45 -3.0178 1.31033 0
M  V30 9425 C 1634.33 -2.26781 2.43843 0
M  V30 9426 H 1631.35 -4.797 7.24003 0
M  V30 9427 H 1631.08 -3.69856 5.84513 0
M  V30 9428 H 1631.95 -6.10356 5.41441 0
M  V30 9429 H 1634.6 -4.79061 3.27488 0
M  V30 9430 H 1634.88 -3.64906 6.05785 0
M  V30 9431 H 1635.87 -4.8868 5.2125 0
M  V30 9432 H 1634.04 -5.66726 7.06352 0
M  V30 9433 H 1633.99 -1.71169 5.60966 0
M  V30 9434 H 1634.67 -0.419134 -0.644739 0
M  V30 9435 H 1634.71 -3.87332 -1.06098 0
M  V30 9436 H 1634.81 -2.26417 -1.82483 0
M  V30 9437 P 1635.91 -7.20834 5.23717 0
M  V30 9438 O 1636.13 -8.66104 5.38572 0
M  V30 9439 O 1636.7 -6.33544 6.1349 0
M  V30 9440 O 1636.16 -6.7751 3.72168 0
M  V30 9441 C 1635.22 -7.20825 2.7076 0
M  V30 9442 C 1635.95 -7.45864 1.40599 0
M  V30 9443 O 1636.16 -6.17651 0.734225 0
M  V30 9444 C 1637.35 -8.05808 1.51899 0
M  V30 9445 O 1637.74 -8.74358 0.335205 0
M  V30 9446 C 1638.23 -6.83093 1.70294 0
M  V30 9447 C 1637.52 -5.79992 0.836974 0
M  V30 9448 N 1637.57 -4.41864 1.38293 0
M  V30 9449 H 1634.73 -8.13644 3.0377 0
M  V30 9450 H 1634.46 -6.42788 2.55485 0
M  V30 9451 H 1635.33 -8.12039 0.792769 0
M  V30 9452 P 1639.29 -8.91 6.2785e-12 0
M  V30 9453 O 1639.51 -10.1746 -0.733838 0
M  V30 9454 O 1640.08 -8.73346 1.23964 0
M  V30 9455 O 1639.54 -7.66872 -0.971405 0
M  V30 9456 C 1638.6 -7.42405 -2.04668 0
M  V30 9457 C 1639.33 -6.86059 -3.24661 0
M  V30 9458 O 1639.54 -5.42934 -3.03695 0
M  V30 9459 C 1640.73 -7.41287 -3.50796 0
M  V30 9460 O 1641.12 -7.27073 -4.86816 0
M  V30 9461 C 1641.61 -6.5273 -2.63741 0
M  V30 9462 C 1640.9 -5.1842 -2.73198 0
M  V30 9463 N 1640.95 -4.38762 -1.4784 0
M  V30 9464 C 1640.87 -4.83651 -0.183876 0
M  V30 9465 N 1640.94 -3.88759 0.699393 0
M  V30 9466 C 1641.09 -2.7404 -0.0575568 0
M  V30 9467 C 1641.22 -1.37902 0.293928 0
M  V30 9468 N 1641.23 -0.938021 1.54797 0
M  V30 9469 N 1641.34 -0.491817 -0.70549 0
M  V30 9470 C 1641.33 -0.931735 -1.95979 0
M  V30 9471 N 1641.21 -2.16017 -2.41481 0
M  V30 9472 C 1641.09 -3.02547 -1.39121 0
M  V30 9473 H 1638.11 -8.36899 -2.3252 0
M  V30 9474 H 1637.84 -6.70391 -1.71179 0
M  V30 9475 H 1638.71 -7.03638 -4.13219 0
M  V30 9476 H 1641.36 -4.59931 -3.54016 0
M  V30 9477 H 1641.64 -6.88995 -1.59871 0
M  V30 9478 H 1642.63 -6.4684 -3.0373 0
M  V30 9479 H 1640.8 -8.47002 -3.20749 0
M  V30 9480 H 1640.76 -5.8885 0.0765548 0
M  V30 9481 H 1641.14 -1.60276 2.32875 0
M  V30 9482 H 1641.33 0.0699355 1.73859 0
M  V30 9483 H 1641.44 -0.165507 -2.71897 0
M  V30 9484 P 1642.67 -7.20834 -5.23717 0
M  V30 9485 O 1642.89 -7.79853 -6.57286 0
M  V30 9486 O 1643.46 -7.79239 -4.12957 0
M  V30 9487 O 1642.92 -5.63315 -5.29344 0
M  V30 9488 C 1641.98 -4.80255 -6.01876 0
M  V30 9489 C 1642.71 -3.64202 -6.65911 0
M  V30 9490 O 1642.92 -2.60694 -5.64732 0
M  V30 9491 C 1644.11 -3.93473 -7.1943 0
M  V30 9492 O 1644.5 -3.02071 -8.21205 0
M  V30 9493 C 1644.99 -3.73047 -5.97036 0
M  V30 9494 C 1644.28 -2.58828 -5.25741 0
M  V30 9495 N 1644.33 -2.68068 -3.77503 0
M  V30 9496 H 1641.49 -5.40332 -6.79951 0
M  V30 9497 H 1641.22 -4.41613 -5.32378 0
M  V30 9498 H 1642.09 -3.26331 -7.47797 0
M  V30 9499 P 1646.05 -2.75334 -8.47391 0
M  V30 9500 O 1646.27 -2.44619 -9.90336 0
M  V30 9501 O 1646.84 -3.87776 -7.92294 0
M  V30 9502 O 1646.3 -1.4459 -7.59357 0
M  V30 9503 C 1645.36 -0.347653 -7.69315 0
M  V30 9504 C 1646.09 0.96767 -7.52806 0
M  V30 9505 O 1646.3 1.21055 -6.10208 0
M  V30 9506 C 1647.49 1.04557 -8.13408 0
M  V30 9507 O 1647.88 2.38311 -8.41922 0
M  V30 9508 C 1648.37 0.491279 -7.02284 0
M  V30 9509 C 1647.66 0.996264 -5.77469 0
M  V30 9510 N 1647.71 0.0501916 -4.62973 0
M  V30 9511 H 1644.87 -0.374765 -8.67791 0
M  V30 9512 H 1644.6 -0.443613 -6.90476 0
M  V30 9513 H 1645.47 1.75559 -7.96891 0
M  V30 9514 H 1648.12 1.94563 -5.46818 0
M  V30 9515 H 1648.4 -0.608651 -7.04676 0
M  V30 9516 H 1649.39 0.889796 -7.09039 0
M  V30 9517 H 1647.56 0.433128 -9.04664 0
M  V30 9518 P 1649.43 2.75334 -8.47391 0
M  V30 9519 O 1649.65 3.84128 -9.44797 0
M  V30 9520 O 1650.22 1.51947 -8.68712 0
M  V30 9521 O 1649.68 3.29363 -6.99321 0
M  V30 9522 C 1648.74 4.24011 -6.4274 0
M  V30 9523 C 1649.47 5.20775 -5.52155 0
M  V30 9524 O 1649.68 4.56534 -4.22446 0
M  V30 9525 C 1650.87 5.62629 -5.96531 0
M  V30 9526 O 1651.26 6.87667 -5.41053 0
M  V30 9527 C 1651.75 4.52537 -5.39283 0
M  V30 9528 C 1651.04 4.20027 -4.08623 0
M  V30 9529 N 1651.09 2.76189 -3.71603 0
M  V30 9530 H 1648.25 4.797 -7.24003 0
M  V30 9531 H 1647.98 3.69856 -5.84513 0
M  V30 9532 H 1648.85 6.10356 -5.41441 0
M  V30 9533 P 1652.81 7.20834 -5.23717 0
M  V30 9534 O 1653.03 8.66104 -5.38572 0
M  V30 9535 O 1653.6 6.33544 -6.1349 0
M  V30 9536 O 1653.06 6.7751 -3.72168 0
M  V30 9537 C 1652.12 7.20825 -2.7076 0
M  V30 9538 C 1652.85 7.45864 -1.40599 0
M  V30 9539 O 1653.06 6.17651 -0.734225 0
M  V30 9540 C 1654.25 8.05808 -1.51899 0
M  V30 9541 O 1654.64 8.74358 -0.335205 0
M  V30 9542 C 1655.13 6.83093 -1.70294 0
M  V30 9543 C 1654.42 5.79992 -0.836974 0
M  V30 9544 N 1654.47 4.41864 -1.38293 0
M  V30 9545 H 1651.63 8.13644 -3.0377 0
M  V30 9546 H 1651.36 6.42788 -2.55485 0
M  V30 9547 H 1652.23 8.12039 -0.792769 0
M  V30 9548 P 1656.19 8.91 -7.38751e-12 0
M  V30 9549 O 1656.41 10.1726 0.733694 0
M  V30 9550 O 1656.98 8.73148 -1.23936 0
M  V30 9551 O 1656.44 7.66872 0.971405 0
M  V30 9552 C 1655.5 7.42309 2.04641 0
M  V30 9553 C 1656.23 6.86059 3.24661 0
M  V30 9554 O 1656.44 5.42847 3.03646 0
M  V30 9555 C 1657.63 7.41196 3.50753 0
M  V30 9556 O 1658.02 7.27073 4.86816 0
M  V30 9557 C 1658.51 6.5273 2.63741 0
M  V30 9558 C 1657.8 5.1842 2.73198 0
M  V30 9559 N 1657.85 4.38762 1.4784 0
M  V30 9560 H 1655.01 8.36803 2.32493 0
M  V30 9561 H 1654.74 6.70197 1.71129 0
M  V30 9562 H 1655.61 7.03551 4.13168 0
M  V30 9563 P 1659.57 7.20834 5.23717 0
M  V30 9564 O 1659.79 7.79853 6.57286 0
M  V30 9565 O 1660.36 7.79239 4.12957 0
M  V30 9566 O 1659.82 5.63315 5.29344 0
M  V30 9567 C 1658.88 4.80255 6.01876 0
M  V30 9568 C 1659.61 3.64202 6.65911 0
M  V30 9569 O 1659.82 2.60694 5.64732 0
M  V30 9570 C 1661.01 3.93473 7.1943 0
M  V30 9571 O 1661.4 3.02071 8.21205 0
M  V30 9572 C 1661.89 3.73047 5.97036 0
M  V30 9573 C 1661.18 2.58828 5.25741 0
M  V30 9574 N 1661.23 2.68068 3.77503 0
M  V30 9575 H 1658.39 5.40332 6.79951 0
M  V30 9576 H 1658.12 4.41613 5.32378 0
M  V30 9577 H 1658.99 3.26331 7.47797 0
M  V30 9578 P 1662.95 2.75334 8.47391 0
M  V30 9579 O 1663.17 2.44571 9.90142 0
M  V30 9580 O 1663.74 3.87688 7.92115 0
M  V30 9581 O 1663.2 1.4459 7.59357 0
M  V30 9582 C 1662.26 0.347608 7.69215 0
M  V30 9583 C 1662.99 -0.96767 7.52806 0
M  V30 9584 O 1663.2 -1.21036 6.1011 0
M  V30 9585 C 1664.39 -1.04544 8.13308 0
M  V30 9586 O 1664.78 -2.38311 8.41922 0
M  V30 9587 C 1665.27 -0.491279 7.02284 0
M  V30 9588 C 1664.56 -0.996264 5.77469 0
M  V30 9589 N 1664.61 -0.0501916 4.62973 0
M  V30 9590 C 1664.53 1.32786 4.63244 0
M  V30 9591 N 1664.61 1.86957 3.44545 0
M  V30 9592 C 1664.75 0.780241 2.58481 0
M  V30 9593 C 1664.88 0.738536 1.17757 0
M  V30 9594 N 1665 -0.58337 0.711393 0
M  V30 9595 C 1665 -1.70816 1.51017 0
M  V30 9596 N 1665.13 -2.87826 0.880757 0
M  V30 9597 N 1664.87 -1.67126 2.8339 0
M  V30 9598 C 1664.75 -0.401421 3.30572 0
M  V30 9599 H 1661.77 0.374722 8.67691 0
M  V30 9600 H 1661.5 0.443485 6.90277 0
M  V30 9601 H 1662.37 -1.75537 7.96793 0
M  V30 9602 P 1666.33 -2.75334 8.47391 0
M  V30 9603 O 1666.55 -3.84128 9.44797 0
M  V30 9604 O 1667.12 -1.51947 8.68712 0
M  V30 9605 O 1666.58 -3.29363 6.99321 0
M  V30 9606 C 1665.64 -4.24011 6.4274 0
M  V30 9607 C 1666.37 -5.20775 5.52155 0
M  V30 9608 O 1666.58 -4.56534 4.22446 0
M  V30 9609 C 1667.77 -5.62629 5.96531 0
M  V30 9610 O 1668.16 -6.87667 5.41053 0
M  V30 9611 C 1668.65 -4.52537 5.39283 0
M  V30 9612 C 1667.94 -4.20027 4.08623 0
M  V30 9613 N 1667.99 -2.76189 3.71603 0
M  V30 9614 H 1665.15 -4.797 7.24003 0
M  V30 9615 H 1664.88 -3.69856 5.84513 0
M  V30 9616 H 1665.75 -6.10356 5.41441 0
M  V30 9617 P 1669.71 -7.20834 5.23717 0
M  V30 9618 O 1669.93 -8.66104 5.38572 0
M  V30 9619 O 1670.5 -6.33544 6.1349 0
M  V30 9620 O 1669.96 -6.7751 3.72168 0
M  V30 9621 C 1669.02 -7.20825 2.7076 0
M  V30 9622 C 1669.75 -7.45864 1.40599 0
M  V30 9623 O 1669.96 -6.17651 0.734225 0
M  V30 9624 C 1671.15 -8.05808 1.51899 0
M  V30 9625 O 1671.54 -8.74358 0.335205 0
M  V30 9626 C 1672.03 -6.83093 1.70294 0
M  V30 9627 C 1671.32 -5.79992 0.836974 0
M  V30 9628 N 1671.37 -4.41864 1.38293 0
M  V30 9629 H 1668.53 -8.13644 3.0377 0
M  V30 9630 H 1668.26 -6.42788 2.55485 0
M  V30 9631 H 1669.13 -8.12039 0.792769 0
M  V30 9632 P 1673.09 -8.91 8.49651e-12 0
M  V30 9633 O 1673.31 -10.1726 -0.733694 0
M  V30 9634 O 1673.88 -8.73148 1.23936 0
M  V30 9635 O 1673.34 -7.66872 -0.971405 0
M  V30 9636 C 1672.4 -7.42309 -2.04641 0
M  V30 9637 C 1673.13 -6.86059 -3.24661 0
M  V30 9638 O 1673.34 -5.42847 -3.03646 0
M  V30 9639 C 1674.53 -7.41196 -3.50753 0
M  V30 9640 O 1674.92 -7.27073 -4.86816 0
M  V30 9641 C 1675.41 -6.5273 -2.63741 0
M  V30 9642 C 1674.7 -5.1842 -2.73198 0
M  V30 9643 N 1674.75 -4.38762 -1.4784 0
M  V30 9644 H 1671.91 -8.36803 -2.32493 0
M  V30 9645 H 1671.64 -6.70197 -1.71129 0
M  V30 9646 H 1672.51 -7.03551 -4.13168 0
M  V30 9647 P 1676.47 -7.20834 -5.23717 0
M  V30 9648 O 1676.69 -7.80006 -6.57415 0
M  V30 9649 O 1677.26 -7.79416 -4.13051 0
M  V30 9650 O 1676.72 -5.63315 -5.29344 0
M  V30 9651 C 1675.78 -4.80318 -6.01954 0
M  V30 9652 C 1676.51 -3.64202 -6.65911 0
M  V30 9653 O 1676.72 -2.60736 -5.64823 0
M  V30 9654 C 1677.91 -3.93521 -7.19518 0
M  V30 9655 O 1678.3 -3.02071 -8.21205 0
M  V30 9656 C 1678.79 -3.73047 -5.97036 0
M  V30 9657 C 1678.08 -2.58828 -5.25741 0
M  V30 9658 N 1678.13 -2.68068 -3.77503 0
M  V30 9659 C 1678.05 -3.80474 -2.99159 0
M  V30 9660 N 1678.12 -3.55622 -1.71925 0
M  V30 9661 C 1678.27 -2.1832 -1.65733 0
M  V30 9662 C 1678.4 -1.28842 -0.572777 0
M  V30 9663 N 1678.41 -1.66875 0.70098 0
M  V30 9664 N 1678.52 0.016788 -0.859836 0
M  V30 9665 C 1678.51 0.398145 -2.13316 0
M  V30 9666 N 1678.39 -0.328224 -3.22333 0
M  V30 9667 C 1678.27 -1.62992 -2.90383 0
M  V30 9668 H 1675.29 -5.40394 -6.8003 0
M  V30 9669 H 1675.02 -4.41741 -5.32532 0
M  V30 9670 H 1675.89 -3.26371 -7.47889 0
M  V30 9671 H 1678.54 -1.64007 -5.56746 0
M  V30 9672 H 1678.82 -4.63439 -5.3432 0
M  V30 9673 H 1679.81 -3.44776 -6.25925 0
M  V30 9674 H 1677.98 -4.96707 -7.57347 0
M  V30 9675 H 1677.94 -4.8089 -3.39924 0
M  V30 9676 H 1678.32 -2.66547 0.941919 0
M  V30 9677 H 1678.51 -0.965341 1.44766 0
M  V30 9678 H 1678.62 1.46427 -2.29697 0
M  V30 9679 P 1679.85 -2.75334 -8.47391 0
M  V30 9680 O 1680.07 -2.44571 -9.90142 0
M  V30 9681 O 1680.64 -3.87688 -7.92115 0
M  V30 9682 O 1680.1 -1.4459 -7.59357 0
M  V30 9683 C 1679.16 -0.347608 -7.69215 0
M  V30 9684 C 1679.89 0.96767 -7.52806 0
M  V30 9685 O 1680.1 1.21036 -6.1011 0
M  V30 9686 C 1681.29 1.04544 -8.13308 0
M  V30 9687 O 1681.68 2.38311 -8.41922 0
M  V30 9688 C 1682.17 0.491279 -7.02284 0
M  V30 9689 C 1681.46 0.996264 -5.77469 0
M  V30 9690 N 1681.51 0.0501916 -4.62973 0
M  V30 9691 H 1678.67 -0.374722 -8.67691 0
M  V30 9692 H 1678.4 -0.443485 -6.90277 0
M  V30 9693 H 1679.27 1.75537 -7.96793 0
M  V30 9694 P 1683.23 2.75334 -8.47391 0
M  V30 9695 O 1683.45 3.84128 -9.44797 0
M  V30 9696 O 1684.02 1.51947 -8.68712 0
M  V30 9697 O 1683.48 3.29363 -6.99321 0
M  V30 9698 C 1682.54 4.24011 -6.4274 0
M  V30 9699 C 1683.27 5.20775 -5.52155 0
M  V30 9700 O 1683.48 4.56534 -4.22446 0
M  V30 9701 C 1684.67 5.62629 -5.96531 0
M  V30 9702 O 1685.06 6.87667 -5.41053 0
M  V30 9703 C 1685.55 4.52537 -5.39283 0
M  V30 9704 C 1684.84 4.20027 -4.08623 0
M  V30 9705 N 1684.89 2.76189 -3.71603 0
M  V30 9706 H 1682.05 4.797 -7.24003 0
M  V30 9707 H 1681.78 3.69856 -5.84513 0
M  V30 9708 H 1682.65 6.10356 -5.41441 0
M  V30 9709 P 1686.61 7.20834 -5.23717 0
M  V30 9710 O 1686.83 8.66104 -5.38572 0
M  V30 9711 O 1687.4 6.33544 -6.1349 0
M  V30 9712 O 1686.86 6.7751 -3.72168 0
M  V30 9713 C 1685.92 7.20825 -2.7076 0
M  V30 9714 C 1686.65 7.45864 -1.40599 0
M  V30 9715 O 1686.86 6.17651 -0.734225 0
M  V30 9716 C 1688.05 8.05808 -1.51899 0
M  V30 9717 O 1688.44 8.74358 -0.335205 0
M  V30 9718 C 1688.93 6.83093 -1.70294 0
M  V30 9719 C 1688.22 5.79992 -0.836974 0
M  V30 9720 N 1688.27 4.41864 -1.38293 0
M  V30 9721 H 1685.43 8.13644 -3.0377 0
M  V30 9722 H 1685.16 6.42788 -2.55485 0
M  V30 9723 H 1686.03 8.12039 -0.792769 0
M  V30 9724 P 1689.99 8.91 -9.60552e-12 0
M  V30 9725 O 1690.21 10.1726 0.733694 0
M  V30 9726 O 1690.78 8.73148 -1.23936 0
M  V30 9727 O 1690.24 7.66872 0.971405 0
M  V30 9728 C 1689.3 7.42309 2.04641 0
M  V30 9729 C 1690.03 6.86059 3.24661 0
M  V30 9730 O 1690.24 5.42847 3.03646 0
M  V30 9731 C 1691.43 7.41196 3.50753 0
M  V30 9732 O 1691.82 7.27073 4.86816 0
M  V30 9733 C 1692.31 6.5273 2.63741 0
M  V30 9734 C 1691.6 5.1842 2.73198 0
M  V30 9735 N 1691.65 4.38762 1.4784 0
M  V30 9736 H 1688.81 8.36803 2.32493 0
M  V30 9737 H 1688.54 6.70197 1.71129 0
M  V30 9738 H 1689.41 7.03551 4.13168 0
M  V30 9739 P 1693.37 7.20834 5.23717 0
M  V30 9740 O 1693.59 7.79853 6.57286 0
M  V30 9741 O 1694.16 7.79239 4.12957 0
M  V30 9742 O 1693.62 5.63315 5.29344 0
M  V30 9743 C 1692.68 4.80255 6.01876 0
M  V30 9744 C 1693.41 3.64202 6.65911 0
M  V30 9745 O 1693.62 2.60694 5.64732 0
M  V30 9746 C 1694.81 3.93473 7.1943 0
M  V30 9747 O 1695.2 3.02071 8.21205 0
M  V30 9748 C 1695.69 3.73047 5.97036 0
M  V30 9749 C 1694.98 2.58828 5.25741 0
M  V30 9750 N 1695.03 2.68068 3.77503 0
M  V30 9751 H 1692.19 5.40332 6.79951 0
M  V30 9752 H 1691.92 4.41613 5.32378 0
M  V30 9753 H 1692.79 3.26331 7.47797 0
M  V30 9754 P 1696.75 2.75334 8.47391 0
M  V30 9755 O 1696.97 2.44619 9.90336 0
M  V30 9756 O 1697.54 3.87776 7.92294 0
M  V30 9757 O 1697 1.4459 7.59357 0
M  V30 9758 C 1696.06 0.347653 7.69315 0
M  V30 9759 C 1696.79 -0.96767 7.52806 0
M  V30 9760 O 1697 -1.21055 6.10208 0
M  V30 9761 C 1698.19 -1.04557 8.13408 0
M  V30 9762 O 1698.58 -2.38311 8.41922 0
M  V30 9763 C 1699.07 -0.491279 7.02284 0
M  V30 9764 C 1698.36 -0.996264 5.77469 0
M  V30 9765 N 1698.41 -0.0501916 4.62973 0
M  V30 9766 C 1698.33 1.31969 4.65661 0
M  V30 9767 N 1698.4 1.86649 3.48119 0
M  V30 9768 C 1698.55 0.792089 2.62406 0
M  V30 9769 C 1698.68 0.705684 1.2207 0
M  V30 9770 N 1698.69 1.76207 0.413762 0
M  V30 9771 N 1698.8 -0.518981 0.685754 0
M  V30 9772 C 1698.79 -1.57595 1.49174 0
M  V30 9773 N 1698.67 -1.62909 2.80066 0
M  V30 9774 C 1698.55 -0.388195 3.3073 0
M  V30 9775 H 1695.57 0.374765 8.67791 0
M  V30 9776 H 1695.3 0.443613 6.90476 0
M  V30 9777 H 1696.17 -1.75559 7.96891 0
M  V30 9778 H 1698.82 -1.94563 5.46818 0
M  V30 9779 H 1699.1 0.608651 7.04676 0
M  V30 9780 H 1700.09 -0.889796 7.09039 0
M  V30 9781 H 1698.26 -0.433128 9.04664 0
M  V30 9782 H 1698.22 1.89246 5.57664 0
M  V30 9783 H 1698.6 2.71005 0.804694 0
M  V30 9784 H 1698.79 1.63189 -0.603768 0
M  V30 9785 H 1698.9 -2.53475 0.997614 0
M  V30 9786 P 1700.13 -2.75334 8.47391 0
M  V30 9787 O 1700.35 -3.84166 9.4489 0
M  V30 9788 O 1700.92 -1.51964 8.6881 0
M  V30 9789 O 1700.38 -3.29363 6.99321 0
M  V30 9790 C 1699.44 -4.24011 6.4274 0
M  V30 9791 C 1700.17 -5.20775 5.52155 0
M  V30 9792 O 1700.38 -4.56534 4.22446 0
M  V30 9793 C 1701.57 -5.62629 5.96531 0
M  V30 9794 O 1701.96 -6.87667 5.41053 0
M  V30 9795 C 1702.45 -4.52537 5.39283 0
M  V30 9796 C 1701.74 -4.20027 4.08623 0
M  V30 9797 N 1701.79 -2.7613 3.71522 0
M  V30 9798 C 1701.94 -2.43702 2.37085 0
M  V30 9799 O 1702.03 -3.3531 1.54039 0
M  V30 9800 N 1701.99 -0.951103 2.10621 0
M  V30 9801 C 1701.89 -0.165021 2.93537 0
M  V30 9802 N 1701.94 1.09723 2.53253 0
M  V30 9803 C 1701.74 -0.469576 4.32458 0
M  V30 9804 C 1701.69 -1.78658 4.65921 0
M  V30 9805 H 1698.95 -4.79645 7.23919 0
M  V30 9806 H 1698.68 -3.69802 5.84429 0
M  V30 9807 H 1699.55 -6.10431 5.41508 0
M  V30 9808 H 1702.2 -4.78733 3.27967 0
M  V30 9809 H 1702.48 -3.64957 6.05871 0
M  V30 9810 H 1703.47 -4.8868 5.2125 0
M  V30 9811 H 1701.64 -5.66726 7.06352 0
M  V30 9812 H 1701.57 -2.06987 5.70299 0
M  V30 9813 H 1701.67 0.314383 5.07728 0
M  V30 9814 H 1702.06 1.31363 1.5319 0
M  V30 9815 H 1701.86 1.85978 3.21943 0
M  V30 9816 P 1703.51 -7.20834 5.23717 0
M  V30 9817 O 1703.73 -8.66104 5.38572 0
M  V30 9818 O 1704.3 -6.33544 6.1349 0
M  V30 9819 O 1703.76 -6.7751 3.72168 0
M  V30 9820 C 1702.82 -7.20825 2.7076 0
M  V30 9821 C 1703.55 -7.45864 1.40599 0
M  V30 9822 O 1703.76 -6.17651 0.734225 0
M  V30 9823 C 1704.95 -8.05808 1.51899 0
M  V30 9824 O 1705.34 -8.74358 0.335205 0
M  V30 9825 C 1705.83 -6.83093 1.70294 0
M  V30 9826 C 1705.12 -5.79992 0.836974 0
M  V30 9827 N 1705.17 -4.41864 1.38293 0
M  V30 9828 H 1702.33 -8.13644 3.0377 0
M  V30 9829 H 1702.06 -6.42788 2.55485 0
M  V30 9830 H 1702.93 -8.12039 0.792769 0
M  V30 9831 P 1706.89 -8.91 1.07145e-11 0
M  V30 9832 O 1707.11 -10.1726 -0.733694 0
M  V30 9833 O 1707.68 -8.73148 1.23936 0
M  V30 9834 O 1707.14 -7.66872 -0.971405 0
M  V30 9835 C 1706.2 -7.42309 -2.04641 0
M  V30 9836 C 1706.93 -6.86059 -3.24661 0
M  V30 9837 O 1707.14 -5.42847 -3.03646 0
M  V30 9838 C 1708.33 -7.41196 -3.50753 0
M  V30 9839 O 1708.72 -7.27073 -4.86816 0
M  V30 9840 C 1709.21 -6.5273 -2.63741 0
M  V30 9841 C 1708.5 -5.1842 -2.73198 0
M  V30 9842 N 1708.55 -4.38762 -1.4784 0
M  V30 9843 H 1705.71 -8.36803 -2.32493 0
M  V30 9844 H 1705.44 -6.70197 -1.71129 0
M  V30 9845 H 1706.31 -7.03551 -4.13168 0
M  V30 9846 P 1710.27 -7.20834 -5.23717 0
M  V30 9847 O 1710.49 -7.79853 -6.57286 0
M  V30 9848 O 1711.06 -7.79239 -4.12957 0
M  V30 9849 O 1710.52 -5.63315 -5.29344 0
M  V30 9850 C 1709.58 -4.80255 -6.01876 0
M  V30 9851 C 1710.31 -3.64202 -6.65911 0
M  V30 9852 O 1710.52 -2.60694 -5.64732 0
M  V30 9853 C 1711.71 -3.93473 -7.1943 0
M  V30 9854 O 1712.1 -3.02071 -8.21205 0
M  V30 9855 C 1712.59 -3.73047 -5.97036 0
M  V30 9856 C 1711.88 -2.58828 -5.25741 0
M  V30 9857 N 1711.93 -2.68068 -3.77503 0
M  V30 9858 H 1709.09 -5.40332 -6.79951 0
M  V30 9859 H 1708.82 -4.41613 -5.32378 0
M  V30 9860 H 1709.69 -3.26331 -7.47797 0
M  V30 9861 P 1713.65 -2.75334 -8.47391 0
M  V30 9862 O 1713.87 -2.44571 -9.90142 0
M  V30 9863 O 1714.44 -3.87688 -7.92115 0
M  V30 9864 O 1713.9 -1.4459 -7.59357 0
M  V30 9865 C 1712.96 -0.347608 -7.69215 0
M  V30 9866 C 1713.69 0.96767 -7.52806 0
M  V30 9867 O 1713.9 1.21036 -6.1011 0
M  V30 9868 C 1715.09 1.04544 -8.13308 0
M  V30 9869 O 1715.48 2.38311 -8.41922 0
M  V30 9870 C 1715.97 0.491279 -7.02284 0
M  V30 9871 C 1715.26 0.996264 -5.77469 0
M  V30 9872 N 1715.31 0.0501916 -4.62973 0
M  V30 9873 H 1712.47 -0.374722 -8.67691 0
M  V30 9874 H 1712.2 -0.443485 -6.90277 0
M  V30 9875 H 1713.07 1.75537 -7.96793 0
M  V30 9876 P 1717.03 2.75334 -8.47391 0
M  V30 9877 O 1717.25 3.84128 -9.44797 0
M  V30 9878 O 1717.82 1.51947 -8.68712 0
M  V30 9879 O 1717.28 3.29363 -6.99321 0
M  V30 9880 C 1716.34 4.24011 -6.4274 0
M  V30 9881 C 1717.07 5.20775 -5.52155 0
M  V30 9882 O 1717.28 4.56534 -4.22446 0
M  V30 9883 C 1718.47 5.62629 -5.96531 0
M  V30 9884 O 1718.86 6.87667 -5.41053 0
M  V30 9885 C 1719.35 4.52537 -5.39283 0
M  V30 9886 C 1718.64 4.20027 -4.08623 0
M  V30 9887 N 1718.69 2.76189 -3.71603 0
M  V30 9888 H 1715.85 4.797 -7.24003 0
M  V30 9889 H 1715.58 3.69856 -5.84513 0
M  V30 9890 H 1716.45 6.10356 -5.41441 0
M  V30 9891 P 1720.41 7.20834 -5.23717 0
M  V30 9892 O 1720.63 8.66104 -5.38572 0
M  V30 9893 O 1721.2 6.33544 -6.1349 0
M  V30 9894 O 1720.66 6.7751 -3.72168 0
M  V30 9895 C 1719.72 7.20825 -2.7076 0
M  V30 9896 C 1720.45 7.45864 -1.40599 0
M  V30 9897 O 1720.66 6.17651 -0.734225 0
M  V30 9898 C 1721.85 8.05808 -1.51899 0
M  V30 9899 O 1722.24 8.74358 -0.335205 0
M  V30 9900 C 1722.73 6.83093 -1.70294 0
M  V30 9901 C 1722.02 5.79992 -0.836974 0
M  V30 9902 N 1722.07 4.41864 -1.38293 0
M  V30 9903 H 1719.23 8.13644 -3.0377 0
M  V30 9904 H 1718.96 6.42788 -2.55485 0
M  V30 9905 H 1719.83 8.12039 -0.792769 0
M  V30 9906 P 1723.79 8.91 -1.18235e-11 0
M  V30 9907 O 1724.01 10.1726 0.733694 0
M  V30 9908 O 1724.58 8.73148 -1.23936 0
M  V30 9909 O 1724.04 7.66872 0.971405 0
M  V30 9910 C 1723.1 7.42309 2.04641 0
M  V30 9911 C 1723.83 6.86059 3.24661 0
M  V30 9912 O 1724.04 5.42847 3.03646 0
M  V30 9913 C 1725.23 7.41196 3.50753 0
M  V30 9914 O 1725.62 7.27073 4.86816 0
M  V30 9915 C 1726.11 6.5273 2.63741 0
M  V30 9916 C 1725.4 5.1842 2.73198 0
M  V30 9917 N 1725.45 4.38762 1.4784 0
M  V30 9918 H 1722.61 8.36803 2.32493 0
M  V30 9919 H 1722.34 6.70197 1.71129 0
M  V30 9920 H 1723.21 7.03551 4.13168 0
M  V30 9921 P 1727.17 7.20834 5.23717 0
M  V30 9922 O 1727.39 7.7993 6.57351 0
M  V30 9923 O 1727.96 7.79328 4.13004 0
M  V30 9924 O 1727.42 5.63315 5.29344 0
M  V30 9925 C 1726.48 4.80193 6.01798 0
M  V30 9926 C 1727.21 3.64202 6.65911 0
M  V30 9927 O 1727.42 2.60694 5.64732 0
M  V30 9928 C 1728.61 3.93473 7.1943 0
M  V30 9929 O 1729 3.02071 8.21205 0
M  V30 9930 C 1729.49 3.73047 5.97036 0
M  V30 9931 C 1728.78 2.58828 5.25741 0
M  V30 9932 N 1728.83 2.6801 3.77422 0
M  V30 9933 C 1728.98 1.50443 3.07133 0
M  V30 9934 O 1729.07 0.419406 3.61576 0
M  V30 9935 N 1729.02 1.6403 1.69677 0
M  V30 9936 C 1728.93 2.81206 0.986255 0
M  V30 9937 O 1728.98 2.80892 -0.249754 0
M  V30 9938 C 1728.78 3.99158 1.80325 0
M  V30 9939 C 1728.67 5.29309 1.06921 0
M  V30 9940 C 1728.73 3.89779 3.1476 0
M  V30 9941 H 1725.99 5.40332 6.79951 0
M  V30 9942 H 1725.72 4.41549 5.32301 0
M  V30 9943 H 1726.59 3.26331 7.47797 0
M  V30 9944 H 1729.24 1.6395 5.56554 0
M  V30 9945 H 1729.52 4.63439 5.3432 0
M  V30 9946 H 1730.51 3.44728 6.25838 0
M  V30 9947 H 1728.68 4.96652 7.57263 0
M  V30 9948 H 1728.61 4.80159 3.74441 0
M  V30 9949 H 1729.64 5.81459 1.09608 0
M  V30 9950 H 1727.9 5.9187 1.54487 0
M  V30 9951 H 1728.39 5.10095 0.0220288 0
M  V30 9952 H 1729.13 0.798962 1.16664 0
M  V30 9953 P 1730.55 2.75334 8.47391 0
M  V30 9954 O 1730.77 2.44571 9.90142 0
M  V30 9955 O 1731.34 3.87688 7.92115 0
M  V30 9956 O 1730.8 1.4459 7.59357 0
M  V30 9957 C 1729.86 0.347608 7.69215 0
M  V30 9958 C 1730.59 -0.96767 7.52806 0
M  V30 9959 O 1730.8 -1.21036 6.1011 0
M  V30 9960 C 1731.99 -1.04544 8.13308 0
M  V30 9961 O 1732.38 -2.38311 8.41922 0
M  V30 9962 C 1732.87 -0.491279 7.02284 0
M  V30 9963 C 1732.16 -0.996264 5.77469 0
M  V30 9964 N 1732.21 -0.0501916 4.62973 0
M  V30 9965 H 1729.37 0.374722 8.67691 0
M  V30 9966 H 1729.1 0.443485 6.90277 0
M  V30 9967 H 1729.97 -1.75537 7.96793 0
M  V30 9968 P 1733.93 -2.75334 8.47391 0
M  V30 9969 O 1734.15 -3.84128 9.44797 0
M  V30 9970 O 1734.72 -1.51947 8.68712 0
M  V30 9971 O 1734.18 -3.29363 6.99321 0
M  V30 9972 C 1733.24 -4.24011 6.4274 0
M  V30 9973 C 1733.97 -5.20775 5.52155 0
M  V30 9974 O 1734.18 -4.56534 4.22446 0
M  V30 9975 C 1735.37 -5.62629 5.96531 0
M  V30 9976 O 1735.76 -6.87667 5.41053 0
M  V30 9977 C 1736.25 -4.52537 5.39283 0
M  V30 9978 C 1735.54 -4.20027 4.08623 0
M  V30 9979 N 1735.59 -2.76189 3.71603 0
M  V30 9980 C 1735.51 -1.64862 4.52822 0
M  V30 9981 N 1735.59 -0.512671 3.88633 0
M  V30 9982 C 1735.73 -0.888083 2.54977 0
M  V30 9983 C 1735.86 -0.094668 1.38677 0
M  V30 9984 O 1735.88 1.13053 1.28163 0
M  V30 9985 N 1735.98 -0.890102 0.232633 0
M  V30 9986 C 1735.98 -2.26958 0.21772 0
M  V30 9987 N 1736.11 -2.84626 -0.97925 0
M  V30 9988 N 1735.85 -3.0178 1.31033 0
M  V30 9989 C 1735.73 -2.26781 2.43843 0
M  V30 9990 H 1732.75 -4.797 7.24003 0
M  V30 9991 H 1732.48 -3.69856 5.84513 0
M  V30 9992 H 1733.35 -6.10356 5.41441 0
M  V30 9993 H 1736 -4.79061 3.27488 0
M  V30 9994 H 1736.28 -3.64906 6.05785 0
M  V30 9995 H 1737.27 -4.8868 5.2125 0
M  V30 9996 H 1735.44 -5.66726 7.06352 0
M  V30 9997 H 1735.39 -1.71169 5.60966 0
M  V30 9998 H 1736.07 -0.419134 -0.644739 0
M  V30 9999 H 1736.11 -3.87332 -1.06098 0
M  V30 10000 H 1736.21 -2.26417 -1.82483 0
M  V30 10001 P 1737.31 -7.20834 5.23717 0
M  V30 10002 O 1737.53 -8.66104 5.38572 0
M  V30 10003 O 1738.1 -6.33544 6.1349 0
M  V30 10004 O 1737.56 -6.7751 3.72168 0
M  V30 10005 C 1736.62 -7.20825 2.7076 0
M  V30 10006 C 1737.35 -7.45864 1.40599 0
M  V30 10007 O 1737.56 -6.17651 0.734225 0
M  V30 10008 C 1738.75 -8.05808 1.51899 0
M  V30 10009 O 1739.14 -8.74358 0.335205 0
M  V30 10010 C 1739.63 -6.83093 1.70294 0
M  V30 10011 C 1738.92 -5.79992 0.836974 0
M  V30 10012 N 1738.97 -4.41864 1.38293 0
M  V30 10013 H 1736.13 -8.13644 3.0377 0
M  V30 10014 H 1735.86 -6.42788 2.55485 0
M  V30 10015 H 1736.73 -8.12039 0.792769 0
M  V30 10016 P 1740.69 -8.91 1.29325e-11 0
M  V30 10017 O 1740.91 -10.1726 -0.733694 0
M  V30 10018 O 1741.48 -8.73148 1.23936 0
M  V30 10019 O 1740.94 -7.66872 -0.971405 0
M  V30 10020 C 1740 -7.42309 -2.04641 0
M  V30 10021 C 1740.73 -6.86059 -3.24661 0
M  V30 10022 O 1740.94 -5.42847 -3.03646 0
M  V30 10023 C 1742.13 -7.41196 -3.50753 0
M  V30 10024 O 1742.52 -7.27073 -4.86816 0
M  V30 10025 C 1743.01 -6.5273 -2.63741 0
M  V30 10026 C 1742.3 -5.1842 -2.73198 0
M  V30 10027 N 1742.35 -4.38762 -1.4784 0
M  V30 10028 H 1739.51 -8.36803 -2.32493 0
M  V30 10029 H 1739.24 -6.70197 -1.71129 0
M  V30 10030 H 1740.11 -7.03551 -4.13168 0
M  V30 10031 P 1744.07 -7.20834 -5.23717 0
M  V30 10032 O 1744.29 -7.79853 -6.57286 0
M  V30 10033 O 1744.86 -7.79239 -4.12957 0
M  V30 10034 O 1744.32 -5.63315 -5.29344 0
M  V30 10035 C 1743.38 -4.80255 -6.01876 0
M  V30 10036 C 1744.11 -3.64202 -6.65911 0
M  V30 10037 O 1744.32 -2.60694 -5.64732 0
M  V30 10038 C 1745.51 -3.93473 -7.1943 0
M  V30 10039 O 1745.9 -3.02071 -8.21205 0
M  V30 10040 C 1746.39 -3.73047 -5.97036 0
M  V30 10041 C 1745.68 -2.58828 -5.25741 0
M  V30 10042 N 1745.73 -2.68068 -3.77503 0
M  V30 10043 H 1742.89 -5.40332 -6.79951 0
M  V30 10044 H 1742.62 -4.41613 -5.32378 0
M  V30 10045 H 1743.49 -3.26331 -7.47797 0
M  V30 10046 P 1747.45 -2.75334 -8.47391 0
M  V30 10047 O 1747.67 -2.44571 -9.90142 0
M  V30 10048 O 1748.24 -3.87688 -7.92115 0
M  V30 10049 O 1747.7 -1.4459 -7.59357 0
M  V30 10050 C 1746.76 -0.347608 -7.69215 0
M  V30 10051 C 1747.49 0.96767 -7.52806 0
M  V30 10052 O 1747.7 1.21036 -6.1011 0
M  V30 10053 C 1748.89 1.04544 -8.13308 0
M  V30 10054 O 1749.28 2.38311 -8.41922 0
M  V30 10055 C 1749.77 0.491279 -7.02284 0
M  V30 10056 C 1749.06 0.996264 -5.77469 0
M  V30 10057 N 1749.11 0.0501916 -4.62973 0
M  V30 10058 H 1746.27 -0.374722 -8.67691 0
M  V30 10059 H 1746 -0.443485 -6.90277 0
M  V30 10060 H 1746.87 1.75537 -7.96793 0
M  V30 10061 P 1750.83 2.75334 -8.47391 0
M  V30 10062 O 1751.05 3.84128 -9.44797 0
M  V30 10063 O 1751.62 1.51947 -8.68712 0
M  V30 10064 O 1751.08 3.29363 -6.99321 0
M  V30 10065 C 1750.14 4.24011 -6.4274 0
M  V30 10066 C 1750.87 5.20775 -5.52155 0
M  V30 10067 O 1751.08 4.56534 -4.22446 0
M  V30 10068 C 1752.27 5.62629 -5.96531 0
M  V30 10069 O 1752.66 6.87667 -5.41053 0
M  V30 10070 C 1753.15 4.52537 -5.39283 0
M  V30 10071 C 1752.44 4.20027 -4.08623 0
M  V30 10072 N 1752.49 2.76189 -3.71603 0
M  V30 10073 H 1749.65 4.797 -7.24003 0
M  V30 10074 H 1749.38 3.69856 -5.84513 0
M  V30 10075 H 1750.25 6.10356 -5.41441 0
M  V30 10076 P 1754.21 7.20834 -5.23717 0
M  V30 10077 O 1754.43 8.66104 -5.38572 0
M  V30 10078 O 1755 6.33544 -6.1349 0
M  V30 10079 O 1754.46 6.7751 -3.72168 0
M  V30 10080 C 1753.52 7.20825 -2.7076 0
M  V30 10081 C 1754.25 7.45864 -1.40599 0
M  V30 10082 O 1754.46 6.17651 -0.734225 0
M  V30 10083 C 1755.65 8.05808 -1.51899 0
M  V30 10084 O 1756.04 8.74358 -0.335205 0
M  V30 10085 C 1756.53 6.83093 -1.70294 0
M  V30 10086 C 1755.82 5.79992 -0.836974 0
M  V30 10087 N 1755.87 4.41864 -1.38293 0
M  V30 10088 H 1753.03 8.13644 -3.0377 0
M  V30 10089 H 1752.76 6.42788 -2.55485 0
M  V30 10090 H 1753.63 8.12039 -0.792769 0
M  V30 10091 P 1757.59 8.91 -1.40415e-11 0
M  V30 10092 O 1757.81 10.1726 0.733694 0
M  V30 10093 O 1758.38 8.73148 -1.23936 0
M  V30 10094 O 1757.84 7.66872 0.971405 0
M  V30 10095 C 1756.9 7.42309 2.04641 0
M  V30 10096 C 1757.63 6.86059 3.24661 0
M  V30 10097 O 1757.84 5.42847 3.03646 0
M  V30 10098 C 1759.03 7.41196 3.50753 0
M  V30 10099 O 1759.42 7.27073 4.86816 0
M  V30 10100 C 1759.91 6.5273 2.63741 0
M  V30 10101 C 1759.2 5.1842 2.73198 0
M  V30 10102 N 1759.25 4.38762 1.4784 0
M  V30 10103 H 1756.41 8.36803 2.32493 0
M  V30 10104 H 1756.14 6.70197 1.71129 0
M  V30 10105 H 1757.01 7.03551 4.13168 0
M  V30 10106 P 1760.97 7.20834 5.23717 0
M  V30 10107 O 1761.19 7.80006 6.57415 0
M  V30 10108 O 1761.76 7.79416 4.13051 0
M  V30 10109 O 1761.22 5.63315 5.29344 0
M  V30 10110 C 1760.28 4.80318 6.01954 0
M  V30 10111 C 1761.01 3.64202 6.65911 0
M  V30 10112 O 1761.22 2.60736 5.64823 0
M  V30 10113 C 1762.41 3.93521 7.19518 0
M  V30 10114 O 1762.8 3.02071 8.21205 0
M  V30 10115 C 1763.29 3.73047 5.97036 0
M  V30 10116 C 1762.58 2.58828 5.25741 0
M  V30 10117 N 1762.63 2.68068 3.77503 0
M  V30 10118 C 1762.55 3.80474 2.99159 0
M  V30 10119 N 1762.62 3.55622 1.71925 0
M  V30 10120 C 1762.77 2.1832 1.65733 0
M  V30 10121 C 1762.9 1.28842 0.572777 0
M  V30 10122 N 1762.91 1.66875 -0.70098 0
M  V30 10123 N 1763.02 -0.016788 0.859836 0
M  V30 10124 C 1763.01 -0.398145 2.13316 0
M  V30 10125 N 1762.89 0.328224 3.22333 0
M  V30 10126 C 1762.77 1.62992 2.90383 0
M  V30 10127 H 1759.79 5.40394 6.8003 0
M  V30 10128 H 1759.52 4.41741 5.32532 0
M  V30 10129 H 1760.39 3.26371 7.47889 0
M  V30 10130 H 1763.04 1.64007 5.56746 0
M  V30 10131 H 1763.32 4.63439 5.3432 0
M  V30 10132 H 1764.31 3.44776 6.25925 0
M  V30 10133 H 1762.48 4.96707 7.57347 0
M  V30 10134 H 1762.44 4.8089 3.39924 0
M  V30 10135 H 1762.82 2.66547 -0.941919 0
M  V30 10136 H 1763.01 0.965341 -1.44766 0
M  V30 10137 H 1763.12 -1.46427 2.29697 0
M  V30 10138 P 1764.35 2.75334 8.47391 0
M  V30 10139 O 1764.57 2.44571 9.90142 0
M  V30 10140 O 1765.14 3.87688 7.92115 0
M  V30 10141 O 1764.6 1.4459 7.59357 0
M  V30 10142 C 1763.66 0.347608 7.69215 0
M  V30 10143 C 1764.39 -0.96767 7.52806 0
M  V30 10144 O 1764.6 -1.21036 6.1011 0
M  V30 10145 C 1765.79 -1.04544 8.13308 0
M  V30 10146 O 1766.18 -2.38311 8.41922 0
M  V30 10147 C 1766.67 -0.491279 7.02284 0
M  V30 10148 C 1765.96 -0.996264 5.77469 0
M  V30 10149 N 1766.01 -0.0501916 4.62973 0
M  V30 10150 H 1763.17 0.374722 8.67691 0
M  V30 10151 H 1762.9 0.443485 6.90277 0
M  V30 10152 H 1763.77 -1.75537 7.96793 0
M  V30 10153 P 1767.73 -2.75334 8.47391 0
M  V30 10154 O 1767.95 -3.84128 9.44797 0
M  V30 10155 O 1768.52 -1.51947 8.68712 0
M  V30 10156 O 1767.98 -3.29363 6.99321 0
M  V30 10157 C 1767.04 -4.24011 6.4274 0
M  V30 10158 C 1767.77 -5.20775 5.52155 0
M  V30 10159 O 1767.98 -4.56534 4.22446 0
M  V30 10160 C 1769.17 -5.62629 5.96531 0
M  V30 10161 O 1769.56 -6.87667 5.41053 0
M  V30 10162 C 1770.05 -4.52537 5.39283 0
M  V30 10163 C 1769.34 -4.20027 4.08623 0
M  V30 10164 N 1769.39 -2.76189 3.71603 0
M  V30 10165 H 1766.55 -4.797 7.24003 0
M  V30 10166 H 1766.28 -3.69856 5.84513 0
M  V30 10167 H 1767.15 -6.10356 5.41441 0
M  V30 10168 P 1771.11 -7.20834 5.23717 0
M  V30 10169 O 1771.33 -8.66104 5.38572 0
M  V30 10170 O 1771.9 -6.33544 6.1349 0
M  V30 10171 O 1771.36 -6.7751 3.72168 0
M  V30 10172 C 1770.42 -7.20825 2.7076 0
M  V30 10173 C 1771.15 -7.45864 1.40599 0
M  V30 10174 O 1771.36 -6.17651 0.734225 0
M  V30 10175 C 1772.55 -8.05808 1.51899 0
M  V30 10176 O 1772.94 -8.74358 0.335205 0
M  V30 10177 C 1773.43 -6.83093 1.70294 0
M  V30 10178 C 1772.72 -5.79992 0.836974 0
M  V30 10179 N 1772.77 -4.41864 1.38293 0
M  V30 10180 H 1769.93 -8.13644 3.0377 0
M  V30 10181 H 1769.66 -6.42788 2.55485 0
M  V30 10182 H 1770.53 -8.12039 0.792769 0
M  V30 10183 P 1774.49 -8.91 1.51505e-11 0
M  V30 10184 O 1774.71 -10.1726 -0.733694 0
M  V30 10185 O 1775.28 -8.73148 1.23936 0
M  V30 10186 O 1774.74 -7.66872 -0.971405 0
M  V30 10187 C 1773.8 -7.42309 -2.04641 0
M  V30 10188 C 1774.53 -6.86059 -3.24661 0
M  V30 10189 O 1774.74 -5.42847 -3.03646 0
M  V30 10190 C 1775.93 -7.41196 -3.50753 0
M  V30 10191 O 1776.32 -7.27073 -4.86816 0
M  V30 10192 C 1776.81 -6.5273 -2.63741 0
M  V30 10193 C 1776.1 -5.1842 -2.73198 0
M  V30 10194 N 1776.15 -4.38762 -1.4784 0
M  V30 10195 H 1773.31 -8.36803 -2.32493 0
M  V30 10196 H 1773.04 -6.70197 -1.71129 0
M  V30 10197 H 1773.91 -7.03551 -4.13168 0
M  V30 10198 P 1777.87 -7.20834 -5.23717 0
M  V30 10199 O 1778.09 -7.79853 -6.57286 0
M  V30 10200 O 1778.66 -7.79239 -4.12957 0
M  V30 10201 O 1778.12 -5.63315 -5.29344 0
M  V30 10202 C 1777.18 -4.80255 -6.01876 0
M  V30 10203 C 1777.91 -3.64202 -6.65911 0
M  V30 10204 O 1778.12 -2.60694 -5.64732 0
M  V30 10205 C 1779.31 -3.93473 -7.1943 0
M  V30 10206 O 1779.7 -3.02071 -8.21205 0
M  V30 10207 C 1780.19 -3.73047 -5.97036 0
M  V30 10208 C 1779.48 -2.58828 -5.25741 0
M  V30 10209 N 1779.53 -2.68068 -3.77503 0
M  V30 10210 H 1776.69 -5.40332 -6.79951 0
M  V30 10211 H 1776.42 -4.41613 -5.32378 0
M  V30 10212 H 1777.29 -3.26331 -7.47797 0
M  V30 10213 P 1781.25 -2.75334 -8.47391 0
M  V30 10214 O 1781.47 -2.44571 -9.90142 0
M  V30 10215 O 1782.04 -3.87688 -7.92115 0
M  V30 10216 O 1781.5 -1.4459 -7.59357 0
M  V30 10217 C 1780.56 -0.347608 -7.69215 0
M  V30 10218 C 1781.29 0.96767 -7.52806 0
M  V30 10219 O 1781.5 1.21036 -6.1011 0
M  V30 10220 C 1782.69 1.04544 -8.13308 0
M  V30 10221 O 1783.08 2.38311 -8.41922 0
M  V30 10222 C 1783.57 0.491279 -7.02284 0
M  V30 10223 C 1782.86 0.996264 -5.77469 0
M  V30 10224 N 1782.91 0.0501916 -4.62973 0
M  V30 10225 H 1780.07 -0.374722 -8.67691 0
M  V30 10226 H 1779.8 -0.443485 -6.90277 0
M  V30 10227 H 1780.67 1.75537 -7.96793 0
M  V30 10228 P 1784.63 2.75334 -8.47391 0
M  V30 10229 O 1784.85 3.84128 -9.44797 0
M  V30 10230 O 1785.42 1.51947 -8.68712 0
M  V30 10231 O 1784.88 3.29363 -6.99321 0
M  V30 10232 C 1783.94 4.24011 -6.4274 0
M  V30 10233 C 1784.67 5.20775 -5.52155 0
M  V30 10234 O 1784.88 4.56534 -4.22446 0
M  V30 10235 C 1786.07 5.62629 -5.96531 0
M  V30 10236 O 1786.46 6.87667 -5.41053 0
M  V30 10237 C 1786.95 4.52537 -5.39283 0
M  V30 10238 C 1786.24 4.20027 -4.08623 0
M  V30 10239 N 1786.29 2.76189 -3.71603 0
M  V30 10240 H 1783.45 4.797 -7.24003 0
M  V30 10241 H 1783.18 3.69856 -5.84513 0
M  V30 10242 H 1784.05 6.10356 -5.41441 0
M  V30 10243 P 1788.01 7.20834 -5.23717 0
M  V30 10244 O 1788.23 8.66104 -5.38572 0
M  V30 10245 O 1788.8 6.33544 -6.1349 0
M  V30 10246 O 1788.26 6.7751 -3.72168 0
M  V30 10247 C 1787.32 7.20825 -2.7076 0
M  V30 10248 C 1788.05 7.45864 -1.40599 0
M  V30 10249 O 1788.26 6.17651 -0.734225 0
M  V30 10250 C 1789.45 8.05808 -1.51899 0
M  V30 10251 O 1789.84 8.74358 -0.335205 0
M  V30 10252 C 1790.33 6.83093 -1.70294 0
M  V30 10253 C 1789.62 5.79992 -0.836974 0
M  V30 10254 N 1789.67 4.41864 -1.38293 0
M  V30 10255 H 1786.83 8.13644 -3.0377 0
M  V30 10256 H 1786.56 6.42788 -2.55485 0
M  V30 10257 H 1787.43 8.12039 -0.792769 0
M  V30 10258 P 1791.39 8.91 -1.62595e-11 0
M  V30 10259 O 1791.61 10.1726 0.733694 0
M  V30 10260 O 1792.18 8.73148 -1.23936 0
M  V30 10261 O 1791.64 7.66872 0.971405 0
M  V30 10262 C 1790.7 7.42309 2.04641 0
M  V30 10263 C 1791.43 6.86059 3.24661 0
M  V30 10264 O 1791.64 5.42847 3.03646 0
M  V30 10265 C 1792.83 7.41196 3.50753 0
M  V30 10266 O 1793.22 7.27073 4.86816 0
M  V30 10267 C 1793.71 6.5273 2.63741 0
M  V30 10268 C 1793 5.1842 2.73198 0
M  V30 10269 N 1793.05 4.38762 1.4784 0
M  V30 10270 C 1792.97 4.81605 0.168631 0
M  V30 10271 N 1793.05 3.85454 -0.713363 0
M  V30 10272 C 1793.19 2.6994 0.0566958 0
M  V30 10273 C 1793.32 1.34815 -0.338502 0
M  V30 10274 O 1793.34 0.869548 -1.47125 0
M  V30 10275 N 1793.44 0.496304 0.77465 0
M  V30 10276 C 1793.44 0.908403 2.09122 0
M  V30 10277 N 1793.57 -0.0517805 3.00955 0
M  V30 10278 N 1793.31 2.17875 2.46519 0
M  V30 10279 C 1793.19 3.01988 1.4033 0
M  V30 10280 H 1790.21 8.36803 2.32493 0
M  V30 10281 H 1789.94 6.70197 1.71129 0
M  V30 10282 H 1790.81 7.03551 4.13168 0
M  V30 10283 H 1793.46 4.59498 3.54415 0
M  V30 10284 H 1793.74 6.88898 1.59848 0
M  V30 10285 H 1794.73 6.46749 3.03687 0
M  V30 10286 H 1792.9 8.46908 3.20714 0
M  V30 10287 H 1792.85 5.86405 -0.105564 0
M  V30 10288 H 1793.53 -0.483664 0.597855 0
M  V30 10289 H 1793.57 0.187865 4.0116 0
M  V30 10290 H 1793.67 -1.03585 2.71726 0
M  V30 10291 P 1794.77 7.20834 5.23717 0
M  V30 10292 O 1794.99 7.7993 6.57351 0
M  V30 10293 O 1795.56 7.79328 4.13004 0
M  V30 10294 O 1795.02 5.63315 5.29344 0
M  V30 10295 C 1794.08 4.80255 6.01876 0
M  V30 10296 C 1794.81 3.64202 6.65911 0
M  V30 10297 O 1795.02 2.60694 5.64732 0
M  V30 10298 C 1796.21 3.93473 7.1943 0
M  V30 10299 O 1796.6 3.02071 8.21205 0
M  V30 10300 C 1797.09 3.73047 5.97036 0
M  V30 10301 C 1796.38 2.58828 5.25741 0
M  V30 10302 N 1796.43 2.6801 3.77422 0
M  V30 10303 C 1796.58 1.50173 3.05038 0
M  V30 10304 O 1796.67 0.428832 3.665 0
M  V30 10305 N 1796.63 1.70922 1.55541 0
M  V30 10306 C 1796.53 2.7407 1.06402 0
M  V30 10307 N 1796.58 2.74764 -0.260931 0
M  V30 10308 C 1796.38 3.96781 1.78296 0
M  V30 10309 C 1796.33 3.87909 3.13891 0
M  V30 10310 H 1793.59 5.4027 6.79873 0
M  V30 10311 H 1793.32 4.41549 5.32301 0
M  V30 10312 H 1794.19 3.26371 7.47889 0
M  V30 10313 H 1796.84 1.63978 5.5665 0
M  V30 10314 H 1797.12 4.63439 5.3432 0
M  V30 10315 H 1798.11 3.44728 6.25838 0
M  V30 10316 H 1796.28 4.96652 7.57263 0
M  V30 10317 H 1796.21 4.78425 3.73088 0
M  V30 10318 H 1796.31 4.92593 1.26997 0
M  V30 10319 H 1796.7 1.86285 -0.77595 0
M  V30 10320 H 1796.5 3.63657 -0.773896 0
M  V30 10321 P 1798.15 2.75334 8.47391 0
M  V30 10322 O 1798.37 2.44571 9.90142 0
M  V30 10323 O 1798.94 3.87688 7.92115 0
M  V30 10324 O 1798.4 1.4459 7.59357 0
M  V30 10325 C 1797.46 0.347608 7.69215 0
M  V30 10326 C 1798.19 -0.96767 7.52806 0
M  V30 10327 O 1798.4 -1.21036 6.1011 0
M  V30 10328 C 1799.59 -1.04544 8.13308 0
M  V30 10329 O 1799.98 -2.38311 8.41922 0
M  V30 10330 C 1800.47 -0.491279 7.02284 0
M  V30 10331 C 1799.76 -0.996264 5.77469 0
M  V30 10332 N 1799.81 -0.0501916 4.62973 0
M  V30 10333 H 1796.97 0.374722 8.67691 0
M  V30 10334 H 1796.7 0.443485 6.90277 0
M  V30 10335 H 1797.57 -1.75537 7.96793 0
M  V30 10336 P 1801.53 -2.75334 8.47391 0
M  V30 10337 O 1801.75 -3.84128 9.44797 0
M  V30 10338 O 1802.32 -1.51947 8.68712 0
M  V30 10339 O 1801.78 -3.29363 6.99321 0
M  V30 10340 C 1800.84 -4.24011 6.4274 0
M  V30 10341 C 1801.57 -5.20775 5.52155 0
M  V30 10342 O 1801.78 -4.56534 4.22446 0
M  V30 10343 C 1802.97 -5.62629 5.96531 0
M  V30 10344 O 1803.36 -6.87667 5.41053 0
M  V30 10345 C 1803.85 -4.52537 5.39283 0
M  V30 10346 C 1803.14 -4.20027 4.08623 0
M  V30 10347 N 1803.19 -2.76189 3.71603 0
M  V30 10348 H 1800.35 -4.797 7.24003 0
M  V30 10349 H 1800.08 -3.69856 5.84513 0
M  V30 10350 H 1800.95 -6.10356 5.41441 0
M  V30 10351 P 1804.91 -7.20834 5.23717 0
M  V30 10352 O 1805.13 -8.66104 5.38572 0
M  V30 10353 O 1805.7 -6.33544 6.1349 0
M  V30 10354 O 1805.16 -6.7751 3.72168 0
M  V30 10355 C 1804.22 -7.20825 2.7076 0
M  V30 10356 C 1804.95 -7.45864 1.40599 0
M  V30 10357 O 1805.16 -6.17651 0.734225 0
M  V30 10358 C 1806.35 -8.05808 1.51899 0
M  V30 10359 O 1806.74 -8.74358 0.335205 0
M  V30 10360 C 1807.23 -6.83093 1.70294 0
M  V30 10361 C 1806.52 -5.79992 0.836974 0
M  V30 10362 N 1806.57 -4.41864 1.38293 0
M  V30 10363 H 1803.73 -8.13644 3.0377 0
M  V30 10364 H 1803.46 -6.42788 2.55485 0
M  V30 10365 H 1804.33 -8.12039 0.792769 0
M  V30 10366 P 1808.29 -8.91 1.73686e-11 0
M  V30 10367 O 1808.51 -10.1746 -0.733838 0
M  V30 10368 O 1809.08 -8.73346 1.23964 0
M  V30 10369 O 1808.54 -7.66872 -0.971405 0
M  V30 10370 C 1807.6 -7.42405 -2.04668 0
M  V30 10371 C 1808.33 -6.86059 -3.24661 0
M  V30 10372 O 1808.54 -5.42934 -3.03695 0
M  V30 10373 C 1809.73 -7.41287 -3.50796 0
M  V30 10374 O 1810.12 -7.27073 -4.86816 0
M  V30 10375 C 1810.61 -6.5273 -2.63741 0
M  V30 10376 C 1809.9 -5.1842 -2.73198 0
M  V30 10377 N 1809.95 -4.38762 -1.4784 0
M  V30 10378 H 1807.11 -8.36899 -2.3252 0
M  V30 10379 H 1806.84 -6.70391 -1.71179 0
M  V30 10380 H 1807.71 -7.03638 -4.13219 0
M  V30 10381 H 1810.36 -4.59931 -3.54016 0
M  V30 10382 H 1810.64 -6.88995 -1.59871 0
M  V30 10383 H 1811.63 -6.4684 -3.0373 0
M  V30 10384 H 1809.8 -8.47002 -3.20749 0
M  V30 10385 P 1811.67 -7.20834 -5.23717 0
M  V30 10386 O 1811.89 -7.79853 -6.57286 0
M  V30 10387 O 1812.46 -7.79239 -4.12957 0
M  V30 10388 O 1811.92 -5.63315 -5.29344 0
M  V30 10389 C 1810.98 -4.80255 -6.01876 0
M  V30 10390 C 1811.71 -3.64202 -6.65911 0
M  V30 10391 O 1811.92 -2.60694 -5.64732 0
M  V30 10392 C 1813.11 -3.93473 -7.1943 0
M  V30 10393 O 1813.5 -3.02071 -8.21205 0
M  V30 10394 C 1813.99 -3.73047 -5.97036 0
M  V30 10395 C 1813.28 -2.58828 -5.25741 0
M  V30 10396 N 1813.33 -2.68068 -3.77503 0
M  V30 10397 H 1810.49 -5.40332 -6.79951 0
M  V30 10398 H 1810.22 -4.41613 -5.32378 0
M  V30 10399 H 1811.09 -3.26331 -7.47797 0
M  V30 10400 P 1815.05 -2.75334 -8.47391 0
M  V30 10401 O 1815.27 -2.44571 -9.90142 0
M  V30 10402 O 1815.84 -3.87688 -7.92115 0
M  V30 10403 O 1815.3 -1.4459 -7.59357 0
M  V30 10404 C 1814.36 -0.347608 -7.69215 0
M  V30 10405 C 1815.09 0.96767 -7.52806 0
M  V30 10406 O 1815.3 1.21036 -6.1011 0
M  V30 10407 C 1816.49 1.04544 -8.13308 0
M  V30 10408 O 1816.88 2.38311 -8.41922 0
M  V30 10409 C 1817.37 0.491279 -7.02284 0
M  V30 10410 C 1816.66 0.996264 -5.77469 0
M  V30 10411 N 1816.71 0.0501916 -4.62973 0
M  V30 10412 H 1813.87 -0.374722 -8.67691 0
M  V30 10413 H 1813.6 -0.443485 -6.90277 0
M  V30 10414 H 1814.47 1.75537 -7.96793 0
M  V30 10415 P 1818.43 2.75334 -8.47391 0
M  V30 10416 O 1818.65 3.84128 -9.44797 0
M  V30 10417 O 1819.22 1.51947 -8.68712 0
M  V30 10418 O 1818.68 3.29363 -6.99321 0
M  V30 10419 C 1817.74 4.24011 -6.4274 0
M  V30 10420 C 1818.47 5.20775 -5.52155 0
M  V30 10421 O 1818.68 4.56534 -4.22446 0
M  V30 10422 C 1819.87 5.62629 -5.96531 0
M  V30 10423 O 1820.26 6.87667 -5.41053 0
M  V30 10424 C 1820.75 4.52537 -5.39283 0
M  V30 10425 C 1820.04 4.20027 -4.08623 0
M  V30 10426 N 1820.09 2.76189 -3.71603 0
M  V30 10427 H 1817.25 4.797 -7.24003 0
M  V30 10428 H 1816.98 3.69856 -5.84513 0
M  V30 10429 H 1817.85 6.10356 -5.41441 0
M  V30 10430 P 1821.81 7.20834 -5.23717 0
M  V30 10431 O 1822.03 8.66104 -5.38572 0
M  V30 10432 O 1822.6 6.33544 -6.1349 0
M  V30 10433 O 1822.06 6.7751 -3.72168 0
M  V30 10434 C 1821.12 7.20825 -2.7076 0
M  V30 10435 C 1821.85 7.45864 -1.40599 0
M  V30 10436 O 1822.06 6.17651 -0.734225 0
M  V30 10437 C 1823.25 8.05808 -1.51899 0
M  V30 10438 O 1823.64 8.74358 -0.335205 0
M  V30 10439 C 1824.13 6.83093 -1.70294 0
M  V30 10440 C 1823.42 5.79992 -0.836974 0
M  V30 10441 N 1823.47 4.41864 -1.38293 0
M  V30 10442 H 1820.63 8.13644 -3.0377 0
M  V30 10443 H 1820.36 6.42788 -2.55485 0
M  V30 10444 H 1821.23 8.12039 -0.792769 0
M  V30 10445 P 1825.19 8.91 -1.84776e-11 0
M  V30 10446 O 1825.41 10.1726 0.733694 0
M  V30 10447 O 1825.98 8.73148 -1.23936 0
M  V30 10448 O 1825.44 7.66872 0.971405 0
M  V30 10449 C 1824.5 7.42309 2.04641 0
M  V30 10450 C 1825.23 6.86059 3.24661 0
M  V30 10451 O 1825.44 5.42847 3.03646 0
M  V30 10452 C 1826.63 7.41196 3.50753 0
M  V30 10453 O 1827.02 7.27073 4.86816 0
M  V30 10454 C 1827.51 6.5273 2.63741 0
M  V30 10455 C 1826.8 5.1842 2.73198 0
M  V30 10456 N 1826.85 4.38762 1.4784 0
M  V30 10457 C 1826.77 4.81605 0.168631 0
M  V30 10458 N 1826.85 3.85454 -0.713363 0
M  V30 10459 C 1826.99 2.6994 0.0566958 0
M  V30 10460 C 1827.12 1.34815 -0.338502 0
M  V30 10461 O 1827.14 0.869548 -1.47125 0
M  V30 10462 N 1827.24 0.496304 0.77465 0
M  V30 10463 C 1827.24 0.908403 2.09122 0
M  V30 10464 N 1827.37 -0.0517805 3.00955 0
M  V30 10465 N 1827.11 2.17875 2.46519 0
M  V30 10466 C 1826.99 3.01988 1.4033 0
M  V30 10467 H 1824.01 8.36803 2.32493 0
M  V30 10468 H 1823.74 6.70197 1.71129 0
M  V30 10469 H 1824.61 7.03551 4.13168 0
M  V30 10470 H 1827.26 4.59498 3.54415 0
M  V30 10471 H 1827.54 6.88898 1.59848 0
M  V30 10472 H 1828.53 6.46749 3.03687 0
M  V30 10473 H 1826.7 8.46908 3.20714 0
M  V30 10474 H 1826.65 5.86405 -0.105564 0
M  V30 10475 H 1827.33 -0.483664 0.597855 0
M  V30 10476 H 1827.37 0.187865 4.0116 0
M  V30 10477 H 1827.47 -1.03585 2.71726 0
M  V30 10478 P 1828.57 7.20834 5.23717 0
M  V30 10479 O 1828.79 7.79853 6.57286 0
M  V30 10480 O 1829.36 7.79239 4.12957 0
M  V30 10481 O 1828.82 5.63315 5.29344 0
M  V30 10482 C 1827.88 4.80255 6.01876 0
M  V30 10483 C 1828.61 3.64202 6.65911 0
M  V30 10484 O 1828.82 2.60694 5.64732 0
M  V30 10485 C 1830.01 3.93473 7.1943 0
M  V30 10486 O 1830.4 3.02071 8.21205 0
M  V30 10487 C 1830.89 3.73047 5.97036 0
M  V30 10488 C 1830.18 2.58828 5.25741 0
M  V30 10489 N 1830.23 2.68068 3.77503 0
M  V30 10490 H 1827.39 5.40332 6.79951 0
M  V30 10491 H 1827.12 4.41613 5.32378 0
M  V30 10492 H 1827.99 3.26331 7.47797 0
M  V30 10493 P 1831.95 2.75334 8.47391 0
M  V30 10494 O 1832.17 2.44571 9.90142 0
M  V30 10495 O 1832.74 3.87688 7.92115 0
M  V30 10496 O 1832.2 1.4459 7.59357 0
M  V30 10497 C 1831.26 0.347608 7.69215 0
M  V30 10498 C 1831.99 -0.96767 7.52806 0
M  V30 10499 O 1832.2 -1.21036 6.1011 0
M  V30 10500 C 1833.39 -1.04544 8.13308 0
M  V30 10501 O 1833.78 -2.38311 8.41922 0
M  V30 10502 C 1834.27 -0.491279 7.02284 0
M  V30 10503 C 1833.56 -0.996264 5.77469 0
M  V30 10504 N 1833.61 -0.0501916 4.62973 0
M  V30 10505 C 1833.53 1.32786 4.63244 0
M  V30 10506 N 1833.61 1.86957 3.44545 0
M  V30 10507 C 1833.75 0.780241 2.58481 0
M  V30 10508 C 1833.88 0.738536 1.17757 0
M  V30 10509 O 1833.9 1.66794 0.372349 0
M  V30 10510 N 1834 -0.58337 0.711393 0
M  V30 10511 C 1834 -1.70816 1.51017 0
M  V30 10512 N 1834.13 -2.87826 0.880757 0
M  V30 10513 N 1833.87 -1.67126 2.8339 0
M  V30 10514 C 1833.75 -0.401421 3.30572 0
M  V30 10515 H 1830.77 0.374722 8.67691 0
M  V30 10516 H 1830.5 0.443485 6.90277 0
M  V30 10517 H 1831.37 -1.75537 7.96793 0
M  V30 10518 H 1834.02 -1.95076 5.46529 0
M  V30 10519 H 1834.3 0.608565 7.04577 0
M  V30 10520 H 1835.29 -0.889672 7.08939 0
M  V30 10521 H 1833.46 -0.43308 9.04564 0
M  V30 10522 H 1833.41 1.91249 5.54442 0
M  V30 10523 H 1834.09 -0.718054 -0.275244 0
M  V30 10524 H 1834.13 -3.75721 1.41832 0
M  V30 10525 H 1834.23 -2.90436 -0.145468 0
M  V30 10526 P 1835.33 -2.75334 8.47391 0
M  V30 10527 O 1835.55 -3.84128 9.44797 0
M  V30 10528 O 1836.12 -1.51947 8.68712 0
M  V30 10529 O 1835.58 -3.29363 6.99321 0
M  V30 10530 C 1834.64 -4.24011 6.4274 0
M  V30 10531 C 1835.37 -5.20775 5.52155 0
M  V30 10532 O 1835.58 -4.56534 4.22446 0
M  V30 10533 C 1836.77 -5.62629 5.96531 0
M  V30 10534 O 1837.16 -6.87667 5.41053 0
M  V30 10535 C 1837.65 -4.52537 5.39283 0
M  V30 10536 C 1836.94 -4.20027 4.08623 0
M  V30 10537 N 1836.99 -2.76189 3.71603 0
M  V30 10538 H 1834.15 -4.797 7.24003 0
M  V30 10539 H 1833.88 -3.69856 5.84513 0
M  V30 10540 H 1834.75 -6.10356 5.41441 0
M  V30 10541 P 1838.71 -7.20834 5.23717 0
M  V30 10542 O 1838.93 -8.66104 5.38572 0
M  V30 10543 O 1839.5 -6.33544 6.1349 0
M  V30 10544 O 1838.96 -6.7751 3.72168 0
M  V30 10545 C 1838.02 -7.20825 2.7076 0
M  V30 10546 C 1838.75 -7.45864 1.40599 0
M  V30 10547 O 1838.96 -6.17651 0.734225 0
M  V30 10548 C 1840.15 -8.05808 1.51899 0
M  V30 10549 O 1840.54 -8.74358 0.335205 0
M  V30 10550 C 1841.03 -6.83093 1.70294 0
M  V30 10551 C 1840.32 -5.79992 0.836974 0
M  V30 10552 N 1840.37 -4.41864 1.38293 0
M  V30 10553 H 1837.53 -8.13644 3.0377 0
M  V30 10554 H 1837.26 -6.42788 2.55485 0
M  V30 10555 H 1838.13 -8.12039 0.792769 0
M  V30 10556 P 1842.09 -8.91 1.95866e-11 0
M  V30 10557 O 1842.31 -10.1726 -0.733694 0
M  V30 10558 O 1842.88 -8.73148 1.23936 0
M  V30 10559 O 1842.34 -7.66872 -0.971405 0
M  V30 10560 C 1841.4 -7.42309 -2.04641 0
M  V30 10561 C 1842.13 -6.86059 -3.24661 0
M  V30 10562 O 1842.34 -5.42847 -3.03646 0
M  V30 10563 C 1843.53 -7.41196 -3.50753 0
M  V30 10564 O 1843.92 -7.27073 -4.86816 0
M  V30 10565 C 1844.41 -6.5273 -2.63741 0
M  V30 10566 C 1843.7 -5.1842 -2.73198 0
M  V30 10567 N 1843.75 -4.38762 -1.4784 0
M  V30 10568 H 1840.91 -8.36803 -2.32493 0
M  V30 10569 H 1840.64 -6.70197 -1.71129 0
M  V30 10570 H 1841.51 -7.03551 -4.13168 0
M  V30 10571 P 1845.47 -7.20834 -5.23717 0
M  V30 10572 O 1845.69 -7.79853 -6.57286 0
M  V30 10573 O 1846.26 -7.79239 -4.12957 0
M  V30 10574 O 1845.72 -5.63315 -5.29344 0
M  V30 10575 C 1844.78 -4.80255 -6.01876 0
M  V30 10576 C 1845.51 -3.64202 -6.65911 0
M  V30 10577 O 1845.72 -2.60694 -5.64732 0
M  V30 10578 C 1846.91 -3.93473 -7.1943 0
M  V30 10579 O 1847.3 -3.02071 -8.21205 0
M  V30 10580 C 1847.79 -3.73047 -5.97036 0
M  V30 10581 C 1847.08 -2.58828 -5.25741 0
M  V30 10582 N 1847.13 -2.68068 -3.77503 0
M  V30 10583 H 1844.29 -5.40332 -6.79951 0
M  V30 10584 H 1844.02 -4.41613 -5.32378 0
M  V30 10585 H 1844.89 -3.26331 -7.47797 0
M  V30 10586 P 1848.85 -2.75334 -8.47391 0
M  V30 10587 O 1849.07 -2.44571 -9.90142 0
M  V30 10588 O 1849.64 -3.87688 -7.92115 0
M  V30 10589 O 1849.1 -1.4459 -7.59357 0
M  V30 10590 C 1848.16 -0.347608 -7.69215 0
M  V30 10591 C 1848.89 0.96767 -7.52806 0
M  V30 10592 O 1849.1 1.21036 -6.1011 0
M  V30 10593 C 1850.29 1.04544 -8.13308 0
M  V30 10594 O 1850.68 2.38311 -8.41922 0
M  V30 10595 C 1851.17 0.491279 -7.02284 0
M  V30 10596 C 1850.46 0.996264 -5.77469 0
M  V30 10597 N 1850.51 0.0501916 -4.62973 0
M  V30 10598 H 1847.67 -0.374722 -8.67691 0
M  V30 10599 H 1847.4 -0.443485 -6.90277 0
M  V30 10600 H 1848.27 1.75537 -7.96793 0
M  V30 10601 P 1852.23 2.75334 -8.47391 0
M  V30 10602 O 1852.45 3.84128 -9.44797 0
M  V30 10603 O 1853.02 1.51947 -8.68712 0
M  V30 10604 O 1852.48 3.29363 -6.99321 0
M  V30 10605 C 1851.54 4.24011 -6.4274 0
M  V30 10606 C 1852.27 5.20775 -5.52155 0
M  V30 10607 O 1852.48 4.56534 -4.22446 0
M  V30 10608 C 1853.67 5.62629 -5.96531 0
M  V30 10609 O 1854.06 6.87667 -5.41053 0
M  V30 10610 C 1854.55 4.52537 -5.39283 0
M  V30 10611 C 1853.84 4.20027 -4.08623 0
M  V30 10612 N 1853.89 2.76189 -3.71603 0
M  V30 10613 C 1853.81 1.64862 -4.52822 0
M  V30 10614 N 1853.89 0.512671 -3.88633 0
M  V30 10615 C 1854.03 0.888083 -2.54977 0
M  V30 10616 C 1854.16 0.094668 -1.38677 0
M  V30 10617 O 1854.18 -1.13053 -1.28163 0
M  V30 10618 N 1854.28 0.890102 -0.232633 0
M  V30 10619 C 1854.28 2.26958 -0.21772 0
M  V30 10620 N 1854.41 2.84626 0.97925 0
M  V30 10621 N 1854.15 3.0178 -1.31033 0
M  V30 10622 C 1854.03 2.26781 -2.43843 0
M  V30 10623 H 1851.05 4.797 -7.24003 0
M  V30 10624 H 1850.78 3.69856 -5.84513 0
M  V30 10625 H 1851.65 6.10356 -5.41441 0
M  V30 10626 H 1854.3 4.79061 -3.27488 0
M  V30 10627 H 1854.58 3.64906 -6.05785 0
M  V30 10628 H 1855.57 4.8868 -5.2125 0
M  V30 10629 H 1853.74 5.66726 -7.06352 0
M  V30 10630 H 1853.69 1.71169 -5.60966 0
M  V30 10631 H 1854.37 0.419134 0.644739 0
M  V30 10632 H 1854.41 3.87332 1.06098 0
M  V30 10633 H 1854.51 2.26417 1.82483 0
M  V30 10634 P 1855.61 7.20834 -5.23717 0
M  V30 10635 O 1855.83 8.66104 -5.38572 0
M  V30 10636 O 1856.4 6.33544 -6.1349 0
M  V30 10637 O 1855.86 6.7751 -3.72168 0
M  V30 10638 C 1854.92 7.20825 -2.7076 0
M  V30 10639 C 1855.65 7.45864 -1.40599 0
M  V30 10640 O 1855.86 6.17651 -0.734225 0
M  V30 10641 C 1857.05 8.05808 -1.51899 0
M  V30 10642 O 1857.44 8.74358 -0.335205 0
M  V30 10643 C 1857.93 6.83093 -1.70294 0
M  V30 10644 C 1857.22 5.79992 -0.836974 0
M  V30 10645 N 1857.27 4.41864 -1.38293 0
M  V30 10646 H 1854.43 8.13644 -3.0377 0
M  V30 10647 H 1854.16 6.42788 -2.55485 0
M  V30 10648 H 1855.03 8.12039 -0.792769 0
M  V30 10649 P 1858.99 8.91 -2.06956e-11 0
M  V30 10650 O 1859.21 10.1726 0.733694 0
M  V30 10651 O 1859.78 8.73148 -1.23936 0
M  V30 10652 O 1859.24 7.66872 0.971405 0
M  V30 10653 C 1858.3 7.42309 2.04641 0
M  V30 10654 C 1859.03 6.86059 3.24661 0
M  V30 10655 O 1859.24 5.42847 3.03646 0
M  V30 10656 C 1860.43 7.41196 3.50753 0
M  V30 10657 O 1860.82 7.27073 4.86816 0
M  V30 10658 C 1861.31 6.5273 2.63741 0
M  V30 10659 C 1860.6 5.1842 2.73198 0
M  V30 10660 N 1860.65 4.38762 1.4784 0
M  V30 10661 H 1857.81 8.36803 2.32493 0
M  V30 10662 H 1857.54 6.70197 1.71129 0
M  V30 10663 H 1858.41 7.03551 4.13168 0
M  V30 10664 P 1862.37 7.20834 5.23717 0
M  V30 10665 O 1862.59 7.79853 6.57286 0
M  V30 10666 O 1863.16 7.79239 4.12957 0
M  V30 10667 O 1862.62 5.63315 5.29344 0
M  V30 10668 C 1861.68 4.80255 6.01876 0
M  V30 10669 C 1862.41 3.64202 6.65911 0
M  V30 10670 O 1862.62 2.60694 5.64732 0
M  V30 10671 C 1863.81 3.93473 7.1943 0
M  V30 10672 O 1864.2 3.02071 8.21205 0
M  V30 10673 C 1864.69 3.73047 5.97036 0
M  V30 10674 C 1863.98 2.58828 5.25741 0
M  V30 10675 N 1864.03 2.68068 3.77503 0
M  V30 10676 H 1861.19 5.40332 6.79951 0
M  V30 10677 H 1860.92 4.41613 5.32378 0
M  V30 10678 H 1861.79 3.26331 7.47797 0
M  V30 10679 P 1865.75 2.75334 8.47391 0
M  V30 10680 O 1865.97 2.44571 9.90142 0
M  V30 10681 O 1866.54 3.87688 7.92115 0
M  V30 10682 O 1866 1.4459 7.59357 0
M  V30 10683 C 1865.06 0.347608 7.69215 0
M  V30 10684 C 1865.79 -0.96767 7.52806 0
M  V30 10685 O 1866 -1.21036 6.1011 0
M  V30 10686 C 1867.19 -1.04544 8.13308 0
M  V30 10687 O 1867.58 -2.38311 8.41922 0
M  V30 10688 C 1868.07 -0.491279 7.02284 0
M  V30 10689 C 1867.36 -0.996264 5.77469 0
M  V30 10690 N 1867.41 -0.0501916 4.62973 0
M  V30 10691 H 1864.57 0.374722 8.67691 0
M  V30 10692 H 1864.3 0.443485 6.90277 0
M  V30 10693 H 1865.17 -1.75537 7.96793 0
M  V30 10694 P 1869.13 -2.75334 8.47391 0
M  V30 10695 O 1869.35 -3.84128 9.44797 0
M  V30 10696 O 1869.92 -1.51947 8.68712 0
M  V30 10697 O 1869.38 -3.29363 6.99321 0
M  V30 10698 C 1868.44 -4.24011 6.4274 0
M  V30 10699 C 1869.17 -5.20775 5.52155 0
M  V30 10700 O 1869.38 -4.56534 4.22446 0
M  V30 10701 C 1870.57 -5.62629 5.96531 0
M  V30 10702 O 1870.96 -6.87667 5.41053 0
M  V30 10703 C 1871.45 -4.52537 5.39283 0
M  V30 10704 C 1870.74 -4.20027 4.08623 0
M  V30 10705 N 1870.79 -2.76189 3.71603 0
M  V30 10706 H 1867.95 -4.797 7.24003 0
M  V30 10707 H 1867.68 -3.69856 5.84513 0
M  V30 10708 H 1868.55 -6.10356 5.41441 0
M  V30 10709 P 1872.51 -7.20834 5.23717 0
M  V30 10710 O 1872.73 -8.66274 5.38678 0
M  V30 10711 O 1873.3 -6.33687 6.13629 0
M  V30 10712 O 1872.76 -6.7751 3.72168 0
M  V30 10713 C 1871.82 -7.20919 2.70795 0
M  V30 10714 C 1872.55 -7.45864 1.40599 0
M  V30 10715 O 1872.76 -6.17751 0.734343 0
M  V30 10716 C 1873.95 -8.05906 1.51917 0
M  V30 10717 O 1874.34 -8.74358 0.335205 0
M  V30 10718 C 1874.83 -6.83093 1.70294 0
M  V30 10719 C 1874.12 -5.79992 0.836974 0
M  V30 10720 N 1874.17 -4.41864 1.38293 0
M  V30 10721 H 1871.33 -8.13738 3.03804 0
M  V30 10722 H 1871.06 -6.42974 2.55559 0
M  V30 10723 H 1871.93 -8.12139 0.792866 0
M  V30 10724 H 1874.58 -5.80178 -0.160643 0
M  V30 10725 H 1874.86 -6.51379 2.75643 0
M  V30 10726 H 1875.85 -7.01832 1.3448 0
M  V30 10727 H 1874.02 -8.73771 2.38364 0
M  V30 10728 P 1875.89 -8.91 2.18046e-11 0
M  V30 10729 O 1876.11 -10.1726 -0.733694 0
M  V30 10730 O 1876.68 -8.73148 1.23936 0
M  V30 10731 O 1876.14 -7.66872 -0.971405 0
M  V30 10732 C 1875.2 -7.42309 -2.04641 0
M  V30 10733 C 1875.93 -6.86059 -3.24661 0
M  V30 10734 O 1876.14 -5.42847 -3.03646 0
M  V30 10735 C 1877.33 -7.41196 -3.50753 0
M  V30 10736 O 1877.72 -7.27073 -4.86816 0
M  V30 10737 C 1878.21 -6.5273 -2.63741 0
M  V30 10738 C 1877.5 -5.1842 -2.73198 0
M  V30 10739 N 1877.55 -4.38762 -1.4784 0
M  V30 10740 H 1874.71 -8.36803 -2.32493 0
M  V30 10741 H 1874.44 -6.70197 -1.71129 0
M  V30 10742 H 1875.31 -7.03551 -4.13168 0
M  V30 10743 P 1879.27 -7.20834 -5.23717 0
M  V30 10744 O 1879.49 -7.79853 -6.57286 0
M  V30 10745 O 1880.06 -7.79239 -4.12957 0
M  V30 10746 O 1879.52 -5.63315 -5.29344 0
M  V30 10747 C 1878.58 -4.80255 -6.01876 0
M  V30 10748 C 1879.31 -3.64202 -6.65911 0
M  V30 10749 O 1879.52 -2.60694 -5.64732 0
M  V30 10750 C 1880.71 -3.93473 -7.1943 0
M  V30 10751 O 1881.1 -3.02071 -8.21205 0
M  V30 10752 C 1881.59 -3.73047 -5.97036 0
M  V30 10753 C 1880.88 -2.58828 -5.25741 0
M  V30 10754 N 1880.93 -2.68068 -3.77503 0
M  V30 10755 H 1878.09 -5.40332 -6.79951 0
M  V30 10756 H 1877.82 -4.41613 -5.32378 0
M  V30 10757 H 1878.69 -3.26331 -7.47797 0
M  V30 10758 P 1882.65 -2.75334 -8.47391 0
M  V30 10759 O 1882.87 -2.44571 -9.90142 0
M  V30 10760 O 1883.44 -3.87688 -7.92115 0
M  V30 10761 O 1882.9 -1.4459 -7.59357 0
M  V30 10762 C 1881.96 -0.347608 -7.69215 0
M  V30 10763 C 1882.69 0.96767 -7.52806 0
M  V30 10764 O 1882.9 1.21036 -6.1011 0
M  V30 10765 C 1884.09 1.04544 -8.13308 0
M  V30 10766 O 1884.48 2.38311 -8.41922 0
M  V30 10767 C 1884.97 0.491279 -7.02284 0
M  V30 10768 C 1884.26 0.996264 -5.77469 0
M  V30 10769 N 1884.31 0.0501916 -4.62973 0
M  V30 10770 H 1881.47 -0.374722 -8.67691 0
M  V30 10771 H 1881.2 -0.443485 -6.90277 0
M  V30 10772 H 1882.07 1.75537 -7.96793 0
M  V30 10773 P 1886.03 2.75334 -8.47391 0
M  V30 10774 O 1886.25 3.84128 -9.44797 0
M  V30 10775 O 1886.82 1.51947 -8.68712 0
M  V30 10776 O 1886.28 3.29363 -6.99321 0
M  V30 10777 C 1885.34 4.24011 -6.4274 0
M  V30 10778 C 1886.07 5.20775 -5.52155 0
M  V30 10779 O 1886.28 4.56534 -4.22446 0
M  V30 10780 C 1887.47 5.62629 -5.96531 0
M  V30 10781 O 1887.86 6.87667 -5.41053 0
M  V30 10782 C 1888.35 4.52537 -5.39283 0
M  V30 10783 C 1887.64 4.20027 -4.08623 0
M  V30 10784 N 1887.69 2.76189 -3.71603 0
M  V30 10785 C 1887.61 1.64862 -4.52822 0
M  V30 10786 N 1887.69 0.512671 -3.88633 0
M  V30 10787 C 1887.83 0.888083 -2.54977 0
M  V30 10788 C 1887.96 0.094668 -1.38677 0
M  V30 10789 O 1887.98 -1.13053 -1.28163 0
M  V30 10790 N 1888.08 0.890102 -0.232633 0
M  V30 10791 C 1888.08 2.26958 -0.21772 0
M  V30 10792 N 1888.21 2.84626 0.97925 0
M  V30 10793 N 1887.95 3.0178 -1.31033 0
M  V30 10794 C 1887.83 2.26781 -2.43843 0
M  V30 10795 H 1884.85 4.797 -7.24003 0
M  V30 10796 H 1884.58 3.69856 -5.84513 0
M  V30 10797 H 1885.45 6.10356 -5.41441 0
M  V30 10798 H 1888.1 4.79061 -3.27488 0
M  V30 10799 H 1888.38 3.64906 -6.05785 0
M  V30 10800 H 1889.37 4.8868 -5.2125 0
M  V30 10801 H 1887.54 5.66726 -7.06352 0
M  V30 10802 H 1887.49 1.71169 -5.60966 0
M  V30 10803 H 1888.17 0.419134 0.644739 0
M  V30 10804 H 1888.21 3.87332 1.06098 0
M  V30 10805 H 1888.31 2.26417 1.82483 0
M  V30 10806 P 1889.41 7.20834 -5.23717 0
M  V30 10807 O 1889.63 8.66104 -5.38572 0
M  V30 10808 O 1890.2 6.33544 -6.1349 0
M  V30 10809 O 1889.66 6.7751 -3.72168 0
M  V30 10810 C 1888.72 7.20825 -2.7076 0
M  V30 10811 C 1889.45 7.45864 -1.40599 0
M  V30 10812 O 1889.66 6.17651 -0.734225 0
M  V30 10813 C 1890.85 8.05808 -1.51899 0
M  V30 10814 O 1891.24 8.74358 -0.335205 0
M  V30 10815 C 1891.73 6.83093 -1.70294 0
M  V30 10816 C 1891.02 5.79992 -0.836974 0
M  V30 10817 N 1891.07 4.41864 -1.38293 0
M  V30 10818 C 1890.99 3.99538 -2.69438 0
M  V30 10819 N 1891.07 2.69909 -2.84277 0
M  V30 10820 C 1891.21 2.21719 -1.5408 0
M  V30 10821 C 1891.34 0.891712 -1.06628 0
M  V30 10822 N 1891.46 0.856846 0.334985 0
M  V30 10823 C 1891.46 1.9641 1.15789 0
M  V30 10824 N 1891.59 1.72708 2.46522 0
M  V30 10825 N 1891.33 3.21165 0.713741 0
M  V30 10826 C 1891.21 3.26797 -0.639748 0
M  V30 10827 H 1888.23 8.13644 -3.0377 0
M  V30 10828 H 1887.96 6.42788 -2.55485 0
M  V30 10829 H 1888.83 8.12039 -0.792769 0
M  V30 10830 P 1892.79 8.91 -2.29136e-11 0
M  V30 10831 O 1893.01 10.1726 0.733694 0
M  V30 10832 O 1893.58 8.73148 -1.23936 0
M  V30 10833 O 1893.04 7.66872 0.971405 0
M  V30 10834 C 1892.1 7.42309 2.04641 0
M  V30 10835 C 1892.83 6.86059 3.24661 0
M  V30 10836 O 1893.04 5.42847 3.03646 0
M  V30 10837 C 1894.23 7.41196 3.50753 0
M  V30 10838 O 1894.62 7.27073 4.86816 0
M  V30 10839 C 1895.11 6.5273 2.63741 0
M  V30 10840 C 1894.4 5.1842 2.73198 0
M  V30 10841 N 1894.45 4.38762 1.4784 0
M  V30 10842 H 1891.61 8.36803 2.32493 0
M  V30 10843 H 1891.34 6.70197 1.71129 0
M  V30 10844 H 1892.21 7.03551 4.13168 0
M  V30 10845 P 1896.17 7.20834 5.23717 0
M  V30 10846 O 1896.39 7.79853 6.57286 0
M  V30 10847 O 1896.96 7.79239 4.12957 0
M  V30 10848 O 1896.42 5.63315 5.29344 0
M  V30 10849 C 1895.48 4.80255 6.01876 0
M  V30 10850 C 1896.21 3.64202 6.65911 0
M  V30 10851 O 1896.42 2.60694 5.64732 0
M  V30 10852 C 1897.61 3.93473 7.1943 0
M  V30 10853 O 1898 3.02071 8.21205 0
M  V30 10854 C 1898.49 3.73047 5.97036 0
M  V30 10855 C 1897.78 2.58828 5.25741 0
M  V30 10856 N 1897.83 2.68068 3.77503 0
M  V30 10857 H 1894.99 5.40332 6.79951 0
M  V30 10858 H 1894.72 4.41613 5.32378 0
M  V30 10859 H 1895.59 3.26331 7.47797 0
M  V30 10860 P 1899.55 2.75334 8.47391 0
M  V30 10861 O 1899.77 2.44571 9.90142 0
M  V30 10862 O 1900.34 3.87688 7.92115 0
M  V30 10863 O 1899.8 1.4459 7.59357 0
M  V30 10864 C 1898.86 0.347608 7.69215 0
M  V30 10865 C 1899.59 -0.96767 7.52806 0
M  V30 10866 O 1899.8 -1.21036 6.1011 0
M  V30 10867 C 1900.99 -1.04544 8.13308 0
M  V30 10868 O 1901.38 -2.38311 8.41922 0
M  V30 10869 C 1901.87 -0.491279 7.02284 0
M  V30 10870 C 1901.16 -0.996264 5.77469 0
M  V30 10871 N 1901.21 -0.0501916 4.62973 0
M  V30 10872 H 1898.37 0.374722 8.67691 0
M  V30 10873 H 1898.1 0.443485 6.90277 0
M  V30 10874 H 1898.97 -1.75537 7.96793 0
M  V30 10875 P 1902.93 -2.75334 8.47391 0
M  V30 10876 O 1903.15 -3.84128 9.44797 0
M  V30 10877 O 1903.72 -1.51947 8.68712 0
M  V30 10878 O 1903.18 -3.29363 6.99321 0
M  V30 10879 C 1902.24 -4.24011 6.4274 0
M  V30 10880 C 1902.97 -5.20775 5.52155 0
M  V30 10881 O 1903.18 -4.56534 4.22446 0
M  V30 10882 C 1904.37 -5.62629 5.96531 0
M  V30 10883 O 1904.76 -6.87667 5.41053 0
M  V30 10884 C 1905.25 -4.52537 5.39283 0
M  V30 10885 C 1904.54 -4.20027 4.08623 0
M  V30 10886 N 1904.59 -2.76189 3.71603 0
M  V30 10887 H 1901.75 -4.797 7.24003 0
M  V30 10888 H 1901.48 -3.69856 5.84513 0
M  V30 10889 H 1902.35 -6.10356 5.41441 0
M  V30 10890 P 1906.31 -7.20834 5.23717 0
M  V30 10891 O 1906.53 -8.66104 5.38572 0
M  V30 10892 O 1907.1 -6.33544 6.1349 0
M  V30 10893 O 1906.56 -6.7751 3.72168 0
M  V30 10894 C 1905.62 -7.20825 2.7076 0
M  V30 10895 C 1906.35 -7.45864 1.40599 0
M  V30 10896 O 1906.56 -6.17651 0.734225 0
M  V30 10897 C 1907.75 -8.05808 1.51899 0
M  V30 10898 O 1908.14 -8.74358 0.335205 0
M  V30 10899 C 1908.63 -6.83093 1.70294 0
M  V30 10900 C 1907.92 -5.79992 0.836974 0
M  V30 10901 N 1907.97 -4.41864 1.38293 0
M  V30 10902 H 1905.13 -8.13644 3.0377 0
M  V30 10903 H 1904.86 -6.42788 2.55485 0
M  V30 10904 H 1905.73 -8.12039 0.792769 0
M  V30 10905 P 1909.69 -8.91 2.40226e-11 0
M  V30 10906 O 1909.91 -10.1726 -0.733694 0
M  V30 10907 O 1910.48 -8.73148 1.23936 0
M  V30 10908 O 1909.94 -7.66872 -0.971405 0
M  V30 10909 C 1909 -7.42309 -2.04641 0
M  V30 10910 C 1909.73 -6.86059 -3.24661 0
M  V30 10911 O 1909.94 -5.42847 -3.03646 0
M  V30 10912 C 1911.13 -7.41196 -3.50753 0
M  V30 10913 O 1911.52 -7.27073 -4.86816 0
M  V30 10914 C 1912.01 -6.5273 -2.63741 0
M  V30 10915 C 1911.3 -5.1842 -2.73198 0
M  V30 10916 N 1911.35 -4.38762 -1.4784 0
M  V30 10917 H 1908.51 -8.36803 -2.32493 0
M  V30 10918 H 1908.24 -6.70197 -1.71129 0
M  V30 10919 H 1909.11 -7.03551 -4.13168 0
M  V30 10920 P 1913.07 -7.20834 -5.23717 0
M  V30 10921 O 1913.29 -7.79853 -6.57286 0
M  V30 10922 O 1913.86 -7.79239 -4.12957 0
M  V30 10923 O 1913.32 -5.63315 -5.29344 0
M  V30 10924 C 1912.38 -4.80255 -6.01876 0
M  V30 10925 C 1913.11 -3.64202 -6.65911 0
M  V30 10926 O 1913.32 -2.60694 -5.64732 0
M  V30 10927 C 1914.51 -3.93473 -7.1943 0
M  V30 10928 O 1914.9 -3.02071 -8.21205 0
M  V30 10929 C 1915.39 -3.73047 -5.97036 0
M  V30 10930 C 1914.68 -2.58828 -5.25741 0
M  V30 10931 N 1914.73 -2.68068 -3.77503 0
M  V30 10932 H 1911.89 -5.40332 -6.79951 0
M  V30 10933 H 1911.62 -4.41613 -5.32378 0
M  V30 10934 H 1912.49 -3.26331 -7.47797 0
M  V30 10935 P 1916.45 -2.75334 -8.47391 0
M  V30 10936 O 1916.67 -2.44571 -9.90142 0
M  V30 10937 O 1917.24 -3.87688 -7.92115 0
M  V30 10938 O 1916.7 -1.4459 -7.59357 0
M  V30 10939 C 1915.76 -0.347608 -7.69215 0
M  V30 10940 C 1916.49 0.96767 -7.52806 0
M  V30 10941 O 1916.7 1.21036 -6.1011 0
M  V30 10942 C 1917.89 1.04544 -8.13308 0
M  V30 10943 O 1918.28 2.38311 -8.41922 0
M  V30 10944 C 1918.77 0.491279 -7.02284 0
M  V30 10945 C 1918.06 0.996264 -5.77469 0
M  V30 10946 N 1918.11 0.0501916 -4.62973 0
M  V30 10947 H 1915.27 -0.374722 -8.67691 0
M  V30 10948 H 1915 -0.443485 -6.90277 0
M  V30 10949 H 1915.87 1.75537 -7.96793 0
M  V30 10950 P 1919.83 2.75334 -8.47391 0
M  V30 10951 O 1920.05 3.84128 -9.44797 0
M  V30 10952 O 1920.62 1.51947 -8.68712 0
M  V30 10953 O 1920.08 3.29363 -6.99321 0
M  V30 10954 C 1919.14 4.24011 -6.4274 0
M  V30 10955 C 1919.87 5.20775 -5.52155 0
M  V30 10956 O 1920.08 4.56534 -4.22446 0
M  V30 10957 C 1921.27 5.62629 -5.96531 0
M  V30 10958 O 1921.66 6.87667 -5.41053 0
M  V30 10959 C 1922.15 4.52537 -5.39283 0
M  V30 10960 C 1921.44 4.20027 -4.08623 0
M  V30 10961 N 1921.49 2.76189 -3.71603 0
M  V30 10962 C 1921.41 1.64862 -4.52822 0
M  V30 10963 N 1921.49 0.512671 -3.88633 0
M  V30 10964 C 1921.63 0.888083 -2.54977 0
M  V30 10965 C 1921.76 0.094668 -1.38677 0
M  V30 10966 O 1921.78 -1.13053 -1.28163 0
M  V30 10967 N 1921.88 0.890102 -0.232633 0
M  V30 10968 C 1921.88 2.26958 -0.21772 0
M  V30 10969 N 1922.01 2.84626 0.97925 0
M  V30 10970 N 1921.75 3.0178 -1.31033 0
M  V30 10971 C 1921.63 2.26781 -2.43843 0
M  V30 10972 H 1918.65 4.797 -7.24003 0
M  V30 10973 H 1918.38 3.69856 -5.84513 0
M  V30 10974 H 1919.25 6.10356 -5.41441 0
M  V30 10975 H 1921.9 4.79061 -3.27488 0
M  V30 10976 H 1922.18 3.64906 -6.05785 0
M  V30 10977 H 1923.17 4.8868 -5.2125 0
M  V30 10978 H 1921.34 5.66726 -7.06352 0
M  V30 10979 H 1921.29 1.71169 -5.60966 0
M  V30 10980 H 1921.97 0.419134 0.644739 0
M  V30 10981 H 1922.01 3.87332 1.06098 0
M  V30 10982 H 1922.11 2.26417 1.82483 0
M  V30 10983 P 1923.21 7.20834 -5.23717 0
M  V30 10984 O 1923.43 8.66104 -5.38572 0
M  V30 10985 O 1924 6.33544 -6.1349 0
M  V30 10986 O 1923.46 6.7751 -3.72168 0
M  V30 10987 C 1922.52 7.20825 -2.7076 0
M  V30 10988 C 1923.25 7.45864 -1.40599 0
M  V30 10989 O 1923.46 6.17651 -0.734225 0
M  V30 10990 C 1924.65 8.05808 -1.51899 0
M  V30 10991 O 1925.04 8.74358 -0.335205 0
M  V30 10992 C 1925.53 6.83093 -1.70294 0
M  V30 10993 C 1924.82 5.79992 -0.836974 0
M  V30 10994 N 1924.87 4.41864 -1.38293 0
M  V30 10995 H 1922.03 8.13644 -3.0377 0
M  V30 10996 H 1921.76 6.42788 -2.55485 0
M  V30 10997 H 1922.63 8.12039 -0.792769 0
M  V30 10998 P 1926.59 8.91 -2.51316e-11 0
M  V30 10999 O 1926.81 10.1746 0.733838 0
M  V30 11000 O 1927.38 8.73346 -1.23964 0
M  V30 11001 O 1926.84 7.66872 0.971405 0
M  V30 11002 C 1925.9 7.42405 2.04668 0
M  V30 11003 C 1926.63 6.86059 3.24661 0
M  V30 11004 O 1926.84 5.42934 3.03695 0
M  V30 11005 C 1928.03 7.41287 3.50796 0
M  V30 11006 O 1928.42 7.27073 4.86816 0
M  V30 11007 C 1928.91 6.5273 2.63741 0
M  V30 11008 C 1928.2 5.1842 2.73198 0
M  V30 11009 N 1928.25 4.38762 1.4784 0
M  V30 11010 H 1925.41 8.36899 2.3252 0
M  V30 11011 H 1925.14 6.70391 1.71179 0
M  V30 11012 H 1926.01 7.03638 4.13219 0
M  V30 11013 H 1928.66 4.59931 3.54016 0
M  V30 11014 H 1928.94 6.88995 1.59871 0
M  V30 11015 H 1929.93 6.4684 3.0373 0
M  V30 11016 H 1928.1 8.47002 3.20749 0
M  V30 11017 P 1929.97 7.20834 5.23717 0
M  V30 11018 O 1930.19 7.79853 6.57286 0
M  V30 11019 O 1930.76 7.79239 4.12957 0
M  V30 11020 O 1930.22 5.63315 5.29344 0
M  V30 11021 C 1929.28 4.80255 6.01876 0
M  V30 11022 C 1930.01 3.64202 6.65911 0
M  V30 11023 O 1930.22 2.60694 5.64732 0
M  V30 11024 C 1931.41 3.93473 7.1943 0
M  V30 11025 O 1931.8 3.02071 8.21205 0
M  V30 11026 C 1932.29 3.73047 5.97036 0
M  V30 11027 C 1931.58 2.58828 5.25741 0
M  V30 11028 N 1931.63 2.68068 3.77503 0
M  V30 11029 H 1928.79 5.40332 6.79951 0
M  V30 11030 H 1928.52 4.41613 5.32378 0
M  V30 11031 H 1929.39 3.26331 7.47797 0
M  V30 11032 P 1933.35 2.75334 8.47391 0
M  V30 11033 O 1933.57 2.44619 9.90336 0
M  V30 11034 O 1934.14 3.87776 7.92294 0
M  V30 11035 O 1933.6 1.4459 7.59357 0
M  V30 11036 C 1932.66 0.347653 7.69315 0
M  V30 11037 C 1933.39 -0.96767 7.52806 0
M  V30 11038 O 1933.6 -1.21055 6.10208 0
M  V30 11039 C 1934.79 -1.04557 8.13408 0
M  V30 11040 O 1935.18 -2.38311 8.41922 0
M  V30 11041 C 1935.67 -0.491279 7.02284 0
M  V30 11042 C 1934.96 -0.996264 5.77469 0
M  V30 11043 N 1935.01 -0.0501916 4.62973 0
M  V30 11044 C 1934.93 1.31969 4.65661 0
M  V30 11045 N 1935 1.86649 3.48119 0
M  V30 11046 C 1935.15 0.792089 2.62406 0
M  V30 11047 C 1935.28 0.705684 1.2207 0
M  V30 11048 N 1935.29 1.76207 0.413762 0
M  V30 11049 N 1935.4 -0.518981 0.685754 0
M  V30 11050 C 1935.39 -1.57595 1.49174 0
M  V30 11051 N 1935.27 -1.62909 2.80066 0
M  V30 11052 C 1935.15 -0.388195 3.3073 0
M  V30 11053 H 1932.17 0.374765 8.67791 0
M  V30 11054 H 1931.9 0.443613 6.90476 0
M  V30 11055 H 1932.77 -1.75559 7.96891 0
M  V30 11056 H 1935.42 -1.94563 5.46818 0
M  V30 11057 H 1935.7 0.608651 7.04676 0
M  V30 11058 H 1936.69 -0.889796 7.09039 0
M  V30 11059 H 1934.86 -0.433128 9.04664 0
M  V30 11060 H 1934.82 1.89246 5.57664 0
M  V30 11061 H 1935.2 2.71005 0.804694 0
M  V30 11062 H 1935.39 1.63189 -0.603768 0
M  V30 11063 H 1935.5 -2.53475 0.997614 0
M  V30 11064 P 1936.73 -2.75334 8.47391 0
M  V30 11065 O 1936.95 -3.84128 9.44797 0
M  V30 11066 O 1937.52 -1.51947 8.68712 0
M  V30 11067 O 1936.98 -3.29363 6.99321 0
M  V30 11068 C 1936.04 -4.24011 6.4274 0
M  V30 11069 C 1936.77 -5.20775 5.52155 0
M  V30 11070 O 1936.98 -4.56534 4.22446 0
M  V30 11071 C 1938.17 -5.62629 5.96531 0
M  V30 11072 O 1938.56 -6.87667 5.41053 0
M  V30 11073 C 1939.05 -4.52537 5.39283 0
M  V30 11074 C 1938.34 -4.20027 4.08623 0
M  V30 11075 N 1938.39 -2.76189 3.71603 0
M  V30 11076 H 1935.55 -4.797 7.24003 0
M  V30 11077 H 1935.28 -3.69856 5.84513 0
M  V30 11078 H 1936.15 -6.10356 5.41441 0
M  V30 11079 P 1940.11 -7.20834 5.23717 0
M  V30 11080 O 1940.33 -8.66104 5.38572 0
M  V30 11081 O 1940.9 -6.33544 6.1349 0
M  V30 11082 O 1940.36 -6.7751 3.72168 0
M  V30 11083 C 1939.42 -7.20825 2.7076 0
M  V30 11084 C 1940.15 -7.45864 1.40599 0
M  V30 11085 O 1940.36 -6.17651 0.734225 0
M  V30 11086 C 1941.55 -8.05808 1.51899 0
M  V30 11087 O 1941.94 -8.74358 0.335205 0
M  V30 11088 C 1942.43 -6.83093 1.70294 0
M  V30 11089 C 1941.72 -5.79992 0.836974 0
M  V30 11090 N 1941.77 -4.41864 1.38293 0
M  V30 11091 H 1938.93 -8.13644 3.0377 0
M  V30 11092 H 1938.66 -6.42788 2.55485 0
M  V30 11093 H 1939.53 -8.12039 0.792769 0
M  V30 11094 P 1943.49 -8.91 2.62406e-11 0
M  V30 11095 O 1943.71 -10.1726 -0.733694 0
M  V30 11096 O 1944.28 -8.73148 1.23936 0
M  V30 11097 O 1943.74 -7.66872 -0.971405 0
M  V30 11098 C 1942.8 -7.42309 -2.04641 0
M  V30 11099 C 1943.53 -6.86059 -3.24661 0
M  V30 11100 O 1943.74 -5.42847 -3.03646 0
M  V30 11101 C 1944.93 -7.41196 -3.50753 0
M  V30 11102 O 1945.32 -7.27073 -4.86816 0
M  V30 11103 C 1945.81 -6.5273 -2.63741 0
M  V30 11104 C 1945.1 -5.1842 -2.73198 0
M  V30 11105 N 1945.15 -4.38762 -1.4784 0
M  V30 11106 H 1942.31 -8.36803 -2.32493 0
M  V30 11107 H 1942.04 -6.70197 -1.71129 0
M  V30 11108 H 1942.91 -7.03551 -4.13168 0
M  V30 11109 P 1946.87 -7.20834 -5.23717 0
M  V30 11110 O 1947.09 -7.80006 -6.57415 0
M  V30 11111 O 1947.66 -7.79416 -4.13051 0
M  V30 11112 O 1947.12 -5.63315 -5.29344 0
M  V30 11113 C 1946.18 -4.80318 -6.01954 0
M  V30 11114 C 1946.91 -3.64202 -6.65911 0
M  V30 11115 O 1947.12 -2.60736 -5.64823 0
M  V30 11116 C 1948.31 -3.93521 -7.19518 0
M  V30 11117 O 1948.7 -3.02071 -8.21205 0
M  V30 11118 C 1949.19 -3.73047 -5.97036 0
M  V30 11119 C 1948.48 -2.58828 -5.25741 0
M  V30 11120 N 1948.53 -2.68068 -3.77503 0
M  V30 11121 H 1945.69 -5.40394 -6.8003 0
M  V30 11122 H 1945.42 -4.41741 -5.32532 0
M  V30 11123 H 1946.29 -3.26371 -7.47889 0
M  V30 11124 H 1948.94 -1.64007 -5.56746 0
M  V30 11125 H 1949.22 -4.63439 -5.3432 0
M  V30 11126 H 1950.21 -3.44776 -6.25925 0
M  V30 11127 H 1948.38 -4.96707 -7.57347 0
M  V30 11128 P 1950.25 -2.75334 -8.47391 0
M  V30 11129 O 1950.47 -2.44571 -9.90142 0
M  V30 11130 O 1951.04 -3.87688 -7.92115 0
M  V30 11131 O 1950.5 -1.4459 -7.59357 0
M  V30 11132 C 1949.56 -0.347608 -7.69215 0
M  V30 11133 C 1950.29 0.96767 -7.52806 0
M  V30 11134 O 1950.5 1.21036 -6.1011 0
M  V30 11135 C 1951.69 1.04544 -8.13308 0
M  V30 11136 O 1952.08 2.38311 -8.41922 0
M  V30 11137 C 1952.57 0.491279 -7.02284 0
M  V30 11138 C 1951.86 0.996264 -5.77469 0
M  V30 11139 N 1951.91 0.0501916 -4.62973 0
M  V30 11140 H 1949.07 -0.374722 -8.67691 0
M  V30 11141 H 1948.8 -0.443485 -6.90277 0
M  V30 11142 H 1949.67 1.75537 -7.96793 0
M  V30 11143 P 1953.63 2.75334 -8.47391 0
M  V30 11144 O 1953.85 3.84128 -9.44797 0
M  V30 11145 O 1954.42 1.51947 -8.68712 0
M  V30 11146 O 1953.88 3.29363 -6.99321 0
M  V30 11147 C 1952.94 4.24011 -6.4274 0
M  V30 11148 C 1953.67 5.20775 -5.52155 0
M  V30 11149 O 1953.88 4.56534 -4.22446 0
M  V30 11150 C 1955.07 5.62629 -5.96531 0
M  V30 11151 O 1955.46 6.87667 -5.41053 0
M  V30 11152 C 1955.95 4.52537 -5.39283 0
M  V30 11153 C 1955.24 4.20027 -4.08623 0
M  V30 11154 N 1955.29 2.76189 -3.71603 0
M  V30 11155 H 1952.45 4.797 -7.24003 0
M  V30 11156 H 1952.18 3.69856 -5.84513 0
M  V30 11157 H 1953.05 6.10356 -5.41441 0
M  V30 11158 P 1957.01 7.20834 -5.23717 0
M  V30 11159 O 1957.23 8.66104 -5.38572 0
M  V30 11160 O 1957.8 6.33544 -6.1349 0
M  V30 11161 O 1957.26 6.7751 -3.72168 0
M  V30 11162 C 1956.32 7.20825 -2.7076 0
M  V30 11163 C 1957.05 7.45864 -1.40599 0
M  V30 11164 O 1957.26 6.17651 -0.734225 0
M  V30 11165 C 1958.45 8.05808 -1.51899 0
M  V30 11166 O 1958.84 8.74358 -0.335205 0
M  V30 11167 C 1959.33 6.83093 -1.70294 0
M  V30 11168 C 1958.62 5.79992 -0.836974 0
M  V30 11169 N 1958.67 4.41864 -1.38293 0
M  V30 11170 H 1955.83 8.13644 -3.0377 0
M  V30 11171 H 1955.56 6.42788 -2.55485 0
M  V30 11172 H 1956.43 8.12039 -0.792769 0
M  V30 11173 P 1960.39 8.91 -2.73496e-11 0
M  V30 11174 O 1960.61 10.1746 0.733838 0
M  V30 11175 O 1961.18 8.73346 -1.23964 0
M  V30 11176 O 1960.64 7.66872 0.971405 0
M  V30 11177 C 1959.7 7.42405 2.04668 0
M  V30 11178 C 1960.43 6.86059 3.24661 0
M  V30 11179 O 1960.64 5.42934 3.03695 0
M  V30 11180 C 1961.83 7.41287 3.50796 0
M  V30 11181 O 1962.22 7.27073 4.86816 0
M  V30 11182 C 1962.71 6.5273 2.63741 0
M  V30 11183 C 1962 5.1842 2.73198 0
M  V30 11184 N 1962.05 4.38762 1.4784 0
M  V30 11185 C 1961.97 4.83651 0.183876 0
M  V30 11186 N 1962.04 3.88759 -0.699393 0
M  V30 11187 C 1962.19 2.7404 0.0575568 0
M  V30 11188 C 1962.32 1.37902 -0.293928 0
M  V30 11189 N 1962.33 0.938021 -1.54797 0
M  V30 11190 N 1962.44 0.491817 0.70549 0
M  V30 11191 C 1962.43 0.931735 1.95979 0
M  V30 11192 N 1962.31 2.16017 2.41481 0
M  V30 11193 C 1962.19 3.02547 1.39121 0
M  V30 11194 H 1959.21 8.36899 2.3252 0
M  V30 11195 H 1958.94 6.70391 1.71179 0
M  V30 11196 H 1959.81 7.03638 4.13219 0
M  V30 11197 H 1962.46 4.59931 3.54016 0
M  V30 11198 H 1962.74 6.88995 1.59871 0
M  V30 11199 H 1963.73 6.4684 3.0373 0
M  V30 11200 H 1961.9 8.47002 3.20749 0
M  V30 11201 H 1961.86 5.8885 -0.0765548 0
M  V30 11202 H 1962.24 1.60276 -2.32875 0
M  V30 11203 H 1962.43 -0.0699355 -1.73859 0
M  V30 11204 H 1962.54 0.165507 2.71897 0
M  V30 11205 P 1963.77 7.20834 5.23717 0
M  V30 11206 O 1963.99 7.79853 6.57286 0
M  V30 11207 O 1964.56 7.79239 4.12957 0
M  V30 11208 O 1964.02 5.63315 5.29344 0
M  V30 11209 C 1963.08 4.80255 6.01876 0
M  V30 11210 C 1963.81 3.64202 6.65911 0
M  V30 11211 O 1964.02 2.60694 5.64732 0
M  V30 11212 C 1965.21 3.93473 7.1943 0
M  V30 11213 O 1965.6 3.02071 8.21205 0
M  V30 11214 C 1966.09 3.73047 5.97036 0
M  V30 11215 C 1965.38 2.58828 5.25741 0
M  V30 11216 N 1965.43 2.68068 3.77503 0
M  V30 11217 H 1962.59 5.40332 6.79951 0
M  V30 11218 H 1962.32 4.41613 5.32378 0
M  V30 11219 H 1963.19 3.26331 7.47797 0
M  V30 11220 P 1967.15 2.75334 8.47391 0
M  V30 11221 O 1967.37 2.44619 9.90336 0
M  V30 11222 O 1967.94 3.87776 7.92294 0
M  V30 11223 O 1967.4 1.4459 7.59357 0
M  V30 11224 C 1966.46 0.347653 7.69315 0
M  V30 11225 C 1967.19 -0.96767 7.52806 0
M  V30 11226 O 1967.4 -1.21055 6.10208 0
M  V30 11227 C 1968.59 -1.04557 8.13408 0
M  V30 11228 O 1968.98 -2.38311 8.41922 0
M  V30 11229 C 1969.47 -0.491279 7.02284 0
M  V30 11230 C 1968.76 -0.996264 5.77469 0
M  V30 11231 N 1968.81 -0.0501916 4.62973 0
M  V30 11232 C 1968.73 1.31969 4.65661 0
M  V30 11233 N 1968.8 1.86649 3.48119 0
M  V30 11234 C 1968.95 0.792089 2.62406 0
M  V30 11235 C 1969.08 0.705684 1.2207 0
M  V30 11236 N 1969.09 1.76207 0.413762 0
M  V30 11237 N 1969.2 -0.518981 0.685754 0
M  V30 11238 C 1969.19 -1.57595 1.49174 0
M  V30 11239 N 1969.07 -1.62909 2.80066 0
M  V30 11240 C 1968.95 -0.388195 3.3073 0
M  V30 11241 H 1965.97 0.374765 8.67791 0
M  V30 11242 H 1965.7 0.443613 6.90476 0
M  V30 11243 H 1966.57 -1.75559 7.96891 0
M  V30 11244 H 1969.22 -1.94563 5.46818 0
M  V30 11245 H 1969.5 0.608651 7.04676 0
M  V30 11246 H 1970.49 -0.889796 7.09039 0
M  V30 11247 H 1968.66 -0.433128 9.04664 0
M  V30 11248 H 1968.62 1.89246 5.57664 0
M  V30 11249 H 1969 2.71005 0.804694 0
M  V30 11250 H 1969.19 1.63189 -0.603768 0
M  V30 11251 H 1969.3 -2.53475 0.997614 0
M  V30 11252 P 1970.53 -2.75334 8.47391 0
M  V30 11253 O 1970.75 -3.84128 9.44797 0
M  V30 11254 O 1971.32 -1.51947 8.68712 0
M  V30 11255 O 1970.78 -3.29363 6.99321 0
M  V30 11256 C 1969.84 -4.24011 6.4274 0
M  V30 11257 C 1970.57 -5.20775 5.52155 0
M  V30 11258 O 1970.78 -4.56534 4.22446 0
M  V30 11259 C 1971.97 -5.62629 5.96531 0
M  V30 11260 O 1972.36 -6.87667 5.41053 0
M  V30 11261 C 1972.85 -4.52537 5.39283 0
M  V30 11262 C 1972.14 -4.20027 4.08623 0
M  V30 11263 N 1972.19 -2.76189 3.71603 0
M  V30 11264 H 1969.35 -4.797 7.24003 0
M  V30 11265 H 1969.08 -3.69856 5.84513 0
M  V30 11266 H 1969.95 -6.10356 5.41441 0
M  V30 11267 P 1973.91 -7.20834 5.23717 0
M  V30 11268 O 1974.13 -8.66104 5.38572 0
M  V30 11269 O 1974.7 -6.33544 6.1349 0
M  V30 11270 O 1974.16 -6.7751 3.72168 0
M  V30 11271 C 1973.22 -7.20825 2.7076 0
M  V30 11272 C 1973.95 -7.45864 1.40599 0
M  V30 11273 O 1974.16 -6.17651 0.734225 0
M  V30 11274 C 1975.35 -8.05808 1.51899 0
M  V30 11275 O 1975.74 -8.74358 0.335205 0
M  V30 11276 C 1976.23 -6.83093 1.70294 0
M  V30 11277 C 1975.52 -5.79992 0.836974 0
M  V30 11278 N 1975.57 -4.41864 1.38293 0
M  V30 11279 C 1975.49 -3.99538 2.69438 0
M  V30 11280 N 1975.57 -2.69909 2.84277 0
M  V30 11281 C 1975.71 -2.21719 1.5408 0
M  V30 11282 C 1975.84 -0.891712 1.06628 0
M  V30 11283 O 1975.86 0.161298 1.70137 0
M  V30 11284 N 1975.96 -0.856846 -0.334985 0
M  V30 11285 C 1975.96 -1.9641 -1.15789 0
M  V30 11286 N 1976.09 -1.72708 -2.46522 0
M  V30 11287 N 1975.83 -3.21165 -0.713741 0
M  V30 11288 C 1975.71 -3.26797 0.639748 0
M  V30 11289 H 1972.73 -8.13644 3.0377 0
M  V30 11290 H 1972.46 -6.42788 2.55485 0
M  V30 11291 H 1973.33 -8.12039 0.792769 0
M  V30 11292 H 1975.98 -5.80061 -0.166416 0
M  V30 11293 H 1976.26 -6.51287 2.75604 0
M  V30 11294 H 1977.25 -7.01734 1.34462 0
M  V30 11295 H 1975.42 -8.73674 2.38337 0
M  V30 11296 H 1975.37 -4.68207 3.53221 0
M  V30 11297 H 1976.05 0.0398818 -0.767965 0
M  V30 11298 H 1976.09 -2.50995 -3.13503 0
M  V30 11299 H 1976.19 -0.759148 -2.80716 0
M  V30 11300 P 1977.29 -8.91 2.84586e-11 0
M  V30 11301 O 1977.51 -10.1746 -0.733838 0
M  V30 11302 O 1978.08 -8.73346 1.23964 0
M  V30 11303 O 1977.54 -7.66872 -0.971405 0
M  V30 11304 C 1976.6 -7.42405 -2.04668 0
M  V30 11305 C 1977.33 -6.86059 -3.24661 0
M  V30 11306 O 1977.54 -5.42934 -3.03695 0
M  V30 11307 C 1978.73 -7.41287 -3.50796 0
M  V30 11308 O 1979.12 -7.27073 -4.86816 0
M  V30 11309 C 1979.61 -6.5273 -2.63741 0
M  V30 11310 C 1978.9 -5.1842 -2.73198 0
M  V30 11311 N 1978.95 -4.38762 -1.4784 0
M  V30 11312 C 1978.87 -4.83651 -0.183876 0
M  V30 11313 N 1978.94 -3.88759 0.699393 0
M  V30 11314 C 1979.09 -2.7404 -0.0575568 0
M  V30 11315 C 1979.22 -1.37902 0.293928 0
M  V30 11316 N 1979.23 -0.938021 1.54797 0
M  V30 11317 N 1979.34 -0.491817 -0.70549 0
M  V30 11318 C 1979.33 -0.931735 -1.95979 0
M  V30 11319 N 1979.21 -2.16017 -2.41481 0
M  V30 11320 C 1979.09 -3.02547 -1.39121 0
M  V30 11321 H 1976.11 -8.36899 -2.3252 0
M  V30 11322 H 1975.84 -6.70391 -1.71179 0
M  V30 11323 H 1976.71 -7.03638 -4.13219 0
M  V30 11324 H 1979.36 -4.59931 -3.54016 0
M  V30 11325 H 1979.64 -6.88995 -1.59871 0
M  V30 11326 H 1980.63 -6.4684 -3.0373 0
M  V30 11327 H 1978.8 -8.47002 -3.20749 0
M  V30 11328 H 1978.76 -5.8885 0.0765548 0
M  V30 11329 H 1979.14 -1.60276 2.32875 0
M  V30 11330 H 1979.33 0.0699355 1.73859 0
M  V30 11331 H 1979.44 -0.165507 -2.71897 0
M  V30 11332 P 1980.67 -7.20834 -5.23717 0
M  V30 11333 O 1980.89 -7.79853 -6.57286 0
M  V30 11334 O 1981.46 -7.79239 -4.12957 0
M  V30 11335 O 1980.92 -5.63315 -5.29344 0
M  V30 11336 C 1979.98 -4.80255 -6.01876 0
M  V30 11337 C 1980.71 -3.64202 -6.65911 0
M  V30 11338 O 1980.92 -2.60694 -5.64732 0
M  V30 11339 C 1982.11 -3.93473 -7.1943 0
M  V30 11340 O 1982.5 -3.02071 -8.21205 0
M  V30 11341 C 1982.99 -3.73047 -5.97036 0
M  V30 11342 C 1982.28 -2.58828 -5.25741 0
M  V30 11343 N 1982.33 -2.68068 -3.77503 0
M  V30 11344 H 1979.49 -5.40332 -6.79951 0
M  V30 11345 H 1979.22 -4.41613 -5.32378 0
M  V30 11346 H 1980.09 -3.26331 -7.47797 0
M  V30 11347 P 1984.05 -2.75334 -8.47391 0
M  V30 11348 O 1984.27 -2.44571 -9.90142 0
M  V30 11349 O 1984.84 -3.87688 -7.92115 0
M  V30 11350 O 1984.3 -1.4459 -7.59357 0
M  V30 11351 C 1983.36 -0.347608 -7.69215 0
M  V30 11352 C 1984.09 0.96767 -7.52806 0
M  V30 11353 O 1984.3 1.21036 -6.1011 0
M  V30 11354 C 1985.49 1.04544 -8.13308 0
M  V30 11355 O 1985.88 2.38311 -8.41922 0
M  V30 11356 C 1986.37 0.491279 -7.02284 0
M  V30 11357 C 1985.66 0.996264 -5.77469 0
M  V30 11358 N 1985.71 0.0501916 -4.62973 0
M  V30 11359 H 1982.87 -0.374722 -8.67691 0
M  V30 11360 H 1982.6 -0.443485 -6.90277 0
M  V30 11361 H 1983.47 1.75537 -7.96793 0
M  V30 11362 P 1987.43 2.75334 -8.47391 0
M  V30 11363 O 1987.65 3.84128 -9.44797 0
M  V30 11364 O 1988.22 1.51947 -8.68712 0
M  V30 11365 O 1987.68 3.29363 -6.99321 0
M  V30 11366 C 1986.74 4.24011 -6.4274 0
M  V30 11367 C 1987.47 5.20775 -5.52155 0
M  V30 11368 O 1987.68 4.56534 -4.22446 0
M  V30 11369 C 1988.87 5.62629 -5.96531 0
M  V30 11370 O 1989.26 6.87667 -5.41053 0
M  V30 11371 C 1989.75 4.52537 -5.39283 0
M  V30 11372 C 1989.04 4.20027 -4.08623 0
M  V30 11373 N 1989.09 2.76189 -3.71603 0
M  V30 11374 H 1986.25 4.797 -7.24003 0
M  V30 11375 H 1985.98 3.69856 -5.84513 0
M  V30 11376 H 1986.85 6.10356 -5.41441 0
M  V30 11377 P 1990.81 7.20834 -5.23717 0
M  V30 11378 O 1991.03 8.66104 -5.38572 0
M  V30 11379 O 1991.6 6.33544 -6.1349 0
M  V30 11380 O 1991.06 6.7751 -3.72168 0
M  V30 11381 C 1990.12 7.20825 -2.7076 0
M  V30 11382 C 1990.85 7.45864 -1.40599 0
M  V30 11383 O 1991.06 6.17651 -0.734225 0
M  V30 11384 C 1992.25 8.05808 -1.51899 0
M  V30 11385 O 1992.64 8.74358 -0.335205 0
M  V30 11386 C 1993.13 6.83093 -1.70294 0
M  V30 11387 C 1992.42 5.79992 -0.836974 0
M  V30 11388 N 1992.47 4.41864 -1.38293 0
M  V30 11389 H 1989.63 8.13644 -3.0377 0
M  V30 11390 H 1989.36 6.42788 -2.55485 0
M  V30 11391 H 1990.23 8.12039 -0.792769 0
M  V30 11392 P 1994.19 8.91 -2.95676e-11 0
M  V30 11393 O 1994.41 10.1726 0.733694 0
M  V30 11394 O 1994.98 8.73148 -1.23936 0
M  V30 11395 O 1994.44 7.66872 0.971405 0
M  V30 11396 C 1993.5 7.42309 2.04641 0
M  V30 11397 C 1994.23 6.86059 3.24661 0
M  V30 11398 O 1994.44 5.42847 3.03646 0
M  V30 11399 C 1995.63 7.41196 3.50753 0
M  V30 11400 O 1996.02 7.27073 4.86816 0
M  V30 11401 C 1996.51 6.5273 2.63741 0
M  V30 11402 C 1995.8 5.1842 2.73198 0
M  V30 11403 N 1995.85 4.38762 1.4784 0
M  V30 11404 H 1993.01 8.36803 2.32493 0
M  V30 11405 H 1992.74 6.70197 1.71129 0
M  V30 11406 H 1993.61 7.03551 4.13168 0
M  V30 11407 P 1997.57 7.20834 5.23717 0
M  V30 11408 O 1997.79 7.79853 6.57286 0
M  V30 11409 O 1998.36 7.79239 4.12957 0
M  V30 11410 O 1997.82 5.63315 5.29344 0
M  V30 11411 C 1996.88 4.80255 6.01876 0
M  V30 11412 C 1997.61 3.64202 6.65911 0
M  V30 11413 O 1997.82 2.60694 5.64732 0
M  V30 11414 C 1999.01 3.93473 7.1943 0
M  V30 11415 O 1999.4 3.02071 8.21205 0
M  V30 11416 C 1999.89 3.73047 5.97036 0
M  V30 11417 C 1999.18 2.58828 5.25741 0
M  V30 11418 N 1999.23 2.68068 3.77503 0
M  V30 11419 H 1996.39 5.40332 6.79951 0
M  V30 11420 H 1996.12 4.41613 5.32378 0
M  V30 11421 H 1996.99 3.26331 7.47797 0
M  V30 11422 P 2000.95 2.75334 8.47391 0
M  V30 11423 O 2001.17 2.44571 9.90142 0
M  V30 11424 O 2001.74 3.87688 7.92115 0
M  V30 11425 O 2001.2 1.4459 7.59357 0
M  V30 11426 C 2000.26 0.347608 7.69215 0
M  V30 11427 C 2000.99 -0.96767 7.52806 0
M  V30 11428 O 2001.2 -1.21036 6.1011 0
M  V30 11429 C 2002.39 -1.04544 8.13308 0
M  V30 11430 O 2002.78 -2.38311 8.41922 0
M  V30 11431 C 2003.27 -0.491279 7.02284 0
M  V30 11432 C 2002.56 -0.996264 5.77469 0
M  V30 11433 N 2002.61 -0.0501916 4.62973 0
M  V30 11434 H 1999.77 0.374722 8.67691 0
M  V30 11435 H 1999.5 0.443485 6.90277 0
M  V30 11436 H 2000.37 -1.75537 7.96793 0
M  V30 11437 P 2004.33 -2.75334 8.47391 0
M  V30 11438 O 2004.55 -3.84128 9.44797 0
M  V30 11439 O 2005.12 -1.51947 8.68712 0
M  V30 11440 O 2004.58 -3.29363 6.99321 0
M  V30 11441 C 2003.64 -4.24011 6.4274 0
M  V30 11442 C 2004.37 -5.20775 5.52155 0
M  V30 11443 O 2004.58 -4.56534 4.22446 0
M  V30 11444 C 2005.77 -5.62629 5.96531 0
M  V30 11445 O 2006.16 -6.87667 5.41053 0
M  V30 11446 C 2006.65 -4.52537 5.39283 0
M  V30 11447 C 2005.94 -4.20027 4.08623 0
M  V30 11448 N 2005.99 -2.76189 3.71603 0
M  V30 11449 H 2003.15 -4.797 7.24003 0
M  V30 11450 H 2002.88 -3.69856 5.84513 0
M  V30 11451 H 2003.75 -6.10356 5.41441 0
M  V30 11452 P 2007.71 -7.20834 5.23717 0
M  V30 11453 O 2007.93 -8.66104 5.38572 0
M  V30 11454 O 2008.5 -6.33544 6.1349 0
M  V30 11455 O 2007.96 -6.7751 3.72168 0
M  V30 11456 C 2007.02 -7.20825 2.7076 0
M  V30 11457 C 2007.75 -7.45864 1.40599 0
M  V30 11458 O 2007.96 -6.17651 0.734225 0
M  V30 11459 C 2009.15 -8.05808 1.51899 0
M  V30 11460 O 2009.54 -8.74358 0.335205 0
M  V30 11461 C 2010.03 -6.83093 1.70294 0
M  V30 11462 C 2009.32 -5.79992 0.836974 0
M  V30 11463 N 2009.37 -4.41864 1.38293 0
M  V30 11464 H 2006.53 -8.13644 3.0377 0
M  V30 11465 H 2006.26 -6.42788 2.55485 0
M  V30 11466 H 2007.13 -8.12039 0.792769 0
M  V30 11467 P 2011.09 -8.91 3.06766e-11 0
M  V30 11468 O 2011.31 -10.1726 -0.733694 0
M  V30 11469 O 2011.88 -8.73148 1.23936 0
M  V30 11470 O 2011.34 -7.66872 -0.971405 0
M  V30 11471 C 2010.4 -7.42309 -2.04641 0
M  V30 11472 C 2011.13 -6.86059 -3.24661 0
M  V30 11473 O 2011.34 -5.42847 -3.03646 0
M  V30 11474 C 2012.53 -7.41196 -3.50753 0
M  V30 11475 O 2012.92 -7.27073 -4.86816 0
M  V30 11476 C 2013.41 -6.5273 -2.63741 0
M  V30 11477 C 2012.7 -5.1842 -2.73198 0
M  V30 11478 N 2012.75 -4.38762 -1.4784 0
M  V30 11479 H 2009.91 -8.36803 -2.32493 0
M  V30 11480 H 2009.64 -6.70197 -1.71129 0
M  V30 11481 H 2010.51 -7.03551 -4.13168 0
M  V30 11482 P 2014.47 -7.20834 -5.23717 0
M  V30 11483 O 2014.69 -7.79853 -6.57286 0
M  V30 11484 O 2015.26 -7.79239 -4.12957 0
M  V30 11485 O 2014.72 -5.63315 -5.29344 0
M  V30 11486 C 2013.78 -4.80255 -6.01876 0
M  V30 11487 C 2014.51 -3.64202 -6.65911 0
M  V30 11488 O 2014.72 -2.60694 -5.64732 0
M  V30 11489 C 2015.91 -3.93473 -7.1943 0
M  V30 11490 O 2016.3 -3.02071 -8.21205 0
M  V30 11491 C 2016.79 -3.73047 -5.97036 0
M  V30 11492 C 2016.08 -2.58828 -5.25741 0
M  V30 11493 N 2016.13 -2.68068 -3.77503 0
M  V30 11494 H 2013.29 -5.40332 -6.79951 0
M  V30 11495 H 2013.02 -4.41613 -5.32378 0
M  V30 11496 H 2013.89 -3.26331 -7.47797 0
M  V30 11497 P 2017.85 -2.75334 -8.47391 0
M  V30 11498 O 2018.07 -2.44571 -9.90142 0
M  V30 11499 O 2018.64 -3.87688 -7.92115 0
M  V30 11500 O 2018.1 -1.4459 -7.59357 0
M  V30 11501 C 2017.16 -0.347608 -7.69215 0
M  V30 11502 C 2017.89 0.96767 -7.52806 0
M  V30 11503 O 2018.1 1.21036 -6.1011 0
M  V30 11504 C 2019.29 1.04544 -8.13308 0
M  V30 11505 O 2019.68 2.38311 -8.41922 0
M  V30 11506 C 2020.17 0.491279 -7.02284 0
M  V30 11507 C 2019.46 0.996264 -5.77469 0
M  V30 11508 N 2019.51 0.0501916 -4.62973 0
M  V30 11509 H 2016.67 -0.374722 -8.67691 0
M  V30 11510 H 2016.4 -0.443485 -6.90277 0
M  V30 11511 H 2017.27 1.75537 -7.96793 0
M  V30 11512 P 2021.23 2.75334 -8.47391 0
M  V30 11513 O 2021.45 3.84128 -9.44797 0
M  V30 11514 O 2022.02 1.51947 -8.68712 0
M  V30 11515 O 2021.48 3.29363 -6.99321 0
M  V30 11516 C 2020.54 4.24011 -6.4274 0
M  V30 11517 C 2021.27 5.20775 -5.52155 0
M  V30 11518 O 2021.48 4.56534 -4.22446 0
M  V30 11519 C 2022.67 5.62629 -5.96531 0
M  V30 11520 O 2023.06 6.87667 -5.41053 0
M  V30 11521 C 2023.55 4.52537 -5.39283 0
M  V30 11522 C 2022.84 4.20027 -4.08623 0
M  V30 11523 N 2022.89 2.76189 -3.71603 0
M  V30 11524 H 2020.05 4.797 -7.24003 0
M  V30 11525 H 2019.78 3.69856 -5.84513 0
M  V30 11526 H 2020.65 6.10356 -5.41441 0
M  V30 11527 P 2024.61 7.20834 -5.23717 0
M  V30 11528 O 2024.83 8.66104 -5.38572 0
M  V30 11529 O 2025.4 6.33544 -6.1349 0
M  V30 11530 O 2024.86 6.7751 -3.72168 0
M  V30 11531 C 2023.92 7.20825 -2.7076 0
M  V30 11532 C 2024.65 7.45864 -1.40599 0
M  V30 11533 O 2024.86 6.17651 -0.734225 0
M  V30 11534 C 2026.05 8.05808 -1.51899 0
M  V30 11535 O 2026.44 8.74358 -0.335205 0
M  V30 11536 C 2026.93 6.83093 -1.70294 0
M  V30 11537 C 2026.22 5.79992 -0.836974 0
M  V30 11538 N 2026.27 4.41864 -1.38293 0
M  V30 11539 H 2023.43 8.13644 -3.0377 0
M  V30 11540 H 2023.16 6.42788 -2.55485 0
M  V30 11541 H 2024.03 8.12039 -0.792769 0
M  V30 11542 P 2027.99 8.91 -3.17856e-11 0
M  V30 11543 O 2028.21 10.1726 0.733694 0
M  V30 11544 O 2028.78 8.73148 -1.23936 0
M  V30 11545 O 2028.24 7.66872 0.971405 0
M  V30 11546 C 2027.3 7.42309 2.04641 0
M  V30 11547 C 2028.03 6.86059 3.24661 0
M  V30 11548 O 2028.24 5.42847 3.03646 0
M  V30 11549 C 2029.43 7.41196 3.50753 0
M  V30 11550 O 2029.82 7.27073 4.86816 0
M  V30 11551 C 2030.31 6.5273 2.63741 0
M  V30 11552 C 2029.6 5.1842 2.73198 0
M  V30 11553 N 2029.65 4.38762 1.4784 0
M  V30 11554 C 2029.57 4.81605 0.168631 0
M  V30 11555 N 2029.65 3.85454 -0.713363 0
M  V30 11556 C 2029.79 2.6994 0.0566958 0
M  V30 11557 C 2029.92 1.34815 -0.338502 0
M  V30 11558 O 2029.94 0.869548 -1.47125 0
M  V30 11559 N 2030.04 0.496304 0.77465 0
M  V30 11560 C 2030.04 0.908403 2.09122 0
M  V30 11561 N 2030.17 -0.0517805 3.00955 0
M  V30 11562 N 2029.91 2.17875 2.46519 0
M  V30 11563 C 2029.79 3.01988 1.4033 0
M  V30 11564 H 2026.81 8.36803 2.32493 0
M  V30 11565 H 2026.54 6.70197 1.71129 0
M  V30 11566 H 2027.41 7.03551 4.13168 0
M  V30 11567 H 2030.06 4.59498 3.54415 0
M  V30 11568 H 2030.34 6.88898 1.59848 0
M  V30 11569 H 2031.33 6.46749 3.03687 0
M  V30 11570 H 2029.5 8.46908 3.20714 0
M  V30 11571 H 2029.45 5.86405 -0.105564 0
M  V30 11572 H 2030.13 -0.483664 0.597855 0
M  V30 11573 H 2030.17 0.187865 4.0116 0
M  V30 11574 H 2030.27 -1.03585 2.71726 0
M  V30 11575 P 2031.37 7.20834 5.23717 0
M  V30 11576 O 2031.59 7.79853 6.57286 0
M  V30 11577 O 2032.16 7.79239 4.12957 0
M  V30 11578 O 2031.62 5.63315 5.29344 0
M  V30 11579 C 2030.68 4.80255 6.01876 0
M  V30 11580 C 2031.41 3.64202 6.65911 0
M  V30 11581 O 2031.62 2.60694 5.64732 0
M  V30 11582 C 2032.81 3.93473 7.1943 0
M  V30 11583 O 2033.2 3.02071 8.21205 0
M  V30 11584 C 2033.69 3.73047 5.97036 0
M  V30 11585 C 2032.98 2.58828 5.25741 0
M  V30 11586 N 2033.03 2.68068 3.77503 0
M  V30 11587 H 2030.19 5.40332 6.79951 0
M  V30 11588 H 2029.92 4.41613 5.32378 0
M  V30 11589 H 2030.79 3.26331 7.47797 0
M  V30 11590 P 2034.75 2.75334 8.47391 0
M  V30 11591 O 2034.97 2.44571 9.90142 0
M  V30 11592 O 2035.54 3.87688 7.92115 0
M  V30 11593 O 2035 1.4459 7.59357 0
M  V30 11594 C 2034.06 0.347608 7.69215 0
M  V30 11595 C 2034.79 -0.96767 7.52806 0
M  V30 11596 O 2035 -1.21036 6.1011 0
M  V30 11597 C 2036.19 -1.04544 8.13308 0
M  V30 11598 O 2036.58 -2.38311 8.41922 0
M  V30 11599 C 2037.07 -0.491279 7.02284 0
M  V30 11600 C 2036.36 -0.996264 5.77469 0
M  V30 11601 N 2036.41 -0.0501916 4.62973 0
M  V30 11602 H 2033.57 0.374722 8.67691 0
M  V30 11603 H 2033.3 0.443485 6.90277 0
M  V30 11604 H 2034.17 -1.75537 7.96793 0
M  V30 11605 P 2038.13 -2.75334 8.47391 0
M  V30 11606 O 2038.35 -3.84204 9.44982 0
M  V30 11607 O 2038.92 -1.51982 8.68909 0
M  V30 11608 O 2038.38 -3.29363 6.99321 0
M  V30 11609 C 2037.44 -4.24066 6.42823 0
M  V30 11610 C 2038.17 -5.20775 5.52155 0
M  V30 11611 O 2038.38 -4.56607 4.22514 0
M  V30 11612 C 2039.57 -5.62697 5.96604 0
M  V30 11613 O 2039.96 -6.87667 5.41053 0
M  V30 11614 C 2040.45 -4.52537 5.39283 0
M  V30 11615 C 2039.74 -4.20027 4.08623 0
M  V30 11616 N 2039.79 -2.76189 3.71603 0
M  V30 11617 C 2039.71 -1.66944 4.54297 0
M  V30 11618 N 2039.78 -0.536169 3.91344 0
M  V30 11619 C 2039.93 -0.901569 2.58849 0
M  V30 11620 C 2040.06 -0.146599 1.40236 0
M  V30 11621 N 2040.07 1.18234 1.37046 0
M  V30 11622 N 2040.18 -0.822941 0.249738 0
M  V30 11623 C 2040.17 -2.15179 0.280525 0
M  V30 11624 N 2040.05 -2.96414 1.30822 0
M  V30 11625 C 2039.93 -2.25804 2.44748 0
M  V30 11626 H 2036.95 -4.79756 7.24086 0
M  V30 11627 H 2036.68 -3.69963 5.84682 0
M  V30 11628 H 2037.55 -6.10431 5.41508 0
M  V30 11629 H 2040.2 -4.78816 3.28024 0
M  V30 11630 H 2040.48 -3.64957 6.05871 0
M  V30 11631 H 2041.47 -4.88748 5.21323 0
M  V30 11632 H 2039.64 -5.66789 7.0643 0
M  V30 11633 H 2039.6 -1.74684 5.62396 0
M  V30 11634 H 2039.98 1.71949 2.24394 0
M  V30 11635 H 2040.17 1.67511 0.470742 0
M  V30 11636 H 2040.27 -2.63704 -0.6828 0
M  V30 11637 P 2041.51 -7.20834 5.23717 0
M  V30 11638 O 2041.73 -8.66274 5.38678 0
M  V30 11639 O 2042.3 -6.33687 6.13629 0
M  V30 11640 O 2041.76 -6.7751 3.72168 0
M  V30 11641 C 2040.82 -7.20919 2.70795 0
M  V30 11642 C 2041.55 -7.45864 1.40599 0
M  V30 11643 O 2041.76 -6.17751 0.734343 0
M  V30 11644 C 2042.95 -8.05906 1.51917 0
M  V30 11645 O 2043.34 -8.74358 0.335205 0
M  V30 11646 C 2043.83 -6.83093 1.70294 0
M  V30 11647 C 2043.12 -5.79992 0.836974 0
M  V30 11648 N 2043.17 -4.41864 1.38293 0
M  V30 11649 H 2040.33 -8.13738 3.03804 0
M  V30 11650 H 2040.06 -6.42974 2.55559 0
M  V30 11651 H 2040.93 -8.12139 0.792866 0
M  V30 11652 H 2043.58 -5.80178 -0.160643 0
M  V30 11653 H 2043.86 -6.51379 2.75643 0
M  V30 11654 H 2044.85 -7.01832 1.3448 0
M  V30 11655 H 2043.02 -8.73771 2.38364 0
M  V30 11656 P 2044.89 -8.91 3.28946e-11 0
M  V30 11657 O 2045.11 -10.1726 -0.733694 0
M  V30 11658 O 2045.68 -8.73148 1.23936 0
M  V30 11659 O 2045.14 -7.66872 -0.971405 0
M  V30 11660 C 2044.2 -7.42309 -2.04641 0
M  V30 11661 C 2044.93 -6.86059 -3.24661 0
M  V30 11662 O 2045.14 -5.42847 -3.03646 0
M  V30 11663 C 2046.33 -7.41196 -3.50753 0
M  V30 11664 O 2046.72 -7.27073 -4.86816 0
M  V30 11665 C 2047.21 -6.5273 -2.63741 0
M  V30 11666 C 2046.5 -5.1842 -2.73198 0
M  V30 11667 N 2046.55 -4.38762 -1.4784 0
M  V30 11668 H 2043.71 -8.36803 -2.32493 0
M  V30 11669 H 2043.44 -6.70197 -1.71129 0
M  V30 11670 H 2044.31 -7.03551 -4.13168 0
M  V30 11671 P 2048.27 -7.20834 -5.23717 0
M  V30 11672 O 2048.49 -7.79853 -6.57286 0
M  V30 11673 O 2049.06 -7.79239 -4.12957 0
M  V30 11674 O 2048.52 -5.63315 -5.29344 0
M  V30 11675 C 2047.58 -4.80255 -6.01876 0
M  V30 11676 C 2048.31 -3.64202 -6.65911 0
M  V30 11677 O 2048.52 -2.60694 -5.64732 0
M  V30 11678 C 2049.71 -3.93473 -7.1943 0
M  V30 11679 O 2050.1 -3.02071 -8.21205 0
M  V30 11680 C 2050.59 -3.73047 -5.97036 0
M  V30 11681 C 2049.88 -2.58828 -5.25741 0
M  V30 11682 N 2049.93 -2.68068 -3.77503 0
M  V30 11683 H 2047.09 -5.40332 -6.79951 0
M  V30 11684 H 2046.82 -4.41613 -5.32378 0
M  V30 11685 H 2047.69 -3.26331 -7.47797 0
M  V30 11686 P 2051.65 -2.75334 -8.47391 0
M  V30 11687 O 2051.87 -2.44619 -9.90336 0
M  V30 11688 O 2052.44 -3.87776 -7.92294 0
M  V30 11689 O 2051.9 -1.4459 -7.59357 0
M  V30 11690 C 2050.96 -0.347653 -7.69315 0
M  V30 11691 C 2051.69 0.96767 -7.52806 0
M  V30 11692 O 2051.9 1.21055 -6.10208 0
M  V30 11693 C 2053.09 1.04557 -8.13408 0
M  V30 11694 O 2053.48 2.38311 -8.41922 0
M  V30 11695 C 2053.97 0.491279 -7.02284 0
M  V30 11696 C 2053.26 0.996264 -5.77469 0
M  V30 11697 N 2053.31 0.0501916 -4.62973 0
M  V30 11698 H 2050.47 -0.374765 -8.67791 0
M  V30 11699 H 2050.2 -0.443613 -6.90476 0
M  V30 11700 H 2051.07 1.75559 -7.96891 0
M  V30 11701 H 2053.72 1.94563 -5.46818 0
M  V30 11702 H 2054 -0.608651 -7.04676 0
M  V30 11703 H 2054.99 0.889796 -7.09039 0
M  V30 11704 H 2053.16 0.433128 -9.04664 0
M  V30 11705 P 2055.03 2.75334 -8.47391 0
M  V30 11706 O 2055.25 3.84166 -9.4489 0
M  V30 11707 O 2055.82 1.51964 -8.6881 0
M  V30 11708 O 2055.28 3.29363 -6.99321 0
M  V30 11709 C 2054.34 4.23956 -6.42656 0
M  V30 11710 C 2055.07 5.20775 -5.52155 0
M  V30 11711 O 2055.28 4.56534 -4.22446 0
M  V30 11712 C 2056.47 5.62629 -5.96531 0
M  V30 11713 O 2056.86 6.87667 -5.41053 0
M  V30 11714 C 2057.35 4.52537 -5.39283 0
M  V30 11715 C 2056.64 4.20027 -4.08623 0
M  V30 11716 N 2056.69 2.7613 -3.71522 0
M  V30 11717 C 2056.84 2.45612 -2.37989 0
M  V30 11718 O 2056.93 3.30919 -1.51621 0
M  V30 11719 N 2056.88 1.10684 -2.08435 0
M  V30 11720 C 2056.79 0.0690084 -2.9792 0
M  V30 11721 O 2056.84 -1.10553 -2.59426 0
M  V30 11722 C 2056.64 0.481522 -4.35345 0
M  V30 11723 C 2056.53 -0.618778 -5.36443 0
M  V30 11724 C 2056.59 1.78906 -4.67968 0
M  V30 11725 H 2053.85 4.797 -7.24003 0
M  V30 11726 H 2053.58 3.69802 -5.84429 0
M  V30 11727 H 2054.45 6.10356 -5.41441 0
M  V30 11728 H 2057.1 4.78651 -3.27911 0
M  V30 11729 H 2057.38 3.64957 -6.05871 0
M  V30 11730 H 2058.37 4.8868 -5.2125 0
M  V30 11731 H 2056.54 5.66726 -7.06352 0
M  V30 11732 H 2056.47 2.07737 -5.72367 0
M  V30 11733 H 2057.5 -0.754375 -5.86871 0
M  V30 11734 H 2055.76 -0.359721 -6.10641 0
M  V30 11735 H 2056.25 -1.55533 -4.8581 0
M  V30 11736 H 2056.98 0.862651 -1.12037 0
M  V30 11737 P 2058.41 7.20834 -5.23717 0
M  V30 11738 O 2058.63 8.66189 -5.38625 0
M  V30 11739 O 2059.2 6.33615 -6.1356 0
M  V30 11740 O 2058.66 6.7751 -3.72168 0
M  V30 11741 C 2057.72 7.20732 -2.70725 0
M  V30 11742 C 2058.45 7.45864 -1.40599 0
M  V30 11743 O 2058.66 6.17651 -0.734225 0
M  V30 11744 C 2059.85 8.05808 -1.51899 0
M  V30 11745 O 2060.24 8.74358 -0.335205 0
M  V30 11746 C 2060.73 6.83093 -1.70294 0
M  V30 11747 C 2060.02 5.79992 -0.836974 0
M  V30 11748 N 2060.07 4.41769 -1.38263 0
M  V30 11749 C 2060.22 3.38591 -0.481702 0
M  V30 11750 O 2060.31 3.56839 0.718452 0
M  V30 11751 N 2060.26 2.1206 -1.03569 0
M  V30 11752 C 2060.17 1.80696 -2.36966 0
M  V30 11753 C 2060.02 2.94845 -3.23898 0
M  V30 11754 C 2059.97 4.19803 -2.73435 0
M  V30 11755 H 2057.23 8.13644 -3.0377 0
M  V30 11756 H 2056.96 6.42695 -2.55448 0
M  V30 11757 H 2057.83 8.12039 -0.792769 0
M  V30 11758 H 2060.48 5.79978 0.160587 0
M  V30 11759 H 2060.76 6.51379 -2.75643 0
M  V30 11760 H 2061.75 7.01734 -1.34462 0
M  V30 11761 H 2059.92 8.73674 -2.38337 0
M  V30 11762 H 2059.85 5.04492 -3.4095 0
M  V30 11763 P 2061.79 8.91 -3.40036e-11 0
M  V30 11764 O 2062.01 10.1726 0.733694 0
M  V30 11765 O 2062.58 8.73148 -1.23936 0
M  V30 11766 O 2062.04 7.66872 0.971405 0
M  V30 11767 C 2061.1 7.42309 2.04641 0
M  V30 11768 C 2061.83 6.86059 3.24661 0
M  V30 11769 O 2062.04 5.42847 3.03646 0
M  V30 11770 C 2063.23 7.41196 3.50753 0
M  V30 11771 O 2063.62 7.27073 4.86816 0
M  V30 11772 C 2064.11 6.5273 2.63741 0
M  V30 11773 C 2063.4 5.1842 2.73198 0
M  V30 11774 N 2063.45 4.38762 1.4784 0
M  V30 11775 H 2060.61 8.36803 2.32493 0
M  V30 11776 H 2060.34 6.70197 1.71129 0
M  V30 11777 H 2061.21 7.03551 4.13168 0
M  V30 11778 P 2065.17 7.20834 5.23717 0
M  V30 11779 O 2065.39 7.79853 6.57286 0
M  V30 11780 O 2065.96 7.79239 4.12957 0
M  V30 11781 O 2065.42 5.63315 5.29344 0
M  V30 11782 C 2064.48 4.80255 6.01876 0
M  V30 11783 C 2065.21 3.64202 6.65911 0
M  V30 11784 O 2065.42 2.60694 5.64732 0
M  V30 11785 C 2066.61 3.93473 7.1943 0
M  V30 11786 O 2067 3.02071 8.21205 0
M  V30 11787 C 2067.49 3.73047 5.97036 0
M  V30 11788 C 2066.78 2.58828 5.25741 0
M  V30 11789 N 2066.83 2.68068 3.77503 0
M  V30 11790 H 2063.99 5.40332 6.79951 0
M  V30 11791 H 2063.72 4.41613 5.32378 0
M  V30 11792 H 2064.59 3.26331 7.47797 0
M  V30 11793 P 2068.55 2.75334 8.47391 0
M  V30 11794 O 2068.77 2.44571 9.90142 0
M  V30 11795 O 2069.34 3.87688 7.92115 0
M  V30 11796 O 2068.8 1.4459 7.59357 0
M  V30 11797 C 2067.86 0.347608 7.69215 0
M  V30 11798 C 2068.59 -0.96767 7.52806 0
M  V30 11799 O 2068.8 -1.21036 6.1011 0
M  V30 11800 C 2069.99 -1.04544 8.13308 0
M  V30 11801 O 2070.38 -2.38311 8.41922 0
M  V30 11802 C 2070.87 -0.491279 7.02284 0
M  V30 11803 C 2070.16 -0.996264 5.77469 0
M  V30 11804 N 2070.21 -0.0501916 4.62973 0
M  V30 11805 H 2067.37 0.374722 8.67691 0
M  V30 11806 H 2067.1 0.443485 6.90277 0
M  V30 11807 H 2067.97 -1.75537 7.96793 0
M  V30 11808 P 2071.93 -2.75334 8.47391 0
M  V30 11809 O 2072.15 -3.84128 9.44797 0
M  V30 11810 O 2072.72 -1.51947 8.68712 0
M  V30 11811 O 2072.18 -3.29363 6.99321 0
M  V30 11812 C 2071.24 -4.24011 6.4274 0
M  V30 11813 C 2071.97 -5.20775 5.52155 0
M  V30 11814 O 2072.18 -4.56534 4.22446 0
M  V30 11815 C 2073.37 -5.62629 5.96531 0
M  V30 11816 O 2073.76 -6.87667 5.41053 0
M  V30 11817 C 2074.25 -4.52537 5.39283 0
M  V30 11818 C 2073.54 -4.20027 4.08623 0
M  V30 11819 N 2073.59 -2.76189 3.71603 0
M  V30 11820 H 2070.75 -4.797 7.24003 0
M  V30 11821 H 2070.48 -3.69856 5.84513 0
M  V30 11822 H 2071.35 -6.10356 5.41441 0
M  V30 11823 P 2075.31 -7.20834 5.23717 0
M  V30 11824 O 2075.53 -8.66104 5.38572 0
M  V30 11825 O 2076.1 -6.33544 6.1349 0
M  V30 11826 O 2075.56 -6.7751 3.72168 0
M  V30 11827 C 2074.62 -7.20825 2.7076 0
M  V30 11828 C 2075.35 -7.45864 1.40599 0
M  V30 11829 O 2075.56 -6.17651 0.734225 0
M  V30 11830 C 2076.75 -8.05808 1.51899 0
M  V30 11831 O 2077.14 -8.74358 0.335205 0
M  V30 11832 C 2077.63 -6.83093 1.70294 0
M  V30 11833 C 2076.92 -5.79992 0.836974 0
M  V30 11834 N 2076.97 -4.41864 1.38293 0
M  V30 11835 H 2074.13 -8.13644 3.0377 0
M  V30 11836 H 2073.86 -6.42788 2.55485 0
M  V30 11837 H 2074.73 -8.12039 0.792769 0
M  V30 11838 P 2078.69 -8.91 3.51126e-11 0
M  V30 11839 O 2078.91 -10.1736 -0.733766 0
M  V30 11840 O 2079.48 -8.73247 1.2395 0
M  V30 11841 O 2078.94 -7.66872 -0.971405 0
M  V30 11842 C 2078 -7.42212 -2.04614 0
M  V30 11843 C 2078.73 -6.86059 -3.24661 0
M  V30 11844 O 2078.94 -5.42847 -3.03646 0
M  V30 11845 C 2080.13 -7.41196 -3.50753 0
M  V30 11846 O 2080.52 -7.27073 -4.86816 0
M  V30 11847 C 2081.01 -6.5273 -2.63741 0
M  V30 11848 C 2080.3 -5.1842 -2.73198 0
M  V30 11849 N 2080.35 -4.38668 -1.47808 0
M  V30 11850 C 2080.5 -3.02239 -1.60048 0
M  V30 11851 O 2080.59 -2.46459 -2.67869 0
M  V30 11852 N 2080.54 -2.32436 -0.408571 0
M  V30 11853 C 2080.45 -2.85471 0.854993 0
M  V30 11854 O 2080.5 -2.12566 1.8531 0
M  V30 11855 C 2080.3 -4.28918 0.887335 0
M  V30 11856 C 2080.19 -4.91066 2.24619 0
M  V30 11857 C 2080.25 -5.00349 -0.255399 0
M  V30 11858 H 2077.51 -8.36803 -2.32493 0
M  V30 11859 H 2077.24 -6.701 -1.71105 0
M  V30 11860 H 2078.11 -7.03551 -4.13168 0
M  V30 11861 H 2080.76 -4.59773 -3.53894 0
M  V30 11862 H 2081.04 -6.88995 -1.59871 0
M  V30 11863 H 2082.03 -6.46749 -3.03687 0
M  V30 11864 H 2080.2 -8.46908 -3.20714 0
M  V30 11865 H 2080.13 -6.08548 -0.206986 0
M  V30 11866 H 2081.16 -5.34836 2.53099 0
M  V30 11867 H 2079.42 -5.69638 2.2291 0
M  V30 11868 H 2079.91 -4.13971 2.98044 0
M  V30 11869 H 2080.64 -1.33211 -0.474216 0
M  V30 11870 P 2082.07 -7.20834 -5.23717 0
M  V30 11871 O 2082.29 -7.79853 -6.57286 0
M  V30 11872 O 2082.86 -7.79239 -4.12957 0
M  V30 11873 O 2082.32 -5.63315 -5.29344 0
M  V30 11874 C 2081.38 -4.80255 -6.01876 0
M  V30 11875 C 2082.11 -3.64202 -6.65911 0
M  V30 11876 O 2082.32 -2.60694 -5.64732 0
M  V30 11877 C 2083.51 -3.93473 -7.1943 0
M  V30 11878 O 2083.9 -3.02071 -8.21205 0
M  V30 11879 C 2084.39 -3.73047 -5.97036 0
M  V30 11880 C 2083.68 -2.58828 -5.25741 0
M  V30 11881 N 2083.73 -2.68068 -3.77503 0
M  V30 11882 H 2080.89 -5.40332 -6.79951 0
M  V30 11883 H 2080.62 -4.41613 -5.32378 0
M  V30 11884 H 2081.49 -3.26331 -7.47797 0
M  V30 11885 P 2085.45 -2.75334 -8.47391 0
M  V30 11886 O 2085.67 -2.44571 -9.90142 0
M  V30 11887 O 2086.24 -3.87688 -7.92115 0
M  V30 11888 O 2085.7 -1.4459 -7.59357 0
M  V30 11889 C 2084.76 -0.347608 -7.69215 0
M  V30 11890 C 2085.49 0.96767 -7.52806 0
M  V30 11891 O 2085.7 1.21036 -6.1011 0
M  V30 11892 C 2086.89 1.04544 -8.13308 0
M  V30 11893 O 2087.28 2.38311 -8.41922 0
M  V30 11894 C 2087.77 0.491279 -7.02284 0
M  V30 11895 C 2087.06 0.996264 -5.77469 0
M  V30 11896 N 2087.11 0.0501916 -4.62973 0
M  V30 11897 H 2084.27 -0.374722 -8.67691 0
M  V30 11898 H 2084 -0.443485 -6.90277 0
M  V30 11899 H 2084.87 1.75537 -7.96793 0
M  V30 11900 P 2088.83 2.75334 -8.47391 0
M  V30 11901 O 2089.05 3.84128 -9.44797 0
M  V30 11902 O 2089.62 1.51947 -8.68712 0
M  V30 11903 O 2089.08 3.29363 -6.99321 0
M  V30 11904 C 2088.14 4.24011 -6.4274 0
M  V30 11905 C 2088.87 5.20775 -5.52155 0
M  V30 11906 O 2089.08 4.56534 -4.22446 0
M  V30 11907 C 2090.27 5.62629 -5.96531 0
M  V30 11908 O 2090.66 6.87667 -5.41053 0
M  V30 11909 C 2091.15 4.52537 -5.39283 0
M  V30 11910 C 2090.44 4.20027 -4.08623 0
M  V30 11911 N 2090.49 2.76189 -3.71603 0
M  V30 11912 H 2087.65 4.797 -7.24003 0
M  V30 11913 H 2087.38 3.69856 -5.84513 0
M  V30 11914 H 2088.25 6.10356 -5.41441 0
M  V30 11915 P 2092.21 7.20834 -5.23717 0
M  V30 11916 O 2092.43 8.66104 -5.38572 0
M  V30 11917 O 2093 6.33544 -6.1349 0
M  V30 11918 O 2092.46 6.7751 -3.72168 0
M  V30 11919 C 2091.52 7.20825 -2.7076 0
M  V30 11920 C 2092.25 7.45864 -1.40599 0
M  V30 11921 O 2092.46 6.17651 -0.734225 0
M  V30 11922 C 2093.65 8.05808 -1.51899 0
M  V30 11923 O 2094.04 8.74358 -0.335205 0
M  V30 11924 C 2094.53 6.83093 -1.70294 0
M  V30 11925 C 2093.82 5.79992 -0.836974 0
M  V30 11926 N 2093.87 4.41864 -1.38293 0
M  V30 11927 H 2091.03 8.13644 -3.0377 0
M  V30 11928 H 2090.76 6.42788 -2.55485 0
M  V30 11929 H 2091.63 8.12039 -0.792769 0
M  V30 11930 P 2095.59 8.91 -3.62216e-11 0
M  V30 11931 O 2095.81 10.1726 0.733694 0
M  V30 11932 O 2096.38 8.73148 -1.23936 0
M  V30 11933 O 2095.84 7.66872 0.971405 0
M  V30 11934 C 2094.9 7.42309 2.04641 0
M  V30 11935 C 2095.63 6.86059 3.24661 0
M  V30 11936 O 2095.84 5.42847 3.03646 0
M  V30 11937 C 2097.03 7.41196 3.50753 0
M  V30 11938 O 2097.42 7.27073 4.86816 0
M  V30 11939 C 2097.91 6.5273 2.63741 0
M  V30 11940 C 2097.2 5.1842 2.73198 0
M  V30 11941 N 2097.25 4.38762 1.4784 0
M  V30 11942 H 2094.41 8.36803 2.32493 0
M  V30 11943 H 2094.14 6.70197 1.71129 0
M  V30 11944 H 2095.01 7.03551 4.13168 0
M  V30 11945 P 2098.97 7.20834 5.23717 0
M  V30 11946 O 2099.19 7.79853 6.57286 0
M  V30 11947 O 2099.76 7.79239 4.12957 0
M  V30 11948 O 2099.22 5.63315 5.29344 0
M  V30 11949 C 2098.28 4.80255 6.01876 0
M  V30 11950 C 2099.01 3.64202 6.65911 0
M  V30 11951 O 2099.22 2.60694 5.64732 0
M  V30 11952 C 2100.41 3.93473 7.1943 0
M  V30 11953 O 2100.8 3.02071 8.21205 0
M  V30 11954 C 2101.29 3.73047 5.97036 0
M  V30 11955 C 2100.58 2.58828 5.25741 0
M  V30 11956 N 2100.63 2.68068 3.77503 0
M  V30 11957 H 2097.79 5.40332 6.79951 0
M  V30 11958 H 2097.52 4.41613 5.32378 0
M  V30 11959 H 2098.39 3.26331 7.47797 0
M  V30 11960 P 2102.35 2.75334 8.47391 0
M  V30 11961 O 2102.57 2.44595 9.90239 0
M  V30 11962 O 2103.14 3.87732 7.92204 0
M  V30 11963 O 2102.6 1.4459 7.59357 0
M  V30 11964 C 2101.66 0.347563 7.69115 0
M  V30 11965 C 2102.39 -0.96767 7.52806 0
M  V30 11966 O 2102.6 -1.21036 6.1011 0
M  V30 11967 C 2103.79 -1.04544 8.13308 0
M  V30 11968 O 2104.18 -2.38311 8.41922 0
M  V30 11969 C 2104.67 -0.491279 7.02284 0
M  V30 11970 C 2103.96 -0.996264 5.77469 0
M  V30 11971 N 2104.01 -0.0501808 4.62873 0
M  V30 11972 C 2104.16 -0.588177 3.36904 0
M  V30 11973 O 2104.25 -1.78598 3.17173 0
M  V30 11974 N 2104.2 0.329694 2.33686 0
M  V30 11975 C 2104.11 1.6953 2.45079 0
M  V30 11976 O 2104.16 2.41926 1.44899 0
M  V30 11977 C 2103.96 2.16933 3.80505 0
M  V30 11978 C 2103.85 3.65373 3.97621 0
M  V30 11979 C 2103.91 1.30326 4.83752 0
M  V30 11980 H 2101.17 0.374722 8.67691 0
M  V30 11981 H 2100.9 0.443421 6.90177 0
M  V30 11982 H 2101.77 -1.75537 7.96793 0
M  V30 11983 H 2104.42 -1.94496 5.46629 0
M  V30 11984 H 2104.7 0.608651 7.04676 0
M  V30 11985 H 2105.69 -0.889672 7.08939 0
M  V30 11986 H 2103.86 -0.43308 9.04564 0
M  V30 11987 H 2103.79 1.68366 5.8516 0
M  V30 11988 H 2104.82 4.05985 4.30448 0
M  V30 11989 H 2103.08 3.88028 4.72875 0
M  V30 11990 H 2103.57 4.11381 3.01609 0
M  V30 11991 H 2104.3 -0.0393617 1.41345 0
M  V30 11992 P 2105.73 -2.75334 8.47391 0
M  V30 11993 O 2105.95 -3.84204 9.44982 0
M  V30 11994 O 2106.52 -1.51982 8.68909 0
M  V30 11995 O 2105.98 -3.29363 6.99321 0
M  V30 11996 C 2105.04 -4.24066 6.42823 0
M  V30 11997 C 2105.77 -5.20775 5.52155 0
M  V30 11998 O 2105.98 -4.56607 4.22514 0
M  V30 11999 C 2107.17 -5.62697 5.96604 0
M  V30 12000 O 2107.56 -6.87667 5.41053 0
M  V30 12001 C 2108.05 -4.52537 5.39283 0
M  V30 12002 C 2107.34 -4.20027 4.08623 0
M  V30 12003 N 2107.39 -2.76189 3.71603 0
M  V30 12004 H 2104.55 -4.79756 7.24086 0
M  V30 12005 H 2104.28 -3.69963 5.84682 0
M  V30 12006 H 2105.15 -6.10431 5.41508 0
M  V30 12007 H 2107.8 -4.78816 3.28024 0
M  V30 12008 H 2108.08 -3.64957 6.05871 0
M  V30 12009 H 2109.07 -4.88748 5.21323 0
M  V30 12010 H 2107.24 -5.66789 7.0643 0
M  V30 12011 P 2109.11 -7.20834 5.23717 0
M  V30 12012 O 2109.33 -8.66104 5.38572 0
M  V30 12013 O 2109.9 -6.33544 6.1349 0
M  V30 12014 O 2109.36 -6.7751 3.72168 0
M  V30 12015 C 2108.42 -7.20825 2.7076 0
M  V30 12016 C 2109.15 -7.45864 1.40599 0
M  V30 12017 O 2109.36 -6.17651 0.734225 0
M  V30 12018 C 2110.55 -8.05808 1.51899 0
M  V30 12019 O 2110.94 -8.74358 0.335205 0
M  V30 12020 C 2111.43 -6.83093 1.70294 0
M  V30 12021 C 2110.72 -5.79992 0.836974 0
M  V30 12022 N 2110.77 -4.41864 1.38293 0
M  V30 12023 H 2107.93 -8.13644 3.0377 0
M  V30 12024 H 2107.66 -6.42788 2.55485 0
M  V30 12025 H 2108.53 -8.12039 0.792769 0
M  V30 12026 P 2112.49 -8.91 3.73306e-11 0
M  V30 12027 O 2112.71 -10.1726 -0.733694 0
M  V30 12028 O 2113.28 -8.73148 1.23936 0
M  V30 12029 O 2112.74 -7.66872 -0.971405 0
M  V30 12030 C 2111.8 -7.42309 -2.04641 0
M  V30 12031 C 2112.53 -6.86059 -3.24661 0
M  V30 12032 O 2112.74 -5.42847 -3.03646 0
M  V30 12033 C 2113.93 -7.41196 -3.50753 0
M  V30 12034 O 2114.32 -7.27073 -4.86816 0
M  V30 12035 C 2114.81 -6.5273 -2.63741 0
M  V30 12036 C 2114.1 -5.1842 -2.73198 0
M  V30 12037 N 2114.15 -4.38762 -1.4784 0
M  V30 12038 H 2111.31 -8.36803 -2.32493 0
M  V30 12039 H 2111.04 -6.70197 -1.71129 0
M  V30 12040 H 2111.91 -7.03551 -4.13168 0
M  V30 12041 P 2115.87 -7.20834 -5.23717 0
M  V30 12042 O 2116.09 -7.79853 -6.57286 0
M  V30 12043 O 2116.66 -7.79239 -4.12957 0
M  V30 12044 O 2116.12 -5.63315 -5.29344 0
M  V30 12045 C 2115.18 -4.80255 -6.01876 0
M  V30 12046 C 2115.91 -3.64202 -6.65911 0
M  V30 12047 O 2116.12 -2.60694 -5.64732 0
M  V30 12048 C 2117.31 -3.93473 -7.1943 0
M  V30 12049 O 2117.7 -3.02071 -8.21205 0
M  V30 12050 C 2118.19 -3.73047 -5.97036 0
M  V30 12051 C 2117.48 -2.58828 -5.25741 0
M  V30 12052 N 2117.53 -2.68068 -3.77503 0
M  V30 12053 H 2114.69 -5.40332 -6.79951 0
M  V30 12054 H 2114.42 -4.41613 -5.32378 0
M  V30 12055 H 2115.29 -3.26331 -7.47797 0
M  V30 12056 P 2119.25 -2.75334 -8.47391 0
M  V30 12057 O 2119.47 -2.44571 -9.90142 0
M  V30 12058 O 2120.04 -3.87688 -7.92115 0
M  V30 12059 O 2119.5 -1.4459 -7.59357 0
M  V30 12060 C 2118.56 -0.347608 -7.69215 0
M  V30 12061 C 2119.29 0.96767 -7.52806 0
M  V30 12062 O 2119.5 1.21036 -6.1011 0
M  V30 12063 C 2120.69 1.04544 -8.13308 0
M  V30 12064 O 2121.08 2.38311 -8.41922 0
M  V30 12065 C 2121.57 0.491279 -7.02284 0
M  V30 12066 C 2120.86 0.996264 -5.77469 0
M  V30 12067 N 2120.91 0.0501916 -4.62973 0
M  V30 12068 H 2118.07 -0.374722 -8.67691 0
M  V30 12069 H 2117.8 -0.443485 -6.90277 0
M  V30 12070 H 2118.67 1.75537 -7.96793 0
M  V30 12071 P 2122.63 2.75334 -8.47391 0
M  V30 12072 O 2122.85 3.84128 -9.44797 0
M  V30 12073 O 2123.42 1.51947 -8.68712 0
M  V30 12074 O 2122.88 3.29363 -6.99321 0
M  V30 12075 C 2121.94 4.24011 -6.4274 0
M  V30 12076 C 2122.67 5.20775 -5.52155 0
M  V30 12077 O 2122.88 4.56534 -4.22446 0
M  V30 12078 C 2124.07 5.62629 -5.96531 0
M  V30 12079 O 2124.46 6.87667 -5.41053 0
M  V30 12080 C 2124.95 4.52537 -5.39283 0
M  V30 12081 C 2124.24 4.20027 -4.08623 0
M  V30 12082 N 2124.29 2.76189 -3.71603 0
M  V30 12083 H 2121.45 4.797 -7.24003 0
M  V30 12084 H 2121.18 3.69856 -5.84513 0
M  V30 12085 H 2122.05 6.10356 -5.41441 0
M  V30 12086 P 2126.01 7.20834 -5.23717 0
M  V30 12087 O 2126.23 8.66104 -5.38572 0
M  V30 12088 O 2126.8 6.33544 -6.1349 0
M  V30 12089 O 2126.26 6.7751 -3.72168 0
M  V30 12090 C 2125.32 7.20825 -2.7076 0
M  V30 12091 C 2126.05 7.45864 -1.40599 0
M  V30 12092 O 2126.26 6.17651 -0.734225 0
M  V30 12093 C 2127.45 8.05808 -1.51899 0
M  V30 12094 O 2127.84 8.74358 -0.335205 0
M  V30 12095 C 2128.33 6.83093 -1.70294 0
M  V30 12096 C 2127.62 5.79992 -0.836974 0
M  V30 12097 N 2127.67 4.41864 -1.38293 0
M  V30 12098 H 2124.83 8.13644 -3.0377 0
M  V30 12099 H 2124.56 6.42788 -2.55485 0
M  V30 12100 H 2125.43 8.12039 -0.792769 0
M  V30 12101 P 2129.39 8.91 -3.84396e-11 0
M  V30 12102 O 2129.61 10.1726 0.733694 0
M  V30 12103 O 2130.18 8.73148 -1.23936 0
M  V30 12104 O 2129.64 7.66872 0.971405 0
M  V30 12105 C 2128.7 7.42309 2.04641 0
M  V30 12106 C 2129.43 6.86059 3.24661 0
M  V30 12107 O 2129.64 5.42847 3.03646 0
M  V30 12108 C 2130.83 7.41196 3.50753 0
M  V30 12109 O 2131.22 7.27073 4.86816 0
M  V30 12110 C 2131.71 6.5273 2.63741 0
M  V30 12111 C 2131 5.1842 2.73198 0
M  V30 12112 N 2131.05 4.38762 1.4784 0
M  V30 12113 C 2130.97 4.81605 0.168631 0
M  V30 12114 N 2131.05 3.85454 -0.713363 0
M  V30 12115 C 2131.19 2.6994 0.0566958 0
M  V30 12116 C 2131.32 1.34815 -0.338502 0
M  V30 12117 O 2131.34 0.869548 -1.47125 0
M  V30 12118 N 2131.44 0.496304 0.77465 0
M  V30 12119 C 2131.44 0.908403 2.09122 0
M  V30 12120 N 2131.57 -0.0517805 3.00955 0
M  V30 12121 N 2131.31 2.17875 2.46519 0
M  V30 12122 C 2131.19 3.01988 1.4033 0
M  V30 12123 H 2128.21 8.36803 2.32493 0
M  V30 12124 H 2127.94 6.70197 1.71129 0
M  V30 12125 H 2128.81 7.03551 4.13168 0
M  V30 12126 H 2131.46 4.59498 3.54415 0
M  V30 12127 H 2131.74 6.88898 1.59848 0
M  V30 12128 H 2132.73 6.46749 3.03687 0
M  V30 12129 H 2130.9 8.46908 3.20714 0
M  V30 12130 H 2130.85 5.86405 -0.105564 0
M  V30 12131 H 2131.53 -0.483664 0.597855 0
M  V30 12132 H 2131.57 0.187865 4.0116 0
M  V30 12133 H 2131.67 -1.03585 2.71726 0
M  V30 12134 P 2132.77 7.20834 5.23717 0
M  V30 12135 O 2132.99 7.7993 6.57351 0
M  V30 12136 O 2133.56 7.79328 4.13004 0
M  V30 12137 O 2133.02 5.63315 5.29344 0
M  V30 12138 C 2132.08 4.80193 6.01798 0
M  V30 12139 C 2132.81 3.64202 6.65911 0
M  V30 12140 O 2133.02 2.60694 5.64732 0
M  V30 12141 C 2134.21 3.93473 7.1943 0
M  V30 12142 O 2134.6 3.02071 8.21205 0
M  V30 12143 C 2135.09 3.73047 5.97036 0
M  V30 12144 C 2134.38 2.58828 5.25741 0
M  V30 12145 N 2134.43 2.6801 3.77422 0
M  V30 12146 C 2134.58 1.50443 3.07133 0
M  V30 12147 O 2134.67 0.419406 3.61576 0
M  V30 12148 N 2134.62 1.6403 1.69677 0
M  V30 12149 C 2134.53 2.81206 0.986255 0
M  V30 12150 O 2134.58 2.80892 -0.249754 0
M  V30 12151 C 2134.38 3.99158 1.80325 0
M  V30 12152 C 2134.27 5.29309 1.06921 0
M  V30 12153 C 2134.33 3.89779 3.1476 0
M  V30 12154 H 2131.59 5.40332 6.79951 0
M  V30 12155 H 2131.32 4.41549 5.32301 0
M  V30 12156 H 2132.19 3.26331 7.47797 0
M  V30 12157 H 2134.84 1.6395 5.56554 0
M  V30 12158 H 2135.12 4.63439 5.3432 0
M  V30 12159 H 2136.11 3.44728 6.25838 0
M  V30 12160 H 2134.28 4.96652 7.57263 0
M  V30 12161 H 2134.21 4.80159 3.74441 0
M  V30 12162 H 2135.24 5.81459 1.09608 0
M  V30 12163 H 2133.5 5.9187 1.54487 0
M  V30 12164 H 2133.99 5.10095 0.0220288 0
M  V30 12165 H 2134.72 0.798962 1.16664 0
M  V30 12166 P 2136.15 2.75334 8.47391 0
M  V30 12167 O 2136.37 2.44619 9.90336 0
M  V30 12168 O 2136.94 3.87776 7.92294 0
M  V30 12169 O 2136.4 1.4459 7.59357 0
M  V30 12170 C 2135.46 0.347653 7.69315 0
M  V30 12171 C 2136.19 -0.96767 7.52806 0
M  V30 12172 O 2136.4 -1.21055 6.10208 0
M  V30 12173 C 2137.59 -1.04557 8.13408 0
M  V30 12174 O 2137.98 -2.38311 8.41922 0
M  V30 12175 C 2138.47 -0.491279 7.02284 0
M  V30 12176 C 2137.76 -0.996264 5.77469 0
M  V30 12177 N 2137.81 -0.0501916 4.62973 0
M  V30 12178 H 2134.97 0.374765 8.67791 0
M  V30 12179 H 2134.7 0.443613 6.90476 0
M  V30 12180 H 2135.57 -1.75559 7.96891 0
M  V30 12181 H 2138.22 -1.94563 5.46818 0
M  V30 12182 H 2138.5 0.608651 7.04676 0
M  V30 12183 H 2139.49 -0.889796 7.09039 0
M  V30 12184 H 2137.66 -0.433128 9.04664 0
M  V30 12185 P 2139.53 -2.75334 8.47391 0
M  V30 12186 O 2139.75 -3.84128 9.44797 0
M  V30 12187 O 2140.32 -1.51947 8.68712 0
M  V30 12188 O 2139.78 -3.29363 6.99321 0
M  V30 12189 C 2138.84 -4.24011 6.4274 0
M  V30 12190 C 2139.57 -5.20775 5.52155 0
M  V30 12191 O 2139.78 -4.56534 4.22446 0
M  V30 12192 C 2140.97 -5.62629 5.96531 0
M  V30 12193 O 2141.36 -6.87667 5.41053 0
M  V30 12194 C 2141.85 -4.52537 5.39283 0
M  V30 12195 C 2141.14 -4.20027 4.08623 0
M  V30 12196 N 2141.19 -2.76189 3.71603 0
M  V30 12197 H 2138.35 -4.797 7.24003 0
M  V30 12198 H 2138.08 -3.69856 5.84513 0
M  V30 12199 H 2138.95 -6.10356 5.41441 0
M  V30 12200 P 2142.91 -7.20834 5.23717 0
M  V30 12201 O 2143.13 -8.66104 5.38572 0
M  V30 12202 O 2143.7 -6.33544 6.1349 0
M  V30 12203 O 2143.16 -6.7751 3.72168 0
M  V30 12204 C 2142.22 -7.20825 2.7076 0
M  V30 12205 C 2142.95 -7.45864 1.40599 0
M  V30 12206 O 2143.16 -6.17651 0.734225 0
M  V30 12207 C 2144.35 -8.05808 1.51899 0
M  V30 12208 O 2144.74 -8.74358 0.335205 0
M  V30 12209 C 2145.23 -6.83093 1.70294 0
M  V30 12210 C 2144.52 -5.79992 0.836974 0
M  V30 12211 N 2144.57 -4.41864 1.38293 0
M  V30 12212 H 2141.73 -8.13644 3.0377 0
M  V30 12213 H 2141.46 -6.42788 2.55485 0
M  V30 12214 H 2142.33 -8.12039 0.792769 0
M  V30 12215 P 2146.29 -8.91 3.95487e-11 0
M  V30 12216 O 2146.51 -10.1726 -0.733694 0
M  V30 12217 O 2147.08 -8.73148 1.23936 0
M  V30 12218 O 2146.54 -7.66872 -0.971405 0
M  V30 12219 C 2145.6 -7.42309 -2.04641 0
M  V30 12220 C 2146.33 -6.86059 -3.24661 0
M  V30 12221 O 2146.54 -5.42847 -3.03646 0
M  V30 12222 C 2147.73 -7.41196 -3.50753 0
M  V30 12223 O 2148.12 -7.27073 -4.86816 0
M  V30 12224 C 2148.61 -6.5273 -2.63741 0
M  V30 12225 C 2147.9 -5.1842 -2.73198 0
M  V30 12226 N 2147.95 -4.38762 -1.4784 0
M  V30 12227 H 2145.11 -8.36803 -2.32493 0
M  V30 12228 H 2144.84 -6.70197 -1.71129 0
M  V30 12229 H 2145.71 -7.03551 -4.13168 0
M  V30 12230 P 2149.67 -7.20834 -5.23717 0
M  V30 12231 O 2149.89 -7.79853 -6.57286 0
M  V30 12232 O 2150.46 -7.79239 -4.12957 0
M  V30 12233 O 2149.92 -5.63315 -5.29344 0
M  V30 12234 C 2148.98 -4.80255 -6.01876 0
M  V30 12235 C 2149.71 -3.64202 -6.65911 0
M  V30 12236 O 2149.92 -2.60694 -5.64732 0
M  V30 12237 C 2151.11 -3.93473 -7.1943 0
M  V30 12238 O 2151.5 -3.02071 -8.21205 0
M  V30 12239 C 2151.99 -3.73047 -5.97036 0
M  V30 12240 C 2151.28 -2.58828 -5.25741 0
M  V30 12241 N 2151.33 -2.68068 -3.77503 0
M  V30 12242 H 2148.49 -5.40332 -6.79951 0
M  V30 12243 H 2148.22 -4.41613 -5.32378 0
M  V30 12244 H 2149.09 -3.26331 -7.47797 0
M  V30 12245 P 2153.05 -2.75334 -8.47391 0
M  V30 12246 O 2153.27 -2.44571 -9.90142 0
M  V30 12247 O 2153.84 -3.87688 -7.92115 0
M  V30 12248 O 2153.3 -1.4459 -7.59357 0
M  V30 12249 C 2152.36 -0.347608 -7.69215 0
M  V30 12250 C 2153.09 0.96767 -7.52806 0
M  V30 12251 O 2153.3 1.21036 -6.1011 0
M  V30 12252 C 2154.49 1.04544 -8.13308 0
M  V30 12253 O 2154.88 2.38311 -8.41922 0
M  V30 12254 C 2155.37 0.491279 -7.02284 0
M  V30 12255 C 2154.66 0.996264 -5.77469 0
M  V30 12256 N 2154.71 0.0501916 -4.62973 0
M  V30 12257 H 2151.87 -0.374722 -8.67691 0
M  V30 12258 H 2151.6 -0.443485 -6.90277 0
M  V30 12259 H 2152.47 1.75537 -7.96793 0
M  V30 12260 P 2156.43 2.75334 -8.47391 0
M  V30 12261 O 2156.65 3.84128 -9.44797 0
M  V30 12262 O 2157.22 1.51947 -8.68712 0
M  V30 12263 O 2156.68 3.29363 -6.99321 0
M  V30 12264 C 2155.74 4.24011 -6.4274 0
M  V30 12265 C 2156.47 5.20775 -5.52155 0
M  V30 12266 O 2156.68 4.56534 -4.22446 0
M  V30 12267 C 2157.87 5.62629 -5.96531 0
M  V30 12268 O 2158.26 6.87667 -5.41053 0
M  V30 12269 C 2158.75 4.52537 -5.39283 0
M  V30 12270 C 2158.04 4.20027 -4.08623 0
M  V30 12271 N 2158.09 2.76189 -3.71603 0
M  V30 12272 H 2155.25 4.797 -7.24003 0
M  V30 12273 H 2154.98 3.69856 -5.84513 0
M  V30 12274 H 2155.85 6.10356 -5.41441 0
M  V30 12275 P 2159.81 7.20834 -5.23717 0
M  V30 12276 O 2160.03 8.66104 -5.38572 0
M  V30 12277 O 2160.6 6.33544 -6.1349 0
M  V30 12278 O 2160.06 6.7751 -3.72168 0
M  V30 12279 C 2159.12 7.20825 -2.7076 0
M  V30 12280 C 2159.85 7.45864 -1.40599 0
M  V30 12281 O 2160.06 6.17651 -0.734225 0
M  V30 12282 C 2161.25 8.05808 -1.51899 0
M  V30 12283 O 2161.64 8.74358 -0.335205 0
M  V30 12284 C 2162.13 6.83093 -1.70294 0
M  V30 12285 C 2161.42 5.79992 -0.836974 0
M  V30 12286 N 2161.47 4.41864 -1.38293 0
M  V30 12287 H 2158.63 8.13644 -3.0377 0
M  V30 12288 H 2158.36 6.42788 -2.55485 0
M  V30 12289 H 2159.23 8.12039 -0.792769 0
M  V30 12290 P 2163.19 8.91 -4.06577e-11 0
M  V30 12291 O 2163.41 10.1726 0.733694 0
M  V30 12292 O 2163.98 8.73148 -1.23936 0
M  V30 12293 O 2163.44 7.66872 0.971405 0
M  V30 12294 C 2162.5 7.42309 2.04641 0
M  V30 12295 C 2163.23 6.86059 3.24661 0
M  V30 12296 O 2163.44 5.42847 3.03646 0
M  V30 12297 C 2164.63 7.41196 3.50753 0
M  V30 12298 O 2165.02 7.27073 4.86816 0
M  V30 12299 C 2165.51 6.5273 2.63741 0
M  V30 12300 C 2164.8 5.1842 2.73198 0
M  V30 12301 N 2164.85 4.38762 1.4784 0
M  V30 12302 H 2162.01 8.36803 2.32493 0
M  V30 12303 H 2161.74 6.70197 1.71129 0
M  V30 12304 H 2162.61 7.03551 4.13168 0
M  V30 12305 P 2166.57 7.20834 5.23717 0
M  V30 12306 O 2166.79 7.80006 6.57415 0
M  V30 12307 O 2167.36 7.79416 4.13051 0
M  V30 12308 O 2166.82 5.63315 5.29344 0
M  V30 12309 C 2165.88 4.80318 6.01954 0
M  V30 12310 C 2166.61 3.64202 6.65911 0
M  V30 12311 O 2166.82 2.60736 5.64823 0
M  V30 12312 C 2168.01 3.93521 7.19518 0
M  V30 12313 O 2168.4 3.02071 8.21205 0
M  V30 12314 C 2168.89 3.73047 5.97036 0
M  V30 12315 C 2168.18 2.58828 5.25741 0
M  V30 12316 N 2168.23 2.68068 3.77503 0
M  V30 12317 C 2168.15 3.80474 2.99159 0
M  V30 12318 N 2168.22 3.55622 1.71925 0
M  V30 12319 C 2168.37 2.1832 1.65733 0
M  V30 12320 C 2168.5 1.28842 0.572777 0
M  V30 12321 N 2168.51 1.66875 -0.70098 0
M  V30 12322 N 2168.62 -0.016788 0.859836 0
M  V30 12323 C 2168.61 -0.398145 2.13316 0
M  V30 12324 N 2168.49 0.328224 3.22333 0
M  V30 12325 C 2168.37 1.62992 2.90383 0
M  V30 12326 H 2165.39 5.40394 6.8003 0
M  V30 12327 H 2165.12 4.41741 5.32532 0
M  V30 12328 H 2165.99 3.26371 7.47889 0
M  V30 12329 H 2168.64 1.64007 5.56746 0
M  V30 12330 H 2168.92 4.63439 5.3432 0
M  V30 12331 H 2169.91 3.44776 6.25925 0
M  V30 12332 H 2168.08 4.96707 7.57347 0
M  V30 12333 H 2168.04 4.8089 3.39924 0
M  V30 12334 H 2168.42 2.66547 -0.941919 0
M  V30 12335 H 2168.61 0.965341 -1.44766 0
M  V30 12336 H 2168.71 -1.46427 2.29697 0
M  V30 12337 P 2169.95 2.75334 8.47391 0
M  V30 12338 O 2170.17 2.44619 9.90336 0
M  V30 12339 O 2170.74 3.87776 7.92294 0
M  V30 12340 O 2170.2 1.4459 7.59357 0
M  V30 12341 C 2169.26 0.347653 7.69315 0
M  V30 12342 C 2169.99 -0.96767 7.52806 0
M  V30 12343 O 2170.2 -1.21055 6.10208 0
M  V30 12344 C 2171.39 -1.04557 8.13408 0
M  V30 12345 O 2171.78 -2.38311 8.41922 0
M  V30 12346 C 2172.27 -0.491279 7.02284 0
M  V30 12347 C 2171.56 -0.996264 5.77469 0
M  V30 12348 N 2171.61 -0.0501916 4.62973 0
M  V30 12349 H 2168.77 0.374765 8.67791 0
M  V30 12350 H 2168.5 0.443613 6.90476 0
M  V30 12351 H 2169.37 -1.75559 7.96891 0
M  V30 12352 H 2172.02 -1.94563 5.46818 0
M  V30 12353 H 2172.3 0.608651 7.04676 0
M  V30 12354 H 2173.29 -0.889796 7.09039 0
M  V30 12355 H 2171.46 -0.433128 9.04664 0
M  V30 12356 P 2173.33 -2.75334 8.47391 0
M  V30 12357 O 2173.55 -3.84128 9.44797 0
M  V30 12358 O 2174.12 -1.51947 8.68712 0
M  V30 12359 O 2173.58 -3.29363 6.99321 0
M  V30 12360 C 2172.64 -4.24011 6.4274 0
M  V30 12361 C 2173.37 -5.20775 5.52155 0
M  V30 12362 O 2173.58 -4.56534 4.22446 0
M  V30 12363 C 2174.77 -5.62629 5.96531 0
M  V30 12364 O 2175.16 -6.87667 5.41053 0
M  V30 12365 C 2175.65 -4.52537 5.39283 0
M  V30 12366 C 2174.94 -4.20027 4.08623 0
M  V30 12367 N 2174.99 -2.76189 3.71603 0
M  V30 12368 H 2172.15 -4.797 7.24003 0
M  V30 12369 H 2171.88 -3.69856 5.84513 0
M  V30 12370 H 2172.75 -6.10356 5.41441 0
M  V30 12371 P 2176.71 -7.20834 5.23717 0
M  V30 12372 O 2176.93 -8.66189 5.38625 0
M  V30 12373 O 2177.5 -6.33615 6.1356 0
M  V30 12374 O 2176.96 -6.7751 3.72168 0
M  V30 12375 C 2176.02 -7.20732 2.70725 0
M  V30 12376 C 2176.75 -7.45864 1.40599 0
M  V30 12377 O 2176.96 -6.17651 0.734225 0
M  V30 12378 C 2178.15 -8.05808 1.51899 0
M  V30 12379 O 2178.54 -8.74358 0.335205 0
M  V30 12380 C 2179.03 -6.83093 1.70294 0
M  V30 12381 C 2178.32 -5.79992 0.836974 0
M  V30 12382 N 2178.37 -4.41769 1.38263 0
M  V30 12383 C 2178.52 -3.38591 0.481702 0
M  V30 12384 O 2178.61 -3.56839 -0.718452 0
M  V30 12385 N 2178.56 -2.1206 1.03569 0
M  V30 12386 C 2178.47 -1.80696 2.36966 0
M  V30 12387 C 2178.32 -2.94845 3.23898 0
M  V30 12388 C 2178.27 -4.19803 2.73435 0
M  V30 12389 H 2175.53 -8.13644 3.0377 0
M  V30 12390 H 2175.26 -6.42695 2.55448 0
M  V30 12391 H 2176.13 -8.12039 0.792769 0
M  V30 12392 H 2178.78 -5.79978 -0.160587 0
M  V30 12393 H 2179.06 -6.51379 2.75643 0
M  V30 12394 H 2180.05 -7.01734 1.34462 0
M  V30 12395 H 2178.22 -8.73674 2.38337 0
M  V30 12396 H 2178.15 -5.04492 3.4095 0
M  V30 12397 P 2180.09 -8.91 4.17667e-11 0
M  V30 12398 O 2180.31 -10.1726 -0.733694 0
M  V30 12399 O 2180.88 -8.73148 1.23936 0
M  V30 12400 O 2180.34 -7.66872 -0.971405 0
M  V30 12401 C 2179.4 -7.42309 -2.04641 0
M  V30 12402 C 2180.13 -6.86059 -3.24661 0
M  V30 12403 O 2180.34 -5.42847 -3.03646 0
M  V30 12404 C 2181.53 -7.41196 -3.50753 0
M  V30 12405 O 2181.92 -7.27073 -4.86816 0
M  V30 12406 C 2182.41 -6.5273 -2.63741 0
M  V30 12407 C 2181.7 -5.1842 -2.73198 0
M  V30 12408 N 2181.75 -4.38762 -1.4784 0
M  V30 12409 H 2178.91 -8.36803 -2.32493 0
M  V30 12410 H 2178.64 -6.70197 -1.71129 0
M  V30 12411 H 2179.51 -7.03551 -4.13168 0
M  V30 12412 P 2183.47 -7.20834 -5.23717 0
M  V30 12413 O 2183.69 -7.79853 -6.57286 0
M  V30 12414 O 2184.26 -7.79239 -4.12957 0
M  V30 12415 O 2183.72 -5.63315 -5.29344 0
M  V30 12416 C 2182.78 -4.80255 -6.01876 0
M  V30 12417 C 2183.51 -3.64202 -6.65911 0
M  V30 12418 O 2183.72 -2.60694 -5.64732 0
M  V30 12419 C 2184.91 -3.93473 -7.1943 0
M  V30 12420 O 2185.3 -3.02071 -8.21205 0
M  V30 12421 C 2185.79 -3.73047 -5.97036 0
M  V30 12422 C 2185.08 -2.58828 -5.25741 0
M  V30 12423 N 2185.13 -2.68068 -3.77503 0
M  V30 12424 H 2182.29 -5.40332 -6.79951 0
M  V30 12425 H 2182.02 -4.41613 -5.32378 0
M  V30 12426 H 2182.89 -3.26331 -7.47797 0
M  V30 12427 P 2186.85 -2.75334 -8.47391 0
M  V30 12428 O 2187.07 -2.44571 -9.90142 0
M  V30 12429 O 2187.64 -3.87688 -7.92115 0
M  V30 12430 O 2187.1 -1.4459 -7.59357 0
M  V30 12431 C 2186.16 -0.347608 -7.69215 0
M  V30 12432 C 2186.89 0.96767 -7.52806 0
M  V30 12433 O 2187.1 1.21036 -6.1011 0
M  V30 12434 C 2188.29 1.04544 -8.13308 0
M  V30 12435 O 2188.68 2.38311 -8.41922 0
M  V30 12436 C 2189.17 0.491279 -7.02284 0
M  V30 12437 C 2188.46 0.996264 -5.77469 0
M  V30 12438 N 2188.51 0.0501916 -4.62973 0
M  V30 12439 H 2185.67 -0.374722 -8.67691 0
M  V30 12440 H 2185.4 -0.443485 -6.90277 0
M  V30 12441 H 2186.27 1.75537 -7.96793 0
M  V30 12442 P 2190.23 2.75334 -8.47391 0
M  V30 12443 O 2190.45 3.84128 -9.44797 0
M  V30 12444 O 2191.02 1.51947 -8.68712 0
M  V30 12445 O 2190.48 3.29363 -6.99321 0
M  V30 12446 C 2189.54 4.24011 -6.4274 0
M  V30 12447 C 2190.27 5.20775 -5.52155 0
M  V30 12448 O 2190.48 4.56534 -4.22446 0
M  V30 12449 C 2191.67 5.62629 -5.96531 0
M  V30 12450 O 2192.06 6.87667 -5.41053 0
M  V30 12451 C 2192.55 4.52537 -5.39283 0
M  V30 12452 C 2191.84 4.20027 -4.08623 0
M  V30 12453 N 2191.89 2.76189 -3.71603 0
M  V30 12454 H 2189.05 4.797 -7.24003 0
M  V30 12455 H 2188.78 3.69856 -5.84513 0
M  V30 12456 H 2189.65 6.10356 -5.41441 0
M  V30 12457 P 2193.61 7.20834 -5.23717 0
M  V30 12458 O 2193.83 8.66104 -5.38572 0
M  V30 12459 O 2194.4 6.33544 -6.1349 0
M  V30 12460 O 2193.86 6.7751 -3.72168 0
M  V30 12461 C 2192.92 7.20825 -2.7076 0
M  V30 12462 C 2193.65 7.45864 -1.40599 0
M  V30 12463 O 2193.86 6.17651 -0.734225 0
M  V30 12464 C 2195.05 8.05808 -1.51899 0
M  V30 12465 O 2195.44 8.74358 -0.335205 0
M  V30 12466 C 2195.93 6.83093 -1.70294 0
M  V30 12467 C 2195.22 5.79992 -0.836974 0
M  V30 12468 N 2195.27 4.41864 -1.38293 0
M  V30 12469 C 2195.19 3.99538 -2.69438 0
M  V30 12470 N 2195.27 2.69909 -2.84277 0
M  V30 12471 C 2195.41 2.21719 -1.5408 0
M  V30 12472 C 2195.54 0.891712 -1.06628 0
M  V30 12473 N 2195.66 0.856846 0.334985 0
M  V30 12474 C 2195.66 1.9641 1.15789 0
M  V30 12475 N 2195.79 1.72708 2.46522 0
M  V30 12476 N 2195.53 3.21165 0.713741 0
M  V30 12477 C 2195.41 3.26797 -0.639748 0
M  V30 12478 H 2192.43 8.13644 -3.0377 0
M  V30 12479 H 2192.16 6.42788 -2.55485 0
M  V30 12480 H 2193.03 8.12039 -0.792769 0
M  V30 12481 P 2196.99 8.91 -4.28757e-11 0
M  V30 12482 O 2197.21 10.1746 0.733838 0
M  V30 12483 O 2197.78 8.73346 -1.23964 0
M  V30 12484 O 2197.24 7.66872 0.971405 0
M  V30 12485 C 2196.3 7.42405 2.04668 0
M  V30 12486 C 2197.03 6.86059 3.24661 0
M  V30 12487 O 2197.24 5.42934 3.03695 0
M  V30 12488 C 2198.43 7.41287 3.50796 0
M  V30 12489 O 2198.82 7.27073 4.86816 0
M  V30 12490 C 2199.31 6.5273 2.63741 0
M  V30 12491 C 2198.6 5.1842 2.73198 0
M  V30 12492 N 2198.65 4.38762 1.4784 0
M  V30 12493 C 2198.57 4.83651 0.183876 0
M  V30 12494 N 2198.64 3.88759 -0.699393 0
M  V30 12495 C 2198.79 2.7404 0.0575568 0
M  V30 12496 C 2198.92 1.37902 -0.293928 0
M  V30 12497 N 2198.93 0.938021 -1.54797 0
M  V30 12498 N 2199.04 0.491817 0.70549 0
M  V30 12499 C 2199.03 0.931735 1.95979 0
M  V30 12500 N 2198.91 2.16017 2.41481 0
M  V30 12501 C 2198.79 3.02547 1.39121 0
M  V30 12502 H 2195.81 8.36899 2.3252 0
M  V30 12503 H 2195.54 6.70391 1.71179 0
M  V30 12504 H 2196.4 7.03638 4.13219 0
M  V30 12505 H 2199.06 4.59931 3.54016 0
M  V30 12506 H 2199.34 6.88995 1.59871 0
M  V30 12507 H 2200.33 6.4684 3.0373 0
M  V30 12508 H 2198.5 8.47002 3.20749 0
M  V30 12509 H 2198.46 5.8885 -0.0765548 0
M  V30 12510 H 2198.84 1.60276 -2.32875 0
M  V30 12511 H 2199.03 -0.0699355 -1.73859 0
M  V30 12512 H 2199.13 0.165507 2.71897 0
M  V30 12513 P 2200.37 7.20834 5.23717 0
M  V30 12514 O 2200.59 7.79853 6.57286 0
M  V30 12515 O 2201.16 7.79239 4.12957 0
M  V30 12516 O 2200.62 5.63315 5.29344 0
M  V30 12517 C 2199.68 4.80255 6.01876 0
M  V30 12518 C 2200.41 3.64202 6.65911 0
M  V30 12519 O 2200.62 2.60694 5.64732 0
M  V30 12520 C 2201.81 3.93473 7.1943 0
M  V30 12521 O 2202.2 3.02071 8.21205 0
M  V30 12522 C 2202.69 3.73047 5.97036 0
M  V30 12523 C 2201.98 2.58828 5.25741 0
M  V30 12524 N 2202.03 2.68068 3.77503 0
M  V30 12525 H 2199.19 5.40332 6.79951 0
M  V30 12526 H 2198.92 4.41613 5.32378 0
M  V30 12527 H 2199.78 3.26331 7.47797 0
M  V30 12528 P 2203.75 2.75334 8.47391 0
M  V30 12529 O 2203.97 2.44571 9.90142 0
M  V30 12530 O 2204.54 3.87688 7.92115 0
M  V30 12531 O 2204 1.4459 7.59357 0
M  V30 12532 C 2203.06 0.347608 7.69215 0
M  V30 12533 C 2203.79 -0.96767 7.52806 0
M  V30 12534 O 2204 -1.21036 6.1011 0
M  V30 12535 C 2205.19 -1.04544 8.13308 0
M  V30 12536 O 2205.58 -2.38311 8.41922 0
M  V30 12537 C 2206.07 -0.491279 7.02284 0
M  V30 12538 C 2205.36 -0.996264 5.77469 0
M  V30 12539 N 2205.41 -0.0501916 4.62973 0
M  V30 12540 H 2202.57 0.374722 8.67691 0
M  V30 12541 H 2202.3 0.443485 6.90277 0
M  V30 12542 H 2203.16 -1.75537 7.96793 0
M  V30 12543 P 2207.13 -2.75334 8.47391 0
M  V30 12544 O 2207.35 -3.84128 9.44797 0
M  V30 12545 O 2207.92 -1.51947 8.68712 0
M  V30 12546 O 2207.38 -3.29363 6.99321 0
M  V30 12547 C 2206.44 -4.24011 6.4274 0
M  V30 12548 C 2207.17 -5.20775 5.52155 0
M  V30 12549 O 2207.38 -4.56534 4.22446 0
M  V30 12550 C 2208.57 -5.62629 5.96531 0
M  V30 12551 O 2208.96 -6.87667 5.41053 0
M  V30 12552 C 2209.45 -4.52537 5.39283 0
M  V30 12553 C 2208.74 -4.20027 4.08623 0
M  V30 12554 N 2208.79 -2.76189 3.71603 0
M  V30 12555 H 2205.95 -4.797 7.24003 0
M  V30 12556 H 2205.68 -3.69856 5.84513 0
M  V30 12557 H 2206.54 -6.10356 5.41441 0
M  V30 12558 P 2210.51 -7.20834 5.23717 0
M  V30 12559 O 2210.73 -8.66104 5.38572 0
M  V30 12560 O 2211.3 -6.33544 6.1349 0
M  V30 12561 O 2210.76 -6.7751 3.72168 0
M  V30 12562 C 2209.82 -7.20825 2.7076 0
M  V30 12563 C 2210.55 -7.45864 1.40599 0
M  V30 12564 O 2210.76 -6.17651 0.734225 0
M  V30 12565 C 2211.95 -8.05808 1.51899 0
M  V30 12566 O 2212.34 -8.74358 0.335205 0
M  V30 12567 C 2212.83 -6.83093 1.70294 0
M  V30 12568 C 2212.12 -5.79992 0.836974 0
M  V30 12569 N 2212.17 -4.41864 1.38293 0
M  V30 12570 H 2209.33 -8.13644 3.0377 0
M  V30 12571 H 2209.06 -6.42788 2.55485 0
M  V30 12572 H 2209.92 -8.12039 0.792769 0
M  V30 12573 P 2213.89 -8.91 4.39847e-11 0
M  V30 12574 O 2214.11 -10.1726 -0.733694 0
M  V30 12575 O 2214.68 -8.73148 1.23936 0
M  V30 12576 O 2214.14 -7.66872 -0.971405 0
M  V30 12577 C 2213.2 -7.42309 -2.04641 0
M  V30 12578 C 2213.93 -6.86059 -3.24661 0
M  V30 12579 O 2214.14 -5.42847 -3.03646 0
M  V30 12580 C 2215.33 -7.41196 -3.50753 0
M  V30 12581 O 2215.72 -7.27073 -4.86816 0
M  V30 12582 C 2216.21 -6.5273 -2.63741 0
M  V30 12583 C 2215.5 -5.1842 -2.73198 0
M  V30 12584 N 2215.55 -4.38762 -1.4784 0
M  V30 12585 C 2215.47 -4.81605 -0.168631 0
M  V30 12586 N 2215.55 -3.85454 0.713363 0
M  V30 12587 C 2215.69 -2.6994 -0.0566958 0
M  V30 12588 C 2215.82 -1.34815 0.338502 0
M  V30 12589 N 2215.94 -0.496304 -0.77465 0
M  V30 12590 C 2215.94 -0.908403 -2.09122 0
M  V30 12591 N 2216.07 0.0517805 -3.00955 0
M  V30 12592 N 2215.81 -2.17875 -2.46519 0
M  V30 12593 C 2215.69 -3.01988 -1.4033 0
M  V30 12594 H 2212.71 -8.36803 -2.32493 0
M  V30 12595 H 2212.44 -6.70197 -1.71129 0
M  V30 12596 H 2213.3 -7.03551 -4.13168 0
M  V30 12597 P 2217.27 -7.20834 -5.23717 0
M  V30 12598 O 2217.49 -7.79853 -6.57286 0
M  V30 12599 O 2218.06 -7.79239 -4.12957 0
M  V30 12600 O 2217.52 -5.63315 -5.29344 0
M  V30 12601 C 2216.58 -4.80255 -6.01876 0
M  V30 12602 C 2217.31 -3.64202 -6.65911 0
M  V30 12603 O 2217.52 -2.60694 -5.64732 0
M  V30 12604 C 2218.71 -3.93473 -7.1943 0
M  V30 12605 O 2219.1 -3.02071 -8.21205 0
M  V30 12606 C 2219.59 -3.73047 -5.97036 0
M  V30 12607 C 2218.88 -2.58828 -5.25741 0
M  V30 12608 N 2218.93 -2.68068 -3.77503 0
M  V30 12609 H 2216.09 -5.40332 -6.79951 0
M  V30 12610 H 2215.82 -4.41613 -5.32378 0
M  V30 12611 H 2216.68 -3.26331 -7.47797 0
M  V30 12612 P 2220.65 -2.75334 -8.47391 0
M  V30 12613 O 2220.87 -2.44571 -9.90142 0
M  V30 12614 O 2221.44 -3.87688 -7.92115 0
M  V30 12615 O 2220.9 -1.4459 -7.59357 0
M  V30 12616 C 2219.96 -0.347608 -7.69215 0
M  V30 12617 C 2220.69 0.96767 -7.52806 0
M  V30 12618 O 2220.9 1.21036 -6.1011 0
M  V30 12619 C 2222.09 1.04544 -8.13308 0
M  V30 12620 O 2222.48 2.38311 -8.41922 0
M  V30 12621 C 2222.97 0.491279 -7.02284 0
M  V30 12622 C 2222.26 0.996264 -5.77469 0
M  V30 12623 N 2222.31 0.0501916 -4.62973 0
M  V30 12624 C 2222.23 -1.32786 -4.63244 0
M  V30 12625 N 2222.31 -1.86957 -3.44545 0
M  V30 12626 C 2222.45 -0.780241 -2.58481 0
M  V30 12627 C 2222.58 -0.738536 -1.17757 0
M  V30 12628 O 2222.6 -1.66794 -0.372349 0
M  V30 12629 N 2222.7 0.58337 -0.711393 0
M  V30 12630 C 2222.7 1.70816 -1.51017 0
M  V30 12631 N 2222.83 2.87826 -0.880757 0
M  V30 12632 N 2222.57 1.67126 -2.8339 0
M  V30 12633 C 2222.45 0.401421 -3.30572 0
M  V30 12634 H 2219.47 -0.374722 -8.67691 0
M  V30 12635 H 2219.2 -0.443485 -6.90277 0
M  V30 12636 H 2220.06 1.75537 -7.96793 0
M  V30 12637 H 2222.72 1.95076 -5.46529 0
M  V30 12638 H 2223 -0.608565 -7.04577 0
M  V30 12639 H 2223.99 0.889672 -7.08939 0
M  V30 12640 H 2222.16 0.43308 -9.04564 0
M  V30 12641 H 2222.11 -1.91249 -5.54442 0
M  V30 12642 H 2222.79 0.718054 0.275244 0
M  V30 12643 H 2222.83 3.75721 -1.41832 0
M  V30 12644 H 2222.93 2.90436 0.145468 0
M  V30 12645 P 2224.03 2.75334 -8.47391 0
M  V30 12646 O 2224.25 3.84128 -9.44797 0
M  V30 12647 O 2224.82 1.51947 -8.68712 0
M  V30 12648 O 2224.28 3.29363 -6.99321 0
M  V30 12649 C 2223.34 4.24011 -6.4274 0
M  V30 12650 C 2224.07 5.20775 -5.52155 0
M  V30 12651 O 2224.28 4.56534 -4.22446 0
M  V30 12652 C 2225.47 5.62629 -5.96531 0
M  V30 12653 O 2225.86 6.87667 -5.41053 0
M  V30 12654 C 2226.35 4.52537 -5.39283 0
M  V30 12655 C 2225.64 4.20027 -4.08623 0
M  V30 12656 N 2225.69 2.76189 -3.71603 0
M  V30 12657 H 2222.85 4.797 -7.24003 0
M  V30 12658 H 2222.58 3.69856 -5.84513 0
M  V30 12659 H 2223.44 6.10356 -5.41441 0
M  V30 12660 P 2227.41 7.20834 -5.23717 0
M  V30 12661 O 2227.63 8.66274 -5.38678 0
M  V30 12662 O 2228.2 6.33687 -6.13629 0
M  V30 12663 O 2227.66 6.7751 -3.72168 0
M  V30 12664 C 2226.72 7.20919 -2.70795 0
M  V30 12665 C 2227.45 7.45864 -1.40599 0
M  V30 12666 O 2227.66 6.17751 -0.734343 0
M  V30 12667 C 2228.85 8.05906 -1.51917 0
M  V30 12668 O 2229.24 8.74358 -0.335205 0
M  V30 12669 C 2229.73 6.83093 -1.70294 0
M  V30 12670 C 2229.02 5.79992 -0.836974 0
M  V30 12671 N 2229.07 4.41864 -1.38293 0
M  V30 12672 H 2226.23 8.13738 -3.03804 0
M  V30 12673 H 2225.96 6.42974 -2.55559 0
M  V30 12674 H 2226.82 8.12139 -0.792866 0
M  V30 12675 H 2229.48 5.80178 0.160643 0
M  V30 12676 H 2229.76 6.51379 -2.75643 0
M  V30 12677 H 2230.75 7.01832 -1.3448 0
M  V30 12678 H 2228.92 8.73771 -2.38364 0
M  V30 12679 P 2230.79 8.91 -4.50937e-11 0
M  V30 12680 O 2231.01 10.1726 0.733694 0
M  V30 12681 O 2231.58 8.73148 -1.23936 0
M  V30 12682 O 2231.04 7.66872 0.971405 0
M  V30 12683 C 2230.1 7.42309 2.04641 0
M  V30 12684 C 2230.83 6.86059 3.24661 0
M  V30 12685 O 2231.04 5.42847 3.03646 0
M  V30 12686 C 2232.23 7.41196 3.50753 0
M  V30 12687 O 2232.62 7.27073 4.86816 0
M  V30 12688 C 2233.11 6.5273 2.63741 0
M  V30 12689 C 2232.4 5.1842 2.73198 0
M  V30 12690 N 2232.45 4.38762 1.4784 0
M  V30 12691 H 2229.61 8.36803 2.32493 0
M  V30 12692 H 2229.34 6.70197 1.71129 0
M  V30 12693 H 2230.2 7.03551 4.13168 0
M  V30 12694 P 2234.17 7.20834 5.23717 0
M  V30 12695 O 2234.39 7.79853 6.57286 0
M  V30 12696 O 2234.96 7.79239 4.12957 0
M  V30 12697 O 2234.42 5.63315 5.29344 0
M  V30 12698 C 2233.48 4.80255 6.01876 0
M  V30 12699 C 2234.21 3.64202 6.65911 0
M  V30 12700 O 2234.42 2.60694 5.64732 0
M  V30 12701 C 2235.61 3.93473 7.1943 0
M  V30 12702 O 2236 3.02071 8.21205 0
M  V30 12703 C 2236.49 3.73047 5.97036 0
M  V30 12704 C 2235.78 2.58828 5.25741 0
M  V30 12705 N 2235.83 2.68068 3.77503 0
M  V30 12706 H 2232.99 5.40332 6.79951 0
M  V30 12707 H 2232.72 4.41613 5.32378 0
M  V30 12708 H 2233.58 3.26331 7.47797 0
M  V30 12709 P 2237.55 2.75334 8.47391 0
M  V30 12710 O 2237.77 2.44571 9.90142 0
M  V30 12711 O 2238.34 3.87688 7.92115 0
M  V30 12712 O 2237.8 1.4459 7.59357 0
M  V30 12713 C 2236.86 0.347608 7.69215 0
M  V30 12714 C 2237.59 -0.96767 7.52806 0
M  V30 12715 O 2237.8 -1.21036 6.1011 0
M  V30 12716 C 2238.99 -1.04544 8.13308 0
M  V30 12717 O 2239.38 -2.38311 8.41922 0
M  V30 12718 C 2239.87 -0.491279 7.02284 0
M  V30 12719 C 2239.16 -0.996264 5.77469 0
M  V30 12720 N 2239.21 -0.0501916 4.62973 0
M  V30 12721 H 2236.37 0.374722 8.67691 0
M  V30 12722 H 2236.1 0.443485 6.90277 0
M  V30 12723 H 2236.96 -1.75537 7.96793 0
M  V30 12724 P 2240.93 -2.75334 8.47391 0
M  V30 12725 O 2241.15 -3.84128 9.44797 0
M  V30 12726 O 2241.72 -1.51947 8.68712 0
M  V30 12727 O 2241.18 -3.29363 6.99321 0
M  V30 12728 C 2240.24 -4.24011 6.4274 0
M  V30 12729 C 2240.97 -5.20775 5.52155 0
M  V30 12730 O 2241.18 -4.56534 4.22446 0
M  V30 12731 C 2242.37 -5.62629 5.96531 0
M  V30 12732 O 2242.76 -6.87667 5.41053 0
M  V30 12733 C 2243.25 -4.52537 5.39283 0
M  V30 12734 C 2242.54 -4.20027 4.08623 0
M  V30 12735 N 2242.59 -2.76189 3.71603 0
M  V30 12736 H 2239.75 -4.797 7.24003 0
M  V30 12737 H 2239.48 -3.69856 5.84513 0
M  V30 12738 H 2240.34 -6.10356 5.41441 0
M  V30 12739 P 2244.31 -7.20834 5.23717 0
M  V30 12740 O 2244.53 -8.66104 5.38572 0
M  V30 12741 O 2245.1 -6.33544 6.1349 0
M  V30 12742 O 2244.56 -6.7751 3.72168 0
M  V30 12743 C 2243.62 -7.20825 2.7076 0
M  V30 12744 C 2244.35 -7.45864 1.40599 0
M  V30 12745 O 2244.56 -6.17651 0.734225 0
M  V30 12746 C 2245.75 -8.05808 1.51899 0
M  V30 12747 O 2246.14 -8.74358 0.335205 0
M  V30 12748 C 2246.63 -6.83093 1.70294 0
M  V30 12749 C 2245.92 -5.79992 0.836974 0
M  V30 12750 N 2245.97 -4.41864 1.38293 0
M  V30 12751 H 2243.13 -8.13644 3.0377 0
M  V30 12752 H 2242.86 -6.42788 2.55485 0
M  V30 12753 H 2243.72 -8.12039 0.792769 0
M  V30 12754 P 2247.69 -8.91 4.62027e-11 0
M  V30 12755 O 2247.91 -10.1726 -0.733694 0
M  V30 12756 O 2248.48 -8.73148 1.23936 0
M  V30 12757 O 2247.94 -7.66872 -0.971405 0
M  V30 12758 C 2247 -7.42309 -2.04641 0
M  V30 12759 C 2247.73 -6.86059 -3.24661 0
M  V30 12760 O 2247.94 -5.42847 -3.03646 0
M  V30 12761 C 2249.13 -7.41196 -3.50753 0
M  V30 12762 O 2249.52 -7.27073 -4.86816 0
M  V30 12763 C 2250.01 -6.5273 -2.63741 0
M  V30 12764 C 2249.3 -5.1842 -2.73198 0
M  V30 12765 N 2249.35 -4.38762 -1.4784 0
M  V30 12766 C 2249.27 -4.81605 -0.168631 0
M  V30 12767 N 2249.35 -3.85454 0.713363 0
M  V30 12768 C 2249.49 -2.6994 -0.0566958 0
M  V30 12769 C 2249.62 -1.34815 0.338502 0
M  V30 12770 O 2249.64 -0.869548 1.47125 0
M  V30 12771 N 2249.74 -0.496304 -0.77465 0
M  V30 12772 C 2249.74 -0.908403 -2.09122 0
M  V30 12773 N 2249.87 0.0517805 -3.00955 0
M  V30 12774 N 2249.61 -2.17875 -2.46519 0
M  V30 12775 C 2249.49 -3.01988 -1.4033 0
M  V30 12776 H 2246.51 -8.36803 -2.32493 0
M  V30 12777 H 2246.24 -6.70197 -1.71129 0
M  V30 12778 H 2247.1 -7.03551 -4.13168 0
M  V30 12779 H 2249.76 -4.59498 -3.54415 0
M  V30 12780 H 2250.04 -6.88898 -1.59848 0
M  V30 12781 H 2251.03 -6.46749 -3.03687 0
M  V30 12782 H 2249.2 -8.46908 -3.20714 0
M  V30 12783 H 2249.15 -5.86405 0.105564 0
M  V30 12784 H 2249.83 0.483664 -0.597855 0
M  V30 12785 H 2249.87 -0.187865 -4.0116 0
M  V30 12786 H 2249.97 1.03585 -2.71726 0
M  V30 12787 P 2251.07 -7.20834 -5.23717 0
M  V30 12788 O 2251.29 -7.7993 -6.57351 0
M  V30 12789 O 2251.86 -7.79328 -4.13004 0
M  V30 12790 O 2251.32 -5.63315 -5.29344 0
M  V30 12791 C 2250.38 -4.80193 -6.01798 0
M  V30 12792 C 2251.11 -3.64202 -6.65911 0
M  V30 12793 O 2251.32 -2.60694 -5.64732 0
M  V30 12794 C 2252.51 -3.93473 -7.1943 0
M  V30 12795 O 2252.9 -3.02071 -8.21205 0
M  V30 12796 C 2253.39 -3.73047 -5.97036 0
M  V30 12797 C 2252.68 -2.58828 -5.25741 0
M  V30 12798 N 2252.73 -2.6801 -3.77422 0
M  V30 12799 C 2252.88 -1.50443 -3.07133 0
M  V30 12800 O 2252.97 -0.419406 -3.61576 0
M  V30 12801 N 2252.92 -1.6403 -1.69677 0
M  V30 12802 C 2252.83 -2.81206 -0.986255 0
M  V30 12803 O 2252.88 -2.80892 0.249754 0
M  V30 12804 C 2252.68 -3.99158 -1.80325 0
M  V30 12805 C 2252.57 -5.29309 -1.06921 0
M  V30 12806 C 2252.63 -3.89779 -3.1476 0
M  V30 12807 H 2249.89 -5.40332 -6.79951 0
M  V30 12808 H 2249.62 -4.41549 -5.32301 0
M  V30 12809 H 2250.48 -3.26331 -7.47797 0
M  V30 12810 H 2253.14 -1.6395 -5.56554 0
M  V30 12811 H 2253.42 -4.63439 -5.3432 0
M  V30 12812 H 2254.41 -3.44728 -6.25838 0
M  V30 12813 H 2252.58 -4.96652 -7.57263 0
M  V30 12814 H 2252.51 -4.80159 -3.74441 0
M  V30 12815 H 2253.54 -5.81459 -1.09608 0
M  V30 12816 H 2251.8 -5.9187 -1.54487 0
M  V30 12817 H 2252.29 -5.10095 -0.0220288 0
M  V30 12818 H 2253.02 -0.798962 -1.16664 0
M  V30 12819 P 2254.45 -2.75334 -8.47391 0
M  V30 12820 O 2254.67 -2.44595 -9.90239 0
M  V30 12821 O 2255.24 -3.87732 -7.92204 0
M  V30 12822 O 2254.7 -1.4459 -7.59357 0
M  V30 12823 C 2253.76 -0.347563 -7.69115 0
M  V30 12824 C 2254.49 0.96767 -7.52806 0
M  V30 12825 O 2254.7 1.21036 -6.1011 0
M  V30 12826 C 2255.89 1.04544 -8.13308 0
M  V30 12827 O 2256.28 2.38311 -8.41922 0
M  V30 12828 C 2256.77 0.491279 -7.02284 0
M  V30 12829 C 2256.06 0.996264 -5.77469 0
M  V30 12830 N 2256.11 0.0501808 -4.62873 0
M  V30 12831 C 2256.26 0.588177 -3.36904 0
M  V30 12832 O 2256.35 1.78598 -3.17173 0
M  V30 12833 N 2256.3 -0.329694 -2.33686 0
M  V30 12834 C 2256.21 -1.6953 -2.45079 0
M  V30 12835 O 2256.26 -2.41926 -1.44899 0
M  V30 12836 C 2256.06 -2.16933 -3.80505 0
M  V30 12837 C 2255.95 -3.65373 -3.97621 0
M  V30 12838 C 2256.01 -1.30326 -4.83752 0
M  V30 12839 H 2253.27 -0.374722 -8.67691 0
M  V30 12840 H 2253 -0.443421 -6.90177 0
M  V30 12841 H 2253.86 1.75537 -7.96793 0
M  V30 12842 H 2256.52 1.94496 -5.46629 0
M  V30 12843 H 2256.8 -0.608651 -7.04676 0
M  V30 12844 H 2257.79 0.889672 -7.08939 0
M  V30 12845 H 2255.96 0.43308 -9.04564 0
M  V30 12846 H 2255.89 -1.68366 -5.8516 0
M  V30 12847 H 2256.92 -4.05985 -4.30448 0
M  V30 12848 H 2255.18 -3.88028 -4.72875 0
M  V30 12849 H 2255.67 -4.11381 -3.01609 0
M  V30 12850 H 2256.4 0.0393617 -1.41345 0
M  V30 12851 P 2257.83 2.75334 -8.47391 0
M  V30 12852 O 2258.05 3.84128 -9.44797 0
M  V30 12853 O 2258.62 1.51947 -8.68712 0
M  V30 12854 O 2258.08 3.29363 -6.99321 0
M  V30 12855 C 2257.14 4.24011 -6.4274 0
M  V30 12856 C 2257.87 5.20775 -5.52155 0
M  V30 12857 O 2258.08 4.56534 -4.22446 0
M  V30 12858 C 2259.27 5.62629 -5.96531 0
M  V30 12859 O 2259.66 6.87667 -5.41053 0
M  V30 12860 C 2260.15 4.52537 -5.39283 0
M  V30 12861 C 2259.44 4.20027 -4.08623 0
M  V30 12862 N 2259.49 2.76189 -3.71603 0
M  V30 12863 H 2256.65 4.797 -7.24003 0
M  V30 12864 H 2256.38 3.69856 -5.84513 0
M  V30 12865 H 2257.24 6.10356 -5.41441 0
M  V30 12866 P 2261.21 7.20834 -5.23717 0
M  V30 12867 O 2261.43 8.66104 -5.38572 0
M  V30 12868 O 2262 6.33544 -6.1349 0
M  V30 12869 O 2261.46 6.7751 -3.72168 0
M  V30 12870 C 2260.52 7.20825 -2.7076 0
M  V30 12871 C 2261.25 7.45864 -1.40599 0
M  V30 12872 O 2261.46 6.17651 -0.734225 0
M  V30 12873 C 2262.65 8.05808 -1.51899 0
M  V30 12874 O 2263.04 8.74358 -0.335205 0
M  V30 12875 C 2263.53 6.83093 -1.70294 0
M  V30 12876 C 2262.82 5.79992 -0.836974 0
M  V30 12877 N 2262.87 4.41864 -1.38293 0
M  V30 12878 H 2260.03 8.13644 -3.0377 0
M  V30 12879 H 2259.76 6.42788 -2.55485 0
M  V30 12880 H 2260.62 8.12039 -0.792769 0
M  V30 12881 P 2264.59 8.91 -4.73117e-11 0
M  V30 12882 O 2264.81 10.1726 0.733694 0
M  V30 12883 O 2265.38 8.73148 -1.23936 0
M  V30 12884 O 2264.84 7.66872 0.971405 0
M  V30 12885 C 2263.9 7.42309 2.04641 0
M  V30 12886 C 2264.63 6.86059 3.24661 0
M  V30 12887 O 2264.84 5.42847 3.03646 0
M  V30 12888 C 2266.03 7.41196 3.50753 0
M  V30 12889 O 2266.42 7.27073 4.86816 0
M  V30 12890 C 2266.91 6.5273 2.63741 0
M  V30 12891 C 2266.2 5.1842 2.73198 0
M  V30 12892 N 2266.25 4.38762 1.4784 0
M  V30 12893 H 2263.41 8.36803 2.32493 0
M  V30 12894 H 2263.14 6.70197 1.71129 0
M  V30 12895 H 2264 7.03551 4.13168 0
M  V30 12896 P 2267.97 7.20834 5.23717 0
M  V30 12897 O 2268.19 7.80006 6.57415 0
M  V30 12898 O 2268.76 7.79416 4.13051 0
M  V30 12899 O 2268.22 5.63315 5.29344 0
M  V30 12900 C 2267.28 4.80318 6.01954 0
M  V30 12901 C 2268.01 3.64202 6.65911 0
M  V30 12902 O 2268.22 2.60736 5.64823 0
M  V30 12903 C 2269.41 3.93521 7.19518 0
M  V30 12904 O 2269.8 3.02071 8.21205 0
M  V30 12905 C 2270.29 3.73047 5.97036 0
M  V30 12906 C 2269.58 2.58828 5.25741 0
M  V30 12907 N 2269.63 2.68068 3.77503 0
M  V30 12908 C 2269.55 3.80474 2.99159 0
M  V30 12909 N 2269.62 3.55622 1.71925 0
M  V30 12910 C 2269.77 2.1832 1.65733 0
M  V30 12911 C 2269.9 1.28842 0.572777 0
M  V30 12912 N 2269.91 1.66875 -0.70098 0
M  V30 12913 N 2270.02 -0.016788 0.859836 0
M  V30 12914 C 2270.01 -0.398145 2.13316 0
M  V30 12915 N 2269.89 0.328224 3.22333 0
M  V30 12916 C 2269.77 1.62992 2.90383 0
M  V30 12917 H 2266.79 5.40394 6.8003 0
M  V30 12918 H 2266.52 4.41741 5.32532 0
M  V30 12919 H 2267.38 3.26371 7.47889 0
M  V30 12920 H 2270.04 1.64007 5.56746 0
M  V30 12921 H 2270.32 4.63439 5.3432 0
M  V30 12922 H 2271.31 3.44776 6.25925 0
M  V30 12923 H 2269.48 4.96707 7.57347 0
M  V30 12924 H 2269.44 4.8089 3.39924 0
M  V30 12925 H 2269.82 2.66547 -0.941919 0
M  V30 12926 H 2270.01 0.965341 -1.44766 0
M  V30 12927 H 2270.11 -1.46427 2.29697 0
M  V30 12928 P 2271.35 2.75334 8.47391 0
M  V30 12929 O 2271.57 2.44571 9.90142 0
M  V30 12930 O 2272.14 3.87688 7.92115 0
M  V30 12931 O 2271.6 1.4459 7.59357 0
M  V30 12932 C 2270.66 0.347608 7.69215 0
M  V30 12933 C 2271.39 -0.96767 7.52806 0
M  V30 12934 O 2271.6 -1.21036 6.1011 0
M  V30 12935 C 2272.79 -1.04544 8.13308 0
M  V30 12936 O 2273.18 -2.38311 8.41922 0
M  V30 12937 C 2273.67 -0.491279 7.02284 0
M  V30 12938 C 2272.96 -0.996264 5.77469 0
M  V30 12939 N 2273.01 -0.0501916 4.62973 0
M  V30 12940 H 2270.17 0.374722 8.67691 0
M  V30 12941 H 2269.9 0.443485 6.90277 0
M  V30 12942 H 2270.76 -1.75537 7.96793 0
M  V30 12943 P 2274.73 -2.75334 8.47391 0
M  V30 12944 O 2274.95 -3.84128 9.44797 0
M  V30 12945 O 2275.52 -1.51947 8.68712 0
M  V30 12946 O 2274.98 -3.29363 6.99321 0
M  V30 12947 C 2274.04 -4.24011 6.4274 0
M  V30 12948 C 2274.77 -5.20775 5.52155 0
M  V30 12949 O 2274.98 -4.56534 4.22446 0
M  V30 12950 C 2276.17 -5.62629 5.96531 0
M  V30 12951 O 2276.56 -6.87667 5.41053 0
M  V30 12952 C 2277.05 -4.52537 5.39283 0
M  V30 12953 C 2276.34 -4.20027 4.08623 0
M  V30 12954 N 2276.39 -2.76189 3.71603 0
M  V30 12955 H 2273.55 -4.797 7.24003 0
M  V30 12956 H 2273.28 -3.69856 5.84513 0
M  V30 12957 H 2274.14 -6.10356 5.41441 0
M  V30 12958 P 2278.11 -7.20834 5.23717 0
M  V30 12959 O 2278.33 -8.66104 5.38572 0
M  V30 12960 O 2278.9 -6.33544 6.1349 0
M  V30 12961 O 2278.36 -6.7751 3.72168 0
M  V30 12962 C 2277.42 -7.20825 2.7076 0
M  V30 12963 C 2278.15 -7.45864 1.40599 0
M  V30 12964 O 2278.36 -6.17651 0.734225 0
M  V30 12965 C 2279.55 -8.05808 1.51899 0
M  V30 12966 O 2279.94 -8.74358 0.335205 0
M  V30 12967 C 2280.43 -6.83093 1.70294 0
M  V30 12968 C 2279.72 -5.79992 0.836974 0
M  V30 12969 N 2279.77 -4.41864 1.38293 0
M  V30 12970 H 2276.93 -8.13644 3.0377 0
M  V30 12971 H 2276.66 -6.42788 2.55485 0
M  V30 12972 H 2277.52 -8.12039 0.792769 0
M  V30 12973 P 2281.49 -8.91 4.84207e-11 0
M  V30 12974 O 2281.71 -10.1726 -0.733694 0
M  V30 12975 O 2282.28 -8.73148 1.23936 0
M  V30 12976 O 2281.74 -7.66872 -0.971405 0
M  V30 12977 C 2280.8 -7.42309 -2.04641 0
M  V30 12978 C 2281.53 -6.86059 -3.24661 0
M  V30 12979 O 2281.74 -5.42847 -3.03646 0
M  V30 12980 C 2282.93 -7.41196 -3.50753 0
M  V30 12981 O 2283.32 -7.27073 -4.86816 0
M  V30 12982 C 2283.81 -6.5273 -2.63741 0
M  V30 12983 C 2283.1 -5.1842 -2.73198 0
M  V30 12984 N 2283.15 -4.38762 -1.4784 0
M  V30 12985 H 2280.31 -8.36803 -2.32493 0
M  V30 12986 H 2280.04 -6.70197 -1.71129 0
M  V30 12987 H 2280.9 -7.03551 -4.13168 0
M  V30 12988 P 2284.87 -7.20834 -5.23717 0
M  V30 12989 O 2285.09 -7.79853 -6.57286 0
M  V30 12990 O 2285.66 -7.79239 -4.12957 0
M  V30 12991 O 2285.12 -5.63315 -5.29344 0
M  V30 12992 C 2284.18 -4.80255 -6.01876 0
M  V30 12993 C 2284.91 -3.64202 -6.65911 0
M  V30 12994 O 2285.12 -2.60694 -5.64732 0
M  V30 12995 C 2286.31 -3.93473 -7.1943 0
M  V30 12996 O 2286.7 -3.02071 -8.21205 0
M  V30 12997 C 2287.19 -3.73047 -5.97036 0
M  V30 12998 C 2286.48 -2.58828 -5.25741 0
M  V30 12999 N 2286.53 -2.68068 -3.77503 0
M  V30 13000 H 2283.69 -5.40332 -6.79951 0
M  V30 13001 H 2283.42 -4.41613 -5.32378 0
M  V30 13002 H 2284.28 -3.26331 -7.47797 0
M  V30 13003 P 2288.25 -2.75334 -8.47391 0
M  V30 13004 O 2288.47 -2.44571 -9.90142 0
M  V30 13005 O 2289.04 -3.87688 -7.92115 0
M  V30 13006 O 2288.5 -1.4459 -7.59357 0
M  V30 13007 C 2287.56 -0.347608 -7.69215 0
M  V30 13008 C 2288.29 0.96767 -7.52806 0
M  V30 13009 O 2288.5 1.21036 -6.1011 0
M  V30 13010 C 2289.69 1.04544 -8.13308 0
M  V30 13011 O 2290.08 2.38311 -8.41922 0
M  V30 13012 C 2290.57 0.491279 -7.02284 0
M  V30 13013 C 2289.86 0.996264 -5.77469 0
M  V30 13014 N 2289.91 0.0501916 -4.62973 0
M  V30 13015 H 2287.07 -0.374722 -8.67691 0
M  V30 13016 H 2286.8 -0.443485 -6.90277 0
M  V30 13017 H 2287.66 1.75537 -7.96793 0
M  V30 13018 P 2291.63 2.75334 -8.47391 0
M  V30 13019 O 2291.85 3.84204 -9.44982 0
M  V30 13020 O 2292.42 1.51982 -8.68909 0
M  V30 13021 O 2291.88 3.29363 -6.99321 0
M  V30 13022 C 2290.94 4.24066 -6.42823 0
M  V30 13023 C 2291.67 5.20775 -5.52155 0
M  V30 13024 O 2291.88 4.56607 -4.22514 0
M  V30 13025 C 2293.07 5.62697 -5.96604 0
M  V30 13026 O 2293.46 6.87667 -5.41053 0
M  V30 13027 C 2293.95 4.52537 -5.39283 0
M  V30 13028 C 2293.24 4.20027 -4.08623 0
M  V30 13029 N 2293.29 2.76189 -3.71603 0
M  V30 13030 H 2290.45 4.79756 -7.24086 0
M  V30 13031 H 2290.18 3.69963 -5.84682 0
M  V30 13032 H 2291.04 6.10431 -5.41508 0
M  V30 13033 H 2293.7 4.78816 -3.28024 0
M  V30 13034 H 2293.98 3.64957 -6.05871 0
M  V30 13035 H 2294.97 4.88748 -5.21323 0
M  V30 13036 H 2293.14 5.66789 -7.0643 0
M  V30 13037 P 2295.01 7.20834 -5.23717 0
M  V30 13038 O 2295.23 8.66274 -5.38678 0
M  V30 13039 O 2295.8 6.33687 -6.13629 0
M  V30 13040 O 2295.26 6.7751 -3.72168 0
M  V30 13041 C 2294.32 7.20919 -2.70795 0
M  V30 13042 C 2295.05 7.45864 -1.40599 0
M  V30 13043 O 2295.26 6.17751 -0.734343 0
M  V30 13044 C 2296.45 8.05906 -1.51917 0
M  V30 13045 O 2296.84 8.74358 -0.335205 0
M  V30 13046 C 2297.33 6.83093 -1.70294 0
M  V30 13047 C 2296.62 5.79992 -0.836974 0
M  V30 13048 N 2296.67 4.41864 -1.38293 0
M  V30 13049 C 2296.59 4.02089 -2.69407 0
M  V30 13050 N 2296.66 2.73403 -2.85089 0
M  V30 13051 C 2296.81 2.25086 -1.5642 0
M  V30 13052 C 2296.94 0.942887 -1.04836 0
M  V30 13053 N 2296.95 -0.150999 -1.80369 0
M  V30 13054 N 2297.06 0.812565 0.28167 0
M  V30 13055 C 2297.05 1.90572 1.03784 0
M  V30 13056 N 2296.93 3.167 0.683905 0
M  V30 13057 C 2296.81 3.26538 -0.652815 0
M  V30 13058 H 2293.83 8.13738 -3.03804 0
M  V30 13059 H 2293.56 6.42974 -2.55559 0
M  V30 13060 H 2294.42 8.12139 -0.792866 0
M  V30 13061 H 2297.08 5.80178 0.160643 0
M  V30 13062 H 2297.36 6.51379 -2.75643 0
M  V30 13063 H 2298.35 7.01832 -1.3448 0
M  V30 13064 H 2296.52 8.73771 -2.38364 0
M  V30 13065 H 2296.48 4.7189 -3.52311 0
M  V30 13066 H 2296.86 -0.0721434 -2.82608 0
M  V30 13067 H 2297.05 -1.0785 -1.36544 0
M  V30 13068 H 2297.15 1.73207 2.10241 0
M  V30 13069 P 2298.39 8.91 -4.95297e-11 0
M  V30 13070 O 2298.61 10.1726 0.733694 0
M  V30 13071 O 2299.18 8.73148 -1.23936 0
M  V30 13072 O 2298.64 7.66872 0.971405 0
M  V30 13073 C 2297.7 7.42309 2.04641 0
M  V30 13074 C 2298.43 6.86059 3.24661 0
M  V30 13075 O 2298.64 5.42847 3.03646 0
M  V30 13076 C 2299.83 7.41196 3.50753 0
M  V30 13077 O 2300.22 7.27073 4.86816 0
M  V30 13078 C 2300.71 6.5273 2.63741 0
M  V30 13079 C 2300 5.1842 2.73198 0
M  V30 13080 N 2300.05 4.38762 1.4784 0
M  V30 13081 H 2297.21 8.36803 2.32493 0
M  V30 13082 H 2296.94 6.70197 1.71129 0
M  V30 13083 H 2297.8 7.03551 4.13168 0
M  V30 13084 P 2301.77 7.20834 5.23717 0
M  V30 13085 O 2301.99 7.79853 6.57286 0
M  V30 13086 O 2302.56 7.79239 4.12957 0
M  V30 13087 O 2302.02 5.63315 5.29344 0
M  V30 13088 C 2301.08 4.80255 6.01876 0
M  V30 13089 C 2301.81 3.64202 6.65911 0
M  V30 13090 O 2302.02 2.60694 5.64732 0
M  V30 13091 C 2303.21 3.93473 7.1943 0
M  V30 13092 O 2303.6 3.02071 8.21205 0
M  V30 13093 C 2304.09 3.73047 5.97036 0
M  V30 13094 C 2303.38 2.58828 5.25741 0
M  V30 13095 N 2303.43 2.68068 3.77503 0
M  V30 13096 H 2300.59 5.40332 6.79951 0
M  V30 13097 H 2300.32 4.41613 5.32378 0
M  V30 13098 H 2301.18 3.26331 7.47797 0
M  V30 13099 P 2305.15 2.75334 8.47391 0
M  V30 13100 O 2305.37 2.44571 9.90142 0
M  V30 13101 O 2305.94 3.87688 7.92115 0
M  V30 13102 O 2305.4 1.4459 7.59357 0
M  V30 13103 C 2304.46 0.347608 7.69215 0
M  V30 13104 C 2305.19 -0.96767 7.52806 0
M  V30 13105 O 2305.4 -1.21036 6.1011 0
M  V30 13106 C 2306.59 -1.04544 8.13308 0
M  V30 13107 O 2306.98 -2.38311 8.41922 0
M  V30 13108 C 2307.47 -0.491279 7.02284 0
M  V30 13109 C 2306.76 -0.996264 5.77469 0
M  V30 13110 N 2306.81 -0.0501916 4.62973 0
M  V30 13111 H 2303.97 0.374722 8.67691 0
M  V30 13112 H 2303.7 0.443485 6.90277 0
M  V30 13113 H 2304.56 -1.75537 7.96793 0
M  V30 13114 P 2308.53 -2.75334 8.47391 0
M  V30 13115 O 2308.75 -3.84128 9.44797 0
M  V30 13116 O 2309.32 -1.51947 8.68712 0
M  V30 13117 O 2308.78 -3.29363 6.99321 0
M  V30 13118 C 2307.84 -4.24011 6.4274 0
M  V30 13119 C 2308.57 -5.20775 5.52155 0
M  V30 13120 O 2308.78 -4.56534 4.22446 0
M  V30 13121 C 2309.97 -5.62629 5.96531 0
M  V30 13122 O 2310.36 -6.87667 5.41053 0
M  V30 13123 C 2310.85 -4.52537 5.39283 0
M  V30 13124 C 2310.14 -4.20027 4.08623 0
M  V30 13125 N 2310.19 -2.76189 3.71603 0
M  V30 13126 H 2307.35 -4.797 7.24003 0
M  V30 13127 H 2307.08 -3.69856 5.84513 0
M  V30 13128 H 2307.94 -6.10356 5.41441 0
M  V30 13129 P 2311.91 -7.20834 5.23717 0
M  V30 13130 O 2312.13 -8.66104 5.38572 0
M  V30 13131 O 2312.7 -6.33544 6.1349 0
M  V30 13132 O 2312.16 -6.7751 3.72168 0
M  V30 13133 C 2311.22 -7.20825 2.7076 0
M  V30 13134 C 2311.95 -7.45864 1.40599 0
M  V30 13135 O 2312.16 -6.17651 0.734225 0
M  V30 13136 C 2313.35 -8.05808 1.51899 0
M  V30 13137 O 2313.74 -8.74358 0.335205 0
M  V30 13138 C 2314.23 -6.83093 1.70294 0
M  V30 13139 C 2313.52 -5.79992 0.836974 0
M  V30 13140 N 2313.57 -4.41864 1.38293 0
M  V30 13141 C 2313.49 -3.99538 2.69438 0
M  V30 13142 N 2313.57 -2.69909 2.84277 0
M  V30 13143 C 2313.71 -2.21719 1.5408 0
M  V30 13144 C 2313.84 -0.891712 1.06628 0
M  V30 13145 O 2313.86 0.161298 1.70137 0
M  V30 13146 N 2313.96 -0.856846 -0.334985 0
M  V30 13147 C 2313.96 -1.9641 -1.15789 0
M  V30 13148 N 2314.09 -1.72708 -2.46522 0
M  V30 13149 N 2313.83 -3.21165 -0.713741 0
M  V30 13150 C 2313.71 -3.26797 0.639748 0
M  V30 13151 H 2310.73 -8.13644 3.0377 0
M  V30 13152 H 2310.46 -6.42788 2.55485 0
M  V30 13153 H 2311.32 -8.12039 0.792769 0
M  V30 13154 H 2313.98 -5.80061 -0.166416 0
M  V30 13155 H 2314.26 -6.51287 2.75604 0
M  V30 13156 H 2315.25 -7.01734 1.34462 0
M  V30 13157 H 2313.42 -8.73674 2.38337 0
M  V30 13158 H 2313.37 -4.68207 3.53221 0
M  V30 13159 H 2314.05 0.0398818 -0.767965 0
M  V30 13160 H 2314.09 -2.50995 -3.13503 0
M  V30 13161 H 2314.19 -0.759148 -2.80716 0
M  V30 13162 P 2315.29 -8.91 5.06387e-11 0
M  V30 13163 O 2315.51 -10.1726 -0.733694 0
M  V30 13164 O 2316.08 -8.73148 1.23936 0
M  V30 13165 O 2315.54 -7.66872 -0.971405 0
M  V30 13166 C 2314.6 -7.42309 -2.04641 0
M  V30 13167 C 2315.33 -6.86059 -3.24661 0
M  V30 13168 O 2315.54 -5.42847 -3.03646 0
M  V30 13169 C 2316.73 -7.41196 -3.50753 0
M  V30 13170 O 2317.12 -7.27073 -4.86816 0
M  V30 13171 C 2317.61 -6.5273 -2.63741 0
M  V30 13172 C 2316.9 -5.1842 -2.73198 0
M  V30 13173 N 2316.95 -4.38762 -1.4784 0
M  V30 13174 H 2314.11 -8.36803 -2.32493 0
M  V30 13175 H 2313.84 -6.70197 -1.71129 0
M  V30 13176 H 2314.7 -7.03551 -4.13168 0
M  V30 13177 P 2318.67 -7.20834 -5.23717 0
M  V30 13178 O 2318.89 -7.80006 -6.57415 0
M  V30 13179 O 2319.46 -7.79416 -4.13051 0
M  V30 13180 O 2318.92 -5.63315 -5.29344 0
M  V30 13181 C 2317.98 -4.80318 -6.01954 0
M  V30 13182 C 2318.71 -3.64202 -6.65911 0
M  V30 13183 O 2318.92 -2.60736 -5.64823 0
M  V30 13184 C 2320.11 -3.93521 -7.19518 0
M  V30 13185 O 2320.5 -3.02071 -8.21205 0
M  V30 13186 C 2320.99 -3.73047 -5.97036 0
M  V30 13187 C 2320.28 -2.58828 -5.25741 0
M  V30 13188 N 2320.33 -2.68068 -3.77503 0
M  V30 13189 H 2317.49 -5.40394 -6.8003 0
M  V30 13190 H 2317.22 -4.41741 -5.32532 0
M  V30 13191 H 2318.08 -3.26371 -7.47889 0
M  V30 13192 H 2320.74 -1.64007 -5.56746 0
M  V30 13193 H 2321.02 -4.63439 -5.3432 0
M  V30 13194 H 2322.01 -3.44776 -6.25925 0
M  V30 13195 H 2320.18 -4.96707 -7.57347 0
M  V30 13196 P 2322.05 -2.75334 -8.47391 0
M  V30 13197 O 2322.27 -2.44571 -9.90142 0
M  V30 13198 O 2322.84 -3.87688 -7.92115 0
M  V30 13199 O 2322.3 -1.4459 -7.59357 0
M  V30 13200 C 2321.36 -0.347608 -7.69215 0
M  V30 13201 C 2322.09 0.96767 -7.52806 0
M  V30 13202 O 2322.3 1.21036 -6.1011 0
M  V30 13203 C 2323.49 1.04544 -8.13308 0
M  V30 13204 O 2323.88 2.38311 -8.41922 0
M  V30 13205 C 2324.37 0.491279 -7.02284 0
M  V30 13206 C 2323.66 0.996264 -5.77469 0
M  V30 13207 N 2323.71 0.0501916 -4.62973 0
M  V30 13208 H 2320.87 -0.374722 -8.67691 0
M  V30 13209 H 2320.6 -0.443485 -6.90277 0
M  V30 13210 H 2321.46 1.75537 -7.96793 0
M  V30 13211 P 2325.43 2.75334 -8.47391 0
M  V30 13212 O 2325.65 3.84128 -9.44797 0
M  V30 13213 O 2326.22 1.51947 -8.68712 0
M  V30 13214 O 2325.68 3.29363 -6.99321 0
M  V30 13215 C 2324.74 4.24011 -6.4274 0
M  V30 13216 C 2325.47 5.20775 -5.52155 0
M  V30 13217 O 2325.68 4.56534 -4.22446 0
M  V30 13218 C 2326.87 5.62629 -5.96531 0
M  V30 13219 O 2327.26 6.87667 -5.41053 0
M  V30 13220 C 2327.75 4.52537 -5.39283 0
M  V30 13221 C 2327.04 4.20027 -4.08623 0
M  V30 13222 N 2327.09 2.76189 -3.71603 0
M  V30 13223 H 2324.25 4.797 -7.24003 0
M  V30 13224 H 2323.98 3.69856 -5.84513 0
M  V30 13225 H 2324.84 6.10356 -5.41441 0
M  V30 13226 P 2328.81 7.20834 -5.23717 0
M  V30 13227 O 2329.03 8.66104 -5.38572 0
M  V30 13228 O 2329.6 6.33544 -6.1349 0
M  V30 13229 O 2329.06 6.7751 -3.72168 0
M  V30 13230 C 2328.12 7.20825 -2.7076 0
M  V30 13231 C 2328.85 7.45864 -1.40599 0
M  V30 13232 O 2329.06 6.17651 -0.734225 0
M  V30 13233 C 2330.25 8.05808 -1.51899 0
M  V30 13234 O 2330.64 8.74358 -0.335205 0
M  V30 13235 C 2331.13 6.83093 -1.70294 0
M  V30 13236 C 2330.42 5.79992 -0.836974 0
M  V30 13237 N 2330.47 4.41864 -1.38293 0
M  V30 13238 H 2327.63 8.13644 -3.0377 0
M  V30 13239 H 2327.36 6.42788 -2.55485 0
M  V30 13240 H 2328.22 8.12039 -0.792769 0
M  V30 13241 P 2332.19 8.91 -5.17477e-11 0
M  V30 13242 O 2332.41 10.1726 0.733694 0
M  V30 13243 O 2332.98 8.73148 -1.23936 0
M  V30 13244 O 2332.44 7.66872 0.971405 0
M  V30 13245 C 2331.5 7.42309 2.04641 0
M  V30 13246 C 2332.23 6.86059 3.24661 0
M  V30 13247 O 2332.44 5.42847 3.03646 0
M  V30 13248 C 2333.63 7.41196 3.50753 0
M  V30 13249 O 2334.02 7.27073 4.86816 0
M  V30 13250 C 2334.51 6.5273 2.63741 0
M  V30 13251 C 2333.8 5.1842 2.73198 0
M  V30 13252 N 2333.85 4.38762 1.4784 0
M  V30 13253 H 2331.01 8.36803 2.32493 0
M  V30 13254 H 2330.74 6.70197 1.71129 0
M  V30 13255 H 2331.6 7.03551 4.13168 0
M  V30 13256 P 2335.57 7.20834 5.23717 0
M  V30 13257 O 2335.79 7.79853 6.57286 0
M  V30 13258 O 2336.36 7.79239 4.12957 0
M  V30 13259 O 2335.82 5.63315 5.29344 0
M  V30 13260 C 2334.88 4.80255 6.01876 0
M  V30 13261 C 2335.61 3.64202 6.65911 0
M  V30 13262 O 2335.82 2.60694 5.64732 0
M  V30 13263 C 2337.01 3.93473 7.1943 0
M  V30 13264 O 2337.4 3.02071 8.21205 0
M  V30 13265 C 2337.89 3.73047 5.97036 0
M  V30 13266 C 2337.18 2.58828 5.25741 0
M  V30 13267 N 2337.23 2.68068 3.77503 0
M  V30 13268 H 2334.39 5.40332 6.79951 0
M  V30 13269 H 2334.12 4.41613 5.32378 0
M  V30 13270 H 2334.98 3.26331 7.47797 0
M  V30 13271 P 2338.95 2.75334 8.47391 0
M  V30 13272 O 2339.17 2.44571 9.90142 0
M  V30 13273 O 2339.74 3.87688 7.92115 0
M  V30 13274 O 2339.2 1.4459 7.59357 0
M  V30 13275 C 2338.26 0.347608 7.69215 0
M  V30 13276 C 2338.99 -0.96767 7.52806 0
M  V30 13277 O 2339.2 -1.21036 6.1011 0
M  V30 13278 C 2340.39 -1.04544 8.13308 0
M  V30 13279 O 2340.78 -2.38311 8.41922 0
M  V30 13280 C 2341.27 -0.491279 7.02284 0
M  V30 13281 C 2340.56 -0.996264 5.77469 0
M  V30 13282 N 2340.61 -0.0501916 4.62973 0
M  V30 13283 H 2337.77 0.374722 8.67691 0
M  V30 13284 H 2337.5 0.443485 6.90277 0
M  V30 13285 H 2338.36 -1.75537 7.96793 0
M  V30 13286 P 2342.33 -2.75334 8.47391 0
M  V30 13287 O 2342.55 -3.84128 9.44797 0
M  V30 13288 O 2343.12 -1.51947 8.68712 0
M  V30 13289 O 2342.58 -3.29363 6.99321 0
M  V30 13290 C 2341.64 -4.24011 6.4274 0
M  V30 13291 C 2342.37 -5.20775 5.52155 0
M  V30 13292 O 2342.58 -4.56534 4.22446 0
M  V30 13293 C 2343.77 -5.62629 5.96531 0
M  V30 13294 O 2344.16 -6.87667 5.41053 0
M  V30 13295 C 2344.65 -4.52537 5.39283 0
M  V30 13296 C 2343.94 -4.20027 4.08623 0
M  V30 13297 N 2343.99 -2.76189 3.71603 0
M  V30 13298 H 2341.15 -4.797 7.24003 0
M  V30 13299 H 2340.88 -3.69856 5.84513 0
M  V30 13300 H 2341.74 -6.10356 5.41441 0
M  V30 13301 P 2345.71 -7.20834 5.23717 0
M  V30 13302 O 2345.93 -8.66104 5.38572 0
M  V30 13303 O 2346.5 -6.33544 6.1349 0
M  V30 13304 O 2345.96 -6.7751 3.72168 0
M  V30 13305 C 2345.02 -7.20825 2.7076 0
M  V30 13306 C 2345.75 -7.45864 1.40599 0
M  V30 13307 O 2345.96 -6.17651 0.734225 0
M  V30 13308 C 2347.15 -8.05808 1.51899 0
M  V30 13309 O 2347.54 -8.74358 0.335205 0
M  V30 13310 C 2348.03 -6.83093 1.70294 0
M  V30 13311 C 2347.32 -5.79992 0.836974 0
M  V30 13312 N 2347.37 -4.41864 1.38293 0
M  V30 13313 C 2347.29 -3.99538 2.69438 0
M  V30 13314 N 2347.37 -2.69909 2.84277 0
M  V30 13315 C 2347.51 -2.21719 1.5408 0
M  V30 13316 C 2347.64 -0.891712 1.06628 0
M  V30 13317 O 2347.66 0.161298 1.70137 0
M  V30 13318 N 2347.76 -0.856846 -0.334985 0
M  V30 13319 C 2347.76 -1.9641 -1.15789 0
M  V30 13320 N 2347.89 -1.72708 -2.46522 0
M  V30 13321 N 2347.63 -3.21165 -0.713741 0
M  V30 13322 C 2347.51 -3.26797 0.639748 0
M  V30 13323 H 2344.53 -8.13644 3.0377 0
M  V30 13324 H 2344.26 -6.42788 2.55485 0
M  V30 13325 H 2345.12 -8.12039 0.792769 0
M  V30 13326 H 2347.78 -5.80061 -0.166416 0
M  V30 13327 H 2348.06 -6.51287 2.75604 0
M  V30 13328 H 2349.05 -7.01734 1.34462 0
M  V30 13329 H 2347.22 -8.73674 2.38337 0
M  V30 13330 H 2347.17 -4.68207 3.53221 0
M  V30 13331 H 2347.85 0.0398818 -0.767965 0
M  V30 13332 H 2347.89 -2.50995 -3.13503 0
M  V30 13333 H 2347.99 -0.759148 -2.80716 0
M  V30 13334 P 2349.09 -8.91 5.28567e-11 0
M  V30 13335 O 2349.31 -10.1726 -0.733694 0
M  V30 13336 O 2349.88 -8.73148 1.23936 0
M  V30 13337 O 2349.34 -7.66872 -0.971405 0
M  V30 13338 C 2348.4 -7.42309 -2.04641 0
M  V30 13339 C 2349.13 -6.86059 -3.24661 0
M  V30 13340 O 2349.34 -5.42847 -3.03646 0
M  V30 13341 C 2350.53 -7.41196 -3.50753 0
M  V30 13342 O 2350.92 -7.27073 -4.86816 0
M  V30 13343 C 2351.41 -6.5273 -2.63741 0
M  V30 13344 C 2350.7 -5.1842 -2.73198 0
M  V30 13345 N 2350.75 -4.38762 -1.4784 0
M  V30 13346 H 2347.91 -8.36803 -2.32493 0
M  V30 13347 H 2347.64 -6.70197 -1.71129 0
M  V30 13348 H 2348.5 -7.03551 -4.13168 0
M  V30 13349 P 2352.47 -7.20834 -5.23717 0
M  V30 13350 O 2352.69 -7.79853 -6.57286 0
M  V30 13351 O 2353.26 -7.79239 -4.12957 0
M  V30 13352 O 2352.72 -5.63315 -5.29344 0
M  V30 13353 C 2351.78 -4.80255 -6.01876 0
M  V30 13354 C 2352.51 -3.64202 -6.65911 0
M  V30 13355 O 2352.72 -2.60694 -5.64732 0
M  V30 13356 C 2353.91 -3.93473 -7.1943 0
M  V30 13357 O 2354.3 -3.02071 -8.21205 0
M  V30 13358 C 2354.79 -3.73047 -5.97036 0
M  V30 13359 C 2354.08 -2.58828 -5.25741 0
M  V30 13360 N 2354.13 -2.68068 -3.77503 0
M  V30 13361 C 2354.05 -3.79715 -2.96723 0
M  V30 13362 N 2354.13 -3.5377 -1.68852 0
M  V30 13363 C 2354.27 -2.15054 -1.63254 0
M  V30 13364 C 2354.4 -1.28964 -0.518571 0
M  V30 13365 O 2354.42 -1.56826 0.679156 0
M  V30 13366 N 2354.52 0.0538097 -0.918425 0
M  V30 13367 C 2354.52 0.494275 -2.22578 0
M  V30 13368 N 2354.65 1.81086 -2.40434 0
M  V30 13369 N 2354.39 -0.313645 -3.27502 0
M  V30 13370 C 2354.27 -1.61829 -2.91033 0
M  V30 13371 H 2351.29 -5.40332 -6.79951 0
M  V30 13372 H 2351.02 -4.41613 -5.32378 0
M  V30 13373 H 2351.88 -3.26331 -7.47797 0
M  V30 13374 H 2354.54 -1.63422 -5.56814 0
M  V30 13375 H 2354.82 -4.63374 -5.34244 0
M  V30 13376 H 2355.81 -3.44728 -6.25838 0
M  V30 13377 H 2353.98 -4.96652 -7.57263 0
M  V30 13378 H 2353.93 -4.80617 -3.3614 0
M  V30 13379 H 2354.61 0.742702 -0.199384 0
M  V30 13380 H 2354.65 2.20598 -3.35588 0
M  V30 13381 H 2354.75 2.43518 -1.58945 0
M  V30 13382 P 2355.85 -2.75334 -8.47391 0
M  V30 13383 O 2356.07 -2.44571 -9.90142 0
M  V30 13384 O 2356.64 -3.87688 -7.92115 0
M  V30 13385 O 2356.1 -1.4459 -7.59357 0
M  V30 13386 C 2355.16 -0.347608 -7.69215 0
M  V30 13387 C 2355.89 0.96767 -7.52806 0
M  V30 13388 O 2356.1 1.21036 -6.1011 0
M  V30 13389 C 2357.29 1.04544 -8.13308 0
M  V30 13390 O 2357.68 2.38311 -8.41922 0
M  V30 13391 C 2358.17 0.491279 -7.02284 0
M  V30 13392 C 2357.46 0.996264 -5.77469 0
M  V30 13393 N 2357.51 0.0501916 -4.62973 0
M  V30 13394 H 2354.67 -0.374722 -8.67691 0
M  V30 13395 H 2354.4 -0.443485 -6.90277 0
M  V30 13396 H 2355.26 1.75537 -7.96793 0
M  V30 13397 P 2359.23 2.75334 -8.47391 0
M  V30 13398 O 2359.45 3.84128 -9.44797 0
M  V30 13399 O 2360.02 1.51947 -8.68712 0
M  V30 13400 O 2359.48 3.29363 -6.99321 0
M  V30 13401 C 2358.54 4.24011 -6.4274 0
M  V30 13402 C 2359.27 5.20775 -5.52155 0
M  V30 13403 O 2359.48 4.56534 -4.22446 0
M  V30 13404 C 2360.67 5.62629 -5.96531 0
M  V30 13405 O 2361.06 6.87667 -5.41053 0
M  V30 13406 C 2361.55 4.52537 -5.39283 0
M  V30 13407 C 2360.84 4.20027 -4.08623 0
M  V30 13408 N 2360.89 2.76189 -3.71603 0
M  V30 13409 H 2358.05 4.797 -7.24003 0
M  V30 13410 H 2357.78 3.69856 -5.84513 0
M  V30 13411 H 2358.64 6.10356 -5.41441 0
M  V30 13412 P 2362.61 7.20834 -5.23717 0
M  V30 13413 O 2362.83 8.66104 -5.38572 0
M  V30 13414 O 2363.4 6.33544 -6.1349 0
M  V30 13415 O 2362.86 6.7751 -3.72168 0
M  V30 13416 C 2361.92 7.20825 -2.7076 0
M  V30 13417 C 2362.65 7.45864 -1.40599 0
M  V30 13418 O 2362.86 6.17651 -0.734225 0
M  V30 13419 C 2364.05 8.05808 -1.51899 0
M  V30 13420 O 2364.44 8.74358 -0.335205 0
M  V30 13421 C 2364.93 6.83093 -1.70294 0
M  V30 13422 C 2364.22 5.79992 -0.836974 0
M  V30 13423 N 2364.27 4.41864 -1.38293 0
M  V30 13424 H 2361.43 8.13644 -3.0377 0
M  V30 13425 H 2361.16 6.42788 -2.55485 0
M  V30 13426 H 2362.02 8.12039 -0.792769 0
M  V30 13427 P 2365.99 8.91 -5.39657e-11 0
M  V30 13428 O 2366.21 10.1726 0.733694 0
M  V30 13429 O 2366.78 8.73148 -1.23936 0
M  V30 13430 O 2366.24 7.66872 0.971405 0
M  V30 13431 C 2365.3 7.42309 2.04641 0
M  V30 13432 C 2366.03 6.86059 3.24661 0
M  V30 13433 O 2366.24 5.42847 3.03646 0
M  V30 13434 C 2367.43 7.41196 3.50753 0
M  V30 13435 O 2367.82 7.27073 4.86816 0
M  V30 13436 C 2368.31 6.5273 2.63741 0
M  V30 13437 C 2367.6 5.1842 2.73198 0
M  V30 13438 N 2367.65 4.38762 1.4784 0
M  V30 13439 H 2364.81 8.36803 2.32493 0
M  V30 13440 H 2364.54 6.70197 1.71129 0
M  V30 13441 H 2365.4 7.03551 4.13168 0
M  V30 13442 P 2369.37 7.20834 5.23717 0
M  V30 13443 O 2369.59 7.79853 6.57286 0
M  V30 13444 O 2370.16 7.79239 4.12957 0
M  V30 13445 O 2369.62 5.63315 5.29344 0
M  V30 13446 C 2368.68 4.80255 6.01876 0
M  V30 13447 C 2369.41 3.64202 6.65911 0
M  V30 13448 O 2369.62 2.60694 5.64732 0
M  V30 13449 C 2370.81 3.93473 7.1943 0
M  V30 13450 O 2371.2 3.02071 8.21205 0
M  V30 13451 C 2371.69 3.73047 5.97036 0
M  V30 13452 C 2370.98 2.58828 5.25741 0
M  V30 13453 N 2371.03 2.68068 3.77503 0
M  V30 13454 H 2368.19 5.40332 6.79951 0
M  V30 13455 H 2367.92 4.41613 5.32378 0
M  V30 13456 H 2368.78 3.26331 7.47797 0
M  V30 13457 P 2372.75 2.75334 8.47391 0
M  V30 13458 O 2372.97 2.44571 9.90142 0
M  V30 13459 O 2373.54 3.87688 7.92115 0
M  V30 13460 O 2373 1.4459 7.59357 0
M  V30 13461 C 2372.06 0.347608 7.69215 0
M  V30 13462 C 2372.79 -0.96767 7.52806 0
M  V30 13463 O 2373 -1.21036 6.1011 0
M  V30 13464 C 2374.19 -1.04544 8.13308 0
M  V30 13465 O 2374.58 -2.38311 8.41922 0
M  V30 13466 C 2375.07 -0.491279 7.02284 0
M  V30 13467 C 2374.36 -0.996264 5.77469 0
M  V30 13468 N 2374.41 -0.0501916 4.62973 0
M  V30 13469 H 2371.57 0.374722 8.67691 0
M  V30 13470 H 2371.3 0.443485 6.90277 0
M  V30 13471 H 2372.16 -1.75537 7.96793 0
M  V30 13472 P 2376.13 -2.75334 8.47391 0
M  V30 13473 O 2376.35 -3.84128 9.44797 0
M  V30 13474 O 2376.92 -1.51947 8.68712 0
M  V30 13475 O 2376.38 -3.29363 6.99321 0
M  V30 13476 C 2375.44 -4.24011 6.4274 0
M  V30 13477 C 2376.17 -5.20775 5.52155 0
M  V30 13478 O 2376.38 -4.56534 4.22446 0
M  V30 13479 C 2377.57 -5.62629 5.96531 0
M  V30 13480 O 2377.96 -6.87667 5.41053 0
M  V30 13481 C 2378.45 -4.52537 5.39283 0
M  V30 13482 C 2377.74 -4.20027 4.08623 0
M  V30 13483 N 2377.79 -2.76189 3.71603 0
M  V30 13484 H 2374.95 -4.797 7.24003 0
M  V30 13485 H 2374.68 -3.69856 5.84513 0
M  V30 13486 H 2375.54 -6.10356 5.41441 0
M  V30 13487 P 2379.51 -7.20834 5.23717 0
M  V30 13488 O 2379.73 -8.66104 5.38572 0
M  V30 13489 O 2380.3 -6.33544 6.1349 0
M  V30 13490 O 2379.76 -6.7751 3.72168 0
M  V30 13491 C 2378.82 -7.20825 2.7076 0
M  V30 13492 C 2379.55 -7.45864 1.40599 0
M  V30 13493 O 2379.76 -6.17651 0.734225 0
M  V30 13494 C 2380.95 -8.05808 1.51899 0
M  V30 13495 O 2381.34 -8.74358 0.335205 0
M  V30 13496 C 2381.83 -6.83093 1.70294 0
M  V30 13497 C 2381.12 -5.79992 0.836974 0
M  V30 13498 N 2381.17 -4.41864 1.38293 0
M  V30 13499 C 2381.09 -3.99538 2.69438 0
M  V30 13500 N 2381.17 -2.69909 2.84277 0
M  V30 13501 C 2381.31 -2.21719 1.5408 0
M  V30 13502 C 2381.44 -0.891712 1.06628 0
M  V30 13503 O 2381.46 0.161298 1.70137 0
M  V30 13504 N 2381.56 -0.856846 -0.334985 0
M  V30 13505 C 2381.56 -1.9641 -1.15789 0
M  V30 13506 N 2381.69 -1.72708 -2.46522 0
M  V30 13507 N 2381.43 -3.21165 -0.713741 0
M  V30 13508 C 2381.31 -3.26797 0.639748 0
M  V30 13509 H 2378.33 -8.13644 3.0377 0
M  V30 13510 H 2378.06 -6.42788 2.55485 0
M  V30 13511 H 2378.92 -8.12039 0.792769 0
M  V30 13512 H 2381.58 -5.80061 -0.166416 0
M  V30 13513 H 2381.86 -6.51287 2.75604 0
M  V30 13514 H 2382.85 -7.01734 1.34462 0
M  V30 13515 H 2381.02 -8.73674 2.38337 0
M  V30 13516 H 2380.97 -4.68207 3.53221 0
M  V30 13517 H 2381.65 0.0398818 -0.767965 0
M  V30 13518 H 2381.69 -2.50995 -3.13503 0
M  V30 13519 H 2381.79 -0.759148 -2.80716 0
M  V30 13520 P 2382.89 -8.91 5.50747e-11 0
M  V30 13521 O 2383.11 -10.1726 -0.733694 0
M  V30 13522 O 2383.68 -8.73148 1.23936 0
M  V30 13523 O 2383.14 -7.66872 -0.971405 0
M  V30 13524 C 2382.2 -7.42309 -2.04641 0
M  V30 13525 C 2382.93 -6.86059 -3.24661 0
M  V30 13526 O 2383.14 -5.42847 -3.03646 0
M  V30 13527 C 2384.33 -7.41196 -3.50753 0
M  V30 13528 O 2384.72 -7.27073 -4.86816 0
M  V30 13529 C 2385.21 -6.5273 -2.63741 0
M  V30 13530 C 2384.5 -5.1842 -2.73198 0
M  V30 13531 N 2384.55 -4.38762 -1.4784 0
M  V30 13532 H 2381.71 -8.36803 -2.32493 0
M  V30 13533 H 2381.44 -6.70197 -1.71129 0
M  V30 13534 H 2382.3 -7.03551 -4.13168 0
M  V30 13535 P 2386.27 -7.20834 -5.23717 0
M  V30 13536 O 2386.49 -7.79853 -6.57286 0
M  V30 13537 O 2387.06 -7.79239 -4.12957 0
M  V30 13538 O 2386.52 -5.63315 -5.29344 0
M  V30 13539 C 2385.58 -4.80255 -6.01876 0
M  V30 13540 C 2386.31 -3.64202 -6.65911 0
M  V30 13541 O 2386.52 -2.60694 -5.64732 0
M  V30 13542 C 2387.71 -3.93473 -7.1943 0
M  V30 13543 O 2388.1 -3.02071 -8.21205 0
M  V30 13544 C 2388.59 -3.73047 -5.97036 0
M  V30 13545 C 2387.88 -2.58828 -5.25741 0
M  V30 13546 N 2387.93 -2.68068 -3.77503 0
M  V30 13547 H 2385.09 -5.40332 -6.79951 0
M  V30 13548 H 2384.82 -4.41613 -5.32378 0
M  V30 13549 H 2385.68 -3.26331 -7.47797 0
M  V30 13550 P 2389.65 -2.75334 -8.47391 0
M  V30 13551 O 2389.87 -2.44571 -9.90142 0
M  V30 13552 O 2390.44 -3.87688 -7.92115 0
M  V30 13553 O 2389.9 -1.4459 -7.59357 0
M  V30 13554 C 2388.96 -0.347608 -7.69215 0
M  V30 13555 C 2389.69 0.96767 -7.52806 0
M  V30 13556 O 2389.9 1.21036 -6.1011 0
M  V30 13557 C 2391.09 1.04544 -8.13308 0
M  V30 13558 O 2391.48 2.38311 -8.41922 0
M  V30 13559 C 2391.97 0.491279 -7.02284 0
M  V30 13560 C 2391.26 0.996264 -5.77469 0
M  V30 13561 N 2391.31 0.0501916 -4.62973 0
M  V30 13562 H 2388.47 -0.374722 -8.67691 0
M  V30 13563 H 2388.2 -0.443485 -6.90277 0
M  V30 13564 H 2389.06 1.75537 -7.96793 0
M  V30 13565 P 2393.03 2.75334 -8.47391 0
M  V30 13566 O 2393.25 3.84128 -9.44797 0
M  V30 13567 O 2393.82 1.51947 -8.68712 0
M  V30 13568 O 2393.28 3.29363 -6.99321 0
M  V30 13569 C 2392.34 4.24011 -6.4274 0
M  V30 13570 C 2393.07 5.20775 -5.52155 0
M  V30 13571 O 2393.28 4.56534 -4.22446 0
M  V30 13572 C 2394.47 5.62629 -5.96531 0
M  V30 13573 O 2394.86 6.87667 -5.41053 0
M  V30 13574 C 2395.35 4.52537 -5.39283 0
M  V30 13575 C 2394.64 4.20027 -4.08623 0
M  V30 13576 N 2394.69 2.76189 -3.71603 0
M  V30 13577 H 2391.85 4.797 -7.24003 0
M  V30 13578 H 2391.58 3.69856 -5.84513 0
M  V30 13579 H 2392.44 6.10356 -5.41441 0
M  V30 13580 P 2396.41 7.20834 -5.23717 0
M  V30 13581 O 2396.63 8.66274 -5.38678 0
M  V30 13582 O 2397.2 6.33687 -6.13629 0
M  V30 13583 O 2396.66 6.7751 -3.72168 0
M  V30 13584 C 2395.72 7.20919 -2.70795 0
M  V30 13585 C 2396.45 7.45864 -1.40599 0
M  V30 13586 O 2396.66 6.17751 -0.734343 0
M  V30 13587 C 2397.85 8.05906 -1.51917 0
M  V30 13588 O 2398.24 8.74358 -0.335205 0
M  V30 13589 C 2398.73 6.83093 -1.70294 0
M  V30 13590 C 2398.02 5.79992 -0.836974 0
M  V30 13591 N 2398.07 4.41864 -1.38293 0
M  V30 13592 H 2395.23 8.13738 -3.03804 0
M  V30 13593 H 2394.96 6.42974 -2.55559 0
M  V30 13594 H 2395.82 8.12139 -0.792866 0
M  V30 13595 H 2398.48 5.80178 0.160643 0
M  V30 13596 H 2398.76 6.51379 -2.75643 0
M  V30 13597 H 2399.75 7.01832 -1.3448 0
M  V30 13598 H 2397.92 8.73771 -2.38364 0
M  V30 13599 P 2399.79 8.91 -5.61837e-11 0
M  V30 13600 O 2400.01 10.1726 0.733694 0
M  V30 13601 O 2400.58 8.73148 -1.23936 0
M  V30 13602 O 2400.04 7.66872 0.971405 0
M  V30 13603 C 2399.1 7.42309 2.04641 0
M  V30 13604 C 2399.83 6.86059 3.24661 0
M  V30 13605 O 2400.04 5.42847 3.03646 0
M  V30 13606 C 2401.23 7.41196 3.50753 0
M  V30 13607 O 2401.62 7.27073 4.86816 0
M  V30 13608 C 2402.11 6.5273 2.63741 0
M  V30 13609 C 2401.4 5.1842 2.73198 0
M  V30 13610 N 2401.45 4.38762 1.4784 0
M  V30 13611 H 2398.61 8.36803 2.32493 0
M  V30 13612 H 2398.34 6.70197 1.71129 0
M  V30 13613 H 2399.2 7.03551 4.13168 0
M  V30 13614 P 2403.17 7.20834 5.23717 0
M  V30 13615 O 2403.39 7.80006 6.57415 0
M  V30 13616 O 2403.96 7.79416 4.13051 0
M  V30 13617 O 2403.42 5.63315 5.29344 0
M  V30 13618 C 2402.48 4.80318 6.01954 0
M  V30 13619 C 2403.21 3.64202 6.65911 0
M  V30 13620 O 2403.42 2.60736 5.64823 0
M  V30 13621 C 2404.61 3.93521 7.19518 0
M  V30 13622 O 2405 3.02071 8.21205 0
M  V30 13623 C 2405.49 3.73047 5.97036 0
M  V30 13624 C 2404.78 2.58828 5.25741 0
M  V30 13625 N 2404.83 2.68068 3.77503 0
M  V30 13626 H 2401.99 5.40394 6.8003 0
M  V30 13627 H 2401.72 4.41741 5.32532 0
M  V30 13628 H 2402.58 3.26371 7.47889 0
M  V30 13629 H 2405.24 1.64007 5.56746 0
M  V30 13630 H 2405.52 4.63439 5.3432 0
M  V30 13631 H 2406.51 3.44776 6.25925 0
M  V30 13632 H 2404.68 4.96707 7.57347 0
M  V30 13633 P 2406.55 2.75334 8.47391 0
M  V30 13634 O 2406.77 2.44595 9.90239 0
M  V30 13635 O 2407.34 3.87732 7.92204 0
M  V30 13636 O 2406.8 1.4459 7.59357 0
M  V30 13637 C 2405.86 0.347563 7.69115 0
M  V30 13638 C 2406.59 -0.96767 7.52806 0
M  V30 13639 O 2406.8 -1.21036 6.1011 0
M  V30 13640 C 2407.99 -1.04544 8.13308 0
M  V30 13641 O 2408.38 -2.38311 8.41922 0
M  V30 13642 C 2408.87 -0.491279 7.02284 0
M  V30 13643 C 2408.16 -0.996264 5.77469 0
M  V30 13644 N 2408.21 -0.0501808 4.62873 0
M  V30 13645 C 2408.36 -0.588177 3.36904 0
M  V30 13646 O 2408.45 -1.78598 3.17173 0
M  V30 13647 N 2408.4 0.329694 2.33686 0
M  V30 13648 C 2408.31 1.6953 2.45079 0
M  V30 13649 C 2408.16 2.16933 3.80505 0
M  V30 13650 C 2408.11 1.30326 4.83752 0
M  V30 13651 H 2405.37 0.374722 8.67691 0
M  V30 13652 H 2405.1 0.443421 6.90177 0
M  V30 13653 H 2405.96 -1.75537 7.96793 0
M  V30 13654 H 2408.62 -1.94496 5.46629 0
M  V30 13655 H 2408.9 0.608651 7.04676 0
M  V30 13656 H 2409.89 -0.889672 7.08939 0
M  V30 13657 H 2408.06 -0.43308 9.04564 0
M  V30 13658 H 2407.98 1.68366 5.8516 0
M  V30 13659 P 2409.93 -2.75334 8.47391 0
M  V30 13660 O 2410.15 -3.84128 9.44797 0
M  V30 13661 O 2410.72 -1.51947 8.68712 0
M  V30 13662 O 2410.18 -3.29363 6.99321 0
M  V30 13663 C 2409.24 -4.24011 6.4274 0
M  V30 13664 C 2409.97 -5.20775 5.52155 0
M  V30 13665 O 2410.18 -4.56534 4.22446 0
M  V30 13666 C 2411.37 -5.62629 5.96531 0
M  V30 13667 O 2411.76 -6.87667 5.41053 0
M  V30 13668 C 2412.25 -4.52537 5.39283 0
M  V30 13669 C 2411.54 -4.20027 4.08623 0
M  V30 13670 N 2411.59 -2.76189 3.71603 0
M  V30 13671 H 2408.75 -4.797 7.24003 0
M  V30 13672 H 2408.48 -3.69856 5.84513 0
M  V30 13673 H 2409.34 -6.10356 5.41441 0
M  V30 13674 P 2413.31 -7.20834 5.23717 0
M  V30 13675 O 2413.53 -8.66104 5.38572 0
M  V30 13676 O 2414.1 -6.33544 6.1349 0
M  V30 13677 O 2413.56 -6.7751 3.72168 0
M  V30 13678 C 2412.62 -7.20825 2.7076 0
M  V30 13679 C 2413.35 -7.45864 1.40599 0
M  V30 13680 O 2413.56 -6.17651 0.734225 0
M  V30 13681 C 2414.75 -8.05808 1.51899 0
M  V30 13682 O 2415.14 -8.74358 0.335205 0
M  V30 13683 C 2415.63 -6.83093 1.70294 0
M  V30 13684 C 2414.92 -5.79992 0.836974 0
M  V30 13685 N 2414.97 -4.41864 1.38293 0
M  V30 13686 H 2412.13 -8.13644 3.0377 0
M  V30 13687 H 2411.86 -6.42788 2.55485 0
M  V30 13688 H 2412.72 -8.12039 0.792769 0
M  V30 13689 P 2416.69 -8.91 5.72927e-11 0
M  V30 13690 O 2416.91 -10.1726 -0.733694 0
M  V30 13691 O 2417.48 -8.73148 1.23936 0
M  V30 13692 O 2416.94 -7.66872 -0.971405 0
M  V30 13693 C 2416 -7.42309 -2.04641 0
M  V30 13694 C 2416.73 -6.86059 -3.24661 0
M  V30 13695 O 2416.94 -5.42847 -3.03646 0
M  V30 13696 C 2418.13 -7.41196 -3.50753 0
M  V30 13697 O 2418.52 -7.27073 -4.86816 0
M  V30 13698 C 2419.01 -6.5273 -2.63741 0
M  V30 13699 C 2418.3 -5.1842 -2.73198 0
M  V30 13700 N 2418.35 -4.38762 -1.4784 0
M  V30 13701 H 2415.51 -8.36803 -2.32493 0
M  V30 13702 H 2415.24 -6.70197 -1.71129 0
M  V30 13703 H 2416.1 -7.03551 -4.13168 0
M  V30 13704 P 2420.07 -7.20834 -5.23717 0
M  V30 13705 O 2420.29 -7.79853 -6.57286 0
M  V30 13706 O 2420.86 -7.79239 -4.12957 0
M  V30 13707 O 2420.32 -5.63315 -5.29344 0
M  V30 13708 C 2419.38 -4.80255 -6.01876 0
M  V30 13709 C 2420.11 -3.64202 -6.65911 0
M  V30 13710 O 2420.32 -2.60694 -5.64732 0
M  V30 13711 C 2421.51 -3.93473 -7.1943 0
M  V30 13712 O 2421.9 -3.02071 -8.21205 0
M  V30 13713 C 2422.39 -3.73047 -5.97036 0
M  V30 13714 C 2421.68 -2.58828 -5.25741 0
M  V30 13715 N 2421.73 -2.68068 -3.77503 0
M  V30 13716 H 2418.89 -5.40332 -6.79951 0
M  V30 13717 H 2418.62 -4.41613 -5.32378 0
M  V30 13718 H 2419.48 -3.26331 -7.47797 0
M  V30 13719 P 2423.45 -2.75334 -8.47391 0
M  V30 13720 O 2423.67 -2.44595 -9.90239 0
M  V30 13721 O 2424.24 -3.87732 -7.92204 0
M  V30 13722 O 2423.7 -1.4459 -7.59357 0
M  V30 13723 C 2422.76 -0.347563 -7.69115 0
M  V30 13724 C 2423.49 0.96767 -7.52806 0
M  V30 13725 O 2423.7 1.21036 -6.1011 0
M  V30 13726 C 2424.89 1.04544 -8.13308 0
M  V30 13727 O 2425.28 2.38311 -8.41922 0
M  V30 13728 C 2425.77 0.491279 -7.02284 0
M  V30 13729 C 2425.06 0.996264 -5.77469 0
M  V30 13730 N 2425.11 0.0501808 -4.62873 0
M  V30 13731 C 2425.26 0.588177 -3.36904 0
M  V30 13732 O 2425.35 1.78598 -3.17173 0
M  V30 13733 N 2425.3 -0.329694 -2.33686 0
M  V30 13734 C 2425.21 -1.6953 -2.45079 0
M  V30 13735 C 2425.06 -2.16933 -3.80505 0
M  V30 13736 C 2425.01 -1.30326 -4.83752 0
M  V30 13737 H 2422.27 -0.374722 -8.67691 0
M  V30 13738 H 2422 -0.443421 -6.90177 0
M  V30 13739 H 2422.86 1.75537 -7.96793 0
M  V30 13740 H 2425.52 1.94496 -5.46629 0
M  V30 13741 H 2425.8 -0.608651 -7.04676 0
M  V30 13742 H 2426.79 0.889672 -7.08939 0
M  V30 13743 H 2424.96 0.43308 -9.04564 0
M  V30 13744 H 2424.88 -1.68366 -5.8516 0
M  V30 13745 P 2426.83 2.75334 -8.47391 0
M  V30 13746 O 2427.05 3.84166 -9.4489 0
M  V30 13747 O 2427.62 1.51964 -8.6881 0
M  V30 13748 O 2427.08 3.29363 -6.99321 0
M  V30 13749 C 2426.14 4.23956 -6.42656 0
M  V30 13750 C 2426.87 5.20775 -5.52155 0
M  V30 13751 O 2427.08 4.56534 -4.22446 0
M  V30 13752 C 2428.27 5.62629 -5.96531 0
M  V30 13753 O 2428.66 6.87667 -5.41053 0
M  V30 13754 C 2429.15 4.52537 -5.39283 0
M  V30 13755 C 2428.44 4.20027 -4.08623 0
M  V30 13756 N 2428.49 2.7613 -3.71522 0
M  V30 13757 C 2428.64 2.45612 -2.37989 0
M  V30 13758 O 2428.73 3.30919 -1.51621 0
M  V30 13759 N 2428.68 1.10684 -2.08435 0
M  V30 13760 C 2428.59 0.0690084 -2.9792 0
M  V30 13761 C 2428.44 0.481522 -4.35345 0
M  V30 13762 C 2428.39 1.78906 -4.67968 0
M  V30 13763 H 2425.65 4.797 -7.24003 0
M  V30 13764 H 2425.38 3.69802 -5.84429 0
M  V30 13765 H 2426.24 6.10356 -5.41441 0
M  V30 13766 H 2428.9 4.78651 -3.27911 0
M  V30 13767 H 2429.18 3.64957 -6.05871 0
M  V30 13768 H 2430.17 4.8868 -5.2125 0
M  V30 13769 H 2428.34 5.66726 -7.06352 0
M  V30 13770 H 2428.26 2.07737 -5.72367 0
M  V30 13771 P 2430.21 7.20834 -5.23717 0
M  V30 13772 O 2430.43 8.66104 -5.38572 0
M  V30 13773 O 2431 6.33544 -6.1349 0
M  V30 13774 O 2430.46 6.7751 -3.72168 0
M  V30 13775 C 2429.52 7.20825 -2.7076 0
M  V30 13776 C 2430.25 7.45864 -1.40599 0
M  V30 13777 O 2430.46 6.17651 -0.734225 0
M  V30 13778 C 2431.65 8.05808 -1.51899 0
M  V30 13779 O 2432.04 8.74358 -0.335205 0
M  V30 13780 C 2432.53 6.83093 -1.70294 0
M  V30 13781 C 2431.82 5.79992 -0.836974 0
M  V30 13782 N 2431.87 4.41864 -1.38293 0
M  V30 13783 H 2429.03 8.13644 -3.0377 0
M  V30 13784 H 2428.76 6.42788 -2.55485 0
M  V30 13785 H 2429.62 8.12039 -0.792769 0
M  V30 13786 P 2433.59 8.91 -5.84017e-11 0
M  V30 13787 O 2433.81 10.1726 0.733694 0
M  V30 13788 O 2434.38 8.73148 -1.23936 0
M  V30 13789 O 2433.84 7.66872 0.971405 0
M  V30 13790 C 2432.9 7.42309 2.04641 0
M  V30 13791 C 2433.63 6.86059 3.24661 0
M  V30 13792 O 2433.84 5.42847 3.03646 0
M  V30 13793 C 2435.03 7.41196 3.50753 0
M  V30 13794 O 2435.42 7.27073 4.86816 0
M  V30 13795 C 2435.91 6.5273 2.63741 0
M  V30 13796 C 2435.2 5.1842 2.73198 0
M  V30 13797 N 2435.25 4.38762 1.4784 0
M  V30 13798 H 2432.41 8.36803 2.32493 0
M  V30 13799 H 2432.14 6.70197 1.71129 0
M  V30 13800 H 2433 7.03551 4.13168 0
M  V30 13801 P 2436.97 7.20834 5.23717 0
M  V30 13802 O 2437.19 7.7993 6.57351 0
M  V30 13803 O 2437.76 7.79328 4.13004 0
M  V30 13804 O 2437.22 5.63315 5.29344 0
M  V30 13805 C 2436.28 4.80193 6.01798 0
M  V30 13806 C 2437.01 3.64202 6.65911 0
M  V30 13807 O 2437.22 2.60694 5.64732 0
M  V30 13808 C 2438.41 3.93473 7.1943 0
M  V30 13809 O 2438.8 3.02071 8.21205 0
M  V30 13810 C 2439.29 3.73047 5.97036 0
M  V30 13811 C 2438.58 2.58828 5.25741 0
M  V30 13812 N 2438.63 2.6801 3.77422 0
M  V30 13813 C 2438.78 1.50443 3.07133 0
M  V30 13814 O 2438.87 0.419406 3.61576 0
M  V30 13815 N 2438.82 1.6403 1.69677 0
M  V30 13816 C 2438.73 2.81206 0.986255 0
M  V30 13817 O 2438.78 2.80892 -0.249754 0
M  V30 13818 C 2438.58 3.99158 1.80325 0
M  V30 13819 C 2438.47 5.29309 1.06921 0
M  V30 13820 C 2438.53 3.89779 3.1476 0
M  V30 13821 H 2435.79 5.40332 6.79951 0
M  V30 13822 H 2435.52 4.41549 5.32301 0
M  V30 13823 H 2436.38 3.26331 7.47797 0
M  V30 13824 H 2439.04 1.6395 5.56554 0
M  V30 13825 H 2439.32 4.63439 5.3432 0
M  V30 13826 H 2440.31 3.44728 6.25838 0
M  V30 13827 H 2438.48 4.96652 7.57263 0
M  V30 13828 H 2438.4 4.80159 3.74441 0
M  V30 13829 H 2439.43 5.81459 1.09608 0
M  V30 13830 H 2437.7 5.9187 1.54487 0
M  V30 13831 H 2438.19 5.10095 0.0220288 0
M  V30 13832 H 2438.92 0.798962 1.16664 0
M  V30 13833 P 2440.35 2.75334 8.47391 0
M  V30 13834 O 2440.57 2.44571 9.90142 0
M  V30 13835 O 2441.14 3.87688 7.92115 0
M  V30 13836 O 2440.6 1.4459 7.59357 0
M  V30 13837 C 2439.66 0.347608 7.69215 0
M  V30 13838 C 2440.39 -0.96767 7.52806 0
M  V30 13839 O 2440.6 -1.21036 6.1011 0
M  V30 13840 C 2441.79 -1.04544 8.13308 0
M  V30 13841 O 2442.18 -2.38311 8.41922 0
M  V30 13842 C 2442.67 -0.491279 7.02284 0
M  V30 13843 C 2441.96 -0.996264 5.77469 0
M  V30 13844 N 2442.01 -0.0501916 4.62973 0
M  V30 13845 H 2439.17 0.374722 8.67691 0
M  V30 13846 H 2438.9 0.443485 6.90277 0
M  V30 13847 H 2439.76 -1.75537 7.96793 0
M  V30 13848 P 2443.73 -2.75334 8.47391 0
M  V30 13849 O 2443.95 -3.84128 9.44797 0
M  V30 13850 O 2444.52 -1.51947 8.68712 0
M  V30 13851 O 2443.98 -3.29363 6.99321 0
M  V30 13852 C 2443.04 -4.24011 6.4274 0
M  V30 13853 C 2443.77 -5.20775 5.52155 0
M  V30 13854 O 2443.98 -4.56534 4.22446 0
M  V30 13855 C 2445.17 -5.62629 5.96531 0
M  V30 13856 O 2445.56 -6.87667 5.41053 0
M  V30 13857 C 2446.05 -4.52537 5.39283 0
M  V30 13858 C 2445.34 -4.20027 4.08623 0
M  V30 13859 N 2445.39 -2.76189 3.71603 0
M  V30 13860 C 2445.31 -1.64862 4.52822 0
M  V30 13861 N 2445.39 -0.512671 3.88633 0
M  V30 13862 C 2445.53 -0.888083 2.54977 0
M  V30 13863 C 2445.66 -0.094668 1.38677 0
M  V30 13864 O 2445.68 1.13053 1.28163 0
M  V30 13865 N 2445.78 -0.890102 0.232633 0
M  V30 13866 C 2445.78 -2.26958 0.21772 0
M  V30 13867 N 2445.91 -2.84626 -0.97925 0
M  V30 13868 N 2445.65 -3.0178 1.31033 0
M  V30 13869 C 2445.53 -2.26781 2.43843 0
M  V30 13870 H 2442.55 -4.797 7.24003 0
M  V30 13871 H 2442.28 -3.69856 5.84513 0
M  V30 13872 H 2443.14 -6.10356 5.41441 0
M  V30 13873 H 2445.8 -4.79061 3.27488 0
M  V30 13874 H 2446.08 -3.64906 6.05785 0
M  V30 13875 H 2447.07 -4.8868 5.2125 0
M  V30 13876 H 2445.24 -5.66726 7.06352 0
M  V30 13877 H 2445.19 -1.71169 5.60966 0
M  V30 13878 H 2445.87 -0.419134 -0.644739 0
M  V30 13879 H 2445.91 -3.87332 -1.06098 0
M  V30 13880 H 2446.01 -2.26417 -1.82483 0
M  V30 13881 P 2447.11 -7.20834 5.23717 0
M  V30 13882 O 2447.33 -8.66104 5.38572 0
M  V30 13883 O 2447.9 -6.33544 6.1349 0
M  V30 13884 O 2447.36 -6.7751 3.72168 0
M  V30 13885 C 2446.42 -7.20825 2.7076 0
M  V30 13886 C 2447.15 -7.45864 1.40599 0
M  V30 13887 O 2447.36 -6.17651 0.734225 0
M  V30 13888 C 2448.55 -8.05808 1.51899 0
M  V30 13889 O 2448.94 -8.74358 0.335205 0
M  V30 13890 C 2449.43 -6.83093 1.70294 0
M  V30 13891 C 2448.72 -5.79992 0.836974 0
M  V30 13892 N 2448.77 -4.41864 1.38293 0
M  V30 13893 H 2445.93 -8.13644 3.0377 0
M  V30 13894 H 2445.66 -6.42788 2.55485 0
M  V30 13895 H 2446.52 -8.12039 0.792769 0
M  V30 13896 P 2450.49 -8.91 5.95107e-11 0
M  V30 13897 O 2450.71 -10.1726 -0.733694 0
M  V30 13898 O 2451.28 -8.73148 1.23936 0
M  V30 13899 O 2450.74 -7.66872 -0.971405 0
M  V30 13900 C 2449.8 -7.42309 -2.04641 0
M  V30 13901 C 2450.53 -6.86059 -3.24661 0
M  V30 13902 O 2450.74 -5.42847 -3.03646 0
M  V30 13903 C 2451.93 -7.41196 -3.50753 0
M  V30 13904 O 2452.32 -7.27073 -4.86816 0
M  V30 13905 C 2452.81 -6.5273 -2.63741 0
M  V30 13906 C 2452.1 -5.1842 -2.73198 0
M  V30 13907 N 2452.15 -4.38762 -1.4784 0
M  V30 13908 H 2449.31 -8.36803 -2.32493 0
M  V30 13909 H 2449.04 -6.70197 -1.71129 0
M  V30 13910 H 2449.9 -7.03551 -4.13168 0
M  V30 13911 P 2453.87 -7.20834 -5.23717 0
M  V30 13912 O 2454.09 -7.79853 -6.57286 0
M  V30 13913 O 2454.66 -7.79239 -4.12957 0
M  V30 13914 O 2454.12 -5.63315 -5.29344 0
M  V30 13915 C 2453.18 -4.80255 -6.01876 0
M  V30 13916 C 2453.91 -3.64202 -6.65911 0
M  V30 13917 O 2454.12 -2.60694 -5.64732 0
M  V30 13918 C 2455.31 -3.93473 -7.1943 0
M  V30 13919 O 2455.7 -3.02071 -8.21205 0
M  V30 13920 C 2456.19 -3.73047 -5.97036 0
M  V30 13921 C 2455.48 -2.58828 -5.25741 0
M  V30 13922 N 2455.53 -2.68068 -3.77503 0
M  V30 13923 H 2452.69 -5.40332 -6.79951 0
M  V30 13924 H 2452.42 -4.41613 -5.32378 0
M  V30 13925 H 2453.28 -3.26331 -7.47797 0
M  V30 13926 P 2457.25 -2.75334 -8.47391 0
M  V30 13927 O 2457.47 -2.44571 -9.90142 0
M  V30 13928 O 2458.04 -3.87688 -7.92115 0
M  V30 13929 O 2457.5 -1.4459 -7.59357 0
M  V30 13930 C 2456.56 -0.347608 -7.69215 0
M  V30 13931 C 2457.29 0.96767 -7.52806 0
M  V30 13932 O 2457.5 1.21036 -6.1011 0
M  V30 13933 C 2458.69 1.04544 -8.13308 0
M  V30 13934 O 2459.08 2.38311 -8.41922 0
M  V30 13935 C 2459.57 0.491279 -7.02284 0
M  V30 13936 C 2458.86 0.996264 -5.77469 0
M  V30 13937 N 2458.91 0.0501916 -4.62973 0
M  V30 13938 H 2456.07 -0.374722 -8.67691 0
M  V30 13939 H 2455.8 -0.443485 -6.90277 0
M  V30 13940 H 2456.66 1.75537 -7.96793 0
M  V30 13941 P 2460.63 2.75334 -8.47391 0
M  V30 13942 O 2460.85 3.84204 -9.44982 0
M  V30 13943 O 2461.42 1.51982 -8.68909 0
M  V30 13944 O 2460.88 3.29363 -6.99321 0
M  V30 13945 C 2459.94 4.24066 -6.42823 0
M  V30 13946 C 2460.67 5.20775 -5.52155 0
M  V30 13947 O 2460.88 4.56607 -4.22514 0
M  V30 13948 C 2462.07 5.62697 -5.96604 0
M  V30 13949 O 2462.46 6.87667 -5.41053 0
M  V30 13950 C 2462.95 4.52537 -5.39283 0
M  V30 13951 C 2462.24 4.20027 -4.08623 0
M  V30 13952 N 2462.29 2.76189 -3.71603 0
M  V30 13953 H 2459.45 4.79756 -7.24086 0
M  V30 13954 H 2459.18 3.69963 -5.84682 0
M  V30 13955 H 2460.04 6.10431 -5.41508 0
M  V30 13956 H 2462.7 4.78816 -3.28024 0
M  V30 13957 H 2462.98 3.64957 -6.05871 0
M  V30 13958 H 2463.97 4.88748 -5.21323 0
M  V30 13959 H 2462.14 5.66789 -7.0643 0
M  V30 13960 P 2464.01 7.20834 -5.23717 0
M  V30 13961 O 2464.23 8.66104 -5.38572 0
M  V30 13962 O 2464.8 6.33544 -6.1349 0
M  V30 13963 O 2464.26 6.7751 -3.72168 0
M  V30 13964 C 2463.32 7.20825 -2.7076 0
M  V30 13965 C 2464.05 7.45864 -1.40599 0
M  V30 13966 O 2464.26 6.17651 -0.734225 0
M  V30 13967 C 2465.45 8.05808 -1.51899 0
M  V30 13968 O 2465.84 8.74358 -0.335205 0
M  V30 13969 C 2466.33 6.83093 -1.70294 0
M  V30 13970 C 2465.62 5.79992 -0.836974 0
M  V30 13971 N 2465.67 4.41864 -1.38293 0
M  V30 13972 H 2462.83 8.13644 -3.0377 0
M  V30 13973 H 2462.56 6.42788 -2.55485 0
M  V30 13974 H 2463.42 8.12039 -0.792769 0
M  V30 13975 P 2467.39 8.91 -6.06197e-11 0
M  V30 13976 O 2467.61 10.1726 0.733694 0
M  V30 13977 O 2468.18 8.73148 -1.23936 0
M  V30 13978 O 2467.64 7.66872 0.971405 0
M  V30 13979 C 2466.7 7.42309 2.04641 0
M  V30 13980 C 2467.43 6.86059 3.24661 0
M  V30 13981 O 2467.64 5.42847 3.03646 0
M  V30 13982 C 2468.83 7.41196 3.50753 0
M  V30 13983 O 2469.22 7.27073 4.86816 0
M  V30 13984 C 2469.71 6.5273 2.63741 0
M  V30 13985 C 2469 5.1842 2.73198 0
M  V30 13986 N 2469.05 4.38762 1.4784 0
M  V30 13987 H 2466.21 8.36803 2.32493 0
M  V30 13988 H 2465.94 6.70197 1.71129 0
M  V30 13989 H 2466.8 7.03551 4.13168 0
M  V30 13990 P 2470.77 7.20834 5.23717 0
M  V30 13991 O 2470.99 7.79853 6.57286 0
M  V30 13992 O 2471.56 7.79239 4.12957 0
M  V30 13993 O 2471.02 5.63315 5.29344 0
M  V30 13994 C 2470.08 4.80255 6.01876 0
M  V30 13995 C 2470.81 3.64202 6.65911 0
M  V30 13996 O 2471.02 2.60694 5.64732 0
M  V30 13997 C 2472.21 3.93473 7.1943 0
M  V30 13998 O 2472.6 3.02071 8.21205 0
M  V30 13999 C 2473.09 3.73047 5.97036 0
M  V30 14000 C 2472.38 2.58828 5.25741 0
M  V30 14001 N 2472.43 2.68068 3.77503 0
M  V30 14002 H 2469.59 5.40332 6.79951 0
M  V30 14003 H 2469.32 4.41613 5.32378 0
M  V30 14004 H 2470.18 3.26331 7.47797 0
M  V30 14005 P 2474.15 2.75334 8.47391 0
M  V30 14006 O 2474.37 2.44571 9.90142 0
M  V30 14007 O 2474.94 3.87688 7.92115 0
M  V30 14008 O 2474.4 1.4459 7.59357 0
M  V30 14009 C 2473.46 0.347608 7.69215 0
M  V30 14010 C 2474.19 -0.96767 7.52806 0
M  V30 14011 O 2474.4 -1.21036 6.1011 0
M  V30 14012 C 2475.59 -1.04544 8.13308 0
M  V30 14013 O 2475.98 -2.38311 8.41922 0
M  V30 14014 C 2476.47 -0.491279 7.02284 0
M  V30 14015 C 2475.76 -0.996264 5.77469 0
M  V30 14016 N 2475.81 -0.0501916 4.62973 0
M  V30 14017 C 2475.73 1.32786 4.63244 0
M  V30 14018 N 2475.81 1.86957 3.44545 0
M  V30 14019 C 2475.95 0.780241 2.58481 0
M  V30 14020 C 2476.08 0.738536 1.17757 0
M  V30 14021 O 2476.1 1.66794 0.372349 0
M  V30 14022 N 2476.2 -0.58337 0.711393 0
M  V30 14023 C 2476.2 -1.70816 1.51017 0
M  V30 14024 N 2476.33 -2.87826 0.880757 0
M  V30 14025 N 2476.07 -1.67126 2.8339 0
M  V30 14026 C 2475.95 -0.401421 3.30572 0
M  V30 14027 H 2472.97 0.374722 8.67691 0
M  V30 14028 H 2472.7 0.443485 6.90277 0
M  V30 14029 H 2473.56 -1.75537 7.96793 0
M  V30 14030 H 2476.22 -1.95076 5.46529 0
M  V30 14031 H 2476.5 0.608565 7.04577 0
M  V30 14032 H 2477.49 -0.889672 7.08939 0
M  V30 14033 H 2475.66 -0.43308 9.04564 0
M  V30 14034 H 2475.61 1.91249 5.54442 0
M  V30 14035 H 2476.29 -0.718054 -0.275244 0
M  V30 14036 H 2476.33 -3.75721 1.41832 0
M  V30 14037 H 2476.43 -2.90436 -0.145468 0
M  V30 14038 P 2477.53 -2.75334 8.47391 0
M  V30 14039 O 2477.75 -3.84166 9.4489 0
M  V30 14040 O 2478.32 -1.51964 8.6881 0
M  V30 14041 O 2477.78 -3.29363 6.99321 0
M  V30 14042 C 2476.84 -4.23956 6.42656 0
M  V30 14043 C 2477.57 -5.20775 5.52155 0
M  V30 14044 O 2477.78 -4.56534 4.22446 0
M  V30 14045 C 2478.97 -5.62629 5.96531 0
M  V30 14046 O 2479.36 -6.87667 5.41053 0
M  V30 14047 C 2479.85 -4.52537 5.39283 0
M  V30 14048 C 2479.14 -4.20027 4.08623 0
M  V30 14049 N 2479.19 -2.7613 3.71522 0
M  V30 14050 C 2479.34 -2.45612 2.37989 0
M  V30 14051 O 2479.43 -3.30919 1.51621 0
M  V30 14052 N 2479.38 -1.10684 2.08435 0
M  V30 14053 C 2479.29 -0.0690084 2.9792 0
M  V30 14054 O 2479.34 1.10553 2.59426 0
M  V30 14055 C 2479.14 -0.481522 4.35345 0
M  V30 14056 C 2479.03 0.618778 5.36443 0
M  V30 14057 C 2479.09 -1.78906 4.67968 0
M  V30 14058 H 2476.35 -4.797 7.24003 0
M  V30 14059 H 2476.08 -3.69802 5.84429 0
M  V30 14060 H 2476.94 -6.10356 5.41441 0
M  V30 14061 H 2479.6 -4.78651 3.27911 0
M  V30 14062 H 2479.88 -3.64957 6.05871 0
M  V30 14063 H 2480.87 -4.8868 5.2125 0
M  V30 14064 H 2479.04 -5.66726 7.06352 0
M  V30 14065 H 2478.96 -2.07737 5.72367 0
M  V30 14066 H 2479.99 0.754375 5.86871 0
M  V30 14067 H 2478.26 0.359721 6.10641 0
M  V30 14068 H 2478.75 1.55533 4.8581 0
M  V30 14069 H 2479.48 -0.862651 1.12037 0
M  V30 14070 P 2480.91 -7.20834 5.23717 0
M  V30 14071 O 2481.13 -8.66104 5.38572 0
M  V30 14072 O 2481.7 -6.33544 6.1349 0
M  V30 14073 O 2481.16 -6.7751 3.72168 0
M  V30 14074 C 2480.22 -7.20825 2.7076 0
M  V30 14075 C 2480.95 -7.45864 1.40599 0
M  V30 14076 O 2481.16 -6.17651 0.734225 0
M  V30 14077 C 2482.35 -8.05808 1.51899 0
M  V30 14078 O 2482.74 -8.74358 0.335205 0
M  V30 14079 C 2483.23 -6.83093 1.70294 0
M  V30 14080 C 2482.52 -5.79992 0.836974 0
M  V30 14081 N 2482.57 -4.41864 1.38293 0
M  V30 14082 H 2479.73 -8.13644 3.0377 0
M  V30 14083 H 2479.46 -6.42788 2.55485 0
M  V30 14084 H 2480.32 -8.12039 0.792769 0
M  V30 14085 P 2484.29 -8.91 6.17288e-11 0
M  V30 14086 O 2484.51 -10.1726 -0.733694 0
M  V30 14087 O 2485.08 -8.73148 1.23936 0
M  V30 14088 O 2484.54 -7.66872 -0.971405 0
M  V30 14089 C 2483.6 -7.42309 -2.04641 0
M  V30 14090 C 2484.33 -6.86059 -3.24661 0
M  V30 14091 O 2484.54 -5.42847 -3.03646 0
M  V30 14092 C 2485.73 -7.41196 -3.50753 0
M  V30 14093 O 2486.12 -7.27073 -4.86816 0
M  V30 14094 C 2486.61 -6.5273 -2.63741 0
M  V30 14095 C 2485.9 -5.1842 -2.73198 0
M  V30 14096 N 2485.95 -4.38762 -1.4784 0
M  V30 14097 H 2483.11 -8.36803 -2.32493 0
M  V30 14098 H 2482.84 -6.70197 -1.71129 0
M  V30 14099 H 2483.7 -7.03551 -4.13168 0
M  V30 14100 P 2487.67 -7.20834 -5.23717 0
M  V30 14101 O 2487.89 -7.79853 -6.57286 0
M  V30 14102 O 2488.46 -7.79239 -4.12957 0
M  V30 14103 O 2487.92 -5.63315 -5.29344 0
M  V30 14104 C 2486.98 -4.80255 -6.01876 0
M  V30 14105 C 2487.71 -3.64202 -6.65911 0
M  V30 14106 O 2487.92 -2.60694 -5.64732 0
M  V30 14107 C 2489.11 -3.93473 -7.1943 0
M  V30 14108 O 2489.5 -3.02071 -8.21205 0
M  V30 14109 C 2489.99 -3.73047 -5.97036 0
M  V30 14110 C 2489.28 -2.58828 -5.25741 0
M  V30 14111 N 2489.33 -2.68068 -3.77503 0
M  V30 14112 H 2486.49 -5.40332 -6.79951 0
M  V30 14113 H 2486.22 -4.41613 -5.32378 0
M  V30 14114 H 2487.08 -3.26331 -7.47797 0
M  V30 14115 P 2491.05 -2.75334 -8.47391 0
M  V30 14116 O 2491.27 -2.44571 -9.90142 0
M  V30 14117 O 2491.84 -3.87688 -7.92115 0
M  V30 14118 O 2491.3 -1.4459 -7.59357 0
M  V30 14119 C 2490.36 -0.347608 -7.69215 0
M  V30 14120 C 2491.09 0.96767 -7.52806 0
M  V30 14121 O 2491.3 1.21036 -6.1011 0
M  V30 14122 C 2492.49 1.04544 -8.13308 0
M  V30 14123 O 2492.88 2.38311 -8.41922 0
M  V30 14124 C 2493.37 0.491279 -7.02284 0
M  V30 14125 C 2492.66 0.996264 -5.77469 0
M  V30 14126 N 2492.71 0.0501916 -4.62973 0
M  V30 14127 H 2489.87 -0.374722 -8.67691 0
M  V30 14128 H 2489.6 -0.443485 -6.90277 0
M  V30 14129 H 2490.46 1.75537 -7.96793 0
M  V30 14130 P 2494.43 2.75334 -8.47391 0
M  V30 14131 O 2494.65 3.84128 -9.44797 0
M  V30 14132 O 2495.22 1.51947 -8.68712 0
M  V30 14133 O 2494.68 3.29363 -6.99321 0
M  V30 14134 C 2493.74 4.24011 -6.4274 0
M  V30 14135 C 2494.47 5.20775 -5.52155 0
M  V30 14136 O 2494.68 4.56534 -4.22446 0
M  V30 14137 C 2495.87 5.62629 -5.96531 0
M  V30 14138 O 2496.26 6.87667 -5.41053 0
M  V30 14139 C 2496.75 4.52537 -5.39283 0
M  V30 14140 C 2496.04 4.20027 -4.08623 0
M  V30 14141 N 2496.09 2.76189 -3.71603 0
M  V30 14142 H 2493.25 4.797 -7.24003 0
M  V30 14143 H 2492.98 3.69856 -5.84513 0
M  V30 14144 H 2493.84 6.10356 -5.41441 0
M  V30 14145 P 2497.81 7.20834 -5.23717 0
M  V30 14146 O 2498.03 8.66189 -5.38625 0
M  V30 14147 O 2498.6 6.33615 -6.1356 0
M  V30 14148 O 2498.06 6.7751 -3.72168 0
M  V30 14149 C 2497.12 7.20732 -2.70725 0
M  V30 14150 C 2497.85 7.45864 -1.40599 0
M  V30 14151 O 2498.06 6.17651 -0.734225 0
M  V30 14152 C 2499.25 8.05808 -1.51899 0
M  V30 14153 O 2499.64 8.74358 -0.335205 0
M  V30 14154 C 2500.13 6.83093 -1.70294 0
M  V30 14155 C 2499.42 5.79992 -0.836974 0
M  V30 14156 N 2499.47 4.41769 -1.38263 0
M  V30 14157 C 2499.62 3.38591 -0.481702 0
M  V30 14158 O 2499.71 3.56839 0.718452 0
M  V30 14159 N 2499.66 2.1206 -1.03569 0
M  V30 14160 C 2499.57 1.80696 -2.36966 0
M  V30 14161 C 2499.42 2.94845 -3.23898 0
M  V30 14162 C 2499.37 4.19803 -2.73435 0
M  V30 14163 H 2496.63 8.13644 -3.0377 0
M  V30 14164 H 2496.36 6.42695 -2.55448 0
M  V30 14165 H 2497.22 8.12039 -0.792769 0
M  V30 14166 H 2499.88 5.79978 0.160587 0
M  V30 14167 H 2500.16 6.51379 -2.75643 0
M  V30 14168 H 2501.15 7.01734 -1.34462 0
M  V30 14169 H 2499.32 8.73674 -2.38337 0
M  V30 14170 H 2499.24 5.04492 -3.4095 0
M  V30 14171 P 2501.19 8.91 -6.28378e-11 0
M  V30 14172 O 2501.41 10.1746 0.733838 0
M  V30 14173 O 2501.98 8.73346 -1.23964 0
M  V30 14174 O 2501.44 7.66872 0.971405 0
M  V30 14175 C 2500.5 7.42405 2.04668 0
M  V30 14176 C 2501.23 6.86059 3.24661 0
M  V30 14177 O 2501.44 5.42934 3.03695 0
M  V30 14178 C 2502.63 7.41287 3.50796 0
M  V30 14179 O 2503.02 7.27073 4.86816 0
M  V30 14180 C 2503.51 6.5273 2.63741 0
M  V30 14181 C 2502.8 5.1842 2.73198 0
M  V30 14182 N 2502.85 4.38762 1.4784 0
M  V30 14183 H 2500.01 8.36899 2.3252 0
M  V30 14184 H 2499.74 6.70391 1.71179 0
M  V30 14185 H 2500.6 7.03638 4.13219 0
M  V30 14186 H 2503.26 4.59931 3.54016 0
M  V30 14187 H 2503.54 6.88995 1.59871 0
M  V30 14188 H 2504.53 6.4684 3.0373 0
M  V30 14189 H 2502.7 8.47002 3.20749 0
M  V30 14190 P 2504.57 7.20834 5.23717 0
M  V30 14191 O 2504.79 7.79853 6.57286 0
M  V30 14192 O 2505.36 7.79239 4.12957 0
M  V30 14193 O 2504.82 5.63315 5.29344 0
M  V30 14194 C 2503.88 4.80255 6.01876 0
M  V30 14195 C 2504.61 3.64202 6.65911 0
M  V30 14196 O 2504.82 2.60694 5.64732 0
M  V30 14197 C 2506.01 3.93473 7.1943 0
M  V30 14198 O 2506.4 3.02071 8.21205 0
M  V30 14199 C 2506.89 3.73047 5.97036 0
M  V30 14200 C 2506.18 2.58828 5.25741 0
M  V30 14201 N 2506.23 2.68068 3.77503 0
M  V30 14202 H 2503.39 5.40332 6.79951 0
M  V30 14203 H 2503.12 4.41613 5.32378 0
M  V30 14204 H 2503.98 3.26331 7.47797 0
M  V30 14205 P 2507.95 2.75334 8.47391 0
M  V30 14206 O 2508.17 2.44571 9.90142 0
M  V30 14207 O 2508.74 3.87688 7.92115 0
M  V30 14208 O 2508.2 1.4459 7.59357 0
M  V30 14209 C 2507.26 0.347608 7.69215 0
M  V30 14210 C 2507.99 -0.96767 7.52806 0
M  V30 14211 O 2508.2 -1.21036 6.1011 0
M  V30 14212 C 2509.39 -1.04544 8.13308 0
M  V30 14213 O 2509.78 -2.38311 8.41922 0
M  V30 14214 C 2510.27 -0.491279 7.02284 0
M  V30 14215 C 2509.56 -0.996264 5.77469 0
M  V30 14216 N 2509.61 -0.0501916 4.62973 0
M  V30 14217 H 2506.77 0.374722 8.67691 0
M  V30 14218 H 2506.5 0.443485 6.90277 0
M  V30 14219 H 2507.36 -1.75537 7.96793 0
M  V30 14220 P 2511.33 -2.75334 8.47391 0
M  V30 14221 O 2511.55 -3.84128 9.44797 0
M  V30 14222 O 2512.12 -1.51947 8.68712 0
M  V30 14223 O 2511.58 -3.29363 6.99321 0
M  V30 14224 C 2510.64 -4.24011 6.4274 0
M  V30 14225 C 2511.37 -5.20775 5.52155 0
M  V30 14226 O 2511.58 -4.56534 4.22446 0
M  V30 14227 C 2512.77 -5.62629 5.96531 0
M  V30 14228 O 2513.16 -6.87667 5.41053 0
M  V30 14229 C 2513.65 -4.52537 5.39283 0
M  V30 14230 C 2512.94 -4.20027 4.08623 0
M  V30 14231 N 2512.99 -2.76189 3.71603 0
M  V30 14232 H 2510.15 -4.797 7.24003 0
M  V30 14233 H 2509.88 -3.69856 5.84513 0
M  V30 14234 H 2510.74 -6.10356 5.41441 0
M  V30 14235 P 2514.71 -7.20834 5.23717 0
M  V30 14236 O 2514.93 -8.66104 5.38572 0
M  V30 14237 O 2515.5 -6.33544 6.1349 0
M  V30 14238 O 2514.96 -6.7751 3.72168 0
M  V30 14239 C 2514.02 -7.20825 2.7076 0
M  V30 14240 C 2514.75 -7.45864 1.40599 0
M  V30 14241 O 2514.96 -6.17651 0.734225 0
M  V30 14242 C 2516.15 -8.05808 1.51899 0
M  V30 14243 O 2516.54 -8.74358 0.335205 0
M  V30 14244 C 2517.03 -6.83093 1.70294 0
M  V30 14245 C 2516.32 -5.79992 0.836974 0
M  V30 14246 N 2516.37 -4.41864 1.38293 0
M  V30 14247 H 2513.53 -8.13644 3.0377 0
M  V30 14248 H 2513.26 -6.42788 2.55485 0
M  V30 14249 H 2514.12 -8.12039 0.792769 0
M  V30 14250 P 2518.09 -8.91 6.39468e-11 0
M  V30 14251 O 2518.31 -10.1746 -0.733838 0
M  V30 14252 O 2518.88 -8.73346 1.23964 0
M  V30 14253 O 2518.34 -7.66872 -0.971405 0
M  V30 14254 C 2517.4 -7.42405 -2.04668 0
M  V30 14255 C 2518.13 -6.86059 -3.24661 0
M  V30 14256 O 2518.34 -5.42934 -3.03695 0
M  V30 14257 C 2519.53 -7.41287 -3.50796 0
M  V30 14258 O 2519.92 -7.27073 -4.86816 0
M  V30 14259 C 2520.41 -6.5273 -2.63741 0
M  V30 14260 C 2519.7 -5.1842 -2.73198 0
M  V30 14261 N 2519.75 -4.38762 -1.4784 0
M  V30 14262 C 2519.67 -4.83651 -0.183876 0
M  V30 14263 N 2519.74 -3.88759 0.699393 0
M  V30 14264 C 2519.89 -2.7404 -0.0575568 0
M  V30 14265 C 2520.02 -1.37902 0.293928 0
M  V30 14266 N 2520.03 -0.938021 1.54797 0
M  V30 14267 N 2520.14 -0.491817 -0.70549 0
M  V30 14268 C 2520.13 -0.931735 -1.95979 0
M  V30 14269 N 2520.01 -2.16017 -2.41481 0
M  V30 14270 C 2519.89 -3.02547 -1.39121 0
M  V30 14271 H 2516.91 -8.36899 -2.3252 0
M  V30 14272 H 2516.64 -6.70391 -1.71179 0
M  V30 14273 H 2517.5 -7.03638 -4.13219 0
M  V30 14274 H 2520.16 -4.59931 -3.54016 0
M  V30 14275 H 2520.44 -6.88995 -1.59871 0
M  V30 14276 H 2521.43 -6.4684 -3.0373 0
M  V30 14277 H 2519.6 -8.47002 -3.20749 0
M  V30 14278 H 2519.55 -5.8885 0.0765548 0
M  V30 14279 H 2519.94 -1.60276 2.32875 0
M  V30 14280 H 2520.12 0.0699355 1.73859 0
M  V30 14281 H 2520.23 -0.165507 -2.71897 0
M  V30 14282 P 2521.47 -7.20834 -5.23717 0
M  V30 14283 O 2521.69 -7.79853 -6.57286 0
M  V30 14284 O 2522.26 -7.79239 -4.12957 0
M  V30 14285 O 2521.72 -5.63315 -5.29344 0
M  V30 14286 C 2520.78 -4.80255 -6.01876 0
M  V30 14287 C 2521.51 -3.64202 -6.65911 0
M  V30 14288 O 2521.72 -2.60694 -5.64732 0
M  V30 14289 C 2522.91 -3.93473 -7.1943 0
M  V30 14290 O 2523.3 -3.02071 -8.21205 0
M  V30 14291 C 2523.79 -3.73047 -5.97036 0
M  V30 14292 C 2523.08 -2.58828 -5.25741 0
M  V30 14293 N 2523.13 -2.68068 -3.77503 0
M  V30 14294 C 2523.05 -3.79715 -2.96723 0
M  V30 14295 N 2523.13 -3.5377 -1.68852 0
M  V30 14296 C 2523.27 -2.15054 -1.63254 0
M  V30 14297 C 2523.4 -1.28964 -0.518571 0
M  V30 14298 O 2523.42 -1.56826 0.679156 0
M  V30 14299 N 2523.52 0.0538097 -0.918425 0
M  V30 14300 C 2523.52 0.494275 -2.22578 0
M  V30 14301 N 2523.65 1.81086 -2.40434 0
M  V30 14302 N 2523.39 -0.313645 -3.27502 0
M  V30 14303 C 2523.27 -1.61829 -2.91033 0
M  V30 14304 H 2520.29 -5.40332 -6.79951 0
M  V30 14305 H 2520.02 -4.41613 -5.32378 0
M  V30 14306 H 2520.88 -3.26331 -7.47797 0
M  V30 14307 H 2523.54 -1.63422 -5.56814 0
M  V30 14308 H 2523.82 -4.63374 -5.34244 0
M  V30 14309 H 2524.81 -3.44728 -6.25838 0
M  V30 14310 H 2522.98 -4.96652 -7.57263 0
M  V30 14311 H 2522.93 -4.80617 -3.3614 0
M  V30 14312 H 2523.61 0.742702 -0.199384 0
M  V30 14313 H 2523.65 2.20598 -3.35588 0
M  V30 14314 H 2523.75 2.43518 -1.58945 0
M  V30 14315 P 2524.85 -2.75334 -8.47391 0
M  V30 14316 O 2525.07 -2.44619 -9.90336 0
M  V30 14317 O 2525.64 -3.87776 -7.92294 0
M  V30 14318 O 2525.1 -1.4459 -7.59357 0
M  V30 14319 C 2524.16 -0.347653 -7.69315 0
M  V30 14320 C 2524.89 0.96767 -7.52806 0
M  V30 14321 O 2525.1 1.21055 -6.10208 0
M  V30 14322 C 2526.29 1.04557 -8.13408 0
M  V30 14323 O 2526.68 2.38311 -8.41922 0
M  V30 14324 C 2527.17 0.491279 -7.02284 0
M  V30 14325 C 2526.46 0.996264 -5.77469 0
M  V30 14326 N 2526.51 0.0501916 -4.62973 0
M  V30 14327 C 2526.43 -1.31969 -4.65661 0
M  V30 14328 N 2526.5 -1.86649 -3.48119 0
M  V30 14329 C 2526.65 -0.792089 -2.62406 0
M  V30 14330 C 2526.78 -0.705684 -1.2207 0
M  V30 14331 N 2526.79 -1.76207 -0.413762 0
M  V30 14332 N 2526.9 0.518981 -0.685754 0
M  V30 14333 C 2526.89 1.57595 -1.49174 0
M  V30 14334 N 2526.77 1.62909 -2.80066 0
M  V30 14335 C 2526.65 0.388195 -3.3073 0
M  V30 14336 H 2523.67 -0.374765 -8.67791 0
M  V30 14337 H 2523.4 -0.443613 -6.90476 0
M  V30 14338 H 2524.26 1.75559 -7.96891 0
M  V30 14339 H 2526.92 1.94563 -5.46818 0
M  V30 14340 H 2527.2 -0.608651 -7.04676 0
M  V30 14341 H 2528.19 0.889796 -7.09039 0
M  V30 14342 H 2526.36 0.433128 -9.04664 0
M  V30 14343 H 2526.31 -1.89246 -5.57664 0
M  V30 14344 H 2526.7 -2.71005 -0.804694 0
M  V30 14345 H 2526.88 -1.63189 0.603768 0
M  V30 14346 H 2526.99 2.53475 -0.997614 0
M  V30 14347 P 2528.23 2.75334 -8.47391 0
M  V30 14348 O 2528.45 3.84128 -9.44797 0
M  V30 14349 O 2529.02 1.51947 -8.68712 0
M  V30 14350 O 2528.48 3.29363 -6.99321 0
M  V30 14351 C 2527.54 4.24011 -6.4274 0
M  V30 14352 C 2528.27 5.20775 -5.52155 0
M  V30 14353 O 2528.48 4.56534 -4.22446 0
M  V30 14354 C 2529.67 5.62629 -5.96531 0
M  V30 14355 O 2530.06 6.87667 -5.41053 0
M  V30 14356 C 2530.55 4.52537 -5.39283 0
M  V30 14357 C 2529.84 4.20027 -4.08623 0
M  V30 14358 N 2529.89 2.76189 -3.71603 0
M  V30 14359 C 2529.81 1.64862 -4.52822 0
M  V30 14360 N 2529.89 0.512671 -3.88633 0
M  V30 14361 C 2530.03 0.888083 -2.54977 0
M  V30 14362 C 2530.16 0.094668 -1.38677 0
M  V30 14363 O 2530.18 -1.13053 -1.28163 0
M  V30 14364 N 2530.28 0.890102 -0.232633 0
M  V30 14365 C 2530.28 2.26958 -0.21772 0
M  V30 14366 N 2530.41 2.84626 0.97925 0
M  V30 14367 N 2530.15 3.0178 -1.31033 0
M  V30 14368 C 2530.03 2.26781 -2.43843 0
M  V30 14369 H 2527.05 4.797 -7.24003 0
M  V30 14370 H 2526.78 3.69856 -5.84513 0
M  V30 14371 H 2527.64 6.10356 -5.41441 0
M  V30 14372 H 2530.3 4.79061 -3.27488 0
M  V30 14373 H 2530.58 3.64906 -6.05785 0
M  V30 14374 H 2531.57 4.8868 -5.2125 0
M  V30 14375 H 2529.74 5.66726 -7.06352 0
M  V30 14376 H 2529.69 1.71169 -5.60966 0
M  V30 14377 H 2530.37 0.419134 0.644739 0
M  V30 14378 H 2530.41 3.87332 1.06098 0
M  V30 14379 H 2530.51 2.26417 1.82483 0
M  V30 14380 P 2531.61 7.20834 -5.23717 0
M  V30 14381 O 2531.83 8.66274 -5.38678 0
M  V30 14382 O 2532.4 6.33687 -6.13629 0
M  V30 14383 O 2531.86 6.7751 -3.72168 0
M  V30 14384 C 2530.92 7.20919 -2.70795 0
M  V30 14385 C 2531.65 7.45864 -1.40599 0
M  V30 14386 O 2531.86 6.17751 -0.734343 0
M  V30 14387 C 2533.05 8.05906 -1.51917 0
M  V30 14388 O 2533.44 8.74358 -0.335205 0
M  V30 14389 C 2533.93 6.83093 -1.70294 0
M  V30 14390 C 2533.22 5.79992 -0.836974 0
M  V30 14391 N 2533.27 4.41864 -1.38293 0
M  V30 14392 C 2533.19 4.02089 -2.69407 0
M  V30 14393 N 2533.26 2.73403 -2.85089 0
M  V30 14394 C 2533.41 2.25086 -1.5642 0
M  V30 14395 C 2533.54 0.942887 -1.04836 0
M  V30 14396 N 2533.55 -0.150999 -1.80369 0
M  V30 14397 N 2533.66 0.812565 0.28167 0
M  V30 14398 C 2533.65 1.90572 1.03784 0
M  V30 14399 N 2533.53 3.167 0.683905 0
M  V30 14400 C 2533.41 3.26538 -0.652815 0
M  V30 14401 H 2530.43 8.13738 -3.03804 0
M  V30 14402 H 2530.16 6.42974 -2.55559 0
M  V30 14403 H 2531.02 8.12139 -0.792866 0
M  V30 14404 H 2533.68 5.80178 0.160643 0
M  V30 14405 H 2533.96 6.51379 -2.75643 0
M  V30 14406 H 2534.95 7.01832 -1.3448 0
M  V30 14407 H 2533.12 8.73771 -2.38364 0
M  V30 14408 H 2533.07 4.7189 -3.52311 0
M  V30 14409 H 2533.46 -0.0721434 -2.82608 0
M  V30 14410 H 2533.64 -1.0785 -1.36544 0
M  V30 14411 H 2533.75 1.73207 2.10241 0
M  V30 14412 P 2534.99 8.91 -6.50558e-11 0
M  V30 14413 O 2535.21 10.1726 0.733694 0
M  V30 14414 O 2535.78 8.73148 -1.23936 0
M  V30 14415 O 2535.24 7.66872 0.971405 0
M  V30 14416 C 2534.3 7.42309 2.04641 0
M  V30 14417 C 2535.03 6.86059 3.24661 0
M  V30 14418 O 2535.24 5.42847 3.03646 0
M  V30 14419 C 2536.43 7.41196 3.50753 0
M  V30 14420 O 2536.82 7.27073 4.86816 0
M  V30 14421 C 2537.31 6.5273 2.63741 0
M  V30 14422 C 2536.6 5.1842 2.73198 0
M  V30 14423 N 2536.65 4.38762 1.4784 0
M  V30 14424 H 2533.81 8.36803 2.32493 0
M  V30 14425 H 2533.54 6.70197 1.71129 0
M  V30 14426 H 2534.4 7.03551 4.13168 0
M  V30 14427 P 2538.36 7.20834 5.23717 0
M  V30 14428 O 2538.58 7.80006 6.57415 0
M  V30 14429 O 2539.15 7.79416 4.13051 0
M  V30 14430 O 2538.61 5.63315 5.29344 0
M  V30 14431 C 2537.67 4.80318 6.01954 0
M  V30 14432 C 2538.4 3.64202 6.65911 0
M  V30 14433 O 2538.61 2.60736 5.64823 0
M  V30 14434 C 2539.8 3.93521 7.19518 0
M  V30 14435 O 2540.19 3.02071 8.21205 0
M  V30 14436 C 2540.68 3.73047 5.97036 0
M  V30 14437 C 2539.97 2.58828 5.25741 0
M  V30 14438 N 2540.02 2.68068 3.77503 0
M  V30 14439 C 2539.94 3.80474 2.99159 0
M  V30 14440 N 2540.01 3.55622 1.71925 0
M  V30 14441 C 2540.16 2.1832 1.65733 0
M  V30 14442 C 2540.29 1.28842 0.572777 0
M  V30 14443 N 2540.3 1.66875 -0.70098 0
M  V30 14444 N 2540.41 -0.016788 0.859836 0
M  V30 14445 C 2540.4 -0.398145 2.13316 0
M  V30 14446 N 2540.28 0.328224 3.22333 0
M  V30 14447 C 2540.16 1.62992 2.90383 0
M  V30 14448 H 2537.19 5.40394 6.8003 0
M  V30 14449 H 2536.91 4.41741 5.32532 0
M  V30 14450 H 2537.78 3.26371 7.47889 0
M  V30 14451 H 2540.44 1.64007 5.56746 0
M  V30 14452 H 2540.72 4.63439 5.3432 0
M  V30 14453 H 2541.71 3.44776 6.25925 0
M  V30 14454 H 2539.87 4.96707 7.57347 0
M  V30 14455 H 2539.83 4.8089 3.39924 0
M  V30 14456 H 2540.21 2.66547 -0.941919 0
M  V30 14457 H 2540.4 0.965341 -1.44766 0
M  V30 14458 H 2540.51 -1.46427 2.29697 0
M  V30 14459 P 2541.74 2.75334 8.47391 0
M  V30 14460 O 2541.96 2.44571 9.90142 0
M  V30 14461 O 2542.53 3.87688 7.92115 0
M  V30 14462 O 2541.99 1.4459 7.59357 0
M  V30 14463 C 2541.05 0.347608 7.69215 0
M  V30 14464 C 2541.78 -0.96767 7.52806 0
M  V30 14465 O 2541.99 -1.21036 6.1011 0
M  V30 14466 C 2543.18 -1.04544 8.13308 0
M  V30 14467 O 2543.57 -2.38311 8.41922 0
M  V30 14468 C 2544.06 -0.491279 7.02284 0
M  V30 14469 C 2543.35 -0.996264 5.77469 0
M  V30 14470 N 2543.4 -0.0501916 4.62973 0
M  V30 14471 H 2540.57 0.374722 8.67691 0
M  V30 14472 H 2540.3 0.443485 6.90277 0
M  V30 14473 H 2541.16 -1.75537 7.96793 0
M  V30 14474 P 2545.12 -2.75334 8.47391 0
M  V30 14475 O 2545.34 -3.84128 9.44797 0
M  V30 14476 O 2545.91 -1.51947 8.68712 0
M  V30 14477 O 2545.37 -3.29363 6.99321 0
M  V30 14478 C 2544.43 -4.24011 6.4274 0
M  V30 14479 C 2545.16 -5.20775 5.52155 0
M  V30 14480 O 2545.37 -4.56534 4.22446 0
M  V30 14481 C 2546.56 -5.62629 5.96531 0
M  V30 14482 O 2546.95 -6.87667 5.41053 0
M  V30 14483 C 2547.44 -4.52537 5.39283 0
M  V30 14484 C 2546.73 -4.20027 4.08623 0
M  V30 14485 N 2546.78 -2.76189 3.71603 0
M  V30 14486 H 2543.95 -4.797 7.24003 0
M  V30 14487 H 2543.68 -3.69856 5.84513 0
M  V30 14488 H 2544.54 -6.10356 5.41441 0
M  V30 14489 P 2548.5 -7.20834 5.23717 0
M  V30 14490 O 2548.72 -8.66274 5.38678 0
M  V30 14491 O 2549.29 -6.33687 6.13629 0
M  V30 14492 O 2548.75 -6.7751 3.72168 0
M  V30 14493 C 2547.81 -7.20919 2.70795 0
M  V30 14494 C 2548.54 -7.45864 1.40599 0
M  V30 14495 O 2548.75 -6.17751 0.734343 0
M  V30 14496 C 2549.94 -8.05906 1.51917 0
M  V30 14497 O 2550.33 -8.74358 0.335205 0
M  V30 14498 C 2550.82 -6.83093 1.70294 0
M  V30 14499 C 2550.11 -5.79992 0.836974 0
M  V30 14500 N 2550.16 -4.41864 1.38293 0
M  V30 14501 H 2547.33 -8.13738 3.03804 0
M  V30 14502 H 2547.05 -6.42974 2.55559 0
M  V30 14503 H 2547.92 -8.12139 0.792866 0
M  V30 14504 H 2550.58 -5.80178 -0.160643 0
M  V30 14505 H 2550.86 -6.51379 2.75643 0
M  V30 14506 H 2551.85 -7.01832 1.3448 0
M  V30 14507 H 2550.01 -8.73771 2.38364 0
M  V30 14508 P 2551.88 -8.91 6.61648e-11 0
M  V30 14509 O 2552.1 -10.1726 -0.733694 0
M  V30 14510 O 2552.67 -8.73148 1.23936 0
M  V30 14511 O 2552.13 -7.66872 -0.971405 0
M  V30 14512 C 2551.19 -7.42309 -2.04641 0
M  V30 14513 C 2551.92 -6.86059 -3.24661 0
M  V30 14514 O 2552.13 -5.42847 -3.03646 0
M  V30 14515 C 2553.32 -7.41196 -3.50753 0
M  V30 14516 O 2553.71 -7.27073 -4.86816 0
M  V30 14517 C 2554.2 -6.5273 -2.63741 0
M  V30 14518 C 2553.49 -5.1842 -2.73198 0
M  V30 14519 N 2553.54 -4.38762 -1.4784 0
M  V30 14520 H 2550.71 -8.36803 -2.32493 0
M  V30 14521 H 2550.44 -6.70197 -1.71129 0
M  V30 14522 H 2551.3 -7.03551 -4.13168 0
M  V30 14523 P 2555.26 -7.20834 -5.23717 0
M  V30 14524 O 2555.48 -7.79853 -6.57286 0
M  V30 14525 O 2556.05 -7.79239 -4.12957 0
M  V30 14526 O 2555.51 -5.63315 -5.29344 0
M  V30 14527 C 2554.57 -4.80255 -6.01876 0
M  V30 14528 C 2555.3 -3.64202 -6.65911 0
M  V30 14529 O 2555.51 -2.60694 -5.64732 0
M  V30 14530 C 2556.7 -3.93473 -7.1943 0
M  V30 14531 O 2557.09 -3.02071 -8.21205 0
M  V30 14532 C 2557.58 -3.73047 -5.97036 0
M  V30 14533 C 2556.87 -2.58828 -5.25741 0
M  V30 14534 N 2556.92 -2.68068 -3.77503 0
M  V30 14535 C 2556.84 -3.79715 -2.96723 0
M  V30 14536 N 2556.92 -3.5377 -1.68852 0
M  V30 14537 C 2557.06 -2.15054 -1.63254 0
M  V30 14538 C 2557.19 -1.28964 -0.518571 0
M  V30 14539 O 2557.21 -1.56826 0.679156 0
M  V30 14540 N 2557.31 0.0538097 -0.918425 0
M  V30 14541 C 2557.31 0.494275 -2.22578 0
M  V30 14542 N 2557.44 1.81086 -2.40434 0
M  V30 14543 N 2557.18 -0.313645 -3.27502 0
M  V30 14544 C 2557.06 -1.61829 -2.91033 0
M  V30 14545 H 2554.09 -5.40332 -6.79951 0
M  V30 14546 H 2553.82 -4.41613 -5.32378 0
M  V30 14547 H 2554.68 -3.26331 -7.47797 0
M  V30 14548 H 2557.34 -1.63422 -5.56814 0
M  V30 14549 H 2557.62 -4.63374 -5.34244 0
M  V30 14550 H 2558.61 -3.44728 -6.25838 0
M  V30 14551 H 2556.77 -4.96652 -7.57263 0
M  V30 14552 H 2556.73 -4.80617 -3.3614 0
M  V30 14553 H 2557.41 0.742702 -0.199384 0
M  V30 14554 H 2557.44 2.20598 -3.35588 0
M  V30 14555 H 2557.55 2.43518 -1.58945 0
M  V30 14556 P 2558.64 -2.75334 -8.47391 0
M  V30 14557 O 2558.86 -2.44619 -9.90336 0
M  V30 14558 O 2559.43 -3.87776 -7.92294 0
M  V30 14559 O 2558.89 -1.4459 -7.59357 0
M  V30 14560 C 2557.95 -0.347653 -7.69315 0
M  V30 14561 C 2558.68 0.96767 -7.52806 0
M  V30 14562 O 2558.89 1.21055 -6.10208 0
M  V30 14563 C 2560.08 1.04557 -8.13408 0
M  V30 14564 O 2560.47 2.38311 -8.41922 0
M  V30 14565 C 2560.96 0.491279 -7.02284 0
M  V30 14566 C 2560.25 0.996264 -5.77469 0
M  V30 14567 N 2560.3 0.0501916 -4.62973 0
M  V30 14568 H 2557.47 -0.374765 -8.67791 0
M  V30 14569 H 2557.19 -0.443613 -6.90476 0
M  V30 14570 H 2558.06 1.75559 -7.96891 0
M  V30 14571 H 2560.72 1.94563 -5.46818 0
M  V30 14572 H 2561 -0.608651 -7.04676 0
M  V30 14573 H 2561.99 0.889796 -7.09039 0
M  V30 14574 H 2560.15 0.433128 -9.04664 0
M  V30 14575 P 2562.02 2.75334 -8.47391 0
M  V30 14576 O 2562.24 3.84128 -9.44797 0
M  V30 14577 O 2562.81 1.51947 -8.68712 0
M  V30 14578 O 2562.27 3.29363 -6.99321 0
M  V30 14579 C 2561.33 4.24011 -6.4274 0
M  V30 14580 C 2562.06 5.20775 -5.52155 0
M  V30 14581 O 2562.27 4.56534 -4.22446 0
M  V30 14582 C 2563.46 5.62629 -5.96531 0
M  V30 14583 O 2563.85 6.87667 -5.41053 0
M  V30 14584 C 2564.34 4.52537 -5.39283 0
M  V30 14585 C 2563.63 4.20027 -4.08623 0
M  V30 14586 N 2563.68 2.76189 -3.71603 0
M  V30 14587 H 2560.85 4.797 -7.24003 0
M  V30 14588 H 2560.58 3.69856 -5.84513 0
M  V30 14589 H 2561.44 6.10356 -5.41441 0
M  V30 14590 P 2565.4 7.20834 -5.23717 0
M  V30 14591 O 2565.62 8.66104 -5.38572 0
M  V30 14592 O 2566.19 6.33544 -6.1349 0
M  V30 14593 O 2565.65 6.7751 -3.72168 0
M  V30 14594 C 2564.71 7.20825 -2.7076 0
M  V30 14595 C 2565.44 7.45864 -1.40599 0
M  V30 14596 O 2565.65 6.17651 -0.734225 0
M  V30 14597 C 2566.84 8.05808 -1.51899 0
M  V30 14598 O 2567.23 8.74358 -0.335205 0
M  V30 14599 C 2567.72 6.83093 -1.70294 0
M  V30 14600 C 2567.01 5.79992 -0.836974 0
M  V30 14601 N 2567.06 4.41864 -1.38293 0
M  V30 14602 H 2564.23 8.13644 -3.0377 0
M  V30 14603 H 2563.96 6.42788 -2.55485 0
M  V30 14604 H 2564.82 8.12039 -0.792769 0
M  V30 14605 P 2568.78 8.91 -6.72738e-11 0
M  V30 14606 O 2569 10.1736 0.733766 0
M  V30 14607 O 2569.57 8.73247 -1.2395 0
M  V30 14608 O 2569.03 7.66872 0.971405 0
M  V30 14609 C 2568.09 7.42212 2.04614 0
M  V30 14610 C 2568.82 6.86059 3.24661 0
M  V30 14611 O 2569.03 5.42847 3.03646 0
M  V30 14612 C 2570.22 7.41196 3.50753 0
M  V30 14613 O 2570.61 7.27073 4.86816 0
M  V30 14614 C 2571.1 6.5273 2.63741 0
M  V30 14615 C 2570.39 5.1842 2.73198 0
M  V30 14616 N 2570.44 4.38668 1.47808 0
M  V30 14617 C 2570.59 3.02239 1.60048 0
M  V30 14618 O 2570.68 2.46459 2.67869 0
M  V30 14619 N 2570.63 2.32436 0.408571 0
M  V30 14620 C 2570.54 2.85471 -0.854993 0
M  V30 14621 C 2570.39 4.28918 -0.887335 0
M  V30 14622 C 2570.34 5.00349 0.255399 0
M  V30 14623 H 2567.6 8.36803 2.32493 0
M  V30 14624 H 2567.34 6.701 1.71105 0
M  V30 14625 H 2568.2 7.03551 4.13168 0
M  V30 14626 H 2570.86 4.59773 3.53894 0
M  V30 14627 H 2571.14 6.88995 1.59871 0
M  V30 14628 H 2572.13 6.46749 3.03687 0
M  V30 14629 H 2570.29 8.46908 3.20714 0
M  V30 14630 H 2570.22 6.08548 0.206986 0
M  V30 14631 P 2572.16 7.20834 5.23717 0
M  V30 14632 O 2572.38 7.80006 6.57415 0
M  V30 14633 O 2572.95 7.79416 4.13051 0
M  V30 14634 O 2572.41 5.63315 5.29344 0
M  V30 14635 C 2571.47 4.80318 6.01954 0
M  V30 14636 C 2572.2 3.64202 6.65911 0
M  V30 14637 O 2572.41 2.60736 5.64823 0
M  V30 14638 C 2573.6 3.93521 7.19518 0
M  V30 14639 O 2573.99 3.02071 8.21205 0
M  V30 14640 C 2574.48 3.73047 5.97036 0
M  V30 14641 C 2573.77 2.58828 5.25741 0
M  V30 14642 N 2573.82 2.68068 3.77503 0
M  V30 14643 H 2570.99 5.40394 6.8003 0
M  V30 14644 H 2570.71 4.41741 5.32532 0
M  V30 14645 H 2571.58 3.26371 7.47889 0
M  V30 14646 H 2574.24 1.64007 5.56746 0
M  V30 14647 H 2574.52 4.63439 5.3432 0
M  V30 14648 H 2575.51 3.44776 6.25925 0
M  V30 14649 H 2573.67 4.96707 7.57347 0
M  V30 14650 P 2575.54 2.75334 8.47391 0
M  V30 14651 O 2575.76 2.44619 9.90336 0
M  V30 14652 O 2576.33 3.87776 7.92294 0
M  V30 14653 O 2575.79 1.4459 7.59357 0
M  V30 14654 C 2574.85 0.347653 7.69315 0
M  V30 14655 C 2575.58 -0.96767 7.52806 0
M  V30 14656 O 2575.79 -1.21055 6.10208 0
M  V30 14657 C 2576.98 -1.04557 8.13408 0
M  V30 14658 O 2577.37 -2.38311 8.41922 0
M  V30 14659 C 2577.86 -0.491279 7.02284 0
M  V30 14660 C 2577.15 -0.996264 5.77469 0
M  V30 14661 N 2577.2 -0.0501916 4.62973 0
M  V30 14662 C 2577.12 1.31969 4.65661 0
M  V30 14663 N 2577.19 1.86649 3.48119 0
M  V30 14664 C 2577.34 0.792089 2.62406 0
M  V30 14665 C 2577.47 0.705684 1.2207 0
M  V30 14666 N 2577.48 1.76207 0.413762 0
M  V30 14667 N 2577.59 -0.518981 0.685754 0
M  V30 14668 C 2577.58 -1.57595 1.49174 0
M  V30 14669 N 2577.46 -1.62909 2.80066 0
M  V30 14670 C 2577.34 -0.388195 3.3073 0
M  V30 14671 H 2574.37 0.374765 8.67791 0
M  V30 14672 H 2574.09 0.443613 6.90476 0
M  V30 14673 H 2574.96 -1.75559 7.96891 0
M  V30 14674 H 2577.62 -1.94563 5.46818 0
M  V30 14675 H 2577.9 0.608651 7.04676 0
M  V30 14676 H 2578.89 -0.889796 7.09039 0
M  V30 14677 H 2577.05 -0.433128 9.04664 0
M  V30 14678 H 2577.01 1.89246 5.57664 0
M  V30 14679 H 2577.39 2.71005 0.804694 0
M  V30 14680 H 2577.58 1.63189 -0.603768 0
M  V30 14681 H 2577.69 -2.53475 0.997614 0
M  V30 14682 P 2578.92 -2.75334 8.47391 0
M  V30 14683 O 2579.14 -3.84128 9.44797 0
M  V30 14684 O 2579.71 -1.51947 8.68712 0
M  V30 14685 O 2579.17 -3.29363 6.99321 0
M  V30 14686 C 2578.23 -4.24011 6.4274 0
M  V30 14687 C 2578.96 -5.20775 5.52155 0
M  V30 14688 O 2579.17 -4.56534 4.22446 0
M  V30 14689 C 2580.36 -5.62629 5.96531 0
M  V30 14690 O 2580.75 -6.87667 5.41053 0
M  V30 14691 C 2581.24 -4.52537 5.39283 0
M  V30 14692 C 2580.53 -4.20027 4.08623 0
M  V30 14693 N 2580.58 -2.76189 3.71603 0
M  V30 14694 C 2580.5 -1.64862 4.52822 0
M  V30 14695 N 2580.58 -0.512671 3.88633 0
M  V30 14696 C 2580.72 -0.888083 2.54977 0
M  V30 14697 C 2580.85 -0.094668 1.38677 0
M  V30 14698 O 2580.87 1.13053 1.28163 0
M  V30 14699 N 2580.97 -0.890102 0.232633 0
M  V30 14700 C 2580.97 -2.26958 0.21772 0
M  V30 14701 N 2581.1 -2.84626 -0.97925 0
M  V30 14702 N 2580.84 -3.0178 1.31033 0
M  V30 14703 C 2580.72 -2.26781 2.43843 0
M  V30 14704 H 2577.75 -4.797 7.24003 0
M  V30 14705 H 2577.48 -3.69856 5.84513 0
M  V30 14706 H 2578.34 -6.10356 5.41441 0
M  V30 14707 H 2581 -4.79061 3.27488 0
M  V30 14708 H 2581.28 -3.64906 6.05785 0
M  V30 14709 H 2582.27 -4.8868 5.2125 0
M  V30 14710 H 2580.43 -5.66726 7.06352 0
M  V30 14711 H 2580.39 -1.71169 5.60966 0
M  V30 14712 H 2581.07 -0.419134 -0.644739 0
M  V30 14713 H 2581.1 -3.87332 -1.06098 0
M  V30 14714 H 2581.21 -2.26417 -1.82483 0
M  V30 14715 P 2582.3 -7.20834 5.23717 0
M  V30 14716 O 2582.52 -8.66104 5.38572 0
M  V30 14717 O 2583.09 -6.33544 6.1349 0
M  V30 14718 O 2582.55 -6.7751 3.72168 0
M  V30 14719 C 2581.61 -7.20825 2.7076 0
M  V30 14720 C 2582.34 -7.45864 1.40599 0
M  V30 14721 O 2582.55 -6.17651 0.734225 0
M  V30 14722 C 2583.74 -8.05808 1.51899 0
M  V30 14723 O 2584.13 -8.74358 0.335205 0
M  V30 14724 C 2584.62 -6.83093 1.70294 0
M  V30 14725 C 2583.91 -5.79992 0.836974 0
M  V30 14726 N 2583.96 -4.41864 1.38293 0
M  V30 14727 H 2581.13 -8.13644 3.0377 0
M  V30 14728 H 2580.86 -6.42788 2.55485 0
M  V30 14729 H 2581.72 -8.12039 0.792769 0
M  V30 14730 P 2585.68 -8.91 6.83828e-11 0
M  V30 14731 O 2585.9 -10.1736 -0.733766 0
M  V30 14732 O 2586.47 -8.73247 1.2395 0
M  V30 14733 O 2585.93 -7.66872 -0.971405 0
M  V30 14734 C 2584.99 -7.42212 -2.04614 0
M  V30 14735 C 2585.72 -6.86059 -3.24661 0
M  V30 14736 O 2585.93 -5.42847 -3.03646 0
M  V30 14737 C 2587.12 -7.41196 -3.50753 0
M  V30 14738 O 2587.51 -7.27073 -4.86816 0
M  V30 14739 C 2588 -6.5273 -2.63741 0
M  V30 14740 C 2587.29 -5.1842 -2.73198 0
M  V30 14741 N 2587.34 -4.38668 -1.47808 0
M  V30 14742 C 2587.49 -3.02239 -1.60048 0
M  V30 14743 O 2587.58 -2.46459 -2.67869 0
M  V30 14744 N 2587.53 -2.32436 -0.408571 0
M  V30 14745 C 2587.44 -2.85471 0.854993 0
M  V30 14746 O 2587.49 -2.12566 1.8531 0
M  V30 14747 C 2587.29 -4.28918 0.887335 0
M  V30 14748 C 2587.18 -4.91066 2.24619 0
M  V30 14749 C 2587.24 -5.00349 -0.255399 0
M  V30 14750 H 2584.5 -8.36803 -2.32493 0
M  V30 14751 H 2584.24 -6.701 -1.71105 0
M  V30 14752 H 2585.1 -7.03551 -4.13168 0
M  V30 14753 H 2587.76 -4.59773 -3.53894 0
M  V30 14754 H 2588.04 -6.88995 -1.59871 0
M  V30 14755 H 2589.03 -6.46749 -3.03687 0
M  V30 14756 H 2587.19 -8.46908 -3.20714 0
M  V30 14757 H 2587.12 -6.08548 -0.206986 0
M  V30 14758 H 2588.15 -5.34836 2.53099 0
M  V30 14759 H 2586.42 -5.69638 2.2291 0
M  V30 14760 H 2586.9 -4.13971 2.98044 0
M  V30 14761 H 2587.64 -1.33211 -0.474216 0
M  V30 14762 P 2589.06 -7.20834 -5.23717 0
M  V30 14763 O 2589.28 -7.7993 -6.57351 0
M  V30 14764 O 2589.85 -7.79328 -4.13004 0
M  V30 14765 O 2589.31 -5.63315 -5.29344 0
M  V30 14766 C 2588.37 -4.80193 -6.01798 0
M  V30 14767 C 2589.1 -3.64202 -6.65911 0
M  V30 14768 O 2589.31 -2.60694 -5.64732 0
M  V30 14769 C 2590.5 -3.93473 -7.1943 0
M  V30 14770 O 2590.89 -3.02071 -8.21205 0
M  V30 14771 C 2591.38 -3.73047 -5.97036 0
M  V30 14772 C 2590.67 -2.58828 -5.25741 0
M  V30 14773 N 2590.72 -2.6801 -3.77422 0
M  V30 14774 C 2590.87 -1.50443 -3.07133 0
M  V30 14775 O 2590.96 -0.419406 -3.61576 0
M  V30 14776 N 2590.91 -1.6403 -1.69677 0
M  V30 14777 C 2590.82 -2.81206 -0.986255 0
M  V30 14778 C 2590.67 -3.99158 -1.80325 0
M  V30 14779 C 2590.62 -3.89779 -3.1476 0
M  V30 14780 H 2587.88 -5.40332 -6.79951 0
M  V30 14781 H 2587.62 -4.41549 -5.32301 0
M  V30 14782 H 2588.48 -3.26331 -7.47797 0
M  V30 14783 H 2591.14 -1.6395 -5.56554 0
M  V30 14784 H 2591.42 -4.63439 -5.3432 0
M  V30 14785 H 2592.41 -3.44728 -6.25838 0
M  V30 14786 H 2590.57 -4.96652 -7.57263 0
M  V30 14787 H 2590.5 -4.80159 -3.74441 0
M  V30 14788 P 2592.44 -2.75334 -8.47391 0
M  V30 14789 O 2592.66 -2.44571 -9.90142 0
M  V30 14790 O 2593.23 -3.87688 -7.92115 0
M  V30 14791 O 2592.69 -1.4459 -7.59357 0
M  V30 14792 C 2591.75 -0.347608 -7.69215 0
M  V30 14793 C 2592.48 0.96767 -7.52806 0
M  V30 14794 O 2592.69 1.21036 -6.1011 0
M  V30 14795 C 2593.88 1.04544 -8.13308 0
M  V30 14796 O 2594.27 2.38311 -8.41922 0
M  V30 14797 C 2594.76 0.491279 -7.02284 0
M  V30 14798 C 2594.05 0.996264 -5.77469 0
M  V30 14799 N 2594.1 0.0501916 -4.62973 0
M  V30 14800 H 2591.27 -0.374722 -8.67691 0
M  V30 14801 H 2591 -0.443485 -6.90277 0
M  V30 14802 H 2591.86 1.75537 -7.96793 0
M  V30 14803 P 2595.82 2.75334 -8.47391 0
M  V30 14804 O 2596.04 3.84128 -9.44797 0
M  V30 14805 O 2596.61 1.51947 -8.68712 0
M  V30 14806 O 2596.07 3.29363 -6.99321 0
M  V30 14807 C 2595.13 4.24011 -6.4274 0
M  V30 14808 C 2595.86 5.20775 -5.52155 0
M  V30 14809 O 2596.07 4.56534 -4.22446 0
M  V30 14810 C 2597.26 5.62629 -5.96531 0
M  V30 14811 O 2597.65 6.87667 -5.41053 0
M  V30 14812 C 2598.14 4.52537 -5.39283 0
M  V30 14813 C 2597.43 4.20027 -4.08623 0
M  V30 14814 N 2597.48 2.76189 -3.71603 0
M  V30 14815 H 2594.65 4.797 -7.24003 0
M  V30 14816 H 2594.38 3.69856 -5.84513 0
M  V30 14817 H 2595.24 6.10356 -5.41441 0
M  V30 14818 P 2599.2 7.20834 -5.23717 0
M  V30 14819 O 2599.42 8.66104 -5.38572 0
M  V30 14820 O 2599.99 6.33544 -6.1349 0
M  V30 14821 O 2599.45 6.7751 -3.72168 0
M  V30 14822 C 2598.51 7.20825 -2.7076 0
M  V30 14823 C 2599.24 7.45864 -1.40599 0
M  V30 14824 O 2599.45 6.17651 -0.734225 0
M  V30 14825 C 2600.64 8.05808 -1.51899 0
M  V30 14826 O 2601.03 8.74358 -0.335205 0
M  V30 14827 C 2601.52 6.83093 -1.70294 0
M  V30 14828 C 2600.81 5.79992 -0.836974 0
M  V30 14829 N 2600.86 4.41864 -1.38293 0
M  V30 14830 H 2598.03 8.13644 -3.0377 0
M  V30 14831 H 2597.76 6.42788 -2.55485 0
M  V30 14832 H 2598.62 8.12039 -0.792769 0
M  V30 14833 P 2602.58 8.91 -6.94918e-11 0
M  V30 14834 O 2602.8 10.1726 0.733694 0
M  V30 14835 O 2603.37 8.73148 -1.23936 0
M  V30 14836 O 2602.83 7.66872 0.971405 0
M  V30 14837 C 2601.89 7.42309 2.04641 0
M  V30 14838 C 2602.62 6.86059 3.24661 0
M  V30 14839 O 2602.83 5.42847 3.03646 0
M  V30 14840 C 2604.02 7.41196 3.50753 0
M  V30 14841 O 2604.41 7.27073 4.86816 0
M  V30 14842 C 2604.9 6.5273 2.63741 0
M  V30 14843 C 2604.19 5.1842 2.73198 0
M  V30 14844 N 2604.24 4.38762 1.4784 0
M  V30 14845 C 2604.16 4.81605 0.168631 0
M  V30 14846 N 2604.24 3.85454 -0.713363 0
M  V30 14847 C 2604.38 2.6994 0.0566958 0
M  V30 14848 C 2604.51 1.34815 -0.338502 0
M  V30 14849 N 2604.63 0.496304 0.77465 0
M  V30 14850 C 2604.63 0.908403 2.09122 0
M  V30 14851 N 2604.76 -0.0517805 3.00955 0
M  V30 14852 N 2604.5 2.17875 2.46519 0
M  V30 14853 C 2604.38 3.01988 1.4033 0
M  V30 14854 H 2601.41 8.36803 2.32493 0
M  V30 14855 H 2601.14 6.70197 1.71129 0
M  V30 14856 H 2602 7.03551 4.13168 0
M  V30 14857 P 2605.96 7.20834 5.23717 0
M  V30 14858 O 2606.18 7.79853 6.57286 0
M  V30 14859 O 2606.75 7.79239 4.12957 0
M  V30 14860 O 2606.21 5.63315 5.29344 0
M  V30 14861 C 2605.27 4.80255 6.01876 0
M  V30 14862 C 2606 3.64202 6.65911 0
M  V30 14863 O 2606.21 2.60694 5.64732 0
M  V30 14864 C 2607.4 3.93473 7.1943 0
M  V30 14865 O 2607.79 3.02071 8.21205 0
M  V30 14866 C 2608.28 3.73047 5.97036 0
M  V30 14867 C 2607.57 2.58828 5.25741 0
M  V30 14868 N 2607.62 2.68068 3.77503 0
M  V30 14869 H 2604.79 5.40332 6.79951 0
M  V30 14870 H 2604.52 4.41613 5.32378 0
M  V30 14871 H 2605.38 3.26331 7.47797 0
M  V30 14872 P 2609.34 2.75334 8.47391 0
M  V30 14873 O 2609.56 2.44571 9.90142 0
M  V30 14874 O 2610.13 3.87688 7.92115 0
M  V30 14875 O 2609.59 1.4459 7.59357 0
M  V30 14876 C 2608.65 0.347608 7.69215 0
M  V30 14877 C 2609.38 -0.96767 7.52806 0
M  V30 14878 O 2609.59 -1.21036 6.1011 0
M  V30 14879 C 2610.78 -1.04544 8.13308 0
M  V30 14880 O 2611.17 -2.38311 8.41922 0
M  V30 14881 C 2611.66 -0.491279 7.02284 0
M  V30 14882 C 2610.95 -0.996264 5.77469 0
M  V30 14883 N 2611 -0.0501916 4.62973 0
M  V30 14884 H 2608.17 0.374722 8.67691 0
M  V30 14885 H 2607.9 0.443485 6.90277 0
M  V30 14886 H 2608.76 -1.75537 7.96793 0
M  V30 14887 P 2612.72 -2.75334 8.47391 0
M  V30 14888 O 2612.94 -3.84128 9.44797 0
M  V30 14889 O 2613.51 -1.51947 8.68712 0
M  V30 14890 O 2612.97 -3.29363 6.99321 0
M  V30 14891 C 2612.03 -4.24011 6.4274 0
M  V30 14892 C 2612.76 -5.20775 5.52155 0
M  V30 14893 O 2612.97 -4.56534 4.22446 0
M  V30 14894 C 2614.16 -5.62629 5.96531 0
M  V30 14895 O 2614.55 -6.87667 5.41053 0
M  V30 14896 C 2615.04 -4.52537 5.39283 0
M  V30 14897 C 2614.33 -4.20027 4.08623 0
M  V30 14898 N 2614.38 -2.76189 3.71603 0
M  V30 14899 H 2611.55 -4.797 7.24003 0
M  V30 14900 H 2611.28 -3.69856 5.84513 0
M  V30 14901 H 2612.14 -6.10356 5.41441 0
M  V30 14902 P 2616.1 -7.20834 5.23717 0
M  V30 14903 O 2616.32 -8.66104 5.38572 0
M  V30 14904 O 2616.89 -6.33544 6.1349 0
M  V30 14905 O 2616.35 -6.7751 3.72168 0
M  V30 14906 C 2615.41 -7.20825 2.7076 0
M  V30 14907 C 2616.14 -7.45864 1.40599 0
M  V30 14908 O 2616.35 -6.17651 0.734225 0
M  V30 14909 C 2617.54 -8.05808 1.51899 0
M  V30 14910 O 2617.93 -8.74358 0.335205 0
M  V30 14911 C 2618.42 -6.83093 1.70294 0
M  V30 14912 C 2617.71 -5.79992 0.836974 0
M  V30 14913 N 2617.76 -4.41864 1.38293 0
M  V30 14914 H 2614.93 -8.13644 3.0377 0
M  V30 14915 H 2614.66 -6.42788 2.55485 0
M  V30 14916 H 2615.52 -8.12039 0.792769 0
M  V30 14917 P 2619.48 -8.91 7.06008e-11 0
M  V30 14918 O 2619.7 -10.1736 -0.733766 0
M  V30 14919 O 2620.27 -8.73247 1.2395 0
M  V30 14920 O 2619.73 -7.66872 -0.971405 0
M  V30 14921 C 2618.79 -7.42212 -2.04614 0
M  V30 14922 C 2619.52 -6.86059 -3.24661 0
M  V30 14923 O 2619.73 -5.42847 -3.03646 0
M  V30 14924 C 2620.92 -7.41196 -3.50753 0
M  V30 14925 O 2621.31 -7.27073 -4.86816 0
M  V30 14926 C 2621.8 -6.5273 -2.63741 0
M  V30 14927 C 2621.09 -5.1842 -2.73198 0
M  V30 14928 N 2621.14 -4.38668 -1.47808 0
M  V30 14929 C 2621.29 -3.02239 -1.60048 0
M  V30 14930 O 2621.38 -2.46459 -2.67869 0
M  V30 14931 N 2621.33 -2.32436 -0.408571 0
M  V30 14932 C 2621.24 -2.85471 0.854993 0
M  V30 14933 O 2621.29 -2.12566 1.8531 0
M  V30 14934 C 2621.09 -4.28918 0.887335 0
M  V30 14935 C 2620.98 -4.91066 2.24619 0
M  V30 14936 C 2621.04 -5.00349 -0.255399 0
M  V30 14937 H 2618.3 -8.36803 -2.32493 0
M  V30 14938 H 2618.04 -6.701 -1.71105 0
M  V30 14939 H 2618.9 -7.03551 -4.13168 0
M  V30 14940 H 2621.56 -4.59773 -3.53894 0
M  V30 14941 H 2621.84 -6.88995 -1.59871 0
M  V30 14942 H 2622.83 -6.46749 -3.03687 0
M  V30 14943 H 2620.99 -8.46908 -3.20714 0
M  V30 14944 H 2620.92 -6.08548 -0.206986 0
M  V30 14945 H 2621.95 -5.34836 2.53099 0
M  V30 14946 H 2620.22 -5.69638 2.2291 0
M  V30 14947 H 2620.7 -4.13971 2.98044 0
M  V30 14948 H 2621.44 -1.33211 -0.474216 0
M  V30 14949 P 2622.86 -7.20834 -5.23717 0
M  V30 14950 O 2623.08 -7.79853 -6.57286 0
M  V30 14951 O 2623.65 -7.79239 -4.12957 0
M  V30 14952 O 2623.11 -5.63315 -5.29344 0
M  V30 14953 C 2622.17 -4.80255 -6.01876 0
M  V30 14954 C 2622.9 -3.64202 -6.65911 0
M  V30 14955 O 2623.11 -2.60694 -5.64732 0
M  V30 14956 C 2624.3 -3.93473 -7.1943 0
M  V30 14957 O 2624.69 -3.02071 -8.21205 0
M  V30 14958 C 2625.18 -3.73047 -5.97036 0
M  V30 14959 C 2624.47 -2.58828 -5.25741 0
M  V30 14960 N 2624.52 -2.68068 -3.77503 0
M  V30 14961 C 2624.44 -3.79715 -2.96723 0
M  V30 14962 N 2624.52 -3.5377 -1.68852 0
M  V30 14963 C 2624.66 -2.15054 -1.63254 0
M  V30 14964 C 2624.79 -1.28964 -0.518571 0
M  V30 14965 O 2624.81 -1.56826 0.679156 0
M  V30 14966 N 2624.91 0.0538097 -0.918425 0
M  V30 14967 C 2624.91 0.494275 -2.22578 0
M  V30 14968 N 2625.04 1.81086 -2.40434 0
M  V30 14969 N 2624.78 -0.313645 -3.27502 0
M  V30 14970 C 2624.66 -1.61829 -2.91033 0
M  V30 14971 H 2621.69 -5.40332 -6.79951 0
M  V30 14972 H 2621.42 -4.41613 -5.32378 0
M  V30 14973 H 2622.28 -3.26331 -7.47797 0
M  V30 14974 H 2624.94 -1.63422 -5.56814 0
M  V30 14975 H 2625.22 -4.63374 -5.34244 0
M  V30 14976 H 2626.21 -3.44728 -6.25838 0
M  V30 14977 H 2624.37 -4.96652 -7.57263 0
M  V30 14978 H 2624.33 -4.80617 -3.3614 0
M  V30 14979 H 2625.01 0.742702 -0.199384 0
M  V30 14980 H 2625.04 2.20598 -3.35588 0
M  V30 14981 H 2625.15 2.43518 -1.58945 0
M  V30 14982 P 2626.24 -2.75334 -8.47391 0
M  V30 14983 O 2626.46 -2.44619 -9.90336 0
M  V30 14984 O 2627.03 -3.87776 -7.92294 0
M  V30 14985 O 2626.49 -1.4459 -7.59357 0
M  V30 14986 C 2625.55 -0.347653 -7.69315 0
M  V30 14987 C 2626.28 0.96767 -7.52806 0
M  V30 14988 O 2626.49 1.21055 -6.10208 0
M  V30 14989 C 2627.68 1.04557 -8.13408 0
M  V30 14990 O 2628.07 2.38311 -8.41922 0
M  V30 14991 C 2628.56 0.491279 -7.02284 0
M  V30 14992 C 2627.85 0.996264 -5.77469 0
M  V30 14993 N 2627.9 0.0501916 -4.62973 0
M  V30 14994 H 2625.07 -0.374765 -8.67791 0
M  V30 14995 H 2624.79 -0.443613 -6.90476 0
M  V30 14996 H 2625.66 1.75559 -7.96891 0
M  V30 14997 H 2628.32 1.94563 -5.46818 0
M  V30 14998 H 2628.6 -0.608651 -7.04676 0
M  V30 14999 H 2629.59 0.889796 -7.09039 0
M  V30 15000 H 2627.75 0.433128 -9.04664 0
M  V30 15001 P 2629.62 2.75334 -8.47391 0
M  V30 15002 O 2629.84 3.84166 -9.4489 0
M  V30 15003 O 2630.41 1.51964 -8.6881 0
M  V30 15004 O 2629.87 3.29363 -6.99321 0
M  V30 15005 C 2628.93 4.23956 -6.42656 0
M  V30 15006 C 2629.66 5.20775 -5.52155 0
M  V30 15007 O 2629.87 4.56534 -4.22446 0
M  V30 15008 C 2631.06 5.62629 -5.96531 0
M  V30 15009 O 2631.45 6.87667 -5.41053 0
M  V30 15010 C 2631.94 4.52537 -5.39283 0
M  V30 15011 C 2631.23 4.20027 -4.08623 0
M  V30 15012 N 2631.28 2.7613 -3.71522 0
M  V30 15013 C 2631.43 2.45612 -2.37989 0
M  V30 15014 O 2631.52 3.30919 -1.51621 0
M  V30 15015 N 2631.47 1.10684 -2.08435 0
M  V30 15016 C 2631.38 0.0690084 -2.9792 0
M  V30 15017 O 2631.43 -1.10553 -2.59426 0
M  V30 15018 C 2631.23 0.481522 -4.35345 0
M  V30 15019 C 2631.12 -0.618778 -5.36443 0
M  V30 15020 C 2631.18 1.78906 -4.67968 0
M  V30 15021 H 2628.44 4.797 -7.24003 0
M  V30 15022 H 2628.18 3.69802 -5.84429 0
M  V30 15023 H 2629.04 6.10356 -5.41441 0
M  V30 15024 H 2631.7 4.78651 -3.27911 0
M  V30 15025 H 2631.98 3.64957 -6.05871 0
M  V30 15026 H 2632.97 4.8868 -5.2125 0
M  V30 15027 H 2631.13 5.66726 -7.06352 0
M  V30 15028 H 2631.06 2.07737 -5.72367 0
M  V30 15029 H 2632.09 -0.754375 -5.86871 0
M  V30 15030 H 2630.36 -0.359721 -6.10641 0
M  V30 15031 H 2630.84 -1.55533 -4.8581 0
M  V30 15032 H 2631.58 0.862651 -1.12037 0
M  V30 15033 P 2633 7.20834 -5.23717 0
M  V30 15034 O 2633.22 8.66104 -5.38572 0
M  V30 15035 O 2633.79 6.33544 -6.1349 0
M  V30 15036 O 2633.25 6.7751 -3.72168 0
M  V30 15037 C 2632.31 7.20825 -2.7076 0
M  V30 15038 C 2633.04 7.45864 -1.40599 0
M  V30 15039 O 2633.25 6.17651 -0.734225 0
M  V30 15040 C 2634.44 8.05808 -1.51899 0
M  V30 15041 O 2634.83 8.74358 -0.335205 0
M  V30 15042 C 2635.32 6.83093 -1.70294 0
M  V30 15043 C 2634.61 5.79992 -0.836974 0
M  V30 15044 N 2634.66 4.41864 -1.38293 0
M  V30 15045 H 2631.83 8.13644 -3.0377 0
M  V30 15046 H 2631.56 6.42788 -2.55485 0
M  V30 15047 H 2632.42 8.12039 -0.792769 0
M  V30 15048 P 2636.38 8.91 -7.17098e-11 0
M  V30 15049 O 2636.6 10.1726 0.733694 0
M  V30 15050 O 2637.17 8.73148 -1.23936 0
M  V30 15051 O 2636.63 7.66872 0.971405 0
M  V30 15052 C 2635.69 7.42309 2.04641 0
M  V30 15053 C 2636.42 6.86059 3.24661 0
M  V30 15054 O 2636.63 5.42847 3.03646 0
M  V30 15055 C 2637.82 7.41196 3.50753 0
M  V30 15056 O 2638.21 7.27073 4.86816 0
M  V30 15057 C 2638.7 6.5273 2.63741 0
M  V30 15058 C 2637.99 5.1842 2.73198 0
M  V30 15059 N 2638.04 4.38762 1.4784 0
M  V30 15060 H 2635.21 8.36803 2.32493 0
M  V30 15061 H 2634.94 6.70197 1.71129 0
M  V30 15062 H 2635.8 7.03551 4.13168 0
M  V30 15063 P 2639.76 7.20834 5.23717 0
M  V30 15064 O 2639.98 7.79853 6.57286 0
M  V30 15065 O 2640.55 7.79239 4.12957 0
M  V30 15066 O 2640.01 5.63315 5.29344 0
M  V30 15067 C 2639.07 4.80255 6.01876 0
M  V30 15068 C 2639.8 3.64202 6.65911 0
M  V30 15069 O 2640.01 2.60694 5.64732 0
M  V30 15070 C 2641.2 3.93473 7.1943 0
M  V30 15071 O 2641.59 3.02071 8.21205 0
M  V30 15072 C 2642.08 3.73047 5.97036 0
M  V30 15073 C 2641.37 2.58828 5.25741 0
M  V30 15074 N 2641.42 2.68068 3.77503 0
M  V30 15075 H 2638.59 5.40332 6.79951 0
M  V30 15076 H 2638.32 4.41613 5.32378 0
M  V30 15077 H 2639.18 3.26331 7.47797 0
M  V30 15078 P 2643.14 2.75334 8.47391 0
M  V30 15079 O 2643.36 2.44595 9.90239 0
M  V30 15080 O 2643.93 3.87732 7.92204 0
M  V30 15081 O 2643.39 1.4459 7.59357 0
M  V30 15082 C 2642.45 0.347563 7.69115 0
M  V30 15083 C 2643.18 -0.96767 7.52806 0
M  V30 15084 O 2643.39 -1.21036 6.1011 0
M  V30 15085 C 2644.58 -1.04544 8.13308 0
M  V30 15086 O 2644.97 -2.38311 8.41922 0
M  V30 15087 C 2645.46 -0.491279 7.02284 0
M  V30 15088 C 2644.75 -0.996264 5.77469 0
M  V30 15089 N 2644.8 -0.0501808 4.62873 0
M  V30 15090 C 2644.95 -0.588177 3.36904 0
M  V30 15091 O 2645.04 -1.78598 3.17173 0
M  V30 15092 N 2644.99 0.329694 2.33686 0
M  V30 15093 C 2644.9 1.6953 2.45079 0
M  V30 15094 O 2644.95 2.41926 1.44899 0
M  V30 15095 C 2644.75 2.16933 3.80505 0
M  V30 15096 C 2644.64 3.65373 3.97621 0
M  V30 15097 C 2644.7 1.30326 4.83752 0
M  V30 15098 H 2641.96 0.374722 8.67691 0
M  V30 15099 H 2641.7 0.443421 6.90177 0
M  V30 15100 H 2642.56 -1.75537 7.96793 0
M  V30 15101 H 2645.22 -1.94496 5.46629 0
M  V30 15102 H 2645.5 0.608651 7.04676 0
M  V30 15103 H 2646.49 -0.889672 7.08939 0
M  V30 15104 H 2644.65 -0.43308 9.04564 0
M  V30 15105 H 2644.58 1.68366 5.8516 0
M  V30 15106 H 2645.61 4.05985 4.30448 0
M  V30 15107 H 2643.88 3.88028 4.72875 0
M  V30 15108 H 2644.36 4.11381 3.01609 0
M  V30 15109 H 2645.1 -0.0393617 1.41345 0
M  V30 15110 P 2646.52 -2.75334 8.47391 0
M  V30 15111 O 2646.74 -3.84204 9.44982 0
M  V30 15112 O 2647.31 -1.51982 8.68909 0
M  V30 15113 O 2646.77 -3.29363 6.99321 0
M  V30 15114 C 2645.83 -4.24066 6.42823 0
M  V30 15115 C 2646.56 -5.20775 5.52155 0
M  V30 15116 O 2646.77 -4.56607 4.22514 0
M  V30 15117 C 2647.96 -5.62697 5.96604 0
M  V30 15118 O 2648.35 -6.87667 5.41053 0
M  V30 15119 C 2648.84 -4.52537 5.39283 0
M  V30 15120 C 2648.13 -4.20027 4.08623 0
M  V30 15121 N 2648.18 -2.76189 3.71603 0
M  V30 15122 H 2645.35 -4.79756 7.24086 0
M  V30 15123 H 2645.07 -3.69963 5.84682 0
M  V30 15124 H 2645.94 -6.10431 5.41508 0
M  V30 15125 H 2648.6 -4.78816 3.28024 0
M  V30 15126 H 2648.88 -3.64957 6.05871 0
M  V30 15127 H 2649.87 -4.88748 5.21323 0
M  V30 15128 H 2648.03 -5.66789 7.0643 0
M  V30 15129 P 2649.9 -7.20834 5.23717 0
M  V30 15130 O 2650.12 -8.66104 5.38572 0
M  V30 15131 O 2650.69 -6.33544 6.1349 0
M  V30 15132 O 2650.15 -6.7751 3.72168 0
M  V30 15133 C 2649.21 -7.20825 2.7076 0
M  V30 15134 C 2649.94 -7.45864 1.40599 0
M  V30 15135 O 2650.15 -6.17651 0.734225 0
M  V30 15136 C 2651.34 -8.05808 1.51899 0
M  V30 15137 O 2651.73 -8.74358 0.335205 0
M  V30 15138 C 2652.22 -6.83093 1.70294 0
M  V30 15139 C 2651.51 -5.79992 0.836974 0
M  V30 15140 N 2651.56 -4.41864 1.38293 0
M  V30 15141 H 2648.73 -8.13644 3.0377 0
M  V30 15142 H 2648.46 -6.42788 2.55485 0
M  V30 15143 H 2649.32 -8.12039 0.792769 0
M  V30 15144 P 2653.28 -8.91 7.28188e-11 0
M  V30 15145 O 2653.5 -10.1726 -0.733694 0
M  V30 15146 O 2654.07 -8.73148 1.23936 0
M  V30 15147 O 2653.53 -7.66872 -0.971405 0
M  V30 15148 C 2652.59 -7.42309 -2.04641 0
M  V30 15149 C 2653.32 -6.86059 -3.24661 0
M  V30 15150 O 2653.53 -5.42847 -3.03646 0
M  V30 15151 C 2654.72 -7.41196 -3.50753 0
M  V30 15152 O 2655.11 -7.27073 -4.86816 0
M  V30 15153 C 2655.6 -6.5273 -2.63741 0
M  V30 15154 C 2654.89 -5.1842 -2.73198 0
M  V30 15155 N 2654.94 -4.38762 -1.4784 0
M  V30 15156 H 2652.11 -8.36803 -2.32493 0
M  V30 15157 H 2651.84 -6.70197 -1.71129 0
M  V30 15158 H 2652.7 -7.03551 -4.13168 0
M  V30 15159 P 2656.66 -7.20834 -5.23717 0
M  V30 15160 O 2656.88 -7.79853 -6.57286 0
M  V30 15161 O 2657.45 -7.79239 -4.12957 0
M  V30 15162 O 2656.91 -5.63315 -5.29344 0
M  V30 15163 C 2655.97 -4.80255 -6.01876 0
M  V30 15164 C 2656.7 -3.64202 -6.65911 0
M  V30 15165 O 2656.91 -2.60694 -5.64732 0
M  V30 15166 C 2658.1 -3.93473 -7.1943 0
M  V30 15167 O 2658.49 -3.02071 -8.21205 0
M  V30 15168 C 2658.98 -3.73047 -5.97036 0
M  V30 15169 C 2658.27 -2.58828 -5.25741 0
M  V30 15170 N 2658.32 -2.68068 -3.77503 0
M  V30 15171 H 2655.49 -5.40332 -6.79951 0
M  V30 15172 H 2655.22 -4.41613 -5.32378 0
M  V30 15173 H 2656.08 -3.26331 -7.47797 0
M  V30 15174 P 2660.04 -2.75334 -8.47391 0
M  V30 15175 O 2660.26 -2.44571 -9.90142 0
M  V30 15176 O 2660.83 -3.87688 -7.92115 0
M  V30 15177 O 2660.29 -1.4459 -7.59357 0
M  V30 15178 C 2659.35 -0.347608 -7.69215 0
M  V30 15179 C 2660.08 0.96767 -7.52806 0
M  V30 15180 O 2660.29 1.21036 -6.1011 0
M  V30 15181 C 2661.48 1.04544 -8.13308 0
M  V30 15182 O 2661.87 2.38311 -8.41922 0
M  V30 15183 C 2662.36 0.491279 -7.02284 0
M  V30 15184 C 2661.65 0.996264 -5.77469 0
M  V30 15185 N 2661.7 0.0501916 -4.62973 0
M  V30 15186 H 2658.87 -0.374722 -8.67691 0
M  V30 15187 H 2658.6 -0.443485 -6.90277 0
M  V30 15188 H 2659.46 1.75537 -7.96793 0
M  V30 15189 P 2663.42 2.75334 -8.47391 0
M  V30 15190 O 2663.64 3.84128 -9.44797 0
M  V30 15191 O 2664.21 1.51947 -8.68712 0
M  V30 15192 O 2663.67 3.29363 -6.99321 0
M  V30 15193 C 2662.73 4.24011 -6.4274 0
M  V30 15194 C 2663.46 5.20775 -5.52155 0
M  V30 15195 O 2663.67 4.56534 -4.22446 0
M  V30 15196 C 2664.86 5.62629 -5.96531 0
M  V30 15197 O 2665.25 6.87667 -5.41053 0
M  V30 15198 C 2665.74 4.52537 -5.39283 0
M  V30 15199 C 2665.03 4.20027 -4.08623 0
M  V30 15200 N 2665.08 2.76189 -3.71603 0
M  V30 15201 H 2662.25 4.797 -7.24003 0
M  V30 15202 H 2661.98 3.69856 -5.84513 0
M  V30 15203 H 2662.84 6.10356 -5.41441 0
M  V30 15204 P 2666.8 7.20834 -5.23717 0
M  V30 15205 O 2667.02 8.66104 -5.38572 0
M  V30 15206 O 2667.59 6.33544 -6.1349 0
M  V30 15207 O 2667.05 6.7751 -3.72168 0
M  V30 15208 C 2666.11 7.20825 -2.7076 0
M  V30 15209 C 2666.84 7.45864 -1.40599 0
M  V30 15210 O 2667.05 6.17651 -0.734225 0
M  V30 15211 C 2668.24 8.05808 -1.51899 0
M  V30 15212 O 2668.63 8.74358 -0.335205 0
M  V30 15213 C 2669.12 6.83093 -1.70294 0
M  V30 15214 C 2668.41 5.79992 -0.836974 0
M  V30 15215 N 2668.46 4.41864 -1.38293 0
M  V30 15216 H 2665.63 8.13644 -3.0377 0
M  V30 15217 H 2665.36 6.42788 -2.55485 0
M  V30 15218 H 2666.22 8.12039 -0.792769 0
M  V30 15219 P 2670.18 8.91 -7.39278e-11 0
M  V30 15220 O 2670.4 10.1726 0.733694 0
M  V30 15221 O 2670.97 8.73148 -1.23936 0
M  V30 15222 O 2670.43 7.66872 0.971405 0
M  V30 15223 C 2669.49 7.42309 2.04641 0
M  V30 15224 C 2670.22 6.86059 3.24661 0
M  V30 15225 O 2670.43 5.42847 3.03646 0
M  V30 15226 C 2671.62 7.41196 3.50753 0
M  V30 15227 O 2672.01 7.27073 4.86816 0
M  V30 15228 C 2672.5 6.5273 2.63741 0
M  V30 15229 C 2671.79 5.1842 2.73198 0
M  V30 15230 N 2671.84 4.38762 1.4784 0
M  V30 15231 H 2669.01 8.36803 2.32493 0
M  V30 15232 H 2668.74 6.70197 1.71129 0
M  V30 15233 H 2669.6 7.03551 4.13168 0
M  V30 15234 P 2673.56 7.20834 5.23717 0
M  V30 15235 O 2673.78 7.80006 6.57415 0
M  V30 15236 O 2674.35 7.79416 4.13051 0
M  V30 15237 O 2673.81 5.63315 5.29344 0
M  V30 15238 C 2672.87 4.80318 6.01954 0
M  V30 15239 C 2673.6 3.64202 6.65911 0
M  V30 15240 O 2673.81 2.60736 5.64823 0
M  V30 15241 C 2675 3.93521 7.19518 0
M  V30 15242 O 2675.39 3.02071 8.21205 0
M  V30 15243 C 2675.88 3.73047 5.97036 0
M  V30 15244 C 2675.17 2.58828 5.25741 0
M  V30 15245 N 2675.22 2.68068 3.77503 0
M  V30 15246 H 2672.39 5.40394 6.8003 0
M  V30 15247 H 2672.11 4.41741 5.32532 0
M  V30 15248 H 2672.98 3.26371 7.47889 0
M  V30 15249 H 2675.64 1.64007 5.56746 0
M  V30 15250 H 2675.92 4.63439 5.3432 0
M  V30 15251 H 2676.91 3.44776 6.25925 0
M  V30 15252 H 2675.07 4.96707 7.57347 0
M  V30 15253 P 2676.94 2.75334 8.47391 0
M  V30 15254 O 2677.16 2.44571 9.90142 0
M  V30 15255 O 2677.73 3.87688 7.92115 0
M  V30 15256 O 2677.19 1.4459 7.59357 0
M  V30 15257 C 2676.25 0.347608 7.69215 0
M  V30 15258 C 2676.98 -0.96767 7.52806 0
M  V30 15259 O 2677.19 -1.21036 6.1011 0
M  V30 15260 C 2678.38 -1.04544 8.13308 0
M  V30 15261 O 2678.77 -2.38311 8.41922 0
M  V30 15262 C 2679.26 -0.491279 7.02284 0
M  V30 15263 C 2678.55 -0.996264 5.77469 0
M  V30 15264 N 2678.6 -0.0501916 4.62973 0
M  V30 15265 H 2675.77 0.374722 8.67691 0
M  V30 15266 H 2675.5 0.443485 6.90277 0
M  V30 15267 H 2676.36 -1.75537 7.96793 0
M  V30 15268 P 2680.32 -2.75334 8.47391 0
M  V30 15269 O 2680.54 -3.84128 9.44797 0
M  V30 15270 O 2681.11 -1.51947 8.68712 0
M  V30 15271 O 2680.57 -3.29363 6.99321 0
M  V30 15272 C 2679.63 -4.24011 6.4274 0
M  V30 15273 C 2680.36 -5.20775 5.52155 0
M  V30 15274 O 2680.57 -4.56534 4.22446 0
M  V30 15275 C 2681.76 -5.62629 5.96531 0
M  V30 15276 O 2682.15 -6.87667 5.41053 0
M  V30 15277 C 2682.64 -4.52537 5.39283 0
M  V30 15278 C 2681.93 -4.20027 4.08623 0
M  V30 15279 N 2681.98 -2.76189 3.71603 0
M  V30 15280 H 2679.15 -4.797 7.24003 0
M  V30 15281 H 2678.88 -3.69856 5.84513 0
M  V30 15282 H 2679.74 -6.10356 5.41441 0
M  V30 15283 P 2683.7 -7.20834 5.23717 0
M  V30 15284 O 2683.92 -8.66104 5.38572 0
M  V30 15285 O 2684.49 -6.33544 6.1349 0
M  V30 15286 O 2683.95 -6.7751 3.72168 0
M  V30 15287 C 2683.01 -7.20825 2.7076 0
M  V30 15288 C 2683.74 -7.45864 1.40599 0
M  V30 15289 O 2683.95 -6.17651 0.734225 0
M  V30 15290 C 2685.14 -8.05808 1.51899 0
M  V30 15291 O 2685.53 -8.74358 0.335205 0
M  V30 15292 C 2686.02 -6.83093 1.70294 0
M  V30 15293 C 2685.31 -5.79992 0.836974 0
M  V30 15294 N 2685.36 -4.41864 1.38293 0
M  V30 15295 H 2682.53 -8.13644 3.0377 0
M  V30 15296 H 2682.26 -6.42788 2.55485 0
M  V30 15297 H 2683.12 -8.12039 0.792769 0
M  V30 15298 P 2687.08 -8.91 7.50368e-11 0
M  V30 15299 O 2687.3 -10.1726 -0.733694 0
M  V30 15300 O 2687.87 -8.73148 1.23936 0
M  V30 15301 O 2687.33 -7.66872 -0.971405 0
M  V30 15302 C 2686.39 -7.42309 -2.04641 0
M  V30 15303 C 2687.12 -6.86059 -3.24661 0
M  V30 15304 O 2687.33 -5.42847 -3.03646 0
M  V30 15305 C 2688.52 -7.41196 -3.50753 0
M  V30 15306 O 2688.91 -7.27073 -4.86816 0
M  V30 15307 C 2689.4 -6.5273 -2.63741 0
M  V30 15308 C 2688.69 -5.1842 -2.73198 0
M  V30 15309 N 2688.74 -4.38762 -1.4784 0
M  V30 15310 H 2685.91 -8.36803 -2.32493 0
M  V30 15311 H 2685.64 -6.70197 -1.71129 0
M  V30 15312 H 2686.5 -7.03551 -4.13168 0
M  V30 15313 P 2690.46 -7.20834 -5.23717 0
M  V30 15314 O 2690.68 -7.79853 -6.57286 0
M  V30 15315 O 2691.25 -7.79239 -4.12957 0
M  V30 15316 O 2690.71 -5.63315 -5.29344 0
M  V30 15317 C 2689.77 -4.80255 -6.01876 0
M  V30 15318 C 2690.5 -3.64202 -6.65911 0
M  V30 15319 O 2690.71 -2.60694 -5.64732 0
M  V30 15320 C 2691.9 -3.93473 -7.1943 0
M  V30 15321 O 2692.29 -3.02071 -8.21205 0
M  V30 15322 C 2692.78 -3.73047 -5.97036 0
M  V30 15323 C 2692.07 -2.58828 -5.25741 0
M  V30 15324 N 2692.12 -2.68068 -3.77503 0
M  V30 15325 H 2689.29 -5.40332 -6.79951 0
M  V30 15326 H 2689.02 -4.41613 -5.32378 0
M  V30 15327 H 2689.88 -3.26331 -7.47797 0
M  V30 15328 P 2693.84 -2.75334 -8.47391 0
M  V30 15329 O 2694.06 -2.44571 -9.90142 0
M  V30 15330 O 2694.63 -3.87688 -7.92115 0
M  V30 15331 O 2694.09 -1.4459 -7.59357 0
M  V30 15332 C 2693.15 -0.347608 -7.69215 0
M  V30 15333 C 2693.88 0.96767 -7.52806 0
M  V30 15334 O 2694.09 1.21036 -6.1011 0
M  V30 15335 C 2695.28 1.04544 -8.13308 0
M  V30 15336 O 2695.67 2.38311 -8.41922 0
M  V30 15337 C 2696.16 0.491279 -7.02284 0
M  V30 15338 C 2695.45 0.996264 -5.77469 0
M  V30 15339 N 2695.5 0.0501916 -4.62973 0
M  V30 15340 C 2695.42 -1.32786 -4.63244 0
M  V30 15341 N 2695.5 -1.86957 -3.44545 0
M  V30 15342 C 2695.64 -0.780241 -2.58481 0
M  V30 15343 C 2695.77 -0.738536 -1.17757 0
M  V30 15344 O 2695.79 -1.66794 -0.372349 0
M  V30 15345 N 2695.89 0.58337 -0.711393 0
M  V30 15346 C 2695.89 1.70816 -1.51017 0
M  V30 15347 N 2696.02 2.87826 -0.880757 0
M  V30 15348 N 2695.76 1.67126 -2.8339 0
M  V30 15349 C 2695.64 0.401421 -3.30572 0
M  V30 15350 H 2692.67 -0.374722 -8.67691 0
M  V30 15351 H 2692.4 -0.443485 -6.90277 0
M  V30 15352 H 2693.26 1.75537 -7.96793 0
M  V30 15353 H 2695.92 1.95076 -5.46529 0
M  V30 15354 H 2696.2 -0.608565 -7.04577 0
M  V30 15355 H 2697.19 0.889672 -7.08939 0
M  V30 15356 H 2695.35 0.43308 -9.04564 0
M  V30 15357 H 2695.31 -1.91249 -5.54442 0
M  V30 15358 H 2695.99 0.718054 0.275244 0
M  V30 15359 H 2696.02 3.75721 -1.41832 0
M  V30 15360 H 2696.13 2.90436 0.145468 0
M  V30 15361 P 2697.22 2.75334 -8.47391 0
M  V30 15362 O 2697.44 3.84128 -9.44797 0
M  V30 15363 O 2698.01 1.51947 -8.68712 0
M  V30 15364 O 2697.47 3.29363 -6.99321 0
M  V30 15365 C 2696.53 4.24011 -6.4274 0
M  V30 15366 C 2697.26 5.20775 -5.52155 0
M  V30 15367 O 2697.47 4.56534 -4.22446 0
M  V30 15368 C 2698.66 5.62629 -5.96531 0
M  V30 15369 O 2699.05 6.87667 -5.41053 0
M  V30 15370 C 2699.54 4.52537 -5.39283 0
M  V30 15371 C 2698.83 4.20027 -4.08623 0
M  V30 15372 N 2698.88 2.76189 -3.71603 0
M  V30 15373 C 2698.8 1.64862 -4.52822 0
M  V30 15374 N 2698.88 0.512671 -3.88633 0
M  V30 15375 C 2699.02 0.888083 -2.54977 0
M  V30 15376 C 2699.15 0.094668 -1.38677 0
M  V30 15377 O 2699.17 -1.13053 -1.28163 0
M  V30 15378 N 2699.27 0.890102 -0.232633 0
M  V30 15379 C 2699.27 2.26958 -0.21772 0
M  V30 15380 N 2699.4 2.84626 0.97925 0
M  V30 15381 N 2699.14 3.0178 -1.31033 0
M  V30 15382 C 2699.02 2.26781 -2.43843 0
M  V30 15383 H 2696.05 4.797 -7.24003 0
M  V30 15384 H 2695.78 3.69856 -5.84513 0
M  V30 15385 H 2696.64 6.10356 -5.41441 0
M  V30 15386 H 2699.3 4.79061 -3.27488 0
M  V30 15387 H 2699.58 3.64906 -6.05785 0
M  V30 15388 H 2700.57 4.8868 -5.2125 0
M  V30 15389 H 2698.73 5.66726 -7.06352 0
M  V30 15390 H 2698.69 1.71169 -5.60966 0
M  V30 15391 H 2699.37 0.419134 0.644739 0
M  V30 15392 H 2699.4 3.87332 1.06098 0
M  V30 15393 H 2699.51 2.26417 1.82483 0
M  V30 15394 P 2700.6 7.20834 -5.23717 0
M  V30 15395 O 2700.82 8.66189 -5.38625 0
M  V30 15396 O 2701.39 6.33615 -6.1356 0
M  V30 15397 O 2700.85 6.7751 -3.72168 0
M  V30 15398 C 2699.91 7.20732 -2.70725 0
M  V30 15399 C 2700.64 7.45864 -1.40599 0
M  V30 15400 O 2700.85 6.17651 -0.734225 0
M  V30 15401 C 2702.04 8.05808 -1.51899 0
M  V30 15402 O 2702.43 8.74358 -0.335205 0
M  V30 15403 C 2702.92 6.83093 -1.70294 0
M  V30 15404 C 2702.21 5.79992 -0.836974 0
M  V30 15405 N 2702.26 4.41769 -1.38263 0
M  V30 15406 C 2702.41 3.38591 -0.481702 0
M  V30 15407 O 2702.5 3.56839 0.718452 0
M  V30 15408 N 2702.45 2.1206 -1.03569 0
M  V30 15409 C 2702.36 1.80696 -2.36966 0
M  V30 15410 C 2702.21 2.94845 -3.23898 0
M  V30 15411 C 2702.16 4.19803 -2.73435 0
M  V30 15412 H 2699.42 8.13644 -3.0377 0
M  V30 15413 H 2699.16 6.42695 -2.55448 0
M  V30 15414 H 2700.02 8.12039 -0.792769 0
M  V30 15415 H 2702.68 5.79978 0.160587 0
M  V30 15416 H 2702.96 6.51379 -2.75643 0
M  V30 15417 H 2703.95 7.01734 -1.34462 0
M  V30 15418 H 2702.11 8.73674 -2.38337 0
M  V30 15419 H 2702.04 5.04492 -3.4095 0
M  V30 15420 P 2703.98 8.91 -7.61458e-11 0
M  V30 15421 O 2704.2 10.1726 0.733694 0
M  V30 15422 O 2704.77 8.73148 -1.23936 0
M  V30 15423 O 2704.23 7.66872 0.971405 0
M  V30 15424 C 2703.29 7.42309 2.04641 0
M  V30 15425 C 2704.02 6.86059 3.24661 0
M  V30 15426 O 2704.23 5.42847 3.03646 0
M  V30 15427 C 2705.42 7.41196 3.50753 0
M  V30 15428 O 2705.81 7.27073 4.86816 0
M  V30 15429 C 2706.3 6.5273 2.63741 0
M  V30 15430 C 2705.59 5.1842 2.73198 0
M  V30 15431 N 2705.64 4.38762 1.4784 0
M  V30 15432 H 2702.81 8.36803 2.32493 0
M  V30 15433 H 2702.54 6.70197 1.71129 0
M  V30 15434 H 2703.4 7.03551 4.13168 0
M  V30 15435 P 2707.36 7.20834 5.23717 0
M  V30 15436 O 2707.58 7.7993 6.57351 0
M  V30 15437 O 2708.15 7.79328 4.13004 0
M  V30 15438 O 2707.61 5.63315 5.29344 0
M  V30 15439 C 2706.67 4.80193 6.01798 0
M  V30 15440 C 2707.4 3.64202 6.65911 0
M  V30 15441 O 2707.61 2.60694 5.64732 0
M  V30 15442 C 2708.8 3.93473 7.1943 0
M  V30 15443 O 2709.19 3.02071 8.21205 0
M  V30 15444 C 2709.68 3.73047 5.97036 0
M  V30 15445 C 2708.97 2.58828 5.25741 0
M  V30 15446 N 2709.02 2.6801 3.77422 0
M  V30 15447 C 2709.17 1.50443 3.07133 0
M  V30 15448 O 2709.26 0.419406 3.61576 0
M  V30 15449 N 2709.21 1.6403 1.69677 0
M  V30 15450 C 2709.12 2.81206 0.986255 0
M  V30 15451 C 2708.97 3.99158 1.80325 0
M  V30 15452 C 2708.92 3.89779 3.1476 0
M  V30 15453 H 2706.18 5.40332 6.79951 0
M  V30 15454 H 2705.91 4.41549 5.32301 0
M  V30 15455 H 2706.78 3.26331 7.47797 0
M  V30 15456 H 2709.44 1.6395 5.56554 0
M  V30 15457 H 2709.72 4.63439 5.3432 0
M  V30 15458 H 2710.71 3.44728 6.25838 0
M  V30 15459 H 2708.87 4.96652 7.57263 0
M  V30 15460 H 2708.8 4.80159 3.74441 0
M  V30 15461 P 2710.74 2.75334 8.47391 0
M  V30 15462 O 2710.96 2.44619 9.90336 0
M  V30 15463 O 2711.53 3.87776 7.92294 0
M  V30 15464 O 2710.99 1.4459 7.59357 0
M  V30 15465 C 2710.05 0.347653 7.69315 0
M  V30 15466 C 2710.78 -0.96767 7.52806 0
M  V30 15467 O 2710.99 -1.21055 6.10208 0
M  V30 15468 C 2712.18 -1.04557 8.13408 0
M  V30 15469 O 2712.57 -2.38311 8.41922 0
M  V30 15470 C 2713.06 -0.491279 7.02284 0
M  V30 15471 C 2712.35 -0.996264 5.77469 0
M  V30 15472 N 2712.4 -0.0501916 4.62973 0
M  V30 15473 H 2709.57 0.374765 8.67791 0
M  V30 15474 H 2709.29 0.443613 6.90476 0
M  V30 15475 H 2710.16 -1.75559 7.96891 0
M  V30 15476 H 2712.82 -1.94563 5.46818 0
M  V30 15477 H 2713.1 0.608651 7.04676 0
M  V30 15478 H 2714.09 -0.889796 7.09039 0
M  V30 15479 H 2712.25 -0.433128 9.04664 0
M  V30 15480 P 2714.12 -2.75334 8.47391 0
M  V30 15481 O 2714.34 -3.84166 9.4489 0
M  V30 15482 O 2714.91 -1.51964 8.6881 0
M  V30 15483 O 2714.37 -3.29363 6.99321 0
M  V30 15484 C 2713.43 -4.23956 6.42656 0
M  V30 15485 C 2714.16 -5.20775 5.52155 0
M  V30 15486 O 2714.37 -4.56534 4.22446 0
M  V30 15487 C 2715.56 -5.62629 5.96531 0
M  V30 15488 O 2715.95 -6.87667 5.41053 0
M  V30 15489 C 2716.44 -4.52537 5.39283 0
M  V30 15490 C 2715.73 -4.20027 4.08623 0
M  V30 15491 N 2715.78 -2.7613 3.71522 0
M  V30 15492 C 2715.93 -2.45612 2.37989 0
M  V30 15493 O 2716.02 -3.30919 1.51621 0
M  V30 15494 N 2715.97 -1.10684 2.08435 0
M  V30 15495 C 2715.88 -0.0690084 2.9792 0
M  V30 15496 O 2715.93 1.10553 2.59426 0
M  V30 15497 C 2715.73 -0.481522 4.35345 0
M  V30 15498 C 2715.62 0.618778 5.36443 0
M  V30 15499 C 2715.68 -1.78906 4.67968 0
M  V30 15500 H 2712.94 -4.797 7.24003 0
M  V30 15501 H 2712.67 -3.69802 5.84429 0
M  V30 15502 H 2713.54 -6.10356 5.41441 0
M  V30 15503 H 2716.2 -4.78651 3.27911 0
M  V30 15504 H 2716.48 -3.64957 6.05871 0
M  V30 15505 H 2717.47 -4.8868 5.2125 0
M  V30 15506 H 2715.63 -5.66726 7.06352 0
M  V30 15507 H 2715.56 -2.07737 5.72367 0
M  V30 15508 H 2716.59 0.754375 5.86871 0
M  V30 15509 H 2714.86 0.359721 6.10641 0
M  V30 15510 H 2715.34 1.55533 4.8581 0
M  V30 15511 H 2716.08 -0.862651 1.12037 0
M  V30 15512 P 2717.5 -7.20834 5.23717 0
M  V30 15513 O 2717.72 -8.66189 5.38625 0
M  V30 15514 O 2718.29 -6.33615 6.1356 0
M  V30 15515 O 2717.75 -6.7751 3.72168 0
M  V30 15516 C 2716.81 -7.20732 2.70725 0
M  V30 15517 C 2717.54 -7.45864 1.40599 0
M  V30 15518 O 2717.75 -6.17651 0.734225 0
M  V30 15519 C 2718.94 -8.05808 1.51899 0
M  V30 15520 O 2719.33 -8.74358 0.335205 0
M  V30 15521 C 2719.82 -6.83093 1.70294 0
M  V30 15522 C 2719.11 -5.79992 0.836974 0
M  V30 15523 N 2719.16 -4.41769 1.38263 0
M  V30 15524 C 2719.31 -3.38591 0.481702 0
M  V30 15525 O 2719.4 -3.56839 -0.718452 0
M  V30 15526 N 2719.35 -2.1206 1.03569 0
M  V30 15527 C 2719.26 -1.80696 2.36966 0
M  V30 15528 O 2719.31 -0.630473 2.74862 0
M  V30 15529 C 2719.11 -2.94845 3.23898 0
M  V30 15530 C 2719 -2.65253 4.70362 0
M  V30 15531 C 2719.06 -4.19803 2.73435 0
M  V30 15532 H 2716.32 -8.13644 3.0377 0
M  V30 15533 H 2716.05 -6.42695 2.55448 0
M  V30 15534 H 2716.92 -8.12039 0.792769 0
M  V30 15535 H 2719.58 -5.79978 -0.160587 0
M  V30 15536 H 2719.86 -6.51379 2.75643 0
M  V30 15537 H 2720.85 -7.01734 1.34462 0
M  V30 15538 H 2719.01 -8.73674 2.38337 0
M  V30 15539 H 2718.94 -5.04492 3.4095 0
M  V30 15540 H 2719.97 -2.83924 5.1913 0
M  V30 15541 H 2718.24 -3.29824 5.15163 0
M  V30 15542 H 2718.72 -1.59723 4.84449 0
M  V30 15543 H 2719.46 -1.35644 0.399345 0
M  V30 15544 P 2720.88 -8.91 7.72548e-11 0
M  V30 15545 O 2721.1 -10.1726 -0.733694 0
M  V30 15546 O 2721.67 -8.73148 1.23936 0
M  V30 15547 O 2721.13 -7.66872 -0.971405 0
M  V30 15548 C 2720.19 -7.42309 -2.04641 0
M  V30 15549 C 2720.92 -6.86059 -3.24661 0
M  V30 15550 O 2721.13 -5.42847 -3.03646 0
M  V30 15551 C 2722.32 -7.41196 -3.50753 0
M  V30 15552 O 2722.71 -7.27073 -4.86816 0
M  V30 15553 C 2723.2 -6.5273 -2.63741 0
M  V30 15554 C 2722.49 -5.1842 -2.73198 0
M  V30 15555 N 2722.54 -4.38762 -1.4784 0
M  V30 15556 H 2719.7 -8.36803 -2.32493 0
M  V30 15557 H 2719.43 -6.70197 -1.71129 0
M  V30 15558 H 2720.3 -7.03551 -4.13168 0
M  V30 15559 P 2724.26 -7.20834 -5.23717 0
M  V30 15560 O 2724.48 -7.7993 -6.57351 0
M  V30 15561 O 2725.05 -7.79328 -4.13004 0
M  V30 15562 O 2724.51 -5.63315 -5.29344 0
M  V30 15563 C 2723.57 -4.80193 -6.01798 0
M  V30 15564 C 2724.3 -3.64202 -6.65911 0
M  V30 15565 O 2724.51 -2.60694 -5.64732 0
M  V30 15566 C 2725.7 -3.93473 -7.1943 0
M  V30 15567 O 2726.09 -3.02071 -8.21205 0
M  V30 15568 C 2726.58 -3.73047 -5.97036 0
M  V30 15569 C 2725.87 -2.58828 -5.25741 0
M  V30 15570 N 2725.92 -2.6801 -3.77422 0
M  V30 15571 C 2726.07 -1.50443 -3.07133 0
M  V30 15572 O 2726.16 -0.419406 -3.61576 0
M  V30 15573 N 2726.11 -1.6403 -1.69677 0
M  V30 15574 C 2726.02 -2.81206 -0.986255 0
M  V30 15575 C 2725.87 -3.99158 -1.80325 0
M  V30 15576 C 2725.82 -3.89779 -3.1476 0
M  V30 15577 H 2723.08 -5.40332 -6.79951 0
M  V30 15578 H 2722.81 -4.41549 -5.32301 0
M  V30 15579 H 2723.68 -3.26331 -7.47797 0
M  V30 15580 H 2726.34 -1.6395 -5.56554 0
M  V30 15581 H 2726.62 -4.63439 -5.3432 0
M  V30 15582 H 2727.61 -3.44728 -6.25838 0
M  V30 15583 H 2725.77 -4.96652 -7.57263 0
M  V30 15584 H 2725.7 -4.80159 -3.74441 0
M  V30 15585 P 2727.64 -2.75334 -8.47391 0
M  V30 15586 O 2727.86 -2.44571 -9.90142 0
M  V30 15587 O 2728.43 -3.87688 -7.92115 0
M  V30 15588 O 2727.89 -1.4459 -7.59357 0
M  V30 15589 C 2726.95 -0.347608 -7.69215 0
M  V30 15590 C 2727.68 0.96767 -7.52806 0
M  V30 15591 O 2727.89 1.21036 -6.1011 0
M  V30 15592 C 2729.08 1.04544 -8.13308 0
M  V30 15593 O 2729.47 2.38311 -8.41922 0
M  V30 15594 C 2729.96 0.491279 -7.02284 0
M  V30 15595 C 2729.25 0.996264 -5.77469 0
M  V30 15596 N 2729.3 0.0501916 -4.62973 0
M  V30 15597 H 2726.46 -0.374722 -8.67691 0
M  V30 15598 H 2726.19 -0.443485 -6.90277 0
M  V30 15599 H 2727.06 1.75537 -7.96793 0
M  V30 15600 P 2731.02 2.75334 -8.47391 0
M  V30 15601 O 2731.24 3.84128 -9.44797 0
M  V30 15602 O 2731.81 1.51947 -8.68712 0
M  V30 15603 O 2731.27 3.29363 -6.99321 0
M  V30 15604 C 2730.33 4.24011 -6.4274 0
M  V30 15605 C 2731.06 5.20775 -5.52155 0
M  V30 15606 O 2731.27 4.56534 -4.22446 0
M  V30 15607 C 2732.46 5.62629 -5.96531 0
M  V30 15608 O 2732.85 6.87667 -5.41053 0
M  V30 15609 C 2733.34 4.52537 -5.39283 0
M  V30 15610 C 2732.63 4.20027 -4.08623 0
M  V30 15611 N 2732.68 2.76189 -3.71603 0
M  V30 15612 H 2729.84 4.797 -7.24003 0
M  V30 15613 H 2729.57 3.69856 -5.84513 0
M  V30 15614 H 2730.44 6.10356 -5.41441 0
M  V30 15615 P 2734.4 7.20834 -5.23717 0
M  V30 15616 O 2734.62 8.66104 -5.38572 0
M  V30 15617 O 2735.19 6.33544 -6.1349 0
M  V30 15618 O 2734.65 6.7751 -3.72168 0
M  V30 15619 C 2733.71 7.20825 -2.7076 0
M  V30 15620 C 2734.44 7.45864 -1.40599 0
M  V30 15621 O 2734.65 6.17651 -0.734225 0
M  V30 15622 C 2735.84 8.05808 -1.51899 0
M  V30 15623 O 2736.23 8.74358 -0.335205 0
M  V30 15624 C 2736.72 6.83093 -1.70294 0
M  V30 15625 C 2736.01 5.79992 -0.836974 0
M  V30 15626 N 2736.06 4.41864 -1.38293 0
M  V30 15627 H 2733.22 8.13644 -3.0377 0
M  V30 15628 H 2732.95 6.42788 -2.55485 0
M  V30 15629 H 2733.82 8.12039 -0.792769 0
M  V30 15630 P 2737.78 8.91 -7.83638e-11 0
M  V30 15631 O 2738 10.1726 0.733694 0
M  V30 15632 O 2738.57 8.73148 -1.23936 0
M  V30 15633 O 2738.03 7.66872 0.971405 0
M  V30 15634 C 2737.09 7.42309 2.04641 0
M  V30 15635 C 2737.82 6.86059 3.24661 0
M  V30 15636 O 2738.03 5.42847 3.03646 0
M  V30 15637 C 2739.22 7.41196 3.50753 0
M  V30 15638 O 2739.61 7.27073 4.86816 0
M  V30 15639 C 2740.1 6.5273 2.63741 0
M  V30 15640 C 2739.39 5.1842 2.73198 0
M  V30 15641 N 2739.44 4.38762 1.4784 0
M  V30 15642 H 2736.6 8.36803 2.32493 0
M  V30 15643 H 2736.33 6.70197 1.71129 0
M  V30 15644 H 2737.2 7.03551 4.13168 0
M  V30 15645 P 2741.16 7.20834 5.23717 0
M  V30 15646 O 2741.38 7.7993 6.57351 0
M  V30 15647 O 2741.95 7.79328 4.13004 0
M  V30 15648 O 2741.41 5.63315 5.29344 0
M  V30 15649 C 2740.47 4.80193 6.01798 0
M  V30 15650 C 2741.2 3.64202 6.65911 0
M  V30 15651 O 2741.41 2.60694 5.64732 0
M  V30 15652 C 2742.6 3.93473 7.1943 0
M  V30 15653 O 2742.99 3.02071 8.21205 0
M  V30 15654 C 2743.48 3.73047 5.97036 0
M  V30 15655 C 2742.77 2.58828 5.25741 0
M  V30 15656 N 2742.82 2.6801 3.77422 0
M  V30 15657 C 2742.97 1.50443 3.07133 0
M  V30 15658 O 2743.06 0.419406 3.61576 0
M  V30 15659 N 2743.01 1.6403 1.69677 0
M  V30 15660 C 2742.92 2.81206 0.986255 0
M  V30 15661 O 2742.97 2.80892 -0.249754 0
M  V30 15662 C 2742.77 3.99158 1.80325 0
M  V30 15663 C 2742.66 5.29309 1.06921 0
M  V30 15664 C 2742.72 3.89779 3.1476 0
M  V30 15665 H 2739.98 5.40332 6.79951 0
M  V30 15666 H 2739.71 4.41549 5.32301 0
M  V30 15667 H 2740.58 3.26331 7.47797 0
M  V30 15668 H 2743.24 1.6395 5.56554 0
M  V30 15669 H 2743.52 4.63439 5.3432 0
M  V30 15670 H 2744.51 3.44728 6.25838 0
M  V30 15671 H 2742.67 4.96652 7.57263 0
M  V30 15672 H 2742.6 4.80159 3.74441 0
M  V30 15673 H 2743.63 5.81459 1.09608 0
M  V30 15674 H 2741.9 5.9187 1.54487 0
M  V30 15675 H 2742.38 5.10095 0.0220288 0
M  V30 15676 H 2743.12 0.798962 1.16664 0
M  V30 15677 P 2744.54 2.75334 8.47391 0
M  V30 15678 O 2744.76 2.44571 9.90142 0
M  V30 15679 O 2745.33 3.87688 7.92115 0
M  V30 15680 O 2744.79 1.4459 7.59357 0
M  V30 15681 C 2743.85 0.347608 7.69215 0
M  V30 15682 C 2744.58 -0.96767 7.52806 0
M  V30 15683 O 2744.79 -1.21036 6.1011 0
M  V30 15684 C 2745.98 -1.04544 8.13308 0
M  V30 15685 O 2746.37 -2.38311 8.41922 0
M  V30 15686 C 2746.86 -0.491279 7.02284 0
M  V30 15687 C 2746.15 -0.996264 5.77469 0
M  V30 15688 N 2746.2 -0.0501916 4.62973 0
M  V30 15689 C 2746.12 1.32786 4.63244 0
M  V30 15690 N 2746.2 1.86957 3.44545 0
M  V30 15691 C 2746.34 0.780241 2.58481 0
M  V30 15692 C 2746.47 0.738536 1.17757 0
M  V30 15693 N 2746.59 -0.58337 0.711393 0
M  V30 15694 C 2746.59 -1.70816 1.51017 0
M  V30 15695 N 2746.72 -2.87826 0.880757 0
M  V30 15696 N 2746.46 -1.67126 2.8339 0
M  V30 15697 C 2746.34 -0.401421 3.30572 0
M  V30 15698 H 2743.36 0.374722 8.67691 0
M  V30 15699 H 2743.09 0.443485 6.90277 0
M  V30 15700 H 2743.96 -1.75537 7.96793 0
M  V30 15701 P 2747.92 -2.75334 8.47391 0
M  V30 15702 O 2748.14 -3.84128 9.44797 0
M  V30 15703 O 2748.71 -1.51947 8.68712 0
M  V30 15704 O 2748.17 -3.29363 6.99321 0
M  V30 15705 C 2747.23 -4.24011 6.4274 0
M  V30 15706 C 2747.96 -5.20775 5.52155 0
M  V30 15707 O 2748.17 -4.56534 4.22446 0
M  V30 15708 C 2749.36 -5.62629 5.96531 0
M  V30 15709 O 2749.75 -6.87667 5.41053 0
M  V30 15710 C 2750.24 -4.52537 5.39283 0
M  V30 15711 C 2749.53 -4.20027 4.08623 0
M  V30 15712 N 2749.58 -2.76189 3.71603 0
M  V30 15713 H 2746.74 -4.797 7.24003 0
M  V30 15714 H 2746.47 -3.69856 5.84513 0
M  V30 15715 H 2747.34 -6.10356 5.41441 0
M  V30 15716 P 2751.3 -7.20834 5.23717 0
M  V30 15717 O 2751.52 -8.66104 5.38572 0
M  V30 15718 O 2752.09 -6.33544 6.1349 0
M  V30 15719 O 2751.55 -6.7751 3.72168 0
M  V30 15720 C 2750.61 -7.20825 2.7076 0
M  V30 15721 C 2751.34 -7.45864 1.40599 0
M  V30 15722 O 2751.55 -6.17651 0.734225 0
M  V30 15723 C 2752.74 -8.05808 1.51899 0
M  V30 15724 O 2753.13 -8.74358 0.335205 0
M  V30 15725 C 2753.62 -6.83093 1.70294 0
M  V30 15726 C 2752.91 -5.79992 0.836974 0
M  V30 15727 N 2752.96 -4.41864 1.38293 0
M  V30 15728 H 2750.12 -8.13644 3.0377 0
M  V30 15729 H 2749.85 -6.42788 2.55485 0
M  V30 15730 H 2750.72 -8.12039 0.792769 0
M  V30 15731 P 2754.68 -8.91 7.94728e-11 0
M  V30 15732 O 2754.9 -10.1726 -0.733694 0
M  V30 15733 O 2755.47 -8.73148 1.23936 0
M  V30 15734 O 2754.93 -7.66872 -0.971405 0
M  V30 15735 C 2753.99 -7.42309 -2.04641 0
M  V30 15736 C 2754.72 -6.86059 -3.24661 0
M  V30 15737 O 2754.93 -5.42847 -3.03646 0
M  V30 15738 C 2756.12 -7.41196 -3.50753 0
M  V30 15739 O 2756.51 -7.27073 -4.86816 0
M  V30 15740 C 2757 -6.5273 -2.63741 0
M  V30 15741 C 2756.29 -5.1842 -2.73198 0
M  V30 15742 N 2756.34 -4.38762 -1.4784 0
M  V30 15743 C 2756.26 -4.81605 -0.168631 0
M  V30 15744 N 2756.34 -3.85454 0.713363 0
M  V30 15745 C 2756.48 -2.6994 -0.0566958 0
M  V30 15746 C 2756.61 -1.34815 0.338502 0
M  V30 15747 O 2756.63 -0.869548 1.47125 0
M  V30 15748 N 2756.73 -0.496304 -0.77465 0
M  V30 15749 C 2756.73 -0.908403 -2.09122 0
M  V30 15750 N 2756.86 0.0517805 -3.00955 0
M  V30 15751 N 2756.6 -2.17875 -2.46519 0
M  V30 15752 C 2756.48 -3.01988 -1.4033 0
M  V30 15753 H 2753.5 -8.36803 -2.32493 0
M  V30 15754 H 2753.23 -6.70197 -1.71129 0
M  V30 15755 H 2754.1 -7.03551 -4.13168 0
M  V30 15756 H 2756.76 -4.59498 -3.54415 0
M  V30 15757 H 2757.04 -6.88898 -1.59848 0
M  V30 15758 H 2758.03 -6.46749 -3.03687 0
M  V30 15759 H 2756.19 -8.46908 -3.20714 0
M  V30 15760 H 2756.14 -5.86405 0.105564 0
M  V30 15761 H 2756.83 0.483664 -0.597855 0
M  V30 15762 H 2756.86 -0.187865 -4.0116 0
M  V30 15763 H 2756.96 1.03585 -2.71726 0
M  V30 15764 P 2758.06 -7.20834 -5.23717 0
M  V30 15765 O 2758.28 -7.79853 -6.57286 0
M  V30 15766 O 2758.85 -7.79239 -4.12957 0
M  V30 15767 O 2758.31 -5.63315 -5.29344 0
M  V30 15768 C 2757.37 -4.80255 -6.01876 0
M  V30 15769 C 2758.1 -3.64202 -6.65911 0
M  V30 15770 O 2758.31 -2.60694 -5.64732 0
M  V30 15771 C 2759.5 -3.93473 -7.1943 0
M  V30 15772 O 2759.89 -3.02071 -8.21205 0
M  V30 15773 C 2760.38 -3.73047 -5.97036 0
M  V30 15774 C 2759.67 -2.58828 -5.25741 0
M  V30 15775 N 2759.72 -2.68068 -3.77503 0
M  V30 15776 H 2756.88 -5.40332 -6.79951 0
M  V30 15777 H 2756.61 -4.41613 -5.32378 0
M  V30 15778 H 2757.48 -3.26331 -7.47797 0
M  V30 15779 P 2761.44 -2.75334 -8.47391 0
M  V30 15780 O 2761.66 -2.44571 -9.90142 0
M  V30 15781 O 2762.23 -3.87688 -7.92115 0
M  V30 15782 O 2761.69 -1.4459 -7.59357 0
M  V30 15783 C 2760.75 -0.347608 -7.69215 0
M  V30 15784 C 2761.48 0.96767 -7.52806 0
M  V30 15785 O 2761.69 1.21036 -6.1011 0
M  V30 15786 C 2762.88 1.04544 -8.13308 0
M  V30 15787 O 2763.27 2.38311 -8.41922 0
M  V30 15788 C 2763.76 0.491279 -7.02284 0
M  V30 15789 C 2763.05 0.996264 -5.77469 0
M  V30 15790 N 2763.1 0.0501916 -4.62973 0
M  V30 15791 H 2760.26 -0.374722 -8.67691 0
M  V30 15792 H 2759.99 -0.443485 -6.90277 0
M  V30 15793 H 2760.86 1.75537 -7.96793 0
M  V30 15794 P 2764.82 2.75334 -8.47391 0
M  V30 15795 O 2765.04 3.84128 -9.44797 0
M  V30 15796 O 2765.61 1.51947 -8.68712 0
M  V30 15797 O 2765.07 3.29363 -6.99321 0
M  V30 15798 C 2764.13 4.24011 -6.4274 0
M  V30 15799 C 2764.86 5.20775 -5.52155 0
M  V30 15800 O 2765.07 4.56534 -4.22446 0
M  V30 15801 C 2766.26 5.62629 -5.96531 0
M  V30 15802 O 2766.65 6.87667 -5.41053 0
M  V30 15803 C 2767.14 4.52537 -5.39283 0
M  V30 15804 C 2766.43 4.20027 -4.08623 0
M  V30 15805 N 2766.48 2.76189 -3.71603 0
M  V30 15806 H 2763.64 4.797 -7.24003 0
M  V30 15807 H 2763.37 3.69856 -5.84513 0
M  V30 15808 H 2764.24 6.10356 -5.41441 0
M  V30 15809 P 2768.2 7.20834 -5.23717 0
M  V30 15810 O 2768.42 8.66104 -5.38572 0
M  V30 15811 O 2768.99 6.33544 -6.1349 0
M  V30 15812 O 2768.45 6.7751 -3.72168 0
M  V30 15813 C 2767.51 7.20825 -2.7076 0
M  V30 15814 C 2768.24 7.45864 -1.40599 0
M  V30 15815 O 2768.45 6.17651 -0.734225 0
M  V30 15816 C 2769.64 8.05808 -1.51899 0
M  V30 15817 O 2770.03 8.74358 -0.335205 0
M  V30 15818 C 2770.52 6.83093 -1.70294 0
M  V30 15819 C 2769.81 5.79992 -0.836974 0
M  V30 15820 N 2769.86 4.41864 -1.38293 0
M  V30 15821 H 2767.02 8.13644 -3.0377 0
M  V30 15822 H 2766.75 6.42788 -2.55485 0
M  V30 15823 H 2767.62 8.12039 -0.792769 0
M  V30 15824 P 2771.58 8.91 -8.05818e-11 0
M  V30 15825 O 2771.8 10.1726 0.733694 0
M  V30 15826 O 2772.37 8.73148 -1.23936 0
M  V30 15827 O 2771.83 7.66872 0.971405 0
M  V30 15828 C 2770.89 7.42309 2.04641 0
M  V30 15829 C 2771.62 6.86059 3.24661 0
M  V30 15830 O 2771.83 5.42847 3.03646 0
M  V30 15831 C 2773.02 7.41196 3.50753 0
M  V30 15832 O 2773.41 7.27073 4.86816 0
M  V30 15833 C 2773.9 6.5273 2.63741 0
M  V30 15834 C 2773.19 5.1842 2.73198 0
M  V30 15835 N 2773.24 4.38762 1.4784 0
M  V30 15836 H 2770.4 8.36803 2.32493 0
M  V30 15837 H 2770.13 6.70197 1.71129 0
M  V30 15838 H 2771 7.03551 4.13168 0
M  V30 15839 P 2774.96 7.20834 5.23717 0
M  V30 15840 O 2775.18 7.79853 6.57286 0
M  V30 15841 O 2775.75 7.79239 4.12957 0
M  V30 15842 O 2775.21 5.63315 5.29344 0
M  V30 15843 C 2774.27 4.80255 6.01876 0
M  V30 15844 C 2775 3.64202 6.65911 0
M  V30 15845 O 2775.21 2.60694 5.64732 0
M  V30 15846 C 2776.4 3.93473 7.1943 0
M  V30 15847 O 2776.79 3.02071 8.21205 0
M  V30 15848 C 2777.28 3.73047 5.97036 0
M  V30 15849 C 2776.57 2.58828 5.25741 0
M  V30 15850 N 2776.62 2.68068 3.77503 0
M  V30 15851 H 2773.78 5.40332 6.79951 0
M  V30 15852 H 2773.51 4.41613 5.32378 0
M  V30 15853 H 2774.38 3.26331 7.47797 0
M  V30 15854 P 2778.34 2.75334 8.47391 0
M  V30 15855 O 2778.56 2.44571 9.90142 0
M  V30 15856 O 2779.13 3.87688 7.92115 0
M  V30 15857 O 2778.59 1.4459 7.59357 0
M  V30 15858 C 2777.65 0.347608 7.69215 0
M  V30 15859 C 2778.38 -0.96767 7.52806 0
M  V30 15860 O 2778.59 -1.21036 6.1011 0
M  V30 15861 C 2779.78 -1.04544 8.13308 0
M  V30 15862 O 2780.17 -2.38311 8.41922 0
M  V30 15863 C 2780.66 -0.491279 7.02284 0
M  V30 15864 C 2779.95 -0.996264 5.77469 0
M  V30 15865 N 2780 -0.0501916 4.62973 0
M  V30 15866 H 2777.16 0.374722 8.67691 0
M  V30 15867 H 2776.89 0.443485 6.90277 0
M  V30 15868 H 2777.76 -1.75537 7.96793 0
M  V30 15869 P 2781.72 -2.75334 8.47391 0
M  V30 15870 O 2781.94 -3.84166 9.4489 0
M  V30 15871 O 2782.51 -1.51964 8.6881 0
M  V30 15872 O 2781.97 -3.29363 6.99321 0
M  V30 15873 C 2781.03 -4.23956 6.42656 0
M  V30 15874 C 2781.76 -5.20775 5.52155 0
M  V30 15875 O 2781.97 -4.56534 4.22446 0
M  V30 15876 C 2783.16 -5.62629 5.96531 0
M  V30 15877 O 2783.55 -6.87667 5.41053 0
M  V30 15878 C 2784.04 -4.52537 5.39283 0
M  V30 15879 C 2783.33 -4.20027 4.08623 0
M  V30 15880 N 2783.38 -2.7613 3.71522 0
M  V30 15881 C 2783.53 -2.45612 2.37989 0
M  V30 15882 O 2783.62 -3.30919 1.51621 0
M  V30 15883 N 2783.57 -1.10684 2.08435 0
M  V30 15884 C 2783.48 -0.0690084 2.9792 0
M  V30 15885 O 2783.53 1.10553 2.59426 0
M  V30 15886 C 2783.33 -0.481522 4.35345 0
M  V30 15887 C 2783.22 0.618778 5.36443 0
M  V30 15888 C 2783.28 -1.78906 4.67968 0
M  V30 15889 H 2780.54 -4.797 7.24003 0
M  V30 15890 H 2780.27 -3.69802 5.84429 0
M  V30 15891 H 2781.14 -6.10356 5.41441 0
M  V30 15892 H 2783.8 -4.78651 3.27911 0
M  V30 15893 H 2784.08 -3.64957 6.05871 0
M  V30 15894 H 2785.07 -4.8868 5.2125 0
M  V30 15895 H 2783.23 -5.66726 7.06352 0
M  V30 15896 H 2783.16 -2.07737 5.72367 0
M  V30 15897 H 2784.19 0.754375 5.86871 0
M  V30 15898 H 2782.46 0.359721 6.10641 0
M  V30 15899 H 2782.94 1.55533 4.8581 0
M  V30 15900 H 2783.68 -0.862651 1.12037 0
M  V30 15901 P 2785.1 -7.20834 5.23717 0
M  V30 15902 O 2785.32 -8.66104 5.38572 0
M  V30 15903 O 2785.89 -6.33544 6.1349 0
M  V30 15904 O 2785.35 -6.7751 3.72168 0
M  V30 15905 C 2784.41 -7.20825 2.7076 0
M  V30 15906 C 2785.14 -7.45864 1.40599 0
M  V30 15907 O 2785.35 -6.17651 0.734225 0
M  V30 15908 C 2786.54 -8.05808 1.51899 0
M  V30 15909 O 2786.93 -8.74358 0.335205 0
M  V30 15910 C 2787.42 -6.83093 1.70294 0
M  V30 15911 C 2786.71 -5.79992 0.836974 0
M  V30 15912 N 2786.76 -4.41864 1.38293 0
M  V30 15913 H 2783.92 -8.13644 3.0377 0
M  V30 15914 H 2783.65 -6.42788 2.55485 0
M  V30 15915 H 2784.52 -8.12039 0.792769 0
M  V30 15916 P 2788.48 -8.91 8.16908e-11 0
M  V30 15917 O 2788.7 -10.1726 -0.733694 0
M  V30 15918 O 2789.27 -8.73148 1.23936 0
M  V30 15919 O 2788.73 -7.66872 -0.971405 0
M  V30 15920 C 2787.79 -7.42309 -2.04641 0
M  V30 15921 C 2788.52 -6.86059 -3.24661 0
M  V30 15922 O 2788.73 -5.42847 -3.03646 0
M  V30 15923 C 2789.92 -7.41196 -3.50753 0
M  V30 15924 O 2790.31 -7.27073 -4.86816 0
M  V30 15925 C 2790.8 -6.5273 -2.63741 0
M  V30 15926 C 2790.09 -5.1842 -2.73198 0
M  V30 15927 N 2790.14 -4.38762 -1.4784 0
M  V30 15928 H 2787.3 -8.36803 -2.32493 0
M  V30 15929 H 2787.03 -6.70197 -1.71129 0
M  V30 15930 H 2787.9 -7.03551 -4.13168 0
M  V30 15931 P 2791.86 -7.20834 -5.23717 0
M  V30 15932 O 2792.08 -7.80006 -6.57415 0
M  V30 15933 O 2792.65 -7.79416 -4.13051 0
M  V30 15934 O 2792.11 -5.63315 -5.29344 0
M  V30 15935 C 2791.17 -4.80318 -6.01954 0
M  V30 15936 C 2791.9 -3.64202 -6.65911 0
M  V30 15937 O 2792.11 -2.60736 -5.64823 0
M  V30 15938 C 2793.3 -3.93521 -7.19518 0
M  V30 15939 O 2793.69 -3.02071 -8.21205 0
M  V30 15940 C 2794.18 -3.73047 -5.97036 0
M  V30 15941 C 2793.47 -2.58828 -5.25741 0
M  V30 15942 N 2793.52 -2.68068 -3.77503 0
M  V30 15943 H 2790.69 -5.40394 -6.8003 0
M  V30 15944 H 2790.41 -4.41741 -5.32532 0
M  V30 15945 H 2791.28 -3.26371 -7.47889 0
M  V30 15946 H 2793.94 -1.64007 -5.56746 0
M  V30 15947 H 2794.22 -4.63439 -5.3432 0
M  V30 15948 H 2795.21 -3.44776 -6.25925 0
M  V30 15949 H 2793.37 -4.96707 -7.57347 0
M  V30 15950 P 2795.24 -2.75334 -8.47391 0
M  V30 15951 O 2795.46 -2.44571 -9.90142 0
M  V30 15952 O 2796.03 -3.87688 -7.92115 0
M  V30 15953 O 2795.49 -1.4459 -7.59357 0
M  V30 15954 C 2794.55 -0.347608 -7.69215 0
M  V30 15955 C 2795.28 0.96767 -7.52806 0
M  V30 15956 O 2795.49 1.21036 -6.1011 0
M  V30 15957 C 2796.68 1.04544 -8.13308 0
M  V30 15958 O 2797.07 2.38311 -8.41922 0
M  V30 15959 C 2797.56 0.491279 -7.02284 0
M  V30 15960 C 2796.85 0.996264 -5.77469 0
M  V30 15961 N 2796.9 0.0501916 -4.62973 0
M  V30 15962 H 2794.06 -0.374722 -8.67691 0
M  V30 15963 H 2793.79 -0.443485 -6.90277 0
M  V30 15964 H 2794.66 1.75537 -7.96793 0
M  V30 15965 P 2798.62 2.75334 -8.47391 0
M  V30 15966 O 2798.84 3.84128 -9.44797 0
M  V30 15967 O 2799.41 1.51947 -8.68712 0
M  V30 15968 O 2798.87 3.29363 -6.99321 0
M  V30 15969 C 2797.93 4.24011 -6.4274 0
M  V30 15970 C 2798.66 5.20775 -5.52155 0
M  V30 15971 O 2798.87 4.56534 -4.22446 0
M  V30 15972 C 2800.06 5.62629 -5.96531 0
M  V30 15973 O 2800.45 6.87667 -5.41053 0
M  V30 15974 C 2800.94 4.52537 -5.39283 0
M  V30 15975 C 2800.23 4.20027 -4.08623 0
M  V30 15976 N 2800.28 2.76189 -3.71603 0
M  V30 15977 H 2797.44 4.797 -7.24003 0
M  V30 15978 H 2797.17 3.69856 -5.84513 0
M  V30 15979 H 2798.04 6.10356 -5.41441 0
M  V30 15980 P 2802 7.20834 -5.23717 0
M  V30 15981 O 2802.22 8.66104 -5.38572 0
M  V30 15982 O 2802.79 6.33544 -6.1349 0
M  V30 15983 O 2802.25 6.7751 -3.72168 0
M  V30 15984 C 2801.31 7.20825 -2.7076 0
M  V30 15985 C 2802.04 7.45864 -1.40599 0
M  V30 15986 O 2802.25 6.17651 -0.734225 0
M  V30 15987 C 2803.44 8.05808 -1.51899 0
M  V30 15988 O 2803.83 8.74358 -0.335205 0
M  V30 15989 C 2804.32 6.83093 -1.70294 0
M  V30 15990 C 2803.61 5.79992 -0.836974 0
M  V30 15991 N 2803.66 4.41864 -1.38293 0
M  V30 15992 C 2803.58 3.99538 -2.69438 0
M  V30 15993 N 2803.66 2.69909 -2.84277 0
M  V30 15994 C 2803.8 2.21719 -1.5408 0
M  V30 15995 C 2803.93 0.891712 -1.06628 0
M  V30 15996 O 2803.95 -0.161298 -1.70137 0
M  V30 15997 N 2804.05 0.856846 0.334985 0
M  V30 15998 C 2804.05 1.9641 1.15789 0
M  V30 15999 N 2804.18 1.72708 2.46522 0
M  V30 16000 N 2803.92 3.21165 0.713741 0
M  V30 16001 C 2803.8 3.26797 -0.639748 0
M  V30 16002 H 2800.82 8.13644 -3.0377 0
M  V30 16003 H 2800.55 6.42788 -2.55485 0
M  V30 16004 H 2801.42 8.12039 -0.792769 0
M  V30 16005 H 2804.08 5.80061 0.166416 0
M  V30 16006 H 2804.36 6.51287 -2.75604 0
M  V30 16007 H 2805.35 7.01734 -1.34462 0
M  V30 16008 H 2803.51 8.73674 -2.38337 0
M  V30 16009 H 2803.46 4.68207 -3.53221 0
M  V30 16010 H 2804.15 -0.0398818 0.767965 0
M  V30 16011 H 2804.18 2.50995 3.13503 0
M  V30 16012 H 2804.28 0.759148 2.80716 0
M  V30 16013 P 2805.38 8.91 -8.27998e-11 0
M  V30 16014 O 2805.6 10.1726 0.733694 0
M  V30 16015 O 2806.17 8.73148 -1.23936 0
M  V30 16016 O 2805.63 7.66872 0.971405 0
M  V30 16017 C 2804.69 7.42309 2.04641 0
M  V30 16018 C 2805.42 6.86059 3.24661 0
M  V30 16019 O 2805.63 5.42847 3.03646 0
M  V30 16020 C 2806.82 7.41196 3.50753 0
M  V30 16021 O 2807.21 7.27073 4.86816 0
M  V30 16022 C 2807.7 6.5273 2.63741 0
M  V30 16023 C 2806.99 5.1842 2.73198 0
M  V30 16024 N 2807.04 4.38762 1.4784 0
M  V30 16025 H 2804.2 8.36803 2.32493 0
M  V30 16026 H 2803.93 6.70197 1.71129 0
M  V30 16027 H 2804.8 7.03551 4.13168 0
M  V30 16028 P 2808.76 7.20834 5.23717 0
M  V30 16029 O 2808.98 7.79853 6.57286 0
M  V30 16030 O 2809.55 7.79239 4.12957 0
M  V30 16031 O 2809.01 5.63315 5.29344 0
M  V30 16032 C 2808.07 4.80255 6.01876 0
M  V30 16033 C 2808.8 3.64202 6.65911 0
M  V30 16034 O 2809.01 2.60694 5.64732 0
M  V30 16035 C 2810.2 3.93473 7.1943 0
M  V30 16036 O 2810.59 3.02071 8.21205 0
M  V30 16037 C 2811.08 3.73047 5.97036 0
M  V30 16038 C 2810.37 2.58828 5.25741 0
M  V30 16039 N 2810.42 2.68068 3.77503 0
M  V30 16040 H 2807.58 5.40332 6.79951 0
M  V30 16041 H 2807.31 4.41613 5.32378 0
M  V30 16042 H 2808.18 3.26331 7.47797 0
M  V30 16043 P 2812.14 2.75334 8.47391 0
M  V30 16044 O 2812.36 2.44571 9.90142 0
M  V30 16045 O 2812.93 3.87688 7.92115 0
M  V30 16046 O 2812.39 1.4459 7.59357 0
M  V30 16047 C 2811.45 0.347608 7.69215 0
M  V30 16048 C 2812.18 -0.96767 7.52806 0
M  V30 16049 O 2812.39 -1.21036 6.1011 0
M  V30 16050 C 2813.58 -1.04544 8.13308 0
M  V30 16051 O 2813.97 -2.38311 8.41922 0
M  V30 16052 C 2814.46 -0.491279 7.02284 0
M  V30 16053 C 2813.75 -0.996264 5.77469 0
M  V30 16054 N 2813.8 -0.0501916 4.62973 0
M  V30 16055 H 2810.96 0.374722 8.67691 0
M  V30 16056 H 2810.69 0.443485 6.90277 0
M  V30 16057 H 2811.56 -1.75537 7.96793 0
M  V30 16058 P 2815.52 -2.75334 8.47391 0
M  V30 16059 O 2815.74 -3.84128 9.44797 0
M  V30 16060 O 2816.31 -1.51947 8.68712 0
M  V30 16061 O 2815.77 -3.29363 6.99321 0
M  V30 16062 C 2814.83 -4.24011 6.4274 0
M  V30 16063 C 2815.56 -5.20775 5.52155 0
M  V30 16064 O 2815.77 -4.56534 4.22446 0
M  V30 16065 C 2816.96 -5.62629 5.96531 0
M  V30 16066 O 2817.35 -6.87667 5.41053 0
M  V30 16067 C 2817.84 -4.52537 5.39283 0
M  V30 16068 C 2817.13 -4.20027 4.08623 0
M  V30 16069 N 2817.18 -2.76189 3.71603 0
M  V30 16070 H 2814.34 -4.797 7.24003 0
M  V30 16071 H 2814.07 -3.69856 5.84513 0
M  V30 16072 H 2814.94 -6.10356 5.41441 0
M  V30 16073 P 2818.9 -7.20834 5.23717 0
M  V30 16074 O 2819.12 -8.66274 5.38678 0
M  V30 16075 O 2819.69 -6.33687 6.13629 0
M  V30 16076 O 2819.15 -6.7751 3.72168 0
M  V30 16077 C 2818.21 -7.20919 2.70795 0
M  V30 16078 C 2818.94 -7.45864 1.40599 0
M  V30 16079 O 2819.15 -6.17751 0.734343 0
M  V30 16080 C 2820.34 -8.05906 1.51917 0
M  V30 16081 O 2820.73 -8.74358 0.335205 0
M  V30 16082 C 2821.22 -6.83093 1.70294 0
M  V30 16083 C 2820.51 -5.79992 0.836974 0
M  V30 16084 N 2820.56 -4.41864 1.38293 0
M  V30 16085 C 2820.48 -4.02089 2.69407 0
M  V30 16086 N 2820.55 -2.73403 2.85089 0
M  V30 16087 C 2820.7 -2.25086 1.5642 0
M  V30 16088 C 2820.83 -0.942887 1.04836 0
M  V30 16089 N 2820.84 0.150999 1.80369 0
M  V30 16090 N 2820.95 -0.812565 -0.28167 0
M  V30 16091 C 2820.94 -1.90572 -1.03784 0
M  V30 16092 N 2820.82 -3.167 -0.683905 0
M  V30 16093 C 2820.7 -3.26538 0.652815 0
M  V30 16094 H 2817.73 -8.13738 3.03804 0
M  V30 16095 H 2817.45 -6.42974 2.55559 0
M  V30 16096 H 2818.32 -8.12139 0.792866 0
M  V30 16097 H 2820.98 -5.80178 -0.160643 0
M  V30 16098 H 2821.26 -6.51379 2.75643 0
M  V30 16099 H 2822.25 -7.01832 1.3448 0
M  V30 16100 H 2820.41 -8.73771 2.38364 0
M  V30 16101 H 2820.37 -4.7189 3.52311 0
M  V30 16102 H 2820.75 0.0721434 2.82608 0
M  V30 16103 H 2820.94 1.0785 1.36544 0
M  V30 16104 H 2821.05 -1.73207 -2.10241 0
M  V30 16105 P 2822.28 -8.91 8.39088e-11 0
M  V30 16106 O 2822.5 -10.1726 -0.733694 0
M  V30 16107 O 2823.07 -8.73148 1.23936 0
M  V30 16108 O 2822.53 -7.66872 -0.971405 0
M  V30 16109 C 2821.59 -7.42309 -2.04641 0
M  V30 16110 C 2822.32 -6.86059 -3.24661 0
M  V30 16111 O 2822.53 -5.42847 -3.03646 0
M  V30 16112 C 2823.72 -7.41196 -3.50753 0
M  V30 16113 O 2824.11 -7.27073 -4.86816 0
M  V30 16114 C 2824.6 -6.5273 -2.63741 0
M  V30 16115 C 2823.89 -5.1842 -2.73198 0
M  V30 16116 N 2823.94 -4.38762 -1.4784 0
M  V30 16117 H 2821.1 -8.36803 -2.32493 0
M  V30 16118 H 2820.83 -6.70197 -1.71129 0
M  V30 16119 H 2821.7 -7.03551 -4.13168 0
M  V30 16120 P 2825.66 -7.20834 -5.23717 0
M  V30 16121 O 2825.88 -7.7993 -6.57351 0
M  V30 16122 O 2826.45 -7.79328 -4.13004 0
M  V30 16123 O 2825.91 -5.63315 -5.29344 0
M  V30 16124 C 2824.97 -4.80193 -6.01798 0
M  V30 16125 C 2825.7 -3.64202 -6.65911 0
M  V30 16126 O 2825.91 -2.60694 -5.64732 0
M  V30 16127 C 2827.1 -3.93473 -7.1943 0
M  V30 16128 O 2827.49 -3.02071 -8.21205 0
M  V30 16129 C 2827.98 -3.73047 -5.97036 0
M  V30 16130 C 2827.27 -2.58828 -5.25741 0
M  V30 16131 N 2827.32 -2.6801 -3.77422 0
M  V30 16132 C 2827.47 -1.50443 -3.07133 0
M  V30 16133 O 2827.56 -0.419406 -3.61576 0
M  V30 16134 N 2827.51 -1.6403 -1.69677 0
M  V30 16135 C 2827.42 -2.81206 -0.986255 0
M  V30 16136 O 2827.47 -2.80892 0.249754 0
M  V30 16137 C 2827.27 -3.99158 -1.80325 0
M  V30 16138 C 2827.16 -5.29309 -1.06921 0
M  V30 16139 C 2827.22 -3.89779 -3.1476 0
M  V30 16140 H 2824.48 -5.40332 -6.79951 0
M  V30 16141 H 2824.21 -4.41549 -5.32301 0
M  V30 16142 H 2825.08 -3.26331 -7.47797 0
M  V30 16143 H 2827.74 -1.6395 -5.56554 0
M  V30 16144 H 2828.02 -4.63439 -5.3432 0
M  V30 16145 H 2829.01 -3.44728 -6.25838 0
M  V30 16146 H 2827.17 -4.96652 -7.57263 0
M  V30 16147 H 2827.1 -4.80159 -3.74441 0
M  V30 16148 H 2828.13 -5.81459 -1.09608 0
M  V30 16149 H 2826.4 -5.9187 -1.54487 0
M  V30 16150 H 2826.88 -5.10095 -0.0220288 0
M  V30 16151 H 2827.62 -0.798962 -1.16664 0
M  V30 16152 P 2829.04 -2.75334 -8.47391 0
M  V30 16153 O 2829.26 -2.44571 -9.90142 0
M  V30 16154 O 2829.83 -3.87688 -7.92115 0
M  V30 16155 O 2829.29 -1.4459 -7.59357 0
M  V30 16156 C 2828.35 -0.347608 -7.69215 0
M  V30 16157 C 2829.08 0.96767 -7.52806 0
M  V30 16158 O 2829.29 1.21036 -6.1011 0
M  V30 16159 C 2830.48 1.04544 -8.13308 0
M  V30 16160 O 2830.87 2.38311 -8.41922 0
M  V30 16161 C 2831.36 0.491279 -7.02284 0
M  V30 16162 C 2830.65 0.996264 -5.77469 0
M  V30 16163 N 2830.7 0.0501916 -4.62973 0
M  V30 16164 H 2827.86 -0.374722 -8.67691 0
M  V30 16165 H 2827.59 -0.443485 -6.90277 0
M  V30 16166 H 2828.46 1.75537 -7.96793 0
M  V30 16167 P 2832.42 2.75334 -8.47391 0
M  V30 16168 O 2832.64 3.84128 -9.44797 0
M  V30 16169 O 2833.21 1.51947 -8.68712 0
M  V30 16170 O 2832.67 3.29363 -6.99321 0
M  V30 16171 C 2831.73 4.24011 -6.4274 0
M  V30 16172 C 2832.46 5.20775 -5.52155 0
M  V30 16173 O 2832.67 4.56534 -4.22446 0
M  V30 16174 C 2833.86 5.62629 -5.96531 0
M  V30 16175 O 2834.25 6.87667 -5.41053 0
M  V30 16176 C 2834.74 4.52537 -5.39283 0
M  V30 16177 C 2834.03 4.20027 -4.08623 0
M  V30 16178 N 2834.08 2.76189 -3.71603 0
M  V30 16179 H 2831.24 4.797 -7.24003 0
M  V30 16180 H 2830.97 3.69856 -5.84513 0
M  V30 16181 H 2831.84 6.10356 -5.41441 0
M  V30 16182 P 2835.8 7.20834 -5.23717 0
M  V30 16183 O 2836.02 8.66104 -5.38572 0
M  V30 16184 O 2836.59 6.33544 -6.1349 0
M  V30 16185 O 2836.05 6.7751 -3.72168 0
M  V30 16186 C 2835.11 7.20825 -2.7076 0
M  V30 16187 C 2835.84 7.45864 -1.40599 0
M  V30 16188 O 2836.05 6.17651 -0.734225 0
M  V30 16189 C 2837.24 8.05808 -1.51899 0
M  V30 16190 O 2837.63 8.74358 -0.335205 0
M  V30 16191 C 2838.12 6.83093 -1.70294 0
M  V30 16192 C 2837.41 5.79992 -0.836974 0
M  V30 16193 N 2837.46 4.41864 -1.38293 0
M  V30 16194 H 2834.62 8.13644 -3.0377 0
M  V30 16195 H 2834.35 6.42788 -2.55485 0
M  V30 16196 H 2835.22 8.12039 -0.792769 0
M  V30 16197 P 2839.18 8.91 -8.50179e-11 0
M  V30 16198 O 2839.4 10.1726 0.733694 0
M  V30 16199 O 2839.97 8.73148 -1.23936 0
M  V30 16200 O 2839.43 7.66872 0.971405 0
M  V30 16201 C 2838.49 7.42309 2.04641 0
M  V30 16202 C 2839.22 6.86059 3.24661 0
M  V30 16203 O 2839.43 5.42847 3.03646 0
M  V30 16204 C 2840.62 7.41196 3.50753 0
M  V30 16205 O 2841.01 7.27073 4.86816 0
M  V30 16206 C 2841.5 6.5273 2.63741 0
M  V30 16207 C 2840.79 5.1842 2.73198 0
M  V30 16208 N 2840.84 4.38762 1.4784 0
M  V30 16209 H 2838 8.36803 2.32493 0
M  V30 16210 H 2837.73 6.70197 1.71129 0
M  V30 16211 H 2838.6 7.03551 4.13168 0
M  V30 16212 P 2842.56 7.20834 5.23717 0
M  V30 16213 O 2842.78 7.79853 6.57286 0
M  V30 16214 O 2843.35 7.79239 4.12957 0
M  V30 16215 O 2842.81 5.63315 5.29344 0
M  V30 16216 C 2841.87 4.80255 6.01876 0
M  V30 16217 C 2842.6 3.64202 6.65911 0
M  V30 16218 O 2842.81 2.60694 5.64732 0
M  V30 16219 C 2844 3.93473 7.1943 0
M  V30 16220 O 2844.39 3.02071 8.21205 0
M  V30 16221 C 2844.88 3.73047 5.97036 0
M  V30 16222 C 2844.17 2.58828 5.25741 0
M  V30 16223 N 2844.22 2.68068 3.77503 0
M  V30 16224 H 2841.38 5.40332 6.79951 0
M  V30 16225 H 2841.11 4.41613 5.32378 0
M  V30 16226 H 2841.98 3.26331 7.47797 0
M  V30 16227 P 2845.94 2.75334 8.47391 0
M  V30 16228 O 2846.16 2.44571 9.90142 0
M  V30 16229 O 2846.73 3.87688 7.92115 0
M  V30 16230 O 2846.19 1.4459 7.59357 0
M  V30 16231 C 2845.25 0.347608 7.69215 0
M  V30 16232 C 2845.98 -0.96767 7.52806 0
M  V30 16233 O 2846.19 -1.21036 6.1011 0
M  V30 16234 C 2847.38 -1.04544 8.13308 0
M  V30 16235 O 2847.77 -2.38311 8.41922 0
M  V30 16236 C 2848.26 -0.491279 7.02284 0
M  V30 16237 C 2847.55 -0.996264 5.77469 0
M  V30 16238 N 2847.6 -0.0501916 4.62973 0
M  V30 16239 C 2847.52 1.32786 4.63244 0
M  V30 16240 N 2847.6 1.86957 3.44545 0
M  V30 16241 C 2847.74 0.780241 2.58481 0
M  V30 16242 C 2847.87 0.738536 1.17757 0
M  V30 16243 O 2847.89 1.66794 0.372349 0
M  V30 16244 N 2847.99 -0.58337 0.711393 0
M  V30 16245 C 2847.99 -1.70816 1.51017 0
M  V30 16246 N 2848.12 -2.87826 0.880757 0
M  V30 16247 N 2847.86 -1.67126 2.8339 0
M  V30 16248 C 2847.74 -0.401421 3.30572 0
M  V30 16249 H 2844.76 0.374722 8.67691 0
M  V30 16250 H 2844.49 0.443485 6.90277 0
M  V30 16251 H 2845.36 -1.75537 7.96793 0
M  V30 16252 H 2848.02 -1.95076 5.46529 0
M  V30 16253 H 2848.3 0.608565 7.04577 0
M  V30 16254 H 2849.29 -0.889672 7.08939 0
M  V30 16255 H 2847.45 -0.43308 9.04564 0
M  V30 16256 H 2847.4 1.91249 5.54442 0
M  V30 16257 H 2848.09 -0.718054 -0.275244 0
M  V30 16258 H 2848.12 -3.75721 1.41832 0
M  V30 16259 H 2848.22 -2.90436 -0.145468 0
M  V30 16260 P 2849.32 -2.75334 8.47391 0
M  V30 16261 O 2849.54 -3.84128 9.44797 0
M  V30 16262 O 2850.11 -1.51947 8.68712 0
M  V30 16263 O 2849.57 -3.29363 6.99321 0
M  V30 16264 C 2848.63 -4.24011 6.4274 0
M  V30 16265 C 2849.36 -5.20775 5.52155 0
M  V30 16266 O 2849.57 -4.56534 4.22446 0
M  V30 16267 C 2850.76 -5.62629 5.96531 0
M  V30 16268 O 2851.15 -6.87667 5.41053 0
M  V30 16269 C 2851.64 -4.52537 5.39283 0
M  V30 16270 C 2850.93 -4.20027 4.08623 0
M  V30 16271 N 2850.98 -2.76189 3.71603 0
M  V30 16272 H 2848.14 -4.797 7.24003 0
M  V30 16273 H 2847.87 -3.69856 5.84513 0
M  V30 16274 H 2848.74 -6.10356 5.41441 0
M  V30 16275 P 2852.7 -7.20834 5.23717 0
M  V30 16276 O 2852.92 -8.66104 5.38572 0
M  V30 16277 O 2853.49 -6.33544 6.1349 0
M  V30 16278 O 2852.95 -6.7751 3.72168 0
M  V30 16279 C 2852.01 -7.20825 2.7076 0
M  V30 16280 C 2852.74 -7.45864 1.40599 0
M  V30 16281 O 2852.95 -6.17651 0.734225 0
M  V30 16282 C 2854.14 -8.05808 1.51899 0
M  V30 16283 O 2854.53 -8.74358 0.335205 0
M  V30 16284 C 2855.02 -6.83093 1.70294 0
M  V30 16285 C 2854.31 -5.79992 0.836974 0
M  V30 16286 N 2854.36 -4.41864 1.38293 0
M  V30 16287 H 2851.52 -8.13644 3.0377 0
M  V30 16288 H 2851.25 -6.42788 2.55485 0
M  V30 16289 H 2852.12 -8.12039 0.792769 0
M  V30 16290 P 2856.08 -8.91 8.61269e-11 0
M  V30 16291 O 2856.3 -10.1736 -0.733766 0
M  V30 16292 O 2856.87 -8.73247 1.2395 0
M  V30 16293 O 2856.33 -7.66872 -0.971405 0
M  V30 16294 C 2855.39 -7.42212 -2.04614 0
M  V30 16295 C 2856.12 -6.86059 -3.24661 0
M  V30 16296 O 2856.33 -5.42847 -3.03646 0
M  V30 16297 C 2857.52 -7.41196 -3.50753 0
M  V30 16298 O 2857.91 -7.27073 -4.86816 0
M  V30 16299 C 2858.4 -6.5273 -2.63741 0
M  V30 16300 C 2857.69 -5.1842 -2.73198 0
M  V30 16301 N 2857.74 -4.38668 -1.47808 0
M  V30 16302 C 2857.89 -3.02239 -1.60048 0
M  V30 16303 O 2857.98 -2.46459 -2.67869 0
M  V30 16304 N 2857.93 -2.32436 -0.408571 0
M  V30 16305 C 2857.84 -2.85471 0.854993 0
M  V30 16306 C 2857.69 -4.28918 0.887335 0
M  V30 16307 C 2857.64 -5.00349 -0.255399 0
M  V30 16308 H 2854.9 -8.36803 -2.32493 0
M  V30 16309 H 2854.63 -6.701 -1.71105 0
M  V30 16310 H 2855.5 -7.03551 -4.13168 0
M  V30 16311 H 2858.16 -4.59773 -3.53894 0
M  V30 16312 H 2858.44 -6.88995 -1.59871 0
M  V30 16313 H 2859.43 -6.46749 -3.03687 0
M  V30 16314 H 2857.59 -8.46908 -3.20714 0
M  V30 16315 H 2857.52 -6.08548 -0.206986 0
M  V30 16316 P 2859.46 -7.20834 -5.23717 0
M  V30 16317 O 2859.68 -7.80006 -6.57415 0
M  V30 16318 O 2860.25 -7.79416 -4.13051 0
M  V30 16319 O 2859.71 -5.63315 -5.29344 0
M  V30 16320 C 2858.77 -4.80318 -6.01954 0
M  V30 16321 C 2859.5 -3.64202 -6.65911 0
M  V30 16322 O 2859.71 -2.60736 -5.64823 0
M  V30 16323 C 2860.9 -3.93521 -7.19518 0
M  V30 16324 O 2861.29 -3.02071 -8.21205 0
M  V30 16325 C 2861.78 -3.73047 -5.97036 0
M  V30 16326 C 2861.07 -2.58828 -5.25741 0
M  V30 16327 N 2861.12 -2.68068 -3.77503 0
M  V30 16328 H 2858.29 -5.40394 -6.8003 0
M  V30 16329 H 2858.01 -4.41741 -5.32532 0
M  V30 16330 H 2858.88 -3.26371 -7.47889 0
M  V30 16331 H 2861.54 -1.64007 -5.56746 0
M  V30 16332 H 2861.82 -4.63439 -5.3432 0
M  V30 16333 H 2862.81 -3.44776 -6.25925 0
M  V30 16334 H 2860.97 -4.96707 -7.57347 0
M  V30 16335 P 2862.84 -2.75334 -8.47391 0
M  V30 16336 O 2863.06 -2.44571 -9.90142 0
M  V30 16337 O 2863.63 -3.87688 -7.92115 0
M  V30 16338 O 2863.09 -1.4459 -7.59357 0
M  V30 16339 C 2862.15 -0.347608 -7.69215 0
M  V30 16340 C 2862.88 0.96767 -7.52806 0
M  V30 16341 O 2863.09 1.21036 -6.1011 0
M  V30 16342 C 2864.28 1.04544 -8.13308 0
M  V30 16343 O 2864.67 2.38311 -8.41922 0
M  V30 16344 C 2865.16 0.491279 -7.02284 0
M  V30 16345 C 2864.45 0.996264 -5.77469 0
M  V30 16346 N 2864.5 0.0501916 -4.62973 0
M  V30 16347 H 2861.66 -0.374722 -8.67691 0
M  V30 16348 H 2861.39 -0.443485 -6.90277 0
M  V30 16349 H 2862.26 1.75537 -7.96793 0
M  V30 16350 P 2866.22 2.75334 -8.47391 0
M  V30 16351 O 2866.44 3.84128 -9.44797 0
M  V30 16352 O 2867.01 1.51947 -8.68712 0
M  V30 16353 O 2866.47 3.29363 -6.99321 0
M  V30 16354 C 2865.53 4.24011 -6.4274 0
M  V30 16355 C 2866.26 5.20775 -5.52155 0
M  V30 16356 O 2866.47 4.56534 -4.22446 0
M  V30 16357 C 2867.66 5.62629 -5.96531 0
M  V30 16358 O 2868.05 6.87667 -5.41053 0
M  V30 16359 C 2868.54 4.52537 -5.39283 0
M  V30 16360 C 2867.83 4.20027 -4.08623 0
M  V30 16361 N 2867.88 2.76189 -3.71603 0
M  V30 16362 H 2865.04 4.797 -7.24003 0
M  V30 16363 H 2864.77 3.69856 -5.84513 0
M  V30 16364 H 2865.64 6.10356 -5.41441 0
M  V30 16365 P 2869.6 7.20834 -5.23717 0
M  V30 16366 O 2869.82 8.66104 -5.38572 0
M  V30 16367 O 2870.39 6.33544 -6.1349 0
M  V30 16368 O 2869.85 6.7751 -3.72168 0
M  V30 16369 C 2868.91 7.20825 -2.7076 0
M  V30 16370 C 2869.64 7.45864 -1.40599 0
M  V30 16371 O 2869.85 6.17651 -0.734225 0
M  V30 16372 C 2871.04 8.05808 -1.51899 0
M  V30 16373 O 2871.43 8.74358 -0.335205 0
M  V30 16374 C 2871.92 6.83093 -1.70294 0
M  V30 16375 C 2871.21 5.79992 -0.836974 0
M  V30 16376 N 2871.26 4.41864 -1.38293 0
M  V30 16377 H 2868.42 8.13644 -3.0377 0
M  V30 16378 H 2868.15 6.42788 -2.55485 0
M  V30 16379 H 2869.02 8.12039 -0.792769 0
M  V30 16380 P 2872.98 8.91 -8.72359e-11 0
M  V30 16381 O 2873.2 10.1726 0.733694 0
M  V30 16382 O 2873.77 8.73148 -1.23936 0
M  V30 16383 O 2873.23 7.66872 0.971405 0
M  V30 16384 C 2872.29 7.42309 2.04641 0
M  V30 16385 C 2873.02 6.86059 3.24661 0
M  V30 16386 O 2873.23 5.42847 3.03646 0
M  V30 16387 C 2874.42 7.41196 3.50753 0
M  V30 16388 O 2874.81 7.27073 4.86816 0
M  V30 16389 C 2875.3 6.5273 2.63741 0
M  V30 16390 C 2874.59 5.1842 2.73198 0
M  V30 16391 N 2874.64 4.38762 1.4784 0
M  V30 16392 H 2871.8 8.36803 2.32493 0
M  V30 16393 H 2871.53 6.70197 1.71129 0
M  V30 16394 H 2872.4 7.03551 4.13168 0
M  V30 16395 P 2876.36 7.20834 5.23717 0
M  V30 16396 O 2876.58 7.79853 6.57286 0
M  V30 16397 O 2877.15 7.79239 4.12957 0
M  V30 16398 O 2876.61 5.63315 5.29344 0
M  V30 16399 C 2875.67 4.80255 6.01876 0
M  V30 16400 C 2876.4 3.64202 6.65911 0
M  V30 16401 O 2876.61 2.60694 5.64732 0
M  V30 16402 C 2877.8 3.93473 7.1943 0
M  V30 16403 O 2878.19 3.02071 8.21205 0
M  V30 16404 C 2878.68 3.73047 5.97036 0
M  V30 16405 C 2877.97 2.58828 5.25741 0
M  V30 16406 N 2878.02 2.68068 3.77503 0
M  V30 16407 H 2875.18 5.40332 6.79951 0
M  V30 16408 H 2874.91 4.41613 5.32378 0
M  V30 16409 H 2875.78 3.26331 7.47797 0
M  V30 16410 P 2879.74 2.75334 8.47391 0
M  V30 16411 O 2879.96 2.44571 9.90142 0
M  V30 16412 O 2880.53 3.87688 7.92115 0
M  V30 16413 O 2879.99 1.4459 7.59357 0
M  V30 16414 C 2879.05 0.347608 7.69215 0
M  V30 16415 C 2879.78 -0.96767 7.52806 0
M  V30 16416 O 2879.99 -1.21036 6.1011 0
M  V30 16417 C 2881.18 -1.04544 8.13308 0
M  V30 16418 O 2881.57 -2.38311 8.41922 0
M  V30 16419 C 2882.06 -0.491279 7.02284 0
M  V30 16420 C 2881.35 -0.996264 5.77469 0
M  V30 16421 N 2881.4 -0.0501916 4.62973 0
M  V30 16422 H 2878.56 0.374722 8.67691 0
M  V30 16423 H 2878.29 0.443485 6.90277 0
M  V30 16424 H 2879.16 -1.75537 7.96793 0
M  V30 16425 P 2883.12 -2.75334 8.47391 0
M  V30 16426 O 2883.34 -3.84166 9.4489 0
M  V30 16427 O 2883.91 -1.51964 8.6881 0
M  V30 16428 O 2883.37 -3.29363 6.99321 0
M  V30 16429 C 2882.43 -4.24011 6.4274 0
M  V30 16430 C 2883.16 -5.20775 5.52155 0
M  V30 16431 O 2883.37 -4.56534 4.22446 0
M  V30 16432 C 2884.56 -5.62629 5.96531 0
M  V30 16433 O 2884.95 -6.87667 5.41053 0
M  V30 16434 C 2885.44 -4.52537 5.39283 0
M  V30 16435 C 2884.73 -4.20027 4.08623 0
M  V30 16436 N 2884.78 -2.7613 3.71522 0
M  V30 16437 C 2884.93 -2.43702 2.37085 0
M  V30 16438 O 2885.02 -3.3531 1.54039 0
M  V30 16439 N 2884.98 -0.951103 2.10621 0
M  V30 16440 C 2884.88 -0.165021 2.93537 0
M  V30 16441 N 2884.93 1.09723 2.53253 0
M  V30 16442 C 2884.73 -0.469576 4.32458 0
M  V30 16443 C 2884.68 -1.78658 4.65921 0
M  V30 16444 H 2881.94 -4.79645 7.23919 0
M  V30 16445 H 2881.67 -3.69802 5.84429 0
M  V30 16446 H 2882.54 -6.10431 5.41508 0
M  V30 16447 H 2885.2 -4.78733 3.27967 0
M  V30 16448 H 2885.47 -3.64957 6.05871 0
M  V30 16449 H 2886.47 -4.8868 5.2125 0
M  V30 16450 H 2884.63 -5.66726 7.06352 0
M  V30 16451 H 2884.56 -2.06987 5.70299 0
M  V30 16452 H 2884.66 0.314383 5.07728 0
M  V30 16453 H 2885.05 1.31363 1.5319 0
M  V30 16454 H 2884.85 1.85978 3.21943 0
M  V30 16455 P 2886.5 -7.20834 5.23717 0
M  V30 16456 O 2886.72 -8.66104 5.38572 0
M  V30 16457 O 2887.29 -6.33544 6.1349 0
M  V30 16458 O 2886.75 -6.7751 3.72168 0
M  V30 16459 C 2885.81 -7.20825 2.7076 0
M  V30 16460 C 2886.54 -7.45864 1.40599 0
M  V30 16461 O 2886.75 -6.17651 0.734225 0
M  V30 16462 C 2887.94 -8.05808 1.51899 0
M  V30 16463 O 2888.33 -8.74358 0.335205 0
M  V30 16464 C 2888.82 -6.83093 1.70294 0
M  V30 16465 C 2888.11 -5.79992 0.836974 0
M  V30 16466 N 2888.16 -4.41864 1.38293 0
M  V30 16467 H 2885.32 -8.13644 3.0377 0
M  V30 16468 H 2885.05 -6.42788 2.55485 0
M  V30 16469 H 2885.92 -8.12039 0.792769 0
M  V30 16470 P 2889.88 -8.91 8.83449e-11 0
M  V30 16471 O 2890.1 -10.1746 -0.733838 0
M  V30 16472 O 2890.67 -8.73346 1.23964 0
M  V30 16473 O 2890.13 -7.66872 -0.971405 0
M  V30 16474 C 2889.19 -7.42405 -2.04668 0
M  V30 16475 C 2889.92 -6.86059 -3.24661 0
M  V30 16476 O 2890.13 -5.42934 -3.03695 0
M  V30 16477 C 2891.32 -7.41287 -3.50796 0
M  V30 16478 O 2891.71 -7.27073 -4.86816 0
M  V30 16479 C 2892.2 -6.5273 -2.63741 0
M  V30 16480 C 2891.49 -5.1842 -2.73198 0
M  V30 16481 N 2891.54 -4.38762 -1.4784 0
M  V30 16482 H 2888.7 -8.36899 -2.3252 0
M  V30 16483 H 2888.43 -6.70391 -1.71179 0
M  V30 16484 H 2889.3 -7.03638 -4.13219 0
M  V30 16485 H 2891.96 -4.59931 -3.54016 0
M  V30 16486 H 2892.24 -6.88995 -1.59871 0
M  V30 16487 H 2893.23 -6.4684 -3.0373 0
M  V30 16488 H 2891.39 -8.47002 -3.20749 0
M  V30 16489 P 2893.26 -7.20834 -5.23717 0
M  V30 16490 O 2893.48 -7.79853 -6.57286 0
M  V30 16491 O 2894.05 -7.79239 -4.12957 0
M  V30 16492 O 2893.51 -5.63315 -5.29344 0
M  V30 16493 C 2892.57 -4.80255 -6.01876 0
M  V30 16494 C 2893.3 -3.64202 -6.65911 0
M  V30 16495 O 2893.51 -2.60694 -5.64732 0
M  V30 16496 C 2894.7 -3.93473 -7.1943 0
M  V30 16497 O 2895.09 -3.02071 -8.21205 0
M  V30 16498 C 2895.58 -3.73047 -5.97036 0
M  V30 16499 C 2894.87 -2.58828 -5.25741 0
M  V30 16500 N 2894.92 -2.68068 -3.77503 0
M  V30 16501 H 2892.08 -5.40332 -6.79951 0
M  V30 16502 H 2891.81 -4.41613 -5.32378 0
M  V30 16503 H 2892.68 -3.26331 -7.47797 0
M  V30 16504 P 2896.64 -2.75334 -8.47391 0
M  V30 16505 O 2896.86 -2.44595 -9.90239 0
M  V30 16506 O 2897.43 -3.87732 -7.92204 0
M  V30 16507 O 2896.89 -1.4459 -7.59357 0
M  V30 16508 C 2895.95 -0.347563 -7.69115 0
M  V30 16509 C 2896.68 0.96767 -7.52806 0
M  V30 16510 O 2896.89 1.21036 -6.1011 0
M  V30 16511 C 2898.08 1.04544 -8.13308 0
M  V30 16512 O 2898.47 2.38311 -8.41922 0
M  V30 16513 C 2898.96 0.491279 -7.02284 0
M  V30 16514 C 2898.25 0.996264 -5.77469 0
M  V30 16515 N 2898.3 0.0501808 -4.62873 0
M  V30 16516 C 2898.45 0.588177 -3.36904 0
M  V30 16517 O 2898.54 1.78598 -3.17173 0
M  V30 16518 N 2898.49 -0.329694 -2.33686 0
M  V30 16519 C 2898.4 -1.6953 -2.45079 0
M  V30 16520 C 2898.25 -2.16933 -3.80505 0
M  V30 16521 C 2898.2 -1.30326 -4.83752 0
M  V30 16522 H 2895.46 -0.374722 -8.67691 0
M  V30 16523 H 2895.19 -0.443421 -6.90177 0
M  V30 16524 H 2896.06 1.75537 -7.96793 0
M  V30 16525 H 2898.72 1.94496 -5.46629 0
M  V30 16526 H 2898.99 -0.608651 -7.04676 0
M  V30 16527 H 2899.99 0.889672 -7.08939 0
M  V30 16528 H 2898.15 0.43308 -9.04564 0
M  V30 16529 H 2898.08 -1.68366 -5.8516 0
M  V30 16530 P 2900.02 2.75334 -8.47391 0
M  V30 16531 O 2900.24 3.84166 -9.4489 0
M  V30 16532 O 2900.81 1.51964 -8.6881 0
M  V30 16533 O 2900.27 3.29363 -6.99321 0
M  V30 16534 C 2899.33 4.23956 -6.42656 0
M  V30 16535 C 2900.06 5.20775 -5.52155 0
M  V30 16536 O 2900.27 4.56534 -4.22446 0
M  V30 16537 C 2901.46 5.62629 -5.96531 0
M  V30 16538 O 2901.85 6.87667 -5.41053 0
M  V30 16539 C 2902.34 4.52537 -5.39283 0
M  V30 16540 C 2901.63 4.20027 -4.08623 0
M  V30 16541 N 2901.68 2.7613 -3.71522 0
M  V30 16542 C 2901.83 2.45612 -2.37989 0
M  V30 16543 O 2901.92 3.30919 -1.51621 0
M  V30 16544 N 2901.87 1.10684 -2.08435 0
M  V30 16545 C 2901.78 0.0690084 -2.9792 0
M  V30 16546 O 2901.83 -1.10553 -2.59426 0
M  V30 16547 C 2901.63 0.481522 -4.35345 0
M  V30 16548 C 2901.52 -0.618778 -5.36443 0
M  V30 16549 C 2901.58 1.78906 -4.67968 0
M  V30 16550 H 2898.84 4.797 -7.24003 0
M  V30 16551 H 2898.57 3.69802 -5.84429 0
M  V30 16552 H 2899.44 6.10356 -5.41441 0
M  V30 16553 H 2902.1 4.78651 -3.27911 0
M  V30 16554 H 2902.37 3.64957 -6.05871 0
M  V30 16555 H 2903.37 4.8868 -5.2125 0
M  V30 16556 H 2901.53 5.66726 -7.06352 0
M  V30 16557 H 2901.46 2.07737 -5.72367 0
M  V30 16558 H 2902.49 -0.754375 -5.86871 0
M  V30 16559 H 2900.75 -0.359721 -6.10641 0
M  V30 16560 H 2901.24 -1.55533 -4.8581 0
M  V30 16561 H 2901.98 0.862651 -1.12037 0
M  V30 16562 P 2903.4 7.20834 -5.23717 0
M  V30 16563 O 2903.62 8.66274 -5.38678 0
M  V30 16564 O 2904.19 6.33687 -6.13629 0
M  V30 16565 O 2903.65 6.7751 -3.72168 0
M  V30 16566 C 2902.71 7.20919 -2.70795 0
M  V30 16567 C 2903.44 7.45864 -1.40599 0
M  V30 16568 O 2903.65 6.17751 -0.734343 0
M  V30 16569 C 2904.84 8.05906 -1.51917 0
M  V30 16570 O 2905.23 8.74358 -0.335205 0
M  V30 16571 C 2905.72 6.83093 -1.70294 0
M  V30 16572 C 2905.01 5.79992 -0.836974 0
M  V30 16573 N 2905.06 4.41864 -1.38293 0
M  V30 16574 C 2904.98 4.02089 -2.69407 0
M  V30 16575 N 2905.05 2.73403 -2.85089 0
M  V30 16576 C 2905.2 2.25086 -1.5642 0
M  V30 16577 C 2905.33 0.942887 -1.04836 0
M  V30 16578 N 2905.34 -0.150999 -1.80369 0
M  V30 16579 N 2905.45 0.812565 0.28167 0
M  V30 16580 C 2905.44 1.90572 1.03784 0
M  V30 16581 N 2905.32 3.167 0.683905 0
M  V30 16582 C 2905.2 3.26538 -0.652815 0
M  V30 16583 H 2902.22 8.13738 -3.03804 0
M  V30 16584 H 2901.95 6.42974 -2.55559 0
M  V30 16585 H 2902.82 8.12139 -0.792866 0
M  V30 16586 H 2905.48 5.80178 0.160643 0
M  V30 16587 H 2905.76 6.51379 -2.75643 0
M  V30 16588 H 2906.75 7.01832 -1.3448 0
M  V30 16589 H 2904.91 8.73771 -2.38364 0
M  V30 16590 H 2904.87 4.7189 -3.52311 0
M  V30 16591 H 2905.25 -0.0721434 -2.82608 0
M  V30 16592 H 2905.44 -1.0785 -1.36544 0
M  V30 16593 H 2905.55 1.73207 2.10241 0
M  V30 16594 P 2906.78 8.91 -8.94539e-11 0
M  V30 16595 O 2907 10.1726 0.733694 0
M  V30 16596 O 2907.57 8.73148 -1.23936 0
M  V30 16597 O 2907.03 7.66872 0.971405 0
M  V30 16598 C 2906.09 7.42309 2.04641 0
M  V30 16599 C 2906.82 6.86059 3.24661 0
M  V30 16600 O 2907.03 5.42847 3.03646 0
M  V30 16601 C 2908.22 7.41196 3.50753 0
M  V30 16602 O 2908.61 7.27073 4.86816 0
M  V30 16603 C 2909.1 6.5273 2.63741 0
M  V30 16604 C 2908.39 5.1842 2.73198 0
M  V30 16605 N 2908.44 4.38762 1.4784 0
M  V30 16606 H 2905.6 8.36803 2.32493 0
M  V30 16607 H 2905.33 6.70197 1.71129 0
M  V30 16608 H 2906.2 7.03551 4.13168 0
M  V30 16609 P 2910.16 7.20834 5.23717 0
M  V30 16610 O 2910.38 7.79853 6.57286 0
M  V30 16611 O 2910.95 7.79239 4.12957 0
M  V30 16612 O 2910.41 5.63315 5.29344 0
M  V30 16613 C 2909.47 4.80255 6.01876 0
M  V30 16614 C 2910.2 3.64202 6.65911 0
M  V30 16615 O 2910.41 2.60694 5.64732 0
M  V30 16616 C 2911.6 3.93473 7.1943 0
M  V30 16617 O 2911.99 3.02071 8.21205 0
M  V30 16618 C 2912.48 3.73047 5.97036 0
M  V30 16619 C 2911.77 2.58828 5.25741 0
M  V30 16620 N 2911.82 2.68068 3.77503 0
M  V30 16621 H 2908.98 5.40332 6.79951 0
M  V30 16622 H 2908.71 4.41613 5.32378 0
M  V30 16623 H 2909.58 3.26331 7.47797 0
M  V30 16624 P 2913.54 2.75334 8.47391 0
M  V30 16625 O 2913.76 2.44571 9.90142 0
M  V30 16626 O 2914.33 3.87688 7.92115 0
M  V30 16627 O 2913.79 1.4459 7.59357 0
M  V30 16628 C 2912.85 0.347608 7.69215 0
M  V30 16629 C 2913.58 -0.96767 7.52806 0
M  V30 16630 O 2913.79 -1.21036 6.1011 0
M  V30 16631 C 2914.98 -1.04544 8.13308 0
M  V30 16632 O 2915.37 -2.38311 8.41922 0
M  V30 16633 C 2915.86 -0.491279 7.02284 0
M  V30 16634 C 2915.15 -0.996264 5.77469 0
M  V30 16635 N 2915.2 -0.0501916 4.62973 0
M  V30 16636 C 2915.12 1.32786 4.63244 0
M  V30 16637 N 2915.2 1.86957 3.44545 0
M  V30 16638 C 2915.34 0.780241 2.58481 0
M  V30 16639 C 2915.47 0.738536 1.17757 0
M  V30 16640 N 2915.59 -0.58337 0.711393 0
M  V30 16641 C 2915.59 -1.70816 1.51017 0
M  V30 16642 N 2915.72 -2.87826 0.880757 0
M  V30 16643 N 2915.46 -1.67126 2.8339 0
M  V30 16644 C 2915.34 -0.401421 3.30572 0
M  V30 16645 H 2912.36 0.374722 8.67691 0
M  V30 16646 H 2912.09 0.443485 6.90277 0
M  V30 16647 H 2912.96 -1.75537 7.96793 0
M  V30 16648 P 2916.92 -2.75334 8.47391 0
M  V30 16649 O 2917.14 -3.84128 9.44797 0
M  V30 16650 O 2917.71 -1.51947 8.68712 0
M  V30 16651 O 2917.17 -3.29363 6.99321 0
M  V30 16652 C 2916.23 -4.24011 6.4274 0
M  V30 16653 C 2916.96 -5.20775 5.52155 0
M  V30 16654 O 2917.17 -4.56534 4.22446 0
M  V30 16655 C 2918.36 -5.62629 5.96531 0
M  V30 16656 O 2918.75 -6.87667 5.41053 0
M  V30 16657 C 2919.24 -4.52537 5.39283 0
M  V30 16658 C 2918.53 -4.20027 4.08623 0
M  V30 16659 N 2918.58 -2.76189 3.71603 0
M  V30 16660 C 2918.5 -1.64862 4.52822 0
M  V30 16661 N 2918.58 -0.512671 3.88633 0
M  V30 16662 C 2918.72 -0.888083 2.54977 0
M  V30 16663 C 2918.85 -0.094668 1.38677 0
M  V30 16664 O 2918.87 1.13053 1.28163 0
M  V30 16665 N 2918.97 -0.890102 0.232633 0
M  V30 16666 C 2918.97 -2.26958 0.21772 0
M  V30 16667 N 2919.1 -2.84626 -0.97925 0
M  V30 16668 N 2918.84 -3.0178 1.31033 0
M  V30 16669 C 2918.72 -2.26781 2.43843 0
M  V30 16670 H 2915.74 -4.797 7.24003 0
M  V30 16671 H 2915.47 -3.69856 5.84513 0
M  V30 16672 H 2916.34 -6.10356 5.41441 0
M  V30 16673 H 2919 -4.79061 3.27488 0
M  V30 16674 H 2919.27 -3.64906 6.05785 0
M  V30 16675 H 2920.27 -4.8868 5.2125 0
M  V30 16676 H 2918.43 -5.66726 7.06352 0
M  V30 16677 H 2918.38 -1.71169 5.60966 0
M  V30 16678 H 2919.07 -0.419134 -0.644739 0
M  V30 16679 H 2919.1 -3.87332 -1.06098 0
M  V30 16680 H 2919.2 -2.26417 -1.82483 0
M  V30 16681 P 2920.3 -7.20834 5.23717 0
M  V30 16682 O 2920.52 -8.66104 5.38572 0
M  V30 16683 O 2921.09 -6.33544 6.1349 0
M  V30 16684 O 2920.55 -6.7751 3.72168 0
M  V30 16685 C 2919.61 -7.20825 2.7076 0
M  V30 16686 C 2920.34 -7.45864 1.40599 0
M  V30 16687 O 2920.55 -6.17651 0.734225 0
M  V30 16688 C 2921.74 -8.05808 1.51899 0
M  V30 16689 O 2922.13 -8.74358 0.335205 0
M  V30 16690 C 2922.62 -6.83093 1.70294 0
M  V30 16691 C 2921.91 -5.79992 0.836974 0
M  V30 16692 N 2921.96 -4.41864 1.38293 0
M  V30 16693 H 2919.12 -8.13644 3.0377 0
M  V30 16694 H 2918.85 -6.42788 2.55485 0
M  V30 16695 H 2919.72 -8.12039 0.792769 0
M  V30 16696 P 2923.68 -8.91 9.05629e-11 0
M  V30 16697 O 2923.9 -10.1726 -0.733694 0
M  V30 16698 O 2924.47 -8.73148 1.23936 0
M  V30 16699 O 2923.93 -7.66872 -0.971405 0
M  V30 16700 C 2922.99 -7.42309 -2.04641 0
M  V30 16701 C 2923.72 -6.86059 -3.24661 0
M  V30 16702 O 2923.93 -5.42847 -3.03646 0
M  V30 16703 C 2925.12 -7.41196 -3.50753 0
M  V30 16704 O 2925.51 -7.27073 -4.86816 0
M  V30 16705 C 2926 -6.5273 -2.63741 0
M  V30 16706 C 2925.29 -5.1842 -2.73198 0
M  V30 16707 N 2925.34 -4.38762 -1.4784 0
M  V30 16708 H 2922.5 -8.36803 -2.32493 0
M  V30 16709 H 2922.23 -6.70197 -1.71129 0
M  V30 16710 H 2923.1 -7.03551 -4.13168 0
M  V30 16711 P 2927.06 -7.20834 -5.23717 0
M  V30 16712 O 2927.28 -7.7993 -6.57351 0
M  V30 16713 O 2927.85 -7.79328 -4.13004 0
M  V30 16714 O 2927.31 -5.63315 -5.29344 0
M  V30 16715 C 2926.37 -4.80193 -6.01798 0
M  V30 16716 C 2927.1 -3.64202 -6.65911 0
M  V30 16717 O 2927.31 -2.60694 -5.64732 0
M  V30 16718 C 2928.5 -3.93473 -7.1943 0
M  V30 16719 O 2928.89 -3.02071 -8.21205 0
M  V30 16720 C 2929.38 -3.73047 -5.97036 0
M  V30 16721 C 2928.67 -2.58828 -5.25741 0
M  V30 16722 N 2928.72 -2.6801 -3.77422 0
M  V30 16723 C 2928.87 -1.50443 -3.07133 0
M  V30 16724 O 2928.96 -0.419406 -3.61576 0
M  V30 16725 N 2928.91 -1.6403 -1.69677 0
M  V30 16726 C 2928.82 -2.81206 -0.986255 0
M  V30 16727 O 2928.87 -2.80892 0.249754 0
M  V30 16728 C 2928.67 -3.99158 -1.80325 0
M  V30 16729 C 2928.56 -5.29309 -1.06921 0
M  V30 16730 C 2928.62 -3.89779 -3.1476 0
M  V30 16731 H 2925.88 -5.40332 -6.79951 0
M  V30 16732 H 2925.61 -4.41549 -5.32301 0
M  V30 16733 H 2926.48 -3.26331 -7.47797 0
M  V30 16734 H 2929.14 -1.6395 -5.56554 0
M  V30 16735 H 2929.41 -4.63439 -5.3432 0
M  V30 16736 H 2930.41 -3.44728 -6.25838 0
M  V30 16737 H 2928.57 -4.96652 -7.57263 0
M  V30 16738 H 2928.5 -4.80159 -3.74441 0
M  V30 16739 H 2929.53 -5.81459 -1.09608 0
M  V30 16740 H 2927.79 -5.9187 -1.54487 0
M  V30 16741 H 2928.28 -5.10095 -0.0220288 0
M  V30 16742 H 2929.02 -0.798962 -1.16664 0
M  V30 16743 P 2930.44 -2.75334 -8.47391 0
M  V30 16744 O 2930.66 -2.44571 -9.90142 0
M  V30 16745 O 2931.23 -3.87688 -7.92115 0
M  V30 16746 O 2930.69 -1.4459 -7.59357 0
M  V30 16747 C 2929.75 -0.347608 -7.69215 0
M  V30 16748 C 2930.48 0.96767 -7.52806 0
M  V30 16749 O 2930.69 1.21036 -6.1011 0
M  V30 16750 C 2931.88 1.04544 -8.13308 0
M  V30 16751 O 2932.27 2.38311 -8.41922 0
M  V30 16752 C 2932.76 0.491279 -7.02284 0
M  V30 16753 C 2932.05 0.996264 -5.77469 0
M  V30 16754 N 2932.1 0.0501916 -4.62973 0
M  V30 16755 C 2932.02 -1.32786 -4.63244 0
M  V30 16756 N 2932.1 -1.86957 -3.44545 0
M  V30 16757 C 2932.24 -0.780241 -2.58481 0
M  V30 16758 C 2932.37 -0.738536 -1.17757 0
M  V30 16759 O 2932.39 -1.66794 -0.372349 0
M  V30 16760 N 2932.49 0.58337 -0.711393 0
M  V30 16761 C 2932.49 1.70816 -1.51017 0
M  V30 16762 N 2932.62 2.87826 -0.880757 0
M  V30 16763 N 2932.36 1.67126 -2.8339 0
M  V30 16764 C 2932.24 0.401421 -3.30572 0
M  V30 16765 H 2929.26 -0.374722 -8.67691 0
M  V30 16766 H 2928.99 -0.443485 -6.90277 0
M  V30 16767 H 2929.86 1.75537 -7.96793 0
M  V30 16768 H 2932.52 1.95076 -5.46529 0
M  V30 16769 H 2932.79 -0.608565 -7.04577 0
M  V30 16770 H 2933.79 0.889672 -7.08939 0
M  V30 16771 H 2931.95 0.43308 -9.04564 0
M  V30 16772 H 2931.9 -1.91249 -5.54442 0
M  V30 16773 H 2932.59 0.718054 0.275244 0
M  V30 16774 H 2932.62 3.75721 -1.41832 0
M  V30 16775 H 2932.72 2.90436 0.145468 0
M  V30 16776 P 2933.82 2.75334 -8.47391 0
M  V30 16777 O 2934.04 3.84128 -9.44797 0
M  V30 16778 O 2934.61 1.51947 -8.68712 0
M  V30 16779 O 2934.07 3.29363 -6.99321 0
M  V30 16780 C 2933.13 4.24011 -6.4274 0
M  V30 16781 C 2933.86 5.20775 -5.52155 0
M  V30 16782 O 2934.07 4.56534 -4.22446 0
M  V30 16783 C 2935.26 5.62629 -5.96531 0
M  V30 16784 O 2935.65 6.87667 -5.41053 0
M  V30 16785 C 2936.14 4.52537 -5.39283 0
M  V30 16786 C 2935.43 4.20027 -4.08623 0
M  V30 16787 N 2935.48 2.76189 -3.71603 0
M  V30 16788 H 2932.64 4.797 -7.24003 0
M  V30 16789 H 2932.37 3.69856 -5.84513 0
M  V30 16790 H 2933.24 6.10356 -5.41441 0
M  V30 16791 P 2937.2 7.20834 -5.23717 0
M  V30 16792 O 2937.42 8.66189 -5.38625 0
M  V30 16793 O 2937.99 6.33615 -6.1356 0
M  V30 16794 O 2937.45 6.7751 -3.72168 0
M  V30 16795 C 2936.51 7.20732 -2.70725 0
M  V30 16796 C 2937.24 7.45864 -1.40599 0
M  V30 16797 O 2937.45 6.17651 -0.734225 0
M  V30 16798 C 2938.64 8.05808 -1.51899 0
M  V30 16799 O 2939.03 8.74358 -0.335205 0
M  V30 16800 C 2939.52 6.83093 -1.70294 0
M  V30 16801 C 2938.81 5.79992 -0.836974 0
M  V30 16802 N 2938.86 4.41769 -1.38263 0
M  V30 16803 C 2939.01 3.38591 -0.481702 0
M  V30 16804 O 2939.1 3.56839 0.718452 0
M  V30 16805 N 2939.05 2.1206 -1.03569 0
M  V30 16806 C 2938.96 1.80696 -2.36966 0
M  V30 16807 O 2939.01 0.630473 -2.74862 0
M  V30 16808 C 2938.81 2.94845 -3.23898 0
M  V30 16809 C 2938.7 2.65253 -4.70362 0
M  V30 16810 C 2938.76 4.19803 -2.73435 0
M  V30 16811 H 2936.02 8.13644 -3.0377 0
M  V30 16812 H 2935.75 6.42695 -2.55448 0
M  V30 16813 H 2936.62 8.12039 -0.792769 0
M  V30 16814 H 2939.28 5.79978 0.160587 0
M  V30 16815 H 2939.55 6.51379 -2.75643 0
M  V30 16816 H 2940.55 7.01734 -1.34462 0
M  V30 16817 H 2938.71 8.73674 -2.38337 0
M  V30 16818 H 2938.64 5.04492 -3.4095 0
M  V30 16819 H 2939.67 2.83924 -5.1913 0
M  V30 16820 H 2937.93 3.29824 -5.15163 0
M  V30 16821 H 2938.42 1.59723 -4.84449 0
M  V30 16822 H 2939.16 1.35644 -0.399345 0
M  V30 16823 P 2940.58 8.91 -9.16719e-11 0
M  V30 16824 O 2940.8 10.1736 0.733766 0
M  V30 16825 O 2941.37 8.73247 -1.2395 0
M  V30 16826 O 2940.83 7.66872 0.971405 0
M  V30 16827 C 2939.89 7.42212 2.04614 0
M  V30 16828 C 2940.62 6.86059 3.24661 0
M  V30 16829 O 2940.83 5.42847 3.03646 0
M  V30 16830 C 2942.02 7.41196 3.50753 0
M  V30 16831 O 2942.41 7.27073 4.86816 0
M  V30 16832 C 2942.9 6.5273 2.63741 0
M  V30 16833 C 2942.19 5.1842 2.73198 0
M  V30 16834 N 2942.24 4.38668 1.47808 0
M  V30 16835 C 2942.39 3.02239 1.60048 0
M  V30 16836 O 2942.48 2.46459 2.67869 0
M  V30 16837 N 2942.43 2.32436 0.408571 0
M  V30 16838 C 2942.34 2.85471 -0.854993 0
M  V30 16839 O 2942.39 2.12566 -1.8531 0
M  V30 16840 C 2942.19 4.28918 -0.887335 0
M  V30 16841 C 2942.08 4.91066 -2.24619 0
M  V30 16842 C 2942.14 5.00349 0.255399 0
M  V30 16843 H 2939.4 8.36803 2.32493 0
M  V30 16844 H 2939.13 6.701 1.71105 0
M  V30 16845 H 2940 7.03551 4.13168 0
M  V30 16846 H 2942.66 4.59773 3.53894 0
M  V30 16847 H 2942.93 6.88995 1.59871 0
M  V30 16848 H 2943.93 6.46749 3.03687 0
M  V30 16849 H 2942.09 8.46908 3.20714 0
M  V30 16850 H 2942.02 6.08548 0.206986 0
M  V30 16851 H 2943.05 5.34836 -2.53099 0
M  V30 16852 H 2941.31 5.69638 -2.2291 0
M  V30 16853 H 2941.8 4.13971 -2.98044 0
M  V30 16854 H 2942.54 1.33211 0.474216 0
M  V30 16855 P 2943.96 7.20834 5.23717 0
M  V30 16856 O 2944.18 7.79853 6.57286 0
M  V30 16857 O 2944.75 7.79239 4.12957 0
M  V30 16858 O 2944.21 5.63315 5.29344 0
M  V30 16859 C 2943.27 4.80255 6.01876 0
M  V30 16860 C 2944 3.64202 6.65911 0
M  V30 16861 O 2944.21 2.60694 5.64732 0
M  V30 16862 C 2945.4 3.93473 7.1943 0
M  V30 16863 O 2945.79 3.02071 8.21205 0
M  V30 16864 C 2946.28 3.73047 5.97036 0
M  V30 16865 C 2945.57 2.58828 5.25741 0
M  V30 16866 N 2945.62 2.68068 3.77503 0
M  V30 16867 H 2942.78 5.40332 6.79951 0
M  V30 16868 H 2942.51 4.41613 5.32378 0
M  V30 16869 H 2943.38 3.26331 7.47797 0
M  V30 16870 P 2947.34 2.75334 8.47391 0
M  V30 16871 O 2947.56 2.44595 9.90239 0
M  V30 16872 O 2948.13 3.87732 7.92204 0
M  V30 16873 O 2947.59 1.4459 7.59357 0
M  V30 16874 C 2946.65 0.347563 7.69115 0
M  V30 16875 C 2947.38 -0.96767 7.52806 0
M  V30 16876 O 2947.59 -1.21036 6.1011 0
M  V30 16877 C 2948.78 -1.04544 8.13308 0
M  V30 16878 O 2949.17 -2.38311 8.41922 0
M  V30 16879 C 2949.66 -0.491279 7.02284 0
M  V30 16880 C 2948.95 -0.996264 5.77469 0
M  V30 16881 N 2949 -0.0501808 4.62873 0
M  V30 16882 C 2949.15 -0.588177 3.36904 0
M  V30 16883 O 2949.24 -1.78598 3.17173 0
M  V30 16884 N 2949.19 0.329694 2.33686 0
M  V30 16885 C 2949.1 1.6953 2.45079 0
M  V30 16886 O 2949.15 2.41926 1.44899 0
M  V30 16887 C 2948.95 2.16933 3.80505 0
M  V30 16888 C 2948.84 3.65373 3.97621 0
M  V30 16889 C 2948.9 1.30326 4.83752 0
M  V30 16890 H 2946.16 0.374722 8.67691 0
M  V30 16891 H 2945.89 0.443421 6.90177 0
M  V30 16892 H 2946.76 -1.75537 7.96793 0
M  V30 16893 H 2949.42 -1.94496 5.46629 0
M  V30 16894 H 2949.69 0.608651 7.04676 0
M  V30 16895 H 2950.69 -0.889672 7.08939 0
M  V30 16896 H 2948.85 -0.43308 9.04564 0
M  V30 16897 H 2948.78 1.68366 5.8516 0
M  V30 16898 H 2949.81 4.05985 4.30448 0
M  V30 16899 H 2948.07 3.88028 4.72875 0
M  V30 16900 H 2948.56 4.11381 3.01609 0
M  V30 16901 H 2949.3 -0.0393617 1.41345 0
M  V30 16902 P 2950.72 -2.75334 8.47391 0
M  V30 16903 O 2950.94 -3.84128 9.44797 0
M  V30 16904 O 2951.51 -1.51947 8.68712 0
M  V30 16905 O 2950.97 -3.29363 6.99321 0
M  V30 16906 C 2950.03 -4.24011 6.4274 0
M  V30 16907 C 2950.76 -5.20775 5.52155 0
M  V30 16908 O 2950.97 -4.56534 4.22446 0
M  V30 16909 C 2952.16 -5.62629 5.96531 0
M  V30 16910 O 2952.55 -6.87667 5.41053 0
M  V30 16911 C 2953.04 -4.52537 5.39283 0
M  V30 16912 C 2952.33 -4.20027 4.08623 0
M  V30 16913 N 2952.38 -2.76189 3.71603 0
M  V30 16914 H 2949.54 -4.797 7.24003 0
M  V30 16915 H 2949.27 -3.69856 5.84513 0
M  V30 16916 H 2950.14 -6.10356 5.41441 0
M  V30 16917 P 2954.1 -7.20834 5.23717 0
M  V30 16918 O 2954.32 -8.66104 5.38572 0
M  V30 16919 O 2954.89 -6.33544 6.1349 0
M  V30 16920 O 2954.35 -6.7751 3.72168 0
M  V30 16921 C 2953.41 -7.20825 2.7076 0
M  V30 16922 C 2954.14 -7.45864 1.40599 0
M  V30 16923 O 2954.35 -6.17651 0.734225 0
M  V30 16924 C 2955.54 -8.05808 1.51899 0
M  V30 16925 O 2955.93 -8.74358 0.335205 0
M  V30 16926 C 2956.42 -6.83093 1.70294 0
M  V30 16927 C 2955.71 -5.79992 0.836974 0
M  V30 16928 N 2955.76 -4.41864 1.38293 0
M  V30 16929 H 2952.92 -8.13644 3.0377 0
M  V30 16930 H 2952.65 -6.42788 2.55485 0
M  V30 16931 H 2953.52 -8.12039 0.792769 0
M  V30 16932 P 2957.48 -8.91 9.27809e-11 0
M  V30 16933 O 2957.7 -10.1746 -0.733838 0
M  V30 16934 O 2958.27 -8.73346 1.23964 0
M  V30 16935 O 2957.73 -7.66872 -0.971405 0
M  V30 16936 C 2956.79 -7.42405 -2.04668 0
M  V30 16937 C 2957.52 -6.86059 -3.24661 0
M  V30 16938 O 2957.73 -5.42934 -3.03695 0
M  V30 16939 C 2958.92 -7.41287 -3.50796 0
M  V30 16940 O 2959.31 -7.27073 -4.86816 0
M  V30 16941 C 2959.8 -6.5273 -2.63741 0
M  V30 16942 C 2959.09 -5.1842 -2.73198 0
M  V30 16943 N 2959.14 -4.38762 -1.4784 0
M  V30 16944 C 2959.06 -4.83651 -0.183876 0
M  V30 16945 N 2959.13 -3.88759 0.699393 0
M  V30 16946 C 2959.28 -2.7404 -0.0575568 0
M  V30 16947 C 2959.41 -1.37902 0.293928 0
M  V30 16948 N 2959.42 -0.938021 1.54797 0
M  V30 16949 N 2959.53 -0.491817 -0.70549 0
M  V30 16950 C 2959.52 -0.931735 -1.95979 0
M  V30 16951 N 2959.4 -2.16017 -2.41481 0
M  V30 16952 C 2959.28 -3.02547 -1.39121 0
M  V30 16953 H 2956.3 -8.36899 -2.3252 0
M  V30 16954 H 2956.03 -6.70391 -1.71179 0
M  V30 16955 H 2956.9 -7.03638 -4.13219 0
M  V30 16956 H 2959.56 -4.59931 -3.54016 0
M  V30 16957 H 2959.84 -6.88995 -1.59871 0
M  V30 16958 H 2960.83 -6.4684 -3.0373 0
M  V30 16959 H 2958.99 -8.47002 -3.20749 0
M  V30 16960 H 2958.95 -5.8885 0.0765548 0
M  V30 16961 H 2959.33 -1.60276 2.32875 0
M  V30 16962 H 2959.52 0.0699355 1.73859 0
M  V30 16963 H 2959.63 -0.165507 -2.71897 0
M  V30 16964 P 2960.86 -7.20834 -5.23717 0
M  V30 16965 O 2961.08 -7.80006 -6.57415 0
M  V30 16966 O 2961.65 -7.79416 -4.13051 0
M  V30 16967 O 2961.11 -5.63315 -5.29344 0
M  V30 16968 C 2960.17 -4.80318 -6.01954 0
M  V30 16969 C 2960.9 -3.64202 -6.65911 0
M  V30 16970 O 2961.11 -2.60736 -5.64823 0
M  V30 16971 C 2962.3 -3.93521 -7.19518 0
M  V30 16972 O 2962.69 -3.02071 -8.21205 0
M  V30 16973 C 2963.18 -3.73047 -5.97036 0
M  V30 16974 C 2962.47 -2.58828 -5.25741 0
M  V30 16975 N 2962.52 -2.68068 -3.77503 0
M  V30 16976 C 2962.44 -3.80474 -2.99159 0
M  V30 16977 N 2962.51 -3.55622 -1.71925 0
M  V30 16978 C 2962.66 -2.1832 -1.65733 0
M  V30 16979 C 2962.79 -1.28842 -0.572777 0
M  V30 16980 N 2962.8 -1.66875 0.70098 0
M  V30 16981 N 2962.91 0.016788 -0.859836 0
M  V30 16982 C 2962.9 0.398145 -2.13316 0
M  V30 16983 N 2962.78 -0.328224 -3.22333 0
M  V30 16984 C 2962.66 -1.62992 -2.90383 0
M  V30 16985 H 2959.68 -5.40394 -6.8003 0
M  V30 16986 H 2959.41 -4.41741 -5.32532 0
M  V30 16987 H 2960.28 -3.26371 -7.47889 0
M  V30 16988 H 2962.94 -1.64007 -5.56746 0
M  V30 16989 H 2963.22 -4.63439 -5.3432 0
M  V30 16990 H 2964.21 -3.44776 -6.25925 0
M  V30 16991 H 2962.37 -4.96707 -7.57347 0
M  V30 16992 H 2962.33 -4.8089 -3.39924 0
M  V30 16993 H 2962.71 -2.66547 0.941919 0
M  V30 16994 H 2962.9 -0.965341 1.44766 0
M  V30 16995 H 2963.01 1.46427 -2.29697 0
M  V30 16996 P 2964.24 -2.75334 -8.47391 0
M  V30 16997 O 2964.46 -2.44619 -9.90336 0
M  V30 16998 O 2965.03 -3.87776 -7.92294 0
M  V30 16999 O 2964.49 -1.4459 -7.59357 0
M  V30 17000 C 2963.55 -0.347653 -7.69315 0
M  V30 17001 C 2964.28 0.96767 -7.52806 0
M  V30 17002 O 2964.49 1.21055 -6.10208 0
M  V30 17003 C 2965.68 1.04557 -8.13408 0
M  V30 17004 O 2966.07 2.38311 -8.41922 0
M  V30 17005 C 2966.56 0.491279 -7.02284 0
M  V30 17006 C 2965.85 0.996264 -5.77469 0
M  V30 17007 N 2965.9 0.0501916 -4.62973 0
M  V30 17008 H 2963.06 -0.374765 -8.67791 0
M  V30 17009 H 2962.79 -0.443613 -6.90476 0
M  V30 17010 H 2963.66 1.75559 -7.96891 0
M  V30 17011 H 2966.32 1.94563 -5.46818 0
M  V30 17012 H 2966.6 -0.608651 -7.04676 0
M  V30 17013 H 2967.59 0.889796 -7.09039 0
M  V30 17014 H 2965.75 0.433128 -9.04664 0
M  V30 17015 P 2967.62 2.75334 -8.47391 0
M  V30 17016 O 2967.84 3.84128 -9.44797 0
M  V30 17017 O 2968.41 1.51947 -8.68712 0
M  V30 17018 O 2967.87 3.29363 -6.99321 0
M  V30 17019 C 2966.93 4.24011 -6.4274 0
M  V30 17020 C 2967.66 5.20775 -5.52155 0
M  V30 17021 O 2967.87 4.56534 -4.22446 0
M  V30 17022 C 2969.06 5.62629 -5.96531 0
M  V30 17023 O 2969.45 6.87667 -5.41053 0
M  V30 17024 C 2969.94 4.52537 -5.39283 0
M  V30 17025 C 2969.23 4.20027 -4.08623 0
M  V30 17026 N 2969.28 2.76189 -3.71603 0
M  V30 17027 H 2966.44 4.797 -7.24003 0
M  V30 17028 H 2966.17 3.69856 -5.84513 0
M  V30 17029 H 2967.04 6.10356 -5.41441 0
M  V30 17030 P 2971 7.20834 -5.23717 0
M  V30 17031 O 2971.22 8.66189 -5.38625 0
M  V30 17032 O 2971.79 6.33615 -6.1356 0
M  V30 17033 O 2971.25 6.7751 -3.72168 0
M  V30 17034 C 2970.31 7.20732 -2.70725 0
M  V30 17035 C 2971.04 7.45864 -1.40599 0
M  V30 17036 O 2971.25 6.17651 -0.734225 0
M  V30 17037 C 2972.44 8.05808 -1.51899 0
M  V30 17038 O 2972.83 8.74358 -0.335205 0
M  V30 17039 C 2973.32 6.83093 -1.70294 0
M  V30 17040 C 2972.61 5.79992 -0.836974 0
M  V30 17041 N 2972.66 4.41769 -1.38263 0
M  V30 17042 C 2972.81 3.38591 -0.481702 0
M  V30 17043 O 2972.9 3.56839 0.718452 0
M  V30 17044 N 2972.85 2.1206 -1.03569 0
M  V30 17045 C 2972.76 1.80696 -2.36966 0
M  V30 17046 O 2972.81 0.630473 -2.74862 0
M  V30 17047 C 2972.61 2.94845 -3.23898 0
M  V30 17048 C 2972.5 2.65253 -4.70362 0
M  V30 17049 C 2972.56 4.19803 -2.73435 0
M  V30 17050 H 2969.82 8.13644 -3.0377 0
M  V30 17051 H 2969.55 6.42695 -2.55448 0
M  V30 17052 H 2970.42 8.12039 -0.792769 0
M  V30 17053 H 2973.08 5.79978 0.160587 0
M  V30 17054 H 2973.35 6.51379 -2.75643 0
M  V30 17055 H 2974.35 7.01734 -1.34462 0
M  V30 17056 H 2972.51 8.73674 -2.38337 0
M  V30 17057 H 2972.44 5.04492 -3.4095 0
M  V30 17058 H 2973.47 2.83924 -5.1913 0
M  V30 17059 H 2971.73 3.29824 -5.15163 0
M  V30 17060 H 2972.22 1.59723 -4.84449 0
M  V30 17061 H 2972.96 1.35644 -0.399345 0
M  V30 17062 P 2974.38 8.91 -9.38899e-11 0
M  V30 17063 O 2974.6 10.1726 0.733694 0
M  V30 17064 O 2975.17 8.73148 -1.23936 0
M  V30 17065 O 2974.63 7.66872 0.971405 0
M  V30 17066 C 2973.69 7.42309 2.04641 0
M  V30 17067 C 2974.42 6.86059 3.24661 0
M  V30 17068 O 2974.63 5.42847 3.03646 0
M  V30 17069 C 2975.82 7.41196 3.50753 0
M  V30 17070 O 2976.21 7.27073 4.86816 0
M  V30 17071 C 2976.7 6.5273 2.63741 0
M  V30 17072 C 2975.99 5.1842 2.73198 0
M  V30 17073 N 2976.04 4.38762 1.4784 0
M  V30 17074 H 2973.2 8.36803 2.32493 0
M  V30 17075 H 2972.93 6.70197 1.71129 0
M  V30 17076 H 2973.8 7.03551 4.13168 0
M  V30 17077 P 2977.76 7.20834 5.23717 0
M  V30 17078 O 2977.98 7.79853 6.57286 0
M  V30 17079 O 2978.55 7.79239 4.12957 0
M  V30 17080 O 2978.01 5.63315 5.29344 0
M  V30 17081 C 2977.07 4.80255 6.01876 0
M  V30 17082 C 2977.8 3.64202 6.65911 0
M  V30 17083 O 2978.01 2.60694 5.64732 0
M  V30 17084 C 2979.2 3.93473 7.1943 0
M  V30 17085 O 2979.59 3.02071 8.21205 0
M  V30 17086 C 2980.08 3.73047 5.97036 0
M  V30 17087 C 2979.37 2.58828 5.25741 0
M  V30 17088 N 2979.42 2.68068 3.77503 0
M  V30 17089 H 2976.58 5.40332 6.79951 0
M  V30 17090 H 2976.31 4.41613 5.32378 0
M  V30 17091 H 2977.18 3.26331 7.47797 0
M  V30 17092 P 2981.14 2.75334 8.47391 0
M  V30 17093 O 2981.36 2.44571 9.90142 0
M  V30 17094 O 2981.93 3.87688 7.92115 0
M  V30 17095 O 2981.39 1.4459 7.59357 0
M  V30 17096 C 2980.45 0.347608 7.69215 0
M  V30 17097 C 2981.18 -0.96767 7.52806 0
M  V30 17098 O 2981.39 -1.21036 6.1011 0
M  V30 17099 C 2982.58 -1.04544 8.13308 0
M  V30 17100 O 2982.97 -2.38311 8.41922 0
M  V30 17101 C 2983.46 -0.491279 7.02284 0
M  V30 17102 C 2982.75 -0.996264 5.77469 0
M  V30 17103 N 2982.8 -0.0501916 4.62973 0
M  V30 17104 H 2979.96 0.374722 8.67691 0
M  V30 17105 H 2979.69 0.443485 6.90277 0
M  V30 17106 H 2980.56 -1.75537 7.96793 0
M  V30 17107 P 2984.52 -2.75334 8.47391 0
M  V30 17108 O 2984.74 -3.84128 9.44797 0
M  V30 17109 O 2985.31 -1.51947 8.68712 0
M  V30 17110 O 2984.77 -3.29363 6.99321 0
M  V30 17111 C 2983.83 -4.24011 6.4274 0
M  V30 17112 C 2984.56 -5.20775 5.52155 0
M  V30 17113 O 2984.77 -4.56534 4.22446 0
M  V30 17114 C 2985.96 -5.62629 5.96531 0
M  V30 17115 O 2986.35 -6.87667 5.41053 0
M  V30 17116 C 2986.84 -4.52537 5.39283 0
M  V30 17117 C 2986.13 -4.20027 4.08623 0
M  V30 17118 N 2986.18 -2.76189 3.71603 0
M  V30 17119 H 2983.34 -4.797 7.24003 0
M  V30 17120 H 2983.07 -3.69856 5.84513 0
M  V30 17121 H 2983.94 -6.10356 5.41441 0
M  V30 17122 P 2987.9 -7.20834 5.23717 0
M  V30 17123 O 2988.12 -8.66104 5.38572 0
M  V30 17124 O 2988.69 -6.33544 6.1349 0
M  V30 17125 O 2988.15 -6.7751 3.72168 0
M  V30 17126 C 2987.21 -7.20825 2.7076 0
M  V30 17127 C 2987.94 -7.45864 1.40599 0
M  V30 17128 O 2988.15 -6.17651 0.734225 0
M  V30 17129 C 2989.34 -8.05808 1.51899 0
M  V30 17130 O 2989.73 -8.74358 0.335205 0
M  V30 17131 C 2990.22 -6.83093 1.70294 0
M  V30 17132 C 2989.51 -5.79992 0.836974 0
M  V30 17133 N 2989.56 -4.41864 1.38293 0
M  V30 17134 H 2986.72 -8.13644 3.0377 0
M  V30 17135 H 2986.45 -6.42788 2.55485 0
M  V30 17136 H 2987.32 -8.12039 0.792769 0
M  V30 17137 P 2991.28 -8.91 9.49989e-11 0
M  V30 17138 O 2991.5 -10.1726 -0.733694 0
M  V30 17139 O 2992.07 -8.73148 1.23936 0
M  V30 17140 O 2991.53 -7.66872 -0.971405 0
M  V30 17141 C 2990.59 -7.42309 -2.04641 0
M  V30 17142 C 2991.32 -6.86059 -3.24661 0
M  V30 17143 O 2991.53 -5.42847 -3.03646 0
M  V30 17144 C 2992.72 -7.41196 -3.50753 0
M  V30 17145 O 2993.11 -7.27073 -4.86816 0
M  V30 17146 C 2993.6 -6.5273 -2.63741 0
M  V30 17147 C 2992.89 -5.1842 -2.73198 0
M  V30 17148 N 2992.94 -4.38762 -1.4784 0
M  V30 17149 H 2990.1 -8.36803 -2.32493 0
M  V30 17150 H 2989.83 -6.70197 -1.71129 0
M  V30 17151 H 2990.7 -7.03551 -4.13168 0
M  V30 17152 P 2994.66 -7.20834 -5.23717 0
M  V30 17153 O 2994.88 -7.80006 -6.57415 0
M  V30 17154 O 2995.45 -7.79416 -4.13051 0
M  V30 17155 O 2994.91 -5.63315 -5.29344 0
M  V30 17156 C 2993.97 -4.80318 -6.01954 0
M  V30 17157 C 2994.7 -3.64202 -6.65911 0
M  V30 17158 O 2994.91 -2.60736 -5.64823 0
M  V30 17159 C 2996.1 -3.93521 -7.19518 0
M  V30 17160 O 2996.49 -3.02071 -8.21205 0
M  V30 17161 C 2996.98 -3.73047 -5.97036 0
M  V30 17162 C 2996.27 -2.58828 -5.25741 0
M  V30 17163 N 2996.32 -2.68068 -3.77503 0
M  V30 17164 C 2996.24 -3.80474 -2.99159 0
M  V30 17165 N 2996.31 -3.55622 -1.71925 0
M  V30 17166 C 2996.46 -2.1832 -1.65733 0
M  V30 17167 C 2996.59 -1.28842 -0.572777 0
M  V30 17168 N 2996.6 -1.66875 0.70098 0
M  V30 17169 N 2996.71 0.016788 -0.859836 0
M  V30 17170 C 2996.7 0.398145 -2.13316 0
M  V30 17171 N 2996.58 -0.328224 -3.22333 0
M  V30 17172 C 2996.46 -1.62992 -2.90383 0
M  V30 17173 H 2993.48 -5.40394 -6.8003 0
M  V30 17174 H 2993.21 -4.41741 -5.32532 0
M  V30 17175 H 2994.08 -3.26371 -7.47889 0
M  V30 17176 H 2996.74 -1.64007 -5.56746 0
M  V30 17177 H 2997.02 -4.63439 -5.3432 0
M  V30 17178 H 2998.01 -3.44776 -6.25925 0
M  V30 17179 H 2996.17 -4.96707 -7.57347 0
M  V30 17180 H 2996.13 -4.8089 -3.39924 0
M  V30 17181 H 2996.51 -2.66547 0.941919 0
M  V30 17182 H 2996.7 -0.965341 1.44766 0
M  V30 17183 H 2996.81 1.46427 -2.29697 0
M  V30 17184 P 2998.04 -2.75334 -8.47391 0
M  V30 17185 O 2998.26 -2.44571 -9.90142 0
M  V30 17186 O 2998.83 -3.87688 -7.92115 0
M  V30 17187 O 2998.29 -1.4459 -7.59357 0
M  V30 17188 C 2997.35 -0.347608 -7.69215 0
M  V30 17189 C 2998.08 0.96767 -7.52806 0
M  V30 17190 O 2998.29 1.21036 -6.1011 0
M  V30 17191 C 2999.48 1.04544 -8.13308 0
M  V30 17192 O 2999.87 2.38311 -8.41922 0
M  V30 17193 C 3000.36 0.491279 -7.02284 0
M  V30 17194 C 2999.65 0.996264 -5.77469 0
M  V30 17195 N 2999.7 0.0501916 -4.62973 0
M  V30 17196 H 2996.86 -0.374722 -8.67691 0
M  V30 17197 H 2996.59 -0.443485 -6.90277 0
M  V30 17198 H 2997.46 1.75537 -7.96793 0
M  V30 17199 P 3001.42 2.75334 -8.47391 0
M  V30 17200 O 3001.64 3.84204 -9.44982 0
M  V30 17201 O 3002.21 1.51982 -8.68909 0
M  V30 17202 O 3001.67 3.29363 -6.99321 0
M  V30 17203 C 3000.73 4.24066 -6.42823 0
M  V30 17204 C 3001.46 5.20775 -5.52155 0
M  V30 17205 O 3001.67 4.56607 -4.22514 0
M  V30 17206 C 3002.86 5.62697 -5.96604 0
M  V30 17207 O 3003.25 6.87667 -5.41053 0
M  V30 17208 C 3003.74 4.52537 -5.39283 0
M  V30 17209 C 3003.03 4.20027 -4.08623 0
M  V30 17210 N 3003.08 2.76189 -3.71603 0
M  V30 17211 H 3000.24 4.79756 -7.24086 0
M  V30 17212 H 2999.97 3.69963 -5.84682 0
M  V30 17213 H 3000.84 6.10431 -5.41508 0
M  V30 17214 H 3003.5 4.78816 -3.28024 0
M  V30 17215 H 3003.78 3.64957 -6.05871 0
M  V30 17216 H 3004.77 4.88748 -5.21323 0
M  V30 17217 H 3002.93 5.66789 -7.0643 0
M  V30 17218 P 3004.8 7.20834 -5.23717 0
M  V30 17219 O 3005.02 8.66189 -5.38625 0
M  V30 17220 O 3005.59 6.33615 -6.1356 0
M  V30 17221 O 3005.05 6.7751 -3.72168 0
M  V30 17222 C 3004.11 7.20732 -2.70725 0
M  V30 17223 C 3004.84 7.45864 -1.40599 0
M  V30 17224 O 3005.05 6.17651 -0.734225 0
M  V30 17225 C 3006.24 8.05808 -1.51899 0
M  V30 17226 O 3006.63 8.74358 -0.335205 0
M  V30 17227 C 3007.12 6.83093 -1.70294 0
M  V30 17228 C 3006.41 5.79992 -0.836974 0
M  V30 17229 N 3006.46 4.41769 -1.38263 0
M  V30 17230 C 3006.61 3.38591 -0.481702 0
M  V30 17231 O 3006.7 3.56839 0.718452 0
M  V30 17232 N 3006.65 2.1206 -1.03569 0
M  V30 17233 C 3006.56 1.80696 -2.36966 0
M  V30 17234 C 3006.41 2.94845 -3.23898 0
M  V30 17235 C 3006.36 4.19803 -2.73435 0
M  V30 17236 H 3003.62 8.13644 -3.0377 0
M  V30 17237 H 3003.35 6.42695 -2.55448 0
M  V30 17238 H 3004.22 8.12039 -0.792769 0
M  V30 17239 H 3006.88 5.79978 0.160587 0
M  V30 17240 H 3007.15 6.51379 -2.75643 0
M  V30 17241 H 3008.15 7.01734 -1.34462 0
M  V30 17242 H 3006.31 8.73674 -2.38337 0
M  V30 17243 H 3006.24 5.04492 -3.4095 0
M  V30 17244 P 3008.18 8.91 -9.61079e-11 0
M  V30 17245 O 3008.4 10.1736 0.733766 0
M  V30 17246 O 3008.97 8.73247 -1.2395 0
M  V30 17247 O 3008.43 7.66872 0.971405 0
M  V30 17248 C 3007.49 7.42212 2.04614 0
M  V30 17249 C 3008.22 6.86059 3.24661 0
M  V30 17250 O 3008.43 5.42847 3.03646 0
M  V30 17251 C 3009.62 7.41196 3.50753 0
M  V30 17252 O 3010.01 7.27073 4.86816 0
M  V30 17253 C 3010.5 6.5273 2.63741 0
M  V30 17254 C 3009.79 5.1842 2.73198 0
M  V30 17255 N 3009.84 4.38668 1.47808 0
M  V30 17256 C 3009.99 3.02239 1.60048 0
M  V30 17257 O 3010.08 2.46459 2.67869 0
M  V30 17258 N 3010.03 2.32436 0.408571 0
M  V30 17259 C 3009.94 2.85471 -0.854993 0
M  V30 17260 C 3009.79 4.28918 -0.887335 0
M  V30 17261 C 3009.74 5.00349 0.255399 0
M  V30 17262 H 3007 8.36803 2.32493 0
M  V30 17263 H 3006.73 6.701 1.71105 0
M  V30 17264 H 3007.6 7.03551 4.13168 0
M  V30 17265 H 3010.26 4.59773 3.53894 0
M  V30 17266 H 3010.53 6.88995 1.59871 0
M  V30 17267 H 3011.53 6.46749 3.03687 0
M  V30 17268 H 3009.69 8.46908 3.20714 0
M  V30 17269 H 3009.62 6.08548 0.206986 0
M  V30 17270 P 3011.56 7.20834 5.23717 0
M  V30 17271 O 3011.78 7.79853 6.57286 0
M  V30 17272 O 3012.35 7.79239 4.12957 0
M  V30 17273 O 3011.81 5.63315 5.29344 0
M  V30 17274 C 3010.87 4.80255 6.01876 0
M  V30 17275 C 3011.6 3.64202 6.65911 0
M  V30 17276 O 3011.81 2.60694 5.64732 0
M  V30 17277 C 3013 3.93473 7.1943 0
M  V30 17278 O 3013.39 3.02071 8.21205 0
M  V30 17279 C 3013.88 3.73047 5.97036 0
M  V30 17280 C 3013.17 2.58828 5.25741 0
M  V30 17281 N 3013.22 2.68068 3.77503 0
M  V30 17282 H 3010.38 5.40332 6.79951 0
M  V30 17283 H 3010.11 4.41613 5.32378 0
M  V30 17284 H 3010.98 3.26331 7.47797 0
M  V30 17285 P 3014.94 2.75334 8.47391 0
M  V30 17286 O 3015.16 2.44571 9.90142 0
M  V30 17287 O 3015.73 3.87688 7.92115 0
M  V30 17288 O 3015.19 1.4459 7.59357 0
M  V30 17289 C 3014.25 0.347608 7.69215 0
M  V30 17290 C 3014.98 -0.96767 7.52806 0
M  V30 17291 O 3015.19 -1.21036 6.1011 0
M  V30 17292 C 3016.38 -1.04544 8.13308 0
M  V30 17293 O 3016.77 -2.38311 8.41922 0
M  V30 17294 C 3017.26 -0.491279 7.02284 0
M  V30 17295 C 3016.55 -0.996264 5.77469 0
M  V30 17296 N 3016.6 -0.0501916 4.62973 0
M  V30 17297 C 3016.52 1.32786 4.63244 0
M  V30 17298 N 3016.6 1.86957 3.44545 0
M  V30 17299 C 3016.74 0.780241 2.58481 0
M  V30 17300 C 3016.87 0.738536 1.17757 0
M  V30 17301 O 3016.89 1.66794 0.372349 0
M  V30 17302 N 3016.99 -0.58337 0.711393 0
M  V30 17303 C 3016.99 -1.70816 1.51017 0
M  V30 17304 N 3017.12 -2.87826 0.880757 0
M  V30 17305 N 3016.86 -1.67126 2.8339 0
M  V30 17306 C 3016.74 -0.401421 3.30572 0
M  V30 17307 H 3013.76 0.374722 8.67691 0
M  V30 17308 H 3013.49 0.443485 6.90277 0
M  V30 17309 H 3014.36 -1.75537 7.96793 0
M  V30 17310 H 3017.02 -1.95076 5.46529 0
M  V30 17311 H 3017.29 0.608565 7.04577 0
M  V30 17312 H 3018.29 -0.889672 7.08939 0
M  V30 17313 H 3016.45 -0.43308 9.04564 0
M  V30 17314 H 3016.4 1.91249 5.54442 0
M  V30 17315 H 3017.09 -0.718054 -0.275244 0
M  V30 17316 H 3017.12 -3.75721 1.41832 0
M  V30 17317 H 3017.22 -2.90436 -0.145468 0
M  V30 17318 P 3018.32 -2.75334 8.47391 0
M  V30 17319 O 3018.54 -3.84128 9.44797 0
M  V30 17320 O 3019.11 -1.51947 8.68712 0
M  V30 17321 O 3018.57 -3.29363 6.99321 0
M  V30 17322 C 3017.63 -4.24011 6.4274 0
M  V30 17323 C 3018.36 -5.20775 5.52155 0
M  V30 17324 O 3018.57 -4.56534 4.22446 0
M  V30 17325 C 3019.76 -5.62629 5.96531 0
M  V30 17326 O 3020.15 -6.87667 5.41053 0
M  V30 17327 C 3020.64 -4.52537 5.39283 0
M  V30 17328 C 3019.93 -4.20027 4.08623 0
M  V30 17329 N 3019.98 -2.76189 3.71603 0
M  V30 17330 C 3019.9 -1.64862 4.52822 0
M  V30 17331 N 3019.98 -0.512671 3.88633 0
M  V30 17332 C 3020.12 -0.888083 2.54977 0
M  V30 17333 C 3020.25 -0.094668 1.38677 0
M  V30 17334 N 3020.37 -0.890102 0.232633 0
M  V30 17335 C 3020.37 -2.26958 0.21772 0
M  V30 17336 N 3020.5 -2.84626 -0.97925 0
M  V30 17337 N 3020.24 -3.0178 1.31033 0
M  V30 17338 C 3020.12 -2.26781 2.43843 0
M  V30 17339 H 3017.14 -4.797 7.24003 0
M  V30 17340 H 3016.87 -3.69856 5.84513 0
M  V30 17341 H 3017.74 -6.10356 5.41441 0
M  V30 17342 P 3021.7 -7.20834 5.23717 0
M  V30 17343 O 3021.92 -8.66104 5.38572 0
M  V30 17344 O 3022.49 -6.33544 6.1349 0
M  V30 17345 O 3021.95 -6.7751 3.72168 0
M  V30 17346 C 3021.01 -7.20825 2.7076 0
M  V30 17347 C 3021.74 -7.45864 1.40599 0
M  V30 17348 O 3021.95 -6.17651 0.734225 0
M  V30 17349 C 3023.14 -8.05808 1.51899 0
M  V30 17350 O 3023.53 -8.74358 0.335205 0
M  V30 17351 C 3024.02 -6.83093 1.70294 0
M  V30 17352 C 3023.31 -5.79992 0.836974 0
M  V30 17353 N 3023.36 -4.41864 1.38293 0
M  V30 17354 H 3020.52 -8.13644 3.0377 0
M  V30 17355 H 3020.25 -6.42788 2.55485 0
M  V30 17356 H 3021.12 -8.12039 0.792769 0
M  V30 17357 P 3025.08 -8.91 9.72169e-11 0
M  V30 17358 O 3025.3 -10.1726 -0.733694 0
M  V30 17359 O 3025.87 -8.73148 1.23936 0
M  V30 17360 O 3025.33 -7.66872 -0.971405 0
M  V30 17361 C 3024.39 -7.42309 -2.04641 0
M  V30 17362 C 3025.12 -6.86059 -3.24661 0
M  V30 17363 O 3025.33 -5.42847 -3.03646 0
M  V30 17364 C 3026.52 -7.41196 -3.50753 0
M  V30 17365 O 3026.91 -7.27073 -4.86816 0
M  V30 17366 C 3027.4 -6.5273 -2.63741 0
M  V30 17367 C 3026.69 -5.1842 -2.73198 0
M  V30 17368 N 3026.74 -4.38762 -1.4784 0
M  V30 17369 H 3023.9 -8.36803 -2.32493 0
M  V30 17370 H 3023.63 -6.70197 -1.71129 0
M  V30 17371 H 3024.5 -7.03551 -4.13168 0
M  V30 17372 P 3028.46 -7.20834 -5.23717 0
M  V30 17373 O 3028.68 -7.80006 -6.57415 0
M  V30 17374 O 3029.25 -7.79416 -4.13051 0
M  V30 17375 O 3028.71 -5.63315 -5.29344 0
M  V30 17376 C 3027.77 -4.80318 -6.01954 0
M  V30 17377 C 3028.5 -3.64202 -6.65911 0
M  V30 17378 O 3028.71 -2.60736 -5.64823 0
M  V30 17379 C 3029.9 -3.93521 -7.19518 0
M  V30 17380 O 3030.29 -3.02071 -8.21205 0
M  V30 17381 C 3030.78 -3.73047 -5.97036 0
M  V30 17382 C 3030.07 -2.58828 -5.25741 0
M  V30 17383 N 3030.12 -2.68068 -3.77503 0
M  V30 17384 H 3027.28 -5.40394 -6.8003 0
M  V30 17385 H 3027.01 -4.41741 -5.32532 0
M  V30 17386 H 3027.88 -3.26371 -7.47889 0
M  V30 17387 H 3030.54 -1.64007 -5.56746 0
M  V30 17388 H 3030.82 -4.63439 -5.3432 0
M  V30 17389 H 3031.81 -3.44776 -6.25925 0
M  V30 17390 H 3029.97 -4.96707 -7.57347 0
M  V30 17391 P 3031.84 -2.75334 -8.47391 0
M  V30 17392 O 3032.06 -2.44571 -9.90142 0
M  V30 17393 O 3032.63 -3.87688 -7.92115 0
M  V30 17394 O 3032.09 -1.4459 -7.59357 0
M  V30 17395 C 3031.15 -0.347608 -7.69215 0
M  V30 17396 C 3031.88 0.96767 -7.52806 0
M  V30 17397 O 3032.09 1.21036 -6.1011 0
M  V30 17398 C 3033.28 1.04544 -8.13308 0
M  V30 17399 O 3033.67 2.38311 -8.41922 0
M  V30 17400 C 3034.16 0.491279 -7.02284 0
M  V30 17401 C 3033.45 0.996264 -5.77469 0
M  V30 17402 N 3033.5 0.0501916 -4.62973 0
M  V30 17403 H 3030.66 -0.374722 -8.67691 0
M  V30 17404 H 3030.39 -0.443485 -6.90277 0
M  V30 17405 H 3031.26 1.75537 -7.96793 0
M  V30 17406 P 3035.22 2.75334 -8.47391 0
M  V30 17407 O 3035.44 3.84128 -9.44797 0
M  V30 17408 O 3036.01 1.51947 -8.68712 0
M  V30 17409 O 3035.47 3.29363 -6.99321 0
M  V30 17410 C 3034.53 4.24011 -6.4274 0
M  V30 17411 C 3035.26 5.20775 -5.52155 0
M  V30 17412 O 3035.47 4.56534 -4.22446 0
M  V30 17413 C 3036.66 5.62629 -5.96531 0
M  V30 17414 O 3037.05 6.87667 -5.41053 0
M  V30 17415 C 3037.54 4.52537 -5.39283 0
M  V30 17416 C 3036.83 4.20027 -4.08623 0
M  V30 17417 N 3036.88 2.76189 -3.71603 0
M  V30 17418 H 3034.04 4.797 -7.24003 0
M  V30 17419 H 3033.77 3.69856 -5.84513 0
M  V30 17420 H 3034.64 6.10356 -5.41441 0
M  V30 17421 P 3038.6 7.20834 -5.23717 0
M  V30 17422 O 3038.82 8.66104 -5.38572 0
M  V30 17423 O 3039.39 6.33544 -6.1349 0
M  V30 17424 O 3038.85 6.7751 -3.72168 0
M  V30 17425 C 3037.91 7.20825 -2.7076 0
M  V30 17426 C 3038.64 7.45864 -1.40599 0
M  V30 17427 O 3038.85 6.17651 -0.734225 0
M  V30 17428 C 3040.04 8.05808 -1.51899 0
M  V30 17429 O 3040.43 8.74358 -0.335205 0
M  V30 17430 C 3040.92 6.83093 -1.70294 0
M  V30 17431 C 3040.21 5.79992 -0.836974 0
M  V30 17432 N 3040.26 4.41864 -1.38293 0
M  V30 17433 C 3040.18 3.99538 -2.69438 0
M  V30 17434 N 3040.26 2.69909 -2.84277 0
M  V30 17435 C 3040.4 2.21719 -1.5408 0
M  V30 17436 C 3040.53 0.891712 -1.06628 0
M  V30 17437 O 3040.55 -0.161298 -1.70137 0
M  V30 17438 N 3040.65 0.856846 0.334985 0
M  V30 17439 C 3040.65 1.9641 1.15789 0
M  V30 17440 N 3040.78 1.72708 2.46522 0
M  V30 17441 N 3040.52 3.21165 0.713741 0
M  V30 17442 C 3040.4 3.26797 -0.639748 0
M  V30 17443 H 3037.42 8.13644 -3.0377 0
M  V30 17444 H 3037.15 6.42788 -2.55485 0
M  V30 17445 H 3038.02 8.12039 -0.792769 0
M  V30 17446 H 3040.68 5.80061 0.166416 0
M  V30 17447 H 3040.95 6.51287 -2.75604 0
M  V30 17448 H 3041.95 7.01734 -1.34462 0
M  V30 17449 H 3040.11 8.73674 -2.38337 0
M  V30 17450 H 3040.06 4.68207 -3.53221 0
M  V30 17451 H 3040.75 -0.0398818 0.767965 0
M  V30 17452 H 3040.78 2.50995 3.13503 0
M  V30 17453 H 3040.88 0.759148 2.80716 0
M  V30 17454 P 3041.98 8.91 -9.83259e-11 0
M  V30 17455 O 3042.2 10.1726 0.733694 0
M  V30 17456 O 3042.77 8.73148 -1.23936 0
M  V30 17457 O 3042.23 7.66872 0.971405 0
M  V30 17458 C 3041.29 7.42309 2.04641 0
M  V30 17459 C 3042.02 6.86059 3.24661 0
M  V30 17460 O 3042.23 5.42847 3.03646 0
M  V30 17461 C 3043.42 7.41196 3.50753 0
M  V30 17462 O 3043.81 7.27073 4.86816 0
M  V30 17463 C 3044.3 6.5273 2.63741 0
M  V30 17464 C 3043.59 5.1842 2.73198 0
M  V30 17465 N 3043.64 4.38762 1.4784 0
M  V30 17466 H 3040.8 8.36803 2.32493 0
M  V30 17467 H 3040.53 6.70197 1.71129 0
M  V30 17468 H 3041.4 7.03551 4.13168 0
M  V30 17469 P 3045.36 7.20834 5.23717 0
M  V30 17470 O 3045.58 7.79853 6.57286 0
M  V30 17471 O 3046.15 7.79239 4.12957 0
M  V30 17472 O 3045.61 5.63315 5.29344 0
M  V30 17473 C 3044.67 4.80255 6.01876 0
M  V30 17474 C 3045.4 3.64202 6.65911 0
M  V30 17475 O 3045.61 2.60694 5.64732 0
M  V30 17476 C 3046.8 3.93473 7.1943 0
M  V30 17477 O 3047.19 3.02071 8.21205 0
M  V30 17478 C 3047.68 3.73047 5.97036 0
M  V30 17479 C 3046.97 2.58828 5.25741 0
M  V30 17480 N 3047.02 2.68068 3.77503 0
M  V30 17481 C 3046.94 3.79715 2.96723 0
M  V30 17482 N 3047.02 3.5377 1.68852 0
M  V30 17483 C 3047.16 2.15054 1.63254 0
M  V30 17484 C 3047.29 1.28964 0.518571 0
M  V30 17485 N 3047.41 -0.0538097 0.918425 0
M  V30 17486 C 3047.41 -0.494275 2.22578 0
M  V30 17487 N 3047.54 -1.81086 2.40434 0
M  V30 17488 N 3047.28 0.313645 3.27502 0
M  V30 17489 C 3047.16 1.61829 2.91033 0
M  V30 17490 H 3044.18 5.40332 6.79951 0
M  V30 17491 H 3043.91 4.41613 5.32378 0
M  V30 17492 H 3044.78 3.26331 7.47797 0
M  V30 17493 P 3048.74 2.75334 8.47391 0
M  V30 17494 O 3048.96 2.44571 9.90142 0
M  V30 17495 O 3049.53 3.87688 7.92115 0
M  V30 17496 O 3048.99 1.4459 7.59357 0
M  V30 17497 C 3048.05 0.347608 7.69215 0
M  V30 17498 C 3048.78 -0.96767 7.52806 0
M  V30 17499 O 3048.99 -1.21036 6.1011 0
M  V30 17500 C 3050.18 -1.04544 8.13308 0
M  V30 17501 O 3050.57 -2.38311 8.41922 0
M  V30 17502 C 3051.06 -0.491279 7.02284 0
M  V30 17503 C 3050.35 -0.996264 5.77469 0
M  V30 17504 N 3050.4 -0.0501916 4.62973 0
M  V30 17505 H 3047.56 0.374722 8.67691 0
M  V30 17506 H 3047.29 0.443485 6.90277 0
M  V30 17507 H 3048.16 -1.75537 7.96793 0
M  V30 17508 P 3052.12 -2.75334 8.47391 0
M  V30 17509 O 3052.34 -3.84128 9.44797 0
M  V30 17510 O 3052.91 -1.51947 8.68712 0
M  V30 17511 O 3052.37 -3.29363 6.99321 0
M  V30 17512 C 3051.43 -4.24011 6.4274 0
M  V30 17513 C 3052.16 -5.20775 5.52155 0
M  V30 17514 O 3052.37 -4.56534 4.22446 0
M  V30 17515 C 3053.56 -5.62629 5.96531 0
M  V30 17516 O 3053.95 -6.87667 5.41053 0
M  V30 17517 C 3054.44 -4.52537 5.39283 0
M  V30 17518 C 3053.73 -4.20027 4.08623 0
M  V30 17519 N 3053.78 -2.76189 3.71603 0
M  V30 17520 H 3050.94 -4.797 7.24003 0
M  V30 17521 H 3050.67 -3.69856 5.84513 0
M  V30 17522 H 3051.54 -6.10356 5.41441 0
M  V30 17523 P 3055.5 -7.20834 5.23717 0
M  V30 17524 O 3055.72 -8.66189 5.38625 0
M  V30 17525 O 3056.29 -6.33615 6.1356 0
M  V30 17526 O 3055.75 -6.7751 3.72168 0
M  V30 17527 C 3054.81 -7.20732 2.70725 0
M  V30 17528 C 3055.54 -7.45864 1.40599 0
M  V30 17529 O 3055.75 -6.17651 0.734225 0
M  V30 17530 C 3056.94 -8.05808 1.51899 0
M  V30 17531 O 3057.33 -8.74358 0.335205 0
M  V30 17532 C 3057.82 -6.83093 1.70294 0
M  V30 17533 C 3057.11 -5.79992 0.836974 0
M  V30 17534 N 3057.16 -4.41769 1.38263 0
M  V30 17535 C 3057.31 -3.38591 0.481702 0
M  V30 17536 O 3057.4 -3.56839 -0.718452 0
M  V30 17537 N 3057.35 -2.1206 1.03569 0
M  V30 17538 C 3057.26 -1.80696 2.36966 0
M  V30 17539 O 3057.31 -0.630473 2.74862 0
M  V30 17540 C 3057.11 -2.94845 3.23898 0
M  V30 17541 C 3057 -2.65253 4.70362 0
M  V30 17542 C 3057.06 -4.19803 2.73435 0
M  V30 17543 H 3054.32 -8.13644 3.0377 0
M  V30 17544 H 3054.05 -6.42695 2.55448 0
M  V30 17545 H 3054.92 -8.12039 0.792769 0
M  V30 17546 H 3057.57 -5.79978 -0.160587 0
M  V30 17547 H 3057.85 -6.51379 2.75643 0
M  V30 17548 H 3058.85 -7.01734 1.34462 0
M  V30 17549 H 3057.01 -8.73674 2.38337 0
M  V30 17550 H 3056.94 -5.04492 3.4095 0
M  V30 17551 H 3057.97 -2.83924 5.1913 0
M  V30 17552 H 3056.23 -3.29824 5.15163 0
M  V30 17553 H 3056.72 -1.59723 4.84449 0
M  V30 17554 H 3057.46 -1.35644 0.399345 0
M  V30 17555 P 3058.88 -8.91 9.94349e-11 0
M  V30 17556 O 3059.1 -10.1736 -0.733766 0
M  V30 17557 O 3059.67 -8.73247 1.2395 0
M  V30 17558 O 3059.13 -7.66872 -0.971405 0
M  V30 17559 C 3058.19 -7.42212 -2.04614 0
M  V30 17560 C 3058.92 -6.86059 -3.24661 0
M  V30 17561 O 3059.13 -5.42847 -3.03646 0
M  V30 17562 C 3060.32 -7.41196 -3.50753 0
M  V30 17563 O 3060.71 -7.27073 -4.86816 0
M  V30 17564 C 3061.2 -6.5273 -2.63741 0
M  V30 17565 C 3060.49 -5.1842 -2.73198 0
M  V30 17566 N 3060.54 -4.38668 -1.47808 0
M  V30 17567 C 3060.69 -3.02239 -1.60048 0
M  V30 17568 O 3060.78 -2.46459 -2.67869 0
M  V30 17569 N 3060.73 -2.32436 -0.408571 0
M  V30 17570 C 3060.64 -2.85471 0.854993 0
M  V30 17571 O 3060.69 -2.12566 1.8531 0
M  V30 17572 C 3060.49 -4.28918 0.887335 0
M  V30 17573 C 3060.38 -4.91066 2.24619 0
M  V30 17574 C 3060.44 -5.00349 -0.255399 0
M  V30 17575 H 3057.7 -8.36803 -2.32493 0
M  V30 17576 H 3057.43 -6.701 -1.71105 0
M  V30 17577 H 3058.3 -7.03551 -4.13168 0
M  V30 17578 H 3060.95 -4.59773 -3.53894 0
M  V30 17579 H 3061.23 -6.88995 -1.59871 0
M  V30 17580 H 3062.23 -6.46749 -3.03687 0
M  V30 17581 H 3060.39 -8.46908 -3.20714 0
M  V30 17582 H 3060.32 -6.08548 -0.206986 0
M  V30 17583 H 3061.35 -5.34836 2.53099 0
M  V30 17584 H 3059.61 -5.69638 2.2291 0
M  V30 17585 H 3060.1 -4.13971 2.98044 0
M  V30 17586 H 3060.84 -1.33211 -0.474216 0
M  V30 17587 P 3062.26 -7.20834 -5.23717 0
M  V30 17588 O 3062.48 -7.79853 -6.57286 0
M  V30 17589 O 3063.05 -7.79239 -4.12957 0
M  V30 17590 O 3062.51 -5.63315 -5.29344 0
M  V30 17591 C 3061.57 -4.80255 -6.01876 0
M  V30 17592 C 3062.3 -3.64202 -6.65911 0
M  V30 17593 O 3062.51 -2.60694 -5.64732 0
M  V30 17594 C 3063.7 -3.93473 -7.1943 0
M  V30 17595 O 3064.09 -3.02071 -8.21205 0
M  V30 17596 C 3064.58 -3.73047 -5.97036 0
M  V30 17597 C 3063.87 -2.58828 -5.25741 0
M  V30 17598 N 3063.92 -2.68068 -3.77503 0
M  V30 17599 H 3061.08 -5.40332 -6.79951 0
M  V30 17600 H 3060.81 -4.41613 -5.32378 0
M  V30 17601 H 3061.68 -3.26331 -7.47797 0
M  V30 17602 P 3065.64 -2.75334 -8.47391 0
M  V30 17603 O 3065.86 -2.44571 -9.90142 0
M  V30 17604 O 3066.43 -3.87688 -7.92115 0
M  V30 17605 O 3065.89 -1.4459 -7.59357 0
M  V30 17606 C 3064.95 -0.347608 -7.69215 0
M  V30 17607 C 3065.68 0.96767 -7.52806 0
M  V30 17608 O 3065.89 1.21036 -6.1011 0
M  V30 17609 C 3067.08 1.04544 -8.13308 0
M  V30 17610 O 3067.47 2.38311 -8.41922 0
M  V30 17611 C 3067.96 0.491279 -7.02284 0
M  V30 17612 C 3067.25 0.996264 -5.77469 0
M  V30 17613 N 3067.3 0.0501916 -4.62973 0
M  V30 17614 H 3064.46 -0.374722 -8.67691 0
M  V30 17615 H 3064.19 -0.443485 -6.90277 0
M  V30 17616 H 3065.06 1.75537 -7.96793 0
M  V30 17617 P 3069.02 2.75334 -8.47391 0
M  V30 17618 O 3069.24 3.84128 -9.44797 0
M  V30 17619 O 3069.81 1.51947 -8.68712 0
M  V30 17620 O 3069.27 3.29363 -6.99321 0
M  V30 17621 C 3068.33 4.24011 -6.4274 0
M  V30 17622 C 3069.06 5.20775 -5.52155 0
M  V30 17623 O 3069.27 4.56534 -4.22446 0
M  V30 17624 C 3070.46 5.62629 -5.96531 0
M  V30 17625 O 3070.85 6.87667 -5.41053 0
M  V30 17626 C 3071.34 4.52537 -5.39283 0
M  V30 17627 C 3070.63 4.20027 -4.08623 0
M  V30 17628 N 3070.68 2.76189 -3.71603 0
M  V30 17629 H 3067.84 4.797 -7.24003 0
M  V30 17630 H 3067.57 3.69856 -5.84513 0
M  V30 17631 H 3068.44 6.10356 -5.41441 0
M  V30 17632 P 3072.4 7.20834 -5.23717 0
M  V30 17633 O 3072.62 8.66104 -5.38572 0
M  V30 17634 O 3073.19 6.33544 -6.1349 0
M  V30 17635 O 3072.65 6.7751 -3.72168 0
M  V30 17636 C 3071.71 7.20825 -2.7076 0
M  V30 17637 C 3072.44 7.45864 -1.40599 0
M  V30 17638 O 3072.65 6.17651 -0.734225 0
M  V30 17639 C 3073.84 8.05808 -1.51899 0
M  V30 17640 O 3074.23 8.74358 -0.335205 0
M  V30 17641 C 3074.72 6.83093 -1.70294 0
M  V30 17642 C 3074.01 5.79992 -0.836974 0
M  V30 17643 N 3074.06 4.41864 -1.38293 0
M  V30 17644 C 3073.98 3.99538 -2.69438 0
M  V30 17645 N 3074.06 2.69909 -2.84277 0
M  V30 17646 C 3074.2 2.21719 -1.5408 0
M  V30 17647 C 3074.33 0.891712 -1.06628 0
M  V30 17648 O 3074.35 -0.161298 -1.70137 0
M  V30 17649 N 3074.45 0.856846 0.334985 0
M  V30 17650 C 3074.45 1.9641 1.15789 0
M  V30 17651 N 3074.58 1.72708 2.46522 0
M  V30 17652 N 3074.32 3.21165 0.713741 0
M  V30 17653 C 3074.2 3.26797 -0.639748 0
M  V30 17654 H 3071.22 8.13644 -3.0377 0
M  V30 17655 H 3070.95 6.42788 -2.55485 0
M  V30 17656 H 3071.82 8.12039 -0.792769 0
M  V30 17657 H 3074.47 5.80061 0.166416 0
M  V30 17658 H 3074.75 6.51287 -2.75604 0
M  V30 17659 H 3075.75 7.01734 -1.34462 0
M  V30 17660 H 3073.91 8.73674 -2.38337 0
M  V30 17661 H 3073.86 4.68207 -3.53221 0
M  V30 17662 H 3074.54 -0.0398818 0.767965 0
M  V30 17663 H 3074.58 2.50995 3.13503 0
M  V30 17664 H 3074.68 0.759148 2.80716 0
M  V30 17665 P 3075.78 8.91 -1.00544e-10 0
M  V30 17666 O 3076 10.1726 0.733694 0
M  V30 17667 O 3076.57 8.73148 -1.23936 0
M  V30 17668 O 3076.03 7.66872 0.971405 0
M  V30 17669 C 3075.09 7.42309 2.04641 0
M  V30 17670 C 3075.82 6.86059 3.24661 0
M  V30 17671 O 3076.03 5.42847 3.03646 0
M  V30 17672 C 3077.22 7.41196 3.50753 0
M  V30 17673 O 3077.61 7.27073 4.86816 0
M  V30 17674 C 3078.1 6.5273 2.63741 0
M  V30 17675 C 3077.39 5.1842 2.73198 0
M  V30 17676 N 3077.44 4.38762 1.4784 0
M  V30 17677 H 3074.6 8.36803 2.32493 0
M  V30 17678 H 3074.33 6.70197 1.71129 0
M  V30 17679 H 3075.2 7.03551 4.13168 0
M  V30 17680 P 3079.16 7.20834 5.23717 0
M  V30 17681 O 3079.38 7.79853 6.57286 0
M  V30 17682 O 3079.95 7.79239 4.12957 0
M  V30 17683 O 3079.41 5.63315 5.29344 0
M  V30 17684 C 3078.47 4.80255 6.01876 0
M  V30 17685 C 3079.2 3.64202 6.65911 0
M  V30 17686 O 3079.41 2.60694 5.64732 0
M  V30 17687 C 3080.6 3.93473 7.1943 0
M  V30 17688 O 3080.99 3.02071 8.21205 0
M  V30 17689 C 3081.48 3.73047 5.97036 0
M  V30 17690 C 3080.77 2.58828 5.25741 0
M  V30 17691 N 3080.82 2.68068 3.77503 0
M  V30 17692 H 3077.98 5.40332 6.79951 0
M  V30 17693 H 3077.71 4.41613 5.32378 0
M  V30 17694 H 3078.58 3.26331 7.47797 0
M  V30 17695 P 3082.54 2.75334 8.47391 0
M  V30 17696 O 3082.76 2.44595 9.90239 0
M  V30 17697 O 3083.33 3.87732 7.92204 0
M  V30 17698 O 3082.79 1.4459 7.59357 0
M  V30 17699 C 3081.85 0.347563 7.69115 0
M  V30 17700 C 3082.58 -0.96767 7.52806 0
M  V30 17701 O 3082.79 -1.21036 6.1011 0
M  V30 17702 C 3083.98 -1.04544 8.13308 0
M  V30 17703 O 3084.37 -2.38311 8.41922 0
M  V30 17704 C 3084.86 -0.491279 7.02284 0
M  V30 17705 C 3084.15 -0.996264 5.77469 0
M  V30 17706 N 3084.2 -0.0501808 4.62873 0
M  V30 17707 C 3084.35 -0.588177 3.36904 0
M  V30 17708 O 3084.44 -1.78598 3.17173 0
M  V30 17709 N 3084.39 0.329694 2.33686 0
M  V30 17710 C 3084.3 1.6953 2.45079 0
M  V30 17711 O 3084.35 2.41926 1.44899 0
M  V30 17712 C 3084.15 2.16933 3.80505 0
M  V30 17713 C 3084.04 3.65373 3.97621 0
M  V30 17714 C 3084.1 1.30326 4.83752 0
M  V30 17715 H 3081.36 0.374722 8.67691 0
M  V30 17716 H 3081.09 0.443421 6.90177 0
M  V30 17717 H 3081.96 -1.75537 7.96793 0
M  V30 17718 H 3084.61 -1.94496 5.46629 0
M  V30 17719 H 3084.89 0.608651 7.04676 0
M  V30 17720 H 3085.89 -0.889672 7.08939 0
M  V30 17721 H 3084.05 -0.43308 9.04564 0
M  V30 17722 H 3083.98 1.68366 5.8516 0
M  V30 17723 H 3085.01 4.05985 4.30448 0
M  V30 17724 H 3083.27 3.88028 4.72875 0
M  V30 17725 H 3083.76 4.11381 3.01609 0
M  V30 17726 H 3084.5 -0.0393617 1.41345 0
M  V30 17727 P 3085.92 -2.75334 8.47391 0
M  V30 17728 O 3086.14 -3.84128 9.44797 0
M  V30 17729 O 3086.71 -1.51947 8.68712 0
M  V30 17730 O 3086.17 -3.29363 6.99321 0
M  V30 17731 C 3085.23 -4.24011 6.4274 0
M  V30 17732 C 3085.96 -5.20775 5.52155 0
M  V30 17733 O 3086.17 -4.56534 4.22446 0
M  V30 17734 C 3087.36 -5.62629 5.96531 0
M  V30 17735 O 3087.75 -6.87667 5.41053 0
M  V30 17736 C 3088.24 -4.52537 5.39283 0
M  V30 17737 C 3087.53 -4.20027 4.08623 0
M  V30 17738 N 3087.58 -2.76189 3.71603 0
M  V30 17739 H 3084.74 -4.797 7.24003 0
M  V30 17740 H 3084.47 -3.69856 5.84513 0
M  V30 17741 H 3085.34 -6.10356 5.41441 0
M  V30 17742 P 3089.3 -7.20834 5.23717 0
M  V30 17743 O 3089.52 -8.66104 5.38572 0
M  V30 17744 O 3090.09 -6.33544 6.1349 0
M  V30 17745 O 3089.55 -6.7751 3.72168 0
M  V30 17746 C 3088.61 -7.20825 2.7076 0
M  V30 17747 C 3089.34 -7.45864 1.40599 0
M  V30 17748 O 3089.55 -6.17651 0.734225 0
M  V30 17749 C 3090.74 -8.05808 1.51899 0
M  V30 17750 O 3091.13 -8.74358 0.335205 0
M  V30 17751 C 3091.62 -6.83093 1.70294 0
M  V30 17752 C 3090.91 -5.79992 0.836974 0
M  V30 17753 N 3090.96 -4.41864 1.38293 0
M  V30 17754 H 3088.12 -8.13644 3.0377 0
M  V30 17755 H 3087.85 -6.42788 2.55485 0
M  V30 17756 H 3088.72 -8.12039 0.792769 0
M  V30 17757 P 3092.68 -8.91 1.01653e-10 0
M  V30 17758 O 3092.9 -10.1726 -0.733694 0
M  V30 17759 O 3093.47 -8.73148 1.23936 0
M  V30 17760 O 3092.93 -7.66872 -0.971405 0
M  V30 17761 C 3091.99 -7.42309 -2.04641 0
M  V30 17762 C 3092.72 -6.86059 -3.24661 0
M  V30 17763 O 3092.93 -5.42847 -3.03646 0
M  V30 17764 C 3094.12 -7.41196 -3.50753 0
M  V30 17765 O 3094.51 -7.27073 -4.86816 0
M  V30 17766 C 3095 -6.5273 -2.63741 0
M  V30 17767 C 3094.29 -5.1842 -2.73198 0
M  V30 17768 N 3094.34 -4.38762 -1.4784 0
M  V30 17769 H 3091.5 -8.36803 -2.32493 0
M  V30 17770 H 3091.23 -6.70197 -1.71129 0
M  V30 17771 H 3092.1 -7.03551 -4.13168 0
M  V30 17772 P 3096.06 -7.20834 -5.23717 0
M  V30 17773 O 3096.28 -7.79853 -6.57286 0
M  V30 17774 O 3096.85 -7.79239 -4.12957 0
M  V30 17775 O 3096.31 -5.63315 -5.29344 0
M  V30 17776 C 3095.37 -4.80255 -6.01876 0
M  V30 17777 C 3096.1 -3.64202 -6.65911 0
M  V30 17778 O 3096.31 -2.60694 -5.64732 0
M  V30 17779 C 3097.5 -3.93473 -7.1943 0
M  V30 17780 O 3097.89 -3.02071 -8.21205 0
M  V30 17781 C 3098.38 -3.73047 -5.97036 0
M  V30 17782 C 3097.67 -2.58828 -5.25741 0
M  V30 17783 N 3097.72 -2.68068 -3.77503 0
M  V30 17784 H 3094.88 -5.40332 -6.79951 0
M  V30 17785 H 3094.61 -4.41613 -5.32378 0
M  V30 17786 H 3095.48 -3.26331 -7.47797 0
M  V30 17787 P 3099.44 -2.75334 -8.47391 0
M  V30 17788 O 3099.66 -2.44571 -9.90142 0
M  V30 17789 O 3100.23 -3.87688 -7.92115 0
M  V30 17790 O 3099.69 -1.4459 -7.59357 0
M  V30 17791 C 3098.75 -0.347608 -7.69215 0
M  V30 17792 C 3099.48 0.96767 -7.52806 0
M  V30 17793 O 3099.69 1.21036 -6.1011 0
M  V30 17794 C 3100.88 1.04544 -8.13308 0
M  V30 17795 O 3101.27 2.38311 -8.41922 0
M  V30 17796 C 3101.76 0.491279 -7.02284 0
M  V30 17797 C 3101.05 0.996264 -5.77469 0
M  V30 17798 N 3101.1 0.0501916 -4.62973 0
M  V30 17799 H 3098.26 -0.374722 -8.67691 0
M  V30 17800 H 3097.99 -0.443485 -6.90277 0
M  V30 17801 H 3098.86 1.75537 -7.96793 0
M  V30 17802 P 3102.82 2.75334 -8.47391 0
M  V30 17803 O 3103.04 3.84128 -9.44797 0
M  V30 17804 O 3103.61 1.51947 -8.68712 0
M  V30 17805 O 3103.07 3.29363 -6.99321 0
M  V30 17806 C 3102.13 4.24011 -6.4274 0
M  V30 17807 C 3102.86 5.20775 -5.52155 0
M  V30 17808 O 3103.07 4.56534 -4.22446 0
M  V30 17809 C 3104.26 5.62629 -5.96531 0
M  V30 17810 O 3104.65 6.87667 -5.41053 0
M  V30 17811 C 3105.14 4.52537 -5.39283 0
M  V30 17812 C 3104.43 4.20027 -4.08623 0
M  V30 17813 N 3104.48 2.76189 -3.71603 0
M  V30 17814 H 3101.64 4.797 -7.24003 0
M  V30 17815 H 3101.37 3.69856 -5.84513 0
M  V30 17816 H 3102.24 6.10356 -5.41441 0
M  V30 17817 P 3106.2 7.20834 -5.23717 0
M  V30 17818 O 3106.42 8.66104 -5.38572 0
M  V30 17819 O 3106.99 6.33544 -6.1349 0
M  V30 17820 O 3106.45 6.7751 -3.72168 0
M  V30 17821 C 3105.51 7.20825 -2.7076 0
M  V30 17822 C 3106.24 7.45864 -1.40599 0
M  V30 17823 O 3106.45 6.17651 -0.734225 0
M  V30 17824 C 3107.64 8.05808 -1.51899 0
M  V30 17825 O 3108.03 8.74358 -0.335205 0
M  V30 17826 C 3108.52 6.83093 -1.70294 0
M  V30 17827 C 3107.81 5.79992 -0.836974 0
M  V30 17828 N 3107.86 4.41864 -1.38293 0
M  V30 17829 H 3105.02 8.13644 -3.0377 0
M  V30 17830 H 3104.75 6.42788 -2.55485 0
M  V30 17831 H 3105.62 8.12039 -0.792769 0
M  V30 17832 P 3109.58 8.91 -1.02762e-10 0
M  V30 17833 O 3109.8 10.1746 0.733838 0
M  V30 17834 O 3110.37 8.73346 -1.23964 0
M  V30 17835 O 3109.83 7.66872 0.971405 0
M  V30 17836 C 3108.89 7.42405 2.04668 0
M  V30 17837 C 3109.62 6.86059 3.24661 0
M  V30 17838 O 3109.83 5.42934 3.03695 0
M  V30 17839 C 3111.02 7.41287 3.50796 0
M  V30 17840 O 3111.41 7.27073 4.86816 0
M  V30 17841 C 3111.9 6.5273 2.63741 0
M  V30 17842 C 3111.19 5.1842 2.73198 0
M  V30 17843 N 3111.24 4.38762 1.4784 0
M  V30 17844 C 3111.16 4.83651 0.183876 0
M  V30 17845 N 3111.23 3.88759 -0.699393 0
M  V30 17846 C 3111.38 2.7404 0.0575568 0
M  V30 17847 C 3111.51 1.37902 -0.293928 0
M  V30 17848 N 3111.52 0.938021 -1.54797 0
M  V30 17849 N 3111.63 0.491817 0.70549 0
M  V30 17850 C 3111.62 0.931735 1.95979 0
M  V30 17851 N 3111.5 2.16017 2.41481 0
M  V30 17852 C 3111.38 3.02547 1.39121 0
M  V30 17853 H 3108.4 8.36899 2.3252 0
M  V30 17854 H 3108.13 6.70391 1.71179 0
M  V30 17855 H 3109 7.03638 4.13219 0
M  V30 17856 H 3111.65 4.59931 3.54016 0
M  V30 17857 H 3111.93 6.88995 1.59871 0
M  V30 17858 H 3112.93 6.4684 3.0373 0
M  V30 17859 H 3111.09 8.47002 3.20749 0
M  V30 17860 H 3111.05 5.8885 -0.0765548 0
M  V30 17861 H 3111.43 1.60276 -2.32875 0
M  V30 17862 H 3111.62 -0.0699355 -1.73859 0
M  V30 17863 H 3111.73 0.165507 2.71897 0
M  V30 17864 P 3112.96 7.20834 5.23717 0
M  V30 17865 O 3113.18 7.79853 6.57286 0
M  V30 17866 O 3113.75 7.79239 4.12957 0
M  V30 17867 O 3113.21 5.63315 5.29344 0
M  V30 17868 C 3112.27 4.80255 6.01876 0
M  V30 17869 C 3113 3.64202 6.65911 0
M  V30 17870 O 3113.21 2.60694 5.64732 0
M  V30 17871 C 3114.4 3.93473 7.1943 0
M  V30 17872 O 3114.79 3.02071 8.21205 0
M  V30 17873 C 3115.28 3.73047 5.97036 0
M  V30 17874 C 3114.57 2.58828 5.25741 0
M  V30 17875 N 3114.62 2.68068 3.77503 0
M  V30 17876 C 3114.54 3.79715 2.96723 0
M  V30 17877 N 3114.62 3.5377 1.68852 0
M  V30 17878 C 3114.76 2.15054 1.63254 0
M  V30 17879 C 3114.89 1.28964 0.518571 0
M  V30 17880 N 3115.01 -0.0538097 0.918425 0
M  V30 17881 C 3115.01 -0.494275 2.22578 0
M  V30 17882 N 3115.14 -1.81086 2.40434 0
M  V30 17883 N 3114.88 0.313645 3.27502 0
M  V30 17884 C 3114.76 1.61829 2.91033 0
M  V30 17885 H 3111.78 5.40332 6.79951 0
M  V30 17886 H 3111.51 4.41613 5.32378 0
M  V30 17887 H 3112.38 3.26331 7.47797 0
M  V30 17888 P 3116.34 2.75334 8.47391 0
M  V30 17889 O 3116.56 2.44571 9.90142 0
M  V30 17890 O 3117.13 3.87688 7.92115 0
M  V30 17891 O 3116.59 1.4459 7.59357 0
M  V30 17892 C 3115.65 0.347608 7.69215 0
M  V30 17893 C 3116.38 -0.96767 7.52806 0
M  V30 17894 O 3116.59 -1.21036 6.1011 0
M  V30 17895 C 3117.78 -1.04544 8.13308 0
M  V30 17896 O 3118.17 -2.38311 8.41922 0
M  V30 17897 C 3118.66 -0.491279 7.02284 0
M  V30 17898 C 3117.95 -0.996264 5.77469 0
M  V30 17899 N 3118 -0.0501916 4.62973 0
M  V30 17900 H 3115.16 0.374722 8.67691 0
M  V30 17901 H 3114.89 0.443485 6.90277 0
M  V30 17902 H 3115.76 -1.75537 7.96793 0
M  V30 17903 P 3119.72 -2.75334 8.47391 0
M  V30 17904 O 3119.94 -3.84128 9.44797 0
M  V30 17905 O 3120.51 -1.51947 8.68712 0
M  V30 17906 O 3119.97 -3.29363 6.99321 0
M  V30 17907 C 3119.03 -4.24011 6.4274 0
M  V30 17908 C 3119.76 -5.20775 5.52155 0
M  V30 17909 O 3119.97 -4.56534 4.22446 0
M  V30 17910 C 3121.16 -5.62629 5.96531 0
M  V30 17911 O 3121.55 -6.87667 5.41053 0
M  V30 17912 C 3122.04 -4.52537 5.39283 0
M  V30 17913 C 3121.33 -4.20027 4.08623 0
M  V30 17914 N 3121.38 -2.76189 3.71603 0
M  V30 17915 H 3118.54 -4.797 7.24003 0
M  V30 17916 H 3118.27 -3.69856 5.84513 0
M  V30 17917 H 3119.14 -6.10356 5.41441 0
M  V30 17918 P 3123.1 -7.20834 5.23717 0
M  V30 17919 O 3123.32 -8.66104 5.38572 0
M  V30 17920 O 3123.89 -6.33544 6.1349 0
M  V30 17921 O 3123.35 -6.7751 3.72168 0
M  V30 17922 C 3122.41 -7.20825 2.7076 0
M  V30 17923 C 3123.14 -7.45864 1.40599 0
M  V30 17924 O 3123.35 -6.17651 0.734225 0
M  V30 17925 C 3124.54 -8.05808 1.51899 0
M  V30 17926 O 3124.93 -8.74358 0.335205 0
M  V30 17927 C 3125.42 -6.83093 1.70294 0
M  V30 17928 C 3124.71 -5.79992 0.836974 0
M  V30 17929 N 3124.76 -4.41864 1.38293 0
M  V30 17930 H 3121.92 -8.13644 3.0377 0
M  V30 17931 H 3121.65 -6.42788 2.55485 0
M  V30 17932 H 3122.52 -8.12039 0.792769 0
M  V30 17933 P 3126.48 -8.91 1.03871e-10 0
M  V30 17934 O 3126.7 -10.1726 -0.733694 0
M  V30 17935 O 3127.27 -8.73148 1.23936 0
M  V30 17936 O 3126.73 -7.66872 -0.971405 0
M  V30 17937 C 3125.79 -7.42309 -2.04641 0
M  V30 17938 C 3126.52 -6.86059 -3.24661 0
M  V30 17939 O 3126.73 -5.42847 -3.03646 0
M  V30 17940 C 3127.92 -7.41196 -3.50753 0
M  V30 17941 O 3128.31 -7.27073 -4.86816 0
M  V30 17942 C 3128.8 -6.5273 -2.63741 0
M  V30 17943 C 3128.09 -5.1842 -2.73198 0
M  V30 17944 N 3128.14 -4.38762 -1.4784 0
M  V30 17945 H 3125.3 -8.36803 -2.32493 0
M  V30 17946 H 3125.03 -6.70197 -1.71129 0
M  V30 17947 H 3125.9 -7.03551 -4.13168 0
M  V30 17948 P 3129.86 -7.20834 -5.23717 0
M  V30 17949 O 3130.08 -7.7993 -6.57351 0
M  V30 17950 O 3130.65 -7.79328 -4.13004 0
M  V30 17951 O 3130.11 -5.63315 -5.29344 0
M  V30 17952 C 3129.17 -4.80193 -6.01798 0
M  V30 17953 C 3129.9 -3.64202 -6.65911 0
M  V30 17954 O 3130.11 -2.60694 -5.64732 0
M  V30 17955 C 3131.3 -3.93473 -7.1943 0
M  V30 17956 O 3131.69 -3.02071 -8.21205 0
M  V30 17957 C 3132.18 -3.73047 -5.97036 0
M  V30 17958 C 3131.47 -2.58828 -5.25741 0
M  V30 17959 N 3131.52 -2.6801 -3.77422 0
M  V30 17960 C 3131.67 -1.50443 -3.07133 0
M  V30 17961 O 3131.76 -0.419406 -3.61576 0
M  V30 17962 N 3131.71 -1.6403 -1.69677 0
M  V30 17963 C 3131.62 -2.81206 -0.986255 0
M  V30 17964 O 3131.67 -2.80892 0.249754 0
M  V30 17965 C 3131.47 -3.99158 -1.80325 0
M  V30 17966 C 3131.36 -5.29309 -1.06921 0
M  V30 17967 C 3131.42 -3.89779 -3.1476 0
M  V30 17968 H 3128.68 -5.40332 -6.79951 0
M  V30 17969 H 3128.41 -4.41549 -5.32301 0
M  V30 17970 H 3129.28 -3.26331 -7.47797 0
M  V30 17971 H 3131.93 -1.6395 -5.56554 0
M  V30 17972 H 3132.21 -4.63439 -5.3432 0
M  V30 17973 H 3133.21 -3.44728 -6.25838 0
M  V30 17974 H 3131.37 -4.96652 -7.57263 0
M  V30 17975 H 3131.3 -4.80159 -3.74441 0
M  V30 17976 H 3132.33 -5.81459 -1.09608 0
M  V30 17977 H 3130.59 -5.9187 -1.54487 0
M  V30 17978 H 3131.08 -5.10095 -0.0220288 0
M  V30 17979 H 3131.82 -0.798962 -1.16664 0
M  V30 17980 P 3133.24 -2.75334 -8.47391 0
M  V30 17981 O 3133.46 -2.44571 -9.90142 0
M  V30 17982 O 3134.03 -3.87688 -7.92115 0
M  V30 17983 O 3133.49 -1.4459 -7.59357 0
M  V30 17984 C 3132.55 -0.347608 -7.69215 0
M  V30 17985 C 3133.28 0.96767 -7.52806 0
M  V30 17986 O 3133.49 1.21036 -6.1011 0
M  V30 17987 C 3134.68 1.04544 -8.13308 0
M  V30 17988 O 3135.07 2.38311 -8.41922 0
M  V30 17989 C 3135.56 0.491279 -7.02284 0
M  V30 17990 C 3134.85 0.996264 -5.77469 0
M  V30 17991 N 3134.9 0.0501916 -4.62973 0
M  V30 17992 H 3132.06 -0.374722 -8.67691 0
M  V30 17993 H 3131.79 -0.443485 -6.90277 0
M  V30 17994 H 3132.66 1.75537 -7.96793 0
M  V30 17995 P 3136.62 2.75334 -8.47391 0
M  V30 17996 O 3136.84 3.84128 -9.44797 0
M  V30 17997 O 3137.41 1.51947 -8.68712 0
M  V30 17998 O 3136.87 3.29363 -6.99321 0
M  V30 17999 C 3135.93 4.24011 -6.4274 0
M  V30 18000 C 3136.66 5.20775 -5.52155 0
M  V30 18001 O 3136.87 4.56534 -4.22446 0
M  V30 18002 C 3138.06 5.62629 -5.96531 0
M  V30 18003 O 3138.45 6.87667 -5.41053 0
M  V30 18004 C 3138.94 4.52537 -5.39283 0
M  V30 18005 C 3138.23 4.20027 -4.08623 0
M  V30 18006 N 3138.28 2.76189 -3.71603 0
M  V30 18007 H 3135.44 4.797 -7.24003 0
M  V30 18008 H 3135.17 3.69856 -5.84513 0
M  V30 18009 H 3136.04 6.10356 -5.41441 0
M  V30 18010 P 3140 7.20834 -5.23717 0
M  V30 18011 O 3140.22 8.66104 -5.38572 0
M  V30 18012 O 3140.79 6.33544 -6.1349 0
M  V30 18013 O 3140.25 6.7751 -3.72168 0
M  V30 18014 C 3139.31 7.20825 -2.7076 0
M  V30 18015 C 3140.04 7.45864 -1.40599 0
M  V30 18016 O 3140.25 6.17651 -0.734225 0
M  V30 18017 C 3141.44 8.05808 -1.51899 0
M  V30 18018 O 3141.83 8.74358 -0.335205 0
M  V30 18019 C 3142.32 6.83093 -1.70294 0
M  V30 18020 C 3141.61 5.79992 -0.836974 0
M  V30 18021 N 3141.66 4.41864 -1.38293 0
M  V30 18022 H 3138.82 8.13644 -3.0377 0
M  V30 18023 H 3138.55 6.42788 -2.55485 0
M  V30 18024 H 3139.42 8.12039 -0.792769 0
M  V30 18025 P 3143.38 8.91 -1.0498e-10 0
M  V30 18026 O 3143.6 10.1736 0.733766 0
M  V30 18027 O 3144.17 8.73247 -1.2395 0
M  V30 18028 O 3143.63 7.66872 0.971405 0
M  V30 18029 C 3142.69 7.42212 2.04614 0
M  V30 18030 C 3143.42 6.86059 3.24661 0
M  V30 18031 O 3143.63 5.42847 3.03646 0
M  V30 18032 C 3144.82 7.41196 3.50753 0
M  V30 18033 O 3145.21 7.27073 4.86816 0
M  V30 18034 C 3145.7 6.5273 2.63741 0
M  V30 18035 C 3144.99 5.1842 2.73198 0
M  V30 18036 N 3145.04 4.38668 1.47808 0
M  V30 18037 C 3145.19 3.02239 1.60048 0
M  V30 18038 O 3145.28 2.46459 2.67869 0
M  V30 18039 N 3145.23 2.32436 0.408571 0
M  V30 18040 C 3145.14 2.85471 -0.854993 0
M  V30 18041 O 3145.19 2.12566 -1.8531 0
M  V30 18042 C 3144.99 4.28918 -0.887335 0
M  V30 18043 C 3144.88 4.91066 -2.24619 0
M  V30 18044 C 3144.94 5.00349 0.255399 0
M  V30 18045 H 3142.2 8.36803 2.32493 0
M  V30 18046 H 3141.93 6.701 1.71105 0
M  V30 18047 H 3142.8 7.03551 4.13168 0
M  V30 18048 H 3145.45 4.59773 3.53894 0
M  V30 18049 H 3145.73 6.88995 1.59871 0
M  V30 18050 H 3146.73 6.46749 3.03687 0
M  V30 18051 H 3144.89 8.46908 3.20714 0
M  V30 18052 H 3144.82 6.08548 0.206986 0
M  V30 18053 H 3145.85 5.34836 -2.53099 0
M  V30 18054 H 3144.11 5.69638 -2.2291 0
M  V30 18055 H 3144.6 4.13971 -2.98044 0
M  V30 18056 H 3145.34 1.33211 0.474216 0
M  V30 18057 P 3146.76 7.20834 5.23717 0
M  V30 18058 O 3146.98 7.79853 6.57286 0
M  V30 18059 O 3147.55 7.79239 4.12957 0
M  V30 18060 O 3147.01 5.63315 5.29344 0
M  V30 18061 C 3146.07 4.80255 6.01876 0
M  V30 18062 C 3146.8 3.64202 6.65911 0
M  V30 18063 O 3147.01 2.60694 5.64732 0
M  V30 18064 C 3148.2 3.93473 7.1943 0
M  V30 18065 O 3148.59 3.02071 8.21205 0
M  V30 18066 C 3149.08 3.73047 5.97036 0
M  V30 18067 C 3148.37 2.58828 5.25741 0
M  V30 18068 N 3148.42 2.68068 3.77503 0
M  V30 18069 H 3145.58 5.40332 6.79951 0
M  V30 18070 H 3145.31 4.41613 5.32378 0
M  V30 18071 H 3146.18 3.26331 7.47797 0
M  V30 18072 P 3150.14 2.75334 8.47391 0
M  V30 18073 O 3150.36 2.44571 9.90142 0
M  V30 18074 O 3150.93 3.87688 7.92115 0
M  V30 18075 O 3150.39 1.4459 7.59357 0
M  V30 18076 C 3149.45 0.347608 7.69215 0
M  V30 18077 C 3150.18 -0.96767 7.52806 0
M  V30 18078 O 3150.39 -1.21036 6.1011 0
M  V30 18079 C 3151.58 -1.04544 8.13308 0
M  V30 18080 O 3151.97 -2.38311 8.41922 0
M  V30 18081 C 3152.46 -0.491279 7.02284 0
M  V30 18082 C 3151.75 -0.996264 5.77469 0
M  V30 18083 N 3151.8 -0.0501916 4.62973 0
M  V30 18084 H 3148.96 0.374722 8.67691 0
M  V30 18085 H 3148.69 0.443485 6.90277 0
M  V30 18086 H 3149.56 -1.75537 7.96793 0
M  V30 18087 P 3153.52 -2.75334 8.47391 0
M  V30 18088 O 3153.74 -3.84128 9.44797 0
M  V30 18089 O 3154.31 -1.51947 8.68712 0
M  V30 18090 O 3153.77 -3.29363 6.99321 0
M  V30 18091 C 3152.83 -4.24011 6.4274 0
M  V30 18092 C 3153.56 -5.20775 5.52155 0
M  V30 18093 O 3153.77 -4.56534 4.22446 0
M  V30 18094 C 3154.96 -5.62629 5.96531 0
M  V30 18095 O 3155.35 -6.87667 5.41053 0
M  V30 18096 C 3155.84 -4.52537 5.39283 0
M  V30 18097 C 3155.13 -4.20027 4.08623 0
M  V30 18098 N 3155.18 -2.76189 3.71603 0
M  V30 18099 H 3152.34 -4.797 7.24003 0
M  V30 18100 H 3152.07 -3.69856 5.84513 0
M  V30 18101 H 3152.94 -6.10356 5.41441 0
M  V30 18102 P 3156.9 -7.20834 5.23717 0
M  V30 18103 O 3157.12 -8.66104 5.38572 0
M  V30 18104 O 3157.69 -6.33544 6.1349 0
M  V30 18105 O 3157.15 -6.7751 3.72168 0
M  V30 18106 C 3156.21 -7.20825 2.7076 0
M  V30 18107 C 3156.94 -7.45864 1.40599 0
M  V30 18108 O 3157.15 -6.17651 0.734225 0
M  V30 18109 C 3158.34 -8.05808 1.51899 0
M  V30 18110 O 3158.73 -8.74358 0.335205 0
M  V30 18111 C 3159.22 -6.83093 1.70294 0
M  V30 18112 C 3158.51 -5.79992 0.836974 0
M  V30 18113 N 3158.56 -4.41864 1.38293 0
M  V30 18114 H 3155.72 -8.13644 3.0377 0
M  V30 18115 H 3155.45 -6.42788 2.55485 0
M  V30 18116 H 3156.32 -8.12039 0.792769 0
M  V30 18117 P 3160.28 -8.91 1.06089e-10 0
M  V30 18118 O 3160.5 -10.1726 -0.733694 0
M  V30 18119 O 3161.07 -8.73148 1.23936 0
M  V30 18120 O 3160.53 -7.66872 -0.971405 0
M  V30 18121 C 3159.59 -7.42309 -2.04641 0
M  V30 18122 C 3160.32 -6.86059 -3.24661 0
M  V30 18123 O 3160.53 -5.42847 -3.03646 0
M  V30 18124 C 3161.72 -7.41196 -3.50753 0
M  V30 18125 O 3162.11 -7.27073 -4.86816 0
M  V30 18126 C 3162.6 -6.5273 -2.63741 0
M  V30 18127 C 3161.89 -5.1842 -2.73198 0
M  V30 18128 N 3161.94 -4.38762 -1.4784 0
M  V30 18129 H 3159.1 -8.36803 -2.32493 0
M  V30 18130 H 3158.83 -6.70197 -1.71129 0
M  V30 18131 H 3159.7 -7.03551 -4.13168 0
M  V30 18132 P 3163.66 -7.20834 -5.23717 0
M  V30 18133 O 3163.88 -7.79853 -6.57286 0
M  V30 18134 O 3164.45 -7.79239 -4.12957 0
M  V30 18135 O 3163.91 -5.63315 -5.29344 0
M  V30 18136 C 3162.97 -4.80255 -6.01876 0
M  V30 18137 C 3163.7 -3.64202 -6.65911 0
M  V30 18138 O 3163.91 -2.60694 -5.64732 0
M  V30 18139 C 3165.1 -3.93473 -7.1943 0
M  V30 18140 O 3165.49 -3.02071 -8.21205 0
M  V30 18141 C 3165.98 -3.73047 -5.97036 0
M  V30 18142 C 3165.27 -2.58828 -5.25741 0
M  V30 18143 N 3165.32 -2.68068 -3.77503 0
M  V30 18144 H 3162.48 -5.40332 -6.79951 0
M  V30 18145 H 3162.21 -4.41613 -5.32378 0
M  V30 18146 H 3163.08 -3.26331 -7.47797 0
M  V30 18147 P 3167.04 -2.75334 -8.47391 0
M  V30 18148 O 3167.26 -2.44571 -9.90142 0
M  V30 18149 O 3167.83 -3.87688 -7.92115 0
M  V30 18150 O 3167.29 -1.4459 -7.59357 0
M  V30 18151 C 3166.35 -0.347608 -7.69215 0
M  V30 18152 C 3167.08 0.96767 -7.52806 0
M  V30 18153 O 3167.29 1.21036 -6.1011 0
M  V30 18154 C 3168.48 1.04544 -8.13308 0
M  V30 18155 O 3168.87 2.38311 -8.41922 0
M  V30 18156 C 3169.36 0.491279 -7.02284 0
M  V30 18157 C 3168.65 0.996264 -5.77469 0
M  V30 18158 N 3168.7 0.0501916 -4.62973 0
M  V30 18159 C 3168.62 -1.32786 -4.63244 0
M  V30 18160 N 3168.7 -1.86957 -3.44545 0
M  V30 18161 C 3168.84 -0.780241 -2.58481 0
M  V30 18162 C 3168.97 -0.738536 -1.17757 0
M  V30 18163 O 3168.99 -1.66794 -0.372349 0
M  V30 18164 N 3169.09 0.58337 -0.711393 0
M  V30 18165 C 3169.09 1.70816 -1.51017 0
M  V30 18166 N 3169.22 2.87826 -0.880757 0
M  V30 18167 N 3168.96 1.67126 -2.8339 0
M  V30 18168 C 3168.84 0.401421 -3.30572 0
M  V30 18169 H 3165.86 -0.374722 -8.67691 0
M  V30 18170 H 3165.59 -0.443485 -6.90277 0
M  V30 18171 H 3166.46 1.75537 -7.96793 0
M  V30 18172 H 3169.11 1.95076 -5.46529 0
M  V30 18173 H 3169.39 -0.608565 -7.04577 0
M  V30 18174 H 3170.39 0.889672 -7.08939 0
M  V30 18175 H 3168.55 0.43308 -9.04564 0
M  V30 18176 H 3168.5 -1.91249 -5.54442 0
M  V30 18177 H 3169.18 0.718054 0.275244 0
M  V30 18178 H 3169.22 3.75721 -1.41832 0
M  V30 18179 H 3169.32 2.90436 0.145468 0
M  V30 18180 P 3170.42 2.75334 -8.47391 0
M  V30 18181 O 3170.64 3.84128 -9.44797 0
M  V30 18182 O 3171.21 1.51947 -8.68712 0
M  V30 18183 O 3170.67 3.29363 -6.99321 0
M  V30 18184 C 3169.73 4.24011 -6.4274 0
M  V30 18185 C 3170.46 5.20775 -5.52155 0
M  V30 18186 O 3170.67 4.56534 -4.22446 0
M  V30 18187 C 3171.86 5.62629 -5.96531 0
M  V30 18188 O 3172.25 6.87667 -5.41053 0
M  V30 18189 C 3172.74 4.52537 -5.39283 0
M  V30 18190 C 3172.03 4.20027 -4.08623 0
M  V30 18191 N 3172.08 2.76189 -3.71603 0
M  V30 18192 H 3169.24 4.797 -7.24003 0
M  V30 18193 H 3168.97 3.69856 -5.84513 0
M  V30 18194 H 3169.84 6.10356 -5.41441 0
M  V30 18195 P 3173.8 7.20834 -5.23717 0
M  V30 18196 O 3174.02 8.66104 -5.38572 0
M  V30 18197 O 3174.59 6.33544 -6.1349 0
M  V30 18198 O 3174.05 6.7751 -3.72168 0
M  V30 18199 C 3173.11 7.20825 -2.7076 0
M  V30 18200 C 3173.84 7.45864 -1.40599 0
M  V30 18201 O 3174.05 6.17651 -0.734225 0
M  V30 18202 C 3175.24 8.05808 -1.51899 0
M  V30 18203 O 3175.63 8.74358 -0.335205 0
M  V30 18204 C 3176.12 6.83093 -1.70294 0
M  V30 18205 C 3175.41 5.79992 -0.836974 0
M  V30 18206 N 3175.46 4.41864 -1.38293 0
M  V30 18207 H 3172.62 8.13644 -3.0377 0
M  V30 18208 H 3172.35 6.42788 -2.55485 0
M  V30 18209 H 3173.22 8.12039 -0.792769 0
M  V30 18210 P 3177.18 8.91 -1.07198e-10 0
M  V30 18211 O 3177.4 10.1726 0.733694 0
M  V30 18212 O 3177.97 8.73148 -1.23936 0
M  V30 18213 O 3177.43 7.66872 0.971405 0
M  V30 18214 C 3176.49 7.42309 2.04641 0
M  V30 18215 C 3177.22 6.86059 3.24661 0
M  V30 18216 O 3177.43 5.42847 3.03646 0
M  V30 18217 C 3178.62 7.41196 3.50753 0
M  V30 18218 O 3179.01 7.27073 4.86816 0
M  V30 18219 C 3179.5 6.5273 2.63741 0
M  V30 18220 C 3178.79 5.1842 2.73198 0
M  V30 18221 N 3178.84 4.38762 1.4784 0
M  V30 18222 H 3176 8.36803 2.32493 0
M  V30 18223 H 3175.73 6.70197 1.71129 0
M  V30 18224 H 3176.6 7.03551 4.13168 0
M  V30 18225 P 3180.56 7.20834 5.23717 0
M  V30 18226 O 3180.78 7.79853 6.57286 0
M  V30 18227 O 3181.35 7.79239 4.12957 0
M  V30 18228 O 3180.81 5.63315 5.29344 0
M  V30 18229 C 3179.87 4.80255 6.01876 0
M  V30 18230 C 3180.6 3.64202 6.65911 0
M  V30 18231 O 3180.81 2.60694 5.64732 0
M  V30 18232 C 3182 3.93473 7.1943 0
M  V30 18233 O 3182.39 3.02071 8.21205 0
M  V30 18234 C 3182.88 3.73047 5.97036 0
M  V30 18235 C 3182.17 2.58828 5.25741 0
M  V30 18236 N 3182.22 2.68068 3.77503 0
M  V30 18237 H 3179.38 5.40332 6.79951 0
M  V30 18238 H 3179.11 4.41613 5.32378 0
M  V30 18239 H 3179.98 3.26331 7.47797 0
M  V30 18240 P 3183.94 2.75334 8.47391 0
M  V30 18241 O 3184.16 2.44595 9.90239 0
M  V30 18242 O 3184.73 3.87732 7.92204 0
M  V30 18243 O 3184.19 1.4459 7.59357 0
M  V30 18244 C 3183.25 0.347563 7.69115 0
M  V30 18245 C 3183.98 -0.96767 7.52806 0
M  V30 18246 O 3184.19 -1.21036 6.1011 0
M  V30 18247 C 3185.38 -1.04544 8.13308 0
M  V30 18248 O 3185.77 -2.38311 8.41922 0
M  V30 18249 C 3186.26 -0.491279 7.02284 0
M  V30 18250 C 3185.55 -0.996264 5.77469 0
M  V30 18251 N 3185.6 -0.0501808 4.62873 0
M  V30 18252 C 3185.75 -0.588177 3.36904 0
M  V30 18253 O 3185.84 -1.78598 3.17173 0
M  V30 18254 N 3185.79 0.329694 2.33686 0
M  V30 18255 C 3185.7 1.6953 2.45079 0
M  V30 18256 O 3185.75 2.41926 1.44899 0
M  V30 18257 C 3185.55 2.16933 3.80505 0
M  V30 18258 C 3185.44 3.65373 3.97621 0
M  V30 18259 C 3185.5 1.30326 4.83752 0
M  V30 18260 H 3182.76 0.374722 8.67691 0
M  V30 18261 H 3182.49 0.443421 6.90177 0
M  V30 18262 H 3183.36 -1.75537 7.96793 0
M  V30 18263 H 3186.01 -1.94496 5.46629 0
M  V30 18264 H 3186.29 0.608651 7.04676 0
M  V30 18265 H 3187.29 -0.889672 7.08939 0
M  V30 18266 H 3185.45 -0.43308 9.04564 0
M  V30 18267 H 3185.38 1.68366 5.8516 0
M  V30 18268 H 3186.41 4.05985 4.30448 0
M  V30 18269 H 3184.67 3.88028 4.72875 0
M  V30 18270 H 3185.16 4.11381 3.01609 0
M  V30 18271 H 3185.9 -0.0393617 1.41345 0
M  V30 18272 P 3187.32 -2.75334 8.47391 0
M  V30 18273 O 3187.54 -3.84128 9.44797 0
M  V30 18274 O 3188.11 -1.51947 8.68712 0
M  V30 18275 O 3187.57 -3.29363 6.99321 0
M  V30 18276 C 3186.63 -4.24011 6.4274 0
M  V30 18277 C 3187.36 -5.20775 5.52155 0
M  V30 18278 O 3187.57 -4.56534 4.22446 0
M  V30 18279 C 3188.76 -5.62629 5.96531 0
M  V30 18280 O 3189.15 -6.87667 5.41053 0
M  V30 18281 C 3189.64 -4.52537 5.39283 0
M  V30 18282 C 3188.93 -4.20027 4.08623 0
M  V30 18283 N 3188.98 -2.76189 3.71603 0
M  V30 18284 H 3186.14 -4.797 7.24003 0
M  V30 18285 H 3185.87 -3.69856 5.84513 0
M  V30 18286 H 3186.74 -6.10356 5.41441 0
M  V30 18287 P 3190.7 -7.20834 5.23717 0
M  V30 18288 O 3190.92 -8.66104 5.38572 0
M  V30 18289 O 3191.49 -6.33544 6.1349 0
M  V30 18290 O 3190.95 -6.7751 3.72168 0
M  V30 18291 C 3190.01 -7.20825 2.7076 0
M  V30 18292 C 3190.74 -7.45864 1.40599 0
M  V30 18293 O 3190.95 -6.17651 0.734225 0
M  V30 18294 C 3192.14 -8.05808 1.51899 0
M  V30 18295 O 3192.53 -8.74358 0.335205 0
M  V30 18296 C 3193.02 -6.83093 1.70294 0
M  V30 18297 C 3192.31 -5.79992 0.836974 0
M  V30 18298 N 3192.36 -4.41864 1.38293 0
M  V30 18299 H 3189.52 -8.13644 3.0377 0
M  V30 18300 H 3189.25 -6.42788 2.55485 0
M  V30 18301 H 3190.12 -8.12039 0.792769 0
M  V30 18302 P 3194.08 -8.91 1.08307e-10 0
M  V30 18303 O 3194.3 -10.1726 -0.733694 0
M  V30 18304 O 3194.87 -8.73148 1.23936 0
M  V30 18305 O 3194.33 -7.66872 -0.971405 0
M  V30 18306 C 3193.39 -7.42309 -2.04641 0
M  V30 18307 C 3194.12 -6.86059 -3.24661 0
M  V30 18308 O 3194.33 -5.42847 -3.03646 0
M  V30 18309 C 3195.52 -7.41196 -3.50753 0
M  V30 18310 O 3195.91 -7.27073 -4.86816 0
M  V30 18311 C 3196.4 -6.5273 -2.63741 0
M  V30 18312 C 3195.69 -5.1842 -2.73198 0
M  V30 18313 N 3195.74 -4.38762 -1.4784 0
M  V30 18314 H 3192.9 -8.36803 -2.32493 0
M  V30 18315 H 3192.63 -6.70197 -1.71129 0
M  V30 18316 H 3193.5 -7.03551 -4.13168 0
M  V30 18317 P 3197.46 -7.20834 -5.23717 0
M  V30 18318 O 3197.68 -7.79853 -6.57286 0
M  V30 18319 O 3198.25 -7.79239 -4.12957 0
M  V30 18320 O 3197.71 -5.63315 -5.29344 0
M  V30 18321 C 3196.77 -4.80255 -6.01876 0
M  V30 18322 C 3197.5 -3.64202 -6.65911 0
M  V30 18323 O 3197.71 -2.60694 -5.64732 0
M  V30 18324 C 3198.9 -3.93473 -7.1943 0
M  V30 18325 O 3199.29 -3.02071 -8.21205 0
M  V30 18326 C 3199.78 -3.73047 -5.97036 0
M  V30 18327 C 3199.07 -2.58828 -5.25741 0
M  V30 18328 N 3199.12 -2.68068 -3.77503 0
M  V30 18329 H 3196.28 -5.40332 -6.79951 0
M  V30 18330 H 3196.01 -4.41613 -5.32378 0
M  V30 18331 H 3196.88 -3.26331 -7.47797 0
M  V30 18332 P 3200.84 -2.75334 -8.47391 0
M  V30 18333 O 3201.06 -2.44571 -9.90142 0
M  V30 18334 O 3201.63 -3.87688 -7.92115 0
M  V30 18335 O 3201.09 -1.4459 -7.59357 0
M  V30 18336 C 3200.15 -0.347608 -7.69215 0
M  V30 18337 C 3200.88 0.96767 -7.52806 0
M  V30 18338 O 3201.09 1.21036 -6.1011 0
M  V30 18339 C 3202.28 1.04544 -8.13308 0
M  V30 18340 O 3202.67 2.38311 -8.41922 0
M  V30 18341 C 3203.16 0.491279 -7.02284 0
M  V30 18342 C 3202.45 0.996264 -5.77469 0
M  V30 18343 N 3202.5 0.0501916 -4.62973 0
M  V30 18344 H 3199.66 -0.374722 -8.67691 0
M  V30 18345 H 3199.39 -0.443485 -6.90277 0
M  V30 18346 H 3200.26 1.75537 -7.96793 0
M  V30 18347 P 3204.22 2.75334 -8.47391 0
M  V30 18348 O 3204.44 3.84128 -9.44797 0
M  V30 18349 O 3205.01 1.51947 -8.68712 0
M  V30 18350 O 3204.47 3.29363 -6.99321 0
M  V30 18351 C 3203.53 4.24011 -6.4274 0
M  V30 18352 C 3204.26 5.20775 -5.52155 0
M  V30 18353 O 3204.47 4.56534 -4.22446 0
M  V30 18354 C 3205.66 5.62629 -5.96531 0
M  V30 18355 O 3206.05 6.87667 -5.41053 0
M  V30 18356 C 3206.54 4.52537 -5.39283 0
M  V30 18357 C 3205.83 4.20027 -4.08623 0
M  V30 18358 N 3205.88 2.76189 -3.71603 0
M  V30 18359 H 3203.04 4.797 -7.24003 0
M  V30 18360 H 3202.77 3.69856 -5.84513 0
M  V30 18361 H 3203.64 6.10356 -5.41441 0
M  V30 18362 P 3207.6 7.20834 -5.23717 0
M  V30 18363 O 3207.82 8.66104 -5.38572 0
M  V30 18364 O 3208.39 6.33544 -6.1349 0
M  V30 18365 O 3207.85 6.7751 -3.72168 0
M  V30 18366 C 3206.91 7.20825 -2.7076 0
M  V30 18367 C 3207.64 7.45864 -1.40599 0
M  V30 18368 O 3207.85 6.17651 -0.734225 0
M  V30 18369 C 3209.04 8.05808 -1.51899 0
M  V30 18370 O 3209.43 8.74358 -0.335205 0
M  V30 18371 C 3209.92 6.83093 -1.70294 0
M  V30 18372 C 3209.21 5.79992 -0.836974 0
M  V30 18373 N 3209.26 4.41864 -1.38293 0
M  V30 18374 H 3206.42 8.13644 -3.0377 0
M  V30 18375 H 3206.15 6.42788 -2.55485 0
M  V30 18376 H 3207.02 8.12039 -0.792769 0
M  V30 18377 P 3210.98 8.91 -1.09416e-10 0
M  V30 18378 O 3211.2 10.1726 0.733694 0
M  V30 18379 O 3211.77 8.73148 -1.23936 0
M  V30 18380 O 3211.23 7.66872 0.971405 0
M  V30 18381 C 3210.29 7.42309 2.04641 0
M  V30 18382 C 3211.02 6.86059 3.24661 0
M  V30 18383 O 3211.23 5.42847 3.03646 0
M  V30 18384 C 3212.42 7.41196 3.50753 0
M  V30 18385 O 3212.81 7.27073 4.86816 0
M  V30 18386 C 3213.3 6.5273 2.63741 0
M  V30 18387 C 3212.59 5.1842 2.73198 0
M  V30 18388 N 3212.64 4.38762 1.4784 0
M  V30 18389 H 3209.8 8.36803 2.32493 0
M  V30 18390 H 3209.53 6.70197 1.71129 0
M  V30 18391 H 3210.4 7.03551 4.13168 0
M  V30 18392 P 3214.36 7.20834 5.23717 0
M  V30 18393 O 3214.58 7.79853 6.57286 0
M  V30 18394 O 3215.15 7.79239 4.12957 0
M  V30 18395 O 3214.61 5.63315 5.29344 0
M  V30 18396 C 3213.67 4.80255 6.01876 0
M  V30 18397 C 3214.4 3.64202 6.65911 0
M  V30 18398 O 3214.61 2.60694 5.64732 0
M  V30 18399 C 3215.8 3.93473 7.1943 0
M  V30 18400 O 3216.19 3.02071 8.21205 0
M  V30 18401 C 3216.68 3.73047 5.97036 0
M  V30 18402 C 3215.97 2.58828 5.25741 0
M  V30 18403 N 3216.02 2.68068 3.77503 0
M  V30 18404 H 3213.18 5.40332 6.79951 0
M  V30 18405 H 3212.91 4.41613 5.32378 0
M  V30 18406 H 3213.78 3.26331 7.47797 0
M  V30 18407 P 3217.74 2.75334 8.47391 0
M  V30 18408 O 3217.96 2.44571 9.90142 0
M  V30 18409 O 3218.53 3.87688 7.92115 0
M  V30 18410 O 3217.99 1.4459 7.59357 0
M  V30 18411 C 3217.05 0.347608 7.69215 0
M  V30 18412 C 3217.78 -0.96767 7.52806 0
M  V30 18413 O 3217.99 -1.21036 6.1011 0
M  V30 18414 C 3219.18 -1.04544 8.13308 0
M  V30 18415 O 3219.57 -2.38311 8.41922 0
M  V30 18416 C 3220.06 -0.491279 7.02284 0
M  V30 18417 C 3219.35 -0.996264 5.77469 0
M  V30 18418 N 3219.4 -0.0501916 4.62973 0
M  V30 18419 H 3216.56 0.374722 8.67691 0
M  V30 18420 H 3216.29 0.443485 6.90277 0
M  V30 18421 H 3217.16 -1.75537 7.96793 0
M  V30 18422 P 3221.12 -2.75334 8.47391 0
M  V30 18423 O 3221.34 -3.84128 9.44797 0
M  V30 18424 O 3221.91 -1.51947 8.68712 0
M  V30 18425 O 3221.37 -3.29363 6.99321 0
M  V30 18426 C 3220.43 -4.24011 6.4274 0
M  V30 18427 C 3221.16 -5.20775 5.52155 0
M  V30 18428 O 3221.37 -4.56534 4.22446 0
M  V30 18429 C 3222.56 -5.62629 5.96531 0
M  V30 18430 O 3222.95 -6.87667 5.41053 0
M  V30 18431 C 3223.44 -4.52537 5.39283 0
M  V30 18432 C 3222.73 -4.20027 4.08623 0
M  V30 18433 N 3222.78 -2.76189 3.71603 0
M  V30 18434 H 3219.94 -4.797 7.24003 0
M  V30 18435 H 3219.67 -3.69856 5.84513 0
M  V30 18436 H 3220.54 -6.10356 5.41441 0
M  V30 18437 P 3224.5 -7.20834 5.23717 0
M  V30 18438 O 3224.72 -8.66104 5.38572 0
M  V30 18439 O 3225.29 -6.33544 6.1349 0
M  V30 18440 O 3224.75 -6.7751 3.72168 0
M  V30 18441 C 3223.81 -7.20825 2.7076 0
M  V30 18442 C 3224.54 -7.45864 1.40599 0
M  V30 18443 O 3224.75 -6.17651 0.734225 0
M  V30 18444 C 3225.94 -8.05808 1.51899 0
M  V30 18445 O 3226.33 -8.74358 0.335205 0
M  V30 18446 C 3226.82 -6.83093 1.70294 0
M  V30 18447 C 3226.11 -5.79992 0.836974 0
M  V30 18448 N 3226.16 -4.41864 1.38293 0
M  V30 18449 H 3223.32 -8.13644 3.0377 0
M  V30 18450 H 3223.05 -6.42788 2.55485 0
M  V30 18451 H 3223.92 -8.12039 0.792769 0
M  V30 18452 P 3227.88 -8.91 1.10525e-10 0
M  V30 18453 O 3228.1 -10.1726 -0.733694 0
M  V30 18454 O 3228.67 -8.73148 1.23936 0
M  V30 18455 O 3228.13 -7.66872 -0.971405 0
M  V30 18456 C 3227.19 -7.42309 -2.04641 0
M  V30 18457 C 3227.92 -6.86059 -3.24661 0
M  V30 18458 O 3228.13 -5.42847 -3.03646 0
M  V30 18459 C 3229.32 -7.41196 -3.50753 0
M  V30 18460 O 3229.71 -7.27073 -4.86816 0
M  V30 18461 C 3230.2 -6.5273 -2.63741 0
M  V30 18462 C 3229.49 -5.1842 -2.73198 0
M  V30 18463 N 3229.54 -4.38762 -1.4784 0
M  V30 18464 H 3226.7 -8.36803 -2.32493 0
M  V30 18465 H 3226.43 -6.70197 -1.71129 0
M  V30 18466 H 3227.3 -7.03551 -4.13168 0
M  V30 18467 P 3231.26 -7.20834 -5.23717 0
M  V30 18468 O 3231.48 -7.79853 -6.57286 0
M  V30 18469 O 3232.05 -7.79239 -4.12957 0
M  V30 18470 O 3231.51 -5.63315 -5.29344 0
M  V30 18471 C 3230.57 -4.80255 -6.01876 0
M  V30 18472 C 3231.3 -3.64202 -6.65911 0
M  V30 18473 O 3231.51 -2.60694 -5.64732 0
M  V30 18474 C 3232.7 -3.93473 -7.1943 0
M  V30 18475 O 3233.09 -3.02071 -8.21205 0
M  V30 18476 C 3233.58 -3.73047 -5.97036 0
M  V30 18477 C 3232.87 -2.58828 -5.25741 0
M  V30 18478 N 3232.92 -2.68068 -3.77503 0
M  V30 18479 C 3232.84 -3.79715 -2.96723 0
M  V30 18480 N 3232.92 -3.5377 -1.68852 0
M  V30 18481 C 3233.06 -2.15054 -1.63254 0
M  V30 18482 C 3233.19 -1.28964 -0.518571 0
M  V30 18483 N 3233.31 0.0538097 -0.918425 0
M  V30 18484 C 3233.31 0.494275 -2.22578 0
M  V30 18485 N 3233.44 1.81086 -2.40434 0
M  V30 18486 N 3233.18 -0.313645 -3.27502 0
M  V30 18487 C 3233.06 -1.61829 -2.91033 0
M  V30 18488 H 3230.08 -5.40332 -6.79951 0
M  V30 18489 H 3229.81 -4.41613 -5.32378 0
M  V30 18490 H 3230.68 -3.26331 -7.47797 0
M  V30 18491 P 3234.64 -2.75334 -8.47391 0
M  V30 18492 O 3234.86 -2.44571 -9.90142 0
M  V30 18493 O 3235.43 -3.87688 -7.92115 0
M  V30 18494 O 3234.89 -1.4459 -7.59357 0
M  V30 18495 C 3233.95 -0.347608 -7.69215 0
M  V30 18496 C 3234.68 0.96767 -7.52806 0
M  V30 18497 O 3234.89 1.21036 -6.1011 0
M  V30 18498 C 3236.08 1.04544 -8.13308 0
M  V30 18499 O 3236.47 2.38311 -8.41922 0
M  V30 18500 C 3236.96 0.491279 -7.02284 0
M  V30 18501 C 3236.25 0.996264 -5.77469 0
M  V30 18502 N 3236.3 0.0501916 -4.62973 0
M  V30 18503 H 3233.46 -0.374722 -8.67691 0
M  V30 18504 H 3233.19 -0.443485 -6.90277 0
M  V30 18505 H 3234.06 1.75537 -7.96793 0
M  V30 18506 P 3238.02 2.75334 -8.47391 0
M  V30 18507 O 3238.24 3.84128 -9.44797 0
M  V30 18508 O 3238.81 1.51947 -8.68712 0
M  V30 18509 O 3238.27 3.29363 -6.99321 0
M  V30 18510 C 3237.33 4.24011 -6.4274 0
M  V30 18511 C 3238.06 5.20775 -5.52155 0
M  V30 18512 O 3238.27 4.56534 -4.22446 0
M  V30 18513 C 3239.46 5.62629 -5.96531 0
M  V30 18514 O 3239.85 6.87667 -5.41053 0
M  V30 18515 C 3240.34 4.52537 -5.39283 0
M  V30 18516 C 3239.63 4.20027 -4.08623 0
M  V30 18517 N 3239.68 2.76189 -3.71603 0
M  V30 18518 H 3236.84 4.797 -7.24003 0
M  V30 18519 H 3236.57 3.69856 -5.84513 0
M  V30 18520 H 3237.44 6.10356 -5.41441 0
M  V30 18521 P 3241.4 7.20834 -5.23717 0
M  V30 18522 O 3241.62 8.66104 -5.38572 0
M  V30 18523 O 3242.19 6.33544 -6.1349 0
M  V30 18524 O 3241.65 6.7751 -3.72168 0
M  V30 18525 C 3240.71 7.20825 -2.7076 0
M  V30 18526 C 3241.44 7.45864 -1.40599 0
M  V30 18527 O 3241.65 6.17651 -0.734225 0
M  V30 18528 C 3242.84 8.05808 -1.51899 0
M  V30 18529 O 3243.23 8.74358 -0.335205 0
M  V30 18530 C 3243.72 6.83093 -1.70294 0
M  V30 18531 C 3243.01 5.79992 -0.836974 0
M  V30 18532 N 3243.06 4.41864 -1.38293 0
M  V30 18533 C 3242.98 3.99538 -2.69438 0
M  V30 18534 N 3243.06 2.69909 -2.84277 0
M  V30 18535 C 3243.2 2.21719 -1.5408 0
M  V30 18536 C 3243.33 0.891712 -1.06628 0
M  V30 18537 O 3243.35 -0.161298 -1.70137 0
M  V30 18538 N 3243.45 0.856846 0.334985 0
M  V30 18539 C 3243.45 1.9641 1.15789 0
M  V30 18540 N 3243.58 1.72708 2.46522 0
M  V30 18541 N 3243.32 3.21165 0.713741 0
M  V30 18542 C 3243.2 3.26797 -0.639748 0
M  V30 18543 H 3240.22 8.13644 -3.0377 0
M  V30 18544 H 3239.95 6.42788 -2.55485 0
M  V30 18545 H 3240.82 8.12039 -0.792769 0
M  V30 18546 H 3243.47 5.80061 0.166416 0
M  V30 18547 H 3243.75 6.51287 -2.75604 0
M  V30 18548 H 3244.74 7.01734 -1.34462 0
M  V30 18549 H 3242.91 8.73674 -2.38337 0
M  V30 18550 H 3242.86 4.68207 -3.53221 0
M  V30 18551 H 3243.54 -0.0398818 0.767965 0
M  V30 18552 H 3243.58 2.50995 3.13503 0
M  V30 18553 H 3243.68 0.759148 2.80716 0
M  V30 18554 P 3244.78 8.91 -1.11634e-10 0
M  V30 18555 O 3245 10.1726 0.733694 0
M  V30 18556 O 3245.57 8.73148 -1.23936 0
M  V30 18557 O 3245.03 7.66872 0.971405 0
M  V30 18558 C 3244.09 7.42309 2.04641 0
M  V30 18559 C 3244.82 6.86059 3.24661 0
M  V30 18560 O 3245.03 5.42847 3.03646 0
M  V30 18561 C 3246.22 7.41196 3.50753 0
M  V30 18562 O 3246.61 7.27073 4.86816 0
M  V30 18563 C 3247.1 6.5273 2.63741 0
M  V30 18564 C 3246.39 5.1842 2.73198 0
M  V30 18565 N 3246.44 4.38762 1.4784 0
M  V30 18566 H 3243.6 8.36803 2.32493 0
M  V30 18567 H 3243.33 6.70197 1.71129 0
M  V30 18568 H 3244.2 7.03551 4.13168 0
M  V30 18569 P 3248.16 7.20834 5.23717 0
M  V30 18570 O 3248.38 7.80006 6.57415 0
M  V30 18571 O 3248.95 7.79416 4.13051 0
M  V30 18572 O 3248.41 5.63315 5.29344 0
M  V30 18573 C 3247.47 4.80318 6.01954 0
M  V30 18574 C 3248.2 3.64202 6.65911 0
M  V30 18575 O 3248.41 2.60736 5.64823 0
M  V30 18576 C 3249.6 3.93521 7.19518 0
M  V30 18577 O 3249.99 3.02071 8.21205 0
M  V30 18578 C 3250.48 3.73047 5.97036 0
M  V30 18579 C 3249.77 2.58828 5.25741 0
M  V30 18580 N 3249.82 2.68068 3.77503 0
M  V30 18581 C 3249.74 3.80474 2.99159 0
M  V30 18582 N 3249.81 3.55622 1.71925 0
M  V30 18583 C 3249.96 2.1832 1.65733 0
M  V30 18584 C 3250.09 1.28842 0.572777 0
M  V30 18585 N 3250.1 1.66875 -0.70098 0
M  V30 18586 N 3250.21 -0.016788 0.859836 0
M  V30 18587 C 3250.2 -0.398145 2.13316 0
M  V30 18588 N 3250.08 0.328224 3.22333 0
M  V30 18589 C 3249.96 1.62992 2.90383 0
M  V30 18590 H 3246.98 5.40394 6.8003 0
M  V30 18591 H 3246.71 4.41741 5.32532 0
M  V30 18592 H 3247.58 3.26371 7.47889 0
M  V30 18593 H 3250.23 1.64007 5.56746 0
M  V30 18594 H 3250.51 4.63439 5.3432 0
M  V30 18595 H 3251.5 3.44776 6.25925 0
M  V30 18596 H 3249.67 4.96707 7.57347 0
M  V30 18597 H 3249.63 4.8089 3.39924 0
M  V30 18598 H 3250.01 2.66547 -0.941919 0
M  V30 18599 H 3250.2 0.965341 -1.44766 0
M  V30 18600 H 3250.31 -1.46427 2.29697 0
M  V30 18601 P 3251.54 2.75334 8.47391 0
M  V30 18602 O 3251.76 2.44571 9.90142 0
M  V30 18603 O 3252.33 3.87688 7.92115 0
M  V30 18604 O 3251.79 1.4459 7.59357 0
M  V30 18605 C 3250.85 0.347608 7.69215 0
M  V30 18606 C 3251.58 -0.96767 7.52806 0
M  V30 18607 O 3251.79 -1.21036 6.1011 0
M  V30 18608 C 3252.98 -1.04544 8.13308 0
M  V30 18609 O 3253.37 -2.38311 8.41922 0
M  V30 18610 C 3253.86 -0.491279 7.02284 0
M  V30 18611 C 3253.15 -0.996264 5.77469 0
M  V30 18612 N 3253.2 -0.0501916 4.62973 0
M  V30 18613 H 3250.36 0.374722 8.67691 0
M  V30 18614 H 3250.09 0.443485 6.90277 0
M  V30 18615 H 3250.96 -1.75537 7.96793 0
M  V30 18616 P 3254.92 -2.75334 8.47391 0
M  V30 18617 O 3255.14 -3.84128 9.44797 0
M  V30 18618 O 3255.71 -1.51947 8.68712 0
M  V30 18619 O 3255.17 -3.29363 6.99321 0
M  V30 18620 C 3254.23 -4.24011 6.4274 0
M  V30 18621 C 3254.96 -5.20775 5.52155 0
M  V30 18622 O 3255.17 -4.56534 4.22446 0
M  V30 18623 C 3256.36 -5.62629 5.96531 0
M  V30 18624 O 3256.75 -6.87667 5.41053 0
M  V30 18625 C 3257.24 -4.52537 5.39283 0
M  V30 18626 C 3256.53 -4.20027 4.08623 0
M  V30 18627 N 3256.58 -2.76189 3.71603 0
M  V30 18628 H 3253.74 -4.797 7.24003 0
M  V30 18629 H 3253.47 -3.69856 5.84513 0
M  V30 18630 H 3254.34 -6.10356 5.41441 0
M  V30 18631 P 3258.3 -7.20834 5.23717 0
M  V30 18632 O 3258.52 -8.66104 5.38572 0
M  V30 18633 O 3259.09 -6.33544 6.1349 0
M  V30 18634 O 3258.55 -6.7751 3.72168 0
M  V30 18635 C 3257.61 -7.20825 2.7076 0
M  V30 18636 C 3258.34 -7.45864 1.40599 0
M  V30 18637 O 3258.55 -6.17651 0.734225 0
M  V30 18638 C 3259.74 -8.05808 1.51899 0
M  V30 18639 O 3260.13 -8.74358 0.335205 0
M  V30 18640 C 3260.62 -6.83093 1.70294 0
M  V30 18641 C 3259.91 -5.79992 0.836974 0
M  V30 18642 N 3259.96 -4.41864 1.38293 0
M  V30 18643 H 3257.12 -8.13644 3.0377 0
M  V30 18644 H 3256.85 -6.42788 2.55485 0
M  V30 18645 H 3257.72 -8.12039 0.792769 0
M  V30 18646 P 3261.68 -8.91 1.12743e-10 0
M  V30 18647 O 3261.9 -10.1726 -0.733694 0
M  V30 18648 O 3262.47 -8.73148 1.23936 0
M  V30 18649 O 3261.93 -7.66872 -0.971405 0
M  V30 18650 C 3260.99 -7.42309 -2.04641 0
M  V30 18651 C 3261.72 -6.86059 -3.24661 0
M  V30 18652 O 3261.93 -5.42847 -3.03646 0
M  V30 18653 C 3263.12 -7.41196 -3.50753 0
M  V30 18654 O 3263.51 -7.27073 -4.86816 0
M  V30 18655 C 3264 -6.5273 -2.63741 0
M  V30 18656 C 3263.29 -5.1842 -2.73198 0
M  V30 18657 N 3263.34 -4.38762 -1.4784 0
M  V30 18658 H 3260.5 -8.36803 -2.32493 0
M  V30 18659 H 3260.23 -6.70197 -1.71129 0
M  V30 18660 H 3261.1 -7.03551 -4.13168 0
M  V30 18661 P 3265.06 -7.20834 -5.23717 0
M  V30 18662 O 3265.28 -7.79853 -6.57286 0
M  V30 18663 O 3265.85 -7.79239 -4.12957 0
M  V30 18664 O 3265.31 -5.63315 -5.29344 0
M  V30 18665 C 3264.37 -4.80255 -6.01876 0
M  V30 18666 C 3265.1 -3.64202 -6.65911 0
M  V30 18667 O 3265.31 -2.60694 -5.64732 0
M  V30 18668 C 3266.5 -3.93473 -7.1943 0
M  V30 18669 O 3266.89 -3.02071 -8.21205 0
M  V30 18670 C 3267.38 -3.73047 -5.97036 0
M  V30 18671 C 3266.67 -2.58828 -5.25741 0
M  V30 18672 N 3266.72 -2.68068 -3.77503 0
M  V30 18673 H 3263.88 -5.40332 -6.79951 0
M  V30 18674 H 3263.61 -4.41613 -5.32378 0
M  V30 18675 H 3264.48 -3.26331 -7.47797 0
M  V30 18676 P 3268.44 -2.75334 -8.47391 0
M  V30 18677 O 3268.66 -2.44571 -9.90142 0
M  V30 18678 O 3269.23 -3.87688 -7.92115 0
M  V30 18679 O 3268.69 -1.4459 -7.59357 0
M  V30 18680 C 3267.75 -0.347608 -7.69215 0
M  V30 18681 C 3268.48 0.96767 -7.52806 0
M  V30 18682 O 3268.69 1.21036 -6.1011 0
M  V30 18683 C 3269.88 1.04544 -8.13308 0
M  V30 18684 O 3270.27 2.38311 -8.41922 0
M  V30 18685 C 3270.76 0.491279 -7.02284 0
M  V30 18686 C 3270.05 0.996264 -5.77469 0
M  V30 18687 N 3270.1 0.0501916 -4.62973 0
M  V30 18688 H 3267.26 -0.374722 -8.67691 0
M  V30 18689 H 3266.99 -0.443485 -6.90277 0
M  V30 18690 H 3267.86 1.75537 -7.96793 0
M  V30 18691 P 3271.82 2.75334 -8.47391 0
M  V30 18692 O 3272.04 3.84204 -9.44982 0
M  V30 18693 O 3272.61 1.51982 -8.68909 0
M  V30 18694 O 3272.07 3.29363 -6.99321 0
M  V30 18695 C 3271.13 4.24066 -6.42823 0
M  V30 18696 C 3271.86 5.20775 -5.52155 0
M  V30 18697 O 3272.07 4.56607 -4.22514 0
M  V30 18698 C 3273.26 5.62697 -5.96604 0
M  V30 18699 O 3273.65 6.87667 -5.41053 0
M  V30 18700 C 3274.14 4.52537 -5.39283 0
M  V30 18701 C 3273.43 4.20027 -4.08623 0
M  V30 18702 N 3273.48 2.76189 -3.71603 0
M  V30 18703 H 3270.64 4.79756 -7.24086 0
M  V30 18704 H 3270.37 3.69963 -5.84682 0
M  V30 18705 H 3271.24 6.10431 -5.41508 0
M  V30 18706 H 3273.89 4.78816 -3.28024 0
M  V30 18707 H 3274.17 3.64957 -6.05871 0
M  V30 18708 H 3275.16 4.88748 -5.21323 0
M  V30 18709 H 3273.33 5.66789 -7.0643 0
M  V30 18710 P 3275.2 7.20834 -5.23717 0
M  V30 18711 O 3275.42 8.66104 -5.38572 0
M  V30 18712 O 3275.99 6.33544 -6.1349 0
M  V30 18713 O 3275.45 6.7751 -3.72168 0
M  V30 18714 C 3274.51 7.20825 -2.7076 0
M  V30 18715 C 3275.24 7.45864 -1.40599 0
M  V30 18716 O 3275.45 6.17651 -0.734225 0
M  V30 18717 C 3276.64 8.05808 -1.51899 0
M  V30 18718 O 3277.03 8.74358 -0.335205 0
M  V30 18719 C 3277.52 6.83093 -1.70294 0
M  V30 18720 C 3276.81 5.79992 -0.836974 0
M  V30 18721 N 3276.86 4.41864 -1.38293 0
M  V30 18722 H 3274.02 8.13644 -3.0377 0
M  V30 18723 H 3273.75 6.42788 -2.55485 0
M  V30 18724 H 3274.62 8.12039 -0.792769 0
M  V30 18725 P 3278.58 8.91 -1.13852e-10 0
M  V30 18726 O 3278.8 10.1726 0.733694 0
M  V30 18727 O 3279.37 8.73148 -1.23936 0
M  V30 18728 O 3278.83 7.66872 0.971405 0
M  V30 18729 C 3277.89 7.42309 2.04641 0
M  V30 18730 C 3278.62 6.86059 3.24661 0
M  V30 18731 O 3278.83 5.42847 3.03646 0
M  V30 18732 C 3280.02 7.41196 3.50753 0
M  V30 18733 O 3280.41 7.27073 4.86816 0
M  V30 18734 C 3280.9 6.5273 2.63741 0
M  V30 18735 C 3280.19 5.1842 2.73198 0
M  V30 18736 N 3280.24 4.38762 1.4784 0
M  V30 18737 C 3280.16 4.81605 0.168631 0
M  V30 18738 N 3280.24 3.85454 -0.713363 0
M  V30 18739 C 3280.38 2.6994 0.0566958 0
M  V30 18740 C 3280.51 1.34815 -0.338502 0
M  V30 18741 O 3280.53 0.869548 -1.47125 0
M  V30 18742 N 3280.63 0.496304 0.77465 0
M  V30 18743 C 3280.63 0.908403 2.09122 0
M  V30 18744 N 3280.76 -0.0517805 3.00955 0
M  V30 18745 N 3280.5 2.17875 2.46519 0
M  V30 18746 C 3280.38 3.01988 1.4033 0
M  V30 18747 H 3277.4 8.36803 2.32493 0
M  V30 18748 H 3277.13 6.70197 1.71129 0
M  V30 18749 H 3278 7.03551 4.13168 0
M  V30 18750 H 3280.65 4.59498 3.54415 0
M  V30 18751 H 3280.93 6.88898 1.59848 0
M  V30 18752 H 3281.92 6.46749 3.03687 0
M  V30 18753 H 3280.09 8.46908 3.20714 0
M  V30 18754 H 3280.04 5.86405 -0.105564 0
M  V30 18755 H 3280.72 -0.483664 0.597855 0
M  V30 18756 H 3280.76 0.187865 4.0116 0
M  V30 18757 H 3280.86 -1.03585 2.71726 0
M  V30 18758 P 3281.96 7.20834 5.23717 0
M  V30 18759 O 3282.18 7.79853 6.57286 0
M  V30 18760 O 3282.75 7.79239 4.12957 0
M  V30 18761 O 3282.21 5.63315 5.29344 0
M  V30 18762 C 3281.27 4.80255 6.01876 0
M  V30 18763 C 3282 3.64202 6.65911 0
M  V30 18764 O 3282.21 2.60694 5.64732 0
M  V30 18765 C 3283.4 3.93473 7.1943 0
M  V30 18766 O 3283.79 3.02071 8.21205 0
M  V30 18767 C 3284.28 3.73047 5.97036 0
M  V30 18768 C 3283.57 2.58828 5.25741 0
M  V30 18769 N 3283.62 2.68068 3.77503 0
M  V30 18770 H 3280.78 5.40332 6.79951 0
M  V30 18771 H 3280.51 4.41613 5.32378 0
M  V30 18772 H 3281.38 3.26331 7.47797 0
M  V30 18773 P 3285.34 2.75334 8.47391 0
M  V30 18774 O 3285.56 2.44571 9.90142 0
M  V30 18775 O 3286.13 3.87688 7.92115 0
M  V30 18776 O 3285.59 1.4459 7.59357 0
M  V30 18777 C 3284.65 0.347608 7.69215 0
M  V30 18778 C 3285.38 -0.96767 7.52806 0
M  V30 18779 O 3285.59 -1.21036 6.1011 0
M  V30 18780 C 3286.78 -1.04544 8.13308 0
M  V30 18781 O 3287.17 -2.38311 8.41922 0
M  V30 18782 C 3287.66 -0.491279 7.02284 0
M  V30 18783 C 3286.95 -0.996264 5.77469 0
M  V30 18784 N 3287 -0.0501916 4.62973 0
M  V30 18785 H 3284.16 0.374722 8.67691 0
M  V30 18786 H 3283.89 0.443485 6.90277 0
M  V30 18787 H 3284.76 -1.75537 7.96793 0
M  V30 18788 P 3288.72 -2.75334 8.47391 0
M  V30 18789 O 3288.94 -3.84204 9.44982 0
M  V30 18790 O 3289.51 -1.51982 8.68909 0
M  V30 18791 O 3288.97 -3.29363 6.99321 0
M  V30 18792 C 3288.03 -4.24066 6.42823 0
M  V30 18793 C 3288.76 -5.20775 5.52155 0
M  V30 18794 O 3288.97 -4.56607 4.22514 0
M  V30 18795 C 3290.16 -5.62697 5.96604 0
M  V30 18796 O 3290.55 -6.87667 5.41053 0
M  V30 18797 C 3291.04 -4.52537 5.39283 0
M  V30 18798 C 3290.33 -4.20027 4.08623 0
M  V30 18799 N 3290.38 -2.76189 3.71603 0
M  V30 18800 C 3290.3 -1.66944 4.54297 0
M  V30 18801 N 3290.37 -0.536169 3.91344 0
M  V30 18802 C 3290.52 -0.901569 2.58849 0
M  V30 18803 C 3290.65 -0.146599 1.40236 0
M  V30 18804 N 3290.66 1.18234 1.37046 0
M  V30 18805 N 3290.77 -0.822941 0.249738 0
M  V30 18806 C 3290.76 -2.15179 0.280525 0
M  V30 18807 N 3290.64 -2.96414 1.30822 0
M  V30 18808 C 3290.52 -2.25804 2.44748 0
M  V30 18809 H 3287.54 -4.79756 7.24086 0
M  V30 18810 H 3287.27 -3.69963 5.84682 0
M  V30 18811 H 3288.14 -6.10431 5.41508 0
M  V30 18812 H 3290.79 -4.78816 3.28024 0
M  V30 18813 H 3291.07 -3.64957 6.05871 0
M  V30 18814 H 3292.06 -4.88748 5.21323 0
M  V30 18815 H 3290.23 -5.66789 7.0643 0
M  V30 18816 H 3290.19 -1.74684 5.62396 0
M  V30 18817 H 3290.57 1.71949 2.24394 0
M  V30 18818 H 3290.76 1.67511 0.470742 0
M  V30 18819 H 3290.87 -2.63704 -0.6828 0
M  V30 18820 P 3292.1 -7.20834 5.23717 0
M  V30 18821 O 3292.32 -8.66104 5.38572 0
M  V30 18822 O 3292.89 -6.33544 6.1349 0
M  V30 18823 O 3292.35 -6.7751 3.72168 0
M  V30 18824 C 3291.41 -7.20825 2.7076 0
M  V30 18825 C 3292.14 -7.45864 1.40599 0
M  V30 18826 O 3292.35 -6.17651 0.734225 0
M  V30 18827 C 3293.54 -8.05808 1.51899 0
M  V30 18828 O 3293.93 -8.74358 0.335205 0
M  V30 18829 C 3294.42 -6.83093 1.70294 0
M  V30 18830 C 3293.71 -5.79992 0.836974 0
M  V30 18831 N 3293.76 -4.41864 1.38293 0
M  V30 18832 H 3290.92 -8.13644 3.0377 0
M  V30 18833 H 3290.65 -6.42788 2.55485 0
M  V30 18834 H 3291.52 -8.12039 0.792769 0
M  V30 18835 P 3295.48 -8.91 1.14961e-10 0
M  V30 18836 O 3295.7 -10.1726 -0.733694 0
M  V30 18837 O 3296.27 -8.73148 1.23936 0
M  V30 18838 O 3295.73 -7.66872 -0.971405 0
M  V30 18839 C 3294.79 -7.42309 -2.04641 0
M  V30 18840 C 3295.52 -6.86059 -3.24661 0
M  V30 18841 O 3295.73 -5.42847 -3.03646 0
M  V30 18842 C 3296.92 -7.41196 -3.50753 0
M  V30 18843 O 3297.31 -7.27073 -4.86816 0
M  V30 18844 C 3297.8 -6.5273 -2.63741 0
M  V30 18845 C 3297.09 -5.1842 -2.73198 0
M  V30 18846 N 3297.14 -4.38762 -1.4784 0
M  V30 18847 H 3294.3 -8.36803 -2.32493 0
M  V30 18848 H 3294.03 -6.70197 -1.71129 0
M  V30 18849 H 3294.9 -7.03551 -4.13168 0
M  V30 18850 P 3298.86 -7.20834 -5.23717 0
M  V30 18851 O 3299.08 -7.80006 -6.57415 0
M  V30 18852 O 3299.65 -7.79416 -4.13051 0
M  V30 18853 O 3299.11 -5.63315 -5.29344 0
M  V30 18854 C 3298.17 -4.80318 -6.01954 0
M  V30 18855 C 3298.9 -3.64202 -6.65911 0
M  V30 18856 O 3299.11 -2.60736 -5.64823 0
M  V30 18857 C 3300.3 -3.93521 -7.19518 0
M  V30 18858 O 3300.69 -3.02071 -8.21205 0
M  V30 18859 C 3301.18 -3.73047 -5.97036 0
M  V30 18860 C 3300.47 -2.58828 -5.25741 0
M  V30 18861 N 3300.52 -2.68068 -3.77503 0
M  V30 18862 H 3297.68 -5.40394 -6.8003 0
M  V30 18863 H 3297.41 -4.41741 -5.32532 0
M  V30 18864 H 3298.28 -3.26371 -7.47889 0
M  V30 18865 H 3300.93 -1.64007 -5.56746 0
M  V30 18866 H 3301.21 -4.63439 -5.3432 0
M  V30 18867 H 3302.2 -3.44776 -6.25925 0
M  V30 18868 H 3300.37 -4.96707 -7.57347 0
M  V30 18869 P 3302.24 -2.75334 -8.47391 0
M  V30 18870 O 3302.46 -2.44571 -9.90142 0
M  V30 18871 O 3303.03 -3.87688 -7.92115 0
M  V30 18872 O 3302.49 -1.4459 -7.59357 0
M  V30 18873 C 3301.55 -0.347608 -7.69215 0
M  V30 18874 C 3302.28 0.96767 -7.52806 0
M  V30 18875 O 3302.49 1.21036 -6.1011 0
M  V30 18876 C 3303.68 1.04544 -8.13308 0
M  V30 18877 O 3304.07 2.38311 -8.41922 0
M  V30 18878 C 3304.56 0.491279 -7.02284 0
M  V30 18879 C 3303.85 0.996264 -5.77469 0
M  V30 18880 N 3303.9 0.0501916 -4.62973 0
M  V30 18881 C 3303.82 -1.32786 -4.63244 0
M  V30 18882 N 3303.9 -1.86957 -3.44545 0
M  V30 18883 C 3304.04 -0.780241 -2.58481 0
M  V30 18884 C 3304.17 -0.738536 -1.17757 0
M  V30 18885 O 3304.19 -1.66794 -0.372349 0
M  V30 18886 N 3304.29 0.58337 -0.711393 0
M  V30 18887 C 3304.29 1.70816 -1.51017 0
M  V30 18888 N 3304.42 2.87826 -0.880757 0
M  V30 18889 N 3304.16 1.67126 -2.8339 0
M  V30 18890 C 3304.04 0.401421 -3.30572 0
M  V30 18891 H 3301.06 -0.374722 -8.67691 0
M  V30 18892 H 3300.79 -0.443485 -6.90277 0
M  V30 18893 H 3301.66 1.75537 -7.96793 0
M  V30 18894 H 3304.31 1.95076 -5.46529 0
M  V30 18895 H 3304.59 -0.608565 -7.04577 0
M  V30 18896 H 3305.58 0.889672 -7.08939 0
M  V30 18897 H 3303.75 0.43308 -9.04564 0
M  V30 18898 H 3303.7 -1.91249 -5.54442 0
M  V30 18899 H 3304.38 0.718054 0.275244 0
M  V30 18900 H 3304.42 3.75721 -1.41832 0
M  V30 18901 H 3304.52 2.90436 0.145468 0
M  V30 18902 P 3305.62 2.75334 -8.47391 0
M  V30 18903 O 3305.84 3.84128 -9.44797 0
M  V30 18904 O 3306.41 1.51947 -8.68712 0
M  V30 18905 O 3305.87 3.29363 -6.99321 0
M  V30 18906 C 3304.93 4.24011 -6.4274 0
M  V30 18907 C 3305.66 5.20775 -5.52155 0
M  V30 18908 O 3305.87 4.56534 -4.22446 0
M  V30 18909 C 3307.06 5.62629 -5.96531 0
M  V30 18910 O 3307.45 6.87667 -5.41053 0
M  V30 18911 C 3307.94 4.52537 -5.39283 0
M  V30 18912 C 3307.23 4.20027 -4.08623 0
M  V30 18913 N 3307.28 2.76189 -3.71603 0
M  V30 18914 H 3304.44 4.797 -7.24003 0
M  V30 18915 H 3304.17 3.69856 -5.84513 0
M  V30 18916 H 3305.04 6.10356 -5.41441 0
M  V30 18917 P 3309 7.20834 -5.23717 0
M  V30 18918 O 3309.22 8.66104 -5.38572 0
M  V30 18919 O 3309.79 6.33544 -6.1349 0
M  V30 18920 O 3309.25 6.7751 -3.72168 0
M  V30 18921 C 3308.31 7.20825 -2.7076 0
M  V30 18922 C 3309.04 7.45864 -1.40599 0
M  V30 18923 O 3309.25 6.17651 -0.734225 0
M  V30 18924 C 3310.44 8.05808 -1.51899 0
M  V30 18925 O 3310.83 8.74358 -0.335205 0
M  V30 18926 C 3311.32 6.83093 -1.70294 0
M  V30 18927 C 3310.61 5.79992 -0.836974 0
M  V30 18928 N 3310.66 4.41864 -1.38293 0
M  V30 18929 H 3307.82 8.13644 -3.0377 0
M  V30 18930 H 3307.55 6.42788 -2.55485 0
M  V30 18931 H 3308.42 8.12039 -0.792769 0
M  V30 18932 P 3312.38 8.91 -1.1607e-10 0
M  V30 18933 O 3312.6 10.1726 0.733694 0
M  V30 18934 O 3313.17 8.73148 -1.23936 0
M  V30 18935 O 3312.63 7.66872 0.971405 0
M  V30 18936 C 3311.69 7.42309 2.04641 0
M  V30 18937 C 3312.42 6.86059 3.24661 0
M  V30 18938 O 3312.63 5.42847 3.03646 0
M  V30 18939 C 3313.82 7.41196 3.50753 0
M  V30 18940 O 3314.21 7.27073 4.86816 0
M  V30 18941 C 3314.7 6.5273 2.63741 0
M  V30 18942 C 3313.99 5.1842 2.73198 0
M  V30 18943 N 3314.04 4.38762 1.4784 0
M  V30 18944 H 3311.2 8.36803 2.32493 0
M  V30 18945 H 3310.93 6.70197 1.71129 0
M  V30 18946 H 3311.8 7.03551 4.13168 0
M  V30 18947 P 3315.76 7.20834 5.23717 0
M  V30 18948 O 3315.98 7.7993 6.57351 0
M  V30 18949 O 3316.55 7.79328 4.13004 0
M  V30 18950 O 3316.01 5.63315 5.29344 0
M  V30 18951 C 3315.07 4.80193 6.01798 0
M  V30 18952 C 3315.8 3.64202 6.65911 0
M  V30 18953 O 3316.01 2.60694 5.64732 0
M  V30 18954 C 3317.2 3.93473 7.1943 0
M  V30 18955 O 3317.59 3.02071 8.21205 0
M  V30 18956 C 3318.08 3.73047 5.97036 0
M  V30 18957 C 3317.37 2.58828 5.25741 0
M  V30 18958 N 3317.42 2.6801 3.77422 0
M  V30 18959 C 3317.57 1.50443 3.07133 0
M  V30 18960 O 3317.66 0.419406 3.61576 0
M  V30 18961 N 3317.61 1.6403 1.69677 0
M  V30 18962 C 3317.52 2.81206 0.986255 0
M  V30 18963 C 3317.37 3.99158 1.80325 0
M  V30 18964 C 3317.32 3.89779 3.1476 0
M  V30 18965 H 3314.58 5.40332 6.79951 0
M  V30 18966 H 3314.31 4.41549 5.32301 0
M  V30 18967 H 3315.18 3.26331 7.47797 0
M  V30 18968 H 3317.83 1.6395 5.56554 0
M  V30 18969 H 3318.11 4.63439 5.3432 0
M  V30 18970 H 3319.1 3.44728 6.25838 0
M  V30 18971 H 3317.27 4.96652 7.57263 0
M  V30 18972 H 3317.2 4.80159 3.74441 0
M  V30 18973 P 3319.14 2.75334 8.47391 0
M  V30 18974 O 3319.36 2.44571 9.90142 0
M  V30 18975 O 3319.93 3.87688 7.92115 0
M  V30 18976 O 3319.39 1.4459 7.59357 0
M  V30 18977 C 3318.45 0.347608 7.69215 0
M  V30 18978 C 3319.18 -0.96767 7.52806 0
M  V30 18979 O 3319.39 -1.21036 6.1011 0
M  V30 18980 C 3320.58 -1.04544 8.13308 0
M  V30 18981 O 3320.97 -2.38311 8.41922 0
M  V30 18982 C 3321.46 -0.491279 7.02284 0
M  V30 18983 C 3320.75 -0.996264 5.77469 0
M  V30 18984 N 3320.8 -0.0501916 4.62973 0
M  V30 18985 H 3317.96 0.374722 8.67691 0
M  V30 18986 H 3317.69 0.443485 6.90277 0
M  V30 18987 H 3318.56 -1.75537 7.96793 0
M  V30 18988 P 3322.52 -2.75334 8.47391 0
M  V30 18989 O 3322.74 -3.84128 9.44797 0
M  V30 18990 O 3323.31 -1.51947 8.68712 0
M  V30 18991 O 3322.77 -3.29363 6.99321 0
M  V30 18992 C 3321.83 -4.24011 6.4274 0
M  V30 18993 C 3322.56 -5.20775 5.52155 0
M  V30 18994 O 3322.77 -4.56534 4.22446 0
M  V30 18995 C 3323.96 -5.62629 5.96531 0
M  V30 18996 O 3324.35 -6.87667 5.41053 0
M  V30 18997 C 3324.84 -4.52537 5.39283 0
M  V30 18998 C 3324.13 -4.20027 4.08623 0
M  V30 18999 N 3324.18 -2.76189 3.71603 0
M  V30 19000 H 3321.34 -4.797 7.24003 0
M  V30 19001 H 3321.07 -3.69856 5.84513 0
M  V30 19002 H 3321.94 -6.10356 5.41441 0
M  V30 19003 P 3325.9 -7.20834 5.23717 0
M  V30 19004 O 3326.12 -8.66104 5.38572 0
M  V30 19005 O 3326.69 -6.33544 6.1349 0
M  V30 19006 O 3326.15 -6.7751 3.72168 0
M  V30 19007 C 3325.21 -7.20825 2.7076 0
M  V30 19008 C 3325.94 -7.45864 1.40599 0
M  V30 19009 O 3326.15 -6.17651 0.734225 0
M  V30 19010 C 3327.34 -8.05808 1.51899 0
M  V30 19011 O 3327.73 -8.74358 0.335205 0
M  V30 19012 C 3328.22 -6.83093 1.70294 0
M  V30 19013 C 3327.51 -5.79992 0.836974 0
M  V30 19014 N 3327.56 -4.41864 1.38293 0
M  V30 19015 H 3324.72 -8.13644 3.0377 0
M  V30 19016 H 3324.45 -6.42788 2.55485 0
M  V30 19017 H 3325.32 -8.12039 0.792769 0
M  V30 19018 P 3329.28 -8.91 1.17179e-10 0
M  V30 19019 O 3329.5 -10.1726 -0.733694 0
M  V30 19020 O 3330.07 -8.73148 1.23936 0
M  V30 19021 O 3329.53 -7.66872 -0.971405 0
M  V30 19022 C 3328.59 -7.42309 -2.04641 0
M  V30 19023 C 3329.32 -6.86059 -3.24661 0
M  V30 19024 O 3329.53 -5.42847 -3.03646 0
M  V30 19025 C 3330.72 -7.41196 -3.50753 0
M  V30 19026 O 3331.11 -7.27073 -4.86816 0
M  V30 19027 C 3331.6 -6.5273 -2.63741 0
M  V30 19028 C 3330.89 -5.1842 -2.73198 0
M  V30 19029 N 3330.94 -4.38762 -1.4784 0
M  V30 19030 H 3328.1 -8.36803 -2.32493 0
M  V30 19031 H 3327.83 -6.70197 -1.71129 0
M  V30 19032 H 3328.7 -7.03551 -4.13168 0
M  V30 19033 P 3332.66 -7.20834 -5.23717 0
M  V30 19034 O 3332.88 -7.79853 -6.57286 0
M  V30 19035 O 3333.45 -7.79239 -4.12957 0
M  V30 19036 O 3332.91 -5.63315 -5.29344 0
M  V30 19037 C 3331.97 -4.80255 -6.01876 0
M  V30 19038 C 3332.7 -3.64202 -6.65911 0
M  V30 19039 O 3332.91 -2.60694 -5.64732 0
M  V30 19040 C 3334.1 -3.93473 -7.1943 0
M  V30 19041 O 3334.49 -3.02071 -8.21205 0
M  V30 19042 C 3334.98 -3.73047 -5.97036 0
M  V30 19043 C 3334.27 -2.58828 -5.25741 0
M  V30 19044 N 3334.32 -2.68068 -3.77503 0
M  V30 19045 H 3331.48 -5.40332 -6.79951 0
M  V30 19046 H 3331.21 -4.41613 -5.32378 0
M  V30 19047 H 3332.08 -3.26331 -7.47797 0
M  V30 19048 P 3336.04 -2.75334 -8.47391 0
M  V30 19049 O 3336.26 -2.44619 -9.90336 0
M  V30 19050 O 3336.83 -3.87776 -7.92294 0
M  V30 19051 O 3336.29 -1.4459 -7.59357 0
M  V30 19052 C 3335.35 -0.347653 -7.69315 0
M  V30 19053 C 3336.08 0.96767 -7.52806 0
M  V30 19054 O 3336.29 1.21055 -6.10208 0
M  V30 19055 C 3337.48 1.04557 -8.13408 0
M  V30 19056 O 3337.87 2.38311 -8.41922 0
M  V30 19057 C 3338.36 0.491279 -7.02284 0
M  V30 19058 C 3337.65 0.996264 -5.77469 0
M  V30 19059 N 3337.7 0.0501916 -4.62973 0
M  V30 19060 C 3337.62 -1.31969 -4.65661 0
M  V30 19061 N 3337.69 -1.86649 -3.48119 0
M  V30 19062 C 3337.84 -0.792089 -2.62406 0
M  V30 19063 C 3337.97 -0.705684 -1.2207 0
M  V30 19064 N 3337.98 -1.76207 -0.413762 0
M  V30 19065 N 3338.09 0.518981 -0.685754 0
M  V30 19066 C 3338.08 1.57595 -1.49174 0
M  V30 19067 N 3337.96 1.62909 -2.80066 0
M  V30 19068 C 3337.84 0.388195 -3.3073 0
M  V30 19069 H 3334.86 -0.374765 -8.67791 0
M  V30 19070 H 3334.59 -0.443613 -6.90476 0
M  V30 19071 H 3335.46 1.75559 -7.96891 0
M  V30 19072 H 3338.11 1.94563 -5.46818 0
M  V30 19073 H 3338.39 -0.608651 -7.04676 0
M  V30 19074 H 3339.38 0.889796 -7.09039 0
M  V30 19075 H 3337.55 0.433128 -9.04664 0
M  V30 19076 H 3337.51 -1.89246 -5.57664 0
M  V30 19077 H 3337.89 -2.71005 -0.804694 0
M  V30 19078 H 3338.08 -1.63189 0.603768 0
M  V30 19079 H 3338.19 2.53475 -0.997614 0
M  V30 19080 P 3339.42 2.75334 -8.47391 0
M  V30 19081 O 3339.64 3.84204 -9.44982 0
M  V30 19082 O 3340.21 1.51982 -8.68909 0
M  V30 19083 O 3339.67 3.29363 -6.99321 0
M  V30 19084 C 3338.73 4.24066 -6.42823 0
M  V30 19085 C 3339.46 5.20775 -5.52155 0
M  V30 19086 O 3339.67 4.56607 -4.22514 0
M  V30 19087 C 3340.86 5.62697 -5.96604 0
M  V30 19088 O 3341.25 6.87667 -5.41053 0
M  V30 19089 C 3341.74 4.52537 -5.39283 0
M  V30 19090 C 3341.03 4.20027 -4.08623 0
M  V30 19091 N 3341.08 2.76189 -3.71603 0
M  V30 19092 H 3338.24 4.79756 -7.24086 0
M  V30 19093 H 3337.97 3.69963 -5.84682 0
M  V30 19094 H 3338.84 6.10431 -5.41508 0
M  V30 19095 H 3341.49 4.78816 -3.28024 0
M  V30 19096 H 3341.77 3.64957 -6.05871 0
M  V30 19097 H 3342.76 4.88748 -5.21323 0
M  V30 19098 H 3340.93 5.66789 -7.0643 0
M  V30 19099 P 3342.8 7.20834 -5.23717 0
M  V30 19100 O 3343.02 8.66104 -5.38572 0
M  V30 19101 O 3343.59 6.33544 -6.1349 0
M  V30 19102 O 3343.05 6.7751 -3.72168 0
M  V30 19103 C 3342.11 7.20825 -2.7076 0
M  V30 19104 C 3342.84 7.45864 -1.40599 0
M  V30 19105 O 3343.05 6.17651 -0.734225 0
M  V30 19106 C 3344.24 8.05808 -1.51899 0
M  V30 19107 O 3344.63 8.74358 -0.335205 0
M  V30 19108 C 3345.12 6.83093 -1.70294 0
M  V30 19109 C 3344.41 5.79992 -0.836974 0
M  V30 19110 N 3344.46 4.41864 -1.38293 0
M  V30 19111 H 3341.62 8.13644 -3.0377 0
M  V30 19112 H 3341.35 6.42788 -2.55485 0
M  V30 19113 H 3342.22 8.12039 -0.792769 0
M  V30 19114 P 3346.18 8.91 -1.18288e-10 0
M  V30 19115 O 3346.4 10.1726 0.733694 0
M  V30 19116 O 3346.97 8.73148 -1.23936 0
M  V30 19117 O 3346.43 7.66872 0.971405 0
M  V30 19118 C 3345.49 7.42309 2.04641 0
M  V30 19119 C 3346.22 6.86059 3.24661 0
M  V30 19120 O 3346.43 5.42847 3.03646 0
M  V30 19121 C 3347.62 7.41196 3.50753 0
M  V30 19122 O 3348.01 7.27073 4.86816 0
M  V30 19123 C 3348.5 6.5273 2.63741 0
M  V30 19124 C 3347.79 5.1842 2.73198 0
M  V30 19125 N 3347.84 4.38762 1.4784 0
M  V30 19126 H 3345 8.36803 2.32493 0
M  V30 19127 H 3344.73 6.70197 1.71129 0
M  V30 19128 H 3345.6 7.03551 4.13168 0
M  V30 19129 P 3349.56 7.20834 5.23717 0
M  V30 19130 O 3349.78 7.79853 6.57286 0
M  V30 19131 O 3350.35 7.79239 4.12957 0
M  V30 19132 O 3349.81 5.63315 5.29344 0
M  V30 19133 C 3348.87 4.80255 6.01876 0
M  V30 19134 C 3349.6 3.64202 6.65911 0
M  V30 19135 O 3349.81 2.60694 5.64732 0
M  V30 19136 C 3351 3.93473 7.1943 0
M  V30 19137 O 3351.39 3.02071 8.21205 0
M  V30 19138 C 3351.88 3.73047 5.97036 0
M  V30 19139 C 3351.17 2.58828 5.25741 0
M  V30 19140 N 3351.22 2.68068 3.77503 0
M  V30 19141 H 3348.38 5.40332 6.79951 0
M  V30 19142 H 3348.11 4.41613 5.32378 0
M  V30 19143 H 3348.98 3.26331 7.47797 0
M  V30 19144 P 3352.94 2.75334 8.47391 0
M  V30 19145 O 3353.16 2.44571 9.90142 0
M  V30 19146 O 3353.73 3.87688 7.92115 0
M  V30 19147 O 3353.19 1.4459 7.59357 0
M  V30 19148 C 3352.25 0.347608 7.69215 0
M  V30 19149 C 3352.98 -0.96767 7.52806 0
M  V30 19150 O 3353.19 -1.21036 6.1011 0
M  V30 19151 C 3354.38 -1.04544 8.13308 0
M  V30 19152 O 3354.77 -2.38311 8.41922 0
M  V30 19153 C 3355.26 -0.491279 7.02284 0
M  V30 19154 C 3354.55 -0.996264 5.77469 0
M  V30 19155 N 3354.6 -0.0501916 4.62973 0
M  V30 19156 H 3351.76 0.374722 8.67691 0
M  V30 19157 H 3351.49 0.443485 6.90277 0
M  V30 19158 H 3352.36 -1.75537 7.96793 0
M  V30 19159 P 3356.32 -2.75334 8.47391 0
M  V30 19160 O 3356.54 -3.84204 9.44982 0
M  V30 19161 O 3357.11 -1.51982 8.68909 0
M  V30 19162 O 3356.57 -3.29363 6.99321 0
M  V30 19163 C 3355.63 -4.24066 6.42823 0
M  V30 19164 C 3356.36 -5.20775 5.52155 0
M  V30 19165 O 3356.57 -4.56607 4.22514 0
M  V30 19166 C 3357.76 -5.62697 5.96604 0
M  V30 19167 O 3358.15 -6.87667 5.41053 0
M  V30 19168 C 3358.64 -4.52537 5.39283 0
M  V30 19169 C 3357.93 -4.20027 4.08623 0
M  V30 19170 N 3357.98 -2.76189 3.71603 0
M  V30 19171 C 3357.9 -1.66944 4.54297 0
M  V30 19172 N 3357.97 -0.536169 3.91344 0
M  V30 19173 C 3358.12 -0.901569 2.58849 0
M  V30 19174 C 3358.25 -0.146599 1.40236 0
M  V30 19175 N 3358.26 1.18234 1.37046 0
M  V30 19176 N 3358.37 -0.822941 0.249738 0
M  V30 19177 C 3358.36 -2.15179 0.280525 0
M  V30 19178 N 3358.24 -2.96414 1.30822 0
M  V30 19179 C 3358.12 -2.25804 2.44748 0
M  V30 19180 H 3355.14 -4.79756 7.24086 0
M  V30 19181 H 3354.87 -3.69963 5.84682 0
M  V30 19182 H 3355.74 -6.10431 5.41508 0
M  V30 19183 H 3358.39 -4.78816 3.28024 0
M  V30 19184 H 3358.67 -3.64957 6.05871 0
M  V30 19185 H 3359.66 -4.88748 5.21323 0
M  V30 19186 H 3357.83 -5.66789 7.0643 0
M  V30 19187 H 3357.79 -1.74684 5.62396 0
M  V30 19188 H 3358.17 1.71949 2.24394 0
M  V30 19189 H 3358.36 1.67511 0.470742 0
M  V30 19190 H 3358.47 -2.63704 -0.6828 0
M  V30 19191 P 3359.7 -7.20834 5.23717 0
M  V30 19192 O 3359.92 -8.66104 5.38572 0
M  V30 19193 O 3360.49 -6.33544 6.1349 0
M  V30 19194 O 3359.95 -6.7751 3.72168 0
M  V30 19195 C 3359.01 -7.20825 2.7076 0
M  V30 19196 C 3359.74 -7.45864 1.40599 0
M  V30 19197 O 3359.95 -6.17651 0.734225 0
M  V30 19198 C 3361.14 -8.05808 1.51899 0
M  V30 19199 O 3361.53 -8.74358 0.335205 0
M  V30 19200 C 3362.02 -6.83093 1.70294 0
M  V30 19201 C 3361.31 -5.79992 0.836974 0
M  V30 19202 N 3361.36 -4.41864 1.38293 0
M  V30 19203 H 3358.52 -8.13644 3.0377 0
M  V30 19204 H 3358.25 -6.42788 2.55485 0
M  V30 19205 H 3359.12 -8.12039 0.792769 0
M  V30 19206 P 3363.08 -8.91 1.19397e-10 0
M  V30 19207 O 3363.3 -10.1726 -0.733694 0
M  V30 19208 O 3363.87 -8.73148 1.23936 0
M  V30 19209 O 3363.33 -7.66872 -0.971405 0
M  V30 19210 C 3362.39 -7.42309 -2.04641 0
M  V30 19211 C 3363.12 -6.86059 -3.24661 0
M  V30 19212 O 3363.33 -5.42847 -3.03646 0
M  V30 19213 C 3364.52 -7.41196 -3.50753 0
M  V30 19214 O 3364.91 -7.27073 -4.86816 0
M  V30 19215 C 3365.4 -6.5273 -2.63741 0
M  V30 19216 C 3364.69 -5.1842 -2.73198 0
M  V30 19217 N 3364.74 -4.38762 -1.4784 0
M  V30 19218 H 3361.9 -8.36803 -2.32493 0
M  V30 19219 H 3361.63 -6.70197 -1.71129 0
M  V30 19220 H 3362.5 -7.03551 -4.13168 0
M  V30 19221 P 3366.46 -7.20834 -5.23717 0
M  V30 19222 O 3366.68 -7.79853 -6.57286 0
M  V30 19223 O 3367.25 -7.79239 -4.12957 0
M  V30 19224 O 3366.71 -5.63315 -5.29344 0
M  V30 19225 C 3365.77 -4.80255 -6.01876 0
M  V30 19226 C 3366.5 -3.64202 -6.65911 0
M  V30 19227 O 3366.71 -2.60694 -5.64732 0
M  V30 19228 C 3367.9 -3.93473 -7.1943 0
M  V30 19229 O 3368.29 -3.02071 -8.21205 0
M  V30 19230 C 3368.78 -3.73047 -5.97036 0
M  V30 19231 C 3368.07 -2.58828 -5.25741 0
M  V30 19232 N 3368.12 -2.68068 -3.77503 0
M  V30 19233 H 3365.28 -5.40332 -6.79951 0
M  V30 19234 H 3365.01 -4.41613 -5.32378 0
M  V30 19235 H 3365.88 -3.26331 -7.47797 0
M  V30 19236 P 3369.84 -2.75334 -8.47391 0
M  V30 19237 O 3370.06 -2.44619 -9.90336 0
M  V30 19238 O 3370.63 -3.87776 -7.92294 0
M  V30 19239 O 3370.09 -1.4459 -7.59357 0
M  V30 19240 C 3369.15 -0.347653 -7.69315 0
M  V30 19241 C 3369.88 0.96767 -7.52806 0
M  V30 19242 O 3370.09 1.21055 -6.10208 0
M  V30 19243 C 3371.28 1.04557 -8.13408 0
M  V30 19244 O 3371.67 2.38311 -8.41922 0
M  V30 19245 C 3372.16 0.491279 -7.02284 0
M  V30 19246 C 3371.45 0.996264 -5.77469 0
M  V30 19247 N 3371.5 0.0501916 -4.62973 0
M  V30 19248 H 3368.66 -0.374765 -8.67791 0
M  V30 19249 H 3368.39 -0.443613 -6.90476 0
M  V30 19250 H 3369.26 1.75559 -7.96891 0
M  V30 19251 H 3371.91 1.94563 -5.46818 0
M  V30 19252 H 3372.19 -0.608651 -7.04676 0
M  V30 19253 H 3373.18 0.889796 -7.09039 0
M  V30 19254 H 3371.35 0.433128 -9.04664 0
M  V30 19255 P 3373.22 2.75334 -8.47391 0
M  V30 19256 O 3373.44 3.84128 -9.44797 0
M  V30 19257 O 3374.01 1.51947 -8.68712 0
M  V30 19258 O 3373.47 3.29363 -6.99321 0
M  V30 19259 C 3372.53 4.24011 -6.4274 0
M  V30 19260 C 3373.26 5.20775 -5.52155 0
M  V30 19261 O 3373.47 4.56534 -4.22446 0
M  V30 19262 C 3374.66 5.62629 -5.96531 0
M  V30 19263 O 3375.05 6.87667 -5.41053 0
M  V30 19264 C 3375.54 4.52537 -5.39283 0
M  V30 19265 C 3374.83 4.20027 -4.08623 0
M  V30 19266 N 3374.88 2.76189 -3.71603 0
M  V30 19267 H 3372.04 4.797 -7.24003 0
M  V30 19268 H 3371.77 3.69856 -5.84513 0
M  V30 19269 H 3372.64 6.10356 -5.41441 0
M  V30 19270 P 3376.6 7.20834 -5.23717 0
M  V30 19271 O 3376.82 8.66104 -5.38572 0
M  V30 19272 O 3377.39 6.33544 -6.1349 0
M  V30 19273 O 3376.85 6.7751 -3.72168 0
M  V30 19274 C 3375.91 7.20825 -2.7076 0
M  V30 19275 C 3376.64 7.45864 -1.40599 0
M  V30 19276 O 3376.85 6.17651 -0.734225 0
M  V30 19277 C 3378.04 8.05808 -1.51899 0
M  V30 19278 O 3378.43 8.74358 -0.335205 0
M  V30 19279 C 3378.92 6.83093 -1.70294 0
M  V30 19280 C 3378.21 5.79992 -0.836974 0
M  V30 19281 N 3378.26 4.41864 -1.38293 0
M  V30 19282 H 3375.42 8.13644 -3.0377 0
M  V30 19283 H 3375.15 6.42788 -2.55485 0
M  V30 19284 H 3376.02 8.12039 -0.792769 0
M  V30 19285 P 3379.98 8.91 -1.20506e-10 0
M  V30 19286 O 3380.2 10.1726 0.733694 0
M  V30 19287 O 3380.77 8.73148 -1.23936 0
M  V30 19288 O 3380.23 7.66872 0.971405 0
M  V30 19289 C 3379.29 7.42309 2.04641 0
M  V30 19290 C 3380.02 6.86059 3.24661 0
M  V30 19291 O 3380.23 5.42847 3.03646 0
M  V30 19292 C 3381.42 7.41196 3.50753 0
M  V30 19293 O 3381.81 7.27073 4.86816 0
M  V30 19294 C 3382.3 6.5273 2.63741 0
M  V30 19295 C 3381.59 5.1842 2.73198 0
M  V30 19296 N 3381.64 4.38762 1.4784 0
M  V30 19297 H 3378.8 8.36803 2.32493 0
M  V30 19298 H 3378.53 6.70197 1.71129 0
M  V30 19299 H 3379.4 7.03551 4.13168 0
M  V30 19300 P 3383.36 7.20834 5.23717 0
M  V30 19301 O 3383.58 7.79853 6.57286 0
M  V30 19302 O 3384.15 7.79239 4.12957 0
M  V30 19303 O 3383.61 5.63315 5.29344 0
M  V30 19304 C 3382.67 4.80255 6.01876 0
M  V30 19305 C 3383.4 3.64202 6.65911 0
M  V30 19306 O 3383.61 2.60694 5.64732 0
M  V30 19307 C 3384.8 3.93473 7.1943 0
M  V30 19308 O 3385.19 3.02071 8.21205 0
M  V30 19309 C 3385.68 3.73047 5.97036 0
M  V30 19310 C 3384.97 2.58828 5.25741 0
M  V30 19311 N 3385.02 2.68068 3.77503 0
M  V30 19312 H 3382.18 5.40332 6.79951 0
M  V30 19313 H 3381.91 4.41613 5.32378 0
M  V30 19314 H 3382.78 3.26331 7.47797 0
M  V30 19315 P 3386.74 2.75334 8.47391 0
M  V30 19316 O 3386.96 2.44571 9.90142 0
M  V30 19317 O 3387.53 3.87688 7.92115 0
M  V30 19318 O 3386.99 1.4459 7.59357 0
M  V30 19319 C 3386.05 0.347608 7.69215 0
M  V30 19320 C 3386.78 -0.96767 7.52806 0
M  V30 19321 O 3386.99 -1.21036 6.1011 0
M  V30 19322 C 3388.18 -1.04544 8.13308 0
M  V30 19323 O 3388.57 -2.38311 8.41922 0
M  V30 19324 C 3389.06 -0.491279 7.02284 0
M  V30 19325 C 3388.35 -0.996264 5.77469 0
M  V30 19326 N 3388.4 -0.0501916 4.62973 0
M  V30 19327 H 3385.56 0.374722 8.67691 0
M  V30 19328 H 3385.29 0.443485 6.90277 0
M  V30 19329 H 3386.16 -1.75537 7.96793 0
M  V30 19330 P 3390.12 -2.75334 8.47391 0
M  V30 19331 O 3390.34 -3.84166 9.4489 0
M  V30 19332 O 3390.91 -1.51964 8.6881 0
M  V30 19333 O 3390.37 -3.29363 6.99321 0
M  V30 19334 C 3389.43 -4.23956 6.42656 0
M  V30 19335 C 3390.16 -5.20775 5.52155 0
M  V30 19336 O 3390.37 -4.56534 4.22446 0
M  V30 19337 C 3391.56 -5.62629 5.96531 0
M  V30 19338 O 3391.95 -6.87667 5.41053 0
M  V30 19339 C 3392.44 -4.52537 5.39283 0
M  V30 19340 C 3391.73 -4.20027 4.08623 0
M  V30 19341 N 3391.78 -2.7613 3.71522 0
M  V30 19342 C 3391.93 -2.45612 2.37989 0
M  V30 19343 O 3392.02 -3.30919 1.51621 0
M  V30 19344 N 3391.97 -1.10684 2.08435 0
M  V30 19345 C 3391.88 -0.0690084 2.9792 0
M  V30 19346 O 3391.93 1.10553 2.59426 0
M  V30 19347 C 3391.73 -0.481522 4.35345 0
M  V30 19348 C 3391.62 0.618778 5.36443 0
M  V30 19349 C 3391.68 -1.78906 4.67968 0
M  V30 19350 H 3388.94 -4.797 7.24003 0
M  V30 19351 H 3388.67 -3.69802 5.84429 0
M  V30 19352 H 3389.54 -6.10356 5.41441 0
M  V30 19353 H 3392.19 -4.78651 3.27911 0
M  V30 19354 H 3392.47 -3.64957 6.05871 0
M  V30 19355 H 3393.46 -4.8868 5.2125 0
M  V30 19356 H 3391.63 -5.66726 7.06352 0
M  V30 19357 H 3391.56 -2.07737 5.72367 0
M  V30 19358 H 3392.59 0.754375 5.86871 0
M  V30 19359 H 3390.85 0.359721 6.10641 0
M  V30 19360 H 3391.34 1.55533 4.8581 0
M  V30 19361 H 3392.08 -0.862651 1.12037 0
M  V30 19362 P 3393.5 -7.20834 5.23717 0
M  V30 19363 O 3393.72 -8.66104 5.38572 0
M  V30 19364 O 3394.29 -6.33544 6.1349 0
M  V30 19365 O 3393.75 -6.7751 3.72168 0
M  V30 19366 C 3392.81 -7.20825 2.7076 0
M  V30 19367 C 3393.54 -7.45864 1.40599 0
M  V30 19368 O 3393.75 -6.17651 0.734225 0
M  V30 19369 C 3394.94 -8.05808 1.51899 0
M  V30 19370 O 3395.33 -8.74358 0.335205 0
M  V30 19371 C 3395.82 -6.83093 1.70294 0
M  V30 19372 C 3395.11 -5.79992 0.836974 0
M  V30 19373 N 3395.16 -4.41864 1.38293 0
M  V30 19374 H 3392.32 -8.13644 3.0377 0
M  V30 19375 H 3392.05 -6.42788 2.55485 0
M  V30 19376 H 3392.92 -8.12039 0.792769 0
M  V30 19377 P 3396.88 -8.91 1.21615e-10 0
M  V30 19378 O 3397.1 -10.1726 -0.733694 0
M  V30 19379 O 3397.67 -8.73148 1.23936 0
M  V30 19380 O 3397.13 -7.66872 -0.971405 0
M  V30 19381 C 3396.19 -7.42309 -2.04641 0
M  V30 19382 C 3396.92 -6.86059 -3.24661 0
M  V30 19383 O 3397.13 -5.42847 -3.03646 0
M  V30 19384 C 3398.32 -7.41196 -3.50753 0
M  V30 19385 O 3398.71 -7.27073 -4.86816 0
M  V30 19386 C 3399.2 -6.5273 -2.63741 0
M  V30 19387 C 3398.49 -5.1842 -2.73198 0
M  V30 19388 N 3398.54 -4.38762 -1.4784 0
M  V30 19389 H 3395.7 -8.36803 -2.32493 0
M  V30 19390 H 3395.43 -6.70197 -1.71129 0
M  V30 19391 H 3396.3 -7.03551 -4.13168 0
M  V30 19392 P 3400.26 -7.20834 -5.23717 0
M  V30 19393 O 3400.48 -7.79853 -6.57286 0
M  V30 19394 O 3401.05 -7.79239 -4.12957 0
M  V30 19395 O 3400.51 -5.63315 -5.29344 0
M  V30 19396 C 3399.57 -4.80255 -6.01876 0
M  V30 19397 C 3400.3 -3.64202 -6.65911 0
M  V30 19398 O 3400.51 -2.60694 -5.64732 0
M  V30 19399 C 3401.7 -3.93473 -7.1943 0
M  V30 19400 O 3402.09 -3.02071 -8.21205 0
M  V30 19401 C 3402.58 -3.73047 -5.97036 0
M  V30 19402 C 3401.87 -2.58828 -5.25741 0
M  V30 19403 N 3401.92 -2.68068 -3.77503 0
M  V30 19404 C 3401.84 -3.79715 -2.96723 0
M  V30 19405 N 3401.92 -3.5377 -1.68852 0
M  V30 19406 C 3402.06 -2.15054 -1.63254 0
M  V30 19407 C 3402.19 -1.28964 -0.518571 0
M  V30 19408 O 3402.21 -1.56826 0.679156 0
M  V30 19409 N 3402.31 0.0538097 -0.918425 0
M  V30 19410 C 3402.31 0.494275 -2.22578 0
M  V30 19411 N 3402.44 1.81086 -2.40434 0
M  V30 19412 N 3402.18 -0.313645 -3.27502 0
M  V30 19413 C 3402.06 -1.61829 -2.91033 0
M  V30 19414 H 3399.08 -5.40332 -6.79951 0
M  V30 19415 H 3398.81 -4.41613 -5.32378 0
M  V30 19416 H 3399.68 -3.26331 -7.47797 0
M  V30 19417 H 3402.33 -1.63422 -5.56814 0
M  V30 19418 H 3402.61 -4.63374 -5.34244 0
M  V30 19419 H 3403.6 -3.44728 -6.25838 0
M  V30 19420 H 3401.77 -4.96652 -7.57263 0
M  V30 19421 H 3401.72 -4.80617 -3.3614 0
M  V30 19422 H 3402.4 0.742702 -0.199384 0
M  V30 19423 H 3402.44 2.20598 -3.35588 0
M  V30 19424 H 3402.54 2.43518 -1.58945 0
M  V30 19425 P 3403.64 -2.75334 -8.47391 0
M  V30 19426 O 3403.86 -2.44571 -9.90142 0
M  V30 19427 O 3404.43 -3.87688 -7.92115 0
M  V30 19428 O 3403.89 -1.4459 -7.59357 0
M  V30 19429 C 3402.95 -0.347608 -7.69215 0
M  V30 19430 C 3403.68 0.96767 -7.52806 0
M  V30 19431 O 3403.89 1.21036 -6.1011 0
M  V30 19432 C 3405.08 1.04544 -8.13308 0
M  V30 19433 O 3405.47 2.38311 -8.41922 0
M  V30 19434 C 3405.96 0.491279 -7.02284 0
M  V30 19435 C 3405.25 0.996264 -5.77469 0
M  V30 19436 N 3405.3 0.0501916 -4.62973 0
M  V30 19437 H 3402.46 -0.374722 -8.67691 0
M  V30 19438 H 3402.19 -0.443485 -6.90277 0
M  V30 19439 H 3403.06 1.75537 -7.96793 0
M  V30 19440 P 3407.02 2.75334 -8.47391 0
M  V30 19441 O 3407.24 3.84128 -9.44797 0
M  V30 19442 O 3407.81 1.51947 -8.68712 0
M  V30 19443 O 3407.27 3.29363 -6.99321 0
M  V30 19444 C 3406.33 4.24011 -6.4274 0
M  V30 19445 C 3407.06 5.20775 -5.52155 0
M  V30 19446 O 3407.27 4.56534 -4.22446 0
M  V30 19447 C 3408.46 5.62629 -5.96531 0
M  V30 19448 O 3408.85 6.87667 -5.41053 0
M  V30 19449 C 3409.34 4.52537 -5.39283 0
M  V30 19450 C 3408.63 4.20027 -4.08623 0
M  V30 19451 N 3408.68 2.76189 -3.71603 0
M  V30 19452 H 3405.84 4.797 -7.24003 0
M  V30 19453 H 3405.57 3.69856 -5.84513 0
M  V30 19454 H 3406.44 6.10356 -5.41441 0
M  V30 19455 P 3410.4 7.20834 -5.23717 0
M  V30 19456 O 3410.62 8.66104 -5.38572 0
M  V30 19457 O 3411.19 6.33544 -6.1349 0
M  V30 19458 O 3410.65 6.7751 -3.72168 0
M  V30 19459 C 3409.71 7.20825 -2.7076 0
M  V30 19460 C 3410.44 7.45864 -1.40599 0
M  V30 19461 O 3410.65 6.17651 -0.734225 0
M  V30 19462 C 3411.84 8.05808 -1.51899 0
M  V30 19463 O 3412.23 8.74358 -0.335205 0
M  V30 19464 C 3412.72 6.83093 -1.70294 0
M  V30 19465 C 3412.01 5.79992 -0.836974 0
M  V30 19466 N 3412.06 4.41864 -1.38293 0
M  V30 19467 H 3409.22 8.13644 -3.0377 0
M  V30 19468 H 3408.95 6.42788 -2.55485 0
M  V30 19469 H 3409.82 8.12039 -0.792769 0
M  V30 19470 P 3413.78 8.91 -1.22724e-10 0
M  V30 19471 O 3414 10.1736 0.733766 0
M  V30 19472 O 3414.57 8.73247 -1.2395 0
M  V30 19473 O 3414.03 7.66872 0.971405 0
M  V30 19474 C 3413.09 7.42212 2.04614 0
M  V30 19475 C 3413.82 6.86059 3.24661 0
M  V30 19476 O 3414.03 5.42847 3.03646 0
M  V30 19477 C 3415.22 7.41196 3.50753 0
M  V30 19478 O 3415.61 7.27073 4.86816 0
M  V30 19479 C 3416.1 6.5273 2.63741 0
M  V30 19480 C 3415.39 5.1842 2.73198 0
M  V30 19481 N 3415.44 4.38668 1.47808 0
M  V30 19482 C 3415.59 3.02239 1.60048 0
M  V30 19483 O 3415.68 2.46459 2.67869 0
M  V30 19484 N 3415.63 2.32436 0.408571 0
M  V30 19485 C 3415.54 2.85471 -0.854993 0
M  V30 19486 C 3415.39 4.28918 -0.887335 0
M  V30 19487 C 3415.34 5.00349 0.255399 0
M  V30 19488 H 3412.6 8.36803 2.32493 0
M  V30 19489 H 3412.33 6.701 1.71105 0
M  V30 19490 H 3413.2 7.03551 4.13168 0
M  V30 19491 H 3415.85 4.59773 3.53894 0
M  V30 19492 H 3416.13 6.88995 1.59871 0
M  V30 19493 H 3417.12 6.46749 3.03687 0
M  V30 19494 H 3415.29 8.46908 3.20714 0
M  V30 19495 H 3415.22 6.08548 0.206986 0
M  V30 19496 P 3417.16 7.20834 5.23717 0
M  V30 19497 O 3417.38 7.80006 6.57415 0
M  V30 19498 O 3417.95 7.79416 4.13051 0
M  V30 19499 O 3417.41 5.63315 5.29344 0
M  V30 19500 C 3416.47 4.80318 6.01954 0
M  V30 19501 C 3417.2 3.64202 6.65911 0
M  V30 19502 O 3417.41 2.60736 5.64823 0
M  V30 19503 C 3418.6 3.93521 7.19518 0
M  V30 19504 O 3418.99 3.02071 8.21205 0
M  V30 19505 C 3419.48 3.73047 5.97036 0
M  V30 19506 C 3418.77 2.58828 5.25741 0
M  V30 19507 N 3418.82 2.68068 3.77503 0
M  V30 19508 C 3418.74 3.80474 2.99159 0
M  V30 19509 N 3418.81 3.55622 1.71925 0
M  V30 19510 C 3418.96 2.1832 1.65733 0
M  V30 19511 C 3419.09 1.28842 0.572777 0
M  V30 19512 N 3419.1 1.66875 -0.70098 0
M  V30 19513 N 3419.21 -0.016788 0.859836 0
M  V30 19514 C 3419.2 -0.398145 2.13316 0
M  V30 19515 N 3419.08 0.328224 3.22333 0
M  V30 19516 C 3418.96 1.62992 2.90383 0
M  V30 19517 H 3415.98 5.40394 6.8003 0
M  V30 19518 H 3415.71 4.41741 5.32532 0
M  V30 19519 H 3416.58 3.26371 7.47889 0
M  V30 19520 H 3419.23 1.64007 5.56746 0
M  V30 19521 H 3419.51 4.63439 5.3432 0
M  V30 19522 H 3420.5 3.44776 6.25925 0
M  V30 19523 H 3418.67 4.96707 7.57347 0
M  V30 19524 H 3418.63 4.8089 3.39924 0
M  V30 19525 H 3419.01 2.66547 -0.941919 0
M  V30 19526 H 3419.2 0.965341 -1.44766 0
M  V30 19527 H 3419.31 -1.46427 2.29697 0
M  V30 19528 P 3420.54 2.75334 8.47391 0
M  V30 19529 O 3420.76 2.44571 9.90142 0
M  V30 19530 O 3421.33 3.87688 7.92115 0
M  V30 19531 O 3420.79 1.4459 7.59357 0
M  V30 19532 C 3419.85 0.347608 7.69215 0
M  V30 19533 C 3420.58 -0.96767 7.52806 0
M  V30 19534 O 3420.79 -1.21036 6.1011 0
M  V30 19535 C 3421.98 -1.04544 8.13308 0
M  V30 19536 O 3422.37 -2.38311 8.41922 0
M  V30 19537 C 3422.86 -0.491279 7.02284 0
M  V30 19538 C 3422.15 -0.996264 5.77469 0
M  V30 19539 N 3422.2 -0.0501916 4.62973 0
M  V30 19540 H 3419.36 0.374722 8.67691 0
M  V30 19541 H 3419.09 0.443485 6.90277 0
M  V30 19542 H 3419.96 -1.75537 7.96793 0
M  V30 19543 P 3423.92 -2.75334 8.47391 0
M  V30 19544 O 3424.14 -3.84128 9.44797 0
M  V30 19545 O 3424.71 -1.51947 8.68712 0
M  V30 19546 O 3424.17 -3.29363 6.99321 0
M  V30 19547 C 3423.23 -4.24011 6.4274 0
M  V30 19548 C 3423.96 -5.20775 5.52155 0
M  V30 19549 O 3424.17 -4.56534 4.22446 0
M  V30 19550 C 3425.36 -5.62629 5.96531 0
M  V30 19551 O 3425.75 -6.87667 5.41053 0
M  V30 19552 C 3426.24 -4.52537 5.39283 0
M  V30 19553 C 3425.53 -4.20027 4.08623 0
M  V30 19554 N 3425.58 -2.76189 3.71603 0
M  V30 19555 H 3422.74 -4.797 7.24003 0
M  V30 19556 H 3422.47 -3.69856 5.84513 0
M  V30 19557 H 3423.34 -6.10356 5.41441 0
M  V30 19558 P 3427.3 -7.20834 5.23717 0
M  V30 19559 O 3427.52 -8.66104 5.38572 0
M  V30 19560 O 3428.09 -6.33544 6.1349 0
M  V30 19561 O 3427.55 -6.7751 3.72168 0
M  V30 19562 C 3426.61 -7.20825 2.7076 0
M  V30 19563 C 3427.34 -7.45864 1.40599 0
M  V30 19564 O 3427.55 -6.17651 0.734225 0
M  V30 19565 C 3428.74 -8.05808 1.51899 0
M  V30 19566 O 3429.13 -8.74358 0.335205 0
M  V30 19567 C 3429.62 -6.83093 1.70294 0
M  V30 19568 C 3428.91 -5.79992 0.836974 0
M  V30 19569 N 3428.96 -4.41864 1.38293 0
M  V30 19570 H 3426.12 -8.13644 3.0377 0
M  V30 19571 H 3425.85 -6.42788 2.55485 0
M  V30 19572 H 3426.72 -8.12039 0.792769 0
M  V30 19573 P 3430.68 -8.91 1.23833e-10 0
M  V30 19574 O 3430.9 -10.1726 -0.733694 0
M  V30 19575 O 3431.47 -8.73148 1.23936 0
M  V30 19576 O 3430.93 -7.66872 -0.971405 0
M  V30 19577 C 3429.99 -7.42309 -2.04641 0
M  V30 19578 C 3430.72 -6.86059 -3.24661 0
M  V30 19579 O 3430.93 -5.42847 -3.03646 0
M  V30 19580 C 3432.12 -7.41196 -3.50753 0
M  V30 19581 O 3432.51 -7.27073 -4.86816 0
M  V30 19582 C 3433 -6.5273 -2.63741 0
M  V30 19583 C 3432.29 -5.1842 -2.73198 0
M  V30 19584 N 3432.34 -4.38762 -1.4784 0
M  V30 19585 H 3429.5 -8.36803 -2.32493 0
M  V30 19586 H 3429.23 -6.70197 -1.71129 0
M  V30 19587 H 3430.1 -7.03551 -4.13168 0
M  V30 19588 P 3434.06 -7.20834 -5.23717 0
M  V30 19589 O 3434.28 -7.79853 -6.57286 0
M  V30 19590 O 3434.85 -7.79239 -4.12957 0
M  V30 19591 O 3434.31 -5.63315 -5.29344 0
M  V30 19592 C 3433.37 -4.80255 -6.01876 0
M  V30 19593 C 3434.1 -3.64202 -6.65911 0
M  V30 19594 O 3434.31 -2.60694 -5.64732 0
M  V30 19595 C 3435.5 -3.93473 -7.1943 0
M  V30 19596 O 3435.89 -3.02071 -8.21205 0
M  V30 19597 C 3436.38 -3.73047 -5.97036 0
M  V30 19598 C 3435.67 -2.58828 -5.25741 0
M  V30 19599 N 3435.72 -2.68068 -3.77503 0
M  V30 19600 H 3432.88 -5.40332 -6.79951 0
M  V30 19601 H 3432.61 -4.41613 -5.32378 0
M  V30 19602 H 3433.48 -3.26331 -7.47797 0
M  V30 19603 P 3437.44 -2.75334 -8.47391 0
M  V30 19604 O 3437.66 -2.44571 -9.90142 0
M  V30 19605 O 3438.23 -3.87688 -7.92115 0
M  V30 19606 O 3437.69 -1.4459 -7.59357 0
M  V30 19607 C 3436.75 -0.347608 -7.69215 0
M  V30 19608 C 3437.48 0.96767 -7.52806 0
M  V30 19609 O 3437.69 1.21036 -6.1011 0
M  V30 19610 C 3438.88 1.04544 -8.13308 0
M  V30 19611 O 3439.27 2.38311 -8.41922 0
M  V30 19612 C 3439.76 0.491279 -7.02284 0
M  V30 19613 C 3439.05 0.996264 -5.77469 0
M  V30 19614 N 3439.1 0.0501916 -4.62973 0
M  V30 19615 H 3436.26 -0.374722 -8.67691 0
M  V30 19616 H 3435.99 -0.443485 -6.90277 0
M  V30 19617 H 3436.86 1.75537 -7.96793 0
M  V30 19618 P 3440.82 2.75334 -8.47391 0
M  V30 19619 O 3441.04 3.84166 -9.4489 0
M  V30 19620 O 3441.61 1.51964 -8.6881 0
M  V30 19621 O 3441.07 3.29363 -6.99321 0
M  V30 19622 C 3440.13 4.23956 -6.42656 0
M  V30 19623 C 3440.86 5.20775 -5.52155 0
M  V30 19624 O 3441.07 4.56534 -4.22446 0
M  V30 19625 C 3442.26 5.62629 -5.96531 0
M  V30 19626 O 3442.65 6.87667 -5.41053 0
M  V30 19627 C 3443.14 4.52537 -5.39283 0
M  V30 19628 C 3442.43 4.20027 -4.08623 0
M  V30 19629 N 3442.48 2.7613 -3.71522 0
M  V30 19630 C 3442.63 2.45612 -2.37989 0
M  V30 19631 O 3442.72 3.30919 -1.51621 0
M  V30 19632 N 3442.67 1.10684 -2.08435 0
M  V30 19633 C 3442.58 0.0690084 -2.9792 0
M  V30 19634 O 3442.63 -1.10553 -2.59426 0
M  V30 19635 C 3442.43 0.481522 -4.35345 0
M  V30 19636 C 3442.32 -0.618778 -5.36443 0
M  V30 19637 C 3442.38 1.78906 -4.67968 0
M  V30 19638 H 3439.64 4.797 -7.24003 0
M  V30 19639 H 3439.37 3.69802 -5.84429 0
M  V30 19640 H 3440.24 6.10356 -5.41441 0
M  V30 19641 H 3442.89 4.78651 -3.27911 0
M  V30 19642 H 3443.17 3.64957 -6.05871 0
M  V30 19643 H 3444.16 4.8868 -5.2125 0
M  V30 19644 H 3442.33 5.66726 -7.06352 0
M  V30 19645 H 3442.26 2.07737 -5.72367 0
M  V30 19646 H 3443.29 -0.754375 -5.86871 0
M  V30 19647 H 3441.55 -0.359721 -6.10641 0
M  V30 19648 H 3442.04 -1.55533 -4.8581 0
M  V30 19649 H 3442.78 0.862651 -1.12037 0
M  V30 19650 P 3444.2 7.20834 -5.23717 0
M  V30 19651 O 3444.42 8.66104 -5.38572 0
M  V30 19652 O 3444.99 6.33544 -6.1349 0
M  V30 19653 O 3444.45 6.7751 -3.72168 0
M  V30 19654 C 3443.51 7.20825 -2.7076 0
M  V30 19655 C 3444.24 7.45864 -1.40599 0
M  V30 19656 O 3444.45 6.17651 -0.734225 0
M  V30 19657 C 3445.64 8.05808 -1.51899 0
M  V30 19658 O 3446.03 8.74358 -0.335205 0
M  V30 19659 C 3446.52 6.83093 -1.70294 0
M  V30 19660 C 3445.81 5.79992 -0.836974 0
M  V30 19661 N 3445.86 4.41864 -1.38293 0
M  V30 19662 H 3443.02 8.13644 -3.0377 0
M  V30 19663 H 3442.75 6.42788 -2.55485 0
M  V30 19664 H 3443.62 8.12039 -0.792769 0
M  V30 19665 P 3447.58 8.91 -1.24942e-10 0
M  V30 19666 O 3447.8 10.1736 0.733766 0
M  V30 19667 O 3448.37 8.73247 -1.2395 0
M  V30 19668 O 3447.83 7.66872 0.971405 0
M  V30 19669 C 3446.89 7.42212 2.04614 0
M  V30 19670 C 3447.62 6.86059 3.24661 0
M  V30 19671 O 3447.83 5.42847 3.03646 0
M  V30 19672 C 3449.02 7.41196 3.50753 0
M  V30 19673 O 3449.41 7.27073 4.86816 0
M  V30 19674 C 3449.9 6.5273 2.63741 0
M  V30 19675 C 3449.19 5.1842 2.73198 0
M  V30 19676 N 3449.24 4.38668 1.47808 0
M  V30 19677 C 3449.39 3.02239 1.60048 0
M  V30 19678 O 3449.48 2.46459 2.67869 0
M  V30 19679 N 3449.43 2.32436 0.408571 0
M  V30 19680 C 3449.34 2.85471 -0.854993 0
M  V30 19681 C 3449.19 4.28918 -0.887335 0
M  V30 19682 C 3449.14 5.00349 0.255399 0
M  V30 19683 H 3446.4 8.36803 2.32493 0
M  V30 19684 H 3446.13 6.701 1.71105 0
M  V30 19685 H 3447 7.03551 4.13168 0
M  V30 19686 H 3449.65 4.59773 3.53894 0
M  V30 19687 H 3449.93 6.88995 1.59871 0
M  V30 19688 H 3450.92 6.46749 3.03687 0
M  V30 19689 H 3449.09 8.46908 3.20714 0
M  V30 19690 H 3449.02 6.08548 0.206986 0
M  V30 19691 P 3450.96 7.20834 5.23717 0
M  V30 19692 O 3451.18 7.7993 6.57351 0
M  V30 19693 O 3451.75 7.79328 4.13004 0
M  V30 19694 O 3451.21 5.63315 5.29344 0
M  V30 19695 C 3450.27 4.80193 6.01798 0
M  V30 19696 C 3451 3.64202 6.65911 0
M  V30 19697 O 3451.21 2.60694 5.64732 0
M  V30 19698 C 3452.4 3.93473 7.1943 0
M  V30 19699 O 3452.79 3.02071 8.21205 0
M  V30 19700 C 3453.28 3.73047 5.97036 0
M  V30 19701 C 3452.57 2.58828 5.25741 0
M  V30 19702 N 3452.62 2.6801 3.77422 0
M  V30 19703 C 3452.77 1.50443 3.07133 0
M  V30 19704 O 3452.86 0.419406 3.61576 0
M  V30 19705 N 3452.81 1.6403 1.69677 0
M  V30 19706 C 3452.72 2.81206 0.986255 0
M  V30 19707 O 3452.77 2.80892 -0.249754 0
M  V30 19708 C 3452.57 3.99158 1.80325 0
M  V30 19709 C 3452.46 5.29309 1.06921 0
M  V30 19710 C 3452.52 3.89779 3.1476 0
M  V30 19711 H 3449.78 5.40332 6.79951 0
M  V30 19712 H 3449.51 4.41549 5.32301 0
M  V30 19713 H 3450.38 3.26331 7.47797 0
M  V30 19714 H 3453.03 1.6395 5.56554 0
M  V30 19715 H 3453.31 4.63439 5.3432 0
M  V30 19716 H 3454.3 3.44728 6.25838 0
M  V30 19717 H 3452.47 4.96652 7.57263 0
M  V30 19718 H 3452.4 4.80159 3.74441 0
M  V30 19719 H 3453.43 5.81459 1.09608 0
M  V30 19720 H 3451.69 5.9187 1.54487 0
M  V30 19721 H 3452.18 5.10095 0.0220288 0
M  V30 19722 H 3452.92 0.798962 1.16664 0
M  V30 19723 P 3454.34 2.75334 8.47391 0
M  V30 19724 O 3454.56 2.44595 9.90239 0
M  V30 19725 O 3455.13 3.87732 7.92204 0
M  V30 19726 O 3454.59 1.4459 7.59357 0
M  V30 19727 C 3453.65 0.347563 7.69115 0
M  V30 19728 C 3454.38 -0.96767 7.52806 0
M  V30 19729 O 3454.59 -1.21036 6.1011 0
M  V30 19730 C 3455.78 -1.04544 8.13308 0
M  V30 19731 O 3456.17 -2.38311 8.41922 0
M  V30 19732 C 3456.66 -0.491279 7.02284 0
M  V30 19733 C 3455.95 -0.996264 5.77469 0
M  V30 19734 N 3456 -0.0501808 4.62873 0
M  V30 19735 C 3456.15 -0.588177 3.36904 0
M  V30 19736 O 3456.24 -1.78598 3.17173 0
M  V30 19737 N 3456.19 0.329694 2.33686 0
M  V30 19738 C 3456.1 1.6953 2.45079 0
M  V30 19739 C 3455.95 2.16933 3.80505 0
M  V30 19740 C 3455.9 1.30326 4.83752 0
M  V30 19741 H 3453.16 0.374722 8.67691 0
M  V30 19742 H 3452.89 0.443421 6.90177 0
M  V30 19743 H 3453.76 -1.75537 7.96793 0
M  V30 19744 H 3456.41 -1.94496 5.46629 0
M  V30 19745 H 3456.69 0.608651 7.04676 0
M  V30 19746 H 3457.68 -0.889672 7.08939 0
M  V30 19747 H 3455.85 -0.43308 9.04564 0
M  V30 19748 H 3455.78 1.68366 5.8516 0
M  V30 19749 P 3457.72 -2.75334 8.47391 0
M  V30 19750 O 3457.94 -3.84204 9.44982 0
M  V30 19751 O 3458.51 -1.51982 8.68909 0
M  V30 19752 O 3457.97 -3.29363 6.99321 0
M  V30 19753 C 3457.03 -4.24066 6.42823 0
M  V30 19754 C 3457.76 -5.20775 5.52155 0
M  V30 19755 O 3457.97 -4.56607 4.22514 0
M  V30 19756 C 3459.16 -5.62697 5.96604 0
M  V30 19757 O 3459.55 -6.87667 5.41053 0
M  V30 19758 C 3460.04 -4.52537 5.39283 0
M  V30 19759 C 3459.33 -4.20027 4.08623 0
M  V30 19760 N 3459.38 -2.76189 3.71603 0
M  V30 19761 H 3456.54 -4.79756 7.24086 0
M  V30 19762 H 3456.27 -3.69963 5.84682 0
M  V30 19763 H 3457.14 -6.10431 5.41508 0
M  V30 19764 H 3459.79 -4.78816 3.28024 0
M  V30 19765 H 3460.07 -3.64957 6.05871 0
M  V30 19766 H 3461.06 -4.88748 5.21323 0
M  V30 19767 H 3459.23 -5.66789 7.0643 0
M  V30 19768 P 3461.1 -7.20834 5.23717 0
M  V30 19769 O 3461.32 -8.66104 5.38572 0
M  V30 19770 O 3461.89 -6.33544 6.1349 0
M  V30 19771 O 3461.35 -6.7751 3.72168 0
M  V30 19772 C 3460.41 -7.20825 2.7076 0
M  V30 19773 C 3461.14 -7.45864 1.40599 0
M  V30 19774 O 3461.35 -6.17651 0.734225 0
M  V30 19775 C 3462.54 -8.05808 1.51899 0
M  V30 19776 O 3462.93 -8.74358 0.335205 0
M  V30 19777 C 3463.42 -6.83093 1.70294 0
M  V30 19778 C 3462.71 -5.79992 0.836974 0
M  V30 19779 N 3462.76 -4.41864 1.38293 0
M  V30 19780 C 3462.68 -3.99538 2.69438 0
M  V30 19781 N 3462.76 -2.69909 2.84277 0
M  V30 19782 C 3462.9 -2.21719 1.5408 0
M  V30 19783 C 3463.03 -0.891712 1.06628 0
M  V30 19784 O 3463.05 0.161298 1.70137 0
M  V30 19785 N 3463.15 -0.856846 -0.334985 0
M  V30 19786 C 3463.15 -1.9641 -1.15789 0
M  V30 19787 N 3463.28 -1.72708 -2.46522 0
M  V30 19788 N 3463.02 -3.21165 -0.713741 0
M  V30 19789 C 3462.9 -3.26797 0.639748 0
M  V30 19790 H 3459.92 -8.13644 3.0377 0
M  V30 19791 H 3459.65 -6.42788 2.55485 0
M  V30 19792 H 3460.52 -8.12039 0.792769 0
M  V30 19793 H 3463.17 -5.80061 -0.166416 0
M  V30 19794 H 3463.45 -6.51287 2.75604 0
M  V30 19795 H 3464.44 -7.01734 1.34462 0
M  V30 19796 H 3462.61 -8.73674 2.38337 0
M  V30 19797 H 3462.56 -4.68207 3.53221 0
M  V30 19798 H 3463.24 0.0398818 -0.767965 0
M  V30 19799 H 3463.28 -2.50995 -3.13503 0
M  V30 19800 H 3463.38 -0.759148 -2.80716 0
M  V30 19801 P 3464.48 -8.91 1.26051e-10 0
M  V30 19802 O 3464.7 -10.1726 -0.733694 0
M  V30 19803 O 3465.27 -8.73148 1.23936 0
M  V30 19804 O 3464.73 -7.66872 -0.971405 0
M  V30 19805 C 3463.79 -7.42309 -2.04641 0
M  V30 19806 C 3464.52 -6.86059 -3.24661 0
M  V30 19807 O 3464.73 -5.42847 -3.03646 0
M  V30 19808 C 3465.92 -7.41196 -3.50753 0
M  V30 19809 O 3466.31 -7.27073 -4.86816 0
M  V30 19810 C 3466.8 -6.5273 -2.63741 0
M  V30 19811 C 3466.09 -5.1842 -2.73198 0
M  V30 19812 N 3466.14 -4.38762 -1.4784 0
M  V30 19813 H 3463.3 -8.36803 -2.32493 0
M  V30 19814 H 3463.03 -6.70197 -1.71129 0
M  V30 19815 H 3463.9 -7.03551 -4.13168 0
M  V30 19816 P 3467.86 -7.20834 -5.23717 0
M  V30 19817 O 3468.08 -7.79853 -6.57286 0
M  V30 19818 O 3468.65 -7.79239 -4.12957 0
M  V30 19819 O 3468.11 -5.63315 -5.29344 0
M  V30 19820 C 3467.17 -4.80255 -6.01876 0
M  V30 19821 C 3467.9 -3.64202 -6.65911 0
M  V30 19822 O 3468.11 -2.60694 -5.64732 0
M  V30 19823 C 3469.3 -3.93473 -7.1943 0
M  V30 19824 O 3469.69 -3.02071 -8.21205 0
M  V30 19825 C 3470.18 -3.73047 -5.97036 0
M  V30 19826 C 3469.47 -2.58828 -5.25741 0
M  V30 19827 N 3469.52 -2.68068 -3.77503 0
M  V30 19828 C 3469.44 -3.79715 -2.96723 0
M  V30 19829 N 3469.52 -3.5377 -1.68852 0
M  V30 19830 C 3469.66 -2.15054 -1.63254 0
M  V30 19831 C 3469.79 -1.28964 -0.518571 0
M  V30 19832 O 3469.81 -1.56826 0.679156 0
M  V30 19833 N 3469.91 0.0538097 -0.918425 0
M  V30 19834 C 3469.91 0.494275 -2.22578 0
M  V30 19835 N 3470.04 1.81086 -2.40434 0
M  V30 19836 N 3469.78 -0.313645 -3.27502 0
M  V30 19837 C 3469.66 -1.61829 -2.91033 0
M  V30 19838 H 3466.68 -5.40332 -6.79951 0
M  V30 19839 H 3466.41 -4.41613 -5.32378 0
M  V30 19840 H 3467.28 -3.26331 -7.47797 0
M  V30 19841 H 3469.93 -1.63422 -5.56814 0
M  V30 19842 H 3470.21 -4.63374 -5.34244 0
M  V30 19843 H 3471.2 -3.44728 -6.25838 0
M  V30 19844 H 3469.37 -4.96652 -7.57263 0
M  V30 19845 H 3469.32 -4.80617 -3.3614 0
M  V30 19846 H 3470 0.742702 -0.199384 0
M  V30 19847 H 3470.04 2.20598 -3.35588 0
M  V30 19848 H 3470.14 2.43518 -1.58945 0
M  V30 19849 P 3471.24 -2.75334 -8.47391 0
M  V30 19850 O 3471.46 -2.44571 -9.90142 0
M  V30 19851 O 3472.03 -3.87688 -7.92115 0
M  V30 19852 O 3471.49 -1.4459 -7.59357 0
M  V30 19853 C 3470.55 -0.347608 -7.69215 0
M  V30 19854 C 3471.28 0.96767 -7.52806 0
M  V30 19855 O 3471.49 1.21036 -6.1011 0
M  V30 19856 C 3472.68 1.04544 -8.13308 0
M  V30 19857 O 3473.07 2.38311 -8.41922 0
M  V30 19858 C 3473.56 0.491279 -7.02284 0
M  V30 19859 C 3472.85 0.996264 -5.77469 0
M  V30 19860 N 3472.9 0.0501916 -4.62973 0
M  V30 19861 H 3470.06 -0.374722 -8.67691 0
M  V30 19862 H 3469.79 -0.443485 -6.90277 0
M  V30 19863 H 3470.66 1.75537 -7.96793 0
M  V30 19864 P 3474.62 2.75334 -8.47391 0
M  V30 19865 O 3474.84 3.84128 -9.44797 0
M  V30 19866 O 3475.41 1.51947 -8.68712 0
M  V30 19867 O 3474.87 3.29363 -6.99321 0
M  V30 19868 C 3473.93 4.24011 -6.4274 0
M  V30 19869 C 3474.66 5.20775 -5.52155 0
M  V30 19870 O 3474.87 4.56534 -4.22446 0
M  V30 19871 C 3476.06 5.62629 -5.96531 0
M  V30 19872 O 3476.45 6.87667 -5.41053 0
M  V30 19873 C 3476.94 4.52537 -5.39283 0
M  V30 19874 C 3476.23 4.20027 -4.08623 0
M  V30 19875 N 3476.28 2.76189 -3.71603 0
M  V30 19876 H 3473.44 4.797 -7.24003 0
M  V30 19877 H 3473.17 3.69856 -5.84513 0
M  V30 19878 H 3474.04 6.10356 -5.41441 0
M  V30 19879 P 3478 7.20834 -5.23717 0
M  V30 19880 O 3478.22 8.66189 -5.38625 0
M  V30 19881 O 3478.79 6.33615 -6.1356 0
M  V30 19882 O 3478.25 6.7751 -3.72168 0
M  V30 19883 C 3477.31 7.20732 -2.70725 0
M  V30 19884 C 3478.04 7.45864 -1.40599 0
M  V30 19885 O 3478.25 6.17651 -0.734225 0
M  V30 19886 C 3479.44 8.05808 -1.51899 0
M  V30 19887 O 3479.83 8.74358 -0.335205 0
M  V30 19888 C 3480.32 6.83093 -1.70294 0
M  V30 19889 C 3479.61 5.79992 -0.836974 0
M  V30 19890 N 3479.66 4.41769 -1.38263 0
M  V30 19891 C 3479.81 3.38591 -0.481702 0
M  V30 19892 O 3479.9 3.56839 0.718452 0
M  V30 19893 N 3479.85 2.1206 -1.03569 0
M  V30 19894 C 3479.76 1.80696 -2.36966 0
M  V30 19895 O 3479.81 0.630473 -2.74862 0
M  V30 19896 C 3479.61 2.94845 -3.23898 0
M  V30 19897 C 3479.5 2.65253 -4.70362 0
M  V30 19898 C 3479.56 4.19803 -2.73435 0
M  V30 19899 H 3476.82 8.13644 -3.0377 0
M  V30 19900 H 3476.55 6.42695 -2.55448 0
M  V30 19901 H 3477.42 8.12039 -0.792769 0
M  V30 19902 H 3480.07 5.79978 0.160587 0
M  V30 19903 H 3480.35 6.51379 -2.75643 0
M  V30 19904 H 3481.34 7.01734 -1.34462 0
M  V30 19905 H 3479.51 8.73674 -2.38337 0
M  V30 19906 H 3479.44 5.04492 -3.4095 0
M  V30 19907 H 3480.47 2.83924 -5.1913 0
M  V30 19908 H 3478.73 3.29824 -5.15163 0
M  V30 19909 H 3479.22 1.59723 -4.84449 0
M  V30 19910 H 3479.96 1.35644 -0.399345 0
M  V30 19911 P 3481.38 8.91 -1.2716e-10 0
M  V30 19912 O 3481.6 10.1726 0.733694 0
M  V30 19913 O 3482.17 8.73148 -1.23936 0
M  V30 19914 O 3481.63 7.66872 0.971405 0
M  V30 19915 C 3480.69 7.42309 2.04641 0
M  V30 19916 C 3481.42 6.86059 3.24661 0
M  V30 19917 O 3481.63 5.42847 3.03646 0
M  V30 19918 C 3482.82 7.41196 3.50753 0
M  V30 19919 O 3483.21 7.27073 4.86816 0
M  V30 19920 C 3483.7 6.5273 2.63741 0
M  V30 19921 C 3482.99 5.1842 2.73198 0
M  V30 19922 N 3483.04 4.38762 1.4784 0
M  V30 19923 H 3480.2 8.36803 2.32493 0
M  V30 19924 H 3479.93 6.70197 1.71129 0
M  V30 19925 H 3480.8 7.03551 4.13168 0
M  V30 19926 P 3484.76 7.20834 5.23717 0
M  V30 19927 O 3484.98 7.79853 6.57286 0
M  V30 19928 O 3485.55 7.79239 4.12957 0
M  V30 19929 O 3485.01 5.63315 5.29344 0
M  V30 19930 C 3484.07 4.80255 6.01876 0
M  V30 19931 C 3484.8 3.64202 6.65911 0
M  V30 19932 O 3485.01 2.60694 5.64732 0
M  V30 19933 C 3486.2 3.93473 7.1943 0
M  V30 19934 O 3486.59 3.02071 8.21205 0
M  V30 19935 C 3487.08 3.73047 5.97036 0
M  V30 19936 C 3486.37 2.58828 5.25741 0
M  V30 19937 N 3486.42 2.68068 3.77503 0
M  V30 19938 H 3483.58 5.40332 6.79951 0
M  V30 19939 H 3483.31 4.41613 5.32378 0
M  V30 19940 H 3484.18 3.26331 7.47797 0
M  V30 19941 P 3488.14 2.75334 8.47391 0
M  V30 19942 O 3488.36 2.44571 9.90142 0
M  V30 19943 O 3488.93 3.87688 7.92115 0
M  V30 19944 O 3488.39 1.4459 7.59357 0
M  V30 19945 C 3487.45 0.347608 7.69215 0
M  V30 19946 C 3488.18 -0.96767 7.52806 0
M  V30 19947 O 3488.39 -1.21036 6.1011 0
M  V30 19948 C 3489.58 -1.04544 8.13308 0
M  V30 19949 O 3489.97 -2.38311 8.41922 0
M  V30 19950 C 3490.46 -0.491279 7.02284 0
M  V30 19951 C 3489.75 -0.996264 5.77469 0
M  V30 19952 N 3489.8 -0.0501916 4.62973 0
M  V30 19953 H 3486.96 0.374722 8.67691 0
M  V30 19954 H 3486.69 0.443485 6.90277 0
M  V30 19955 H 3487.56 -1.75537 7.96793 0
M  V30 19956 P 3491.52 -2.75334 8.47391 0
M  V30 19957 O 3491.74 -3.84128 9.44797 0
M  V30 19958 O 3492.31 -1.51947 8.68712 0
M  V30 19959 O 3491.77 -3.29363 6.99321 0
M  V30 19960 C 3490.83 -4.24011 6.4274 0
M  V30 19961 C 3491.56 -5.20775 5.52155 0
M  V30 19962 O 3491.77 -4.56534 4.22446 0
M  V30 19963 C 3492.96 -5.62629 5.96531 0
M  V30 19964 O 3493.35 -6.87667 5.41053 0
M  V30 19965 C 3493.84 -4.52537 5.39283 0
M  V30 19966 C 3493.13 -4.20027 4.08623 0
M  V30 19967 N 3493.18 -2.76189 3.71603 0
M  V30 19968 H 3490.34 -4.797 7.24003 0
M  V30 19969 H 3490.07 -3.69856 5.84513 0
M  V30 19970 H 3490.94 -6.10356 5.41441 0
M  V30 19971 P 3494.9 -7.20834 5.23717 0
M  V30 19972 O 3495.12 -8.66104 5.38572 0
M  V30 19973 O 3495.69 -6.33544 6.1349 0
M  V30 19974 O 3495.15 -6.7751 3.72168 0
M  V30 19975 C 3494.21 -7.20825 2.7076 0
M  V30 19976 C 3494.94 -7.45864 1.40599 0
M  V30 19977 O 3495.15 -6.17651 0.734225 0
M  V30 19978 C 3496.34 -8.05808 1.51899 0
M  V30 19979 O 3496.73 -8.74358 0.335205 0
M  V30 19980 C 3497.22 -6.83093 1.70294 0
M  V30 19981 C 3496.51 -5.79992 0.836974 0
M  V30 19982 N 3496.56 -4.41864 1.38293 0
M  V30 19983 C 3496.48 -3.99538 2.69438 0
M  V30 19984 N 3496.56 -2.69909 2.84277 0
M  V30 19985 C 3496.7 -2.21719 1.5408 0
M  V30 19986 C 3496.83 -0.891712 1.06628 0
M  V30 19987 N 3496.95 -0.856846 -0.334985 0
M  V30 19988 C 3496.95 -1.9641 -1.15789 0
M  V30 19989 N 3497.08 -1.72708 -2.46522 0
M  V30 19990 N 3496.82 -3.21165 -0.713741 0
M  V30 19991 C 3496.7 -3.26797 0.639748 0
M  V30 19992 H 3493.72 -8.13644 3.0377 0
M  V30 19993 H 3493.45 -6.42788 2.55485 0
M  V30 19994 H 3494.32 -8.12039 0.792769 0
M  V30 19995 P 3498.28 -8.91 1.28269e-10 0
M  V30 19996 O 3498.5 -10.1746 -0.733838 0
M  V30 19997 O 3499.07 -8.73346 1.23964 0
M  V30 19998 O 3498.53 -7.66872 -0.971405 0
M  V30 19999 C 3497.59 -7.42405 -2.04668 0
M  V30 20000 C 3498.32 -6.86059 -3.24661 0
M  V30 20001 O 3498.53 -5.42934 -3.03695 0
M  V30 20002 C 3499.72 -7.41287 -3.50796 0
M  V30 20003 O 3500.11 -7.27073 -4.86816 0
M  V30 20004 C 3500.6 -6.5273 -2.63741 0
M  V30 20005 C 3499.89 -5.1842 -2.73198 0
M  V30 20006 N 3499.94 -4.38762 -1.4784 0
M  V30 20007 C 3499.86 -4.83651 -0.183876 0
M  V30 20008 N 3499.93 -3.88759 0.699393 0
M  V30 20009 C 3500.08 -2.7404 -0.0575568 0
M  V30 20010 C 3500.21 -1.37902 0.293928 0
M  V30 20011 N 3500.22 -0.938021 1.54797 0
M  V30 20012 N 3500.33 -0.491817 -0.70549 0
M  V30 20013 C 3500.32 -0.931735 -1.95979 0
M  V30 20014 N 3500.2 -2.16017 -2.41481 0
M  V30 20015 C 3500.08 -3.02547 -1.39121 0
M  V30 20016 H 3497.1 -8.36899 -2.3252 0
M  V30 20017 H 3496.83 -6.70391 -1.71179 0
M  V30 20018 H 3497.7 -7.03638 -4.13219 0
M  V30 20019 H 3500.35 -4.59931 -3.54016 0
M  V30 20020 H 3500.63 -6.88995 -1.59871 0
M  V30 20021 H 3501.62 -6.4684 -3.0373 0
M  V30 20022 H 3499.79 -8.47002 -3.20749 0
M  V30 20023 H 3499.75 -5.8885 0.0765548 0
M  V30 20024 H 3500.13 -1.60276 2.32875 0
M  V30 20025 H 3500.32 0.0699355 1.73859 0
M  V30 20026 H 3500.43 -0.165507 -2.71897 0
M  V30 20027 P 3501.66 -7.20834 -5.23717 0
M  V30 20028 O 3501.88 -7.79853 -6.57286 0
M  V30 20029 O 3502.45 -7.79239 -4.12957 0
M  V30 20030 O 3501.91 -5.63315 -5.29344 0
M  V30 20031 C 3500.97 -4.80255 -6.01876 0
M  V30 20032 C 3501.7 -3.64202 -6.65911 0
M  V30 20033 O 3501.91 -2.60694 -5.64732 0
M  V30 20034 C 3503.1 -3.93473 -7.1943 0
M  V30 20035 O 3503.49 -3.02071 -8.21205 0
M  V30 20036 C 3503.98 -3.73047 -5.97036 0
M  V30 20037 C 3503.27 -2.58828 -5.25741 0
M  V30 20038 N 3503.32 -2.68068 -3.77503 0
M  V30 20039 H 3500.48 -5.40332 -6.79951 0
M  V30 20040 H 3500.21 -4.41613 -5.32378 0
M  V30 20041 H 3501.08 -3.26331 -7.47797 0
M  V30 20042 P 3505.04 -2.75334 -8.47391 0
M  V30 20043 O 3505.26 -2.44571 -9.90142 0
M  V30 20044 O 3505.83 -3.87688 -7.92115 0
M  V30 20045 O 3505.29 -1.4459 -7.59357 0
M  V30 20046 C 3504.35 -0.347608 -7.69215 0
M  V30 20047 C 3505.08 0.96767 -7.52806 0
M  V30 20048 O 3505.29 1.21036 -6.1011 0
M  V30 20049 C 3506.48 1.04544 -8.13308 0
M  V30 20050 O 3506.87 2.38311 -8.41922 0
M  V30 20051 C 3507.36 0.491279 -7.02284 0
M  V30 20052 C 3506.65 0.996264 -5.77469 0
M  V30 20053 N 3506.7 0.0501916 -4.62973 0
M  V30 20054 H 3503.86 -0.374722 -8.67691 0
M  V30 20055 H 3503.59 -0.443485 -6.90277 0
M  V30 20056 H 3504.46 1.75537 -7.96793 0
M  V30 20057 P 3508.42 2.75334 -8.47391 0
M  V30 20058 O 3508.64 3.84166 -9.4489 0
M  V30 20059 O 3509.21 1.51964 -8.6881 0
M  V30 20060 O 3508.67 3.29363 -6.99321 0
M  V30 20061 C 3507.73 4.23956 -6.42656 0
M  V30 20062 C 3508.46 5.20775 -5.52155 0
M  V30 20063 O 3508.67 4.56534 -4.22446 0
M  V30 20064 C 3509.86 5.62629 -5.96531 0
M  V30 20065 O 3510.25 6.87667 -5.41053 0
M  V30 20066 C 3510.74 4.52537 -5.39283 0
M  V30 20067 C 3510.03 4.20027 -4.08623 0
M  V30 20068 N 3510.08 2.7613 -3.71522 0
M  V30 20069 C 3510.23 2.45612 -2.37989 0
M  V30 20070 O 3510.32 3.30919 -1.51621 0
M  V30 20071 N 3510.27 1.10684 -2.08435 0
M  V30 20072 C 3510.18 0.0690084 -2.9792 0
M  V30 20073 O 3510.23 -1.10553 -2.59426 0
M  V30 20074 C 3510.03 0.481522 -4.35345 0
M  V30 20075 C 3509.92 -0.618778 -5.36443 0
M  V30 20076 C 3509.98 1.78906 -4.67968 0
M  V30 20077 H 3507.24 4.797 -7.24003 0
M  V30 20078 H 3506.97 3.69802 -5.84429 0
M  V30 20079 H 3507.84 6.10356 -5.41441 0
M  V30 20080 H 3510.49 4.78651 -3.27911 0
M  V30 20081 H 3510.77 3.64957 -6.05871 0
M  V30 20082 H 3511.76 4.8868 -5.2125 0
M  V30 20083 H 3509.93 5.66726 -7.06352 0
M  V30 20084 H 3509.86 2.07737 -5.72367 0
M  V30 20085 H 3510.89 -0.754375 -5.86871 0
M  V30 20086 H 3509.15 -0.359721 -6.10641 0
M  V30 20087 H 3509.64 -1.55533 -4.8581 0
M  V30 20088 H 3510.38 0.862651 -1.12037 0
M  V30 20089 P 3511.8 7.20834 -5.23717 0
M  V30 20090 O 3512.02 8.66104 -5.38572 0
M  V30 20091 O 3512.59 6.33544 -6.1349 0
M  V30 20092 O 3512.05 6.7751 -3.72168 0
M  V30 20093 C 3511.11 7.20825 -2.7076 0
M  V30 20094 C 3511.84 7.45864 -1.40599 0
M  V30 20095 O 3512.05 6.17651 -0.734225 0
M  V30 20096 C 3513.24 8.05808 -1.51899 0
M  V30 20097 O 3513.63 8.74358 -0.335205 0
M  V30 20098 C 3514.12 6.83093 -1.70294 0
M  V30 20099 C 3513.41 5.79992 -0.836974 0
M  V30 20100 N 3513.46 4.41864 -1.38293 0
M  V30 20101 H 3510.62 8.13644 -3.0377 0
M  V30 20102 H 3510.35 6.42788 -2.55485 0
M  V30 20103 H 3511.22 8.12039 -0.792769 0
M  V30 20104 P 3515.18 8.91 -1.29378e-10 0
M  V30 20105 O 3515.4 10.1726 0.733694 0
M  V30 20106 O 3515.97 8.73148 -1.23936 0
M  V30 20107 O 3515.43 7.66872 0.971405 0
M  V30 20108 C 3514.49 7.42309 2.04641 0
M  V30 20109 C 3515.22 6.86059 3.24661 0
M  V30 20110 O 3515.43 5.42847 3.03646 0
M  V30 20111 C 3516.62 7.41196 3.50753 0
M  V30 20112 O 3517.01 7.27073 4.86816 0
M  V30 20113 C 3517.5 6.5273 2.63741 0
M  V30 20114 C 3516.79 5.1842 2.73198 0
M  V30 20115 N 3516.84 4.38762 1.4784 0
M  V30 20116 H 3514 8.36803 2.32493 0
M  V30 20117 H 3513.73 6.70197 1.71129 0
M  V30 20118 H 3514.6 7.03551 4.13168 0
M  V30 20119 P 3518.56 7.20834 5.23717 0
M  V30 20120 O 3518.78 7.79853 6.57286 0
M  V30 20121 O 3519.35 7.79239 4.12957 0
M  V30 20122 O 3518.81 5.63315 5.29344 0
M  V30 20123 C 3517.87 4.80255 6.01876 0
M  V30 20124 C 3518.6 3.64202 6.65911 0
M  V30 20125 O 3518.81 2.60694 5.64732 0
M  V30 20126 C 3520 3.93473 7.1943 0
M  V30 20127 O 3520.39 3.02071 8.21205 0
M  V30 20128 C 3520.88 3.73047 5.97036 0
M  V30 20129 C 3520.17 2.58828 5.25741 0
M  V30 20130 N 3520.22 2.68068 3.77503 0
M  V30 20131 H 3517.38 5.40332 6.79951 0
M  V30 20132 H 3517.11 4.41613 5.32378 0
M  V30 20133 H 3517.98 3.26331 7.47797 0
M  V30 20134 P 3521.94 2.75334 8.47391 0
M  V30 20135 O 3522.16 2.44619 9.90336 0
M  V30 20136 O 3522.73 3.87776 7.92294 0
M  V30 20137 O 3522.19 1.4459 7.59357 0
M  V30 20138 C 3521.25 0.347653 7.69315 0
M  V30 20139 C 3521.98 -0.96767 7.52806 0
M  V30 20140 O 3522.19 -1.21055 6.10208 0
M  V30 20141 C 3523.38 -1.04557 8.13408 0
M  V30 20142 O 3523.77 -2.38311 8.41922 0
M  V30 20143 C 3524.26 -0.491279 7.02284 0
M  V30 20144 C 3523.55 -0.996264 5.77469 0
M  V30 20145 N 3523.6 -0.0501916 4.62973 0
M  V30 20146 C 3523.52 1.31969 4.65661 0
M  V30 20147 N 3523.59 1.86649 3.48119 0
M  V30 20148 C 3523.74 0.792089 2.62406 0
M  V30 20149 C 3523.87 0.705684 1.2207 0
M  V30 20150 N 3523.88 1.76207 0.413762 0
M  V30 20151 N 3523.99 -0.518981 0.685754 0
M  V30 20152 C 3523.98 -1.57595 1.49174 0
M  V30 20153 N 3523.86 -1.62909 2.80066 0
M  V30 20154 C 3523.74 -0.388195 3.3073 0
M  V30 20155 H 3520.76 0.374765 8.67791 0
M  V30 20156 H 3520.49 0.443613 6.90476 0
M  V30 20157 H 3521.36 -1.75559 7.96891 0
M  V30 20158 H 3524.01 -1.94563 5.46818 0
M  V30 20159 H 3524.29 0.608651 7.04676 0
M  V30 20160 H 3525.28 -0.889796 7.09039 0
M  V30 20161 H 3523.45 -0.433128 9.04664 0
M  V30 20162 H 3523.41 1.89246 5.57664 0
M  V30 20163 H 3523.79 2.71005 0.804694 0
M  V30 20164 H 3523.98 1.63189 -0.603768 0
M  V30 20165 H 3524.09 -2.53475 0.997614 0
M  V30 20166 P 3525.32 -2.75334 8.47391 0
M  V30 20167 O 3525.54 -3.84128 9.44797 0
M  V30 20168 O 3526.11 -1.51947 8.68712 0
M  V30 20169 O 3525.57 -3.29363 6.99321 0
M  V30 20170 C 3524.63 -4.24011 6.4274 0
M  V30 20171 C 3525.36 -5.20775 5.52155 0
M  V30 20172 O 3525.57 -4.56534 4.22446 0
M  V30 20173 C 3526.76 -5.62629 5.96531 0
M  V30 20174 O 3527.15 -6.87667 5.41053 0
M  V30 20175 C 3527.64 -4.52537 5.39283 0
M  V30 20176 C 3526.93 -4.20027 4.08623 0
M  V30 20177 N 3526.98 -2.76189 3.71603 0
M  V30 20178 H 3524.14 -4.797 7.24003 0
M  V30 20179 H 3523.87 -3.69856 5.84513 0
M  V30 20180 H 3524.74 -6.10356 5.41441 0
M  V30 20181 P 3528.7 -7.20834 5.23717 0
M  V30 20182 O 3528.92 -8.66104 5.38572 0
M  V30 20183 O 3529.49 -6.33544 6.1349 0
M  V30 20184 O 3528.95 -6.7751 3.72168 0
M  V30 20185 C 3528.01 -7.20825 2.7076 0
M  V30 20186 C 3528.74 -7.45864 1.40599 0
M  V30 20187 O 3528.95 -6.17651 0.734225 0
M  V30 20188 C 3530.14 -8.05808 1.51899 0
M  V30 20189 O 3530.53 -8.74358 0.335205 0
M  V30 20190 C 3531.02 -6.83093 1.70294 0
M  V30 20191 C 3530.31 -5.79992 0.836974 0
M  V30 20192 N 3530.36 -4.41864 1.38293 0
M  V30 20193 H 3527.52 -8.13644 3.0377 0
M  V30 20194 H 3527.25 -6.42788 2.55485 0
M  V30 20195 H 3528.12 -8.12039 0.792769 0
M  V30 20196 P 3532.08 -8.91 1.30487e-10 0
M  V30 20197 O 3532.3 -10.1726 -0.733694 0
M  V30 20198 O 3532.87 -8.73148 1.23936 0
M  V30 20199 O 3532.33 -7.66872 -0.971405 0
M  V30 20200 C 3531.39 -7.42309 -2.04641 0
M  V30 20201 C 3532.12 -6.86059 -3.24661 0
M  V30 20202 O 3532.33 -5.42847 -3.03646 0
M  V30 20203 C 3533.52 -7.41196 -3.50753 0
M  V30 20204 O 3533.91 -7.27073 -4.86816 0
M  V30 20205 C 3534.4 -6.5273 -2.63741 0
M  V30 20206 C 3533.69 -5.1842 -2.73198 0
M  V30 20207 N 3533.74 -4.38762 -1.4784 0
M  V30 20208 H 3530.9 -8.36803 -2.32493 0
M  V30 20209 H 3530.63 -6.70197 -1.71129 0
M  V30 20210 H 3531.5 -7.03551 -4.13168 0
M  V30 20211 P 3535.46 -7.20834 -5.23717 0
M  V30 20212 O 3535.68 -7.79853 -6.57286 0
M  V30 20213 O 3536.25 -7.79239 -4.12957 0
M  V30 20214 O 3535.71 -5.63315 -5.29344 0
M  V30 20215 C 3534.77 -4.80255 -6.01876 0
M  V30 20216 C 3535.5 -3.64202 -6.65911 0
M  V30 20217 O 3535.71 -2.60694 -5.64732 0
M  V30 20218 C 3536.9 -3.93473 -7.1943 0
M  V30 20219 O 3537.29 -3.02071 -8.21205 0
M  V30 20220 C 3537.78 -3.73047 -5.97036 0
M  V30 20221 C 3537.07 -2.58828 -5.25741 0
M  V30 20222 N 3537.12 -2.68068 -3.77503 0
M  V30 20223 H 3534.28 -5.40332 -6.79951 0
M  V30 20224 H 3534.01 -4.41613 -5.32378 0
M  V30 20225 H 3534.88 -3.26331 -7.47797 0
M  V30 20226 P 3538.84 -2.75334 -8.47391 0
M  V30 20227 O 3539.06 -2.44571 -9.90142 0
M  V30 20228 O 3539.63 -3.87688 -7.92115 0
M  V30 20229 O 3539.09 -1.4459 -7.59357 0
M  V30 20230 C 3538.15 -0.347608 -7.69215 0
M  V30 20231 C 3538.88 0.96767 -7.52806 0
M  V30 20232 O 3539.09 1.21036 -6.1011 0
M  V30 20233 C 3540.28 1.04544 -8.13308 0
M  V30 20234 O 3540.67 2.38311 -8.41922 0
M  V30 20235 C 3541.16 0.491279 -7.02284 0
M  V30 20236 C 3540.45 0.996264 -5.77469 0
M  V30 20237 N 3540.5 0.0501916 -4.62973 0
M  V30 20238 C 3540.42 -1.32786 -4.63244 0
M  V30 20239 N 3540.5 -1.86957 -3.44545 0
M  V30 20240 C 3540.64 -0.780241 -2.58481 0
M  V30 20241 C 3540.77 -0.738536 -1.17757 0
M  V30 20242 N 3540.89 0.58337 -0.711393 0
M  V30 20243 C 3540.89 1.70816 -1.51017 0
M  V30 20244 N 3541.02 2.87826 -0.880757 0
M  V30 20245 N 3540.76 1.67126 -2.8339 0
M  V30 20246 C 3540.64 0.401421 -3.30572 0
M  V30 20247 H 3537.66 -0.374722 -8.67691 0
M  V30 20248 H 3537.39 -0.443485 -6.90277 0
M  V30 20249 H 3538.26 1.75537 -7.96793 0
M  V30 20250 P 3542.22 2.75334 -8.47391 0
M  V30 20251 O 3542.44 3.84128 -9.44797 0
M  V30 20252 O 3543.01 1.51947 -8.68712 0
M  V30 20253 O 3542.47 3.29363 -6.99321 0
M  V30 20254 C 3541.53 4.24011 -6.4274 0
M  V30 20255 C 3542.26 5.20775 -5.52155 0
M  V30 20256 O 3542.47 4.56534 -4.22446 0
M  V30 20257 C 3543.66 5.62629 -5.96531 0
M  V30 20258 O 3544.05 6.87667 -5.41053 0
M  V30 20259 C 3544.54 4.52537 -5.39283 0
M  V30 20260 C 3543.83 4.20027 -4.08623 0
M  V30 20261 N 3543.88 2.76189 -3.71603 0
M  V30 20262 H 3541.04 4.797 -7.24003 0
M  V30 20263 H 3540.77 3.69856 -5.84513 0
M  V30 20264 H 3541.64 6.10356 -5.41441 0
M  V30 20265 P 3545.6 7.20834 -5.23717 0
M  V30 20266 O 3545.82 8.66104 -5.38572 0
M  V30 20267 O 3546.39 6.33544 -6.1349 0
M  V30 20268 O 3545.85 6.7751 -3.72168 0
M  V30 20269 C 3544.91 7.20825 -2.7076 0
M  V30 20270 C 3545.64 7.45864 -1.40599 0
M  V30 20271 O 3545.85 6.17651 -0.734225 0
M  V30 20272 C 3547.04 8.05808 -1.51899 0
M  V30 20273 O 3547.43 8.74358 -0.335205 0
M  V30 20274 C 3547.92 6.83093 -1.70294 0
M  V30 20275 C 3547.21 5.79992 -0.836974 0
M  V30 20276 N 3547.26 4.41864 -1.38293 0
M  V30 20277 H 3544.42 8.13644 -3.0377 0
M  V30 20278 H 3544.15 6.42788 -2.55485 0
M  V30 20279 H 3545.02 8.12039 -0.792769 0
M  V30 20280 P 3548.98 8.91 -1.31596e-10 0
M  V30 20281 O 3549.2 10.1726 0.733694 0
M  V30 20282 O 3549.77 8.73148 -1.23936 0
M  V30 20283 O 3549.23 7.66872 0.971405 0
M  V30 20284 C 3548.29 7.42309 2.04641 0
M  V30 20285 C 3549.02 6.86059 3.24661 0
M  V30 20286 O 3549.23 5.42847 3.03646 0
M  V30 20287 C 3550.42 7.41196 3.50753 0
M  V30 20288 O 3550.81 7.27073 4.86816 0
M  V30 20289 C 3551.3 6.5273 2.63741 0
M  V30 20290 C 3550.59 5.1842 2.73198 0
M  V30 20291 N 3550.64 4.38762 1.4784 0
M  V30 20292 H 3547.8 8.36803 2.32493 0
M  V30 20293 H 3547.53 6.70197 1.71129 0
M  V30 20294 H 3548.4 7.03551 4.13168 0
M  V30 20295 P 3552.36 7.20834 5.23717 0
M  V30 20296 O 3552.58 7.79853 6.57286 0
M  V30 20297 O 3553.15 7.79239 4.12957 0
M  V30 20298 O 3552.61 5.63315 5.29344 0
M  V30 20299 C 3551.67 4.80255 6.01876 0
M  V30 20300 C 3552.4 3.64202 6.65911 0
M  V30 20301 O 3552.61 2.60694 5.64732 0
M  V30 20302 C 3553.8 3.93473 7.1943 0
M  V30 20303 O 3554.19 3.02071 8.21205 0
M  V30 20304 C 3554.68 3.73047 5.97036 0
M  V30 20305 C 3553.97 2.58828 5.25741 0
M  V30 20306 N 3554.02 2.68068 3.77503 0
M  V30 20307 H 3551.18 5.40332 6.79951 0
M  V30 20308 H 3550.91 4.41613 5.32378 0
M  V30 20309 H 3551.78 3.26331 7.47797 0
M  V30 20310 P 3555.74 2.75334 8.47391 0
M  V30 20311 O 3555.96 2.44571 9.90142 0
M  V30 20312 O 3556.53 3.87688 7.92115 0
M  V30 20313 O 3555.99 1.4459 7.59357 0
M  V30 20314 C 3555.05 0.347608 7.69215 0
M  V30 20315 C 3555.78 -0.96767 7.52806 0
M  V30 20316 O 3555.99 -1.21036 6.1011 0
M  V30 20317 C 3557.18 -1.04544 8.13308 0
M  V30 20318 O 3557.57 -2.38311 8.41922 0
M  V30 20319 C 3558.06 -0.491279 7.02284 0
M  V30 20320 C 3557.35 -0.996264 5.77469 0
M  V30 20321 N 3557.4 -0.0501916 4.62973 0
M  V30 20322 H 3554.56 0.374722 8.67691 0
M  V30 20323 H 3554.29 0.443485 6.90277 0
M  V30 20324 H 3555.16 -1.75537 7.96793 0
M  V30 20325 P 3559.12 -2.75334 8.47391 0
M  V30 20326 O 3559.34 -3.84128 9.44797 0
M  V30 20327 O 3559.91 -1.51947 8.68712 0
M  V30 20328 O 3559.37 -3.29363 6.99321 0
M  V30 20329 C 3558.43 -4.24011 6.4274 0
M  V30 20330 C 3559.16 -5.20775 5.52155 0
M  V30 20331 O 3559.37 -4.56534 4.22446 0
M  V30 20332 C 3560.56 -5.62629 5.96531 0
M  V30 20333 O 3560.95 -6.87667 5.41053 0
M  V30 20334 C 3561.44 -4.52537 5.39283 0
M  V30 20335 C 3560.73 -4.20027 4.08623 0
M  V30 20336 N 3560.78 -2.76189 3.71603 0
M  V30 20337 H 3557.94 -4.797 7.24003 0
M  V30 20338 H 3557.67 -3.69856 5.84513 0
M  V30 20339 H 3558.54 -6.10356 5.41441 0
M  V30 20340 P 3562.5 -7.20834 5.23717 0
M  V30 20341 O 3562.72 -8.66104 5.38572 0
M  V30 20342 O 3563.29 -6.33544 6.1349 0
M  V30 20343 O 3562.75 -6.7751 3.72168 0
M  V30 20344 C 3561.81 -7.20825 2.7076 0
M  V30 20345 C 3562.54 -7.45864 1.40599 0
M  V30 20346 O 3562.75 -6.17651 0.734225 0
M  V30 20347 C 3563.94 -8.05808 1.51899 0
M  V30 20348 O 3564.33 -8.74358 0.335205 0
M  V30 20349 C 3564.82 -6.83093 1.70294 0
M  V30 20350 C 3564.11 -5.79992 0.836974 0
M  V30 20351 N 3564.16 -4.41864 1.38293 0
M  V30 20352 C 3564.08 -3.99538 2.69438 0
M  V30 20353 N 3564.16 -2.69909 2.84277 0
M  V30 20354 C 3564.3 -2.21719 1.5408 0
M  V30 20355 C 3564.43 -0.891712 1.06628 0
M  V30 20356 O 3564.45 0.161298 1.70137 0
M  V30 20357 N 3564.55 -0.856846 -0.334985 0
M  V30 20358 C 3564.55 -1.9641 -1.15789 0
M  V30 20359 N 3564.68 -1.72708 -2.46522 0
M  V30 20360 N 3564.42 -3.21165 -0.713741 0
M  V30 20361 C 3564.3 -3.26797 0.639748 0
M  V30 20362 H 3561.32 -8.13644 3.0377 0
M  V30 20363 H 3561.05 -6.42788 2.55485 0
M  V30 20364 H 3561.92 -8.12039 0.792769 0
M  V30 20365 H 3564.57 -5.80061 -0.166416 0
M  V30 20366 H 3564.85 -6.51287 2.75604 0
M  V30 20367 H 3565.84 -7.01734 1.34462 0
M  V30 20368 H 3564.01 -8.73674 2.38337 0
M  V30 20369 H 3563.96 -4.68207 3.53221 0
M  V30 20370 H 3564.64 0.0398818 -0.767965 0
M  V30 20371 H 3564.68 -2.50995 -3.13503 0
M  V30 20372 H 3564.78 -0.759148 -2.80716 0
M  V30 20373 P 3565.88 -8.91 1.32705e-10 0
M  V30 20374 O 3566.1 -10.1726 -0.733694 0
M  V30 20375 O 3566.67 -8.73148 1.23936 0
M  V30 20376 O 3566.13 -7.66872 -0.971405 0
M  V30 20377 C 3565.19 -7.42309 -2.04641 0
M  V30 20378 C 3565.92 -6.86059 -3.24661 0
M  V30 20379 O 3566.13 -5.42847 -3.03646 0
M  V30 20380 C 3567.32 -7.41196 -3.50753 0
M  V30 20381 O 3567.71 -7.27073 -4.86816 0
M  V30 20382 C 3568.2 -6.5273 -2.63741 0
M  V30 20383 C 3567.49 -5.1842 -2.73198 0
M  V30 20384 N 3567.54 -4.38762 -1.4784 0
M  V30 20385 H 3564.7 -8.36803 -2.32493 0
M  V30 20386 H 3564.43 -6.70197 -1.71129 0
M  V30 20387 H 3565.3 -7.03551 -4.13168 0
M  V30 20388 P 3569.26 -7.20834 -5.23717 0
M  V30 20389 O 3569.48 -7.7993 -6.57351 0
M  V30 20390 O 3570.05 -7.79328 -4.13004 0
M  V30 20391 O 3569.51 -5.63315 -5.29344 0
M  V30 20392 C 3568.57 -4.80255 -6.01876 0
M  V30 20393 C 3569.3 -3.64202 -6.65911 0
M  V30 20394 O 3569.51 -2.60694 -5.64732 0
M  V30 20395 C 3570.7 -3.93473 -7.1943 0
M  V30 20396 O 3571.09 -3.02071 -8.21205 0
M  V30 20397 C 3571.58 -3.73047 -5.97036 0
M  V30 20398 C 3570.87 -2.58828 -5.25741 0
M  V30 20399 N 3570.92 -2.6801 -3.77422 0
M  V30 20400 C 3571.07 -1.50173 -3.05038 0
M  V30 20401 O 3571.16 -0.428832 -3.665 0
M  V30 20402 N 3571.12 -1.70922 -1.55541 0
M  V30 20403 C 3571.02 -2.7407 -1.06402 0
M  V30 20404 N 3571.07 -2.74764 0.260931 0
M  V30 20405 C 3570.87 -3.96781 -1.78296 0
M  V30 20406 C 3570.82 -3.87909 -3.13891 0
M  V30 20407 H 3568.08 -5.4027 -6.79873 0
M  V30 20408 H 3567.81 -4.41549 -5.32301 0
M  V30 20409 H 3568.68 -3.26371 -7.47889 0
M  V30 20410 H 3571.33 -1.63978 -5.5665 0
M  V30 20411 H 3571.61 -4.63439 -5.3432 0
M  V30 20412 H 3572.6 -3.44728 -6.25838 0
M  V30 20413 H 3570.77 -4.96652 -7.57263 0
M  V30 20414 H 3570.7 -4.78425 -3.73088 0
M  V30 20415 H 3570.8 -4.92593 -1.26997 0
M  V30 20416 H 3571.19 -1.86285 0.77595 0
M  V30 20417 H 3570.99 -3.63657 0.773896 0
M  V30 20418 P 3572.64 -2.75334 -8.47391 0
M  V30 20419 O 3572.86 -2.44595 -9.90239 0
M  V30 20420 O 3573.43 -3.87732 -7.92204 0
M  V30 20421 O 3572.89 -1.4459 -7.59357 0
M  V30 20422 C 3571.95 -0.347608 -7.69215 0
M  V30 20423 C 3572.68 0.96767 -7.52806 0
M  V30 20424 O 3572.89 1.21036 -6.1011 0
M  V30 20425 C 3574.08 1.04544 -8.13308 0
M  V30 20426 O 3574.47 2.38311 -8.41922 0
M  V30 20427 C 3574.96 0.491279 -7.02284 0
M  V30 20428 C 3574.25 0.996264 -5.77469 0
M  V30 20429 N 3574.3 0.0501808 -4.62873 0
M  V30 20430 C 3574.45 0.578037 -3.3505 0
M  V30 20431 O 3574.54 1.8073 -3.21711 0
M  V30 20432 N 3574.5 -0.468541 -2.263 0
M  V30 20433 C 3574.4 -1.59186 -2.47176 0
M  V30 20434 N 3574.45 -2.37626 -1.40392 0
M  V30 20435 C 3574.25 -2.16203 -3.77467 0
M  V30 20436 C 3574.2 -1.29324 -4.8195 0
M  V30 20437 H 3571.46 -0.374679 -8.67591 0
M  V30 20438 H 3571.19 -0.443421 -6.90177 0
M  V30 20439 H 3572.06 1.75559 -7.96891 0
M  V30 20440 H 3574.71 1.94529 -5.46723 0
M  V30 20441 H 3574.99 -0.608651 -7.04676 0
M  V30 20442 H 3575.98 0.889672 -7.08939 0
M  V30 20443 H 3574.15 0.43308 -9.04564 0
M  V30 20444 H 3574.08 -1.67758 -5.83046 0
M  V30 20445 H 3574.18 -3.23869 -3.92281 0
M  V30 20446 H 3574.57 -1.96317 -0.467202 0
M  V30 20447 H 3574.37 -3.39693 -1.51142 0
M  V30 20448 P 3576.02 2.75334 -8.47391 0
M  V30 20449 O 3576.24 3.84128 -9.44797 0
M  V30 20450 O 3576.81 1.51947 -8.68712 0
M  V30 20451 O 3576.27 3.29363 -6.99321 0
M  V30 20452 C 3575.33 4.24011 -6.4274 0
M  V30 20453 C 3576.06 5.20775 -5.52155 0
M  V30 20454 O 3576.27 4.56534 -4.22446 0
M  V30 20455 C 3577.46 5.62629 -5.96531 0
M  V30 20456 O 3577.85 6.87667 -5.41053 0
M  V30 20457 C 3578.34 4.52537 -5.39283 0
M  V30 20458 C 3577.63 4.20027 -4.08623 0
M  V30 20459 N 3577.68 2.76189 -3.71603 0
M  V30 20460 H 3574.84 4.797 -7.24003 0
M  V30 20461 H 3574.57 3.69856 -5.84513 0
M  V30 20462 H 3575.44 6.10356 -5.41441 0
M  V30 20463 P 3579.4 7.20834 -5.23717 0
M  V30 20464 O 3579.62 8.66104 -5.38572 0
M  V30 20465 O 3580.19 6.33544 -6.1349 0
M  V30 20466 O 3579.65 6.7751 -3.72168 0
M  V30 20467 C 3578.71 7.20825 -2.7076 0
M  V30 20468 C 3579.44 7.45864 -1.40599 0
M  V30 20469 O 3579.65 6.17651 -0.734225 0
M  V30 20470 C 3580.84 8.05808 -1.51899 0
M  V30 20471 O 3581.23 8.74358 -0.335205 0
M  V30 20472 C 3581.72 6.83093 -1.70294 0
M  V30 20473 C 3581.01 5.79992 -0.836974 0
M  V30 20474 N 3581.06 4.41864 -1.38293 0
M  V30 20475 H 3578.22 8.13644 -3.0377 0
M  V30 20476 H 3577.95 6.42788 -2.55485 0
M  V30 20477 H 3578.82 8.12039 -0.792769 0
M  V30 20478 P 3582.78 8.91 -1.33814e-10 0
M  V30 20479 O 3583 10.1726 0.733694 0
M  V30 20480 O 3583.57 8.73148 -1.23936 0
M  V30 20481 O 3583.03 7.66872 0.971405 0
M  V30 20482 C 3582.09 7.42309 2.04641 0
M  V30 20483 C 3582.82 6.86059 3.24661 0
M  V30 20484 O 3583.03 5.42847 3.03646 0
M  V30 20485 C 3584.22 7.41196 3.50753 0
M  V30 20486 O 3584.61 7.27073 4.86816 0
M  V30 20487 C 3585.1 6.5273 2.63741 0
M  V30 20488 C 3584.39 5.1842 2.73198 0
M  V30 20489 N 3584.44 4.38762 1.4784 0
M  V30 20490 H 3581.6 8.36803 2.32493 0
M  V30 20491 H 3581.33 6.70197 1.71129 0
M  V30 20492 H 3582.2 7.03551 4.13168 0
M  V30 20493 P 3586.16 7.20834 5.23717 0
M  V30 20494 O 3586.38 7.79853 6.57286 0
M  V30 20495 O 3586.95 7.79239 4.12957 0
M  V30 20496 O 3586.41 5.63315 5.29344 0
M  V30 20497 C 3585.47 4.80255 6.01876 0
M  V30 20498 C 3586.2 3.64202 6.65911 0
M  V30 20499 O 3586.41 2.60694 5.64732 0
M  V30 20500 C 3587.6 3.93473 7.1943 0
M  V30 20501 O 3587.99 3.02071 8.21205 0
M  V30 20502 C 3588.48 3.73047 5.97036 0
M  V30 20503 C 3587.77 2.58828 5.25741 0
M  V30 20504 N 3587.82 2.68068 3.77503 0
M  V30 20505 H 3584.98 5.40332 6.79951 0
M  V30 20506 H 3584.71 4.41613 5.32378 0
M  V30 20507 H 3585.58 3.26331 7.47797 0
M  V30 20508 P 3589.54 2.75334 8.47391 0
M  V30 20509 O 3589.76 2.44571 9.90142 0
M  V30 20510 O 3590.33 3.87688 7.92115 0
M  V30 20511 O 3589.79 1.4459 7.59357 0
M  V30 20512 C 3588.85 0.347608 7.69215 0
M  V30 20513 C 3589.58 -0.96767 7.52806 0
M  V30 20514 O 3589.79 -1.21036 6.1011 0
M  V30 20515 C 3590.98 -1.04544 8.13308 0
M  V30 20516 O 3591.37 -2.38311 8.41922 0
M  V30 20517 C 3591.86 -0.491279 7.02284 0
M  V30 20518 C 3591.15 -0.996264 5.77469 0
M  V30 20519 N 3591.2 -0.0501916 4.62973 0
M  V30 20520 H 3588.36 0.374722 8.67691 0
M  V30 20521 H 3588.09 0.443485 6.90277 0
M  V30 20522 H 3588.96 -1.75537 7.96793 0
M  V30 20523 P 3592.92 -2.75334 8.47391 0
M  V30 20524 O 3593.14 -3.84128 9.44797 0
M  V30 20525 O 3593.71 -1.51947 8.68712 0
M  V30 20526 O 3593.17 -3.29363 6.99321 0
M  V30 20527 C 3592.23 -4.24011 6.4274 0
M  V30 20528 C 3592.96 -5.20775 5.52155 0
M  V30 20529 O 3593.17 -4.56534 4.22446 0
M  V30 20530 C 3594.36 -5.62629 5.96531 0
M  V30 20531 O 3594.75 -6.87667 5.41053 0
M  V30 20532 C 3595.24 -4.52537 5.39283 0
M  V30 20533 C 3594.53 -4.20027 4.08623 0
M  V30 20534 N 3594.58 -2.76189 3.71603 0
M  V30 20535 H 3591.74 -4.797 7.24003 0
M  V30 20536 H 3591.47 -3.69856 5.84513 0
M  V30 20537 H 3592.34 -6.10356 5.41441 0
M  V30 20538 P 3596.3 -7.20834 5.23717 0
M  V30 20539 O 3596.52 -8.66104 5.38572 0
M  V30 20540 O 3597.09 -6.33544 6.1349 0
M  V30 20541 O 3596.55 -6.7751 3.72168 0
M  V30 20542 C 3595.61 -7.20825 2.7076 0
M  V30 20543 C 3596.34 -7.45864 1.40599 0
M  V30 20544 O 3596.55 -6.17651 0.734225 0
M  V30 20545 C 3597.74 -8.05808 1.51899 0
M  V30 20546 O 3598.13 -8.74358 0.335205 0
M  V30 20547 C 3598.62 -6.83093 1.70294 0
M  V30 20548 C 3597.91 -5.79992 0.836974 0
M  V30 20549 N 3597.96 -4.41864 1.38293 0
M  V30 20550 H 3595.12 -8.13644 3.0377 0
M  V30 20551 H 3594.85 -6.42788 2.55485 0
M  V30 20552 H 3595.72 -8.12039 0.792769 0
M  V30 20553 P 3599.68 -8.91 1.34923e-10 0
M  V30 20554 O 3599.9 -10.1726 -0.733694 0
M  V30 20555 O 3600.47 -8.73148 1.23936 0
M  V30 20556 O 3599.93 -7.66872 -0.971405 0
M  V30 20557 C 3598.99 -7.42309 -2.04641 0
M  V30 20558 C 3599.72 -6.86059 -3.24661 0
M  V30 20559 O 3599.93 -5.42847 -3.03646 0
M  V30 20560 C 3601.12 -7.41196 -3.50753 0
M  V30 20561 O 3601.51 -7.27073 -4.86816 0
M  V30 20562 C 3602 -6.5273 -2.63741 0
M  V30 20563 C 3601.29 -5.1842 -2.73198 0
M  V30 20564 N 3601.34 -4.38762 -1.4784 0
M  V30 20565 H 3598.5 -8.36803 -2.32493 0
M  V30 20566 H 3598.23 -6.70197 -1.71129 0
M  V30 20567 H 3599.1 -7.03551 -4.13168 0
M  V30 20568 P 3603.06 -7.20834 -5.23717 0
M  V30 20569 O 3603.28 -7.79853 -6.57286 0
M  V30 20570 O 3603.85 -7.79239 -4.12957 0
M  V30 20571 O 3603.31 -5.63315 -5.29344 0
M  V30 20572 C 3602.37 -4.80255 -6.01876 0
M  V30 20573 C 3603.1 -3.64202 -6.65911 0
M  V30 20574 O 3603.31 -2.60694 -5.64732 0
M  V30 20575 C 3604.5 -3.93473 -7.1943 0
M  V30 20576 O 3604.89 -3.02071 -8.21205 0
M  V30 20577 C 3605.38 -3.73047 -5.97036 0
M  V30 20578 C 3604.67 -2.58828 -5.25741 0
M  V30 20579 N 3604.72 -2.68068 -3.77503 0
M  V30 20580 H 3601.88 -5.40332 -6.79951 0
M  V30 20581 H 3601.61 -4.41613 -5.32378 0
M  V30 20582 H 3602.48 -3.26331 -7.47797 0
M  V30 20583 P 3606.44 -2.75334 -8.47391 0
M  V30 20584 O 3606.66 -2.44571 -9.90142 0
M  V30 20585 O 3607.23 -3.87688 -7.92115 0
M  V30 20586 O 3606.69 -1.4459 -7.59357 0
M  V30 20587 C 3605.75 -0.347608 -7.69215 0
M  V30 20588 C 3606.48 0.96767 -7.52806 0
M  V30 20589 O 3606.69 1.21036 -6.1011 0
M  V30 20590 C 3607.88 1.04544 -8.13308 0
M  V30 20591 O 3608.27 2.38311 -8.41922 0
M  V30 20592 C 3608.76 0.491279 -7.02284 0
M  V30 20593 C 3608.05 0.996264 -5.77469 0
M  V30 20594 N 3608.1 0.0501916 -4.62973 0
M  V30 20595 C 3608.02 -1.32786 -4.63244 0
M  V30 20596 N 3608.1 -1.86957 -3.44545 0
M  V30 20597 C 3608.24 -0.780241 -2.58481 0
M  V30 20598 C 3608.37 -0.738536 -1.17757 0
M  V30 20599 N 3608.49 0.58337 -0.711393 0
M  V30 20600 C 3608.49 1.70816 -1.51017 0
M  V30 20601 N 3608.62 2.87826 -0.880757 0
M  V30 20602 N 3608.36 1.67126 -2.8339 0
M  V30 20603 C 3608.24 0.401421 -3.30572 0
M  V30 20604 H 3605.26 -0.374722 -8.67691 0
M  V30 20605 H 3604.99 -0.443485 -6.90277 0
M  V30 20606 H 3605.86 1.75537 -7.96793 0
M  V30 20607 P 3609.82 2.75334 -8.47391 0
M  V30 20608 O 3610.04 3.84204 -9.44982 0
M  V30 20609 O 3610.61 1.51982 -8.68909 0
M  V30 20610 O 3610.07 3.29363 -6.99321 0
M  V30 20611 C 3609.13 4.24066 -6.42823 0
M  V30 20612 C 3609.86 5.20775 -5.52155 0
M  V30 20613 O 3610.07 4.56607 -4.22514 0
M  V30 20614 C 3611.26 5.62697 -5.96604 0
M  V30 20615 O 3611.65 6.87667 -5.41053 0
M  V30 20616 C 3612.14 4.52537 -5.39283 0
M  V30 20617 C 3611.43 4.20027 -4.08623 0
M  V30 20618 N 3611.48 2.76189 -3.71603 0
M  V30 20619 H 3608.64 4.79756 -7.24086 0
M  V30 20620 H 3608.37 3.69963 -5.84682 0
M  V30 20621 H 3609.24 6.10431 -5.41508 0
M  V30 20622 H 3611.89 4.78816 -3.28024 0
M  V30 20623 H 3612.17 3.64957 -6.05871 0
M  V30 20624 H 3613.16 4.88748 -5.21323 0
M  V30 20625 H 3611.33 5.66789 -7.0643 0
M  V30 20626 P 3613.2 7.20834 -5.23717 0
M  V30 20627 O 3613.42 8.66104 -5.38572 0
M  V30 20628 O 3613.99 6.33544 -6.1349 0
M  V30 20629 O 3613.45 6.7751 -3.72168 0
M  V30 20630 C 3612.51 7.20825 -2.7076 0
M  V30 20631 C 3613.24 7.45864 -1.40599 0
M  V30 20632 O 3613.45 6.17651 -0.734225 0
M  V30 20633 C 3614.64 8.05808 -1.51899 0
M  V30 20634 O 3615.03 8.74358 -0.335205 0
M  V30 20635 C 3615.52 6.83093 -1.70294 0
M  V30 20636 C 3614.81 5.79992 -0.836974 0
M  V30 20637 N 3614.86 4.41864 -1.38293 0
M  V30 20638 H 3612.02 8.13644 -3.0377 0
M  V30 20639 H 3611.75 6.42788 -2.55485 0
M  V30 20640 H 3612.62 8.12039 -0.792769 0
M  V30 20641 P 3616.58 8.91 -1.36032e-10 0
M  V30 20642 O 3616.8 10.1726 0.733694 0
M  V30 20643 O 3617.37 8.73148 -1.23936 0
M  V30 20644 O 3616.83 7.66872 0.971405 0
M  V30 20645 C 3615.89 7.42309 2.04641 0
M  V30 20646 C 3616.62 6.86059 3.24661 0
M  V30 20647 O 3616.83 5.42847 3.03646 0
M  V30 20648 C 3618.02 7.41196 3.50753 0
M  V30 20649 O 3618.41 7.27073 4.86816 0
M  V30 20650 C 3618.9 6.5273 2.63741 0
M  V30 20651 C 3618.19 5.1842 2.73198 0
M  V30 20652 N 3618.24 4.38762 1.4784 0
M  V30 20653 H 3615.4 8.36803 2.32493 0
M  V30 20654 H 3615.13 6.70197 1.71129 0
M  V30 20655 H 3616 7.03551 4.13168 0
M  V30 20656 P 3619.96 7.20834 5.23717 0
M  V30 20657 O 3620.18 7.79853 6.57286 0
M  V30 20658 O 3620.75 7.79239 4.12957 0
M  V30 20659 O 3620.21 5.63315 5.29344 0
M  V30 20660 C 3619.27 4.80255 6.01876 0
M  V30 20661 C 3620 3.64202 6.65911 0
M  V30 20662 O 3620.21 2.60694 5.64732 0
M  V30 20663 C 3621.4 3.93473 7.1943 0
M  V30 20664 O 3621.79 3.02071 8.21205 0
M  V30 20665 C 3622.28 3.73047 5.97036 0
M  V30 20666 C 3621.57 2.58828 5.25741 0
M  V30 20667 N 3621.62 2.68068 3.77503 0
M  V30 20668 H 3618.78 5.40332 6.79951 0
M  V30 20669 H 3618.51 4.41613 5.32378 0
M  V30 20670 H 3619.38 3.26331 7.47797 0
M  V30 20671 P 3623.34 2.75334 8.47391 0
M  V30 20672 O 3623.56 2.44571 9.90142 0
M  V30 20673 O 3624.13 3.87688 7.92115 0
M  V30 20674 O 3623.59 1.4459 7.59357 0
M  V30 20675 C 3622.65 0.347608 7.69215 0
M  V30 20676 C 3623.38 -0.96767 7.52806 0
M  V30 20677 O 3623.59 -1.21036 6.1011 0
M  V30 20678 C 3624.78 -1.04544 8.13308 0
M  V30 20679 O 3625.17 -2.38311 8.41922 0
M  V30 20680 C 3625.66 -0.491279 7.02284 0
M  V30 20681 C 3624.95 -0.996264 5.77469 0
M  V30 20682 N 3625 -0.0501916 4.62973 0
M  V30 20683 H 3622.16 0.374722 8.67691 0
M  V30 20684 H 3621.89 0.443485 6.90277 0
M  V30 20685 H 3622.76 -1.75537 7.96793 0
M  V30 20686 P 3626.72 -2.75334 8.47391 0
M  V30 20687 O 3626.94 -3.84204 9.44982 0
M  V30 20688 O 3627.51 -1.51982 8.68909 0
M  V30 20689 O 3626.97 -3.29363 6.99321 0
M  V30 20690 C 3626.03 -4.24066 6.42823 0
M  V30 20691 C 3626.76 -5.20775 5.52155 0
M  V30 20692 O 3626.97 -4.56607 4.22514 0
M  V30 20693 C 3628.16 -5.62697 5.96604 0
M  V30 20694 O 3628.55 -6.87667 5.41053 0
M  V30 20695 C 3629.04 -4.52537 5.39283 0
M  V30 20696 C 3628.33 -4.20027 4.08623 0
M  V30 20697 N 3628.38 -2.76189 3.71603 0
M  V30 20698 H 3625.54 -4.79756 7.24086 0
M  V30 20699 H 3625.27 -3.69963 5.84682 0
M  V30 20700 H 3626.14 -6.10431 5.41508 0
M  V30 20701 H 3628.79 -4.78816 3.28024 0
M  V30 20702 H 3629.07 -3.64957 6.05871 0
M  V30 20703 H 3630.06 -4.88748 5.21323 0
M  V30 20704 H 3628.23 -5.66789 7.0643 0
M  V30 20705 P 3630.1 -7.20834 5.23717 0
M  V30 20706 O 3630.32 -8.66104 5.38572 0
M  V30 20707 O 3630.89 -6.33544 6.1349 0
M  V30 20708 O 3630.35 -6.7751 3.72168 0
M  V30 20709 C 3629.41 -7.20825 2.7076 0
M  V30 20710 C 3630.14 -7.45864 1.40599 0
M  V30 20711 O 3630.35 -6.17651 0.734225 0
M  V30 20712 C 3631.54 -8.05808 1.51899 0
M  V30 20713 O 3631.93 -8.74358 0.335205 0
M  V30 20714 C 3632.42 -6.83093 1.70294 0
M  V30 20715 C 3631.71 -5.79992 0.836974 0
M  V30 20716 N 3631.76 -4.41864 1.38293 0
M  V30 20717 H 3628.92 -8.13644 3.0377 0
M  V30 20718 H 3628.65 -6.42788 2.55485 0
M  V30 20719 H 3629.52 -8.12039 0.792769 0
M  V30 20720 P 3633.48 -8.91 1.37141e-10 0
M  V30 20721 O 3633.7 -10.1726 -0.733694 0
M  V30 20722 O 3634.27 -8.73148 1.23936 0
M  V30 20723 O 3633.73 -7.66872 -0.971405 0
M  V30 20724 C 3632.79 -7.42309 -2.04641 0
M  V30 20725 C 3633.52 -6.86059 -3.24661 0
M  V30 20726 O 3633.73 -5.42847 -3.03646 0
M  V30 20727 C 3634.92 -7.41196 -3.50753 0
M  V30 20728 O 3635.31 -7.27073 -4.86816 0
M  V30 20729 C 3635.8 -6.5273 -2.63741 0
M  V30 20730 C 3635.09 -5.1842 -2.73198 0
M  V30 20731 N 3635.14 -4.38762 -1.4784 0
M  V30 20732 H 3632.3 -8.36803 -2.32493 0
M  V30 20733 H 3632.03 -6.70197 -1.71129 0
M  V30 20734 H 3632.9 -7.03551 -4.13168 0
M  V30 20735 P 3636.86 -7.20834 -5.23717 0
M  V30 20736 O 3637.08 -7.79853 -6.57286 0
M  V30 20737 O 3637.65 -7.79239 -4.12957 0
M  V30 20738 O 3637.11 -5.63315 -5.29344 0
M  V30 20739 C 3636.17 -4.80255 -6.01876 0
M  V30 20740 C 3636.9 -3.64202 -6.65911 0
M  V30 20741 O 3637.11 -2.60694 -5.64732 0
M  V30 20742 C 3638.3 -3.93473 -7.1943 0
M  V30 20743 O 3638.69 -3.02071 -8.21205 0
M  V30 20744 C 3639.18 -3.73047 -5.97036 0
M  V30 20745 C 3638.47 -2.58828 -5.25741 0
M  V30 20746 N 3638.52 -2.68068 -3.77503 0
M  V30 20747 C 3638.44 -3.79715 -2.96723 0
M  V30 20748 N 3638.52 -3.5377 -1.68852 0
M  V30 20749 C 3638.66 -2.15054 -1.63254 0
M  V30 20750 C 3638.79 -1.28964 -0.518571 0
M  V30 20751 O 3638.81 -1.56826 0.679156 0
M  V30 20752 N 3638.91 0.0538097 -0.918425 0
M  V30 20753 C 3638.91 0.494275 -2.22578 0
M  V30 20754 N 3639.04 1.81086 -2.40434 0
M  V30 20755 N 3638.78 -0.313645 -3.27502 0
M  V30 20756 C 3638.66 -1.61829 -2.91033 0
M  V30 20757 H 3635.68 -5.40332 -6.79951 0
M  V30 20758 H 3635.41 -4.41613 -5.32378 0
M  V30 20759 H 3636.28 -3.26331 -7.47797 0
M  V30 20760 H 3638.93 -1.63422 -5.56814 0
M  V30 20761 H 3639.21 -4.63374 -5.34244 0
M  V30 20762 H 3640.2 -3.44728 -6.25838 0
M  V30 20763 H 3638.37 -4.96652 -7.57263 0
M  V30 20764 H 3638.32 -4.80617 -3.3614 0
M  V30 20765 H 3639 0.742702 -0.199384 0
M  V30 20766 H 3639.04 2.20598 -3.35588 0
M  V30 20767 H 3639.14 2.43518 -1.58945 0
M  V30 20768 P 3640.24 -2.75334 -8.47391 0
M  V30 20769 O 3640.46 -2.44571 -9.90142 0
M  V30 20770 O 3641.03 -3.87688 -7.92115 0
M  V30 20771 O 3640.49 -1.4459 -7.59357 0
M  V30 20772 C 3639.55 -0.347608 -7.69215 0
M  V30 20773 C 3640.28 0.96767 -7.52806 0
M  V30 20774 O 3640.49 1.21036 -6.1011 0
M  V30 20775 C 3641.68 1.04544 -8.13308 0
M  V30 20776 O 3642.07 2.38311 -8.41922 0
M  V30 20777 C 3642.56 0.491279 -7.02284 0
M  V30 20778 C 3641.85 0.996264 -5.77469 0
M  V30 20779 N 3641.9 0.0501916 -4.62973 0
M  V30 20780 H 3639.06 -0.374722 -8.67691 0
M  V30 20781 H 3638.79 -0.443485 -6.90277 0
M  V30 20782 H 3639.66 1.75537 -7.96793 0
M  V30 20783 P 3643.62 2.75334 -8.47391 0
M  V30 20784 O 3643.84 3.84128 -9.44797 0
M  V30 20785 O 3644.41 1.51947 -8.68712 0
M  V30 20786 O 3643.87 3.29363 -6.99321 0
M  V30 20787 C 3642.93 4.24011 -6.4274 0
M  V30 20788 C 3643.66 5.20775 -5.52155 0
M  V30 20789 O 3643.87 4.56534 -4.22446 0
M  V30 20790 C 3645.06 5.62629 -5.96531 0
M  V30 20791 O 3645.45 6.87667 -5.41053 0
M  V30 20792 C 3645.94 4.52537 -5.39283 0
M  V30 20793 C 3645.23 4.20027 -4.08623 0
M  V30 20794 N 3645.28 2.76189 -3.71603 0
M  V30 20795 H 3642.44 4.797 -7.24003 0
M  V30 20796 H 3642.17 3.69856 -5.84513 0
M  V30 20797 H 3643.04 6.10356 -5.41441 0
M  V30 20798 P 3647 7.20834 -5.23717 0
M  V30 20799 O 3647.22 8.66189 -5.38625 0
M  V30 20800 O 3647.79 6.33615 -6.1356 0
M  V30 20801 O 3647.25 6.7751 -3.72168 0
M  V30 20802 C 3646.31 7.20732 -2.70725 0
M  V30 20803 C 3647.04 7.45864 -1.40599 0
M  V30 20804 O 3647.25 6.17651 -0.734225 0
M  V30 20805 C 3648.44 8.05808 -1.51899 0
M  V30 20806 O 3648.83 8.74358 -0.335205 0
M  V30 20807 C 3649.32 6.83093 -1.70294 0
M  V30 20808 C 3648.61 5.79992 -0.836974 0
M  V30 20809 N 3648.66 4.41769 -1.38263 0
M  V30 20810 C 3648.81 3.38591 -0.481702 0
M  V30 20811 O 3648.9 3.56839 0.718452 0
M  V30 20812 N 3648.85 2.1206 -1.03569 0
M  V30 20813 C 3648.76 1.80696 -2.36966 0
M  V30 20814 O 3648.81 0.630473 -2.74862 0
M  V30 20815 C 3648.61 2.94845 -3.23898 0
M  V30 20816 C 3648.5 2.65253 -4.70362 0
M  V30 20817 C 3648.56 4.19803 -2.73435 0
M  V30 20818 H 3645.82 8.13644 -3.0377 0
M  V30 20819 H 3645.55 6.42695 -2.55448 0
M  V30 20820 H 3646.42 8.12039 -0.792769 0
M  V30 20821 H 3649.07 5.79978 0.160587 0
M  V30 20822 H 3649.35 6.51379 -2.75643 0
M  V30 20823 H 3650.34 7.01734 -1.34462 0
M  V30 20824 H 3648.51 8.73674 -2.38337 0
M  V30 20825 H 3648.44 5.04492 -3.4095 0
M  V30 20826 H 3649.47 2.83924 -5.1913 0
M  V30 20827 H 3647.73 3.29824 -5.15163 0
M  V30 20828 H 3648.22 1.59723 -4.84449 0
M  V30 20829 H 3648.95 1.35644 -0.399345 0
M  V30 20830 P 3650.38 8.91 -1.3825e-10 0
M  V30 20831 O 3650.6 10.1726 0.733694 0
M  V30 20832 O 3651.17 8.73148 -1.23936 0
M  V30 20833 O 3650.63 7.66872 0.971405 0
M  V30 20834 C 3649.69 7.42309 2.04641 0
M  V30 20835 C 3650.42 6.86059 3.24661 0
M  V30 20836 O 3650.63 5.42847 3.03646 0
M  V30 20837 C 3651.82 7.41196 3.50753 0
M  V30 20838 O 3652.21 7.27073 4.86816 0
M  V30 20839 C 3652.7 6.5273 2.63741 0
M  V30 20840 C 3651.99 5.1842 2.73198 0
M  V30 20841 N 3652.04 4.38762 1.4784 0
M  V30 20842 H 3649.2 8.36803 2.32493 0
M  V30 20843 H 3648.93 6.70197 1.71129 0
M  V30 20844 H 3649.8 7.03551 4.13168 0
M  V30 20845 P 3653.76 7.20834 5.23717 0
M  V30 20846 O 3653.98 7.79853 6.57286 0
M  V30 20847 O 3654.55 7.79239 4.12957 0
M  V30 20848 O 3654.01 5.63315 5.29344 0
M  V30 20849 C 3653.07 4.80255 6.01876 0
M  V30 20850 C 3653.8 3.64202 6.65911 0
M  V30 20851 O 3654.01 2.60694 5.64732 0
M  V30 20852 C 3655.2 3.93473 7.1943 0
M  V30 20853 O 3655.59 3.02071 8.21205 0
M  V30 20854 C 3656.08 3.73047 5.97036 0
M  V30 20855 C 3655.37 2.58828 5.25741 0
M  V30 20856 N 3655.42 2.68068 3.77503 0
M  V30 20857 H 3652.58 5.40332 6.79951 0
M  V30 20858 H 3652.31 4.41613 5.32378 0
M  V30 20859 H 3653.18 3.26331 7.47797 0
M  V30 20860 P 3657.14 2.75334 8.47391 0
M  V30 20861 O 3657.36 2.44571 9.90142 0
M  V30 20862 O 3657.93 3.87688 7.92115 0
M  V30 20863 O 3657.39 1.4459 7.59357 0
M  V30 20864 C 3656.45 0.347608 7.69215 0
M  V30 20865 C 3657.18 -0.96767 7.52806 0
M  V30 20866 O 3657.39 -1.21036 6.1011 0
M  V30 20867 C 3658.58 -1.04544 8.13308 0
M  V30 20868 O 3658.97 -2.38311 8.41922 0
M  V30 20869 C 3659.46 -0.491279 7.02284 0
M  V30 20870 C 3658.75 -0.996264 5.77469 0
M  V30 20871 N 3658.8 -0.0501916 4.62973 0
M  V30 20872 H 3655.96 0.374722 8.67691 0
M  V30 20873 H 3655.69 0.443485 6.90277 0
M  V30 20874 H 3656.56 -1.75537 7.96793 0
M  V30 20875 P 3660.52 -2.75334 8.47391 0
M  V30 20876 O 3660.74 -3.84128 9.44797 0
M  V30 20877 O 3661.31 -1.51947 8.68712 0
M  V30 20878 O 3660.77 -3.29363 6.99321 0
M  V30 20879 C 3659.83 -4.24011 6.4274 0
M  V30 20880 C 3660.56 -5.20775 5.52155 0
M  V30 20881 O 3660.77 -4.56534 4.22446 0
M  V30 20882 C 3661.96 -5.62629 5.96531 0
M  V30 20883 O 3662.35 -6.87667 5.41053 0
M  V30 20884 C 3662.84 -4.52537 5.39283 0
M  V30 20885 C 3662.13 -4.20027 4.08623 0
M  V30 20886 N 3662.18 -2.76189 3.71603 0
M  V30 20887 H 3659.34 -4.797 7.24003 0
M  V30 20888 H 3659.07 -3.69856 5.84513 0
M  V30 20889 H 3659.94 -6.10356 5.41441 0
M  V30 20890 P 3663.9 -7.20834 5.23717 0
M  V30 20891 O 3664.12 -8.66104 5.38572 0
M  V30 20892 O 3664.69 -6.33544 6.1349 0
M  V30 20893 O 3664.15 -6.7751 3.72168 0
M  V30 20894 C 3663.21 -7.20825 2.7076 0
M  V30 20895 C 3663.94 -7.45864 1.40599 0
M  V30 20896 O 3664.15 -6.17651 0.734225 0
M  V30 20897 C 3665.34 -8.05808 1.51899 0
M  V30 20898 O 3665.73 -8.74358 0.335205 0
M  V30 20899 C 3666.22 -6.83093 1.70294 0
M  V30 20900 C 3665.51 -5.79992 0.836974 0
M  V30 20901 N 3665.56 -4.41864 1.38293 0
M  V30 20902 H 3662.72 -8.13644 3.0377 0
M  V30 20903 H 3662.45 -6.42788 2.55485 0
M  V30 20904 H 3663.32 -8.12039 0.792769 0
M  V30 20905 P 3667.28 -8.91 1.39359e-10 0
M  V30 20906 O 3667.5 -10.1736 -0.733766 0
M  V30 20907 O 3668.07 -8.73247 1.2395 0
M  V30 20908 O 3667.53 -7.66872 -0.971405 0
M  V30 20909 C 3666.59 -7.42212 -2.04614 0
M  V30 20910 C 3667.32 -6.86059 -3.24661 0
M  V30 20911 O 3667.53 -5.42847 -3.03646 0
M  V30 20912 C 3668.72 -7.41196 -3.50753 0
M  V30 20913 O 3669.11 -7.27073 -4.86816 0
M  V30 20914 C 3669.6 -6.5273 -2.63741 0
M  V30 20915 C 3668.89 -5.1842 -2.73198 0
M  V30 20916 N 3668.94 -4.38668 -1.47808 0
M  V30 20917 C 3669.09 -3.02239 -1.60048 0
M  V30 20918 O 3669.18 -2.46459 -2.67869 0
M  V30 20919 N 3669.13 -2.32436 -0.408571 0
M  V30 20920 C 3669.04 -2.85471 0.854993 0
M  V30 20921 C 3668.89 -4.28918 0.887335 0
M  V30 20922 C 3668.84 -5.00349 -0.255399 0
M  V30 20923 H 3666.1 -8.36803 -2.32493 0
M  V30 20924 H 3665.83 -6.701 -1.71105 0
M  V30 20925 H 3666.7 -7.03551 -4.13168 0
M  V30 20926 H 3669.35 -4.59773 -3.53894 0
M  V30 20927 H 3669.63 -6.88995 -1.59871 0
M  V30 20928 H 3670.62 -6.46749 -3.03687 0
M  V30 20929 H 3668.79 -8.46908 -3.20714 0
M  V30 20930 H 3668.72 -6.08548 -0.206986 0
M  V30 20931 P 3670.66 -7.20834 -5.23717 0
M  V30 20932 O 3670.88 -7.79853 -6.57286 0
M  V30 20933 O 3671.45 -7.79239 -4.12957 0
M  V30 20934 O 3670.91 -5.63315 -5.29344 0
M  V30 20935 C 3669.97 -4.80255 -6.01876 0
M  V30 20936 C 3670.7 -3.64202 -6.65911 0
M  V30 20937 O 3670.91 -2.60694 -5.64732 0
M  V30 20938 C 3672.1 -3.93473 -7.1943 0
M  V30 20939 O 3672.49 -3.02071 -8.21205 0
M  V30 20940 C 3672.98 -3.73047 -5.97036 0
M  V30 20941 C 3672.27 -2.58828 -5.25741 0
M  V30 20942 N 3672.32 -2.68068 -3.77503 0
M  V30 20943 H 3669.48 -5.40332 -6.79951 0
M  V30 20944 H 3669.21 -4.41613 -5.32378 0
M  V30 20945 H 3670.08 -3.26331 -7.47797 0
M  V30 20946 P 3674.04 -2.75334 -8.47391 0
M  V30 20947 O 3674.26 -2.44571 -9.90142 0
M  V30 20948 O 3674.83 -3.87688 -7.92115 0
M  V30 20949 O 3674.29 -1.4459 -7.59357 0
M  V30 20950 C 3673.35 -0.347608 -7.69215 0
M  V30 20951 C 3674.08 0.96767 -7.52806 0
M  V30 20952 O 3674.29 1.21036 -6.1011 0
M  V30 20953 C 3675.48 1.04544 -8.13308 0
M  V30 20954 O 3675.87 2.38311 -8.41922 0
M  V30 20955 C 3676.36 0.491279 -7.02284 0
M  V30 20956 C 3675.65 0.996264 -5.77469 0
M  V30 20957 N 3675.7 0.0501916 -4.62973 0
M  V30 20958 H 3672.86 -0.374722 -8.67691 0
M  V30 20959 H 3672.59 -0.443485 -6.90277 0
M  V30 20960 H 3673.46 1.75537 -7.96793 0
M  V30 20961 P 3677.42 2.75334 -8.47391 0
M  V30 20962 O 3677.64 3.84128 -9.44797 0
M  V30 20963 O 3678.21 1.51947 -8.68712 0
M  V30 20964 O 3677.67 3.29363 -6.99321 0
M  V30 20965 C 3676.73 4.24011 -6.4274 0
M  V30 20966 C 3677.46 5.20775 -5.52155 0
M  V30 20967 O 3677.67 4.56534 -4.22446 0
M  V30 20968 C 3678.86 5.62629 -5.96531 0
M  V30 20969 O 3679.25 6.87667 -5.41053 0
M  V30 20970 C 3679.74 4.52537 -5.39283 0
M  V30 20971 C 3679.03 4.20027 -4.08623 0
M  V30 20972 N 3679.08 2.76189 -3.71603 0
M  V30 20973 H 3676.24 4.797 -7.24003 0
M  V30 20974 H 3675.97 3.69856 -5.84513 0
M  V30 20975 H 3676.84 6.10356 -5.41441 0
M  V30 20976 P 3680.8 7.20834 -5.23717 0
M  V30 20977 O 3681.02 8.66104 -5.38572 0
M  V30 20978 O 3681.59 6.33544 -6.1349 0
M  V30 20979 O 3681.05 6.7751 -3.72168 0
M  V30 20980 C 3680.11 7.20825 -2.7076 0
M  V30 20981 C 3680.84 7.45864 -1.40599 0
M  V30 20982 O 3681.05 6.17651 -0.734225 0
M  V30 20983 C 3682.24 8.05808 -1.51899 0
M  V30 20984 O 3682.63 8.74358 -0.335205 0
M  V30 20985 C 3683.12 6.83093 -1.70294 0
M  V30 20986 C 3682.41 5.79992 -0.836974 0
M  V30 20987 N 3682.46 4.41864 -1.38293 0
M  V30 20988 H 3679.62 8.13644 -3.0377 0
M  V30 20989 H 3679.35 6.42788 -2.55485 0
M  V30 20990 H 3680.22 8.12039 -0.792769 0
M  V30 20991 P 3684.18 8.91 -1.40468e-10 0
M  V30 20992 O 3684.4 10.1726 0.733694 0
M  V30 20993 O 3684.97 8.73148 -1.23936 0
M  V30 20994 O 3684.43 7.66872 0.971405 0
M  V30 20995 C 3683.49 7.42309 2.04641 0
M  V30 20996 C 3684.22 6.86059 3.24661 0
M  V30 20997 O 3684.43 5.42847 3.03646 0
M  V30 20998 C 3685.62 7.41196 3.50753 0
M  V30 20999 O 3686.01 7.27073 4.86816 0
M  V30 21000 C 3686.5 6.5273 2.63741 0
M  V30 21001 C 3685.79 5.1842 2.73198 0
M  V30 21002 N 3685.84 4.38762 1.4784 0
M  V30 21003 H 3683 8.36803 2.32493 0
M  V30 21004 H 3682.73 6.70197 1.71129 0
M  V30 21005 H 3683.6 7.03551 4.13168 0
M  V30 21006 P 3687.56 7.20834 5.23717 0
M  V30 21007 O 3687.78 7.79853 6.57286 0
M  V30 21008 O 3688.35 7.79239 4.12957 0
M  V30 21009 O 3687.81 5.63315 5.29344 0
M  V30 21010 C 3686.87 4.80255 6.01876 0
M  V30 21011 C 3687.6 3.64202 6.65911 0
M  V30 21012 O 3687.81 2.60694 5.64732 0
M  V30 21013 C 3689 3.93473 7.1943 0
M  V30 21014 O 3689.39 3.02071 8.21205 0
M  V30 21015 C 3689.88 3.73047 5.97036 0
M  V30 21016 C 3689.17 2.58828 5.25741 0
M  V30 21017 N 3689.22 2.68068 3.77503 0
M  V30 21018 H 3686.38 5.40332 6.79951 0
M  V30 21019 H 3686.11 4.41613 5.32378 0
M  V30 21020 H 3686.98 3.26331 7.47797 0
M  V30 21021 P 3690.94 2.75334 8.47391 0
M  V30 21022 O 3691.16 2.44571 9.90142 0
M  V30 21023 O 3691.73 3.87688 7.92115 0
M  V30 21024 O 3691.19 1.4459 7.59357 0
M  V30 21025 C 3690.25 0.347608 7.69215 0
M  V30 21026 C 3690.98 -0.96767 7.52806 0
M  V30 21027 O 3691.19 -1.21036 6.1011 0
M  V30 21028 C 3692.38 -1.04544 8.13308 0
M  V30 21029 O 3692.77 -2.38311 8.41922 0
M  V30 21030 C 3693.26 -0.491279 7.02284 0
M  V30 21031 C 3692.55 -0.996264 5.77469 0
M  V30 21032 N 3692.6 -0.0501916 4.62973 0
M  V30 21033 H 3689.76 0.374722 8.67691 0
M  V30 21034 H 3689.49 0.443485 6.90277 0
M  V30 21035 H 3690.36 -1.75537 7.96793 0
M  V30 21036 P 3694.32 -2.75334 8.47391 0
M  V30 21037 O 3694.54 -3.84166 9.4489 0
M  V30 21038 O 3695.11 -1.51964 8.6881 0
M  V30 21039 O 3694.57 -3.29363 6.99321 0
M  V30 21040 C 3693.63 -4.23956 6.42656 0
M  V30 21041 C 3694.36 -5.20775 5.52155 0
M  V30 21042 O 3694.57 -4.56534 4.22446 0
M  V30 21043 C 3695.76 -5.62629 5.96531 0
M  V30 21044 O 3696.15 -6.87667 5.41053 0
M  V30 21045 C 3696.64 -4.52537 5.39283 0
M  V30 21046 C 3695.93 -4.20027 4.08623 0
M  V30 21047 N 3695.98 -2.7613 3.71522 0
M  V30 21048 C 3696.13 -2.45612 2.37989 0
M  V30 21049 O 3696.22 -3.30919 1.51621 0
M  V30 21050 N 3696.17 -1.10684 2.08435 0
M  V30 21051 C 3696.08 -0.0690084 2.9792 0
M  V30 21052 O 3696.13 1.10553 2.59426 0
M  V30 21053 C 3695.93 -0.481522 4.35345 0
M  V30 21054 C 3695.82 0.618778 5.36443 0
M  V30 21055 C 3695.88 -1.78906 4.67968 0
M  V30 21056 H 3693.14 -4.797 7.24003 0
M  V30 21057 H 3692.87 -3.69802 5.84429 0
M  V30 21058 H 3693.74 -6.10356 5.41441 0
M  V30 21059 H 3696.39 -4.78651 3.27911 0
M  V30 21060 H 3696.67 -3.64957 6.05871 0
M  V30 21061 H 3697.66 -4.8868 5.2125 0
M  V30 21062 H 3695.83 -5.66726 7.06352 0
M  V30 21063 H 3695.76 -2.07737 5.72367 0
M  V30 21064 H 3696.79 0.754375 5.86871 0
M  V30 21065 H 3695.05 0.359721 6.10641 0
M  V30 21066 H 3695.54 1.55533 4.8581 0
M  V30 21067 H 3696.27 -0.862651 1.12037 0
M  V30 21068 P 3697.7 -7.20834 5.23717 0
M  V30 21069 O 3697.92 -8.66104 5.38572 0
M  V30 21070 O 3698.49 -6.33544 6.1349 0
M  V30 21071 O 3697.95 -6.7751 3.72168 0
M  V30 21072 C 3697.01 -7.20825 2.7076 0
M  V30 21073 C 3697.74 -7.45864 1.40599 0
M  V30 21074 O 3697.95 -6.17651 0.734225 0
M  V30 21075 C 3699.14 -8.05808 1.51899 0
M  V30 21076 O 3699.53 -8.74358 0.335205 0
M  V30 21077 C 3700.02 -6.83093 1.70294 0
M  V30 21078 C 3699.31 -5.79992 0.836974 0
M  V30 21079 N 3699.36 -4.41864 1.38293 0
M  V30 21080 H 3696.52 -8.13644 3.0377 0
M  V30 21081 H 3696.25 -6.42788 2.55485 0
M  V30 21082 H 3697.12 -8.12039 0.792769 0
M  V30 21083 P 3701.08 -8.91 1.41577e-10 0
M  V30 21084 O 3701.3 -10.1726 -0.733694 0
M  V30 21085 O 3701.87 -8.73148 1.23936 0
M  V30 21086 O 3701.33 -7.66872 -0.971405 0
M  V30 21087 C 3700.39 -7.42309 -2.04641 0
M  V30 21088 C 3701.12 -6.86059 -3.24661 0
M  V30 21089 O 3701.33 -5.42847 -3.03646 0
M  V30 21090 C 3702.52 -7.41196 -3.50753 0
M  V30 21091 O 3702.91 -7.27073 -4.86816 0
M  V30 21092 C 3703.4 -6.5273 -2.63741 0
M  V30 21093 C 3702.69 -5.1842 -2.73198 0
M  V30 21094 N 3702.74 -4.38762 -1.4784 0
M  V30 21095 H 3699.9 -8.36803 -2.32493 0
M  V30 21096 H 3699.63 -6.70197 -1.71129 0
M  V30 21097 H 3700.5 -7.03551 -4.13168 0
M  V30 21098 P 3704.46 -7.20834 -5.23717 0
M  V30 21099 O 3704.68 -7.7993 -6.57351 0
M  V30 21100 O 3705.25 -7.79328 -4.13004 0
M  V30 21101 O 3704.71 -5.63315 -5.29344 0
M  V30 21102 C 3703.77 -4.80193 -6.01798 0
M  V30 21103 C 3704.5 -3.64202 -6.65911 0
M  V30 21104 O 3704.71 -2.60694 -5.64732 0
M  V30 21105 C 3705.9 -3.93473 -7.1943 0
M  V30 21106 O 3706.29 -3.02071 -8.21205 0
M  V30 21107 C 3706.78 -3.73047 -5.97036 0
M  V30 21108 C 3706.07 -2.58828 -5.25741 0
M  V30 21109 N 3706.12 -2.6801 -3.77422 0
M  V30 21110 C 3706.27 -1.50443 -3.07133 0
M  V30 21111 O 3706.36 -0.419406 -3.61576 0
M  V30 21112 N 3706.31 -1.6403 -1.69677 0
M  V30 21113 C 3706.22 -2.81206 -0.986255 0
M  V30 21114 O 3706.27 -2.80892 0.249754 0
M  V30 21115 C 3706.07 -3.99158 -1.80325 0
M  V30 21116 C 3705.96 -5.29309 -1.06921 0
M  V30 21117 C 3706.02 -3.89779 -3.1476 0
M  V30 21118 H 3703.28 -5.40332 -6.79951 0
M  V30 21119 H 3703.01 -4.41549 -5.32301 0
M  V30 21120 H 3703.88 -3.26331 -7.47797 0
M  V30 21121 H 3706.53 -1.6395 -5.56554 0
M  V30 21122 H 3706.81 -4.63439 -5.3432 0
M  V30 21123 H 3707.8 -3.44728 -6.25838 0
M  V30 21124 H 3705.97 -4.96652 -7.57263 0
M  V30 21125 H 3705.9 -4.80159 -3.74441 0
M  V30 21126 H 3706.93 -5.81459 -1.09608 0
M  V30 21127 H 3705.19 -5.9187 -1.54487 0
M  V30 21128 H 3705.68 -5.10095 -0.0220288 0
M  V30 21129 H 3706.41 -0.798962 -1.16664 0
M  V30 21130 P 3707.84 -2.75334 -8.47391 0
M  V30 21131 O 3708.06 -2.44595 -9.90239 0
M  V30 21132 O 3708.63 -3.87732 -7.92204 0
M  V30 21133 O 3708.09 -1.4459 -7.59357 0
M  V30 21134 C 3707.15 -0.347608 -7.69215 0
M  V30 21135 C 3707.88 0.96767 -7.52806 0
M  V30 21136 O 3708.09 1.21036 -6.1011 0
M  V30 21137 C 3709.28 1.04544 -8.13308 0
M  V30 21138 O 3709.67 2.38311 -8.41922 0
M  V30 21139 C 3710.16 0.491279 -7.02284 0
M  V30 21140 C 3709.45 0.996264 -5.77469 0
M  V30 21141 N 3709.5 0.0501808 -4.62873 0
M  V30 21142 C 3709.65 0.578037 -3.3505 0
M  V30 21143 O 3709.74 1.8073 -3.21711 0
M  V30 21144 N 3709.7 -0.468541 -2.263 0
M  V30 21145 C 3709.6 -1.59186 -2.47176 0
M  V30 21146 N 3709.65 -2.37626 -1.40392 0
M  V30 21147 C 3709.45 -2.16203 -3.77467 0
M  V30 21148 C 3709.4 -1.29324 -4.8195 0
M  V30 21149 H 3706.66 -0.374679 -8.67591 0
M  V30 21150 H 3706.39 -0.443421 -6.90177 0
M  V30 21151 H 3707.26 1.75559 -7.96891 0
M  V30 21152 H 3709.91 1.94529 -5.46723 0
M  V30 21153 H 3710.19 -0.608651 -7.04676 0
M  V30 21154 H 3711.18 0.889672 -7.08939 0
M  V30 21155 H 3709.35 0.43308 -9.04564 0
M  V30 21156 H 3709.28 -1.67758 -5.83046 0
M  V30 21157 H 3709.38 -3.23869 -3.92281 0
M  V30 21158 H 3709.77 -1.96317 -0.467202 0
M  V30 21159 H 3709.57 -3.39693 -1.51142 0
M  V30 21160 P 3711.22 2.75334 -8.47391 0
M  V30 21161 O 3711.44 3.84128 -9.44797 0
M  V30 21162 O 3712.01 1.51947 -8.68712 0
M  V30 21163 O 3711.47 3.29363 -6.99321 0
M  V30 21164 C 3710.53 4.24011 -6.4274 0
M  V30 21165 C 3711.26 5.20775 -5.52155 0
M  V30 21166 O 3711.47 4.56534 -4.22446 0
M  V30 21167 C 3712.66 5.62629 -5.96531 0
M  V30 21168 O 3713.05 6.87667 -5.41053 0
M  V30 21169 C 3713.54 4.52537 -5.39283 0
M  V30 21170 C 3712.83 4.20027 -4.08623 0
M  V30 21171 N 3712.88 2.76189 -3.71603 0
M  V30 21172 H 3710.04 4.797 -7.24003 0
M  V30 21173 H 3709.77 3.69856 -5.84513 0
M  V30 21174 H 3710.64 6.10356 -5.41441 0
M  V30 21175 P 3714.6 7.20834 -5.23717 0
M  V30 21176 O 3714.82 8.66104 -5.38572 0
M  V30 21177 O 3715.39 6.33544 -6.1349 0
M  V30 21178 O 3714.85 6.7751 -3.72168 0
M  V30 21179 C 3713.91 7.20825 -2.7076 0
M  V30 21180 C 3714.64 7.45864 -1.40599 0
M  V30 21181 O 3714.85 6.17651 -0.734225 0
M  V30 21182 C 3716.04 8.05808 -1.51899 0
M  V30 21183 O 3716.43 8.74358 -0.335205 0
M  V30 21184 C 3716.92 6.83093 -1.70294 0
M  V30 21185 C 3716.21 5.79992 -0.836974 0
M  V30 21186 N 3716.26 4.41864 -1.38293 0
M  V30 21187 H 3713.42 8.13644 -3.0377 0
M  V30 21188 H 3713.15 6.42788 -2.55485 0
M  V30 21189 H 3714.02 8.12039 -0.792769 0
M  V30 21190 P 3717.98 8.91 -1.42686e-10 0
M  V30 21191 O 3718.2 10.1746 0.733838 0
M  V30 21192 O 3718.77 8.73346 -1.23964 0
M  V30 21193 O 3718.23 7.66872 0.971405 0
M  V30 21194 C 3717.29 7.42405 2.04668 0
M  V30 21195 C 3718.02 6.86059 3.24661 0
M  V30 21196 O 3718.23 5.42934 3.03695 0
M  V30 21197 C 3719.42 7.41287 3.50796 0
M  V30 21198 O 3719.81 7.27073 4.86816 0
M  V30 21199 C 3720.3 6.5273 2.63741 0
M  V30 21200 C 3719.59 5.1842 2.73198 0
M  V30 21201 N 3719.64 4.38762 1.4784 0
M  V30 21202 H 3716.8 8.36899 2.3252 0
M  V30 21203 H 3716.53 6.70391 1.71179 0
M  V30 21204 H 3717.4 7.03638 4.13219 0
M  V30 21205 H 3720.05 4.59931 3.54016 0
M  V30 21206 H 3720.33 6.88995 1.59871 0
M  V30 21207 H 3721.32 6.4684 3.0373 0
M  V30 21208 H 3719.49 8.47002 3.20749 0
M  V30 21209 P 3721.36 7.20834 5.23717 0
M  V30 21210 O 3721.58 7.79853 6.57286 0
M  V30 21211 O 3722.15 7.79239 4.12957 0
M  V30 21212 O 3721.61 5.63315 5.29344 0
M  V30 21213 C 3720.67 4.80255 6.01876 0
M  V30 21214 C 3721.4 3.64202 6.65911 0
M  V30 21215 O 3721.61 2.60694 5.64732 0
M  V30 21216 C 3722.8 3.93473 7.1943 0
M  V30 21217 O 3723.19 3.02071 8.21205 0
M  V30 21218 C 3723.68 3.73047 5.97036 0
M  V30 21219 C 3722.97 2.58828 5.25741 0
M  V30 21220 N 3723.02 2.68068 3.77503 0
M  V30 21221 H 3720.18 5.40332 6.79951 0
M  V30 21222 H 3719.91 4.41613 5.32378 0
M  V30 21223 H 3720.78 3.26331 7.47797 0
M  V30 21224 P 3724.74 2.75334 8.47391 0
M  V30 21225 O 3724.96 2.44619 9.90336 0
M  V30 21226 O 3725.53 3.87776 7.92294 0
M  V30 21227 O 3724.99 1.4459 7.59357 0
M  V30 21228 C 3724.05 0.347653 7.69315 0
M  V30 21229 C 3724.78 -0.96767 7.52806 0
M  V30 21230 O 3724.99 -1.21055 6.10208 0
M  V30 21231 C 3726.18 -1.04557 8.13408 0
M  V30 21232 O 3726.57 -2.38311 8.41922 0
M  V30 21233 C 3727.06 -0.491279 7.02284 0
M  V30 21234 C 3726.35 -0.996264 5.77469 0
M  V30 21235 N 3726.4 -0.0501916 4.62973 0
M  V30 21236 C 3726.32 1.31969 4.65661 0
M  V30 21237 N 3726.39 1.86649 3.48119 0
M  V30 21238 C 3726.54 0.792089 2.62406 0
M  V30 21239 C 3726.67 0.705684 1.2207 0
M  V30 21240 N 3726.68 1.76207 0.413762 0
M  V30 21241 N 3726.79 -0.518981 0.685754 0
M  V30 21242 C 3726.78 -1.57595 1.49174 0
M  V30 21243 N 3726.66 -1.62909 2.80066 0
M  V30 21244 C 3726.54 -0.388195 3.3073 0
M  V30 21245 H 3723.56 0.374765 8.67791 0
M  V30 21246 H 3723.29 0.443613 6.90476 0
M  V30 21247 H 3724.16 -1.75559 7.96891 0
M  V30 21248 H 3726.81 -1.94563 5.46818 0
M  V30 21249 H 3727.09 0.608651 7.04676 0
M  V30 21250 H 3728.08 -0.889796 7.09039 0
M  V30 21251 H 3726.25 -0.433128 9.04664 0
M  V30 21252 H 3726.21 1.89246 5.57664 0
M  V30 21253 H 3726.59 2.71005 0.804694 0
M  V30 21254 H 3726.78 1.63189 -0.603768 0
M  V30 21255 H 3726.88 -2.53475 0.997614 0
M  V30 21256 P 3728.12 -2.75334 8.47391 0
M  V30 21257 O 3728.34 -3.84128 9.44797 0
M  V30 21258 O 3728.91 -1.51947 8.68712 0
M  V30 21259 O 3728.37 -3.29363 6.99321 0
M  V30 21260 C 3727.43 -4.24011 6.4274 0
M  V30 21261 C 3728.16 -5.20775 5.52155 0
M  V30 21262 O 3728.37 -4.56534 4.22446 0
M  V30 21263 C 3729.56 -5.62629 5.96531 0
M  V30 21264 O 3729.95 -6.87667 5.41053 0
M  V30 21265 C 3730.44 -4.52537 5.39283 0
M  V30 21266 C 3729.73 -4.20027 4.08623 0
M  V30 21267 N 3729.78 -2.76189 3.71603 0
M  V30 21268 H 3726.94 -4.797 7.24003 0
M  V30 21269 H 3726.67 -3.69856 5.84513 0
M  V30 21270 H 3727.54 -6.10356 5.41441 0
M  V30 21271 P 3731.5 -7.20834 5.23717 0
M  V30 21272 O 3731.72 -8.66104 5.38572 0
M  V30 21273 O 3732.29 -6.33544 6.1349 0
M  V30 21274 O 3731.75 -6.7751 3.72168 0
M  V30 21275 C 3730.81 -7.20825 2.7076 0
M  V30 21276 C 3731.54 -7.45864 1.40599 0
M  V30 21277 O 3731.75 -6.17651 0.734225 0
M  V30 21278 C 3732.94 -8.05808 1.51899 0
M  V30 21279 O 3733.33 -8.74358 0.335205 0
M  V30 21280 C 3733.82 -6.83093 1.70294 0
M  V30 21281 C 3733.11 -5.79992 0.836974 0
M  V30 21282 N 3733.16 -4.41864 1.38293 0
M  V30 21283 H 3730.32 -8.13644 3.0377 0
M  V30 21284 H 3730.05 -6.42788 2.55485 0
M  V30 21285 H 3730.92 -8.12039 0.792769 0
M  V30 21286 P 3734.88 -8.91 1.43795e-10 0
M  V30 21287 O 3735.1 -10.1726 -0.733694 0
M  V30 21288 O 3735.67 -8.73148 1.23936 0
M  V30 21289 O 3735.13 -7.66872 -0.971405 0
M  V30 21290 C 3734.19 -7.42309 -2.04641 0
M  V30 21291 C 3734.92 -6.86059 -3.24661 0
M  V30 21292 O 3735.13 -5.42847 -3.03646 0
M  V30 21293 C 3736.32 -7.41196 -3.50753 0
M  V30 21294 O 3736.71 -7.27073 -4.86816 0
M  V30 21295 C 3737.2 -6.5273 -2.63741 0
M  V30 21296 C 3736.49 -5.1842 -2.73198 0
M  V30 21297 N 3736.54 -4.38762 -1.4784 0
M  V30 21298 H 3733.7 -8.36803 -2.32493 0
M  V30 21299 H 3733.43 -6.70197 -1.71129 0
M  V30 21300 H 3734.3 -7.03551 -4.13168 0
M  V30 21301 P 3738.26 -7.20834 -5.23717 0
M  V30 21302 O 3738.48 -7.7993 -6.57351 0
M  V30 21303 O 3739.05 -7.79328 -4.13004 0
M  V30 21304 O 3738.51 -5.63315 -5.29344 0
M  V30 21305 C 3737.57 -4.80193 -6.01798 0
M  V30 21306 C 3738.3 -3.64202 -6.65911 0
M  V30 21307 O 3738.51 -2.60694 -5.64732 0
M  V30 21308 C 3739.7 -3.93473 -7.1943 0
M  V30 21309 O 3740.09 -3.02071 -8.21205 0
M  V30 21310 C 3740.58 -3.73047 -5.97036 0
M  V30 21311 C 3739.87 -2.58828 -5.25741 0
M  V30 21312 N 3739.92 -2.6801 -3.77422 0
M  V30 21313 C 3740.07 -1.50443 -3.07133 0
M  V30 21314 O 3740.16 -0.419406 -3.61576 0
M  V30 21315 N 3740.11 -1.6403 -1.69677 0
M  V30 21316 C 3740.02 -2.81206 -0.986255 0
M  V30 21317 O 3740.07 -2.80892 0.249754 0
M  V30 21318 C 3739.87 -3.99158 -1.80325 0
M  V30 21319 C 3739.76 -5.29309 -1.06921 0
M  V30 21320 C 3739.82 -3.89779 -3.1476 0
M  V30 21321 H 3737.08 -5.40332 -6.79951 0
M  V30 21322 H 3736.81 -4.41549 -5.32301 0
M  V30 21323 H 3737.68 -3.26331 -7.47797 0
M  V30 21324 H 3740.33 -1.6395 -5.56554 0
M  V30 21325 H 3740.61 -4.63439 -5.3432 0
M  V30 21326 H 3741.6 -3.44728 -6.25838 0
M  V30 21327 H 3739.77 -4.96652 -7.57263 0
M  V30 21328 H 3739.7 -4.80159 -3.74441 0
M  V30 21329 H 3740.73 -5.81459 -1.09608 0
M  V30 21330 H 3738.99 -5.9187 -1.54487 0
M  V30 21331 H 3739.48 -5.10095 -0.0220288 0
M  V30 21332 H 3740.21 -0.798962 -1.16664 0
M  V30 21333 P 3741.64 -2.75334 -8.47391 0
M  V30 21334 O 3741.86 -2.44571 -9.90142 0
M  V30 21335 O 3742.43 -3.87688 -7.92115 0
M  V30 21336 O 3741.89 -1.4459 -7.59357 0
M  V30 21337 C 3740.95 -0.347608 -7.69215 0
M  V30 21338 C 3741.68 0.96767 -7.52806 0
M  V30 21339 O 3741.89 1.21036 -6.1011 0
M  V30 21340 C 3743.08 1.04544 -8.13308 0
M  V30 21341 O 3743.47 2.38311 -8.41922 0
M  V30 21342 C 3743.96 0.491279 -7.02284 0
M  V30 21343 C 3743.25 0.996264 -5.77469 0
M  V30 21344 N 3743.3 0.0501916 -4.62973 0
M  V30 21345 H 3740.46 -0.374722 -8.67691 0
M  V30 21346 H 3740.19 -0.443485 -6.90277 0
M  V30 21347 H 3741.06 1.75537 -7.96793 0
M  V30 21348 P 3745.02 2.75334 -8.47391 0
M  V30 21349 O 3745.24 3.84128 -9.44797 0
M  V30 21350 O 3745.81 1.51947 -8.68712 0
M  V30 21351 O 3745.27 3.29363 -6.99321 0
M  V30 21352 C 3744.33 4.24011 -6.4274 0
M  V30 21353 C 3745.06 5.20775 -5.52155 0
M  V30 21354 O 3745.27 4.56534 -4.22446 0
M  V30 21355 C 3746.46 5.62629 -5.96531 0
M  V30 21356 O 3746.85 6.87667 -5.41053 0
M  V30 21357 C 3747.34 4.52537 -5.39283 0
M  V30 21358 C 3746.63 4.20027 -4.08623 0
M  V30 21359 N 3746.68 2.76189 -3.71603 0
M  V30 21360 H 3743.84 4.797 -7.24003 0
M  V30 21361 H 3743.57 3.69856 -5.84513 0
M  V30 21362 H 3744.44 6.10356 -5.41441 0
M  V30 21363 P 3748.4 7.20834 -5.23717 0
M  V30 21364 O 3748.62 8.66104 -5.38572 0
M  V30 21365 O 3749.19 6.33544 -6.1349 0
M  V30 21366 O 3748.65 6.7751 -3.72168 0
M  V30 21367 C 3747.71 7.20825 -2.7076 0
M  V30 21368 C 3748.44 7.45864 -1.40599 0
M  V30 21369 O 3748.65 6.17651 -0.734225 0
M  V30 21370 C 3749.84 8.05808 -1.51899 0
M  V30 21371 O 3750.23 8.74358 -0.335205 0
M  V30 21372 C 3750.72 6.83093 -1.70294 0
M  V30 21373 C 3750.01 5.79992 -0.836974 0
M  V30 21374 N 3750.06 4.41864 -1.38293 0
M  V30 21375 H 3747.22 8.13644 -3.0377 0
M  V30 21376 H 3746.95 6.42788 -2.55485 0
M  V30 21377 H 3747.82 8.12039 -0.792769 0
M  V30 21378 P 3751.78 8.91 -1.44904e-10 0
M  V30 21379 O 3752 10.1746 0.733838 0
M  V30 21380 O 3752.57 8.73346 -1.23964 0
M  V30 21381 O 3752.03 7.66872 0.971405 0
M  V30 21382 C 3751.09 7.42405 2.04668 0
M  V30 21383 C 3751.82 6.86059 3.24661 0
M  V30 21384 O 3752.03 5.42934 3.03695 0
M  V30 21385 C 3753.22 7.41287 3.50796 0
M  V30 21386 O 3753.61 7.27073 4.86816 0
M  V30 21387 C 3754.1 6.5273 2.63741 0
M  V30 21388 C 3753.39 5.1842 2.73198 0
M  V30 21389 N 3753.44 4.38762 1.4784 0
M  V30 21390 H 3750.6 8.36899 2.3252 0
M  V30 21391 H 3750.33 6.70391 1.71179 0
M  V30 21392 H 3751.2 7.03638 4.13219 0
M  V30 21393 H 3753.85 4.59931 3.54016 0
M  V30 21394 H 3754.13 6.88995 1.59871 0
M  V30 21395 H 3755.12 6.4684 3.0373 0
M  V30 21396 H 3753.29 8.47002 3.20749 0
M  V30 21397 P 3755.16 7.20834 5.23717 0
M  V30 21398 O 3755.38 7.79853 6.57286 0
M  V30 21399 O 3755.95 7.79239 4.12957 0
M  V30 21400 O 3755.41 5.63315 5.29344 0
M  V30 21401 C 3754.47 4.80255 6.01876 0
M  V30 21402 C 3755.2 3.64202 6.65911 0
M  V30 21403 O 3755.41 2.60694 5.64732 0
M  V30 21404 C 3756.6 3.93473 7.1943 0
M  V30 21405 O 3756.99 3.02071 8.21205 0
M  V30 21406 C 3757.48 3.73047 5.97036 0
M  V30 21407 C 3756.77 2.58828 5.25741 0
M  V30 21408 N 3756.82 2.68068 3.77503 0
M  V30 21409 H 3753.98 5.40332 6.79951 0
M  V30 21410 H 3753.71 4.41613 5.32378 0
M  V30 21411 H 3754.58 3.26331 7.47797 0
M  V30 21412 P 3758.54 2.75334 8.47391 0
M  V30 21413 O 3758.76 2.44571 9.90142 0
M  V30 21414 O 3759.33 3.87688 7.92115 0
M  V30 21415 O 3758.79 1.4459 7.59357 0
M  V30 21416 C 3757.85 0.347608 7.69215 0
M  V30 21417 C 3758.58 -0.96767 7.52806 0
M  V30 21418 O 3758.79 -1.21036 6.1011 0
M  V30 21419 C 3759.98 -1.04544 8.13308 0
M  V30 21420 O 3760.37 -2.38311 8.41922 0
M  V30 21421 C 3760.86 -0.491279 7.02284 0
M  V30 21422 C 3760.15 -0.996264 5.77469 0
M  V30 21423 N 3760.2 -0.0501916 4.62973 0
M  V30 21424 H 3757.36 0.374722 8.67691 0
M  V30 21425 H 3757.09 0.443485 6.90277 0
M  V30 21426 H 3757.96 -1.75537 7.96793 0
M  V30 21427 P 3761.92 -2.75334 8.47391 0
M  V30 21428 O 3762.14 -3.84128 9.44797 0
M  V30 21429 O 3762.71 -1.51947 8.68712 0
M  V30 21430 O 3762.17 -3.29363 6.99321 0
M  V30 21431 C 3761.23 -4.24011 6.4274 0
M  V30 21432 C 3761.96 -5.20775 5.52155 0
M  V30 21433 O 3762.17 -4.56534 4.22446 0
M  V30 21434 C 3763.36 -5.62629 5.96531 0
M  V30 21435 O 3763.75 -6.87667 5.41053 0
M  V30 21436 C 3764.24 -4.52537 5.39283 0
M  V30 21437 C 3763.53 -4.20027 4.08623 0
M  V30 21438 N 3763.58 -2.76189 3.71603 0
M  V30 21439 H 3760.74 -4.797 7.24003 0
M  V30 21440 H 3760.47 -3.69856 5.84513 0
M  V30 21441 H 3761.34 -6.10356 5.41441 0
M  V30 21442 P 3765.3 -7.20834 5.23717 0
M  V30 21443 O 3765.52 -8.66104 5.38572 0
M  V30 21444 O 3766.09 -6.33544 6.1349 0
M  V30 21445 O 3765.55 -6.7751 3.72168 0
M  V30 21446 C 3764.61 -7.20825 2.7076 0
M  V30 21447 C 3765.34 -7.45864 1.40599 0
M  V30 21448 O 3765.55 -6.17651 0.734225 0
M  V30 21449 C 3766.74 -8.05808 1.51899 0
M  V30 21450 O 3767.13 -8.74358 0.335205 0
M  V30 21451 C 3767.62 -6.83093 1.70294 0
M  V30 21452 C 3766.91 -5.79992 0.836974 0
M  V30 21453 N 3766.96 -4.41864 1.38293 0
M  V30 21454 H 3764.12 -8.13644 3.0377 0
M  V30 21455 H 3763.85 -6.42788 2.55485 0
M  V30 21456 H 3764.72 -8.12039 0.792769 0
M  V30 21457 P 3768.68 -8.91 1.46013e-10 0
M  V30 21458 O 3768.9 -10.1726 -0.733694 0
M  V30 21459 O 3769.47 -8.73148 1.23936 0
M  V30 21460 O 3768.93 -7.66872 -0.971405 0
M  V30 21461 C 3767.99 -7.42309 -2.04641 0
M  V30 21462 C 3768.72 -6.86059 -3.24661 0
M  V30 21463 O 3768.93 -5.42847 -3.03646 0
M  V30 21464 C 3770.12 -7.41196 -3.50753 0
M  V30 21465 O 3770.51 -7.27073 -4.86816 0
M  V30 21466 C 3771 -6.5273 -2.63741 0
M  V30 21467 C 3770.29 -5.1842 -2.73198 0
M  V30 21468 N 3770.34 -4.38762 -1.4784 0
M  V30 21469 H 3767.5 -8.36803 -2.32493 0
M  V30 21470 H 3767.23 -6.70197 -1.71129 0
M  V30 21471 H 3768.1 -7.03551 -4.13168 0
M  V30 21472 P 3772.06 -7.20834 -5.23717 0
M  V30 21473 O 3772.28 -7.79853 -6.57286 0
M  V30 21474 O 3772.85 -7.79239 -4.12957 0
M  V30 21475 O 3772.31 -5.63315 -5.29344 0
M  V30 21476 C 3771.37 -4.80255 -6.01876 0
M  V30 21477 C 3772.1 -3.64202 -6.65911 0
M  V30 21478 O 3772.31 -2.60694 -5.64732 0
M  V30 21479 C 3773.5 -3.93473 -7.1943 0
M  V30 21480 O 3773.89 -3.02071 -8.21205 0
M  V30 21481 C 3774.38 -3.73047 -5.97036 0
M  V30 21482 C 3773.67 -2.58828 -5.25741 0
M  V30 21483 N 3773.72 -2.68068 -3.77503 0
M  V30 21484 C 3773.64 -3.79715 -2.96723 0
M  V30 21485 N 3773.72 -3.5377 -1.68852 0
M  V30 21486 C 3773.86 -2.15054 -1.63254 0
M  V30 21487 C 3773.99 -1.28964 -0.518571 0
M  V30 21488 O 3774.01 -1.56826 0.679156 0
M  V30 21489 N 3774.11 0.0538097 -0.918425 0
M  V30 21490 C 3774.11 0.494275 -2.22578 0
M  V30 21491 N 3774.24 1.81086 -2.40434 0
M  V30 21492 N 3773.98 -0.313645 -3.27502 0
M  V30 21493 C 3773.86 -1.61829 -2.91033 0
M  V30 21494 H 3770.88 -5.40332 -6.79951 0
M  V30 21495 H 3770.61 -4.41613 -5.32378 0
M  V30 21496 H 3771.48 -3.26331 -7.47797 0
M  V30 21497 H 3774.13 -1.63422 -5.56814 0
M  V30 21498 H 3774.41 -4.63374 -5.34244 0
M  V30 21499 H 3775.4 -3.44728 -6.25838 0
M  V30 21500 H 3773.57 -4.96652 -7.57263 0
M  V30 21501 H 3773.52 -4.80617 -3.3614 0
M  V30 21502 H 3774.2 0.742702 -0.199384 0
M  V30 21503 H 3774.24 2.20598 -3.35588 0
M  V30 21504 H 3774.34 2.43518 -1.58945 0
M  V30 21505 P 3775.44 -2.75334 -8.47391 0
M  V30 21506 O 3775.66 -2.44619 -9.90336 0
M  V30 21507 O 3776.23 -3.87776 -7.92294 0
M  V30 21508 O 3775.69 -1.4459 -7.59357 0
M  V30 21509 C 3774.75 -0.347653 -7.69315 0
M  V30 21510 C 3775.48 0.96767 -7.52806 0
M  V30 21511 O 3775.69 1.21055 -6.10208 0
M  V30 21512 C 3776.88 1.04557 -8.13408 0
M  V30 21513 O 3777.27 2.38311 -8.41922 0
M  V30 21514 C 3777.76 0.491279 -7.02284 0
M  V30 21515 C 3777.05 0.996264 -5.77469 0
M  V30 21516 N 3777.1 0.0501916 -4.62973 0
M  V30 21517 H 3774.26 -0.374765 -8.67791 0
M  V30 21518 H 3773.99 -0.443613 -6.90476 0
M  V30 21519 H 3774.86 1.75559 -7.96891 0
M  V30 21520 H 3777.51 1.94563 -5.46818 0
M  V30 21521 H 3777.79 -0.608651 -7.04676 0
M  V30 21522 H 3778.78 0.889796 -7.09039 0
M  V30 21523 H 3776.95 0.433128 -9.04664 0
M  V30 21524 P 3778.82 2.75334 -8.47391 0
M  V30 21525 O 3779.04 3.84128 -9.44797 0
M  V30 21526 O 3779.61 1.51947 -8.68712 0
M  V30 21527 O 3779.07 3.29363 -6.99321 0
M  V30 21528 C 3778.13 4.24011 -6.4274 0
M  V30 21529 C 3778.86 5.20775 -5.52155 0
M  V30 21530 O 3779.07 4.56534 -4.22446 0
M  V30 21531 C 3780.26 5.62629 -5.96531 0
M  V30 21532 O 3780.65 6.87667 -5.41053 0
M  V30 21533 C 3781.14 4.52537 -5.39283 0
M  V30 21534 C 3780.43 4.20027 -4.08623 0
M  V30 21535 N 3780.48 2.76189 -3.71603 0
M  V30 21536 H 3777.64 4.797 -7.24003 0
M  V30 21537 H 3777.37 3.69856 -5.84513 0
M  V30 21538 H 3778.24 6.10356 -5.41441 0
M  V30 21539 P 3782.2 7.20834 -5.23717 0
M  V30 21540 O 3782.42 8.66104 -5.38572 0
M  V30 21541 O 3782.99 6.33544 -6.1349 0
M  V30 21542 O 3782.45 6.7751 -3.72168 0
M  V30 21543 C 3781.51 7.20825 -2.7076 0
M  V30 21544 C 3782.24 7.45864 -1.40599 0
M  V30 21545 O 3782.45 6.17651 -0.734225 0
M  V30 21546 C 3783.64 8.05808 -1.51899 0
M  V30 21547 O 3784.03 8.74358 -0.335205 0
M  V30 21548 C 3784.52 6.83093 -1.70294 0
M  V30 21549 C 3783.81 5.79992 -0.836974 0
M  V30 21550 N 3783.86 4.41864 -1.38293 0
M  V30 21551 H 3781.02 8.13644 -3.0377 0
M  V30 21552 H 3780.75 6.42788 -2.55485 0
M  V30 21553 H 3781.62 8.12039 -0.792769 0
M  V30 21554 P 3785.58 8.91 -1.47122e-10 0
M  V30 21555 O 3785.8 10.1726 0.733694 0
M  V30 21556 O 3786.37 8.73148 -1.23936 0
M  V30 21557 O 3785.83 7.66872 0.971405 0
M  V30 21558 C 3784.89 7.42309 2.04641 0
M  V30 21559 C 3785.62 6.86059 3.24661 0
M  V30 21560 O 3785.83 5.42847 3.03646 0
M  V30 21561 C 3787.02 7.41196 3.50753 0
M  V30 21562 O 3787.41 7.27073 4.86816 0
M  V30 21563 C 3787.9 6.5273 2.63741 0
M  V30 21564 C 3787.19 5.1842 2.73198 0
M  V30 21565 N 3787.24 4.38762 1.4784 0
M  V30 21566 C 3787.16 4.81605 0.168631 0
M  V30 21567 N 3787.24 3.85454 -0.713363 0
M  V30 21568 C 3787.38 2.6994 0.0566958 0
M  V30 21569 C 3787.51 1.34815 -0.338502 0
M  V30 21570 N 3787.63 0.496304 0.77465 0
M  V30 21571 C 3787.63 0.908403 2.09122 0
M  V30 21572 N 3787.76 -0.0517805 3.00955 0
M  V30 21573 N 3787.5 2.17875 2.46519 0
M  V30 21574 C 3787.38 3.01988 1.4033 0
M  V30 21575 H 3784.4 8.36803 2.32493 0
M  V30 21576 H 3784.13 6.70197 1.71129 0
M  V30 21577 H 3785 7.03551 4.13168 0
M  V30 21578 P 3788.96 7.20834 5.23717 0
M  V30 21579 O 3789.18 7.7993 6.57351 0
M  V30 21580 O 3789.75 7.79328 4.13004 0
M  V30 21581 O 3789.21 5.63315 5.29344 0
M  V30 21582 C 3788.27 4.80255 6.01876 0
M  V30 21583 C 3789 3.64202 6.65911 0
M  V30 21584 O 3789.21 2.60694 5.64732 0
M  V30 21585 C 3790.4 3.93473 7.1943 0
M  V30 21586 O 3790.79 3.02071 8.21205 0
M  V30 21587 C 3791.28 3.73047 5.97036 0
M  V30 21588 C 3790.57 2.58828 5.25741 0
M  V30 21589 N 3790.62 2.6801 3.77422 0
M  V30 21590 C 3790.77 1.50173 3.05038 0
M  V30 21591 O 3790.86 0.428832 3.665 0
M  V30 21592 N 3790.82 1.70922 1.55541 0
M  V30 21593 C 3790.72 2.7407 1.06402 0
M  V30 21594 N 3790.77 2.74764 -0.260931 0
M  V30 21595 C 3790.57 3.96781 1.78296 0
M  V30 21596 C 3790.52 3.87909 3.13891 0
M  V30 21597 H 3787.78 5.4027 6.79873 0
M  V30 21598 H 3787.51 4.41549 5.32301 0
M  V30 21599 H 3788.38 3.26371 7.47889 0
M  V30 21600 H 3791.03 1.63978 5.5665 0
M  V30 21601 H 3791.31 4.63439 5.3432 0
M  V30 21602 H 3792.3 3.44728 6.25838 0
M  V30 21603 H 3790.47 4.96652 7.57263 0
M  V30 21604 H 3790.4 4.78425 3.73088 0
M  V30 21605 H 3790.5 4.92593 1.26997 0
M  V30 21606 H 3790.89 1.86285 -0.77595 0
M  V30 21607 H 3790.69 3.63657 -0.773896 0
M  V30 21608 P 3792.34 2.75334 8.47391 0
M  V30 21609 O 3792.56 2.44571 9.90142 0
M  V30 21610 O 3793.13 3.87688 7.92115 0
M  V30 21611 O 3792.59 1.4459 7.59357 0
M  V30 21612 C 3791.65 0.347608 7.69215 0
M  V30 21613 C 3792.38 -0.96767 7.52806 0
M  V30 21614 O 3792.59 -1.21036 6.1011 0
M  V30 21615 C 3793.78 -1.04544 8.13308 0
M  V30 21616 O 3794.17 -2.38311 8.41922 0
M  V30 21617 C 3794.66 -0.491279 7.02284 0
M  V30 21618 C 3793.95 -0.996264 5.77469 0
M  V30 21619 N 3794 -0.0501916 4.62973 0
M  V30 21620 H 3791.16 0.374722 8.67691 0
M  V30 21621 H 3790.89 0.443485 6.90277 0
M  V30 21622 H 3791.76 -1.75537 7.96793 0
M  V30 21623 P 3795.72 -2.75334 8.47391 0
M  V30 21624 O 3795.94 -3.84128 9.44797 0
M  V30 21625 O 3796.51 -1.51947 8.68712 0
M  V30 21626 O 3795.97 -3.29363 6.99321 0
M  V30 21627 C 3795.03 -4.24011 6.4274 0
M  V30 21628 C 3795.76 -5.20775 5.52155 0
M  V30 21629 O 3795.97 -4.56534 4.22446 0
M  V30 21630 C 3797.16 -5.62629 5.96531 0
M  V30 21631 O 3797.55 -6.87667 5.41053 0
M  V30 21632 C 3798.04 -4.52537 5.39283 0
M  V30 21633 C 3797.33 -4.20027 4.08623 0
M  V30 21634 N 3797.38 -2.76189 3.71603 0
M  V30 21635 H 3794.54 -4.797 7.24003 0
M  V30 21636 H 3794.27 -3.69856 5.84513 0
M  V30 21637 H 3795.14 -6.10356 5.41441 0
M  V30 21638 P 3799.1 -7.20834 5.23717 0
M  V30 21639 O 3799.32 -8.66274 5.38678 0
M  V30 21640 O 3799.89 -6.33687 6.13629 0
M  V30 21641 O 3799.35 -6.7751 3.72168 0
M  V30 21642 C 3798.41 -7.20919 2.70795 0
M  V30 21643 C 3799.14 -7.45864 1.40599 0
M  V30 21644 O 3799.35 -6.17751 0.734343 0
M  V30 21645 C 3800.54 -8.05906 1.51917 0
M  V30 21646 O 3800.93 -8.74358 0.335205 0
M  V30 21647 C 3801.42 -6.83093 1.70294 0
M  V30 21648 C 3800.71 -5.79992 0.836974 0
M  V30 21649 N 3800.76 -4.41864 1.38293 0
M  V30 21650 C 3800.68 -4.02089 2.69407 0
M  V30 21651 N 3800.75 -2.73403 2.85089 0
M  V30 21652 C 3800.9 -2.25086 1.5642 0
M  V30 21653 C 3801.03 -0.942887 1.04836 0
M  V30 21654 N 3801.04 0.150999 1.80369 0
M  V30 21655 N 3801.15 -0.812565 -0.28167 0
M  V30 21656 C 3801.14 -1.90572 -1.03784 0
M  V30 21657 N 3801.02 -3.167 -0.683905 0
M  V30 21658 C 3800.9 -3.26538 0.652815 0
M  V30 21659 H 3797.92 -8.13738 3.03804 0
M  V30 21660 H 3797.65 -6.42974 2.55559 0
M  V30 21661 H 3798.52 -8.12139 0.792866 0
M  V30 21662 H 3801.17 -5.80178 -0.160643 0
M  V30 21663 H 3801.45 -6.51379 2.75643 0
M  V30 21664 H 3802.44 -7.01832 1.3448 0
M  V30 21665 H 3800.61 -8.73771 2.38364 0
M  V30 21666 H 3800.57 -4.7189 3.52311 0
M  V30 21667 H 3800.95 0.0721434 2.82608 0
M  V30 21668 H 3801.14 1.0785 1.36544 0
M  V30 21669 H 3801.24 -1.73207 -2.10241 0
M  V30 21670 P 3802.48 -8.91 1.48231e-10 0
M  V30 21671 O 3802.7 -10.1726 -0.733694 0
M  V30 21672 O 3803.27 -8.73148 1.23936 0
M  V30 21673 O 3802.73 -7.66872 -0.971405 0
M  V30 21674 C 3801.79 -7.42309 -2.04641 0
M  V30 21675 C 3802.52 -6.86059 -3.24661 0
M  V30 21676 O 3802.73 -5.42847 -3.03646 0
M  V30 21677 C 3803.92 -7.41196 -3.50753 0
M  V30 21678 O 3804.31 -7.27073 -4.86816 0
M  V30 21679 C 3804.8 -6.5273 -2.63741 0
M  V30 21680 C 3804.09 -5.1842 -2.73198 0
M  V30 21681 N 3804.14 -4.38762 -1.4784 0
M  V30 21682 H 3801.3 -8.36803 -2.32493 0
M  V30 21683 H 3801.03 -6.70197 -1.71129 0
M  V30 21684 H 3801.9 -7.03551 -4.13168 0
M  V30 21685 P 3805.86 -7.20834 -5.23717 0
M  V30 21686 O 3806.08 -7.79853 -6.57286 0
M  V30 21687 O 3806.65 -7.79239 -4.12957 0
M  V30 21688 O 3806.11 -5.63315 -5.29344 0
M  V30 21689 C 3805.17 -4.80255 -6.01876 0
M  V30 21690 C 3805.9 -3.64202 -6.65911 0
M  V30 21691 O 3806.11 -2.60694 -5.64732 0
M  V30 21692 C 3807.3 -3.93473 -7.1943 0
M  V30 21693 O 3807.69 -3.02071 -8.21205 0
M  V30 21694 C 3808.18 -3.73047 -5.97036 0
M  V30 21695 C 3807.47 -2.58828 -5.25741 0
M  V30 21696 N 3807.52 -2.68068 -3.77503 0
M  V30 21697 H 3804.68 -5.40332 -6.79951 0
M  V30 21698 H 3804.41 -4.41613 -5.32378 0
M  V30 21699 H 3805.28 -3.26331 -7.47797 0
M  V30 21700 P 3809.24 -2.75334 -8.47391 0
M  V30 21701 O 3809.46 -2.44571 -9.90142 0
M  V30 21702 O 3810.03 -3.87688 -7.92115 0
M  V30 21703 O 3809.49 -1.4459 -7.59357 0
M  V30 21704 C 3808.55 -0.347608 -7.69215 0
M  V30 21705 C 3809.28 0.96767 -7.52806 0
M  V30 21706 O 3809.49 1.21036 -6.1011 0
M  V30 21707 C 3810.68 1.04544 -8.13308 0
M  V30 21708 O 3811.07 2.38311 -8.41922 0
M  V30 21709 C 3811.56 0.491279 -7.02284 0
M  V30 21710 C 3810.85 0.996264 -5.77469 0
M  V30 21711 N 3810.9 0.0501916 -4.62973 0
M  V30 21712 H 3808.06 -0.374722 -8.67691 0
M  V30 21713 H 3807.79 -0.443485 -6.90277 0
M  V30 21714 H 3808.66 1.75537 -7.96793 0
M  V30 21715 P 3812.62 2.75334 -8.47391 0
M  V30 21716 O 3812.84 3.84128 -9.44797 0
M  V30 21717 O 3813.41 1.51947 -8.68712 0
M  V30 21718 O 3812.87 3.29363 -6.99321 0
M  V30 21719 C 3811.93 4.24011 -6.4274 0
M  V30 21720 C 3812.66 5.20775 -5.52155 0
M  V30 21721 O 3812.87 4.56534 -4.22446 0
M  V30 21722 C 3814.06 5.62629 -5.96531 0
M  V30 21723 O 3814.45 6.87667 -5.41053 0
M  V30 21724 C 3814.94 4.52537 -5.39283 0
M  V30 21725 C 3814.23 4.20027 -4.08623 0
M  V30 21726 N 3814.28 2.76189 -3.71603 0
M  V30 21727 C 3814.2 1.64862 -4.52822 0
M  V30 21728 N 3814.28 0.512671 -3.88633 0
M  V30 21729 C 3814.42 0.888083 -2.54977 0
M  V30 21730 C 3814.55 0.094668 -1.38677 0
M  V30 21731 N 3814.67 0.890102 -0.232633 0
M  V30 21732 C 3814.67 2.26958 -0.21772 0
M  V30 21733 N 3814.8 2.84626 0.97925 0
M  V30 21734 N 3814.54 3.0178 -1.31033 0
M  V30 21735 C 3814.42 2.26781 -2.43843 0
M  V30 21736 H 3811.44 4.797 -7.24003 0
M  V30 21737 H 3811.17 3.69856 -5.84513 0
M  V30 21738 H 3812.04 6.10356 -5.41441 0
M  V30 21739 P 3816 7.20834 -5.23717 0
M  V30 21740 O 3816.22 8.66274 -5.38678 0
M  V30 21741 O 3816.79 6.33687 -6.13629 0
M  V30 21742 O 3816.25 6.7751 -3.72168 0
M  V30 21743 C 3815.31 7.20919 -2.70795 0
M  V30 21744 C 3816.04 7.45864 -1.40599 0
M  V30 21745 O 3816.25 6.17751 -0.734343 0
M  V30 21746 C 3817.44 8.05906 -1.51917 0
M  V30 21747 O 3817.83 8.74358 -0.335205 0
M  V30 21748 C 3818.32 6.83093 -1.70294 0
M  V30 21749 C 3817.61 5.79992 -0.836974 0
M  V30 21750 N 3817.66 4.41864 -1.38293 0
M  V30 21751 C 3817.58 4.02089 -2.69407 0
M  V30 21752 N 3817.65 2.73403 -2.85089 0
M  V30 21753 C 3817.8 2.25086 -1.5642 0
M  V30 21754 C 3817.93 0.942887 -1.04836 0
M  V30 21755 N 3817.94 -0.150999 -1.80369 0
M  V30 21756 N 3818.05 0.812565 0.28167 0
M  V30 21757 C 3818.04 1.90572 1.03784 0
M  V30 21758 N 3817.92 3.167 0.683905 0
M  V30 21759 C 3817.8 3.26538 -0.652815 0
M  V30 21760 H 3814.82 8.13738 -3.03804 0
M  V30 21761 H 3814.55 6.42974 -2.55559 0
M  V30 21762 H 3815.42 8.12139 -0.792866 0
M  V30 21763 H 3818.07 5.80178 0.160643 0
M  V30 21764 H 3818.35 6.51379 -2.75643 0
M  V30 21765 H 3819.34 7.01832 -1.3448 0
M  V30 21766 H 3817.51 8.73771 -2.38364 0
M  V30 21767 H 3817.47 4.7189 -3.52311 0
M  V30 21768 H 3817.85 -0.0721434 -2.82608 0
M  V30 21769 H 3818.04 -1.0785 -1.36544 0
M  V30 21770 H 3818.14 1.73207 2.10241 0
M  V30 21771 P 3819.38 8.91 -1.4934e-10 0
M  V30 21772 O 3819.6 10.1726 0.733694 0
M  V30 21773 O 3820.17 8.73148 -1.23936 0
M  V30 21774 O 3819.63 7.66872 0.971405 0
M  V30 21775 C 3818.69 7.42309 2.04641 0
M  V30 21776 C 3819.42 6.86059 3.24661 0
M  V30 21777 O 3819.63 5.42847 3.03646 0
M  V30 21778 C 3820.82 7.41196 3.50753 0
M  V30 21779 O 3821.21 7.27073 4.86816 0
M  V30 21780 C 3821.7 6.5273 2.63741 0
M  V30 21781 C 3820.99 5.1842 2.73198 0
M  V30 21782 N 3821.04 4.38762 1.4784 0
M  V30 21783 H 3818.2 8.36803 2.32493 0
M  V30 21784 H 3817.93 6.70197 1.71129 0
M  V30 21785 H 3818.8 7.03551 4.13168 0
M  V30 21786 P 3822.76 7.20834 5.23717 0
M  V30 21787 O 3822.98 7.7993 6.57351 0
M  V30 21788 O 3823.55 7.79328 4.13004 0
M  V30 21789 O 3823.01 5.63315 5.29344 0
M  V30 21790 C 3822.07 4.80193 6.01798 0
M  V30 21791 C 3822.8 3.64202 6.65911 0
M  V30 21792 O 3823.01 2.60694 5.64732 0
M  V30 21793 C 3824.2 3.93473 7.1943 0
M  V30 21794 O 3824.59 3.02071 8.21205 0
M  V30 21795 C 3825.08 3.73047 5.97036 0
M  V30 21796 C 3824.37 2.58828 5.25741 0
M  V30 21797 N 3824.42 2.6801 3.77422 0
M  V30 21798 C 3824.57 1.50443 3.07133 0
M  V30 21799 O 3824.66 0.419406 3.61576 0
M  V30 21800 N 3824.61 1.6403 1.69677 0
M  V30 21801 C 3824.52 2.81206 0.986255 0
M  V30 21802 O 3824.57 2.80892 -0.249754 0
M  V30 21803 C 3824.37 3.99158 1.80325 0
M  V30 21804 C 3824.26 5.29309 1.06921 0
M  V30 21805 C 3824.32 3.89779 3.1476 0
M  V30 21806 H 3821.58 5.40332 6.79951 0
M  V30 21807 H 3821.31 4.41549 5.32301 0
M  V30 21808 H 3822.18 3.26331 7.47797 0
M  V30 21809 H 3824.83 1.6395 5.56554 0
M  V30 21810 H 3825.11 4.63439 5.3432 0
M  V30 21811 H 3826.1 3.44728 6.25838 0
M  V30 21812 H 3824.27 4.96652 7.57263 0
M  V30 21813 H 3824.2 4.80159 3.74441 0
M  V30 21814 H 3825.23 5.81459 1.09608 0
M  V30 21815 H 3823.49 5.9187 1.54487 0
M  V30 21816 H 3823.98 5.10095 0.0220288 0
M  V30 21817 H 3824.71 0.798962 1.16664 0
M  V30 21818 P 3826.14 2.75334 8.47391 0
M  V30 21819 O 3826.36 2.44571 9.90142 0
M  V30 21820 O 3826.93 3.87688 7.92115 0
M  V30 21821 O 3826.39 1.4459 7.59357 0
M  V30 21822 C 3825.45 0.347608 7.69215 0
M  V30 21823 C 3826.18 -0.96767 7.52806 0
M  V30 21824 O 3826.39 -1.21036 6.1011 0
M  V30 21825 C 3827.58 -1.04544 8.13308 0
M  V30 21826 O 3827.97 -2.38311 8.41922 0
M  V30 21827 C 3828.46 -0.491279 7.02284 0
M  V30 21828 C 3827.75 -0.996264 5.77469 0
M  V30 21829 N 3827.8 -0.0501916 4.62973 0
M  V30 21830 H 3824.96 0.374722 8.67691 0
M  V30 21831 H 3824.69 0.443485 6.90277 0
M  V30 21832 H 3825.56 -1.75537 7.96793 0
M  V30 21833 P 3829.52 -2.75334 8.47391 0
M  V30 21834 O 3829.74 -3.84128 9.44797 0
M  V30 21835 O 3830.31 -1.51947 8.68712 0
M  V30 21836 O 3829.77 -3.29363 6.99321 0
M  V30 21837 C 3828.83 -4.24011 6.4274 0
M  V30 21838 C 3829.56 -5.20775 5.52155 0
M  V30 21839 O 3829.77 -4.56534 4.22446 0
M  V30 21840 C 3830.96 -5.62629 5.96531 0
M  V30 21841 O 3831.35 -6.87667 5.41053 0
M  V30 21842 C 3831.84 -4.52537 5.39283 0
M  V30 21843 C 3831.13 -4.20027 4.08623 0
M  V30 21844 N 3831.18 -2.76189 3.71603 0
M  V30 21845 H 3828.34 -4.797 7.24003 0
M  V30 21846 H 3828.07 -3.69856 5.84513 0
M  V30 21847 H 3828.94 -6.10356 5.41441 0
M  V30 21848 P 3832.9 -7.20834 5.23717 0
M  V30 21849 O 3833.12 -8.66104 5.38572 0
M  V30 21850 O 3833.69 -6.33544 6.1349 0
M  V30 21851 O 3833.15 -6.7751 3.72168 0
M  V30 21852 C 3832.21 -7.20825 2.7076 0
M  V30 21853 C 3832.94 -7.45864 1.40599 0
M  V30 21854 O 3833.15 -6.17651 0.734225 0
M  V30 21855 C 3834.34 -8.05808 1.51899 0
M  V30 21856 O 3834.73 -8.74358 0.335205 0
M  V30 21857 C 3835.22 -6.83093 1.70294 0
M  V30 21858 C 3834.51 -5.79992 0.836974 0
M  V30 21859 N 3834.56 -4.41864 1.38293 0
M  V30 21860 C 3834.48 -3.99538 2.69438 0
M  V30 21861 N 3834.56 -2.69909 2.84277 0
M  V30 21862 C 3834.7 -2.21719 1.5408 0
M  V30 21863 C 3834.83 -0.891712 1.06628 0
M  V30 21864 O 3834.85 0.161298 1.70137 0
M  V30 21865 N 3834.95 -0.856846 -0.334985 0
M  V30 21866 C 3834.95 -1.9641 -1.15789 0
M  V30 21867 N 3835.08 -1.72708 -2.46522 0
M  V30 21868 N 3834.82 -3.21165 -0.713741 0
M  V30 21869 C 3834.7 -3.26797 0.639748 0
M  V30 21870 H 3831.72 -8.13644 3.0377 0
M  V30 21871 H 3831.45 -6.42788 2.55485 0
M  V30 21872 H 3832.32 -8.12039 0.792769 0
M  V30 21873 H 3834.97 -5.80061 -0.166416 0
M  V30 21874 H 3835.25 -6.51287 2.75604 0
M  V30 21875 H 3836.24 -7.01734 1.34462 0
M  V30 21876 H 3834.41 -8.73674 2.38337 0
M  V30 21877 H 3834.36 -4.68207 3.53221 0
M  V30 21878 H 3835.04 0.0398818 -0.767965 0
M  V30 21879 H 3835.08 -2.50995 -3.13503 0
M  V30 21880 H 3835.18 -0.759148 -2.80716 0
M  V30 21881 P 3836.28 -8.91 1.50449e-10 0
M  V30 21882 O 3836.5 -10.1726 -0.733694 0
M  V30 21883 O 3837.07 -8.73148 1.23936 0
M  V30 21884 O 3836.53 -7.66872 -0.971405 0
M  V30 21885 C 3835.59 -7.42309 -2.04641 0
M  V30 21886 C 3836.32 -6.86059 -3.24661 0
M  V30 21887 O 3836.53 -5.42847 -3.03646 0
M  V30 21888 C 3837.72 -7.41196 -3.50753 0
M  V30 21889 O 3838.11 -7.27073 -4.86816 0
M  V30 21890 C 3838.6 -6.5273 -2.63741 0
M  V30 21891 C 3837.89 -5.1842 -2.73198 0
M  V30 21892 N 3837.94 -4.38762 -1.4784 0
M  V30 21893 H 3835.1 -8.36803 -2.32493 0
M  V30 21894 H 3834.83 -6.70197 -1.71129 0
M  V30 21895 H 3835.7 -7.03551 -4.13168 0
M  V30 21896 P 3839.66 -7.20834 -5.23717 0
M  V30 21897 O 3839.88 -7.79853 -6.57286 0
M  V30 21898 O 3840.45 -7.79239 -4.12957 0
M  V30 21899 O 3839.91 -5.63315 -5.29344 0
M  V30 21900 C 3838.97 -4.80255 -6.01876 0
M  V30 21901 C 3839.7 -3.64202 -6.65911 0
M  V30 21902 O 3839.91 -2.60694 -5.64732 0
M  V30 21903 C 3841.1 -3.93473 -7.1943 0
M  V30 21904 O 3841.49 -3.02071 -8.21205 0
M  V30 21905 C 3841.98 -3.73047 -5.97036 0
M  V30 21906 C 3841.27 -2.58828 -5.25741 0
M  V30 21907 N 3841.32 -2.68068 -3.77503 0
M  V30 21908 C 3841.24 -3.79715 -2.96723 0
M  V30 21909 N 3841.32 -3.5377 -1.68852 0
M  V30 21910 C 3841.46 -2.15054 -1.63254 0
M  V30 21911 C 3841.59 -1.28964 -0.518571 0
M  V30 21912 O 3841.61 -1.56826 0.679156 0
M  V30 21913 N 3841.71 0.0538097 -0.918425 0
M  V30 21914 C 3841.71 0.494275 -2.22578 0
M  V30 21915 N 3841.84 1.81086 -2.40434 0
M  V30 21916 N 3841.58 -0.313645 -3.27502 0
M  V30 21917 C 3841.46 -1.61829 -2.91033 0
M  V30 21918 H 3838.48 -5.40332 -6.79951 0
M  V30 21919 H 3838.21 -4.41613 -5.32378 0
M  V30 21920 H 3839.08 -3.26331 -7.47797 0
M  V30 21921 H 3841.73 -1.63422 -5.56814 0
M  V30 21922 H 3842.01 -4.63374 -5.34244 0
M  V30 21923 H 3843 -3.44728 -6.25838 0
M  V30 21924 H 3841.17 -4.96652 -7.57263 0
M  V30 21925 H 3841.12 -4.80617 -3.3614 0
M  V30 21926 H 3841.8 0.742702 -0.199384 0
M  V30 21927 H 3841.84 2.20598 -3.35588 0
M  V30 21928 H 3841.94 2.43518 -1.58945 0
M  V30 21929 P 3843.04 -2.75334 -8.47391 0
M  V30 21930 O 3843.26 -2.44571 -9.90142 0
M  V30 21931 O 3843.83 -3.87688 -7.92115 0
M  V30 21932 O 3843.29 -1.4459 -7.59357 0
M  V30 21933 C 3842.35 -0.347608 -7.69215 0
M  V30 21934 C 3843.08 0.96767 -7.52806 0
M  V30 21935 O 3843.29 1.21036 -6.1011 0
M  V30 21936 C 3844.48 1.04544 -8.13308 0
M  V30 21937 O 3844.87 2.38311 -8.41922 0
M  V30 21938 C 3845.36 0.491279 -7.02284 0
M  V30 21939 C 3844.65 0.996264 -5.77469 0
M  V30 21940 N 3844.7 0.0501916 -4.62973 0
M  V30 21941 H 3841.86 -0.374722 -8.67691 0
M  V30 21942 H 3841.59 -0.443485 -6.90277 0
M  V30 21943 H 3842.46 1.75537 -7.96793 0
M  V30 21944 P 3846.42 2.75334 -8.47391 0
M  V30 21945 O 3846.64 3.84166 -9.4489 0
M  V30 21946 O 3847.21 1.51964 -8.6881 0
M  V30 21947 O 3846.67 3.29363 -6.99321 0
M  V30 21948 C 3845.73 4.23956 -6.42656 0
M  V30 21949 C 3846.46 5.20775 -5.52155 0
M  V30 21950 O 3846.67 4.56534 -4.22446 0
M  V30 21951 C 3847.86 5.62629 -5.96531 0
M  V30 21952 O 3848.25 6.87667 -5.41053 0
M  V30 21953 C 3848.74 4.52537 -5.39283 0
M  V30 21954 C 3848.03 4.20027 -4.08623 0
M  V30 21955 N 3848.08 2.7613 -3.71522 0
M  V30 21956 C 3848.23 2.45612 -2.37989 0
M  V30 21957 O 3848.32 3.30919 -1.51621 0
M  V30 21958 N 3848.27 1.10684 -2.08435 0
M  V30 21959 C 3848.18 0.0690084 -2.9792 0
M  V30 21960 C 3848.03 0.481522 -4.35345 0
M  V30 21961 C 3847.98 1.78906 -4.67968 0
M  V30 21962 H 3845.24 4.797 -7.24003 0
M  V30 21963 H 3844.97 3.69802 -5.84429 0
M  V30 21964 H 3845.84 6.10356 -5.41441 0
M  V30 21965 H 3848.49 4.78651 -3.27911 0
M  V30 21966 H 3848.77 3.64957 -6.05871 0
M  V30 21967 H 3849.76 4.8868 -5.2125 0
M  V30 21968 H 3847.93 5.66726 -7.06352 0
M  V30 21969 H 3847.86 2.07737 -5.72367 0
M  V30 21970 P 3849.8 7.20834 -5.23717 0
M  V30 21971 O 3850.02 8.66274 -5.38678 0
M  V30 21972 O 3850.59 6.33687 -6.13629 0
M  V30 21973 O 3850.05 6.7751 -3.72168 0
M  V30 21974 C 3849.11 7.20919 -2.70795 0
M  V30 21975 C 3849.84 7.45864 -1.40599 0
M  V30 21976 O 3850.05 6.17751 -0.734343 0
M  V30 21977 C 3851.24 8.05906 -1.51917 0
M  V30 21978 O 3851.63 8.74358 -0.335205 0
M  V30 21979 C 3852.12 6.83093 -1.70294 0
M  V30 21980 C 3851.41 5.79992 -0.836974 0
M  V30 21981 N 3851.46 4.41864 -1.38293 0
M  V30 21982 C 3851.38 4.02089 -2.69407 0
M  V30 21983 N 3851.45 2.73403 -2.85089 0
M  V30 21984 C 3851.6 2.25086 -1.5642 0
M  V30 21985 C 3851.73 0.942887 -1.04836 0
M  V30 21986 N 3851.74 -0.150999 -1.80369 0
M  V30 21987 N 3851.85 0.812565 0.28167 0
M  V30 21988 C 3851.84 1.90572 1.03784 0
M  V30 21989 N 3851.72 3.167 0.683905 0
M  V30 21990 C 3851.6 3.26538 -0.652815 0
M  V30 21991 H 3848.62 8.13738 -3.03804 0
M  V30 21992 H 3848.35 6.42974 -2.55559 0
M  V30 21993 H 3849.22 8.12139 -0.792866 0
M  V30 21994 H 3851.87 5.80178 0.160643 0
M  V30 21995 H 3852.15 6.51379 -2.75643 0
M  V30 21996 H 3853.14 7.01832 -1.3448 0
M  V30 21997 H 3851.31 8.73771 -2.38364 0
M  V30 21998 H 3851.27 4.7189 -3.52311 0
M  V30 21999 H 3851.65 -0.0721434 -2.82608 0
M  V30 22000 H 3851.84 -1.0785 -1.36544 0
M  V30 22001 H 3851.94 1.73207 2.10241 0
M  V30 22002 P 3853.18 8.91 -1.51558e-10 0
M  V30 22003 O 3853.4 10.1726 0.733694 0
M  V30 22004 O 3853.97 8.73148 -1.23936 0
M  V30 22005 O 3853.43 7.66872 0.971405 0
M  V30 22006 C 3852.49 7.42309 2.04641 0
M  V30 22007 C 3853.22 6.86059 3.24661 0
M  V30 22008 O 3853.43 5.42847 3.03646 0
M  V30 22009 C 3854.62 7.41196 3.50753 0
M  V30 22010 O 3855.01 7.27073 4.86816 0
M  V30 22011 C 3855.5 6.5273 2.63741 0
M  V30 22012 C 3854.79 5.1842 2.73198 0
M  V30 22013 N 3854.84 4.38762 1.4784 0
M  V30 22014 H 3852 8.36803 2.32493 0
M  V30 22015 H 3851.73 6.70197 1.71129 0
M  V30 22016 H 3852.6 7.03551 4.13168 0
M  V30 22017 P 3856.56 7.20834 5.23717 0
M  V30 22018 O 3856.78 7.79853 6.57286 0
M  V30 22019 O 3857.35 7.79239 4.12957 0
M  V30 22020 O 3856.81 5.63315 5.29344 0
M  V30 22021 C 3855.87 4.80255 6.01876 0
M  V30 22022 C 3856.6 3.64202 6.65911 0
M  V30 22023 O 3856.81 2.60694 5.64732 0
M  V30 22024 C 3858 3.93473 7.1943 0
M  V30 22025 O 3858.39 3.02071 8.21205 0
M  V30 22026 C 3858.88 3.73047 5.97036 0
M  V30 22027 C 3858.17 2.58828 5.25741 0
M  V30 22028 N 3858.22 2.68068 3.77503 0
M  V30 22029 H 3855.38 5.40332 6.79951 0
M  V30 22030 H 3855.11 4.41613 5.32378 0
M  V30 22031 H 3855.98 3.26331 7.47797 0
M  V30 22032 P 3859.94 2.75334 8.47391 0
M  V30 22033 O 3860.16 2.44571 9.90142 0
M  V30 22034 O 3860.73 3.87688 7.92115 0
M  V30 22035 O 3860.19 1.4459 7.59357 0
M  V30 22036 C 3859.25 0.347608 7.69215 0
M  V30 22037 C 3859.98 -0.96767 7.52806 0
M  V30 22038 O 3860.19 -1.21036 6.1011 0
M  V30 22039 C 3861.38 -1.04544 8.13308 0
M  V30 22040 O 3861.77 -2.38311 8.41922 0
M  V30 22041 C 3862.26 -0.491279 7.02284 0
M  V30 22042 C 3861.55 -0.996264 5.77469 0
M  V30 22043 N 3861.6 -0.0501916 4.62973 0
M  V30 22044 H 3858.76 0.374722 8.67691 0
M  V30 22045 H 3858.49 0.443485 6.90277 0
M  V30 22046 H 3859.36 -1.75537 7.96793 0
M  V30 22047 P 3863.32 -2.75334 8.47391 0
M  V30 22048 O 3863.54 -3.84128 9.44797 0
M  V30 22049 O 3864.11 -1.51947 8.68712 0
M  V30 22050 O 3863.57 -3.29363 6.99321 0
M  V30 22051 C 3862.63 -4.24011 6.4274 0
M  V30 22052 C 3863.36 -5.20775 5.52155 0
M  V30 22053 O 3863.57 -4.56534 4.22446 0
M  V30 22054 C 3864.76 -5.62629 5.96531 0
M  V30 22055 O 3865.15 -6.87667 5.41053 0
M  V30 22056 C 3865.64 -4.52537 5.39283 0
M  V30 22057 C 3864.93 -4.20027 4.08623 0
M  V30 22058 N 3864.98 -2.76189 3.71603 0
M  V30 22059 H 3862.14 -4.797 7.24003 0
M  V30 22060 H 3861.87 -3.69856 5.84513 0
M  V30 22061 H 3862.74 -6.10356 5.41441 0
M  V30 22062 P 3866.7 -7.20834 5.23717 0
M  V30 22063 O 3866.92 -8.66104 5.38572 0
M  V30 22064 O 3867.49 -6.33544 6.1349 0
M  V30 22065 O 3866.95 -6.7751 3.72168 0
M  V30 22066 C 3866.01 -7.20825 2.7076 0
M  V30 22067 C 3866.74 -7.45864 1.40599 0
M  V30 22068 O 3866.95 -6.17651 0.734225 0
M  V30 22069 C 3868.14 -8.05808 1.51899 0
M  V30 22070 O 3868.53 -8.74358 0.335205 0
M  V30 22071 C 3869.02 -6.83093 1.70294 0
M  V30 22072 C 3868.31 -5.79992 0.836974 0
M  V30 22073 N 3868.36 -4.41864 1.38293 0
M  V30 22074 H 3865.52 -8.13644 3.0377 0
M  V30 22075 H 3865.25 -6.42788 2.55485 0
M  V30 22076 H 3866.12 -8.12039 0.792769 0
M  V30 22077 P 3870.08 -8.91 1.52667e-10 0
M  V30 22078 O 3870.3 -10.1736 -0.733766 0
M  V30 22079 O 3870.87 -8.73247 1.2395 0
M  V30 22080 O 3870.33 -7.66872 -0.971405 0
M  V30 22081 C 3869.39 -7.42212 -2.04614 0
M  V30 22082 C 3870.12 -6.86059 -3.24661 0
M  V30 22083 O 3870.33 -5.42847 -3.03646 0
M  V30 22084 C 3871.52 -7.41196 -3.50753 0
M  V30 22085 O 3871.91 -7.27073 -4.86816 0
M  V30 22086 C 3872.4 -6.5273 -2.63741 0
M  V30 22087 C 3871.69 -5.1842 -2.73198 0
M  V30 22088 N 3871.74 -4.38668 -1.47808 0
M  V30 22089 C 3871.89 -3.02239 -1.60048 0
M  V30 22090 O 3871.98 -2.46459 -2.67869 0
M  V30 22091 N 3871.93 -2.32436 -0.408571 0
M  V30 22092 C 3871.84 -2.85471 0.854993 0
M  V30 22093 O 3871.89 -2.12566 1.8531 0
M  V30 22094 C 3871.69 -4.28918 0.887335 0
M  V30 22095 C 3871.58 -4.91066 2.24619 0
M  V30 22096 C 3871.64 -5.00349 -0.255399 0
M  V30 22097 H 3868.9 -8.36803 -2.32493 0
M  V30 22098 H 3868.63 -6.701 -1.71105 0
M  V30 22099 H 3869.5 -7.03551 -4.13168 0
M  V30 22100 H 3872.15 -4.59773 -3.53894 0
M  V30 22101 H 3872.43 -6.88995 -1.59871 0
M  V30 22102 H 3873.42 -6.46749 -3.03687 0
M  V30 22103 H 3871.59 -8.46908 -3.20714 0
M  V30 22104 H 3871.52 -6.08548 -0.206986 0
M  V30 22105 H 3872.55 -5.34836 2.53099 0
M  V30 22106 H 3870.81 -5.69638 2.2291 0
M  V30 22107 H 3871.3 -4.13971 2.98044 0
M  V30 22108 H 3872.03 -1.33211 -0.474216 0
M  V30 22109 P 3873.46 -7.20834 -5.23717 0
M  V30 22110 O 3873.68 -7.7993 -6.57351 0
M  V30 22111 O 3874.25 -7.79328 -4.13004 0
M  V30 22112 O 3873.71 -5.63315 -5.29344 0
M  V30 22113 C 3872.77 -4.80193 -6.01798 0
M  V30 22114 C 3873.5 -3.64202 -6.65911 0
M  V30 22115 O 3873.71 -2.60694 -5.64732 0
M  V30 22116 C 3874.9 -3.93473 -7.1943 0
M  V30 22117 O 3875.29 -3.02071 -8.21205 0
M  V30 22118 C 3875.78 -3.73047 -5.97036 0
M  V30 22119 C 3875.07 -2.58828 -5.25741 0
M  V30 22120 N 3875.12 -2.6801 -3.77422 0
M  V30 22121 C 3875.27 -1.50443 -3.07133 0
M  V30 22122 O 3875.36 -0.419406 -3.61576 0
M  V30 22123 N 3875.31 -1.6403 -1.69677 0
M  V30 22124 C 3875.22 -2.81206 -0.986255 0
M  V30 22125 O 3875.27 -2.80892 0.249754 0
M  V30 22126 C 3875.07 -3.99158 -1.80325 0
M  V30 22127 C 3874.96 -5.29309 -1.06921 0
M  V30 22128 C 3875.02 -3.89779 -3.1476 0
M  V30 22129 H 3872.28 -5.40332 -6.79951 0
M  V30 22130 H 3872.01 -4.41549 -5.32301 0
M  V30 22131 H 3872.88 -3.26331 -7.47797 0
M  V30 22132 H 3875.53 -1.6395 -5.56554 0
M  V30 22133 H 3875.81 -4.63439 -5.3432 0
M  V30 22134 H 3876.8 -3.44728 -6.25838 0
M  V30 22135 H 3874.97 -4.96652 -7.57263 0
M  V30 22136 H 3874.9 -4.80159 -3.74441 0
M  V30 22137 H 3875.93 -5.81459 -1.09608 0
M  V30 22138 H 3874.19 -5.9187 -1.54487 0
M  V30 22139 H 3874.68 -5.10095 -0.0220288 0
M  V30 22140 H 3875.41 -0.798962 -1.16664 0
M  V30 22141 P 3876.84 -2.75334 -8.47391 0
M  V30 22142 O 3877.06 -2.44571 -9.90142 0
M  V30 22143 O 3877.63 -3.87688 -7.92115 0
M  V30 22144 O 3877.09 -1.4459 -7.59357 0
M  V30 22145 C 3876.15 -0.347608 -7.69215 0
M  V30 22146 C 3876.88 0.96767 -7.52806 0
M  V30 22147 O 3877.09 1.21036 -6.1011 0
M  V30 22148 C 3878.28 1.04544 -8.13308 0
M  V30 22149 O 3878.67 2.38311 -8.41922 0
M  V30 22150 C 3879.16 0.491279 -7.02284 0
M  V30 22151 C 3878.45 0.996264 -5.77469 0
M  V30 22152 N 3878.5 0.0501916 -4.62973 0
M  V30 22153 H 3875.66 -0.374722 -8.67691 0
M  V30 22154 H 3875.39 -0.443485 -6.90277 0
M  V30 22155 H 3876.26 1.75537 -7.96793 0
M  V30 22156 P 3880.22 2.75334 -8.47391 0
M  V30 22157 O 3880.44 3.84128 -9.44797 0
M  V30 22158 O 3881.01 1.51947 -8.68712 0
M  V30 22159 O 3880.47 3.29363 -6.99321 0
M  V30 22160 C 3879.53 4.24011 -6.4274 0
M  V30 22161 C 3880.26 5.20775 -5.52155 0
M  V30 22162 O 3880.47 4.56534 -4.22446 0
M  V30 22163 C 3881.66 5.62629 -5.96531 0
M  V30 22164 O 3882.05 6.87667 -5.41053 0
M  V30 22165 C 3882.54 4.52537 -5.39283 0
M  V30 22166 C 3881.83 4.20027 -4.08623 0
M  V30 22167 N 3881.88 2.76189 -3.71603 0
M  V30 22168 H 3879.04 4.797 -7.24003 0
M  V30 22169 H 3878.77 3.69856 -5.84513 0
M  V30 22170 H 3879.64 6.10356 -5.41441 0
M  V30 22171 P 3883.6 7.20834 -5.23717 0
M  V30 22172 O 3883.82 8.66104 -5.38572 0
M  V30 22173 O 3884.39 6.33544 -6.1349 0
M  V30 22174 O 3883.85 6.7751 -3.72168 0
M  V30 22175 C 3882.91 7.20825 -2.7076 0
M  V30 22176 C 3883.64 7.45864 -1.40599 0
M  V30 22177 O 3883.85 6.17651 -0.734225 0
M  V30 22178 C 3885.04 8.05808 -1.51899 0
M  V30 22179 O 3885.43 8.74358 -0.335205 0
M  V30 22180 C 3885.92 6.83093 -1.70294 0
M  V30 22181 C 3885.21 5.79992 -0.836974 0
M  V30 22182 N 3885.26 4.41864 -1.38293 0
M  V30 22183 H 3882.42 8.13644 -3.0377 0
M  V30 22184 H 3882.15 6.42788 -2.55485 0
M  V30 22185 H 3883.02 8.12039 -0.792769 0
M  V30 22186 P 3886.98 8.91 -1.53776e-10 0
M  V30 22187 O 3887.2 10.1726 0.733694 0
M  V30 22188 O 3887.77 8.73148 -1.23936 0
M  V30 22189 O 3887.23 7.66872 0.971405 0
M  V30 22190 C 3886.29 7.42309 2.04641 0
M  V30 22191 C 3887.02 6.86059 3.24661 0
M  V30 22192 O 3887.23 5.42847 3.03646 0
M  V30 22193 C 3888.42 7.41196 3.50753 0
M  V30 22194 O 3888.81 7.27073 4.86816 0
M  V30 22195 C 3889.3 6.5273 2.63741 0
M  V30 22196 C 3888.59 5.1842 2.73198 0
M  V30 22197 N 3888.64 4.38762 1.4784 0
M  V30 22198 H 3885.8 8.36803 2.32493 0
M  V30 22199 H 3885.53 6.70197 1.71129 0
M  V30 22200 H 3886.4 7.03551 4.13168 0
M  V30 22201 P 3890.36 7.20834 5.23717 0
M  V30 22202 O 3890.58 7.79853 6.57286 0
M  V30 22203 O 3891.15 7.79239 4.12957 0
M  V30 22204 O 3890.61 5.63315 5.29344 0
M  V30 22205 C 3889.67 4.80255 6.01876 0
M  V30 22206 C 3890.4 3.64202 6.65911 0
M  V30 22207 O 3890.61 2.60694 5.64732 0
M  V30 22208 C 3891.8 3.93473 7.1943 0
M  V30 22209 O 3892.19 3.02071 8.21205 0
M  V30 22210 C 3892.68 3.73047 5.97036 0
M  V30 22211 C 3891.97 2.58828 5.25741 0
M  V30 22212 N 3892.02 2.68068 3.77503 0
M  V30 22213 H 3889.18 5.40332 6.79951 0
M  V30 22214 H 3888.91 4.41613 5.32378 0
M  V30 22215 H 3889.77 3.26331 7.47797 0
M  V30 22216 P 3893.74 2.75334 8.47391 0
M  V30 22217 O 3893.96 2.44571 9.90142 0
M  V30 22218 O 3894.53 3.87688 7.92115 0
M  V30 22219 O 3893.99 1.4459 7.59357 0
M  V30 22220 C 3893.05 0.347608 7.69215 0
M  V30 22221 C 3893.78 -0.96767 7.52806 0
M  V30 22222 O 3893.99 -1.21036 6.1011 0
M  V30 22223 C 3895.18 -1.04544 8.13308 0
M  V30 22224 O 3895.57 -2.38311 8.41922 0
M  V30 22225 C 3896.06 -0.491279 7.02284 0
M  V30 22226 C 3895.35 -0.996264 5.77469 0
M  V30 22227 N 3895.4 -0.0501916 4.62973 0
M  V30 22228 H 3892.56 0.374722 8.67691 0
M  V30 22229 H 3892.29 0.443485 6.90277 0
M  V30 22230 H 3893.15 -1.75537 7.96793 0
M  V30 22231 P 3897.12 -2.75334 8.47391 0
M  V30 22232 O 3897.34 -3.84128 9.44797 0
M  V30 22233 O 3897.91 -1.51947 8.68712 0
M  V30 22234 O 3897.37 -3.29363 6.99321 0
M  V30 22235 C 3896.43 -4.24011 6.4274 0
M  V30 22236 C 3897.16 -5.20775 5.52155 0
M  V30 22237 O 3897.37 -4.56534 4.22446 0
M  V30 22238 C 3898.56 -5.62629 5.96531 0
M  V30 22239 O 3898.95 -6.87667 5.41053 0
M  V30 22240 C 3899.44 -4.52537 5.39283 0
M  V30 22241 C 3898.73 -4.20027 4.08623 0
M  V30 22242 N 3898.78 -2.76189 3.71603 0
M  V30 22243 H 3895.94 -4.797 7.24003 0
M  V30 22244 H 3895.67 -3.69856 5.84513 0
M  V30 22245 H 3896.53 -6.10356 5.41441 0
M  V30 22246 P 3900.5 -7.20834 5.23717 0
M  V30 22247 O 3900.72 -8.66274 5.38678 0
M  V30 22248 O 3901.29 -6.33687 6.13629 0
M  V30 22249 O 3900.75 -6.7751 3.72168 0
M  V30 22250 C 3899.81 -7.20919 2.70795 0
M  V30 22251 C 3900.54 -7.45864 1.40599 0
M  V30 22252 O 3900.75 -6.17751 0.734343 0
M  V30 22253 C 3901.94 -8.05906 1.51917 0
M  V30 22254 O 3902.33 -8.74358 0.335205 0
M  V30 22255 C 3902.82 -6.83093 1.70294 0
M  V30 22256 C 3902.11 -5.79992 0.836974 0
M  V30 22257 N 3902.16 -4.41864 1.38293 0
M  V30 22258 H 3899.32 -8.13738 3.03804 0
M  V30 22259 H 3899.05 -6.42974 2.55559 0
M  V30 22260 H 3899.91 -8.12139 0.792866 0
M  V30 22261 H 3902.57 -5.80178 -0.160643 0
M  V30 22262 H 3902.85 -6.51379 2.75643 0
M  V30 22263 H 3903.84 -7.01832 1.3448 0
M  V30 22264 H 3902.01 -8.73771 2.38364 0
M  V30 22265 P 3903.88 -8.91 1.54885e-10 0
M  V30 22266 O 3904.1 -10.1726 -0.733694 0
M  V30 22267 O 3904.67 -8.73148 1.23936 0
M  V30 22268 O 3904.13 -7.66872 -0.971405 0
M  V30 22269 C 3903.19 -7.42309 -2.04641 0
M  V30 22270 C 3903.92 -6.86059 -3.24661 0
M  V30 22271 O 3904.13 -5.42847 -3.03646 0
M  V30 22272 C 3905.32 -7.41196 -3.50753 0
M  V30 22273 O 3905.71 -7.27073 -4.86816 0
M  V30 22274 C 3906.2 -6.5273 -2.63741 0
M  V30 22275 C 3905.49 -5.1842 -2.73198 0
M  V30 22276 N 3905.54 -4.38762 -1.4784 0
M  V30 22277 H 3902.7 -8.36803 -2.32493 0
M  V30 22278 H 3902.43 -6.70197 -1.71129 0
M  V30 22279 H 3903.29 -7.03551 -4.13168 0
M  V30 22280 P 3907.26 -7.20834 -5.23717 0
M  V30 22281 O 3907.48 -7.79853 -6.57286 0
M  V30 22282 O 3908.05 -7.79239 -4.12957 0
M  V30 22283 O 3907.51 -5.63315 -5.29344 0
M  V30 22284 C 3906.57 -4.80255 -6.01876 0
M  V30 22285 C 3907.3 -3.64202 -6.65911 0
M  V30 22286 O 3907.51 -2.60694 -5.64732 0
M  V30 22287 C 3908.7 -3.93473 -7.1943 0
M  V30 22288 O 3909.09 -3.02071 -8.21205 0
M  V30 22289 C 3909.58 -3.73047 -5.97036 0
M  V30 22290 C 3908.87 -2.58828 -5.25741 0
M  V30 22291 N 3908.92 -2.68068 -3.77503 0
M  V30 22292 H 3906.08 -5.40332 -6.79951 0
M  V30 22293 H 3905.81 -4.41613 -5.32378 0
M  V30 22294 H 3906.67 -3.26331 -7.47797 0
M  V30 22295 P 3910.64 -2.75334 -8.47391 0
M  V30 22296 O 3910.86 -2.44595 -9.90239 0
M  V30 22297 O 3911.43 -3.87732 -7.92204 0
M  V30 22298 O 3910.89 -1.4459 -7.59357 0
M  V30 22299 C 3909.95 -0.347563 -7.69115 0
M  V30 22300 C 3910.68 0.96767 -7.52806 0
M  V30 22301 O 3910.89 1.21036 -6.1011 0
M  V30 22302 C 3912.08 1.04544 -8.13308 0
M  V30 22303 O 3912.47 2.38311 -8.41922 0
M  V30 22304 C 3912.96 0.491279 -7.02284 0
M  V30 22305 C 3912.25 0.996264 -5.77469 0
M  V30 22306 N 3912.3 0.0501808 -4.62873 0
M  V30 22307 C 3912.45 0.588177 -3.36904 0
M  V30 22308 O 3912.54 1.78598 -3.17173 0
M  V30 22309 N 3912.49 -0.329694 -2.33686 0
M  V30 22310 C 3912.4 -1.6953 -2.45079 0
M  V30 22311 O 3912.45 -2.41926 -1.44899 0
M  V30 22312 C 3912.25 -2.16933 -3.80505 0
M  V30 22313 C 3912.14 -3.65373 -3.97621 0
M  V30 22314 C 3912.2 -1.30326 -4.83752 0
M  V30 22315 H 3909.46 -0.374722 -8.67691 0
M  V30 22316 H 3909.19 -0.443421 -6.90177 0
M  V30 22317 H 3910.05 1.75537 -7.96793 0
M  V30 22318 H 3912.71 1.94496 -5.46629 0
M  V30 22319 H 3912.99 -0.608651 -7.04676 0
M  V30 22320 H 3913.98 0.889672 -7.08939 0
M  V30 22321 H 3912.15 0.43308 -9.04564 0
M  V30 22322 H 3912.08 -1.68366 -5.8516 0
M  V30 22323 H 3913.11 -4.05985 -4.30448 0
M  V30 22324 H 3911.37 -3.88028 -4.72875 0
M  V30 22325 H 3911.86 -4.11381 -3.01609 0
M  V30 22326 H 3912.59 0.0393617 -1.41345 0
M  V30 22327 P 3914.02 2.75334 -8.47391 0
M  V30 22328 O 3914.24 3.84128 -9.44797 0
M  V30 22329 O 3914.81 1.51947 -8.68712 0
M  V30 22330 O 3914.27 3.29363 -6.99321 0
M  V30 22331 C 3913.33 4.24011 -6.4274 0
M  V30 22332 C 3914.06 5.20775 -5.52155 0
M  V30 22333 O 3914.27 4.56534 -4.22446 0
M  V30 22334 C 3915.46 5.62629 -5.96531 0
M  V30 22335 O 3915.85 6.87667 -5.41053 0
M  V30 22336 C 3916.34 4.52537 -5.39283 0
M  V30 22337 C 3915.63 4.20027 -4.08623 0
M  V30 22338 N 3915.68 2.76189 -3.71603 0
M  V30 22339 H 3912.84 4.797 -7.24003 0
M  V30 22340 H 3912.57 3.69856 -5.84513 0
M  V30 22341 H 3913.43 6.10356 -5.41441 0
M  V30 22342 P 3917.4 7.20834 -5.23717 0
M  V30 22343 O 3917.62 8.66104 -5.38572 0
M  V30 22344 O 3918.19 6.33544 -6.1349 0
M  V30 22345 O 3917.65 6.7751 -3.72168 0
M  V30 22346 C 3916.71 7.20825 -2.7076 0
M  V30 22347 C 3917.44 7.45864 -1.40599 0
M  V30 22348 O 3917.65 6.17651 -0.734225 0
M  V30 22349 C 3918.84 8.05808 -1.51899 0
M  V30 22350 O 3919.23 8.74358 -0.335205 0
M  V30 22351 C 3919.72 6.83093 -1.70294 0
M  V30 22352 C 3919.01 5.79992 -0.836974 0
M  V30 22353 N 3919.06 4.41864 -1.38293 0
M  V30 22354 H 3916.22 8.13644 -3.0377 0
M  V30 22355 H 3915.95 6.42788 -2.55485 0
M  V30 22356 H 3916.81 8.12039 -0.792769 0
M  V30 22357 P 3920.78 8.91 -1.55994e-10 0
M  V30 22358 O 3921 10.1726 0.733694 0
M  V30 22359 O 3921.57 8.73148 -1.23936 0
M  V30 22360 O 3921.03 7.66872 0.971405 0
M  V30 22361 C 3920.09 7.42309 2.04641 0
M  V30 22362 C 3920.82 6.86059 3.24661 0
M  V30 22363 O 3921.03 5.42847 3.03646 0
M  V30 22364 C 3922.22 7.41196 3.50753 0
M  V30 22365 O 3922.61 7.27073 4.86816 0
M  V30 22366 C 3923.1 6.5273 2.63741 0
M  V30 22367 C 3922.39 5.1842 2.73198 0
M  V30 22368 N 3922.44 4.38762 1.4784 0
M  V30 22369 C 3922.36 4.81605 0.168631 0
M  V30 22370 N 3922.44 3.85454 -0.713363 0
M  V30 22371 C 3922.58 2.6994 0.0566958 0
M  V30 22372 C 3922.71 1.34815 -0.338502 0
M  V30 22373 O 3922.73 0.869548 -1.47125 0
M  V30 22374 N 3922.83 0.496304 0.77465 0
M  V30 22375 C 3922.83 0.908403 2.09122 0
M  V30 22376 N 3922.96 -0.0517805 3.00955 0
M  V30 22377 N 3922.7 2.17875 2.46519 0
M  V30 22378 C 3922.58 3.01988 1.4033 0
M  V30 22379 H 3919.6 8.36803 2.32493 0
M  V30 22380 H 3919.33 6.70197 1.71129 0
M  V30 22381 H 3920.19 7.03551 4.13168 0
M  V30 22382 H 3922.85 4.59498 3.54415 0
M  V30 22383 H 3923.13 6.88898 1.59848 0
M  V30 22384 H 3924.12 6.46749 3.03687 0
M  V30 22385 H 3922.29 8.46908 3.20714 0
M  V30 22386 H 3922.24 5.86405 -0.105564 0
M  V30 22387 H 3922.92 -0.483664 0.597855 0
M  V30 22388 H 3922.96 0.187865 4.0116 0
M  V30 22389 H 3923.06 -1.03585 2.71726 0
M  V30 22390 P 3924.16 7.20834 5.23717 0
M  V30 22391 O 3924.38 7.79853 6.57286 0
M  V30 22392 O 3924.95 7.79239 4.12957 0
M  V30 22393 O 3924.41 5.63315 5.29344 0
M  V30 22394 C 3923.47 4.80255 6.01876 0
M  V30 22395 C 3924.2 3.64202 6.65911 0
M  V30 22396 O 3924.41 2.60694 5.64732 0
M  V30 22397 C 3925.6 3.93473 7.1943 0
M  V30 22398 O 3925.99 3.02071 8.21205 0
M  V30 22399 C 3926.48 3.73047 5.97036 0
M  V30 22400 C 3925.77 2.58828 5.25741 0
M  V30 22401 N 3925.82 2.68068 3.77503 0
M  V30 22402 H 3922.98 5.40332 6.79951 0
M  V30 22403 H 3922.71 4.41613 5.32378 0
M  V30 22404 H 3923.57 3.26331 7.47797 0
M  V30 22405 P 3927.54 2.75334 8.47391 0
M  V30 22406 O 3927.76 2.44571 9.90142 0
M  V30 22407 O 3928.33 3.87688 7.92115 0
M  V30 22408 O 3927.79 1.4459 7.59357 0
M  V30 22409 C 3926.85 0.347608 7.69215 0
M  V30 22410 C 3927.58 -0.96767 7.52806 0
M  V30 22411 O 3927.79 -1.21036 6.1011 0
M  V30 22412 C 3928.98 -1.04544 8.13308 0
M  V30 22413 O 3929.37 -2.38311 8.41922 0
M  V30 22414 C 3929.86 -0.491279 7.02284 0
M  V30 22415 C 3929.15 -0.996264 5.77469 0
M  V30 22416 N 3929.2 -0.0501916 4.62973 0
M  V30 22417 H 3926.36 0.374722 8.67691 0
M  V30 22418 H 3926.09 0.443485 6.90277 0
M  V30 22419 H 3926.95 -1.75537 7.96793 0
M  V30 22420 P 3930.92 -2.75334 8.47391 0
M  V30 22421 O 3931.14 -3.84128 9.44797 0
M  V30 22422 O 3931.71 -1.51947 8.68712 0
M  V30 22423 O 3931.17 -3.29363 6.99321 0
M  V30 22424 C 3930.23 -4.24011 6.4274 0
M  V30 22425 C 3930.96 -5.20775 5.52155 0
M  V30 22426 O 3931.17 -4.56534 4.22446 0
M  V30 22427 C 3932.36 -5.62629 5.96531 0
M  V30 22428 O 3932.75 -6.87667 5.41053 0
M  V30 22429 C 3933.24 -4.52537 5.39283 0
M  V30 22430 C 3932.53 -4.20027 4.08623 0
M  V30 22431 N 3932.58 -2.76189 3.71603 0
M  V30 22432 H 3929.74 -4.797 7.24003 0
M  V30 22433 H 3929.47 -3.69856 5.84513 0
M  V30 22434 H 3930.33 -6.10356 5.41441 0
M  V30 22435 P 3934.3 -7.20834 5.23717 0
M  V30 22436 O 3934.52 -8.66104 5.38572 0
M  V30 22437 O 3935.09 -6.33544 6.1349 0
M  V30 22438 O 3934.55 -6.7751 3.72168 0
M  V30 22439 C 3933.61 -7.20825 2.7076 0
M  V30 22440 C 3934.34 -7.45864 1.40599 0
M  V30 22441 O 3934.55 -6.17651 0.734225 0
M  V30 22442 C 3935.74 -8.05808 1.51899 0
M  V30 22443 O 3936.13 -8.74358 0.335205 0
M  V30 22444 C 3936.62 -6.83093 1.70294 0
M  V30 22445 C 3935.91 -5.79992 0.836974 0
M  V30 22446 N 3935.96 -4.41864 1.38293 0
M  V30 22447 H 3933.12 -8.13644 3.0377 0
M  V30 22448 H 3932.85 -6.42788 2.55485 0
M  V30 22449 H 3933.71 -8.12039 0.792769 0
M  V30 22450 P 3937.68 -8.91 1.57103e-10 0
M  V30 22451 O 3937.9 -10.1726 -0.733694 0
M  V30 22452 O 3938.47 -8.73148 1.23936 0
M  V30 22453 O 3937.93 -7.66872 -0.971405 0
M  V30 22454 C 3936.99 -7.42309 -2.04641 0
M  V30 22455 C 3937.72 -6.86059 -3.24661 0
M  V30 22456 O 3937.93 -5.42847 -3.03646 0
M  V30 22457 C 3939.12 -7.41196 -3.50753 0
M  V30 22458 O 3939.51 -7.27073 -4.86816 0
M  V30 22459 C 3940 -6.5273 -2.63741 0
M  V30 22460 C 3939.29 -5.1842 -2.73198 0
M  V30 22461 N 3939.34 -4.38762 -1.4784 0
M  V30 22462 H 3936.5 -8.36803 -2.32493 0
M  V30 22463 H 3936.23 -6.70197 -1.71129 0
M  V30 22464 H 3937.09 -7.03551 -4.13168 0
M  V30 22465 P 3941.06 -7.20834 -5.23717 0
M  V30 22466 O 3941.28 -7.79853 -6.57286 0
M  V30 22467 O 3941.85 -7.79239 -4.12957 0
M  V30 22468 O 3941.31 -5.63315 -5.29344 0
M  V30 22469 C 3940.37 -4.80255 -6.01876 0
M  V30 22470 C 3941.1 -3.64202 -6.65911 0
M  V30 22471 O 3941.31 -2.60694 -5.64732 0
M  V30 22472 C 3942.5 -3.93473 -7.1943 0
M  V30 22473 O 3942.89 -3.02071 -8.21205 0
M  V30 22474 C 3943.38 -3.73047 -5.97036 0
M  V30 22475 C 3942.67 -2.58828 -5.25741 0
M  V30 22476 N 3942.72 -2.68068 -3.77503 0
M  V30 22477 H 3939.88 -5.40332 -6.79951 0
M  V30 22478 H 3939.61 -4.41613 -5.32378 0
M  V30 22479 H 3940.47 -3.26331 -7.47797 0
M  V30 22480 P 3944.44 -2.75334 -8.47391 0
M  V30 22481 O 3944.66 -2.44571 -9.90142 0
M  V30 22482 O 3945.23 -3.87688 -7.92115 0
M  V30 22483 O 3944.69 -1.4459 -7.59357 0
M  V30 22484 C 3943.75 -0.347608 -7.69215 0
M  V30 22485 C 3944.48 0.96767 -7.52806 0
M  V30 22486 O 3944.69 1.21036 -6.1011 0
M  V30 22487 C 3945.88 1.04544 -8.13308 0
M  V30 22488 O 3946.27 2.38311 -8.41922 0
M  V30 22489 C 3946.76 0.491279 -7.02284 0
M  V30 22490 C 3946.05 0.996264 -5.77469 0
M  V30 22491 N 3946.1 0.0501916 -4.62973 0
M  V30 22492 H 3943.26 -0.374722 -8.67691 0
M  V30 22493 H 3942.99 -0.443485 -6.90277 0
M  V30 22494 H 3943.85 1.75537 -7.96793 0
M  V30 22495 P 3947.82 2.75334 -8.47391 0
M  V30 22496 O 3948.04 3.84204 -9.44982 0
M  V30 22497 O 3948.61 1.51982 -8.68909 0
M  V30 22498 O 3948.07 3.29363 -6.99321 0
M  V30 22499 C 3947.13 4.24066 -6.42823 0
M  V30 22500 C 3947.86 5.20775 -5.52155 0
M  V30 22501 O 3948.07 4.56607 -4.22514 0
M  V30 22502 C 3949.26 5.62697 -5.96604 0
M  V30 22503 O 3949.65 6.87667 -5.41053 0
M  V30 22504 C 3950.14 4.52537 -5.39283 0
M  V30 22505 C 3949.43 4.20027 -4.08623 0
M  V30 22506 N 3949.48 2.76189 -3.71603 0
M  V30 22507 H 3946.64 4.79756 -7.24086 0
M  V30 22508 H 3946.37 3.69963 -5.84682 0
M  V30 22509 H 3947.23 6.10431 -5.41508 0
M  V30 22510 H 3949.89 4.78816 -3.28024 0
M  V30 22511 H 3950.17 3.64957 -6.05871 0
M  V30 22512 H 3951.16 4.88748 -5.21323 0
M  V30 22513 H 3949.33 5.66789 -7.0643 0
M  V30 22514 P 3951.2 7.20834 -5.23717 0
M  V30 22515 O 3951.42 8.66104 -5.38572 0
M  V30 22516 O 3951.99 6.33544 -6.1349 0
M  V30 22517 O 3951.45 6.7751 -3.72168 0
M  V30 22518 C 3950.51 7.20825 -2.7076 0
M  V30 22519 C 3951.24 7.45864 -1.40599 0
M  V30 22520 O 3951.45 6.17651 -0.734225 0
M  V30 22521 C 3952.64 8.05808 -1.51899 0
M  V30 22522 O 3953.03 8.74358 -0.335205 0
M  V30 22523 C 3953.52 6.83093 -1.70294 0
M  V30 22524 C 3952.81 5.79992 -0.836974 0
M  V30 22525 N 3952.86 4.41864 -1.38293 0
M  V30 22526 H 3950.02 8.13644 -3.0377 0
M  V30 22527 H 3949.75 6.42788 -2.55485 0
M  V30 22528 H 3950.61 8.12039 -0.792769 0
M  V30 22529 P 3954.58 8.91 -1.58212e-10 0
M  V30 22530 O 3954.8 10.1726 0.733694 0
M  V30 22531 O 3955.37 8.73148 -1.23936 0
M  V30 22532 O 3954.83 7.66872 0.971405 0
M  V30 22533 C 3953.89 7.42309 2.04641 0
M  V30 22534 C 3954.62 6.86059 3.24661 0
M  V30 22535 O 3954.83 5.42847 3.03646 0
M  V30 22536 C 3956.02 7.41196 3.50753 0
M  V30 22537 O 3956.41 7.27073 4.86816 0
M  V30 22538 C 3956.9 6.5273 2.63741 0
M  V30 22539 C 3956.19 5.1842 2.73198 0
M  V30 22540 N 3956.24 4.38762 1.4784 0
M  V30 22541 H 3953.4 8.36803 2.32493 0
M  V30 22542 H 3953.13 6.70197 1.71129 0
M  V30 22543 H 3953.99 7.03551 4.13168 0
M  V30 22544 P 3957.96 7.20834 5.23717 0
M  V30 22545 O 3958.18 7.79853 6.57286 0
M  V30 22546 O 3958.75 7.79239 4.12957 0
M  V30 22547 O 3958.21 5.63315 5.29344 0
M  V30 22548 C 3957.27 4.80255 6.01876 0
M  V30 22549 C 3958 3.64202 6.65911 0
M  V30 22550 O 3958.21 2.60694 5.64732 0
M  V30 22551 C 3959.4 3.93473 7.1943 0
M  V30 22552 O 3959.79 3.02071 8.21205 0
M  V30 22553 C 3960.28 3.73047 5.97036 0
M  V30 22554 C 3959.57 2.58828 5.25741 0
M  V30 22555 N 3959.62 2.68068 3.77503 0
M  V30 22556 H 3956.78 5.40332 6.79951 0
M  V30 22557 H 3956.51 4.41613 5.32378 0
M  V30 22558 H 3957.37 3.26331 7.47797 0
M  V30 22559 P 3961.34 2.75334 8.47391 0
M  V30 22560 O 3961.56 2.44571 9.90142 0
M  V30 22561 O 3962.13 3.87688 7.92115 0
M  V30 22562 O 3961.59 1.4459 7.59357 0
M  V30 22563 C 3960.65 0.347608 7.69215 0
M  V30 22564 C 3961.38 -0.96767 7.52806 0
M  V30 22565 O 3961.59 -1.21036 6.1011 0
M  V30 22566 C 3962.78 -1.04544 8.13308 0
M  V30 22567 O 3963.17 -2.38311 8.41922 0
M  V30 22568 C 3963.66 -0.491279 7.02284 0
M  V30 22569 C 3962.95 -0.996264 5.77469 0
M  V30 22570 N 3963 -0.0501916 4.62973 0
M  V30 22571 H 3960.16 0.374722 8.67691 0
M  V30 22572 H 3959.89 0.443485 6.90277 0
M  V30 22573 H 3960.75 -1.75537 7.96793 0
M  V30 22574 P 3964.72 -2.75334 8.47391 0
M  V30 22575 O 3964.94 -3.84128 9.44797 0
M  V30 22576 O 3965.51 -1.51947 8.68712 0
M  V30 22577 O 3964.97 -3.29363 6.99321 0
M  V30 22578 C 3964.03 -4.24011 6.4274 0
M  V30 22579 C 3964.76 -5.20775 5.52155 0
M  V30 22580 O 3964.97 -4.56534 4.22446 0
M  V30 22581 C 3966.16 -5.62629 5.96531 0
M  V30 22582 O 3966.55 -6.87667 5.41053 0
M  V30 22583 C 3967.04 -4.52537 5.39283 0
M  V30 22584 C 3966.33 -4.20027 4.08623 0
M  V30 22585 N 3966.38 -2.76189 3.71603 0
M  V30 22586 H 3963.54 -4.797 7.24003 0
M  V30 22587 H 3963.27 -3.69856 5.84513 0
M  V30 22588 H 3964.13 -6.10356 5.41441 0
M  V30 22589 P 3968.1 -7.20834 5.23717 0
M  V30 22590 O 3968.32 -8.66104 5.38572 0
M  V30 22591 O 3968.89 -6.33544 6.1349 0
M  V30 22592 O 3968.35 -6.7751 3.72168 0
M  V30 22593 C 3967.41 -7.20825 2.7076 0
M  V30 22594 C 3968.14 -7.45864 1.40599 0
M  V30 22595 O 3968.35 -6.17651 0.734225 0
M  V30 22596 C 3969.54 -8.05808 1.51899 0
M  V30 22597 O 3969.93 -8.74358 0.335205 0
M  V30 22598 C 3970.42 -6.83093 1.70294 0
M  V30 22599 C 3969.71 -5.79992 0.836974 0
M  V30 22600 N 3969.76 -4.41864 1.38293 0
M  V30 22601 H 3966.92 -8.13644 3.0377 0
M  V30 22602 H 3966.65 -6.42788 2.55485 0
M  V30 22603 H 3967.51 -8.12039 0.792769 0
M  V30 22604 P 3971.48 -8.91 1.59321e-10 0
M  V30 22605 O 3971.7 -10.1746 -0.733838 0
M  V30 22606 O 3972.27 -8.73346 1.23964 0
M  V30 22607 O 3971.73 -7.66872 -0.971405 0
M  V30 22608 C 3970.79 -7.42405 -2.04668 0
M  V30 22609 C 3971.52 -6.86059 -3.24661 0
M  V30 22610 O 3971.73 -5.42934 -3.03695 0
M  V30 22611 C 3972.92 -7.41287 -3.50796 0
M  V30 22612 O 3973.31 -7.27073 -4.86816 0
M  V30 22613 C 3973.8 -6.5273 -2.63741 0
M  V30 22614 C 3973.09 -5.1842 -2.73198 0
M  V30 22615 N 3973.14 -4.38762 -1.4784 0
M  V30 22616 H 3970.3 -8.36899 -2.3252 0
M  V30 22617 H 3970.03 -6.70391 -1.71179 0
M  V30 22618 H 3970.89 -7.03638 -4.13219 0
M  V30 22619 H 3973.55 -4.59931 -3.54016 0
M  V30 22620 H 3973.83 -6.88995 -1.59871 0
M  V30 22621 H 3974.82 -6.4684 -3.0373 0
M  V30 22622 H 3972.99 -8.47002 -3.20749 0
M  V30 22623 P 3974.86 -7.20834 -5.23717 0
M  V30 22624 O 3975.08 -7.7993 -6.57351 0
M  V30 22625 O 3975.65 -7.79328 -4.13004 0
M  V30 22626 O 3975.11 -5.63315 -5.29344 0
M  V30 22627 C 3974.17 -4.80193 -6.01798 0
M  V30 22628 C 3974.9 -3.64202 -6.65911 0
M  V30 22629 O 3975.11 -2.60694 -5.64732 0
M  V30 22630 C 3976.3 -3.93473 -7.1943 0
M  V30 22631 O 3976.69 -3.02071 -8.21205 0
M  V30 22632 C 3977.18 -3.73047 -5.97036 0
M  V30 22633 C 3976.47 -2.58828 -5.25741 0
M  V30 22634 N 3976.52 -2.6801 -3.77422 0
M  V30 22635 C 3976.67 -1.50443 -3.07133 0
M  V30 22636 O 3976.76 -0.419406 -3.61576 0
M  V30 22637 N 3976.71 -1.6403 -1.69677 0
M  V30 22638 C 3976.62 -2.81206 -0.986255 0
M  V30 22639 O 3976.67 -2.80892 0.249754 0
M  V30 22640 C 3976.47 -3.99158 -1.80325 0
M  V30 22641 C 3976.36 -5.29309 -1.06921 0
M  V30 22642 C 3976.42 -3.89779 -3.1476 0
M  V30 22643 H 3973.68 -5.40332 -6.79951 0
M  V30 22644 H 3973.41 -4.41549 -5.32301 0
M  V30 22645 H 3974.27 -3.26331 -7.47797 0
M  V30 22646 H 3976.93 -1.6395 -5.56554 0
M  V30 22647 H 3977.21 -4.63439 -5.3432 0
M  V30 22648 H 3978.2 -3.44728 -6.25838 0
M  V30 22649 H 3976.37 -4.96652 -7.57263 0
M  V30 22650 H 3976.3 -4.80159 -3.74441 0
M  V30 22651 H 3977.33 -5.81459 -1.09608 0
M  V30 22652 H 3975.59 -5.9187 -1.54487 0
M  V30 22653 H 3976.08 -5.10095 -0.0220288 0
M  V30 22654 H 3976.81 -0.798962 -1.16664 0
M  V30 22655 P 3978.24 -2.75334 -8.47391 0
M  V30 22656 O 3978.46 -2.44571 -9.90142 0
M  V30 22657 O 3979.03 -3.87688 -7.92115 0
M  V30 22658 O 3978.49 -1.4459 -7.59357 0
M  V30 22659 C 3977.55 -0.347608 -7.69215 0
M  V30 22660 C 3978.28 0.96767 -7.52806 0
M  V30 22661 O 3978.49 1.21036 -6.1011 0
M  V30 22662 C 3979.68 1.04544 -8.13308 0
M  V30 22663 O 3980.07 2.38311 -8.41922 0
M  V30 22664 C 3980.56 0.491279 -7.02284 0
M  V30 22665 C 3979.85 0.996264 -5.77469 0
M  V30 22666 N 3979.9 0.0501916 -4.62973 0
M  V30 22667 H 3977.06 -0.374722 -8.67691 0
M  V30 22668 H 3976.79 -0.443485 -6.90277 0
M  V30 22669 H 3977.65 1.75537 -7.96793 0
M  V30 22670 P 3981.62 2.75334 -8.47391 0
M  V30 22671 O 3981.84 3.84128 -9.44797 0
M  V30 22672 O 3982.41 1.51947 -8.68712 0
M  V30 22673 O 3981.87 3.29363 -6.99321 0
M  V30 22674 C 3980.93 4.24011 -6.4274 0
M  V30 22675 C 3981.66 5.20775 -5.52155 0
M  V30 22676 O 3981.87 4.56534 -4.22446 0
M  V30 22677 C 3983.06 5.62629 -5.96531 0
M  V30 22678 O 3983.45 6.87667 -5.41053 0
M  V30 22679 C 3983.94 4.52537 -5.39283 0
M  V30 22680 C 3983.23 4.20027 -4.08623 0
M  V30 22681 N 3983.28 2.76189 -3.71603 0
M  V30 22682 H 3980.44 4.797 -7.24003 0
M  V30 22683 H 3980.17 3.69856 -5.84513 0
M  V30 22684 H 3981.03 6.10356 -5.41441 0
M  V30 22685 P 3985 7.20834 -5.23717 0
M  V30 22686 O 3985.22 8.66274 -5.38678 0
M  V30 22687 O 3985.79 6.33687 -6.13629 0
M  V30 22688 O 3985.25 6.7751 -3.72168 0
M  V30 22689 C 3984.31 7.20919 -2.70795 0
M  V30 22690 C 3985.04 7.45864 -1.40599 0
M  V30 22691 O 3985.25 6.17751 -0.734343 0
M  V30 22692 C 3986.44 8.05906 -1.51917 0
M  V30 22693 O 3986.83 8.74358 -0.335205 0
M  V30 22694 C 3987.32 6.83093 -1.70294 0
M  V30 22695 C 3986.61 5.79992 -0.836974 0
M  V30 22696 N 3986.66 4.41864 -1.38293 0
M  V30 22697 C 3986.58 4.02089 -2.69407 0
M  V30 22698 N 3986.65 2.73403 -2.85089 0
M  V30 22699 C 3986.8 2.25086 -1.5642 0
M  V30 22700 C 3986.93 0.942887 -1.04836 0
M  V30 22701 N 3986.94 -0.150999 -1.80369 0
M  V30 22702 N 3987.05 0.812565 0.28167 0
M  V30 22703 C 3987.04 1.90572 1.03784 0
M  V30 22704 N 3986.92 3.167 0.683905 0
M  V30 22705 C 3986.8 3.26538 -0.652815 0
M  V30 22706 H 3983.82 8.13738 -3.03804 0
M  V30 22707 H 3983.55 6.42974 -2.55559 0
M  V30 22708 H 3984.41 8.12139 -0.792866 0
M  V30 22709 H 3987.07 5.80178 0.160643 0
M  V30 22710 H 3987.35 6.51379 -2.75643 0
M  V30 22711 H 3988.34 7.01832 -1.3448 0
M  V30 22712 H 3986.51 8.73771 -2.38364 0
M  V30 22713 H 3986.47 4.7189 -3.52311 0
M  V30 22714 H 3986.85 -0.0721434 -2.82608 0
M  V30 22715 H 3987.04 -1.0785 -1.36544 0
M  V30 22716 H 3987.14 1.73207 2.10241 0
M  V30 22717 P 3988.38 8.91 -1.6043e-10 0
M  V30 22718 O 3988.6 10.1726 0.733694 0
M  V30 22719 O 3989.17 8.73148 -1.23936 0
M  V30 22720 O 3988.63 7.66872 0.971405 0
M  V30 22721 C 3987.69 7.42309 2.04641 0
M  V30 22722 C 3988.42 6.86059 3.24661 0
M  V30 22723 O 3988.63 5.42847 3.03646 0
M  V30 22724 C 3989.82 7.41196 3.50753 0
M  V30 22725 O 3990.21 7.27073 4.86816 0
M  V30 22726 C 3990.7 6.5273 2.63741 0
M  V30 22727 C 3989.99 5.1842 2.73198 0
M  V30 22728 N 3990.04 4.38762 1.4784 0
M  V30 22729 H 3987.2 8.36803 2.32493 0
M  V30 22730 H 3986.93 6.70197 1.71129 0
M  V30 22731 H 3987.79 7.03551 4.13168 0
M  V30 22732 P 3991.76 7.20834 5.23717 0
M  V30 22733 O 3991.98 7.79853 6.57286 0
M  V30 22734 O 3992.55 7.79239 4.12957 0
M  V30 22735 O 3992.01 5.63315 5.29344 0
M  V30 22736 C 3991.07 4.80255 6.01876 0
M  V30 22737 C 3991.8 3.64202 6.65911 0
M  V30 22738 O 3992.01 2.60694 5.64732 0
M  V30 22739 C 3993.2 3.93473 7.1943 0
M  V30 22740 O 3993.59 3.02071 8.21205 0
M  V30 22741 C 3994.08 3.73047 5.97036 0
M  V30 22742 C 3993.37 2.58828 5.25741 0
M  V30 22743 N 3993.42 2.68068 3.77503 0
M  V30 22744 C 3993.34 3.79715 2.96723 0
M  V30 22745 N 3993.42 3.5377 1.68852 0
M  V30 22746 C 3993.56 2.15054 1.63254 0
M  V30 22747 C 3993.69 1.28964 0.518571 0
M  V30 22748 N 3993.81 -0.0538097 0.918425 0
M  V30 22749 C 3993.81 -0.494275 2.22578 0
M  V30 22750 N 3993.94 -1.81086 2.40434 0
M  V30 22751 N 3993.68 0.313645 3.27502 0
M  V30 22752 C 3993.56 1.61829 2.91033 0
M  V30 22753 H 3990.58 5.40332 6.79951 0
M  V30 22754 H 3990.31 4.41613 5.32378 0
M  V30 22755 H 3991.17 3.26331 7.47797 0
M  V30 22756 P 3995.14 2.75334 8.47391 0
M  V30 22757 O 3995.36 2.44571 9.90142 0
M  V30 22758 O 3995.93 3.87688 7.92115 0
M  V30 22759 O 3995.39 1.4459 7.59357 0
M  V30 22760 C 3994.45 0.347608 7.69215 0
M  V30 22761 C 3995.18 -0.96767 7.52806 0
M  V30 22762 O 3995.39 -1.21036 6.1011 0
M  V30 22763 C 3996.58 -1.04544 8.13308 0
M  V30 22764 O 3996.97 -2.38311 8.41922 0
M  V30 22765 C 3997.46 -0.491279 7.02284 0
M  V30 22766 C 3996.75 -0.996264 5.77469 0
M  V30 22767 N 3996.8 -0.0501916 4.62973 0
M  V30 22768 H 3993.96 0.374722 8.67691 0
M  V30 22769 H 3993.69 0.443485 6.90277 0
M  V30 22770 H 3994.55 -1.75537 7.96793 0
M  V30 22771 P 3998.52 -2.75334 8.47391 0
M  V30 22772 O 3998.74 -3.84128 9.44797 0
M  V30 22773 O 3999.31 -1.51947 8.68712 0
M  V30 22774 O 3998.77 -3.29363 6.99321 0
M  V30 22775 C 3997.83 -4.24011 6.4274 0
M  V30 22776 C 3998.56 -5.20775 5.52155 0
M  V30 22777 O 3998.77 -4.56534 4.22446 0
M  V30 22778 C 3999.96 -5.62629 5.96531 0
M  V30 22779 O 4000.35 -6.87667 5.41053 0
M  V30 22780 C 4000.84 -4.52537 5.39283 0
M  V30 22781 C 4000.13 -4.20027 4.08623 0
M  V30 22782 N 4000.18 -2.76189 3.71603 0
M  V30 22783 H 3997.34 -4.797 7.24003 0
M  V30 22784 H 3997.07 -3.69856 5.84513 0
M  V30 22785 H 3997.93 -6.10356 5.41441 0
M  V30 22786 P 4001.9 -7.20834 5.23717 0
M  V30 22787 O 4002.12 -8.66104 5.38572 0
M  V30 22788 O 4002.69 -6.33544 6.1349 0
M  V30 22789 O 4002.15 -6.7751 3.72168 0
M  V30 22790 C 4001.21 -7.20825 2.7076 0
M  V30 22791 C 4001.94 -7.45864 1.40599 0
M  V30 22792 O 4002.15 -6.17651 0.734225 0
M  V30 22793 C 4003.34 -8.05808 1.51899 0
M  V30 22794 O 4003.73 -8.74358 0.335205 0
M  V30 22795 C 4004.22 -6.83093 1.70294 0
M  V30 22796 C 4003.51 -5.79992 0.836974 0
M  V30 22797 N 4003.56 -4.41864 1.38293 0
M  V30 22798 H 4000.72 -8.13644 3.0377 0
M  V30 22799 H 4000.45 -6.42788 2.55485 0
M  V30 22800 H 4001.31 -8.12039 0.792769 0
M  V30 22801 P 4005.28 -8.91 1.61539e-10 0
M  V30 22802 O 4005.5 -10.1746 -0.733838 0
M  V30 22803 O 4006.07 -8.73346 1.23964 0
M  V30 22804 O 4005.53 -7.66872 -0.971405 0
M  V30 22805 C 4004.59 -7.42405 -2.04668 0
M  V30 22806 C 4005.32 -6.86059 -3.24661 0
M  V30 22807 O 4005.53 -5.42934 -3.03695 0
M  V30 22808 C 4006.72 -7.41287 -3.50796 0
M  V30 22809 O 4007.11 -7.27073 -4.86816 0
M  V30 22810 C 4007.6 -6.5273 -2.63741 0
M  V30 22811 C 4006.89 -5.1842 -2.73198 0
M  V30 22812 N 4006.94 -4.38762 -1.4784 0
M  V30 22813 C 4006.86 -4.83651 -0.183876 0
M  V30 22814 N 4006.93 -3.88759 0.699393 0
M  V30 22815 C 4007.08 -2.7404 -0.0575568 0
M  V30 22816 C 4007.21 -1.37902 0.293928 0
M  V30 22817 N 4007.22 -0.938021 1.54797 0
M  V30 22818 N 4007.33 -0.491817 -0.70549 0
M  V30 22819 C 4007.32 -0.931735 -1.95979 0
M  V30 22820 N 4007.2 -2.16017 -2.41481 0
M  V30 22821 C 4007.08 -3.02547 -1.39121 0
M  V30 22822 H 4004.1 -8.36899 -2.3252 0
M  V30 22823 H 4003.83 -6.70391 -1.71179 0
M  V30 22824 H 4004.69 -7.03638 -4.13219 0
M  V30 22825 H 4007.35 -4.59931 -3.54016 0
M  V30 22826 H 4007.63 -6.88995 -1.59871 0
M  V30 22827 H 4008.62 -6.4684 -3.0373 0
M  V30 22828 H 4006.79 -8.47002 -3.20749 0
M  V30 22829 H 4006.75 -5.8885 0.0765548 0
M  V30 22830 H 4007.13 -1.60276 2.32875 0
M  V30 22831 H 4007.32 0.0699355 1.73859 0
M  V30 22832 H 4007.42 -0.165507 -2.71897 0
M  V30 22833 P 4008.66 -7.20834 -5.23717 0
M  V30 22834 O 4008.88 -7.79853 -6.57286 0
M  V30 22835 O 4009.45 -7.79239 -4.12957 0
M  V30 22836 O 4008.91 -5.63315 -5.29344 0
M  V30 22837 C 4007.97 -4.80255 -6.01876 0
M  V30 22838 C 4008.7 -3.64202 -6.65911 0
M  V30 22839 O 4008.91 -2.60694 -5.64732 0
M  V30 22840 C 4010.1 -3.93473 -7.1943 0
M  V30 22841 O 4010.49 -3.02071 -8.21205 0
M  V30 22842 C 4010.98 -3.73047 -5.97036 0
M  V30 22843 C 4010.27 -2.58828 -5.25741 0
M  V30 22844 N 4010.32 -2.68068 -3.77503 0
M  V30 22845 H 4007.48 -5.40332 -6.79951 0
M  V30 22846 H 4007.21 -4.41613 -5.32378 0
M  V30 22847 H 4008.07 -3.26331 -7.47797 0
M  V30 22848 P 4012.04 -2.75334 -8.47391 0
M  V30 22849 O 4012.26 -2.44595 -9.90239 0
M  V30 22850 O 4012.83 -3.87732 -7.92204 0
M  V30 22851 O 4012.29 -1.4459 -7.59357 0
M  V30 22852 C 4011.35 -0.347608 -7.69215 0
M  V30 22853 C 4012.08 0.96767 -7.52806 0
M  V30 22854 O 4012.29 1.21036 -6.1011 0
M  V30 22855 C 4013.48 1.04544 -8.13308 0
M  V30 22856 O 4013.87 2.38311 -8.41922 0
M  V30 22857 C 4014.36 0.491279 -7.02284 0
M  V30 22858 C 4013.65 0.996264 -5.77469 0
M  V30 22859 N 4013.7 0.0501808 -4.62873 0
M  V30 22860 C 4013.85 0.578037 -3.3505 0
M  V30 22861 O 4013.94 1.8073 -3.21711 0
M  V30 22862 N 4013.9 -0.468541 -2.263 0
M  V30 22863 C 4013.8 -1.59186 -2.47176 0
M  V30 22864 N 4013.85 -2.37626 -1.40392 0
M  V30 22865 C 4013.65 -2.16203 -3.77467 0
M  V30 22866 C 4013.6 -1.29324 -4.8195 0
M  V30 22867 H 4010.86 -0.374679 -8.67591 0
M  V30 22868 H 4010.59 -0.443421 -6.90177 0
M  V30 22869 H 4011.45 1.75559 -7.96891 0
M  V30 22870 H 4014.11 1.94529 -5.46723 0
M  V30 22871 H 4014.39 -0.608651 -7.04676 0
M  V30 22872 H 4015.38 0.889672 -7.08939 0
M  V30 22873 H 4013.55 0.43308 -9.04564 0
M  V30 22874 H 4013.47 -1.67758 -5.83046 0
M  V30 22875 H 4013.58 -3.23869 -3.92281 0
M  V30 22876 H 4013.96 -1.96317 -0.467202 0
M  V30 22877 H 4013.77 -3.39693 -1.51142 0
M  V30 22878 P 4015.42 2.75334 -8.47391 0
M  V30 22879 O 4015.64 3.84166 -9.4489 0
M  V30 22880 O 4016.21 1.51964 -8.6881 0
M  V30 22881 O 4015.67 3.29363 -6.99321 0
M  V30 22882 C 4014.73 4.23956 -6.42656 0
M  V30 22883 C 4015.46 5.20775 -5.52155 0
M  V30 22884 O 4015.67 4.56534 -4.22446 0
M  V30 22885 C 4016.86 5.62629 -5.96531 0
M  V30 22886 O 4017.25 6.87667 -5.41053 0
M  V30 22887 C 4017.74 4.52537 -5.39283 0
M  V30 22888 C 4017.03 4.20027 -4.08623 0
M  V30 22889 N 4017.08 2.7613 -3.71522 0
M  V30 22890 C 4017.23 2.45612 -2.37989 0
M  V30 22891 O 4017.32 3.30919 -1.51621 0
M  V30 22892 N 4017.27 1.10684 -2.08435 0
M  V30 22893 C 4017.18 0.0690084 -2.9792 0
M  V30 22894 C 4017.03 0.481522 -4.35345 0
M  V30 22895 C 4016.98 1.78906 -4.67968 0
M  V30 22896 H 4014.24 4.797 -7.24003 0
M  V30 22897 H 4013.97 3.69802 -5.84429 0
M  V30 22898 H 4014.83 6.10356 -5.41441 0
M  V30 22899 H 4017.49 4.78651 -3.27911 0
M  V30 22900 H 4017.77 3.64957 -6.05871 0
M  V30 22901 H 4018.76 4.8868 -5.2125 0
M  V30 22902 H 4016.93 5.66726 -7.06352 0
M  V30 22903 H 4016.86 2.07737 -5.72367 0
M  V30 22904 P 4018.8 7.20834 -5.23717 0
M  V30 22905 O 4019.02 8.66189 -5.38625 0
M  V30 22906 O 4019.59 6.33615 -6.1356 0
M  V30 22907 O 4019.05 6.7751 -3.72168 0
M  V30 22908 C 4018.11 7.20732 -2.70725 0
M  V30 22909 C 4018.84 7.45864 -1.40599 0
M  V30 22910 O 4019.05 6.17651 -0.734225 0
M  V30 22911 C 4020.24 8.05808 -1.51899 0
M  V30 22912 O 4020.63 8.74358 -0.335205 0
M  V30 22913 C 4021.12 6.83093 -1.70294 0
M  V30 22914 C 4020.41 5.79992 -0.836974 0
M  V30 22915 N 4020.46 4.41769 -1.38263 0
M  V30 22916 C 4020.61 3.38591 -0.481702 0
M  V30 22917 O 4020.7 3.56839 0.718452 0
M  V30 22918 N 4020.65 2.1206 -1.03569 0
M  V30 22919 C 4020.56 1.80696 -2.36966 0
M  V30 22920 O 4020.61 0.630473 -2.74862 0
M  V30 22921 C 4020.41 2.94845 -3.23898 0
M  V30 22922 C 4020.3 2.65253 -4.70362 0
M  V30 22923 C 4020.36 4.19803 -2.73435 0
M  V30 22924 H 4017.62 8.13644 -3.0377 0
M  V30 22925 H 4017.35 6.42695 -2.55448 0
M  V30 22926 H 4018.21 8.12039 -0.792769 0
M  V30 22927 H 4020.87 5.79978 0.160587 0
M  V30 22928 H 4021.15 6.51379 -2.75643 0
M  V30 22929 H 4022.14 7.01734 -1.34462 0
M  V30 22930 H 4020.31 8.73674 -2.38337 0
M  V30 22931 H 4020.24 5.04492 -3.4095 0
M  V30 22932 H 4021.27 2.83924 -5.1913 0
M  V30 22933 H 4019.53 3.29824 -5.15163 0
M  V30 22934 H 4020.02 1.59723 -4.84449 0
M  V30 22935 H 4020.75 1.35644 -0.399345 0
M  V30 22936 P 4022.18 8.91 -1.62648e-10 0
M  V30 22937 O 4022.4 10.1746 0.733838 0
M  V30 22938 O 4022.97 8.73346 -1.23964 0
M  V30 22939 O 4022.43 7.66872 0.971405 0
M  V30 22940 C 4021.49 7.42405 2.04668 0
M  V30 22941 C 4022.22 6.86059 3.24661 0
M  V30 22942 O 4022.43 5.42934 3.03695 0
M  V30 22943 C 4023.62 7.41287 3.50796 0
M  V30 22944 O 4024.01 7.27073 4.86816 0
M  V30 22945 C 4024.5 6.5273 2.63741 0
M  V30 22946 C 4023.79 5.1842 2.73198 0
M  V30 22947 N 4023.84 4.38762 1.4784 0
M  V30 22948 C 4023.76 4.83651 0.183876 0
M  V30 22949 N 4023.83 3.88759 -0.699393 0
M  V30 22950 C 4023.98 2.7404 0.0575568 0
M  V30 22951 C 4024.11 1.37902 -0.293928 0
M  V30 22952 N 4024.12 0.938021 -1.54797 0
M  V30 22953 N 4024.23 0.491817 0.70549 0
M  V30 22954 C 4024.22 0.931735 1.95979 0
M  V30 22955 N 4024.1 2.16017 2.41481 0
M  V30 22956 C 4023.98 3.02547 1.39121 0
M  V30 22957 H 4021 8.36899 2.3252 0
M  V30 22958 H 4020.73 6.70391 1.71179 0
M  V30 22959 H 4021.59 7.03638 4.13219 0
M  V30 22960 H 4024.25 4.59931 3.54016 0
M  V30 22961 H 4024.53 6.88995 1.59871 0
M  V30 22962 H 4025.52 6.4684 3.0373 0
M  V30 22963 H 4023.69 8.47002 3.20749 0
M  V30 22964 H 4023.65 5.8885 -0.0765548 0
M  V30 22965 H 4024.03 1.60276 -2.32875 0
M  V30 22966 H 4024.22 -0.0699355 -1.73859 0
M  V30 22967 H 4024.32 0.165507 2.71897 0
M  V30 22968 P 4025.56 7.20834 5.23717 0
M  V30 22969 O 4025.78 7.79853 6.57286 0
M  V30 22970 O 4026.35 7.79239 4.12957 0
M  V30 22971 O 4025.81 5.63315 5.29344 0
M  V30 22972 C 4024.87 4.80255 6.01876 0
M  V30 22973 C 4025.6 3.64202 6.65911 0
M  V30 22974 O 4025.81 2.60694 5.64732 0
M  V30 22975 C 4027 3.93473 7.1943 0
M  V30 22976 O 4027.39 3.02071 8.21205 0
M  V30 22977 C 4027.88 3.73047 5.97036 0
M  V30 22978 C 4027.17 2.58828 5.25741 0
M  V30 22979 N 4027.22 2.68068 3.77503 0
M  V30 22980 H 4024.38 5.40332 6.79951 0
M  V30 22981 H 4024.11 4.41613 5.32378 0
M  V30 22982 H 4024.97 3.26331 7.47797 0
M  V30 22983 P 4028.94 2.75334 8.47391 0
M  V30 22984 O 4029.16 2.44571 9.90142 0
M  V30 22985 O 4029.73 3.87688 7.92115 0
M  V30 22986 O 4029.19 1.4459 7.59357 0
M  V30 22987 C 4028.25 0.347608 7.69215 0
M  V30 22988 C 4028.98 -0.96767 7.52806 0
M  V30 22989 O 4029.19 -1.21036 6.1011 0
M  V30 22990 C 4030.38 -1.04544 8.13308 0
M  V30 22991 O 4030.77 -2.38311 8.41922 0
M  V30 22992 C 4031.26 -0.491279 7.02284 0
M  V30 22993 C 4030.55 -0.996264 5.77469 0
M  V30 22994 N 4030.6 -0.0501916 4.62973 0
M  V30 22995 H 4027.76 0.374722 8.67691 0
M  V30 22996 H 4027.49 0.443485 6.90277 0
M  V30 22997 H 4028.35 -1.75537 7.96793 0
M  V30 22998 P 4032.32 -2.75334 8.47391 0
M  V30 22999 O 4032.54 -3.84128 9.44797 0
M  V30 23000 O 4033.11 -1.51947 8.68712 0
M  V30 23001 O 4032.57 -3.29363 6.99321 0
M  V30 23002 C 4031.63 -4.24011 6.4274 0
M  V30 23003 C 4032.36 -5.20775 5.52155 0
M  V30 23004 O 4032.57 -4.56534 4.22446 0
M  V30 23005 C 4033.76 -5.62629 5.96531 0
M  V30 23006 O 4034.15 -6.87667 5.41053 0
M  V30 23007 C 4034.64 -4.52537 5.39283 0
M  V30 23008 C 4033.93 -4.20027 4.08623 0
M  V30 23009 N 4033.98 -2.76189 3.71603 0
M  V30 23010 H 4031.14 -4.797 7.24003 0
M  V30 23011 H 4030.87 -3.69856 5.84513 0
M  V30 23012 H 4031.73 -6.10356 5.41441 0
M  V30 23013 P 4035.7 -7.20834 5.23717 0
M  V30 23014 O 4035.92 -8.66274 5.38678 0
M  V30 23015 O 4036.49 -6.33687 6.13629 0
M  V30 23016 O 4035.95 -6.7751 3.72168 0
M  V30 23017 C 4035.01 -7.20919 2.70795 0
M  V30 23018 C 4035.74 -7.45864 1.40599 0
M  V30 23019 O 4035.95 -6.17751 0.734343 0
M  V30 23020 C 4037.14 -8.05906 1.51917 0
M  V30 23021 O 4037.53 -8.74358 0.335205 0
M  V30 23022 C 4038.02 -6.83093 1.70294 0
M  V30 23023 C 4037.31 -5.79992 0.836974 0
M  V30 23024 N 4037.36 -4.41864 1.38293 0
M  V30 23025 H 4034.52 -8.13738 3.03804 0
M  V30 23026 H 4034.25 -6.42974 2.55559 0
M  V30 23027 H 4035.11 -8.12139 0.792866 0
M  V30 23028 H 4037.77 -5.80178 -0.160643 0
M  V30 23029 H 4038.05 -6.51379 2.75643 0
M  V30 23030 H 4039.04 -7.01832 1.3448 0
M  V30 23031 H 4037.21 -8.73771 2.38364 0
M  V30 23032 P 4039.08 -8.91 1.63757e-10 0
M  V30 23033 O 4039.3 -10.1726 -0.733694 0
M  V30 23034 O 4039.87 -8.73148 1.23936 0
M  V30 23035 O 4039.33 -7.66872 -0.971405 0
M  V30 23036 C 4038.39 -7.42309 -2.04641 0
M  V30 23037 C 4039.12 -6.86059 -3.24661 0
M  V30 23038 O 4039.33 -5.42847 -3.03646 0
M  V30 23039 C 4040.52 -7.41196 -3.50753 0
M  V30 23040 O 4040.91 -7.27073 -4.86816 0
M  V30 23041 C 4041.4 -6.5273 -2.63741 0
M  V30 23042 C 4040.69 -5.1842 -2.73198 0
M  V30 23043 N 4040.74 -4.38762 -1.4784 0
M  V30 23044 C 4040.66 -4.81605 -0.168631 0
M  V30 23045 N 4040.74 -3.85454 0.713363 0
M  V30 23046 C 4040.88 -2.6994 -0.0566958 0
M  V30 23047 C 4041.01 -1.34815 0.338502 0
M  V30 23048 O 4041.03 -0.869548 1.47125 0
M  V30 23049 N 4041.13 -0.496304 -0.77465 0
M  V30 23050 C 4041.13 -0.908403 -2.09122 0
M  V30 23051 N 4041.26 0.0517805 -3.00955 0
M  V30 23052 N 4041 -2.17875 -2.46519 0
M  V30 23053 C 4040.88 -3.01988 -1.4033 0
M  V30 23054 H 4037.9 -8.36803 -2.32493 0
M  V30 23055 H 4037.63 -6.70197 -1.71129 0
M  V30 23056 H 4038.49 -7.03551 -4.13168 0
M  V30 23057 H 4041.15 -4.59498 -3.54415 0
M  V30 23058 H 4041.43 -6.88898 -1.59848 0
M  V30 23059 H 4042.42 -6.46749 -3.03687 0
M  V30 23060 H 4040.59 -8.46908 -3.20714 0
M  V30 23061 H 4040.54 -5.86405 0.105564 0
M  V30 23062 H 4041.22 0.483664 -0.597855 0
M  V30 23063 H 4041.26 -0.187865 -4.0116 0
M  V30 23064 H 4041.36 1.03585 -2.71726 0
M  V30 23065 P 4042.46 -7.20834 -5.23717 0
M  V30 23066 O 4042.68 -7.7993 -6.57351 0
M  V30 23067 O 4043.25 -7.79328 -4.13004 0
M  V30 23068 O 4042.71 -5.63315 -5.29344 0
M  V30 23069 C 4041.77 -4.80193 -6.01798 0
M  V30 23070 C 4042.5 -3.64202 -6.65911 0
M  V30 23071 O 4042.71 -2.60694 -5.64732 0
M  V30 23072 C 4043.9 -3.93473 -7.1943 0
M  V30 23073 O 4044.29 -3.02071 -8.21205 0
M  V30 23074 C 4044.78 -3.73047 -5.97036 0
M  V30 23075 C 4044.07 -2.58828 -5.25741 0
M  V30 23076 N 4044.12 -2.6801 -3.77422 0
M  V30 23077 C 4044.27 -1.50443 -3.07133 0
M  V30 23078 O 4044.36 -0.419406 -3.61576 0
M  V30 23079 N 4044.31 -1.6403 -1.69677 0
M  V30 23080 C 4044.22 -2.81206 -0.986255 0
M  V30 23081 C 4044.07 -3.99158 -1.80325 0
M  V30 23082 C 4044.02 -3.89779 -3.1476 0
M  V30 23083 H 4041.28 -5.40332 -6.79951 0
M  V30 23084 H 4041.01 -4.41549 -5.32301 0
M  V30 23085 H 4041.87 -3.26331 -7.47797 0
M  V30 23086 H 4044.53 -1.6395 -5.56554 0
M  V30 23087 H 4044.81 -4.63439 -5.3432 0
M  V30 23088 H 4045.8 -3.44728 -6.25838 0
M  V30 23089 H 4043.97 -4.96652 -7.57263 0
M  V30 23090 H 4043.9 -4.80159 -3.74441 0
M  V30 23091 P 4045.84 -2.75334 -8.47391 0
M  V30 23092 O 4046.06 -2.44595 -9.90239 0
M  V30 23093 O 4046.63 -3.87732 -7.92204 0
M  V30 23094 O 4046.09 -1.4459 -7.59357 0
M  V30 23095 C 4045.15 -0.347563 -7.69115 0
M  V30 23096 C 4045.88 0.96767 -7.52806 0
M  V30 23097 O 4046.09 1.21036 -6.1011 0
M  V30 23098 C 4047.28 1.04544 -8.13308 0
M  V30 23099 O 4047.67 2.38311 -8.41922 0
M  V30 23100 C 4048.16 0.491279 -7.02284 0
M  V30 23101 C 4047.45 0.996264 -5.77469 0
M  V30 23102 N 4047.5 0.0501808 -4.62873 0
M  V30 23103 C 4047.65 0.588177 -3.36904 0
M  V30 23104 O 4047.74 1.78598 -3.17173 0
M  V30 23105 N 4047.69 -0.329694 -2.33686 0
M  V30 23106 C 4047.6 -1.6953 -2.45079 0
M  V30 23107 C 4047.45 -2.16933 -3.80505 0
M  V30 23108 C 4047.4 -1.30326 -4.83752 0
M  V30 23109 H 4044.66 -0.374722 -8.67691 0
M  V30 23110 H 4044.39 -0.443421 -6.90177 0
M  V30 23111 H 4045.25 1.75537 -7.96793 0
M  V30 23112 H 4047.91 1.94496 -5.46629 0
M  V30 23113 H 4048.19 -0.608651 -7.04676 0
M  V30 23114 H 4049.18 0.889672 -7.08939 0
M  V30 23115 H 4047.35 0.43308 -9.04564 0
M  V30 23116 H 4047.28 -1.68366 -5.8516 0
M  V30 23117 P 4049.22 2.75334 -8.47391 0
M  V30 23118 O 4049.44 3.84204 -9.44982 0
M  V30 23119 O 4050.01 1.51982 -8.68909 0
M  V30 23120 O 4049.47 3.29363 -6.99321 0
M  V30 23121 C 4048.53 4.24066 -6.42823 0
M  V30 23122 C 4049.26 5.20775 -5.52155 0
M  V30 23123 O 4049.47 4.56607 -4.22514 0
M  V30 23124 C 4050.66 5.62697 -5.96604 0
M  V30 23125 O 4051.05 6.87667 -5.41053 0
M  V30 23126 C 4051.54 4.52537 -5.39283 0
M  V30 23127 C 4050.83 4.20027 -4.08623 0
M  V30 23128 N 4050.88 2.76189 -3.71603 0
M  V30 23129 C 4050.8 1.66944 -4.54297 0
M  V30 23130 N 4050.87 0.536169 -3.91344 0
M  V30 23131 C 4051.02 0.901569 -2.58849 0
M  V30 23132 C 4051.15 0.146599 -1.40236 0
M  V30 23133 N 4051.16 -1.18234 -1.37046 0
M  V30 23134 N 4051.27 0.822941 -0.249738 0
M  V30 23135 C 4051.26 2.15179 -0.280525 0
M  V30 23136 N 4051.14 2.96414 -1.30822 0
M  V30 23137 C 4051.02 2.25804 -2.44748 0
M  V30 23138 H 4048.04 4.79756 -7.24086 0
M  V30 23139 H 4047.77 3.69963 -5.84682 0
M  V30 23140 H 4048.63 6.10431 -5.41508 0
M  V30 23141 H 4051.29 4.78816 -3.28024 0
M  V30 23142 H 4051.57 3.64957 -6.05871 0
M  V30 23143 H 4052.56 4.88748 -5.21323 0
M  V30 23144 H 4050.73 5.66789 -7.0643 0
M  V30 23145 H 4050.69 1.74684 -5.62396 0
M  V30 23146 H 4051.07 -1.71949 -2.24394 0
M  V30 23147 H 4051.26 -1.67511 -0.470742 0
M  V30 23148 H 4051.36 2.63704 0.6828 0
M  V30 23149 P 4052.6 7.20834 -5.23717 0
M  V30 23150 O 4052.82 8.66104 -5.38572 0
M  V30 23151 O 4053.39 6.33544 -6.1349 0
M  V30 23152 O 4052.85 6.7751 -3.72168 0
M  V30 23153 C 4051.91 7.20825 -2.7076 0
M  V30 23154 C 4052.64 7.45864 -1.40599 0
M  V30 23155 O 4052.85 6.17651 -0.734225 0
M  V30 23156 C 4054.04 8.05808 -1.51899 0
M  V30 23157 O 4054.43 8.74358 -0.335205 0
M  V30 23158 C 4054.92 6.83093 -1.70294 0
M  V30 23159 C 4054.21 5.79992 -0.836974 0
M  V30 23160 N 4054.26 4.41864 -1.38293 0
M  V30 23161 H 4051.42 8.13644 -3.0377 0
M  V30 23162 H 4051.15 6.42788 -2.55485 0
M  V30 23163 H 4052.01 8.12039 -0.792769 0
M  V30 23164 P 4055.98 8.91 -1.64866e-10 0
M  V30 23165 O 4056.2 10.1726 0.733694 0
M  V30 23166 O 4056.77 8.73148 -1.23936 0
M  V30 23167 O 4056.23 7.66872 0.971405 0
M  V30 23168 C 4055.29 7.42309 2.04641 0
M  V30 23169 C 4056.02 6.86059 3.24661 0
M  V30 23170 O 4056.23 5.42847 3.03646 0
M  V30 23171 C 4057.42 7.41196 3.50753 0
M  V30 23172 O 4057.81 7.27073 4.86816 0
M  V30 23173 C 4058.3 6.5273 2.63741 0
M  V30 23174 C 4057.59 5.1842 2.73198 0
M  V30 23175 N 4057.64 4.38762 1.4784 0
M  V30 23176 C 4057.56 4.81605 0.168631 0
M  V30 23177 N 4057.64 3.85454 -0.713363 0
M  V30 23178 C 4057.78 2.6994 0.0566958 0
M  V30 23179 C 4057.91 1.34815 -0.338502 0
M  V30 23180 O 4057.93 0.869548 -1.47125 0
M  V30 23181 N 4058.03 0.496304 0.77465 0
M  V30 23182 C 4058.03 0.908403 2.09122 0
M  V30 23183 N 4058.16 -0.0517805 3.00955 0
M  V30 23184 N 4057.9 2.17875 2.46519 0
M  V30 23185 C 4057.78 3.01988 1.4033 0
M  V30 23186 H 4054.8 8.36803 2.32493 0
M  V30 23187 H 4054.53 6.70197 1.71129 0
M  V30 23188 H 4055.39 7.03551 4.13168 0
M  V30 23189 H 4058.05 4.59498 3.54415 0
M  V30 23190 H 4058.33 6.88898 1.59848 0
M  V30 23191 H 4059.32 6.46749 3.03687 0
M  V30 23192 H 4057.49 8.46908 3.20714 0
M  V30 23193 H 4057.44 5.86405 -0.105564 0
M  V30 23194 H 4058.12 -0.483664 0.597855 0
M  V30 23195 H 4058.16 0.187865 4.0116 0
M  V30 23196 H 4058.26 -1.03585 2.71726 0
M  V30 23197 P 4059.36 7.20834 5.23717 0
M  V30 23198 O 4059.58 7.79853 6.57286 0
M  V30 23199 O 4060.15 7.79239 4.12957 0
M  V30 23200 O 4059.61 5.63315 5.29344 0
M  V30 23201 C 4058.67 4.80255 6.01876 0
M  V30 23202 C 4059.4 3.64202 6.65911 0
M  V30 23203 O 4059.61 2.60694 5.64732 0
M  V30 23204 C 4060.8 3.93473 7.1943 0
M  V30 23205 O 4061.19 3.02071 8.21205 0
M  V30 23206 C 4061.68 3.73047 5.97036 0
M  V30 23207 C 4060.97 2.58828 5.25741 0
M  V30 23208 N 4061.02 2.68068 3.77503 0
M  V30 23209 H 4058.18 5.40332 6.79951 0
M  V30 23210 H 4057.91 4.41613 5.32378 0
M  V30 23211 H 4058.77 3.26331 7.47797 0
M  V30 23212 P 4062.74 2.75334 8.47391 0
M  V30 23213 O 4062.96 2.44571 9.90142 0
M  V30 23214 O 4063.53 3.87688 7.92115 0
M  V30 23215 O 4062.99 1.4459 7.59357 0
M  V30 23216 C 4062.05 0.347608 7.69215 0
M  V30 23217 C 4062.78 -0.96767 7.52806 0
M  V30 23218 O 4062.99 -1.21036 6.1011 0
M  V30 23219 C 4064.18 -1.04544 8.13308 0
M  V30 23220 O 4064.57 -2.38311 8.41922 0
M  V30 23221 C 4065.06 -0.491279 7.02284 0
M  V30 23222 C 4064.35 -0.996264 5.77469 0
M  V30 23223 N 4064.4 -0.0501916 4.62973 0
M  V30 23224 H 4061.56 0.374722 8.67691 0
M  V30 23225 H 4061.29 0.443485 6.90277 0
M  V30 23226 H 4062.15 -1.75537 7.96793 0
M  V30 23227 P 4066.12 -2.75334 8.47391 0
M  V30 23228 O 4066.34 -3.84128 9.44797 0
M  V30 23229 O 4066.91 -1.51947 8.68712 0
M  V30 23230 O 4066.37 -3.29363 6.99321 0
M  V30 23231 C 4065.43 -4.24011 6.4274 0
M  V30 23232 C 4066.16 -5.20775 5.52155 0
M  V30 23233 O 4066.37 -4.56534 4.22446 0
M  V30 23234 C 4067.56 -5.62629 5.96531 0
M  V30 23235 O 4067.95 -6.87667 5.41053 0
M  V30 23236 C 4068.44 -4.52537 5.39283 0
M  V30 23237 C 4067.73 -4.20027 4.08623 0
M  V30 23238 N 4067.78 -2.76189 3.71603 0
M  V30 23239 H 4064.94 -4.797 7.24003 0
M  V30 23240 H 4064.67 -3.69856 5.84513 0
M  V30 23241 H 4065.53 -6.10356 5.41441 0
M  V30 23242 P 4069.5 -7.20834 5.23717 0
M  V30 23243 O 4069.72 -8.66104 5.38572 0
M  V30 23244 O 4070.29 -6.33544 6.1349 0
M  V30 23245 O 4069.75 -6.7751 3.72168 0
M  V30 23246 C 4068.81 -7.20825 2.7076 0
M  V30 23247 C 4069.54 -7.45864 1.40599 0
M  V30 23248 O 4069.75 -6.17651 0.734225 0
M  V30 23249 C 4070.94 -8.05808 1.51899 0
M  V30 23250 O 4071.33 -8.74358 0.335205 0
M  V30 23251 C 4071.82 -6.83093 1.70294 0
M  V30 23252 C 4071.11 -5.79992 0.836974 0
M  V30 23253 N 4071.16 -4.41864 1.38293 0
M  V30 23254 H 4068.32 -8.13644 3.0377 0
M  V30 23255 H 4068.05 -6.42788 2.55485 0
M  V30 23256 H 4068.91 -8.12039 0.792769 0
M  V30 23257 P 4072.88 -8.91 1.65975e-10 0
M  V30 23258 O 4073.1 -10.1726 -0.733694 0
M  V30 23259 O 4073.67 -8.73148 1.23936 0
M  V30 23260 O 4073.13 -7.66872 -0.971405 0
M  V30 23261 C 4072.19 -7.42309 -2.04641 0
M  V30 23262 C 4072.92 -6.86059 -3.24661 0
M  V30 23263 O 4073.13 -5.42847 -3.03646 0
M  V30 23264 C 4074.32 -7.41196 -3.50753 0
M  V30 23265 O 4074.71 -7.27073 -4.86816 0
M  V30 23266 C 4075.2 -6.5273 -2.63741 0
M  V30 23267 C 4074.49 -5.1842 -2.73198 0
M  V30 23268 N 4074.54 -4.38762 -1.4784 0
M  V30 23269 H 4071.7 -8.36803 -2.32493 0
M  V30 23270 H 4071.43 -6.70197 -1.71129 0
M  V30 23271 H 4072.29 -7.03551 -4.13168 0
M  V30 23272 P 4076.26 -7.20834 -5.23717 0
M  V30 23273 O 4076.48 -7.79853 -6.57286 0
M  V30 23274 O 4077.05 -7.79239 -4.12957 0
M  V30 23275 O 4076.51 -5.63315 -5.29344 0
M  V30 23276 C 4075.57 -4.80255 -6.01876 0
M  V30 23277 C 4076.3 -3.64202 -6.65911 0
M  V30 23278 O 4076.51 -2.60694 -5.64732 0
M  V30 23279 C 4077.7 -3.93473 -7.1943 0
M  V30 23280 O 4078.09 -3.02071 -8.21205 0
M  V30 23281 C 4078.58 -3.73047 -5.97036 0
M  V30 23282 C 4077.87 -2.58828 -5.25741 0
M  V30 23283 N 4077.92 -2.68068 -3.77503 0
M  V30 23284 H 4075.08 -5.40332 -6.79951 0
M  V30 23285 H 4074.81 -4.41613 -5.32378 0
M  V30 23286 H 4075.67 -3.26331 -7.47797 0
M  V30 23287 P 4079.64 -2.75334 -8.47391 0
M  V30 23288 O 4079.86 -2.44619 -9.90336 0
M  V30 23289 O 4080.43 -3.87776 -7.92294 0
M  V30 23290 O 4079.89 -1.4459 -7.59357 0
M  V30 23291 C 4078.95 -0.347653 -7.69315 0
M  V30 23292 C 4079.68 0.96767 -7.52806 0
M  V30 23293 O 4079.89 1.21055 -6.10208 0
M  V30 23294 C 4081.08 1.04557 -8.13408 0
M  V30 23295 O 4081.47 2.38311 -8.41922 0
M  V30 23296 C 4081.96 0.491279 -7.02284 0
M  V30 23297 C 4081.25 0.996264 -5.77469 0
M  V30 23298 N 4081.3 0.0501916 -4.62973 0
M  V30 23299 H 4078.46 -0.374765 -8.67791 0
M  V30 23300 H 4078.19 -0.443613 -6.90476 0
M  V30 23301 H 4079.05 1.75559 -7.96891 0
M  V30 23302 H 4081.71 1.94563 -5.46818 0
M  V30 23303 H 4081.99 -0.608651 -7.04676 0
M  V30 23304 H 4082.98 0.889796 -7.09039 0
M  V30 23305 H 4081.15 0.433128 -9.04664 0
M  V30 23306 P 4083.02 2.75334 -8.47391 0
M  V30 23307 O 4083.24 3.84128 -9.44797 0
M  V30 23308 O 4083.81 1.51947 -8.68712 0
M  V30 23309 O 4083.27 3.29363 -6.99321 0
M  V30 23310 C 4082.33 4.24011 -6.4274 0
M  V30 23311 C 4083.06 5.20775 -5.52155 0
M  V30 23312 O 4083.27 4.56534 -4.22446 0
M  V30 23313 C 4084.46 5.62629 -5.96531 0
M  V30 23314 O 4084.85 6.87667 -5.41053 0
M  V30 23315 C 4085.34 4.52537 -5.39283 0
M  V30 23316 C 4084.63 4.20027 -4.08623 0
M  V30 23317 N 4084.68 2.76189 -3.71603 0
M  V30 23318 H 4081.84 4.797 -7.24003 0
M  V30 23319 H 4081.57 3.69856 -5.84513 0
M  V30 23320 H 4082.43 6.10356 -5.41441 0
M  V30 23321 P 4086.4 7.20834 -5.23717 0
M  V30 23322 O 4086.62 8.66274 -5.38678 0
M  V30 23323 O 4087.19 6.33687 -6.13629 0
M  V30 23324 O 4086.65 6.7751 -3.72168 0
M  V30 23325 C 4085.71 7.20919 -2.70795 0
M  V30 23326 C 4086.44 7.45864 -1.40599 0
M  V30 23327 O 4086.65 6.17751 -0.734343 0
M  V30 23328 C 4087.84 8.05906 -1.51917 0
M  V30 23329 O 4088.23 8.74358 -0.335205 0
M  V30 23330 C 4088.72 6.83093 -1.70294 0
M  V30 23331 C 4088.01 5.79992 -0.836974 0
M  V30 23332 N 4088.06 4.41864 -1.38293 0
M  V30 23333 H 4085.22 8.13738 -3.03804 0
M  V30 23334 H 4084.95 6.42974 -2.55559 0
M  V30 23335 H 4085.81 8.12139 -0.792866 0
M  V30 23336 H 4088.47 5.80178 0.160643 0
M  V30 23337 H 4088.75 6.51379 -2.75643 0
M  V30 23338 H 4089.74 7.01832 -1.3448 0
M  V30 23339 H 4087.91 8.73771 -2.38364 0
M  V30 23340 P 4089.78 8.91 -1.67084e-10 0
M  V30 23341 O 4090 10.1726 0.733694 0
M  V30 23342 O 4090.57 8.73148 -1.23936 0
M  V30 23343 O 4090.03 7.66872 0.971405 0
M  V30 23344 C 4089.09 7.42309 2.04641 0
M  V30 23345 C 4089.82 6.86059 3.24661 0
M  V30 23346 O 4090.03 5.42847 3.03646 0
M  V30 23347 C 4091.22 7.41196 3.50753 0
M  V30 23348 O 4091.61 7.27073 4.86816 0
M  V30 23349 C 4092.1 6.5273 2.63741 0
M  V30 23350 C 4091.39 5.1842 2.73198 0
M  V30 23351 N 4091.44 4.38762 1.4784 0
M  V30 23352 H 4088.6 8.36803 2.32493 0
M  V30 23353 H 4088.33 6.70197 1.71129 0
M  V30 23354 H 4089.19 7.03551 4.13168 0
M  V30 23355 P 4093.16 7.20834 5.23717 0
M  V30 23356 O 4093.38 7.79853 6.57286 0
M  V30 23357 O 4093.95 7.79239 4.12957 0
M  V30 23358 O 4093.41 5.63315 5.29344 0
M  V30 23359 C 4092.47 4.80255 6.01876 0
M  V30 23360 C 4093.2 3.64202 6.65911 0
M  V30 23361 O 4093.41 2.60694 5.64732 0
M  V30 23362 C 4094.6 3.93473 7.1943 0
M  V30 23363 O 4094.99 3.02071 8.21205 0
M  V30 23364 C 4095.48 3.73047 5.97036 0
M  V30 23365 C 4094.77 2.58828 5.25741 0
M  V30 23366 N 4094.82 2.68068 3.77503 0
M  V30 23367 C 4094.74 3.79715 2.96723 0
M  V30 23368 N 4094.82 3.5377 1.68852 0
M  V30 23369 C 4094.96 2.15054 1.63254 0
M  V30 23370 C 4095.09 1.28964 0.518571 0
M  V30 23371 N 4095.21 -0.0538097 0.918425 0
M  V30 23372 C 4095.21 -0.494275 2.22578 0
M  V30 23373 N 4095.34 -1.81086 2.40434 0
M  V30 23374 N 4095.08 0.313645 3.27502 0
M  V30 23375 C 4094.96 1.61829 2.91033 0
M  V30 23376 H 4091.98 5.40332 6.79951 0
M  V30 23377 H 4091.71 4.41613 5.32378 0
M  V30 23378 H 4092.57 3.26331 7.47797 0
M  V30 23379 P 4096.54 2.75334 8.47391 0
M  V30 23380 O 4096.76 2.44571 9.90142 0
M  V30 23381 O 4097.33 3.87688 7.92115 0
M  V30 23382 O 4096.79 1.4459 7.59357 0
M  V30 23383 C 4095.85 0.347608 7.69215 0
M  V30 23384 C 4096.58 -0.96767 7.52806 0
M  V30 23385 O 4096.79 -1.21036 6.1011 0
M  V30 23386 C 4097.98 -1.04544 8.13308 0
M  V30 23387 O 4098.37 -2.38311 8.41922 0
M  V30 23388 C 4098.86 -0.491279 7.02284 0
M  V30 23389 C 4098.15 -0.996264 5.77469 0
M  V30 23390 N 4098.2 -0.0501916 4.62973 0
M  V30 23391 H 4095.36 0.374722 8.67691 0
M  V30 23392 H 4095.09 0.443485 6.90277 0
M  V30 23393 H 4095.95 -1.75537 7.96793 0
M  V30 23394 P 4099.92 -2.75334 8.47391 0
M  V30 23395 O 4100.14 -3.84128 9.44797 0
M  V30 23396 O 4100.71 -1.51947 8.68712 0
M  V30 23397 O 4100.17 -3.29363 6.99321 0
M  V30 23398 C 4099.23 -4.24011 6.4274 0
M  V30 23399 C 4099.96 -5.20775 5.52155 0
M  V30 23400 O 4100.17 -4.56534 4.22446 0
M  V30 23401 C 4101.36 -5.62629 5.96531 0
M  V30 23402 O 4101.75 -6.87667 5.41053 0
M  V30 23403 C 4102.24 -4.52537 5.39283 0
M  V30 23404 C 4101.53 -4.20027 4.08623 0
M  V30 23405 N 4101.58 -2.76189 3.71603 0
M  V30 23406 H 4098.74 -4.797 7.24003 0
M  V30 23407 H 4098.47 -3.69856 5.84513 0
M  V30 23408 H 4099.33 -6.10356 5.41441 0
M  V30 23409 P 4103.3 -7.20834 5.23717 0
M  V30 23410 O 4103.52 -8.66104 5.38572 0
M  V30 23411 O 4104.09 -6.33544 6.1349 0
M  V30 23412 O 4103.55 -6.7751 3.72168 0
M  V30 23413 C 4102.61 -7.20825 2.7076 0
M  V30 23414 C 4103.34 -7.45864 1.40599 0
M  V30 23415 O 4103.55 -6.17651 0.734225 0
M  V30 23416 C 4104.74 -8.05808 1.51899 0
M  V30 23417 O 4105.13 -8.74358 0.335205 0
M  V30 23418 C 4105.62 -6.83093 1.70294 0
M  V30 23419 C 4104.91 -5.79992 0.836974 0
M  V30 23420 N 4104.96 -4.41864 1.38293 0
M  V30 23421 H 4102.12 -8.13644 3.0377 0
M  V30 23422 H 4101.85 -6.42788 2.55485 0
M  V30 23423 H 4102.71 -8.12039 0.792769 0
M  V30 23424 P 4106.68 -8.91 1.68193e-10 0
M  V30 23425 O 4106.9 -10.1726 -0.733694 0
M  V30 23426 O 4107.47 -8.73148 1.23936 0
M  V30 23427 O 4106.93 -7.66872 -0.971405 0
M  V30 23428 C 4105.99 -7.42309 -2.04641 0
M  V30 23429 C 4106.72 -6.86059 -3.24661 0
M  V30 23430 O 4106.93 -5.42847 -3.03646 0
M  V30 23431 C 4108.12 -7.41196 -3.50753 0
M  V30 23432 O 4108.51 -7.27073 -4.86816 0
M  V30 23433 C 4109 -6.5273 -2.63741 0
M  V30 23434 C 4108.29 -5.1842 -2.73198 0
M  V30 23435 N 4108.34 -4.38762 -1.4784 0
M  V30 23436 H 4105.5 -8.36803 -2.32493 0
M  V30 23437 H 4105.23 -6.70197 -1.71129 0
M  V30 23438 H 4106.09 -7.03551 -4.13168 0
M  V30 23439 P 4110.06 -7.20834 -5.23717 0
M  V30 23440 O 4110.28 -7.79853 -6.57286 0
M  V30 23441 O 4110.85 -7.79239 -4.12957 0
M  V30 23442 O 4110.31 -5.63315 -5.29344 0
M  V30 23443 C 4109.37 -4.80255 -6.01876 0
M  V30 23444 C 4110.1 -3.64202 -6.65911 0
M  V30 23445 O 4110.31 -2.60694 -5.64732 0
M  V30 23446 C 4111.5 -3.93473 -7.1943 0
M  V30 23447 O 4111.89 -3.02071 -8.21205 0
M  V30 23448 C 4112.38 -3.73047 -5.97036 0
M  V30 23449 C 4111.67 -2.58828 -5.25741 0
M  V30 23450 N 4111.72 -2.68068 -3.77503 0
M  V30 23451 H 4108.88 -5.40332 -6.79951 0
M  V30 23452 H 4108.61 -4.41613 -5.32378 0
M  V30 23453 H 4109.47 -3.26331 -7.47797 0
M  V30 23454 P 4113.44 -2.75334 -8.47391 0
M  V30 23455 O 4113.66 -2.44571 -9.90142 0
M  V30 23456 O 4114.23 -3.87688 -7.92115 0
M  V30 23457 O 4113.69 -1.4459 -7.59357 0
M  V30 23458 C 4112.75 -0.347608 -7.69215 0
M  V30 23459 C 4113.48 0.96767 -7.52806 0
M  V30 23460 O 4113.69 1.21036 -6.1011 0
M  V30 23461 C 4114.88 1.04544 -8.13308 0
M  V30 23462 O 4115.27 2.38311 -8.41922 0
M  V30 23463 C 4115.76 0.491279 -7.02284 0
M  V30 23464 C 4115.05 0.996264 -5.77469 0
M  V30 23465 N 4115.1 0.0501916 -4.62973 0
M  V30 23466 H 4112.26 -0.374722 -8.67691 0
M  V30 23467 H 4111.99 -0.443485 -6.90277 0
M  V30 23468 H 4112.85 1.75537 -7.96793 0
M  V30 23469 P 4116.82 2.75334 -8.47391 0
M  V30 23470 O 4117.04 3.84128 -9.44797 0
M  V30 23471 O 4117.61 1.51947 -8.68712 0
M  V30 23472 O 4117.07 3.29363 -6.99321 0
M  V30 23473 C 4116.13 4.24011 -6.4274 0
M  V30 23474 C 4116.86 5.20775 -5.52155 0
M  V30 23475 O 4117.07 4.56534 -4.22446 0
M  V30 23476 C 4118.26 5.62629 -5.96531 0
M  V30 23477 O 4118.65 6.87667 -5.41053 0
M  V30 23478 C 4119.14 4.52537 -5.39283 0
M  V30 23479 C 4118.43 4.20027 -4.08623 0
M  V30 23480 N 4118.48 2.76189 -3.71603 0
M  V30 23481 H 4115.64 4.797 -7.24003 0
M  V30 23482 H 4115.37 3.69856 -5.84513 0
M  V30 23483 H 4116.23 6.10356 -5.41441 0
M  V30 23484 P 4120.2 7.20834 -5.23717 0
M  V30 23485 O 4120.42 8.66104 -5.38572 0
M  V30 23486 O 4120.99 6.33544 -6.1349 0
M  V30 23487 O 4120.45 6.7751 -3.72168 0
M  V30 23488 C 4119.51 7.20825 -2.7076 0
M  V30 23489 C 4120.24 7.45864 -1.40599 0
M  V30 23490 O 4120.45 6.17651 -0.734225 0
M  V30 23491 C 4121.64 8.05808 -1.51899 0
M  V30 23492 O 4122.03 8.74358 -0.335205 0
M  V30 23493 C 4122.52 6.83093 -1.70294 0
M  V30 23494 C 4121.81 5.79992 -0.836974 0
M  V30 23495 N 4121.86 4.41864 -1.38293 0
M  V30 23496 H 4119.02 8.13644 -3.0377 0
M  V30 23497 H 4118.75 6.42788 -2.55485 0
M  V30 23498 H 4119.61 8.12039 -0.792769 0
M  V30 23499 P 4123.58 8.91 -1.69302e-10 0
M  V30 23500 O 4123.8 10.1726 0.733694 0
M  V30 23501 O 4124.37 8.73148 -1.23936 0
M  V30 23502 O 4123.83 7.66872 0.971405 0
M  V30 23503 C 4122.89 7.42309 2.04641 0
M  V30 23504 C 4123.62 6.86059 3.24661 0
M  V30 23505 O 4123.83 5.42847 3.03646 0
M  V30 23506 C 4125.02 7.41196 3.50753 0
M  V30 23507 O 4125.41 7.27073 4.86816 0
M  V30 23508 C 4125.9 6.5273 2.63741 0
M  V30 23509 C 4125.19 5.1842 2.73198 0
M  V30 23510 N 4125.24 4.38762 1.4784 0
M  V30 23511 H 4122.4 8.36803 2.32493 0
M  V30 23512 H 4122.13 6.70197 1.71129 0
M  V30 23513 H 4122.99 7.03551 4.13168 0
M  V30 23514 P 4126.96 7.20834 5.23717 0
M  V30 23515 O 4127.18 7.79853 6.57286 0
M  V30 23516 O 4127.75 7.79239 4.12957 0
M  V30 23517 O 4127.21 5.63315 5.29344 0
M  V30 23518 C 4126.27 4.80255 6.01876 0
M  V30 23519 C 4127 3.64202 6.65911 0
M  V30 23520 O 4127.21 2.60694 5.64732 0
M  V30 23521 C 4128.4 3.93473 7.1943 0
M  V30 23522 O 4128.79 3.02071 8.21205 0
M  V30 23523 C 4129.28 3.73047 5.97036 0
M  V30 23524 C 4128.57 2.58828 5.25741 0
M  V30 23525 N 4128.62 2.68068 3.77503 0
M  V30 23526 H 4125.78 5.40332 6.79951 0
M  V30 23527 H 4125.51 4.41613 5.32378 0
M  V30 23528 H 4126.37 3.26331 7.47797 0
M  V30 23529 P 4130.34 2.75334 8.47391 0
M  V30 23530 O 4130.56 2.44571 9.90142 0
M  V30 23531 O 4131.13 3.87688 7.92115 0
M  V30 23532 O 4130.59 1.4459 7.59357 0
M  V30 23533 C 4129.65 0.347608 7.69215 0
M  V30 23534 C 4130.38 -0.96767 7.52806 0
M  V30 23535 O 4130.59 -1.21036 6.1011 0
M  V30 23536 C 4131.78 -1.04544 8.13308 0
M  V30 23537 O 4132.17 -2.38311 8.41922 0
M  V30 23538 C 4132.66 -0.491279 7.02284 0
M  V30 23539 C 4131.95 -0.996264 5.77469 0
M  V30 23540 N 4132 -0.0501916 4.62973 0
M  V30 23541 H 4129.16 0.374722 8.67691 0
M  V30 23542 H 4128.89 0.443485 6.90277 0
M  V30 23543 H 4129.75 -1.75537 7.96793 0
M  V30 23544 P 4133.72 -2.75334 8.47391 0
M  V30 23545 O 4133.94 -3.84128 9.44797 0
M  V30 23546 O 4134.51 -1.51947 8.68712 0
M  V30 23547 O 4133.97 -3.29363 6.99321 0
M  V30 23548 C 4133.03 -4.24011 6.4274 0
M  V30 23549 C 4133.76 -5.20775 5.52155 0
M  V30 23550 O 4133.97 -4.56534 4.22446 0
M  V30 23551 C 4135.16 -5.62629 5.96531 0
M  V30 23552 O 4135.55 -6.87667 5.41053 0
M  V30 23553 C 4136.04 -4.52537 5.39283 0
M  V30 23554 C 4135.33 -4.20027 4.08623 0
M  V30 23555 N 4135.38 -2.76189 3.71603 0
M  V30 23556 H 4132.54 -4.797 7.24003 0
M  V30 23557 H 4132.27 -3.69856 5.84513 0
M  V30 23558 H 4133.13 -6.10356 5.41441 0
M  V30 23559 P 4137.1 -7.20834 5.23717 0
M  V30 23560 O 4137.32 -8.66104 5.38572 0
M  V30 23561 O 4137.89 -6.33544 6.1349 0
M  V30 23562 O 4137.35 -6.7751 3.72168 0
M  V30 23563 C 4136.41 -7.20825 2.7076 0
M  V30 23564 C 4137.14 -7.45864 1.40599 0
M  V30 23565 O 4137.35 -6.17651 0.734225 0
M  V30 23566 C 4138.54 -8.05808 1.51899 0
M  V30 23567 O 4138.93 -8.74358 0.335205 0
M  V30 23568 C 4139.42 -6.83093 1.70294 0
M  V30 23569 C 4138.71 -5.79992 0.836974 0
M  V30 23570 N 4138.76 -4.41864 1.38293 0
M  V30 23571 H 4135.92 -8.13644 3.0377 0
M  V30 23572 H 4135.65 -6.42788 2.55485 0
M  V30 23573 H 4136.51 -8.12039 0.792769 0
M  V30 23574 P 4140.48 -8.91 1.70411e-10 0
M  V30 23575 O 4140.7 -10.1726 -0.733694 0
M  V30 23576 O 4141.27 -8.73148 1.23936 0
M  V30 23577 O 4140.73 -7.66872 -0.971405 0
M  V30 23578 C 4139.79 -7.42309 -2.04641 0
M  V30 23579 C 4140.52 -6.86059 -3.24661 0
M  V30 23580 O 4140.73 -5.42847 -3.03646 0
M  V30 23581 C 4141.92 -7.41196 -3.50753 0
M  V30 23582 O 4142.31 -7.27073 -4.86816 0
M  V30 23583 C 4142.8 -6.5273 -2.63741 0
M  V30 23584 C 4142.09 -5.1842 -2.73198 0
M  V30 23585 N 4142.14 -4.38762 -1.4784 0
M  V30 23586 H 4139.3 -8.36803 -2.32493 0
M  V30 23587 H 4139.03 -6.70197 -1.71129 0
M  V30 23588 H 4139.89 -7.03551 -4.13168 0
M  V30 23589 P 4143.86 -7.20834 -5.23717 0
M  V30 23590 O 4144.08 -7.7993 -6.57351 0
M  V30 23591 O 4144.65 -7.79328 -4.13004 0
M  V30 23592 O 4144.11 -5.63315 -5.29344 0
M  V30 23593 C 4143.17 -4.80193 -6.01798 0
M  V30 23594 C 4143.9 -3.64202 -6.65911 0
M  V30 23595 O 4144.11 -2.60694 -5.64732 0
M  V30 23596 C 4145.3 -3.93473 -7.1943 0
M  V30 23597 O 4145.69 -3.02071 -8.21205 0
M  V30 23598 C 4146.18 -3.73047 -5.97036 0
M  V30 23599 C 4145.47 -2.58828 -5.25741 0
M  V30 23600 N 4145.52 -2.6801 -3.77422 0
M  V30 23601 C 4145.67 -1.50443 -3.07133 0
M  V30 23602 O 4145.76 -0.419406 -3.61576 0
M  V30 23603 N 4145.71 -1.6403 -1.69677 0
M  V30 23604 C 4145.62 -2.81206 -0.986255 0
M  V30 23605 O 4145.67 -2.80892 0.249754 0
M  V30 23606 C 4145.47 -3.99158 -1.80325 0
M  V30 23607 C 4145.36 -5.29309 -1.06921 0
M  V30 23608 C 4145.42 -3.89779 -3.1476 0
M  V30 23609 H 4142.68 -5.40332 -6.79951 0
M  V30 23610 H 4142.41 -4.41549 -5.32301 0
M  V30 23611 H 4143.27 -3.26331 -7.47797 0
M  V30 23612 H 4145.93 -1.6395 -5.56554 0
M  V30 23613 H 4146.21 -4.63439 -5.3432 0
M  V30 23614 H 4147.2 -3.44728 -6.25838 0
M  V30 23615 H 4145.37 -4.96652 -7.57263 0
M  V30 23616 H 4145.29 -4.80159 -3.74441 0
M  V30 23617 H 4146.32 -5.81459 -1.09608 0
M  V30 23618 H 4144.59 -5.9187 -1.54487 0
M  V30 23619 H 4145.08 -5.10095 -0.0220288 0
M  V30 23620 H 4145.81 -0.798962 -1.16664 0
M  V30 23621 P 4147.24 -2.75334 -8.47391 0
M  V30 23622 O 4147.46 -2.44571 -9.90142 0
M  V30 23623 O 4148.03 -3.87688 -7.92115 0
M  V30 23624 O 4147.49 -1.4459 -7.59357 0
M  V30 23625 C 4146.55 -0.347608 -7.69215 0
M  V30 23626 C 4147.28 0.96767 -7.52806 0
M  V30 23627 O 4147.49 1.21036 -6.1011 0
M  V30 23628 C 4148.68 1.04544 -8.13308 0
M  V30 23629 O 4149.07 2.38311 -8.41922 0
M  V30 23630 C 4149.56 0.491279 -7.02284 0
M  V30 23631 C 4148.85 0.996264 -5.77469 0
M  V30 23632 N 4148.9 0.0501916 -4.62973 0
M  V30 23633 H 4146.06 -0.374722 -8.67691 0
M  V30 23634 H 4145.79 -0.443485 -6.90277 0
M  V30 23635 H 4146.65 1.75537 -7.96793 0
M  V30 23636 P 4150.62 2.75334 -8.47391 0
M  V30 23637 O 4150.84 3.84128 -9.44797 0
M  V30 23638 O 4151.41 1.51947 -8.68712 0
M  V30 23639 O 4150.87 3.29363 -6.99321 0
M  V30 23640 C 4149.93 4.24011 -6.4274 0
M  V30 23641 C 4150.66 5.20775 -5.52155 0
M  V30 23642 O 4150.87 4.56534 -4.22446 0
M  V30 23643 C 4152.06 5.62629 -5.96531 0
M  V30 23644 O 4152.45 6.87667 -5.41053 0
M  V30 23645 C 4152.94 4.52537 -5.39283 0
M  V30 23646 C 4152.23 4.20027 -4.08623 0
M  V30 23647 N 4152.28 2.76189 -3.71603 0
M  V30 23648 H 4149.44 4.797 -7.24003 0
M  V30 23649 H 4149.17 3.69856 -5.84513 0
M  V30 23650 H 4150.03 6.10356 -5.41441 0
M  V30 23651 P 4154 7.20834 -5.23717 0
M  V30 23652 O 4154.22 8.66189 -5.38625 0
M  V30 23653 O 4154.79 6.33615 -6.1356 0
M  V30 23654 O 4154.25 6.7751 -3.72168 0
M  V30 23655 C 4153.31 7.20732 -2.70725 0
M  V30 23656 C 4154.04 7.45864 -1.40599 0
M  V30 23657 O 4154.25 6.17651 -0.734225 0
M  V30 23658 C 4155.44 8.05808 -1.51899 0
M  V30 23659 O 4155.83 8.74358 -0.335205 0
M  V30 23660 C 4156.32 6.83093 -1.70294 0
M  V30 23661 C 4155.61 5.79992 -0.836974 0
M  V30 23662 N 4155.66 4.41769 -1.38263 0
M  V30 23663 C 4155.81 3.38591 -0.481702 0
M  V30 23664 O 4155.9 3.56839 0.718452 0
M  V30 23665 N 4155.85 2.1206 -1.03569 0
M  V30 23666 C 4155.76 1.80696 -2.36966 0
M  V30 23667 O 4155.81 0.630473 -2.74862 0
M  V30 23668 C 4155.61 2.94845 -3.23898 0
M  V30 23669 C 4155.5 2.65253 -4.70362 0
M  V30 23670 C 4155.56 4.19803 -2.73435 0
M  V30 23671 H 4152.82 8.13644 -3.0377 0
M  V30 23672 H 4152.55 6.42695 -2.55448 0
M  V30 23673 H 4153.41 8.12039 -0.792769 0
M  V30 23674 H 4156.07 5.79978 0.160587 0
M  V30 23675 H 4156.35 6.51379 -2.75643 0
M  V30 23676 H 4157.34 7.01734 -1.34462 0
M  V30 23677 H 4155.51 8.73674 -2.38337 0
M  V30 23678 H 4155.43 5.04492 -3.4095 0
M  V30 23679 H 4156.46 2.83924 -5.1913 0
M  V30 23680 H 4154.73 3.29824 -5.15163 0
M  V30 23681 H 4155.22 1.59723 -4.84449 0
M  V30 23682 H 4155.95 1.35644 -0.399345 0
M  V30 23683 P 4157.38 8.91 -1.7152e-10 0
M  V30 23684 O 4157.6 10.1726 0.733694 0
M  V30 23685 O 4158.17 8.73148 -1.23936 0
M  V30 23686 O 4157.63 7.66872 0.971405 0
M  V30 23687 C 4156.69 7.42309 2.04641 0
M  V30 23688 C 4157.42 6.86059 3.24661 0
M  V30 23689 O 4157.63 5.42847 3.03646 0
M  V30 23690 C 4158.82 7.41196 3.50753 0
M  V30 23691 O 4159.21 7.27073 4.86816 0
M  V30 23692 C 4159.7 6.5273 2.63741 0
M  V30 23693 C 4158.99 5.1842 2.73198 0
M  V30 23694 N 4159.04 4.38762 1.4784 0
M  V30 23695 H 4156.2 8.36803 2.32493 0
M  V30 23696 H 4155.93 6.70197 1.71129 0
M  V30 23697 H 4156.79 7.03551 4.13168 0
M  V30 23698 P 4160.76 7.20834 5.23717 0
M  V30 23699 O 4160.98 7.79853 6.57286 0
M  V30 23700 O 4161.55 7.79239 4.12957 0
M  V30 23701 O 4161.01 5.63315 5.29344 0
M  V30 23702 C 4160.07 4.80255 6.01876 0
M  V30 23703 C 4160.8 3.64202 6.65911 0
M  V30 23704 O 4161.01 2.60694 5.64732 0
M  V30 23705 C 4162.2 3.93473 7.1943 0
M  V30 23706 O 4162.59 3.02071 8.21205 0
M  V30 23707 C 4163.08 3.73047 5.97036 0
M  V30 23708 C 4162.37 2.58828 5.25741 0
M  V30 23709 N 4162.42 2.68068 3.77503 0
M  V30 23710 H 4159.58 5.40332 6.79951 0
M  V30 23711 H 4159.31 4.41613 5.32378 0
M  V30 23712 H 4160.17 3.26331 7.47797 0
M  V30 23713 P 4164.14 2.75334 8.47391 0
M  V30 23714 O 4164.36 2.44619 9.90336 0
M  V30 23715 O 4164.93 3.87776 7.92294 0
M  V30 23716 O 4164.39 1.4459 7.59357 0
M  V30 23717 C 4163.45 0.347653 7.69315 0
M  V30 23718 C 4164.18 -0.96767 7.52806 0
M  V30 23719 O 4164.39 -1.21055 6.10208 0
M  V30 23720 C 4165.58 -1.04557 8.13408 0
M  V30 23721 O 4165.97 -2.38311 8.41922 0
M  V30 23722 C 4166.46 -0.491279 7.02284 0
M  V30 23723 C 4165.75 -0.996264 5.77469 0
M  V30 23724 N 4165.8 -0.0501916 4.62973 0
M  V30 23725 H 4162.96 0.374765 8.67791 0
M  V30 23726 H 4162.69 0.443613 6.90476 0
M  V30 23727 H 4163.55 -1.75559 7.96891 0
M  V30 23728 H 4166.21 -1.94563 5.46818 0
M  V30 23729 H 4166.49 0.608651 7.04676 0
M  V30 23730 H 4167.48 -0.889796 7.09039 0
M  V30 23731 H 4165.65 -0.433128 9.04664 0
M  V30 23732 P 4167.52 -2.75334 8.47391 0
M  V30 23733 O 4167.74 -3.84128 9.44797 0
M  V30 23734 O 4168.31 -1.51947 8.68712 0
M  V30 23735 O 4167.77 -3.29363 6.99321 0
M  V30 23736 C 4166.83 -4.24011 6.4274 0
M  V30 23737 C 4167.56 -5.20775 5.52155 0
M  V30 23738 O 4167.77 -4.56534 4.22446 0
M  V30 23739 C 4168.96 -5.62629 5.96531 0
M  V30 23740 O 4169.35 -6.87667 5.41053 0
M  V30 23741 C 4169.84 -4.52537 5.39283 0
M  V30 23742 C 4169.13 -4.20027 4.08623 0
M  V30 23743 N 4169.18 -2.76189 3.71603 0
M  V30 23744 H 4166.34 -4.797 7.24003 0
M  V30 23745 H 4166.07 -3.69856 5.84513 0
M  V30 23746 H 4166.93 -6.10356 5.41441 0
M  V30 23747 P 4170.9 -7.20834 5.23717 0
M  V30 23748 O 4171.12 -8.66104 5.38572 0
M  V30 23749 O 4171.69 -6.33544 6.1349 0
M  V30 23750 O 4171.15 -6.7751 3.72168 0
M  V30 23751 C 4170.21 -7.20825 2.7076 0
M  V30 23752 C 4170.94 -7.45864 1.40599 0
M  V30 23753 O 4171.15 -6.17651 0.734225 0
M  V30 23754 C 4172.34 -8.05808 1.51899 0
M  V30 23755 O 4172.73 -8.74358 0.335205 0
M  V30 23756 C 4173.22 -6.83093 1.70294 0
M  V30 23757 C 4172.51 -5.79992 0.836974 0
M  V30 23758 N 4172.56 -4.41864 1.38293 0
M  V30 23759 H 4169.72 -8.13644 3.0377 0
M  V30 23760 H 4169.45 -6.42788 2.55485 0
M  V30 23761 H 4170.31 -8.12039 0.792769 0
M  V30 23762 P 4174.28 -8.91 1.72629e-10 0
M  V30 23763 O 4174.5 -10.1726 -0.733694 0
M  V30 23764 O 4175.07 -8.73148 1.23936 0
M  V30 23765 O 4174.53 -7.66872 -0.971405 0
M  V30 23766 C 4173.59 -7.42309 -2.04641 0
M  V30 23767 C 4174.32 -6.86059 -3.24661 0
M  V30 23768 O 4174.53 -5.42847 -3.03646 0
M  V30 23769 C 4175.72 -7.41196 -3.50753 0
M  V30 23770 O 4176.11 -7.27073 -4.86816 0
M  V30 23771 C 4176.6 -6.5273 -2.63741 0
M  V30 23772 C 4175.89 -5.1842 -2.73198 0
M  V30 23773 N 4175.94 -4.38762 -1.4784 0
M  V30 23774 C 4175.86 -4.81605 -0.168631 0
M  V30 23775 N 4175.94 -3.85454 0.713363 0
M  V30 23776 C 4176.08 -2.6994 -0.0566958 0
M  V30 23777 C 4176.21 -1.34815 0.338502 0
M  V30 23778 N 4176.33 -0.496304 -0.77465 0
M  V30 23779 C 4176.33 -0.908403 -2.09122 0
M  V30 23780 N 4176.46 0.0517805 -3.00955 0
M  V30 23781 N 4176.2 -2.17875 -2.46519 0
M  V30 23782 C 4176.08 -3.01988 -1.4033 0
M  V30 23783 H 4173.1 -8.36803 -2.32493 0
M  V30 23784 H 4172.83 -6.70197 -1.71129 0
M  V30 23785 H 4173.69 -7.03551 -4.13168 0
M  V30 23786 P 4177.66 -7.20834 -5.23717 0
M  V30 23787 O 4177.88 -7.80006 -6.57415 0
M  V30 23788 O 4178.45 -7.79416 -4.13051 0
M  V30 23789 O 4177.91 -5.63315 -5.29344 0
M  V30 23790 C 4176.97 -4.80318 -6.01954 0
M  V30 23791 C 4177.7 -3.64202 -6.65911 0
M  V30 23792 O 4177.91 -2.60736 -5.64823 0
M  V30 23793 C 4179.1 -3.93521 -7.19518 0
M  V30 23794 O 4179.49 -3.02071 -8.21205 0
M  V30 23795 C 4179.98 -3.73047 -5.97036 0
M  V30 23796 C 4179.27 -2.58828 -5.25741 0
M  V30 23797 N 4179.32 -2.68068 -3.77503 0
M  V30 23798 H 4176.48 -5.40394 -6.8003 0
M  V30 23799 H 4176.21 -4.41741 -5.32532 0
M  V30 23800 H 4177.07 -3.26371 -7.47889 0
M  V30 23801 H 4179.73 -1.64007 -5.56746 0
M  V30 23802 H 4180.01 -4.63439 -5.3432 0
M  V30 23803 H 4181 -3.44776 -6.25925 0
M  V30 23804 H 4179.17 -4.96707 -7.57347 0
M  V30 23805 P 4181.04 -2.75334 -8.47391 0
M  V30 23806 O 4181.26 -2.44571 -9.90142 0
M  V30 23807 O 4181.83 -3.87688 -7.92115 0
M  V30 23808 O 4181.29 -1.4459 -7.59357 0
M  V30 23809 C 4180.35 -0.347608 -7.69215 0
M  V30 23810 C 4181.08 0.96767 -7.52806 0
M  V30 23811 O 4181.29 1.21036 -6.1011 0
M  V30 23812 C 4182.48 1.04544 -8.13308 0
M  V30 23813 O 4182.87 2.38311 -8.41922 0
M  V30 23814 C 4183.36 0.491279 -7.02284 0
M  V30 23815 C 4182.65 0.996264 -5.77469 0
M  V30 23816 N 4182.7 0.0501916 -4.62973 0
M  V30 23817 H 4179.86 -0.374722 -8.67691 0
M  V30 23818 H 4179.59 -0.443485 -6.90277 0
M  V30 23819 H 4180.45 1.75537 -7.96793 0
M  V30 23820 P 4184.42 2.75334 -8.47391 0
M  V30 23821 O 4184.64 3.84166 -9.4489 0
M  V30 23822 O 4185.21 1.51964 -8.6881 0
M  V30 23823 O 4184.67 3.29363 -6.99321 0
M  V30 23824 C 4183.73 4.23956 -6.42656 0
M  V30 23825 C 4184.46 5.20775 -5.52155 0
M  V30 23826 O 4184.67 4.56534 -4.22446 0
M  V30 23827 C 4185.86 5.62629 -5.96531 0
M  V30 23828 O 4186.25 6.87667 -5.41053 0
M  V30 23829 C 4186.74 4.52537 -5.39283 0
M  V30 23830 C 4186.03 4.20027 -4.08623 0
M  V30 23831 N 4186.08 2.7613 -3.71522 0
M  V30 23832 C 4186.23 2.45612 -2.37989 0
M  V30 23833 O 4186.32 3.30919 -1.51621 0
M  V30 23834 N 4186.27 1.10684 -2.08435 0
M  V30 23835 C 4186.18 0.0690084 -2.9792 0
M  V30 23836 C 4186.03 0.481522 -4.35345 0
M  V30 23837 C 4185.98 1.78906 -4.67968 0
M  V30 23838 H 4183.24 4.797 -7.24003 0
M  V30 23839 H 4182.97 3.69802 -5.84429 0
M  V30 23840 H 4183.83 6.10356 -5.41441 0
M  V30 23841 H 4186.49 4.78651 -3.27911 0
M  V30 23842 H 4186.77 3.64957 -6.05871 0
M  V30 23843 H 4187.76 4.8868 -5.2125 0
M  V30 23844 H 4185.93 5.66726 -7.06352 0
M  V30 23845 H 4185.85 2.07737 -5.72367 0
M  V30 23846 P 4187.8 7.20834 -5.23717 0
M  V30 23847 O 4188.02 8.66104 -5.38572 0
M  V30 23848 O 4188.59 6.33544 -6.1349 0
M  V30 23849 O 4188.05 6.7751 -3.72168 0
M  V30 23850 C 4187.11 7.20825 -2.7076 0
M  V30 23851 C 4187.84 7.45864 -1.40599 0
M  V30 23852 O 4188.05 6.17651 -0.734225 0
M  V30 23853 C 4189.24 8.05808 -1.51899 0
M  V30 23854 O 4189.63 8.74358 -0.335205 0
M  V30 23855 C 4190.12 6.83093 -1.70294 0
M  V30 23856 C 4189.41 5.79992 -0.836974 0
M  V30 23857 N 4189.46 4.41864 -1.38293 0
M  V30 23858 H 4186.62 8.13644 -3.0377 0
M  V30 23859 H 4186.35 6.42788 -2.55485 0
M  V30 23860 H 4187.21 8.12039 -0.792769 0
M  V30 23861 P 4191.18 8.91 -1.73738e-10 0
M  V30 23862 O 4191.4 10.1746 0.733838 0
M  V30 23863 O 4191.97 8.73346 -1.23964 0
M  V30 23864 O 4191.43 7.66872 0.971405 0
M  V30 23865 C 4190.49 7.42405 2.04668 0
M  V30 23866 C 4191.22 6.86059 3.24661 0
M  V30 23867 O 4191.43 5.42934 3.03695 0
M  V30 23868 C 4192.62 7.41287 3.50796 0
M  V30 23869 O 4193.01 7.27073 4.86816 0
M  V30 23870 C 4193.5 6.5273 2.63741 0
M  V30 23871 C 4192.79 5.1842 2.73198 0
M  V30 23872 N 4192.84 4.38762 1.4784 0
M  V30 23873 C 4192.76 4.83651 0.183876 0
M  V30 23874 N 4192.83 3.88759 -0.699393 0
M  V30 23875 C 4192.98 2.7404 0.0575568 0
M  V30 23876 C 4193.11 1.37902 -0.293928 0
M  V30 23877 N 4193.12 0.938021 -1.54797 0
M  V30 23878 N 4193.23 0.491817 0.70549 0
M  V30 23879 C 4193.22 0.931735 1.95979 0
M  V30 23880 N 4193.1 2.16017 2.41481 0
M  V30 23881 C 4192.98 3.02547 1.39121 0
M  V30 23882 H 4190 8.36899 2.3252 0
M  V30 23883 H 4189.73 6.70391 1.71179 0
M  V30 23884 H 4190.59 7.03638 4.13219 0
M  V30 23885 H 4193.25 4.59931 3.54016 0
M  V30 23886 H 4193.53 6.88995 1.59871 0
M  V30 23887 H 4194.52 6.4684 3.0373 0
M  V30 23888 H 4192.69 8.47002 3.20749 0
M  V30 23889 H 4192.64 5.8885 -0.0765548 0
M  V30 23890 H 4193.03 1.60276 -2.32875 0
M  V30 23891 H 4193.21 -0.0699355 -1.73859 0
M  V30 23892 H 4193.32 0.165507 2.71897 0
M  V30 23893 P 4194.56 7.20834 5.23717 0
M  V30 23894 O 4194.78 7.79853 6.57286 0
M  V30 23895 O 4195.35 7.79239 4.12957 0
M  V30 23896 O 4194.81 5.63315 5.29344 0
M  V30 23897 C 4193.87 4.80255 6.01876 0
M  V30 23898 C 4194.6 3.64202 6.65911 0
M  V30 23899 O 4194.81 2.60694 5.64732 0
M  V30 23900 C 4196 3.93473 7.1943 0
M  V30 23901 O 4196.39 3.02071 8.21205 0
M  V30 23902 C 4196.88 3.73047 5.97036 0
M  V30 23903 C 4196.17 2.58828 5.25741 0
M  V30 23904 N 4196.22 2.68068 3.77503 0
M  V30 23905 H 4193.38 5.40332 6.79951 0
M  V30 23906 H 4193.11 4.41613 5.32378 0
M  V30 23907 H 4193.97 3.26331 7.47797 0
M  V30 23908 P 4197.94 2.75334 8.47391 0
M  V30 23909 O 4198.16 2.44571 9.90142 0
M  V30 23910 O 4198.73 3.87688 7.92115 0
M  V30 23911 O 4198.19 1.4459 7.59357 0
M  V30 23912 C 4197.25 0.347608 7.69215 0
M  V30 23913 C 4197.98 -0.96767 7.52806 0
M  V30 23914 O 4198.19 -1.21036 6.1011 0
M  V30 23915 C 4199.38 -1.04544 8.13308 0
M  V30 23916 O 4199.77 -2.38311 8.41922 0
M  V30 23917 C 4200.26 -0.491279 7.02284 0
M  V30 23918 C 4199.55 -0.996264 5.77469 0
M  V30 23919 N 4199.6 -0.0501916 4.62973 0
M  V30 23920 H 4196.76 0.374722 8.67691 0
M  V30 23921 H 4196.49 0.443485 6.90277 0
M  V30 23922 H 4197.35 -1.75537 7.96793 0
M  V30 23923 P 4201.32 -2.75334 8.47391 0
M  V30 23924 O 4201.54 -3.84128 9.44797 0
M  V30 23925 O 4202.11 -1.51947 8.68712 0
M  V30 23926 O 4201.57 -3.29363 6.99321 0
M  V30 23927 C 4200.63 -4.24011 6.4274 0
M  V30 23928 C 4201.36 -5.20775 5.52155 0
M  V30 23929 O 4201.57 -4.56534 4.22446 0
M  V30 23930 C 4202.76 -5.62629 5.96531 0
M  V30 23931 O 4203.15 -6.87667 5.41053 0
M  V30 23932 C 4203.64 -4.52537 5.39283 0
M  V30 23933 C 4202.93 -4.20027 4.08623 0
M  V30 23934 N 4202.98 -2.76189 3.71603 0
M  V30 23935 H 4200.14 -4.797 7.24003 0
M  V30 23936 H 4199.87 -3.69856 5.84513 0
M  V30 23937 H 4200.73 -6.10356 5.41441 0
M  V30 23938 P 4204.7 -7.20834 5.23717 0
M  V30 23939 O 4204.92 -8.66104 5.38572 0
M  V30 23940 O 4205.49 -6.33544 6.1349 0
M  V30 23941 O 4204.95 -6.7751 3.72168 0
M  V30 23942 C 4204.01 -7.20825 2.7076 0
M  V30 23943 C 4204.74 -7.45864 1.40599 0
M  V30 23944 O 4204.95 -6.17651 0.734225 0
M  V30 23945 C 4206.14 -8.05808 1.51899 0
M  V30 23946 O 4206.53 -8.74358 0.335205 0
M  V30 23947 C 4207.02 -6.83093 1.70294 0
M  V30 23948 C 4206.31 -5.79992 0.836974 0
M  V30 23949 N 4206.36 -4.41864 1.38293 0
M  V30 23950 H 4203.52 -8.13644 3.0377 0
M  V30 23951 H 4203.25 -6.42788 2.55485 0
M  V30 23952 H 4204.11 -8.12039 0.792769 0
M  V30 23953 P 4208.08 -8.91 1.74847e-10 0
M  V30 23954 O 4208.3 -10.1726 -0.733694 0
M  V30 23955 O 4208.87 -8.73148 1.23936 0
M  V30 23956 O 4208.33 -7.66872 -0.971405 0
M  V30 23957 C 4207.39 -7.42309 -2.04641 0
M  V30 23958 C 4208.12 -6.86059 -3.24661 0
M  V30 23959 O 4208.33 -5.42847 -3.03646 0
M  V30 23960 C 4209.52 -7.41196 -3.50753 0
M  V30 23961 O 4209.91 -7.27073 -4.86816 0
M  V30 23962 C 4210.4 -6.5273 -2.63741 0
M  V30 23963 C 4209.69 -5.1842 -2.73198 0
M  V30 23964 N 4209.74 -4.38762 -1.4784 0
M  V30 23965 H 4206.9 -8.36803 -2.32493 0
M  V30 23966 H 4206.63 -6.70197 -1.71129 0
M  V30 23967 H 4207.49 -7.03551 -4.13168 0
M  V30 23968 P 4211.46 -7.20834 -5.23717 0
M  V30 23969 O 4211.68 -7.79853 -6.57286 0
M  V30 23970 O 4212.25 -7.79239 -4.12957 0
M  V30 23971 O 4211.71 -5.63315 -5.29344 0
M  V30 23972 C 4210.77 -4.80255 -6.01876 0
M  V30 23973 C 4211.5 -3.64202 -6.65911 0
M  V30 23974 O 4211.71 -2.60694 -5.64732 0
M  V30 23975 C 4212.9 -3.93473 -7.1943 0
M  V30 23976 O 4213.29 -3.02071 -8.21205 0
M  V30 23977 C 4213.78 -3.73047 -5.97036 0
M  V30 23978 C 4213.07 -2.58828 -5.25741 0
M  V30 23979 N 4213.12 -2.68068 -3.77503 0
M  V30 23980 H 4210.28 -5.40332 -6.79951 0
M  V30 23981 H 4210.01 -4.41613 -5.32378 0
M  V30 23982 H 4210.87 -3.26331 -7.47797 0
M  V30 23983 P 4214.84 -2.75334 -8.47391 0
M  V30 23984 O 4215.06 -2.44571 -9.90142 0
M  V30 23985 O 4215.63 -3.87688 -7.92115 0
M  V30 23986 O 4215.09 -1.4459 -7.59357 0
M  V30 23987 C 4214.15 -0.347608 -7.69215 0
M  V30 23988 C 4214.88 0.96767 -7.52806 0
M  V30 23989 O 4215.09 1.21036 -6.1011 0
M  V30 23990 C 4216.28 1.04544 -8.13308 0
M  V30 23991 O 4216.67 2.38311 -8.41922 0
M  V30 23992 C 4217.16 0.491279 -7.02284 0
M  V30 23993 C 4216.45 0.996264 -5.77469 0
M  V30 23994 N 4216.5 0.0501916 -4.62973 0
M  V30 23995 C 4216.42 -1.32786 -4.63244 0
M  V30 23996 N 4216.5 -1.86957 -3.44545 0
M  V30 23997 C 4216.64 -0.780241 -2.58481 0
M  V30 23998 C 4216.77 -0.738536 -1.17757 0
M  V30 23999 O 4216.79 -1.66794 -0.372349 0
M  V30 24000 N 4216.89 0.58337 -0.711393 0
M  V30 24001 C 4216.89 1.70816 -1.51017 0
M  V30 24002 N 4217.02 2.87826 -0.880757 0
M  V30 24003 N 4216.76 1.67126 -2.8339 0
M  V30 24004 C 4216.64 0.401421 -3.30572 0
M  V30 24005 H 4213.66 -0.374722 -8.67691 0
M  V30 24006 H 4213.39 -0.443485 -6.90277 0
M  V30 24007 H 4214.25 1.75537 -7.96793 0
M  V30 24008 H 4216.91 1.95076 -5.46529 0
M  V30 24009 H 4217.19 -0.608565 -7.04577 0
M  V30 24010 H 4218.18 0.889672 -7.08939 0
M  V30 24011 H 4216.35 0.43308 -9.04564 0
M  V30 24012 H 4216.3 -1.91249 -5.54442 0
M  V30 24013 H 4216.98 0.718054 0.275244 0
M  V30 24014 H 4217.02 3.75721 -1.41832 0
M  V30 24015 H 4217.12 2.90436 0.145468 0
M  V30 24016 P 4218.22 2.75334 -8.47391 0
M  V30 24017 O 4218.44 3.84204 -9.44982 0
M  V30 24018 O 4219.01 1.51982 -8.68909 0
M  V30 24019 O 4218.47 3.29363 -6.99321 0
M  V30 24020 C 4217.53 4.24066 -6.42823 0
M  V30 24021 C 4218.26 5.20775 -5.52155 0
M  V30 24022 O 4218.47 4.56607 -4.22514 0
M  V30 24023 C 4219.66 5.62697 -5.96604 0
M  V30 24024 O 4220.05 6.87667 -5.41053 0
M  V30 24025 C 4220.54 4.52537 -5.39283 0
M  V30 24026 C 4219.83 4.20027 -4.08623 0
M  V30 24027 N 4219.88 2.76189 -3.71603 0
M  V30 24028 H 4217.04 4.79756 -7.24086 0
M  V30 24029 H 4216.77 3.69963 -5.84682 0
M  V30 24030 H 4217.63 6.10431 -5.41508 0
M  V30 24031 H 4220.29 4.78816 -3.28024 0
M  V30 24032 H 4220.57 3.64957 -6.05871 0
M  V30 24033 H 4221.56 4.88748 -5.21323 0
M  V30 24034 H 4219.73 5.66789 -7.0643 0
M  V30 24035 P 4221.6 7.20834 -5.23717 0
M  V30 24036 O 4221.82 8.66104 -5.38572 0
M  V30 24037 O 4222.39 6.33544 -6.1349 0
M  V30 24038 O 4221.85 6.7751 -3.72168 0
M  V30 24039 C 4220.91 7.20825 -2.7076 0
M  V30 24040 C 4221.64 7.45864 -1.40599 0
M  V30 24041 O 4221.85 6.17651 -0.734225 0
M  V30 24042 C 4223.04 8.05808 -1.51899 0
M  V30 24043 O 4223.43 8.74358 -0.335205 0
M  V30 24044 C 4223.92 6.83093 -1.70294 0
M  V30 24045 C 4223.21 5.79992 -0.836974 0
M  V30 24046 N 4223.26 4.41864 -1.38293 0
M  V30 24047 H 4220.42 8.13644 -3.0377 0
M  V30 24048 H 4220.15 6.42788 -2.55485 0
M  V30 24049 H 4221.01 8.12039 -0.792769 0
M  V30 24050 P 4224.98 8.91 -1.75956e-10 0
M  V30 24051 O 4225.2 10.1726 0.733694 0
M  V30 24052 O 4225.77 8.73148 -1.23936 0
M  V30 24053 O 4225.23 7.66872 0.971405 0
M  V30 24054 C 4224.29 7.42309 2.04641 0
M  V30 24055 C 4225.02 6.86059 3.24661 0
M  V30 24056 O 4225.23 5.42847 3.03646 0
M  V30 24057 C 4226.42 7.41196 3.50753 0
M  V30 24058 O 4226.81 7.27073 4.86816 0
M  V30 24059 C 4227.3 6.5273 2.63741 0
M  V30 24060 C 4226.59 5.1842 2.73198 0
M  V30 24061 N 4226.64 4.38762 1.4784 0
M  V30 24062 H 4223.8 8.36803 2.32493 0
M  V30 24063 H 4223.53 6.70197 1.71129 0
M  V30 24064 H 4224.39 7.03551 4.13168 0
M  V30 24065 P 4228.35 7.20834 5.23717 0
M  V30 24066 O 4228.57 7.79853 6.57286 0
M  V30 24067 O 4229.14 7.79239 4.12957 0
M  V30 24068 O 4228.6 5.63315 5.29344 0
M  V30 24069 C 4227.66 4.80255 6.01876 0
M  V30 24070 C 4228.39 3.64202 6.65911 0
M  V30 24071 O 4228.6 2.60694 5.64732 0
M  V30 24072 C 4229.79 3.93473 7.1943 0
M  V30 24073 O 4230.18 3.02071 8.21205 0
M  V30 24074 C 4230.67 3.73047 5.97036 0
M  V30 24075 C 4229.96 2.58828 5.25741 0
M  V30 24076 N 4230.01 2.68068 3.77503 0
M  V30 24077 H 4227.18 5.40332 6.79951 0
M  V30 24078 H 4226.91 4.41613 5.32378 0
M  V30 24079 H 4227.77 3.26331 7.47797 0
M  V30 24080 P 4231.73 2.75334 8.47391 0
M  V30 24081 O 4231.95 2.44571 9.90142 0
M  V30 24082 O 4232.52 3.87688 7.92115 0
M  V30 24083 O 4231.98 1.4459 7.59357 0
M  V30 24084 C 4231.04 0.347608 7.69215 0
M  V30 24085 C 4231.77 -0.96767 7.52806 0
M  V30 24086 O 4231.98 -1.21036 6.1011 0
M  V30 24087 C 4233.17 -1.04544 8.13308 0
M  V30 24088 O 4233.56 -2.38311 8.41922 0
M  V30 24089 C 4234.05 -0.491279 7.02284 0
M  V30 24090 C 4233.34 -0.996264 5.77469 0
M  V30 24091 N 4233.39 -0.0501916 4.62973 0
M  V30 24092 H 4230.56 0.374722 8.67691 0
M  V30 24093 H 4230.29 0.443485 6.90277 0
M  V30 24094 H 4231.15 -1.75537 7.96793 0
M  V30 24095 P 4235.11 -2.75334 8.47391 0
M  V30 24096 O 4235.33 -3.84128 9.44797 0
M  V30 24097 O 4235.9 -1.51947 8.68712 0
M  V30 24098 O 4235.36 -3.29363 6.99321 0
M  V30 24099 C 4234.42 -4.24011 6.4274 0
M  V30 24100 C 4235.15 -5.20775 5.52155 0
M  V30 24101 O 4235.36 -4.56534 4.22446 0
M  V30 24102 C 4236.55 -5.62629 5.96531 0
M  V30 24103 O 4236.94 -6.87667 5.41053 0
M  V30 24104 C 4237.43 -4.52537 5.39283 0
M  V30 24105 C 4236.72 -4.20027 4.08623 0
M  V30 24106 N 4236.77 -2.76189 3.71603 0
M  V30 24107 H 4233.94 -4.797 7.24003 0
M  V30 24108 H 4233.67 -3.69856 5.84513 0
M  V30 24109 H 4234.53 -6.10356 5.41441 0
M  V30 24110 P 4238.49 -7.20834 5.23717 0
M  V30 24111 O 4238.71 -8.66104 5.38572 0
M  V30 24112 O 4239.28 -6.33544 6.1349 0
M  V30 24113 O 4238.74 -6.7751 3.72168 0
M  V30 24114 C 4237.8 -7.20825 2.7076 0
M  V30 24115 C 4238.53 -7.45864 1.40599 0
M  V30 24116 O 4238.74 -6.17651 0.734225 0
M  V30 24117 C 4239.93 -8.05808 1.51899 0
M  V30 24118 O 4240.32 -8.74358 0.335205 0
M  V30 24119 C 4240.81 -6.83093 1.70294 0
M  V30 24120 C 4240.1 -5.79992 0.836974 0
M  V30 24121 N 4240.15 -4.41864 1.38293 0
M  V30 24122 H 4237.32 -8.13644 3.0377 0
M  V30 24123 H 4237.05 -6.42788 2.55485 0
M  V30 24124 H 4237.91 -8.12039 0.792769 0
M  V30 24125 P 4241.87 -8.91 1.77065e-10 0
M  V30 24126 O 4242.09 -10.1726 -0.733694 0
M  V30 24127 O 4242.66 -8.73148 1.23936 0
M  V30 24128 O 4242.12 -7.66872 -0.971405 0
M  V30 24129 C 4241.18 -7.42309 -2.04641 0
M  V30 24130 C 4241.91 -6.86059 -3.24661 0
M  V30 24131 O 4242.12 -5.42847 -3.03646 0
M  V30 24132 C 4243.31 -7.41196 -3.50753 0
M  V30 24133 O 4243.7 -7.27073 -4.86816 0
M  V30 24134 C 4244.19 -6.5273 -2.63741 0
M  V30 24135 C 4243.48 -5.1842 -2.73198 0
M  V30 24136 N 4243.53 -4.38762 -1.4784 0
M  V30 24137 H 4240.7 -8.36803 -2.32493 0
M  V30 24138 H 4240.43 -6.70197 -1.71129 0
M  V30 24139 H 4241.29 -7.03551 -4.13168 0
M  V30 24140 P 4245.25 -7.20834 -5.23717 0
M  V30 24141 O 4245.47 -7.79853 -6.57286 0
M  V30 24142 O 4246.04 -7.79239 -4.12957 0
M  V30 24143 O 4245.5 -5.63315 -5.29344 0
M  V30 24144 C 4244.56 -4.80255 -6.01876 0
M  V30 24145 C 4245.29 -3.64202 -6.65911 0
M  V30 24146 O 4245.5 -2.60694 -5.64732 0
M  V30 24147 C 4246.69 -3.93473 -7.1943 0
M  V30 24148 O 4247.08 -3.02071 -8.21205 0
M  V30 24149 C 4247.57 -3.73047 -5.97036 0
M  V30 24150 C 4246.86 -2.58828 -5.25741 0
M  V30 24151 N 4246.91 -2.68068 -3.77503 0
M  V30 24152 H 4244.08 -5.40332 -6.79951 0
M  V30 24153 H 4243.81 -4.41613 -5.32378 0
M  V30 24154 H 4244.67 -3.26331 -7.47797 0
M  V30 24155 P 4248.63 -2.75334 -8.47391 0
M  V30 24156 O 4248.85 -2.44619 -9.90336 0
M  V30 24157 O 4249.42 -3.87776 -7.92294 0
M  V30 24158 O 4248.88 -1.4459 -7.59357 0
M  V30 24159 C 4247.94 -0.347653 -7.69315 0
M  V30 24160 C 4248.67 0.96767 -7.52806 0
M  V30 24161 O 4248.88 1.21055 -6.10208 0
M  V30 24162 C 4250.07 1.04557 -8.13408 0
M  V30 24163 O 4250.46 2.38311 -8.41922 0
M  V30 24164 C 4250.95 0.491279 -7.02284 0
M  V30 24165 C 4250.24 0.996264 -5.77469 0
M  V30 24166 N 4250.29 0.0501916 -4.62973 0
M  V30 24167 H 4247.46 -0.374765 -8.67791 0
M  V30 24168 H 4247.18 -0.443613 -6.90476 0
M  V30 24169 H 4248.05 1.75559 -7.96891 0
M  V30 24170 H 4250.71 1.94563 -5.46818 0
M  V30 24171 H 4250.99 -0.608651 -7.04676 0
M  V30 24172 H 4251.98 0.889796 -7.09039 0
M  V30 24173 H 4250.14 0.433128 -9.04664 0
M  V30 24174 P 4252.01 2.75334 -8.47391 0
M  V30 24175 O 4252.23 3.84128 -9.44797 0
M  V30 24176 O 4252.8 1.51947 -8.68712 0
M  V30 24177 O 4252.26 3.29363 -6.99321 0
M  V30 24178 C 4251.32 4.24011 -6.4274 0
M  V30 24179 C 4252.05 5.20775 -5.52155 0
M  V30 24180 O 4252.26 4.56534 -4.22446 0
M  V30 24181 C 4253.45 5.62629 -5.96531 0
M  V30 24182 O 4253.84 6.87667 -5.41053 0
M  V30 24183 C 4254.33 4.52537 -5.39283 0
M  V30 24184 C 4253.62 4.20027 -4.08623 0
M  V30 24185 N 4253.67 2.76189 -3.71603 0
M  V30 24186 H 4250.84 4.797 -7.24003 0
M  V30 24187 H 4250.57 3.69856 -5.84513 0
M  V30 24188 H 4251.43 6.10356 -5.41441 0
M  V30 24189 P 4255.39 7.20834 -5.23717 0
M  V30 24190 O 4255.61 8.66104 -5.38572 0
M  V30 24191 O 4256.18 6.33544 -6.1349 0
M  V30 24192 O 4255.64 6.7751 -3.72168 0
M  V30 24193 C 4254.7 7.20825 -2.7076 0
M  V30 24194 C 4255.43 7.45864 -1.40599 0
M  V30 24195 O 4255.64 6.17651 -0.734225 0
M  V30 24196 C 4256.83 8.05808 -1.51899 0
M  V30 24197 O 4257.22 8.74358 -0.335205 0
M  V30 24198 C 4257.71 6.83093 -1.70294 0
M  V30 24199 C 4257 5.79992 -0.836974 0
M  V30 24200 N 4257.05 4.41864 -1.38293 0
M  V30 24201 H 4254.22 8.13644 -3.0377 0
M  V30 24202 H 4253.95 6.42788 -2.55485 0
M  V30 24203 H 4254.81 8.12039 -0.792769 0
M  V30 24204 P 4258.77 8.91 -1.78174e-10 0
M  V30 24205 O 4258.99 10.1726 0.733694 0
M  V30 24206 O 4259.56 8.73148 -1.23936 0
M  V30 24207 O 4259.02 7.66872 0.971405 0
M  V30 24208 C 4258.08 7.42309 2.04641 0
M  V30 24209 C 4258.81 6.86059 3.24661 0
M  V30 24210 O 4259.02 5.42847 3.03646 0
M  V30 24211 C 4260.21 7.41196 3.50753 0
M  V30 24212 O 4260.6 7.27073 4.86816 0
M  V30 24213 C 4261.09 6.5273 2.63741 0
M  V30 24214 C 4260.38 5.1842 2.73198 0
M  V30 24215 N 4260.43 4.38762 1.4784 0
M  V30 24216 H 4257.6 8.36803 2.32493 0
M  V30 24217 H 4257.33 6.70197 1.71129 0
M  V30 24218 H 4258.19 7.03551 4.13168 0
M  V30 24219 P 4262.15 7.20834 5.23717 0
M  V30 24220 O 4262.37 7.7993 6.57351 0
M  V30 24221 O 4262.94 7.79328 4.13004 0
M  V30 24222 O 4262.4 5.63315 5.29344 0
M  V30 24223 C 4261.46 4.80193 6.01798 0
M  V30 24224 C 4262.19 3.64202 6.65911 0
M  V30 24225 O 4262.4 2.60694 5.64732 0
M  V30 24226 C 4263.59 3.93473 7.1943 0
M  V30 24227 O 4263.98 3.02071 8.21205 0
M  V30 24228 C 4264.47 3.73047 5.97036 0
M  V30 24229 C 4263.76 2.58828 5.25741 0
M  V30 24230 N 4263.81 2.6801 3.77422 0
M  V30 24231 C 4263.96 1.50443 3.07133 0
M  V30 24232 O 4264.05 0.419406 3.61576 0
M  V30 24233 N 4264 1.6403 1.69677 0
M  V30 24234 C 4263.91 2.81206 0.986255 0
M  V30 24235 C 4263.76 3.99158 1.80325 0
M  V30 24236 C 4263.71 3.89779 3.1476 0
M  V30 24237 H 4260.97 5.40332 6.79951 0
M  V30 24238 H 4260.71 4.41549 5.32301 0
M  V30 24239 H 4261.57 3.26331 7.47797 0
M  V30 24240 H 4264.23 1.6395 5.56554 0
M  V30 24241 H 4264.51 4.63439 5.3432 0
M  V30 24242 H 4265.5 3.44728 6.25838 0
M  V30 24243 H 4263.66 4.96652 7.57263 0
M  V30 24244 H 4263.59 4.80159 3.74441 0
M  V30 24245 P 4265.53 2.75334 8.47391 0
M  V30 24246 O 4265.75 2.44571 9.90142 0
M  V30 24247 O 4266.32 3.87688 7.92115 0
M  V30 24248 O 4265.78 1.4459 7.59357 0
M  V30 24249 C 4264.84 0.347608 7.69215 0
M  V30 24250 C 4265.57 -0.96767 7.52806 0
M  V30 24251 O 4265.78 -1.21036 6.1011 0
M  V30 24252 C 4266.97 -1.04544 8.13308 0
M  V30 24253 O 4267.36 -2.38311 8.41922 0
M  V30 24254 C 4267.85 -0.491279 7.02284 0
M  V30 24255 C 4267.14 -0.996264 5.77469 0
M  V30 24256 N 4267.19 -0.0501916 4.62973 0
M  V30 24257 H 4264.36 0.374722 8.67691 0
M  V30 24258 H 4264.09 0.443485 6.90277 0
M  V30 24259 H 4264.95 -1.75537 7.96793 0
M  V30 24260 P 4268.91 -2.75334 8.47391 0
M  V30 24261 O 4269.13 -3.84128 9.44797 0
M  V30 24262 O 4269.7 -1.51947 8.68712 0
M  V30 24263 O 4269.16 -3.29363 6.99321 0
M  V30 24264 C 4268.22 -4.24011 6.4274 0
M  V30 24265 C 4268.95 -5.20775 5.52155 0
M  V30 24266 O 4269.16 -4.56534 4.22446 0
M  V30 24267 C 4270.35 -5.62629 5.96531 0
M  V30 24268 O 4270.74 -6.87667 5.41053 0
M  V30 24269 C 4271.23 -4.52537 5.39283 0
M  V30 24270 C 4270.52 -4.20027 4.08623 0
M  V30 24271 N 4270.57 -2.76189 3.71603 0
M  V30 24272 C 4270.49 -1.64862 4.52822 0
M  V30 24273 N 4270.57 -0.512671 3.88633 0
M  V30 24274 C 4270.71 -0.888083 2.54977 0
M  V30 24275 C 4270.84 -0.094668 1.38677 0
M  V30 24276 N 4270.96 -0.890102 0.232633 0
M  V30 24277 C 4270.96 -2.26958 0.21772 0
M  V30 24278 N 4271.09 -2.84626 -0.97925 0
M  V30 24279 N 4270.83 -3.0178 1.31033 0
M  V30 24280 C 4270.71 -2.26781 2.43843 0
M  V30 24281 H 4267.74 -4.797 7.24003 0
M  V30 24282 H 4267.47 -3.69856 5.84513 0
M  V30 24283 H 4268.33 -6.10356 5.41441 0
M  V30 24284 P 4272.29 -7.20834 5.23717 0
M  V30 24285 O 4272.51 -8.66104 5.38572 0
M  V30 24286 O 4273.08 -6.33544 6.1349 0
M  V30 24287 O 4272.54 -6.7751 3.72168 0
M  V30 24288 C 4271.6 -7.20825 2.7076 0
M  V30 24289 C 4272.33 -7.45864 1.40599 0
M  V30 24290 O 4272.54 -6.17651 0.734225 0
M  V30 24291 C 4273.73 -8.05808 1.51899 0
M  V30 24292 O 4274.12 -8.74358 0.335205 0
M  V30 24293 C 4274.61 -6.83093 1.70294 0
M  V30 24294 C 4273.9 -5.79992 0.836974 0
M  V30 24295 N 4273.95 -4.41864 1.38293 0
M  V30 24296 H 4271.12 -8.13644 3.0377 0
M  V30 24297 H 4270.85 -6.42788 2.55485 0
M  V30 24298 H 4271.71 -8.12039 0.792769 0
M  V30 24299 P 4275.67 -8.91 1.79283e-10 0
M  V30 24300 O 4275.89 -10.1726 -0.733694 0
M  V30 24301 O 4276.46 -8.73148 1.23936 0
M  V30 24302 O 4275.92 -7.66872 -0.971405 0
M  V30 24303 C 4274.98 -7.42309 -2.04641 0
M  V30 24304 C 4275.71 -6.86059 -3.24661 0
M  V30 24305 O 4275.92 -5.42847 -3.03646 0
M  V30 24306 C 4277.11 -7.41196 -3.50753 0
M  V30 24307 O 4277.5 -7.27073 -4.86816 0
M  V30 24308 C 4277.99 -6.5273 -2.63741 0
M  V30 24309 C 4277.28 -5.1842 -2.73198 0
M  V30 24310 N 4277.33 -4.38762 -1.4784 0
M  V30 24311 H 4274.5 -8.36803 -2.32493 0
M  V30 24312 H 4274.23 -6.70197 -1.71129 0
M  V30 24313 H 4275.09 -7.03551 -4.13168 0
M  V30 24314 P 4279.05 -7.20834 -5.23717 0
M  V30 24315 O 4279.27 -7.79853 -6.57286 0
M  V30 24316 O 4279.84 -7.79239 -4.12957 0
M  V30 24317 O 4279.3 -5.63315 -5.29344 0
M  V30 24318 C 4278.36 -4.80255 -6.01876 0
M  V30 24319 C 4279.09 -3.64202 -6.65911 0
M  V30 24320 O 4279.3 -2.60694 -5.64732 0
M  V30 24321 C 4280.49 -3.93473 -7.1943 0
M  V30 24322 O 4280.88 -3.02071 -8.21205 0
M  V30 24323 C 4281.37 -3.73047 -5.97036 0
M  V30 24324 C 4280.66 -2.58828 -5.25741 0
M  V30 24325 N 4280.71 -2.68068 -3.77503 0
M  V30 24326 H 4277.88 -5.40332 -6.79951 0
M  V30 24327 H 4277.61 -4.41613 -5.32378 0
M  V30 24328 H 4278.47 -3.26331 -7.47797 0
M  V30 24329 P 4282.43 -2.75334 -8.47391 0
M  V30 24330 O 4282.65 -2.44571 -9.90142 0
M  V30 24331 O 4283.22 -3.87688 -7.92115 0
M  V30 24332 O 4282.68 -1.4459 -7.59357 0
M  V30 24333 C 4281.74 -0.347608 -7.69215 0
M  V30 24334 C 4282.47 0.96767 -7.52806 0
M  V30 24335 O 4282.68 1.21036 -6.1011 0
M  V30 24336 C 4283.87 1.04544 -8.13308 0
M  V30 24337 O 4284.26 2.38311 -8.41922 0
M  V30 24338 C 4284.75 0.491279 -7.02284 0
M  V30 24339 C 4284.04 0.996264 -5.77469 0
M  V30 24340 N 4284.09 0.0501916 -4.62973 0
M  V30 24341 H 4281.26 -0.374722 -8.67691 0
M  V30 24342 H 4280.99 -0.443485 -6.90277 0
M  V30 24343 H 4281.85 1.75537 -7.96793 0
M  V30 24344 P 4285.81 2.75334 -8.47391 0
M  V30 24345 O 4286.03 3.84204 -9.44982 0
M  V30 24346 O 4286.6 1.51982 -8.68909 0
M  V30 24347 O 4286.06 3.29363 -6.99321 0
M  V30 24348 C 4285.12 4.24066 -6.42823 0
M  V30 24349 C 4285.85 5.20775 -5.52155 0
M  V30 24350 O 4286.06 4.56607 -4.22514 0
M  V30 24351 C 4287.25 5.62697 -5.96604 0
M  V30 24352 O 4287.64 6.87667 -5.41053 0
M  V30 24353 C 4288.13 4.52537 -5.39283 0
M  V30 24354 C 4287.42 4.20027 -4.08623 0
M  V30 24355 N 4287.47 2.76189 -3.71603 0
M  V30 24356 H 4284.64 4.79756 -7.24086 0
M  V30 24357 H 4284.36 3.69963 -5.84682 0
M  V30 24358 H 4285.23 6.10431 -5.41508 0
M  V30 24359 H 4287.89 4.78816 -3.28024 0
M  V30 24360 H 4288.17 3.64957 -6.05871 0
M  V30 24361 H 4289.16 4.88748 -5.21323 0
M  V30 24362 H 4287.32 5.66789 -7.0643 0
M  V30 24363 P 4289.19 7.20834 -5.23717 0
M  V30 24364 O 4289.41 8.66104 -5.38572 0
M  V30 24365 O 4289.98 6.33544 -6.1349 0
M  V30 24366 O 4289.44 6.7751 -3.72168 0
M  V30 24367 C 4288.5 7.20825 -2.7076 0
M  V30 24368 C 4289.23 7.45864 -1.40599 0
M  V30 24369 O 4289.44 6.17651 -0.734225 0
M  V30 24370 C 4290.63 8.05808 -1.51899 0
M  V30 24371 O 4291.02 8.74358 -0.335205 0
M  V30 24372 C 4291.51 6.83093 -1.70294 0
M  V30 24373 C 4290.8 5.79992 -0.836974 0
M  V30 24374 N 4290.85 4.41864 -1.38293 0
M  V30 24375 H 4288.02 8.13644 -3.0377 0
M  V30 24376 H 4287.75 6.42788 -2.55485 0
M  V30 24377 H 4288.61 8.12039 -0.792769 0
M  V30 24378 P 4292.57 8.91 -1.80392e-10 0
M  V30 24379 O 4292.79 10.1726 0.733694 0
M  V30 24380 O 4293.36 8.73148 -1.23936 0
M  V30 24381 O 4292.82 7.66872 0.971405 0
M  V30 24382 C 4291.88 7.42309 2.04641 0
M  V30 24383 C 4292.61 6.86059 3.24661 0
M  V30 24384 O 4292.82 5.42847 3.03646 0
M  V30 24385 C 4294.01 7.41196 3.50753 0
M  V30 24386 O 4294.4 7.27073 4.86816 0
M  V30 24387 C 4294.89 6.5273 2.63741 0
M  V30 24388 C 4294.18 5.1842 2.73198 0
M  V30 24389 N 4294.23 4.38762 1.4784 0
M  V30 24390 C 4294.15 4.81605 0.168631 0
M  V30 24391 N 4294.23 3.85454 -0.713363 0
M  V30 24392 C 4294.37 2.6994 0.0566958 0
M  V30 24393 C 4294.5 1.34815 -0.338502 0
M  V30 24394 N 4294.62 0.496304 0.77465 0
M  V30 24395 C 4294.62 0.908403 2.09122 0
M  V30 24396 N 4294.75 -0.0517805 3.00955 0
M  V30 24397 N 4294.49 2.17875 2.46519 0
M  V30 24398 C 4294.37 3.01988 1.4033 0
M  V30 24399 H 4291.4 8.36803 2.32493 0
M  V30 24400 H 4291.13 6.70197 1.71129 0
M  V30 24401 H 4291.99 7.03551 4.13168 0
M  V30 24402 P 4295.95 7.20834 5.23717 0
M  V30 24403 O 4296.17 7.79853 6.57286 0
M  V30 24404 O 4296.74 7.79239 4.12957 0
M  V30 24405 O 4296.2 5.63315 5.29344 0
M  V30 24406 C 4295.26 4.80255 6.01876 0
M  V30 24407 C 4295.99 3.64202 6.65911 0
M  V30 24408 O 4296.2 2.60694 5.64732 0
M  V30 24409 C 4297.39 3.93473 7.1943 0
M  V30 24410 O 4297.78 3.02071 8.21205 0
M  V30 24411 C 4298.27 3.73047 5.97036 0
M  V30 24412 C 4297.56 2.58828 5.25741 0
M  V30 24413 N 4297.61 2.68068 3.77503 0
M  V30 24414 H 4294.78 5.40332 6.79951 0
M  V30 24415 H 4294.51 4.41613 5.32378 0
M  V30 24416 H 4295.37 3.26331 7.47797 0
M  V30 24417 P 4299.33 2.75334 8.47391 0
M  V30 24418 O 4299.55 2.44571 9.90142 0
M  V30 24419 O 4300.12 3.87688 7.92115 0
M  V30 24420 O 4299.58 1.4459 7.59357 0
M  V30 24421 C 4298.64 0.347608 7.69215 0
M  V30 24422 C 4299.37 -0.96767 7.52806 0
M  V30 24423 O 4299.58 -1.21036 6.1011 0
M  V30 24424 C 4300.77 -1.04544 8.13308 0
M  V30 24425 O 4301.16 -2.38311 8.41922 0
M  V30 24426 C 4301.65 -0.491279 7.02284 0
M  V30 24427 C 4300.94 -0.996264 5.77469 0
M  V30 24428 N 4300.99 -0.0501916 4.62973 0
M  V30 24429 H 4298.16 0.374722 8.67691 0
M  V30 24430 H 4297.89 0.443485 6.90277 0
M  V30 24431 H 4298.75 -1.75537 7.96793 0
M  V30 24432 P 4302.71 -2.75334 8.47391 0
M  V30 24433 O 4302.93 -3.84166 9.4489 0
M  V30 24434 O 4303.5 -1.51964 8.6881 0
M  V30 24435 O 4302.96 -3.29363 6.99321 0
M  V30 24436 C 4302.02 -4.23956 6.42656 0
M  V30 24437 C 4302.75 -5.20775 5.52155 0
M  V30 24438 O 4302.96 -4.56534 4.22446 0
M  V30 24439 C 4304.15 -5.62629 5.96531 0
M  V30 24440 O 4304.54 -6.87667 5.41053 0
M  V30 24441 C 4305.03 -4.52537 5.39283 0
M  V30 24442 C 4304.32 -4.20027 4.08623 0
M  V30 24443 N 4304.37 -2.7613 3.71522 0
M  V30 24444 C 4304.52 -2.45612 2.37989 0
M  V30 24445 O 4304.61 -3.30919 1.51621 0
M  V30 24446 N 4304.56 -1.10684 2.08435 0
M  V30 24447 C 4304.47 -0.0690084 2.9792 0
M  V30 24448 O 4304.52 1.10553 2.59426 0
M  V30 24449 C 4304.32 -0.481522 4.35345 0
M  V30 24450 C 4304.21 0.618778 5.36443 0
M  V30 24451 C 4304.27 -1.78906 4.67968 0
M  V30 24452 H 4301.53 -4.797 7.24003 0
M  V30 24453 H 4301.27 -3.69802 5.84429 0
M  V30 24454 H 4302.13 -6.10356 5.41441 0
M  V30 24455 H 4304.79 -4.78651 3.27911 0
M  V30 24456 H 4305.07 -3.64957 6.05871 0
M  V30 24457 H 4306.06 -4.8868 5.2125 0
M  V30 24458 H 4304.22 -5.66726 7.06352 0
M  V30 24459 H 4304.15 -2.07737 5.72367 0
M  V30 24460 H 4305.18 0.754375 5.86871 0
M  V30 24461 H 4303.45 0.359721 6.10641 0
M  V30 24462 H 4303.93 1.55533 4.8581 0
M  V30 24463 H 4304.67 -0.862651 1.12037 0
M  V30 24464 P 4306.09 -7.20834 5.23717 0
M  V30 24465 O 4306.31 -8.66104 5.38572 0
M  V30 24466 O 4306.88 -6.33544 6.1349 0
M  V30 24467 O 4306.34 -6.7751 3.72168 0
M  V30 24468 C 4305.4 -7.20825 2.7076 0
M  V30 24469 C 4306.13 -7.45864 1.40599 0
M  V30 24470 O 4306.34 -6.17651 0.734225 0
M  V30 24471 C 4307.53 -8.05808 1.51899 0
M  V30 24472 O 4307.92 -8.74358 0.335205 0
M  V30 24473 C 4308.41 -6.83093 1.70294 0
M  V30 24474 C 4307.7 -5.79992 0.836974 0
M  V30 24475 N 4307.75 -4.41864 1.38293 0
M  V30 24476 H 4304.92 -8.13644 3.0377 0
M  V30 24477 H 4304.65 -6.42788 2.55485 0
M  V30 24478 H 4305.51 -8.12039 0.792769 0
M  V30 24479 P 4309.47 -8.91 1.81501e-10 0
M  V30 24480 O 4309.69 -10.1726 -0.733694 0
M  V30 24481 O 4310.26 -8.73148 1.23936 0
M  V30 24482 O 4309.72 -7.66872 -0.971405 0
M  V30 24483 C 4308.78 -7.42309 -2.04641 0
M  V30 24484 C 4309.51 -6.86059 -3.24661 0
M  V30 24485 O 4309.72 -5.42847 -3.03646 0
M  V30 24486 C 4310.91 -7.41196 -3.50753 0
M  V30 24487 O 4311.3 -7.27073 -4.86816 0
M  V30 24488 C 4311.79 -6.5273 -2.63741 0
M  V30 24489 C 4311.08 -5.1842 -2.73198 0
M  V30 24490 N 4311.13 -4.38762 -1.4784 0
M  V30 24491 H 4308.3 -8.36803 -2.32493 0
M  V30 24492 H 4308.03 -6.70197 -1.71129 0
M  V30 24493 H 4308.89 -7.03551 -4.13168 0
M  V30 24494 P 4312.85 -7.20834 -5.23717 0
M  V30 24495 O 4313.07 -7.79853 -6.57286 0
M  V30 24496 O 4313.64 -7.79239 -4.12957 0
M  V30 24497 O 4313.1 -5.63315 -5.29344 0
M  V30 24498 C 4312.16 -4.80255 -6.01876 0
M  V30 24499 C 4312.89 -3.64202 -6.65911 0
M  V30 24500 O 4313.1 -2.60694 -5.64732 0
M  V30 24501 C 4314.29 -3.93473 -7.1943 0
M  V30 24502 O 4314.68 -3.02071 -8.21205 0
M  V30 24503 C 4315.17 -3.73047 -5.97036 0
M  V30 24504 C 4314.46 -2.58828 -5.25741 0
M  V30 24505 N 4314.51 -2.68068 -3.77503 0
M  V30 24506 H 4311.68 -5.40332 -6.79951 0
M  V30 24507 H 4311.41 -4.41613 -5.32378 0
M  V30 24508 H 4312.27 -3.26331 -7.47797 0
M  V30 24509 P 4316.23 -2.75334 -8.47391 0
M  V30 24510 O 4316.45 -2.44571 -9.90142 0
M  V30 24511 O 4317.02 -3.87688 -7.92115 0
M  V30 24512 O 4316.48 -1.4459 -7.59357 0
M  V30 24513 C 4315.54 -0.347608 -7.69215 0
M  V30 24514 C 4316.27 0.96767 -7.52806 0
M  V30 24515 O 4316.48 1.21036 -6.1011 0
M  V30 24516 C 4317.67 1.04544 -8.13308 0
M  V30 24517 O 4318.06 2.38311 -8.41922 0
M  V30 24518 C 4318.55 0.491279 -7.02284 0
M  V30 24519 C 4317.84 0.996264 -5.77469 0
M  V30 24520 N 4317.89 0.0501916 -4.62973 0
M  V30 24521 H 4315.06 -0.374722 -8.67691 0
M  V30 24522 H 4314.79 -0.443485 -6.90277 0
M  V30 24523 H 4315.65 1.75537 -7.96793 0
M  V30 24524 P 4319.61 2.75334 -8.47391 0
M  V30 24525 O 4319.83 3.84128 -9.44797 0
M  V30 24526 O 4320.4 1.51947 -8.68712 0
M  V30 24527 O 4319.86 3.29363 -6.99321 0
M  V30 24528 C 4318.92 4.24011 -6.4274 0
M  V30 24529 C 4319.65 5.20775 -5.52155 0
M  V30 24530 O 4319.86 4.56534 -4.22446 0
M  V30 24531 C 4321.05 5.62629 -5.96531 0
M  V30 24532 O 4321.44 6.87667 -5.41053 0
M  V30 24533 C 4321.93 4.52537 -5.39283 0
M  V30 24534 C 4321.22 4.20027 -4.08623 0
M  V30 24535 N 4321.27 2.76189 -3.71603 0
M  V30 24536 H 4318.44 4.797 -7.24003 0
M  V30 24537 H 4318.17 3.69856 -5.84513 0
M  V30 24538 H 4319.03 6.10356 -5.41441 0
M  V30 24539 P 4322.99 7.20834 -5.23717 0
M  V30 24540 O 4323.21 8.66104 -5.38572 0
M  V30 24541 O 4323.78 6.33544 -6.1349 0
M  V30 24542 O 4323.24 6.7751 -3.72168 0
M  V30 24543 C 4322.3 7.20825 -2.7076 0
M  V30 24544 C 4323.03 7.45864 -1.40599 0
M  V30 24545 O 4323.24 6.17651 -0.734225 0
M  V30 24546 C 4324.43 8.05808 -1.51899 0
M  V30 24547 O 4324.82 8.74358 -0.335205 0
M  V30 24548 C 4325.31 6.83093 -1.70294 0
M  V30 24549 C 4324.6 5.79992 -0.836974 0
M  V30 24550 N 4324.65 4.41864 -1.38293 0
M  V30 24551 H 4321.82 8.13644 -3.0377 0
M  V30 24552 H 4321.55 6.42788 -2.55485 0
M  V30 24553 H 4322.41 8.12039 -0.792769 0
M  V30 24554 P 4326.37 8.91 -1.8261e-10 0
M  V30 24555 O 4326.59 10.1736 0.733766 0
M  V30 24556 O 4327.16 8.73247 -1.2395 0
M  V30 24557 O 4326.62 7.66872 0.971405 0
M  V30 24558 C 4325.68 7.42212 2.04614 0
M  V30 24559 C 4326.41 6.86059 3.24661 0
M  V30 24560 O 4326.62 5.42847 3.03646 0
M  V30 24561 C 4327.81 7.41196 3.50753 0
M  V30 24562 O 4328.2 7.27073 4.86816 0
M  V30 24563 C 4328.69 6.5273 2.63741 0
M  V30 24564 C 4327.98 5.1842 2.73198 0
M  V30 24565 N 4328.03 4.38668 1.47808 0
M  V30 24566 C 4328.18 3.02239 1.60048 0
M  V30 24567 O 4328.27 2.46459 2.67869 0
M  V30 24568 N 4328.22 2.32436 0.408571 0
M  V30 24569 C 4328.13 2.85471 -0.854993 0
M  V30 24570 C 4327.98 4.28918 -0.887335 0
M  V30 24571 C 4327.93 5.00349 0.255399 0
M  V30 24572 H 4325.19 8.36803 2.32493 0
M  V30 24573 H 4324.93 6.701 1.71105 0
M  V30 24574 H 4325.79 7.03551 4.13168 0
M  V30 24575 H 4328.45 4.59773 3.53894 0
M  V30 24576 H 4328.73 6.88995 1.59871 0
M  V30 24577 H 4329.72 6.46749 3.03687 0
M  V30 24578 H 4327.88 8.46908 3.20714 0
M  V30 24579 H 4327.81 6.08548 0.206986 0
M  V30 24580 P 4329.75 7.20834 5.23717 0
M  V30 24581 O 4329.97 7.79853 6.57286 0
M  V30 24582 O 4330.54 7.79239 4.12957 0
M  V30 24583 O 4330 5.63315 5.29344 0
M  V30 24584 C 4329.06 4.80255 6.01876 0
M  V30 24585 C 4329.79 3.64202 6.65911 0
M  V30 24586 O 4330 2.60694 5.64732 0
M  V30 24587 C 4331.19 3.93473 7.1943 0
M  V30 24588 O 4331.58 3.02071 8.21205 0
M  V30 24589 C 4332.07 3.73047 5.97036 0
M  V30 24590 C 4331.36 2.58828 5.25741 0
M  V30 24591 N 4331.41 2.68068 3.77503 0
M  V30 24592 H 4328.58 5.40332 6.79951 0
M  V30 24593 H 4328.31 4.41613 5.32378 0
M  V30 24594 H 4329.17 3.26331 7.47797 0
M  V30 24595 P 4333.13 2.75334 8.47391 0
M  V30 24596 O 4333.35 2.44571 9.90142 0
M  V30 24597 O 4333.92 3.87688 7.92115 0
M  V30 24598 O 4333.38 1.4459 7.59357 0
M  V30 24599 C 4332.44 0.347608 7.69215 0
M  V30 24600 C 4333.17 -0.96767 7.52806 0
M  V30 24601 O 4333.38 -1.21036 6.1011 0
M  V30 24602 C 4334.57 -1.04544 8.13308 0
M  V30 24603 O 4334.96 -2.38311 8.41922 0
M  V30 24604 C 4335.45 -0.491279 7.02284 0
M  V30 24605 C 4334.74 -0.996264 5.77469 0
M  V30 24606 N 4334.79 -0.0501916 4.62973 0
M  V30 24607 H 4331.96 0.374722 8.67691 0
M  V30 24608 H 4331.69 0.443485 6.90277 0
M  V30 24609 H 4332.55 -1.75537 7.96793 0
M  V30 24610 P 4336.51 -2.75334 8.47391 0
M  V30 24611 O 4336.73 -3.84128 9.44797 0
M  V30 24612 O 4337.3 -1.51947 8.68712 0
M  V30 24613 O 4336.76 -3.29363 6.99321 0
M  V30 24614 C 4335.82 -4.24011 6.4274 0
M  V30 24615 C 4336.55 -5.20775 5.52155 0
M  V30 24616 O 4336.76 -4.56534 4.22446 0
M  V30 24617 C 4337.95 -5.62629 5.96531 0
M  V30 24618 O 4338.34 -6.87667 5.41053 0
M  V30 24619 C 4338.83 -4.52537 5.39283 0
M  V30 24620 C 4338.12 -4.20027 4.08623 0
M  V30 24621 N 4338.17 -2.76189 3.71603 0
M  V30 24622 H 4335.34 -4.797 7.24003 0
M  V30 24623 H 4335.07 -3.69856 5.84513 0
M  V30 24624 H 4335.93 -6.10356 5.41441 0
M  V30 24625 P 4339.89 -7.20834 5.23717 0
M  V30 24626 O 4340.11 -8.66104 5.38572 0
M  V30 24627 O 4340.68 -6.33544 6.1349 0
M  V30 24628 O 4340.14 -6.7751 3.72168 0
M  V30 24629 C 4339.2 -7.20825 2.7076 0
M  V30 24630 C 4339.93 -7.45864 1.40599 0
M  V30 24631 O 4340.14 -6.17651 0.734225 0
M  V30 24632 C 4341.33 -8.05808 1.51899 0
M  V30 24633 O 4341.72 -8.74358 0.335205 0
M  V30 24634 C 4342.21 -6.83093 1.70294 0
M  V30 24635 C 4341.5 -5.79992 0.836974 0
M  V30 24636 N 4341.55 -4.41864 1.38293 0
M  V30 24637 H 4338.72 -8.13644 3.0377 0
M  V30 24638 H 4338.45 -6.42788 2.55485 0
M  V30 24639 H 4339.31 -8.12039 0.792769 0
M  V30 24640 P 4343.27 -8.91 1.83719e-10 0
M  V30 24641 O 4343.49 -10.1726 -0.733694 0
M  V30 24642 O 4344.06 -8.73148 1.23936 0
M  V30 24643 O 4343.52 -7.66872 -0.971405 0
M  V30 24644 C 4342.58 -7.42309 -2.04641 0
M  V30 24645 C 4343.31 -6.86059 -3.24661 0
M  V30 24646 O 4343.52 -5.42847 -3.03646 0
M  V30 24647 C 4344.71 -7.41196 -3.50753 0
M  V30 24648 O 4345.1 -7.27073 -4.86816 0
M  V30 24649 C 4345.59 -6.5273 -2.63741 0
M  V30 24650 C 4344.88 -5.1842 -2.73198 0
M  V30 24651 N 4344.93 -4.38762 -1.4784 0
M  V30 24652 C 4344.85 -4.81605 -0.168631 0
M  V30 24653 N 4344.93 -3.85454 0.713363 0
M  V30 24654 C 4345.07 -2.6994 -0.0566958 0
M  V30 24655 C 4345.2 -1.34815 0.338502 0
M  V30 24656 N 4345.32 -0.496304 -0.77465 0
M  V30 24657 C 4345.32 -0.908403 -2.09122 0
M  V30 24658 N 4345.45 0.0517805 -3.00955 0
M  V30 24659 N 4345.19 -2.17875 -2.46519 0
M  V30 24660 C 4345.07 -3.01988 -1.4033 0
M  V30 24661 H 4342.1 -8.36803 -2.32493 0
M  V30 24662 H 4341.83 -6.70197 -1.71129 0
M  V30 24663 H 4342.69 -7.03551 -4.13168 0
M  V30 24664 P 4346.65 -7.20834 -5.23717 0
M  V30 24665 O 4346.87 -7.79853 -6.57286 0
M  V30 24666 O 4347.44 -7.79239 -4.12957 0
M  V30 24667 O 4346.9 -5.63315 -5.29344 0
M  V30 24668 C 4345.96 -4.80255 -6.01876 0
M  V30 24669 C 4346.69 -3.64202 -6.65911 0
M  V30 24670 O 4346.9 -2.60694 -5.64732 0
M  V30 24671 C 4348.09 -3.93473 -7.1943 0
M  V30 24672 O 4348.48 -3.02071 -8.21205 0
M  V30 24673 C 4348.97 -3.73047 -5.97036 0
M  V30 24674 C 4348.26 -2.58828 -5.25741 0
M  V30 24675 N 4348.31 -2.68068 -3.77503 0
M  V30 24676 H 4345.48 -5.40332 -6.79951 0
M  V30 24677 H 4345.21 -4.41613 -5.32378 0
M  V30 24678 H 4346.07 -3.26331 -7.47797 0
M  V30 24679 P 4350.03 -2.75334 -8.47391 0
M  V30 24680 O 4350.25 -2.44595 -9.90239 0
M  V30 24681 O 4350.82 -3.87732 -7.92204 0
M  V30 24682 O 4350.28 -1.4459 -7.59357 0
M  V30 24683 C 4349.34 -0.347563 -7.69115 0
M  V30 24684 C 4350.07 0.96767 -7.52806 0
M  V30 24685 O 4350.28 1.21036 -6.1011 0
M  V30 24686 C 4351.47 1.04544 -8.13308 0
M  V30 24687 O 4351.86 2.38311 -8.41922 0
M  V30 24688 C 4352.35 0.491279 -7.02284 0
M  V30 24689 C 4351.64 0.996264 -5.77469 0
M  V30 24690 N 4351.69 0.0501808 -4.62873 0
M  V30 24691 C 4351.84 0.588177 -3.36904 0
M  V30 24692 O 4351.93 1.78598 -3.17173 0
M  V30 24693 N 4351.88 -0.329694 -2.33686 0
M  V30 24694 C 4351.79 -1.6953 -2.45079 0
M  V30 24695 C 4351.64 -2.16933 -3.80505 0
M  V30 24696 C 4351.59 -1.30326 -4.83752 0
M  V30 24697 H 4348.85 -0.374722 -8.67691 0
M  V30 24698 H 4348.59 -0.443421 -6.90177 0
M  V30 24699 H 4349.45 1.75537 -7.96793 0
M  V30 24700 H 4352.11 1.94496 -5.46629 0
M  V30 24701 H 4352.39 -0.608651 -7.04676 0
M  V30 24702 H 4353.38 0.889672 -7.08939 0
M  V30 24703 H 4351.54 0.43308 -9.04564 0
M  V30 24704 H 4351.47 -1.68366 -5.8516 0
M  V30 24705 P 4353.41 2.75334 -8.47391 0
M  V30 24706 O 4353.63 3.84204 -9.44982 0
M  V30 24707 O 4354.2 1.51982 -8.68909 0
M  V30 24708 O 4353.66 3.29363 -6.99321 0
M  V30 24709 C 4352.72 4.24066 -6.42823 0
M  V30 24710 C 4353.45 5.20775 -5.52155 0
M  V30 24711 O 4353.66 4.56607 -4.22514 0
M  V30 24712 C 4354.85 5.62697 -5.96604 0
M  V30 24713 O 4355.24 6.87667 -5.41053 0
M  V30 24714 C 4355.73 4.52537 -5.39283 0
M  V30 24715 C 4355.02 4.20027 -4.08623 0
M  V30 24716 N 4355.07 2.76189 -3.71603 0
M  V30 24717 H 4352.24 4.79756 -7.24086 0
M  V30 24718 H 4351.96 3.69963 -5.84682 0
M  V30 24719 H 4352.83 6.10431 -5.41508 0
M  V30 24720 H 4355.49 4.78816 -3.28024 0
M  V30 24721 H 4355.77 3.64957 -6.05871 0
M  V30 24722 H 4356.76 4.88748 -5.21323 0
M  V30 24723 H 4354.92 5.66789 -7.0643 0
M  V30 24724 P 4356.79 7.20834 -5.23717 0
M  V30 24725 O 4357.01 8.66189 -5.38625 0
M  V30 24726 O 4357.58 6.33615 -6.1356 0
M  V30 24727 O 4357.04 6.7751 -3.72168 0
M  V30 24728 C 4356.1 7.20732 -2.70725 0
M  V30 24729 C 4356.83 7.45864 -1.40599 0
M  V30 24730 O 4357.04 6.17651 -0.734225 0
M  V30 24731 C 4358.23 8.05808 -1.51899 0
M  V30 24732 O 4358.62 8.74358 -0.335205 0
M  V30 24733 C 4359.11 6.83093 -1.70294 0
M  V30 24734 C 4358.4 5.79992 -0.836974 0
M  V30 24735 N 4358.45 4.41769 -1.38263 0
M  V30 24736 C 4358.6 3.38591 -0.481702 0
M  V30 24737 O 4358.69 3.56839 0.718452 0
M  V30 24738 N 4358.64 2.1206 -1.03569 0
M  V30 24739 C 4358.55 1.80696 -2.36966 0
M  V30 24740 O 4358.6 0.630473 -2.74862 0
M  V30 24741 C 4358.4 2.94845 -3.23898 0
M  V30 24742 C 4358.29 2.65253 -4.70362 0
M  V30 24743 C 4358.35 4.19803 -2.73435 0
M  V30 24744 H 4355.61 8.13644 -3.0377 0
M  V30 24745 H 4355.35 6.42695 -2.55448 0
M  V30 24746 H 4356.21 8.12039 -0.792769 0
M  V30 24747 H 4358.87 5.79978 0.160587 0
M  V30 24748 H 4359.15 6.51379 -2.75643 0
M  V30 24749 H 4360.14 7.01734 -1.34462 0
M  V30 24750 H 4358.3 8.73674 -2.38337 0
M  V30 24751 H 4358.23 5.04492 -3.4095 0
M  V30 24752 H 4359.26 2.83924 -5.1913 0
M  V30 24753 H 4357.53 3.29824 -5.15163 0
M  V30 24754 H 4358.01 1.59723 -4.84449 0
M  V30 24755 H 4358.75 1.35644 -0.399345 0
M  V30 24756 P 4360.17 8.91 -1.84828e-10 0
M  V30 24757 O 4360.39 10.1726 0.733694 0
M  V30 24758 O 4360.96 8.73148 -1.23936 0
M  V30 24759 O 4360.42 7.66872 0.971405 0
M  V30 24760 C 4359.48 7.42309 2.04641 0
M  V30 24761 C 4360.21 6.86059 3.24661 0
M  V30 24762 O 4360.42 5.42847 3.03646 0
M  V30 24763 C 4361.61 7.41196 3.50753 0
M  V30 24764 O 4362 7.27073 4.86816 0
M  V30 24765 C 4362.49 6.5273 2.63741 0
M  V30 24766 C 4361.78 5.1842 2.73198 0
M  V30 24767 N 4361.83 4.38762 1.4784 0
M  V30 24768 H 4359 8.36803 2.32493 0
M  V30 24769 H 4358.73 6.70197 1.71129 0
M  V30 24770 H 4359.59 7.03551 4.13168 0
M  V30 24771 P 4363.55 7.20834 5.23717 0
M  V30 24772 O 4363.77 7.79853 6.57286 0
M  V30 24773 O 4364.34 7.79239 4.12957 0
M  V30 24774 O 4363.8 5.63315 5.29344 0
M  V30 24775 C 4362.86 4.80255 6.01876 0
M  V30 24776 C 4363.59 3.64202 6.65911 0
M  V30 24777 O 4363.8 2.60694 5.64732 0
M  V30 24778 C 4364.99 3.93473 7.1943 0
M  V30 24779 O 4365.38 3.02071 8.21205 0
M  V30 24780 C 4365.87 3.73047 5.97036 0
M  V30 24781 C 4365.16 2.58828 5.25741 0
M  V30 24782 N 4365.21 2.68068 3.77503 0
M  V30 24783 H 4362.38 5.40332 6.79951 0
M  V30 24784 H 4362.11 4.41613 5.32378 0
M  V30 24785 H 4362.97 3.26331 7.47797 0
M  V30 24786 P 4366.93 2.75334 8.47391 0
M  V30 24787 O 4367.15 2.44571 9.90142 0
M  V30 24788 O 4367.72 3.87688 7.92115 0
M  V30 24789 O 4367.18 1.4459 7.59357 0
M  V30 24790 C 4366.24 0.347608 7.69215 0
M  V30 24791 C 4366.97 -0.96767 7.52806 0
M  V30 24792 O 4367.18 -1.21036 6.1011 0
M  V30 24793 C 4368.37 -1.04544 8.13308 0
M  V30 24794 O 4368.76 -2.38311 8.41922 0
M  V30 24795 C 4369.25 -0.491279 7.02284 0
M  V30 24796 C 4368.54 -0.996264 5.77469 0
M  V30 24797 N 4368.59 -0.0501916 4.62973 0
M  V30 24798 H 4365.76 0.374722 8.67691 0
M  V30 24799 H 4365.49 0.443485 6.90277 0
M  V30 24800 H 4366.35 -1.75537 7.96793 0
M  V30 24801 P 4370.31 -2.75334 8.47391 0
M  V30 24802 O 4370.53 -3.84128 9.44797 0
M  V30 24803 O 4371.1 -1.51947 8.68712 0
M  V30 24804 O 4370.56 -3.29363 6.99321 0
M  V30 24805 C 4369.62 -4.24011 6.4274 0
M  V30 24806 C 4370.35 -5.20775 5.52155 0
M  V30 24807 O 4370.56 -4.56534 4.22446 0
M  V30 24808 C 4371.75 -5.62629 5.96531 0
M  V30 24809 O 4372.14 -6.87667 5.41053 0
M  V30 24810 C 4372.63 -4.52537 5.39283 0
M  V30 24811 C 4371.92 -4.20027 4.08623 0
M  V30 24812 N 4371.97 -2.76189 3.71603 0
M  V30 24813 H 4369.14 -4.797 7.24003 0
M  V30 24814 H 4368.87 -3.69856 5.84513 0
M  V30 24815 H 4369.73 -6.10356 5.41441 0
M  V30 24816 P 4373.69 -7.20834 5.23717 0
M  V30 24817 O 4373.91 -8.66104 5.38572 0
M  V30 24818 O 4374.48 -6.33544 6.1349 0
M  V30 24819 O 4373.94 -6.7751 3.72168 0
M  V30 24820 C 4373 -7.20825 2.7076 0
M  V30 24821 C 4373.73 -7.45864 1.40599 0
M  V30 24822 O 4373.94 -6.17651 0.734225 0
M  V30 24823 C 4375.13 -8.05808 1.51899 0
M  V30 24824 O 4375.52 -8.74358 0.335205 0
M  V30 24825 C 4376.01 -6.83093 1.70294 0
M  V30 24826 C 4375.3 -5.79992 0.836974 0
M  V30 24827 N 4375.35 -4.41864 1.38293 0
M  V30 24828 H 4372.52 -8.13644 3.0377 0
M  V30 24829 H 4372.25 -6.42788 2.55485 0
M  V30 24830 H 4373.11 -8.12039 0.792769 0
M  V30 24831 P 4377.07 -8.91 1.85937e-10 0
M  V30 24832 O 4377.29 -10.1726 -0.733694 0
M  V30 24833 O 4377.86 -8.73148 1.23936 0
M  V30 24834 O 4377.32 -7.66872 -0.971405 0
M  V30 24835 C 4376.38 -7.42309 -2.04641 0
M  V30 24836 C 4377.11 -6.86059 -3.24661 0
M  V30 24837 O 4377.32 -5.42847 -3.03646 0
M  V30 24838 C 4378.51 -7.41196 -3.50753 0
M  V30 24839 O 4378.9 -7.27073 -4.86816 0
M  V30 24840 C 4379.39 -6.5273 -2.63741 0
M  V30 24841 C 4378.68 -5.1842 -2.73198 0
M  V30 24842 N 4378.73 -4.38762 -1.4784 0
M  V30 24843 C 4378.65 -4.81605 -0.168631 0
M  V30 24844 N 4378.73 -3.85454 0.713363 0
M  V30 24845 C 4378.87 -2.6994 -0.0566958 0
M  V30 24846 C 4379 -1.34815 0.338502 0
M  V30 24847 O 4379.02 -0.869548 1.47125 0
M  V30 24848 N 4379.12 -0.496304 -0.77465 0
M  V30 24849 C 4379.12 -0.908403 -2.09122 0
M  V30 24850 N 4379.25 0.0517805 -3.00955 0
M  V30 24851 N 4378.99 -2.17875 -2.46519 0
M  V30 24852 C 4378.87 -3.01988 -1.4033 0
M  V30 24853 H 4375.9 -8.36803 -2.32493 0
M  V30 24854 H 4375.63 -6.70197 -1.71129 0
M  V30 24855 H 4376.49 -7.03551 -4.13168 0
M  V30 24856 H 4379.15 -4.59498 -3.54415 0
M  V30 24857 H 4379.43 -6.88898 -1.59848 0
M  V30 24858 H 4380.42 -6.46749 -3.03687 0
M  V30 24859 H 4378.58 -8.46908 -3.20714 0
M  V30 24860 H 4378.54 -5.86405 0.105564 0
M  V30 24861 H 4379.22 0.483664 -0.597855 0
M  V30 24862 H 4379.25 -0.187865 -4.0116 0
M  V30 24863 H 4379.36 1.03585 -2.71726 0
M  V30 24864 P 4380.45 -7.20834 -5.23717 0
M  V30 24865 O 4380.67 -7.7993 -6.57351 0
M  V30 24866 O 4381.24 -7.79328 -4.13004 0
M  V30 24867 O 4380.7 -5.63315 -5.29344 0
M  V30 24868 C 4379.76 -4.80193 -6.01798 0
M  V30 24869 C 4380.49 -3.64202 -6.65911 0
M  V30 24870 O 4380.7 -2.60694 -5.64732 0
M  V30 24871 C 4381.89 -3.93473 -7.1943 0
M  V30 24872 O 4382.28 -3.02071 -8.21205 0
M  V30 24873 C 4382.77 -3.73047 -5.97036 0
M  V30 24874 C 4382.06 -2.58828 -5.25741 0
M  V30 24875 N 4382.11 -2.6801 -3.77422 0
M  V30 24876 C 4382.26 -1.50443 -3.07133 0
M  V30 24877 O 4382.35 -0.419406 -3.61576 0
M  V30 24878 N 4382.3 -1.6403 -1.69677 0
M  V30 24879 C 4382.21 -2.81206 -0.986255 0
M  V30 24880 C 4382.06 -3.99158 -1.80325 0
M  V30 24881 C 4382.01 -3.89779 -3.1476 0
M  V30 24882 H 4379.27 -5.40332 -6.79951 0
M  V30 24883 H 4379.01 -4.41549 -5.32301 0
M  V30 24884 H 4379.87 -3.26331 -7.47797 0
M  V30 24885 H 4382.53 -1.6395 -5.56554 0
M  V30 24886 H 4382.81 -4.63439 -5.3432 0
M  V30 24887 H 4383.8 -3.44728 -6.25838 0
M  V30 24888 H 4381.96 -4.96652 -7.57263 0
M  V30 24889 H 4381.89 -4.80159 -3.74441 0
M  V30 24890 P 4383.83 -2.75334 -8.47391 0
M  V30 24891 O 4384.05 -2.44571 -9.90142 0
M  V30 24892 O 4384.62 -3.87688 -7.92115 0
M  V30 24893 O 4384.08 -1.4459 -7.59357 0
M  V30 24894 C 4383.14 -0.347608 -7.69215 0
M  V30 24895 C 4383.87 0.96767 -7.52806 0
M  V30 24896 O 4384.08 1.21036 -6.1011 0
M  V30 24897 C 4385.27 1.04544 -8.13308 0
M  V30 24898 O 4385.66 2.38311 -8.41922 0
M  V30 24899 C 4386.15 0.491279 -7.02284 0
M  V30 24900 C 4385.44 0.996264 -5.77469 0
M  V30 24901 N 4385.49 0.0501916 -4.62973 0
M  V30 24902 H 4382.66 -0.374722 -8.67691 0
M  V30 24903 H 4382.39 -0.443485 -6.90277 0
M  V30 24904 H 4383.25 1.75537 -7.96793 0
M  V30 24905 P 4387.21 2.75334 -8.47391 0
M  V30 24906 O 4387.43 3.84204 -9.44982 0
M  V30 24907 O 4388 1.51982 -8.68909 0
M  V30 24908 O 4387.46 3.29363 -6.99321 0
M  V30 24909 C 4386.52 4.24066 -6.42823 0
M  V30 24910 C 4387.25 5.20775 -5.52155 0
M  V30 24911 O 4387.46 4.56607 -4.22514 0
M  V30 24912 C 4388.65 5.62697 -5.96604 0
M  V30 24913 O 4389.04 6.87667 -5.41053 0
M  V30 24914 C 4389.53 4.52537 -5.39283 0
M  V30 24915 C 4388.82 4.20027 -4.08623 0
M  V30 24916 N 4388.87 2.76189 -3.71603 0
M  V30 24917 H 4386.04 4.79756 -7.24086 0
M  V30 24918 H 4385.76 3.69963 -5.84682 0
M  V30 24919 H 4386.63 6.10431 -5.41508 0
M  V30 24920 H 4389.29 4.78816 -3.28024 0
M  V30 24921 H 4389.57 3.64957 -6.05871 0
M  V30 24922 H 4390.56 4.88748 -5.21323 0
M  V30 24923 H 4388.72 5.66789 -7.0643 0
M  V30 24924 P 4390.59 7.20834 -5.23717 0
M  V30 24925 O 4390.81 8.66104 -5.38572 0
M  V30 24926 O 4391.38 6.33544 -6.1349 0
M  V30 24927 O 4390.84 6.7751 -3.72168 0
M  V30 24928 C 4389.9 7.20825 -2.7076 0
M  V30 24929 C 4390.63 7.45864 -1.40599 0
M  V30 24930 O 4390.84 6.17651 -0.734225 0
M  V30 24931 C 4392.03 8.05808 -1.51899 0
M  V30 24932 O 4392.42 8.74358 -0.335205 0
M  V30 24933 C 4392.91 6.83093 -1.70294 0
M  V30 24934 C 4392.2 5.79992 -0.836974 0
M  V30 24935 N 4392.25 4.41864 -1.38293 0
M  V30 24936 H 4389.42 8.13644 -3.0377 0
M  V30 24937 H 4389.15 6.42788 -2.55485 0
M  V30 24938 H 4390.01 8.12039 -0.792769 0
M  V30 24939 P 4393.97 8.91 -1.87046e-10 0
M  V30 24940 O 4394.19 10.1736 0.733766 0
M  V30 24941 O 4394.76 8.73247 -1.2395 0
M  V30 24942 O 4394.22 7.66872 0.971405 0
M  V30 24943 C 4393.28 7.42212 2.04614 0
M  V30 24944 C 4394.01 6.86059 3.24661 0
M  V30 24945 O 4394.22 5.42847 3.03646 0
M  V30 24946 C 4395.41 7.41196 3.50753 0
M  V30 24947 O 4395.8 7.27073 4.86816 0
M  V30 24948 C 4396.29 6.5273 2.63741 0
M  V30 24949 C 4395.58 5.1842 2.73198 0
M  V30 24950 N 4395.63 4.38668 1.47808 0
M  V30 24951 C 4395.78 3.02239 1.60048 0
M  V30 24952 O 4395.87 2.46459 2.67869 0
M  V30 24953 N 4395.82 2.32436 0.408571 0
M  V30 24954 C 4395.73 2.85471 -0.854993 0
M  V30 24955 C 4395.58 4.28918 -0.887335 0
M  V30 24956 C 4395.53 5.00349 0.255399 0
M  V30 24957 H 4392.79 8.36803 2.32493 0
M  V30 24958 H 4392.53 6.701 1.71105 0
M  V30 24959 H 4393.39 7.03551 4.13168 0
M  V30 24960 H 4396.05 4.59773 3.53894 0
M  V30 24961 H 4396.33 6.88995 1.59871 0
M  V30 24962 H 4397.32 6.46749 3.03687 0
M  V30 24963 H 4395.48 8.46908 3.20714 0
M  V30 24964 H 4395.41 6.08548 0.206986 0
M  V30 24965 P 4397.35 7.20834 5.23717 0
M  V30 24966 O 4397.57 7.7993 6.57351 0
M  V30 24967 O 4398.14 7.79328 4.13004 0
M  V30 24968 O 4397.6 5.63315 5.29344 0
M  V30 24969 C 4396.66 4.80193 6.01798 0
M  V30 24970 C 4397.39 3.64202 6.65911 0
M  V30 24971 O 4397.6 2.60694 5.64732 0
M  V30 24972 C 4398.79 3.93473 7.1943 0
M  V30 24973 O 4399.18 3.02071 8.21205 0
M  V30 24974 C 4399.67 3.73047 5.97036 0
M  V30 24975 C 4398.96 2.58828 5.25741 0
M  V30 24976 N 4399.01 2.6801 3.77422 0
M  V30 24977 C 4399.16 1.50443 3.07133 0
M  V30 24978 O 4399.25 0.419406 3.61576 0
M  V30 24979 N 4399.2 1.6403 1.69677 0
M  V30 24980 C 4399.11 2.81206 0.986255 0
M  V30 24981 C 4398.96 3.99158 1.80325 0
M  V30 24982 C 4398.91 3.89779 3.1476 0
M  V30 24983 H 4396.17 5.40332 6.79951 0
M  V30 24984 H 4395.9 4.41549 5.32301 0
M  V30 24985 H 4396.77 3.26331 7.47797 0
M  V30 24986 H 4399.43 1.6395 5.56554 0
M  V30 24987 H 4399.71 4.63439 5.3432 0
M  V30 24988 H 4400.7 3.44728 6.25838 0
M  V30 24989 H 4398.86 4.96652 7.57263 0
M  V30 24990 H 4398.79 4.80159 3.74441 0
M  V30 24991 P 4400.73 2.75334 8.47391 0
M  V30 24992 O 4400.95 2.44571 9.90142 0
M  V30 24993 O 4401.52 3.87688 7.92115 0
M  V30 24994 O 4400.98 1.4459 7.59357 0
M  V30 24995 C 4400.04 0.347608 7.69215 0
M  V30 24996 C 4400.77 -0.96767 7.52806 0
M  V30 24997 O 4400.98 -1.21036 6.1011 0
M  V30 24998 C 4402.17 -1.04544 8.13308 0
M  V30 24999 O 4402.56 -2.38311 8.41922 0
M  V30 25000 C 4403.05 -0.491279 7.02284 0
M  V30 25001 C 4402.34 -0.996264 5.77469 0
M  V30 25002 N 4402.39 -0.0501916 4.62973 0
M  V30 25003 H 4399.55 0.374722 8.67691 0
M  V30 25004 H 4399.28 0.443485 6.90277 0
M  V30 25005 H 4400.15 -1.75537 7.96793 0
M  V30 25006 P 4404.11 -2.75334 8.47391 0
M  V30 25007 O 4404.33 -3.84128 9.44797 0
M  V30 25008 O 4404.9 -1.51947 8.68712 0
M  V30 25009 O 4404.36 -3.29363 6.99321 0
M  V30 25010 C 4403.42 -4.24011 6.4274 0
M  V30 25011 C 4404.15 -5.20775 5.52155 0
M  V30 25012 O 4404.36 -4.56534 4.22446 0
M  V30 25013 C 4405.55 -5.62629 5.96531 0
M  V30 25014 O 4405.94 -6.87667 5.41053 0
M  V30 25015 C 4406.43 -4.52537 5.39283 0
M  V30 25016 C 4405.72 -4.20027 4.08623 0
M  V30 25017 N 4405.77 -2.76189 3.71603 0
M  V30 25018 H 4402.93 -4.797 7.24003 0
M  V30 25019 H 4402.66 -3.69856 5.84513 0
M  V30 25020 H 4403.53 -6.10356 5.41441 0
M  V30 25021 P 4407.49 -7.20834 5.23717 0
M  V30 25022 O 4407.71 -8.66104 5.38572 0
M  V30 25023 O 4408.28 -6.33544 6.1349 0
M  V30 25024 O 4407.74 -6.7751 3.72168 0
M  V30 25025 C 4406.8 -7.20825 2.7076 0
M  V30 25026 C 4407.53 -7.45864 1.40599 0
M  V30 25027 O 4407.74 -6.17651 0.734225 0
M  V30 25028 C 4408.93 -8.05808 1.51899 0
M  V30 25029 O 4409.32 -8.74358 0.335205 0
M  V30 25030 C 4409.81 -6.83093 1.70294 0
M  V30 25031 C 4409.1 -5.79992 0.836974 0
M  V30 25032 N 4409.15 -4.41864 1.38293 0
M  V30 25033 H 4406.31 -8.13644 3.0377 0
M  V30 25034 H 4406.04 -6.42788 2.55485 0
M  V30 25035 H 4406.91 -8.12039 0.792769 0
M  V30 25036 P 4410.87 -8.91 1.88155e-10 0
M  V30 25037 O 4411.09 -10.1726 -0.733694 0
M  V30 25038 O 4411.66 -8.73148 1.23936 0
M  V30 25039 O 4411.12 -7.66872 -0.971405 0
M  V30 25040 C 4410.18 -7.42309 -2.04641 0
M  V30 25041 C 4410.91 -6.86059 -3.24661 0
M  V30 25042 O 4411.12 -5.42847 -3.03646 0
M  V30 25043 C 4412.31 -7.41196 -3.50753 0
M  V30 25044 O 4412.7 -7.27073 -4.86816 0
M  V30 25045 C 4413.19 -6.5273 -2.63741 0
M  V30 25046 C 4412.48 -5.1842 -2.73198 0
M  V30 25047 N 4412.53 -4.38762 -1.4784 0
M  V30 25048 H 4409.69 -8.36803 -2.32493 0
M  V30 25049 H 4409.42 -6.70197 -1.71129 0
M  V30 25050 H 4410.29 -7.03551 -4.13168 0
M  V30 25051 P 4414.25 -7.20834 -5.23717 0
M  V30 25052 O 4414.47 -7.80006 -6.57415 0
M  V30 25053 O 4415.04 -7.79416 -4.13051 0
M  V30 25054 O 4414.5 -5.63315 -5.29344 0
M  V30 25055 C 4413.56 -4.80318 -6.01954 0
M  V30 25056 C 4414.29 -3.64202 -6.65911 0
M  V30 25057 O 4414.5 -2.60736 -5.64823 0
M  V30 25058 C 4415.69 -3.93521 -7.19518 0
M  V30 25059 O 4416.08 -3.02071 -8.21205 0
M  V30 25060 C 4416.57 -3.73047 -5.97036 0
M  V30 25061 C 4415.86 -2.58828 -5.25741 0
M  V30 25062 N 4415.91 -2.68068 -3.77503 0
M  V30 25063 H 4413.08 -5.40394 -6.8003 0
M  V30 25064 H 4412.8 -4.41741 -5.32532 0
M  V30 25065 H 4413.67 -3.26371 -7.47889 0
M  V30 25066 H 4416.33 -1.64007 -5.56746 0
M  V30 25067 H 4416.61 -4.63439 -5.3432 0
M  V30 25068 H 4417.6 -3.44776 -6.25925 0
M  V30 25069 H 4415.76 -4.96707 -7.57347 0
M  V30 25070 P 4417.63 -2.75334 -8.47391 0
M  V30 25071 O 4417.85 -2.44595 -9.90239 0
M  V30 25072 O 4418.42 -3.87732 -7.92204 0
M  V30 25073 O 4417.88 -1.4459 -7.59357 0
M  V30 25074 C 4416.94 -0.347563 -7.69115 0
M  V30 25075 C 4417.67 0.96767 -7.52806 0
M  V30 25076 O 4417.88 1.21036 -6.1011 0
M  V30 25077 C 4419.07 1.04544 -8.13308 0
M  V30 25078 O 4419.46 2.38311 -8.41922 0
M  V30 25079 C 4419.95 0.491279 -7.02284 0
M  V30 25080 C 4419.24 0.996264 -5.77469 0
M  V30 25081 N 4419.29 0.0501808 -4.62873 0
M  V30 25082 C 4419.44 0.588177 -3.36904 0
M  V30 25083 O 4419.53 1.78598 -3.17173 0
M  V30 25084 N 4419.48 -0.329694 -2.33686 0
M  V30 25085 C 4419.39 -1.6953 -2.45079 0
M  V30 25086 O 4419.44 -2.41926 -1.44899 0
M  V30 25087 C 4419.24 -2.16933 -3.80505 0
M  V30 25088 C 4419.13 -3.65373 -3.97621 0
M  V30 25089 C 4419.19 -1.30326 -4.83752 0
M  V30 25090 H 4416.45 -0.374722 -8.67691 0
M  V30 25091 H 4416.18 -0.443421 -6.90177 0
M  V30 25092 H 4417.05 1.75537 -7.96793 0
M  V30 25093 H 4419.71 1.94496 -5.46629 0
M  V30 25094 H 4419.99 -0.608651 -7.04676 0
M  V30 25095 H 4420.98 0.889672 -7.08939 0
M  V30 25096 H 4419.14 0.43308 -9.04564 0
M  V30 25097 H 4419.07 -1.68366 -5.8516 0
M  V30 25098 H 4420.1 -4.05985 -4.30448 0
M  V30 25099 H 4418.37 -3.88028 -4.72875 0
M  V30 25100 H 4418.85 -4.11381 -3.01609 0
M  V30 25101 H 4419.59 0.0393617 -1.41345 0
M  V30 25102 P 4421.01 2.75334 -8.47391 0
M  V30 25103 O 4421.23 3.84128 -9.44797 0
M  V30 25104 O 4421.8 1.51947 -8.68712 0
M  V30 25105 O 4421.26 3.29363 -6.99321 0
M  V30 25106 C 4420.32 4.24011 -6.4274 0
M  V30 25107 C 4421.05 5.20775 -5.52155 0
M  V30 25108 O 4421.26 4.56534 -4.22446 0
M  V30 25109 C 4422.45 5.62629 -5.96531 0
M  V30 25110 O 4422.84 6.87667 -5.41053 0
M  V30 25111 C 4423.33 4.52537 -5.39283 0
M  V30 25112 C 4422.62 4.20027 -4.08623 0
M  V30 25113 N 4422.67 2.76189 -3.71603 0
M  V30 25114 H 4419.83 4.797 -7.24003 0
M  V30 25115 H 4419.56 3.69856 -5.84513 0
M  V30 25116 H 4420.43 6.10356 -5.41441 0
M  V30 25117 P 4424.39 7.20834 -5.23717 0
M  V30 25118 O 4424.61 8.66274 -5.38678 0
M  V30 25119 O 4425.18 6.33687 -6.13629 0
M  V30 25120 O 4424.64 6.7751 -3.72168 0
M  V30 25121 C 4423.7 7.20919 -2.70795 0
M  V30 25122 C 4424.43 7.45864 -1.40599 0
M  V30 25123 O 4424.64 6.17751 -0.734343 0
M  V30 25124 C 4425.83 8.05906 -1.51917 0
M  V30 25125 O 4426.22 8.74358 -0.335205 0
M  V30 25126 C 4426.71 6.83093 -1.70294 0
M  V30 25127 C 4426 5.79992 -0.836974 0
M  V30 25128 N 4426.05 4.41864 -1.38293 0
M  V30 25129 H 4423.22 8.13738 -3.03804 0
M  V30 25130 H 4422.94 6.42974 -2.55559 0
M  V30 25131 H 4423.81 8.12139 -0.792866 0
M  V30 25132 H 4426.47 5.80178 0.160643 0
M  V30 25133 H 4426.75 6.51379 -2.75643 0
M  V30 25134 H 4427.74 7.01832 -1.3448 0
M  V30 25135 H 4425.9 8.73771 -2.38364 0
M  V30 25136 P 4427.77 8.91 -1.89264e-10 0
M  V30 25137 O 4427.99 10.1726 0.733694 0
M  V30 25138 O 4428.56 8.73148 -1.23936 0
M  V30 25139 O 4428.02 7.66872 0.971405 0
M  V30 25140 C 4427.08 7.42309 2.04641 0
M  V30 25141 C 4427.81 6.86059 3.24661 0
M  V30 25142 O 4428.02 5.42847 3.03646 0
M  V30 25143 C 4429.21 7.41196 3.50753 0
M  V30 25144 O 4429.6 7.27073 4.86816 0
M  V30 25145 C 4430.09 6.5273 2.63741 0
M  V30 25146 C 4429.38 5.1842 2.73198 0
M  V30 25147 N 4429.43 4.38762 1.4784 0
M  V30 25148 C 4429.35 4.81605 0.168631 0
M  V30 25149 N 4429.43 3.85454 -0.713363 0
M  V30 25150 C 4429.57 2.6994 0.0566958 0
M  V30 25151 C 4429.7 1.34815 -0.338502 0
M  V30 25152 N 4429.82 0.496304 0.77465 0
M  V30 25153 C 4429.82 0.908403 2.09122 0
M  V30 25154 N 4429.95 -0.0517805 3.00955 0
M  V30 25155 N 4429.69 2.17875 2.46519 0
M  V30 25156 C 4429.57 3.01988 1.4033 0
M  V30 25157 H 4426.59 8.36803 2.32493 0
M  V30 25158 H 4426.32 6.70197 1.71129 0
M  V30 25159 H 4427.19 7.03551 4.13168 0
M  V30 25160 P 4431.15 7.20834 5.23717 0
M  V30 25161 O 4431.37 7.79853 6.57286 0
M  V30 25162 O 4431.94 7.79239 4.12957 0
M  V30 25163 O 4431.4 5.63315 5.29344 0
M  V30 25164 C 4430.46 4.80255 6.01876 0
M  V30 25165 C 4431.19 3.64202 6.65911 0
M  V30 25166 O 4431.4 2.60694 5.64732 0
M  V30 25167 C 4432.59 3.93473 7.1943 0
M  V30 25168 O 4432.98 3.02071 8.21205 0
M  V30 25169 C 4433.47 3.73047 5.97036 0
M  V30 25170 C 4432.76 2.58828 5.25741 0
M  V30 25171 N 4432.81 2.68068 3.77503 0
M  V30 25172 H 4429.97 5.40332 6.79951 0
M  V30 25173 H 4429.7 4.41613 5.32378 0
M  V30 25174 H 4430.57 3.26331 7.47797 0
M  V30 25175 P 4434.53 2.75334 8.47391 0
M  V30 25176 O 4434.75 2.44571 9.90142 0
M  V30 25177 O 4435.32 3.87688 7.92115 0
M  V30 25178 O 4434.78 1.4459 7.59357 0
M  V30 25179 C 4433.84 0.347608 7.69215 0
M  V30 25180 C 4434.57 -0.96767 7.52806 0
M  V30 25181 O 4434.78 -1.21036 6.1011 0
M  V30 25182 C 4435.97 -1.04544 8.13308 0
M  V30 25183 O 4436.36 -2.38311 8.41922 0
M  V30 25184 C 4436.85 -0.491279 7.02284 0
M  V30 25185 C 4436.14 -0.996264 5.77469 0
M  V30 25186 N 4436.19 -0.0501916 4.62973 0
M  V30 25187 H 4433.35 0.374722 8.67691 0
M  V30 25188 H 4433.08 0.443485 6.90277 0
M  V30 25189 H 4433.95 -1.75537 7.96793 0
M  V30 25190 P 4437.91 -2.75334 8.47391 0
M  V30 25191 O 4438.13 -3.84128 9.44797 0
M  V30 25192 O 4438.7 -1.51947 8.68712 0
M  V30 25193 O 4438.16 -3.29363 6.99321 0
M  V30 25194 C 4437.22 -4.24011 6.4274 0
M  V30 25195 C 4437.95 -5.20775 5.52155 0
M  V30 25196 O 4438.16 -4.56534 4.22446 0
M  V30 25197 C 4439.35 -5.62629 5.96531 0
M  V30 25198 O 4439.74 -6.87667 5.41053 0
M  V30 25199 C 4440.23 -4.52537 5.39283 0
M  V30 25200 C 4439.52 -4.20027 4.08623 0
M  V30 25201 N 4439.57 -2.76189 3.71603 0
M  V30 25202 H 4436.73 -4.797 7.24003 0
M  V30 25203 H 4436.46 -3.69856 5.84513 0
M  V30 25204 H 4437.33 -6.10356 5.41441 0
M  V30 25205 P 4441.29 -7.20834 5.23717 0
M  V30 25206 O 4441.51 -8.66104 5.38572 0
M  V30 25207 O 4442.08 -6.33544 6.1349 0
M  V30 25208 O 4441.54 -6.7751 3.72168 0
M  V30 25209 C 4440.6 -7.20825 2.7076 0
M  V30 25210 C 4441.33 -7.45864 1.40599 0
M  V30 25211 O 4441.54 -6.17651 0.734225 0
M  V30 25212 C 4442.73 -8.05808 1.51899 0
M  V30 25213 O 4443.12 -8.74358 0.335205 0
M  V30 25214 C 4443.61 -6.83093 1.70294 0
M  V30 25215 C 4442.9 -5.79992 0.836974 0
M  V30 25216 N 4442.95 -4.41864 1.38293 0
M  V30 25217 H 4440.11 -8.13644 3.0377 0
M  V30 25218 H 4439.84 -6.42788 2.55485 0
M  V30 25219 H 4440.71 -8.12039 0.792769 0
M  V30 25220 P 4444.67 -8.91 1.90373e-10 0
M  V30 25221 O 4444.89 -10.1736 -0.733766 0
M  V30 25222 O 4445.46 -8.73247 1.2395 0
M  V30 25223 O 4444.92 -7.66872 -0.971405 0
M  V30 25224 C 4443.98 -7.42212 -2.04614 0
M  V30 25225 C 4444.71 -6.86059 -3.24661 0
M  V30 25226 O 4444.92 -5.42847 -3.03646 0
M  V30 25227 C 4446.11 -7.41196 -3.50753 0
M  V30 25228 O 4446.5 -7.27073 -4.86816 0
M  V30 25229 C 4446.99 -6.5273 -2.63741 0
M  V30 25230 C 4446.28 -5.1842 -2.73198 0
M  V30 25231 N 4446.33 -4.38668 -1.47808 0
M  V30 25232 C 4446.48 -3.02239 -1.60048 0
M  V30 25233 O 4446.57 -2.46459 -2.67869 0
M  V30 25234 N 4446.52 -2.32436 -0.408571 0
M  V30 25235 C 4446.43 -2.85471 0.854993 0
M  V30 25236 O 4446.48 -2.12566 1.8531 0
M  V30 25237 C 4446.28 -4.28918 0.887335 0
M  V30 25238 C 4446.17 -4.91066 2.24619 0
M  V30 25239 C 4446.23 -5.00349 -0.255399 0
M  V30 25240 H 4443.49 -8.36803 -2.32493 0
M  V30 25241 H 4443.22 -6.701 -1.71105 0
M  V30 25242 H 4444.09 -7.03551 -4.13168 0
M  V30 25243 H 4446.75 -4.59773 -3.53894 0
M  V30 25244 H 4447.03 -6.88995 -1.59871 0
M  V30 25245 H 4448.02 -6.46749 -3.03687 0
M  V30 25246 H 4446.18 -8.46908 -3.20714 0
M  V30 25247 H 4446.11 -6.08548 -0.206986 0
M  V30 25248 H 4447.14 -5.34836 2.53099 0
M  V30 25249 H 4445.41 -5.69638 2.2291 0
M  V30 25250 H 4445.89 -4.13971 2.98044 0
M  V30 25251 H 4446.63 -1.33211 -0.474216 0
M  V30 25252 P 4448.05 -7.20834 -5.23717 0
M  V30 25253 O 4448.27 -7.80006 -6.57415 0
M  V30 25254 O 4448.84 -7.79416 -4.13051 0
M  V30 25255 O 4448.3 -5.63315 -5.29344 0
M  V30 25256 C 4447.36 -4.80318 -6.01954 0
M  V30 25257 C 4448.09 -3.64202 -6.65911 0
M  V30 25258 O 4448.3 -2.60736 -5.64823 0
M  V30 25259 C 4449.49 -3.93521 -7.19518 0
M  V30 25260 O 4449.88 -3.02071 -8.21205 0
M  V30 25261 C 4450.37 -3.73047 -5.97036 0
M  V30 25262 C 4449.66 -2.58828 -5.25741 0
M  V30 25263 N 4449.71 -2.68068 -3.77503 0
M  V30 25264 C 4449.63 -3.80474 -2.99159 0
M  V30 25265 N 4449.7 -3.55622 -1.71925 0
M  V30 25266 C 4449.85 -2.1832 -1.65733 0
M  V30 25267 C 4449.98 -1.28842 -0.572777 0
M  V30 25268 N 4449.99 -1.66875 0.70098 0
M  V30 25269 N 4450.1 0.016788 -0.859836 0
M  V30 25270 C 4450.09 0.398145 -2.13316 0
M  V30 25271 N 4449.97 -0.328224 -3.22333 0
M  V30 25272 C 4449.85 -1.62992 -2.90383 0
M  V30 25273 H 4446.88 -5.40394 -6.8003 0
M  V30 25274 H 4446.6 -4.41741 -5.32532 0
M  V30 25275 H 4447.47 -3.26371 -7.47889 0
M  V30 25276 H 4450.13 -1.64007 -5.56746 0
M  V30 25277 H 4450.41 -4.63439 -5.3432 0
M  V30 25278 H 4451.4 -3.44776 -6.25925 0
M  V30 25279 H 4449.56 -4.96707 -7.57347 0
M  V30 25280 H 4449.52 -4.8089 -3.39924 0
M  V30 25281 H 4449.9 -2.66547 0.941919 0
M  V30 25282 H 4450.09 -0.965341 1.44766 0
M  V30 25283 H 4450.2 1.46427 -2.29697 0
M  V30 25284 P 4451.43 -2.75334 -8.47391 0
M  V30 25285 O 4451.65 -2.44595 -9.90239 0
M  V30 25286 O 4452.22 -3.87732 -7.92204 0
M  V30 25287 O 4451.68 -1.4459 -7.59357 0
M  V30 25288 C 4450.74 -0.347563 -7.69115 0
M  V30 25289 C 4451.47 0.96767 -7.52806 0
M  V30 25290 O 4451.68 1.21036 -6.1011 0
M  V30 25291 C 4452.87 1.04544 -8.13308 0
M  V30 25292 O 4453.26 2.38311 -8.41922 0
M  V30 25293 C 4453.75 0.491279 -7.02284 0
M  V30 25294 C 4453.04 0.996264 -5.77469 0
M  V30 25295 N 4453.09 0.0501808 -4.62873 0
M  V30 25296 C 4453.24 0.588177 -3.36904 0
M  V30 25297 O 4453.33 1.78598 -3.17173 0
M  V30 25298 N 4453.28 -0.329694 -2.33686 0
M  V30 25299 C 4453.19 -1.6953 -2.45079 0
M  V30 25300 O 4453.24 -2.41926 -1.44899 0
M  V30 25301 C 4453.04 -2.16933 -3.80505 0
M  V30 25302 C 4452.93 -3.65373 -3.97621 0
M  V30 25303 C 4452.99 -1.30326 -4.83752 0
M  V30 25304 H 4450.25 -0.374722 -8.67691 0
M  V30 25305 H 4449.98 -0.443421 -6.90177 0
M  V30 25306 H 4450.85 1.75537 -7.96793 0
M  V30 25307 H 4453.51 1.94496 -5.46629 0
M  V30 25308 H 4453.79 -0.608651 -7.04676 0
M  V30 25309 H 4454.78 0.889672 -7.08939 0
M  V30 25310 H 4452.94 0.43308 -9.04564 0
M  V30 25311 H 4452.87 -1.68366 -5.8516 0
M  V30 25312 H 4453.9 -4.05985 -4.30448 0
M  V30 25313 H 4452.17 -3.88028 -4.72875 0
M  V30 25314 H 4452.65 -4.11381 -3.01609 0
M  V30 25315 H 4453.39 0.0393617 -1.41345 0
M  V30 25316 P 4454.81 2.75334 -8.47391 0
M  V30 25317 O 4455.03 3.84128 -9.44797 0
M  V30 25318 O 4455.6 1.51947 -8.68712 0
M  V30 25319 O 4455.06 3.29363 -6.99321 0
M  V30 25320 C 4454.12 4.24011 -6.4274 0
M  V30 25321 C 4454.85 5.20775 -5.52155 0
M  V30 25322 O 4455.06 4.56534 -4.22446 0
M  V30 25323 C 4456.25 5.62629 -5.96531 0
M  V30 25324 O 4456.64 6.87667 -5.41053 0
M  V30 25325 C 4457.13 4.52537 -5.39283 0
M  V30 25326 C 4456.42 4.20027 -4.08623 0
M  V30 25327 N 4456.47 2.76189 -3.71603 0
M  V30 25328 H 4453.63 4.797 -7.24003 0
M  V30 25329 H 4453.36 3.69856 -5.84513 0
M  V30 25330 H 4454.23 6.10356 -5.41441 0
M  V30 25331 P 4458.19 7.20834 -5.23717 0
M  V30 25332 O 4458.41 8.66104 -5.38572 0
M  V30 25333 O 4458.98 6.33544 -6.1349 0
M  V30 25334 O 4458.44 6.7751 -3.72168 0
M  V30 25335 C 4457.5 7.20825 -2.7076 0
M  V30 25336 C 4458.23 7.45864 -1.40599 0
M  V30 25337 O 4458.44 6.17651 -0.734225 0
M  V30 25338 C 4459.63 8.05808 -1.51899 0
M  V30 25339 O 4460.02 8.74358 -0.335205 0
M  V30 25340 C 4460.51 6.83093 -1.70294 0
M  V30 25341 C 4459.8 5.79992 -0.836974 0
M  V30 25342 N 4459.85 4.41864 -1.38293 0
M  V30 25343 H 4457.01 8.13644 -3.0377 0
M  V30 25344 H 4456.74 6.42788 -2.55485 0
M  V30 25345 H 4457.61 8.12039 -0.792769 0
M  V30 25346 P 4461.57 8.91 -1.91482e-10 0
M  V30 25347 O 4461.79 10.1726 0.733694 0
M  V30 25348 O 4462.36 8.73148 -1.23936 0
M  V30 25349 O 4461.82 7.66872 0.971405 0
M  V30 25350 C 4460.88 7.42309 2.04641 0
M  V30 25351 C 4461.61 6.86059 3.24661 0
M  V30 25352 O 4461.82 5.42847 3.03646 0
M  V30 25353 C 4463.01 7.41196 3.50753 0
M  V30 25354 O 4463.4 7.27073 4.86816 0
M  V30 25355 C 4463.89 6.5273 2.63741 0
M  V30 25356 C 4463.18 5.1842 2.73198 0
M  V30 25357 N 4463.23 4.38762 1.4784 0
M  V30 25358 H 4460.39 8.36803 2.32493 0
M  V30 25359 H 4460.12 6.70197 1.71129 0
M  V30 25360 H 4460.99 7.03551 4.13168 0
M  V30 25361 P 4464.95 7.20834 5.23717 0
M  V30 25362 O 4465.17 7.79853 6.57286 0
M  V30 25363 O 4465.74 7.79239 4.12957 0
M  V30 25364 O 4465.2 5.63315 5.29344 0
M  V30 25365 C 4464.26 4.80255 6.01876 0
M  V30 25366 C 4464.99 3.64202 6.65911 0
M  V30 25367 O 4465.2 2.60694 5.64732 0
M  V30 25368 C 4466.39 3.93473 7.1943 0
M  V30 25369 O 4466.78 3.02071 8.21205 0
M  V30 25370 C 4467.27 3.73047 5.97036 0
M  V30 25371 C 4466.56 2.58828 5.25741 0
M  V30 25372 N 4466.61 2.68068 3.77503 0
M  V30 25373 H 4463.77 5.40332 6.79951 0
M  V30 25374 H 4463.5 4.41613 5.32378 0
M  V30 25375 H 4464.37 3.26331 7.47797 0
M  V30 25376 P 4468.33 2.75334 8.47391 0
M  V30 25377 O 4468.55 2.44571 9.90142 0
M  V30 25378 O 4469.12 3.87688 7.92115 0
M  V30 25379 O 4468.58 1.4459 7.59357 0
M  V30 25380 C 4467.64 0.347608 7.69215 0
M  V30 25381 C 4468.37 -0.96767 7.52806 0
M  V30 25382 O 4468.58 -1.21036 6.1011 0
M  V30 25383 C 4469.77 -1.04544 8.13308 0
M  V30 25384 O 4470.16 -2.38311 8.41922 0
M  V30 25385 C 4470.65 -0.491279 7.02284 0
M  V30 25386 C 4469.94 -0.996264 5.77469 0
M  V30 25387 N 4469.99 -0.0501916 4.62973 0
M  V30 25388 H 4467.15 0.374722 8.67691 0
M  V30 25389 H 4466.88 0.443485 6.90277 0
M  V30 25390 H 4467.75 -1.75537 7.96793 0
M  V30 25391 P 4471.71 -2.75334 8.47391 0
M  V30 25392 O 4471.93 -3.84128 9.44797 0
M  V30 25393 O 4472.5 -1.51947 8.68712 0
M  V30 25394 O 4471.96 -3.29363 6.99321 0
M  V30 25395 C 4471.02 -4.24011 6.4274 0
M  V30 25396 C 4471.75 -5.20775 5.52155 0
M  V30 25397 O 4471.96 -4.56534 4.22446 0
M  V30 25398 C 4473.15 -5.62629 5.96531 0
M  V30 25399 O 4473.54 -6.87667 5.41053 0
M  V30 25400 C 4474.03 -4.52537 5.39283 0
M  V30 25401 C 4473.32 -4.20027 4.08623 0
M  V30 25402 N 4473.37 -2.76189 3.71603 0
M  V30 25403 C 4473.29 -1.64862 4.52822 0
M  V30 25404 N 4473.37 -0.512671 3.88633 0
M  V30 25405 C 4473.51 -0.888083 2.54977 0
M  V30 25406 C 4473.64 -0.094668 1.38677 0
M  V30 25407 N 4473.76 -0.890102 0.232633 0
M  V30 25408 C 4473.76 -2.26958 0.21772 0
M  V30 25409 N 4473.89 -2.84626 -0.97925 0
M  V30 25410 N 4473.63 -3.0178 1.31033 0
M  V30 25411 C 4473.51 -2.26781 2.43843 0
M  V30 25412 H 4470.53 -4.797 7.24003 0
M  V30 25413 H 4470.26 -3.69856 5.84513 0
M  V30 25414 H 4471.13 -6.10356 5.41441 0
M  V30 25415 P 4475.09 -7.20834 5.23717 0
M  V30 25416 O 4475.31 -8.66104 5.38572 0
M  V30 25417 O 4475.88 -6.33544 6.1349 0
M  V30 25418 O 4475.34 -6.7751 3.72168 0
M  V30 25419 C 4474.4 -7.20825 2.7076 0
M  V30 25420 C 4475.13 -7.45864 1.40599 0
M  V30 25421 O 4475.34 -6.17651 0.734225 0
M  V30 25422 C 4476.53 -8.05808 1.51899 0
M  V30 25423 O 4476.92 -8.74358 0.335205 0
M  V30 25424 C 4477.41 -6.83093 1.70294 0
M  V30 25425 C 4476.7 -5.79992 0.836974 0
M  V30 25426 N 4476.75 -4.41864 1.38293 0
M  V30 25427 H 4473.91 -8.13644 3.0377 0
M  V30 25428 H 4473.64 -6.42788 2.55485 0
M  V30 25429 H 4474.51 -8.12039 0.792769 0
M  V30 25430 P 4478.47 -8.91 1.92591e-10 0
M  V30 25431 O 4478.69 -10.1726 -0.733694 0
M  V30 25432 O 4479.26 -8.73148 1.23936 0
M  V30 25433 O 4478.72 -7.66872 -0.971405 0
M  V30 25434 C 4477.78 -7.42309 -2.04641 0
M  V30 25435 C 4478.51 -6.86059 -3.24661 0
M  V30 25436 O 4478.72 -5.42847 -3.03646 0
M  V30 25437 C 4479.91 -7.41196 -3.50753 0
M  V30 25438 O 4480.3 -7.27073 -4.86816 0
M  V30 25439 C 4480.79 -6.5273 -2.63741 0
M  V30 25440 C 4480.08 -5.1842 -2.73198 0
M  V30 25441 N 4480.13 -4.38762 -1.4784 0
M  V30 25442 H 4477.29 -8.36803 -2.32493 0
M  V30 25443 H 4477.02 -6.70197 -1.71129 0
M  V30 25444 H 4477.89 -7.03551 -4.13168 0
M  V30 25445 P 4481.85 -7.20834 -5.23717 0
M  V30 25446 O 4482.07 -7.7993 -6.57351 0
M  V30 25447 O 4482.64 -7.79328 -4.13004 0
M  V30 25448 O 4482.1 -5.63315 -5.29344 0
M  V30 25449 C 4481.16 -4.80255 -6.01876 0
M  V30 25450 C 4481.89 -3.64202 -6.65911 0
M  V30 25451 O 4482.1 -2.60694 -5.64732 0
M  V30 25452 C 4483.29 -3.93473 -7.1943 0
M  V30 25453 O 4483.68 -3.02071 -8.21205 0
M  V30 25454 C 4484.17 -3.73047 -5.97036 0
M  V30 25455 C 4483.46 -2.58828 -5.25741 0
M  V30 25456 N 4483.51 -2.6801 -3.77422 0
M  V30 25457 C 4483.66 -1.50173 -3.05038 0
M  V30 25458 O 4483.75 -0.428832 -3.665 0
M  V30 25459 N 4483.71 -1.70922 -1.55541 0
M  V30 25460 C 4483.61 -2.7407 -1.06402 0
M  V30 25461 N 4483.66 -2.74764 0.260931 0
M  V30 25462 C 4483.46 -3.96781 -1.78296 0
M  V30 25463 C 4483.41 -3.87909 -3.13891 0
M  V30 25464 H 4480.67 -5.4027 -6.79873 0
M  V30 25465 H 4480.4 -4.41549 -5.32301 0
M  V30 25466 H 4481.27 -3.26371 -7.47889 0
M  V30 25467 H 4483.93 -1.63978 -5.5665 0
M  V30 25468 H 4484.21 -4.63439 -5.3432 0
M  V30 25469 H 4485.2 -3.44728 -6.25838 0
M  V30 25470 H 4483.36 -4.96652 -7.57263 0
M  V30 25471 H 4483.29 -4.78425 -3.73088 0
M  V30 25472 H 4483.39 -4.92593 -1.26997 0
M  V30 25473 H 4483.78 -1.86285 0.77595 0
M  V30 25474 H 4483.58 -3.63657 0.773896 0
M  V30 25475 P 4485.23 -2.75334 -8.47391 0
M  V30 25476 O 4485.45 -2.44571 -9.90142 0
M  V30 25477 O 4486.02 -3.87688 -7.92115 0
M  V30 25478 O 4485.48 -1.4459 -7.59357 0
M  V30 25479 C 4484.54 -0.347608 -7.69215 0
M  V30 25480 C 4485.27 0.96767 -7.52806 0
M  V30 25481 O 4485.48 1.21036 -6.1011 0
M  V30 25482 C 4486.67 1.04544 -8.13308 0
M  V30 25483 O 4487.06 2.38311 -8.41922 0
M  V30 25484 C 4487.55 0.491279 -7.02284 0
M  V30 25485 C 4486.84 0.996264 -5.77469 0
M  V30 25486 N 4486.89 0.0501916 -4.62973 0
M  V30 25487 H 4484.05 -0.374722 -8.67691 0
M  V30 25488 H 4483.78 -0.443485 -6.90277 0
M  V30 25489 H 4484.65 1.75537 -7.96793 0
M  V30 25490 P 4488.61 2.75334 -8.47391 0
M  V30 25491 O 4488.83 3.84166 -9.4489 0
M  V30 25492 O 4489.4 1.51964 -8.6881 0
M  V30 25493 O 4488.86 3.29363 -6.99321 0
M  V30 25494 C 4487.92 4.24011 -6.4274 0
M  V30 25495 C 4488.65 5.20775 -5.52155 0
M  V30 25496 O 4488.86 4.56534 -4.22446 0
M  V30 25497 C 4490.05 5.62629 -5.96531 0
M  V30 25498 O 4490.44 6.87667 -5.41053 0
M  V30 25499 C 4490.93 4.52537 -5.39283 0
M  V30 25500 C 4490.22 4.20027 -4.08623 0
M  V30 25501 N 4490.27 2.7613 -3.71522 0
M  V30 25502 C 4490.42 2.43702 -2.37085 0
M  V30 25503 O 4490.51 3.3531 -1.54039 0
M  V30 25504 N 4490.47 0.951103 -2.10621 0
M  V30 25505 C 4490.37 0.165021 -2.93537 0
M  V30 25506 N 4490.42 -1.09723 -2.53253 0
M  V30 25507 C 4490.22 0.469576 -4.32458 0
M  V30 25508 C 4490.17 1.78658 -4.65921 0
M  V30 25509 H 4487.43 4.79645 -7.23919 0
M  V30 25510 H 4487.16 3.69802 -5.84429 0
M  V30 25511 H 4488.03 6.10431 -5.41508 0
M  V30 25512 H 4490.69 4.78733 -3.27967 0
M  V30 25513 H 4490.97 3.64957 -6.05871 0
M  V30 25514 H 4491.96 4.8868 -5.2125 0
M  V30 25515 H 4490.12 5.66726 -7.06352 0
M  V30 25516 H 4490.05 2.06987 -5.70299 0
M  V30 25517 H 4490.15 -0.314383 -5.07728 0
M  V30 25518 H 4490.54 -1.31363 -1.5319 0
M  V30 25519 H 4490.34 -1.85978 -3.21943 0
M  V30 25520 P 4491.99 7.20834 -5.23717 0
M  V30 25521 O 4492.21 8.66104 -5.38572 0
M  V30 25522 O 4492.78 6.33544 -6.1349 0
M  V30 25523 O 4492.24 6.7751 -3.72168 0
M  V30 25524 C 4491.3 7.20825 -2.7076 0
M  V30 25525 C 4492.03 7.45864 -1.40599 0
M  V30 25526 O 4492.24 6.17651 -0.734225 0
M  V30 25527 C 4493.43 8.05808 -1.51899 0
M  V30 25528 O 4493.82 8.74358 -0.335205 0
M  V30 25529 C 4494.31 6.83093 -1.70294 0
M  V30 25530 C 4493.6 5.79992 -0.836974 0
M  V30 25531 N 4493.65 4.41864 -1.38293 0
M  V30 25532 H 4490.81 8.13644 -3.0377 0
M  V30 25533 H 4490.54 6.42788 -2.55485 0
M  V30 25534 H 4491.41 8.12039 -0.792769 0
M  V30 25535 P 4495.37 8.91 -1.937e-10 0
M  V30 25536 O 4495.59 10.1726 0.733694 0
M  V30 25537 O 4496.16 8.73148 -1.23936 0
M  V30 25538 O 4495.62 7.66872 0.971405 0
M  V30 25539 C 4494.68 7.42309 2.04641 0
M  V30 25540 C 4495.41 6.86059 3.24661 0
M  V30 25541 O 4495.62 5.42847 3.03646 0
M  V30 25542 C 4496.81 7.41196 3.50753 0
M  V30 25543 O 4497.2 7.27073 4.86816 0
M  V30 25544 C 4497.69 6.5273 2.63741 0
M  V30 25545 C 4496.98 5.1842 2.73198 0
M  V30 25546 N 4497.03 4.38762 1.4784 0
M  V30 25547 H 4494.19 8.36803 2.32493 0
M  V30 25548 H 4493.92 6.70197 1.71129 0
M  V30 25549 H 4494.79 7.03551 4.13168 0
M  V30 25550 P 4498.75 7.20834 5.23717 0
M  V30 25551 O 4498.97 7.7993 6.57351 0
M  V30 25552 O 4499.54 7.79328 4.13004 0
M  V30 25553 O 4499 5.63315 5.29344 0
M  V30 25554 C 4498.06 4.80193 6.01798 0
M  V30 25555 C 4498.79 3.64202 6.65911 0
M  V30 25556 O 4499 2.60694 5.64732 0
M  V30 25557 C 4500.19 3.93473 7.1943 0
M  V30 25558 O 4500.58 3.02071 8.21205 0
M  V30 25559 C 4501.07 3.73047 5.97036 0
M  V30 25560 C 4500.36 2.58828 5.25741 0
M  V30 25561 N 4500.41 2.6801 3.77422 0
M  V30 25562 C 4500.56 1.50443 3.07133 0
M  V30 25563 O 4500.65 0.419406 3.61576 0
M  V30 25564 N 4500.6 1.6403 1.69677 0
M  V30 25565 C 4500.51 2.81206 0.986255 0
M  V30 25566 O 4500.56 2.80892 -0.249754 0
M  V30 25567 C 4500.36 3.99158 1.80325 0
M  V30 25568 C 4500.25 5.29309 1.06921 0
M  V30 25569 C 4500.31 3.89779 3.1476 0
M  V30 25570 H 4497.57 5.40332 6.79951 0
M  V30 25571 H 4497.3 4.41549 5.32301 0
M  V30 25572 H 4498.17 3.26331 7.47797 0
M  V30 25573 H 4500.83 1.6395 5.56554 0
M  V30 25574 H 4501.11 4.63439 5.3432 0
M  V30 25575 H 4502.1 3.44728 6.25838 0
M  V30 25576 H 4500.26 4.96652 7.57263 0
M  V30 25577 H 4500.19 4.80159 3.74441 0
M  V30 25578 H 4501.22 5.81459 1.09608 0
M  V30 25579 H 4499.49 5.9187 1.54487 0
M  V30 25580 H 4499.97 5.10095 0.0220288 0
M  V30 25581 H 4500.71 0.798962 1.16664 0
M  V30 25582 P 4502.13 2.75334 8.47391 0
M  V30 25583 O 4502.35 2.44571 9.90142 0
M  V30 25584 O 4502.92 3.87688 7.92115 0
M  V30 25585 O 4502.38 1.4459 7.59357 0
M  V30 25586 C 4501.44 0.347608 7.69215 0
M  V30 25587 C 4502.17 -0.96767 7.52806 0
M  V30 25588 O 4502.38 -1.21036 6.1011 0
M  V30 25589 C 4503.57 -1.04544 8.13308 0
M  V30 25590 O 4503.96 -2.38311 8.41922 0
M  V30 25591 C 4504.45 -0.491279 7.02284 0
M  V30 25592 C 4503.74 -0.996264 5.77469 0
M  V30 25593 N 4503.79 -0.0501916 4.62973 0
M  V30 25594 H 4500.95 0.374722 8.67691 0
M  V30 25595 H 4500.68 0.443485 6.90277 0
M  V30 25596 H 4501.55 -1.75537 7.96793 0
M  V30 25597 P 4505.51 -2.75334 8.47391 0
M  V30 25598 O 4505.73 -3.84128 9.44797 0
M  V30 25599 O 4506.3 -1.51947 8.68712 0
M  V30 25600 O 4505.76 -3.29363 6.99321 0
M  V30 25601 C 4504.82 -4.24011 6.4274 0
M  V30 25602 C 4505.55 -5.20775 5.52155 0
M  V30 25603 O 4505.76 -4.56534 4.22446 0
M  V30 25604 C 4506.95 -5.62629 5.96531 0
M  V30 25605 O 4507.34 -6.87667 5.41053 0
M  V30 25606 C 4507.83 -4.52537 5.39283 0
M  V30 25607 C 4507.12 -4.20027 4.08623 0
M  V30 25608 N 4507.17 -2.76189 3.71603 0
M  V30 25609 H 4504.33 -4.797 7.24003 0
M  V30 25610 H 4504.06 -3.69856 5.84513 0
M  V30 25611 H 4504.93 -6.10356 5.41441 0
M  V30 25612 P 4508.89 -7.20834 5.23717 0
M  V30 25613 O 4509.11 -8.66104 5.38572 0
M  V30 25614 O 4509.68 -6.33544 6.1349 0
M  V30 25615 O 4509.14 -6.7751 3.72168 0
M  V30 25616 C 4508.2 -7.20825 2.7076 0
M  V30 25617 C 4508.93 -7.45864 1.40599 0
M  V30 25618 O 4509.14 -6.17651 0.734225 0
M  V30 25619 C 4510.33 -8.05808 1.51899 0
M  V30 25620 O 4510.72 -8.74358 0.335205 0
M  V30 25621 C 4511.21 -6.83093 1.70294 0
M  V30 25622 C 4510.5 -5.79992 0.836974 0
M  V30 25623 N 4510.55 -4.41864 1.38293 0
M  V30 25624 H 4507.71 -8.13644 3.0377 0
M  V30 25625 H 4507.44 -6.42788 2.55485 0
M  V30 25626 H 4508.31 -8.12039 0.792769 0
M  V30 25627 P 4512.27 -8.91 1.94809e-10 0
M  V30 25628 O 4512.49 -10.1726 -0.733694 0
M  V30 25629 O 4513.06 -8.73148 1.23936 0
M  V30 25630 O 4512.52 -7.66872 -0.971405 0
M  V30 25631 C 4511.58 -7.42309 -2.04641 0
M  V30 25632 C 4512.31 -6.86059 -3.24661 0
M  V30 25633 O 4512.52 -5.42847 -3.03646 0
M  V30 25634 C 4513.71 -7.41196 -3.50753 0
M  V30 25635 O 4514.1 -7.27073 -4.86816 0
M  V30 25636 C 4514.59 -6.5273 -2.63741 0
M  V30 25637 C 4513.88 -5.1842 -2.73198 0
M  V30 25638 N 4513.93 -4.38762 -1.4784 0
M  V30 25639 H 4511.09 -8.36803 -2.32493 0
M  V30 25640 H 4510.82 -6.70197 -1.71129 0
M  V30 25641 H 4511.69 -7.03551 -4.13168 0
M  V30 25642 P 4515.65 -7.20834 -5.23717 0
M  V30 25643 O 4515.87 -7.79853 -6.57286 0
M  V30 25644 O 4516.44 -7.79239 -4.12957 0
M  V30 25645 O 4515.9 -5.63315 -5.29344 0
M  V30 25646 C 4514.96 -4.80255 -6.01876 0
M  V30 25647 C 4515.69 -3.64202 -6.65911 0
M  V30 25648 O 4515.9 -2.60694 -5.64732 0
M  V30 25649 C 4517.09 -3.93473 -7.1943 0
M  V30 25650 O 4517.48 -3.02071 -8.21205 0
M  V30 25651 C 4517.97 -3.73047 -5.97036 0
M  V30 25652 C 4517.26 -2.58828 -5.25741 0
M  V30 25653 N 4517.31 -2.68068 -3.77503 0
M  V30 25654 H 4514.47 -5.40332 -6.79951 0
M  V30 25655 H 4514.2 -4.41613 -5.32378 0
M  V30 25656 H 4515.07 -3.26331 -7.47797 0
M  V30 25657 P 4519.03 -2.75334 -8.47391 0
M  V30 25658 O 4519.25 -2.44571 -9.90142 0
M  V30 25659 O 4519.82 -3.87688 -7.92115 0
M  V30 25660 O 4519.28 -1.4459 -7.59357 0
M  V30 25661 C 4518.34 -0.347608 -7.69215 0
M  V30 25662 C 4519.07 0.96767 -7.52806 0
M  V30 25663 O 4519.28 1.21036 -6.1011 0
M  V30 25664 C 4520.47 1.04544 -8.13308 0
M  V30 25665 O 4520.86 2.38311 -8.41922 0
M  V30 25666 C 4521.35 0.491279 -7.02284 0
M  V30 25667 C 4520.64 0.996264 -5.77469 0
M  V30 25668 N 4520.69 0.0501916 -4.62973 0
M  V30 25669 C 4520.61 -1.32786 -4.63244 0
M  V30 25670 N 4520.69 -1.86957 -3.44545 0
M  V30 25671 C 4520.83 -0.780241 -2.58481 0
M  V30 25672 C 4520.96 -0.738536 -1.17757 0
M  V30 25673 O 4520.98 -1.66794 -0.372349 0
M  V30 25674 N 4521.08 0.58337 -0.711393 0
M  V30 25675 C 4521.08 1.70816 -1.51017 0
M  V30 25676 N 4521.21 2.87826 -0.880757 0
M  V30 25677 N 4520.95 1.67126 -2.8339 0
M  V30 25678 C 4520.83 0.401421 -3.30572 0
M  V30 25679 H 4517.85 -0.374722 -8.67691 0
M  V30 25680 H 4517.58 -0.443485 -6.90277 0
M  V30 25681 H 4518.45 1.75537 -7.96793 0
M  V30 25682 H 4521.11 1.95076 -5.46529 0
M  V30 25683 H 4521.39 -0.608565 -7.04577 0
M  V30 25684 H 4522.38 0.889672 -7.08939 0
M  V30 25685 H 4520.54 0.43308 -9.04564 0
M  V30 25686 H 4520.49 -1.91249 -5.54442 0
M  V30 25687 H 4521.18 0.718054 0.275244 0
M  V30 25688 H 4521.21 3.75721 -1.41832 0
M  V30 25689 H 4521.31 2.90436 0.145468 0
M  V30 25690 P 4522.41 2.75334 -8.47391 0
M  V30 25691 O 4522.63 3.84204 -9.44982 0
M  V30 25692 O 4523.2 1.51982 -8.68909 0
M  V30 25693 O 4522.66 3.29363 -6.99321 0
M  V30 25694 C 4521.72 4.24066 -6.42823 0
M  V30 25695 C 4522.45 5.20775 -5.52155 0
M  V30 25696 O 4522.66 4.56607 -4.22514 0
M  V30 25697 C 4523.85 5.62697 -5.96604 0
M  V30 25698 O 4524.24 6.87667 -5.41053 0
M  V30 25699 C 4524.73 4.52537 -5.39283 0
M  V30 25700 C 4524.02 4.20027 -4.08623 0
M  V30 25701 N 4524.07 2.76189 -3.71603 0
M  V30 25702 C 4523.99 1.66944 -4.54297 0
M  V30 25703 N 4524.06 0.536169 -3.91344 0
M  V30 25704 C 4524.21 0.901569 -2.58849 0
M  V30 25705 C 4524.34 0.146599 -1.40236 0
M  V30 25706 N 4524.35 -1.18234 -1.37046 0
M  V30 25707 N 4524.46 0.822941 -0.249738 0
M  V30 25708 C 4524.45 2.15179 -0.280525 0
M  V30 25709 N 4524.33 2.96414 -1.30822 0
M  V30 25710 C 4524.21 2.25804 -2.44748 0
M  V30 25711 H 4521.24 4.79756 -7.24086 0
M  V30 25712 H 4520.96 3.69963 -5.84682 0
M  V30 25713 H 4521.83 6.10431 -5.41508 0
M  V30 25714 H 4524.49 4.78816 -3.28024 0
M  V30 25715 H 4524.77 3.64957 -6.05871 0
M  V30 25716 H 4525.76 4.88748 -5.21323 0
M  V30 25717 H 4523.92 5.66789 -7.0643 0
M  V30 25718 H 4523.88 1.74684 -5.62396 0
M  V30 25719 H 4524.26 -1.71949 -2.24394 0
M  V30 25720 H 4524.45 -1.67511 -0.470742 0
M  V30 25721 H 4524.56 2.63704 0.6828 0
M  V30 25722 P 4525.79 7.20834 -5.23717 0
M  V30 25723 O 4526.01 8.66274 -5.38678 0
M  V30 25724 O 4526.58 6.33687 -6.13629 0
M  V30 25725 O 4526.04 6.7751 -3.72168 0
M  V30 25726 C 4525.1 7.20919 -2.70795 0
M  V30 25727 C 4525.83 7.45864 -1.40599 0
M  V30 25728 O 4526.04 6.17751 -0.734343 0
M  V30 25729 C 4527.23 8.05906 -1.51917 0
M  V30 25730 O 4527.62 8.74358 -0.335205 0
M  V30 25731 C 4528.11 6.83093 -1.70294 0
M  V30 25732 C 4527.4 5.79992 -0.836974 0
M  V30 25733 N 4527.45 4.41864 -1.38293 0
M  V30 25734 H 4524.62 8.13738 -3.03804 0
M  V30 25735 H 4524.34 6.42974 -2.55559 0
M  V30 25736 H 4525.21 8.12139 -0.792866 0
M  V30 25737 H 4527.87 5.80178 0.160643 0
M  V30 25738 H 4528.15 6.51379 -2.75643 0
M  V30 25739 H 4529.14 7.01832 -1.3448 0
M  V30 25740 H 4527.3 8.73771 -2.38364 0
M  V30 25741 P 4529.17 8.91 -1.95918e-10 0
M  V30 25742 O 4529.39 10.1746 0.733838 0
M  V30 25743 O 4529.96 8.73346 -1.23964 0
M  V30 25744 O 4529.42 7.66872 0.971405 0
M  V30 25745 C 4528.48 7.42405 2.04668 0
M  V30 25746 C 4529.21 6.86059 3.24661 0
M  V30 25747 O 4529.42 5.42934 3.03695 0
M  V30 25748 C 4530.61 7.41287 3.50796 0
M  V30 25749 O 4531 7.27073 4.86816 0
M  V30 25750 C 4531.49 6.5273 2.63741 0
M  V30 25751 C 4530.78 5.1842 2.73198 0
M  V30 25752 N 4530.83 4.38762 1.4784 0
M  V30 25753 C 4530.75 4.83651 0.183876 0
M  V30 25754 N 4530.82 3.88759 -0.699393 0
M  V30 25755 C 4530.97 2.7404 0.0575568 0
M  V30 25756 C 4531.1 1.37902 -0.293928 0
M  V30 25757 N 4531.11 0.938021 -1.54797 0
M  V30 25758 N 4531.22 0.491817 0.70549 0
M  V30 25759 C 4531.21 0.931735 1.95979 0
M  V30 25760 N 4531.09 2.16017 2.41481 0
M  V30 25761 C 4530.97 3.02547 1.39121 0
M  V30 25762 H 4528 8.36899 2.3252 0
M  V30 25763 H 4527.72 6.70391 1.71179 0
M  V30 25764 H 4528.59 7.03638 4.13219 0
M  V30 25765 H 4531.25 4.59931 3.54016 0
M  V30 25766 H 4531.53 6.88995 1.59871 0
M  V30 25767 H 4532.52 6.4684 3.0373 0
M  V30 25768 H 4530.68 8.47002 3.20749 0
M  V30 25769 H 4530.64 5.8885 -0.0765548 0
M  V30 25770 H 4531.02 1.60276 -2.32875 0
M  V30 25771 H 4531.21 -0.0699355 -1.73859 0
M  V30 25772 H 4531.32 0.165507 2.71897 0
M  V30 25773 P 4532.55 7.20834 5.23717 0
M  V30 25774 O 4532.77 7.79853 6.57286 0
M  V30 25775 O 4533.34 7.79239 4.12957 0
M  V30 25776 O 4532.8 5.63315 5.29344 0
M  V30 25777 C 4531.86 4.80255 6.01876 0
M  V30 25778 C 4532.59 3.64202 6.65911 0
M  V30 25779 O 4532.8 2.60694 5.64732 0
M  V30 25780 C 4533.99 3.93473 7.1943 0
M  V30 25781 O 4534.38 3.02071 8.21205 0
M  V30 25782 C 4534.87 3.73047 5.97036 0
M  V30 25783 C 4534.16 2.58828 5.25741 0
M  V30 25784 N 4534.21 2.68068 3.77503 0
M  V30 25785 H 4531.37 5.40332 6.79951 0
M  V30 25786 H 4531.1 4.41613 5.32378 0
M  V30 25787 H 4531.97 3.26331 7.47797 0
M  V30 25788 P 4535.93 2.75334 8.47391 0
M  V30 25789 O 4536.15 2.44571 9.90142 0
M  V30 25790 O 4536.72 3.87688 7.92115 0
M  V30 25791 O 4536.18 1.4459 7.59357 0
M  V30 25792 C 4535.24 0.347608 7.69215 0
M  V30 25793 C 4535.97 -0.96767 7.52806 0
M  V30 25794 O 4536.18 -1.21036 6.1011 0
M  V30 25795 C 4537.37 -1.04544 8.13308 0
M  V30 25796 O 4537.76 -2.38311 8.41922 0
M  V30 25797 C 4538.25 -0.491279 7.02284 0
M  V30 25798 C 4537.54 -0.996264 5.77469 0
M  V30 25799 N 4537.59 -0.0501916 4.62973 0
M  V30 25800 H 4534.75 0.374722 8.67691 0
M  V30 25801 H 4534.48 0.443485 6.90277 0
M  V30 25802 H 4535.35 -1.75537 7.96793 0
M  V30 25803 P 4539.31 -2.75334 8.47391 0
M  V30 25804 O 4539.53 -3.84166 9.4489 0
M  V30 25805 O 4540.1 -1.51964 8.6881 0
M  V30 25806 O 4539.56 -3.29363 6.99321 0
M  V30 25807 C 4538.62 -4.23956 6.42656 0
M  V30 25808 C 4539.35 -5.20775 5.52155 0
M  V30 25809 O 4539.56 -4.56534 4.22446 0
M  V30 25810 C 4540.75 -5.62629 5.96531 0
M  V30 25811 O 4541.14 -6.87667 5.41053 0
M  V30 25812 C 4541.63 -4.52537 5.39283 0
M  V30 25813 C 4540.92 -4.20027 4.08623 0
M  V30 25814 N 4540.97 -2.7613 3.71522 0
M  V30 25815 C 4541.12 -2.45612 2.37989 0
M  V30 25816 O 4541.21 -3.30919 1.51621 0
M  V30 25817 N 4541.16 -1.10684 2.08435 0
M  V30 25818 C 4541.07 -0.0690084 2.9792 0
M  V30 25819 O 4541.12 1.10553 2.59426 0
M  V30 25820 C 4540.92 -0.481522 4.35345 0
M  V30 25821 C 4540.81 0.618778 5.36443 0
M  V30 25822 C 4540.87 -1.78906 4.67968 0
M  V30 25823 H 4538.13 -4.797 7.24003 0
M  V30 25824 H 4537.86 -3.69802 5.84429 0
M  V30 25825 H 4538.73 -6.10356 5.41441 0
M  V30 25826 H 4541.39 -4.78651 3.27911 0
M  V30 25827 H 4541.67 -3.64957 6.05871 0
M  V30 25828 H 4542.66 -4.8868 5.2125 0
M  V30 25829 H 4540.82 -5.66726 7.06352 0
M  V30 25830 H 4540.75 -2.07737 5.72367 0
M  V30 25831 H 4541.78 0.754375 5.86871 0
M  V30 25832 H 4540.05 0.359721 6.10641 0
M  V30 25833 H 4540.53 1.55533 4.8581 0
M  V30 25834 H 4541.27 -0.862651 1.12037 0
M  V30 25835 P 4542.69 -7.20834 5.23717 0
M  V30 25836 O 4542.91 -8.66104 5.38572 0
M  V30 25837 O 4543.48 -6.33544 6.1349 0
M  V30 25838 O 4542.94 -6.7751 3.72168 0
M  V30 25839 C 4542 -7.20825 2.7076 0
M  V30 25840 C 4542.73 -7.45864 1.40599 0
M  V30 25841 O 4542.94 -6.17651 0.734225 0
M  V30 25842 C 4544.13 -8.05808 1.51899 0
M  V30 25843 O 4544.52 -8.74358 0.335205 0
M  V30 25844 C 4545.01 -6.83093 1.70294 0
M  V30 25845 C 4544.3 -5.79992 0.836974 0
M  V30 25846 N 4544.35 -4.41864 1.38293 0
M  V30 25847 H 4541.51 -8.13644 3.0377 0
M  V30 25848 H 4541.24 -6.42788 2.55485 0
M  V30 25849 H 4542.11 -8.12039 0.792769 0
M  V30 25850 P 4546.07 -8.91 1.97027e-10 0
M  V30 25851 O 4546.29 -10.1726 -0.733694 0
M  V30 25852 O 4546.86 -8.73148 1.23936 0
M  V30 25853 O 4546.32 -7.66872 -0.971405 0
M  V30 25854 C 4545.38 -7.42309 -2.04641 0
M  V30 25855 C 4546.11 -6.86059 -3.24661 0
M  V30 25856 O 4546.32 -5.42847 -3.03646 0
M  V30 25857 C 4547.51 -7.41196 -3.50753 0
M  V30 25858 O 4547.9 -7.27073 -4.86816 0
M  V30 25859 C 4548.39 -6.5273 -2.63741 0
M  V30 25860 C 4547.68 -5.1842 -2.73198 0
M  V30 25861 N 4547.73 -4.38762 -1.4784 0
M  V30 25862 H 4544.89 -8.36803 -2.32493 0
M  V30 25863 H 4544.62 -6.70197 -1.71129 0
M  V30 25864 H 4545.49 -7.03551 -4.13168 0
M  V30 25865 P 4549.45 -7.20834 -5.23717 0
M  V30 25866 O 4549.67 -7.79853 -6.57286 0
M  V30 25867 O 4550.24 -7.79239 -4.12957 0
M  V30 25868 O 4549.7 -5.63315 -5.29344 0
M  V30 25869 C 4548.76 -4.80255 -6.01876 0
M  V30 25870 C 4549.49 -3.64202 -6.65911 0
M  V30 25871 O 4549.7 -2.60694 -5.64732 0
M  V30 25872 C 4550.89 -3.93473 -7.1943 0
M  V30 25873 O 4551.28 -3.02071 -8.21205 0
M  V30 25874 C 4551.77 -3.73047 -5.97036 0
M  V30 25875 C 4551.06 -2.58828 -5.25741 0
M  V30 25876 N 4551.11 -2.68068 -3.77503 0
M  V30 25877 H 4548.27 -5.40332 -6.79951 0
M  V30 25878 H 4548 -4.41613 -5.32378 0
M  V30 25879 H 4548.87 -3.26331 -7.47797 0
M  V30 25880 P 4552.83 -2.75334 -8.47391 0
M  V30 25881 O 4553.05 -2.44571 -9.90142 0
M  V30 25882 O 4553.62 -3.87688 -7.92115 0
M  V30 25883 O 4553.08 -1.4459 -7.59357 0
M  V30 25884 C 4552.14 -0.347608 -7.69215 0
M  V30 25885 C 4552.87 0.96767 -7.52806 0
M  V30 25886 O 4553.08 1.21036 -6.1011 0
M  V30 25887 C 4554.27 1.04544 -8.13308 0
M  V30 25888 O 4554.66 2.38311 -8.41922 0
M  V30 25889 C 4555.15 0.491279 -7.02284 0
M  V30 25890 C 4554.44 0.996264 -5.77469 0
M  V30 25891 N 4554.49 0.0501916 -4.62973 0
M  V30 25892 H 4551.65 -0.374722 -8.67691 0
M  V30 25893 H 4551.38 -0.443485 -6.90277 0
M  V30 25894 H 4552.25 1.75537 -7.96793 0
M  V30 25895 P 4556.21 2.75334 -8.47391 0
M  V30 25896 O 4556.43 3.84128 -9.44797 0
M  V30 25897 O 4557 1.51947 -8.68712 0
M  V30 25898 O 4556.46 3.29363 -6.99321 0
M  V30 25899 C 4555.52 4.24011 -6.4274 0
M  V30 25900 C 4556.25 5.20775 -5.52155 0
M  V30 25901 O 4556.46 4.56534 -4.22446 0
M  V30 25902 C 4557.65 5.62629 -5.96531 0
M  V30 25903 O 4558.04 6.87667 -5.41053 0
M  V30 25904 C 4558.53 4.52537 -5.39283 0
M  V30 25905 C 4557.82 4.20027 -4.08623 0
M  V30 25906 N 4557.87 2.76189 -3.71603 0
M  V30 25907 H 4555.03 4.797 -7.24003 0
M  V30 25908 H 4554.76 3.69856 -5.84513 0
M  V30 25909 H 4555.63 6.10356 -5.41441 0
M  V30 25910 P 4559.59 7.20834 -5.23717 0
M  V30 25911 O 4559.81 8.66104 -5.38572 0
M  V30 25912 O 4560.38 6.33544 -6.1349 0
M  V30 25913 O 4559.84 6.7751 -3.72168 0
M  V30 25914 C 4558.9 7.20825 -2.7076 0
M  V30 25915 C 4559.63 7.45864 -1.40599 0
M  V30 25916 O 4559.84 6.17651 -0.734225 0
M  V30 25917 C 4561.03 8.05808 -1.51899 0
M  V30 25918 O 4561.42 8.74358 -0.335205 0
M  V30 25919 C 4561.91 6.83093 -1.70294 0
M  V30 25920 C 4561.2 5.79992 -0.836974 0
M  V30 25921 N 4561.25 4.41864 -1.38293 0
M  V30 25922 H 4558.41 8.13644 -3.0377 0
M  V30 25923 H 4558.14 6.42788 -2.55485 0
M  V30 25924 H 4559.01 8.12039 -0.792769 0
M  V30 25925 P 4562.97 8.91 -1.98136e-10 0
M  V30 25926 O 4563.19 10.1726 0.733694 0
M  V30 25927 O 4563.76 8.73148 -1.23936 0
M  V30 25928 O 4563.22 7.66872 0.971405 0
M  V30 25929 C 4562.28 7.42309 2.04641 0
M  V30 25930 C 4563.01 6.86059 3.24661 0
M  V30 25931 O 4563.22 5.42847 3.03646 0
M  V30 25932 C 4564.41 7.41196 3.50753 0
M  V30 25933 O 4564.8 7.27073 4.86816 0
M  V30 25934 C 4565.29 6.5273 2.63741 0
M  V30 25935 C 4564.58 5.1842 2.73198 0
M  V30 25936 N 4564.63 4.38762 1.4784 0
M  V30 25937 H 4561.79 8.36803 2.32493 0
M  V30 25938 H 4561.52 6.70197 1.71129 0
M  V30 25939 H 4562.39 7.03551 4.13168 0
M  V30 25940 P 4566.35 7.20834 5.23717 0
M  V30 25941 O 4566.57 7.79853 6.57286 0
M  V30 25942 O 4567.14 7.79239 4.12957 0
M  V30 25943 O 4566.6 5.63315 5.29344 0
M  V30 25944 C 4565.66 4.80255 6.01876 0
M  V30 25945 C 4566.39 3.64202 6.65911 0
M  V30 25946 O 4566.6 2.60694 5.64732 0
M  V30 25947 C 4567.79 3.93473 7.1943 0
M  V30 25948 O 4568.18 3.02071 8.21205 0
M  V30 25949 C 4568.67 3.73047 5.97036 0
M  V30 25950 C 4567.96 2.58828 5.25741 0
M  V30 25951 N 4568.01 2.68068 3.77503 0
M  V30 25952 H 4565.17 5.40332 6.79951 0
M  V30 25953 H 4564.9 4.41613 5.32378 0
M  V30 25954 H 4565.77 3.26331 7.47797 0
M  V30 25955 P 4569.73 2.75334 8.47391 0
M  V30 25956 O 4569.95 2.44595 9.90239 0
M  V30 25957 O 4570.52 3.87732 7.92204 0
M  V30 25958 O 4569.98 1.4459 7.59357 0
M  V30 25959 C 4569.04 0.347563 7.69115 0
M  V30 25960 C 4569.77 -0.96767 7.52806 0
M  V30 25961 O 4569.98 -1.21036 6.1011 0
M  V30 25962 C 4571.17 -1.04544 8.13308 0
M  V30 25963 O 4571.56 -2.38311 8.41922 0
M  V30 25964 C 4572.05 -0.491279 7.02284 0
M  V30 25965 C 4571.34 -0.996264 5.77469 0
M  V30 25966 N 4571.39 -0.0501808 4.62873 0
M  V30 25967 C 4571.54 -0.588177 3.36904 0
M  V30 25968 O 4571.63 -1.78598 3.17173 0
M  V30 25969 N 4571.58 0.329694 2.33686 0
M  V30 25970 C 4571.49 1.6953 2.45079 0
M  V30 25971 C 4571.34 2.16933 3.80505 0
M  V30 25972 C 4571.29 1.30326 4.83752 0
M  V30 25973 H 4568.55 0.374722 8.67691 0
M  V30 25974 H 4568.28 0.443421 6.90177 0
M  V30 25975 H 4569.15 -1.75537 7.96793 0
M  V30 25976 H 4571.81 -1.94496 5.46629 0
M  V30 25977 H 4572.08 0.608651 7.04676 0
M  V30 25978 H 4573.08 -0.889672 7.08939 0
M  V30 25979 H 4571.24 -0.43308 9.04564 0
M  V30 25980 H 4571.17 1.68366 5.8516 0
M  V30 25981 P 4573.11 -2.75334 8.47391 0
M  V30 25982 O 4573.33 -3.84128 9.44797 0
M  V30 25983 O 4573.9 -1.51947 8.68712 0
M  V30 25984 O 4573.36 -3.29363 6.99321 0
M  V30 25985 C 4572.42 -4.24011 6.4274 0
M  V30 25986 C 4573.15 -5.20775 5.52155 0
M  V30 25987 O 4573.36 -4.56534 4.22446 0
M  V30 25988 C 4574.55 -5.62629 5.96531 0
M  V30 25989 O 4574.94 -6.87667 5.41053 0
M  V30 25990 C 4575.43 -4.52537 5.39283 0
M  V30 25991 C 4574.72 -4.20027 4.08623 0
M  V30 25992 N 4574.77 -2.76189 3.71603 0
M  V30 25993 H 4571.93 -4.797 7.24003 0
M  V30 25994 H 4571.66 -3.69856 5.84513 0
M  V30 25995 H 4572.53 -6.10356 5.41441 0
M  V30 25996 P 4576.49 -7.20834 5.23717 0
M  V30 25997 O 4576.71 -8.66274 5.38678 0
M  V30 25998 O 4577.28 -6.33687 6.13629 0
M  V30 25999 O 4576.74 -6.7751 3.72168 0
M  V30 26000 C 4575.8 -7.20919 2.70795 0
M  V30 26001 C 4576.53 -7.45864 1.40599 0
M  V30 26002 O 4576.74 -6.17751 0.734343 0
M  V30 26003 C 4577.93 -8.05906 1.51917 0
M  V30 26004 O 4578.32 -8.74358 0.335205 0
M  V30 26005 C 4578.81 -6.83093 1.70294 0
M  V30 26006 C 4578.1 -5.79992 0.836974 0
M  V30 26007 N 4578.15 -4.41864 1.38293 0
M  V30 26008 C 4578.07 -4.02089 2.69407 0
M  V30 26009 N 4578.14 -2.73403 2.85089 0
M  V30 26010 C 4578.29 -2.25086 1.5642 0
M  V30 26011 C 4578.42 -0.942887 1.04836 0
M  V30 26012 N 4578.43 0.150999 1.80369 0
M  V30 26013 N 4578.54 -0.812565 -0.28167 0
M  V30 26014 C 4578.53 -1.90572 -1.03784 0
M  V30 26015 N 4578.41 -3.167 -0.683905 0
M  V30 26016 C 4578.29 -3.26538 0.652815 0
M  V30 26017 H 4575.31 -8.13738 3.03804 0
M  V30 26018 H 4575.04 -6.42974 2.55559 0
M  V30 26019 H 4575.91 -8.12139 0.792866 0
M  V30 26020 H 4578.57 -5.80178 -0.160643 0
M  V30 26021 H 4578.85 -6.51379 2.75643 0
M  V30 26022 H 4579.84 -7.01832 1.3448 0
M  V30 26023 H 4578 -8.73771 2.38364 0
M  V30 26024 H 4577.96 -4.7189 3.52311 0
M  V30 26025 H 4578.34 0.0721434 2.82608 0
M  V30 26026 H 4578.53 1.0785 1.36544 0
M  V30 26027 H 4578.64 -1.73207 -2.10241 0
M  V30 26028 P 4579.87 -8.91 1.99245e-10 0
M  V30 26029 O 4580.09 -10.1726 -0.733694 0
M  V30 26030 O 4580.66 -8.73148 1.23936 0
M  V30 26031 O 4580.12 -7.66872 -0.971405 0
M  V30 26032 C 4579.18 -7.42309 -2.04641 0
M  V30 26033 C 4579.91 -6.86059 -3.24661 0
M  V30 26034 O 4580.12 -5.42847 -3.03646 0
M  V30 26035 C 4581.31 -7.41196 -3.50753 0
M  V30 26036 O 4581.7 -7.27073 -4.86816 0
M  V30 26037 C 4582.19 -6.5273 -2.63741 0
M  V30 26038 C 4581.48 -5.1842 -2.73198 0
M  V30 26039 N 4581.53 -4.38762 -1.4784 0
M  V30 26040 H 4578.69 -8.36803 -2.32493 0
M  V30 26041 H 4578.42 -6.70197 -1.71129 0
M  V30 26042 H 4579.29 -7.03551 -4.13168 0
M  V30 26043 P 4583.25 -7.20834 -5.23717 0
M  V30 26044 O 4583.47 -7.80006 -6.57415 0
M  V30 26045 O 4584.04 -7.79416 -4.13051 0
M  V30 26046 O 4583.5 -5.63315 -5.29344 0
M  V30 26047 C 4582.56 -4.80318 -6.01954 0
M  V30 26048 C 4583.29 -3.64202 -6.65911 0
M  V30 26049 O 4583.5 -2.60736 -5.64823 0
M  V30 26050 C 4584.69 -3.93521 -7.19518 0
M  V30 26051 O 4585.08 -3.02071 -8.21205 0
M  V30 26052 C 4585.57 -3.73047 -5.97036 0
M  V30 26053 C 4584.86 -2.58828 -5.25741 0
M  V30 26054 N 4584.91 -2.68068 -3.77503 0
M  V30 26055 C 4584.83 -3.80474 -2.99159 0
M  V30 26056 N 4584.9 -3.55622 -1.71925 0
M  V30 26057 C 4585.05 -2.1832 -1.65733 0
M  V30 26058 C 4585.18 -1.28842 -0.572777 0
M  V30 26059 N 4585.19 -1.66875 0.70098 0
M  V30 26060 N 4585.3 0.016788 -0.859836 0
M  V30 26061 C 4585.29 0.398145 -2.13316 0
M  V30 26062 N 4585.17 -0.328224 -3.22333 0
M  V30 26063 C 4585.05 -1.62992 -2.90383 0
M  V30 26064 H 4582.07 -5.40394 -6.8003 0
M  V30 26065 H 4581.8 -4.41741 -5.32532 0
M  V30 26066 H 4582.67 -3.26371 -7.47889 0
M  V30 26067 H 4585.33 -1.64007 -5.56746 0
M  V30 26068 H 4585.61 -4.63439 -5.3432 0
M  V30 26069 H 4586.6 -3.44776 -6.25925 0
M  V30 26070 H 4584.76 -4.96707 -7.57347 0
M  V30 26071 H 4584.72 -4.8089 -3.39924 0
M  V30 26072 H 4585.1 -2.66547 0.941919 0
M  V30 26073 H 4585.29 -0.965341 1.44766 0
M  V30 26074 H 4585.4 1.46427 -2.29697 0
M  V30 26075 P 4586.63 -2.75334 -8.47391 0
M  V30 26076 O 4586.85 -2.44571 -9.90142 0
M  V30 26077 O 4587.42 -3.87688 -7.92115 0
M  V30 26078 O 4586.88 -1.4459 -7.59357 0
M  V30 26079 C 4585.94 -0.347608 -7.69215 0
M  V30 26080 C 4586.67 0.96767 -7.52806 0
M  V30 26081 O 4586.88 1.21036 -6.1011 0
M  V30 26082 C 4588.07 1.04544 -8.13308 0
M  V30 26083 O 4588.46 2.38311 -8.41922 0
M  V30 26084 C 4588.95 0.491279 -7.02284 0
M  V30 26085 C 4588.24 0.996264 -5.77469 0
M  V30 26086 N 4588.29 0.0501916 -4.62973 0
M  V30 26087 H 4585.45 -0.374722 -8.67691 0
M  V30 26088 H 4585.18 -0.443485 -6.90277 0
M  V30 26089 H 4586.05 1.75537 -7.96793 0
M  V30 26090 P 4590.01 2.75334 -8.47391 0
M  V30 26091 O 4590.23 3.84128 -9.44797 0
M  V30 26092 O 4590.8 1.51947 -8.68712 0
M  V30 26093 O 4590.26 3.29363 -6.99321 0
M  V30 26094 C 4589.32 4.24011 -6.4274 0
M  V30 26095 C 4590.05 5.20775 -5.52155 0
M  V30 26096 O 4590.26 4.56534 -4.22446 0
M  V30 26097 C 4591.45 5.62629 -5.96531 0
M  V30 26098 O 4591.84 6.87667 -5.41053 0
M  V30 26099 C 4592.33 4.52537 -5.39283 0
M  V30 26100 C 4591.62 4.20027 -4.08623 0
M  V30 26101 N 4591.67 2.76189 -3.71603 0
M  V30 26102 H 4588.83 4.797 -7.24003 0
M  V30 26103 H 4588.56 3.69856 -5.84513 0
M  V30 26104 H 4589.43 6.10356 -5.41441 0
M  V30 26105 P 4593.39 7.20834 -5.23717 0
M  V30 26106 O 4593.61 8.66104 -5.38572 0
M  V30 26107 O 4594.18 6.33544 -6.1349 0
M  V30 26108 O 4593.64 6.7751 -3.72168 0
M  V30 26109 C 4592.7 7.20825 -2.7076 0
M  V30 26110 C 4593.43 7.45864 -1.40599 0
M  V30 26111 O 4593.64 6.17651 -0.734225 0
M  V30 26112 C 4594.83 8.05808 -1.51899 0
M  V30 26113 O 4595.22 8.74358 -0.335205 0
M  V30 26114 C 4595.71 6.83093 -1.70294 0
M  V30 26115 C 4595 5.79992 -0.836974 0
M  V30 26116 N 4595.05 4.41864 -1.38293 0
M  V30 26117 H 4592.21 8.13644 -3.0377 0
M  V30 26118 H 4591.94 6.42788 -2.55485 0
M  V30 26119 H 4592.81 8.12039 -0.792769 0
M  V30 26120 P 4596.77 8.91 -2.00354e-10 0
M  V30 26121 O 4596.99 10.1746 0.733838 0
M  V30 26122 O 4597.56 8.73346 -1.23964 0
M  V30 26123 O 4597.02 7.66872 0.971405 0
M  V30 26124 C 4596.08 7.42405 2.04668 0
M  V30 26125 C 4596.81 6.86059 3.24661 0
M  V30 26126 O 4597.02 5.42934 3.03695 0
M  V30 26127 C 4598.21 7.41287 3.50796 0
M  V30 26128 O 4598.6 7.27073 4.86816 0
M  V30 26129 C 4599.09 6.5273 2.63741 0
M  V30 26130 C 4598.38 5.1842 2.73198 0
M  V30 26131 N 4598.43 4.38762 1.4784 0
M  V30 26132 H 4595.59 8.36899 2.3252 0
M  V30 26133 H 4595.32 6.70391 1.71179 0
M  V30 26134 H 4596.19 7.03638 4.13219 0
M  V30 26135 H 4598.85 4.59931 3.54016 0
M  V30 26136 H 4599.13 6.88995 1.59871 0
M  V30 26137 H 4600.12 6.4684 3.0373 0
M  V30 26138 H 4598.28 8.47002 3.20749 0
M  V30 26139 P 4600.15 7.20834 5.23717 0
M  V30 26140 O 4600.37 7.80006 6.57415 0
M  V30 26141 O 4600.94 7.79416 4.13051 0
M  V30 26142 O 4600.4 5.63315 5.29344 0
M  V30 26143 C 4599.46 4.80318 6.01954 0
M  V30 26144 C 4600.19 3.64202 6.65911 0
M  V30 26145 O 4600.4 2.60736 5.64823 0
M  V30 26146 C 4601.59 3.93521 7.19518 0
M  V30 26147 O 4601.98 3.02071 8.21205 0
M  V30 26148 C 4602.47 3.73047 5.97036 0
M  V30 26149 C 4601.76 2.58828 5.25741 0
M  V30 26150 N 4601.81 2.68068 3.77503 0
M  V30 26151 C 4601.73 3.80474 2.99159 0
M  V30 26152 N 4601.8 3.55622 1.71925 0
M  V30 26153 C 4601.95 2.1832 1.65733 0
M  V30 26154 C 4602.08 1.28842 0.572777 0
M  V30 26155 N 4602.09 1.66875 -0.70098 0
M  V30 26156 N 4602.2 -0.016788 0.859836 0
M  V30 26157 C 4602.19 -0.398145 2.13316 0
M  V30 26158 N 4602.07 0.328224 3.22333 0
M  V30 26159 C 4601.95 1.62992 2.90383 0
M  V30 26160 H 4598.97 5.40394 6.8003 0
M  V30 26161 H 4598.7 4.41741 5.32532 0
M  V30 26162 H 4599.57 3.26371 7.47889 0
M  V30 26163 H 4602.23 1.64007 5.56746 0
M  V30 26164 H 4602.51 4.63439 5.3432 0
M  V30 26165 H 4603.5 3.44776 6.25925 0
M  V30 26166 H 4601.66 4.96707 7.57347 0
M  V30 26167 H 4601.62 4.8089 3.39924 0
M  V30 26168 H 4602 2.66547 -0.941919 0
M  V30 26169 H 4602.19 0.965341 -1.44766 0
M  V30 26170 H 4602.3 -1.46427 2.29697 0
M  V30 26171 P 4603.53 2.75334 8.47391 0
M  V30 26172 O 4603.75 2.44619 9.90336 0
M  V30 26173 O 4604.32 3.87776 7.92294 0
M  V30 26174 O 4603.78 1.4459 7.59357 0
M  V30 26175 C 4602.84 0.347653 7.69315 0
M  V30 26176 C 4603.57 -0.96767 7.52806 0
M  V30 26177 O 4603.78 -1.21055 6.10208 0
M  V30 26178 C 4604.97 -1.04557 8.13408 0
M  V30 26179 O 4605.36 -2.38311 8.41922 0
M  V30 26180 C 4605.85 -0.491279 7.02284 0
M  V30 26181 C 4605.14 -0.996264 5.77469 0
M  V30 26182 N 4605.19 -0.0501916 4.62973 0
M  V30 26183 H 4602.35 0.374765 8.67791 0
M  V30 26184 H 4602.08 0.443613 6.90476 0
M  V30 26185 H 4602.95 -1.75559 7.96891 0
M  V30 26186 H 4605.61 -1.94563 5.46818 0
M  V30 26187 H 4605.89 0.608651 7.04676 0
M  V30 26188 H 4606.88 -0.889796 7.09039 0
M  V30 26189 H 4605.04 -0.433128 9.04664 0
M  V30 26190 P 4606.91 -2.75334 8.47391 0
M  V30 26191 O 4607.13 -3.84128 9.44797 0
M  V30 26192 O 4607.7 -1.51947 8.68712 0
M  V30 26193 O 4607.16 -3.29363 6.99321 0
M  V30 26194 C 4606.22 -4.24011 6.4274 0
M  V30 26195 C 4606.95 -5.20775 5.52155 0
M  V30 26196 O 4607.16 -4.56534 4.22446 0
M  V30 26197 C 4608.35 -5.62629 5.96531 0
M  V30 26198 O 4608.74 -6.87667 5.41053 0
M  V30 26199 C 4609.23 -4.52537 5.39283 0
M  V30 26200 C 4608.52 -4.20027 4.08623 0
M  V30 26201 N 4608.57 -2.76189 3.71603 0
M  V30 26202 H 4605.73 -4.797 7.24003 0
M  V30 26203 H 4605.46 -3.69856 5.84513 0
M  V30 26204 H 4606.33 -6.10356 5.41441 0
M  V30 26205 P 4610.29 -7.20834 5.23717 0
M  V30 26206 O 4610.51 -8.66104 5.38572 0
M  V30 26207 O 4611.08 -6.33544 6.1349 0
M  V30 26208 O 4610.54 -6.7751 3.72168 0
M  V30 26209 C 4609.6 -7.20825 2.7076 0
M  V30 26210 C 4610.33 -7.45864 1.40599 0
M  V30 26211 O 4610.54 -6.17651 0.734225 0
M  V30 26212 C 4611.73 -8.05808 1.51899 0
M  V30 26213 O 4612.12 -8.74358 0.335205 0
M  V30 26214 C 4612.61 -6.83093 1.70294 0
M  V30 26215 C 4611.9 -5.79992 0.836974 0
M  V30 26216 N 4611.95 -4.41864 1.38293 0
M  V30 26217 H 4609.11 -8.13644 3.0377 0
M  V30 26218 H 4608.84 -6.42788 2.55485 0
M  V30 26219 H 4609.71 -8.12039 0.792769 0
M  V30 26220 P 4613.67 -8.91 2.01463e-10 0
M  V30 26221 O 4613.89 -10.1726 -0.733694 0
M  V30 26222 O 4614.46 -8.73148 1.23936 0
M  V30 26223 O 4613.92 -7.66872 -0.971405 0
M  V30 26224 C 4612.98 -7.42309 -2.04641 0
M  V30 26225 C 4613.71 -6.86059 -3.24661 0
M  V30 26226 O 4613.92 -5.42847 -3.03646 0
M  V30 26227 C 4615.11 -7.41196 -3.50753 0
M  V30 26228 O 4615.5 -7.27073 -4.86816 0
M  V30 26229 C 4615.99 -6.5273 -2.63741 0
M  V30 26230 C 4615.28 -5.1842 -2.73198 0
M  V30 26231 N 4615.33 -4.38762 -1.4784 0
M  V30 26232 H 4612.49 -8.36803 -2.32493 0
M  V30 26233 H 4612.22 -6.70197 -1.71129 0
M  V30 26234 H 4613.09 -7.03551 -4.13168 0
M  V30 26235 P 4617.05 -7.20834 -5.23717 0
M  V30 26236 O 4617.27 -7.79853 -6.57286 0
M  V30 26237 O 4617.84 -7.79239 -4.12957 0
M  V30 26238 O 4617.3 -5.63315 -5.29344 0
M  V30 26239 C 4616.36 -4.80255 -6.01876 0
M  V30 26240 C 4617.09 -3.64202 -6.65911 0
M  V30 26241 O 4617.3 -2.60694 -5.64732 0
M  V30 26242 C 4618.49 -3.93473 -7.1943 0
M  V30 26243 O 4618.88 -3.02071 -8.21205 0
M  V30 26244 C 4619.37 -3.73047 -5.97036 0
M  V30 26245 C 4618.66 -2.58828 -5.25741 0
M  V30 26246 N 4618.71 -2.68068 -3.77503 0
M  V30 26247 C 4618.63 -3.79715 -2.96723 0
M  V30 26248 N 4618.71 -3.5377 -1.68852 0
M  V30 26249 C 4618.85 -2.15054 -1.63254 0
M  V30 26250 C 4618.98 -1.28964 -0.518571 0
M  V30 26251 O 4619 -1.56826 0.679156 0
M  V30 26252 N 4619.1 0.0538097 -0.918425 0
M  V30 26253 C 4619.1 0.494275 -2.22578 0
M  V30 26254 N 4619.23 1.81086 -2.40434 0
M  V30 26255 N 4618.97 -0.313645 -3.27502 0
M  V30 26256 C 4618.85 -1.61829 -2.91033 0
M  V30 26257 H 4615.87 -5.40332 -6.79951 0
M  V30 26258 H 4615.6 -4.41613 -5.32378 0
M  V30 26259 H 4616.47 -3.26331 -7.47797 0
M  V30 26260 H 4619.13 -1.63422 -5.56814 0
M  V30 26261 H 4619.4 -4.63374 -5.34244 0
M  V30 26262 H 4620.4 -3.44728 -6.25838 0
M  V30 26263 H 4618.56 -4.96652 -7.57263 0
M  V30 26264 H 4618.51 -4.80617 -3.3614 0
M  V30 26265 H 4619.2 0.742702 -0.199384 0
M  V30 26266 H 4619.23 2.20598 -3.35588 0
M  V30 26267 H 4619.33 2.43518 -1.58945 0
M  V30 26268 P 4620.43 -2.75334 -8.47391 0
M  V30 26269 O 4620.65 -2.44595 -9.90239 0
M  V30 26270 O 4621.22 -3.87732 -7.92204 0
M  V30 26271 O 4620.68 -1.4459 -7.59357 0
M  V30 26272 C 4619.74 -0.347608 -7.69215 0
M  V30 26273 C 4620.47 0.96767 -7.52806 0
M  V30 26274 O 4620.68 1.21036 -6.1011 0
M  V30 26275 C 4621.87 1.04544 -8.13308 0
M  V30 26276 O 4622.26 2.38311 -8.41922 0
M  V30 26277 C 4622.75 0.491279 -7.02284 0
M  V30 26278 C 4622.04 0.996264 -5.77469 0
M  V30 26279 N 4622.09 0.0501808 -4.62873 0
M  V30 26280 C 4622.24 0.578037 -3.3505 0
M  V30 26281 O 4622.33 1.8073 -3.21711 0
M  V30 26282 N 4622.29 -0.468541 -2.263 0
M  V30 26283 C 4622.19 -1.59186 -2.47176 0
M  V30 26284 N 4622.24 -2.37626 -1.40392 0
M  V30 26285 C 4622.04 -2.16203 -3.77467 0
M  V30 26286 C 4621.99 -1.29324 -4.8195 0
M  V30 26287 H 4619.25 -0.374679 -8.67591 0
M  V30 26288 H 4618.98 -0.443421 -6.90177 0
M  V30 26289 H 4619.85 1.75559 -7.96891 0
M  V30 26290 H 4622.51 1.94529 -5.46723 0
M  V30 26291 H 4622.78 -0.608651 -7.04676 0
M  V30 26292 H 4623.78 0.889672 -7.08939 0
M  V30 26293 H 4621.94 0.43308 -9.04564 0
M  V30 26294 H 4621.87 -1.67758 -5.83046 0
M  V30 26295 H 4621.97 -3.23869 -3.92281 0
M  V30 26296 H 4622.36 -1.96317 -0.467202 0
M  V30 26297 H 4622.16 -3.39693 -1.51142 0
M  V30 26298 P 4623.81 2.75334 -8.47391 0
M  V30 26299 O 4624.03 3.84128 -9.44797 0
M  V30 26300 O 4624.6 1.51947 -8.68712 0
M  V30 26301 O 4624.06 3.29363 -6.99321 0
M  V30 26302 C 4623.12 4.24011 -6.4274 0
M  V30 26303 C 4623.85 5.20775 -5.52155 0
M  V30 26304 O 4624.06 4.56534 -4.22446 0
M  V30 26305 C 4625.25 5.62629 -5.96531 0
M  V30 26306 O 4625.64 6.87667 -5.41053 0
M  V30 26307 C 4626.13 4.52537 -5.39283 0
M  V30 26308 C 4625.42 4.20027 -4.08623 0
M  V30 26309 N 4625.47 2.76189 -3.71603 0
M  V30 26310 H 4622.63 4.797 -7.24003 0
M  V30 26311 H 4622.36 3.69856 -5.84513 0
M  V30 26312 H 4623.23 6.10356 -5.41441 0
M  V30 26313 P 4627.19 7.20834 -5.23717 0
M  V30 26314 O 4627.41 8.66189 -5.38625 0
M  V30 26315 O 4627.98 6.33615 -6.1356 0
M  V30 26316 O 4627.44 6.7751 -3.72168 0
M  V30 26317 C 4626.5 7.20825 -2.7076 0
M  V30 26318 C 4627.23 7.45864 -1.40599 0
M  V30 26319 O 4627.44 6.17651 -0.734225 0
M  V30 26320 C 4628.63 8.05808 -1.51899 0
M  V30 26321 O 4629.02 8.74358 -0.335205 0
M  V30 26322 C 4629.51 6.83093 -1.70294 0
M  V30 26323 C 4628.8 5.79992 -0.836974 0
M  V30 26324 N 4628.85 4.41769 -1.38263 0
M  V30 26325 C 4629 3.36514 -0.485617 0
M  V30 26326 O 4629.09 3.61814 0.724703 0
M  V30 26327 N 4629.05 2.00746 -1.14492 0
M  V30 26328 C 4628.95 1.85887 -2.27776 0
M  V30 26329 N 4629 0.600907 -2.69379 0
M  V30 26330 C 4628.8 2.92182 -3.22265 0
M  V30 26331 C 4628.75 4.18399 -2.71925 0
M  V30 26332 H 4626.01 8.1355 -3.03735 0
M  V30 26333 H 4625.74 6.42695 -2.55448 0
M  V30 26334 H 4626.61 8.12139 -0.792866 0
M  V30 26335 H 4629.27 5.80078 0.160615 0
M  V30 26336 H 4629.54 6.51379 -2.75643 0
M  V30 26337 H 4630.54 7.01734 -1.34462 0
M  V30 26338 H 4628.7 8.73674 -2.38337 0
M  V30 26339 H 4628.63 5.02669 -3.39718 0
M  V30 26340 H 4628.73 2.73001 -4.29239 0
M  V30 26341 H 4629.12 -0.162318 -2.01146 0
M  V30 26342 H 4628.92 0.387742 -3.69773 0
M  V30 26343 P 4630.57 8.91 -2.02572e-10 0
M  V30 26344 O 4630.79 10.1746 0.733838 0
M  V30 26345 O 4631.36 8.73346 -1.23964 0
M  V30 26346 O 4630.82 7.66872 0.971405 0
M  V30 26347 C 4629.88 7.42405 2.04668 0
M  V30 26348 C 4630.61 6.86059 3.24661 0
M  V30 26349 O 4630.82 5.42934 3.03695 0
M  V30 26350 C 4632.01 7.41287 3.50796 0
M  V30 26351 O 4632.4 7.27073 4.86816 0
M  V30 26352 C 4632.89 6.5273 2.63741 0
M  V30 26353 C 4632.18 5.1842 2.73198 0
M  V30 26354 N 4632.23 4.38762 1.4784 0
M  V30 26355 H 4629.39 8.36899 2.3252 0
M  V30 26356 H 4629.12 6.70391 1.71179 0
M  V30 26357 H 4629.99 7.03638 4.13219 0
M  V30 26358 H 4632.65 4.59931 3.54016 0
M  V30 26359 H 4632.93 6.88995 1.59871 0
M  V30 26360 H 4633.92 6.4684 3.0373 0
M  V30 26361 H 4632.08 8.47002 3.20749 0
M  V30 26362 P 4633.95 7.20834 5.23717 0
M  V30 26363 O 4634.17 7.79853 6.57286 0
M  V30 26364 O 4634.74 7.79239 4.12957 0
M  V30 26365 O 4634.2 5.63315 5.29344 0
M  V30 26366 C 4633.26 4.80255 6.01876 0
M  V30 26367 C 4633.99 3.64202 6.65911 0
M  V30 26368 O 4634.2 2.60694 5.64732 0
M  V30 26369 C 4635.39 3.93473 7.1943 0
M  V30 26370 O 4635.78 3.02071 8.21205 0
M  V30 26371 C 4636.27 3.73047 5.97036 0
M  V30 26372 C 4635.56 2.58828 5.25741 0
M  V30 26373 N 4635.61 2.68068 3.77503 0
M  V30 26374 C 4635.53 3.79715 2.96723 0
M  V30 26375 N 4635.61 3.5377 1.68852 0
M  V30 26376 C 4635.75 2.15054 1.63254 0
M  V30 26377 C 4635.88 1.28964 0.518571 0
M  V30 26378 N 4636 -0.0538097 0.918425 0
M  V30 26379 C 4636 -0.494275 2.22578 0
M  V30 26380 N 4636.13 -1.81086 2.40434 0
M  V30 26381 N 4635.87 0.313645 3.27502 0
M  V30 26382 C 4635.75 1.61829 2.91033 0
M  V30 26383 H 4632.77 5.40332 6.79951 0
M  V30 26384 H 4632.5 4.41613 5.32378 0
M  V30 26385 H 4633.37 3.26331 7.47797 0
M  V30 26386 P 4637.33 2.75334 8.47391 0
M  V30 26387 O 4637.55 2.44571 9.90142 0
M  V30 26388 O 4638.12 3.87688 7.92115 0
M  V30 26389 O 4637.58 1.4459 7.59357 0
M  V30 26390 C 4636.64 0.347608 7.69215 0
M  V30 26391 C 4637.37 -0.96767 7.52806 0
M  V30 26392 O 4637.58 -1.21036 6.1011 0
M  V30 26393 C 4638.77 -1.04544 8.13308 0
M  V30 26394 O 4639.16 -2.38311 8.41922 0
M  V30 26395 C 4639.65 -0.491279 7.02284 0
M  V30 26396 C 4638.94 -0.996264 5.77469 0
M  V30 26397 N 4638.99 -0.0501916 4.62973 0
M  V30 26398 H 4636.15 0.374722 8.67691 0
M  V30 26399 H 4635.88 0.443485 6.90277 0
M  V30 26400 H 4636.75 -1.75537 7.96793 0
M  V30 26401 P 4640.71 -2.75334 8.47391 0
M  V30 26402 O 4640.93 -3.84128 9.44797 0
M  V30 26403 O 4641.5 -1.51947 8.68712 0
M  V30 26404 O 4640.96 -3.29363 6.99321 0
M  V30 26405 C 4640.02 -4.24011 6.4274 0
M  V30 26406 C 4640.75 -5.20775 5.52155 0
M  V30 26407 O 4640.96 -4.56534 4.22446 0
M  V30 26408 C 4642.15 -5.62629 5.96531 0
M  V30 26409 O 4642.54 -6.87667 5.41053 0
M  V30 26410 C 4643.03 -4.52537 5.39283 0
M  V30 26411 C 4642.32 -4.20027 4.08623 0
M  V30 26412 N 4642.37 -2.76189 3.71603 0
M  V30 26413 H 4639.53 -4.797 7.24003 0
M  V30 26414 H 4639.26 -3.69856 5.84513 0
M  V30 26415 H 4640.13 -6.10356 5.41441 0
M  V30 26416 P 4644.09 -7.20834 5.23717 0
M  V30 26417 O 4644.31 -8.66189 5.38625 0
M  V30 26418 O 4644.88 -6.33615 6.1356 0
M  V30 26419 O 4644.34 -6.7751 3.72168 0
M  V30 26420 C 4643.4 -7.20732 2.70725 0
M  V30 26421 C 4644.13 -7.45864 1.40599 0
M  V30 26422 O 4644.34 -6.17651 0.734225 0
M  V30 26423 C 4645.53 -8.05808 1.51899 0
M  V30 26424 O 4645.92 -8.74358 0.335205 0
M  V30 26425 C 4646.41 -6.83093 1.70294 0
M  V30 26426 C 4645.7 -5.79992 0.836974 0
M  V30 26427 N 4645.75 -4.41769 1.38263 0
M  V30 26428 C 4645.9 -3.38591 0.481702 0
M  V30 26429 O 4645.99 -3.56839 -0.718452 0
M  V30 26430 N 4645.94 -2.1206 1.03569 0
M  V30 26431 C 4645.85 -1.80696 2.36966 0
M  V30 26432 O 4645.9 -0.630473 2.74862 0
M  V30 26433 C 4645.7 -2.94845 3.23898 0
M  V30 26434 C 4645.59 -2.65253 4.70362 0
M  V30 26435 C 4645.65 -4.19803 2.73435 0
M  V30 26436 H 4642.91 -8.13644 3.0377 0
M  V30 26437 H 4642.64 -6.42695 2.55448 0
M  V30 26438 H 4643.51 -8.12039 0.792769 0
M  V30 26439 H 4646.17 -5.79978 -0.160587 0
M  V30 26440 H 4646.44 -6.51379 2.75643 0
M  V30 26441 H 4647.44 -7.01734 1.34462 0
M  V30 26442 H 4645.6 -8.73674 2.38337 0
M  V30 26443 H 4645.53 -5.04492 3.4095 0
M  V30 26444 H 4646.56 -2.83924 5.1913 0
M  V30 26445 H 4644.82 -3.29824 5.15163 0
M  V30 26446 H 4645.31 -1.59723 4.84449 0
M  V30 26447 H 4646.05 -1.35644 0.399345 0
M  V30 26448 P 4647.47 -8.91 2.03681e-10 0
M  V30 26449 O 4647.69 -10.1726 -0.733694 0
M  V30 26450 O 4648.26 -8.73148 1.23936 0
M  V30 26451 O 4647.72 -7.66872 -0.971405 0
M  V30 26452 C 4646.78 -7.42309 -2.04641 0
M  V30 26453 C 4647.51 -6.86059 -3.24661 0
M  V30 26454 O 4647.72 -5.42847 -3.03646 0
M  V30 26455 C 4648.91 -7.41196 -3.50753 0
M  V30 26456 O 4649.3 -7.27073 -4.86816 0
M  V30 26457 C 4649.79 -6.5273 -2.63741 0
M  V30 26458 C 4649.08 -5.1842 -2.73198 0
M  V30 26459 N 4649.13 -4.38762 -1.4784 0
M  V30 26460 H 4646.29 -8.36803 -2.32493 0
M  V30 26461 H 4646.02 -6.70197 -1.71129 0
M  V30 26462 H 4646.89 -7.03551 -4.13168 0
M  V30 26463 P 4650.85 -7.20834 -5.23717 0
M  V30 26464 O 4651.07 -7.79853 -6.57286 0
M  V30 26465 O 4651.64 -7.79239 -4.12957 0
M  V30 26466 O 4651.1 -5.63315 -5.29344 0
M  V30 26467 C 4650.16 -4.80255 -6.01876 0
M  V30 26468 C 4650.89 -3.64202 -6.65911 0
M  V30 26469 O 4651.1 -2.60694 -5.64732 0
M  V30 26470 C 4652.29 -3.93473 -7.1943 0
M  V30 26471 O 4652.68 -3.02071 -8.21205 0
M  V30 26472 C 4653.17 -3.73047 -5.97036 0
M  V30 26473 C 4652.46 -2.58828 -5.25741 0
M  V30 26474 N 4652.51 -2.68068 -3.77503 0
M  V30 26475 H 4649.67 -5.40332 -6.79951 0
M  V30 26476 H 4649.4 -4.41613 -5.32378 0
M  V30 26477 H 4650.27 -3.26331 -7.47797 0
M  V30 26478 P 4654.23 -2.75334 -8.47391 0
M  V30 26479 O 4654.45 -2.44619 -9.90336 0
M  V30 26480 O 4655.02 -3.87776 -7.92294 0
M  V30 26481 O 4654.48 -1.4459 -7.59357 0
M  V30 26482 C 4653.54 -0.347653 -7.69315 0
M  V30 26483 C 4654.27 0.96767 -7.52806 0
M  V30 26484 O 4654.48 1.21055 -6.10208 0
M  V30 26485 C 4655.67 1.04557 -8.13408 0
M  V30 26486 O 4656.06 2.38311 -8.41922 0
M  V30 26487 C 4656.55 0.491279 -7.02284 0
M  V30 26488 C 4655.84 0.996264 -5.77469 0
M  V30 26489 N 4655.89 0.0501916 -4.62973 0
M  V30 26490 C 4655.81 -1.31969 -4.65661 0
M  V30 26491 N 4655.88 -1.86649 -3.48119 0
M  V30 26492 C 4656.03 -0.792089 -2.62406 0
M  V30 26493 C 4656.16 -0.705684 -1.2207 0
M  V30 26494 N 4656.17 -1.76207 -0.413762 0
M  V30 26495 N 4656.28 0.518981 -0.685754 0
M  V30 26496 C 4656.27 1.57595 -1.49174 0
M  V30 26497 N 4656.15 1.62909 -2.80066 0
M  V30 26498 C 4656.03 0.388195 -3.3073 0
M  V30 26499 H 4653.05 -0.374765 -8.67791 0
M  V30 26500 H 4652.78 -0.443613 -6.90476 0
M  V30 26501 H 4653.65 1.75559 -7.96891 0
M  V30 26502 H 4656.31 1.94563 -5.46818 0
M  V30 26503 H 4656.59 -0.608651 -7.04676 0
M  V30 26504 H 4657.58 0.889796 -7.09039 0
M  V30 26505 H 4655.74 0.433128 -9.04664 0
M  V30 26506 H 4655.7 -1.89246 -5.57664 0
M  V30 26507 H 4656.08 -2.71005 -0.804694 0
M  V30 26508 H 4656.27 -1.63189 0.603768 0
M  V30 26509 H 4656.38 2.53475 -0.997614 0
M  V30 26510 P 4657.61 2.75334 -8.47391 0
M  V30 26511 O 4657.83 3.84204 -9.44982 0
M  V30 26512 O 4658.4 1.51982 -8.68909 0
M  V30 26513 O 4657.86 3.29363 -6.99321 0
M  V30 26514 C 4656.92 4.24066 -6.42823 0
M  V30 26515 C 4657.65 5.20775 -5.52155 0
M  V30 26516 O 4657.86 4.56607 -4.22514 0
M  V30 26517 C 4659.05 5.62697 -5.96604 0
M  V30 26518 O 4659.44 6.87667 -5.41053 0
M  V30 26519 C 4659.93 4.52537 -5.39283 0
M  V30 26520 C 4659.22 4.20027 -4.08623 0
M  V30 26521 N 4659.27 2.76189 -3.71603 0
M  V30 26522 H 4656.43 4.79756 -7.24086 0
M  V30 26523 H 4656.16 3.69963 -5.84682 0
M  V30 26524 H 4657.03 6.10431 -5.41508 0
M  V30 26525 H 4659.69 4.78816 -3.28024 0
M  V30 26526 H 4659.97 3.64957 -6.05871 0
M  V30 26527 H 4660.96 4.88748 -5.21323 0
M  V30 26528 H 4659.12 5.66789 -7.0643 0
M  V30 26529 P 4660.99 7.20834 -5.23717 0
M  V30 26530 O 4661.21 8.66104 -5.38572 0
M  V30 26531 O 4661.78 6.33544 -6.1349 0
M  V30 26532 O 4661.24 6.7751 -3.72168 0
M  V30 26533 C 4660.3 7.20825 -2.7076 0
M  V30 26534 C 4661.03 7.45864 -1.40599 0
M  V30 26535 O 4661.24 6.17651 -0.734225 0
M  V30 26536 C 4662.43 8.05808 -1.51899 0
M  V30 26537 O 4662.82 8.74358 -0.335205 0
M  V30 26538 C 4663.31 6.83093 -1.70294 0
M  V30 26539 C 4662.6 5.79992 -0.836974 0
M  V30 26540 N 4662.65 4.41864 -1.38293 0
M  V30 26541 H 4659.81 8.13644 -3.0377 0
M  V30 26542 H 4659.54 6.42788 -2.55485 0
M  V30 26543 H 4660.41 8.12039 -0.792769 0
M  V30 26544 P 4664.37 8.91 -2.0479e-10 0
M  V30 26545 O 4664.59 10.1746 0.733838 0
M  V30 26546 O 4665.16 8.73346 -1.23964 0
M  V30 26547 O 4664.62 7.66872 0.971405 0
M  V30 26548 C 4663.68 7.42405 2.04668 0
M  V30 26549 C 4664.41 6.86059 3.24661 0
M  V30 26550 O 4664.62 5.42934 3.03695 0
M  V30 26551 C 4665.81 7.41287 3.50796 0
M  V30 26552 O 4666.2 7.27073 4.86816 0
M  V30 26553 C 4666.69 6.5273 2.63741 0
M  V30 26554 C 4665.98 5.1842 2.73198 0
M  V30 26555 N 4666.03 4.38762 1.4784 0
M  V30 26556 C 4665.95 4.83651 0.183876 0
M  V30 26557 N 4666.02 3.88759 -0.699393 0
M  V30 26558 C 4666.17 2.7404 0.0575568 0
M  V30 26559 C 4666.3 1.37902 -0.293928 0
M  V30 26560 N 4666.31 0.938021 -1.54797 0
M  V30 26561 N 4666.42 0.491817 0.70549 0
M  V30 26562 C 4666.41 0.931735 1.95979 0
M  V30 26563 N 4666.29 2.16017 2.41481 0
M  V30 26564 C 4666.17 3.02547 1.39121 0
M  V30 26565 H 4663.19 8.36899 2.3252 0
M  V30 26566 H 4662.92 6.70391 1.71179 0
M  V30 26567 H 4663.79 7.03638 4.13219 0
M  V30 26568 H 4666.45 4.59931 3.54016 0
M  V30 26569 H 4666.73 6.88995 1.59871 0
M  V30 26570 H 4667.72 6.4684 3.0373 0
M  V30 26571 H 4665.88 8.47002 3.20749 0
M  V30 26572 H 4665.84 5.8885 -0.0765548 0
M  V30 26573 H 4666.22 1.60276 -2.32875 0
M  V30 26574 H 4666.41 -0.0699355 -1.73859 0
M  V30 26575 H 4666.52 0.165507 2.71897 0
M  V30 26576 P 4667.75 7.20834 5.23717 0
M  V30 26577 O 4667.97 7.79853 6.57286 0
M  V30 26578 O 4668.54 7.79239 4.12957 0
M  V30 26579 O 4668 5.63315 5.29344 0
M  V30 26580 C 4667.06 4.80255 6.01876 0
M  V30 26581 C 4667.79 3.64202 6.65911 0
M  V30 26582 O 4668 2.60694 5.64732 0
M  V30 26583 C 4669.19 3.93473 7.1943 0
M  V30 26584 O 4669.58 3.02071 8.21205 0
M  V30 26585 C 4670.07 3.73047 5.97036 0
M  V30 26586 C 4669.36 2.58828 5.25741 0
M  V30 26587 N 4669.41 2.68068 3.77503 0
M  V30 26588 C 4669.33 3.79715 2.96723 0
M  V30 26589 N 4669.41 3.5377 1.68852 0
M  V30 26590 C 4669.55 2.15054 1.63254 0
M  V30 26591 C 4669.68 1.28964 0.518571 0
M  V30 26592 O 4669.7 1.56826 -0.679156 0
M  V30 26593 N 4669.8 -0.0538097 0.918425 0
M  V30 26594 C 4669.8 -0.494275 2.22578 0
M  V30 26595 N 4669.93 -1.81086 2.40434 0
M  V30 26596 N 4669.67 0.313645 3.27502 0
M  V30 26597 C 4669.55 1.61829 2.91033 0
M  V30 26598 H 4666.57 5.40332 6.79951 0
M  V30 26599 H 4666.3 4.41613 5.32378 0
M  V30 26600 H 4667.17 3.26331 7.47797 0
M  V30 26601 H 4669.83 1.63422 5.56814 0
M  V30 26602 H 4670.1 4.63374 5.34244 0
M  V30 26603 H 4671.1 3.44728 6.25838 0
M  V30 26604 H 4669.26 4.96652 7.57263 0
M  V30 26605 H 4669.21 4.80617 3.3614 0
M  V30 26606 H 4669.9 -0.742702 0.199384 0
M  V30 26607 H 4669.93 -2.20598 3.35588 0
M  V30 26608 H 4670.03 -2.43518 1.58945 0
M  V30 26609 P 4671.13 2.75334 8.47391 0
M  V30 26610 O 4671.35 2.44571 9.90142 0
M  V30 26611 O 4671.92 3.87688 7.92115 0
M  V30 26612 O 4671.38 1.4459 7.59357 0
M  V30 26613 C 4670.44 0.347608 7.69215 0
M  V30 26614 C 4671.17 -0.96767 7.52806 0
M  V30 26615 O 4671.38 -1.21036 6.1011 0
M  V30 26616 C 4672.57 -1.04544 8.13308 0
M  V30 26617 O 4672.96 -2.38311 8.41922 0
M  V30 26618 C 4673.45 -0.491279 7.02284 0
M  V30 26619 C 4672.74 -0.996264 5.77469 0
M  V30 26620 N 4672.79 -0.0501916 4.62973 0
M  V30 26621 H 4669.95 0.374722 8.67691 0
M  V30 26622 H 4669.68 0.443485 6.90277 0
M  V30 26623 H 4670.55 -1.75537 7.96793 0
M  V30 26624 P 4674.51 -2.75334 8.47391 0
M  V30 26625 O 4674.73 -3.84166 9.4489 0
M  V30 26626 O 4675.3 -1.51964 8.6881 0
M  V30 26627 O 4674.76 -3.29363 6.99321 0
M  V30 26628 C 4673.82 -4.23956 6.42656 0
M  V30 26629 C 4674.55 -5.20775 5.52155 0
M  V30 26630 O 4674.76 -4.56534 4.22446 0
M  V30 26631 C 4675.95 -5.62629 5.96531 0
M  V30 26632 O 4676.34 -6.87667 5.41053 0
M  V30 26633 C 4676.83 -4.52537 5.39283 0
M  V30 26634 C 4676.12 -4.20027 4.08623 0
M  V30 26635 N 4676.17 -2.7613 3.71522 0
M  V30 26636 C 4676.32 -2.45612 2.37989 0
M  V30 26637 O 4676.41 -3.30919 1.51621 0
M  V30 26638 N 4676.36 -1.10684 2.08435 0
M  V30 26639 C 4676.27 -0.0690084 2.9792 0
M  V30 26640 O 4676.32 1.10553 2.59426 0
M  V30 26641 C 4676.12 -0.481522 4.35345 0
M  V30 26642 C 4676.01 0.618778 5.36443 0
M  V30 26643 C 4676.07 -1.78906 4.67968 0
M  V30 26644 H 4673.33 -4.797 7.24003 0
M  V30 26645 H 4673.06 -3.69802 5.84429 0
M  V30 26646 H 4673.93 -6.10356 5.41441 0
M  V30 26647 H 4676.59 -4.78651 3.27911 0
M  V30 26648 H 4676.86 -3.64957 6.05871 0
M  V30 26649 H 4677.86 -4.8868 5.2125 0
M  V30 26650 H 4676.02 -5.66726 7.06352 0
M  V30 26651 H 4675.95 -2.07737 5.72367 0
M  V30 26652 H 4676.98 0.754375 5.86871 0
M  V30 26653 H 4675.24 0.359721 6.10641 0
M  V30 26654 H 4675.73 1.55533 4.8581 0
M  V30 26655 H 4676.47 -0.862651 1.12037 0
M  V30 26656 P 4677.89 -7.20834 5.23717 0
M  V30 26657 O 4678.11 -8.66104 5.38572 0
M  V30 26658 O 4678.68 -6.33544 6.1349 0
M  V30 26659 O 4678.14 -6.7751 3.72168 0
M  V30 26660 C 4677.2 -7.20825 2.7076 0
M  V30 26661 C 4677.93 -7.45864 1.40599 0
M  V30 26662 O 4678.14 -6.17651 0.734225 0
M  V30 26663 C 4679.33 -8.05808 1.51899 0
M  V30 26664 O 4679.72 -8.74358 0.335205 0
M  V30 26665 C 4680.21 -6.83093 1.70294 0
M  V30 26666 C 4679.5 -5.79992 0.836974 0
M  V30 26667 N 4679.55 -4.41864 1.38293 0
M  V30 26668 H 4676.71 -8.13644 3.0377 0
M  V30 26669 H 4676.44 -6.42788 2.55485 0
M  V30 26670 H 4677.31 -8.12039 0.792769 0
M  V30 26671 P 4681.27 -8.91 2.05899e-10 0
M  V30 26672 O 4681.49 -10.1726 -0.733694 0
M  V30 26673 O 4682.06 -8.73148 1.23936 0
M  V30 26674 O 4681.52 -7.66872 -0.971405 0
M  V30 26675 C 4680.58 -7.42309 -2.04641 0
M  V30 26676 C 4681.31 -6.86059 -3.24661 0
M  V30 26677 O 4681.52 -5.42847 -3.03646 0
M  V30 26678 C 4682.71 -7.41196 -3.50753 0
M  V30 26679 O 4683.1 -7.27073 -4.86816 0
M  V30 26680 C 4683.59 -6.5273 -2.63741 0
M  V30 26681 C 4682.88 -5.1842 -2.73198 0
M  V30 26682 N 4682.93 -4.38762 -1.4784 0
M  V30 26683 H 4680.09 -8.36803 -2.32493 0
M  V30 26684 H 4679.82 -6.70197 -1.71129 0
M  V30 26685 H 4680.69 -7.03551 -4.13168 0
M  V30 26686 P 4684.65 -7.20834 -5.23717 0
M  V30 26687 O 4684.87 -7.79853 -6.57286 0
M  V30 26688 O 4685.44 -7.79239 -4.12957 0
M  V30 26689 O 4684.9 -5.63315 -5.29344 0
M  V30 26690 C 4683.96 -4.80255 -6.01876 0
M  V30 26691 C 4684.69 -3.64202 -6.65911 0
M  V30 26692 O 4684.9 -2.60694 -5.64732 0
M  V30 26693 C 4686.09 -3.93473 -7.1943 0
M  V30 26694 O 4686.48 -3.02071 -8.21205 0
M  V30 26695 C 4686.97 -3.73047 -5.97036 0
M  V30 26696 C 4686.26 -2.58828 -5.25741 0
M  V30 26697 N 4686.31 -2.68068 -3.77503 0
M  V30 26698 H 4683.47 -5.40332 -6.79951 0
M  V30 26699 H 4683.2 -4.41613 -5.32378 0
M  V30 26700 H 4684.07 -3.26331 -7.47797 0
M  V30 26701 P 4688.03 -2.75334 -8.47391 0
M  V30 26702 O 4688.25 -2.44571 -9.90142 0
M  V30 26703 O 4688.82 -3.87688 -7.92115 0
M  V30 26704 O 4688.28 -1.4459 -7.59357 0
M  V30 26705 C 4687.34 -0.347608 -7.69215 0
M  V30 26706 C 4688.07 0.96767 -7.52806 0
M  V30 26707 O 4688.28 1.21036 -6.1011 0
M  V30 26708 C 4689.47 1.04544 -8.13308 0
M  V30 26709 O 4689.86 2.38311 -8.41922 0
M  V30 26710 C 4690.35 0.491279 -7.02284 0
M  V30 26711 C 4689.64 0.996264 -5.77469 0
M  V30 26712 N 4689.69 0.0501916 -4.62973 0
M  V30 26713 H 4686.85 -0.374722 -8.67691 0
M  V30 26714 H 4686.58 -0.443485 -6.90277 0
M  V30 26715 H 4687.45 1.75537 -7.96793 0
M  V30 26716 P 4691.41 2.75334 -8.47391 0
M  V30 26717 O 4691.63 3.84166 -9.4489 0
M  V30 26718 O 4692.2 1.51964 -8.6881 0
M  V30 26719 O 4691.66 3.29363 -6.99321 0
M  V30 26720 C 4690.72 4.23956 -6.42656 0
M  V30 26721 C 4691.45 5.20775 -5.52155 0
M  V30 26722 O 4691.66 4.56534 -4.22446 0
M  V30 26723 C 4692.85 5.62629 -5.96531 0
M  V30 26724 O 4693.24 6.87667 -5.41053 0
M  V30 26725 C 4693.73 4.52537 -5.39283 0
M  V30 26726 C 4693.02 4.20027 -4.08623 0
M  V30 26727 N 4693.07 2.7613 -3.71522 0
M  V30 26728 C 4693.22 2.45612 -2.37989 0
M  V30 26729 O 4693.31 3.30919 -1.51621 0
M  V30 26730 N 4693.26 1.10684 -2.08435 0
M  V30 26731 C 4693.17 0.0690084 -2.9792 0
M  V30 26732 O 4693.22 -1.10553 -2.59426 0
M  V30 26733 C 4693.02 0.481522 -4.35345 0
M  V30 26734 C 4692.91 -0.618778 -5.36443 0
M  V30 26735 C 4692.97 1.78906 -4.67968 0
M  V30 26736 H 4690.23 4.797 -7.24003 0
M  V30 26737 H 4689.96 3.69802 -5.84429 0
M  V30 26738 H 4690.83 6.10356 -5.41441 0
M  V30 26739 H 4693.49 4.78651 -3.27911 0
M  V30 26740 H 4693.76 3.64957 -6.05871 0
M  V30 26741 H 4694.76 4.8868 -5.2125 0
M  V30 26742 H 4692.92 5.66726 -7.06352 0
M  V30 26743 H 4692.85 2.07737 -5.72367 0
M  V30 26744 H 4693.88 -0.754375 -5.86871 0
M  V30 26745 H 4692.14 -0.359721 -6.10641 0
M  V30 26746 H 4692.63 -1.55533 -4.8581 0
M  V30 26747 H 4693.37 0.862651 -1.12037 0
M  V30 26748 P 4694.79 7.20834 -5.23717 0
M  V30 26749 O 4695.01 8.66104 -5.38572 0
M  V30 26750 O 4695.58 6.33544 -6.1349 0
M  V30 26751 O 4695.04 6.7751 -3.72168 0
M  V30 26752 C 4694.1 7.20825 -2.7076 0
M  V30 26753 C 4694.83 7.45864 -1.40599 0
M  V30 26754 O 4695.04 6.17651 -0.734225 0
M  V30 26755 C 4696.23 8.05808 -1.51899 0
M  V30 26756 O 4696.62 8.74358 -0.335205 0
M  V30 26757 C 4697.11 6.83093 -1.70294 0
M  V30 26758 C 4696.4 5.79992 -0.836974 0
M  V30 26759 N 4696.45 4.41864 -1.38293 0
M  V30 26760 H 4693.61 8.13644 -3.0377 0
M  V30 26761 H 4693.34 6.42788 -2.55485 0
M  V30 26762 H 4694.21 8.12039 -0.792769 0
M  V30 26763 P 4698.17 8.91 -2.07008e-10 0
M  V30 26764 O 4698.39 10.1726 0.733694 0
M  V30 26765 O 4698.96 8.73148 -1.23936 0
M  V30 26766 O 4698.42 7.66872 0.971405 0
M  V30 26767 C 4697.48 7.42309 2.04641 0
M  V30 26768 C 4698.21 6.86059 3.24661 0
M  V30 26769 O 4698.42 5.42847 3.03646 0
M  V30 26770 C 4699.61 7.41196 3.50753 0
M  V30 26771 O 4700 7.27073 4.86816 0
M  V30 26772 C 4700.49 6.5273 2.63741 0
M  V30 26773 C 4699.78 5.1842 2.73198 0
M  V30 26774 N 4699.83 4.38762 1.4784 0
M  V30 26775 H 4696.99 8.36803 2.32493 0
M  V30 26776 H 4696.72 6.70197 1.71129 0
M  V30 26777 H 4697.59 7.03551 4.13168 0
M  V30 26778 P 4701.55 7.20834 5.23717 0
M  V30 26779 O 4701.77 7.79853 6.57286 0
M  V30 26780 O 4702.34 7.79239 4.12957 0
M  V30 26781 O 4701.8 5.63315 5.29344 0
M  V30 26782 C 4700.86 4.80255 6.01876 0
M  V30 26783 C 4701.59 3.64202 6.65911 0
M  V30 26784 O 4701.8 2.60694 5.64732 0
M  V30 26785 C 4702.99 3.93473 7.1943 0
M  V30 26786 O 4703.38 3.02071 8.21205 0
M  V30 26787 C 4703.87 3.73047 5.97036 0
M  V30 26788 C 4703.16 2.58828 5.25741 0
M  V30 26789 N 4703.21 2.68068 3.77503 0
M  V30 26790 C 4703.13 3.79715 2.96723 0
M  V30 26791 N 4703.21 3.5377 1.68852 0
M  V30 26792 C 4703.35 2.15054 1.63254 0
M  V30 26793 C 4703.48 1.28964 0.518571 0
M  V30 26794 O 4703.5 1.56826 -0.679156 0
M  V30 26795 N 4703.6 -0.0538097 0.918425 0
M  V30 26796 C 4703.6 -0.494275 2.22578 0
M  V30 26797 N 4703.73 -1.81086 2.40434 0
M  V30 26798 N 4703.47 0.313645 3.27502 0
M  V30 26799 C 4703.35 1.61829 2.91033 0
M  V30 26800 H 4700.37 5.40332 6.79951 0
M  V30 26801 H 4700.1 4.41613 5.32378 0
M  V30 26802 H 4700.97 3.26331 7.47797 0
M  V30 26803 H 4703.63 1.63422 5.56814 0
M  V30 26804 H 4703.9 4.63374 5.34244 0
M  V30 26805 H 4704.9 3.44728 6.25838 0
M  V30 26806 H 4703.06 4.96652 7.57263 0
M  V30 26807 H 4703.01 4.80617 3.3614 0
M  V30 26808 H 4703.7 -0.742702 0.199384 0
M  V30 26809 H 4703.73 -2.20598 3.35588 0
M  V30 26810 H 4703.83 -2.43518 1.58945 0
M  V30 26811 P 4704.93 2.75334 8.47391 0
M  V30 26812 O 4705.15 2.44571 9.90142 0
M  V30 26813 O 4705.72 3.87688 7.92115 0
M  V30 26814 O 4705.18 1.4459 7.59357 0
M  V30 26815 C 4704.24 0.347608 7.69215 0
M  V30 26816 C 4704.97 -0.96767 7.52806 0
M  V30 26817 O 4705.18 -1.21036 6.1011 0
M  V30 26818 C 4706.37 -1.04544 8.13308 0
M  V30 26819 O 4706.76 -2.38311 8.41922 0
M  V30 26820 C 4707.25 -0.491279 7.02284 0
M  V30 26821 C 4706.54 -0.996264 5.77469 0
M  V30 26822 N 4706.59 -0.0501916 4.62973 0
M  V30 26823 H 4703.75 0.374722 8.67691 0
M  V30 26824 H 4703.48 0.443485 6.90277 0
M  V30 26825 H 4704.35 -1.75537 7.96793 0
M  V30 26826 P 4708.31 -2.75334 8.47391 0
M  V30 26827 O 4708.53 -3.84128 9.44797 0
M  V30 26828 O 4709.1 -1.51947 8.68712 0
M  V30 26829 O 4708.56 -3.29363 6.99321 0
M  V30 26830 C 4707.62 -4.24011 6.4274 0
M  V30 26831 C 4708.35 -5.20775 5.52155 0
M  V30 26832 O 4708.56 -4.56534 4.22446 0
M  V30 26833 C 4709.75 -5.62629 5.96531 0
M  V30 26834 O 4710.14 -6.87667 5.41053 0
M  V30 26835 C 4710.63 -4.52537 5.39283 0
M  V30 26836 C 4709.92 -4.20027 4.08623 0
M  V30 26837 N 4709.97 -2.76189 3.71603 0
M  V30 26838 H 4707.13 -4.797 7.24003 0
M  V30 26839 H 4706.86 -3.69856 5.84513 0
M  V30 26840 H 4707.73 -6.10356 5.41441 0
M  V30 26841 P 4711.69 -7.20834 5.23717 0
M  V30 26842 O 4711.91 -8.66104 5.38572 0
M  V30 26843 O 4712.48 -6.33544 6.1349 0
M  V30 26844 O 4711.94 -6.7751 3.72168 0
M  V30 26845 C 4711 -7.20825 2.7076 0
M  V30 26846 C 4711.73 -7.45864 1.40599 0
M  V30 26847 O 4711.94 -6.17651 0.734225 0
M  V30 26848 C 4713.13 -8.05808 1.51899 0
M  V30 26849 O 4713.52 -8.74358 0.335205 0
M  V30 26850 C 4714.01 -6.83093 1.70294 0
M  V30 26851 C 4713.3 -5.79992 0.836974 0
M  V30 26852 N 4713.35 -4.41864 1.38293 0
M  V30 26853 H 4710.51 -8.13644 3.0377 0
M  V30 26854 H 4710.24 -6.42788 2.55485 0
M  V30 26855 H 4711.11 -8.12039 0.792769 0
M  V30 26856 P 4715.07 -8.91 2.08117e-10 0
M  V30 26857 O 4715.29 -10.1736 -0.733766 0
M  V30 26858 O 4715.86 -8.73247 1.2395 0
M  V30 26859 O 4715.32 -7.66872 -0.971405 0
M  V30 26860 C 4714.38 -7.42212 -2.04614 0
M  V30 26861 C 4715.11 -6.86059 -3.24661 0
M  V30 26862 O 4715.32 -5.42847 -3.03646 0
M  V30 26863 C 4716.51 -7.41196 -3.50753 0
M  V30 26864 O 4716.9 -7.27073 -4.86816 0
M  V30 26865 C 4717.39 -6.5273 -2.63741 0
M  V30 26866 C 4716.68 -5.1842 -2.73198 0
M  V30 26867 N 4716.73 -4.38668 -1.47808 0
M  V30 26868 C 4716.88 -3.02239 -1.60048 0
M  V30 26869 O 4716.97 -2.46459 -2.67869 0
M  V30 26870 N 4716.92 -2.32436 -0.408571 0
M  V30 26871 C 4716.83 -2.85471 0.854993 0
M  V30 26872 C 4716.68 -4.28918 0.887335 0
M  V30 26873 C 4716.63 -5.00349 -0.255399 0
M  V30 26874 H 4713.89 -8.36803 -2.32493 0
M  V30 26875 H 4713.62 -6.701 -1.71105 0
M  V30 26876 H 4714.49 -7.03551 -4.13168 0
M  V30 26877 H 4717.15 -4.59773 -3.53894 0
M  V30 26878 H 4717.42 -6.88995 -1.59871 0
M  V30 26879 H 4718.42 -6.46749 -3.03687 0
M  V30 26880 H 4716.58 -8.46908 -3.20714 0
M  V30 26881 H 4716.51 -6.08548 -0.206986 0
M  V30 26882 P 4718.45 -7.20834 -5.23717 0
M  V30 26883 O 4718.67 -7.80006 -6.57415 0
M  V30 26884 O 4719.24 -7.79416 -4.13051 0
M  V30 26885 O 4718.7 -5.63315 -5.29344 0
M  V30 26886 C 4717.76 -4.80318 -6.01954 0
M  V30 26887 C 4718.49 -3.64202 -6.65911 0
M  V30 26888 O 4718.7 -2.60736 -5.64823 0
M  V30 26889 C 4719.89 -3.93521 -7.19518 0
M  V30 26890 O 4720.28 -3.02071 -8.21205 0
M  V30 26891 C 4720.77 -3.73047 -5.97036 0
M  V30 26892 C 4720.06 -2.58828 -5.25741 0
M  V30 26893 N 4720.11 -2.68068 -3.77503 0
M  V30 26894 H 4717.27 -5.40394 -6.8003 0
M  V30 26895 H 4717 -4.41741 -5.32532 0
M  V30 26896 H 4717.87 -3.26371 -7.47889 0
M  V30 26897 H 4720.53 -1.64007 -5.56746 0
M  V30 26898 H 4720.81 -4.63439 -5.3432 0
M  V30 26899 H 4721.8 -3.44776 -6.25925 0
M  V30 26900 H 4719.96 -4.96707 -7.57347 0
M  V30 26901 P 4721.83 -2.75334 -8.47391 0
M  V30 26902 O 4722.05 -2.44571 -9.90142 0
M  V30 26903 O 4722.62 -3.87688 -7.92115 0
M  V30 26904 O 4722.08 -1.4459 -7.59357 0
M  V30 26905 C 4721.14 -0.347608 -7.69215 0
M  V30 26906 C 4721.87 0.96767 -7.52806 0
M  V30 26907 O 4722.08 1.21036 -6.1011 0
M  V30 26908 C 4723.27 1.04544 -8.13308 0
M  V30 26909 O 4723.66 2.38311 -8.41922 0
M  V30 26910 C 4724.15 0.491279 -7.02284 0
M  V30 26911 C 4723.44 0.996264 -5.77469 0
M  V30 26912 N 4723.49 0.0501916 -4.62973 0
M  V30 26913 H 4720.65 -0.374722 -8.67691 0
M  V30 26914 H 4720.38 -0.443485 -6.90277 0
M  V30 26915 H 4721.25 1.75537 -7.96793 0
M  V30 26916 P 4725.21 2.75334 -8.47391 0
M  V30 26917 O 4725.43 3.84128 -9.44797 0
M  V30 26918 O 4726 1.51947 -8.68712 0
M  V30 26919 O 4725.46 3.29363 -6.99321 0
M  V30 26920 C 4724.52 4.24011 -6.4274 0
M  V30 26921 C 4725.25 5.20775 -5.52155 0
M  V30 26922 O 4725.46 4.56534 -4.22446 0
M  V30 26923 C 4726.65 5.62629 -5.96531 0
M  V30 26924 O 4727.04 6.87667 -5.41053 0
M  V30 26925 C 4727.53 4.52537 -5.39283 0
M  V30 26926 C 4726.82 4.20027 -4.08623 0
M  V30 26927 N 4726.87 2.76189 -3.71603 0
M  V30 26928 H 4724.03 4.797 -7.24003 0
M  V30 26929 H 4723.76 3.69856 -5.84513 0
M  V30 26930 H 4724.63 6.10356 -5.41441 0
M  V30 26931 P 4728.59 7.20834 -5.23717 0
M  V30 26932 O 4728.81 8.66189 -5.38625 0
M  V30 26933 O 4729.38 6.33615 -6.1356 0
M  V30 26934 O 4728.84 6.7751 -3.72168 0
M  V30 26935 C 4727.9 7.20732 -2.70725 0
M  V30 26936 C 4728.63 7.45864 -1.40599 0
M  V30 26937 O 4728.84 6.17651 -0.734225 0
M  V30 26938 C 4730.03 8.05808 -1.51899 0
M  V30 26939 O 4730.42 8.74358 -0.335205 0
M  V30 26940 C 4730.91 6.83093 -1.70294 0
M  V30 26941 C 4730.2 5.79992 -0.836974 0
M  V30 26942 N 4730.25 4.41769 -1.38263 0
M  V30 26943 C 4730.4 3.38591 -0.481702 0
M  V30 26944 O 4730.49 3.56839 0.718452 0
M  V30 26945 N 4730.44 2.1206 -1.03569 0
M  V30 26946 C 4730.35 1.80696 -2.36966 0
M  V30 26947 O 4730.4 0.630473 -2.74862 0
M  V30 26948 C 4730.2 2.94845 -3.23898 0
M  V30 26949 C 4730.09 2.65253 -4.70362 0
M  V30 26950 C 4730.15 4.19803 -2.73435 0
M  V30 26951 H 4727.41 8.13644 -3.0377 0
M  V30 26952 H 4727.14 6.42695 -2.55448 0
M  V30 26953 H 4728.01 8.12039 -0.792769 0
M  V30 26954 H 4730.67 5.79978 0.160587 0
M  V30 26955 H 4730.94 6.51379 -2.75643 0
M  V30 26956 H 4731.94 7.01734 -1.34462 0
M  V30 26957 H 4730.1 8.73674 -2.38337 0
M  V30 26958 H 4730.03 5.04492 -3.4095 0
M  V30 26959 H 4731.06 2.83924 -5.1913 0
M  V30 26960 H 4729.32 3.29824 -5.15163 0
M  V30 26961 H 4729.81 1.59723 -4.84449 0
M  V30 26962 H 4730.55 1.35644 -0.399345 0
M  V30 26963 P 4731.97 8.91 -2.09226e-10 0
M  V30 26964 O 4732.19 10.1746 0.733838 0
M  V30 26965 O 4732.76 8.73346 -1.23964 0
M  V30 26966 O 4732.22 7.66872 0.971405 0
M  V30 26967 C 4731.28 7.42405 2.04668 0
M  V30 26968 C 4732.01 6.86059 3.24661 0
M  V30 26969 O 4732.22 5.42934 3.03695 0
M  V30 26970 C 4733.41 7.41287 3.50796 0
M  V30 26971 O 4733.8 7.27073 4.86816 0
M  V30 26972 C 4734.29 6.5273 2.63741 0
M  V30 26973 C 4733.58 5.1842 2.73198 0
M  V30 26974 N 4733.63 4.38762 1.4784 0
M  V30 26975 C 4733.55 4.83651 0.183876 0
M  V30 26976 N 4733.62 3.88759 -0.699393 0
M  V30 26977 C 4733.77 2.7404 0.0575568 0
M  V30 26978 C 4733.9 1.37902 -0.293928 0
M  V30 26979 N 4733.91 0.938021 -1.54797 0
M  V30 26980 N 4734.02 0.491817 0.70549 0
M  V30 26981 C 4734.01 0.931735 1.95979 0
M  V30 26982 N 4733.89 2.16017 2.41481 0
M  V30 26983 C 4733.77 3.02547 1.39121 0
M  V30 26984 H 4730.79 8.36899 2.3252 0
M  V30 26985 H 4730.52 6.70391 1.71179 0
M  V30 26986 H 4731.39 7.03638 4.13219 0
M  V30 26987 H 4734.05 4.59931 3.54016 0
M  V30 26988 H 4734.33 6.88995 1.59871 0
M  V30 26989 H 4735.32 6.4684 3.0373 0
M  V30 26990 H 4733.48 8.47002 3.20749 0
M  V30 26991 H 4733.44 5.8885 -0.0765548 0
M  V30 26992 H 4733.82 1.60276 -2.32875 0
M  V30 26993 H 4734.01 -0.0699355 -1.73859 0
M  V30 26994 H 4734.12 0.165507 2.71897 0
M  V30 26995 P 4735.35 7.20834 5.23717 0
M  V30 26996 O 4735.57 7.79853 6.57286 0
M  V30 26997 O 4736.14 7.79239 4.12957 0
M  V30 26998 O 4735.6 5.63315 5.29344 0
M  V30 26999 C 4734.66 4.80255 6.01876 0
M  V30 27000 C 4735.39 3.64202 6.65911 0
M  V30 27001 O 4735.6 2.60694 5.64732 0
M  V30 27002 C 4736.79 3.93473 7.1943 0
M  V30 27003 O 4737.18 3.02071 8.21205 0
M  V30 27004 C 4737.67 3.73047 5.97036 0
M  V30 27005 C 4736.96 2.58828 5.25741 0
M  V30 27006 N 4737.01 2.68068 3.77503 0
M  V30 27007 H 4734.17 5.40332 6.79951 0
M  V30 27008 H 4733.9 4.41613 5.32378 0
M  V30 27009 H 4734.77 3.26331 7.47797 0
M  V30 27010 P 4738.73 2.75334 8.47391 0
M  V30 27011 O 4738.95 2.44571 9.90142 0
M  V30 27012 O 4739.52 3.87688 7.92115 0
M  V30 27013 O 4738.98 1.4459 7.59357 0
M  V30 27014 C 4738.04 0.347608 7.69215 0
M  V30 27015 C 4738.77 -0.96767 7.52806 0
M  V30 27016 O 4738.98 -1.21036 6.1011 0
M  V30 27017 C 4740.17 -1.04544 8.13308 0
M  V30 27018 O 4740.56 -2.38311 8.41922 0
M  V30 27019 C 4741.05 -0.491279 7.02284 0
M  V30 27020 C 4740.34 -0.996264 5.77469 0
M  V30 27021 N 4740.39 -0.0501916 4.62973 0
M  V30 27022 H 4737.55 0.374722 8.67691 0
M  V30 27023 H 4737.28 0.443485 6.90277 0
M  V30 27024 H 4738.15 -1.75537 7.96793 0
M  V30 27025 P 4742.11 -2.75334 8.47391 0
M  V30 27026 O 4742.33 -3.84128 9.44797 0
M  V30 27027 O 4742.9 -1.51947 8.68712 0
M  V30 27028 O 4742.36 -3.29363 6.99321 0
M  V30 27029 C 4741.42 -4.24011 6.4274 0
M  V30 27030 C 4742.15 -5.20775 5.52155 0
M  V30 27031 O 4742.36 -4.56534 4.22446 0
M  V30 27032 C 4743.55 -5.62629 5.96531 0
M  V30 27033 O 4743.94 -6.87667 5.41053 0
M  V30 27034 C 4744.43 -4.52537 5.39283 0
M  V30 27035 C 4743.72 -4.20027 4.08623 0
M  V30 27036 N 4743.77 -2.76189 3.71603 0
M  V30 27037 H 4740.93 -4.797 7.24003 0
M  V30 27038 H 4740.66 -3.69856 5.84513 0
M  V30 27039 H 4741.53 -6.10356 5.41441 0
M  V30 27040 P 4745.49 -7.20834 5.23717 0
M  V30 27041 O 4745.71 -8.66189 5.38625 0
M  V30 27042 O 4746.28 -6.33615 6.1356 0
M  V30 27043 O 4745.74 -6.7751 3.72168 0
M  V30 27044 C 4744.8 -7.20732 2.70725 0
M  V30 27045 C 4745.53 -7.45864 1.40599 0
M  V30 27046 O 4745.74 -6.17651 0.734225 0
M  V30 27047 C 4746.93 -8.05808 1.51899 0
M  V30 27048 O 4747.32 -8.74358 0.335205 0
M  V30 27049 C 4747.81 -6.83093 1.70294 0
M  V30 27050 C 4747.1 -5.79992 0.836974 0
M  V30 27051 N 4747.15 -4.41769 1.38263 0
M  V30 27052 C 4747.3 -3.38591 0.481702 0
M  V30 27053 O 4747.39 -3.56839 -0.718452 0
M  V30 27054 N 4747.34 -2.1206 1.03569 0
M  V30 27055 C 4747.25 -1.80696 2.36966 0
M  V30 27056 O 4747.3 -0.630473 2.74862 0
M  V30 27057 C 4747.1 -2.94845 3.23898 0
M  V30 27058 C 4746.99 -2.65253 4.70362 0
M  V30 27059 C 4747.05 -4.19803 2.73435 0
M  V30 27060 H 4744.31 -8.13644 3.0377 0
M  V30 27061 H 4744.04 -6.42695 2.55448 0
M  V30 27062 H 4744.91 -8.12039 0.792769 0
M  V30 27063 H 4747.56 -5.79978 -0.160587 0
M  V30 27064 H 4747.84 -6.51379 2.75643 0
M  V30 27065 H 4748.84 -7.01734 1.34462 0
M  V30 27066 H 4747 -8.73674 2.38337 0
M  V30 27067 H 4746.93 -5.04492 3.4095 0
M  V30 27068 H 4747.96 -2.83924 5.1913 0
M  V30 27069 H 4746.22 -3.29824 5.15163 0
M  V30 27070 H 4746.71 -1.59723 4.84449 0
M  V30 27071 H 4747.45 -1.35644 0.399345 0
M  V30 27072 P 4748.87 -8.91 2.10335e-10 0
M  V30 27073 O 4749.09 -10.1726 -0.733694 0
M  V30 27074 O 4749.66 -8.73148 1.23936 0
M  V30 27075 O 4749.12 -7.66872 -0.971405 0
M  V30 27076 C 4748.18 -7.42309 -2.04641 0
M  V30 27077 C 4748.91 -6.86059 -3.24661 0
M  V30 27078 O 4749.12 -5.42847 -3.03646 0
M  V30 27079 C 4750.31 -7.41196 -3.50753 0
M  V30 27080 O 4750.7 -7.27073 -4.86816 0
M  V30 27081 C 4751.19 -6.5273 -2.63741 0
M  V30 27082 C 4750.48 -5.1842 -2.73198 0
M  V30 27083 N 4750.53 -4.38762 -1.4784 0
M  V30 27084 H 4747.69 -8.36803 -2.32493 0
M  V30 27085 H 4747.42 -6.70197 -1.71129 0
M  V30 27086 H 4748.29 -7.03551 -4.13168 0
M  V30 27087 P 4752.25 -7.20834 -5.23717 0
M  V30 27088 O 4752.47 -7.79853 -6.57286 0
M  V30 27089 O 4753.04 -7.79239 -4.12957 0
M  V30 27090 O 4752.5 -5.63315 -5.29344 0
M  V30 27091 C 4751.56 -4.80255 -6.01876 0
M  V30 27092 C 4752.29 -3.64202 -6.65911 0
M  V30 27093 O 4752.5 -2.60694 -5.64732 0
M  V30 27094 C 4753.69 -3.93473 -7.1943 0
M  V30 27095 O 4754.08 -3.02071 -8.21205 0
M  V30 27096 C 4754.57 -3.73047 -5.97036 0
M  V30 27097 C 4753.86 -2.58828 -5.25741 0
M  V30 27098 N 4753.91 -2.68068 -3.77503 0
M  V30 27099 H 4751.07 -5.40332 -6.79951 0
M  V30 27100 H 4750.8 -4.41613 -5.32378 0
M  V30 27101 H 4751.67 -3.26331 -7.47797 0
M  V30 27102 P 4755.63 -2.75334 -8.47391 0
M  V30 27103 O 4755.85 -2.44595 -9.90239 0
M  V30 27104 O 4756.42 -3.87732 -7.92204 0
M  V30 27105 O 4755.88 -1.4459 -7.59357 0
M  V30 27106 C 4754.94 -0.347563 -7.69115 0
M  V30 27107 C 4755.67 0.96767 -7.52806 0
M  V30 27108 O 4755.88 1.21036 -6.1011 0
M  V30 27109 C 4757.07 1.04544 -8.13308 0
M  V30 27110 O 4757.46 2.38311 -8.41922 0
M  V30 27111 C 4757.95 0.491279 -7.02284 0
M  V30 27112 C 4757.24 0.996264 -5.77469 0
M  V30 27113 N 4757.29 0.0501808 -4.62873 0
M  V30 27114 C 4757.44 0.588177 -3.36904 0
M  V30 27115 O 4757.53 1.78598 -3.17173 0
M  V30 27116 N 4757.48 -0.329694 -2.33686 0
M  V30 27117 C 4757.39 -1.6953 -2.45079 0
M  V30 27118 C 4757.24 -2.16933 -3.80505 0
M  V30 27119 C 4757.19 -1.30326 -4.83752 0
M  V30 27120 H 4754.45 -0.374722 -8.67691 0
M  V30 27121 H 4754.18 -0.443421 -6.90177 0
M  V30 27122 H 4755.05 1.75537 -7.96793 0
M  V30 27123 H 4757.7 1.94496 -5.46629 0
M  V30 27124 H 4757.98 -0.608651 -7.04676 0
M  V30 27125 H 4758.98 0.889672 -7.08939 0
M  V30 27126 H 4757.14 0.43308 -9.04564 0
M  V30 27127 H 4757.07 -1.68366 -5.8516 0
M  V30 27128 P 4759.01 2.75334 -8.47391 0
M  V30 27129 O 4759.23 3.84128 -9.44797 0
M  V30 27130 O 4759.8 1.51947 -8.68712 0
M  V30 27131 O 4759.26 3.29363 -6.99321 0
M  V30 27132 C 4758.32 4.24011 -6.4274 0
M  V30 27133 C 4759.05 5.20775 -5.52155 0
M  V30 27134 O 4759.26 4.56534 -4.22446 0
M  V30 27135 C 4760.45 5.62629 -5.96531 0
M  V30 27136 O 4760.84 6.87667 -5.41053 0
M  V30 27137 C 4761.33 4.52537 -5.39283 0
M  V30 27138 C 4760.62 4.20027 -4.08623 0
M  V30 27139 N 4760.67 2.76189 -3.71603 0
M  V30 27140 H 4757.83 4.797 -7.24003 0
M  V30 27141 H 4757.56 3.69856 -5.84513 0
M  V30 27142 H 4758.43 6.10356 -5.41441 0
M  V30 27143 P 4762.39 7.20834 -5.23717 0
M  V30 27144 O 4762.61 8.66274 -5.38678 0
M  V30 27145 O 4763.18 6.33687 -6.13629 0
M  V30 27146 O 4762.64 6.7751 -3.72168 0
M  V30 27147 C 4761.7 7.20919 -2.70795 0
M  V30 27148 C 4762.43 7.45864 -1.40599 0
M  V30 27149 O 4762.64 6.17751 -0.734343 0
M  V30 27150 C 4763.83 8.05906 -1.51917 0
M  V30 27151 O 4764.22 8.74358 -0.335205 0
M  V30 27152 C 4764.71 6.83093 -1.70294 0
M  V30 27153 C 4764 5.79992 -0.836974 0
M  V30 27154 N 4764.05 4.41864 -1.38293 0
M  V30 27155 C 4763.97 4.02089 -2.69407 0
M  V30 27156 N 4764.04 2.73403 -2.85089 0
M  V30 27157 C 4764.19 2.25086 -1.5642 0
M  V30 27158 C 4764.32 0.942887 -1.04836 0
M  V30 27159 N 4764.33 -0.150999 -1.80369 0
M  V30 27160 N 4764.44 0.812565 0.28167 0
M  V30 27161 C 4764.43 1.90572 1.03784 0
M  V30 27162 N 4764.31 3.167 0.683905 0
M  V30 27163 C 4764.19 3.26538 -0.652815 0
M  V30 27164 H 4761.21 8.13738 -3.03804 0
M  V30 27165 H 4760.94 6.42974 -2.55559 0
M  V30 27166 H 4761.81 8.12139 -0.792866 0
M  V30 27167 H 4764.46 5.80178 0.160643 0
M  V30 27168 H 4764.74 6.51379 -2.75643 0
M  V30 27169 H 4765.74 7.01832 -1.3448 0
M  V30 27170 H 4763.9 8.73771 -2.38364 0
M  V30 27171 H 4763.86 4.7189 -3.52311 0
M  V30 27172 H 4764.24 -0.0721434 -2.82608 0
M  V30 27173 H 4764.43 -1.0785 -1.36544 0
M  V30 27174 H 4764.54 1.73207 2.10241 0
M  V30 27175 P 4765.77 8.91 -2.11444e-10 0
M  V30 27176 O 4765.99 10.1726 0.733694 0
M  V30 27177 O 4766.56 8.73148 -1.23936 0
M  V30 27178 O 4766.02 7.66872 0.971405 0
M  V30 27179 C 4765.08 7.42309 2.04641 0
M  V30 27180 C 4765.81 6.86059 3.24661 0
M  V30 27181 O 4766.02 5.42847 3.03646 0
M  V30 27182 C 4767.21 7.41196 3.50753 0
M  V30 27183 O 4767.6 7.27073 4.86816 0
M  V30 27184 C 4768.09 6.5273 2.63741 0
M  V30 27185 C 4767.38 5.1842 2.73198 0
M  V30 27186 N 4767.43 4.38762 1.4784 0
M  V30 27187 H 4764.59 8.36803 2.32493 0
M  V30 27188 H 4764.32 6.70197 1.71129 0
M  V30 27189 H 4765.19 7.03551 4.13168 0
M  V30 27190 P 4769.15 7.20834 5.23717 0
M  V30 27191 O 4769.37 7.79853 6.57286 0
M  V30 27192 O 4769.94 7.79239 4.12957 0
M  V30 27193 O 4769.4 5.63315 5.29344 0
M  V30 27194 C 4768.46 4.80255 6.01876 0
M  V30 27195 C 4769.19 3.64202 6.65911 0
M  V30 27196 O 4769.4 2.60694 5.64732 0
M  V30 27197 C 4770.59 3.93473 7.1943 0
M  V30 27198 O 4770.98 3.02071 8.21205 0
M  V30 27199 C 4771.47 3.73047 5.97036 0
M  V30 27200 C 4770.76 2.58828 5.25741 0
M  V30 27201 N 4770.81 2.68068 3.77503 0
M  V30 27202 H 4767.97 5.40332 6.79951 0
M  V30 27203 H 4767.7 4.41613 5.32378 0
M  V30 27204 H 4768.57 3.26331 7.47797 0
M  V30 27205 P 4772.53 2.75334 8.47391 0
M  V30 27206 O 4772.75 2.44571 9.90142 0
M  V30 27207 O 4773.32 3.87688 7.92115 0
M  V30 27208 O 4772.78 1.4459 7.59357 0
M  V30 27209 C 4771.84 0.347608 7.69215 0
M  V30 27210 C 4772.57 -0.96767 7.52806 0
M  V30 27211 O 4772.78 -1.21036 6.1011 0
M  V30 27212 C 4773.97 -1.04544 8.13308 0
M  V30 27213 O 4774.36 -2.38311 8.41922 0
M  V30 27214 C 4774.85 -0.491279 7.02284 0
M  V30 27215 C 4774.14 -0.996264 5.77469 0
M  V30 27216 N 4774.19 -0.0501916 4.62973 0
M  V30 27217 C 4774.11 1.32786 4.63244 0
M  V30 27218 N 4774.19 1.86957 3.44545 0
M  V30 27219 C 4774.33 0.780241 2.58481 0
M  V30 27220 C 4774.46 0.738536 1.17757 0
M  V30 27221 O 4774.48 1.66794 0.372349 0
M  V30 27222 N 4774.58 -0.58337 0.711393 0
M  V30 27223 C 4774.58 -1.70816 1.51017 0
M  V30 27224 N 4774.71 -2.87826 0.880757 0
M  V30 27225 N 4774.45 -1.67126 2.8339 0
M  V30 27226 C 4774.33 -0.401421 3.30572 0
M  V30 27227 H 4771.35 0.374722 8.67691 0
M  V30 27228 H 4771.08 0.443485 6.90277 0
M  V30 27229 H 4771.95 -1.75537 7.96793 0
M  V30 27230 H 4774.6 -1.95076 5.46529 0
M  V30 27231 H 4774.88 0.608565 7.04577 0
M  V30 27232 H 4775.88 -0.889672 7.08939 0
M  V30 27233 H 4774.04 -0.43308 9.04564 0
M  V30 27234 H 4773.99 1.91249 5.54442 0
M  V30 27235 H 4774.67 -0.718054 -0.275244 0
M  V30 27236 H 4774.71 -3.75721 1.41832 0
M  V30 27237 H 4774.81 -2.90436 -0.145468 0
M  V30 27238 P 4775.91 -2.75334 8.47391 0
M  V30 27239 O 4776.13 -3.84128 9.44797 0
M  V30 27240 O 4776.7 -1.51947 8.68712 0
M  V30 27241 O 4776.16 -3.29363 6.99321 0
M  V30 27242 C 4775.22 -4.24011 6.4274 0
M  V30 27243 C 4775.95 -5.20775 5.52155 0
M  V30 27244 O 4776.16 -4.56534 4.22446 0
M  V30 27245 C 4777.35 -5.62629 5.96531 0
M  V30 27246 O 4777.74 -6.87667 5.41053 0
M  V30 27247 C 4778.23 -4.52537 5.39283 0
M  V30 27248 C 4777.52 -4.20027 4.08623 0
M  V30 27249 N 4777.57 -2.76189 3.71603 0
M  V30 27250 H 4774.73 -4.797 7.24003 0
M  V30 27251 H 4774.46 -3.69856 5.84513 0
M  V30 27252 H 4775.33 -6.10356 5.41441 0
M  V30 27253 P 4779.29 -7.20834 5.23717 0
M  V30 27254 O 4779.51 -8.66104 5.38572 0
M  V30 27255 O 4780.08 -6.33544 6.1349 0
M  V30 27256 O 4779.54 -6.7751 3.72168 0
M  V30 27257 C 4778.6 -7.20825 2.7076 0
M  V30 27258 C 4779.33 -7.45864 1.40599 0
M  V30 27259 O 4779.54 -6.17651 0.734225 0
M  V30 27260 C 4780.73 -8.05808 1.51899 0
M  V30 27261 O 4781.12 -8.74358 0.335205 0
M  V30 27262 C 4781.61 -6.83093 1.70294 0
M  V30 27263 C 4780.9 -5.79992 0.836974 0
M  V30 27264 N 4780.95 -4.41864 1.38293 0
M  V30 27265 C 4780.87 -3.99538 2.69438 0
M  V30 27266 N 4780.95 -2.69909 2.84277 0
M  V30 27267 C 4781.09 -2.21719 1.5408 0
M  V30 27268 C 4781.22 -0.891712 1.06628 0
M  V30 27269 O 4781.24 0.161298 1.70137 0
M  V30 27270 N 4781.34 -0.856846 -0.334985 0
M  V30 27271 C 4781.34 -1.9641 -1.15789 0
M  V30 27272 N 4781.47 -1.72708 -2.46522 0
M  V30 27273 N 4781.21 -3.21165 -0.713741 0
M  V30 27274 C 4781.09 -3.26797 0.639748 0
M  V30 27275 H 4778.11 -8.13644 3.0377 0
M  V30 27276 H 4777.84 -6.42788 2.55485 0
M  V30 27277 H 4778.71 -8.12039 0.792769 0
M  V30 27278 H 4781.36 -5.80061 -0.166416 0
M  V30 27279 H 4781.64 -6.51287 2.75604 0
M  V30 27280 H 4782.64 -7.01734 1.34462 0
M  V30 27281 H 4780.8 -8.73674 2.38337 0
M  V30 27282 H 4780.75 -4.68207 3.53221 0
M  V30 27283 H 4781.43 0.0398818 -0.767965 0
M  V30 27284 H 4781.47 -2.50995 -3.13503 0
M  V30 27285 H 4781.57 -0.759148 -2.80716 0
M  V30 27286 P 4782.67 -8.91 2.12553e-10 0
M  V30 27287 O 4782.89 -10.1746 -0.733838 0
M  V30 27288 O 4783.46 -8.73346 1.23964 0
M  V30 27289 O 4782.92 -7.66872 -0.971405 0
M  V30 27290 C 4781.98 -7.42405 -2.04668 0
M  V30 27291 C 4782.71 -6.86059 -3.24661 0
M  V30 27292 O 4782.92 -5.42934 -3.03695 0
M  V30 27293 C 4784.11 -7.41287 -3.50796 0
M  V30 27294 O 4784.5 -7.27073 -4.86816 0
M  V30 27295 C 4784.99 -6.5273 -2.63741 0
M  V30 27296 C 4784.28 -5.1842 -2.73198 0
M  V30 27297 N 4784.33 -4.38762 -1.4784 0
M  V30 27298 C 4784.25 -4.83651 -0.183876 0
M  V30 27299 N 4784.32 -3.88759 0.699393 0
M  V30 27300 C 4784.47 -2.7404 -0.0575568 0
M  V30 27301 C 4784.6 -1.37902 0.293928 0
M  V30 27302 N 4784.61 -0.938021 1.54797 0
M  V30 27303 N 4784.72 -0.491817 -0.70549 0
M  V30 27304 C 4784.71 -0.931735 -1.95979 0
M  V30 27305 N 4784.59 -2.16017 -2.41481 0
M  V30 27306 C 4784.47 -3.02547 -1.39121 0
M  V30 27307 H 4781.49 -8.36899 -2.3252 0
M  V30 27308 H 4781.22 -6.70391 -1.71179 0
M  V30 27309 H 4782.09 -7.03638 -4.13219 0
M  V30 27310 H 4784.74 -4.59931 -3.54016 0
M  V30 27311 H 4785.02 -6.88995 -1.59871 0
M  V30 27312 H 4786.02 -6.4684 -3.0373 0
M  V30 27313 H 4784.18 -8.47002 -3.20749 0
M  V30 27314 H 4784.14 -5.8885 0.0765548 0
M  V30 27315 H 4784.52 -1.60276 2.32875 0
M  V30 27316 H 4784.71 0.0699355 1.73859 0
M  V30 27317 H 4784.82 -0.165507 -2.71897 0
M  V30 27318 P 4786.05 -7.20834 -5.23717 0
M  V30 27319 O 4786.27 -7.79853 -6.57286 0
M  V30 27320 O 4786.84 -7.79239 -4.12957 0
M  V30 27321 O 4786.3 -5.63315 -5.29344 0
M  V30 27322 C 4785.36 -4.80255 -6.01876 0
M  V30 27323 C 4786.09 -3.64202 -6.65911 0
M  V30 27324 O 4786.3 -2.60694 -5.64732 0
M  V30 27325 C 4787.49 -3.93473 -7.1943 0
M  V30 27326 O 4787.88 -3.02071 -8.21205 0
M  V30 27327 C 4788.37 -3.73047 -5.97036 0
M  V30 27328 C 4787.66 -2.58828 -5.25741 0
M  V30 27329 N 4787.71 -2.68068 -3.77503 0
M  V30 27330 H 4784.87 -5.40332 -6.79951 0
M  V30 27331 H 4784.6 -4.41613 -5.32378 0
M  V30 27332 H 4785.47 -3.26331 -7.47797 0
M  V30 27333 P 4789.43 -2.75334 -8.47391 0
M  V30 27334 O 4789.65 -2.44571 -9.90142 0
M  V30 27335 O 4790.22 -3.87688 -7.92115 0
M  V30 27336 O 4789.68 -1.4459 -7.59357 0
M  V30 27337 C 4788.74 -0.347608 -7.69215 0
M  V30 27338 C 4789.47 0.96767 -7.52806 0
M  V30 27339 O 4789.68 1.21036 -6.1011 0
M  V30 27340 C 4790.87 1.04544 -8.13308 0
M  V30 27341 O 4791.26 2.38311 -8.41922 0
M  V30 27342 C 4791.75 0.491279 -7.02284 0
M  V30 27343 C 4791.04 0.996264 -5.77469 0
M  V30 27344 N 4791.09 0.0501916 -4.62973 0
M  V30 27345 H 4788.25 -0.374722 -8.67691 0
M  V30 27346 H 4787.98 -0.443485 -6.90277 0
M  V30 27347 H 4788.85 1.75537 -7.96793 0
M  V30 27348 P 4792.81 2.75334 -8.47391 0
M  V30 27349 O 4793.03 3.84128 -9.44797 0
M  V30 27350 O 4793.6 1.51947 -8.68712 0
M  V30 27351 O 4793.06 3.29363 -6.99321 0
M  V30 27352 C 4792.12 4.24011 -6.4274 0
M  V30 27353 C 4792.85 5.20775 -5.52155 0
M  V30 27354 O 4793.06 4.56534 -4.22446 0
M  V30 27355 C 4794.25 5.62629 -5.96531 0
M  V30 27356 O 4794.64 6.87667 -5.41053 0
M  V30 27357 C 4795.13 4.52537 -5.39283 0
M  V30 27358 C 4794.42 4.20027 -4.08623 0
M  V30 27359 N 4794.47 2.76189 -3.71603 0
M  V30 27360 H 4791.63 4.797 -7.24003 0
M  V30 27361 H 4791.36 3.69856 -5.84513 0
M  V30 27362 H 4792.23 6.10356 -5.41441 0
M  V30 27363 P 4796.19 7.20834 -5.23717 0
M  V30 27364 O 4796.41 8.66104 -5.38572 0
M  V30 27365 O 4796.98 6.33544 -6.1349 0
M  V30 27366 O 4796.44 6.7751 -3.72168 0
M  V30 27367 C 4795.5 7.20825 -2.7076 0
M  V30 27368 C 4796.23 7.45864 -1.40599 0
M  V30 27369 O 4796.44 6.17651 -0.734225 0
M  V30 27370 C 4797.63 8.05808 -1.51899 0
M  V30 27371 O 4798.02 8.74358 -0.335205 0
M  V30 27372 C 4798.51 6.83093 -1.70294 0
M  V30 27373 C 4797.8 5.79992 -0.836974 0
M  V30 27374 N 4797.85 4.41864 -1.38293 0
M  V30 27375 H 4795.01 8.13644 -3.0377 0
M  V30 27376 H 4794.74 6.42788 -2.55485 0
M  V30 27377 H 4795.61 8.12039 -0.792769 0
M  V30 27378 P 4799.57 8.91 -2.13662e-10 0
M  V30 27379 O 4799.79 10.1726 0.733694 0
M  V30 27380 O 4800.36 8.73148 -1.23936 0
M  V30 27381 O 4799.82 7.66872 0.971405 0
M  V30 27382 C 4798.88 7.42309 2.04641 0
M  V30 27383 C 4799.61 6.86059 3.24661 0
M  V30 27384 O 4799.82 5.42847 3.03646 0
M  V30 27385 C 4801.01 7.41196 3.50753 0
M  V30 27386 O 4801.4 7.27073 4.86816 0
M  V30 27387 C 4801.89 6.5273 2.63741 0
M  V30 27388 C 4801.18 5.1842 2.73198 0
M  V30 27389 N 4801.23 4.38762 1.4784 0
M  V30 27390 H 4798.39 8.36803 2.32493 0
M  V30 27391 H 4798.12 6.70197 1.71129 0
M  V30 27392 H 4798.99 7.03551 4.13168 0
M  V30 27393 P 4802.95 7.20834 5.23717 0
M  V30 27394 O 4803.17 7.79853 6.57286 0
M  V30 27395 O 4803.74 7.79239 4.12957 0
M  V30 27396 O 4803.2 5.63315 5.29344 0
M  V30 27397 C 4802.26 4.80255 6.01876 0
M  V30 27398 C 4802.99 3.64202 6.65911 0
M  V30 27399 O 4803.2 2.60694 5.64732 0
M  V30 27400 C 4804.39 3.93473 7.1943 0
M  V30 27401 O 4804.78 3.02071 8.21205 0
M  V30 27402 C 4805.27 3.73047 5.97036 0
M  V30 27403 C 4804.56 2.58828 5.25741 0
M  V30 27404 N 4804.61 2.68068 3.77503 0
M  V30 27405 H 4801.77 5.40332 6.79951 0
M  V30 27406 H 4801.5 4.41613 5.32378 0
M  V30 27407 H 4802.37 3.26331 7.47797 0
M  V30 27408 P 4806.33 2.75334 8.47391 0
M  V30 27409 O 4806.55 2.44619 9.90336 0
M  V30 27410 O 4807.12 3.87776 7.92294 0
M  V30 27411 O 4806.58 1.4459 7.59357 0
M  V30 27412 C 4805.64 0.347653 7.69315 0
M  V30 27413 C 4806.37 -0.96767 7.52806 0
M  V30 27414 O 4806.58 -1.21055 6.10208 0
M  V30 27415 C 4807.77 -1.04557 8.13408 0
M  V30 27416 O 4808.16 -2.38311 8.41922 0
M  V30 27417 C 4808.65 -0.491279 7.02284 0
M  V30 27418 C 4807.94 -0.996264 5.77469 0
M  V30 27419 N 4807.99 -0.0501916 4.62973 0
M  V30 27420 C 4807.91 1.31969 4.65661 0
M  V30 27421 N 4807.98 1.86649 3.48119 0
M  V30 27422 C 4808.13 0.792089 2.62406 0
M  V30 27423 C 4808.26 0.705684 1.2207 0
M  V30 27424 N 4808.27 1.76207 0.413762 0
M  V30 27425 N 4808.38 -0.518981 0.685754 0
M  V30 27426 C 4808.37 -1.57595 1.49174 0
M  V30 27427 N 4808.25 -1.62909 2.80066 0
M  V30 27428 C 4808.13 -0.388195 3.3073 0
M  V30 27429 H 4805.15 0.374765 8.67791 0
M  V30 27430 H 4804.88 0.443613 6.90476 0
M  V30 27431 H 4805.75 -1.75559 7.96891 0
M  V30 27432 H 4808.4 -1.94563 5.46818 0
M  V30 27433 H 4808.68 0.608651 7.04676 0
M  V30 27434 H 4809.68 -0.889796 7.09039 0
M  V30 27435 H 4807.84 -0.433128 9.04664 0
M  V30 27436 H 4807.8 1.89246 5.57664 0
M  V30 27437 H 4808.18 2.71005 0.804694 0
M  V30 27438 H 4808.37 1.63189 -0.603768 0
M  V30 27439 H 4808.48 -2.53475 0.997614 0
M  V30 27440 P 4809.71 -2.75334 8.47391 0
M  V30 27441 O 4809.93 -3.84128 9.44797 0
M  V30 27442 O 4810.5 -1.51947 8.68712 0
M  V30 27443 O 4809.96 -3.29363 6.99321 0
M  V30 27444 C 4809.02 -4.24011 6.4274 0
M  V30 27445 C 4809.75 -5.20775 5.52155 0
M  V30 27446 O 4809.96 -4.56534 4.22446 0
M  V30 27447 C 4811.15 -5.62629 5.96531 0
M  V30 27448 O 4811.54 -6.87667 5.41053 0
M  V30 27449 C 4812.03 -4.52537 5.39283 0
M  V30 27450 C 4811.32 -4.20027 4.08623 0
M  V30 27451 N 4811.37 -2.76189 3.71603 0
M  V30 27452 H 4808.53 -4.797 7.24003 0
M  V30 27453 H 4808.26 -3.69856 5.84513 0
M  V30 27454 H 4809.13 -6.10356 5.41441 0
M  V30 27455 P 4813.09 -7.20834 5.23717 0
M  V30 27456 O 4813.31 -8.66104 5.38572 0
M  V30 27457 O 4813.88 -6.33544 6.1349 0
M  V30 27458 O 4813.34 -6.7751 3.72168 0
M  V30 27459 C 4812.4 -7.20825 2.7076 0
M  V30 27460 C 4813.13 -7.45864 1.40599 0
M  V30 27461 O 4813.34 -6.17651 0.734225 0
M  V30 27462 C 4814.53 -8.05808 1.51899 0
M  V30 27463 O 4814.92 -8.74358 0.335205 0
M  V30 27464 C 4815.41 -6.83093 1.70294 0
M  V30 27465 C 4814.7 -5.79992 0.836974 0
M  V30 27466 N 4814.75 -4.41864 1.38293 0
M  V30 27467 C 4814.67 -3.99538 2.69438 0
M  V30 27468 N 4814.75 -2.69909 2.84277 0
M  V30 27469 C 4814.89 -2.21719 1.5408 0
M  V30 27470 C 4815.02 -0.891712 1.06628 0
M  V30 27471 N 4815.14 -0.856846 -0.334985 0
M  V30 27472 C 4815.14 -1.9641 -1.15789 0
M  V30 27473 N 4815.27 -1.72708 -2.46522 0
M  V30 27474 N 4815.01 -3.21165 -0.713741 0
M  V30 27475 C 4814.89 -3.26797 0.639748 0
M  V30 27476 H 4811.91 -8.13644 3.0377 0
M  V30 27477 H 4811.64 -6.42788 2.55485 0
M  V30 27478 H 4812.51 -8.12039 0.792769 0
M  V30 27479 P 4816.47 -8.91 2.14771e-10 0
M  V30 27480 O 4816.69 -10.1726 -0.733694 0
M  V30 27481 O 4817.26 -8.73148 1.23936 0
M  V30 27482 O 4816.72 -7.66872 -0.971405 0
M  V30 27483 C 4815.78 -7.42309 -2.04641 0
M  V30 27484 C 4816.51 -6.86059 -3.24661 0
M  V30 27485 O 4816.72 -5.42847 -3.03646 0
M  V30 27486 C 4817.91 -7.41196 -3.50753 0
M  V30 27487 O 4818.3 -7.27073 -4.86816 0
M  V30 27488 C 4818.79 -6.5273 -2.63741 0
M  V30 27489 C 4818.08 -5.1842 -2.73198 0
M  V30 27490 N 4818.13 -4.38762 -1.4784 0
M  V30 27491 H 4815.29 -8.36803 -2.32493 0
M  V30 27492 H 4815.02 -6.70197 -1.71129 0
M  V30 27493 H 4815.89 -7.03551 -4.13168 0
M  V30 27494 P 4819.85 -7.20834 -5.23717 0
M  V30 27495 O 4820.07 -7.79853 -6.57286 0
M  V30 27496 O 4820.64 -7.79239 -4.12957 0
M  V30 27497 O 4820.1 -5.63315 -5.29344 0
M  V30 27498 C 4819.16 -4.80255 -6.01876 0
M  V30 27499 C 4819.89 -3.64202 -6.65911 0
M  V30 27500 O 4820.1 -2.60694 -5.64732 0
M  V30 27501 C 4821.29 -3.93473 -7.1943 0
M  V30 27502 O 4821.68 -3.02071 -8.21205 0
M  V30 27503 C 4822.17 -3.73047 -5.97036 0
M  V30 27504 C 4821.46 -2.58828 -5.25741 0
M  V30 27505 N 4821.51 -2.68068 -3.77503 0
M  V30 27506 C 4821.43 -3.79715 -2.96723 0
M  V30 27507 N 4821.51 -3.5377 -1.68852 0
M  V30 27508 C 4821.65 -2.15054 -1.63254 0
M  V30 27509 C 4821.78 -1.28964 -0.518571 0
M  V30 27510 N 4821.9 0.0538097 -0.918425 0
M  V30 27511 C 4821.9 0.494275 -2.22578 0
M  V30 27512 N 4822.03 1.81086 -2.40434 0
M  V30 27513 N 4821.77 -0.313645 -3.27502 0
M  V30 27514 C 4821.65 -1.61829 -2.91033 0
M  V30 27515 H 4818.67 -5.40332 -6.79951 0
M  V30 27516 H 4818.4 -4.41613 -5.32378 0
M  V30 27517 H 4819.27 -3.26331 -7.47797 0
M  V30 27518 P 4823.23 -2.75334 -8.47391 0
M  V30 27519 O 4823.45 -2.44619 -9.90336 0
M  V30 27520 O 4824.02 -3.87776 -7.92294 0
M  V30 27521 O 4823.48 -1.4459 -7.59357 0
M  V30 27522 C 4822.54 -0.347653 -7.69315 0
M  V30 27523 C 4823.27 0.96767 -7.52806 0
M  V30 27524 O 4823.48 1.21055 -6.10208 0
M  V30 27525 C 4824.67 1.04557 -8.13408 0
M  V30 27526 O 4825.06 2.38311 -8.41922 0
M  V30 27527 C 4825.55 0.491279 -7.02284 0
M  V30 27528 C 4824.84 0.996264 -5.77469 0
M  V30 27529 N 4824.89 0.0501916 -4.62973 0
M  V30 27530 H 4822.05 -0.374765 -8.67791 0
M  V30 27531 H 4821.78 -0.443613 -6.90476 0
M  V30 27532 H 4822.65 1.75559 -7.96891 0
M  V30 27533 H 4825.3 1.94563 -5.46818 0
M  V30 27534 H 4825.58 -0.608651 -7.04676 0
M  V30 27535 H 4826.58 0.889796 -7.09039 0
M  V30 27536 H 4824.74 0.433128 -9.04664 0
M  V30 27537 P 4826.61 2.75334 -8.47391 0
M  V30 27538 O 4826.83 3.84128 -9.44797 0
M  V30 27539 O 4827.4 1.51947 -8.68712 0
M  V30 27540 O 4826.86 3.29363 -6.99321 0
M  V30 27541 C 4825.92 4.24011 -6.4274 0
M  V30 27542 C 4826.65 5.20775 -5.52155 0
M  V30 27543 O 4826.86 4.56534 -4.22446 0
M  V30 27544 C 4828.05 5.62629 -5.96531 0
M  V30 27545 O 4828.44 6.87667 -5.41053 0
M  V30 27546 C 4828.93 4.52537 -5.39283 0
M  V30 27547 C 4828.22 4.20027 -4.08623 0
M  V30 27548 N 4828.27 2.76189 -3.71603 0
M  V30 27549 H 4825.43 4.797 -7.24003 0
M  V30 27550 H 4825.16 3.69856 -5.84513 0
M  V30 27551 H 4826.03 6.10356 -5.41441 0
M  V30 27552 P 4829.99 7.20834 -5.23717 0
M  V30 27553 O 4830.21 8.66104 -5.38572 0
M  V30 27554 O 4830.78 6.33544 -6.1349 0
M  V30 27555 O 4830.24 6.7751 -3.72168 0
M  V30 27556 C 4829.3 7.20825 -2.7076 0
M  V30 27557 C 4830.03 7.45864 -1.40599 0
M  V30 27558 O 4830.24 6.17651 -0.734225 0
M  V30 27559 C 4831.43 8.05808 -1.51899 0
M  V30 27560 O 4831.82 8.74358 -0.335205 0
M  V30 27561 C 4832.31 6.83093 -1.70294 0
M  V30 27562 C 4831.6 5.79992 -0.836974 0
M  V30 27563 N 4831.65 4.41864 -1.38293 0
M  V30 27564 H 4828.81 8.13644 -3.0377 0
M  V30 27565 H 4828.54 6.42788 -2.55485 0
M  V30 27566 H 4829.41 8.12039 -0.792769 0
M  V30 27567 P 4833.37 8.91 -2.1588e-10 0
M  V30 27568 O 4833.59 10.1746 0.733838 0
M  V30 27569 O 4834.16 8.73346 -1.23964 0
M  V30 27570 O 4833.62 7.66872 0.971405 0
M  V30 27571 C 4832.68 7.42405 2.04668 0
M  V30 27572 C 4833.41 6.86059 3.24661 0
M  V30 27573 O 4833.62 5.42934 3.03695 0
M  V30 27574 C 4834.81 7.41287 3.50796 0
M  V30 27575 O 4835.2 7.27073 4.86816 0
M  V30 27576 C 4835.69 6.5273 2.63741 0
M  V30 27577 C 4834.98 5.1842 2.73198 0
M  V30 27578 N 4835.03 4.38762 1.4784 0
M  V30 27579 C 4834.95 4.83651 0.183876 0
M  V30 27580 N 4835.02 3.88759 -0.699393 0
M  V30 27581 C 4835.17 2.7404 0.0575568 0
M  V30 27582 C 4835.3 1.37902 -0.293928 0
M  V30 27583 N 4835.31 0.938021 -1.54797 0
M  V30 27584 N 4835.42 0.491817 0.70549 0
M  V30 27585 C 4835.41 0.931735 1.95979 0
M  V30 27586 N 4835.29 2.16017 2.41481 0
M  V30 27587 C 4835.17 3.02547 1.39121 0
M  V30 27588 H 4832.19 8.36899 2.3252 0
M  V30 27589 H 4831.92 6.70391 1.71179 0
M  V30 27590 H 4832.79 7.03638 4.13219 0
M  V30 27591 H 4835.44 4.59931 3.54016 0
M  V30 27592 H 4835.72 6.88995 1.59871 0
M  V30 27593 H 4836.72 6.4684 3.0373 0
M  V30 27594 H 4834.88 8.47002 3.20749 0
M  V30 27595 H 4834.84 5.8885 -0.0765548 0
M  V30 27596 H 4835.22 1.60276 -2.32875 0
M  V30 27597 H 4835.41 -0.0699355 -1.73859 0
M  V30 27598 H 4835.52 0.165507 2.71897 0
M  V30 27599 P 4836.75 7.20834 5.23717 0
M  V30 27600 O 4836.97 7.7993 6.57351 0
M  V30 27601 O 4837.54 7.79328 4.13004 0
M  V30 27602 O 4837 5.63315 5.29344 0
M  V30 27603 C 4836.06 4.80193 6.01798 0
M  V30 27604 C 4836.79 3.64202 6.65911 0
M  V30 27605 O 4837 2.60694 5.64732 0
M  V30 27606 C 4838.19 3.93473 7.1943 0
M  V30 27607 O 4838.58 3.02071 8.21205 0
M  V30 27608 C 4839.07 3.73047 5.97036 0
M  V30 27609 C 4838.36 2.58828 5.25741 0
M  V30 27610 N 4838.41 2.6801 3.77422 0
M  V30 27611 C 4838.56 1.50443 3.07133 0
M  V30 27612 O 4838.65 0.419406 3.61576 0
M  V30 27613 N 4838.6 1.6403 1.69677 0
M  V30 27614 C 4838.51 2.81206 0.986255 0
M  V30 27615 C 4838.36 3.99158 1.80325 0
M  V30 27616 C 4838.31 3.89779 3.1476 0
M  V30 27617 H 4835.57 5.40332 6.79951 0
M  V30 27618 H 4835.3 4.41549 5.32301 0
M  V30 27619 H 4836.17 3.26331 7.47797 0
M  V30 27620 H 4838.82 1.6395 5.56554 0
M  V30 27621 H 4839.1 4.63439 5.3432 0
M  V30 27622 H 4840.1 3.44728 6.25838 0
M  V30 27623 H 4838.26 4.96652 7.57263 0
M  V30 27624 H 4838.19 4.80159 3.74441 0
M  V30 27625 P 4840.13 2.75334 8.47391 0
M  V30 27626 O 4840.35 2.44571 9.90142 0
M  V30 27627 O 4840.92 3.87688 7.92115 0
M  V30 27628 O 4840.38 1.4459 7.59357 0
M  V30 27629 C 4839.44 0.347608 7.69215 0
M  V30 27630 C 4840.17 -0.96767 7.52806 0
M  V30 27631 O 4840.38 -1.21036 6.1011 0
M  V30 27632 C 4841.57 -1.04544 8.13308 0
M  V30 27633 O 4841.96 -2.38311 8.41922 0
M  V30 27634 C 4842.45 -0.491279 7.02284 0
M  V30 27635 C 4841.74 -0.996264 5.77469 0
M  V30 27636 N 4841.79 -0.0501916 4.62973 0
M  V30 27637 H 4838.95 0.374722 8.67691 0
M  V30 27638 H 4838.68 0.443485 6.90277 0
M  V30 27639 H 4839.55 -1.75537 7.96793 0
M  V30 27640 P 4843.51 -2.75334 8.47391 0
M  V30 27641 O 4843.73 -3.84128 9.44797 0
M  V30 27642 O 4844.3 -1.51947 8.68712 0
M  V30 27643 O 4843.76 -3.29363 6.99321 0
M  V30 27644 C 4842.82 -4.24011 6.4274 0
M  V30 27645 C 4843.55 -5.20775 5.52155 0
M  V30 27646 O 4843.76 -4.56534 4.22446 0
M  V30 27647 C 4844.95 -5.62629 5.96531 0
M  V30 27648 O 4845.34 -6.87667 5.41053 0
M  V30 27649 C 4845.83 -4.52537 5.39283 0
M  V30 27650 C 4845.12 -4.20027 4.08623 0
M  V30 27651 N 4845.17 -2.76189 3.71603 0
M  V30 27652 H 4842.33 -4.797 7.24003 0
M  V30 27653 H 4842.06 -3.69856 5.84513 0
M  V30 27654 H 4842.93 -6.10356 5.41441 0
M  V30 27655 P 4846.89 -7.20834 5.23717 0
M  V30 27656 O 4847.11 -8.66104 5.38572 0
M  V30 27657 O 4847.68 -6.33544 6.1349 0
M  V30 27658 O 4847.14 -6.7751 3.72168 0
M  V30 27659 C 4846.2 -7.20825 2.7076 0
M  V30 27660 C 4846.93 -7.45864 1.40599 0
M  V30 27661 O 4847.14 -6.17651 0.734225 0
M  V30 27662 C 4848.33 -8.05808 1.51899 0
M  V30 27663 O 4848.72 -8.74358 0.335205 0
M  V30 27664 C 4849.21 -6.83093 1.70294 0
M  V30 27665 C 4848.5 -5.79992 0.836974 0
M  V30 27666 N 4848.55 -4.41864 1.38293 0
M  V30 27667 H 4845.71 -8.13644 3.0377 0
M  V30 27668 H 4845.44 -6.42788 2.55485 0
M  V30 27669 H 4846.31 -8.12039 0.792769 0
M  V30 27670 P 4850.27 -8.91 2.16989e-10 0
M  V30 27671 O 4850.49 -10.1746 -0.733838 0
M  V30 27672 O 4851.06 -8.73346 1.23964 0
M  V30 27673 O 4850.52 -7.66872 -0.971405 0
M  V30 27674 C 4849.58 -7.42405 -2.04668 0
M  V30 27675 C 4850.31 -6.86059 -3.24661 0
M  V30 27676 O 4850.52 -5.42934 -3.03695 0
M  V30 27677 C 4851.71 -7.41287 -3.50796 0
M  V30 27678 O 4852.1 -7.27073 -4.86816 0
M  V30 27679 C 4852.59 -6.5273 -2.63741 0
M  V30 27680 C 4851.88 -5.1842 -2.73198 0
M  V30 27681 N 4851.93 -4.38762 -1.4784 0
M  V30 27682 H 4849.09 -8.36899 -2.3252 0
M  V30 27683 H 4848.82 -6.70391 -1.71179 0
M  V30 27684 H 4849.69 -7.03638 -4.13219 0
M  V30 27685 H 4852.34 -4.59931 -3.54016 0
M  V30 27686 H 4852.62 -6.88995 -1.59871 0
M  V30 27687 H 4853.62 -6.4684 -3.0373 0
M  V30 27688 H 4851.78 -8.47002 -3.20749 0
M  V30 27689 P 4853.65 -7.20834 -5.23717 0
M  V30 27690 O 4853.87 -7.79853 -6.57286 0
M  V30 27691 O 4854.44 -7.79239 -4.12957 0
M  V30 27692 O 4853.9 -5.63315 -5.29344 0
M  V30 27693 C 4852.96 -4.80255 -6.01876 0
M  V30 27694 C 4853.69 -3.64202 -6.65911 0
M  V30 27695 O 4853.9 -2.60694 -5.64732 0
M  V30 27696 C 4855.09 -3.93473 -7.1943 0
M  V30 27697 O 4855.48 -3.02071 -8.21205 0
M  V30 27698 C 4855.97 -3.73047 -5.97036 0
M  V30 27699 C 4855.26 -2.58828 -5.25741 0
M  V30 27700 N 4855.31 -2.68068 -3.77503 0
M  V30 27701 H 4852.47 -5.40332 -6.79951 0
M  V30 27702 H 4852.2 -4.41613 -5.32378 0
M  V30 27703 H 4853.07 -3.26331 -7.47797 0
M  V30 27704 P 4857.03 -2.75334 -8.47391 0
M  V30 27705 O 4857.25 -2.44571 -9.90142 0
M  V30 27706 O 4857.82 -3.87688 -7.92115 0
M  V30 27707 O 4857.28 -1.4459 -7.59357 0
M  V30 27708 C 4856.34 -0.347608 -7.69215 0
M  V30 27709 C 4857.07 0.96767 -7.52806 0
M  V30 27710 O 4857.28 1.21036 -6.1011 0
M  V30 27711 C 4858.47 1.04544 -8.13308 0
M  V30 27712 O 4858.86 2.38311 -8.41922 0
M  V30 27713 C 4859.35 0.491279 -7.02284 0
M  V30 27714 C 4858.64 0.996264 -5.77469 0
M  V30 27715 N 4858.69 0.0501916 -4.62973 0
M  V30 27716 H 4855.85 -0.374722 -8.67691 0
M  V30 27717 H 4855.58 -0.443485 -6.90277 0
M  V30 27718 H 4856.45 1.75537 -7.96793 0
M  V30 27719 P 4860.41 2.75334 -8.47391 0
M  V30 27720 O 4860.63 3.84128 -9.44797 0
M  V30 27721 O 4861.2 1.51947 -8.68712 0
M  V30 27722 O 4860.66 3.29363 -6.99321 0
M  V30 27723 C 4859.72 4.24011 -6.4274 0
M  V30 27724 C 4860.45 5.20775 -5.52155 0
M  V30 27725 O 4860.66 4.56534 -4.22446 0
M  V30 27726 C 4861.85 5.62629 -5.96531 0
M  V30 27727 O 4862.24 6.87667 -5.41053 0
M  V30 27728 C 4862.73 4.52537 -5.39283 0
M  V30 27729 C 4862.02 4.20027 -4.08623 0
M  V30 27730 N 4862.07 2.76189 -3.71603 0
M  V30 27731 H 4859.23 4.797 -7.24003 0
M  V30 27732 H 4858.96 3.69856 -5.84513 0
M  V30 27733 H 4859.83 6.10356 -5.41441 0
M  V30 27734 P 4863.79 7.20834 -5.23717 0
M  V30 27735 O 4864.01 8.66104 -5.38572 0
M  V30 27736 O 4864.58 6.33544 -6.1349 0
M  V30 27737 O 4864.04 6.7751 -3.72168 0
M  V30 27738 C 4863.1 7.20825 -2.7076 0
M  V30 27739 C 4863.83 7.45864 -1.40599 0
M  V30 27740 O 4864.04 6.17651 -0.734225 0
M  V30 27741 C 4865.23 8.05808 -1.51899 0
M  V30 27742 O 4865.62 8.74358 -0.335205 0
M  V30 27743 C 4866.11 6.83093 -1.70294 0
M  V30 27744 C 4865.4 5.79992 -0.836974 0
M  V30 27745 N 4865.45 4.41864 -1.38293 0
M  V30 27746 H 4862.61 8.13644 -3.0377 0
M  V30 27747 H 4862.34 6.42788 -2.55485 0
M  V30 27748 H 4863.21 8.12039 -0.792769 0
M  V30 27749 P 4867.17 8.91 -2.18098e-10 0
M  V30 27750 O 4867.39 10.1726 0.733694 0
M  V30 27751 O 4867.96 8.73148 -1.23936 0
M  V30 27752 O 4867.42 7.66872 0.971405 0
M  V30 27753 C 4866.48 7.42309 2.04641 0
M  V30 27754 C 4867.21 6.86059 3.24661 0
M  V30 27755 O 4867.42 5.42847 3.03646 0
M  V30 27756 C 4868.61 7.41196 3.50753 0
M  V30 27757 O 4869 7.27073 4.86816 0
M  V30 27758 C 4869.49 6.5273 2.63741 0
M  V30 27759 C 4868.78 5.1842 2.73198 0
M  V30 27760 N 4868.83 4.38762 1.4784 0
M  V30 27761 H 4865.99 8.36803 2.32493 0
M  V30 27762 H 4865.72 6.70197 1.71129 0
M  V30 27763 H 4866.59 7.03551 4.13168 0
M  V30 27764 P 4870.55 7.20834 5.23717 0
M  V30 27765 O 4870.77 7.79853 6.57286 0
M  V30 27766 O 4871.34 7.79239 4.12957 0
M  V30 27767 O 4870.8 5.63315 5.29344 0
M  V30 27768 C 4869.86 4.80255 6.01876 0
M  V30 27769 C 4870.59 3.64202 6.65911 0
M  V30 27770 O 4870.8 2.60694 5.64732 0
M  V30 27771 C 4871.99 3.93473 7.1943 0
M  V30 27772 O 4872.38 3.02071 8.21205 0
M  V30 27773 C 4872.87 3.73047 5.97036 0
M  V30 27774 C 4872.16 2.58828 5.25741 0
M  V30 27775 N 4872.21 2.68068 3.77503 0
M  V30 27776 H 4869.37 5.40332 6.79951 0
M  V30 27777 H 4869.1 4.41613 5.32378 0
M  V30 27778 H 4869.97 3.26331 7.47797 0
M  V30 27779 P 4873.93 2.75334 8.47391 0
M  V30 27780 O 4874.15 2.44619 9.90336 0
M  V30 27781 O 4874.72 3.87776 7.92294 0
M  V30 27782 O 4874.18 1.4459 7.59357 0
M  V30 27783 C 4873.24 0.347653 7.69315 0
M  V30 27784 C 4873.97 -0.96767 7.52806 0
M  V30 27785 O 4874.18 -1.21055 6.10208 0
M  V30 27786 C 4875.37 -1.04557 8.13408 0
M  V30 27787 O 4875.76 -2.38311 8.41922 0
M  V30 27788 C 4876.25 -0.491279 7.02284 0
M  V30 27789 C 4875.54 -0.996264 5.77469 0
M  V30 27790 N 4875.59 -0.0501916 4.62973 0
M  V30 27791 C 4875.51 1.31969 4.65661 0
M  V30 27792 N 4875.58 1.86649 3.48119 0
M  V30 27793 C 4875.73 0.792089 2.62406 0
M  V30 27794 C 4875.86 0.705684 1.2207 0
M  V30 27795 N 4875.87 1.76207 0.413762 0
M  V30 27796 N 4875.98 -0.518981 0.685754 0
M  V30 27797 C 4875.97 -1.57595 1.49174 0
M  V30 27798 N 4875.85 -1.62909 2.80066 0
M  V30 27799 C 4875.73 -0.388195 3.3073 0
M  V30 27800 H 4872.75 0.374765 8.67791 0
M  V30 27801 H 4872.48 0.443613 6.90476 0
M  V30 27802 H 4873.35 -1.75559 7.96891 0
M  V30 27803 H 4876 -1.94563 5.46818 0
M  V30 27804 H 4876.28 0.608651 7.04676 0
M  V30 27805 H 4877.28 -0.889796 7.09039 0
M  V30 27806 H 4875.44 -0.433128 9.04664 0
M  V30 27807 H 4875.4 1.89246 5.57664 0
M  V30 27808 H 4875.78 2.71005 0.804694 0
M  V30 27809 H 4875.97 1.63189 -0.603768 0
M  V30 27810 H 4876.08 -2.53475 0.997614 0
M  V30 27811 P 4877.31 -2.75334 8.47391 0
M  V30 27812 O 4877.53 -3.84128 9.44797 0
M  V30 27813 O 4878.1 -1.51947 8.68712 0
M  V30 27814 O 4877.56 -3.29363 6.99321 0
M  V30 27815 C 4876.62 -4.24011 6.4274 0
M  V30 27816 C 4877.35 -5.20775 5.52155 0
M  V30 27817 O 4877.56 -4.56534 4.22446 0
M  V30 27818 C 4878.75 -5.62629 5.96531 0
M  V30 27819 O 4879.14 -6.87667 5.41053 0
M  V30 27820 C 4879.63 -4.52537 5.39283 0
M  V30 27821 C 4878.92 -4.20027 4.08623 0
M  V30 27822 N 4878.97 -2.76189 3.71603 0
M  V30 27823 H 4876.13 -4.797 7.24003 0
M  V30 27824 H 4875.86 -3.69856 5.84513 0
M  V30 27825 H 4876.73 -6.10356 5.41441 0
M  V30 27826 P 4880.69 -7.20834 5.23717 0
M  V30 27827 O 4880.91 -8.66104 5.38572 0
M  V30 27828 O 4881.48 -6.33544 6.1349 0
M  V30 27829 O 4880.94 -6.7751 3.72168 0
M  V30 27830 C 4880 -7.20825 2.7076 0
M  V30 27831 C 4880.73 -7.45864 1.40599 0
M  V30 27832 O 4880.94 -6.17651 0.734225 0
M  V30 27833 C 4882.13 -8.05808 1.51899 0
M  V30 27834 O 4882.52 -8.74358 0.335205 0
M  V30 27835 C 4883.01 -6.83093 1.70294 0
M  V30 27836 C 4882.3 -5.79992 0.836974 0
M  V30 27837 N 4882.35 -4.41864 1.38293 0
M  V30 27838 H 4879.51 -8.13644 3.0377 0
M  V30 27839 H 4879.24 -6.42788 2.55485 0
M  V30 27840 H 4880.11 -8.12039 0.792769 0
M  V30 27841 P 4884.07 -8.91 2.19207e-10 0
M  V30 27842 O 4884.29 -10.1726 -0.733694 0
M  V30 27843 O 4884.86 -8.73148 1.23936 0
M  V30 27844 O 4884.32 -7.66872 -0.971405 0
M  V30 27845 C 4883.38 -7.42309 -2.04641 0
M  V30 27846 C 4884.11 -6.86059 -3.24661 0
M  V30 27847 O 4884.32 -5.42847 -3.03646 0
M  V30 27848 C 4885.51 -7.41196 -3.50753 0
M  V30 27849 O 4885.9 -7.27073 -4.86816 0
M  V30 27850 C 4886.39 -6.5273 -2.63741 0
M  V30 27851 C 4885.68 -5.1842 -2.73198 0
M  V30 27852 N 4885.73 -4.38762 -1.4784 0
M  V30 27853 H 4882.89 -8.36803 -2.32493 0
M  V30 27854 H 4882.62 -6.70197 -1.71129 0
M  V30 27855 H 4883.49 -7.03551 -4.13168 0
M  V30 27856 P 4887.45 -7.20834 -5.23717 0
M  V30 27857 O 4887.67 -7.79853 -6.57286 0
M  V30 27858 O 4888.24 -7.79239 -4.12957 0
M  V30 27859 O 4887.7 -5.63315 -5.29344 0
M  V30 27860 C 4886.76 -4.80255 -6.01876 0
M  V30 27861 C 4887.49 -3.64202 -6.65911 0
M  V30 27862 O 4887.7 -2.60694 -5.64732 0
M  V30 27863 C 4888.89 -3.93473 -7.1943 0
M  V30 27864 O 4889.28 -3.02071 -8.21205 0
M  V30 27865 C 4889.77 -3.73047 -5.97036 0
M  V30 27866 C 4889.06 -2.58828 -5.25741 0
M  V30 27867 N 4889.11 -2.68068 -3.77503 0
M  V30 27868 H 4886.27 -5.40332 -6.79951 0
M  V30 27869 H 4886 -4.41613 -5.32378 0
M  V30 27870 H 4886.87 -3.26331 -7.47797 0
M  V30 27871 P 4890.83 -2.75334 -8.47391 0
M  V30 27872 O 4891.05 -2.44619 -9.90336 0
M  V30 27873 O 4891.62 -3.87776 -7.92294 0
M  V30 27874 O 4891.08 -1.4459 -7.59357 0
M  V30 27875 C 4890.14 -0.347653 -7.69315 0
M  V30 27876 C 4890.87 0.96767 -7.52806 0
M  V30 27877 O 4891.08 1.21055 -6.10208 0
M  V30 27878 C 4892.27 1.04557 -8.13408 0
M  V30 27879 O 4892.66 2.38311 -8.41922 0
M  V30 27880 C 4893.15 0.491279 -7.02284 0
M  V30 27881 C 4892.44 0.996264 -5.77469 0
M  V30 27882 N 4892.49 0.0501916 -4.62973 0
M  V30 27883 C 4892.41 -1.31969 -4.65661 0
M  V30 27884 N 4892.48 -1.86649 -3.48119 0
M  V30 27885 C 4892.63 -0.792089 -2.62406 0
M  V30 27886 C 4892.76 -0.705684 -1.2207 0
M  V30 27887 N 4892.77 -1.76207 -0.413762 0
M  V30 27888 N 4892.88 0.518981 -0.685754 0
M  V30 27889 C 4892.87 1.57595 -1.49174 0
M  V30 27890 N 4892.75 1.62909 -2.80066 0
M  V30 27891 C 4892.63 0.388195 -3.3073 0
M  V30 27892 H 4889.65 -0.374765 -8.67791 0
M  V30 27893 H 4889.38 -0.443613 -6.90476 0
M  V30 27894 H 4890.25 1.75559 -7.96891 0
M  V30 27895 H 4892.9 1.94563 -5.46818 0
M  V30 27896 H 4893.18 -0.608651 -7.04676 0
M  V30 27897 H 4894.18 0.889796 -7.09039 0
M  V30 27898 H 4892.34 0.433128 -9.04664 0
M  V30 27899 H 4892.3 -1.89246 -5.57664 0
M  V30 27900 H 4892.68 -2.71005 -0.804694 0
M  V30 27901 H 4892.87 -1.63189 0.603768 0
M  V30 27902 H 4892.98 2.53475 -0.997614 0
M  V30 27903 P 4894.21 2.75334 -8.47391 0
M  V30 27904 O 4894.43 3.84128 -9.44797 0
M  V30 27905 O 4895 1.51947 -8.68712 0
M  V30 27906 O 4894.46 3.29363 -6.99321 0
M  V30 27907 C 4893.52 4.24011 -6.4274 0
M  V30 27908 C 4894.25 5.20775 -5.52155 0
M  V30 27909 O 4894.46 4.56534 -4.22446 0
M  V30 27910 C 4895.65 5.62629 -5.96531 0
M  V30 27911 O 4896.04 6.87667 -5.41053 0
M  V30 27912 C 4896.53 4.52537 -5.39283 0
M  V30 27913 C 4895.82 4.20027 -4.08623 0
M  V30 27914 N 4895.87 2.76189 -3.71603 0
M  V30 27915 H 4893.03 4.797 -7.24003 0
M  V30 27916 H 4892.76 3.69856 -5.84513 0
M  V30 27917 H 4893.63 6.10356 -5.41441 0
M  V30 27918 P 4897.59 7.20834 -5.23717 0
M  V30 27919 O 4897.81 8.66104 -5.38572 0
M  V30 27920 O 4898.38 6.33544 -6.1349 0
M  V30 27921 O 4897.84 6.7751 -3.72168 0
M  V30 27922 C 4896.9 7.20825 -2.7076 0
M  V30 27923 C 4897.63 7.45864 -1.40599 0
M  V30 27924 O 4897.84 6.17651 -0.734225 0
M  V30 27925 C 4899.03 8.05808 -1.51899 0
M  V30 27926 O 4899.42 8.74358 -0.335205 0
M  V30 27927 C 4899.91 6.83093 -1.70294 0
M  V30 27928 C 4899.2 5.79992 -0.836974 0
M  V30 27929 N 4899.25 4.41864 -1.38293 0
M  V30 27930 H 4896.41 8.13644 -3.0377 0
M  V30 27931 H 4896.14 6.42788 -2.55485 0
M  V30 27932 H 4897.01 8.12039 -0.792769 0
M  V30 27933 P 4900.97 8.91 -2.20316e-10 0
M  V30 27934 O 4901.19 10.1736 0.733766 0
M  V30 27935 O 4901.76 8.73247 -1.2395 0
M  V30 27936 O 4901.22 7.66872 0.971405 0
M  V30 27937 C 4900.28 7.42212 2.04614 0
M  V30 27938 C 4901.01 6.86059 3.24661 0
M  V30 27939 O 4901.22 5.42847 3.03646 0
M  V30 27940 C 4902.41 7.41196 3.50753 0
M  V30 27941 O 4902.8 7.27073 4.86816 0
M  V30 27942 C 4903.29 6.5273 2.63741 0
M  V30 27943 C 4902.58 5.1842 2.73198 0
M  V30 27944 N 4902.63 4.38668 1.47808 0
M  V30 27945 C 4902.78 3.02239 1.60048 0
M  V30 27946 O 4902.87 2.46459 2.67869 0
M  V30 27947 N 4902.82 2.32436 0.408571 0
M  V30 27948 C 4902.73 2.85471 -0.854993 0
M  V30 27949 O 4902.78 2.12566 -1.8531 0
M  V30 27950 C 4902.58 4.28918 -0.887335 0
M  V30 27951 C 4902.47 4.91066 -2.24619 0
M  V30 27952 C 4902.53 5.00349 0.255399 0
M  V30 27953 H 4899.79 8.36803 2.32493 0
M  V30 27954 H 4899.52 6.701 1.71105 0
M  V30 27955 H 4900.39 7.03551 4.13168 0
M  V30 27956 H 4903.04 4.59773 3.53894 0
M  V30 27957 H 4903.32 6.88995 1.59871 0
M  V30 27958 H 4904.32 6.46749 3.03687 0
M  V30 27959 H 4902.48 8.46908 3.20714 0
M  V30 27960 H 4902.41 6.08548 0.206986 0
M  V30 27961 H 4903.44 5.34836 -2.53099 0
M  V30 27962 H 4901.7 5.69638 -2.2291 0
M  V30 27963 H 4902.19 4.13971 -2.98044 0
M  V30 27964 H 4902.93 1.33211 0.474216 0
M  V30 27965 P 4904.35 7.20834 5.23717 0
M  V30 27966 O 4904.57 7.79853 6.57286 0
M  V30 27967 O 4905.14 7.79239 4.12957 0
M  V30 27968 O 4904.6 5.63315 5.29344 0
M  V30 27969 C 4903.66 4.80255 6.01876 0
M  V30 27970 C 4904.39 3.64202 6.65911 0
M  V30 27971 O 4904.6 2.60694 5.64732 0
M  V30 27972 C 4905.79 3.93473 7.1943 0
M  V30 27973 O 4906.18 3.02071 8.21205 0
M  V30 27974 C 4906.67 3.73047 5.97036 0
M  V30 27975 C 4905.96 2.58828 5.25741 0
M  V30 27976 N 4906.01 2.68068 3.77503 0
M  V30 27977 H 4903.17 5.40332 6.79951 0
M  V30 27978 H 4902.9 4.41613 5.32378 0
M  V30 27979 H 4903.77 3.26331 7.47797 0
M  V30 27980 P 4907.73 2.75334 8.47391 0
M  V30 27981 O 4907.95 2.44571 9.90142 0
M  V30 27982 O 4908.52 3.87688 7.92115 0
M  V30 27983 O 4907.98 1.4459 7.59357 0
M  V30 27984 C 4907.04 0.347608 7.69215 0
M  V30 27985 C 4907.77 -0.96767 7.52806 0
M  V30 27986 O 4907.98 -1.21036 6.1011 0
M  V30 27987 C 4909.17 -1.04544 8.13308 0
M  V30 27988 O 4909.56 -2.38311 8.41922 0
M  V30 27989 C 4910.05 -0.491279 7.02284 0
M  V30 27990 C 4909.34 -0.996264 5.77469 0
M  V30 27991 N 4909.39 -0.0501916 4.62973 0
M  V30 27992 H 4906.55 0.374722 8.67691 0
M  V30 27993 H 4906.28 0.443485 6.90277 0
M  V30 27994 H 4907.15 -1.75537 7.96793 0
M  V30 27995 P 4911.11 -2.75334 8.47391 0
M  V30 27996 O 4911.33 -3.84128 9.44797 0
M  V30 27997 O 4911.9 -1.51947 8.68712 0
M  V30 27998 O 4911.36 -3.29363 6.99321 0
M  V30 27999 C 4910.42 -4.24011 6.4274 0
M  V30 28000 C 4911.15 -5.20775 5.52155 0
M  V30 28001 O 4911.36 -4.56534 4.22446 0
M  V30 28002 C 4912.55 -5.62629 5.96531 0
M  V30 28003 O 4912.94 -6.87667 5.41053 0
M  V30 28004 C 4913.43 -4.52537 5.39283 0
M  V30 28005 C 4912.72 -4.20027 4.08623 0
M  V30 28006 N 4912.77 -2.76189 3.71603 0
M  V30 28007 H 4909.93 -4.797 7.24003 0
M  V30 28008 H 4909.66 -3.69856 5.84513 0
M  V30 28009 H 4910.53 -6.10356 5.41441 0
M  V30 28010 P 4914.49 -7.20834 5.23717 0
M  V30 28011 O 4914.71 -8.66189 5.38625 0
M  V30 28012 O 4915.28 -6.33615 6.1356 0
M  V30 28013 O 4914.74 -6.7751 3.72168 0
M  V30 28014 C 4913.8 -7.20732 2.70725 0
M  V30 28015 C 4914.53 -7.45864 1.40599 0
M  V30 28016 O 4914.74 -6.17651 0.734225 0
M  V30 28017 C 4915.93 -8.05808 1.51899 0
M  V30 28018 O 4916.32 -8.74358 0.335205 0
M  V30 28019 C 4916.81 -6.83093 1.70294 0
M  V30 28020 C 4916.1 -5.79992 0.836974 0
M  V30 28021 N 4916.15 -4.41769 1.38263 0
M  V30 28022 C 4916.3 -3.38591 0.481702 0
M  V30 28023 O 4916.39 -3.56839 -0.718452 0
M  V30 28024 N 4916.34 -2.1206 1.03569 0
M  V30 28025 C 4916.25 -1.80696 2.36966 0
M  V30 28026 O 4916.3 -0.630473 2.74862 0
M  V30 28027 C 4916.1 -2.94845 3.23898 0
M  V30 28028 C 4915.99 -2.65253 4.70362 0
M  V30 28029 C 4916.05 -4.19803 2.73435 0
M  V30 28030 H 4913.31 -8.13644 3.0377 0
M  V30 28031 H 4913.04 -6.42695 2.55448 0
M  V30 28032 H 4913.91 -8.12039 0.792769 0
M  V30 28033 H 4916.56 -5.79978 -0.160587 0
M  V30 28034 H 4916.84 -6.51379 2.75643 0
M  V30 28035 H 4917.83 -7.01734 1.34462 0
M  V30 28036 H 4916 -8.73674 2.38337 0
M  V30 28037 H 4915.93 -5.04492 3.4095 0
M  V30 28038 H 4916.96 -2.83924 5.1913 0
M  V30 28039 H 4915.22 -3.29824 5.15163 0
M  V30 28040 H 4915.71 -1.59723 4.84449 0
M  V30 28041 H 4916.45 -1.35644 0.399345 0
M  V30 28042 P 4917.87 -8.91 2.21425e-10 0
M  V30 28043 O 4918.09 -10.1726 -0.733694 0
M  V30 28044 O 4918.66 -8.73148 1.23936 0
M  V30 28045 O 4918.12 -7.66872 -0.971405 0
M  V30 28046 C 4917.18 -7.42309 -2.04641 0
M  V30 28047 C 4917.91 -6.86059 -3.24661 0
M  V30 28048 O 4918.12 -5.42847 -3.03646 0
M  V30 28049 C 4919.31 -7.41196 -3.50753 0
M  V30 28050 O 4919.7 -7.27073 -4.86816 0
M  V30 28051 C 4920.19 -6.5273 -2.63741 0
M  V30 28052 C 4919.48 -5.1842 -2.73198 0
M  V30 28053 N 4919.53 -4.38762 -1.4784 0
M  V30 28054 H 4916.69 -8.36803 -2.32493 0
M  V30 28055 H 4916.42 -6.70197 -1.71129 0
M  V30 28056 H 4917.29 -7.03551 -4.13168 0
M  V30 28057 P 4921.25 -7.20834 -5.23717 0
M  V30 28058 O 4921.47 -7.79853 -6.57286 0
M  V30 28059 O 4922.04 -7.79239 -4.12957 0
M  V30 28060 O 4921.5 -5.63315 -5.29344 0
M  V30 28061 C 4920.56 -4.80255 -6.01876 0
M  V30 28062 C 4921.29 -3.64202 -6.65911 0
M  V30 28063 O 4921.5 -2.60694 -5.64732 0
M  V30 28064 C 4922.69 -3.93473 -7.1943 0
M  V30 28065 O 4923.08 -3.02071 -8.21205 0
M  V30 28066 C 4923.57 -3.73047 -5.97036 0
M  V30 28067 C 4922.86 -2.58828 -5.25741 0
M  V30 28068 N 4922.91 -2.68068 -3.77503 0
M  V30 28069 H 4920.07 -5.40332 -6.79951 0
M  V30 28070 H 4919.8 -4.41613 -5.32378 0
M  V30 28071 H 4920.67 -3.26331 -7.47797 0
M  V30 28072 P 4924.63 -2.75334 -8.47391 0
M  V30 28073 O 4924.85 -2.44571 -9.90142 0
M  V30 28074 O 4925.42 -3.87688 -7.92115 0
M  V30 28075 O 4924.88 -1.4459 -7.59357 0
M  V30 28076 C 4923.94 -0.347608 -7.69215 0
M  V30 28077 C 4924.67 0.96767 -7.52806 0
M  V30 28078 O 4924.88 1.21036 -6.1011 0
M  V30 28079 C 4926.07 1.04544 -8.13308 0
M  V30 28080 O 4926.46 2.38311 -8.41922 0
M  V30 28081 C 4926.95 0.491279 -7.02284 0
M  V30 28082 C 4926.24 0.996264 -5.77469 0
M  V30 28083 N 4926.29 0.0501916 -4.62973 0
M  V30 28084 H 4923.45 -0.374722 -8.67691 0
M  V30 28085 H 4923.18 -0.443485 -6.90277 0
M  V30 28086 H 4924.05 1.75537 -7.96793 0
M  V30 28087 P 4928.01 2.75334 -8.47391 0
M  V30 28088 O 4928.23 3.84204 -9.44982 0
M  V30 28089 O 4928.8 1.51982 -8.68909 0
M  V30 28090 O 4928.26 3.29363 -6.99321 0
M  V30 28091 C 4927.32 4.24066 -6.42823 0
M  V30 28092 C 4928.05 5.20775 -5.52155 0
M  V30 28093 O 4928.26 4.56607 -4.22514 0
M  V30 28094 C 4929.45 5.62697 -5.96604 0
M  V30 28095 O 4929.84 6.87667 -5.41053 0
M  V30 28096 C 4930.33 4.52537 -5.39283 0
M  V30 28097 C 4929.62 4.20027 -4.08623 0
M  V30 28098 N 4929.67 2.76189 -3.71603 0
M  V30 28099 C 4929.59 1.66944 -4.54297 0
M  V30 28100 N 4929.66 0.536169 -3.91344 0
M  V30 28101 C 4929.81 0.901569 -2.58849 0
M  V30 28102 C 4929.94 0.146599 -1.40236 0
M  V30 28103 N 4929.95 -1.18234 -1.37046 0
M  V30 28104 N 4930.06 0.822941 -0.249738 0
M  V30 28105 C 4930.05 2.15179 -0.280525 0
M  V30 28106 N 4929.93 2.96414 -1.30822 0
M  V30 28107 C 4929.81 2.25804 -2.44748 0
M  V30 28108 H 4926.83 4.79756 -7.24086 0
M  V30 28109 H 4926.56 3.69963 -5.84682 0
M  V30 28110 H 4927.43 6.10431 -5.41508 0
M  V30 28111 H 4930.08 4.78816 -3.28024 0
M  V30 28112 H 4930.36 3.64957 -6.05871 0
M  V30 28113 H 4931.35 4.88748 -5.21323 0
M  V30 28114 H 4929.52 5.66789 -7.0643 0
M  V30 28115 H 4929.48 1.74684 -5.62396 0
M  V30 28116 H 4929.86 -1.71949 -2.24394 0
M  V30 28117 H 4930.05 -1.67511 -0.470742 0
M  V30 28118 H 4930.16 2.63704 0.6828 0
M  V30 28119 P 4931.39 7.20834 -5.23717 0
M  V30 28120 O 4931.61 8.66189 -5.38625 0
M  V30 28121 O 4932.18 6.33615 -6.1356 0
M  V30 28122 O 4931.64 6.7751 -3.72168 0
M  V30 28123 C 4930.7 7.20732 -2.70725 0
M  V30 28124 C 4931.43 7.45864 -1.40599 0
M  V30 28125 O 4931.64 6.17651 -0.734225 0
M  V30 28126 C 4932.83 8.05808 -1.51899 0
M  V30 28127 O 4933.22 8.74358 -0.335205 0
M  V30 28128 C 4933.71 6.83093 -1.70294 0
M  V30 28129 C 4933 5.79992 -0.836974 0
M  V30 28130 N 4933.05 4.41769 -1.38263 0
M  V30 28131 C 4933.2 3.38591 -0.481702 0
M  V30 28132 O 4933.29 3.56839 0.718452 0
M  V30 28133 N 4933.24 2.1206 -1.03569 0
M  V30 28134 C 4933.15 1.80696 -2.36966 0
M  V30 28135 O 4933.2 0.630473 -2.74862 0
M  V30 28136 C 4933 2.94845 -3.23898 0
M  V30 28137 C 4932.89 2.65253 -4.70362 0
M  V30 28138 C 4932.95 4.19803 -2.73435 0
M  V30 28139 H 4930.21 8.13644 -3.0377 0
M  V30 28140 H 4929.94 6.42695 -2.55448 0
M  V30 28141 H 4930.81 8.12039 -0.792769 0
M  V30 28142 H 4933.46 5.79978 0.160587 0
M  V30 28143 H 4933.74 6.51379 -2.75643 0
M  V30 28144 H 4934.73 7.01734 -1.34462 0
M  V30 28145 H 4932.9 8.73674 -2.38337 0
M  V30 28146 H 4932.83 5.04492 -3.4095 0
M  V30 28147 H 4933.86 2.83924 -5.1913 0
M  V30 28148 H 4932.12 3.29824 -5.15163 0
M  V30 28149 H 4932.61 1.59723 -4.84449 0
M  V30 28150 H 4933.35 1.35644 -0.399345 0
M  V30 28151 P 4934.77 8.91 -2.22534e-10 0
M  V30 28152 O 4934.99 10.1726 0.733694 0
M  V30 28153 O 4935.56 8.73148 -1.23936 0
M  V30 28154 O 4935.02 7.66872 0.971405 0
M  V30 28155 C 4934.08 7.42309 2.04641 0
M  V30 28156 C 4934.81 6.86059 3.24661 0
M  V30 28157 O 4935.02 5.42847 3.03646 0
M  V30 28158 C 4936.21 7.41196 3.50753 0
M  V30 28159 O 4936.6 7.27073 4.86816 0
M  V30 28160 C 4937.09 6.5273 2.63741 0
M  V30 28161 C 4936.38 5.1842 2.73198 0
M  V30 28162 N 4936.43 4.38762 1.4784 0
M  V30 28163 H 4933.59 8.36803 2.32493 0
M  V30 28164 H 4933.32 6.70197 1.71129 0
M  V30 28165 H 4934.19 7.03551 4.13168 0
M  V30 28166 P 4938.15 7.20834 5.23717 0
M  V30 28167 O 4938.37 7.7993 6.57351 0
M  V30 28168 O 4938.94 7.79328 4.13004 0
M  V30 28169 O 4938.4 5.63315 5.29344 0
M  V30 28170 C 4937.46 4.80193 6.01798 0
M  V30 28171 C 4938.19 3.64202 6.65911 0
M  V30 28172 O 4938.4 2.60694 5.64732 0
M  V30 28173 C 4939.59 3.93473 7.1943 0
M  V30 28174 O 4939.98 3.02071 8.21205 0
M  V30 28175 C 4940.47 3.73047 5.97036 0
M  V30 28176 C 4939.76 2.58828 5.25741 0
M  V30 28177 N 4939.81 2.6801 3.77422 0
M  V30 28178 C 4939.96 1.50443 3.07133 0
M  V30 28179 O 4940.05 0.419406 3.61576 0
M  V30 28180 N 4940 1.6403 1.69677 0
M  V30 28181 C 4939.91 2.81206 0.986255 0
M  V30 28182 O 4939.96 2.80892 -0.249754 0
M  V30 28183 C 4939.76 3.99158 1.80325 0
M  V30 28184 C 4939.65 5.29309 1.06921 0
M  V30 28185 C 4939.71 3.89779 3.1476 0
M  V30 28186 H 4936.97 5.40332 6.79951 0
M  V30 28187 H 4936.7 4.41549 5.32301 0
M  V30 28188 H 4937.57 3.26331 7.47797 0
M  V30 28189 H 4940.22 1.6395 5.56554 0
M  V30 28190 H 4940.5 4.63439 5.3432 0
M  V30 28191 H 4941.49 3.44728 6.25838 0
M  V30 28192 H 4939.66 4.96652 7.57263 0
M  V30 28193 H 4939.59 4.80159 3.74441 0
M  V30 28194 H 4940.62 5.81459 1.09608 0
M  V30 28195 H 4938.88 5.9187 1.54487 0
M  V30 28196 H 4939.37 5.10095 0.0220288 0
M  V30 28197 H 4940.11 0.798962 1.16664 0
M  V30 28198 P 4941.53 2.75334 8.47391 0
M  V30 28199 O 4941.75 2.44571 9.90142 0
M  V30 28200 O 4942.32 3.87688 7.92115 0
M  V30 28201 O 4941.78 1.4459 7.59357 0
M  V30 28202 C 4940.84 0.347608 7.69215 0
M  V30 28203 C 4941.57 -0.96767 7.52806 0
M  V30 28204 O 4941.78 -1.21036 6.1011 0
M  V30 28205 C 4942.97 -1.04544 8.13308 0
M  V30 28206 O 4943.36 -2.38311 8.41922 0
M  V30 28207 C 4943.85 -0.491279 7.02284 0
M  V30 28208 C 4943.14 -0.996264 5.77469 0
M  V30 28209 N 4943.19 -0.0501916 4.62973 0
M  V30 28210 H 4940.35 0.374722 8.67691 0
M  V30 28211 H 4940.08 0.443485 6.90277 0
M  V30 28212 H 4940.95 -1.75537 7.96793 0
M  V30 28213 P 4944.91 -2.75334 8.47391 0
M  V30 28214 O 4945.13 -3.84128 9.44797 0
M  V30 28215 O 4945.7 -1.51947 8.68712 0
M  V30 28216 O 4945.16 -3.29363 6.99321 0
M  V30 28217 C 4944.22 -4.24011 6.4274 0
M  V30 28218 C 4944.95 -5.20775 5.52155 0
M  V30 28219 O 4945.16 -4.56534 4.22446 0
M  V30 28220 C 4946.35 -5.62629 5.96531 0
M  V30 28221 O 4946.74 -6.87667 5.41053 0
M  V30 28222 C 4947.23 -4.52537 5.39283 0
M  V30 28223 C 4946.52 -4.20027 4.08623 0
M  V30 28224 N 4946.57 -2.76189 3.71603 0
M  V30 28225 H 4943.73 -4.797 7.24003 0
M  V30 28226 H 4943.46 -3.69856 5.84513 0
M  V30 28227 H 4944.33 -6.10356 5.41441 0
M  V30 28228 P 4948.29 -7.20834 5.23717 0
M  V30 28229 O 4948.51 -8.66189 5.38625 0
M  V30 28230 O 4949.08 -6.33615 6.1356 0
M  V30 28231 O 4948.54 -6.7751 3.72168 0
M  V30 28232 C 4947.6 -7.20732 2.70725 0
M  V30 28233 C 4948.33 -7.45864 1.40599 0
M  V30 28234 O 4948.54 -6.17651 0.734225 0
M  V30 28235 C 4949.73 -8.05808 1.51899 0
M  V30 28236 O 4950.12 -8.74358 0.335205 0
M  V30 28237 C 4950.61 -6.83093 1.70294 0
M  V30 28238 C 4949.9 -5.79992 0.836974 0
M  V30 28239 N 4949.95 -4.41769 1.38263 0
M  V30 28240 C 4950.1 -3.38591 0.481702 0
M  V30 28241 O 4950.19 -3.56839 -0.718452 0
M  V30 28242 N 4950.14 -2.1206 1.03569 0
M  V30 28243 C 4950.05 -1.80696 2.36966 0
M  V30 28244 O 4950.1 -0.630473 2.74862 0
M  V30 28245 C 4949.9 -2.94845 3.23898 0
M  V30 28246 C 4949.79 -2.65253 4.70362 0
M  V30 28247 C 4949.85 -4.19803 2.73435 0
M  V30 28248 H 4947.11 -8.13644 3.0377 0
M  V30 28249 H 4946.84 -6.42695 2.55448 0
M  V30 28250 H 4947.71 -8.12039 0.792769 0
M  V30 28251 H 4950.36 -5.79978 -0.160587 0
M  V30 28252 H 4950.64 -6.51379 2.75643 0
M  V30 28253 H 4951.63 -7.01734 1.34462 0
M  V30 28254 H 4949.8 -8.73674 2.38337 0
M  V30 28255 H 4949.73 -5.04492 3.4095 0
M  V30 28256 H 4950.76 -2.83924 5.1913 0
M  V30 28257 H 4949.02 -3.29824 5.15163 0
M  V30 28258 H 4949.51 -1.59723 4.84449 0
M  V30 28259 H 4950.25 -1.35644 0.399345 0
M  V30 28260 P 4951.67 -8.91 2.23643e-10 0
M  V30 28261 O 4951.89 -10.1726 -0.733694 0
M  V30 28262 O 4952.46 -8.73148 1.23936 0
M  V30 28263 O 4951.92 -7.66872 -0.971405 0
M  V30 28264 C 4950.98 -7.42309 -2.04641 0
M  V30 28265 C 4951.71 -6.86059 -3.24661 0
M  V30 28266 O 4951.92 -5.42847 -3.03646 0
M  V30 28267 C 4953.11 -7.41196 -3.50753 0
M  V30 28268 O 4953.5 -7.27073 -4.86816 0
M  V30 28269 C 4953.99 -6.5273 -2.63741 0
M  V30 28270 C 4953.28 -5.1842 -2.73198 0
M  V30 28271 N 4953.33 -4.38762 -1.4784 0
M  V30 28272 H 4950.49 -8.36803 -2.32493 0
M  V30 28273 H 4950.22 -6.70197 -1.71129 0
M  V30 28274 H 4951.09 -7.03551 -4.13168 0
M  V30 28275 P 4955.05 -7.20834 -5.23717 0
M  V30 28276 O 4955.27 -7.79853 -6.57286 0
M  V30 28277 O 4955.84 -7.79239 -4.12957 0
M  V30 28278 O 4955.3 -5.63315 -5.29344 0
M  V30 28279 C 4954.36 -4.80255 -6.01876 0
M  V30 28280 C 4955.09 -3.64202 -6.65911 0
M  V30 28281 O 4955.3 -2.60694 -5.64732 0
M  V30 28282 C 4956.49 -3.93473 -7.1943 0
M  V30 28283 O 4956.88 -3.02071 -8.21205 0
M  V30 28284 C 4957.37 -3.73047 -5.97036 0
M  V30 28285 C 4956.66 -2.58828 -5.25741 0
M  V30 28286 N 4956.71 -2.68068 -3.77503 0
M  V30 28287 C 4956.63 -3.79715 -2.96723 0
M  V30 28288 N 4956.71 -3.5377 -1.68852 0
M  V30 28289 C 4956.85 -2.15054 -1.63254 0
M  V30 28290 C 4956.98 -1.28964 -0.518571 0
M  V30 28291 N 4957.1 0.0538097 -0.918425 0
M  V30 28292 C 4957.1 0.494275 -2.22578 0
M  V30 28293 N 4957.23 1.81086 -2.40434 0
M  V30 28294 N 4956.97 -0.313645 -3.27502 0
M  V30 28295 C 4956.85 -1.61829 -2.91033 0
M  V30 28296 H 4953.87 -5.40332 -6.79951 0
M  V30 28297 H 4953.6 -4.41613 -5.32378 0
M  V30 28298 H 4954.47 -3.26331 -7.47797 0
M  V30 28299 P 4958.43 -2.75334 -8.47391 0
M  V30 28300 O 4958.65 -2.44571 -9.90142 0
M  V30 28301 O 4959.22 -3.87688 -7.92115 0
M  V30 28302 O 4958.68 -1.4459 -7.59357 0
M  V30 28303 C 4957.74 -0.347608 -7.69215 0
M  V30 28304 C 4958.47 0.96767 -7.52806 0
M  V30 28305 O 4958.68 1.21036 -6.1011 0
M  V30 28306 C 4959.87 1.04544 -8.13308 0
M  V30 28307 O 4960.26 2.38311 -8.41922 0
M  V30 28308 C 4960.75 0.491279 -7.02284 0
M  V30 28309 C 4960.04 0.996264 -5.77469 0
M  V30 28310 N 4960.09 0.0501916 -4.62973 0
M  V30 28311 H 4957.25 -0.374722 -8.67691 0
M  V30 28312 H 4956.98 -0.443485 -6.90277 0
M  V30 28313 H 4957.85 1.75537 -7.96793 0
M  V30 28314 P 4961.81 2.75334 -8.47391 0
M  V30 28315 O 4962.03 3.84128 -9.44797 0
M  V30 28316 O 4962.6 1.51947 -8.68712 0
M  V30 28317 O 4962.06 3.29363 -6.99321 0
M  V30 28318 C 4961.12 4.24011 -6.4274 0
M  V30 28319 C 4961.85 5.20775 -5.52155 0
M  V30 28320 O 4962.06 4.56534 -4.22446 0
M  V30 28321 C 4963.25 5.62629 -5.96531 0
M  V30 28322 O 4963.64 6.87667 -5.41053 0
M  V30 28323 C 4964.13 4.52537 -5.39283 0
M  V30 28324 C 4963.42 4.20027 -4.08623 0
M  V30 28325 N 4963.47 2.76189 -3.71603 0
M  V30 28326 H 4960.63 4.797 -7.24003 0
M  V30 28327 H 4960.36 3.69856 -5.84513 0
M  V30 28328 H 4961.23 6.10356 -5.41441 0
M  V30 28329 P 4965.19 7.20834 -5.23717 0
M  V30 28330 O 4965.41 8.66104 -5.38572 0
M  V30 28331 O 4965.98 6.33544 -6.1349 0
M  V30 28332 O 4965.44 6.7751 -3.72168 0
M  V30 28333 C 4964.5 7.20825 -2.7076 0
M  V30 28334 C 4965.23 7.45864 -1.40599 0
M  V30 28335 O 4965.44 6.17651 -0.734225 0
M  V30 28336 C 4966.63 8.05808 -1.51899 0
M  V30 28337 O 4967.02 8.74358 -0.335205 0
M  V30 28338 C 4967.51 6.83093 -1.70294 0
M  V30 28339 C 4966.8 5.79992 -0.836974 0
M  V30 28340 N 4966.85 4.41864 -1.38293 0
M  V30 28341 H 4964.01 8.13644 -3.0377 0
M  V30 28342 H 4963.74 6.42788 -2.55485 0
M  V30 28343 H 4964.61 8.12039 -0.792769 0
M  V30 28344 P 4968.57 8.91 -2.24752e-10 0
M  V30 28345 O 4968.79 10.1746 0.733838 0
M  V30 28346 O 4969.36 8.73346 -1.23964 0
M  V30 28347 O 4968.82 7.66872 0.971405 0
M  V30 28348 C 4967.88 7.42405 2.04668 0
M  V30 28349 C 4968.61 6.86059 3.24661 0
M  V30 28350 O 4968.82 5.42934 3.03695 0
M  V30 28351 C 4970.01 7.41287 3.50796 0
M  V30 28352 O 4970.4 7.27073 4.86816 0
M  V30 28353 C 4970.89 6.5273 2.63741 0
M  V30 28354 C 4970.18 5.1842 2.73198 0
M  V30 28355 N 4970.23 4.38762 1.4784 0
M  V30 28356 C 4970.15 4.83651 0.183876 0
M  V30 28357 N 4970.22 3.88759 -0.699393 0
M  V30 28358 C 4970.37 2.7404 0.0575568 0
M  V30 28359 C 4970.5 1.37902 -0.293928 0
M  V30 28360 N 4970.51 0.938021 -1.54797 0
M  V30 28361 N 4970.62 0.491817 0.70549 0
M  V30 28362 C 4970.61 0.931735 1.95979 0
M  V30 28363 N 4970.49 2.16017 2.41481 0
M  V30 28364 C 4970.37 3.02547 1.39121 0
M  V30 28365 H 4967.39 8.36899 2.3252 0
M  V30 28366 H 4967.12 6.70391 1.71179 0
M  V30 28367 H 4967.99 7.03638 4.13219 0
M  V30 28368 H 4970.64 4.59931 3.54016 0
M  V30 28369 H 4970.92 6.88995 1.59871 0
M  V30 28370 H 4971.91 6.4684 3.0373 0
M  V30 28371 H 4970.08 8.47002 3.20749 0
M  V30 28372 H 4970.04 5.8885 -0.0765548 0
M  V30 28373 H 4970.42 1.60276 -2.32875 0
M  V30 28374 H 4970.61 -0.0699355 -1.73859 0
M  V30 28375 H 4970.72 0.165507 2.71897 0
M  V30 28376 P 4971.95 7.20834 5.23717 0
M  V30 28377 O 4972.17 7.79853 6.57286 0
M  V30 28378 O 4972.74 7.79239 4.12957 0
M  V30 28379 O 4972.2 5.63315 5.29344 0
M  V30 28380 C 4971.26 4.80255 6.01876 0
M  V30 28381 C 4971.99 3.64202 6.65911 0
M  V30 28382 O 4972.2 2.60694 5.64732 0
M  V30 28383 C 4973.39 3.93473 7.1943 0
M  V30 28384 O 4973.78 3.02071 8.21205 0
M  V30 28385 C 4974.27 3.73047 5.97036 0
M  V30 28386 C 4973.56 2.58828 5.25741 0
M  V30 28387 N 4973.61 2.68068 3.77503 0
M  V30 28388 H 4970.77 5.40332 6.79951 0
M  V30 28389 H 4970.5 4.41613 5.32378 0
M  V30 28390 H 4971.37 3.26331 7.47797 0
M  V30 28391 P 4975.33 2.75334 8.47391 0
M  V30 28392 O 4975.55 2.44595 9.90239 0
M  V30 28393 O 4976.12 3.87732 7.92204 0
M  V30 28394 O 4975.58 1.4459 7.59357 0
M  V30 28395 C 4974.64 0.347563 7.69115 0
M  V30 28396 C 4975.37 -0.96767 7.52806 0
M  V30 28397 O 4975.58 -1.21036 6.1011 0
M  V30 28398 C 4976.77 -1.04544 8.13308 0
M  V30 28399 O 4977.16 -2.38311 8.41922 0
M  V30 28400 C 4977.65 -0.491279 7.02284 0
M  V30 28401 C 4976.94 -0.996264 5.77469 0
M  V30 28402 N 4976.99 -0.0501808 4.62873 0
M  V30 28403 C 4977.14 -0.588177 3.36904 0
M  V30 28404 O 4977.23 -1.78598 3.17173 0
M  V30 28405 N 4977.18 0.329694 2.33686 0
M  V30 28406 C 4977.09 1.6953 2.45079 0
M  V30 28407 O 4977.14 2.41926 1.44899 0
M  V30 28408 C 4976.94 2.16933 3.80505 0
M  V30 28409 C 4976.83 3.65373 3.97621 0
M  V30 28410 C 4976.89 1.30326 4.83752 0
M  V30 28411 H 4974.15 0.374722 8.67691 0
M  V30 28412 H 4973.88 0.443421 6.90177 0
M  V30 28413 H 4974.75 -1.75537 7.96793 0
M  V30 28414 H 4977.4 -1.94496 5.46629 0
M  V30 28415 H 4977.68 0.608651 7.04676 0
M  V30 28416 H 4978.67 -0.889672 7.08939 0
M  V30 28417 H 4976.84 -0.43308 9.04564 0
M  V30 28418 H 4976.77 1.68366 5.8516 0
M  V30 28419 H 4977.8 4.05985 4.30448 0
M  V30 28420 H 4976.06 3.88028 4.72875 0
M  V30 28421 H 4976.55 4.11381 3.01609 0
M  V30 28422 H 4977.29 -0.0393617 1.41345 0
M  V30 28423 P 4978.71 -2.75334 8.47391 0
M  V30 28424 O 4978.93 -3.84128 9.44797 0
M  V30 28425 O 4979.5 -1.51947 8.68712 0
M  V30 28426 O 4978.96 -3.29363 6.99321 0
M  V30 28427 C 4978.02 -4.24011 6.4274 0
M  V30 28428 C 4978.75 -5.20775 5.52155 0
M  V30 28429 O 4978.96 -4.56534 4.22446 0
M  V30 28430 C 4980.15 -5.62629 5.96531 0
M  V30 28431 O 4980.54 -6.87667 5.41053 0
M  V30 28432 C 4981.03 -4.52537 5.39283 0
M  V30 28433 C 4980.32 -4.20027 4.08623 0
M  V30 28434 N 4980.37 -2.76189 3.71603 0
M  V30 28435 H 4977.53 -4.797 7.24003 0
M  V30 28436 H 4977.26 -3.69856 5.84513 0
M  V30 28437 H 4978.13 -6.10356 5.41441 0
M  V30 28438 P 4982.09 -7.20834 5.23717 0
M  V30 28439 O 4982.31 -8.66104 5.38572 0
M  V30 28440 O 4982.88 -6.33544 6.1349 0
M  V30 28441 O 4982.34 -6.7751 3.72168 0
M  V30 28442 C 4981.4 -7.20825 2.7076 0
M  V30 28443 C 4982.13 -7.45864 1.40599 0
M  V30 28444 O 4982.34 -6.17651 0.734225 0
M  V30 28445 C 4983.53 -8.05808 1.51899 0
M  V30 28446 O 4983.92 -8.74358 0.335205 0
M  V30 28447 C 4984.41 -6.83093 1.70294 0
M  V30 28448 C 4983.7 -5.79992 0.836974 0
M  V30 28449 N 4983.75 -4.41864 1.38293 0
M  V30 28450 H 4980.91 -8.13644 3.0377 0
M  V30 28451 H 4980.64 -6.42788 2.55485 0
M  V30 28452 H 4981.51 -8.12039 0.792769 0
M  V30 28453 P 4985.47 -8.91 2.25861e-10 0
M  V30 28454 O 4985.69 -10.1736 -0.733766 0
M  V30 28455 O 4986.26 -8.73247 1.2395 0
M  V30 28456 O 4985.72 -7.66872 -0.971405 0
M  V30 28457 C 4984.78 -7.42212 -2.04614 0
M  V30 28458 C 4985.51 -6.86059 -3.24661 0
M  V30 28459 O 4985.72 -5.42847 -3.03646 0
M  V30 28460 C 4986.91 -7.41196 -3.50753 0
M  V30 28461 O 4987.3 -7.27073 -4.86816 0
M  V30 28462 C 4987.79 -6.5273 -2.63741 0
M  V30 28463 C 4987.08 -5.1842 -2.73198 0
M  V30 28464 N 4987.13 -4.38668 -1.47808 0
M  V30 28465 C 4987.28 -3.02239 -1.60048 0
M  V30 28466 O 4987.37 -2.46459 -2.67869 0
M  V30 28467 N 4987.32 -2.32436 -0.408571 0
M  V30 28468 C 4987.23 -2.85471 0.854993 0
M  V30 28469 O 4987.28 -2.12566 1.8531 0
M  V30 28470 C 4987.08 -4.28918 0.887335 0
M  V30 28471 C 4986.97 -4.91066 2.24619 0
M  V30 28472 C 4987.03 -5.00349 -0.255399 0
M  V30 28473 H 4984.29 -8.36803 -2.32493 0
M  V30 28474 H 4984.02 -6.701 -1.71105 0
M  V30 28475 H 4984.89 -7.03551 -4.13168 0
M  V30 28476 H 4987.54 -4.59773 -3.53894 0
M  V30 28477 H 4987.82 -6.88995 -1.59871 0
M  V30 28478 H 4988.81 -6.46749 -3.03687 0
M  V30 28479 H 4986.98 -8.46908 -3.20714 0
M  V30 28480 H 4986.91 -6.08548 -0.206986 0
M  V30 28481 H 4987.94 -5.34836 2.53099 0
M  V30 28482 H 4986.2 -5.69638 2.2291 0
M  V30 28483 H 4986.69 -4.13971 2.98044 0
M  V30 28484 H 4987.43 -1.33211 -0.474216 0
M  V30 28485 P 4988.85 -7.20834 -5.23717 0
M  V30 28486 O 4989.07 -7.80006 -6.57415 0
M  V30 28487 O 4989.64 -7.79416 -4.13051 0
M  V30 28488 O 4989.1 -5.63315 -5.29344 0
M  V30 28489 C 4988.16 -4.80318 -6.01954 0
M  V30 28490 C 4988.89 -3.64202 -6.65911 0
M  V30 28491 O 4989.1 -2.60736 -5.64823 0
M  V30 28492 C 4990.29 -3.93521 -7.19518 0
M  V30 28493 O 4990.68 -3.02071 -8.21205 0
M  V30 28494 C 4991.17 -3.73047 -5.97036 0
M  V30 28495 C 4990.46 -2.58828 -5.25741 0
M  V30 28496 N 4990.51 -2.68068 -3.77503 0
M  V30 28497 H 4987.67 -5.40394 -6.8003 0
M  V30 28498 H 4987.4 -4.41741 -5.32532 0
M  V30 28499 H 4988.27 -3.26371 -7.47889 0
M  V30 28500 H 4990.92 -1.64007 -5.56746 0
M  V30 28501 H 4991.2 -4.63439 -5.3432 0
M  V30 28502 H 4992.19 -3.44776 -6.25925 0
M  V30 28503 H 4990.36 -4.96707 -7.57347 0
M  V30 28504 P 4992.23 -2.75334 -8.47391 0
M  V30 28505 O 4992.45 -2.44595 -9.90239 0
M  V30 28506 O 4993.02 -3.87732 -7.92204 0
M  V30 28507 O 4992.48 -1.4459 -7.59357 0
M  V30 28508 C 4991.54 -0.347563 -7.69115 0
M  V30 28509 C 4992.27 0.96767 -7.52806 0
M  V30 28510 O 4992.48 1.21036 -6.1011 0
M  V30 28511 C 4993.67 1.04544 -8.13308 0
M  V30 28512 O 4994.06 2.38311 -8.41922 0
M  V30 28513 C 4994.55 0.491279 -7.02284 0
M  V30 28514 C 4993.84 0.996264 -5.77469 0
M  V30 28515 N 4993.89 0.0501808 -4.62873 0
M  V30 28516 C 4994.04 0.588177 -3.36904 0
M  V30 28517 O 4994.13 1.78598 -3.17173 0
M  V30 28518 N 4994.08 -0.329694 -2.33686 0
M  V30 28519 C 4993.99 -1.6953 -2.45079 0
M  V30 28520 C 4993.84 -2.16933 -3.80505 0
M  V30 28521 C 4993.79 -1.30326 -4.83752 0
M  V30 28522 H 4991.05 -0.374722 -8.67691 0
M  V30 28523 H 4990.78 -0.443421 -6.90177 0
M  V30 28524 H 4991.65 1.75537 -7.96793 0
M  V30 28525 H 4994.3 1.94496 -5.46629 0
M  V30 28526 H 4994.58 -0.608651 -7.04676 0
M  V30 28527 H 4995.57 0.889672 -7.08939 0
M  V30 28528 H 4993.74 0.43308 -9.04564 0
M  V30 28529 H 4993.67 -1.68366 -5.8516 0
M  V30 28530 P 4995.61 2.75334 -8.47391 0
M  V30 28531 O 4995.83 3.84128 -9.44797 0
M  V30 28532 O 4996.4 1.51947 -8.68712 0
M  V30 28533 O 4995.86 3.29363 -6.99321 0
M  V30 28534 C 4994.92 4.24011 -6.4274 0
M  V30 28535 C 4995.65 5.20775 -5.52155 0
M  V30 28536 O 4995.86 4.56534 -4.22446 0
M  V30 28537 C 4997.05 5.62629 -5.96531 0
M  V30 28538 O 4997.44 6.87667 -5.41053 0
M  V30 28539 C 4997.93 4.52537 -5.39283 0
M  V30 28540 C 4997.22 4.20027 -4.08623 0
M  V30 28541 N 4997.27 2.76189 -3.71603 0
M  V30 28542 C 4997.19 1.64862 -4.52822 0
M  V30 28543 N 4997.27 0.512671 -3.88633 0
M  V30 28544 C 4997.41 0.888083 -2.54977 0
M  V30 28545 C 4997.54 0.094668 -1.38677 0
M  V30 28546 O 4997.56 -1.13053 -1.28163 0
M  V30 28547 N 4997.66 0.890102 -0.232633 0
M  V30 28548 C 4997.66 2.26958 -0.21772 0
M  V30 28549 N 4997.79 2.84626 0.97925 0
M  V30 28550 N 4997.53 3.0178 -1.31033 0
M  V30 28551 C 4997.41 2.26781 -2.43843 0
M  V30 28552 H 4994.43 4.797 -7.24003 0
M  V30 28553 H 4994.16 3.69856 -5.84513 0
M  V30 28554 H 4995.03 6.10356 -5.41441 0
M  V30 28555 H 4997.68 4.79061 -3.27488 0
M  V30 28556 H 4997.96 3.64906 -6.05785 0
M  V30 28557 H 4998.95 4.8868 -5.2125 0
M  V30 28558 H 4997.12 5.66726 -7.06352 0
M  V30 28559 H 4997.07 1.71169 -5.60966 0
M  V30 28560 H 4997.75 0.419134 0.644739 0
M  V30 28561 H 4997.79 3.87332 1.06098 0
M  V30 28562 H 4997.89 2.26417 1.82483 0
M  V30 28563 P 4998.99 7.20834 -5.23717 0
M  V30 28564 O 4999.21 8.66104 -5.38572 0
M  V30 28565 O 4999.78 6.33544 -6.1349 0
M  V30 28566 O 4999.24 6.7751 -3.72168 0
M  V30 28567 C 4998.3 7.20825 -2.7076 0
M  V30 28568 C 4999.03 7.45864 -1.40599 0
M  V30 28569 O 4999.24 6.17651 -0.734225 0
M  V30 28570 C 5000.43 8.05808 -1.51899 0
M  V30 28571 O 5000.82 8.74358 -0.335205 0
M  V30 28572 C 5001.31 6.83093 -1.70294 0
M  V30 28573 C 5000.6 5.79992 -0.836974 0
M  V30 28574 N 5000.65 4.41864 -1.38293 0
M  V30 28575 H 4997.81 8.13644 -3.0377 0
M  V30 28576 H 4997.54 6.42788 -2.55485 0
M  V30 28577 H 4998.41 8.12039 -0.792769 0
M  V30 28578 P 5002.37 8.91 -2.2697e-10 0
M  V30 28579 O 5002.59 10.1736 0.733766 0
M  V30 28580 O 5003.16 8.73247 -1.2395 0
M  V30 28581 O 5002.62 7.66872 0.971405 0
M  V30 28582 C 5001.68 7.42212 2.04614 0
M  V30 28583 C 5002.41 6.86059 3.24661 0
M  V30 28584 O 5002.62 5.42847 3.03646 0
M  V30 28585 C 5003.81 7.41196 3.50753 0
M  V30 28586 O 5004.2 7.27073 4.86816 0
M  V30 28587 C 5004.69 6.5273 2.63741 0
M  V30 28588 C 5003.98 5.1842 2.73198 0
M  V30 28589 N 5004.03 4.38668 1.47808 0
M  V30 28590 C 5004.18 3.02239 1.60048 0
M  V30 28591 O 5004.27 2.46459 2.67869 0
M  V30 28592 N 5004.22 2.32436 0.408571 0
M  V30 28593 C 5004.13 2.85471 -0.854993 0
M  V30 28594 O 5004.18 2.12566 -1.8531 0
M  V30 28595 C 5003.98 4.28918 -0.887335 0
M  V30 28596 C 5003.87 4.91066 -2.24619 0
M  V30 28597 C 5003.93 5.00349 0.255399 0
M  V30 28598 H 5001.19 8.36803 2.32493 0
M  V30 28599 H 5000.92 6.701 1.71105 0
M  V30 28600 H 5001.79 7.03551 4.13168 0
M  V30 28601 H 5004.44 4.59773 3.53894 0
M  V30 28602 H 5004.72 6.88995 1.59871 0
M  V30 28603 H 5005.71 6.46749 3.03687 0
M  V30 28604 H 5003.88 8.46908 3.20714 0
M  V30 28605 H 5003.81 6.08548 0.206986 0
M  V30 28606 H 5004.84 5.34836 -2.53099 0
M  V30 28607 H 5003.1 5.69638 -2.2291 0
M  V30 28608 H 5003.59 4.13971 -2.98044 0
M  V30 28609 H 5004.33 1.33211 0.474216 0
M  V30 28610 P 5005.75 7.20834 5.23717 0
M  V30 28611 O 5005.97 7.79853 6.57286 0
M  V30 28612 O 5006.54 7.79239 4.12957 0
M  V30 28613 O 5006 5.63315 5.29344 0
M  V30 28614 C 5005.06 4.80255 6.01876 0
M  V30 28615 C 5005.79 3.64202 6.65911 0
M  V30 28616 O 5006 2.60694 5.64732 0
M  V30 28617 C 5007.19 3.93473 7.1943 0
M  V30 28618 O 5007.58 3.02071 8.21205 0
M  V30 28619 C 5008.07 3.73047 5.97036 0
M  V30 28620 C 5007.36 2.58828 5.25741 0
M  V30 28621 N 5007.41 2.68068 3.77503 0
M  V30 28622 H 5004.57 5.40332 6.79951 0
M  V30 28623 H 5004.3 4.41613 5.32378 0
M  V30 28624 H 5005.17 3.26331 7.47797 0
M  V30 28625 P 5009.13 2.75334 8.47391 0
M  V30 28626 O 5009.35 2.44571 9.90142 0
M  V30 28627 O 5009.92 3.87688 7.92115 0
M  V30 28628 O 5009.38 1.4459 7.59357 0
M  V30 28629 C 5008.44 0.347608 7.69215 0
M  V30 28630 C 5009.17 -0.96767 7.52806 0
M  V30 28631 O 5009.38 -1.21036 6.1011 0
M  V30 28632 C 5010.57 -1.04544 8.13308 0
M  V30 28633 O 5010.96 -2.38311 8.41922 0
M  V30 28634 C 5011.45 -0.491279 7.02284 0
M  V30 28635 C 5010.74 -0.996264 5.77469 0
M  V30 28636 N 5010.79 -0.0501916 4.62973 0
M  V30 28637 H 5007.95 0.374722 8.67691 0
M  V30 28638 H 5007.68 0.443485 6.90277 0
M  V30 28639 H 5008.55 -1.75537 7.96793 0
M  V30 28640 P 5012.51 -2.75334 8.47391 0
M  V30 28641 O 5012.73 -3.84166 9.4489 0
M  V30 28642 O 5013.3 -1.51964 8.6881 0
M  V30 28643 O 5012.76 -3.29363 6.99321 0
M  V30 28644 C 5011.82 -4.23956 6.42656 0
M  V30 28645 C 5012.55 -5.20775 5.52155 0
M  V30 28646 O 5012.76 -4.56534 4.22446 0
M  V30 28647 C 5013.95 -5.62629 5.96531 0
M  V30 28648 O 5014.34 -6.87667 5.41053 0
M  V30 28649 C 5014.83 -4.52537 5.39283 0
M  V30 28650 C 5014.12 -4.20027 4.08623 0
M  V30 28651 N 5014.17 -2.7613 3.71522 0
M  V30 28652 C 5014.32 -2.45612 2.37989 0
M  V30 28653 O 5014.41 -3.30919 1.51621 0
M  V30 28654 N 5014.36 -1.10684 2.08435 0
M  V30 28655 C 5014.27 -0.0690084 2.9792 0
M  V30 28656 O 5014.32 1.10553 2.59426 0
M  V30 28657 C 5014.12 -0.481522 4.35345 0
M  V30 28658 C 5014.01 0.618778 5.36443 0
M  V30 28659 C 5014.07 -1.78906 4.67968 0
M  V30 28660 H 5011.33 -4.797 7.24003 0
M  V30 28661 H 5011.06 -3.69802 5.84429 0
M  V30 28662 H 5011.93 -6.10356 5.41441 0
M  V30 28663 H 5014.58 -4.78651 3.27911 0
M  V30 28664 H 5014.86 -3.64957 6.05871 0
M  V30 28665 H 5015.85 -4.8868 5.2125 0
M  V30 28666 H 5014.02 -5.66726 7.06352 0
M  V30 28667 H 5013.95 -2.07737 5.72367 0
M  V30 28668 H 5014.98 0.754375 5.86871 0
M  V30 28669 H 5013.24 0.359721 6.10641 0
M  V30 28670 H 5013.73 1.55533 4.8581 0
M  V30 28671 H 5014.47 -0.862651 1.12037 0
M  V30 28672 P 5015.89 -7.20834 5.23717 0
M  V30 28673 O 5016.11 -8.66104 5.38572 0
M  V30 28674 O 5016.68 -6.33544 6.1349 0
M  V30 28675 O 5016.14 -6.7751 3.72168 0
M  V30 28676 C 5015.2 -7.20825 2.7076 0
M  V30 28677 C 5015.93 -7.45864 1.40599 0
M  V30 28678 O 5016.14 -6.17651 0.734225 0
M  V30 28679 C 5017.33 -8.05808 1.51899 0
M  V30 28680 O 5017.72 -8.74358 0.335205 0
M  V30 28681 C 5018.21 -6.83093 1.70294 0
M  V30 28682 C 5017.5 -5.79992 0.836974 0
M  V30 28683 N 5017.55 -4.41864 1.38293 0
M  V30 28684 H 5014.71 -8.13644 3.0377 0
M  V30 28685 H 5014.44 -6.42788 2.55485 0
M  V30 28686 H 5015.31 -8.12039 0.792769 0
M  V30 28687 P 5019.27 -8.91 2.28079e-10 0
M  V30 28688 O 5019.49 -10.1736 -0.733766 0
M  V30 28689 O 5020.06 -8.73247 1.2395 0
M  V30 28690 O 5019.52 -7.66872 -0.971405 0
M  V30 28691 C 5018.58 -7.42212 -2.04614 0
M  V30 28692 C 5019.31 -6.86059 -3.24661 0
M  V30 28693 O 5019.52 -5.42847 -3.03646 0
M  V30 28694 C 5020.71 -7.41196 -3.50753 0
M  V30 28695 O 5021.1 -7.27073 -4.86816 0
M  V30 28696 C 5021.59 -6.5273 -2.63741 0
M  V30 28697 C 5020.88 -5.1842 -2.73198 0
M  V30 28698 N 5020.93 -4.38668 -1.47808 0
M  V30 28699 C 5021.08 -3.02239 -1.60048 0
M  V30 28700 O 5021.17 -2.46459 -2.67869 0
M  V30 28701 N 5021.12 -2.32436 -0.408571 0
M  V30 28702 C 5021.03 -2.85471 0.854993 0
M  V30 28703 O 5021.08 -2.12566 1.8531 0
M  V30 28704 C 5020.88 -4.28918 0.887335 0
M  V30 28705 C 5020.77 -4.91066 2.24619 0
M  V30 28706 C 5020.83 -5.00349 -0.255399 0
M  V30 28707 H 5018.09 -8.36803 -2.32493 0
M  V30 28708 H 5017.82 -6.701 -1.71105 0
M  V30 28709 H 5018.69 -7.03551 -4.13168 0
M  V30 28710 H 5021.34 -4.59773 -3.53894 0
M  V30 28711 H 5021.62 -6.88995 -1.59871 0
M  V30 28712 H 5022.61 -6.46749 -3.03687 0
M  V30 28713 H 5020.78 -8.46908 -3.20714 0
M  V30 28714 H 5020.71 -6.08548 -0.206986 0
M  V30 28715 H 5021.74 -5.34836 2.53099 0
M  V30 28716 H 5020 -5.69638 2.2291 0
M  V30 28717 H 5020.49 -4.13971 2.98044 0
M  V30 28718 H 5021.23 -1.33211 -0.474216 0
M  V30 28719 P 5022.65 -7.20834 -5.23717 0
M  V30 28720 O 5022.87 -7.7993 -6.57351 0
M  V30 28721 O 5023.44 -7.79328 -4.13004 0
M  V30 28722 O 5022.9 -5.63315 -5.29344 0
M  V30 28723 C 5021.96 -4.80193 -6.01798 0
M  V30 28724 C 5022.69 -3.64202 -6.65911 0
M  V30 28725 O 5022.9 -2.60694 -5.64732 0
M  V30 28726 C 5024.09 -3.93473 -7.1943 0
M  V30 28727 O 5024.48 -3.02071 -8.21205 0
M  V30 28728 C 5024.97 -3.73047 -5.97036 0
M  V30 28729 C 5024.26 -2.58828 -5.25741 0
M  V30 28730 N 5024.31 -2.6801 -3.77422 0
M  V30 28731 C 5024.46 -1.50443 -3.07133 0
M  V30 28732 O 5024.55 -0.419406 -3.61576 0
M  V30 28733 N 5024.5 -1.6403 -1.69677 0
M  V30 28734 C 5024.41 -2.81206 -0.986255 0
M  V30 28735 C 5024.26 -3.99158 -1.80325 0
M  V30 28736 C 5024.21 -3.89779 -3.1476 0
M  V30 28737 H 5021.47 -5.40332 -6.79951 0
M  V30 28738 H 5021.2 -4.41549 -5.32301 0
M  V30 28739 H 5022.07 -3.26331 -7.47797 0
M  V30 28740 H 5024.72 -1.6395 -5.56554 0
M  V30 28741 H 5025 -4.63439 -5.3432 0
M  V30 28742 H 5025.99 -3.44728 -6.25838 0
M  V30 28743 H 5024.16 -4.96652 -7.57263 0
M  V30 28744 H 5024.09 -4.80159 -3.74441 0
M  V30 28745 P 5026.03 -2.75334 -8.47391 0
M  V30 28746 O 5026.25 -2.44571 -9.90142 0
M  V30 28747 O 5026.82 -3.87688 -7.92115 0
M  V30 28748 O 5026.28 -1.4459 -7.59357 0
M  V30 28749 C 5025.34 -0.347608 -7.69215 0
M  V30 28750 C 5026.07 0.96767 -7.52806 0
M  V30 28751 O 5026.28 1.21036 -6.1011 0
M  V30 28752 C 5027.47 1.04544 -8.13308 0
M  V30 28753 O 5027.86 2.38311 -8.41922 0
M  V30 28754 C 5028.35 0.491279 -7.02284 0
M  V30 28755 C 5027.64 0.996264 -5.77469 0
M  V30 28756 N 5027.69 0.0501916 -4.62973 0
M  V30 28757 H 5024.85 -0.374722 -8.67691 0
M  V30 28758 H 5024.58 -0.443485 -6.90277 0
M  V30 28759 H 5025.45 1.75537 -7.96793 0
M  V30 28760 P 5029.41 2.75334 -8.47391 0
M  V30 28761 O 5029.63 3.84128 -9.44797 0
M  V30 28762 O 5030.2 1.51947 -8.68712 0
M  V30 28763 O 5029.66 3.29363 -6.99321 0
M  V30 28764 C 5028.72 4.24011 -6.4274 0
M  V30 28765 C 5029.45 5.20775 -5.52155 0
M  V30 28766 O 5029.66 4.56534 -4.22446 0
M  V30 28767 C 5030.85 5.62629 -5.96531 0
M  V30 28768 O 5031.24 6.87667 -5.41053 0
M  V30 28769 C 5031.73 4.52537 -5.39283 0
M  V30 28770 C 5031.02 4.20027 -4.08623 0
M  V30 28771 N 5031.07 2.76189 -3.71603 0
M  V30 28772 H 5028.23 4.797 -7.24003 0
M  V30 28773 H 5027.96 3.69856 -5.84513 0
M  V30 28774 H 5028.83 6.10356 -5.41441 0
M  V30 28775 P 5032.79 7.20834 -5.23717 0
M  V30 28776 O 5033.01 8.66189 -5.38625 0
M  V30 28777 O 5033.58 6.33615 -6.1356 0
M  V30 28778 O 5033.04 6.7751 -3.72168 0
M  V30 28779 C 5032.1 7.20732 -2.70725 0
M  V30 28780 C 5032.83 7.45864 -1.40599 0
M  V30 28781 O 5033.04 6.17651 -0.734225 0
M  V30 28782 C 5034.23 8.05808 -1.51899 0
M  V30 28783 O 5034.62 8.74358 -0.335205 0
M  V30 28784 C 5035.11 6.83093 -1.70294 0
M  V30 28785 C 5034.4 5.79992 -0.836974 0
M  V30 28786 N 5034.45 4.41769 -1.38263 0
M  V30 28787 C 5034.6 3.38591 -0.481702 0
M  V30 28788 O 5034.69 3.56839 0.718452 0
M  V30 28789 N 5034.64 2.1206 -1.03569 0
M  V30 28790 C 5034.55 1.80696 -2.36966 0
M  V30 28791 C 5034.4 2.94845 -3.23898 0
M  V30 28792 C 5034.35 4.19803 -2.73435 0
M  V30 28793 H 5031.61 8.13644 -3.0377 0
M  V30 28794 H 5031.34 6.42695 -2.55448 0
M  V30 28795 H 5032.21 8.12039 -0.792769 0
M  V30 28796 H 5034.86 5.79978 0.160587 0
M  V30 28797 H 5035.14 6.51379 -2.75643 0
M  V30 28798 H 5036.13 7.01734 -1.34462 0
M  V30 28799 H 5034.3 8.73674 -2.38337 0
M  V30 28800 H 5034.23 5.04492 -3.4095 0
M  V30 28801 P 5036.17 8.91 -2.29188e-10 0
M  V30 28802 O 5036.39 10.1736 0.733766 0
M  V30 28803 O 5036.96 8.73247 -1.2395 0
M  V30 28804 O 5036.42 7.66872 0.971405 0
M  V30 28805 C 5035.48 7.42212 2.04614 0
M  V30 28806 C 5036.21 6.86059 3.24661 0
M  V30 28807 O 5036.42 5.42847 3.03646 0
M  V30 28808 C 5037.61 7.41196 3.50753 0
M  V30 28809 O 5038 7.27073 4.86816 0
M  V30 28810 C 5038.49 6.5273 2.63741 0
M  V30 28811 C 5037.78 5.1842 2.73198 0
M  V30 28812 N 5037.83 4.38668 1.47808 0
M  V30 28813 C 5037.98 3.02239 1.60048 0
M  V30 28814 O 5038.07 2.46459 2.67869 0
M  V30 28815 N 5038.02 2.32436 0.408571 0
M  V30 28816 C 5037.93 2.85471 -0.854993 0
M  V30 28817 C 5037.78 4.28918 -0.887335 0
M  V30 28818 C 5037.73 5.00349 0.255399 0
M  V30 28819 H 5034.99 8.36803 2.32493 0
M  V30 28820 H 5034.72 6.701 1.71105 0
M  V30 28821 H 5035.59 7.03551 4.13168 0
M  V30 28822 H 5038.24 4.59773 3.53894 0
M  V30 28823 H 5038.52 6.88995 1.59871 0
M  V30 28824 H 5039.51 6.46749 3.03687 0
M  V30 28825 H 5037.68 8.46908 3.20714 0
M  V30 28826 H 5037.61 6.08548 0.206986 0
M  V30 28827 P 5039.55 7.20834 5.23717 0
M  V30 28828 O 5039.77 7.80006 6.57415 0
M  V30 28829 O 5040.34 7.79416 4.13051 0
M  V30 28830 O 5039.8 5.63315 5.29344 0
M  V30 28831 C 5038.86 4.80318 6.01954 0
M  V30 28832 C 5039.59 3.64202 6.65911 0
M  V30 28833 O 5039.8 2.60736 5.64823 0
M  V30 28834 C 5040.99 3.93521 7.19518 0
M  V30 28835 O 5041.38 3.02071 8.21205 0
M  V30 28836 C 5041.87 3.73047 5.97036 0
M  V30 28837 C 5041.16 2.58828 5.25741 0
M  V30 28838 N 5041.21 2.68068 3.77503 0
M  V30 28839 C 5041.13 3.80474 2.99159 0
M  V30 28840 N 5041.2 3.55622 1.71925 0
M  V30 28841 C 5041.35 2.1832 1.65733 0
M  V30 28842 C 5041.48 1.28842 0.572777 0
M  V30 28843 N 5041.49 1.66875 -0.70098 0
M  V30 28844 N 5041.6 -0.016788 0.859836 0
M  V30 28845 C 5041.59 -0.398145 2.13316 0
M  V30 28846 N 5041.47 0.328224 3.22333 0
M  V30 28847 C 5041.35 1.62992 2.90383 0
M  V30 28848 H 5038.37 5.40394 6.8003 0
M  V30 28849 H 5038.1 4.41741 5.32532 0
M  V30 28850 H 5038.97 3.26371 7.47889 0
M  V30 28851 H 5041.62 1.64007 5.56746 0
M  V30 28852 H 5041.9 4.63439 5.3432 0
M  V30 28853 H 5042.89 3.44776 6.25925 0
M  V30 28854 H 5041.06 4.96707 7.57347 0
M  V30 28855 H 5041.02 4.8089 3.39924 0
M  V30 28856 H 5041.4 2.66547 -0.941919 0
M  V30 28857 H 5041.59 0.965341 -1.44766 0
M  V30 28858 H 5041.7 -1.46427 2.29697 0
M  V30 28859 P 5042.93 2.75334 8.47391 0
M  V30 28860 O 5043.15 2.44571 9.90142 0
M  V30 28861 O 5043.72 3.87688 7.92115 0
M  V30 28862 O 5043.18 1.4459 7.59357 0
M  V30 28863 C 5042.24 0.347608 7.69215 0
M  V30 28864 C 5042.97 -0.96767 7.52806 0
M  V30 28865 O 5043.18 -1.21036 6.1011 0
M  V30 28866 C 5044.37 -1.04544 8.13308 0
M  V30 28867 O 5044.76 -2.38311 8.41922 0
M  V30 28868 C 5045.25 -0.491279 7.02284 0
M  V30 28869 C 5044.54 -0.996264 5.77469 0
M  V30 28870 N 5044.59 -0.0501916 4.62973 0
M  V30 28871 H 5041.75 0.374722 8.67691 0
M  V30 28872 H 5041.48 0.443485 6.90277 0
M  V30 28873 H 5042.35 -1.75537 7.96793 0
M  V30 28874 P 5046.31 -2.75334 8.47391 0
M  V30 28875 O 5046.53 -3.84128 9.44797 0
M  V30 28876 O 5047.1 -1.51947 8.68712 0
M  V30 28877 O 5046.56 -3.29363 6.99321 0
M  V30 28878 C 5045.62 -4.24011 6.4274 0
M  V30 28879 C 5046.35 -5.20775 5.52155 0
M  V30 28880 O 5046.56 -4.56534 4.22446 0
M  V30 28881 C 5047.75 -5.62629 5.96531 0
M  V30 28882 O 5048.14 -6.87667 5.41053 0
M  V30 28883 C 5048.63 -4.52537 5.39283 0
M  V30 28884 C 5047.92 -4.20027 4.08623 0
M  V30 28885 N 5047.97 -2.76189 3.71603 0
M  V30 28886 H 5045.13 -4.797 7.24003 0
M  V30 28887 H 5044.86 -3.69856 5.84513 0
M  V30 28888 H 5045.73 -6.10356 5.41441 0
M  V30 28889 P 5049.69 -7.20834 5.23717 0
M  V30 28890 O 5049.91 -8.66104 5.38572 0
M  V30 28891 O 5050.48 -6.33544 6.1349 0
M  V30 28892 O 5049.94 -6.7751 3.72168 0
M  V30 28893 C 5049 -7.20825 2.7076 0
M  V30 28894 C 5049.73 -7.45864 1.40599 0
M  V30 28895 O 5049.94 -6.17651 0.734225 0
M  V30 28896 C 5051.13 -8.05808 1.51899 0
M  V30 28897 O 5051.52 -8.74358 0.335205 0
M  V30 28898 C 5052.01 -6.83093 1.70294 0
M  V30 28899 C 5051.3 -5.79992 0.836974 0
M  V30 28900 N 5051.35 -4.41864 1.38293 0
M  V30 28901 H 5048.51 -8.13644 3.0377 0
M  V30 28902 H 5048.24 -6.42788 2.55485 0
M  V30 28903 H 5049.11 -8.12039 0.792769 0
M  V30 28904 P 5053.07 -8.91 2.30297e-10 0
M  V30 28905 O 5053.29 -10.1726 -0.733694 0
M  V30 28906 O 5053.86 -8.73148 1.23936 0
M  V30 28907 O 5053.32 -7.66872 -0.971405 0
M  V30 28908 C 5052.38 -7.42309 -2.04641 0
M  V30 28909 C 5053.11 -6.86059 -3.24661 0
M  V30 28910 O 5053.32 -5.42847 -3.03646 0
M  V30 28911 C 5054.51 -7.41196 -3.50753 0
M  V30 28912 O 5054.9 -7.27073 -4.86816 0
M  V30 28913 C 5055.39 -6.5273 -2.63741 0
M  V30 28914 C 5054.68 -5.1842 -2.73198 0
M  V30 28915 N 5054.73 -4.38762 -1.4784 0
M  V30 28916 H 5051.89 -8.36803 -2.32493 0
M  V30 28917 H 5051.62 -6.70197 -1.71129 0
M  V30 28918 H 5052.49 -7.03551 -4.13168 0
M  V30 28919 P 5056.45 -7.20834 -5.23717 0
M  V30 28920 O 5056.67 -7.79853 -6.57286 0
M  V30 28921 O 5057.24 -7.79239 -4.12957 0
M  V30 28922 O 5056.7 -5.63315 -5.29344 0
M  V30 28923 C 5055.76 -4.80255 -6.01876 0
M  V30 28924 C 5056.49 -3.64202 -6.65911 0
M  V30 28925 O 5056.7 -2.60694 -5.64732 0
M  V30 28926 C 5057.89 -3.93473 -7.1943 0
M  V30 28927 O 5058.28 -3.02071 -8.21205 0
M  V30 28928 C 5058.77 -3.73047 -5.97036 0
M  V30 28929 C 5058.06 -2.58828 -5.25741 0
M  V30 28930 N 5058.11 -2.68068 -3.77503 0
M  V30 28931 C 5058.03 -3.79715 -2.96723 0
M  V30 28932 N 5058.11 -3.5377 -1.68852 0
M  V30 28933 C 5058.25 -2.15054 -1.63254 0
M  V30 28934 C 5058.38 -1.28964 -0.518571 0
M  V30 28935 N 5058.5 0.0538097 -0.918425 0
M  V30 28936 C 5058.5 0.494275 -2.22578 0
M  V30 28937 N 5058.63 1.81086 -2.40434 0
M  V30 28938 N 5058.37 -0.313645 -3.27502 0
M  V30 28939 C 5058.25 -1.61829 -2.91033 0
M  V30 28940 H 5055.27 -5.40332 -6.79951 0
M  V30 28941 H 5055 -4.41613 -5.32378 0
M  V30 28942 H 5055.87 -3.26331 -7.47797 0
M  V30 28943 P 5059.83 -2.75334 -8.47391 0
M  V30 28944 O 5060.05 -2.44571 -9.90142 0
M  V30 28945 O 5060.62 -3.87688 -7.92115 0
M  V30 28946 O 5060.08 -1.4459 -7.59357 0
M  V30 28947 C 5059.14 -0.347608 -7.69215 0
M  V30 28948 C 5059.87 0.96767 -7.52806 0
M  V30 28949 O 5060.08 1.21036 -6.1011 0
M  V30 28950 C 5061.27 1.04544 -8.13308 0
M  V30 28951 O 5061.66 2.38311 -8.41922 0
M  V30 28952 C 5062.15 0.491279 -7.02284 0
M  V30 28953 C 5061.44 0.996264 -5.77469 0
M  V30 28954 N 5061.49 0.0501916 -4.62973 0
M  V30 28955 H 5058.65 -0.374722 -8.67691 0
M  V30 28956 H 5058.38 -0.443485 -6.90277 0
M  V30 28957 H 5059.25 1.75537 -7.96793 0
M  V30 28958 P 5063.21 2.75334 -8.47391 0
M  V30 28959 O 5063.43 3.84128 -9.44797 0
M  V30 28960 O 5064 1.51947 -8.68712 0
M  V30 28961 O 5063.46 3.29363 -6.99321 0
M  V30 28962 C 5062.52 4.24011 -6.4274 0
M  V30 28963 C 5063.25 5.20775 -5.52155 0
M  V30 28964 O 5063.46 4.56534 -4.22446 0
M  V30 28965 C 5064.65 5.62629 -5.96531 0
M  V30 28966 O 5065.04 6.87667 -5.41053 0
M  V30 28967 C 5065.53 4.52537 -5.39283 0
M  V30 28968 C 5064.82 4.20027 -4.08623 0
M  V30 28969 N 5064.87 2.76189 -3.71603 0
M  V30 28970 H 5062.03 4.797 -7.24003 0
M  V30 28971 H 5061.76 3.69856 -5.84513 0
M  V30 28972 H 5062.63 6.10356 -5.41441 0
M  V30 28973 P 5066.59 7.20834 -5.23717 0
M  V30 28974 O 5066.81 8.66104 -5.38572 0
M  V30 28975 O 5067.38 6.33544 -6.1349 0
M  V30 28976 O 5066.84 6.7751 -3.72168 0
M  V30 28977 C 5065.9 7.20825 -2.7076 0
M  V30 28978 C 5066.63 7.45864 -1.40599 0
M  V30 28979 O 5066.84 6.17651 -0.734225 0
M  V30 28980 C 5068.03 8.05808 -1.51899 0
M  V30 28981 O 5068.42 8.74358 -0.335205 0
M  V30 28982 C 5068.91 6.83093 -1.70294 0
M  V30 28983 C 5068.2 5.79992 -0.836974 0
M  V30 28984 N 5068.25 4.41864 -1.38293 0
M  V30 28985 H 5065.41 8.13644 -3.0377 0
M  V30 28986 H 5065.14 6.42788 -2.55485 0
M  V30 28987 H 5066.01 8.12039 -0.792769 0
M  V30 28988 P 5069.97 8.91 -2.31407e-10 0
M  V30 28989 O 5070.19 10.1726 0.733694 0
M  V30 28990 O 5070.76 8.73148 -1.23936 0
M  V30 28991 O 5070.22 7.66872 0.971405 0
M  V30 28992 C 5069.28 7.42309 2.04641 0
M  V30 28993 C 5070.01 6.86059 3.24661 0
M  V30 28994 O 5070.22 5.42847 3.03646 0
M  V30 28995 C 5071.41 7.41196 3.50753 0
M  V30 28996 O 5071.8 7.27073 4.86816 0
M  V30 28997 C 5072.29 6.5273 2.63741 0
M  V30 28998 C 5071.58 5.1842 2.73198 0
M  V30 28999 N 5071.63 4.38762 1.4784 0
M  V30 29000 H 5068.79 8.36803 2.32493 0
M  V30 29001 H 5068.52 6.70197 1.71129 0
M  V30 29002 H 5069.39 7.03551 4.13168 0
M  V30 29003 P 5073.35 7.20834 5.23717 0
M  V30 29004 O 5073.57 7.79853 6.57286 0
M  V30 29005 O 5074.14 7.79239 4.12957 0
M  V30 29006 O 5073.6 5.63315 5.29344 0
M  V30 29007 C 5072.66 4.80255 6.01876 0
M  V30 29008 C 5073.39 3.64202 6.65911 0
M  V30 29009 O 5073.6 2.60694 5.64732 0
M  V30 29010 C 5074.79 3.93473 7.1943 0
M  V30 29011 O 5075.18 3.02071 8.21205 0
M  V30 29012 C 5075.67 3.73047 5.97036 0
M  V30 29013 C 5074.96 2.58828 5.25741 0
M  V30 29014 N 5075.01 2.68068 3.77503 0
M  V30 29015 H 5072.17 5.40332 6.79951 0
M  V30 29016 H 5071.9 4.41613 5.32378 0
M  V30 29017 H 5072.77 3.26331 7.47797 0
M  V30 29018 P 5076.73 2.75334 8.47391 0
M  V30 29019 O 5076.95 2.44571 9.90142 0
M  V30 29020 O 5077.52 3.87688 7.92115 0
M  V30 29021 O 5076.98 1.4459 7.59357 0
M  V30 29022 C 5076.04 0.347608 7.69215 0
M  V30 29023 C 5076.77 -0.96767 7.52806 0
M  V30 29024 O 5076.98 -1.21036 6.1011 0
M  V30 29025 C 5078.17 -1.04544 8.13308 0
M  V30 29026 O 5078.56 -2.38311 8.41922 0
M  V30 29027 C 5079.05 -0.491279 7.02284 0
M  V30 29028 C 5078.34 -0.996264 5.77469 0
M  V30 29029 N 5078.39 -0.0501916 4.62973 0
M  V30 29030 H 5075.55 0.374722 8.67691 0
M  V30 29031 H 5075.28 0.443485 6.90277 0
M  V30 29032 H 5076.15 -1.75537 7.96793 0
M  V30 29033 P 5080.11 -2.75334 8.47391 0
M  V30 29034 O 5080.33 -3.84128 9.44797 0
M  V30 29035 O 5080.9 -1.51947 8.68712 0
M  V30 29036 O 5080.36 -3.29363 6.99321 0
M  V30 29037 C 5079.42 -4.24011 6.4274 0
M  V30 29038 C 5080.15 -5.20775 5.52155 0
M  V30 29039 O 5080.36 -4.56534 4.22446 0
M  V30 29040 C 5081.55 -5.62629 5.96531 0
M  V30 29041 O 5081.94 -6.87667 5.41053 0
M  V30 29042 C 5082.43 -4.52537 5.39283 0
M  V30 29043 C 5081.72 -4.20027 4.08623 0
M  V30 29044 N 5081.77 -2.76189 3.71603 0
M  V30 29045 H 5078.93 -4.797 7.24003 0
M  V30 29046 H 5078.66 -3.69856 5.84513 0
M  V30 29047 H 5079.53 -6.10356 5.41441 0
M  V30 29048 P 5083.49 -7.20834 5.23717 0
M  V30 29049 O 5083.71 -8.66189 5.38625 0
M  V30 29050 O 5084.28 -6.33615 6.1356 0
M  V30 29051 O 5083.74 -6.7751 3.72168 0
M  V30 29052 C 5082.8 -7.20732 2.70725 0
M  V30 29053 C 5083.53 -7.45864 1.40599 0
M  V30 29054 O 5083.74 -6.17651 0.734225 0
M  V30 29055 C 5084.93 -8.05808 1.51899 0
M  V30 29056 O 5085.32 -8.74358 0.335205 0
M  V30 29057 C 5085.81 -6.83093 1.70294 0
M  V30 29058 C 5085.1 -5.79992 0.836974 0
M  V30 29059 N 5085.15 -4.41769 1.38263 0
M  V30 29060 C 5085.3 -3.38591 0.481702 0
M  V30 29061 O 5085.39 -3.56839 -0.718452 0
M  V30 29062 N 5085.34 -2.1206 1.03569 0
M  V30 29063 C 5085.25 -1.80696 2.36966 0
M  V30 29064 C 5085.1 -2.94845 3.23898 0
M  V30 29065 C 5085.05 -4.19803 2.73435 0
M  V30 29066 H 5082.31 -8.13644 3.0377 0
M  V30 29067 H 5082.04 -6.42695 2.55448 0
M  V30 29068 H 5082.91 -8.12039 0.792769 0
M  V30 29069 H 5085.56 -5.79978 -0.160587 0
M  V30 29070 H 5085.84 -6.51379 2.75643 0
M  V30 29071 H 5086.83 -7.01734 1.34462 0
M  V30 29072 H 5085 -8.73674 2.38337 0
M  V30 29073 H 5084.93 -5.04492 3.4095 0
M  V30 29074 P 5086.87 -8.91 2.32516e-10 0
M  V30 29075 O 5087.09 -10.1726 -0.733694 0
M  V30 29076 O 5087.66 -8.73148 1.23936 0
M  V30 29077 O 5087.12 -7.66872 -0.971405 0
M  V30 29078 C 5086.18 -7.42309 -2.04641 0
M  V30 29079 C 5086.91 -6.86059 -3.24661 0
M  V30 29080 O 5087.12 -5.42847 -3.03646 0
M  V30 29081 C 5088.31 -7.41196 -3.50753 0
M  V30 29082 O 5088.7 -7.27073 -4.86816 0
M  V30 29083 C 5089.19 -6.5273 -2.63741 0
M  V30 29084 C 5088.48 -5.1842 -2.73198 0
M  V30 29085 N 5088.53 -4.38762 -1.4784 0
M  V30 29086 C 5088.45 -4.81605 -0.168631 0
M  V30 29087 N 5088.53 -3.85454 0.713363 0
M  V30 29088 C 5088.67 -2.6994 -0.0566958 0
M  V30 29089 C 5088.8 -1.34815 0.338502 0
M  V30 29090 N 5088.92 -0.496304 -0.77465 0
M  V30 29091 C 5088.92 -0.908403 -2.09122 0
M  V30 29092 N 5089.05 0.0517805 -3.00955 0
M  V30 29093 N 5088.79 -2.17875 -2.46519 0
M  V30 29094 C 5088.67 -3.01988 -1.4033 0
M  V30 29095 H 5085.69 -8.36803 -2.32493 0
M  V30 29096 H 5085.42 -6.70197 -1.71129 0
M  V30 29097 H 5086.29 -7.03551 -4.13168 0
M  V30 29098 P 5090.25 -7.20834 -5.23717 0
M  V30 29099 O 5090.47 -7.79853 -6.57286 0
M  V30 29100 O 5091.04 -7.79239 -4.12957 0
M  V30 29101 O 5090.5 -5.63315 -5.29344 0
M  V30 29102 C 5089.56 -4.80255 -6.01876 0
M  V30 29103 C 5090.29 -3.64202 -6.65911 0
M  V30 29104 O 5090.5 -2.60694 -5.64732 0
M  V30 29105 C 5091.69 -3.93473 -7.1943 0
M  V30 29106 O 5092.08 -3.02071 -8.21205 0
M  V30 29107 C 5092.57 -3.73047 -5.97036 0
M  V30 29108 C 5091.86 -2.58828 -5.25741 0
M  V30 29109 N 5091.91 -2.68068 -3.77503 0
M  V30 29110 H 5089.07 -5.40332 -6.79951 0
M  V30 29111 H 5088.8 -4.41613 -5.32378 0
M  V30 29112 H 5089.67 -3.26331 -7.47797 0
M  V30 29113 P 5093.63 -2.75334 -8.47391 0
M  V30 29114 O 5093.85 -2.44571 -9.90142 0
M  V30 29115 O 5094.42 -3.87688 -7.92115 0
M  V30 29116 O 5093.88 -1.4459 -7.59357 0
M  V30 29117 C 5092.94 -0.347608 -7.69215 0
M  V30 29118 C 5093.67 0.96767 -7.52806 0
M  V30 29119 O 5093.88 1.21036 -6.1011 0
M  V30 29120 C 5095.07 1.04544 -8.13308 0
M  V30 29121 O 5095.46 2.38311 -8.41922 0
M  V30 29122 C 5095.95 0.491279 -7.02284 0
M  V30 29123 C 5095.24 0.996264 -5.77469 0
M  V30 29124 N 5095.29 0.0501916 -4.62973 0
M  V30 29125 H 5092.45 -0.374722 -8.67691 0
M  V30 29126 H 5092.18 -0.443485 -6.90277 0
M  V30 29127 H 5093.05 1.75537 -7.96793 0
M  V30 29128 P 5097.01 2.75334 -8.47391 0
M  V30 29129 O 5097.23 3.84128 -9.44797 0
M  V30 29130 O 5097.8 1.51947 -8.68712 0
M  V30 29131 O 5097.26 3.29363 -6.99321 0
M  V30 29132 C 5096.32 4.24011 -6.4274 0
M  V30 29133 C 5097.05 5.20775 -5.52155 0
M  V30 29134 O 5097.26 4.56534 -4.22446 0
M  V30 29135 C 5098.45 5.62629 -5.96531 0
M  V30 29136 O 5098.84 6.87667 -5.41053 0
M  V30 29137 C 5099.33 4.52537 -5.39283 0
M  V30 29138 C 5098.62 4.20027 -4.08623 0
M  V30 29139 N 5098.67 2.76189 -3.71603 0
M  V30 29140 H 5095.83 4.797 -7.24003 0
M  V30 29141 H 5095.56 3.69856 -5.84513 0
M  V30 29142 H 5096.43 6.10356 -5.41441 0
M  V30 29143 P 5100.39 7.20834 -5.23717 0
M  V30 29144 O 5100.61 8.66104 -5.38572 0
M  V30 29145 O 5101.18 6.33544 -6.1349 0
M  V30 29146 O 5100.64 6.7751 -3.72168 0
M  V30 29147 C 5099.7 7.20825 -2.7076 0
M  V30 29148 C 5100.43 7.45864 -1.40599 0
M  V30 29149 O 5100.64 6.17651 -0.734225 0
M  V30 29150 C 5101.83 8.05808 -1.51899 0
M  V30 29151 O 5102.22 8.74358 -0.335205 0
M  V30 29152 C 5102.71 6.83093 -1.70294 0
M  V30 29153 C 5102 5.79992 -0.836974 0
M  V30 29154 N 5102.05 4.41864 -1.38293 0
M  V30 29155 H 5099.21 8.13644 -3.0377 0
M  V30 29156 H 5098.94 6.42788 -2.55485 0
M  V30 29157 H 5099.81 8.12039 -0.792769 0
M  V30 29158 P 5103.77 8.91 -2.33625e-10 0
M  V30 29159 O 5103.99 10.1726 0.733694 0
M  V30 29160 O 5104.56 8.73148 -1.23936 0
M  V30 29161 O 5104.02 7.66872 0.971405 0
M  V30 29162 C 5103.08 7.42309 2.04641 0
M  V30 29163 C 5103.81 6.86059 3.24661 0
M  V30 29164 O 5104.02 5.42847 3.03646 0
M  V30 29165 C 5105.21 7.41196 3.50753 0
M  V30 29166 O 5105.6 7.27073 4.86816 0
M  V30 29167 C 5106.09 6.5273 2.63741 0
M  V30 29168 C 5105.38 5.1842 2.73198 0
M  V30 29169 N 5105.43 4.38762 1.4784 0
M  V30 29170 H 5102.59 8.36803 2.32493 0
M  V30 29171 H 5102.32 6.70197 1.71129 0
M  V30 29172 H 5103.19 7.03551 4.13168 0
M  V30 29173 P 5107.15 7.20834 5.23717 0
M  V30 29174 O 5107.37 7.79853 6.57286 0
M  V30 29175 O 5107.94 7.79239 4.12957 0
M  V30 29176 O 5107.4 5.63315 5.29344 0
M  V30 29177 C 5106.46 4.80255 6.01876 0
M  V30 29178 C 5107.19 3.64202 6.65911 0
M  V30 29179 O 5107.4 2.60694 5.64732 0
M  V30 29180 C 5108.59 3.93473 7.1943 0
M  V30 29181 O 5108.98 3.02071 8.21205 0
M  V30 29182 C 5109.47 3.73047 5.97036 0
M  V30 29183 C 5108.76 2.58828 5.25741 0
M  V30 29184 N 5108.81 2.68068 3.77503 0
M  V30 29185 H 5105.97 5.40332 6.79951 0
M  V30 29186 H 5105.7 4.41613 5.32378 0
M  V30 29187 H 5106.57 3.26331 7.47797 0
M  V30 29188 P 5110.53 2.75334 8.47391 0
M  V30 29189 O 5110.75 2.44571 9.90142 0
M  V30 29190 O 5111.32 3.87688 7.92115 0
M  V30 29191 O 5110.78 1.4459 7.59357 0
M  V30 29192 C 5109.84 0.347608 7.69215 0
M  V30 29193 C 5110.57 -0.96767 7.52806 0
M  V30 29194 O 5110.78 -1.21036 6.1011 0
M  V30 29195 C 5111.97 -1.04544 8.13308 0
M  V30 29196 O 5112.36 -2.38311 8.41922 0
M  V30 29197 C 5112.85 -0.491279 7.02284 0
M  V30 29198 C 5112.14 -0.996264 5.77469 0
M  V30 29199 N 5112.19 -0.0501916 4.62973 0
M  V30 29200 H 5109.35 0.374722 8.67691 0
M  V30 29201 H 5109.08 0.443485 6.90277 0
M  V30 29202 H 5109.95 -1.75537 7.96793 0
M  V30 29203 P 5113.91 -2.75334 8.47391 0
M  V30 29204 O 5114.13 -3.84128 9.44797 0
M  V30 29205 O 5114.7 -1.51947 8.68712 0
M  V30 29206 O 5114.16 -3.29363 6.99321 0
M  V30 29207 C 5113.22 -4.24011 6.4274 0
M  V30 29208 C 5113.95 -5.20775 5.52155 0
M  V30 29209 O 5114.16 -4.56534 4.22446 0
M  V30 29210 C 5115.35 -5.62629 5.96531 0
M  V30 29211 O 5115.74 -6.87667 5.41053 0
M  V30 29212 C 5116.23 -4.52537 5.39283 0
M  V30 29213 C 5115.52 -4.20027 4.08623 0
M  V30 29214 N 5115.57 -2.76189 3.71603 0
M  V30 29215 H 5112.73 -4.797 7.24003 0
M  V30 29216 H 5112.46 -3.69856 5.84513 0
M  V30 29217 H 5113.33 -6.10356 5.41441 0
M  V30 29218 P 5117.29 -7.20834 5.23717 0
M  V30 29219 O 5117.51 -8.66274 5.38678 0
M  V30 29220 O 5118.08 -6.33687 6.13629 0
M  V30 29221 O 5117.54 -6.7751 3.72168 0
M  V30 29222 C 5116.6 -7.20919 2.70795 0
M  V30 29223 C 5117.33 -7.45864 1.40599 0
M  V30 29224 O 5117.54 -6.17751 0.734343 0
M  V30 29225 C 5118.73 -8.05906 1.51917 0
M  V30 29226 O 5119.12 -8.74358 0.335205 0
M  V30 29227 C 5119.61 -6.83093 1.70294 0
M  V30 29228 C 5118.9 -5.79992 0.836974 0
M  V30 29229 N 5118.95 -4.41864 1.38293 0
M  V30 29230 C 5118.87 -4.02089 2.69407 0
M  V30 29231 N 5118.94 -2.73403 2.85089 0
M  V30 29232 C 5119.09 -2.25086 1.5642 0
M  V30 29233 C 5119.22 -0.942887 1.04836 0
M  V30 29234 N 5119.23 0.150999 1.80369 0
M  V30 29235 N 5119.34 -0.812565 -0.28167 0
M  V30 29236 C 5119.33 -1.90572 -1.03784 0
M  V30 29237 N 5119.21 -3.167 -0.683905 0
M  V30 29238 C 5119.09 -3.26538 0.652815 0
M  V30 29239 H 5116.11 -8.13738 3.03804 0
M  V30 29240 H 5115.84 -6.42974 2.55559 0
M  V30 29241 H 5116.71 -8.12139 0.792866 0
M  V30 29242 H 5119.36 -5.80178 -0.160643 0
M  V30 29243 H 5119.64 -6.51379 2.75643 0
M  V30 29244 H 5120.63 -7.01832 1.3448 0
M  V30 29245 H 5118.8 -8.73771 2.38364 0
M  V30 29246 H 5118.76 -4.7189 3.52311 0
M  V30 29247 H 5119.14 0.0721434 2.82608 0
M  V30 29248 H 5119.33 1.0785 1.36544 0
M  V30 29249 H 5119.44 -1.73207 -2.10241 0
M  V30 29250 P 5120.67 -8.91 2.34734e-10 0
M  V30 29251 O 5120.89 -10.1726 -0.733694 0
M  V30 29252 O 5121.46 -8.73148 1.23936 0
M  V30 29253 O 5120.92 -7.66872 -0.971405 0
M  V30 29254 C 5119.98 -7.42309 -2.04641 0
M  V30 29255 C 5120.71 -6.86059 -3.24661 0
M  V30 29256 O 5120.92 -5.42847 -3.03646 0
M  V30 29257 C 5122.11 -7.41196 -3.50753 0
M  V30 29258 O 5122.5 -7.27073 -4.86816 0
M  V30 29259 C 5122.99 -6.5273 -2.63741 0
M  V30 29260 C 5122.28 -5.1842 -2.73198 0
M  V30 29261 N 5122.33 -4.38762 -1.4784 0
M  V30 29262 H 5119.49 -8.36803 -2.32493 0
M  V30 29263 H 5119.22 -6.70197 -1.71129 0
M  V30 29264 H 5120.09 -7.03551 -4.13168 0
M  V30 29265 P 5124.05 -7.20834 -5.23717 0
M  V30 29266 O 5124.27 -7.79853 -6.57286 0
M  V30 29267 O 5124.84 -7.79239 -4.12957 0
M  V30 29268 O 5124.3 -5.63315 -5.29344 0
M  V30 29269 C 5123.36 -4.80255 -6.01876 0
M  V30 29270 C 5124.09 -3.64202 -6.65911 0
M  V30 29271 O 5124.3 -2.60694 -5.64732 0
M  V30 29272 C 5125.49 -3.93473 -7.1943 0
M  V30 29273 O 5125.88 -3.02071 -8.21205 0
M  V30 29274 C 5126.37 -3.73047 -5.97036 0
M  V30 29275 C 5125.66 -2.58828 -5.25741 0
M  V30 29276 N 5125.71 -2.68068 -3.77503 0
M  V30 29277 H 5122.87 -5.40332 -6.79951 0
M  V30 29278 H 5122.6 -4.41613 -5.32378 0
M  V30 29279 H 5123.47 -3.26331 -7.47797 0
M  V30 29280 P 5127.43 -2.75334 -8.47391 0
M  V30 29281 O 5127.65 -2.44571 -9.90142 0
M  V30 29282 O 5128.22 -3.87688 -7.92115 0
M  V30 29283 O 5127.68 -1.4459 -7.59357 0
M  V30 29284 C 5126.74 -0.347608 -7.69215 0
M  V30 29285 C 5127.47 0.96767 -7.52806 0
M  V30 29286 O 5127.68 1.21036 -6.1011 0
M  V30 29287 C 5128.87 1.04544 -8.13308 0
M  V30 29288 O 5129.26 2.38311 -8.41922 0
M  V30 29289 C 5129.75 0.491279 -7.02284 0
M  V30 29290 C 5129.04 0.996264 -5.77469 0
M  V30 29291 N 5129.09 0.0501916 -4.62973 0
M  V30 29292 H 5126.25 -0.374722 -8.67691 0
M  V30 29293 H 5125.98 -0.443485 -6.90277 0
M  V30 29294 H 5126.85 1.75537 -7.96793 0
M  V30 29295 P 5130.81 2.75334 -8.47391 0
M  V30 29296 O 5131.03 3.84128 -9.44797 0
M  V30 29297 O 5131.6 1.51947 -8.68712 0
M  V30 29298 O 5131.06 3.29363 -6.99321 0
M  V30 29299 C 5130.12 4.24011 -6.4274 0
M  V30 29300 C 5130.85 5.20775 -5.52155 0
M  V30 29301 O 5131.06 4.56534 -4.22446 0
M  V30 29302 C 5132.25 5.62629 -5.96531 0
M  V30 29303 O 5132.64 6.87667 -5.41053 0
M  V30 29304 C 5133.13 4.52537 -5.39283 0
M  V30 29305 C 5132.42 4.20027 -4.08623 0
M  V30 29306 N 5132.47 2.76189 -3.71603 0
M  V30 29307 H 5129.63 4.797 -7.24003 0
M  V30 29308 H 5129.36 3.69856 -5.84513 0
M  V30 29309 H 5130.23 6.10356 -5.41441 0
M  V30 29310 P 5134.19 7.20834 -5.23717 0
M  V30 29311 O 5134.41 8.66104 -5.38572 0
M  V30 29312 O 5134.98 6.33544 -6.1349 0
M  V30 29313 O 5134.44 6.7751 -3.72168 0
M  V30 29314 C 5133.5 7.20825 -2.7076 0
M  V30 29315 C 5134.23 7.45864 -1.40599 0
M  V30 29316 O 5134.44 6.17651 -0.734225 0
M  V30 29317 C 5135.63 8.05808 -1.51899 0
M  V30 29318 O 5136.02 8.74358 -0.335205 0
M  V30 29319 C 5136.51 6.83093 -1.70294 0
M  V30 29320 C 5135.8 5.79992 -0.836974 0
M  V30 29321 N 5135.85 4.41864 -1.38293 0
M  V30 29322 H 5133.01 8.13644 -3.0377 0
M  V30 29323 H 5132.74 6.42788 -2.55485 0
M  V30 29324 H 5133.61 8.12039 -0.792769 0
M  V30 29325 P 5137.57 8.91 -2.35843e-10 0
M  V30 29326 O 5137.79 10.1726 0.733694 0
M  V30 29327 O 5138.36 8.73148 -1.23936 0
M  V30 29328 O 5137.82 7.66872 0.971405 0
M  V30 29329 C 5136.88 7.42309 2.04641 0
M  V30 29330 C 5137.61 6.86059 3.24661 0
M  V30 29331 O 5137.82 5.42847 3.03646 0
M  V30 29332 C 5139.01 7.41196 3.50753 0
M  V30 29333 O 5139.4 7.27073 4.86816 0
M  V30 29334 C 5139.89 6.5273 2.63741 0
M  V30 29335 C 5139.18 5.1842 2.73198 0
M  V30 29336 N 5139.23 4.38762 1.4784 0
M  V30 29337 H 5136.39 8.36803 2.32493 0
M  V30 29338 H 5136.12 6.70197 1.71129 0
M  V30 29339 H 5136.99 7.03551 4.13168 0
M  V30 29340 P 5140.95 7.20834 5.23717 0
M  V30 29341 O 5141.17 7.79853 6.57286 0
M  V30 29342 O 5141.74 7.79239 4.12957 0
M  V30 29343 O 5141.2 5.63315 5.29344 0
M  V30 29344 C 5140.26 4.80255 6.01876 0
M  V30 29345 C 5140.99 3.64202 6.65911 0
M  V30 29346 O 5141.2 2.60694 5.64732 0
M  V30 29347 C 5142.39 3.93473 7.1943 0
M  V30 29348 O 5142.78 3.02071 8.21205 0
M  V30 29349 C 5143.27 3.73047 5.97036 0
M  V30 29350 C 5142.56 2.58828 5.25741 0
M  V30 29351 N 5142.61 2.68068 3.77503 0
M  V30 29352 H 5139.77 5.40332 6.79951 0
M  V30 29353 H 5139.5 4.41613 5.32378 0
M  V30 29354 H 5140.37 3.26331 7.47797 0
M  V30 29355 P 5144.33 2.75334 8.47391 0
M  V30 29356 O 5144.55 2.44571 9.90142 0
M  V30 29357 O 5145.12 3.87688 7.92115 0
M  V30 29358 O 5144.58 1.4459 7.59357 0
M  V30 29359 C 5143.64 0.347608 7.69215 0
M  V30 29360 C 5144.37 -0.96767 7.52806 0
M  V30 29361 O 5144.58 -1.21036 6.1011 0
M  V30 29362 C 5145.77 -1.04544 8.13308 0
M  V30 29363 O 5146.16 -2.38311 8.41922 0
M  V30 29364 C 5146.65 -0.491279 7.02284 0
M  V30 29365 C 5145.94 -0.996264 5.77469 0
M  V30 29366 N 5145.99 -0.0501916 4.62973 0
M  V30 29367 H 5143.15 0.374722 8.67691 0
M  V30 29368 H 5142.88 0.443485 6.90277 0
M  V30 29369 H 5143.75 -1.75537 7.96793 0
M  V30 29370 P 5147.71 -2.75334 8.47391 0
M  V30 29371 O 5147.93 -3.84128 9.44797 0
M  V30 29372 O 5148.5 -1.51947 8.68712 0
M  V30 29373 O 5147.96 -3.29363 6.99321 0
M  V30 29374 C 5147.02 -4.24011 6.4274 0
M  V30 29375 C 5147.75 -5.20775 5.52155 0
M  V30 29376 O 5147.96 -4.56534 4.22446 0
M  V30 29377 C 5149.15 -5.62629 5.96531 0
M  V30 29378 O 5149.54 -6.87667 5.41053 0
M  V30 29379 C 5150.03 -4.52537 5.39283 0
M  V30 29380 C 5149.32 -4.20027 4.08623 0
M  V30 29381 N 5149.37 -2.76189 3.71603 0
M  V30 29382 H 5146.53 -4.797 7.24003 0
M  V30 29383 H 5146.26 -3.69856 5.84513 0
M  V30 29384 H 5147.13 -6.10356 5.41441 0
M  V30 29385 P 5151.09 -7.20834 5.23717 0
M  V30 29386 O 5151.31 -8.66189 5.38625 0
M  V30 29387 O 5151.88 -6.33615 6.1356 0
M  V30 29388 O 5151.34 -6.7751 3.72168 0
M  V30 29389 C 5150.4 -7.20732 2.70725 0
M  V30 29390 C 5151.13 -7.45864 1.40599 0
M  V30 29391 O 5151.34 -6.17651 0.734225 0
M  V30 29392 C 5152.53 -8.05808 1.51899 0
M  V30 29393 O 5152.92 -8.74358 0.335205 0
M  V30 29394 C 5153.41 -6.83093 1.70294 0
M  V30 29395 C 5152.7 -5.79992 0.836974 0
M  V30 29396 N 5152.75 -4.41769 1.38263 0
M  V30 29397 C 5152.9 -3.38591 0.481702 0
M  V30 29398 O 5152.99 -3.56839 -0.718452 0
M  V30 29399 N 5152.94 -2.1206 1.03569 0
M  V30 29400 C 5152.85 -1.80696 2.36966 0
M  V30 29401 O 5152.9 -0.630473 2.74862 0
M  V30 29402 C 5152.7 -2.94845 3.23898 0
M  V30 29403 C 5152.59 -2.65253 4.70362 0
M  V30 29404 C 5152.65 -4.19803 2.73435 0
M  V30 29405 H 5149.91 -8.13644 3.0377 0
M  V30 29406 H 5149.64 -6.42695 2.55448 0
M  V30 29407 H 5150.51 -8.12039 0.792769 0
M  V30 29408 H 5153.16 -5.79978 -0.160587 0
M  V30 29409 H 5153.44 -6.51379 2.75643 0
M  V30 29410 H 5154.43 -7.01734 1.34462 0
M  V30 29411 H 5152.6 -8.73674 2.38337 0
M  V30 29412 H 5152.53 -5.04492 3.4095 0
M  V30 29413 H 5153.56 -2.83924 5.1913 0
M  V30 29414 H 5151.82 -3.29824 5.15163 0
M  V30 29415 H 5152.31 -1.59723 4.84449 0
M  V30 29416 H 5153.05 -1.35644 0.399345 0
M  V30 29417 P 5154.47 -8.91 2.36952e-10 0
M  V30 29418 O 5154.69 -10.1736 -0.733766 0
M  V30 29419 O 5155.26 -8.73247 1.2395 0
M  V30 29420 O 5154.72 -7.66872 -0.971405 0
M  V30 29421 C 5153.78 -7.42212 -2.04614 0
M  V30 29422 C 5154.51 -6.86059 -3.24661 0
M  V30 29423 O 5154.72 -5.42847 -3.03646 0
M  V30 29424 C 5155.91 -7.41196 -3.50753 0
M  V30 29425 O 5156.3 -7.27073 -4.86816 0
M  V30 29426 C 5156.79 -6.5273 -2.63741 0
M  V30 29427 C 5156.08 -5.1842 -2.73198 0
M  V30 29428 N 5156.13 -4.38668 -1.47808 0
M  V30 29429 C 5156.28 -3.02239 -1.60048 0
M  V30 29430 O 5156.37 -2.46459 -2.67869 0
M  V30 29431 N 5156.32 -2.32436 -0.408571 0
M  V30 29432 C 5156.23 -2.85471 0.854993 0
M  V30 29433 C 5156.08 -4.28918 0.887335 0
M  V30 29434 C 5156.03 -5.00349 -0.255399 0
M  V30 29435 H 5153.29 -8.36803 -2.32493 0
M  V30 29436 H 5153.02 -6.701 -1.71105 0
M  V30 29437 H 5153.89 -7.03551 -4.13168 0
M  V30 29438 H 5156.54 -4.59773 -3.53894 0
M  V30 29439 H 5156.82 -6.88995 -1.59871 0
M  V30 29440 H 5157.81 -6.46749 -3.03687 0
M  V30 29441 H 5155.98 -8.46908 -3.20714 0
M  V30 29442 H 5155.91 -6.08548 -0.206986 0
M  V30 29443 P 5157.85 -7.20834 -5.23717 0
M  V30 29444 O 5158.07 -7.80006 -6.57415 0
M  V30 29445 O 5158.64 -7.79416 -4.13051 0
M  V30 29446 O 5158.1 -5.63315 -5.29344 0
M  V30 29447 C 5157.16 -4.80318 -6.01954 0
M  V30 29448 C 5157.89 -3.64202 -6.65911 0
M  V30 29449 O 5158.1 -2.60736 -5.64823 0
M  V30 29450 C 5159.29 -3.93521 -7.19518 0
M  V30 29451 O 5159.68 -3.02071 -8.21205 0
M  V30 29452 C 5160.17 -3.73047 -5.97036 0
M  V30 29453 C 5159.46 -2.58828 -5.25741 0
M  V30 29454 N 5159.51 -2.68068 -3.77503 0
M  V30 29455 H 5156.67 -5.40394 -6.8003 0
M  V30 29456 H 5156.4 -4.41741 -5.32532 0
M  V30 29457 H 5157.27 -3.26371 -7.47889 0
M  V30 29458 H 5159.92 -1.64007 -5.56746 0
M  V30 29459 H 5160.2 -4.63439 -5.3432 0
M  V30 29460 H 5161.19 -3.44776 -6.25925 0
M  V30 29461 H 5159.36 -4.96707 -7.57347 0
M  V30 29462 P 5161.23 -2.75334 -8.47391 0
M  V30 29463 O 5161.45 -2.44571 -9.90142 0
M  V30 29464 O 5162.02 -3.87688 -7.92115 0
M  V30 29465 O 5161.48 -1.4459 -7.59357 0
M  V30 29466 C 5160.54 -0.347608 -7.69215 0
M  V30 29467 C 5161.27 0.96767 -7.52806 0
M  V30 29468 O 5161.48 1.21036 -6.1011 0
M  V30 29469 C 5162.67 1.04544 -8.13308 0
M  V30 29470 O 5163.06 2.38311 -8.41922 0
M  V30 29471 C 5163.55 0.491279 -7.02284 0
M  V30 29472 C 5162.84 0.996264 -5.77469 0
M  V30 29473 N 5162.89 0.0501916 -4.62973 0
M  V30 29474 H 5160.05 -0.374722 -8.67691 0
M  V30 29475 H 5159.78 -0.443485 -6.90277 0
M  V30 29476 H 5160.65 1.75537 -7.96793 0
M  V30 29477 P 5164.61 2.75334 -8.47391 0
M  V30 29478 O 5164.83 3.84128 -9.44797 0
M  V30 29479 O 5165.4 1.51947 -8.68712 0
M  V30 29480 O 5164.86 3.29363 -6.99321 0
M  V30 29481 C 5163.92 4.24011 -6.4274 0
M  V30 29482 C 5164.65 5.20775 -5.52155 0
M  V30 29483 O 5164.86 4.56534 -4.22446 0
M  V30 29484 C 5166.05 5.62629 -5.96531 0
M  V30 29485 O 5166.44 6.87667 -5.41053 0
M  V30 29486 C 5166.93 4.52537 -5.39283 0
M  V30 29487 C 5166.22 4.20027 -4.08623 0
M  V30 29488 N 5166.27 2.76189 -3.71603 0
M  V30 29489 H 5163.43 4.797 -7.24003 0
M  V30 29490 H 5163.16 3.69856 -5.84513 0
M  V30 29491 H 5164.03 6.10356 -5.41441 0
M  V30 29492 P 5167.99 7.20834 -5.23717 0
M  V30 29493 O 5168.21 8.66104 -5.38572 0
M  V30 29494 O 5168.78 6.33544 -6.1349 0
M  V30 29495 O 5168.24 6.7751 -3.72168 0
M  V30 29496 C 5167.3 7.20825 -2.7076 0
M  V30 29497 C 5168.03 7.45864 -1.40599 0
M  V30 29498 O 5168.24 6.17651 -0.734225 0
M  V30 29499 C 5169.43 8.05808 -1.51899 0
M  V30 29500 O 5169.82 8.74358 -0.335205 0
M  V30 29501 C 5170.31 6.83093 -1.70294 0
M  V30 29502 C 5169.6 5.79992 -0.836974 0
M  V30 29503 N 5169.65 4.41864 -1.38293 0
M  V30 29504 H 5166.81 8.13644 -3.0377 0
M  V30 29505 H 5166.54 6.42788 -2.55485 0
M  V30 29506 H 5167.41 8.12039 -0.792769 0
M  V30 29507 P 5171.37 8.91 -2.38061e-10 0
M  V30 29508 O 5171.59 10.1746 0.733838 0
M  V30 29509 O 5172.16 8.73346 -1.23964 0
M  V30 29510 O 5171.62 7.66872 0.971405 0
M  V30 29511 C 5170.68 7.42405 2.04668 0
M  V30 29512 C 5171.41 6.86059 3.24661 0
M  V30 29513 O 5171.62 5.42934 3.03695 0
M  V30 29514 C 5172.81 7.41287 3.50796 0
M  V30 29515 O 5173.2 7.27073 4.86816 0
M  V30 29516 C 5173.69 6.5273 2.63741 0
M  V30 29517 C 5172.98 5.1842 2.73198 0
M  V30 29518 N 5173.03 4.38762 1.4784 0
M  V30 29519 C 5172.95 4.83651 0.183876 0
M  V30 29520 N 5173.02 3.88759 -0.699393 0
M  V30 29521 C 5173.17 2.7404 0.0575568 0
M  V30 29522 C 5173.3 1.37902 -0.293928 0
M  V30 29523 N 5173.31 0.938021 -1.54797 0
M  V30 29524 N 5173.42 0.491817 0.70549 0
M  V30 29525 C 5173.41 0.931735 1.95979 0
M  V30 29526 N 5173.29 2.16017 2.41481 0
M  V30 29527 C 5173.17 3.02547 1.39121 0
M  V30 29528 H 5170.19 8.36899 2.3252 0
M  V30 29529 H 5169.92 6.70391 1.71179 0
M  V30 29530 H 5170.79 7.03638 4.13219 0
M  V30 29531 H 5173.44 4.59931 3.54016 0
M  V30 29532 H 5173.72 6.88995 1.59871 0
M  V30 29533 H 5174.71 6.4684 3.0373 0
M  V30 29534 H 5172.88 8.47002 3.20749 0
M  V30 29535 H 5172.84 5.8885 -0.0765548 0
M  V30 29536 H 5173.22 1.60276 -2.32875 0
M  V30 29537 H 5173.41 -0.0699355 -1.73859 0
M  V30 29538 H 5173.52 0.165507 2.71897 0
M  V30 29539 P 5174.75 7.20834 5.23717 0
M  V30 29540 O 5174.97 7.79853 6.57286 0
M  V30 29541 O 5175.54 7.79239 4.12957 0
M  V30 29542 O 5175 5.63315 5.29344 0
M  V30 29543 C 5174.06 4.80255 6.01876 0
M  V30 29544 C 5174.79 3.64202 6.65911 0
M  V30 29545 O 5175 2.60694 5.64732 0
M  V30 29546 C 5176.19 3.93473 7.1943 0
M  V30 29547 O 5176.58 3.02071 8.21205 0
M  V30 29548 C 5177.07 3.73047 5.97036 0
M  V30 29549 C 5176.36 2.58828 5.25741 0
M  V30 29550 N 5176.41 2.68068 3.77503 0
M  V30 29551 H 5173.57 5.40332 6.79951 0
M  V30 29552 H 5173.3 4.41613 5.32378 0
M  V30 29553 H 5174.17 3.26331 7.47797 0
M  V30 29554 P 5178.13 2.75334 8.47391 0
M  V30 29555 O 5178.35 2.44571 9.90142 0
M  V30 29556 O 5178.92 3.87688 7.92115 0
M  V30 29557 O 5178.38 1.4459 7.59357 0
M  V30 29558 C 5177.44 0.347608 7.69215 0
M  V30 29559 C 5178.17 -0.96767 7.52806 0
M  V30 29560 O 5178.38 -1.21036 6.1011 0
M  V30 29561 C 5179.57 -1.04544 8.13308 0
M  V30 29562 O 5179.96 -2.38311 8.41922 0
M  V30 29563 C 5180.45 -0.491279 7.02284 0
M  V30 29564 C 5179.74 -0.996264 5.77469 0
M  V30 29565 N 5179.79 -0.0501916 4.62973 0
M  V30 29566 H 5176.95 0.374722 8.67691 0
M  V30 29567 H 5176.68 0.443485 6.90277 0
M  V30 29568 H 5177.55 -1.75537 7.96793 0
M  V30 29569 P 5181.51 -2.75334 8.47391 0
M  V30 29570 O 5181.73 -3.84128 9.44797 0
M  V30 29571 O 5182.3 -1.51947 8.68712 0
M  V30 29572 O 5181.76 -3.29363 6.99321 0
M  V30 29573 C 5180.82 -4.24011 6.4274 0
M  V30 29574 C 5181.55 -5.20775 5.52155 0
M  V30 29575 O 5181.76 -4.56534 4.22446 0
M  V30 29576 C 5182.95 -5.62629 5.96531 0
M  V30 29577 O 5183.34 -6.87667 5.41053 0
M  V30 29578 C 5183.83 -4.52537 5.39283 0
M  V30 29579 C 5183.12 -4.20027 4.08623 0
M  V30 29580 N 5183.17 -2.76189 3.71603 0
M  V30 29581 H 5180.33 -4.797 7.24003 0
M  V30 29582 H 5180.06 -3.69856 5.84513 0
M  V30 29583 H 5180.93 -6.10356 5.41441 0
M  V30 29584 P 5184.89 -7.20834 5.23717 0
M  V30 29585 O 5185.11 -8.66189 5.38625 0
M  V30 29586 O 5185.68 -6.33615 6.1356 0
M  V30 29587 O 5185.14 -6.7751 3.72168 0
M  V30 29588 C 5184.2 -7.20732 2.70725 0
M  V30 29589 C 5184.93 -7.45864 1.40599 0
M  V30 29590 O 5185.14 -6.17651 0.734225 0
M  V30 29591 C 5186.33 -8.05808 1.51899 0
M  V30 29592 O 5186.72 -8.74358 0.335205 0
M  V30 29593 C 5187.21 -6.83093 1.70294 0
M  V30 29594 C 5186.5 -5.79992 0.836974 0
M  V30 29595 N 5186.55 -4.41769 1.38263 0
M  V30 29596 C 5186.7 -3.38591 0.481702 0
M  V30 29597 O 5186.79 -3.56839 -0.718452 0
M  V30 29598 N 5186.74 -2.1206 1.03569 0
M  V30 29599 C 5186.65 -1.80696 2.36966 0
M  V30 29600 C 5186.5 -2.94845 3.23898 0
M  V30 29601 C 5186.45 -4.19803 2.73435 0
M  V30 29602 H 5183.71 -8.13644 3.0377 0
M  V30 29603 H 5183.44 -6.42695 2.55448 0
M  V30 29604 H 5184.31 -8.12039 0.792769 0
M  V30 29605 H 5186.96 -5.79978 -0.160587 0
M  V30 29606 H 5187.24 -6.51379 2.75643 0
M  V30 29607 H 5188.23 -7.01734 1.34462 0
M  V30 29608 H 5186.4 -8.73674 2.38337 0
M  V30 29609 H 5186.33 -5.04492 3.4095 0
M  V30 29610 P 5188.27 -8.91 2.3917e-10 0
M  V30 29611 O 5188.49 -10.1736 -0.733766 0
M  V30 29612 O 5189.06 -8.73247 1.2395 0
M  V30 29613 O 5188.52 -7.66872 -0.971405 0
M  V30 29614 C 5187.58 -7.42212 -2.04614 0
M  V30 29615 C 5188.31 -6.86059 -3.24661 0
M  V30 29616 O 5188.52 -5.42847 -3.03646 0
M  V30 29617 C 5189.71 -7.41196 -3.50753 0
M  V30 29618 O 5190.1 -7.27073 -4.86816 0
M  V30 29619 C 5190.59 -6.5273 -2.63741 0
M  V30 29620 C 5189.88 -5.1842 -2.73198 0
M  V30 29621 N 5189.93 -4.38668 -1.47808 0
M  V30 29622 C 5190.08 -3.02239 -1.60048 0
M  V30 29623 O 5190.17 -2.46459 -2.67869 0
M  V30 29624 N 5190.12 -2.32436 -0.408571 0
M  V30 29625 C 5190.03 -2.85471 0.854993 0
M  V30 29626 C 5189.88 -4.28918 0.887335 0
M  V30 29627 C 5189.83 -5.00349 -0.255399 0
M  V30 29628 H 5187.09 -8.36803 -2.32493 0
M  V30 29629 H 5186.82 -6.701 -1.71105 0
M  V30 29630 H 5187.69 -7.03551 -4.13168 0
M  V30 29631 H 5190.34 -4.59773 -3.53894 0
M  V30 29632 H 5190.62 -6.88995 -1.59871 0
M  V30 29633 H 5191.61 -6.46749 -3.03687 0
M  V30 29634 H 5189.78 -8.46908 -3.20714 0
M  V30 29635 H 5189.71 -6.08548 -0.206986 0
M  V30 29636 P 5191.65 -7.20834 -5.23717 0
M  V30 29637 O 5191.87 -7.79853 -6.57286 0
M  V30 29638 O 5192.44 -7.79239 -4.12957 0
M  V30 29639 O 5191.9 -5.63315 -5.29344 0
M  V30 29640 C 5190.96 -4.80255 -6.01876 0
M  V30 29641 C 5191.69 -3.64202 -6.65911 0
M  V30 29642 O 5191.9 -2.60694 -5.64732 0
M  V30 29643 C 5193.09 -3.93473 -7.1943 0
M  V30 29644 O 5193.48 -3.02071 -8.21205 0
M  V30 29645 C 5193.97 -3.73047 -5.97036 0
M  V30 29646 C 5193.26 -2.58828 -5.25741 0
M  V30 29647 N 5193.31 -2.68068 -3.77503 0
M  V30 29648 H 5190.47 -5.40332 -6.79951 0
M  V30 29649 H 5190.2 -4.41613 -5.32378 0
M  V30 29650 H 5191.07 -3.26331 -7.47797 0
M  V30 29651 P 5195.03 -2.75334 -8.47391 0
M  V30 29652 O 5195.25 -2.44571 -9.90142 0
M  V30 29653 O 5195.82 -3.87688 -7.92115 0
M  V30 29654 O 5195.28 -1.4459 -7.59357 0
M  V30 29655 C 5194.34 -0.347608 -7.69215 0
M  V30 29656 C 5195.07 0.96767 -7.52806 0
M  V30 29657 O 5195.28 1.21036 -6.1011 0
M  V30 29658 C 5196.47 1.04544 -8.13308 0
M  V30 29659 O 5196.86 2.38311 -8.41922 0
M  V30 29660 C 5197.35 0.491279 -7.02284 0
M  V30 29661 C 5196.64 0.996264 -5.77469 0
M  V30 29662 N 5196.69 0.0501916 -4.62973 0
M  V30 29663 H 5193.85 -0.374722 -8.67691 0
M  V30 29664 H 5193.58 -0.443485 -6.90277 0
M  V30 29665 H 5194.45 1.75537 -7.96793 0
M  V30 29666 P 5198.41 2.75334 -8.47391 0
M  V30 29667 O 5198.63 3.84128 -9.44797 0
M  V30 29668 O 5199.2 1.51947 -8.68712 0
M  V30 29669 O 5198.66 3.29363 -6.99321 0
M  V30 29670 C 5197.72 4.24011 -6.4274 0
M  V30 29671 C 5198.45 5.20775 -5.52155 0
M  V30 29672 O 5198.66 4.56534 -4.22446 0
M  V30 29673 C 5199.85 5.62629 -5.96531 0
M  V30 29674 O 5200.24 6.87667 -5.41053 0
M  V30 29675 C 5200.73 4.52537 -5.39283 0
M  V30 29676 C 5200.02 4.20027 -4.08623 0
M  V30 29677 N 5200.07 2.76189 -3.71603 0
M  V30 29678 H 5197.23 4.797 -7.24003 0
M  V30 29679 H 5196.96 3.69856 -5.84513 0
M  V30 29680 H 5197.83 6.10356 -5.41441 0
M  V30 29681 P 5201.79 7.20834 -5.23717 0
M  V30 29682 O 5202.01 8.66104 -5.38572 0
M  V30 29683 O 5202.58 6.33544 -6.1349 0
M  V30 29684 O 5202.04 6.7751 -3.72168 0
M  V30 29685 C 5201.1 7.20825 -2.7076 0
M  V30 29686 C 5201.83 7.45864 -1.40599 0
M  V30 29687 O 5202.04 6.17651 -0.734225 0
M  V30 29688 C 5203.23 8.05808 -1.51899 0
M  V30 29689 O 5203.62 8.74358 -0.335205 0
M  V30 29690 C 5204.11 6.83093 -1.70294 0
M  V30 29691 C 5203.4 5.79992 -0.836974 0
M  V30 29692 N 5203.45 4.41864 -1.38293 0
M  V30 29693 H 5200.61 8.13644 -3.0377 0
M  V30 29694 H 5200.34 6.42788 -2.55485 0
M  V30 29695 H 5201.21 8.12039 -0.792769 0
M  V30 29696 P 5205.17 8.91 -2.40279e-10 0
M  V30 29697 O 5205.39 10.1726 0.733694 0
M  V30 29698 O 5205.96 8.73148 -1.23936 0
M  V30 29699 O 5205.42 7.66872 0.971405 0
M  V30 29700 C 5204.48 7.42309 2.04641 0
M  V30 29701 C 5205.21 6.86059 3.24661 0
M  V30 29702 O 5205.42 5.42847 3.03646 0
M  V30 29703 C 5206.61 7.41196 3.50753 0
M  V30 29704 O 5207 7.27073 4.86816 0
M  V30 29705 C 5207.49 6.5273 2.63741 0
M  V30 29706 C 5206.78 5.1842 2.73198 0
M  V30 29707 N 5206.83 4.38762 1.4784 0
M  V30 29708 H 5203.99 8.36803 2.32493 0
M  V30 29709 H 5203.72 6.70197 1.71129 0
M  V30 29710 H 5204.59 7.03551 4.13168 0
M  V30 29711 P 5208.55 7.20834 5.23717 0
M  V30 29712 O 5208.77 7.80006 6.57415 0
M  V30 29713 O 5209.34 7.79416 4.13051 0
M  V30 29714 O 5208.8 5.63315 5.29344 0
M  V30 29715 C 5207.86 4.80318 6.01954 0
M  V30 29716 C 5208.59 3.64202 6.65911 0
M  V30 29717 O 5208.8 2.60736 5.64823 0
M  V30 29718 C 5209.99 3.93521 7.19518 0
M  V30 29719 O 5210.38 3.02071 8.21205 0
M  V30 29720 C 5210.87 3.73047 5.97036 0
M  V30 29721 C 5210.16 2.58828 5.25741 0
M  V30 29722 N 5210.21 2.68068 3.77503 0
M  V30 29723 H 5207.37 5.40394 6.8003 0
M  V30 29724 H 5207.1 4.41741 5.32532 0
M  V30 29725 H 5207.97 3.26371 7.47889 0
M  V30 29726 H 5210.62 1.64007 5.56746 0
M  V30 29727 H 5210.9 4.63439 5.3432 0
M  V30 29728 H 5211.89 3.44776 6.25925 0
M  V30 29729 H 5210.06 4.96707 7.57347 0
M  V30 29730 P 5211.93 2.75334 8.47391 0
M  V30 29731 O 5212.15 2.44571 9.90142 0
M  V30 29732 O 5212.72 3.87688 7.92115 0
M  V30 29733 O 5212.18 1.4459 7.59357 0
M  V30 29734 C 5211.24 0.347608 7.69215 0
M  V30 29735 C 5211.97 -0.96767 7.52806 0
M  V30 29736 O 5212.18 -1.21036 6.1011 0
M  V30 29737 C 5213.37 -1.04544 8.13308 0
M  V30 29738 O 5213.76 -2.38311 8.41922 0
M  V30 29739 C 5214.25 -0.491279 7.02284 0
M  V30 29740 C 5213.54 -0.996264 5.77469 0
M  V30 29741 N 5213.59 -0.0501916 4.62973 0
M  V30 29742 H 5210.75 0.374722 8.67691 0
M  V30 29743 H 5210.48 0.443485 6.90277 0
M  V30 29744 H 5211.35 -1.75537 7.96793 0
M  V30 29745 P 5215.31 -2.75334 8.47391 0
M  V30 29746 O 5215.53 -3.84128 9.44797 0
M  V30 29747 O 5216.1 -1.51947 8.68712 0
M  V30 29748 O 5215.56 -3.29363 6.99321 0
M  V30 29749 C 5214.62 -4.24011 6.4274 0
M  V30 29750 C 5215.35 -5.20775 5.52155 0
M  V30 29751 O 5215.56 -4.56534 4.22446 0
M  V30 29752 C 5216.75 -5.62629 5.96531 0
M  V30 29753 O 5217.14 -6.87667 5.41053 0
M  V30 29754 C 5217.63 -4.52537 5.39283 0
M  V30 29755 C 5216.92 -4.20027 4.08623 0
M  V30 29756 N 5216.97 -2.76189 3.71603 0
M  V30 29757 H 5214.13 -4.797 7.24003 0
M  V30 29758 H 5213.86 -3.69856 5.84513 0
M  V30 29759 H 5214.73 -6.10356 5.41441 0
M  V30 29760 P 5218.69 -7.20834 5.23717 0
M  V30 29761 O 5218.91 -8.66104 5.38572 0
M  V30 29762 O 5219.48 -6.33544 6.1349 0
M  V30 29763 O 5218.94 -6.7751 3.72168 0
M  V30 29764 C 5218 -7.20825 2.7076 0
M  V30 29765 C 5218.73 -7.45864 1.40599 0
M  V30 29766 O 5218.94 -6.17651 0.734225 0
M  V30 29767 C 5220.13 -8.05808 1.51899 0
M  V30 29768 O 5220.52 -8.74358 0.335205 0
M  V30 29769 C 5221.01 -6.83093 1.70294 0
M  V30 29770 C 5220.3 -5.79992 0.836974 0
M  V30 29771 N 5220.35 -4.41864 1.38293 0
M  V30 29772 H 5217.51 -8.13644 3.0377 0
M  V30 29773 H 5217.24 -6.42788 2.55485 0
M  V30 29774 H 5218.11 -8.12039 0.792769 0
M  V30 29775 P 5222.07 -8.91 2.41388e-10 0
M  V30 29776 O 5222.29 -10.1726 -0.733694 0
M  V30 29777 O 5222.86 -8.73148 1.23936 0
M  V30 29778 O 5222.32 -7.66872 -0.971405 0
M  V30 29779 C 5221.38 -7.42309 -2.04641 0
M  V30 29780 C 5222.11 -6.86059 -3.24661 0
M  V30 29781 O 5222.32 -5.42847 -3.03646 0
M  V30 29782 C 5223.51 -7.41196 -3.50753 0
M  V30 29783 O 5223.9 -7.27073 -4.86816 0
M  V30 29784 C 5224.39 -6.5273 -2.63741 0
M  V30 29785 C 5223.68 -5.1842 -2.73198 0
M  V30 29786 N 5223.73 -4.38762 -1.4784 0
M  V30 29787 C 5223.65 -4.81605 -0.168631 0
M  V30 29788 N 5223.73 -3.85454 0.713363 0
M  V30 29789 C 5223.87 -2.6994 -0.0566958 0
M  V30 29790 C 5224 -1.34815 0.338502 0
M  V30 29791 O 5224.02 -0.869548 1.47125 0
M  V30 29792 N 5224.12 -0.496304 -0.77465 0
M  V30 29793 C 5224.12 -0.908403 -2.09122 0
M  V30 29794 N 5224.25 0.0517805 -3.00955 0
M  V30 29795 N 5223.99 -2.17875 -2.46519 0
M  V30 29796 C 5223.87 -3.01988 -1.4033 0
M  V30 29797 H 5220.89 -8.36803 -2.32493 0
M  V30 29798 H 5220.62 -6.70197 -1.71129 0
M  V30 29799 H 5221.49 -7.03551 -4.13168 0
M  V30 29800 H 5224.14 -4.59498 -3.54415 0
M  V30 29801 H 5224.42 -6.88898 -1.59848 0
M  V30 29802 H 5225.41 -6.46749 -3.03687 0
M  V30 29803 H 5223.58 -8.46908 -3.20714 0
M  V30 29804 H 5223.53 -5.86405 0.105564 0
M  V30 29805 H 5224.21 0.483664 -0.597855 0
M  V30 29806 H 5224.25 -0.187865 -4.0116 0
M  V30 29807 H 5224.35 1.03585 -2.71726 0
M  V30 29808 P 5225.45 -7.20834 -5.23717 0
M  V30 29809 O 5225.67 -7.79853 -6.57286 0
M  V30 29810 O 5226.24 -7.79239 -4.12957 0
M  V30 29811 O 5225.7 -5.63315 -5.29344 0
M  V30 29812 C 5224.76 -4.80255 -6.01876 0
M  V30 29813 C 5225.49 -3.64202 -6.65911 0
M  V30 29814 O 5225.7 -2.60694 -5.64732 0
M  V30 29815 C 5226.89 -3.93473 -7.1943 0
M  V30 29816 O 5227.28 -3.02071 -8.21205 0
M  V30 29817 C 5227.77 -3.73047 -5.97036 0
M  V30 29818 C 5227.06 -2.58828 -5.25741 0
M  V30 29819 N 5227.11 -2.68068 -3.77503 0
M  V30 29820 H 5224.27 -5.40332 -6.79951 0
M  V30 29821 H 5224 -4.41613 -5.32378 0
M  V30 29822 H 5224.87 -3.26331 -7.47797 0
M  V30 29823 P 5228.83 -2.75334 -8.47391 0
M  V30 29824 O 5229.05 -2.44571 -9.90142 0
M  V30 29825 O 5229.62 -3.87688 -7.92115 0
M  V30 29826 O 5229.08 -1.4459 -7.59357 0
M  V30 29827 C 5228.14 -0.347608 -7.69215 0
M  V30 29828 C 5228.87 0.96767 -7.52806 0
M  V30 29829 O 5229.08 1.21036 -6.1011 0
M  V30 29830 C 5230.27 1.04544 -8.13308 0
M  V30 29831 O 5230.66 2.38311 -8.41922 0
M  V30 29832 C 5231.15 0.491279 -7.02284 0
M  V30 29833 C 5230.44 0.996264 -5.77469 0
M  V30 29834 N 5230.49 0.0501916 -4.62973 0
M  V30 29835 H 5227.65 -0.374722 -8.67691 0
M  V30 29836 H 5227.38 -0.443485 -6.90277 0
M  V30 29837 H 5228.25 1.75537 -7.96793 0
M  V30 29838 P 5232.21 2.75334 -8.47391 0
M  V30 29839 O 5232.43 3.84128 -9.44797 0
M  V30 29840 O 5233 1.51947 -8.68712 0
M  V30 29841 O 5232.46 3.29363 -6.99321 0
M  V30 29842 C 5231.52 4.24011 -6.4274 0
M  V30 29843 C 5232.25 5.20775 -5.52155 0
M  V30 29844 O 5232.46 4.56534 -4.22446 0
M  V30 29845 C 5233.65 5.62629 -5.96531 0
M  V30 29846 O 5234.04 6.87667 -5.41053 0
M  V30 29847 C 5234.53 4.52537 -5.39283 0
M  V30 29848 C 5233.82 4.20027 -4.08623 0
M  V30 29849 N 5233.87 2.76189 -3.71603 0
M  V30 29850 H 5231.03 4.797 -7.24003 0
M  V30 29851 H 5230.76 3.69856 -5.84513 0
M  V30 29852 H 5231.63 6.10356 -5.41441 0
M  V30 29853 P 5235.59 7.20834 -5.23717 0
M  V30 29854 O 5235.81 8.66274 -5.38678 0
M  V30 29855 O 5236.38 6.33687 -6.13629 0
M  V30 29856 O 5235.84 6.7751 -3.72168 0
M  V30 29857 C 5234.9 7.20919 -2.70795 0
M  V30 29858 C 5235.63 7.45864 -1.40599 0
M  V30 29859 O 5235.84 6.17751 -0.734343 0
M  V30 29860 C 5237.03 8.05906 -1.51917 0
M  V30 29861 O 5237.42 8.74358 -0.335205 0
M  V30 29862 C 5237.91 6.83093 -1.70294 0
M  V30 29863 C 5237.2 5.79992 -0.836974 0
M  V30 29864 N 5237.25 4.41864 -1.38293 0
M  V30 29865 H 5234.41 8.13738 -3.03804 0
M  V30 29866 H 5234.14 6.42974 -2.55559 0
M  V30 29867 H 5235.01 8.12139 -0.792866 0
M  V30 29868 H 5237.66 5.80178 0.160643 0
M  V30 29869 H 5237.94 6.51379 -2.75643 0
M  V30 29870 H 5238.93 7.01832 -1.3448 0
M  V30 29871 H 5237.1 8.73771 -2.38364 0
M  V30 29872 P 5238.97 8.91 -2.42497e-10 0
M  V30 29873 O 5239.19 10.1726 0.733694 0
M  V30 29874 O 5239.76 8.73148 -1.23936 0
M  V30 29875 O 5239.22 7.66872 0.971405 0
M  V30 29876 C 5238.28 7.42309 2.04641 0
M  V30 29877 C 5239.01 6.86059 3.24661 0
M  V30 29878 O 5239.22 5.42847 3.03646 0
M  V30 29879 C 5240.41 7.41196 3.50753 0
M  V30 29880 O 5240.8 7.27073 4.86816 0
M  V30 29881 C 5241.29 6.5273 2.63741 0
M  V30 29882 C 5240.58 5.1842 2.73198 0
M  V30 29883 N 5240.63 4.38762 1.4784 0
M  V30 29884 C 5240.55 4.81605 0.168631 0
M  V30 29885 N 5240.63 3.85454 -0.713363 0
M  V30 29886 C 5240.77 2.6994 0.0566958 0
M  V30 29887 C 5240.9 1.34815 -0.338502 0
M  V30 29888 O 5240.92 0.869548 -1.47125 0
M  V30 29889 N 5241.02 0.496304 0.77465 0
M  V30 29890 C 5241.02 0.908403 2.09122 0
M  V30 29891 N 5241.15 -0.0517805 3.00955 0
M  V30 29892 N 5240.89 2.17875 2.46519 0
M  V30 29893 C 5240.77 3.01988 1.4033 0
M  V30 29894 H 5237.79 8.36803 2.32493 0
M  V30 29895 H 5237.52 6.70197 1.71129 0
M  V30 29896 H 5238.39 7.03551 4.13168 0
M  V30 29897 H 5241.04 4.59498 3.54415 0
M  V30 29898 H 5241.32 6.88898 1.59848 0
M  V30 29899 H 5242.31 6.46749 3.03687 0
M  V30 29900 H 5240.48 8.46908 3.20714 0
M  V30 29901 H 5240.43 5.86405 -0.105564 0
M  V30 29902 H 5241.11 -0.483664 0.597855 0
M  V30 29903 H 5241.15 0.187865 4.0116 0
M  V30 29904 H 5241.25 -1.03585 2.71726 0
M  V30 29905 P 5242.35 7.20834 5.23717 0
M  V30 29906 O 5242.57 7.79853 6.57286 0
M  V30 29907 O 5243.14 7.79239 4.12957 0
M  V30 29908 O 5242.6 5.63315 5.29344 0
M  V30 29909 C 5241.66 4.80255 6.01876 0
M  V30 29910 C 5242.39 3.64202 6.65911 0
M  V30 29911 O 5242.6 2.60694 5.64732 0
M  V30 29912 C 5243.79 3.93473 7.1943 0
M  V30 29913 O 5244.18 3.02071 8.21205 0
M  V30 29914 C 5244.67 3.73047 5.97036 0
M  V30 29915 C 5243.96 2.58828 5.25741 0
M  V30 29916 N 5244.01 2.68068 3.77503 0
M  V30 29917 H 5241.17 5.40332 6.79951 0
M  V30 29918 H 5240.9 4.41613 5.32378 0
M  V30 29919 H 5241.77 3.26331 7.47797 0
M  V30 29920 P 5245.73 2.75334 8.47391 0
M  V30 29921 O 5245.95 2.44595 9.90239 0
M  V30 29922 O 5246.52 3.87732 7.92204 0
M  V30 29923 O 5245.98 1.4459 7.59357 0
M  V30 29924 C 5245.04 0.347563 7.69115 0
M  V30 29925 C 5245.77 -0.96767 7.52806 0
M  V30 29926 O 5245.98 -1.21036 6.1011 0
M  V30 29927 C 5247.17 -1.04544 8.13308 0
M  V30 29928 O 5247.56 -2.38311 8.41922 0
M  V30 29929 C 5248.05 -0.491279 7.02284 0
M  V30 29930 C 5247.34 -0.996264 5.77469 0
M  V30 29931 N 5247.39 -0.0501808 4.62873 0
M  V30 29932 C 5247.54 -0.588177 3.36904 0
M  V30 29933 O 5247.63 -1.78598 3.17173 0
M  V30 29934 N 5247.58 0.329694 2.33686 0
M  V30 29935 C 5247.49 1.6953 2.45079 0
M  V30 29936 O 5247.54 2.41926 1.44899 0
M  V30 29937 C 5247.34 2.16933 3.80505 0
M  V30 29938 C 5247.23 3.65373 3.97621 0
M  V30 29939 C 5247.29 1.30326 4.83752 0
M  V30 29940 H 5244.55 0.374722 8.67691 0
M  V30 29941 H 5244.28 0.443421 6.90177 0
M  V30 29942 H 5245.15 -1.75537 7.96793 0
M  V30 29943 H 5247.8 -1.94496 5.46629 0
M  V30 29944 H 5248.08 0.608651 7.04676 0
M  V30 29945 H 5249.07 -0.889672 7.08939 0
M  V30 29946 H 5247.24 -0.43308 9.04564 0
M  V30 29947 H 5247.17 1.68366 5.8516 0
M  V30 29948 H 5248.2 4.05985 4.30448 0
M  V30 29949 H 5246.46 3.88028 4.72875 0
M  V30 29950 H 5246.95 4.11381 3.01609 0
M  V30 29951 H 5247.68 -0.0393617 1.41345 0
M  V30 29952 P 5249.11 -2.75334 8.47391 0
M  V30 29953 O 5249.33 -3.84128 9.44797 0
M  V30 29954 O 5249.9 -1.51947 8.68712 0
M  V30 29955 O 5249.36 -3.29363 6.99321 0
M  V30 29956 C 5248.42 -4.24011 6.4274 0
M  V30 29957 C 5249.15 -5.20775 5.52155 0
M  V30 29958 O 5249.36 -4.56534 4.22446 0
M  V30 29959 C 5250.55 -5.62629 5.96531 0
M  V30 29960 O 5250.94 -6.87667 5.41053 0
M  V30 29961 C 5251.43 -4.52537 5.39283 0
M  V30 29962 C 5250.72 -4.20027 4.08623 0
M  V30 29963 N 5250.77 -2.76189 3.71603 0
M  V30 29964 H 5247.93 -4.797 7.24003 0
M  V30 29965 H 5247.66 -3.69856 5.84513 0
M  V30 29966 H 5248.53 -6.10356 5.41441 0
M  V30 29967 P 5252.49 -7.20834 5.23717 0
M  V30 29968 O 5252.71 -8.66104 5.38572 0
M  V30 29969 O 5253.28 -6.33544 6.1349 0
M  V30 29970 O 5252.74 -6.7751 3.72168 0
M  V30 29971 C 5251.8 -7.20825 2.7076 0
M  V30 29972 C 5252.53 -7.45864 1.40599 0
M  V30 29973 O 5252.74 -6.17651 0.734225 0
M  V30 29974 C 5253.93 -8.05808 1.51899 0
M  V30 29975 O 5254.32 -8.74358 0.335205 0
M  V30 29976 C 5254.81 -6.83093 1.70294 0
M  V30 29977 C 5254.1 -5.79992 0.836974 0
M  V30 29978 N 5254.15 -4.41864 1.38293 0
M  V30 29979 H 5251.31 -8.13644 3.0377 0
M  V30 29980 H 5251.04 -6.42788 2.55485 0
M  V30 29981 H 5251.91 -8.12039 0.792769 0
M  V30 29982 P 5255.87 -8.91 2.43606e-10 0
M  V30 29983 O 5256.09 -10.1726 -0.733694 0
M  V30 29984 O 5256.66 -8.73148 1.23936 0
M  V30 29985 O 5256.12 -7.66872 -0.971405 0
M  V30 29986 C 5255.18 -7.42309 -2.04641 0
M  V30 29987 C 5255.91 -6.86059 -3.24661 0
M  V30 29988 O 5256.12 -5.42847 -3.03646 0
M  V30 29989 C 5257.31 -7.41196 -3.50753 0
M  V30 29990 O 5257.7 -7.27073 -4.86816 0
M  V30 29991 C 5258.19 -6.5273 -2.63741 0
M  V30 29992 C 5257.48 -5.1842 -2.73198 0
M  V30 29993 N 5257.53 -4.38762 -1.4784 0
M  V30 29994 C 5257.45 -4.81605 -0.168631 0
M  V30 29995 N 5257.53 -3.85454 0.713363 0
M  V30 29996 C 5257.67 -2.6994 -0.0566958 0
M  V30 29997 C 5257.8 -1.34815 0.338502 0
M  V30 29998 O 5257.82 -0.869548 1.47125 0
M  V30 29999 N 5257.92 -0.496304 -0.77465 0
M  V30 30000 C 5257.92 -0.908403 -2.09122 0
M  V30 30001 N 5258.05 0.0517805 -3.00955 0
M  V30 30002 N 5257.79 -2.17875 -2.46519 0
M  V30 30003 C 5257.67 -3.01988 -1.4033 0
M  V30 30004 H 5254.69 -8.36803 -2.32493 0
M  V30 30005 H 5254.42 -6.70197 -1.71129 0
M  V30 30006 H 5255.29 -7.03551 -4.13168 0
M  V30 30007 H 5257.94 -4.59498 -3.54415 0
M  V30 30008 H 5258.22 -6.88898 -1.59848 0
M  V30 30009 H 5259.21 -6.46749 -3.03687 0
M  V30 30010 H 5257.38 -8.46908 -3.20714 0
M  V30 30011 H 5257.33 -5.86405 0.105564 0
M  V30 30012 H 5258.01 0.483664 -0.597855 0
M  V30 30013 H 5258.05 -0.187865 -4.0116 0
M  V30 30014 H 5258.15 1.03585 -2.71726 0
M  V30 30015 P 5259.25 -7.20834 -5.23717 0
M  V30 30016 O 5259.47 -7.79853 -6.57286 0
M  V30 30017 O 5260.04 -7.79239 -4.12957 0
M  V30 30018 O 5259.5 -5.63315 -5.29344 0
M  V30 30019 C 5258.56 -4.80255 -6.01876 0
M  V30 30020 C 5259.29 -3.64202 -6.65911 0
M  V30 30021 O 5259.5 -2.60694 -5.64732 0
M  V30 30022 C 5260.69 -3.93473 -7.1943 0
M  V30 30023 O 5261.08 -3.02071 -8.21205 0
M  V30 30024 C 5261.57 -3.73047 -5.97036 0
M  V30 30025 C 5260.86 -2.58828 -5.25741 0
M  V30 30026 N 5260.91 -2.68068 -3.77503 0
M  V30 30027 H 5258.07 -5.40332 -6.79951 0
M  V30 30028 H 5257.8 -4.41613 -5.32378 0
M  V30 30029 H 5258.67 -3.26331 -7.47797 0
M  V30 30030 P 5262.63 -2.75334 -8.47391 0
M  V30 30031 O 5262.85 -2.44571 -9.90142 0
M  V30 30032 O 5263.42 -3.87688 -7.92115 0
M  V30 30033 O 5262.88 -1.4459 -7.59357 0
M  V30 30034 C 5261.94 -0.347608 -7.69215 0
M  V30 30035 C 5262.67 0.96767 -7.52806 0
M  V30 30036 O 5262.88 1.21036 -6.1011 0
M  V30 30037 C 5264.07 1.04544 -8.13308 0
M  V30 30038 O 5264.46 2.38311 -8.41922 0
M  V30 30039 C 5264.95 0.491279 -7.02284 0
M  V30 30040 C 5264.24 0.996264 -5.77469 0
M  V30 30041 N 5264.29 0.0501916 -4.62973 0
M  V30 30042 H 5261.45 -0.374722 -8.67691 0
M  V30 30043 H 5261.18 -0.443485 -6.90277 0
M  V30 30044 H 5262.05 1.75537 -7.96793 0
M  V30 30045 P 5266.01 2.75334 -8.47391 0
M  V30 30046 O 5266.23 3.84128 -9.44797 0
M  V30 30047 O 5266.8 1.51947 -8.68712 0
M  V30 30048 O 5266.26 3.29363 -6.99321 0
M  V30 30049 C 5265.32 4.24011 -6.4274 0
M  V30 30050 C 5266.05 5.20775 -5.52155 0
M  V30 30051 O 5266.26 4.56534 -4.22446 0
M  V30 30052 C 5267.45 5.62629 -5.96531 0
M  V30 30053 O 5267.84 6.87667 -5.41053 0
M  V30 30054 C 5268.33 4.52537 -5.39283 0
M  V30 30055 C 5267.62 4.20027 -4.08623 0
M  V30 30056 N 5267.67 2.76189 -3.71603 0
M  V30 30057 H 5264.83 4.797 -7.24003 0
M  V30 30058 H 5264.56 3.69856 -5.84513 0
M  V30 30059 H 5265.43 6.10356 -5.41441 0
M  V30 30060 P 5269.39 7.20834 -5.23717 0
M  V30 30061 O 5269.61 8.66274 -5.38678 0
M  V30 30062 O 5270.18 6.33687 -6.13629 0
M  V30 30063 O 5269.64 6.7751 -3.72168 0
M  V30 30064 C 5268.7 7.20919 -2.70795 0
M  V30 30065 C 5269.43 7.45864 -1.40599 0
M  V30 30066 O 5269.64 6.17751 -0.734343 0
M  V30 30067 C 5270.83 8.05906 -1.51917 0
M  V30 30068 O 5271.22 8.74358 -0.335205 0
M  V30 30069 C 5271.71 6.83093 -1.70294 0
M  V30 30070 C 5271 5.79992 -0.836974 0
M  V30 30071 N 5271.05 4.41864 -1.38293 0
M  V30 30072 C 5270.97 4.02089 -2.69407 0
M  V30 30073 N 5271.04 2.73403 -2.85089 0
M  V30 30074 C 5271.19 2.25086 -1.5642 0
M  V30 30075 C 5271.32 0.942887 -1.04836 0
M  V30 30076 N 5271.33 -0.150999 -1.80369 0
M  V30 30077 N 5271.44 0.812565 0.28167 0
M  V30 30078 C 5271.43 1.90572 1.03784 0
M  V30 30079 N 5271.31 3.167 0.683905 0
M  V30 30080 C 5271.19 3.26538 -0.652815 0
M  V30 30081 H 5268.21 8.13738 -3.03804 0
M  V30 30082 H 5267.94 6.42974 -2.55559 0
M  V30 30083 H 5268.81 8.12139 -0.792866 0
M  V30 30084 H 5271.46 5.80178 0.160643 0
M  V30 30085 H 5271.74 6.51379 -2.75643 0
M  V30 30086 H 5272.73 7.01832 -1.3448 0
M  V30 30087 H 5270.9 8.73771 -2.38364 0
M  V30 30088 H 5270.86 4.7189 -3.52311 0
M  V30 30089 H 5271.24 -0.0721434 -2.82608 0
M  V30 30090 H 5271.43 -1.0785 -1.36544 0
M  V30 30091 H 5271.54 1.73207 2.10241 0
M  V30 30092 P 5272.77 8.91 -2.44715e-10 0
M  V30 30093 O 5272.99 10.1726 0.733694 0
M  V30 30094 O 5273.56 8.73148 -1.23936 0
M  V30 30095 O 5273.02 7.66872 0.971405 0
M  V30 30096 C 5272.08 7.42309 2.04641 0
M  V30 30097 C 5272.81 6.86059 3.24661 0
M  V30 30098 O 5273.02 5.42847 3.03646 0
M  V30 30099 C 5274.21 7.41196 3.50753 0
M  V30 30100 O 5274.6 7.27073 4.86816 0
M  V30 30101 C 5275.09 6.5273 2.63741 0
M  V30 30102 C 5274.38 5.1842 2.73198 0
M  V30 30103 N 5274.43 4.38762 1.4784 0
M  V30 30104 H 5271.59 8.36803 2.32493 0
M  V30 30105 H 5271.32 6.70197 1.71129 0
M  V30 30106 H 5272.19 7.03551 4.13168 0
M  V30 30107 P 5276.15 7.20834 5.23717 0
M  V30 30108 O 5276.37 7.79853 6.57286 0
M  V30 30109 O 5276.94 7.79239 4.12957 0
M  V30 30110 O 5276.4 5.63315 5.29344 0
M  V30 30111 C 5275.46 4.80255 6.01876 0
M  V30 30112 C 5276.19 3.64202 6.65911 0
M  V30 30113 O 5276.4 2.60694 5.64732 0
M  V30 30114 C 5277.59 3.93473 7.1943 0
M  V30 30115 O 5277.98 3.02071 8.21205 0
M  V30 30116 C 5278.47 3.73047 5.97036 0
M  V30 30117 C 5277.76 2.58828 5.25741 0
M  V30 30118 N 5277.81 2.68068 3.77503 0
M  V30 30119 H 5274.97 5.40332 6.79951 0
M  V30 30120 H 5274.7 4.41613 5.32378 0
M  V30 30121 H 5275.57 3.26331 7.47797 0
M  V30 30122 P 5279.53 2.75334 8.47391 0
M  V30 30123 O 5279.75 2.44571 9.90142 0
M  V30 30124 O 5280.32 3.87688 7.92115 0
M  V30 30125 O 5279.78 1.4459 7.59357 0
M  V30 30126 C 5278.84 0.347608 7.69215 0
M  V30 30127 C 5279.57 -0.96767 7.52806 0
M  V30 30128 O 5279.78 -1.21036 6.1011 0
M  V30 30129 C 5280.97 -1.04544 8.13308 0
M  V30 30130 O 5281.36 -2.38311 8.41922 0
M  V30 30131 C 5281.85 -0.491279 7.02284 0
M  V30 30132 C 5281.14 -0.996264 5.77469 0
M  V30 30133 N 5281.19 -0.0501916 4.62973 0
M  V30 30134 H 5278.35 0.374722 8.67691 0
M  V30 30135 H 5278.08 0.443485 6.90277 0
M  V30 30136 H 5278.95 -1.75537 7.96793 0
M  V30 30137 P 5282.91 -2.75334 8.47391 0
M  V30 30138 O 5283.13 -3.84128 9.44797 0
M  V30 30139 O 5283.7 -1.51947 8.68712 0
M  V30 30140 O 5283.16 -3.29363 6.99321 0
M  V30 30141 C 5282.22 -4.24011 6.4274 0
M  V30 30142 C 5282.95 -5.20775 5.52155 0
M  V30 30143 O 5283.16 -4.56534 4.22446 0
M  V30 30144 C 5284.35 -5.62629 5.96531 0
M  V30 30145 O 5284.74 -6.87667 5.41053 0
M  V30 30146 C 5285.23 -4.52537 5.39283 0
M  V30 30147 C 5284.52 -4.20027 4.08623 0
M  V30 30148 N 5284.57 -2.76189 3.71603 0
M  V30 30149 H 5281.73 -4.797 7.24003 0
M  V30 30150 H 5281.46 -3.69856 5.84513 0
M  V30 30151 H 5282.33 -6.10356 5.41441 0
M  V30 30152 P 5286.29 -7.20834 5.23717 0
M  V30 30153 O 5286.51 -8.66104 5.38572 0
M  V30 30154 O 5287.08 -6.33544 6.1349 0
M  V30 30155 O 5286.54 -6.7751 3.72168 0
M  V30 30156 C 5285.6 -7.20825 2.7076 0
M  V30 30157 C 5286.33 -7.45864 1.40599 0
M  V30 30158 O 5286.54 -6.17651 0.734225 0
M  V30 30159 C 5287.73 -8.05808 1.51899 0
M  V30 30160 O 5288.12 -8.74358 0.335205 0
M  V30 30161 C 5288.61 -6.83093 1.70294 0
M  V30 30162 C 5287.9 -5.79992 0.836974 0
M  V30 30163 N 5287.95 -4.41864 1.38293 0
M  V30 30164 H 5285.11 -8.13644 3.0377 0
M  V30 30165 H 5284.84 -6.42788 2.55485 0
M  V30 30166 H 5285.71 -8.12039 0.792769 0
M  V30 30167 P 5289.67 -8.91 2.45824e-10 0
M  V30 30168 O 5289.89 -10.1736 -0.733766 0
M  V30 30169 O 5290.46 -8.73247 1.2395 0
M  V30 30170 O 5289.92 -7.66872 -0.971405 0
M  V30 30171 C 5288.98 -7.42212 -2.04614 0
M  V30 30172 C 5289.71 -6.86059 -3.24661 0
M  V30 30173 O 5289.92 -5.42847 -3.03646 0
M  V30 30174 C 5291.11 -7.41196 -3.50753 0
M  V30 30175 O 5291.5 -7.27073 -4.86816 0
M  V30 30176 C 5291.99 -6.5273 -2.63741 0
M  V30 30177 C 5291.28 -5.1842 -2.73198 0
M  V30 30178 N 5291.33 -4.38668 -1.47808 0
M  V30 30179 C 5291.48 -3.02239 -1.60048 0
M  V30 30180 O 5291.57 -2.46459 -2.67869 0
M  V30 30181 N 5291.52 -2.32436 -0.408571 0
M  V30 30182 C 5291.43 -2.85471 0.854993 0
M  V30 30183 O 5291.48 -2.12566 1.8531 0
M  V30 30184 C 5291.28 -4.28918 0.887335 0
M  V30 30185 C 5291.17 -4.91066 2.24619 0
M  V30 30186 C 5291.23 -5.00349 -0.255399 0
M  V30 30187 H 5288.49 -8.36803 -2.32493 0
M  V30 30188 H 5288.22 -6.701 -1.71105 0
M  V30 30189 H 5289.09 -7.03551 -4.13168 0
M  V30 30190 H 5291.74 -4.59773 -3.53894 0
M  V30 30191 H 5292.02 -6.88995 -1.59871 0
M  V30 30192 H 5293.01 -6.46749 -3.03687 0
M  V30 30193 H 5291.18 -8.46908 -3.20714 0
M  V30 30194 H 5291.11 -6.08548 -0.206986 0
M  V30 30195 H 5292.14 -5.34836 2.53099 0
M  V30 30196 H 5290.4 -5.69638 2.2291 0
M  V30 30197 H 5290.89 -4.13971 2.98044 0
M  V30 30198 H 5291.62 -1.33211 -0.474216 0
M  V30 30199 P 5293.05 -7.20834 -5.23717 0
M  V30 30200 O 5293.27 -7.7993 -6.57351 0
M  V30 30201 O 5293.84 -7.79328 -4.13004 0
M  V30 30202 O 5293.3 -5.63315 -5.29344 0
M  V30 30203 C 5292.36 -4.80193 -6.01798 0
M  V30 30204 C 5293.09 -3.64202 -6.65911 0
M  V30 30205 O 5293.3 -2.60694 -5.64732 0
M  V30 30206 C 5294.49 -3.93473 -7.1943 0
M  V30 30207 O 5294.88 -3.02071 -8.21205 0
M  V30 30208 C 5295.37 -3.73047 -5.97036 0
M  V30 30209 C 5294.66 -2.58828 -5.25741 0
M  V30 30210 N 5294.71 -2.6801 -3.77422 0
M  V30 30211 C 5294.86 -1.50443 -3.07133 0
M  V30 30212 O 5294.95 -0.419406 -3.61576 0
M  V30 30213 N 5294.9 -1.6403 -1.69677 0
M  V30 30214 C 5294.81 -2.81206 -0.986255 0
M  V30 30215 O 5294.86 -2.80892 0.249754 0
M  V30 30216 C 5294.66 -3.99158 -1.80325 0
M  V30 30217 C 5294.55 -5.29309 -1.06921 0
M  V30 30218 C 5294.61 -3.89779 -3.1476 0
M  V30 30219 H 5291.87 -5.40332 -6.79951 0
M  V30 30220 H 5291.6 -4.41549 -5.32301 0
M  V30 30221 H 5292.47 -3.26331 -7.47797 0
M  V30 30222 H 5295.12 -1.6395 -5.56554 0
M  V30 30223 H 5295.4 -4.63439 -5.3432 0
M  V30 30224 H 5296.39 -3.44728 -6.25838 0
M  V30 30225 H 5294.56 -4.96652 -7.57263 0
M  V30 30226 H 5294.49 -4.80159 -3.74441 0
M  V30 30227 H 5295.52 -5.81459 -1.09608 0
M  V30 30228 H 5293.78 -5.9187 -1.54487 0
M  V30 30229 H 5294.27 -5.10095 -0.0220288 0
M  V30 30230 H 5295 -0.798962 -1.16664 0
M  V30 30231 P 5296.43 -2.75334 -8.47391 0
M  V30 30232 O 5296.65 -2.44571 -9.90142 0
M  V30 30233 O 5297.22 -3.87688 -7.92115 0
M  V30 30234 O 5296.68 -1.4459 -7.59357 0
M  V30 30235 C 5295.74 -0.347608 -7.69215 0
M  V30 30236 C 5296.47 0.96767 -7.52806 0
M  V30 30237 O 5296.68 1.21036 -6.1011 0
M  V30 30238 C 5297.87 1.04544 -8.13308 0
M  V30 30239 O 5298.26 2.38311 -8.41922 0
M  V30 30240 C 5298.75 0.491279 -7.02284 0
M  V30 30241 C 5298.04 0.996264 -5.77469 0
M  V30 30242 N 5298.09 0.0501916 -4.62973 0
M  V30 30243 H 5295.25 -0.374722 -8.67691 0
M  V30 30244 H 5294.98 -0.443485 -6.90277 0
M  V30 30245 H 5295.85 1.75537 -7.96793 0
M  V30 30246 P 5299.81 2.75334 -8.47391 0
M  V30 30247 O 5300.03 3.84128 -9.44797 0
M  V30 30248 O 5300.6 1.51947 -8.68712 0
M  V30 30249 O 5300.06 3.29363 -6.99321 0
M  V30 30250 C 5299.12 4.24011 -6.4274 0
M  V30 30251 C 5299.85 5.20775 -5.52155 0
M  V30 30252 O 5300.06 4.56534 -4.22446 0
M  V30 30253 C 5301.25 5.62629 -5.96531 0
M  V30 30254 O 5301.64 6.87667 -5.41053 0
M  V30 30255 C 5302.13 4.52537 -5.39283 0
M  V30 30256 C 5301.42 4.20027 -4.08623 0
M  V30 30257 N 5301.47 2.76189 -3.71603 0
M  V30 30258 C 5301.39 1.64862 -4.52822 0
M  V30 30259 N 5301.47 0.512671 -3.88633 0
M  V30 30260 C 5301.61 0.888083 -2.54977 0
M  V30 30261 C 5301.74 0.094668 -1.38677 0
M  V30 30262 N 5301.86 0.890102 -0.232633 0
M  V30 30263 C 5301.86 2.26958 -0.21772 0
M  V30 30264 N 5301.99 2.84626 0.97925 0
M  V30 30265 N 5301.73 3.0178 -1.31033 0
M  V30 30266 C 5301.61 2.26781 -2.43843 0
M  V30 30267 H 5298.63 4.797 -7.24003 0
M  V30 30268 H 5298.36 3.69856 -5.84513 0
M  V30 30269 H 5299.23 6.10356 -5.41441 0
M  V30 30270 P 5303.19 7.20834 -5.23717 0
M  V30 30271 O 5303.41 8.66104 -5.38572 0
M  V30 30272 O 5303.98 6.33544 -6.1349 0
M  V30 30273 O 5303.44 6.7751 -3.72168 0
M  V30 30274 C 5302.5 7.20825 -2.7076 0
M  V30 30275 C 5303.23 7.45864 -1.40599 0
M  V30 30276 O 5303.44 6.17651 -0.734225 0
M  V30 30277 C 5304.63 8.05808 -1.51899 0
M  V30 30278 O 5305.02 8.74358 -0.335205 0
M  V30 30279 C 5305.51 6.83093 -1.70294 0
M  V30 30280 C 5304.8 5.79992 -0.836974 0
M  V30 30281 N 5304.85 4.41864 -1.38293 0
M  V30 30282 H 5302.01 8.13644 -3.0377 0
M  V30 30283 H 5301.74 6.42788 -2.55485 0
M  V30 30284 H 5302.61 8.12039 -0.792769 0
M  V30 30285 P 5306.57 8.91 -2.46933e-10 0
M  V30 30286 O 5306.79 10.1726 0.733694 0
M  V30 30287 O 5307.36 8.73148 -1.23936 0
M  V30 30288 O 5306.82 7.66872 0.971405 0
M  V30 30289 C 5305.88 7.42309 2.04641 0
M  V30 30290 C 5306.61 6.86059 3.24661 0
M  V30 30291 O 5306.82 5.42847 3.03646 0
M  V30 30292 C 5308.01 7.41196 3.50753 0
M  V30 30293 O 5308.4 7.27073 4.86816 0
M  V30 30294 C 5308.89 6.5273 2.63741 0
M  V30 30295 C 5308.18 5.1842 2.73198 0
M  V30 30296 N 5308.23 4.38762 1.4784 0
M  V30 30297 H 5305.39 8.36803 2.32493 0
M  V30 30298 H 5305.12 6.70197 1.71129 0
M  V30 30299 H 5305.99 7.03551 4.13168 0
M  V30 30300 P 5309.95 7.20834 5.23717 0
M  V30 30301 O 5310.17 7.7993 6.57351 0
M  V30 30302 O 5310.74 7.79328 4.13004 0
M  V30 30303 O 5310.2 5.63315 5.29344 0
M  V30 30304 C 5309.26 4.80193 6.01798 0
M  V30 30305 C 5309.99 3.64202 6.65911 0
M  V30 30306 O 5310.2 2.60694 5.64732 0
M  V30 30307 C 5311.39 3.93473 7.1943 0
M  V30 30308 O 5311.78 3.02071 8.21205 0
M  V30 30309 C 5312.27 3.73047 5.97036 0
M  V30 30310 C 5311.56 2.58828 5.25741 0
M  V30 30311 N 5311.61 2.6801 3.77422 0
M  V30 30312 C 5311.76 1.50443 3.07133 0
M  V30 30313 O 5311.85 0.419406 3.61576 0
M  V30 30314 N 5311.8 1.6403 1.69677 0
M  V30 30315 C 5311.71 2.81206 0.986255 0
M  V30 30316 O 5311.76 2.80892 -0.249754 0
M  V30 30317 C 5311.56 3.99158 1.80325 0
M  V30 30318 C 5311.45 5.29309 1.06921 0
M  V30 30319 C 5311.51 3.89779 3.1476 0
M  V30 30320 H 5308.77 5.40332 6.79951 0
M  V30 30321 H 5308.5 4.41549 5.32301 0
M  V30 30322 H 5309.37 3.26331 7.47797 0
M  V30 30323 H 5312.02 1.6395 5.56554 0
M  V30 30324 H 5312.3 4.63439 5.3432 0
M  V30 30325 H 5313.29 3.44728 6.25838 0
M  V30 30326 H 5311.46 4.96652 7.57263 0
M  V30 30327 H 5311.39 4.80159 3.74441 0
M  V30 30328 H 5312.42 5.81459 1.09608 0
M  V30 30329 H 5310.68 5.9187 1.54487 0
M  V30 30330 H 5311.17 5.10095 0.0220288 0
M  V30 30331 H 5311.9 0.798962 1.16664 0
M  V30 30332 P 5313.33 2.75334 8.47391 0
M  V30 30333 O 5313.55 2.44571 9.90142 0
M  V30 30334 O 5314.12 3.87688 7.92115 0
M  V30 30335 O 5313.58 1.4459 7.59357 0
M  V30 30336 C 5312.64 0.347608 7.69215 0
M  V30 30337 C 5313.37 -0.96767 7.52806 0
M  V30 30338 O 5313.58 -1.21036 6.1011 0
M  V30 30339 C 5314.77 -1.04544 8.13308 0
M  V30 30340 O 5315.16 -2.38311 8.41922 0
M  V30 30341 C 5315.65 -0.491279 7.02284 0
M  V30 30342 C 5314.94 -0.996264 5.77469 0
M  V30 30343 N 5314.99 -0.0501916 4.62973 0
M  V30 30344 H 5312.15 0.374722 8.67691 0
M  V30 30345 H 5311.88 0.443485 6.90277 0
M  V30 30346 H 5312.75 -1.75537 7.96793 0
M  V30 30347 P 5316.71 -2.75334 8.47391 0
M  V30 30348 O 5316.93 -3.84128 9.44797 0
M  V30 30349 O 5317.5 -1.51947 8.68712 0
M  V30 30350 O 5316.96 -3.29363 6.99321 0
M  V30 30351 C 5316.02 -4.24011 6.4274 0
M  V30 30352 C 5316.75 -5.20775 5.52155 0
M  V30 30353 O 5316.96 -4.56534 4.22446 0
M  V30 30354 C 5318.15 -5.62629 5.96531 0
M  V30 30355 O 5318.54 -6.87667 5.41053 0
M  V30 30356 C 5319.03 -4.52537 5.39283 0
M  V30 30357 C 5318.32 -4.20027 4.08623 0
M  V30 30358 N 5318.37 -2.76189 3.71603 0
M  V30 30359 H 5315.53 -4.797 7.24003 0
M  V30 30360 H 5315.26 -3.69856 5.84513 0
M  V30 30361 H 5316.13 -6.10356 5.41441 0
M  V30 30362 P 5320.09 -7.20834 5.23717 0
M  V30 30363 O 5320.31 -8.66104 5.38572 0
M  V30 30364 O 5320.88 -6.33544 6.1349 0
M  V30 30365 O 5320.34 -6.7751 3.72168 0
M  V30 30366 C 5319.4 -7.20825 2.7076 0
M  V30 30367 C 5320.13 -7.45864 1.40599 0
M  V30 30368 O 5320.34 -6.17651 0.734225 0
M  V30 30369 C 5321.53 -8.05808 1.51899 0
M  V30 30370 O 5321.92 -8.74358 0.335205 0
M  V30 30371 C 5322.41 -6.83093 1.70294 0
M  V30 30372 C 5321.7 -5.79992 0.836974 0
M  V30 30373 N 5321.75 -4.41864 1.38293 0
M  V30 30374 H 5318.91 -8.13644 3.0377 0
M  V30 30375 H 5318.64 -6.42788 2.55485 0
M  V30 30376 H 5319.51 -8.12039 0.792769 0
M  V30 30377 P 5323.47 -8.91 2.48042e-10 0
M  V30 30378 O 5323.69 -10.1726 -0.733694 0
M  V30 30379 O 5324.26 -8.73148 1.23936 0
M  V30 30380 O 5323.72 -7.66872 -0.971405 0
M  V30 30381 C 5322.78 -7.42309 -2.04641 0
M  V30 30382 C 5323.51 -6.86059 -3.24661 0
M  V30 30383 O 5323.72 -5.42847 -3.03646 0
M  V30 30384 C 5324.91 -7.41196 -3.50753 0
M  V30 30385 O 5325.3 -7.27073 -4.86816 0
M  V30 30386 C 5325.79 -6.5273 -2.63741 0
M  V30 30387 C 5325.08 -5.1842 -2.73198 0
M  V30 30388 N 5325.13 -4.38762 -1.4784 0
M  V30 30389 H 5322.29 -8.36803 -2.32493 0
M  V30 30390 H 5322.02 -6.70197 -1.71129 0
M  V30 30391 H 5322.89 -7.03551 -4.13168 0
M  V30 30392 P 5326.85 -7.20834 -5.23717 0
M  V30 30393 O 5327.07 -7.79853 -6.57286 0
M  V30 30394 O 5327.64 -7.79239 -4.12957 0
M  V30 30395 O 5327.1 -5.63315 -5.29344 0
M  V30 30396 C 5326.16 -4.80255 -6.01876 0
M  V30 30397 C 5326.89 -3.64202 -6.65911 0
M  V30 30398 O 5327.1 -2.60694 -5.64732 0
M  V30 30399 C 5328.29 -3.93473 -7.1943 0
M  V30 30400 O 5328.68 -3.02071 -8.21205 0
M  V30 30401 C 5329.17 -3.73047 -5.97036 0
M  V30 30402 C 5328.46 -2.58828 -5.25741 0
M  V30 30403 N 5328.51 -2.68068 -3.77503 0
M  V30 30404 H 5325.67 -5.40332 -6.79951 0
M  V30 30405 H 5325.4 -4.41613 -5.32378 0
M  V30 30406 H 5326.27 -3.26331 -7.47797 0
M  V30 30407 P 5330.23 -2.75334 -8.47391 0
M  V30 30408 O 5330.45 -2.44619 -9.90336 0
M  V30 30409 O 5331.02 -3.87776 -7.92294 0
M  V30 30410 O 5330.48 -1.4459 -7.59357 0
M  V30 30411 C 5329.54 -0.347653 -7.69315 0
M  V30 30412 C 5330.27 0.96767 -7.52806 0
M  V30 30413 O 5330.48 1.21055 -6.10208 0
M  V30 30414 C 5331.67 1.04557 -8.13408 0
M  V30 30415 O 5332.06 2.38311 -8.41922 0
M  V30 30416 C 5332.55 0.491279 -7.02284 0
M  V30 30417 C 5331.84 0.996264 -5.77469 0
M  V30 30418 N 5331.89 0.0501916 -4.62973 0
M  V30 30419 H 5329.05 -0.374765 -8.67791 0
M  V30 30420 H 5328.78 -0.443613 -6.90476 0
M  V30 30421 H 5329.65 1.75559 -7.96891 0
M  V30 30422 H 5332.3 1.94563 -5.46818 0
M  V30 30423 H 5332.58 -0.608651 -7.04676 0
M  V30 30424 H 5333.57 0.889796 -7.09039 0
M  V30 30425 H 5331.74 0.433128 -9.04664 0
M  V30 30426 P 5333.61 2.75334 -8.47391 0
M  V30 30427 O 5333.83 3.84128 -9.44797 0
M  V30 30428 O 5334.4 1.51947 -8.68712 0
M  V30 30429 O 5333.86 3.29363 -6.99321 0
M  V30 30430 C 5332.92 4.24011 -6.4274 0
M  V30 30431 C 5333.65 5.20775 -5.52155 0
M  V30 30432 O 5333.86 4.56534 -4.22446 0
M  V30 30433 C 5335.05 5.62629 -5.96531 0
M  V30 30434 O 5335.44 6.87667 -5.41053 0
M  V30 30435 C 5335.93 4.52537 -5.39283 0
M  V30 30436 C 5335.22 4.20027 -4.08623 0
M  V30 30437 N 5335.27 2.76189 -3.71603 0
M  V30 30438 C 5335.19 1.64862 -4.52822 0
M  V30 30439 N 5335.27 0.512671 -3.88633 0
M  V30 30440 C 5335.41 0.888083 -2.54977 0
M  V30 30441 C 5335.54 0.094668 -1.38677 0
M  V30 30442 N 5335.66 0.890102 -0.232633 0
M  V30 30443 C 5335.66 2.26958 -0.21772 0
M  V30 30444 N 5335.79 2.84626 0.97925 0
M  V30 30445 N 5335.53 3.0178 -1.31033 0
M  V30 30446 C 5335.41 2.26781 -2.43843 0
M  V30 30447 H 5332.43 4.797 -7.24003 0
M  V30 30448 H 5332.16 3.69856 -5.84513 0
M  V30 30449 H 5333.03 6.10356 -5.41441 0
M  V30 30450 P 5336.99 7.20834 -5.23717 0
M  V30 30451 O 5337.21 8.66104 -5.38572 0
M  V30 30452 O 5337.78 6.33544 -6.1349 0
M  V30 30453 O 5337.24 6.7751 -3.72168 0
M  V30 30454 C 5336.3 7.20825 -2.7076 0
M  V30 30455 C 5337.03 7.45864 -1.40599 0
M  V30 30456 O 5337.24 6.17651 -0.734225 0
M  V30 30457 C 5338.43 8.05808 -1.51899 0
M  V30 30458 O 5338.82 8.74358 -0.335205 0
M  V30 30459 C 5339.31 6.83093 -1.70294 0
M  V30 30460 C 5338.6 5.79992 -0.836974 0
M  V30 30461 N 5338.65 4.41864 -1.38293 0
M  V30 30462 H 5335.81 8.13644 -3.0377 0
M  V30 30463 H 5335.54 6.42788 -2.55485 0
M  V30 30464 H 5336.41 8.12039 -0.792769 0
M  V30 30465 P 5340.37 8.91 -2.49151e-10 0
M  V30 30466 O 5340.59 10.1726 0.733694 0
M  V30 30467 O 5341.16 8.73148 -1.23936 0
M  V30 30468 O 5340.62 7.66872 0.971405 0
M  V30 30469 C 5339.68 7.42309 2.04641 0
M  V30 30470 C 5340.41 6.86059 3.24661 0
M  V30 30471 O 5340.62 5.42847 3.03646 0
M  V30 30472 C 5341.81 7.41196 3.50753 0
M  V30 30473 O 5342.2 7.27073 4.86816 0
M  V30 30474 C 5342.69 6.5273 2.63741 0
M  V30 30475 C 5341.98 5.1842 2.73198 0
M  V30 30476 N 5342.03 4.38762 1.4784 0
M  V30 30477 H 5339.19 8.36803 2.32493 0
M  V30 30478 H 5338.92 6.70197 1.71129 0
M  V30 30479 H 5339.79 7.03551 4.13168 0
M  V30 30480 P 5343.75 7.20834 5.23717 0
M  V30 30481 O 5343.97 7.80006 6.57415 0
M  V30 30482 O 5344.54 7.79416 4.13051 0
M  V30 30483 O 5344 5.63315 5.29344 0
M  V30 30484 C 5343.06 4.80318 6.01954 0
M  V30 30485 C 5343.79 3.64202 6.65911 0
M  V30 30486 O 5344 2.60736 5.64823 0
M  V30 30487 C 5345.19 3.93521 7.19518 0
M  V30 30488 O 5345.58 3.02071 8.21205 0
M  V30 30489 C 5346.07 3.73047 5.97036 0
M  V30 30490 C 5345.36 2.58828 5.25741 0
M  V30 30491 N 5345.41 2.68068 3.77503 0
M  V30 30492 H 5342.57 5.40394 6.8003 0
M  V30 30493 H 5342.3 4.41741 5.32532 0
M  V30 30494 H 5343.17 3.26371 7.47889 0
M  V30 30495 H 5345.82 1.64007 5.56746 0
M  V30 30496 H 5346.1 4.63439 5.3432 0
M  V30 30497 H 5347.09 3.44776 6.25925 0
M  V30 30498 H 5345.26 4.96707 7.57347 0
M  V30 30499 P 5347.13 2.75334 8.47391 0
M  V30 30500 O 5347.35 2.44571 9.90142 0
M  V30 30501 O 5347.92 3.87688 7.92115 0
M  V30 30502 O 5347.38 1.4459 7.59357 0
M  V30 30503 C 5346.44 0.347608 7.69215 0
M  V30 30504 C 5347.17 -0.96767 7.52806 0
M  V30 30505 O 5347.38 -1.21036 6.1011 0
M  V30 30506 C 5348.57 -1.04544 8.13308 0
M  V30 30507 O 5348.96 -2.38311 8.41922 0
M  V30 30508 C 5349.45 -0.491279 7.02284 0
M  V30 30509 C 5348.74 -0.996264 5.77469 0
M  V30 30510 N 5348.79 -0.0501916 4.62973 0
M  V30 30511 H 5345.95 0.374722 8.67691 0
M  V30 30512 H 5345.68 0.443485 6.90277 0
M  V30 30513 H 5346.55 -1.75537 7.96793 0
M  V30 30514 P 5350.51 -2.75334 8.47391 0
M  V30 30515 O 5350.73 -3.84128 9.44797 0
M  V30 30516 O 5351.3 -1.51947 8.68712 0
M  V30 30517 O 5350.76 -3.29363 6.99321 0
M  V30 30518 C 5349.82 -4.24011 6.4274 0
M  V30 30519 C 5350.55 -5.20775 5.52155 0
M  V30 30520 O 5350.76 -4.56534 4.22446 0
M  V30 30521 C 5351.95 -5.62629 5.96531 0
M  V30 30522 O 5352.34 -6.87667 5.41053 0
M  V30 30523 C 5352.83 -4.52537 5.39283 0
M  V30 30524 C 5352.12 -4.20027 4.08623 0
M  V30 30525 N 5352.17 -2.76189 3.71603 0
M  V30 30526 H 5349.33 -4.797 7.24003 0
M  V30 30527 H 5349.06 -3.69856 5.84513 0
M  V30 30528 H 5349.93 -6.10356 5.41441 0
M  V30 30529 P 5353.89 -7.20834 5.23717 0
M  V30 30530 O 5354.11 -8.66104 5.38572 0
M  V30 30531 O 5354.68 -6.33544 6.1349 0
M  V30 30532 O 5354.14 -6.7751 3.72168 0
M  V30 30533 C 5353.2 -7.20825 2.7076 0
M  V30 30534 C 5353.93 -7.45864 1.40599 0
M  V30 30535 O 5354.14 -6.17651 0.734225 0
M  V30 30536 C 5355.33 -8.05808 1.51899 0
M  V30 30537 O 5355.72 -8.74358 0.335205 0
M  V30 30538 C 5356.21 -6.83093 1.70294 0
M  V30 30539 C 5355.5 -5.79992 0.836974 0
M  V30 30540 N 5355.55 -4.41864 1.38293 0
M  V30 30541 H 5352.71 -8.13644 3.0377 0
M  V30 30542 H 5352.44 -6.42788 2.55485 0
M  V30 30543 H 5353.31 -8.12039 0.792769 0
M  V30 30544 P 5357.27 -8.91 2.5026e-10 0
M  V30 30545 O 5357.49 -10.1726 -0.733694 0
M  V30 30546 O 5358.06 -8.73148 1.23936 0
M  V30 30547 O 5357.52 -7.66872 -0.971405 0
M  V30 30548 C 5356.58 -7.42309 -2.04641 0
M  V30 30549 C 5357.31 -6.86059 -3.24661 0
M  V30 30550 O 5357.52 -5.42847 -3.03646 0
M  V30 30551 C 5358.71 -7.41196 -3.50753 0
M  V30 30552 O 5359.1 -7.27073 -4.86816 0
M  V30 30553 C 5359.59 -6.5273 -2.63741 0
M  V30 30554 C 5358.88 -5.1842 -2.73198 0
M  V30 30555 N 5358.93 -4.38762 -1.4784 0
M  V30 30556 C 5358.85 -4.81605 -0.168631 0
M  V30 30557 N 5358.93 -3.85454 0.713363 0
M  V30 30558 C 5359.07 -2.6994 -0.0566958 0
M  V30 30559 C 5359.2 -1.34815 0.338502 0
M  V30 30560 O 5359.22 -0.869548 1.47125 0
M  V30 30561 N 5359.32 -0.496304 -0.77465 0
M  V30 30562 C 5359.32 -0.908403 -2.09122 0
M  V30 30563 N 5359.45 0.0517805 -3.00955 0
M  V30 30564 N 5359.19 -2.17875 -2.46519 0
M  V30 30565 C 5359.07 -3.01988 -1.4033 0
M  V30 30566 H 5356.09 -8.36803 -2.32493 0
M  V30 30567 H 5355.82 -6.70197 -1.71129 0
M  V30 30568 H 5356.69 -7.03551 -4.13168 0
M  V30 30569 H 5359.34 -4.59498 -3.54415 0
M  V30 30570 H 5359.62 -6.88898 -1.59848 0
M  V30 30571 H 5360.61 -6.46749 -3.03687 0
M  V30 30572 H 5358.78 -8.46908 -3.20714 0
M  V30 30573 H 5358.73 -5.86405 0.105564 0
M  V30 30574 H 5359.41 0.483664 -0.597855 0
M  V30 30575 H 5359.45 -0.187865 -4.0116 0
M  V30 30576 H 5359.55 1.03585 -2.71726 0
M  V30 30577 P 5360.65 -7.20834 -5.23717 0
M  V30 30578 O 5360.87 -7.79853 -6.57286 0
M  V30 30579 O 5361.44 -7.79239 -4.12957 0
M  V30 30580 O 5360.9 -5.63315 -5.29344 0
M  V30 30581 C 5359.96 -4.80255 -6.01876 0
M  V30 30582 C 5360.69 -3.64202 -6.65911 0
M  V30 30583 O 5360.9 -2.60694 -5.64732 0
M  V30 30584 C 5362.09 -3.93473 -7.1943 0
M  V30 30585 O 5362.48 -3.02071 -8.21205 0
M  V30 30586 C 5362.97 -3.73047 -5.97036 0
M  V30 30587 C 5362.26 -2.58828 -5.25741 0
M  V30 30588 N 5362.31 -2.68068 -3.77503 0
M  V30 30589 H 5359.47 -5.40332 -6.79951 0
M  V30 30590 H 5359.2 -4.41613 -5.32378 0
M  V30 30591 H 5360.07 -3.26331 -7.47797 0
M  V30 30592 P 5364.03 -2.75334 -8.47391 0
M  V30 30593 O 5364.25 -2.44571 -9.90142 0
M  V30 30594 O 5364.82 -3.87688 -7.92115 0
M  V30 30595 O 5364.28 -1.4459 -7.59357 0
M  V30 30596 C 5363.34 -0.347608 -7.69215 0
M  V30 30597 C 5364.07 0.96767 -7.52806 0
M  V30 30598 O 5364.28 1.21036 -6.1011 0
M  V30 30599 C 5365.47 1.04544 -8.13308 0
M  V30 30600 O 5365.86 2.38311 -8.41922 0
M  V30 30601 C 5366.35 0.491279 -7.02284 0
M  V30 30602 C 5365.64 0.996264 -5.77469 0
M  V30 30603 N 5365.69 0.0501916 -4.62973 0
M  V30 30604 H 5362.85 -0.374722 -8.67691 0
M  V30 30605 H 5362.58 -0.443485 -6.90277 0
M  V30 30606 H 5363.45 1.75537 -7.96793 0
M  V30 30607 P 5367.41 2.75334 -8.47391 0
M  V30 30608 O 5367.63 3.84128 -9.44797 0
M  V30 30609 O 5368.2 1.51947 -8.68712 0
M  V30 30610 O 5367.66 3.29363 -6.99321 0
M  V30 30611 C 5366.72 4.24011 -6.4274 0
M  V30 30612 C 5367.45 5.20775 -5.52155 0
M  V30 30613 O 5367.66 4.56534 -4.22446 0
M  V30 30614 C 5368.85 5.62629 -5.96531 0
M  V30 30615 O 5369.24 6.87667 -5.41053 0
M  V30 30616 C 5369.73 4.52537 -5.39283 0
M  V30 30617 C 5369.02 4.20027 -4.08623 0
M  V30 30618 N 5369.07 2.76189 -3.71603 0
M  V30 30619 H 5366.23 4.797 -7.24003 0
M  V30 30620 H 5365.96 3.69856 -5.84513 0
M  V30 30621 H 5366.83 6.10356 -5.41441 0
M  V30 30622 P 5370.79 7.20834 -5.23717 0
M  V30 30623 O 5371.01 8.66104 -5.38572 0
M  V30 30624 O 5371.58 6.33544 -6.1349 0
M  V30 30625 O 5371.04 6.7751 -3.72168 0
M  V30 30626 C 5370.1 7.20825 -2.7076 0
M  V30 30627 C 5370.83 7.45864 -1.40599 0
M  V30 30628 O 5371.04 6.17651 -0.734225 0
M  V30 30629 C 5372.23 8.05808 -1.51899 0
M  V30 30630 O 5372.62 8.74358 -0.335205 0
M  V30 30631 C 5373.11 6.83093 -1.70294 0
M  V30 30632 C 5372.4 5.79992 -0.836974 0
M  V30 30633 N 5372.45 4.41864 -1.38293 0
M  V30 30634 H 5369.61 8.13644 -3.0377 0
M  V30 30635 H 5369.34 6.42788 -2.55485 0
M  V30 30636 H 5370.21 8.12039 -0.792769 0
M  V30 30637 P 5374.17 8.91 -2.51369e-10 0
M  V30 30638 O 5374.39 10.1726 0.733694 0
M  V30 30639 O 5374.96 8.73148 -1.23936 0
M  V30 30640 O 5374.42 7.66872 0.971405 0
M  V30 30641 C 5373.48 7.42309 2.04641 0
M  V30 30642 C 5374.21 6.86059 3.24661 0
M  V30 30643 O 5374.42 5.42847 3.03646 0
M  V30 30644 C 5375.61 7.41196 3.50753 0
M  V30 30645 O 5376 7.27073 4.86816 0
M  V30 30646 C 5376.49 6.5273 2.63741 0
M  V30 30647 C 5375.78 5.1842 2.73198 0
M  V30 30648 N 5375.83 4.38762 1.4784 0
M  V30 30649 H 5372.99 8.36803 2.32493 0
M  V30 30650 H 5372.72 6.70197 1.71129 0
M  V30 30651 H 5373.59 7.03551 4.13168 0
M  V30 30652 P 5377.55 7.20834 5.23717 0
M  V30 30653 O 5377.77 7.79853 6.57286 0
M  V30 30654 O 5378.34 7.79239 4.12957 0
M  V30 30655 O 5377.8 5.63315 5.29344 0
M  V30 30656 C 5376.86 4.80255 6.01876 0
M  V30 30657 C 5377.59 3.64202 6.65911 0
M  V30 30658 O 5377.8 2.60694 5.64732 0
M  V30 30659 C 5378.99 3.93473 7.1943 0
M  V30 30660 O 5379.38 3.02071 8.21205 0
M  V30 30661 C 5379.87 3.73047 5.97036 0
M  V30 30662 C 5379.16 2.58828 5.25741 0
M  V30 30663 N 5379.21 2.68068 3.77503 0
M  V30 30664 C 5379.13 3.79715 2.96723 0
M  V30 30665 N 5379.21 3.5377 1.68852 0
M  V30 30666 C 5379.35 2.15054 1.63254 0
M  V30 30667 C 5379.48 1.28964 0.518571 0
M  V30 30668 N 5379.6 -0.0538097 0.918425 0
M  V30 30669 C 5379.6 -0.494275 2.22578 0
M  V30 30670 N 5379.73 -1.81086 2.40434 0
M  V30 30671 N 5379.47 0.313645 3.27502 0
M  V30 30672 C 5379.35 1.61829 2.91033 0
M  V30 30673 H 5376.37 5.40332 6.79951 0
M  V30 30674 H 5376.1 4.41613 5.32378 0
M  V30 30675 H 5376.97 3.26331 7.47797 0
M  V30 30676 P 5380.93 2.75334 8.47391 0
M  V30 30677 O 5381.15 2.44595 9.90239 0
M  V30 30678 O 5381.72 3.87732 7.92204 0
M  V30 30679 O 5381.18 1.4459 7.59357 0
M  V30 30680 C 5380.24 0.347563 7.69115 0
M  V30 30681 C 5380.97 -0.96767 7.52806 0
M  V30 30682 O 5381.18 -1.21036 6.1011 0
M  V30 30683 C 5382.37 -1.04544 8.13308 0
M  V30 30684 O 5382.76 -2.38311 8.41922 0
M  V30 30685 C 5383.25 -0.491279 7.02284 0
M  V30 30686 C 5382.54 -0.996264 5.77469 0
M  V30 30687 N 5382.59 -0.0501808 4.62873 0
M  V30 30688 C 5382.74 -0.588177 3.36904 0
M  V30 30689 O 5382.83 -1.78598 3.17173 0
M  V30 30690 N 5382.78 0.329694 2.33686 0
M  V30 30691 C 5382.69 1.6953 2.45079 0
M  V30 30692 C 5382.54 2.16933 3.80505 0
M  V30 30693 C 5382.49 1.30326 4.83752 0
M  V30 30694 H 5379.75 0.374722 8.67691 0
M  V30 30695 H 5379.48 0.443421 6.90177 0
M  V30 30696 H 5380.35 -1.75537 7.96793 0
M  V30 30697 H 5383 -1.94496 5.46629 0
M  V30 30698 H 5383.28 0.608651 7.04676 0
M  V30 30699 H 5384.27 -0.889672 7.08939 0
M  V30 30700 H 5382.44 -0.43308 9.04564 0
M  V30 30701 H 5382.37 1.68366 5.8516 0
M  V30 30702 P 5384.31 -2.75334 8.47391 0
M  V30 30703 O 5384.53 -3.84128 9.44797 0
M  V30 30704 O 5385.1 -1.51947 8.68712 0
M  V30 30705 O 5384.56 -3.29363 6.99321 0
M  V30 30706 C 5383.62 -4.24011 6.4274 0
M  V30 30707 C 5384.35 -5.20775 5.52155 0
M  V30 30708 O 5384.56 -4.56534 4.22446 0
M  V30 30709 C 5385.75 -5.62629 5.96531 0
M  V30 30710 O 5386.14 -6.87667 5.41053 0
M  V30 30711 C 5386.63 -4.52537 5.39283 0
M  V30 30712 C 5385.92 -4.20027 4.08623 0
M  V30 30713 N 5385.97 -2.76189 3.71603 0
M  V30 30714 H 5383.13 -4.797 7.24003 0
M  V30 30715 H 5382.86 -3.69856 5.84513 0
M  V30 30716 H 5383.73 -6.10356 5.41441 0
M  V30 30717 P 5387.69 -7.20834 5.23717 0
M  V30 30718 O 5387.91 -8.66104 5.38572 0
M  V30 30719 O 5388.48 -6.33544 6.1349 0
M  V30 30720 O 5387.94 -6.7751 3.72168 0
M  V30 30721 C 5387 -7.20825 2.7076 0
M  V30 30722 C 5387.73 -7.45864 1.40599 0
M  V30 30723 O 5387.94 -6.17651 0.734225 0
M  V30 30724 C 5389.13 -8.05808 1.51899 0
M  V30 30725 O 5389.52 -8.74358 0.335205 0
M  V30 30726 C 5390.01 -6.83093 1.70294 0
M  V30 30727 C 5389.3 -5.79992 0.836974 0
M  V30 30728 N 5389.35 -4.41864 1.38293 0
M  V30 30729 H 5386.51 -8.13644 3.0377 0
M  V30 30730 H 5386.24 -6.42788 2.55485 0
M  V30 30731 H 5387.11 -8.12039 0.792769 0
M  V30 30732 P 5391.07 -8.91 2.52478e-10 0
M  V30 30733 O 5391.29 -10.1746 -0.733838 0
M  V30 30734 O 5391.86 -8.73346 1.23964 0
M  V30 30735 O 5391.32 -7.66872 -0.971405 0
M  V30 30736 C 5390.38 -7.42405 -2.04668 0
M  V30 30737 C 5391.11 -6.86059 -3.24661 0
M  V30 30738 O 5391.32 -5.42934 -3.03695 0
M  V30 30739 C 5392.51 -7.41287 -3.50796 0
M  V30 30740 O 5392.9 -7.27073 -4.86816 0
M  V30 30741 C 5393.39 -6.5273 -2.63741 0
M  V30 30742 C 5392.68 -5.1842 -2.73198 0
M  V30 30743 N 5392.73 -4.38762 -1.4784 0
M  V30 30744 C 5392.65 -4.83651 -0.183876 0
M  V30 30745 N 5392.72 -3.88759 0.699393 0
M  V30 30746 C 5392.87 -2.7404 -0.0575568 0
M  V30 30747 C 5393 -1.37902 0.293928 0
M  V30 30748 N 5393.01 -0.938021 1.54797 0
M  V30 30749 N 5393.12 -0.491817 -0.70549 0
M  V30 30750 C 5393.11 -0.931735 -1.95979 0
M  V30 30751 N 5392.99 -2.16017 -2.41481 0
M  V30 30752 C 5392.87 -3.02547 -1.39121 0
M  V30 30753 H 5389.89 -8.36899 -2.3252 0
M  V30 30754 H 5389.62 -6.70391 -1.71179 0
M  V30 30755 H 5390.49 -7.03638 -4.13219 0
M  V30 30756 H 5393.14 -4.59931 -3.54016 0
M  V30 30757 H 5393.42 -6.88995 -1.59871 0
M  V30 30758 H 5394.41 -6.4684 -3.0373 0
M  V30 30759 H 5392.58 -8.47002 -3.20749 0
M  V30 30760 H 5392.54 -5.8885 0.0765548 0
M  V30 30761 H 5392.92 -1.60276 2.32875 0
M  V30 30762 H 5393.11 0.0699355 1.73859 0
M  V30 30763 H 5393.22 -0.165507 -2.71897 0
M  V30 30764 P 5394.45 -7.20834 -5.23717 0
M  V30 30765 O 5394.67 -7.79853 -6.57286 0
M  V30 30766 O 5395.24 -7.79239 -4.12957 0
M  V30 30767 O 5394.7 -5.63315 -5.29344 0
M  V30 30768 C 5393.76 -4.80255 -6.01876 0
M  V30 30769 C 5394.49 -3.64202 -6.65911 0
M  V30 30770 O 5394.7 -2.60694 -5.64732 0
M  V30 30771 C 5395.89 -3.93473 -7.1943 0
M  V30 30772 O 5396.28 -3.02071 -8.21205 0
M  V30 30773 C 5396.77 -3.73047 -5.97036 0
M  V30 30774 C 5396.06 -2.58828 -5.25741 0
M  V30 30775 N 5396.11 -2.68068 -3.77503 0
M  V30 30776 H 5393.27 -5.40332 -6.79951 0
M  V30 30777 H 5393 -4.41613 -5.32378 0
M  V30 30778 H 5393.87 -3.26331 -7.47797 0
M  V30 30779 P 5397.83 -2.75334 -8.47391 0
M  V30 30780 O 5398.05 -2.44571 -9.90142 0
M  V30 30781 O 5398.62 -3.87688 -7.92115 0
M  V30 30782 O 5398.08 -1.4459 -7.59357 0
M  V30 30783 C 5397.14 -0.347608 -7.69215 0
M  V30 30784 C 5397.87 0.96767 -7.52806 0
M  V30 30785 O 5398.08 1.21036 -6.1011 0
M  V30 30786 C 5399.27 1.04544 -8.13308 0
M  V30 30787 O 5399.66 2.38311 -8.41922 0
M  V30 30788 C 5400.15 0.491279 -7.02284 0
M  V30 30789 C 5399.44 0.996264 -5.77469 0
M  V30 30790 N 5399.49 0.0501916 -4.62973 0
M  V30 30791 H 5396.65 -0.374722 -8.67691 0
M  V30 30792 H 5396.38 -0.443485 -6.90277 0
M  V30 30793 H 5397.25 1.75537 -7.96793 0
M  V30 30794 P 5401.21 2.75334 -8.47391 0
M  V30 30795 O 5401.43 3.84204 -9.44982 0
M  V30 30796 O 5402 1.51982 -8.68909 0
M  V30 30797 O 5401.46 3.29363 -6.99321 0
M  V30 30798 C 5400.52 4.24066 -6.42823 0
M  V30 30799 C 5401.25 5.20775 -5.52155 0
M  V30 30800 O 5401.46 4.56607 -4.22514 0
M  V30 30801 C 5402.65 5.62697 -5.96604 0
M  V30 30802 O 5403.04 6.87667 -5.41053 0
M  V30 30803 C 5403.53 4.52537 -5.39283 0
M  V30 30804 C 5402.82 4.20027 -4.08623 0
M  V30 30805 N 5402.87 2.76189 -3.71603 0
M  V30 30806 H 5400.03 4.79756 -7.24086 0
M  V30 30807 H 5399.76 3.69963 -5.84682 0
M  V30 30808 H 5400.63 6.10431 -5.41508 0
M  V30 30809 H 5403.28 4.78816 -3.28024 0
M  V30 30810 H 5403.56 3.64957 -6.05871 0
M  V30 30811 H 5404.55 4.88748 -5.21323 0
M  V30 30812 H 5402.72 5.66789 -7.0643 0
M  V30 30813 P 5404.59 7.20834 -5.23717 0
M  V30 30814 O 5404.81 8.66104 -5.38572 0
M  V30 30815 O 5405.38 6.33544 -6.1349 0
M  V30 30816 O 5404.84 6.7751 -3.72168 0
M  V30 30817 C 5403.9 7.20825 -2.7076 0
M  V30 30818 C 5404.63 7.45864 -1.40599 0
M  V30 30819 O 5404.84 6.17651 -0.734225 0
M  V30 30820 C 5406.03 8.05808 -1.51899 0
M  V30 30821 O 5406.42 8.74358 -0.335205 0
M  V30 30822 C 5406.91 6.83093 -1.70294 0
M  V30 30823 C 5406.2 5.79992 -0.836974 0
M  V30 30824 N 5406.25 4.41864 -1.38293 0
M  V30 30825 H 5403.41 8.13644 -3.0377 0
M  V30 30826 H 5403.14 6.42788 -2.55485 0
M  V30 30827 H 5404.01 8.12039 -0.792769 0
M  V30 30828 P 5407.97 8.91 -2.53587e-10 0
M  V30 30829 O 5408.19 10.1746 0.733838 0
M  V30 30830 O 5408.76 8.73346 -1.23964 0
M  V30 30831 O 5408.22 7.66872 0.971405 0
M  V30 30832 C 5407.28 7.42405 2.04668 0
M  V30 30833 C 5408.01 6.86059 3.24661 0
M  V30 30834 O 5408.22 5.42934 3.03695 0
M  V30 30835 C 5409.41 7.41287 3.50796 0
M  V30 30836 O 5409.8 7.27073 4.86816 0
M  V30 30837 C 5410.29 6.5273 2.63741 0
M  V30 30838 C 5409.58 5.1842 2.73198 0
M  V30 30839 N 5409.63 4.38762 1.4784 0
M  V30 30840 C 5409.55 4.83651 0.183876 0
M  V30 30841 N 5409.62 3.88759 -0.699393 0
M  V30 30842 C 5409.77 2.7404 0.0575568 0
M  V30 30843 C 5409.9 1.37902 -0.293928 0
M  V30 30844 N 5409.91 0.938021 -1.54797 0
M  V30 30845 N 5410.02 0.491817 0.70549 0
M  V30 30846 C 5410.01 0.931735 1.95979 0
M  V30 30847 N 5409.89 2.16017 2.41481 0
M  V30 30848 C 5409.77 3.02547 1.39121 0
M  V30 30849 H 5406.79 8.36899 2.3252 0
M  V30 30850 H 5406.52 6.70391 1.71179 0
M  V30 30851 H 5407.39 7.03638 4.13219 0
M  V30 30852 H 5410.04 4.59931 3.54016 0
M  V30 30853 H 5410.32 6.88995 1.59871 0
M  V30 30854 H 5411.31 6.4684 3.0373 0
M  V30 30855 H 5409.48 8.47002 3.20749 0
M  V30 30856 H 5409.44 5.8885 -0.0765548 0
M  V30 30857 H 5409.82 1.60276 -2.32875 0
M  V30 30858 H 5410.01 -0.0699355 -1.73859 0
M  V30 30859 H 5410.11 0.165507 2.71897 0
M  V30 30860 P 5411.35 7.20834 5.23717 0
M  V30 30861 O 5411.57 7.79853 6.57286 0
M  V30 30862 O 5412.14 7.79239 4.12957 0
M  V30 30863 O 5411.6 5.63315 5.29344 0
M  V30 30864 C 5410.66 4.80255 6.01876 0
M  V30 30865 C 5411.39 3.64202 6.65911 0
M  V30 30866 O 5411.6 2.60694 5.64732 0
M  V30 30867 C 5412.79 3.93473 7.1943 0
M  V30 30868 O 5413.18 3.02071 8.21205 0
M  V30 30869 C 5413.67 3.73047 5.97036 0
M  V30 30870 C 5412.96 2.58828 5.25741 0
M  V30 30871 N 5413.01 2.68068 3.77503 0
M  V30 30872 H 5410.17 5.40332 6.79951 0
M  V30 30873 H 5409.9 4.41613 5.32378 0
M  V30 30874 H 5410.77 3.26331 7.47797 0
M  V30 30875 P 5414.73 2.75334 8.47391 0
M  V30 30876 O 5414.95 2.44571 9.90142 0
M  V30 30877 O 5415.52 3.87688 7.92115 0
M  V30 30878 O 5414.98 1.4459 7.59357 0
M  V30 30879 C 5414.04 0.347608 7.69215 0
M  V30 30880 C 5414.77 -0.96767 7.52806 0
M  V30 30881 O 5414.98 -1.21036 6.1011 0
M  V30 30882 C 5416.17 -1.04544 8.13308 0
M  V30 30883 O 5416.56 -2.38311 8.41922 0
M  V30 30884 C 5417.05 -0.491279 7.02284 0
M  V30 30885 C 5416.34 -0.996264 5.77469 0
M  V30 30886 N 5416.39 -0.0501916 4.62973 0
M  V30 30887 H 5413.55 0.374722 8.67691 0
M  V30 30888 H 5413.28 0.443485 6.90277 0
M  V30 30889 H 5414.15 -1.75537 7.96793 0
M  V30 30890 P 5418.11 -2.75334 8.47391 0
M  V30 30891 O 5418.33 -3.84128 9.44797 0
M  V30 30892 O 5418.9 -1.51947 8.68712 0
M  V30 30893 O 5418.36 -3.29363 6.99321 0
M  V30 30894 C 5417.42 -4.24011 6.4274 0
M  V30 30895 C 5418.15 -5.20775 5.52155 0
M  V30 30896 O 5418.36 -4.56534 4.22446 0
M  V30 30897 C 5419.55 -5.62629 5.96531 0
M  V30 30898 O 5419.94 -6.87667 5.41053 0
M  V30 30899 C 5420.43 -4.52537 5.39283 0
M  V30 30900 C 5419.72 -4.20027 4.08623 0
M  V30 30901 N 5419.77 -2.76189 3.71603 0
M  V30 30902 H 5416.93 -4.797 7.24003 0
M  V30 30903 H 5416.66 -3.69856 5.84513 0
M  V30 30904 H 5417.53 -6.10356 5.41441 0
M  V30 30905 P 5421.49 -7.20834 5.23717 0
M  V30 30906 O 5421.71 -8.66104 5.38572 0
M  V30 30907 O 5422.28 -6.33544 6.1349 0
M  V30 30908 O 5421.74 -6.7751 3.72168 0
M  V30 30909 C 5420.8 -7.20825 2.7076 0
M  V30 30910 C 5421.53 -7.45864 1.40599 0
M  V30 30911 O 5421.74 -6.17651 0.734225 0
M  V30 30912 C 5422.93 -8.05808 1.51899 0
M  V30 30913 O 5423.32 -8.74358 0.335205 0
M  V30 30914 C 5423.81 -6.83093 1.70294 0
M  V30 30915 C 5423.1 -5.79992 0.836974 0
M  V30 30916 N 5423.15 -4.41864 1.38293 0
M  V30 30917 H 5420.31 -8.13644 3.0377 0
M  V30 30918 H 5420.04 -6.42788 2.55485 0
M  V30 30919 H 5420.91 -8.12039 0.792769 0
M  V30 30920 P 5424.87 -8.91 2.54696e-10 0
M  V30 30921 O 5425.09 -10.1736 -0.733766 0
M  V30 30922 O 5425.66 -8.73247 1.2395 0
M  V30 30923 O 5425.12 -7.66872 -0.971405 0
M  V30 30924 C 5424.18 -7.42212 -2.04614 0
M  V30 30925 C 5424.91 -6.86059 -3.24661 0
M  V30 30926 O 5425.12 -5.42847 -3.03646 0
M  V30 30927 C 5426.31 -7.41196 -3.50753 0
M  V30 30928 O 5426.7 -7.27073 -4.86816 0
M  V30 30929 C 5427.19 -6.5273 -2.63741 0
M  V30 30930 C 5426.48 -5.1842 -2.73198 0
M  V30 30931 N 5426.53 -4.38668 -1.47808 0
M  V30 30932 C 5426.68 -3.02239 -1.60048 0
M  V30 30933 O 5426.77 -2.46459 -2.67869 0
M  V30 30934 N 5426.72 -2.32436 -0.408571 0
M  V30 30935 C 5426.63 -2.85471 0.854993 0
M  V30 30936 O 5426.68 -2.12566 1.8531 0
M  V30 30937 C 5426.48 -4.28918 0.887335 0
M  V30 30938 C 5426.37 -4.91066 2.24619 0
M  V30 30939 C 5426.43 -5.00349 -0.255399 0
M  V30 30940 H 5423.69 -8.36803 -2.32493 0
M  V30 30941 H 5423.42 -6.701 -1.71105 0
M  V30 30942 H 5424.29 -7.03551 -4.13168 0
M  V30 30943 H 5426.94 -4.59773 -3.53894 0
M  V30 30944 H 5427.22 -6.88995 -1.59871 0
M  V30 30945 H 5428.21 -6.46749 -3.03687 0
M  V30 30946 H 5426.38 -8.46908 -3.20714 0
M  V30 30947 H 5426.31 -6.08548 -0.206986 0
M  V30 30948 H 5427.34 -5.34836 2.53099 0
M  V30 30949 H 5425.6 -5.69638 2.2291 0
M  V30 30950 H 5426.09 -4.13971 2.98044 0
M  V30 30951 H 5426.82 -1.33211 -0.474216 0
M  V30 30952 P 5428.25 -7.20834 -5.23717 0
M  V30 30953 O 5428.47 -7.79853 -6.57286 0
M  V30 30954 O 5429.04 -7.79239 -4.12957 0
M  V30 30955 O 5428.5 -5.63315 -5.29344 0
M  V30 30956 C 5427.56 -4.80255 -6.01876 0
M  V30 30957 C 5428.29 -3.64202 -6.65911 0
M  V30 30958 O 5428.5 -2.60694 -5.64732 0
M  V30 30959 C 5429.69 -3.93473 -7.1943 0
M  V30 30960 O 5430.08 -3.02071 -8.21205 0
M  V30 30961 C 5430.57 -3.73047 -5.97036 0
M  V30 30962 C 5429.86 -2.58828 -5.25741 0
M  V30 30963 N 5429.91 -2.68068 -3.77503 0
M  V30 30964 H 5427.07 -5.40332 -6.79951 0
M  V30 30965 H 5426.8 -4.41613 -5.32378 0
M  V30 30966 H 5427.67 -3.26331 -7.47797 0
M  V30 30967 P 5431.63 -2.75334 -8.47391 0
M  V30 30968 O 5431.85 -2.44571 -9.90142 0
M  V30 30969 O 5432.42 -3.87688 -7.92115 0
M  V30 30970 O 5431.88 -1.4459 -7.59357 0
M  V30 30971 C 5430.94 -0.347608 -7.69215 0
M  V30 30972 C 5431.67 0.96767 -7.52806 0
M  V30 30973 O 5431.88 1.21036 -6.1011 0
M  V30 30974 C 5433.07 1.04544 -8.13308 0
M  V30 30975 O 5433.46 2.38311 -8.41922 0
M  V30 30976 C 5433.95 0.491279 -7.02284 0
M  V30 30977 C 5433.24 0.996264 -5.77469 0
M  V30 30978 N 5433.29 0.0501916 -4.62973 0
M  V30 30979 H 5430.45 -0.374722 -8.67691 0
M  V30 30980 H 5430.18 -0.443485 -6.90277 0
M  V30 30981 H 5431.05 1.75537 -7.96793 0
M  V30 30982 P 5435.01 2.75334 -8.47391 0
M  V30 30983 O 5435.23 3.84128 -9.44797 0
M  V30 30984 O 5435.8 1.51947 -8.68712 0
M  V30 30985 O 5435.26 3.29363 -6.99321 0
M  V30 30986 C 5434.32 4.24011 -6.4274 0
M  V30 30987 C 5435.05 5.20775 -5.52155 0
M  V30 30988 O 5435.26 4.56534 -4.22446 0
M  V30 30989 C 5436.45 5.62629 -5.96531 0
M  V30 30990 O 5436.84 6.87667 -5.41053 0
M  V30 30991 C 5437.33 4.52537 -5.39283 0
M  V30 30992 C 5436.62 4.20027 -4.08623 0
M  V30 30993 N 5436.67 2.76189 -3.71603 0
M  V30 30994 C 5436.59 1.64862 -4.52822 0
M  V30 30995 N 5436.67 0.512671 -3.88633 0
M  V30 30996 C 5436.81 0.888083 -2.54977 0
M  V30 30997 C 5436.94 0.094668 -1.38677 0
M  V30 30998 N 5437.06 0.890102 -0.232633 0
M  V30 30999 C 5437.06 2.26958 -0.21772 0
M  V30 31000 N 5437.19 2.84626 0.97925 0
M  V30 31001 N 5436.93 3.0178 -1.31033 0
M  V30 31002 C 5436.81 2.26781 -2.43843 0
M  V30 31003 H 5433.83 4.797 -7.24003 0
M  V30 31004 H 5433.56 3.69856 -5.84513 0
M  V30 31005 H 5434.43 6.10356 -5.41441 0
M  V30 31006 P 5438.39 7.20834 -5.23717 0
M  V30 31007 O 5438.61 8.66104 -5.38572 0
M  V30 31008 O 5439.18 6.33544 -6.1349 0
M  V30 31009 O 5438.64 6.7751 -3.72168 0
M  V30 31010 C 5437.7 7.20825 -2.7076 0
M  V30 31011 C 5438.43 7.45864 -1.40599 0
M  V30 31012 O 5438.64 6.17651 -0.734225 0
M  V30 31013 C 5439.83 8.05808 -1.51899 0
M  V30 31014 O 5440.22 8.74358 -0.335205 0
M  V30 31015 C 5440.71 6.83093 -1.70294 0
M  V30 31016 C 5440 5.79992 -0.836974 0
M  V30 31017 N 5440.05 4.41864 -1.38293 0
M  V30 31018 H 5437.21 8.13644 -3.0377 0
M  V30 31019 H 5436.94 6.42788 -2.55485 0
M  V30 31020 H 5437.81 8.12039 -0.792769 0
M  V30 31021 P 5441.77 8.91 -2.55805e-10 0
M  V30 31022 O 5441.99 10.1726 0.733694 0
M  V30 31023 O 5442.56 8.73148 -1.23936 0
M  V30 31024 O 5442.02 7.66872 0.971405 0
M  V30 31025 C 5441.08 7.42309 2.04641 0
M  V30 31026 C 5441.81 6.86059 3.24661 0
M  V30 31027 O 5442.02 5.42847 3.03646 0
M  V30 31028 C 5443.21 7.41196 3.50753 0
M  V30 31029 O 5443.6 7.27073 4.86816 0
M  V30 31030 C 5444.09 6.5273 2.63741 0
M  V30 31031 C 5443.38 5.1842 2.73198 0
M  V30 31032 N 5443.43 4.38762 1.4784 0
M  V30 31033 H 5440.59 8.36803 2.32493 0
M  V30 31034 H 5440.32 6.70197 1.71129 0
M  V30 31035 H 5441.19 7.03551 4.13168 0
M  V30 31036 P 5445.15 7.20834 5.23717 0
M  V30 31037 O 5445.37 7.79853 6.57286 0
M  V30 31038 O 5445.94 7.79239 4.12957 0
M  V30 31039 O 5445.4 5.63315 5.29344 0
M  V30 31040 C 5444.46 4.80255 6.01876 0
M  V30 31041 C 5445.19 3.64202 6.65911 0
M  V30 31042 O 5445.4 2.60694 5.64732 0
M  V30 31043 C 5446.59 3.93473 7.1943 0
M  V30 31044 O 5446.98 3.02071 8.21205 0
M  V30 31045 C 5447.47 3.73047 5.97036 0
M  V30 31046 C 5446.76 2.58828 5.25741 0
M  V30 31047 N 5446.81 2.68068 3.77503 0
M  V30 31048 H 5443.97 5.40332 6.79951 0
M  V30 31049 H 5443.7 4.41613 5.32378 0
M  V30 31050 H 5444.57 3.26331 7.47797 0
M  V30 31051 P 5448.53 2.75334 8.47391 0
M  V30 31052 O 5448.75 2.44571 9.90142 0
M  V30 31053 O 5449.32 3.87688 7.92115 0
M  V30 31054 O 5448.78 1.4459 7.59357 0
M  V30 31055 C 5447.84 0.347608 7.69215 0
M  V30 31056 C 5448.57 -0.96767 7.52806 0
M  V30 31057 O 5448.78 -1.21036 6.1011 0
M  V30 31058 C 5449.97 -1.04544 8.13308 0
M  V30 31059 O 5450.36 -2.38311 8.41922 0
M  V30 31060 C 5450.85 -0.491279 7.02284 0
M  V30 31061 C 5450.14 -0.996264 5.77469 0
M  V30 31062 N 5450.19 -0.0501916 4.62973 0
M  V30 31063 H 5447.35 0.374722 8.67691 0
M  V30 31064 H 5447.08 0.443485 6.90277 0
M  V30 31065 H 5447.95 -1.75537 7.96793 0
M  V30 31066 P 5451.91 -2.75334 8.47391 0
M  V30 31067 O 5452.13 -3.84128 9.44797 0
M  V30 31068 O 5452.7 -1.51947 8.68712 0
M  V30 31069 O 5452.16 -3.29363 6.99321 0
M  V30 31070 C 5451.22 -4.24011 6.4274 0
M  V30 31071 C 5451.95 -5.20775 5.52155 0
M  V30 31072 O 5452.16 -4.56534 4.22446 0
M  V30 31073 C 5453.35 -5.62629 5.96531 0
M  V30 31074 O 5453.74 -6.87667 5.41053 0
M  V30 31075 C 5454.23 -4.52537 5.39283 0
M  V30 31076 C 5453.52 -4.20027 4.08623 0
M  V30 31077 N 5453.57 -2.76189 3.71603 0
M  V30 31078 H 5450.73 -4.797 7.24003 0
M  V30 31079 H 5450.46 -3.69856 5.84513 0
M  V30 31080 H 5451.33 -6.10356 5.41441 0
M  V30 31081 P 5455.29 -7.20834 5.23717 0
M  V30 31082 O 5455.51 -8.66104 5.38572 0
M  V30 31083 O 5456.08 -6.33544 6.1349 0
M  V30 31084 O 5455.54 -6.7751 3.72168 0
M  V30 31085 C 5454.6 -7.20825 2.7076 0
M  V30 31086 C 5455.33 -7.45864 1.40599 0
M  V30 31087 O 5455.54 -6.17651 0.734225 0
M  V30 31088 C 5456.73 -8.05808 1.51899 0
M  V30 31089 O 5457.12 -8.74358 0.335205 0
M  V30 31090 C 5457.61 -6.83093 1.70294 0
M  V30 31091 C 5456.9 -5.79992 0.836974 0
M  V30 31092 N 5456.95 -4.41864 1.38293 0
M  V30 31093 H 5454.11 -8.13644 3.0377 0
M  V30 31094 H 5453.84 -6.42788 2.55485 0
M  V30 31095 H 5454.71 -8.12039 0.792769 0
M  V30 31096 P 5458.67 -8.91 2.56914e-10 0
M  V30 31097 O 5458.89 -10.1726 -0.733694 0
M  V30 31098 O 5459.46 -8.73148 1.23936 0
M  V30 31099 O 5458.92 -7.66872 -0.971405 0
M  V30 31100 C 5457.98 -7.42309 -2.04641 0
M  V30 31101 C 5458.71 -6.86059 -3.24661 0
M  V30 31102 O 5458.92 -5.42847 -3.03646 0
M  V30 31103 C 5460.11 -7.41196 -3.50753 0
M  V30 31104 O 5460.5 -7.27073 -4.86816 0
M  V30 31105 C 5460.99 -6.5273 -2.63741 0
M  V30 31106 C 5460.28 -5.1842 -2.73198 0
M  V30 31107 N 5460.33 -4.38762 -1.4784 0
M  V30 31108 C 5460.25 -4.81605 -0.168631 0
M  V30 31109 N 5460.33 -3.85454 0.713363 0
M  V30 31110 C 5460.47 -2.6994 -0.0566958 0
M  V30 31111 C 5460.6 -1.34815 0.338502 0
M  V30 31112 O 5460.62 -0.869548 1.47125 0
M  V30 31113 N 5460.72 -0.496304 -0.77465 0
M  V30 31114 C 5460.72 -0.908403 -2.09122 0
M  V30 31115 N 5460.85 0.0517805 -3.00955 0
M  V30 31116 N 5460.59 -2.17875 -2.46519 0
M  V30 31117 C 5460.47 -3.01988 -1.4033 0
M  V30 31118 H 5457.49 -8.36803 -2.32493 0
M  V30 31119 H 5457.22 -6.70197 -1.71129 0
M  V30 31120 H 5458.09 -7.03551 -4.13168 0
M  V30 31121 H 5460.74 -4.59498 -3.54415 0
M  V30 31122 H 5461.02 -6.88898 -1.59848 0
M  V30 31123 H 5462.01 -6.46749 -3.03687 0
M  V30 31124 H 5460.18 -8.46908 -3.20714 0
M  V30 31125 H 5460.13 -5.86405 0.105564 0
M  V30 31126 H 5460.81 0.483664 -0.597855 0
M  V30 31127 H 5460.85 -0.187865 -4.0116 0
M  V30 31128 H 5460.95 1.03585 -2.71726 0
M  V30 31129 P 5462.05 -7.20834 -5.23717 0
M  V30 31130 O 5462.27 -7.79853 -6.57286 0
M  V30 31131 O 5462.84 -7.79239 -4.12957 0
M  V30 31132 O 5462.3 -5.63315 -5.29344 0
M  V30 31133 C 5461.36 -4.80255 -6.01876 0
M  V30 31134 C 5462.09 -3.64202 -6.65911 0
M  V30 31135 O 5462.3 -2.60694 -5.64732 0
M  V30 31136 C 5463.49 -3.93473 -7.1943 0
M  V30 31137 O 5463.88 -3.02071 -8.21205 0
M  V30 31138 C 5464.37 -3.73047 -5.97036 0
M  V30 31139 C 5463.66 -2.58828 -5.25741 0
M  V30 31140 N 5463.71 -2.68068 -3.77503 0
M  V30 31141 C 5463.63 -3.79715 -2.96723 0
M  V30 31142 N 5463.71 -3.5377 -1.68852 0
M  V30 31143 C 5463.85 -2.15054 -1.63254 0
M  V30 31144 C 5463.98 -1.28964 -0.518571 0
M  V30 31145 N 5464.1 0.0538097 -0.918425 0
M  V30 31146 C 5464.1 0.494275 -2.22578 0
M  V30 31147 N 5464.23 1.81086 -2.40434 0
M  V30 31148 N 5463.97 -0.313645 -3.27502 0
M  V30 31149 C 5463.85 -1.61829 -2.91033 0
M  V30 31150 H 5460.87 -5.40332 -6.79951 0
M  V30 31151 H 5460.6 -4.41613 -5.32378 0
M  V30 31152 H 5461.47 -3.26331 -7.47797 0
M  V30 31153 P 5465.43 -2.75334 -8.47391 0
M  V30 31154 O 5465.65 -2.44571 -9.90142 0
M  V30 31155 O 5466.22 -3.87688 -7.92115 0
M  V30 31156 O 5465.68 -1.4459 -7.59357 0
M  V30 31157 C 5464.74 -0.347608 -7.69215 0
M  V30 31158 C 5465.47 0.96767 -7.52806 0
M  V30 31159 O 5465.68 1.21036 -6.1011 0
M  V30 31160 C 5466.87 1.04544 -8.13308 0
M  V30 31161 O 5467.26 2.38311 -8.41922 0
M  V30 31162 C 5467.75 0.491279 -7.02284 0
M  V30 31163 C 5467.04 0.996264 -5.77469 0
M  V30 31164 N 5467.09 0.0501916 -4.62973 0
M  V30 31165 H 5464.25 -0.374722 -8.67691 0
M  V30 31166 H 5463.98 -0.443485 -6.90277 0
M  V30 31167 H 5464.85 1.75537 -7.96793 0
M  V30 31168 P 5468.81 2.75334 -8.47391 0
M  V30 31169 O 5469.03 3.84166 -9.4489 0
M  V30 31170 O 5469.6 1.51964 -8.6881 0
M  V30 31171 O 5469.06 3.29363 -6.99321 0
M  V30 31172 C 5468.12 4.23956 -6.42656 0
M  V30 31173 C 5468.85 5.20775 -5.52155 0
M  V30 31174 O 5469.06 4.56534 -4.22446 0
M  V30 31175 C 5470.25 5.62629 -5.96531 0
M  V30 31176 O 5470.64 6.87667 -5.41053 0
M  V30 31177 C 5471.13 4.52537 -5.39283 0
M  V30 31178 C 5470.42 4.20027 -4.08623 0
M  V30 31179 N 5470.47 2.7613 -3.71522 0
M  V30 31180 C 5470.62 2.45612 -2.37989 0
M  V30 31181 O 5470.71 3.30919 -1.51621 0
M  V30 31182 N 5470.66 1.10684 -2.08435 0
M  V30 31183 C 5470.57 0.0690084 -2.9792 0
M  V30 31184 O 5470.62 -1.10553 -2.59426 0
M  V30 31185 C 5470.42 0.481522 -4.35345 0
M  V30 31186 C 5470.31 -0.618778 -5.36443 0
M  V30 31187 C 5470.37 1.78906 -4.67968 0
M  V30 31188 H 5467.63 4.797 -7.24003 0
M  V30 31189 H 5467.36 3.69802 -5.84429 0
M  V30 31190 H 5468.23 6.10356 -5.41441 0
M  V30 31191 H 5470.88 4.78651 -3.27911 0
M  V30 31192 H 5471.16 3.64957 -6.05871 0
M  V30 31193 H 5472.15 4.8868 -5.2125 0
M  V30 31194 H 5470.32 5.66726 -7.06352 0
M  V30 31195 H 5470.25 2.07737 -5.72367 0
M  V30 31196 H 5471.28 -0.754375 -5.86871 0
M  V30 31197 H 5469.54 -0.359721 -6.10641 0
M  V30 31198 H 5470.03 -1.55533 -4.8581 0
M  V30 31199 H 5470.76 0.862651 -1.12037 0
M  V30 31200 P 5472.19 7.20834 -5.23717 0
M  V30 31201 O 5472.41 8.66104 -5.38572 0
M  V30 31202 O 5472.98 6.33544 -6.1349 0
M  V30 31203 O 5472.44 6.7751 -3.72168 0
M  V30 31204 C 5471.5 7.20825 -2.7076 0
M  V30 31205 C 5472.23 7.45864 -1.40599 0
M  V30 31206 O 5472.44 6.17651 -0.734225 0
M  V30 31207 C 5473.63 8.05808 -1.51899 0
M  V30 31208 O 5474.02 8.74358 -0.335205 0
M  V30 31209 C 5474.51 6.83093 -1.70294 0
M  V30 31210 C 5473.8 5.79992 -0.836974 0
M  V30 31211 N 5473.85 4.41864 -1.38293 0
M  V30 31212 H 5471.01 8.13644 -3.0377 0
M  V30 31213 H 5470.74 6.42788 -2.55485 0
M  V30 31214 H 5471.61 8.12039 -0.792769 0
M  V30 31215 P 5475.57 8.91 -2.58023e-10 0
M  V30 31216 O 5475.79 10.1726 0.733694 0
M  V30 31217 O 5476.36 8.73148 -1.23936 0
M  V30 31218 O 5475.82 7.66872 0.971405 0
M  V30 31219 C 5474.88 7.42309 2.04641 0
M  V30 31220 C 5475.61 6.86059 3.24661 0
M  V30 31221 O 5475.82 5.42847 3.03646 0
M  V30 31222 C 5477.01 7.41196 3.50753 0
M  V30 31223 O 5477.4 7.27073 4.86816 0
M  V30 31224 C 5477.89 6.5273 2.63741 0
M  V30 31225 C 5477.18 5.1842 2.73198 0
M  V30 31226 N 5477.23 4.38762 1.4784 0
M  V30 31227 H 5474.39 8.36803 2.32493 0
M  V30 31228 H 5474.12 6.70197 1.71129 0
M  V30 31229 H 5474.99 7.03551 4.13168 0
M  V30 31230 P 5478.95 7.20834 5.23717 0
M  V30 31231 O 5479.17 7.79853 6.57286 0
M  V30 31232 O 5479.74 7.79239 4.12957 0
M  V30 31233 O 5479.2 5.63315 5.29344 0
M  V30 31234 C 5478.26 4.80255 6.01876 0
M  V30 31235 C 5478.99 3.64202 6.65911 0
M  V30 31236 O 5479.2 2.60694 5.64732 0
M  V30 31237 C 5480.39 3.93473 7.1943 0
M  V30 31238 O 5480.78 3.02071 8.21205 0
M  V30 31239 C 5481.27 3.73047 5.97036 0
M  V30 31240 C 5480.56 2.58828 5.25741 0
M  V30 31241 N 5480.61 2.68068 3.77503 0
M  V30 31242 H 5477.77 5.40332 6.79951 0
M  V30 31243 H 5477.5 4.41613 5.32378 0
M  V30 31244 H 5478.37 3.26331 7.47797 0
M  V30 31245 P 5482.33 2.75334 8.47391 0
M  V30 31246 O 5482.55 2.44595 9.90239 0
M  V30 31247 O 5483.12 3.87732 7.92204 0
M  V30 31248 O 5482.58 1.4459 7.59357 0
M  V30 31249 C 5481.64 0.347563 7.69115 0
M  V30 31250 C 5482.37 -0.96767 7.52806 0
M  V30 31251 O 5482.58 -1.21036 6.1011 0
M  V30 31252 C 5483.77 -1.04544 8.13308 0
M  V30 31253 O 5484.16 -2.38311 8.41922 0
M  V30 31254 C 5484.65 -0.491279 7.02284 0
M  V30 31255 C 5483.94 -0.996264 5.77469 0
M  V30 31256 N 5483.99 -0.0501808 4.62873 0
M  V30 31257 C 5484.14 -0.588177 3.36904 0
M  V30 31258 O 5484.23 -1.78598 3.17173 0
M  V30 31259 N 5484.18 0.329694 2.33686 0
M  V30 31260 C 5484.09 1.6953 2.45079 0
M  V30 31261 O 5484.14 2.41926 1.44899 0
M  V30 31262 C 5483.94 2.16933 3.80505 0
M  V30 31263 C 5483.83 3.65373 3.97621 0
M  V30 31264 C 5483.89 1.30326 4.83752 0
M  V30 31265 H 5481.15 0.374722 8.67691 0
M  V30 31266 H 5480.88 0.443421 6.90177 0
M  V30 31267 H 5481.75 -1.75537 7.96793 0
M  V30 31268 H 5484.4 -1.94496 5.46629 0
M  V30 31269 H 5484.68 0.608651 7.04676 0
M  V30 31270 H 5485.67 -0.889672 7.08939 0
M  V30 31271 H 5483.84 -0.43308 9.04564 0
M  V30 31272 H 5483.77 1.68366 5.8516 0
M  V30 31273 H 5484.8 4.05985 4.30448 0
M  V30 31274 H 5483.06 3.88028 4.72875 0
M  V30 31275 H 5483.55 4.11381 3.01609 0
M  V30 31276 H 5484.28 -0.0393617 1.41345 0
M  V30 31277 P 5485.71 -2.75334 8.47391 0
M  V30 31278 O 5485.93 -3.84128 9.44797 0
M  V30 31279 O 5486.5 -1.51947 8.68712 0
M  V30 31280 O 5485.96 -3.29363 6.99321 0
M  V30 31281 C 5485.02 -4.24011 6.4274 0
M  V30 31282 C 5485.75 -5.20775 5.52155 0
M  V30 31283 O 5485.96 -4.56534 4.22446 0
M  V30 31284 C 5487.15 -5.62629 5.96531 0
M  V30 31285 O 5487.54 -6.87667 5.41053 0
M  V30 31286 C 5488.03 -4.52537 5.39283 0
M  V30 31287 C 5487.32 -4.20027 4.08623 0
M  V30 31288 N 5487.37 -2.76189 3.71603 0
M  V30 31289 C 5487.29 -1.64862 4.52822 0
M  V30 31290 N 5487.37 -0.512671 3.88633 0
M  V30 31291 C 5487.51 -0.888083 2.54977 0
M  V30 31292 C 5487.64 -0.094668 1.38677 0
M  V30 31293 N 5487.76 -0.890102 0.232633 0
M  V30 31294 C 5487.76 -2.26958 0.21772 0
M  V30 31295 N 5487.89 -2.84626 -0.97925 0
M  V30 31296 N 5487.63 -3.0178 1.31033 0
M  V30 31297 C 5487.51 -2.26781 2.43843 0
M  V30 31298 H 5484.53 -4.797 7.24003 0
M  V30 31299 H 5484.26 -3.69856 5.84513 0
M  V30 31300 H 5485.13 -6.10356 5.41441 0
M  V30 31301 P 5489.09 -7.20834 5.23717 0
M  V30 31302 O 5489.31 -8.66104 5.38572 0
M  V30 31303 O 5489.88 -6.33544 6.1349 0
M  V30 31304 O 5489.34 -6.7751 3.72168 0
M  V30 31305 C 5488.4 -7.20825 2.7076 0
M  V30 31306 C 5489.13 -7.45864 1.40599 0
M  V30 31307 O 5489.34 -6.17651 0.734225 0
M  V30 31308 C 5490.53 -8.05808 1.51899 0
M  V30 31309 O 5490.92 -8.74358 0.335205 0
M  V30 31310 C 5491.41 -6.83093 1.70294 0
M  V30 31311 C 5490.7 -5.79992 0.836974 0
M  V30 31312 N 5490.75 -4.41864 1.38293 0
M  V30 31313 H 5487.91 -8.13644 3.0377 0
M  V30 31314 H 5487.64 -6.42788 2.55485 0
M  V30 31315 H 5488.51 -8.12039 0.792769 0
M  V30 31316 P 5492.47 -8.91 2.59132e-10 0
M  V30 31317 O 5492.69 -10.1726 -0.733694 0
M  V30 31318 O 5493.26 -8.73148 1.23936 0
M  V30 31319 O 5492.72 -7.66872 -0.971405 0
M  V30 31320 C 5491.78 -7.42309 -2.04641 0
M  V30 31321 C 5492.51 -6.86059 -3.24661 0
M  V30 31322 O 5492.72 -5.42847 -3.03646 0
M  V30 31323 C 5493.91 -7.41196 -3.50753 0
M  V30 31324 O 5494.3 -7.27073 -4.86816 0
M  V30 31325 C 5494.79 -6.5273 -2.63741 0
M  V30 31326 C 5494.08 -5.1842 -2.73198 0
M  V30 31327 N 5494.13 -4.38762 -1.4784 0
M  V30 31328 H 5491.29 -8.36803 -2.32493 0
M  V30 31329 H 5491.02 -6.70197 -1.71129 0
M  V30 31330 H 5491.89 -7.03551 -4.13168 0
M  V30 31331 P 5495.85 -7.20834 -5.23717 0
M  V30 31332 O 5496.07 -7.79853 -6.57286 0
M  V30 31333 O 5496.64 -7.79239 -4.12957 0
M  V30 31334 O 5496.1 -5.63315 -5.29344 0
M  V30 31335 C 5495.16 -4.80255 -6.01876 0
M  V30 31336 C 5495.89 -3.64202 -6.65911 0
M  V30 31337 O 5496.1 -2.60694 -5.64732 0
M  V30 31338 C 5497.29 -3.93473 -7.1943 0
M  V30 31339 O 5497.68 -3.02071 -8.21205 0
M  V30 31340 C 5498.17 -3.73047 -5.97036 0
M  V30 31341 C 5497.46 -2.58828 -5.25741 0
M  V30 31342 N 5497.51 -2.68068 -3.77503 0
M  V30 31343 C 5497.43 -3.79715 -2.96723 0
M  V30 31344 N 5497.51 -3.5377 -1.68852 0
M  V30 31345 C 5497.65 -2.15054 -1.63254 0
M  V30 31346 C 5497.78 -1.28964 -0.518571 0
M  V30 31347 O 5497.8 -1.56826 0.679156 0
M  V30 31348 N 5497.9 0.0538097 -0.918425 0
M  V30 31349 C 5497.9 0.494275 -2.22578 0
M  V30 31350 N 5498.03 1.81086 -2.40434 0
M  V30 31351 N 5497.77 -0.313645 -3.27502 0
M  V30 31352 C 5497.65 -1.61829 -2.91033 0
M  V30 31353 H 5494.67 -5.40332 -6.79951 0
M  V30 31354 H 5494.4 -4.41613 -5.32378 0
M  V30 31355 H 5495.27 -3.26331 -7.47797 0
M  V30 31356 H 5497.92 -1.63422 -5.56814 0
M  V30 31357 H 5498.2 -4.63374 -5.34244 0
M  V30 31358 H 5499.19 -3.44728 -6.25838 0
M  V30 31359 H 5497.36 -4.96652 -7.57263 0
M  V30 31360 H 5497.31 -4.80617 -3.3614 0
M  V30 31361 H 5497.99 0.742702 -0.199384 0
M  V30 31362 H 5498.03 2.20598 -3.35588 0
M  V30 31363 H 5498.13 2.43518 -1.58945 0
M  V30 31364 P 5499.23 -2.75334 -8.47391 0
M  V30 31365 O 5499.45 -2.44571 -9.90142 0
M  V30 31366 O 5500.02 -3.87688 -7.92115 0
M  V30 31367 O 5499.48 -1.4459 -7.59357 0
M  V30 31368 C 5498.54 -0.347608 -7.69215 0
M  V30 31369 C 5499.27 0.96767 -7.52806 0
M  V30 31370 O 5499.48 1.21036 -6.1011 0
M  V30 31371 C 5500.67 1.04544 -8.13308 0
M  V30 31372 O 5501.06 2.38311 -8.41922 0
M  V30 31373 C 5501.55 0.491279 -7.02284 0
M  V30 31374 C 5500.84 0.996264 -5.77469 0
M  V30 31375 N 5500.89 0.0501916 -4.62973 0
M  V30 31376 C 5500.81 -1.32786 -4.63244 0
M  V30 31377 N 5500.89 -1.86957 -3.44545 0
M  V30 31378 C 5501.03 -0.780241 -2.58481 0
M  V30 31379 C 5501.16 -0.738536 -1.17757 0
M  V30 31380 O 5501.18 -1.66794 -0.372349 0
M  V30 31381 N 5501.28 0.58337 -0.711393 0
M  V30 31382 C 5501.28 1.70816 -1.51017 0
M  V30 31383 N 5501.41 2.87826 -0.880757 0
M  V30 31384 N 5501.15 1.67126 -2.8339 0
M  V30 31385 C 5501.03 0.401421 -3.30572 0
M  V30 31386 H 5498.05 -0.374722 -8.67691 0
M  V30 31387 H 5497.78 -0.443485 -6.90277 0
M  V30 31388 H 5498.65 1.75537 -7.96793 0
M  V30 31389 H 5501.3 1.95076 -5.46529 0
M  V30 31390 H 5501.58 -0.608565 -7.04577 0
M  V30 31391 H 5502.57 0.889672 -7.08939 0
M  V30 31392 H 5500.74 0.43308 -9.04564 0
M  V30 31393 H 5500.69 -1.91249 -5.54442 0
M  V30 31394 H 5501.37 0.718054 0.275244 0
M  V30 31395 H 5501.41 3.75721 -1.41832 0
M  V30 31396 H 5501.51 2.90436 0.145468 0
M  V30 31397 P 5502.61 2.75334 -8.47391 0
M  V30 31398 O 5502.83 3.84128 -9.44797 0
M  V30 31399 O 5503.4 1.51947 -8.68712 0
M  V30 31400 O 5502.86 3.29363 -6.99321 0
M  V30 31401 C 5501.92 4.24011 -6.4274 0
M  V30 31402 C 5502.65 5.20775 -5.52155 0
M  V30 31403 O 5502.86 4.56534 -4.22446 0
M  V30 31404 C 5504.05 5.62629 -5.96531 0
M  V30 31405 O 5504.44 6.87667 -5.41053 0
M  V30 31406 C 5504.93 4.52537 -5.39283 0
M  V30 31407 C 5504.22 4.20027 -4.08623 0
M  V30 31408 N 5504.27 2.76189 -3.71603 0
M  V30 31409 H 5501.43 4.797 -7.24003 0
M  V30 31410 H 5501.16 3.69856 -5.84513 0
M  V30 31411 H 5502.03 6.10356 -5.41441 0
M  V30 31412 P 5505.99 7.20834 -5.23717 0
M  V30 31413 O 5506.21 8.66104 -5.38572 0
M  V30 31414 O 5506.78 6.33544 -6.1349 0
M  V30 31415 O 5506.24 6.7751 -3.72168 0
M  V30 31416 C 5505.3 7.20825 -2.7076 0
M  V30 31417 C 5506.03 7.45864 -1.40599 0
M  V30 31418 O 5506.24 6.17651 -0.734225 0
M  V30 31419 C 5507.43 8.05808 -1.51899 0
M  V30 31420 O 5507.82 8.74358 -0.335205 0
M  V30 31421 C 5508.31 6.83093 -1.70294 0
M  V30 31422 C 5507.6 5.79992 -0.836974 0
M  V30 31423 N 5507.65 4.41864 -1.38293 0
M  V30 31424 H 5504.81 8.13644 -3.0377 0
M  V30 31425 H 5504.54 6.42788 -2.55485 0
M  V30 31426 H 5505.41 8.12039 -0.792769 0
M  V30 31427 P 5509.37 8.91 -2.60241e-10 0
M  V30 31428 O 5509.59 10.1736 0.733766 0
M  V30 31429 O 5510.16 8.73247 -1.2395 0
M  V30 31430 O 5509.62 7.66872 0.971405 0
M  V30 31431 C 5508.68 7.42212 2.04614 0
M  V30 31432 C 5509.41 6.86059 3.24661 0
M  V30 31433 O 5509.62 5.42847 3.03646 0
M  V30 31434 C 5510.81 7.41196 3.50753 0
M  V30 31435 O 5511.2 7.27073 4.86816 0
M  V30 31436 C 5511.69 6.5273 2.63741 0
M  V30 31437 C 5510.98 5.1842 2.73198 0
M  V30 31438 N 5511.03 4.38668 1.47808 0
M  V30 31439 C 5511.18 3.02239 1.60048 0
M  V30 31440 O 5511.27 2.46459 2.67869 0
M  V30 31441 N 5511.22 2.32436 0.408571 0
M  V30 31442 C 5511.13 2.85471 -0.854993 0
M  V30 31443 C 5510.98 4.28918 -0.887335 0
M  V30 31444 C 5510.93 5.00349 0.255399 0
M  V30 31445 H 5508.19 8.36803 2.32493 0
M  V30 31446 H 5507.92 6.701 1.71105 0
M  V30 31447 H 5508.79 7.03551 4.13168 0
M  V30 31448 H 5511.44 4.59773 3.53894 0
M  V30 31449 H 5511.72 6.88995 1.59871 0
M  V30 31450 H 5512.71 6.46749 3.03687 0
M  V30 31451 H 5510.88 8.46908 3.20714 0
M  V30 31452 H 5510.81 6.08548 0.206986 0
M  V30 31453 P 5512.75 7.20834 5.23717 0
M  V30 31454 O 5512.97 7.79853 6.57286 0
M  V30 31455 O 5513.54 7.79239 4.12957 0
M  V30 31456 O 5513 5.63315 5.29344 0
M  V30 31457 C 5512.06 4.80255 6.01876 0
M  V30 31458 C 5512.79 3.64202 6.65911 0
M  V30 31459 O 5513 2.60694 5.64732 0
M  V30 31460 C 5514.19 3.93473 7.1943 0
M  V30 31461 O 5514.58 3.02071 8.21205 0
M  V30 31462 C 5515.07 3.73047 5.97036 0
M  V30 31463 C 5514.36 2.58828 5.25741 0
M  V30 31464 N 5514.41 2.68068 3.77503 0
M  V30 31465 H 5511.57 5.40332 6.79951 0
M  V30 31466 H 5511.3 4.41613 5.32378 0
M  V30 31467 H 5512.17 3.26331 7.47797 0
M  V30 31468 P 5516.13 2.75334 8.47391 0
M  V30 31469 O 5516.35 2.44571 9.90142 0
M  V30 31470 O 5516.92 3.87688 7.92115 0
M  V30 31471 O 5516.38 1.4459 7.59357 0
M  V30 31472 C 5515.44 0.347608 7.69215 0
M  V30 31473 C 5516.17 -0.96767 7.52806 0
M  V30 31474 O 5516.38 -1.21036 6.1011 0
M  V30 31475 C 5517.57 -1.04544 8.13308 0
M  V30 31476 O 5517.96 -2.38311 8.41922 0
M  V30 31477 C 5518.45 -0.491279 7.02284 0
M  V30 31478 C 5517.74 -0.996264 5.77469 0
M  V30 31479 N 5517.79 -0.0501916 4.62973 0
M  V30 31480 H 5514.95 0.374722 8.67691 0
M  V30 31481 H 5514.68 0.443485 6.90277 0
M  V30 31482 H 5515.55 -1.75537 7.96793 0
M  V30 31483 P 5519.51 -2.75334 8.47391 0
M  V30 31484 O 5519.73 -3.84128 9.44797 0
M  V30 31485 O 5520.3 -1.51947 8.68712 0
M  V30 31486 O 5519.76 -3.29363 6.99321 0
M  V30 31487 C 5518.82 -4.24011 6.4274 0
M  V30 31488 C 5519.55 -5.20775 5.52155 0
M  V30 31489 O 5519.76 -4.56534 4.22446 0
M  V30 31490 C 5520.95 -5.62629 5.96531 0
M  V30 31491 O 5521.34 -6.87667 5.41053 0
M  V30 31492 C 5521.83 -4.52537 5.39283 0
M  V30 31493 C 5521.12 -4.20027 4.08623 0
M  V30 31494 N 5521.17 -2.76189 3.71603 0
M  V30 31495 H 5518.33 -4.797 7.24003 0
M  V30 31496 H 5518.06 -3.69856 5.84513 0
M  V30 31497 H 5518.93 -6.10356 5.41441 0
M  V30 31498 P 5522.89 -7.20834 5.23717 0
M  V30 31499 O 5523.11 -8.66104 5.38572 0
M  V30 31500 O 5523.68 -6.33544 6.1349 0
M  V30 31501 O 5523.14 -6.7751 3.72168 0
M  V30 31502 C 5522.2 -7.20825 2.7076 0
M  V30 31503 C 5522.93 -7.45864 1.40599 0
M  V30 31504 O 5523.14 -6.17651 0.734225 0
M  V30 31505 C 5524.33 -8.05808 1.51899 0
M  V30 31506 O 5524.72 -8.74358 0.335205 0
M  V30 31507 C 5525.21 -6.83093 1.70294 0
M  V30 31508 C 5524.5 -5.79992 0.836974 0
M  V30 31509 N 5524.55 -4.41864 1.38293 0
M  V30 31510 H 5521.71 -8.13644 3.0377 0
M  V30 31511 H 5521.44 -6.42788 2.55485 0
M  V30 31512 H 5522.31 -8.12039 0.792769 0
M  V30 31513 P 5526.27 -8.91 2.6135e-10 0
M  V30 31514 O 5526.49 -10.1726 -0.733694 0
M  V30 31515 O 5527.06 -8.73148 1.23936 0
M  V30 31516 O 5526.52 -7.66872 -0.971405 0
M  V30 31517 C 5525.58 -7.42309 -2.04641 0
M  V30 31518 C 5526.31 -6.86059 -3.24661 0
M  V30 31519 O 5526.52 -5.42847 -3.03646 0
M  V30 31520 C 5527.71 -7.41196 -3.50753 0
M  V30 31521 O 5528.1 -7.27073 -4.86816 0
M  V30 31522 C 5528.59 -6.5273 -2.63741 0
M  V30 31523 C 5527.88 -5.1842 -2.73198 0
M  V30 31524 N 5527.93 -4.38762 -1.4784 0
M  V30 31525 H 5525.09 -8.36803 -2.32493 0
M  V30 31526 H 5524.82 -6.70197 -1.71129 0
M  V30 31527 H 5525.69 -7.03551 -4.13168 0
M  V30 31528 P 5529.65 -7.20834 -5.23717 0
M  V30 31529 O 5529.87 -7.80006 -6.57415 0
M  V30 31530 O 5530.44 -7.79416 -4.13051 0
M  V30 31531 O 5529.9 -5.63315 -5.29344 0
M  V30 31532 C 5528.96 -4.80318 -6.01954 0
M  V30 31533 C 5529.69 -3.64202 -6.65911 0
M  V30 31534 O 5529.9 -2.60736 -5.64823 0
M  V30 31535 C 5531.09 -3.93521 -7.19518 0
M  V30 31536 O 5531.48 -3.02071 -8.21205 0
M  V30 31537 C 5531.97 -3.73047 -5.97036 0
M  V30 31538 C 5531.26 -2.58828 -5.25741 0
M  V30 31539 N 5531.31 -2.68068 -3.77503 0
M  V30 31540 C 5531.23 -3.80474 -2.99159 0
M  V30 31541 N 5531.3 -3.55622 -1.71925 0
M  V30 31542 C 5531.45 -2.1832 -1.65733 0
M  V30 31543 C 5531.58 -1.28842 -0.572777 0
M  V30 31544 N 5531.59 -1.66875 0.70098 0
M  V30 31545 N 5531.7 0.016788 -0.859836 0
M  V30 31546 C 5531.69 0.398145 -2.13316 0
M  V30 31547 N 5531.57 -0.328224 -3.22333 0
M  V30 31548 C 5531.45 -1.62992 -2.90383 0
M  V30 31549 H 5528.47 -5.40394 -6.8003 0
M  V30 31550 H 5528.2 -4.41741 -5.32532 0
M  V30 31551 H 5529.07 -3.26371 -7.47889 0
M  V30 31552 H 5531.72 -1.64007 -5.56746 0
M  V30 31553 H 5532 -4.63439 -5.3432 0
M  V30 31554 H 5532.99 -3.44776 -6.25925 0
M  V30 31555 H 5531.16 -4.96707 -7.57347 0
M  V30 31556 H 5531.12 -4.8089 -3.39924 0
M  V30 31557 H 5531.5 -2.66547 0.941919 0
M  V30 31558 H 5531.69 -0.965341 1.44766 0
M  V30 31559 H 5531.79 1.46427 -2.29697 0
M  V30 31560 P 5533.03 -2.75334 -8.47391 0
M  V30 31561 O 5533.25 -2.44595 -9.90239 0
M  V30 31562 O 5533.82 -3.87732 -7.92204 0
M  V30 31563 O 5533.28 -1.4459 -7.59357 0
M  V30 31564 C 5532.34 -0.347608 -7.69215 0
M  V30 31565 C 5533.07 0.96767 -7.52806 0
M  V30 31566 O 5533.28 1.21036 -6.1011 0
M  V30 31567 C 5534.47 1.04544 -8.13308 0
M  V30 31568 O 5534.86 2.38311 -8.41922 0
M  V30 31569 C 5535.35 0.491279 -7.02284 0
M  V30 31570 C 5534.64 0.996264 -5.77469 0
M  V30 31571 N 5534.69 0.0501808 -4.62873 0
M  V30 31572 C 5534.84 0.578037 -3.3505 0
M  V30 31573 O 5534.93 1.8073 -3.21711 0
M  V30 31574 N 5534.89 -0.468541 -2.263 0
M  V30 31575 C 5534.79 -1.59186 -2.47176 0
M  V30 31576 N 5534.84 -2.37626 -1.40392 0
M  V30 31577 C 5534.64 -2.16203 -3.77467 0
M  V30 31578 C 5534.59 -1.29324 -4.8195 0
M  V30 31579 H 5531.85 -0.374679 -8.67591 0
M  V30 31580 H 5531.58 -0.443421 -6.90177 0
M  V30 31581 H 5532.45 1.75559 -7.96891 0
M  V30 31582 H 5535.1 1.94529 -5.46723 0
M  V30 31583 H 5535.38 -0.608651 -7.04676 0
M  V30 31584 H 5536.37 0.889672 -7.08939 0
M  V30 31585 H 5534.54 0.43308 -9.04564 0
M  V30 31586 H 5534.47 -1.67758 -5.83046 0
M  V30 31587 H 5534.57 -3.23869 -3.92281 0
M  V30 31588 H 5534.96 -1.96317 -0.467202 0
M  V30 31589 H 5534.76 -3.39693 -1.51142 0
M  V30 31590 P 5536.41 2.75334 -8.47391 0
M  V30 31591 O 5536.63 3.84204 -9.44982 0
M  V30 31592 O 5537.2 1.51982 -8.68909 0
M  V30 31593 O 5536.66 3.29363 -6.99321 0
M  V30 31594 C 5535.72 4.24066 -6.42823 0
M  V30 31595 C 5536.45 5.20775 -5.52155 0
M  V30 31596 O 5536.66 4.56607 -4.22514 0
M  V30 31597 C 5537.85 5.62697 -5.96604 0
M  V30 31598 O 5538.24 6.87667 -5.41053 0
M  V30 31599 C 5538.73 4.52537 -5.39283 0
M  V30 31600 C 5538.02 4.20027 -4.08623 0
M  V30 31601 N 5538.07 2.76189 -3.71603 0
M  V30 31602 H 5535.23 4.79756 -7.24086 0
M  V30 31603 H 5534.96 3.69963 -5.84682 0
M  V30 31604 H 5535.83 6.10431 -5.41508 0
M  V30 31605 H 5538.48 4.78816 -3.28024 0
M  V30 31606 H 5538.76 3.64957 -6.05871 0
M  V30 31607 H 5539.75 4.88748 -5.21323 0
M  V30 31608 H 5537.92 5.66789 -7.0643 0
M  V30 31609 P 5539.79 7.20834 -5.23717 0
M  V30 31610 O 5540.01 8.66104 -5.38572 0
M  V30 31611 O 5540.58 6.33544 -6.1349 0
M  V30 31612 O 5540.04 6.7751 -3.72168 0
M  V30 31613 C 5539.1 7.20825 -2.7076 0
M  V30 31614 C 5539.83 7.45864 -1.40599 0
M  V30 31615 O 5540.04 6.17651 -0.734225 0
M  V30 31616 C 5541.23 8.05808 -1.51899 0
M  V30 31617 O 5541.62 8.74358 -0.335205 0
M  V30 31618 C 5542.11 6.83093 -1.70294 0
M  V30 31619 C 5541.4 5.79992 -0.836974 0
M  V30 31620 N 5541.45 4.41864 -1.38293 0
M  V30 31621 H 5538.61 8.13644 -3.0377 0
M  V30 31622 H 5538.34 6.42788 -2.55485 0
M  V30 31623 H 5539.21 8.12039 -0.792769 0
M  V30 31624 P 5543.17 8.91 -2.62459e-10 0
M  V30 31625 O 5543.39 10.1726 0.733694 0
M  V30 31626 O 5543.96 8.73148 -1.23936 0
M  V30 31627 O 5543.42 7.66872 0.971405 0
M  V30 31628 C 5542.48 7.42309 2.04641 0
M  V30 31629 C 5543.21 6.86059 3.24661 0
M  V30 31630 O 5543.42 5.42847 3.03646 0
M  V30 31631 C 5544.61 7.41196 3.50753 0
M  V30 31632 O 5545 7.27073 4.86816 0
M  V30 31633 C 5545.49 6.5273 2.63741 0
M  V30 31634 C 5544.78 5.1842 2.73198 0
M  V30 31635 N 5544.83 4.38762 1.4784 0
M  V30 31636 H 5541.99 8.36803 2.32493 0
M  V30 31637 H 5541.72 6.70197 1.71129 0
M  V30 31638 H 5542.59 7.03551 4.13168 0
M  V30 31639 P 5546.55 7.20834 5.23717 0
M  V30 31640 O 5546.77 7.79853 6.57286 0
M  V30 31641 O 5547.34 7.79239 4.12957 0
M  V30 31642 O 5546.8 5.63315 5.29344 0
M  V30 31643 C 5545.86 4.80255 6.01876 0
M  V30 31644 C 5546.59 3.64202 6.65911 0
M  V30 31645 O 5546.8 2.60694 5.64732 0
M  V30 31646 C 5547.99 3.93473 7.1943 0
M  V30 31647 O 5548.38 3.02071 8.21205 0
M  V30 31648 C 5548.87 3.73047 5.97036 0
M  V30 31649 C 5548.16 2.58828 5.25741 0
M  V30 31650 N 5548.21 2.68068 3.77503 0
M  V30 31651 H 5545.37 5.40332 6.79951 0
M  V30 31652 H 5545.1 4.41613 5.32378 0
M  V30 31653 H 5545.97 3.26331 7.47797 0
M  V30 31654 P 5549.93 2.75334 8.47391 0
M  V30 31655 O 5550.15 2.44619 9.90336 0
M  V30 31656 O 5550.72 3.87776 7.92294 0
M  V30 31657 O 5550.18 1.4459 7.59357 0
M  V30 31658 C 5549.24 0.347653 7.69315 0
M  V30 31659 C 5549.97 -0.96767 7.52806 0
M  V30 31660 O 5550.18 -1.21055 6.10208 0
M  V30 31661 C 5551.37 -1.04557 8.13408 0
M  V30 31662 O 5551.76 -2.38311 8.41922 0
M  V30 31663 C 5552.25 -0.491279 7.02284 0
M  V30 31664 C 5551.54 -0.996264 5.77469 0
M  V30 31665 N 5551.59 -0.0501916 4.62973 0
M  V30 31666 H 5548.75 0.374765 8.67791 0
M  V30 31667 H 5548.48 0.443613 6.90476 0
M  V30 31668 H 5549.35 -1.75559 7.96891 0
M  V30 31669 H 5552 -1.94563 5.46818 0
M  V30 31670 H 5552.28 0.608651 7.04676 0
M  V30 31671 H 5553.27 -0.889796 7.09039 0
M  V30 31672 H 5551.44 -0.433128 9.04664 0
M  V30 31673 P 5553.31 -2.75334 8.47391 0
M  V30 31674 O 5553.53 -3.84204 9.44982 0
M  V30 31675 O 5554.1 -1.51982 8.68909 0
M  V30 31676 O 5553.56 -3.29363 6.99321 0
M  V30 31677 C 5552.62 -4.24066 6.42823 0
M  V30 31678 C 5553.35 -5.20775 5.52155 0
M  V30 31679 O 5553.56 -4.56607 4.22514 0
M  V30 31680 C 5554.75 -5.62697 5.96604 0
M  V30 31681 O 5555.14 -6.87667 5.41053 0
M  V30 31682 C 5555.63 -4.52537 5.39283 0
M  V30 31683 C 5554.92 -4.20027 4.08623 0
M  V30 31684 N 5554.97 -2.76189 3.71603 0
M  V30 31685 H 5552.13 -4.79756 7.24086 0
M  V30 31686 H 5551.86 -3.69963 5.84682 0
M  V30 31687 H 5552.73 -6.10431 5.41508 0
M  V30 31688 H 5555.38 -4.78816 3.28024 0
M  V30 31689 H 5555.66 -3.64957 6.05871 0
M  V30 31690 H 5556.65 -4.88748 5.21323 0
M  V30 31691 H 5554.82 -5.66789 7.0643 0
M  V30 31692 P 5556.69 -7.20834 5.23717 0
M  V30 31693 O 5556.91 -8.66189 5.38625 0
M  V30 31694 O 5557.48 -6.33615 6.1356 0
M  V30 31695 O 5556.94 -6.7751 3.72168 0
M  V30 31696 C 5556 -7.20825 2.7076 0
M  V30 31697 C 5556.73 -7.45864 1.40599 0
M  V30 31698 O 5556.94 -6.17651 0.734225 0
M  V30 31699 C 5558.13 -8.05808 1.51899 0
M  V30 31700 O 5558.52 -8.74358 0.335205 0
M  V30 31701 C 5559.01 -6.83093 1.70294 0
M  V30 31702 C 5558.3 -5.79992 0.836974 0
M  V30 31703 N 5558.35 -4.41769 1.38263 0
M  V30 31704 C 5558.5 -3.36514 0.485617 0
M  V30 31705 O 5558.59 -3.61814 -0.724703 0
M  V30 31706 N 5558.55 -2.00746 1.14492 0
M  V30 31707 C 5558.45 -1.85887 2.27776 0
M  V30 31708 N 5558.5 -0.600907 2.69379 0
M  V30 31709 C 5558.3 -2.92182 3.22265 0
M  V30 31710 C 5558.25 -4.18399 2.71925 0
M  V30 31711 H 5555.51 -8.1355 3.03735 0
M  V30 31712 H 5555.24 -6.42695 2.55448 0
M  V30 31713 H 5556.11 -8.12139 0.792866 0
M  V30 31714 H 5558.76 -5.80078 -0.160615 0
M  V30 31715 H 5559.04 -6.51379 2.75643 0
M  V30 31716 H 5560.03 -7.01734 1.34462 0
M  V30 31717 H 5558.2 -8.73674 2.38337 0
M  V30 31718 H 5558.13 -5.02669 3.39718 0
M  V30 31719 H 5558.23 -2.73001 4.29239 0
M  V30 31720 H 5558.62 0.162318 2.01146 0
M  V30 31721 H 5558.42 -0.387742 3.69773 0
M  V30 31722 P 5560.07 -8.91 2.63568e-10 0
M  V30 31723 O 5560.29 -10.1736 -0.733766 0
M  V30 31724 O 5560.86 -8.73247 1.2395 0
M  V30 31725 O 5560.32 -7.66872 -0.971405 0
M  V30 31726 C 5559.38 -7.42212 -2.04614 0
M  V30 31727 C 5560.11 -6.86059 -3.24661 0
M  V30 31728 O 5560.32 -5.42847 -3.03646 0
M  V30 31729 C 5561.51 -7.41196 -3.50753 0
M  V30 31730 O 5561.9 -7.27073 -4.86816 0
M  V30 31731 C 5562.39 -6.5273 -2.63741 0
M  V30 31732 C 5561.68 -5.1842 -2.73198 0
M  V30 31733 N 5561.73 -4.38668 -1.47808 0
M  V30 31734 C 5561.88 -3.02239 -1.60048 0
M  V30 31735 O 5561.97 -2.46459 -2.67869 0
M  V30 31736 N 5561.92 -2.32436 -0.408571 0
M  V30 31737 C 5561.83 -2.85471 0.854993 0
M  V30 31738 O 5561.88 -2.12566 1.8531 0
M  V30 31739 C 5561.68 -4.28918 0.887335 0
M  V30 31740 C 5561.57 -4.91066 2.24619 0
M  V30 31741 C 5561.63 -5.00349 -0.255399 0
M  V30 31742 H 5558.89 -8.36803 -2.32493 0
M  V30 31743 H 5558.62 -6.701 -1.71105 0
M  V30 31744 H 5559.49 -7.03551 -4.13168 0
M  V30 31745 H 5562.14 -4.59773 -3.53894 0
M  V30 31746 H 5562.42 -6.88995 -1.59871 0
M  V30 31747 H 5563.41 -6.46749 -3.03687 0
M  V30 31748 H 5561.58 -8.46908 -3.20714 0
M  V30 31749 H 5561.51 -6.08548 -0.206986 0
M  V30 31750 H 5562.54 -5.34836 2.53099 0
M  V30 31751 H 5560.8 -5.69638 2.2291 0
M  V30 31752 H 5561.29 -4.13971 2.98044 0
M  V30 31753 H 5562.02 -1.33211 -0.474216 0
M  V30 31754 P 5563.45 -7.20834 -5.23717 0
M  V30 31755 O 5563.67 -7.79853 -6.57286 0
M  V30 31756 O 5564.24 -7.79239 -4.12957 0
M  V30 31757 O 5563.7 -5.63315 -5.29344 0
M  V30 31758 C 5562.76 -4.80255 -6.01876 0
M  V30 31759 C 5563.49 -3.64202 -6.65911 0
M  V30 31760 O 5563.7 -2.60694 -5.64732 0
M  V30 31761 C 5564.89 -3.93473 -7.1943 0
M  V30 31762 O 5565.28 -3.02071 -8.21205 0
M  V30 31763 C 5565.77 -3.73047 -5.97036 0
M  V30 31764 C 5565.06 -2.58828 -5.25741 0
M  V30 31765 N 5565.11 -2.68068 -3.77503 0
M  V30 31766 H 5562.27 -5.40332 -6.79951 0
M  V30 31767 H 5562 -4.41613 -5.32378 0
M  V30 31768 H 5562.87 -3.26331 -7.47797 0
M  V30 31769 P 5566.83 -2.75334 -8.47391 0
M  V30 31770 O 5567.05 -2.44571 -9.90142 0
M  V30 31771 O 5567.62 -3.87688 -7.92115 0
M  V30 31772 O 5567.08 -1.4459 -7.59357 0
M  V30 31773 C 5566.14 -0.347608 -7.69215 0
M  V30 31774 C 5566.87 0.96767 -7.52806 0
M  V30 31775 O 5567.08 1.21036 -6.1011 0
M  V30 31776 C 5568.27 1.04544 -8.13308 0
M  V30 31777 O 5568.66 2.38311 -8.41922 0
M  V30 31778 C 5569.15 0.491279 -7.02284 0
M  V30 31779 C 5568.44 0.996264 -5.77469 0
M  V30 31780 N 5568.49 0.0501916 -4.62973 0
M  V30 31781 H 5565.65 -0.374722 -8.67691 0
M  V30 31782 H 5565.38 -0.443485 -6.90277 0
M  V30 31783 H 5566.25 1.75537 -7.96793 0
M  V30 31784 P 5570.21 2.75334 -8.47391 0
M  V30 31785 O 5570.43 3.84204 -9.44982 0
M  V30 31786 O 5571 1.51982 -8.68909 0
M  V30 31787 O 5570.46 3.29363 -6.99321 0
M  V30 31788 C 5569.52 4.24066 -6.42823 0
M  V30 31789 C 5570.25 5.20775 -5.52155 0
M  V30 31790 O 5570.46 4.56607 -4.22514 0
M  V30 31791 C 5571.65 5.62697 -5.96604 0
M  V30 31792 O 5572.04 6.87667 -5.41053 0
M  V30 31793 C 5572.53 4.52537 -5.39283 0
M  V30 31794 C 5571.82 4.20027 -4.08623 0
M  V30 31795 N 5571.87 2.76189 -3.71603 0
M  V30 31796 H 5569.03 4.79756 -7.24086 0
M  V30 31797 H 5568.76 3.69963 -5.84682 0
M  V30 31798 H 5569.63 6.10431 -5.41508 0
M  V30 31799 H 5572.28 4.78816 -3.28024 0
M  V30 31800 H 5572.56 3.64957 -6.05871 0
M  V30 31801 H 5573.55 4.88748 -5.21323 0
M  V30 31802 H 5571.72 5.66789 -7.0643 0
M  V30 31803 P 5573.59 7.20834 -5.23717 0
M  V30 31804 O 5573.81 8.66104 -5.38572 0
M  V30 31805 O 5574.38 6.33544 -6.1349 0
M  V30 31806 O 5573.84 6.7751 -3.72168 0
M  V30 31807 C 5572.9 7.20825 -2.7076 0
M  V30 31808 C 5573.63 7.45864 -1.40599 0
M  V30 31809 O 5573.84 6.17651 -0.734225 0
M  V30 31810 C 5575.03 8.05808 -1.51899 0
M  V30 31811 O 5575.42 8.74358 -0.335205 0
M  V30 31812 C 5575.91 6.83093 -1.70294 0
M  V30 31813 C 5575.2 5.79992 -0.836974 0
M  V30 31814 N 5575.25 4.41864 -1.38293 0
M  V30 31815 H 5572.41 8.13644 -3.0377 0
M  V30 31816 H 5572.14 6.42788 -2.55485 0
M  V30 31817 H 5573.01 8.12039 -0.792769 0
M  V30 31818 P 5576.97 8.91 -2.64677e-10 0
M  V30 31819 O 5577.19 10.1726 0.733694 0
M  V30 31820 O 5577.76 8.73148 -1.23936 0
M  V30 31821 O 5577.22 7.66872 0.971405 0
M  V30 31822 C 5576.28 7.42309 2.04641 0
M  V30 31823 C 5577.01 6.86059 3.24661 0
M  V30 31824 O 5577.22 5.42847 3.03646 0
M  V30 31825 C 5578.41 7.41196 3.50753 0
M  V30 31826 O 5578.8 7.27073 4.86816 0
M  V30 31827 C 5579.29 6.5273 2.63741 0
M  V30 31828 C 5578.58 5.1842 2.73198 0
M  V30 31829 N 5578.63 4.38762 1.4784 0
M  V30 31830 H 5575.79 8.36803 2.32493 0
M  V30 31831 H 5575.52 6.70197 1.71129 0
M  V30 31832 H 5576.38 7.03551 4.13168 0
M  V30 31833 P 5580.35 7.20834 5.23717 0
M  V30 31834 O 5580.57 7.7993 6.57351 0
M  V30 31835 O 5581.14 7.79328 4.13004 0
M  V30 31836 O 5580.6 5.63315 5.29344 0
M  V30 31837 C 5579.66 4.80193 6.01798 0
M  V30 31838 C 5580.39 3.64202 6.65911 0
M  V30 31839 O 5580.6 2.60694 5.64732 0
M  V30 31840 C 5581.79 3.93473 7.1943 0
M  V30 31841 O 5582.18 3.02071 8.21205 0
M  V30 31842 C 5582.67 3.73047 5.97036 0
M  V30 31843 C 5581.96 2.58828 5.25741 0
M  V30 31844 N 5582.01 2.6801 3.77422 0
M  V30 31845 C 5582.16 1.50443 3.07133 0
M  V30 31846 O 5582.25 0.419406 3.61576 0
M  V30 31847 N 5582.2 1.6403 1.69677 0
M  V30 31848 C 5582.11 2.81206 0.986255 0
M  V30 31849 O 5582.16 2.80892 -0.249754 0
M  V30 31850 C 5581.96 3.99158 1.80325 0
M  V30 31851 C 5581.85 5.29309 1.06921 0
M  V30 31852 C 5581.91 3.89779 3.1476 0
M  V30 31853 H 5579.17 5.40332 6.79951 0
M  V30 31854 H 5578.9 4.41549 5.32301 0
M  V30 31855 H 5579.76 3.26331 7.47797 0
M  V30 31856 H 5582.42 1.6395 5.56554 0
M  V30 31857 H 5582.7 4.63439 5.3432 0
M  V30 31858 H 5583.69 3.44728 6.25838 0
M  V30 31859 H 5581.86 4.96652 7.57263 0
M  V30 31860 H 5581.79 4.80159 3.74441 0
M  V30 31861 H 5582.82 5.81459 1.09608 0
M  V30 31862 H 5581.08 5.9187 1.54487 0
M  V30 31863 H 5581.57 5.10095 0.0220288 0
M  V30 31864 H 5582.3 0.798962 1.16664 0
M  V30 31865 P 5583.73 2.75334 8.47391 0
M  V30 31866 O 5583.95 2.44571 9.90142 0
M  V30 31867 O 5584.52 3.87688 7.92115 0
M  V30 31868 O 5583.98 1.4459 7.59357 0
M  V30 31869 C 5583.04 0.347608 7.69215 0
M  V30 31870 C 5583.77 -0.96767 7.52806 0
M  V30 31871 O 5583.98 -1.21036 6.1011 0
M  V30 31872 C 5585.17 -1.04544 8.13308 0
M  V30 31873 O 5585.56 -2.38311 8.41922 0
M  V30 31874 C 5586.05 -0.491279 7.02284 0
M  V30 31875 C 5585.34 -0.996264 5.77469 0
M  V30 31876 N 5585.39 -0.0501916 4.62973 0
M  V30 31877 H 5582.55 0.374722 8.67691 0
M  V30 31878 H 5582.28 0.443485 6.90277 0
M  V30 31879 H 5583.14 -1.75537 7.96793 0
M  V30 31880 P 5587.11 -2.75334 8.47391 0
M  V30 31881 O 5587.33 -3.84128 9.44797 0
M  V30 31882 O 5587.9 -1.51947 8.68712 0
M  V30 31883 O 5587.36 -3.29363 6.99321 0
M  V30 31884 C 5586.42 -4.24011 6.4274 0
M  V30 31885 C 5587.15 -5.20775 5.52155 0
M  V30 31886 O 5587.36 -4.56534 4.22446 0
M  V30 31887 C 5588.55 -5.62629 5.96531 0
M  V30 31888 O 5588.94 -6.87667 5.41053 0
M  V30 31889 C 5589.43 -4.52537 5.39283 0
M  V30 31890 C 5588.72 -4.20027 4.08623 0
M  V30 31891 N 5588.77 -2.76189 3.71603 0
M  V30 31892 H 5585.93 -4.797 7.24003 0
M  V30 31893 H 5585.66 -3.69856 5.84513 0
M  V30 31894 H 5586.52 -6.10356 5.41441 0
M  V30 31895 P 5590.49 -7.20834 5.23717 0
M  V30 31896 O 5590.71 -8.66274 5.38678 0
M  V30 31897 O 5591.28 -6.33687 6.13629 0
M  V30 31898 O 5590.74 -6.7751 3.72168 0
M  V30 31899 C 5589.8 -7.20919 2.70795 0
M  V30 31900 C 5590.53 -7.45864 1.40599 0
M  V30 31901 O 5590.74 -6.17751 0.734343 0
M  V30 31902 C 5591.93 -8.05906 1.51917 0
M  V30 31903 O 5592.32 -8.74358 0.335205 0
M  V30 31904 C 5592.81 -6.83093 1.70294 0
M  V30 31905 C 5592.1 -5.79992 0.836974 0
M  V30 31906 N 5592.15 -4.41864 1.38293 0
M  V30 31907 H 5589.31 -8.13738 3.03804 0
M  V30 31908 H 5589.04 -6.42974 2.55559 0
M  V30 31909 H 5589.9 -8.12139 0.792866 0
M  V30 31910 H 5592.56 -5.80178 -0.160643 0
M  V30 31911 H 5592.84 -6.51379 2.75643 0
M  V30 31912 H 5593.83 -7.01832 1.3448 0
M  V30 31913 H 5592 -8.73771 2.38364 0
M  V30 31914 P 5593.87 -8.91 2.65786e-10 0
M  V30 31915 O 5594.09 -10.1726 -0.733694 0
M  V30 31916 O 5594.66 -8.73148 1.23936 0
M  V30 31917 O 5594.12 -7.66872 -0.971405 0
M  V30 31918 C 5593.18 -7.42309 -2.04641 0
M  V30 31919 C 5593.91 -6.86059 -3.24661 0
M  V30 31920 O 5594.12 -5.42847 -3.03646 0
M  V30 31921 C 5595.31 -7.41196 -3.50753 0
M  V30 31922 O 5595.7 -7.27073 -4.86816 0
M  V30 31923 C 5596.19 -6.5273 -2.63741 0
M  V30 31924 C 5595.48 -5.1842 -2.73198 0
M  V30 31925 N 5595.53 -4.38762 -1.4784 0
M  V30 31926 H 5592.69 -8.36803 -2.32493 0
M  V30 31927 H 5592.42 -6.70197 -1.71129 0
M  V30 31928 H 5593.28 -7.03551 -4.13168 0
M  V30 31929 P 5597.25 -7.20834 -5.23717 0
M  V30 31930 O 5597.47 -7.79853 -6.57286 0
M  V30 31931 O 5598.04 -7.79239 -4.12957 0
M  V30 31932 O 5597.5 -5.63315 -5.29344 0
M  V30 31933 C 5596.56 -4.80255 -6.01876 0
M  V30 31934 C 5597.29 -3.64202 -6.65911 0
M  V30 31935 O 5597.5 -2.60694 -5.64732 0
M  V30 31936 C 5598.69 -3.93473 -7.1943 0
M  V30 31937 O 5599.08 -3.02071 -8.21205 0
M  V30 31938 C 5599.57 -3.73047 -5.97036 0
M  V30 31939 C 5598.86 -2.58828 -5.25741 0
M  V30 31940 N 5598.91 -2.68068 -3.77503 0
M  V30 31941 H 5596.07 -5.40332 -6.79951 0
M  V30 31942 H 5595.8 -4.41613 -5.32378 0
M  V30 31943 H 5596.66 -3.26331 -7.47797 0
M  V30 31944 P 5600.63 -2.75334 -8.47391 0
M  V30 31945 O 5600.85 -2.44595 -9.90239 0
M  V30 31946 O 5601.42 -3.87732 -7.92204 0
M  V30 31947 O 5600.88 -1.4459 -7.59357 0
M  V30 31948 C 5599.94 -0.347563 -7.69115 0
M  V30 31949 C 5600.67 0.96767 -7.52806 0
M  V30 31950 O 5600.88 1.21036 -6.1011 0
M  V30 31951 C 5602.07 1.04544 -8.13308 0
M  V30 31952 O 5602.46 2.38311 -8.41922 0
M  V30 31953 C 5602.95 0.491279 -7.02284 0
M  V30 31954 C 5602.24 0.996264 -5.77469 0
M  V30 31955 N 5602.29 0.0501808 -4.62873 0
M  V30 31956 C 5602.44 0.588177 -3.36904 0
M  V30 31957 O 5602.53 1.78598 -3.17173 0
M  V30 31958 N 5602.48 -0.329694 -2.33686 0
M  V30 31959 C 5602.39 -1.6953 -2.45079 0
M  V30 31960 O 5602.44 -2.41926 -1.44899 0
M  V30 31961 C 5602.24 -2.16933 -3.80505 0
M  V30 31962 C 5602.13 -3.65373 -3.97621 0
M  V30 31963 C 5602.19 -1.30326 -4.83752 0
M  V30 31964 H 5599.45 -0.374722 -8.67691 0
M  V30 31965 H 5599.18 -0.443421 -6.90177 0
M  V30 31966 H 5600.04 1.75537 -7.96793 0
M  V30 31967 H 5602.7 1.94496 -5.46629 0
M  V30 31968 H 5602.98 -0.608651 -7.04676 0
M  V30 31969 H 5603.97 0.889672 -7.08939 0
M  V30 31970 H 5602.14 0.43308 -9.04564 0
M  V30 31971 H 5602.07 -1.68366 -5.8516 0
M  V30 31972 H 5603.1 -4.05985 -4.30448 0
M  V30 31973 H 5601.36 -3.88028 -4.72875 0
M  V30 31974 H 5601.85 -4.11381 -3.01609 0
M  V30 31975 H 5602.58 0.0393617 -1.41345 0
M  V30 31976 P 5604.01 2.75334 -8.47391 0
M  V30 31977 O 5604.23 3.84128 -9.44797 0
M  V30 31978 O 5604.8 1.51947 -8.68712 0
M  V30 31979 O 5604.26 3.29363 -6.99321 0
M  V30 31980 C 5603.32 4.24011 -6.4274 0
M  V30 31981 C 5604.05 5.20775 -5.52155 0
M  V30 31982 O 5604.26 4.56534 -4.22446 0
M  V30 31983 C 5605.45 5.62629 -5.96531 0
M  V30 31984 O 5605.84 6.87667 -5.41053 0
M  V30 31985 C 5606.33 4.52537 -5.39283 0
M  V30 31986 C 5605.62 4.20027 -4.08623 0
M  V30 31987 N 5605.67 2.76189 -3.71603 0
M  V30 31988 H 5602.83 4.797 -7.24003 0
M  V30 31989 H 5602.56 3.69856 -5.84513 0
M  V30 31990 H 5603.42 6.10356 -5.41441 0
M  V30 31991 P 5607.39 7.20834 -5.23717 0
M  V30 31992 O 5607.61 8.66104 -5.38572 0
M  V30 31993 O 5608.18 6.33544 -6.1349 0
M  V30 31994 O 5607.64 6.7751 -3.72168 0
M  V30 31995 C 5606.7 7.20825 -2.7076 0
M  V30 31996 C 5607.43 7.45864 -1.40599 0
M  V30 31997 O 5607.64 6.17651 -0.734225 0
M  V30 31998 C 5608.83 8.05808 -1.51899 0
M  V30 31999 O 5609.22 8.74358 -0.335205 0
M  V30 32000 C 5609.71 6.83093 -1.70294 0
M  V30 32001 C 5609 5.79992 -0.836974 0
M  V30 32002 N 5609.05 4.41864 -1.38293 0
M  V30 32003 H 5606.21 8.13644 -3.0377 0
M  V30 32004 H 5605.94 6.42788 -2.55485 0
M  V30 32005 H 5606.8 8.12039 -0.792769 0
M  V30 32006 P 5610.77 8.91 -2.66895e-10 0
M  V30 32007 O 5610.99 10.1726 0.733694 0
M  V30 32008 O 5611.56 8.73148 -1.23936 0
M  V30 32009 O 5611.02 7.66872 0.971405 0
M  V30 32010 C 5610.08 7.42309 2.04641 0
M  V30 32011 C 5610.81 6.86059 3.24661 0
M  V30 32012 O 5611.02 5.42847 3.03646 0
M  V30 32013 C 5612.21 7.41196 3.50753 0
M  V30 32014 O 5612.6 7.27073 4.86816 0
M  V30 32015 C 5613.09 6.5273 2.63741 0
M  V30 32016 C 5612.38 5.1842 2.73198 0
M  V30 32017 N 5612.43 4.38762 1.4784 0
M  V30 32018 H 5609.59 8.36803 2.32493 0
M  V30 32019 H 5609.32 6.70197 1.71129 0
M  V30 32020 H 5610.18 7.03551 4.13168 0
M  V30 32021 P 5614.15 7.20834 5.23717 0
M  V30 32022 O 5614.37 7.79853 6.57286 0
M  V30 32023 O 5614.94 7.79239 4.12957 0
M  V30 32024 O 5614.4 5.63315 5.29344 0
M  V30 32025 C 5613.46 4.80255 6.01876 0
M  V30 32026 C 5614.19 3.64202 6.65911 0
M  V30 32027 O 5614.4 2.60694 5.64732 0
M  V30 32028 C 5615.59 3.93473 7.1943 0
M  V30 32029 O 5615.98 3.02071 8.21205 0
M  V30 32030 C 5616.47 3.73047 5.97036 0
M  V30 32031 C 5615.76 2.58828 5.25741 0
M  V30 32032 N 5615.81 2.68068 3.77503 0
M  V30 32033 H 5612.97 5.40332 6.79951 0
M  V30 32034 H 5612.7 4.41613 5.32378 0
M  V30 32035 H 5613.56 3.26331 7.47797 0
M  V30 32036 P 5617.53 2.75334 8.47391 0
M  V30 32037 O 5617.75 2.44595 9.90239 0
M  V30 32038 O 5618.32 3.87732 7.92204 0
M  V30 32039 O 5617.78 1.4459 7.59357 0
M  V30 32040 C 5616.84 0.347563 7.69115 0
M  V30 32041 C 5617.57 -0.96767 7.52806 0
M  V30 32042 O 5617.78 -1.21036 6.1011 0
M  V30 32043 C 5618.97 -1.04544 8.13308 0
M  V30 32044 O 5619.36 -2.38311 8.41922 0
M  V30 32045 C 5619.85 -0.491279 7.02284 0
M  V30 32046 C 5619.14 -0.996264 5.77469 0
M  V30 32047 N 5619.19 -0.0501808 4.62873 0
M  V30 32048 C 5619.34 -0.588177 3.36904 0
M  V30 32049 O 5619.43 -1.78598 3.17173 0
M  V30 32050 N 5619.38 0.329694 2.33686 0
M  V30 32051 C 5619.29 1.6953 2.45079 0
M  V30 32052 C 5619.14 2.16933 3.80505 0
M  V30 32053 C 5619.09 1.30326 4.83752 0
M  V30 32054 H 5616.35 0.374722 8.67691 0
M  V30 32055 H 5616.08 0.443421 6.90177 0
M  V30 32056 H 5616.94 -1.75537 7.96793 0
M  V30 32057 H 5619.6 -1.94496 5.46629 0
M  V30 32058 H 5619.88 0.608651 7.04676 0
M  V30 32059 H 5620.87 -0.889672 7.08939 0
M  V30 32060 H 5619.04 -0.43308 9.04564 0
M  V30 32061 H 5618.97 1.68366 5.8516 0
M  V30 32062 P 5620.91 -2.75334 8.47391 0
M  V30 32063 O 5621.13 -3.84128 9.44797 0
M  V30 32064 O 5621.7 -1.51947 8.68712 0
M  V30 32065 O 5621.16 -3.29363 6.99321 0
M  V30 32066 C 5620.22 -4.24011 6.4274 0
M  V30 32067 C 5620.95 -5.20775 5.52155 0
M  V30 32068 O 5621.16 -4.56534 4.22446 0
M  V30 32069 C 5622.35 -5.62629 5.96531 0
M  V30 32070 O 5622.74 -6.87667 5.41053 0
M  V30 32071 C 5623.23 -4.52537 5.39283 0
M  V30 32072 C 5622.52 -4.20027 4.08623 0
M  V30 32073 N 5622.57 -2.76189 3.71603 0
M  V30 32074 H 5619.73 -4.797 7.24003 0
M  V30 32075 H 5619.46 -3.69856 5.84513 0
M  V30 32076 H 5620.32 -6.10356 5.41441 0
M  V30 32077 P 5624.29 -7.20834 5.23717 0
M  V30 32078 O 5624.51 -8.66104 5.38572 0
M  V30 32079 O 5625.08 -6.33544 6.1349 0
M  V30 32080 O 5624.54 -6.7751 3.72168 0
M  V30 32081 C 5623.6 -7.20825 2.7076 0
M  V30 32082 C 5624.33 -7.45864 1.40599 0
M  V30 32083 O 5624.54 -6.17651 0.734225 0
M  V30 32084 C 5625.73 -8.05808 1.51899 0
M  V30 32085 O 5626.12 -8.74358 0.335205 0
M  V30 32086 C 5626.61 -6.83093 1.70294 0
M  V30 32087 C 5625.9 -5.79992 0.836974 0
M  V30 32088 N 5625.95 -4.41864 1.38293 0
M  V30 32089 H 5623.11 -8.13644 3.0377 0
M  V30 32090 H 5622.84 -6.42788 2.55485 0
M  V30 32091 H 5623.7 -8.12039 0.792769 0
M  V30 32092 P 5627.67 -8.91 2.68004e-10 0
M  V30 32093 O 5627.89 -10.1726 -0.733694 0
M  V30 32094 O 5628.46 -8.73148 1.23936 0
M  V30 32095 O 5627.92 -7.66872 -0.971405 0
M  V30 32096 C 5626.98 -7.42309 -2.04641 0
M  V30 32097 C 5627.71 -6.86059 -3.24661 0
M  V30 32098 O 5627.92 -5.42847 -3.03646 0
M  V30 32099 C 5629.11 -7.41196 -3.50753 0
M  V30 32100 O 5629.5 -7.27073 -4.86816 0
M  V30 32101 C 5629.99 -6.5273 -2.63741 0
M  V30 32102 C 5629.28 -5.1842 -2.73198 0
M  V30 32103 N 5629.33 -4.38762 -1.4784 0
M  V30 32104 H 5626.49 -8.36803 -2.32493 0
M  V30 32105 H 5626.22 -6.70197 -1.71129 0
M  V30 32106 H 5627.08 -7.03551 -4.13168 0
M  V30 32107 P 5631.05 -7.20834 -5.23717 0
M  V30 32108 O 5631.27 -7.79853 -6.57286 0
M  V30 32109 O 5631.84 -7.79239 -4.12957 0
M  V30 32110 O 5631.3 -5.63315 -5.29344 0
M  V30 32111 C 5630.36 -4.80255 -6.01876 0
M  V30 32112 C 5631.09 -3.64202 -6.65911 0
M  V30 32113 O 5631.3 -2.60694 -5.64732 0
M  V30 32114 C 5632.49 -3.93473 -7.1943 0
M  V30 32115 O 5632.88 -3.02071 -8.21205 0
M  V30 32116 C 5633.37 -3.73047 -5.97036 0
M  V30 32117 C 5632.66 -2.58828 -5.25741 0
M  V30 32118 N 5632.71 -2.68068 -3.77503 0
M  V30 32119 H 5629.87 -5.40332 -6.79951 0
M  V30 32120 H 5629.6 -4.41613 -5.32378 0
M  V30 32121 H 5630.46 -3.26331 -7.47797 0
M  V30 32122 P 5634.43 -2.75334 -8.47391 0
M  V30 32123 O 5634.65 -2.44571 -9.90142 0
M  V30 32124 O 5635.22 -3.87688 -7.92115 0
M  V30 32125 O 5634.68 -1.4459 -7.59357 0
M  V30 32126 C 5633.74 -0.347608 -7.69215 0
M  V30 32127 C 5634.47 0.96767 -7.52806 0
M  V30 32128 O 5634.68 1.21036 -6.1011 0
M  V30 32129 C 5635.87 1.04544 -8.13308 0
M  V30 32130 O 5636.26 2.38311 -8.41922 0
M  V30 32131 C 5636.75 0.491279 -7.02284 0
M  V30 32132 C 5636.04 0.996264 -5.77469 0
M  V30 32133 N 5636.09 0.0501916 -4.62973 0
M  V30 32134 H 5633.25 -0.374722 -8.67691 0
M  V30 32135 H 5632.98 -0.443485 -6.90277 0
M  V30 32136 H 5633.84 1.75537 -7.96793 0
M  V30 32137 P 5637.81 2.75334 -8.47391 0
M  V30 32138 O 5638.03 3.84128 -9.44797 0
M  V30 32139 O 5638.6 1.51947 -8.68712 0
M  V30 32140 O 5638.06 3.29363 -6.99321 0
M  V30 32141 C 5637.12 4.24011 -6.4274 0
M  V30 32142 C 5637.85 5.20775 -5.52155 0
M  V30 32143 O 5638.06 4.56534 -4.22446 0
M  V30 32144 C 5639.25 5.62629 -5.96531 0
M  V30 32145 O 5639.64 6.87667 -5.41053 0
M  V30 32146 C 5640.13 4.52537 -5.39283 0
M  V30 32147 C 5639.42 4.20027 -4.08623 0
M  V30 32148 N 5639.47 2.76189 -3.71603 0
M  V30 32149 H 5636.63 4.797 -7.24003 0
M  V30 32150 H 5636.36 3.69856 -5.84513 0
M  V30 32151 H 5637.22 6.10356 -5.41441 0
M  V30 32152 P 5641.19 7.20834 -5.23717 0
M  V30 32153 O 5641.41 8.66189 -5.38625 0
M  V30 32154 O 5641.98 6.33615 -6.1356 0
M  V30 32155 O 5641.44 6.7751 -3.72168 0
M  V30 32156 C 5640.5 7.20732 -2.70725 0
M  V30 32157 C 5641.23 7.45864 -1.40599 0
M  V30 32158 O 5641.44 6.17651 -0.734225 0
M  V30 32159 C 5642.63 8.05808 -1.51899 0
M  V30 32160 O 5643.02 8.74358 -0.335205 0
M  V30 32161 C 5643.51 6.83093 -1.70294 0
M  V30 32162 C 5642.8 5.79992 -0.836974 0
M  V30 32163 N 5642.85 4.41769 -1.38263 0
M  V30 32164 C 5643 3.38591 -0.481702 0
M  V30 32165 O 5643.09 3.56839 0.718452 0
M  V30 32166 N 5643.04 2.1206 -1.03569 0
M  V30 32167 C 5642.95 1.80696 -2.36966 0
M  V30 32168 O 5643 0.630473 -2.74862 0
M  V30 32169 C 5642.8 2.94845 -3.23898 0
M  V30 32170 C 5642.69 2.65253 -4.70362 0
M  V30 32171 C 5642.75 4.19803 -2.73435 0
M  V30 32172 H 5640.01 8.13644 -3.0377 0
M  V30 32173 H 5639.74 6.42695 -2.55448 0
M  V30 32174 H 5640.6 8.12039 -0.792769 0
M  V30 32175 H 5643.26 5.79978 0.160587 0
M  V30 32176 H 5643.54 6.51379 -2.75643 0
M  V30 32177 H 5644.53 7.01734 -1.34462 0
M  V30 32178 H 5642.7 8.73674 -2.38337 0
M  V30 32179 H 5642.63 5.04492 -3.4095 0
M  V30 32180 H 5643.66 2.83924 -5.1913 0
M  V30 32181 H 5641.92 3.29824 -5.15163 0
M  V30 32182 H 5642.41 1.59723 -4.84449 0
M  V30 32183 H 5643.14 1.35644 -0.399345 0
M  V30 32184 P 5644.57 8.91 -2.69113e-10 0
M  V30 32185 O 5644.79 10.1726 0.733694 0
M  V30 32186 O 5645.36 8.73148 -1.23936 0
M  V30 32187 O 5644.82 7.66872 0.971405 0
M  V30 32188 C 5643.88 7.42309 2.04641 0
M  V30 32189 C 5644.61 6.86059 3.24661 0
M  V30 32190 O 5644.82 5.42847 3.03646 0
M  V30 32191 C 5646.01 7.41196 3.50753 0
M  V30 32192 O 5646.4 7.27073 4.86816 0
M  V30 32193 C 5646.89 6.5273 2.63741 0
M  V30 32194 C 5646.18 5.1842 2.73198 0
M  V30 32195 N 5646.23 4.38762 1.4784 0
M  V30 32196 H 5643.39 8.36803 2.32493 0
M  V30 32197 H 5643.12 6.70197 1.71129 0
M  V30 32198 H 5643.98 7.03551 4.13168 0
M  V30 32199 P 5647.95 7.20834 5.23717 0
M  V30 32200 O 5648.17 7.79853 6.57286 0
M  V30 32201 O 5648.74 7.79239 4.12957 0
M  V30 32202 O 5648.2 5.63315 5.29344 0
M  V30 32203 C 5647.26 4.80255 6.01876 0
M  V30 32204 C 5647.99 3.64202 6.65911 0
M  V30 32205 O 5648.2 2.60694 5.64732 0
M  V30 32206 C 5649.39 3.93473 7.1943 0
M  V30 32207 O 5649.78 3.02071 8.21205 0
M  V30 32208 C 5650.27 3.73047 5.97036 0
M  V30 32209 C 5649.56 2.58828 5.25741 0
M  V30 32210 N 5649.61 2.68068 3.77503 0
M  V30 32211 H 5646.77 5.40332 6.79951 0
M  V30 32212 H 5646.5 4.41613 5.32378 0
M  V30 32213 H 5647.36 3.26331 7.47797 0
M  V30 32214 P 5651.33 2.75334 8.47391 0
M  V30 32215 O 5651.55 2.44571 9.90142 0
M  V30 32216 O 5652.12 3.87688 7.92115 0
M  V30 32217 O 5651.58 1.4459 7.59357 0
M  V30 32218 C 5650.64 0.347608 7.69215 0
M  V30 32219 C 5651.37 -0.96767 7.52806 0
M  V30 32220 O 5651.58 -1.21036 6.1011 0
M  V30 32221 C 5652.77 -1.04544 8.13308 0
M  V30 32222 O 5653.16 -2.38311 8.41922 0
M  V30 32223 C 5653.65 -0.491279 7.02284 0
M  V30 32224 C 5652.94 -0.996264 5.77469 0
M  V30 32225 N 5652.99 -0.0501916 4.62973 0
M  V30 32226 H 5650.15 0.374722 8.67691 0
M  V30 32227 H 5649.88 0.443485 6.90277 0
M  V30 32228 H 5650.74 -1.75537 7.96793 0
M  V30 32229 P 5654.71 -2.75334 8.47391 0
M  V30 32230 O 5654.93 -3.84128 9.44797 0
M  V30 32231 O 5655.5 -1.51947 8.68712 0
M  V30 32232 O 5654.96 -3.29363 6.99321 0
M  V30 32233 C 5654.02 -4.24011 6.4274 0
M  V30 32234 C 5654.75 -5.20775 5.52155 0
M  V30 32235 O 5654.96 -4.56534 4.22446 0
M  V30 32236 C 5656.15 -5.62629 5.96531 0
M  V30 32237 O 5656.54 -6.87667 5.41053 0
M  V30 32238 C 5657.03 -4.52537 5.39283 0
M  V30 32239 C 5656.32 -4.20027 4.08623 0
M  V30 32240 N 5656.37 -2.76189 3.71603 0
M  V30 32241 H 5653.53 -4.797 7.24003 0
M  V30 32242 H 5653.26 -3.69856 5.84513 0
M  V30 32243 H 5654.12 -6.10356 5.41441 0
M  V30 32244 P 5658.09 -7.20834 5.23717 0
M  V30 32245 O 5658.31 -8.66104 5.38572 0
M  V30 32246 O 5658.88 -6.33544 6.1349 0
M  V30 32247 O 5658.34 -6.7751 3.72168 0
M  V30 32248 C 5657.4 -7.20825 2.7076 0
M  V30 32249 C 5658.13 -7.45864 1.40599 0
M  V30 32250 O 5658.34 -6.17651 0.734225 0
M  V30 32251 C 5659.53 -8.05808 1.51899 0
M  V30 32252 O 5659.92 -8.74358 0.335205 0
M  V30 32253 C 5660.41 -6.83093 1.70294 0
M  V30 32254 C 5659.7 -5.79992 0.836974 0
M  V30 32255 N 5659.75 -4.41864 1.38293 0
M  V30 32256 H 5656.91 -8.13644 3.0377 0
M  V30 32257 H 5656.64 -6.42788 2.55485 0
M  V30 32258 H 5657.5 -8.12039 0.792769 0
M  V30 32259 P 5661.47 -8.91 2.70222e-10 0
M  V30 32260 O 5661.69 -10.1746 -0.733838 0
M  V30 32261 O 5662.26 -8.73346 1.23964 0
M  V30 32262 O 5661.72 -7.66872 -0.971405 0
M  V30 32263 C 5660.78 -7.42405 -2.04668 0
M  V30 32264 C 5661.51 -6.86059 -3.24661 0
M  V30 32265 O 5661.72 -5.42934 -3.03695 0
M  V30 32266 C 5662.91 -7.41287 -3.50796 0
M  V30 32267 O 5663.3 -7.27073 -4.86816 0
M  V30 32268 C 5663.79 -6.5273 -2.63741 0
M  V30 32269 C 5663.08 -5.1842 -2.73198 0
M  V30 32270 N 5663.13 -4.38762 -1.4784 0
M  V30 32271 H 5660.29 -8.36899 -2.3252 0
M  V30 32272 H 5660.02 -6.70391 -1.71179 0
M  V30 32273 H 5660.88 -7.03638 -4.13219 0
M  V30 32274 H 5663.54 -4.59931 -3.54016 0
M  V30 32275 H 5663.82 -6.88995 -1.59871 0
M  V30 32276 H 5664.81 -6.4684 -3.0373 0
M  V30 32277 H 5662.98 -8.47002 -3.20749 0
M  V30 32278 P 5664.85 -7.20834 -5.23717 0
M  V30 32279 O 5665.07 -7.79853 -6.57286 0
M  V30 32280 O 5665.64 -7.79239 -4.12957 0
M  V30 32281 O 5665.1 -5.63315 -5.29344 0
M  V30 32282 C 5664.16 -4.80255 -6.01876 0
M  V30 32283 C 5664.89 -3.64202 -6.65911 0
M  V30 32284 O 5665.1 -2.60694 -5.64732 0
M  V30 32285 C 5666.29 -3.93473 -7.1943 0
M  V30 32286 O 5666.68 -3.02071 -8.21205 0
M  V30 32287 C 5667.17 -3.73047 -5.97036 0
M  V30 32288 C 5666.46 -2.58828 -5.25741 0
M  V30 32289 N 5666.51 -2.68068 -3.77503 0
M  V30 32290 H 5663.67 -5.40332 -6.79951 0
M  V30 32291 H 5663.4 -4.41613 -5.32378 0
M  V30 32292 H 5664.26 -3.26331 -7.47797 0
M  V30 32293 P 5668.23 -2.75334 -8.47391 0
M  V30 32294 O 5668.45 -2.44619 -9.90336 0
M  V30 32295 O 5669.02 -3.87776 -7.92294 0
M  V30 32296 O 5668.48 -1.4459 -7.59357 0
M  V30 32297 C 5667.54 -0.347653 -7.69315 0
M  V30 32298 C 5668.27 0.96767 -7.52806 0
M  V30 32299 O 5668.48 1.21055 -6.10208 0
M  V30 32300 C 5669.67 1.04557 -8.13408 0
M  V30 32301 O 5670.06 2.38311 -8.41922 0
M  V30 32302 C 5670.55 0.491279 -7.02284 0
M  V30 32303 C 5669.84 0.996264 -5.77469 0
M  V30 32304 N 5669.89 0.0501916 -4.62973 0
M  V30 32305 C 5669.81 -1.31969 -4.65661 0
M  V30 32306 N 5669.88 -1.86649 -3.48119 0
M  V30 32307 C 5670.03 -0.792089 -2.62406 0
M  V30 32308 C 5670.16 -0.705684 -1.2207 0
M  V30 32309 N 5670.17 -1.76207 -0.413762 0
M  V30 32310 N 5670.28 0.518981 -0.685754 0
M  V30 32311 C 5670.27 1.57595 -1.49174 0
M  V30 32312 N 5670.15 1.62909 -2.80066 0
M  V30 32313 C 5670.03 0.388195 -3.3073 0
M  V30 32314 H 5667.05 -0.374765 -8.67791 0
M  V30 32315 H 5666.78 -0.443613 -6.90476 0
M  V30 32316 H 5667.64 1.75559 -7.96891 0
M  V30 32317 H 5670.3 1.94563 -5.46818 0
M  V30 32318 H 5670.58 -0.608651 -7.04676 0
M  V30 32319 H 5671.57 0.889796 -7.09039 0
M  V30 32320 H 5669.74 0.433128 -9.04664 0
M  V30 32321 H 5669.7 -1.89246 -5.57664 0
M  V30 32322 H 5670.08 -2.71005 -0.804694 0
M  V30 32323 H 5670.27 -1.63189 0.603768 0
M  V30 32324 H 5670.37 2.53475 -0.997614 0
M  V30 32325 P 5671.61 2.75334 -8.47391 0
M  V30 32326 O 5671.83 3.84128 -9.44797 0
M  V30 32327 O 5672.4 1.51947 -8.68712 0
M  V30 32328 O 5671.86 3.29363 -6.99321 0
M  V30 32329 C 5670.92 4.24011 -6.4274 0
M  V30 32330 C 5671.65 5.20775 -5.52155 0
M  V30 32331 O 5671.86 4.56534 -4.22446 0
M  V30 32332 C 5673.05 5.62629 -5.96531 0
M  V30 32333 O 5673.44 6.87667 -5.41053 0
M  V30 32334 C 5673.93 4.52537 -5.39283 0
M  V30 32335 C 5673.22 4.20027 -4.08623 0
M  V30 32336 N 5673.27 2.76189 -3.71603 0
M  V30 32337 H 5670.43 4.797 -7.24003 0
M  V30 32338 H 5670.16 3.69856 -5.84513 0
M  V30 32339 H 5671.02 6.10356 -5.41441 0
M  V30 32340 P 5674.99 7.20834 -5.23717 0
M  V30 32341 O 5675.21 8.66104 -5.38572 0
M  V30 32342 O 5675.78 6.33544 -6.1349 0
M  V30 32343 O 5675.24 6.7751 -3.72168 0
M  V30 32344 C 5674.3 7.20825 -2.7076 0
M  V30 32345 C 5675.03 7.45864 -1.40599 0
M  V30 32346 O 5675.24 6.17651 -0.734225 0
M  V30 32347 C 5676.43 8.05808 -1.51899 0
M  V30 32348 O 5676.82 8.74358 -0.335205 0
M  V30 32349 C 5677.31 6.83093 -1.70294 0
M  V30 32350 C 5676.6 5.79992 -0.836974 0
M  V30 32351 N 5676.65 4.41864 -1.38293 0
M  V30 32352 H 5673.81 8.13644 -3.0377 0
M  V30 32353 H 5673.54 6.42788 -2.55485 0
M  V30 32354 H 5674.4 8.12039 -0.792769 0
M  V30 32355 P 5678.37 8.91 -2.71331e-10 0
M  V30 32356 O 5678.59 10.1726 0.733694 0
M  V30 32357 O 5679.16 8.73148 -1.23936 0
M  V30 32358 O 5678.62 7.66872 0.971405 0
M  V30 32359 C 5677.68 7.42309 2.04641 0
M  V30 32360 C 5678.41 6.86059 3.24661 0
M  V30 32361 O 5678.62 5.42847 3.03646 0
M  V30 32362 C 5679.81 7.41196 3.50753 0
M  V30 32363 O 5680.2 7.27073 4.86816 0
M  V30 32364 C 5680.69 6.5273 2.63741 0
M  V30 32365 C 5679.98 5.1842 2.73198 0
M  V30 32366 N 5680.03 4.38762 1.4784 0
M  V30 32367 H 5677.19 8.36803 2.32493 0
M  V30 32368 H 5676.92 6.70197 1.71129 0
M  V30 32369 H 5677.78 7.03551 4.13168 0
M  V30 32370 P 5681.75 7.20834 5.23717 0
M  V30 32371 O 5681.97 7.79853 6.57286 0
M  V30 32372 O 5682.54 7.79239 4.12957 0
M  V30 32373 O 5682 5.63315 5.29344 0
M  V30 32374 C 5681.06 4.80255 6.01876 0
M  V30 32375 C 5681.79 3.64202 6.65911 0
M  V30 32376 O 5682 2.60694 5.64732 0
M  V30 32377 C 5683.19 3.93473 7.1943 0
M  V30 32378 O 5683.58 3.02071 8.21205 0
M  V30 32379 C 5684.07 3.73047 5.97036 0
M  V30 32380 C 5683.36 2.58828 5.25741 0
M  V30 32381 N 5683.41 2.68068 3.77503 0
M  V30 32382 H 5680.57 5.40332 6.79951 0
M  V30 32383 H 5680.3 4.41613 5.32378 0
M  V30 32384 H 5681.16 3.26331 7.47797 0
M  V30 32385 P 5685.13 2.75334 8.47391 0
M  V30 32386 O 5685.35 2.44571 9.90142 0
M  V30 32387 O 5685.92 3.87688 7.92115 0
M  V30 32388 O 5685.38 1.4459 7.59357 0
M  V30 32389 C 5684.44 0.347608 7.69215 0
M  V30 32390 C 5685.17 -0.96767 7.52806 0
M  V30 32391 O 5685.38 -1.21036 6.1011 0
M  V30 32392 C 5686.57 -1.04544 8.13308 0
M  V30 32393 O 5686.96 -2.38311 8.41922 0
M  V30 32394 C 5687.45 -0.491279 7.02284 0
M  V30 32395 C 5686.74 -0.996264 5.77469 0
M  V30 32396 N 5686.79 -0.0501916 4.62973 0
M  V30 32397 H 5683.95 0.374722 8.67691 0
M  V30 32398 H 5683.68 0.443485 6.90277 0
M  V30 32399 H 5684.54 -1.75537 7.96793 0
M  V30 32400 P 5688.51 -2.75334 8.47391 0
M  V30 32401 O 5688.73 -3.84128 9.44797 0
M  V30 32402 O 5689.3 -1.51947 8.68712 0
M  V30 32403 O 5688.76 -3.29363 6.99321 0
M  V30 32404 C 5687.82 -4.24011 6.4274 0
M  V30 32405 C 5688.55 -5.20775 5.52155 0
M  V30 32406 O 5688.76 -4.56534 4.22446 0
M  V30 32407 C 5689.95 -5.62629 5.96531 0
M  V30 32408 O 5690.34 -6.87667 5.41053 0
M  V30 32409 C 5690.83 -4.52537 5.39283 0
M  V30 32410 C 5690.12 -4.20027 4.08623 0
M  V30 32411 N 5690.17 -2.76189 3.71603 0
M  V30 32412 H 5687.33 -4.797 7.24003 0
M  V30 32413 H 5687.06 -3.69856 5.84513 0
M  V30 32414 H 5687.92 -6.10356 5.41441 0
M  V30 32415 P 5691.89 -7.20834 5.23717 0
M  V30 32416 O 5692.11 -8.66104 5.38572 0
M  V30 32417 O 5692.68 -6.33544 6.1349 0
M  V30 32418 O 5692.14 -6.7751 3.72168 0
M  V30 32419 C 5691.2 -7.20825 2.7076 0
M  V30 32420 C 5691.93 -7.45864 1.40599 0
M  V30 32421 O 5692.14 -6.17651 0.734225 0
M  V30 32422 C 5693.33 -8.05808 1.51899 0
M  V30 32423 O 5693.72 -8.74358 0.335205 0
M  V30 32424 C 5694.21 -6.83093 1.70294 0
M  V30 32425 C 5693.5 -5.79992 0.836974 0
M  V30 32426 N 5693.55 -4.41864 1.38293 0
M  V30 32427 H 5690.71 -8.13644 3.0377 0
M  V30 32428 H 5690.44 -6.42788 2.55485 0
M  V30 32429 H 5691.3 -8.12039 0.792769 0
M  V30 32430 P 5695.27 -8.91 2.7244e-10 0
M  V30 32431 O 5695.49 -10.1726 -0.733694 0
M  V30 32432 O 5696.06 -8.73148 1.23936 0
M  V30 32433 O 5695.52 -7.66872 -0.971405 0
M  V30 32434 C 5694.58 -7.42309 -2.04641 0
M  V30 32435 C 5695.31 -6.86059 -3.24661 0
M  V30 32436 O 5695.52 -5.42847 -3.03646 0
M  V30 32437 C 5696.71 -7.41196 -3.50753 0
M  V30 32438 O 5697.1 -7.27073 -4.86816 0
M  V30 32439 C 5697.59 -6.5273 -2.63741 0
M  V30 32440 C 5696.88 -5.1842 -2.73198 0
M  V30 32441 N 5696.93 -4.38762 -1.4784 0
M  V30 32442 C 5696.85 -4.81605 -0.168631 0
M  V30 32443 N 5696.93 -3.85454 0.713363 0
M  V30 32444 C 5697.07 -2.6994 -0.0566958 0
M  V30 32445 C 5697.2 -1.34815 0.338502 0
M  V30 32446 N 5697.32 -0.496304 -0.77465 0
M  V30 32447 C 5697.32 -0.908403 -2.09122 0
M  V30 32448 N 5697.45 0.0517805 -3.00955 0
M  V30 32449 N 5697.19 -2.17875 -2.46519 0
M  V30 32450 C 5697.07 -3.01988 -1.4033 0
M  V30 32451 H 5694.09 -8.36803 -2.32493 0
M  V30 32452 H 5693.82 -6.70197 -1.71129 0
M  V30 32453 H 5694.68 -7.03551 -4.13168 0
M  V30 32454 P 5698.65 -7.20834 -5.23717 0
M  V30 32455 O 5698.87 -7.79853 -6.57286 0
M  V30 32456 O 5699.44 -7.79239 -4.12957 0
M  V30 32457 O 5698.9 -5.63315 -5.29344 0
M  V30 32458 C 5697.96 -4.80255 -6.01876 0
M  V30 32459 C 5698.69 -3.64202 -6.65911 0
M  V30 32460 O 5698.9 -2.60694 -5.64732 0
M  V30 32461 C 5700.09 -3.93473 -7.1943 0
M  V30 32462 O 5700.48 -3.02071 -8.21205 0
M  V30 32463 C 5700.97 -3.73047 -5.97036 0
M  V30 32464 C 5700.26 -2.58828 -5.25741 0
M  V30 32465 N 5700.31 -2.68068 -3.77503 0
M  V30 32466 H 5697.47 -5.40332 -6.79951 0
M  V30 32467 H 5697.2 -4.41613 -5.32378 0
M  V30 32468 H 5698.06 -3.26331 -7.47797 0
M  V30 32469 P 5702.03 -2.75334 -8.47391 0
M  V30 32470 O 5702.25 -2.44619 -9.90336 0
M  V30 32471 O 5702.82 -3.87776 -7.92294 0
M  V30 32472 O 5702.28 -1.4459 -7.59357 0
M  V30 32473 C 5701.34 -0.347653 -7.69315 0
M  V30 32474 C 5702.07 0.96767 -7.52806 0
M  V30 32475 O 5702.28 1.21055 -6.10208 0
M  V30 32476 C 5703.47 1.04557 -8.13408 0
M  V30 32477 O 5703.86 2.38311 -8.41922 0
M  V30 32478 C 5704.35 0.491279 -7.02284 0
M  V30 32479 C 5703.64 0.996264 -5.77469 0
M  V30 32480 N 5703.69 0.0501916 -4.62973 0
M  V30 32481 H 5700.85 -0.374765 -8.67791 0
M  V30 32482 H 5700.58 -0.443613 -6.90476 0
M  V30 32483 H 5701.44 1.75559 -7.96891 0
M  V30 32484 H 5704.1 1.94563 -5.46818 0
M  V30 32485 H 5704.38 -0.608651 -7.04676 0
M  V30 32486 H 5705.37 0.889796 -7.09039 0
M  V30 32487 H 5703.54 0.433128 -9.04664 0
M  V30 32488 P 5705.41 2.75334 -8.47391 0
M  V30 32489 O 5705.63 3.84128 -9.44797 0
M  V30 32490 O 5706.2 1.51947 -8.68712 0
M  V30 32491 O 5705.66 3.29363 -6.99321 0
M  V30 32492 C 5704.72 4.24011 -6.4274 0
M  V30 32493 C 5705.45 5.20775 -5.52155 0
M  V30 32494 O 5705.66 4.56534 -4.22446 0
M  V30 32495 C 5706.85 5.62629 -5.96531 0
M  V30 32496 O 5707.24 6.87667 -5.41053 0
M  V30 32497 C 5707.73 4.52537 -5.39283 0
M  V30 32498 C 5707.02 4.20027 -4.08623 0
M  V30 32499 N 5707.07 2.76189 -3.71603 0
M  V30 32500 H 5704.23 4.797 -7.24003 0
M  V30 32501 H 5703.96 3.69856 -5.84513 0
M  V30 32502 H 5704.82 6.10356 -5.41441 0
M  V30 32503 P 5708.79 7.20834 -5.23717 0
M  V30 32504 O 5709.01 8.66104 -5.38572 0
M  V30 32505 O 5709.58 6.33544 -6.1349 0
M  V30 32506 O 5709.04 6.7751 -3.72168 0
M  V30 32507 C 5708.1 7.20825 -2.7076 0
M  V30 32508 C 5708.83 7.45864 -1.40599 0
M  V30 32509 O 5709.04 6.17651 -0.734225 0
M  V30 32510 C 5710.23 8.05808 -1.51899 0
M  V30 32511 O 5710.62 8.74358 -0.335205 0
M  V30 32512 C 5711.11 6.83093 -1.70294 0
M  V30 32513 C 5710.4 5.79992 -0.836974 0
M  V30 32514 N 5710.45 4.41864 -1.38293 0
M  V30 32515 H 5707.61 8.13644 -3.0377 0
M  V30 32516 H 5707.34 6.42788 -2.55485 0
M  V30 32517 H 5708.2 8.12039 -0.792769 0
M  V30 32518 P 5712.17 8.91 -2.73549e-10 0
M  V30 32519 O 5712.39 10.1726 0.733694 0
M  V30 32520 O 5712.96 8.73148 -1.23936 0
M  V30 32521 O 5712.42 7.66872 0.971405 0
M  V30 32522 C 5711.48 7.42309 2.04641 0
M  V30 32523 C 5712.21 6.86059 3.24661 0
M  V30 32524 O 5712.42 5.42847 3.03646 0
M  V30 32525 C 5713.61 7.41196 3.50753 0
M  V30 32526 O 5714 7.27073 4.86816 0
M  V30 32527 C 5714.49 6.5273 2.63741 0
M  V30 32528 C 5713.78 5.1842 2.73198 0
M  V30 32529 N 5713.83 4.38762 1.4784 0
M  V30 32530 H 5710.99 8.36803 2.32493 0
M  V30 32531 H 5710.72 6.70197 1.71129 0
M  V30 32532 H 5711.58 7.03551 4.13168 0
M  V30 32533 P 5715.55 7.20834 5.23717 0
M  V30 32534 O 5715.77 7.79853 6.57286 0
M  V30 32535 O 5716.34 7.79239 4.12957 0
M  V30 32536 O 5715.8 5.63315 5.29344 0
M  V30 32537 C 5714.86 4.80255 6.01876 0
M  V30 32538 C 5715.59 3.64202 6.65911 0
M  V30 32539 O 5715.8 2.60694 5.64732 0
M  V30 32540 C 5716.99 3.93473 7.1943 0
M  V30 32541 O 5717.38 3.02071 8.21205 0
M  V30 32542 C 5717.87 3.73047 5.97036 0
M  V30 32543 C 5717.16 2.58828 5.25741 0
M  V30 32544 N 5717.21 2.68068 3.77503 0
M  V30 32545 H 5714.37 5.40332 6.79951 0
M  V30 32546 H 5714.1 4.41613 5.32378 0
M  V30 32547 H 5714.96 3.26331 7.47797 0
M  V30 32548 P 5718.93 2.75334 8.47391 0
M  V30 32549 O 5719.15 2.44571 9.90142 0
M  V30 32550 O 5719.72 3.87688 7.92115 0
M  V30 32551 O 5719.18 1.4459 7.59357 0
M  V30 32552 C 5718.24 0.347608 7.69215 0
M  V30 32553 C 5718.97 -0.96767 7.52806 0
M  V30 32554 O 5719.18 -1.21036 6.1011 0
M  V30 32555 C 5720.37 -1.04544 8.13308 0
M  V30 32556 O 5720.76 -2.38311 8.41922 0
M  V30 32557 C 5721.25 -0.491279 7.02284 0
M  V30 32558 C 5720.54 -0.996264 5.77469 0
M  V30 32559 N 5720.59 -0.0501916 4.62973 0
M  V30 32560 H 5717.75 0.374722 8.67691 0
M  V30 32561 H 5717.48 0.443485 6.90277 0
M  V30 32562 H 5718.34 -1.75537 7.96793 0
M  V30 32563 P 5722.31 -2.75334 8.47391 0
M  V30 32564 O 5722.53 -3.84204 9.44982 0
M  V30 32565 O 5723.1 -1.51982 8.68909 0
M  V30 32566 O 5722.56 -3.29363 6.99321 0
M  V30 32567 C 5721.62 -4.24066 6.42823 0
M  V30 32568 C 5722.35 -5.20775 5.52155 0
M  V30 32569 O 5722.56 -4.56607 4.22514 0
M  V30 32570 C 5723.75 -5.62697 5.96604 0
M  V30 32571 O 5724.14 -6.87667 5.41053 0
M  V30 32572 C 5724.63 -4.52537 5.39283 0
M  V30 32573 C 5723.92 -4.20027 4.08623 0
M  V30 32574 N 5723.97 -2.76189 3.71603 0
M  V30 32575 H 5721.13 -4.79756 7.24086 0
M  V30 32576 H 5720.86 -3.69963 5.84682 0
M  V30 32577 H 5721.72 -6.10431 5.41508 0
M  V30 32578 H 5724.38 -4.78816 3.28024 0
M  V30 32579 H 5724.66 -3.64957 6.05871 0
M  V30 32580 H 5725.65 -4.88748 5.21323 0
M  V30 32581 H 5723.82 -5.66789 7.0643 0
M  V30 32582 P 5725.69 -7.20834 5.23717 0
M  V30 32583 O 5725.91 -8.66104 5.38572 0
M  V30 32584 O 5726.48 -6.33544 6.1349 0
M  V30 32585 O 5725.94 -6.7751 3.72168 0
M  V30 32586 C 5725 -7.20825 2.7076 0
M  V30 32587 C 5725.73 -7.45864 1.40599 0
M  V30 32588 O 5725.94 -6.17651 0.734225 0
M  V30 32589 C 5727.13 -8.05808 1.51899 0
M  V30 32590 O 5727.52 -8.74358 0.335205 0
M  V30 32591 C 5728.01 -6.83093 1.70294 0
M  V30 32592 C 5727.3 -5.79992 0.836974 0
M  V30 32593 N 5727.35 -4.41864 1.38293 0
M  V30 32594 H 5724.51 -8.13644 3.0377 0
M  V30 32595 H 5724.24 -6.42788 2.55485 0
M  V30 32596 H 5725.1 -8.12039 0.792769 0
M  V30 32597 P 5729.07 -8.91 2.74658e-10 0
M  V30 32598 O 5729.29 -10.1736 -0.733766 0
M  V30 32599 O 5729.86 -8.73247 1.2395 0
M  V30 32600 O 5729.32 -7.66872 -0.971405 0
M  V30 32601 C 5728.38 -7.42212 -2.04614 0
M  V30 32602 C 5729.11 -6.86059 -3.24661 0
M  V30 32603 O 5729.32 -5.42847 -3.03646 0
M  V30 32604 C 5730.51 -7.41196 -3.50753 0
M  V30 32605 O 5730.9 -7.27073 -4.86816 0
M  V30 32606 C 5731.39 -6.5273 -2.63741 0
M  V30 32607 C 5730.68 -5.1842 -2.73198 0
M  V30 32608 N 5730.73 -4.38668 -1.47808 0
M  V30 32609 C 5730.88 -3.02239 -1.60048 0
M  V30 32610 O 5730.97 -2.46459 -2.67869 0
M  V30 32611 N 5730.92 -2.32436 -0.408571 0
M  V30 32612 C 5730.83 -2.85471 0.854993 0
M  V30 32613 C 5730.68 -4.28918 0.887335 0
M  V30 32614 C 5730.63 -5.00349 -0.255399 0
M  V30 32615 H 5727.89 -8.36803 -2.32493 0
M  V30 32616 H 5727.62 -6.701 -1.71105 0
M  V30 32617 H 5728.48 -7.03551 -4.13168 0
M  V30 32618 H 5731.14 -4.59773 -3.53894 0
M  V30 32619 H 5731.42 -6.88995 -1.59871 0
M  V30 32620 H 5732.41 -6.46749 -3.03687 0
M  V30 32621 H 5730.58 -8.46908 -3.20714 0
M  V30 32622 H 5730.51 -6.08548 -0.206986 0
M  V30 32623 P 5732.45 -7.20834 -5.23717 0
M  V30 32624 O 5732.67 -7.79853 -6.57286 0
M  V30 32625 O 5733.24 -7.79239 -4.12957 0
M  V30 32626 O 5732.7 -5.63315 -5.29344 0
M  V30 32627 C 5731.76 -4.80255 -6.01876 0
M  V30 32628 C 5732.49 -3.64202 -6.65911 0
M  V30 32629 O 5732.7 -2.60694 -5.64732 0
M  V30 32630 C 5733.89 -3.93473 -7.1943 0
M  V30 32631 O 5734.28 -3.02071 -8.21205 0
M  V30 32632 C 5734.77 -3.73047 -5.97036 0
M  V30 32633 C 5734.06 -2.58828 -5.25741 0
M  V30 32634 N 5734.11 -2.68068 -3.77503 0
M  V30 32635 H 5731.27 -5.40332 -6.79951 0
M  V30 32636 H 5731 -4.41613 -5.32378 0
M  V30 32637 H 5731.86 -3.26331 -7.47797 0
M  V30 32638 P 5735.83 -2.75334 -8.47391 0
M  V30 32639 O 5736.05 -2.44571 -9.90142 0
M  V30 32640 O 5736.62 -3.87688 -7.92115 0
M  V30 32641 O 5736.08 -1.4459 -7.59357 0
M  V30 32642 C 5735.14 -0.347608 -7.69215 0
M  V30 32643 C 5735.87 0.96767 -7.52806 0
M  V30 32644 O 5736.08 1.21036 -6.1011 0
M  V30 32645 C 5737.27 1.04544 -8.13308 0
M  V30 32646 O 5737.66 2.38311 -8.41922 0
M  V30 32647 C 5738.15 0.491279 -7.02284 0
M  V30 32648 C 5737.44 0.996264 -5.77469 0
M  V30 32649 N 5737.49 0.0501916 -4.62973 0
M  V30 32650 H 5734.65 -0.374722 -8.67691 0
M  V30 32651 H 5734.38 -0.443485 -6.90277 0
M  V30 32652 H 5735.24 1.75537 -7.96793 0
M  V30 32653 P 5739.21 2.75334 -8.47391 0
M  V30 32654 O 5739.43 3.84128 -9.44797 0
M  V30 32655 O 5740 1.51947 -8.68712 0
M  V30 32656 O 5739.46 3.29363 -6.99321 0
M  V30 32657 C 5738.52 4.24011 -6.4274 0
M  V30 32658 C 5739.25 5.20775 -5.52155 0
M  V30 32659 O 5739.46 4.56534 -4.22446 0
M  V30 32660 C 5740.65 5.62629 -5.96531 0
M  V30 32661 O 5741.04 6.87667 -5.41053 0
M  V30 32662 C 5741.53 4.52537 -5.39283 0
M  V30 32663 C 5740.82 4.20027 -4.08623 0
M  V30 32664 N 5740.87 2.76189 -3.71603 0
M  V30 32665 H 5738.03 4.797 -7.24003 0
M  V30 32666 H 5737.76 3.69856 -5.84513 0
M  V30 32667 H 5738.62 6.10356 -5.41441 0
M  V30 32668 P 5742.59 7.20834 -5.23717 0
M  V30 32669 O 5742.81 8.66189 -5.38625 0
M  V30 32670 O 5743.38 6.33615 -6.1356 0
M  V30 32671 O 5742.84 6.7751 -3.72168 0
M  V30 32672 C 5741.9 7.20732 -2.70725 0
M  V30 32673 C 5742.63 7.45864 -1.40599 0
M  V30 32674 O 5742.84 6.17651 -0.734225 0
M  V30 32675 C 5744.03 8.05808 -1.51899 0
M  V30 32676 O 5744.42 8.74358 -0.335205 0
M  V30 32677 C 5744.91 6.83093 -1.70294 0
M  V30 32678 C 5744.2 5.79992 -0.836974 0
M  V30 32679 N 5744.25 4.41769 -1.38263 0
M  V30 32680 C 5744.4 3.38591 -0.481702 0
M  V30 32681 O 5744.49 3.56839 0.718452 0
M  V30 32682 N 5744.44 2.1206 -1.03569 0
M  V30 32683 C 5744.35 1.80696 -2.36966 0
M  V30 32684 C 5744.2 2.94845 -3.23898 0
M  V30 32685 C 5744.15 4.19803 -2.73435 0
M  V30 32686 H 5741.41 8.13644 -3.0377 0
M  V30 32687 H 5741.14 6.42695 -2.55448 0
M  V30 32688 H 5742 8.12039 -0.792769 0
M  V30 32689 H 5744.66 5.79978 0.160587 0
M  V30 32690 H 5744.94 6.51379 -2.75643 0
M  V30 32691 H 5745.93 7.01734 -1.34462 0
M  V30 32692 H 5744.1 8.73674 -2.38337 0
M  V30 32693 H 5744.03 5.04492 -3.4095 0
M  V30 32694 P 5745.97 8.91 -2.75767e-10 0
M  V30 32695 O 5746.19 10.1746 0.733838 0
M  V30 32696 O 5746.76 8.73346 -1.23964 0
M  V30 32697 O 5746.22 7.66872 0.971405 0
M  V30 32698 C 5745.28 7.42405 2.04668 0
M  V30 32699 C 5746.01 6.86059 3.24661 0
M  V30 32700 O 5746.22 5.42934 3.03695 0
M  V30 32701 C 5747.41 7.41287 3.50796 0
M  V30 32702 O 5747.8 7.27073 4.86816 0
M  V30 32703 C 5748.29 6.5273 2.63741 0
M  V30 32704 C 5747.58 5.1842 2.73198 0
M  V30 32705 N 5747.63 4.38762 1.4784 0
M  V30 32706 H 5744.79 8.36899 2.3252 0
M  V30 32707 H 5744.52 6.70391 1.71179 0
M  V30 32708 H 5745.38 7.03638 4.13219 0
M  V30 32709 H 5748.04 4.59931 3.54016 0
M  V30 32710 H 5748.32 6.88995 1.59871 0
M  V30 32711 H 5749.31 6.4684 3.0373 0
M  V30 32712 H 5747.48 8.47002 3.20749 0
M  V30 32713 P 5749.35 7.20834 5.23717 0
M  V30 32714 O 5749.57 7.79853 6.57286 0
M  V30 32715 O 5750.14 7.79239 4.12957 0
M  V30 32716 O 5749.6 5.63315 5.29344 0
M  V30 32717 C 5748.66 4.80255 6.01876 0
M  V30 32718 C 5749.39 3.64202 6.65911 0
M  V30 32719 O 5749.6 2.60694 5.64732 0
M  V30 32720 C 5750.79 3.93473 7.1943 0
M  V30 32721 O 5751.18 3.02071 8.21205 0
M  V30 32722 C 5751.67 3.73047 5.97036 0
M  V30 32723 C 5750.96 2.58828 5.25741 0
M  V30 32724 N 5751.01 2.68068 3.77503 0
M  V30 32725 H 5748.17 5.40332 6.79951 0
M  V30 32726 H 5747.9 4.41613 5.32378 0
M  V30 32727 H 5748.76 3.26331 7.47797 0
M  V30 32728 P 5752.73 2.75334 8.47391 0
M  V30 32729 O 5752.95 2.44571 9.90142 0
M  V30 32730 O 5753.52 3.87688 7.92115 0
M  V30 32731 O 5752.98 1.4459 7.59357 0
M  V30 32732 C 5752.04 0.347608 7.69215 0
M  V30 32733 C 5752.77 -0.96767 7.52806 0
M  V30 32734 O 5752.98 -1.21036 6.1011 0
M  V30 32735 C 5754.17 -1.04544 8.13308 0
M  V30 32736 O 5754.56 -2.38311 8.41922 0
M  V30 32737 C 5755.05 -0.491279 7.02284 0
M  V30 32738 C 5754.34 -0.996264 5.77469 0
M  V30 32739 N 5754.39 -0.0501916 4.62973 0
M  V30 32740 H 5751.55 0.374722 8.67691 0
M  V30 32741 H 5751.28 0.443485 6.90277 0
M  V30 32742 H 5752.14 -1.75537 7.96793 0
M  V30 32743 P 5756.11 -2.75334 8.47391 0
M  V30 32744 O 5756.33 -3.84166 9.4489 0
M  V30 32745 O 5756.9 -1.51964 8.6881 0
M  V30 32746 O 5756.36 -3.29363 6.99321 0
M  V30 32747 C 5755.42 -4.23956 6.42656 0
M  V30 32748 C 5756.15 -5.20775 5.52155 0
M  V30 32749 O 5756.36 -4.56534 4.22446 0
M  V30 32750 C 5757.55 -5.62629 5.96531 0
M  V30 32751 O 5757.94 -6.87667 5.41053 0
M  V30 32752 C 5758.43 -4.52537 5.39283 0
M  V30 32753 C 5757.72 -4.20027 4.08623 0
M  V30 32754 N 5757.77 -2.7613 3.71522 0
M  V30 32755 C 5757.92 -2.45612 2.37989 0
M  V30 32756 O 5758.01 -3.30919 1.51621 0
M  V30 32757 N 5757.96 -1.10684 2.08435 0
M  V30 32758 C 5757.87 -0.0690084 2.9792 0
M  V30 32759 O 5757.92 1.10553 2.59426 0
M  V30 32760 C 5757.72 -0.481522 4.35345 0
M  V30 32761 C 5757.61 0.618778 5.36443 0
M  V30 32762 C 5757.67 -1.78906 4.67968 0
M  V30 32763 H 5754.93 -4.797 7.24003 0
M  V30 32764 H 5754.66 -3.69802 5.84429 0
M  V30 32765 H 5755.52 -6.10356 5.41441 0
M  V30 32766 H 5758.18 -4.78651 3.27911 0
M  V30 32767 H 5758.46 -3.64957 6.05871 0
M  V30 32768 H 5759.45 -4.8868 5.2125 0
M  V30 32769 H 5757.62 -5.66726 7.06352 0
M  V30 32770 H 5757.54 -2.07737 5.72367 0
M  V30 32771 H 5758.57 0.754375 5.86871 0
M  V30 32772 H 5756.84 0.359721 6.10641 0
M  V30 32773 H 5757.33 1.55533 4.8581 0
M  V30 32774 H 5758.06 -0.862651 1.12037 0
M  V30 32775 P 5759.49 -7.20834 5.23717 0
M  V30 32776 O 5759.71 -8.66104 5.38572 0
M  V30 32777 O 5760.28 -6.33544 6.1349 0
M  V30 32778 O 5759.74 -6.7751 3.72168 0
M  V30 32779 C 5758.8 -7.20825 2.7076 0
M  V30 32780 C 5759.53 -7.45864 1.40599 0
M  V30 32781 O 5759.74 -6.17651 0.734225 0
M  V30 32782 C 5760.93 -8.05808 1.51899 0
M  V30 32783 O 5761.32 -8.74358 0.335205 0
M  V30 32784 C 5761.81 -6.83093 1.70294 0
M  V30 32785 C 5761.1 -5.79992 0.836974 0
M  V30 32786 N 5761.15 -4.41864 1.38293 0
M  V30 32787 H 5758.31 -8.13644 3.0377 0
M  V30 32788 H 5758.04 -6.42788 2.55485 0
M  V30 32789 H 5758.9 -8.12039 0.792769 0
M  V30 32790 P 5762.87 -8.91 2.76876e-10 0
M  V30 32791 O 5763.09 -10.1736 -0.733766 0
M  V30 32792 O 5763.66 -8.73247 1.2395 0
M  V30 32793 O 5763.12 -7.66872 -0.971405 0
M  V30 32794 C 5762.18 -7.42309 -2.04641 0
M  V30 32795 C 5762.91 -6.86059 -3.24661 0
M  V30 32796 O 5763.12 -5.42847 -3.03646 0
M  V30 32797 C 5764.31 -7.41196 -3.50753 0
M  V30 32798 O 5764.7 -7.27073 -4.86816 0
M  V30 32799 C 5765.19 -6.5273 -2.63741 0
M  V30 32800 C 5764.48 -5.1842 -2.73198 0
M  V30 32801 N 5764.53 -4.38668 -1.47808 0
M  V30 32802 C 5764.68 -3.00789 -1.58511 0
M  V30 32803 O 5764.77 -2.50116 -2.71298 0
M  V30 32804 N 5764.73 -2.29703 -0.253698 0
M  V30 32805 C 5764.63 -2.84269 0.750133 0
M  V30 32806 N 5764.68 -2.06951 1.82612 0
M  V30 32807 C 5764.48 -4.25803 0.889776 0
M  V30 32808 C 5764.43 -4.98326 -0.259363 0
M  V30 32809 H 5761.69 -8.36707 -2.32466 0
M  V30 32810 H 5761.42 -6.701 -1.71105 0
M  V30 32811 H 5762.28 -7.03638 -4.13219 0
M  V30 32812 H 5764.94 -4.59852 -3.53955 0
M  V30 32813 H 5765.22 -6.88995 -1.59871 0
M  V30 32814 H 5766.21 -6.46749 -3.03687 0
M  V30 32815 H 5764.38 -8.46908 -3.20714 0
M  V30 32816 H 5764.3 -6.06349 -0.206238 0
M  V30 32817 H 5764.41 -4.73163 1.86796 0
M  V30 32818 H 5764.79 -1.05099 1.72271 0
M  V30 32819 H 5764.6 -2.48716 2.76361 0
M  V30 32820 P 5766.25 -7.20834 -5.23717 0
M  V30 32821 O 5766.47 -7.79853 -6.57286 0
M  V30 32822 O 5767.04 -7.79239 -4.12957 0
M  V30 32823 O 5766.5 -5.63315 -5.29344 0
M  V30 32824 C 5765.56 -4.80255 -6.01876 0
M  V30 32825 C 5766.29 -3.64202 -6.65911 0
M  V30 32826 O 5766.5 -2.60694 -5.64732 0
M  V30 32827 C 5767.69 -3.93473 -7.1943 0
M  V30 32828 O 5768.08 -3.02071 -8.21205 0
M  V30 32829 C 5768.57 -3.73047 -5.97036 0
M  V30 32830 C 5767.86 -2.58828 -5.25741 0
M  V30 32831 N 5767.91 -2.68068 -3.77503 0
M  V30 32832 H 5765.07 -5.40332 -6.79951 0
M  V30 32833 H 5764.8 -4.41613 -5.32378 0
M  V30 32834 H 5765.66 -3.26331 -7.47797 0
M  V30 32835 P 5769.63 -2.75334 -8.47391 0
M  V30 32836 O 5769.85 -2.44571 -9.90142 0
M  V30 32837 O 5770.42 -3.87688 -7.92115 0
M  V30 32838 O 5769.88 -1.4459 -7.59357 0
M  V30 32839 C 5768.94 -0.347608 -7.69215 0
M  V30 32840 C 5769.67 0.96767 -7.52806 0
M  V30 32841 O 5769.88 1.21036 -6.1011 0
M  V30 32842 C 5771.07 1.04544 -8.13308 0
M  V30 32843 O 5771.46 2.38311 -8.41922 0
M  V30 32844 C 5771.95 0.491279 -7.02284 0
M  V30 32845 C 5771.24 0.996264 -5.77469 0
M  V30 32846 N 5771.29 0.0501916 -4.62973 0
M  V30 32847 H 5768.45 -0.374722 -8.67691 0
M  V30 32848 H 5768.18 -0.443485 -6.90277 0
M  V30 32849 H 5769.04 1.75537 -7.96793 0
M  V30 32850 P 5773.01 2.75334 -8.47391 0
M  V30 32851 O 5773.23 3.84128 -9.44797 0
M  V30 32852 O 5773.8 1.51947 -8.68712 0
M  V30 32853 O 5773.26 3.29363 -6.99321 0
M  V30 32854 C 5772.32 4.24011 -6.4274 0
M  V30 32855 C 5773.05 5.20775 -5.52155 0
M  V30 32856 O 5773.26 4.56534 -4.22446 0
M  V30 32857 C 5774.45 5.62629 -5.96531 0
M  V30 32858 O 5774.84 6.87667 -5.41053 0
M  V30 32859 C 5775.33 4.52537 -5.39283 0
M  V30 32860 C 5774.62 4.20027 -4.08623 0
M  V30 32861 N 5774.67 2.76189 -3.71603 0
M  V30 32862 C 5774.59 1.64862 -4.52822 0
M  V30 32863 N 5774.67 0.512671 -3.88633 0
M  V30 32864 C 5774.81 0.888083 -2.54977 0
M  V30 32865 C 5774.94 0.094668 -1.38677 0
M  V30 32866 O 5774.96 -1.13053 -1.28163 0
M  V30 32867 N 5775.06 0.890102 -0.232633 0
M  V30 32868 C 5775.06 2.26958 -0.21772 0
M  V30 32869 N 5775.19 2.84626 0.97925 0
M  V30 32870 N 5774.93 3.0178 -1.31033 0
M  V30 32871 C 5774.81 2.26781 -2.43843 0
M  V30 32872 H 5771.83 4.797 -7.24003 0
M  V30 32873 H 5771.56 3.69856 -5.84513 0
M  V30 32874 H 5772.42 6.10356 -5.41441 0
M  V30 32875 H 5775.08 4.79061 -3.27488 0
M  V30 32876 H 5775.36 3.64906 -6.05785 0
M  V30 32877 H 5776.35 4.8868 -5.2125 0
M  V30 32878 H 5774.52 5.66726 -7.06352 0
M  V30 32879 H 5774.47 1.71169 -5.60966 0
M  V30 32880 H 5775.15 0.419134 0.644739 0
M  V30 32881 H 5775.19 3.87332 1.06098 0
M  V30 32882 H 5775.29 2.26417 1.82483 0
M  V30 32883 P 5776.39 7.20834 -5.23717 0
M  V30 32884 O 5776.61 8.66104 -5.38572 0
M  V30 32885 O 5777.18 6.33544 -6.1349 0
M  V30 32886 O 5776.64 6.7751 -3.72168 0
M  V30 32887 C 5775.7 7.20825 -2.7076 0
M  V30 32888 C 5776.43 7.45864 -1.40599 0
M  V30 32889 O 5776.64 6.17651 -0.734225 0
M  V30 32890 C 5777.83 8.05808 -1.51899 0
M  V30 32891 O 5778.22 8.74358 -0.335205 0
M  V30 32892 C 5778.71 6.83093 -1.70294 0
M  V30 32893 C 5778 5.79992 -0.836974 0
M  V30 32894 N 5778.05 4.41864 -1.38293 0
M  V30 32895 H 5775.21 8.13644 -3.0377 0
M  V30 32896 H 5774.94 6.42788 -2.55485 0
M  V30 32897 H 5775.8 8.12039 -0.792769 0
M  V30 32898 P 5779.77 8.91 -2.77985e-10 0
M  V30 32899 O 5779.99 10.1746 0.733838 0
M  V30 32900 O 5780.56 8.73346 -1.23964 0
M  V30 32901 O 5780.02 7.66872 0.971405 0
M  V30 32902 C 5779.08 7.42405 2.04668 0
M  V30 32903 C 5779.81 6.86059 3.24661 0
M  V30 32904 O 5780.02 5.42934 3.03695 0
M  V30 32905 C 5781.21 7.41287 3.50796 0
M  V30 32906 O 5781.6 7.27073 4.86816 0
M  V30 32907 C 5782.09 6.5273 2.63741 0
M  V30 32908 C 5781.38 5.1842 2.73198 0
M  V30 32909 N 5781.43 4.38762 1.4784 0
M  V30 32910 C 5781.35 4.83651 0.183876 0
M  V30 32911 N 5781.42 3.88759 -0.699393 0
M  V30 32912 C 5781.57 2.7404 0.0575568 0
M  V30 32913 C 5781.7 1.37902 -0.293928 0
M  V30 32914 N 5781.71 0.938021 -1.54797 0
M  V30 32915 N 5781.82 0.491817 0.70549 0
M  V30 32916 C 5781.81 0.931735 1.95979 0
M  V30 32917 N 5781.69 2.16017 2.41481 0
M  V30 32918 C 5781.57 3.02547 1.39121 0
M  V30 32919 H 5778.59 8.36899 2.3252 0
M  V30 32920 H 5778.32 6.70391 1.71179 0
M  V30 32921 H 5779.18 7.03638 4.13219 0
M  V30 32922 H 5781.84 4.59931 3.54016 0
M  V30 32923 H 5782.12 6.88995 1.59871 0
M  V30 32924 H 5783.11 6.4684 3.0373 0
M  V30 32925 H 5781.28 8.47002 3.20749 0
M  V30 32926 H 5781.23 5.8885 -0.0765548 0
M  V30 32927 H 5781.62 1.60276 -2.32875 0
M  V30 32928 H 5781.8 -0.0699355 -1.73859 0
M  V30 32929 H 5781.91 0.165507 2.71897 0
M  V30 32930 P 5783.15 7.20834 5.23717 0
M  V30 32931 O 5783.37 7.7993 6.57351 0
M  V30 32932 O 5783.94 7.79328 4.13004 0
M  V30 32933 O 5783.4 5.63315 5.29344 0
M  V30 32934 C 5782.46 4.80193 6.01798 0
M  V30 32935 C 5783.19 3.64202 6.65911 0
M  V30 32936 O 5783.4 2.60694 5.64732 0
M  V30 32937 C 5784.59 3.93473 7.1943 0
M  V30 32938 O 5784.98 3.02071 8.21205 0
M  V30 32939 C 5785.47 3.73047 5.97036 0
M  V30 32940 C 5784.76 2.58828 5.25741 0
M  V30 32941 N 5784.81 2.6801 3.77422 0
M  V30 32942 C 5784.96 1.50443 3.07133 0
M  V30 32943 O 5785.05 0.419406 3.61576 0
M  V30 32944 N 5785 1.6403 1.69677 0
M  V30 32945 C 5784.91 2.81206 0.986255 0
M  V30 32946 C 5784.76 3.99158 1.80325 0
M  V30 32947 C 5784.71 3.89779 3.1476 0
M  V30 32948 H 5781.97 5.40332 6.79951 0
M  V30 32949 H 5781.7 4.41549 5.32301 0
M  V30 32950 H 5782.56 3.26331 7.47797 0
M  V30 32951 H 5785.22 1.6395 5.56554 0
M  V30 32952 H 5785.5 4.63439 5.3432 0
M  V30 32953 H 5786.49 3.44728 6.25838 0
M  V30 32954 H 5784.66 4.96652 7.57263 0
M  V30 32955 H 5784.58 4.80159 3.74441 0
M  V30 32956 P 5786.53 2.75334 8.47391 0
M  V30 32957 O 5786.75 2.44571 9.90142 0
M  V30 32958 O 5787.32 3.87688 7.92115 0
M  V30 32959 O 5786.78 1.4459 7.59357 0
M  V30 32960 C 5785.84 0.347608 7.69215 0
M  V30 32961 C 5786.57 -0.96767 7.52806 0
M  V30 32962 O 5786.78 -1.21036 6.1011 0
M  V30 32963 C 5787.97 -1.04544 8.13308 0
M  V30 32964 O 5788.36 -2.38311 8.41922 0
M  V30 32965 C 5788.85 -0.491279 7.02284 0
M  V30 32966 C 5788.14 -0.996264 5.77469 0
M  V30 32967 N 5788.19 -0.0501916 4.62973 0
M  V30 32968 H 5785.35 0.374722 8.67691 0
M  V30 32969 H 5785.08 0.443485 6.90277 0
M  V30 32970 H 5785.94 -1.75537 7.96793 0
M  V30 32971 P 5789.91 -2.75334 8.47391 0
M  V30 32972 O 5790.13 -3.84166 9.4489 0
M  V30 32973 O 5790.7 -1.51964 8.6881 0
M  V30 32974 O 5790.16 -3.29363 6.99321 0
M  V30 32975 C 5789.22 -4.24011 6.4274 0
M  V30 32976 C 5789.95 -5.20775 5.52155 0
M  V30 32977 O 5790.16 -4.56534 4.22446 0
M  V30 32978 C 5791.35 -5.62629 5.96531 0
M  V30 32979 O 5791.74 -6.87667 5.41053 0
M  V30 32980 C 5792.23 -4.52537 5.39283 0
M  V30 32981 C 5791.52 -4.20027 4.08623 0
M  V30 32982 N 5791.57 -2.7613 3.71522 0
M  V30 32983 C 5791.72 -2.43702 2.37085 0
M  V30 32984 O 5791.81 -3.3531 1.54039 0
M  V30 32985 N 5791.77 -0.951103 2.10621 0
M  V30 32986 C 5791.67 -0.165021 2.93537 0
M  V30 32987 N 5791.72 1.09723 2.53253 0
M  V30 32988 C 5791.52 -0.469576 4.32458 0
M  V30 32989 C 5791.47 -1.78658 4.65921 0
M  V30 32990 H 5788.73 -4.79645 7.23919 0
M  V30 32991 H 5788.46 -3.69802 5.84429 0
M  V30 32992 H 5789.32 -6.10431 5.41508 0
M  V30 32993 H 5791.98 -4.78733 3.27967 0
M  V30 32994 H 5792.26 -3.64957 6.05871 0
M  V30 32995 H 5793.25 -4.8868 5.2125 0
M  V30 32996 H 5791.42 -5.66726 7.06352 0
M  V30 32997 H 5791.34 -2.06987 5.70299 0
M  V30 32998 H 5791.45 0.314383 5.07728 0
M  V30 32999 H 5791.83 1.31363 1.5319 0
M  V30 33000 H 5791.64 1.85978 3.21943 0
M  V30 33001 P 5793.29 -7.20834 5.23717 0
M  V30 33002 O 5793.51 -8.66104 5.38572 0
M  V30 33003 O 5794.08 -6.33544 6.1349 0
M  V30 33004 O 5793.54 -6.7751 3.72168 0
M  V30 33005 C 5792.6 -7.20825 2.7076 0
M  V30 33006 C 5793.33 -7.45864 1.40599 0
M  V30 33007 O 5793.54 -6.17651 0.734225 0
M  V30 33008 C 5794.73 -8.05808 1.51899 0
M  V30 33009 O 5795.12 -8.74358 0.335205 0
M  V30 33010 C 5795.61 -6.83093 1.70294 0
M  V30 33011 C 5794.9 -5.79992 0.836974 0
M  V30 33012 N 5794.95 -4.41864 1.38293 0
M  V30 33013 H 5792.11 -8.13644 3.0377 0
M  V30 33014 H 5791.84 -6.42788 2.55485 0
M  V30 33015 H 5792.7 -8.12039 0.792769 0
M  V30 33016 P 5796.67 -8.91 2.79094e-10 0
M  V30 33017 O 5796.89 -10.1726 -0.733694 0
M  V30 33018 O 5797.46 -8.73148 1.23936 0
M  V30 33019 O 5796.92 -7.66872 -0.971405 0
M  V30 33020 C 5795.98 -7.42309 -2.04641 0
M  V30 33021 C 5796.71 -6.86059 -3.24661 0
M  V30 33022 O 5796.92 -5.42847 -3.03646 0
M  V30 33023 C 5798.11 -7.41196 -3.50753 0
M  V30 33024 O 5798.5 -7.27073 -4.86816 0
M  V30 33025 C 5798.99 -6.5273 -2.63741 0
M  V30 33026 C 5798.28 -5.1842 -2.73198 0
M  V30 33027 N 5798.33 -4.38762 -1.4784 0
M  V30 33028 H 5795.49 -8.36803 -2.32493 0
M  V30 33029 H 5795.22 -6.70197 -1.71129 0
M  V30 33030 H 5796.08 -7.03551 -4.13168 0
M  V30 33031 P 5800.05 -7.20834 -5.23717 0
M  V30 33032 O 5800.27 -7.7993 -6.57351 0
M  V30 33033 O 5800.84 -7.79328 -4.13004 0
M  V30 33034 O 5800.3 -5.63315 -5.29344 0
M  V30 33035 C 5799.36 -4.80193 -6.01798 0
M  V30 33036 C 5800.09 -3.64202 -6.65911 0
M  V30 33037 O 5800.3 -2.60694 -5.64732 0
M  V30 33038 C 5801.49 -3.93473 -7.1943 0
M  V30 33039 O 5801.88 -3.02071 -8.21205 0
M  V30 33040 C 5802.37 -3.73047 -5.97036 0
M  V30 33041 C 5801.66 -2.58828 -5.25741 0
M  V30 33042 N 5801.71 -2.6801 -3.77422 0
M  V30 33043 C 5801.86 -1.50443 -3.07133 0
M  V30 33044 O 5801.95 -0.419406 -3.61576 0
M  V30 33045 N 5801.9 -1.6403 -1.69677 0
M  V30 33046 C 5801.81 -2.81206 -0.986255 0
M  V30 33047 O 5801.86 -2.80892 0.249754 0
M  V30 33048 C 5801.66 -3.99158 -1.80325 0
M  V30 33049 C 5801.55 -5.29309 -1.06921 0
M  V30 33050 C 5801.61 -3.89779 -3.1476 0
M  V30 33051 H 5798.87 -5.40332 -6.79951 0
M  V30 33052 H 5798.6 -4.41549 -5.32301 0
M  V30 33053 H 5799.46 -3.26331 -7.47797 0
M  V30 33054 H 5802.12 -1.6395 -5.56554 0
M  V30 33055 H 5802.4 -4.63439 -5.3432 0
M  V30 33056 H 5803.39 -3.44728 -6.25838 0
M  V30 33057 H 5801.56 -4.96652 -7.57263 0
M  V30 33058 H 5801.48 -4.80159 -3.74441 0
M  V30 33059 H 5802.51 -5.81459 -1.09608 0
M  V30 33060 H 5800.78 -5.9187 -1.54487 0
M  V30 33061 H 5801.27 -5.10095 -0.0220288 0
M  V30 33062 H 5802 -0.798962 -1.16664 0
M  V30 33063 P 5803.43 -2.75334 -8.47391 0
M  V30 33064 O 5803.65 -2.44571 -9.90142 0
M  V30 33065 O 5804.22 -3.87688 -7.92115 0
M  V30 33066 O 5803.68 -1.4459 -7.59357 0
M  V30 33067 C 5802.74 -0.347608 -7.69215 0
M  V30 33068 C 5803.47 0.96767 -7.52806 0
M  V30 33069 O 5803.68 1.21036 -6.1011 0
M  V30 33070 C 5804.87 1.04544 -8.13308 0
M  V30 33071 O 5805.26 2.38311 -8.41922 0
M  V30 33072 C 5805.75 0.491279 -7.02284 0
M  V30 33073 C 5805.04 0.996264 -5.77469 0
M  V30 33074 N 5805.09 0.0501916 -4.62973 0
M  V30 33075 H 5802.25 -0.374722 -8.67691 0
M  V30 33076 H 5801.98 -0.443485 -6.90277 0
M  V30 33077 H 5802.84 1.75537 -7.96793 0
M  V30 33078 P 5806.81 2.75334 -8.47391 0
M  V30 33079 O 5807.03 3.84128 -9.44797 0
M  V30 33080 O 5807.6 1.51947 -8.68712 0
M  V30 33081 O 5807.06 3.29363 -6.99321 0
M  V30 33082 C 5806.12 4.24011 -6.4274 0
M  V30 33083 C 5806.85 5.20775 -5.52155 0
M  V30 33084 O 5807.06 4.56534 -4.22446 0
M  V30 33085 C 5808.25 5.62629 -5.96531 0
M  V30 33086 O 5808.64 6.87667 -5.41053 0
M  V30 33087 C 5809.13 4.52537 -5.39283 0
M  V30 33088 C 5808.42 4.20027 -4.08623 0
M  V30 33089 N 5808.47 2.76189 -3.71603 0
M  V30 33090 H 5805.63 4.797 -7.24003 0
M  V30 33091 H 5805.36 3.69856 -5.84513 0
M  V30 33092 H 5806.22 6.10356 -5.41441 0
M  V30 33093 P 5810.19 7.20834 -5.23717 0
M  V30 33094 O 5810.41 8.66104 -5.38572 0
M  V30 33095 O 5810.98 6.33544 -6.1349 0
M  V30 33096 O 5810.44 6.7751 -3.72168 0
M  V30 33097 C 5809.5 7.20825 -2.7076 0
M  V30 33098 C 5810.23 7.45864 -1.40599 0
M  V30 33099 O 5810.44 6.17651 -0.734225 0
M  V30 33100 C 5811.63 8.05808 -1.51899 0
M  V30 33101 O 5812.02 8.74358 -0.335205 0
M  V30 33102 C 5812.51 6.83093 -1.70294 0
M  V30 33103 C 5811.8 5.79992 -0.836974 0
M  V30 33104 N 5811.85 4.41864 -1.38293 0
M  V30 33105 H 5809.01 8.13644 -3.0377 0
M  V30 33106 H 5808.74 6.42788 -2.55485 0
M  V30 33107 H 5809.6 8.12039 -0.792769 0
M  V30 33108 P 5813.57 8.91 -2.80203e-10 0
M  V30 33109 O 5813.79 10.1726 0.733694 0
M  V30 33110 O 5814.36 8.73148 -1.23936 0
M  V30 33111 O 5813.82 7.66872 0.971405 0
M  V30 33112 C 5812.88 7.42309 2.04641 0
M  V30 33113 C 5813.61 6.86059 3.24661 0
M  V30 33114 O 5813.82 5.42847 3.03646 0
M  V30 33115 C 5815.01 7.41196 3.50753 0
M  V30 33116 O 5815.4 7.27073 4.86816 0
M  V30 33117 C 5815.89 6.5273 2.63741 0
M  V30 33118 C 5815.18 5.1842 2.73198 0
M  V30 33119 N 5815.23 4.38762 1.4784 0
M  V30 33120 H 5812.39 8.36803 2.32493 0
M  V30 33121 H 5812.12 6.70197 1.71129 0
M  V30 33122 H 5812.98 7.03551 4.13168 0
M  V30 33123 P 5816.95 7.20834 5.23717 0
M  V30 33124 O 5817.17 7.7993 6.57351 0
M  V30 33125 O 5817.74 7.79328 4.13004 0
M  V30 33126 O 5817.2 5.63315 5.29344 0
M  V30 33127 C 5816.26 4.80193 6.01798 0
M  V30 33128 C 5816.99 3.64202 6.65911 0
M  V30 33129 O 5817.2 2.60694 5.64732 0
M  V30 33130 C 5818.39 3.93473 7.1943 0
M  V30 33131 O 5818.78 3.02071 8.21205 0
M  V30 33132 C 5819.27 3.73047 5.97036 0
M  V30 33133 C 5818.56 2.58828 5.25741 0
M  V30 33134 N 5818.61 2.6801 3.77422 0
M  V30 33135 C 5818.76 1.50443 3.07133 0
M  V30 33136 O 5818.85 0.419406 3.61576 0
M  V30 33137 N 5818.8 1.6403 1.69677 0
M  V30 33138 C 5818.71 2.81206 0.986255 0
M  V30 33139 C 5818.56 3.99158 1.80325 0
M  V30 33140 C 5818.51 3.89779 3.1476 0
M  V30 33141 H 5815.77 5.40332 6.79951 0
M  V30 33142 H 5815.5 4.41549 5.32301 0
M  V30 33143 H 5816.36 3.26331 7.47797 0
M  V30 33144 H 5819.02 1.6395 5.56554 0
M  V30 33145 H 5819.3 4.63439 5.3432 0
M  V30 33146 H 5820.29 3.44728 6.25838 0
M  V30 33147 H 5818.46 4.96652 7.57263 0
M  V30 33148 H 5818.38 4.80159 3.74441 0
M  V30 33149 P 5820.33 2.75334 8.47391 0
M  V30 33150 O 5820.55 2.44595 9.90239 0
M  V30 33151 O 5821.12 3.87732 7.92204 0
M  V30 33152 O 5820.58 1.4459 7.59357 0
M  V30 33153 C 5819.64 0.347563 7.69115 0
M  V30 33154 C 5820.37 -0.96767 7.52806 0
M  V30 33155 O 5820.58 -1.21036 6.1011 0
M  V30 33156 C 5821.77 -1.04544 8.13308 0
M  V30 33157 O 5822.16 -2.38311 8.41922 0
M  V30 33158 C 5822.65 -0.491279 7.02284 0
M  V30 33159 C 5821.94 -0.996264 5.77469 0
M  V30 33160 N 5821.99 -0.0501808 4.62873 0
M  V30 33161 C 5822.14 -0.588177 3.36904 0
M  V30 33162 O 5822.23 -1.78598 3.17173 0
M  V30 33163 N 5822.18 0.329694 2.33686 0
M  V30 33164 C 5822.09 1.6953 2.45079 0
M  V30 33165 O 5822.14 2.41926 1.44899 0
M  V30 33166 C 5821.94 2.16933 3.80505 0
M  V30 33167 C 5821.83 3.65373 3.97621 0
M  V30 33168 C 5821.89 1.30326 4.83752 0
M  V30 33169 H 5819.15 0.374722 8.67691 0
M  V30 33170 H 5818.88 0.443421 6.90177 0
M  V30 33171 H 5819.74 -1.75537 7.96793 0
M  V30 33172 H 5822.4 -1.94496 5.46629 0
M  V30 33173 H 5822.68 0.608651 7.04676 0
M  V30 33174 H 5823.67 -0.889672 7.08939 0
M  V30 33175 H 5821.84 -0.43308 9.04564 0
M  V30 33176 H 5821.76 1.68366 5.8516 0
M  V30 33177 H 5822.79 4.05985 4.30448 0
M  V30 33178 H 5821.06 3.88028 4.72875 0
M  V30 33179 H 5821.55 4.11381 3.01609 0
M  V30 33180 H 5822.28 -0.0393617 1.41345 0
M  V30 33181 P 5823.71 -2.75334 8.47391 0
M  V30 33182 O 5823.93 -3.84128 9.44797 0
M  V30 33183 O 5824.5 -1.51947 8.68712 0
M  V30 33184 O 5823.96 -3.29363 6.99321 0
M  V30 33185 C 5823.02 -4.24011 6.4274 0
M  V30 33186 C 5823.75 -5.20775 5.52155 0
M  V30 33187 O 5823.96 -4.56534 4.22446 0
M  V30 33188 C 5825.15 -5.62629 5.96531 0
M  V30 33189 O 5825.54 -6.87667 5.41053 0
M  V30 33190 C 5826.03 -4.52537 5.39283 0
M  V30 33191 C 5825.32 -4.20027 4.08623 0
M  V30 33192 N 5825.37 -2.76189 3.71603 0
M  V30 33193 H 5822.53 -4.797 7.24003 0
M  V30 33194 H 5822.26 -3.69856 5.84513 0
M  V30 33195 H 5823.12 -6.10356 5.41441 0
M  V30 33196 P 5827.09 -7.20834 5.23717 0
M  V30 33197 O 5827.31 -8.66189 5.38625 0
M  V30 33198 O 5827.88 -6.33615 6.1356 0
M  V30 33199 O 5827.34 -6.7751 3.72168 0
M  V30 33200 C 5826.4 -7.20732 2.70725 0
M  V30 33201 C 5827.13 -7.45864 1.40599 0
M  V30 33202 O 5827.34 -6.17651 0.734225 0
M  V30 33203 C 5828.53 -8.05808 1.51899 0
M  V30 33204 O 5828.92 -8.74358 0.335205 0
M  V30 33205 C 5829.41 -6.83093 1.70294 0
M  V30 33206 C 5828.7 -5.79992 0.836974 0
M  V30 33207 N 5828.75 -4.41769 1.38263 0
M  V30 33208 C 5828.9 -3.38591 0.481702 0
M  V30 33209 O 5828.99 -3.56839 -0.718452 0
M  V30 33210 N 5828.94 -2.1206 1.03569 0
M  V30 33211 C 5828.85 -1.80696 2.36966 0
M  V30 33212 C 5828.7 -2.94845 3.23898 0
M  V30 33213 C 5828.65 -4.19803 2.73435 0
M  V30 33214 H 5825.91 -8.13644 3.0377 0
M  V30 33215 H 5825.64 -6.42695 2.55448 0
M  V30 33216 H 5826.5 -8.12039 0.792769 0
M  V30 33217 H 5829.16 -5.79978 -0.160587 0
M  V30 33218 H 5829.44 -6.51379 2.75643 0
M  V30 33219 H 5830.43 -7.01734 1.34462 0
M  V30 33220 H 5828.6 -8.73674 2.38337 0
M  V30 33221 H 5828.52 -5.04492 3.4095 0
M  V30 33222 P 5830.47 -8.91 2.81312e-10 0
M  V30 33223 O 5830.69 -10.1726 -0.733694 0
M  V30 33224 O 5831.26 -8.73148 1.23936 0
M  V30 33225 O 5830.72 -7.66872 -0.971405 0
M  V30 33226 C 5829.78 -7.42309 -2.04641 0
M  V30 33227 C 5830.51 -6.86059 -3.24661 0
M  V30 33228 O 5830.72 -5.42847 -3.03646 0
M  V30 33229 C 5831.91 -7.41196 -3.50753 0
M  V30 33230 O 5832.3 -7.27073 -4.86816 0
M  V30 33231 C 5832.79 -6.5273 -2.63741 0
M  V30 33232 C 5832.08 -5.1842 -2.73198 0
M  V30 33233 N 5832.13 -4.38762 -1.4784 0
M  V30 33234 H 5829.29 -8.36803 -2.32493 0
M  V30 33235 H 5829.02 -6.70197 -1.71129 0
M  V30 33236 H 5829.88 -7.03551 -4.13168 0
M  V30 33237 P 5833.85 -7.20834 -5.23717 0
M  V30 33238 O 5834.07 -7.79853 -6.57286 0
M  V30 33239 O 5834.64 -7.79239 -4.12957 0
M  V30 33240 O 5834.1 -5.63315 -5.29344 0
M  V30 33241 C 5833.16 -4.80255 -6.01876 0
M  V30 33242 C 5833.89 -3.64202 -6.65911 0
M  V30 33243 O 5834.1 -2.60694 -5.64732 0
M  V30 33244 C 5835.29 -3.93473 -7.1943 0
M  V30 33245 O 5835.68 -3.02071 -8.21205 0
M  V30 33246 C 5836.17 -3.73047 -5.97036 0
M  V30 33247 C 5835.46 -2.58828 -5.25741 0
M  V30 33248 N 5835.51 -2.68068 -3.77503 0
M  V30 33249 H 5832.67 -5.40332 -6.79951 0
M  V30 33250 H 5832.4 -4.41613 -5.32378 0
M  V30 33251 H 5833.26 -3.26331 -7.47797 0
M  V30 33252 P 5837.23 -2.75334 -8.47391 0
M  V30 33253 O 5837.45 -2.44571 -9.90142 0
M  V30 33254 O 5838.02 -3.87688 -7.92115 0
M  V30 33255 O 5837.48 -1.4459 -7.59357 0
M  V30 33256 C 5836.54 -0.347608 -7.69215 0
M  V30 33257 C 5837.27 0.96767 -7.52806 0
M  V30 33258 O 5837.48 1.21036 -6.1011 0
M  V30 33259 C 5838.67 1.04544 -8.13308 0
M  V30 33260 O 5839.06 2.38311 -8.41922 0
M  V30 33261 C 5839.55 0.491279 -7.02284 0
M  V30 33262 C 5838.84 0.996264 -5.77469 0
M  V30 33263 N 5838.89 0.0501916 -4.62973 0
M  V30 33264 C 5838.81 -1.32786 -4.63244 0
M  V30 33265 N 5838.89 -1.86957 -3.44545 0
M  V30 33266 C 5839.03 -0.780241 -2.58481 0
M  V30 33267 C 5839.16 -0.738536 -1.17757 0
M  V30 33268 N 5839.28 0.58337 -0.711393 0
M  V30 33269 C 5839.28 1.70816 -1.51017 0
M  V30 33270 N 5839.41 2.87826 -0.880757 0
M  V30 33271 N 5839.15 1.67126 -2.8339 0
M  V30 33272 C 5839.03 0.401421 -3.30572 0
M  V30 33273 H 5836.05 -0.374722 -8.67691 0
M  V30 33274 H 5835.78 -0.443485 -6.90277 0
M  V30 33275 H 5836.64 1.75537 -7.96793 0
M  V30 33276 P 5840.61 2.75334 -8.47391 0
M  V30 33277 O 5840.83 3.84128 -9.44797 0
M  V30 33278 O 5841.4 1.51947 -8.68712 0
M  V30 33279 O 5840.86 3.29363 -6.99321 0
M  V30 33280 C 5839.92 4.24011 -6.4274 0
M  V30 33281 C 5840.65 5.20775 -5.52155 0
M  V30 33282 O 5840.86 4.56534 -4.22446 0
M  V30 33283 C 5842.05 5.62629 -5.96531 0
M  V30 33284 O 5842.44 6.87667 -5.41053 0
M  V30 33285 C 5842.93 4.52537 -5.39283 0
M  V30 33286 C 5842.22 4.20027 -4.08623 0
M  V30 33287 N 5842.27 2.76189 -3.71603 0
M  V30 33288 H 5839.43 4.797 -7.24003 0
M  V30 33289 H 5839.16 3.69856 -5.84513 0
M  V30 33290 H 5840.02 6.10356 -5.41441 0
M  V30 33291 P 5843.99 7.20834 -5.23717 0
M  V30 33292 O 5844.21 8.66104 -5.38572 0
M  V30 33293 O 5844.78 6.33544 -6.1349 0
M  V30 33294 O 5844.24 6.7751 -3.72168 0
M  V30 33295 C 5843.3 7.20825 -2.7076 0
M  V30 33296 C 5844.03 7.45864 -1.40599 0
M  V30 33297 O 5844.24 6.17651 -0.734225 0
M  V30 33298 C 5845.43 8.05808 -1.51899 0
M  V30 33299 O 5845.82 8.74358 -0.335205 0
M  V30 33300 C 5846.31 6.83093 -1.70294 0
M  V30 33301 C 5845.6 5.79992 -0.836974 0
M  V30 33302 N 5845.65 4.41864 -1.38293 0
M  V30 33303 H 5842.81 8.13644 -3.0377 0
M  V30 33304 H 5842.54 6.42788 -2.55485 0
M  V30 33305 H 5843.4 8.12039 -0.792769 0
M  V30 33306 P 5847.37 8.91 -2.82421e-10 0
M  V30 33307 O 5847.59 10.1726 0.733694 0
M  V30 33308 O 5848.16 8.73148 -1.23936 0
M  V30 33309 O 5847.62 7.66872 0.971405 0
M  V30 33310 C 5846.68 7.42309 2.04641 0
M  V30 33311 C 5847.41 6.86059 3.24661 0
M  V30 33312 O 5847.62 5.42847 3.03646 0
M  V30 33313 C 5848.81 7.41196 3.50753 0
M  V30 33314 O 5849.2 7.27073 4.86816 0
M  V30 33315 C 5849.69 6.5273 2.63741 0
M  V30 33316 C 5848.98 5.1842 2.73198 0
M  V30 33317 N 5849.03 4.38762 1.4784 0
M  V30 33318 H 5846.19 8.36803 2.32493 0
M  V30 33319 H 5845.92 6.70197 1.71129 0
M  V30 33320 H 5846.78 7.03551 4.13168 0
M  V30 33321 P 5850.75 7.20834 5.23717 0
M  V30 33322 O 5850.97 7.79853 6.57286 0
M  V30 33323 O 5851.54 7.79239 4.12957 0
M  V30 33324 O 5851 5.63315 5.29344 0
M  V30 33325 C 5850.06 4.80255 6.01876 0
M  V30 33326 C 5850.79 3.64202 6.65911 0
M  V30 33327 O 5851 2.60694 5.64732 0
M  V30 33328 C 5852.19 3.93473 7.1943 0
M  V30 33329 O 5852.58 3.02071 8.21205 0
M  V30 33330 C 5853.07 3.73047 5.97036 0
M  V30 33331 C 5852.36 2.58828 5.25741 0
M  V30 33332 N 5852.41 2.68068 3.77503 0
M  V30 33333 H 5849.57 5.40332 6.79951 0
M  V30 33334 H 5849.3 4.41613 5.32378 0
M  V30 33335 H 5850.16 3.26331 7.47797 0
M  V30 33336 P 5854.13 2.75334 8.47391 0
M  V30 33337 O 5854.35 2.44595 9.90239 0
M  V30 33338 O 5854.92 3.87732 7.92204 0
M  V30 33339 O 5854.38 1.4459 7.59357 0
M  V30 33340 C 5853.44 0.347563 7.69115 0
M  V30 33341 C 5854.17 -0.96767 7.52806 0
M  V30 33342 O 5854.38 -1.21036 6.1011 0
M  V30 33343 C 5855.57 -1.04544 8.13308 0
M  V30 33344 O 5855.96 -2.38311 8.41922 0
M  V30 33345 C 5856.45 -0.491279 7.02284 0
M  V30 33346 C 5855.74 -0.996264 5.77469 0
M  V30 33347 N 5855.79 -0.0501808 4.62873 0
M  V30 33348 C 5855.94 -0.588177 3.36904 0
M  V30 33349 O 5856.03 -1.78598 3.17173 0
M  V30 33350 N 5855.98 0.329694 2.33686 0
M  V30 33351 C 5855.89 1.6953 2.45079 0
M  V30 33352 C 5855.74 2.16933 3.80505 0
M  V30 33353 C 5855.69 1.30326 4.83752 0
M  V30 33354 H 5852.95 0.374722 8.67691 0
M  V30 33355 H 5852.68 0.443421 6.90177 0
M  V30 33356 H 5853.54 -1.75537 7.96793 0
M  V30 33357 H 5856.2 -1.94496 5.46629 0
M  V30 33358 H 5856.48 0.608651 7.04676 0
M  V30 33359 H 5857.47 -0.889672 7.08939 0
M  V30 33360 H 5855.64 -0.43308 9.04564 0
M  V30 33361 H 5855.56 1.68366 5.8516 0
M  V30 33362 P 5857.51 -2.75334 8.47391 0
M  V30 33363 O 5857.73 -3.84128 9.44797 0
M  V30 33364 O 5858.3 -1.51947 8.68712 0
M  V30 33365 O 5857.76 -3.29363 6.99321 0
M  V30 33366 C 5856.82 -4.24011 6.4274 0
M  V30 33367 C 5857.55 -5.20775 5.52155 0
M  V30 33368 O 5857.76 -4.56534 4.22446 0
M  V30 33369 C 5858.95 -5.62629 5.96531 0
M  V30 33370 O 5859.34 -6.87667 5.41053 0
M  V30 33371 C 5859.83 -4.52537 5.39283 0
M  V30 33372 C 5859.12 -4.20027 4.08623 0
M  V30 33373 N 5859.17 -2.76189 3.71603 0
M  V30 33374 H 5856.33 -4.797 7.24003 0
M  V30 33375 H 5856.06 -3.69856 5.84513 0
M  V30 33376 H 5856.92 -6.10356 5.41441 0
M  V30 33377 P 5860.89 -7.20834 5.23717 0
M  V30 33378 O 5861.11 -8.66189 5.38625 0
M  V30 33379 O 5861.68 -6.33615 6.1356 0
M  V30 33380 O 5861.14 -6.7751 3.72168 0
M  V30 33381 C 5860.2 -7.20732 2.70725 0
M  V30 33382 C 5860.93 -7.45864 1.40599 0
M  V30 33383 O 5861.14 -6.17651 0.734225 0
M  V30 33384 C 5862.33 -8.05808 1.51899 0
M  V30 33385 O 5862.72 -8.74358 0.335205 0
M  V30 33386 C 5863.21 -6.83093 1.70294 0
M  V30 33387 C 5862.5 -5.79992 0.836974 0
M  V30 33388 N 5862.55 -4.41769 1.38263 0
M  V30 33389 C 5862.7 -3.38591 0.481702 0
M  V30 33390 O 5862.79 -3.56839 -0.718452 0
M  V30 33391 N 5862.74 -2.1206 1.03569 0
M  V30 33392 C 5862.65 -1.80696 2.36966 0
M  V30 33393 O 5862.7 -0.630473 2.74862 0
M  V30 33394 C 5862.5 -2.94845 3.23898 0
M  V30 33395 C 5862.39 -2.65253 4.70362 0
M  V30 33396 C 5862.45 -4.19803 2.73435 0
M  V30 33397 H 5859.71 -8.13644 3.0377 0
M  V30 33398 H 5859.44 -6.42695 2.55448 0
M  V30 33399 H 5860.3 -8.12039 0.792769 0
M  V30 33400 H 5862.96 -5.79978 -0.160587 0
M  V30 33401 H 5863.24 -6.51379 2.75643 0
M  V30 33402 H 5864.23 -7.01734 1.34462 0
M  V30 33403 H 5862.4 -8.73674 2.38337 0
M  V30 33404 H 5862.32 -5.04492 3.4095 0
M  V30 33405 H 5863.35 -2.83924 5.1913 0
M  V30 33406 H 5861.62 -3.29824 5.15163 0
M  V30 33407 H 5862.11 -1.59723 4.84449 0
M  V30 33408 H 5862.84 -1.35644 0.399345 0
M  V30 33409 P 5864.27 -8.91 2.8353e-10 0
M  V30 33410 O 5864.49 -10.1726 -0.733694 0
M  V30 33411 O 5865.06 -8.73148 1.23936 0
M  V30 33412 O 5864.52 -7.66872 -0.971405 0
M  V30 33413 C 5863.58 -7.42309 -2.04641 0
M  V30 33414 C 5864.31 -6.86059 -3.24661 0
M  V30 33415 O 5864.52 -5.42847 -3.03646 0
M  V30 33416 C 5865.71 -7.41196 -3.50753 0
M  V30 33417 O 5866.1 -7.27073 -4.86816 0
M  V30 33418 C 5866.59 -6.5273 -2.63741 0
M  V30 33419 C 5865.88 -5.1842 -2.73198 0
M  V30 33420 N 5865.93 -4.38762 -1.4784 0
M  V30 33421 C 5865.85 -4.81605 -0.168631 0
M  V30 33422 N 5865.93 -3.85454 0.713363 0
M  V30 33423 C 5866.07 -2.6994 -0.0566958 0
M  V30 33424 C 5866.2 -1.34815 0.338502 0
M  V30 33425 O 5866.22 -0.869548 1.47125 0
M  V30 33426 N 5866.32 -0.496304 -0.77465 0
M  V30 33427 C 5866.32 -0.908403 -2.09122 0
M  V30 33428 N 5866.45 0.0517805 -3.00955 0
M  V30 33429 N 5866.19 -2.17875 -2.46519 0
M  V30 33430 C 5866.07 -3.01988 -1.4033 0
M  V30 33431 H 5863.09 -8.36803 -2.32493 0
M  V30 33432 H 5862.82 -6.70197 -1.71129 0
M  V30 33433 H 5863.68 -7.03551 -4.13168 0
M  V30 33434 H 5866.34 -4.59498 -3.54415 0
M  V30 33435 H 5866.62 -6.88898 -1.59848 0
M  V30 33436 H 5867.61 -6.46749 -3.03687 0
M  V30 33437 H 5865.78 -8.46908 -3.20714 0
M  V30 33438 H 5865.73 -5.86405 0.105564 0
M  V30 33439 H 5866.41 0.483664 -0.597855 0
M  V30 33440 H 5866.45 -0.187865 -4.0116 0
M  V30 33441 H 5866.55 1.03585 -2.71726 0
M  V30 33442 P 5867.65 -7.20834 -5.23717 0
M  V30 33443 O 5867.87 -7.79853 -6.57286 0
M  V30 33444 O 5868.44 -7.79239 -4.12957 0
M  V30 33445 O 5867.9 -5.63315 -5.29344 0
M  V30 33446 C 5866.96 -4.80255 -6.01876 0
M  V30 33447 C 5867.69 -3.64202 -6.65911 0
M  V30 33448 O 5867.9 -2.60694 -5.64732 0
M  V30 33449 C 5869.09 -3.93473 -7.1943 0
M  V30 33450 O 5869.48 -3.02071 -8.21205 0
M  V30 33451 C 5869.97 -3.73047 -5.97036 0
M  V30 33452 C 5869.26 -2.58828 -5.25741 0
M  V30 33453 N 5869.31 -2.68068 -3.77503 0
M  V30 33454 H 5866.47 -5.40332 -6.79951 0
M  V30 33455 H 5866.2 -4.41613 -5.32378 0
M  V30 33456 H 5867.06 -3.26331 -7.47797 0
M  V30 33457 P 5871.03 -2.75334 -8.47391 0
M  V30 33458 O 5871.25 -2.44571 -9.90142 0
M  V30 33459 O 5871.82 -3.87688 -7.92115 0
M  V30 33460 O 5871.28 -1.4459 -7.59357 0
M  V30 33461 C 5870.34 -0.347608 -7.69215 0
M  V30 33462 C 5871.07 0.96767 -7.52806 0
M  V30 33463 O 5871.28 1.21036 -6.1011 0
M  V30 33464 C 5872.47 1.04544 -8.13308 0
M  V30 33465 O 5872.86 2.38311 -8.41922 0
M  V30 33466 C 5873.35 0.491279 -7.02284 0
M  V30 33467 C 5872.64 0.996264 -5.77469 0
M  V30 33468 N 5872.69 0.0501916 -4.62973 0
M  V30 33469 H 5869.85 -0.374722 -8.67691 0
M  V30 33470 H 5869.58 -0.443485 -6.90277 0
M  V30 33471 H 5870.44 1.75537 -7.96793 0
M  V30 33472 P 5874.41 2.75334 -8.47391 0
M  V30 33473 O 5874.63 3.84128 -9.44797 0
M  V30 33474 O 5875.2 1.51947 -8.68712 0
M  V30 33475 O 5874.66 3.29363 -6.99321 0
M  V30 33476 C 5873.72 4.24011 -6.4274 0
M  V30 33477 C 5874.45 5.20775 -5.52155 0
M  V30 33478 O 5874.66 4.56534 -4.22446 0
M  V30 33479 C 5875.85 5.62629 -5.96531 0
M  V30 33480 O 5876.24 6.87667 -5.41053 0
M  V30 33481 C 5876.73 4.52537 -5.39283 0
M  V30 33482 C 5876.02 4.20027 -4.08623 0
M  V30 33483 N 5876.07 2.76189 -3.71603 0
M  V30 33484 H 5873.23 4.797 -7.24003 0
M  V30 33485 H 5872.96 3.69856 -5.84513 0
M  V30 33486 H 5873.82 6.10356 -5.41441 0
M  V30 33487 P 5877.79 7.20834 -5.23717 0
M  V30 33488 O 5878.01 8.66189 -5.38625 0
M  V30 33489 O 5878.58 6.33615 -6.1356 0
M  V30 33490 O 5878.04 6.7751 -3.72168 0
M  V30 33491 C 5877.1 7.20732 -2.70725 0
M  V30 33492 C 5877.83 7.45864 -1.40599 0
M  V30 33493 O 5878.04 6.17651 -0.734225 0
M  V30 33494 C 5879.23 8.05808 -1.51899 0
M  V30 33495 O 5879.62 8.74358 -0.335205 0
M  V30 33496 C 5880.11 6.83093 -1.70294 0
M  V30 33497 C 5879.4 5.79992 -0.836974 0
M  V30 33498 N 5879.45 4.41769 -1.38263 0
M  V30 33499 C 5879.6 3.38591 -0.481702 0
M  V30 33500 O 5879.69 3.56839 0.718452 0
M  V30 33501 N 5879.64 2.1206 -1.03569 0
M  V30 33502 C 5879.55 1.80696 -2.36966 0
M  V30 33503 O 5879.6 0.630473 -2.74862 0
M  V30 33504 C 5879.4 2.94845 -3.23898 0
M  V30 33505 C 5879.29 2.65253 -4.70362 0
M  V30 33506 C 5879.35 4.19803 -2.73435 0
M  V30 33507 H 5876.61 8.13644 -3.0377 0
M  V30 33508 H 5876.34 6.42695 -2.55448 0
M  V30 33509 H 5877.2 8.12039 -0.792769 0
M  V30 33510 H 5879.86 5.79978 0.160587 0
M  V30 33511 H 5880.14 6.51379 -2.75643 0
M  V30 33512 H 5881.13 7.01734 -1.34462 0
M  V30 33513 H 5879.3 8.73674 -2.38337 0
M  V30 33514 H 5879.22 5.04492 -3.4095 0
M  V30 33515 H 5880.25 2.83924 -5.1913 0
M  V30 33516 H 5878.52 3.29824 -5.15163 0
M  V30 33517 H 5879.01 1.59723 -4.84449 0
M  V30 33518 H 5879.74 1.35644 -0.399345 0
M  V30 33519 P 5881.17 8.91 -2.84639e-10 0
M  V30 33520 O 5881.39 10.1726 0.733694 0
M  V30 33521 O 5881.96 8.73148 -1.23936 0
M  V30 33522 O 5881.42 7.66872 0.971405 0
M  V30 33523 C 5880.48 7.42309 2.04641 0
M  V30 33524 C 5881.21 6.86059 3.24661 0
M  V30 33525 O 5881.42 5.42847 3.03646 0
M  V30 33526 C 5882.61 7.41196 3.50753 0
M  V30 33527 O 5883 7.27073 4.86816 0
M  V30 33528 C 5883.49 6.5273 2.63741 0
M  V30 33529 C 5882.78 5.1842 2.73198 0
M  V30 33530 N 5882.83 4.38762 1.4784 0
M  V30 33531 H 5879.99 8.36803 2.32493 0
M  V30 33532 H 5879.72 6.70197 1.71129 0
M  V30 33533 H 5880.58 7.03551 4.13168 0
M  V30 33534 P 5884.55 7.20834 5.23717 0
M  V30 33535 O 5884.77 7.79853 6.57286 0
M  V30 33536 O 5885.34 7.79239 4.12957 0
M  V30 33537 O 5884.8 5.63315 5.29344 0
M  V30 33538 C 5883.86 4.80255 6.01876 0
M  V30 33539 C 5884.59 3.64202 6.65911 0
M  V30 33540 O 5884.8 2.60694 5.64732 0
M  V30 33541 C 5885.99 3.93473 7.1943 0
M  V30 33542 O 5886.38 3.02071 8.21205 0
M  V30 33543 C 5886.87 3.73047 5.97036 0
M  V30 33544 C 5886.16 2.58828 5.25741 0
M  V30 33545 N 5886.21 2.68068 3.77503 0
M  V30 33546 H 5883.37 5.40332 6.79951 0
M  V30 33547 H 5883.1 4.41613 5.32378 0
M  V30 33548 H 5883.96 3.26331 7.47797 0
M  V30 33549 P 5887.93 2.75334 8.47391 0
M  V30 33550 O 5888.15 2.44571 9.90142 0
M  V30 33551 O 5888.72 3.87688 7.92115 0
M  V30 33552 O 5888.18 1.4459 7.59357 0
M  V30 33553 C 5887.24 0.347608 7.69215 0
M  V30 33554 C 5887.97 -0.96767 7.52806 0
M  V30 33555 O 5888.18 -1.21036 6.1011 0
M  V30 33556 C 5889.37 -1.04544 8.13308 0
M  V30 33557 O 5889.76 -2.38311 8.41922 0
M  V30 33558 C 5890.25 -0.491279 7.02284 0
M  V30 33559 C 5889.54 -0.996264 5.77469 0
M  V30 33560 N 5889.59 -0.0501916 4.62973 0
M  V30 33561 H 5886.75 0.374722 8.67691 0
M  V30 33562 H 5886.48 0.443485 6.90277 0
M  V30 33563 H 5887.34 -1.75537 7.96793 0
M  V30 33564 P 5891.31 -2.75334 8.47391 0
M  V30 33565 O 5891.53 -3.84128 9.44797 0
M  V30 33566 O 5892.1 -1.51947 8.68712 0
M  V30 33567 O 5891.56 -3.29363 6.99321 0
M  V30 33568 C 5890.62 -4.24011 6.4274 0
M  V30 33569 C 5891.35 -5.20775 5.52155 0
M  V30 33570 O 5891.56 -4.56534 4.22446 0
M  V30 33571 C 5892.75 -5.62629 5.96531 0
M  V30 33572 O 5893.14 -6.87667 5.41053 0
M  V30 33573 C 5893.63 -4.52537 5.39283 0
M  V30 33574 C 5892.92 -4.20027 4.08623 0
M  V30 33575 N 5892.97 -2.76189 3.71603 0
M  V30 33576 H 5890.13 -4.797 7.24003 0
M  V30 33577 H 5889.86 -3.69856 5.84513 0
M  V30 33578 H 5890.72 -6.10356 5.41441 0
M  V30 33579 P 5894.69 -7.20834 5.23717 0
M  V30 33580 O 5894.91 -8.66104 5.38572 0
M  V30 33581 O 5895.48 -6.33544 6.1349 0
M  V30 33582 O 5894.94 -6.7751 3.72168 0
M  V30 33583 C 5894 -7.20825 2.7076 0
M  V30 33584 C 5894.73 -7.45864 1.40599 0
M  V30 33585 O 5894.94 -6.17651 0.734225 0
M  V30 33586 C 5896.13 -8.05808 1.51899 0
M  V30 33587 O 5896.52 -8.74358 0.335205 0
M  V30 33588 C 5897.01 -6.83093 1.70294 0
M  V30 33589 C 5896.3 -5.79992 0.836974 0
M  V30 33590 N 5896.35 -4.41864 1.38293 0
M  V30 33591 H 5893.51 -8.13644 3.0377 0
M  V30 33592 H 5893.24 -6.42788 2.55485 0
M  V30 33593 H 5894.1 -8.12039 0.792769 0
M  V30 33594 P 5898.07 -8.91 2.85748e-10 0
M  V30 33595 O 5898.29 -10.1726 -0.733694 0
M  V30 33596 O 5898.86 -8.73148 1.23936 0
M  V30 33597 O 5898.32 -7.66872 -0.971405 0
M  V30 33598 C 5897.38 -7.42309 -2.04641 0
M  V30 33599 C 5898.11 -6.86059 -3.24661 0
M  V30 33600 O 5898.32 -5.42847 -3.03646 0
M  V30 33601 C 5899.51 -7.41196 -3.50753 0
M  V30 33602 O 5899.9 -7.27073 -4.86816 0
M  V30 33603 C 5900.39 -6.5273 -2.63741 0
M  V30 33604 C 5899.68 -5.1842 -2.73198 0
M  V30 33605 N 5899.73 -4.38762 -1.4784 0
M  V30 33606 H 5896.89 -8.36803 -2.32493 0
M  V30 33607 H 5896.62 -6.70197 -1.71129 0
M  V30 33608 H 5897.48 -7.03551 -4.13168 0
M  V30 33609 P 5901.45 -7.20834 -5.23717 0
M  V30 33610 O 5901.67 -7.79853 -6.57286 0
M  V30 33611 O 5902.24 -7.79239 -4.12957 0
M  V30 33612 O 5901.7 -5.63315 -5.29344 0
M  V30 33613 C 5900.76 -4.80255 -6.01876 0
M  V30 33614 C 5901.49 -3.64202 -6.65911 0
M  V30 33615 O 5901.7 -2.60694 -5.64732 0
M  V30 33616 C 5902.89 -3.93473 -7.1943 0
M  V30 33617 O 5903.28 -3.02071 -8.21205 0
M  V30 33618 C 5903.77 -3.73047 -5.97036 0
M  V30 33619 C 5903.06 -2.58828 -5.25741 0
M  V30 33620 N 5903.11 -2.68068 -3.77503 0
M  V30 33621 H 5900.27 -5.40332 -6.79951 0
M  V30 33622 H 5900 -4.41613 -5.32378 0
M  V30 33623 H 5900.86 -3.26331 -7.47797 0
M  V30 33624 P 5904.83 -2.75334 -8.47391 0
M  V30 33625 O 5905.05 -2.44595 -9.90239 0
M  V30 33626 O 5905.62 -3.87732 -7.92204 0
M  V30 33627 O 5905.08 -1.4459 -7.59357 0
M  V30 33628 C 5904.14 -0.347563 -7.69115 0
M  V30 33629 C 5904.87 0.96767 -7.52806 0
M  V30 33630 O 5905.08 1.21036 -6.1011 0
M  V30 33631 C 5906.27 1.04544 -8.13308 0
M  V30 33632 O 5906.66 2.38311 -8.41922 0
M  V30 33633 C 5907.15 0.491279 -7.02284 0
M  V30 33634 C 5906.44 0.996264 -5.77469 0
M  V30 33635 N 5906.49 0.0501808 -4.62873 0
M  V30 33636 C 5906.64 0.588177 -3.36904 0
M  V30 33637 O 5906.73 1.78598 -3.17173 0
M  V30 33638 N 5906.68 -0.329694 -2.33686 0
M  V30 33639 C 5906.59 -1.6953 -2.45079 0
M  V30 33640 O 5906.64 -2.41926 -1.44899 0
M  V30 33641 C 5906.44 -2.16933 -3.80505 0
M  V30 33642 C 5906.33 -3.65373 -3.97621 0
M  V30 33643 C 5906.39 -1.30326 -4.83752 0
M  V30 33644 H 5903.65 -0.374722 -8.67691 0
M  V30 33645 H 5903.38 -0.443421 -6.90177 0
M  V30 33646 H 5904.24 1.75537 -7.96793 0
M  V30 33647 H 5906.9 1.94496 -5.46629 0
M  V30 33648 H 5907.18 -0.608651 -7.04676 0
M  V30 33649 H 5908.17 0.889672 -7.08939 0
M  V30 33650 H 5906.34 0.43308 -9.04564 0
M  V30 33651 H 5906.26 -1.68366 -5.8516 0
M  V30 33652 H 5907.29 -4.05985 -4.30448 0
M  V30 33653 H 5905.56 -3.88028 -4.72875 0
M  V30 33654 H 5906.05 -4.11381 -3.01609 0
M  V30 33655 H 5906.78 0.0393617 -1.41345 0
M  V30 33656 P 5908.21 2.75334 -8.47391 0
M  V30 33657 O 5908.43 3.84128 -9.44797 0
M  V30 33658 O 5909 1.51947 -8.68712 0
M  V30 33659 O 5908.46 3.29363 -6.99321 0
M  V30 33660 C 5907.52 4.24011 -6.4274 0
M  V30 33661 C 5908.25 5.20775 -5.52155 0
M  V30 33662 O 5908.46 4.56534 -4.22446 0
M  V30 33663 C 5909.65 5.62629 -5.96531 0
M  V30 33664 O 5910.04 6.87667 -5.41053 0
M  V30 33665 C 5910.53 4.52537 -5.39283 0
M  V30 33666 C 5909.82 4.20027 -4.08623 0
M  V30 33667 N 5909.87 2.76189 -3.71603 0
M  V30 33668 H 5907.03 4.797 -7.24003 0
M  V30 33669 H 5906.76 3.69856 -5.84513 0
M  V30 33670 H 5907.62 6.10356 -5.41441 0
M  V30 33671 P 5911.59 7.20834 -5.23717 0
M  V30 33672 O 5911.81 8.66274 -5.38678 0
M  V30 33673 O 5912.38 6.33687 -6.13629 0
M  V30 33674 O 5911.84 6.7751 -3.72168 0
M  V30 33675 C 5910.9 7.20919 -2.70795 0
M  V30 33676 C 5911.63 7.45864 -1.40599 0
M  V30 33677 O 5911.84 6.17751 -0.734343 0
M  V30 33678 C 5913.03 8.05906 -1.51917 0
M  V30 33679 O 5913.42 8.74358 -0.335205 0
M  V30 33680 C 5913.91 6.83093 -1.70294 0
M  V30 33681 C 5913.2 5.79992 -0.836974 0
M  V30 33682 N 5913.25 4.41864 -1.38293 0
M  V30 33683 C 5913.17 4.02089 -2.69407 0
M  V30 33684 N 5913.24 2.73403 -2.85089 0
M  V30 33685 C 5913.39 2.25086 -1.5642 0
M  V30 33686 C 5913.52 0.942887 -1.04836 0
M  V30 33687 N 5913.53 -0.150999 -1.80369 0
M  V30 33688 N 5913.64 0.812565 0.28167 0
M  V30 33689 C 5913.63 1.90572 1.03784 0
M  V30 33690 N 5913.51 3.167 0.683905 0
M  V30 33691 C 5913.39 3.26538 -0.652815 0
M  V30 33692 H 5910.41 8.13738 -3.03804 0
M  V30 33693 H 5910.14 6.42974 -2.55559 0
M  V30 33694 H 5911 8.12139 -0.792866 0
M  V30 33695 H 5913.66 5.80178 0.160643 0
M  V30 33696 H 5913.94 6.51379 -2.75643 0
M  V30 33697 H 5914.93 7.01832 -1.3448 0
M  V30 33698 H 5913.1 8.73771 -2.38364 0
M  V30 33699 H 5913.05 4.7189 -3.52311 0
M  V30 33700 H 5913.44 -0.0721434 -2.82608 0
M  V30 33701 H 5913.62 -1.0785 -1.36544 0
M  V30 33702 H 5913.73 1.73207 2.10241 0
M  V30 33703 P 5914.96 8.91 -2.86857e-10 0
M  V30 33704 O 5915.18 10.1726 0.733694 0
M  V30 33705 O 5915.75 8.73148 -1.23936 0
M  V30 33706 O 5915.21 7.66872 0.971405 0
M  V30 33707 C 5914.27 7.42309 2.04641 0
M  V30 33708 C 5915 6.86059 3.24661 0
M  V30 33709 O 5915.21 5.42847 3.03646 0
M  V30 33710 C 5916.4 7.41196 3.50753 0
M  V30 33711 O 5916.79 7.27073 4.86816 0
M  V30 33712 C 5917.28 6.5273 2.63741 0
M  V30 33713 C 5916.57 5.1842 2.73198 0
M  V30 33714 N 5916.62 4.38762 1.4784 0
M  V30 33715 C 5916.54 4.81605 0.168631 0
M  V30 33716 N 5916.62 3.85454 -0.713363 0
M  V30 33717 C 5916.76 2.6994 0.0566958 0
M  V30 33718 C 5916.89 1.34815 -0.338502 0
M  V30 33719 O 5916.91 0.869548 -1.47125 0
M  V30 33720 N 5917.01 0.496304 0.77465 0
M  V30 33721 C 5917.01 0.908403 2.09122 0
M  V30 33722 N 5917.14 -0.0517805 3.00955 0
M  V30 33723 N 5916.88 2.17875 2.46519 0
M  V30 33724 C 5916.76 3.01988 1.4033 0
M  V30 33725 H 5913.79 8.36803 2.32493 0
M  V30 33726 H 5913.52 6.70197 1.71129 0
M  V30 33727 H 5914.38 7.03551 4.13168 0
M  V30 33728 H 5917.04 4.59498 3.54415 0
M  V30 33729 H 5917.32 6.88898 1.59848 0
M  V30 33730 H 5918.31 6.46749 3.03687 0
M  V30 33731 H 5916.47 8.46908 3.20714 0
M  V30 33732 H 5916.43 5.86405 -0.105564 0
M  V30 33733 H 5917.11 -0.483664 0.597855 0
M  V30 33734 H 5917.14 0.187865 4.0116 0
M  V30 33735 H 5917.25 -1.03585 2.71726 0
M  V30 33736 P 5918.34 7.20834 5.23717 0
M  V30 33737 O 5918.56 7.79853 6.57286 0
M  V30 33738 O 5919.13 7.79239 4.12957 0
M  V30 33739 O 5918.59 5.63315 5.29344 0
M  V30 33740 C 5917.65 4.80255 6.01876 0
M  V30 33741 C 5918.38 3.64202 6.65911 0
M  V30 33742 O 5918.59 2.60694 5.64732 0
M  V30 33743 C 5919.78 3.93473 7.1943 0
M  V30 33744 O 5920.17 3.02071 8.21205 0
M  V30 33745 C 5920.66 3.73047 5.97036 0
M  V30 33746 C 5919.95 2.58828 5.25741 0
M  V30 33747 N 5920 2.68068 3.77503 0
M  V30 33748 H 5917.17 5.40332 6.79951 0
M  V30 33749 H 5916.9 4.41613 5.32378 0
M  V30 33750 H 5917.76 3.26331 7.47797 0
M  V30 33751 P 5921.72 2.75334 8.47391 0
M  V30 33752 O 5921.94 2.44571 9.90142 0
M  V30 33753 O 5922.51 3.87688 7.92115 0
M  V30 33754 O 5921.97 1.4459 7.59357 0
M  V30 33755 C 5921.03 0.347608 7.69215 0
M  V30 33756 C 5921.76 -0.96767 7.52806 0
M  V30 33757 O 5921.97 -1.21036 6.1011 0
M  V30 33758 C 5923.16 -1.04544 8.13308 0
M  V30 33759 O 5923.55 -2.38311 8.41922 0
M  V30 33760 C 5924.04 -0.491279 7.02284 0
M  V30 33761 C 5923.33 -0.996264 5.77469 0
M  V30 33762 N 5923.38 -0.0501916 4.62973 0
M  V30 33763 H 5920.55 0.374722 8.67691 0
M  V30 33764 H 5920.28 0.443485 6.90277 0
M  V30 33765 H 5921.14 -1.75537 7.96793 0
M  V30 33766 P 5925.1 -2.75334 8.47391 0
M  V30 33767 O 5925.32 -3.84128 9.44797 0
M  V30 33768 O 5925.89 -1.51947 8.68712 0
M  V30 33769 O 5925.35 -3.29363 6.99321 0
M  V30 33770 C 5924.41 -4.24011 6.4274 0
M  V30 33771 C 5925.14 -5.20775 5.52155 0
M  V30 33772 O 5925.35 -4.56534 4.22446 0
M  V30 33773 C 5926.54 -5.62629 5.96531 0
M  V30 33774 O 5926.93 -6.87667 5.41053 0
M  V30 33775 C 5927.42 -4.52537 5.39283 0
M  V30 33776 C 5926.71 -4.20027 4.08623 0
M  V30 33777 N 5926.76 -2.76189 3.71603 0
M  V30 33778 H 5923.93 -4.797 7.24003 0
M  V30 33779 H 5923.66 -3.69856 5.84513 0
M  V30 33780 H 5924.52 -6.10356 5.41441 0
M  V30 33781 P 5928.48 -7.20834 5.23717 0
M  V30 33782 O 5928.7 -8.66104 5.38572 0
M  V30 33783 O 5929.27 -6.33544 6.1349 0
M  V30 33784 O 5928.73 -6.7751 3.72168 0
M  V30 33785 C 5927.79 -7.20825 2.7076 0
M  V30 33786 C 5928.52 -7.45864 1.40599 0
M  V30 33787 O 5928.73 -6.17651 0.734225 0
M  V30 33788 C 5929.92 -8.05808 1.51899 0
M  V30 33789 O 5930.31 -8.74358 0.335205 0
M  V30 33790 C 5930.8 -6.83093 1.70294 0
M  V30 33791 C 5930.09 -5.79992 0.836974 0
M  V30 33792 N 5930.14 -4.41864 1.38293 0
M  V30 33793 H 5927.31 -8.13644 3.0377 0
M  V30 33794 H 5927.04 -6.42788 2.55485 0
M  V30 33795 H 5927.9 -8.12039 0.792769 0
M  V30 33796 P 5931.86 -8.91 2.87966e-10 0
M  V30 33797 O 5932.08 -10.1726 -0.733694 0
M  V30 33798 O 5932.65 -8.73148 1.23936 0
M  V30 33799 O 5932.11 -7.66872 -0.971405 0
M  V30 33800 C 5931.17 -7.42309 -2.04641 0
M  V30 33801 C 5931.9 -6.86059 -3.24661 0
M  V30 33802 O 5932.11 -5.42847 -3.03646 0
M  V30 33803 C 5933.3 -7.41196 -3.50753 0
M  V30 33804 O 5933.69 -7.27073 -4.86816 0
M  V30 33805 C 5934.18 -6.5273 -2.63741 0
M  V30 33806 C 5933.47 -5.1842 -2.73198 0
M  V30 33807 N 5933.52 -4.38762 -1.4784 0
M  V30 33808 H 5930.69 -8.36803 -2.32493 0
M  V30 33809 H 5930.42 -6.70197 -1.71129 0
M  V30 33810 H 5931.28 -7.03551 -4.13168 0
M  V30 33811 P 5935.24 -7.20834 -5.23717 0
M  V30 33812 O 5935.46 -7.79853 -6.57286 0
M  V30 33813 O 5936.03 -7.79239 -4.12957 0
M  V30 33814 O 5935.49 -5.63315 -5.29344 0
M  V30 33815 C 5934.55 -4.80255 -6.01876 0
M  V30 33816 C 5935.28 -3.64202 -6.65911 0
M  V30 33817 O 5935.49 -2.60694 -5.64732 0
M  V30 33818 C 5936.68 -3.93473 -7.1943 0
M  V30 33819 O 5937.07 -3.02071 -8.21205 0
M  V30 33820 C 5937.56 -3.73047 -5.97036 0
M  V30 33821 C 5936.85 -2.58828 -5.25741 0
M  V30 33822 N 5936.9 -2.68068 -3.77503 0
M  V30 33823 C 5936.82 -3.79715 -2.96723 0
M  V30 33824 N 5936.9 -3.5377 -1.68852 0
M  V30 33825 C 5937.04 -2.15054 -1.63254 0
M  V30 33826 C 5937.17 -1.28964 -0.518571 0
M  V30 33827 O 5937.19 -1.56826 0.679156 0
M  V30 33828 N 5937.29 0.0538097 -0.918425 0
M  V30 33829 C 5937.29 0.494275 -2.22578 0
M  V30 33830 N 5937.42 1.81086 -2.40434 0
M  V30 33831 N 5937.16 -0.313645 -3.27502 0
M  V30 33832 C 5937.04 -1.61829 -2.91033 0
M  V30 33833 H 5934.07 -5.40332 -6.79951 0
M  V30 33834 H 5933.8 -4.41613 -5.32378 0
M  V30 33835 H 5934.66 -3.26331 -7.47797 0
M  V30 33836 H 5937.32 -1.63422 -5.56814 0
M  V30 33837 H 5937.6 -4.63374 -5.34244 0
M  V30 33838 H 5938.59 -3.44728 -6.25838 0
M  V30 33839 H 5936.75 -4.96652 -7.57263 0
M  V30 33840 H 5936.71 -4.80617 -3.3614 0
M  V30 33841 H 5937.39 0.742702 -0.199384 0
M  V30 33842 H 5937.42 2.20598 -3.35588 0
M  V30 33843 H 5937.53 2.43518 -1.58945 0
M  V30 33844 P 5938.62 -2.75334 -8.47391 0
M  V30 33845 O 5938.84 -2.44571 -9.90142 0
M  V30 33846 O 5939.41 -3.87688 -7.92115 0
M  V30 33847 O 5938.87 -1.4459 -7.59357 0
M  V30 33848 C 5937.93 -0.347608 -7.69215 0
M  V30 33849 C 5938.66 0.96767 -7.52806 0
M  V30 33850 O 5938.87 1.21036 -6.1011 0
M  V30 33851 C 5940.06 1.04544 -8.13308 0
M  V30 33852 O 5940.45 2.38311 -8.41922 0
M  V30 33853 C 5940.94 0.491279 -7.02284 0
M  V30 33854 C 5940.23 0.996264 -5.77469 0
M  V30 33855 N 5940.28 0.0501916 -4.62973 0
M  V30 33856 H 5937.45 -0.374722 -8.67691 0
M  V30 33857 H 5937.18 -0.443485 -6.90277 0
M  V30 33858 H 5938.04 1.75537 -7.96793 0
M  V30 33859 P 5942 2.75334 -8.47391 0
M  V30 33860 O 5942.22 3.84128 -9.44797 0
M  V30 33861 O 5942.79 1.51947 -8.68712 0
M  V30 33862 O 5942.25 3.29363 -6.99321 0
M  V30 33863 C 5941.31 4.24011 -6.4274 0
M  V30 33864 C 5942.04 5.20775 -5.52155 0
M  V30 33865 O 5942.25 4.56534 -4.22446 0
M  V30 33866 C 5943.44 5.62629 -5.96531 0
M  V30 33867 O 5943.83 6.87667 -5.41053 0
M  V30 33868 C 5944.32 4.52537 -5.39283 0
M  V30 33869 C 5943.61 4.20027 -4.08623 0
M  V30 33870 N 5943.66 2.76189 -3.71603 0
M  V30 33871 H 5940.83 4.797 -7.24003 0
M  V30 33872 H 5940.56 3.69856 -5.84513 0
M  V30 33873 H 5941.42 6.10356 -5.41441 0
M  V30 33874 P 5945.38 7.20834 -5.23717 0
M  V30 33875 O 5945.6 8.66104 -5.38572 0
M  V30 33876 O 5946.17 6.33544 -6.1349 0
M  V30 33877 O 5945.63 6.7751 -3.72168 0
M  V30 33878 C 5944.69 7.20825 -2.7076 0
M  V30 33879 C 5945.42 7.45864 -1.40599 0
M  V30 33880 O 5945.63 6.17651 -0.734225 0
M  V30 33881 C 5946.82 8.05808 -1.51899 0
M  V30 33882 O 5947.21 8.74358 -0.335205 0
M  V30 33883 C 5947.7 6.83093 -1.70294 0
M  V30 33884 C 5946.99 5.79992 -0.836974 0
M  V30 33885 N 5947.04 4.41864 -1.38293 0
M  V30 33886 H 5944.21 8.13644 -3.0377 0
M  V30 33887 H 5943.94 6.42788 -2.55485 0
M  V30 33888 H 5944.8 8.12039 -0.792769 0
M  V30 33889 P 5948.76 8.91 -2.89075e-10 0
M  V30 33890 O 5948.98 10.1726 0.733694 0
M  V30 33891 O 5949.55 8.73148 -1.23936 0
M  V30 33892 O 5949.01 7.66872 0.971405 0
M  V30 33893 C 5948.07 7.42309 2.04641 0
M  V30 33894 C 5948.8 6.86059 3.24661 0
M  V30 33895 O 5949.01 5.42847 3.03646 0
M  V30 33896 C 5950.2 7.41196 3.50753 0
M  V30 33897 O 5950.59 7.27073 4.86816 0
M  V30 33898 C 5951.08 6.5273 2.63741 0
M  V30 33899 C 5950.37 5.1842 2.73198 0
M  V30 33900 N 5950.42 4.38762 1.4784 0
M  V30 33901 H 5947.59 8.36803 2.32493 0
M  V30 33902 H 5947.32 6.70197 1.71129 0
M  V30 33903 H 5948.18 7.03551 4.13168 0
M  V30 33904 P 5952.14 7.20834 5.23717 0
M  V30 33905 O 5952.36 7.79853 6.57286 0
M  V30 33906 O 5952.93 7.79239 4.12957 0
M  V30 33907 O 5952.39 5.63315 5.29344 0
M  V30 33908 C 5951.45 4.80255 6.01876 0
M  V30 33909 C 5952.18 3.64202 6.65911 0
M  V30 33910 O 5952.39 2.60694 5.64732 0
M  V30 33911 C 5953.58 3.93473 7.1943 0
M  V30 33912 O 5953.97 3.02071 8.21205 0
M  V30 33913 C 5954.46 3.73047 5.97036 0
M  V30 33914 C 5953.75 2.58828 5.25741 0
M  V30 33915 N 5953.8 2.68068 3.77503 0
M  V30 33916 H 5950.97 5.40332 6.79951 0
M  V30 33917 H 5950.7 4.41613 5.32378 0
M  V30 33918 H 5951.56 3.26331 7.47797 0
M  V30 33919 P 5955.52 2.75334 8.47391 0
M  V30 33920 O 5955.74 2.44571 9.90142 0
M  V30 33921 O 5956.31 3.87688 7.92115 0
M  V30 33922 O 5955.77 1.4459 7.59357 0
M  V30 33923 C 5954.83 0.347608 7.69215 0
M  V30 33924 C 5955.56 -0.96767 7.52806 0
M  V30 33925 O 5955.77 -1.21036 6.1011 0
M  V30 33926 C 5956.96 -1.04544 8.13308 0
M  V30 33927 O 5957.35 -2.38311 8.41922 0
M  V30 33928 C 5957.84 -0.491279 7.02284 0
M  V30 33929 C 5957.13 -0.996264 5.77469 0
M  V30 33930 N 5957.18 -0.0501916 4.62973 0
M  V30 33931 H 5954.35 0.374722 8.67691 0
M  V30 33932 H 5954.08 0.443485 6.90277 0
M  V30 33933 H 5954.94 -1.75537 7.96793 0
M  V30 33934 P 5958.9 -2.75334 8.47391 0
M  V30 33935 O 5959.12 -3.84128 9.44797 0
M  V30 33936 O 5959.69 -1.51947 8.68712 0
M  V30 33937 O 5959.15 -3.29363 6.99321 0
M  V30 33938 C 5958.21 -4.24011 6.4274 0
M  V30 33939 C 5958.94 -5.20775 5.52155 0
M  V30 33940 O 5959.15 -4.56534 4.22446 0
M  V30 33941 C 5960.34 -5.62629 5.96531 0
M  V30 33942 O 5960.73 -6.87667 5.41053 0
M  V30 33943 C 5961.22 -4.52537 5.39283 0
M  V30 33944 C 5960.51 -4.20027 4.08623 0
M  V30 33945 N 5960.56 -2.76189 3.71603 0
M  V30 33946 C 5960.48 -1.64862 4.52822 0
M  V30 33947 N 5960.56 -0.512671 3.88633 0
M  V30 33948 C 5960.7 -0.888083 2.54977 0
M  V30 33949 C 5960.83 -0.094668 1.38677 0
M  V30 33950 O 5960.85 1.13053 1.28163 0
M  V30 33951 N 5960.95 -0.890102 0.232633 0
M  V30 33952 C 5960.95 -2.26958 0.21772 0
M  V30 33953 N 5961.08 -2.84626 -0.97925 0
M  V30 33954 N 5960.82 -3.0178 1.31033 0
M  V30 33955 C 5960.7 -2.26781 2.43843 0
M  V30 33956 H 5957.73 -4.797 7.24003 0
M  V30 33957 H 5957.46 -3.69856 5.84513 0
M  V30 33958 H 5958.32 -6.10356 5.41441 0
M  V30 33959 H 5960.98 -4.79061 3.27488 0
M  V30 33960 H 5961.26 -3.64906 6.05785 0
M  V30 33961 H 5962.25 -4.8868 5.2125 0
M  V30 33962 H 5960.41 -5.66726 7.06352 0
M  V30 33963 H 5960.37 -1.71169 5.60966 0
M  V30 33964 H 5961.05 -0.419134 -0.644739 0
M  V30 33965 H 5961.08 -3.87332 -1.06098 0
M  V30 33966 H 5961.19 -2.26417 -1.82483 0
M  V30 33967 P 5962.28 -7.20834 5.23717 0
M  V30 33968 O 5962.5 -8.66104 5.38572 0
M  V30 33969 O 5963.07 -6.33544 6.1349 0
M  V30 33970 O 5962.53 -6.7751 3.72168 0
M  V30 33971 C 5961.59 -7.20825 2.7076 0
M  V30 33972 C 5962.32 -7.45864 1.40599 0
M  V30 33973 O 5962.53 -6.17651 0.734225 0
M  V30 33974 C 5963.72 -8.05808 1.51899 0
M  V30 33975 O 5964.11 -8.74358 0.335205 0
M  V30 33976 C 5964.6 -6.83093 1.70294 0
M  V30 33977 C 5963.89 -5.79992 0.836974 0
M  V30 33978 N 5963.94 -4.41864 1.38293 0
M  V30 33979 H 5961.11 -8.13644 3.0377 0
M  V30 33980 H 5960.84 -6.42788 2.55485 0
M  V30 33981 H 5961.7 -8.12039 0.792769 0
M  V30 33982 P 5965.66 -8.91 2.90184e-10 0
M  V30 33983 O 5965.88 -10.1726 -0.733694 0
M  V30 33984 O 5966.45 -8.73148 1.23936 0
M  V30 33985 O 5965.91 -7.66872 -0.971405 0
M  V30 33986 C 5964.97 -7.42309 -2.04641 0
M  V30 33987 C 5965.7 -6.86059 -3.24661 0
M  V30 33988 O 5965.91 -5.42847 -3.03646 0
M  V30 33989 C 5967.1 -7.41196 -3.50753 0
M  V30 33990 O 5967.49 -7.27073 -4.86816 0
M  V30 33991 C 5967.98 -6.5273 -2.63741 0
M  V30 33992 C 5967.27 -5.1842 -2.73198 0
M  V30 33993 N 5967.32 -4.38762 -1.4784 0
M  V30 33994 H 5964.49 -8.36803 -2.32493 0
M  V30 33995 H 5964.22 -6.70197 -1.71129 0
M  V30 33996 H 5965.08 -7.03551 -4.13168 0
M  V30 33997 P 5969.04 -7.20834 -5.23717 0
M  V30 33998 O 5969.26 -7.79853 -6.57286 0
M  V30 33999 O 5969.83 -7.79239 -4.12957 0
M  V30 34000 O 5969.29 -5.63315 -5.29344 0
M  V30 34001 C 5968.35 -4.80255 -6.01876 0
M  V30 34002 C 5969.08 -3.64202 -6.65911 0
M  V30 34003 O 5969.29 -2.60694 -5.64732 0
M  V30 34004 C 5970.48 -3.93473 -7.1943 0
M  V30 34005 O 5970.87 -3.02071 -8.21205 0
M  V30 34006 C 5971.36 -3.73047 -5.97036 0
M  V30 34007 C 5970.65 -2.58828 -5.25741 0
M  V30 34008 N 5970.7 -2.68068 -3.77503 0
M  V30 34009 H 5967.87 -5.40332 -6.79951 0
M  V30 34010 H 5967.6 -4.41613 -5.32378 0
M  V30 34011 H 5968.46 -3.26331 -7.47797 0
M  V30 34012 P 5972.42 -2.75334 -8.47391 0
M  V30 34013 O 5972.64 -2.44571 -9.90142 0
M  V30 34014 O 5973.21 -3.87688 -7.92115 0
M  V30 34015 O 5972.67 -1.4459 -7.59357 0
M  V30 34016 C 5971.73 -0.347608 -7.69215 0
M  V30 34017 C 5972.46 0.96767 -7.52806 0
M  V30 34018 O 5972.67 1.21036 -6.1011 0
M  V30 34019 C 5973.86 1.04544 -8.13308 0
M  V30 34020 O 5974.25 2.38311 -8.41922 0
M  V30 34021 C 5974.74 0.491279 -7.02284 0
M  V30 34022 C 5974.03 0.996264 -5.77469 0
M  V30 34023 N 5974.08 0.0501916 -4.62973 0
M  V30 34024 H 5971.25 -0.374722 -8.67691 0
M  V30 34025 H 5970.98 -0.443485 -6.90277 0
M  V30 34026 H 5971.84 1.75537 -7.96793 0
M  V30 34027 P 5975.8 2.75334 -8.47391 0
M  V30 34028 O 5976.02 3.84128 -9.44797 0
M  V30 34029 O 5976.59 1.51947 -8.68712 0
M  V30 34030 O 5976.05 3.29363 -6.99321 0
M  V30 34031 C 5975.11 4.24011 -6.4274 0
M  V30 34032 C 5975.84 5.20775 -5.52155 0
M  V30 34033 O 5976.05 4.56534 -4.22446 0
M  V30 34034 C 5977.24 5.62629 -5.96531 0
M  V30 34035 O 5977.63 6.87667 -5.41053 0
M  V30 34036 C 5978.12 4.52537 -5.39283 0
M  V30 34037 C 5977.41 4.20027 -4.08623 0
M  V30 34038 N 5977.46 2.76189 -3.71603 0
M  V30 34039 H 5974.63 4.797 -7.24003 0
M  V30 34040 H 5974.36 3.69856 -5.84513 0
M  V30 34041 H 5975.22 6.10356 -5.41441 0
M  V30 34042 P 5979.18 7.20834 -5.23717 0
M  V30 34043 O 5979.4 8.66104 -5.38572 0
M  V30 34044 O 5979.97 6.33544 -6.1349 0
M  V30 34045 O 5979.43 6.7751 -3.72168 0
M  V30 34046 C 5978.49 7.20825 -2.7076 0
M  V30 34047 C 5979.22 7.45864 -1.40599 0
M  V30 34048 O 5979.43 6.17651 -0.734225 0
M  V30 34049 C 5980.62 8.05808 -1.51899 0
M  V30 34050 O 5981.01 8.74358 -0.335205 0
M  V30 34051 C 5981.5 6.83093 -1.70294 0
M  V30 34052 C 5980.79 5.79992 -0.836974 0
M  V30 34053 N 5980.84 4.41864 -1.38293 0
M  V30 34054 H 5978.01 8.13644 -3.0377 0
M  V30 34055 H 5977.74 6.42788 -2.55485 0
M  V30 34056 H 5978.6 8.12039 -0.792769 0
M  V30 34057 P 5982.56 8.91 -2.91293e-10 0
M  V30 34058 O 5982.78 10.1746 0.733838 0
M  V30 34059 O 5983.35 8.73346 -1.23964 0
M  V30 34060 O 5982.81 7.66872 0.971405 0
M  V30 34061 C 5981.87 7.42405 2.04668 0
M  V30 34062 C 5982.6 6.86059 3.24661 0
M  V30 34063 O 5982.81 5.42934 3.03695 0
M  V30 34064 C 5984 7.41287 3.50796 0
M  V30 34065 O 5984.39 7.27073 4.86816 0
M  V30 34066 C 5984.88 6.5273 2.63741 0
M  V30 34067 C 5984.17 5.1842 2.73198 0
M  V30 34068 N 5984.22 4.38762 1.4784 0
M  V30 34069 H 5981.39 8.36899 2.3252 0
M  V30 34070 H 5981.11 6.70391 1.71179 0
M  V30 34071 H 5981.98 7.03638 4.13219 0
M  V30 34072 H 5984.64 4.59931 3.54016 0
M  V30 34073 H 5984.92 6.88995 1.59871 0
M  V30 34074 H 5985.91 6.4684 3.0373 0
M  V30 34075 H 5984.07 8.47002 3.20749 0
M  V30 34076 P 5985.94 7.20834 5.23717 0
M  V30 34077 O 5986.16 7.79853 6.57286 0
M  V30 34078 O 5986.73 7.79239 4.12957 0
M  V30 34079 O 5986.19 5.63315 5.29344 0
M  V30 34080 C 5985.25 4.80255 6.01876 0
M  V30 34081 C 5985.98 3.64202 6.65911 0
M  V30 34082 O 5986.19 2.60694 5.64732 0
M  V30 34083 C 5987.38 3.93473 7.1943 0
M  V30 34084 O 5987.77 3.02071 8.21205 0
M  V30 34085 C 5988.26 3.73047 5.97036 0
M  V30 34086 C 5987.55 2.58828 5.25741 0
M  V30 34087 N 5987.6 2.68068 3.77503 0
M  V30 34088 H 5984.77 5.40332 6.79951 0
M  V30 34089 H 5984.5 4.41613 5.32378 0
M  V30 34090 H 5985.36 3.26331 7.47797 0
M  V30 34091 P 5989.32 2.75334 8.47391 0
M  V30 34092 O 5989.54 2.44571 9.90142 0
M  V30 34093 O 5990.11 3.87688 7.92115 0
M  V30 34094 O 5989.57 1.4459 7.59357 0
M  V30 34095 C 5988.63 0.347608 7.69215 0
M  V30 34096 C 5989.36 -0.96767 7.52806 0
M  V30 34097 O 5989.57 -1.21036 6.1011 0
M  V30 34098 C 5990.76 -1.04544 8.13308 0
M  V30 34099 O 5991.15 -2.38311 8.41922 0
M  V30 34100 C 5991.64 -0.491279 7.02284 0
M  V30 34101 C 5990.93 -0.996264 5.77469 0
M  V30 34102 N 5990.98 -0.0501916 4.62973 0
M  V30 34103 H 5988.15 0.374722 8.67691 0
M  V30 34104 H 5987.88 0.443485 6.90277 0
M  V30 34105 H 5988.74 -1.75537 7.96793 0
M  V30 34106 P 5992.7 -2.75334 8.47391 0
M  V30 34107 O 5992.92 -3.84204 9.44982 0
M  V30 34108 O 5993.49 -1.51982 8.68909 0
M  V30 34109 O 5992.95 -3.29363 6.99321 0
M  V30 34110 C 5992.01 -4.24066 6.42823 0
M  V30 34111 C 5992.74 -5.20775 5.52155 0
M  V30 34112 O 5992.95 -4.56607 4.22514 0
M  V30 34113 C 5994.14 -5.62697 5.96604 0
M  V30 34114 O 5994.53 -6.87667 5.41053 0
M  V30 34115 C 5995.02 -4.52537 5.39283 0
M  V30 34116 C 5994.31 -4.20027 4.08623 0
M  V30 34117 N 5994.36 -2.76189 3.71603 0
M  V30 34118 C 5994.28 -1.66944 4.54297 0
M  V30 34119 N 5994.35 -0.536169 3.91344 0
M  V30 34120 C 5994.5 -0.901569 2.58849 0
M  V30 34121 C 5994.63 -0.146599 1.40236 0
M  V30 34122 N 5994.64 1.18234 1.37046 0
M  V30 34123 N 5994.75 -0.822941 0.249738 0
M  V30 34124 C 5994.74 -2.15179 0.280525 0
M  V30 34125 N 5994.62 -2.96414 1.30822 0
M  V30 34126 C 5994.5 -2.25804 2.44748 0
M  V30 34127 H 5991.53 -4.79756 7.24086 0
M  V30 34128 H 5991.25 -3.69963 5.84682 0
M  V30 34129 H 5992.12 -6.10431 5.41508 0
M  V30 34130 H 5994.78 -4.78816 3.28024 0
M  V30 34131 H 5995.06 -3.64957 6.05871 0
M  V30 34132 H 5996.05 -4.88748 5.21323 0
M  V30 34133 H 5994.21 -5.66789 7.0643 0
M  V30 34134 H 5994.17 -1.74684 5.62396 0
M  V30 34135 H 5994.55 1.71949 2.24394 0
M  V30 34136 H 5994.74 1.67511 0.470742 0
M  V30 34137 H 5994.85 -2.63704 -0.6828 0
M  V30 34138 P 5996.08 -7.20834 5.23717 0
M  V30 34139 O 5996.3 -8.66104 5.38572 0
M  V30 34140 O 5996.87 -6.33544 6.1349 0
M  V30 34141 O 5996.33 -6.7751 3.72168 0
M  V30 34142 C 5995.39 -7.20825 2.7076 0
M  V30 34143 C 5996.12 -7.45864 1.40599 0
M  V30 34144 O 5996.33 -6.17651 0.734225 0
M  V30 34145 C 5997.52 -8.05808 1.51899 0
M  V30 34146 O 5997.91 -8.74358 0.335205 0
M  V30 34147 C 5998.4 -6.83093 1.70294 0
M  V30 34148 C 5997.69 -5.79992 0.836974 0
M  V30 34149 N 5997.74 -4.41864 1.38293 0
M  V30 34150 H 5994.91 -8.13644 3.0377 0
M  V30 34151 H 5994.64 -6.42788 2.55485 0
M  V30 34152 H 5995.5 -8.12039 0.792769 0
M  V30 34153 P 5999.46 -8.91 2.92402e-10 0
M  V30 34154 O 5999.68 -10.1726 -0.733694 0
M  V30 34155 O 6000.25 -8.73148 1.23936 0
M  V30 34156 O 5999.71 -7.66872 -0.971405 0
M  V30 34157 C 5998.77 -7.42309 -2.04641 0
M  V30 34158 C 5999.5 -6.86059 -3.24661 0
M  V30 34159 O 5999.71 -5.42847 -3.03646 0
M  V30 34160 C 6000.9 -7.41196 -3.50753 0
M  V30 34161 O 6001.29 -7.27073 -4.86816 0
M  V30 34162 C 6001.78 -6.5273 -2.63741 0
M  V30 34163 C 6001.07 -5.1842 -2.73198 0
M  V30 34164 N 6001.12 -4.38762 -1.4784 0
M  V30 34165 H 5998.29 -8.36803 -2.32493 0
M  V30 34166 H 5998.02 -6.70197 -1.71129 0
M  V30 34167 H 5998.88 -7.03551 -4.13168 0
M  V30 34168 P 6002.84 -7.20834 -5.23717 0
M  V30 34169 O 6003.06 -7.79853 -6.57286 0
M  V30 34170 O 6003.63 -7.79239 -4.12957 0
M  V30 34171 O 6003.09 -5.63315 -5.29344 0
M  V30 34172 C 6002.15 -4.80255 -6.01876 0
M  V30 34173 C 6002.88 -3.64202 -6.65911 0
M  V30 34174 O 6003.09 -2.60694 -5.64732 0
M  V30 34175 C 6004.28 -3.93473 -7.1943 0
M  V30 34176 O 6004.67 -3.02071 -8.21205 0
M  V30 34177 C 6005.16 -3.73047 -5.97036 0
M  V30 34178 C 6004.45 -2.58828 -5.25741 0
M  V30 34179 N 6004.5 -2.68068 -3.77503 0
M  V30 34180 H 6001.67 -5.40332 -6.79951 0
M  V30 34181 H 6001.4 -4.41613 -5.32378 0
M  V30 34182 H 6002.26 -3.26331 -7.47797 0
M  V30 34183 P 6006.22 -2.75334 -8.47391 0
M  V30 34184 O 6006.44 -2.44571 -9.90142 0
M  V30 34185 O 6007.01 -3.87688 -7.92115 0
M  V30 34186 O 6006.47 -1.4459 -7.59357 0
M  V30 34187 C 6005.53 -0.347608 -7.69215 0
M  V30 34188 C 6006.26 0.96767 -7.52806 0
M  V30 34189 O 6006.47 1.21036 -6.1011 0
M  V30 34190 C 6007.66 1.04544 -8.13308 0
M  V30 34191 O 6008.05 2.38311 -8.41922 0
M  V30 34192 C 6008.54 0.491279 -7.02284 0
M  V30 34193 C 6007.83 0.996264 -5.77469 0
M  V30 34194 N 6007.88 0.0501916 -4.62973 0
M  V30 34195 C 6007.8 -1.32786 -4.63244 0
M  V30 34196 N 6007.88 -1.86957 -3.44545 0
M  V30 34197 C 6008.02 -0.780241 -2.58481 0
M  V30 34198 C 6008.15 -0.738536 -1.17757 0
M  V30 34199 O 6008.17 -1.66794 -0.372349 0
M  V30 34200 N 6008.27 0.58337 -0.711393 0
M  V30 34201 C 6008.27 1.70816 -1.51017 0
M  V30 34202 N 6008.4 2.87826 -0.880757 0
M  V30 34203 N 6008.14 1.67126 -2.8339 0
M  V30 34204 C 6008.02 0.401421 -3.30572 0
M  V30 34205 H 6005.05 -0.374722 -8.67691 0
M  V30 34206 H 6004.78 -0.443485 -6.90277 0
M  V30 34207 H 6005.64 1.75537 -7.96793 0
M  V30 34208 H 6008.3 1.95076 -5.46529 0
M  V30 34209 H 6008.58 -0.608565 -7.04577 0
M  V30 34210 H 6009.57 0.889672 -7.08939 0
M  V30 34211 H 6007.73 0.43308 -9.04564 0
M  V30 34212 H 6007.69 -1.91249 -5.54442 0
M  V30 34213 H 6008.37 0.718054 0.275244 0
M  V30 34214 H 6008.4 3.75721 -1.41832 0
M  V30 34215 H 6008.51 2.90436 0.145468 0
M  V30 34216 P 6009.6 2.75334 -8.47391 0
M  V30 34217 O 6009.82 3.84166 -9.4489 0
M  V30 34218 O 6010.39 1.51964 -8.6881 0
M  V30 34219 O 6009.85 3.29363 -6.99321 0
M  V30 34220 C 6008.91 4.24011 -6.4274 0
M  V30 34221 C 6009.64 5.20775 -5.52155 0
M  V30 34222 O 6009.85 4.56534 -4.22446 0
M  V30 34223 C 6011.04 5.62629 -5.96531 0
M  V30 34224 O 6011.43 6.87667 -5.41053 0
M  V30 34225 C 6011.92 4.52537 -5.39283 0
M  V30 34226 C 6011.21 4.20027 -4.08623 0
M  V30 34227 N 6011.26 2.7613 -3.71522 0
M  V30 34228 C 6011.41 2.43702 -2.37085 0
M  V30 34229 O 6011.5 3.3531 -1.54039 0
M  V30 34230 N 6011.46 0.951103 -2.10621 0
M  V30 34231 C 6011.36 0.165021 -2.93537 0
M  V30 34232 N 6011.41 -1.09723 -2.53253 0
M  V30 34233 C 6011.21 0.469576 -4.32458 0
M  V30 34234 C 6011.16 1.78658 -4.65921 0
M  V30 34235 H 6008.42 4.79645 -7.23919 0
M  V30 34236 H 6008.16 3.69802 -5.84429 0
M  V30 34237 H 6009.02 6.10431 -5.41508 0
M  V30 34238 H 6011.68 4.78733 -3.27967 0
M  V30 34239 H 6011.96 3.64957 -6.05871 0
M  V30 34240 H 6012.95 4.8868 -5.2125 0
M  V30 34241 H 6011.11 5.66726 -7.06352 0
M  V30 34242 H 6011.04 2.06987 -5.70299 0
M  V30 34243 H 6011.14 -0.314383 -5.07728 0
M  V30 34244 H 6011.53 -1.31363 -1.5319 0
M  V30 34245 H 6011.34 -1.85978 -3.21943 0
M  V30 34246 P 6012.98 7.20834 -5.23717 0
M  V30 34247 O 6013.2 8.66104 -5.38572 0
M  V30 34248 O 6013.77 6.33544 -6.1349 0
M  V30 34249 O 6013.23 6.7751 -3.72168 0
M  V30 34250 C 6012.29 7.20825 -2.7076 0
M  V30 34251 C 6013.02 7.45864 -1.40599 0
M  V30 34252 O 6013.23 6.17651 -0.734225 0
M  V30 34253 C 6014.42 8.05808 -1.51899 0
M  V30 34254 O 6014.81 8.74358 -0.335205 0
M  V30 34255 C 6015.3 6.83093 -1.70294 0
M  V30 34256 C 6014.59 5.79992 -0.836974 0
M  V30 34257 N 6014.64 4.41864 -1.38293 0
M  V30 34258 C 6014.56 3.99538 -2.69438 0
M  V30 34259 N 6014.64 2.69909 -2.84277 0
M  V30 34260 C 6014.78 2.21719 -1.5408 0
M  V30 34261 C 6014.91 0.891712 -1.06628 0
M  V30 34262 N 6015.03 0.856846 0.334985 0
M  V30 34263 C 6015.03 1.9641 1.15789 0
M  V30 34264 N 6015.16 1.72708 2.46522 0
M  V30 34265 N 6014.9 3.21165 0.713741 0
M  V30 34266 C 6014.78 3.26797 -0.639748 0
M  V30 34267 H 6011.81 8.13644 -3.0377 0
M  V30 34268 H 6011.54 6.42788 -2.55485 0
M  V30 34269 H 6012.4 8.12039 -0.792769 0
M  V30 34270 P 6016.36 8.91 -2.93511e-10 0
M  V30 34271 O 6016.58 10.1726 0.733694 0
M  V30 34272 O 6017.15 8.73148 -1.23936 0
M  V30 34273 O 6016.61 7.66872 0.971405 0
M  V30 34274 C 6015.67 7.42309 2.04641 0
M  V30 34275 C 6016.4 6.86059 3.24661 0
M  V30 34276 O 6016.61 5.42847 3.03646 0
M  V30 34277 C 6017.8 7.41196 3.50753 0
M  V30 34278 O 6018.19 7.27073 4.86816 0
M  V30 34279 C 6018.68 6.5273 2.63741 0
M  V30 34280 C 6017.97 5.1842 2.73198 0
M  V30 34281 N 6018.02 4.38762 1.4784 0
M  V30 34282 H 6015.19 8.36803 2.32493 0
M  V30 34283 H 6014.92 6.70197 1.71129 0
M  V30 34284 H 6015.78 7.03551 4.13168 0
M  V30 34285 P 6019.74 7.20834 5.23717 0
M  V30 34286 O 6019.96 7.7993 6.57351 0
M  V30 34287 O 6020.53 7.79328 4.13004 0
M  V30 34288 O 6019.99 5.63315 5.29344 0
M  V30 34289 C 6019.05 4.80193 6.01798 0
M  V30 34290 C 6019.78 3.64202 6.65911 0
M  V30 34291 O 6019.99 2.60694 5.64732 0
M  V30 34292 C 6021.18 3.93473 7.1943 0
M  V30 34293 O 6021.57 3.02071 8.21205 0
M  V30 34294 C 6022.06 3.73047 5.97036 0
M  V30 34295 C 6021.35 2.58828 5.25741 0
M  V30 34296 N 6021.4 2.6801 3.77422 0
M  V30 34297 C 6021.55 1.50443 3.07133 0
M  V30 34298 O 6021.64 0.419406 3.61576 0
M  V30 34299 N 6021.59 1.6403 1.69677 0
M  V30 34300 C 6021.5 2.81206 0.986255 0
M  V30 34301 O 6021.55 2.80892 -0.249754 0
M  V30 34302 C 6021.35 3.99158 1.80325 0
M  V30 34303 C 6021.24 5.29309 1.06921 0
M  V30 34304 C 6021.3 3.89779 3.1476 0
M  V30 34305 H 6018.56 5.40332 6.79951 0
M  V30 34306 H 6018.3 4.41549 5.32301 0
M  V30 34307 H 6019.16 3.26331 7.47797 0
M  V30 34308 H 6021.82 1.6395 5.56554 0
M  V30 34309 H 6022.1 4.63439 5.3432 0
M  V30 34310 H 6023.09 3.44728 6.25838 0
M  V30 34311 H 6021.25 4.96652 7.57263 0
M  V30 34312 H 6021.18 4.80159 3.74441 0
M  V30 34313 H 6022.21 5.81459 1.09608 0
M  V30 34314 H 6020.48 5.9187 1.54487 0
M  V30 34315 H 6020.96 5.10095 0.0220288 0
M  V30 34316 H 6021.7 0.798962 1.16664 0
M  V30 34317 P 6023.12 2.75334 8.47391 0
M  V30 34318 O 6023.34 2.44595 9.90239 0
M  V30 34319 O 6023.91 3.87732 7.92204 0
M  V30 34320 O 6023.37 1.4459 7.59357 0
M  V30 34321 C 6022.43 0.347563 7.69115 0
M  V30 34322 C 6023.16 -0.96767 7.52806 0
M  V30 34323 O 6023.37 -1.21036 6.1011 0
M  V30 34324 C 6024.56 -1.04544 8.13308 0
M  V30 34325 O 6024.95 -2.38311 8.41922 0
M  V30 34326 C 6025.44 -0.491279 7.02284 0
M  V30 34327 C 6024.73 -0.996264 5.77469 0
M  V30 34328 N 6024.78 -0.0501808 4.62873 0
M  V30 34329 C 6024.93 -0.588177 3.36904 0
M  V30 34330 O 6025.02 -1.78598 3.17173 0
M  V30 34331 N 6024.97 0.329694 2.33686 0
M  V30 34332 C 6024.88 1.6953 2.45079 0
M  V30 34333 C 6024.73 2.16933 3.80505 0
M  V30 34334 C 6024.68 1.30326 4.83752 0
M  V30 34335 H 6021.94 0.374722 8.67691 0
M  V30 34336 H 6021.68 0.443421 6.90177 0
M  V30 34337 H 6022.54 -1.75537 7.96793 0
M  V30 34338 H 6025.2 -1.94496 5.46629 0
M  V30 34339 H 6025.48 0.608651 7.04676 0
M  V30 34340 H 6026.47 -0.889672 7.08939 0
M  V30 34341 H 6024.63 -0.43308 9.04564 0
M  V30 34342 H 6024.56 1.68366 5.8516 0
M  V30 34343 P 6026.5 -2.75334 8.47391 0
M  V30 34344 O 6026.72 -3.84166 9.4489 0
M  V30 34345 O 6027.29 -1.51964 8.6881 0
M  V30 34346 O 6026.75 -3.29363 6.99321 0
M  V30 34347 C 6025.81 -4.23956 6.42656 0
M  V30 34348 C 6026.54 -5.20775 5.52155 0
M  V30 34349 O 6026.75 -4.56534 4.22446 0
M  V30 34350 C 6027.94 -5.62629 5.96531 0
M  V30 34351 O 6028.33 -6.87667 5.41053 0
M  V30 34352 C 6028.82 -4.52537 5.39283 0
M  V30 34353 C 6028.11 -4.20027 4.08623 0
M  V30 34354 N 6028.16 -2.7613 3.71522 0
M  V30 34355 C 6028.31 -2.45612 2.37989 0
M  V30 34356 O 6028.4 -3.30919 1.51621 0
M  V30 34357 N 6028.35 -1.10684 2.08435 0
M  V30 34358 C 6028.26 -0.0690084 2.9792 0
M  V30 34359 C 6028.11 -0.481522 4.35345 0
M  V30 34360 C 6028.06 -1.78906 4.67968 0
M  V30 34361 H 6025.32 -4.797 7.24003 0
M  V30 34362 H 6025.06 -3.69802 5.84429 0
M  V30 34363 H 6025.92 -6.10356 5.41441 0
M  V30 34364 H 6028.58 -4.78651 3.27911 0
M  V30 34365 H 6028.86 -3.64957 6.05871 0
M  V30 34366 H 6029.85 -4.8868 5.2125 0
M  V30 34367 H 6028.01 -5.66726 7.06352 0
M  V30 34368 H 6027.94 -2.07737 5.72367 0
M  V30 34369 P 6029.88 -7.20834 5.23717 0
M  V30 34370 O 6030.1 -8.66104 5.38572 0
M  V30 34371 O 6030.67 -6.33544 6.1349 0
M  V30 34372 O 6030.13 -6.7751 3.72168 0
M  V30 34373 C 6029.19 -7.20825 2.7076 0
M  V30 34374 C 6029.92 -7.45864 1.40599 0
M  V30 34375 O 6030.13 -6.17651 0.734225 0
M  V30 34376 C 6031.32 -8.05808 1.51899 0
M  V30 34377 O 6031.71 -8.74358 0.335205 0
M  V30 34378 C 6032.2 -6.83093 1.70294 0
M  V30 34379 C 6031.49 -5.79992 0.836974 0
M  V30 34380 N 6031.54 -4.41864 1.38293 0
M  V30 34381 H 6028.71 -8.13644 3.0377 0
M  V30 34382 H 6028.44 -6.42788 2.55485 0
M  V30 34383 H 6029.3 -8.12039 0.792769 0
M  V30 34384 P 6033.26 -8.91 2.9462e-10 0
M  V30 34385 O 6033.48 -10.1726 -0.733694 0
M  V30 34386 O 6034.05 -8.73148 1.23936 0
M  V30 34387 O 6033.51 -7.66872 -0.971405 0
M  V30 34388 C 6032.57 -7.42309 -2.04641 0
M  V30 34389 C 6033.3 -6.86059 -3.24661 0
M  V30 34390 O 6033.51 -5.42847 -3.03646 0
M  V30 34391 C 6034.7 -7.41196 -3.50753 0
M  V30 34392 O 6035.09 -7.27073 -4.86816 0
M  V30 34393 C 6035.58 -6.5273 -2.63741 0
M  V30 34394 C 6034.87 -5.1842 -2.73198 0
M  V30 34395 N 6034.92 -4.38762 -1.4784 0
M  V30 34396 H 6032.09 -8.36803 -2.32493 0
M  V30 34397 H 6031.82 -6.70197 -1.71129 0
M  V30 34398 H 6032.68 -7.03551 -4.13168 0
M  V30 34399 P 6036.64 -7.20834 -5.23717 0
M  V30 34400 O 6036.86 -7.79853 -6.57286 0
M  V30 34401 O 6037.43 -7.79239 -4.12957 0
M  V30 34402 O 6036.89 -5.63315 -5.29344 0
M  V30 34403 C 6035.95 -4.80255 -6.01876 0
M  V30 34404 C 6036.68 -3.64202 -6.65911 0
M  V30 34405 O 6036.89 -2.60694 -5.64732 0
M  V30 34406 C 6038.08 -3.93473 -7.1943 0
M  V30 34407 O 6038.47 -3.02071 -8.21205 0
M  V30 34408 C 6038.96 -3.73047 -5.97036 0
M  V30 34409 C 6038.25 -2.58828 -5.25741 0
M  V30 34410 N 6038.3 -2.68068 -3.77503 0
M  V30 34411 H 6035.47 -5.40332 -6.79951 0
M  V30 34412 H 6035.2 -4.41613 -5.32378 0
M  V30 34413 H 6036.06 -3.26331 -7.47797 0
M  V30 34414 P 6040.02 -2.75334 -8.47391 0
M  V30 34415 O 6040.24 -2.44571 -9.90142 0
M  V30 34416 O 6040.81 -3.87688 -7.92115 0
M  V30 34417 O 6040.27 -1.4459 -7.59357 0
M  V30 34418 C 6039.33 -0.347608 -7.69215 0
M  V30 34419 C 6040.06 0.96767 -7.52806 0
M  V30 34420 O 6040.27 1.21036 -6.1011 0
M  V30 34421 C 6041.46 1.04544 -8.13308 0
M  V30 34422 O 6041.85 2.38311 -8.41922 0
M  V30 34423 C 6042.34 0.491279 -7.02284 0
M  V30 34424 C 6041.63 0.996264 -5.77469 0
M  V30 34425 N 6041.68 0.0501916 -4.62973 0
M  V30 34426 H 6038.85 -0.374722 -8.67691 0
M  V30 34427 H 6038.58 -0.443485 -6.90277 0
M  V30 34428 H 6039.44 1.75537 -7.96793 0
M  V30 34429 P 6043.4 2.75334 -8.47391 0
M  V30 34430 O 6043.62 3.84128 -9.44797 0
M  V30 34431 O 6044.19 1.51947 -8.68712 0
M  V30 34432 O 6043.65 3.29363 -6.99321 0
M  V30 34433 C 6042.71 4.24011 -6.4274 0
M  V30 34434 C 6043.44 5.20775 -5.52155 0
M  V30 34435 O 6043.65 4.56534 -4.22446 0
M  V30 34436 C 6044.84 5.62629 -5.96531 0
M  V30 34437 O 6045.23 6.87667 -5.41053 0
M  V30 34438 C 6045.72 4.52537 -5.39283 0
M  V30 34439 C 6045.01 4.20027 -4.08623 0
M  V30 34440 N 6045.06 2.76189 -3.71603 0
M  V30 34441 C 6044.98 1.64862 -4.52822 0
M  V30 34442 N 6045.06 0.512671 -3.88633 0
M  V30 34443 C 6045.2 0.888083 -2.54977 0
M  V30 34444 C 6045.33 0.094668 -1.38677 0
M  V30 34445 N 6045.45 0.890102 -0.232633 0
M  V30 34446 C 6045.45 2.26958 -0.21772 0
M  V30 34447 N 6045.58 2.84626 0.97925 0
M  V30 34448 N 6045.32 3.0178 -1.31033 0
M  V30 34449 C 6045.2 2.26781 -2.43843 0
M  V30 34450 H 6042.23 4.797 -7.24003 0
M  V30 34451 H 6041.96 3.69856 -5.84513 0
M  V30 34452 H 6042.82 6.10356 -5.41441 0
M  V30 34453 P 6046.78 7.20834 -5.23717 0
M  V30 34454 O 6047 8.66104 -5.38572 0
M  V30 34455 O 6047.57 6.33544 -6.1349 0
M  V30 34456 O 6047.03 6.7751 -3.72168 0
M  V30 34457 C 6046.09 7.20825 -2.7076 0
M  V30 34458 C 6046.82 7.45864 -1.40599 0
M  V30 34459 O 6047.03 6.17651 -0.734225 0
M  V30 34460 C 6048.22 8.05808 -1.51899 0
M  V30 34461 O 6048.61 8.74358 -0.335205 0
M  V30 34462 C 6049.1 6.83093 -1.70294 0
M  V30 34463 C 6048.39 5.79992 -0.836974 0
M  V30 34464 N 6048.44 4.41864 -1.38293 0
M  V30 34465 H 6045.61 8.13644 -3.0377 0
M  V30 34466 H 6045.34 6.42788 -2.55485 0
M  V30 34467 H 6046.2 8.12039 -0.792769 0
M  V30 34468 P 6050.16 8.91 -2.95729e-10 0
M  V30 34469 O 6050.38 10.1726 0.733694 0
M  V30 34470 O 6050.95 8.73148 -1.23936 0
M  V30 34471 O 6050.41 7.66872 0.971405 0
M  V30 34472 C 6049.47 7.42309 2.04641 0
M  V30 34473 C 6050.2 6.86059 3.24661 0
M  V30 34474 O 6050.41 5.42847 3.03646 0
M  V30 34475 C 6051.6 7.41196 3.50753 0
M  V30 34476 O 6051.99 7.27073 4.86816 0
M  V30 34477 C 6052.48 6.5273 2.63741 0
M  V30 34478 C 6051.77 5.1842 2.73198 0
M  V30 34479 N 6051.82 4.38762 1.4784 0
M  V30 34480 H 6048.99 8.36803 2.32493 0
M  V30 34481 H 6048.72 6.70197 1.71129 0
M  V30 34482 H 6049.58 7.03551 4.13168 0
M  V30 34483 P 6053.54 7.20834 5.23717 0
M  V30 34484 O 6053.76 7.7993 6.57351 0
M  V30 34485 O 6054.33 7.79328 4.13004 0
M  V30 34486 O 6053.79 5.63315 5.29344 0
M  V30 34487 C 6052.85 4.80193 6.01798 0
M  V30 34488 C 6053.58 3.64202 6.65911 0
M  V30 34489 O 6053.79 2.60694 5.64732 0
M  V30 34490 C 6054.98 3.93473 7.1943 0
M  V30 34491 O 6055.37 3.02071 8.21205 0
M  V30 34492 C 6055.86 3.73047 5.97036 0
M  V30 34493 C 6055.15 2.58828 5.25741 0
M  V30 34494 N 6055.2 2.6801 3.77422 0
M  V30 34495 C 6055.35 1.50443 3.07133 0
M  V30 34496 O 6055.44 0.419406 3.61576 0
M  V30 34497 N 6055.39 1.6403 1.69677 0
M  V30 34498 C 6055.3 2.81206 0.986255 0
M  V30 34499 O 6055.35 2.80892 -0.249754 0
M  V30 34500 C 6055.15 3.99158 1.80325 0
M  V30 34501 C 6055.04 5.29309 1.06921 0
M  V30 34502 C 6055.1 3.89779 3.1476 0
M  V30 34503 H 6052.36 5.40332 6.79951 0
M  V30 34504 H 6052.1 4.41549 5.32301 0
M  V30 34505 H 6052.96 3.26331 7.47797 0
M  V30 34506 H 6055.62 1.6395 5.56554 0
M  V30 34507 H 6055.9 4.63439 5.3432 0
M  V30 34508 H 6056.89 3.44728 6.25838 0
M  V30 34509 H 6055.05 4.96652 7.57263 0
M  V30 34510 H 6054.98 4.80159 3.74441 0
M  V30 34511 H 6056.01 5.81459 1.09608 0
M  V30 34512 H 6054.28 5.9187 1.54487 0
M  V30 34513 H 6054.76 5.10095 0.0220288 0
M  V30 34514 H 6055.5 0.798962 1.16664 0
M  V30 34515 P 6056.92 2.75334 8.47391 0
M  V30 34516 O 6057.14 2.44571 9.90142 0
M  V30 34517 O 6057.71 3.87688 7.92115 0
M  V30 34518 O 6057.17 1.4459 7.59357 0
M  V30 34519 C 6056.23 0.347608 7.69215 0
M  V30 34520 C 6056.96 -0.96767 7.52806 0
M  V30 34521 O 6057.17 -1.21036 6.1011 0
M  V30 34522 C 6058.36 -1.04544 8.13308 0
M  V30 34523 O 6058.75 -2.38311 8.41922 0
M  V30 34524 C 6059.24 -0.491279 7.02284 0
M  V30 34525 C 6058.53 -0.996264 5.77469 0
M  V30 34526 N 6058.58 -0.0501916 4.62973 0
M  V30 34527 H 6055.75 0.374722 8.67691 0
M  V30 34528 H 6055.48 0.443485 6.90277 0
M  V30 34529 H 6056.34 -1.75537 7.96793 0
M  V30 34530 P 6060.3 -2.75334 8.47391 0
M  V30 34531 O 6060.52 -3.84128 9.44797 0
M  V30 34532 O 6061.09 -1.51947 8.68712 0
M  V30 34533 O 6060.55 -3.29363 6.99321 0
M  V30 34534 C 6059.61 -4.24011 6.4274 0
M  V30 34535 C 6060.34 -5.20775 5.52155 0
M  V30 34536 O 6060.55 -4.56534 4.22446 0
M  V30 34537 C 6061.74 -5.62629 5.96531 0
M  V30 34538 O 6062.13 -6.87667 5.41053 0
M  V30 34539 C 6062.62 -4.52537 5.39283 0
M  V30 34540 C 6061.91 -4.20027 4.08623 0
M  V30 34541 N 6061.96 -2.76189 3.71603 0
M  V30 34542 H 6059.13 -4.797 7.24003 0
M  V30 34543 H 6058.86 -3.69856 5.84513 0
M  V30 34544 H 6059.72 -6.10356 5.41441 0
M  V30 34545 P 6063.68 -7.20834 5.23717 0
M  V30 34546 O 6063.9 -8.66104 5.38572 0
M  V30 34547 O 6064.47 -6.33544 6.1349 0
M  V30 34548 O 6063.93 -6.7751 3.72168 0
M  V30 34549 C 6062.99 -7.20825 2.7076 0
M  V30 34550 C 6063.72 -7.45864 1.40599 0
M  V30 34551 O 6063.93 -6.17651 0.734225 0
M  V30 34552 C 6065.12 -8.05808 1.51899 0
M  V30 34553 O 6065.51 -8.74358 0.335205 0
M  V30 34554 C 6066 -6.83093 1.70294 0
M  V30 34555 C 6065.29 -5.79992 0.836974 0
M  V30 34556 N 6065.34 -4.41864 1.38293 0
M  V30 34557 H 6062.51 -8.13644 3.0377 0
M  V30 34558 H 6062.24 -6.42788 2.55485 0
M  V30 34559 H 6063.1 -8.12039 0.792769 0
M  V30 34560 P 6067.06 -8.91 2.96838e-10 0
M  V30 34561 O 6067.28 -10.1726 -0.733694 0
M  V30 34562 O 6067.85 -8.73148 1.23936 0
M  V30 34563 O 6067.31 -7.66872 -0.971405 0
M  V30 34564 C 6066.37 -7.42309 -2.04641 0
M  V30 34565 C 6067.1 -6.86059 -3.24661 0
M  V30 34566 O 6067.31 -5.42847 -3.03646 0
M  V30 34567 C 6068.5 -7.41196 -3.50753 0
M  V30 34568 O 6068.89 -7.27073 -4.86816 0
M  V30 34569 C 6069.38 -6.5273 -2.63741 0
M  V30 34570 C 6068.67 -5.1842 -2.73198 0
M  V30 34571 N 6068.72 -4.38762 -1.4784 0
M  V30 34572 H 6065.89 -8.36803 -2.32493 0
M  V30 34573 H 6065.62 -6.70197 -1.71129 0
M  V30 34574 H 6066.48 -7.03551 -4.13168 0
M  V30 34575 P 6070.44 -7.20834 -5.23717 0
M  V30 34576 O 6070.66 -7.79853 -6.57286 0
M  V30 34577 O 6071.23 -7.79239 -4.12957 0
M  V30 34578 O 6070.69 -5.63315 -5.29344 0
M  V30 34579 C 6069.75 -4.80255 -6.01876 0
M  V30 34580 C 6070.48 -3.64202 -6.65911 0
M  V30 34581 O 6070.69 -2.60694 -5.64732 0
M  V30 34582 C 6071.88 -3.93473 -7.1943 0
M  V30 34583 O 6072.27 -3.02071 -8.21205 0
M  V30 34584 C 6072.76 -3.73047 -5.97036 0
M  V30 34585 C 6072.05 -2.58828 -5.25741 0
M  V30 34586 N 6072.1 -2.68068 -3.77503 0
M  V30 34587 H 6069.27 -5.40332 -6.79951 0
M  V30 34588 H 6069 -4.41613 -5.32378 0
M  V30 34589 H 6069.86 -3.26331 -7.47797 0
M  V30 34590 P 6073.82 -2.75334 -8.47391 0
M  V30 34591 O 6074.04 -2.44571 -9.90142 0
M  V30 34592 O 6074.61 -3.87688 -7.92115 0
M  V30 34593 O 6074.07 -1.4459 -7.59357 0
M  V30 34594 C 6073.13 -0.347608 -7.69215 0
M  V30 34595 C 6073.86 0.96767 -7.52806 0
M  V30 34596 O 6074.07 1.21036 -6.1011 0
M  V30 34597 C 6075.26 1.04544 -8.13308 0
M  V30 34598 O 6075.65 2.38311 -8.41922 0
M  V30 34599 C 6076.14 0.491279 -7.02284 0
M  V30 34600 C 6075.43 0.996264 -5.77469 0
M  V30 34601 N 6075.48 0.0501916 -4.62973 0
M  V30 34602 H 6072.65 -0.374722 -8.67691 0
M  V30 34603 H 6072.38 -0.443485 -6.90277 0
M  V30 34604 H 6073.24 1.75537 -7.96793 0
M  V30 34605 P 6077.2 2.75334 -8.47391 0
M  V30 34606 O 6077.42 3.84128 -9.44797 0
M  V30 34607 O 6077.99 1.51947 -8.68712 0
M  V30 34608 O 6077.45 3.29363 -6.99321 0
M  V30 34609 C 6076.51 4.24011 -6.4274 0
M  V30 34610 C 6077.24 5.20775 -5.52155 0
M  V30 34611 O 6077.45 4.56534 -4.22446 0
M  V30 34612 C 6078.64 5.62629 -5.96531 0
M  V30 34613 O 6079.03 6.87667 -5.41053 0
M  V30 34614 C 6079.52 4.52537 -5.39283 0
M  V30 34615 C 6078.81 4.20027 -4.08623 0
M  V30 34616 N 6078.86 2.76189 -3.71603 0
M  V30 34617 H 6076.03 4.797 -7.24003 0
M  V30 34618 H 6075.76 3.69856 -5.84513 0
M  V30 34619 H 6076.62 6.10356 -5.41441 0
M  V30 34620 P 6080.58 7.20834 -5.23717 0
M  V30 34621 O 6080.8 8.66104 -5.38572 0
M  V30 34622 O 6081.37 6.33544 -6.1349 0
M  V30 34623 O 6080.83 6.7751 -3.72168 0
M  V30 34624 C 6079.89 7.20825 -2.7076 0
M  V30 34625 C 6080.62 7.45864 -1.40599 0
M  V30 34626 O 6080.83 6.17651 -0.734225 0
M  V30 34627 C 6082.02 8.05808 -1.51899 0
M  V30 34628 O 6082.41 8.74358 -0.335205 0
M  V30 34629 C 6082.9 6.83093 -1.70294 0
M  V30 34630 C 6082.19 5.79992 -0.836974 0
M  V30 34631 N 6082.24 4.41864 -1.38293 0
M  V30 34632 H 6079.41 8.13644 -3.0377 0
M  V30 34633 H 6079.14 6.42788 -2.55485 0
M  V30 34634 H 6080 8.12039 -0.792769 0
M  V30 34635 P 6083.96 8.91 -2.97947e-10 0
M  V30 34636 O 6084.18 10.1726 0.733694 0
M  V30 34637 O 6084.75 8.73148 -1.23936 0
M  V30 34638 O 6084.21 7.66872 0.971405 0
M  V30 34639 C 6083.27 7.42309 2.04641 0
M  V30 34640 C 6084 6.86059 3.24661 0
M  V30 34641 O 6084.21 5.42847 3.03646 0
M  V30 34642 C 6085.4 7.41196 3.50753 0
M  V30 34643 O 6085.79 7.27073 4.86816 0
M  V30 34644 C 6086.28 6.5273 2.63741 0
M  V30 34645 C 6085.57 5.1842 2.73198 0
M  V30 34646 N 6085.62 4.38762 1.4784 0
M  V30 34647 H 6082.78 8.36803 2.32493 0
M  V30 34648 H 6082.51 6.70197 1.71129 0
M  V30 34649 H 6083.38 7.03551 4.13168 0
M  V30 34650 P 6087.34 7.20834 5.23717 0
M  V30 34651 O 6087.56 7.79853 6.57286 0
M  V30 34652 O 6088.13 7.79239 4.12957 0
M  V30 34653 O 6087.59 5.63315 5.29344 0
M  V30 34654 C 6086.65 4.80255 6.01876 0
M  V30 34655 C 6087.38 3.64202 6.65911 0
M  V30 34656 O 6087.59 2.60694 5.64732 0
M  V30 34657 C 6088.78 3.93473 7.1943 0
M  V30 34658 O 6089.17 3.02071 8.21205 0
M  V30 34659 C 6089.66 3.73047 5.97036 0
M  V30 34660 C 6088.95 2.58828 5.25741 0
M  V30 34661 N 6089 2.68068 3.77503 0
M  V30 34662 C 6088.92 3.79715 2.96723 0
M  V30 34663 N 6089 3.5377 1.68852 0
M  V30 34664 C 6089.14 2.15054 1.63254 0
M  V30 34665 C 6089.27 1.28964 0.518571 0
M  V30 34666 N 6089.39 -0.0538097 0.918425 0
M  V30 34667 C 6089.39 -0.494275 2.22578 0
M  V30 34668 N 6089.52 -1.81086 2.40434 0
M  V30 34669 N 6089.26 0.313645 3.27502 0
M  V30 34670 C 6089.14 1.61829 2.91033 0
M  V30 34671 H 6086.16 5.40332 6.79951 0
M  V30 34672 H 6085.89 4.41613 5.32378 0
M  V30 34673 H 6086.76 3.26331 7.47797 0
M  V30 34674 P 6090.72 2.75334 8.47391 0
M  V30 34675 O 6090.94 2.44619 9.90336 0
M  V30 34676 O 6091.51 3.87776 7.92294 0
M  V30 34677 O 6090.97 1.4459 7.59357 0
M  V30 34678 C 6090.03 0.347653 7.69315 0
M  V30 34679 C 6090.76 -0.96767 7.52806 0
M  V30 34680 O 6090.97 -1.21055 6.10208 0
M  V30 34681 C 6092.16 -1.04557 8.13408 0
M  V30 34682 O 6092.55 -2.38311 8.41922 0
M  V30 34683 C 6093.04 -0.491279 7.02284 0
M  V30 34684 C 6092.33 -0.996264 5.77469 0
M  V30 34685 N 6092.38 -0.0501916 4.62973 0
M  V30 34686 H 6089.55 0.374765 8.67791 0
M  V30 34687 H 6089.27 0.443613 6.90476 0
M  V30 34688 H 6090.14 -1.75559 7.96891 0
M  V30 34689 H 6092.8 -1.94563 5.46818 0
M  V30 34690 H 6093.08 0.608651 7.04676 0
M  V30 34691 H 6094.07 -0.889796 7.09039 0
M  V30 34692 H 6092.23 -0.433128 9.04664 0
M  V30 34693 P 6094.1 -2.75334 8.47391 0
M  V30 34694 O 6094.32 -3.84128 9.44797 0
M  V30 34695 O 6094.89 -1.51947 8.68712 0
M  V30 34696 O 6094.35 -3.29363 6.99321 0
M  V30 34697 C 6093.41 -4.24011 6.4274 0
M  V30 34698 C 6094.14 -5.20775 5.52155 0
M  V30 34699 O 6094.35 -4.56534 4.22446 0
M  V30 34700 C 6095.54 -5.62629 5.96531 0
M  V30 34701 O 6095.93 -6.87667 5.41053 0
M  V30 34702 C 6096.42 -4.52537 5.39283 0
M  V30 34703 C 6095.71 -4.20027 4.08623 0
M  V30 34704 N 6095.76 -2.76189 3.71603 0
M  V30 34705 H 6092.92 -4.797 7.24003 0
M  V30 34706 H 6092.65 -3.69856 5.84513 0
M  V30 34707 H 6093.52 -6.10356 5.41441 0
M  V30 34708 P 6097.48 -7.20834 5.23717 0
M  V30 34709 O 6097.7 -8.66274 5.38678 0
M  V30 34710 O 6098.27 -6.33687 6.13629 0
M  V30 34711 O 6097.73 -6.7751 3.72168 0
M  V30 34712 C 6096.79 -7.20919 2.70795 0
M  V30 34713 C 6097.52 -7.45864 1.40599 0
M  V30 34714 O 6097.73 -6.17751 0.734343 0
M  V30 34715 C 6098.92 -8.05906 1.51917 0
M  V30 34716 O 6099.31 -8.74358 0.335205 0
M  V30 34717 C 6099.8 -6.83093 1.70294 0
M  V30 34718 C 6099.09 -5.79992 0.836974 0
M  V30 34719 N 6099.14 -4.41864 1.38293 0
M  V30 34720 H 6096.31 -8.13738 3.03804 0
M  V30 34721 H 6096.03 -6.42974 2.55559 0
M  V30 34722 H 6096.9 -8.12139 0.792866 0
M  V30 34723 H 6099.56 -5.80178 -0.160643 0
M  V30 34724 H 6099.84 -6.51379 2.75643 0
M  V30 34725 H 6100.83 -7.01832 1.3448 0
M  V30 34726 H 6098.99 -8.73771 2.38364 0
M  V30 34727 P 6100.86 -8.91 2.99056e-10 0
M  V30 34728 O 6101.08 -10.1736 -0.733766 0
M  V30 34729 O 6101.65 -8.73247 1.2395 0
M  V30 34730 O 6101.11 -7.66872 -0.971405 0
M  V30 34731 C 6100.17 -7.42212 -2.04614 0
M  V30 34732 C 6100.9 -6.86059 -3.24661 0
M  V30 34733 O 6101.11 -5.42847 -3.03646 0
M  V30 34734 C 6102.3 -7.41196 -3.50753 0
M  V30 34735 O 6102.69 -7.27073 -4.86816 0
M  V30 34736 C 6103.18 -6.5273 -2.63741 0
M  V30 34737 C 6102.47 -5.1842 -2.73198 0
M  V30 34738 N 6102.52 -4.38668 -1.47808 0
M  V30 34739 C 6102.67 -3.02239 -1.60048 0
M  V30 34740 O 6102.76 -2.46459 -2.67869 0
M  V30 34741 N 6102.71 -2.32436 -0.408571 0
M  V30 34742 C 6102.62 -2.85471 0.854993 0
M  V30 34743 O 6102.67 -2.12566 1.8531 0
M  V30 34744 C 6102.47 -4.28918 0.887335 0
M  V30 34745 C 6102.36 -4.91066 2.24619 0
M  V30 34746 C 6102.42 -5.00349 -0.255399 0
M  V30 34747 H 6099.68 -8.36803 -2.32493 0
M  V30 34748 H 6099.41 -6.701 -1.71105 0
M  V30 34749 H 6100.28 -7.03551 -4.13168 0
M  V30 34750 H 6102.94 -4.59773 -3.53894 0
M  V30 34751 H 6103.22 -6.88995 -1.59871 0
M  V30 34752 H 6104.21 -6.46749 -3.03687 0
M  V30 34753 H 6102.37 -8.46908 -3.20714 0
M  V30 34754 H 6102.3 -6.08548 -0.206986 0
M  V30 34755 H 6103.33 -5.34836 2.53099 0
M  V30 34756 H 6101.6 -5.69638 2.2291 0
M  V30 34757 H 6102.08 -4.13971 2.98044 0
M  V30 34758 H 6102.82 -1.33211 -0.474216 0
M  V30 34759 P 6104.24 -7.20834 -5.23717 0
M  V30 34760 O 6104.46 -7.79853 -6.57286 0
M  V30 34761 O 6105.03 -7.79239 -4.12957 0
M  V30 34762 O 6104.49 -5.63315 -5.29344 0
M  V30 34763 C 6103.55 -4.80255 -6.01876 0
M  V30 34764 C 6104.28 -3.64202 -6.65911 0
M  V30 34765 O 6104.49 -2.60694 -5.64732 0
M  V30 34766 C 6105.68 -3.93473 -7.1943 0
M  V30 34767 O 6106.07 -3.02071 -8.21205 0
M  V30 34768 C 6106.56 -3.73047 -5.97036 0
M  V30 34769 C 6105.85 -2.58828 -5.25741 0
M  V30 34770 N 6105.9 -2.68068 -3.77503 0
M  V30 34771 H 6103.06 -5.40332 -6.79951 0
M  V30 34772 H 6102.79 -4.41613 -5.32378 0
M  V30 34773 H 6103.66 -3.26331 -7.47797 0
M  V30 34774 P 6107.62 -2.75334 -8.47391 0
M  V30 34775 O 6107.84 -2.44571 -9.90142 0
M  V30 34776 O 6108.41 -3.87688 -7.92115 0
M  V30 34777 O 6107.87 -1.4459 -7.59357 0
M  V30 34778 C 6106.93 -0.347608 -7.69215 0
M  V30 34779 C 6107.66 0.96767 -7.52806 0
M  V30 34780 O 6107.87 1.21036 -6.1011 0
M  V30 34781 C 6109.06 1.04544 -8.13308 0
M  V30 34782 O 6109.45 2.38311 -8.41922 0
M  V30 34783 C 6109.94 0.491279 -7.02284 0
M  V30 34784 C 6109.23 0.996264 -5.77469 0
M  V30 34785 N 6109.28 0.0501916 -4.62973 0
M  V30 34786 H 6106.44 -0.374722 -8.67691 0
M  V30 34787 H 6106.17 -0.443485 -6.90277 0
M  V30 34788 H 6107.04 1.75537 -7.96793 0
M  V30 34789 P 6111 2.75334 -8.47391 0
M  V30 34790 O 6111.22 3.84128 -9.44797 0
M  V30 34791 O 6111.79 1.51947 -8.68712 0
M  V30 34792 O 6111.25 3.29363 -6.99321 0
M  V30 34793 C 6110.31 4.24011 -6.4274 0
M  V30 34794 C 6111.04 5.20775 -5.52155 0
M  V30 34795 O 6111.25 4.56534 -4.22446 0
M  V30 34796 C 6112.44 5.62629 -5.96531 0
M  V30 34797 O 6112.83 6.87667 -5.41053 0
M  V30 34798 C 6113.32 4.52537 -5.39283 0
M  V30 34799 C 6112.61 4.20027 -4.08623 0
M  V30 34800 N 6112.66 2.76189 -3.71603 0
M  V30 34801 C 6112.58 1.64862 -4.52822 0
M  V30 34802 N 6112.66 0.512671 -3.88633 0
M  V30 34803 C 6112.8 0.888083 -2.54977 0
M  V30 34804 C 6112.93 0.094668 -1.38677 0
M  V30 34805 O 6112.95 -1.13053 -1.28163 0
M  V30 34806 N 6113.05 0.890102 -0.232633 0
M  V30 34807 C 6113.05 2.26958 -0.21772 0
M  V30 34808 N 6113.18 2.84626 0.97925 0
M  V30 34809 N 6112.92 3.0178 -1.31033 0
M  V30 34810 C 6112.8 2.26781 -2.43843 0
M  V30 34811 H 6109.82 4.797 -7.24003 0
M  V30 34812 H 6109.55 3.69856 -5.84513 0
M  V30 34813 H 6110.42 6.10356 -5.41441 0
M  V30 34814 H 6113.08 4.79061 -3.27488 0
M  V30 34815 H 6113.36 3.64906 -6.05785 0
M  V30 34816 H 6114.35 4.8868 -5.2125 0
M  V30 34817 H 6112.51 5.66726 -7.06352 0
M  V30 34818 H 6112.46 1.71169 -5.60966 0
M  V30 34819 H 6113.15 0.419134 0.644739 0
M  V30 34820 H 6113.18 3.87332 1.06098 0
M  V30 34821 H 6113.28 2.26417 1.82483 0
M  V30 34822 P 6114.38 7.20834 -5.23717 0
M  V30 34823 O 6114.6 8.66104 -5.38572 0
M  V30 34824 O 6115.17 6.33544 -6.1349 0
M  V30 34825 O 6114.63 6.7751 -3.72168 0
M  V30 34826 C 6113.69 7.20825 -2.7076 0
M  V30 34827 C 6114.42 7.45864 -1.40599 0
M  V30 34828 O 6114.63 6.17651 -0.734225 0
M  V30 34829 C 6115.82 8.05808 -1.51899 0
M  V30 34830 O 6116.21 8.74358 -0.335205 0
M  V30 34831 C 6116.7 6.83093 -1.70294 0
M  V30 34832 C 6115.99 5.79992 -0.836974 0
M  V30 34833 N 6116.04 4.41864 -1.38293 0
M  V30 34834 H 6113.2 8.13644 -3.0377 0
M  V30 34835 H 6112.93 6.42788 -2.55485 0
M  V30 34836 H 6113.8 8.12039 -0.792769 0
M  V30 34837 P 6117.76 8.91 -3.00165e-10 0
M  V30 34838 O 6117.98 10.1736 0.733766 0
M  V30 34839 O 6118.55 8.73247 -1.2395 0
M  V30 34840 O 6118.01 7.66872 0.971405 0
M  V30 34841 C 6117.07 7.42309 2.04641 0
M  V30 34842 C 6117.8 6.86059 3.24661 0
M  V30 34843 O 6118.01 5.42847 3.03646 0
M  V30 34844 C 6119.2 7.41196 3.50753 0
M  V30 34845 O 6119.59 7.27073 4.86816 0
M  V30 34846 C 6120.08 6.5273 2.63741 0
M  V30 34847 C 6119.37 5.1842 2.73198 0
M  V30 34848 N 6119.42 4.38668 1.47808 0
M  V30 34849 C 6119.57 3.00789 1.58511 0
M  V30 34850 O 6119.66 2.50116 2.71298 0
M  V30 34851 N 6119.62 2.29703 0.253698 0
M  V30 34852 C 6119.52 2.84269 -0.750133 0
M  V30 34853 N 6119.57 2.06951 -1.82612 0
M  V30 34854 C 6119.37 4.25803 -0.889776 0
M  V30 34855 C 6119.32 4.98326 0.259363 0
M  V30 34856 H 6116.58 8.36707 2.32466 0
M  V30 34857 H 6116.31 6.701 1.71105 0
M  V30 34858 H 6117.18 7.03638 4.13219 0
M  V30 34859 H 6119.84 4.59852 3.53955 0
M  V30 34860 H 6120.12 6.88995 1.59871 0
M  V30 34861 H 6121.11 6.46749 3.03687 0
M  V30 34862 H 6119.27 8.46908 3.20714 0
M  V30 34863 H 6119.2 6.06349 0.206238 0
M  V30 34864 H 6119.3 4.73163 -1.86796 0
M  V30 34865 H 6119.69 1.05099 -1.72271 0
M  V30 34866 H 6119.49 2.48716 -2.76361 0
M  V30 34867 P 6121.14 7.20834 5.23717 0
M  V30 34868 O 6121.36 7.79853 6.57286 0
M  V30 34869 O 6121.93 7.79239 4.12957 0
M  V30 34870 O 6121.39 5.63315 5.29344 0
M  V30 34871 C 6120.45 4.80255 6.01876 0
M  V30 34872 C 6121.18 3.64202 6.65911 0
M  V30 34873 O 6121.39 2.60694 5.64732 0
M  V30 34874 C 6122.58 3.93473 7.1943 0
M  V30 34875 O 6122.97 3.02071 8.21205 0
M  V30 34876 C 6123.46 3.73047 5.97036 0
M  V30 34877 C 6122.75 2.58828 5.25741 0
M  V30 34878 N 6122.8 2.68068 3.77503 0
M  V30 34879 H 6119.96 5.40332 6.79951 0
M  V30 34880 H 6119.69 4.41613 5.32378 0
M  V30 34881 H 6120.56 3.26331 7.47797 0
M  V30 34882 P 6124.52 2.75334 8.47391 0
M  V30 34883 O 6124.74 2.44571 9.90142 0
M  V30 34884 O 6125.31 3.87688 7.92115 0
M  V30 34885 O 6124.77 1.4459 7.59357 0
M  V30 34886 C 6123.83 0.347608 7.69215 0
M  V30 34887 C 6124.56 -0.96767 7.52806 0
M  V30 34888 O 6124.77 -1.21036 6.1011 0
M  V30 34889 C 6125.96 -1.04544 8.13308 0
M  V30 34890 O 6126.35 -2.38311 8.41922 0
M  V30 34891 C 6126.84 -0.491279 7.02284 0
M  V30 34892 C 6126.13 -0.996264 5.77469 0
M  V30 34893 N 6126.18 -0.0501916 4.62973 0
M  V30 34894 H 6123.34 0.374722 8.67691 0
M  V30 34895 H 6123.07 0.443485 6.90277 0
M  V30 34896 H 6123.94 -1.75537 7.96793 0
M  V30 34897 P 6127.9 -2.75334 8.47391 0
M  V30 34898 O 6128.12 -3.84128 9.44797 0
M  V30 34899 O 6128.69 -1.51947 8.68712 0
M  V30 34900 O 6128.15 -3.29363 6.99321 0
M  V30 34901 C 6127.21 -4.24011 6.4274 0
M  V30 34902 C 6127.94 -5.20775 5.52155 0
M  V30 34903 O 6128.15 -4.56534 4.22446 0
M  V30 34904 C 6129.34 -5.62629 5.96531 0
M  V30 34905 O 6129.73 -6.87667 5.41053 0
M  V30 34906 C 6130.22 -4.52537 5.39283 0
M  V30 34907 C 6129.51 -4.20027 4.08623 0
M  V30 34908 N 6129.56 -2.76189 3.71603 0
M  V30 34909 H 6126.72 -4.797 7.24003 0
M  V30 34910 H 6126.45 -3.69856 5.84513 0
M  V30 34911 H 6127.32 -6.10356 5.41441 0
M  V30 34912 P 6131.28 -7.20834 5.23717 0
M  V30 34913 O 6131.5 -8.66189 5.38625 0
M  V30 34914 O 6132.07 -6.33615 6.1356 0
M  V30 34915 O 6131.53 -6.7751 3.72168 0
M  V30 34916 C 6130.59 -7.20825 2.7076 0
M  V30 34917 C 6131.32 -7.45864 1.40599 0
M  V30 34918 O 6131.53 -6.17651 0.734225 0
M  V30 34919 C 6132.72 -8.05808 1.51899 0
M  V30 34920 O 6133.11 -8.74358 0.335205 0
M  V30 34921 C 6133.6 -6.83093 1.70294 0
M  V30 34922 C 6132.89 -5.79992 0.836974 0
M  V30 34923 N 6132.94 -4.41769 1.38263 0
M  V30 34924 C 6133.09 -3.36514 0.485617 0
M  V30 34925 O 6133.18 -3.61814 -0.724703 0
M  V30 34926 N 6133.14 -2.00746 1.14492 0
M  V30 34927 C 6133.04 -1.85887 2.27776 0
M  V30 34928 N 6133.09 -0.600907 2.69379 0
M  V30 34929 C 6132.89 -2.92182 3.22265 0
M  V30 34930 C 6132.84 -4.18399 2.71925 0
M  V30 34931 H 6130.1 -8.1355 3.03735 0
M  V30 34932 H 6129.83 -6.42695 2.55448 0
M  V30 34933 H 6130.7 -8.12139 0.792866 0
M  V30 34934 H 6133.36 -5.80078 -0.160615 0
M  V30 34935 H 6133.64 -6.51379 2.75643 0
M  V30 34936 H 6134.63 -7.01734 1.34462 0
M  V30 34937 H 6132.79 -8.73674 2.38337 0
M  V30 34938 H 6132.72 -5.02669 3.39718 0
M  V30 34939 H 6132.82 -2.73001 4.29239 0
M  V30 34940 H 6133.21 0.162318 2.01146 0
M  V30 34941 H 6133.01 -0.387742 3.69773 0
M  V30 34942 P 6134.66 -8.91 3.01274e-10 0
M  V30 34943 O 6134.88 -10.1736 -0.733766 0
M  V30 34944 O 6135.45 -8.73247 1.2395 0
M  V30 34945 O 6134.91 -7.66872 -0.971405 0
M  V30 34946 C 6133.97 -7.42212 -2.04614 0
M  V30 34947 C 6134.7 -6.86059 -3.24661 0
M  V30 34948 O 6134.91 -5.42847 -3.03646 0
M  V30 34949 C 6136.1 -7.41196 -3.50753 0
M  V30 34950 O 6136.49 -7.27073 -4.86816 0
M  V30 34951 C 6136.98 -6.5273 -2.63741 0
M  V30 34952 C 6136.27 -5.1842 -2.73198 0
M  V30 34953 N 6136.32 -4.38668 -1.47808 0
M  V30 34954 C 6136.47 -3.02239 -1.60048 0
M  V30 34955 O 6136.56 -2.46459 -2.67869 0
M  V30 34956 N 6136.51 -2.32436 -0.408571 0
M  V30 34957 C 6136.42 -2.85471 0.854993 0
M  V30 34958 O 6136.47 -2.12566 1.8531 0
M  V30 34959 C 6136.27 -4.28918 0.887335 0
M  V30 34960 C 6136.16 -4.91066 2.24619 0
M  V30 34961 C 6136.22 -5.00349 -0.255399 0
M  V30 34962 H 6133.48 -8.36803 -2.32493 0
M  V30 34963 H 6133.21 -6.701 -1.71105 0
M  V30 34964 H 6134.08 -7.03551 -4.13168 0
M  V30 34965 H 6136.74 -4.59773 -3.53894 0
M  V30 34966 H 6137.02 -6.88995 -1.59871 0
M  V30 34967 H 6138.01 -6.46749 -3.03687 0
M  V30 34968 H 6136.17 -8.46908 -3.20714 0
M  V30 34969 H 6136.1 -6.08548 -0.206986 0
M  V30 34970 H 6137.13 -5.34836 2.53099 0
M  V30 34971 H 6135.4 -5.69638 2.2291 0
M  V30 34972 H 6135.88 -4.13971 2.98044 0
M  V30 34973 H 6136.62 -1.33211 -0.474216 0
M  V30 34974 P 6138.04 -7.20834 -5.23717 0
M  V30 34975 O 6138.26 -7.80006 -6.57415 0
M  V30 34976 O 6138.83 -7.79416 -4.13051 0
M  V30 34977 O 6138.29 -5.63315 -5.29344 0
M  V30 34978 C 6137.35 -4.80318 -6.01954 0
M  V30 34979 C 6138.08 -3.64202 -6.65911 0
M  V30 34980 O 6138.29 -2.60736 -5.64823 0
M  V30 34981 C 6139.48 -3.93521 -7.19518 0
M  V30 34982 O 6139.87 -3.02071 -8.21205 0
M  V30 34983 C 6140.36 -3.73047 -5.97036 0
M  V30 34984 C 6139.65 -2.58828 -5.25741 0
M  V30 34985 N 6139.7 -2.68068 -3.77503 0
M  V30 34986 H 6136.87 -5.40394 -6.8003 0
M  V30 34987 H 6136.59 -4.41741 -5.32532 0
M  V30 34988 H 6137.46 -3.26371 -7.47889 0
M  V30 34989 H 6140.12 -1.64007 -5.56746 0
M  V30 34990 H 6140.4 -4.63439 -5.3432 0
M  V30 34991 H 6141.39 -3.44776 -6.25925 0
M  V30 34992 H 6139.55 -4.96707 -7.57347 0
M  V30 34993 P 6141.42 -2.75334 -8.47391 0
M  V30 34994 O 6141.64 -2.44571 -9.90142 0
M  V30 34995 O 6142.21 -3.87688 -7.92115 0
M  V30 34996 O 6141.67 -1.4459 -7.59357 0
M  V30 34997 C 6140.73 -0.347608 -7.69215 0
M  V30 34998 C 6141.46 0.96767 -7.52806 0
M  V30 34999 O 6141.67 1.21036 -6.1011 0
M  V30 35000 C 6142.86 1.04544 -8.13308 0
M  V30 35001 O 6143.25 2.38311 -8.41922 0
M  V30 35002 C 6143.74 0.491279 -7.02284 0
M  V30 35003 C 6143.03 0.996264 -5.77469 0
M  V30 35004 N 6143.08 0.0501916 -4.62973 0
M  V30 35005 H 6140.24 -0.374722 -8.67691 0
M  V30 35006 H 6139.97 -0.443485 -6.90277 0
M  V30 35007 H 6140.84 1.75537 -7.96793 0
M  V30 35008 P 6144.8 2.75334 -8.47391 0
M  V30 35009 O 6145.02 3.84128 -9.44797 0
M  V30 35010 O 6145.59 1.51947 -8.68712 0
M  V30 35011 O 6145.05 3.29363 -6.99321 0
M  V30 35012 C 6144.11 4.24011 -6.4274 0
M  V30 35013 C 6144.84 5.20775 -5.52155 0
M  V30 35014 O 6145.05 4.56534 -4.22446 0
M  V30 35015 C 6146.24 5.62629 -5.96531 0
M  V30 35016 O 6146.63 6.87667 -5.41053 0
M  V30 35017 C 6147.12 4.52537 -5.39283 0
M  V30 35018 C 6146.41 4.20027 -4.08623 0
M  V30 35019 N 6146.46 2.76189 -3.71603 0
M  V30 35020 H 6143.62 4.797 -7.24003 0
M  V30 35021 H 6143.35 3.69856 -5.84513 0
M  V30 35022 H 6144.22 6.10356 -5.41441 0
M  V30 35023 P 6148.18 7.20834 -5.23717 0
M  V30 35024 O 6148.4 8.66104 -5.38572 0
M  V30 35025 O 6148.97 6.33544 -6.1349 0
M  V30 35026 O 6148.43 6.7751 -3.72168 0
M  V30 35027 C 6147.49 7.20825 -2.7076 0
M  V30 35028 C 6148.22 7.45864 -1.40599 0
M  V30 35029 O 6148.43 6.17651 -0.734225 0
M  V30 35030 C 6149.62 8.05808 -1.51899 0
M  V30 35031 O 6150.01 8.74358 -0.335205 0
M  V30 35032 C 6150.5 6.83093 -1.70294 0
M  V30 35033 C 6149.79 5.79992 -0.836974 0
M  V30 35034 N 6149.84 4.41864 -1.38293 0
M  V30 35035 H 6147 8.13644 -3.0377 0
M  V30 35036 H 6146.73 6.42788 -2.55485 0
M  V30 35037 H 6147.6 8.12039 -0.792769 0
M  V30 35038 P 6151.56 8.91 -3.02383e-10 0
M  V30 35039 O 6151.78 10.1726 0.733694 0
M  V30 35040 O 6152.35 8.73148 -1.23936 0
M  V30 35041 O 6151.81 7.66872 0.971405 0
M  V30 35042 C 6150.87 7.42309 2.04641 0
M  V30 35043 C 6151.6 6.86059 3.24661 0
M  V30 35044 O 6151.81 5.42847 3.03646 0
M  V30 35045 C 6153 7.41196 3.50753 0
M  V30 35046 O 6153.39 7.27073 4.86816 0
M  V30 35047 C 6153.88 6.5273 2.63741 0
M  V30 35048 C 6153.17 5.1842 2.73198 0
M  V30 35049 N 6153.22 4.38762 1.4784 0
M  V30 35050 H 6150.38 8.36803 2.32493 0
M  V30 35051 H 6150.11 6.70197 1.71129 0
M  V30 35052 H 6150.98 7.03551 4.13168 0
M  V30 35053 P 6154.94 7.20834 5.23717 0
M  V30 35054 O 6155.16 7.79853 6.57286 0
M  V30 35055 O 6155.73 7.79239 4.12957 0
M  V30 35056 O 6155.19 5.63315 5.29344 0
M  V30 35057 C 6154.25 4.80255 6.01876 0
M  V30 35058 C 6154.98 3.64202 6.65911 0
M  V30 35059 O 6155.19 2.60694 5.64732 0
M  V30 35060 C 6156.38 3.93473 7.1943 0
M  V30 35061 O 6156.77 3.02071 8.21205 0
M  V30 35062 C 6157.26 3.73047 5.97036 0
M  V30 35063 C 6156.55 2.58828 5.25741 0
M  V30 35064 N 6156.6 2.68068 3.77503 0
M  V30 35065 H 6153.76 5.40332 6.79951 0
M  V30 35066 H 6153.49 4.41613 5.32378 0
M  V30 35067 H 6154.36 3.26331 7.47797 0
M  V30 35068 P 6158.32 2.75334 8.47391 0
M  V30 35069 O 6158.54 2.44571 9.90142 0
M  V30 35070 O 6159.11 3.87688 7.92115 0
M  V30 35071 O 6158.57 1.4459 7.59357 0
M  V30 35072 C 6157.63 0.347608 7.69215 0
M  V30 35073 C 6158.36 -0.96767 7.52806 0
M  V30 35074 O 6158.57 -1.21036 6.1011 0
M  V30 35075 C 6159.76 -1.04544 8.13308 0
M  V30 35076 O 6160.15 -2.38311 8.41922 0
M  V30 35077 C 6160.64 -0.491279 7.02284 0
M  V30 35078 C 6159.93 -0.996264 5.77469 0
M  V30 35079 N 6159.98 -0.0501916 4.62973 0
M  V30 35080 H 6157.14 0.374722 8.67691 0
M  V30 35081 H 6156.87 0.443485 6.90277 0
M  V30 35082 H 6157.74 -1.75537 7.96793 0
M  V30 35083 P 6161.7 -2.75334 8.47391 0
M  V30 35084 O 6161.92 -3.84128 9.44797 0
M  V30 35085 O 6162.49 -1.51947 8.68712 0
M  V30 35086 O 6161.95 -3.29363 6.99321 0
M  V30 35087 C 6161.01 -4.24011 6.4274 0
M  V30 35088 C 6161.74 -5.20775 5.52155 0
M  V30 35089 O 6161.95 -4.56534 4.22446 0
M  V30 35090 C 6163.14 -5.62629 5.96531 0
M  V30 35091 O 6163.53 -6.87667 5.41053 0
M  V30 35092 C 6164.02 -4.52537 5.39283 0
M  V30 35093 C 6163.31 -4.20027 4.08623 0
M  V30 35094 N 6163.36 -2.76189 3.71603 0
M  V30 35095 C 6163.28 -1.64862 4.52822 0
M  V30 35096 N 6163.36 -0.512671 3.88633 0
M  V30 35097 C 6163.5 -0.888083 2.54977 0
M  V30 35098 C 6163.63 -0.094668 1.38677 0
M  V30 35099 O 6163.65 1.13053 1.28163 0
M  V30 35100 N 6163.75 -0.890102 0.232633 0
M  V30 35101 C 6163.75 -2.26958 0.21772 0
M  V30 35102 N 6163.88 -2.84626 -0.97925 0
M  V30 35103 N 6163.62 -3.0178 1.31033 0
M  V30 35104 C 6163.5 -2.26781 2.43843 0
M  V30 35105 H 6160.52 -4.797 7.24003 0
M  V30 35106 H 6160.25 -3.69856 5.84513 0
M  V30 35107 H 6161.12 -6.10356 5.41441 0
M  V30 35108 H 6163.78 -4.79061 3.27488 0
M  V30 35109 H 6164.06 -3.64906 6.05785 0
M  V30 35110 H 6165.05 -4.8868 5.2125 0
M  V30 35111 H 6163.21 -5.66726 7.06352 0
M  V30 35112 H 6163.16 -1.71169 5.60966 0
M  V30 35113 H 6163.85 -0.419134 -0.644739 0
M  V30 35114 H 6163.88 -3.87332 -1.06098 0
M  V30 35115 H 6163.98 -2.26417 -1.82483 0
M  V30 35116 P 6165.08 -7.20834 5.23717 0
M  V30 35117 O 6165.3 -8.66104 5.38572 0
M  V30 35118 O 6165.87 -6.33544 6.1349 0
M  V30 35119 O 6165.33 -6.7751 3.72168 0
M  V30 35120 C 6164.39 -7.20825 2.7076 0
M  V30 35121 C 6165.12 -7.45864 1.40599 0
M  V30 35122 O 6165.33 -6.17651 0.734225 0
M  V30 35123 C 6166.52 -8.05808 1.51899 0
M  V30 35124 O 6166.91 -8.74358 0.335205 0
M  V30 35125 C 6167.4 -6.83093 1.70294 0
M  V30 35126 C 6166.69 -5.79992 0.836974 0
M  V30 35127 N 6166.74 -4.41864 1.38293 0
M  V30 35128 H 6163.9 -8.13644 3.0377 0
M  V30 35129 H 6163.63 -6.42788 2.55485 0
M  V30 35130 H 6164.5 -8.12039 0.792769 0
M  V30 35131 P 6168.46 -8.91 3.03492e-10 0
M  V30 35132 O 6168.68 -10.1726 -0.733694 0
M  V30 35133 O 6169.25 -8.73148 1.23936 0
M  V30 35134 O 6168.71 -7.66872 -0.971405 0
M  V30 35135 C 6167.77 -7.42309 -2.04641 0
M  V30 35136 C 6168.5 -6.86059 -3.24661 0
M  V30 35137 O 6168.71 -5.42847 -3.03646 0
M  V30 35138 C 6169.9 -7.41196 -3.50753 0
M  V30 35139 O 6170.29 -7.27073 -4.86816 0
M  V30 35140 C 6170.78 -6.5273 -2.63741 0
M  V30 35141 C 6170.07 -5.1842 -2.73198 0
M  V30 35142 N 6170.12 -4.38762 -1.4784 0
M  V30 35143 H 6167.28 -8.36803 -2.32493 0
M  V30 35144 H 6167.01 -6.70197 -1.71129 0
M  V30 35145 H 6167.88 -7.03551 -4.13168 0
M  V30 35146 P 6171.84 -7.20834 -5.23717 0
M  V30 35147 O 6172.06 -7.79853 -6.57286 0
M  V30 35148 O 6172.63 -7.79239 -4.12957 0
M  V30 35149 O 6172.09 -5.63315 -5.29344 0
M  V30 35150 C 6171.15 -4.80255 -6.01876 0
M  V30 35151 C 6171.88 -3.64202 -6.65911 0
M  V30 35152 O 6172.09 -2.60694 -5.64732 0
M  V30 35153 C 6173.28 -3.93473 -7.1943 0
M  V30 35154 O 6173.67 -3.02071 -8.21205 0
M  V30 35155 C 6174.16 -3.73047 -5.97036 0
M  V30 35156 C 6173.45 -2.58828 -5.25741 0
M  V30 35157 N 6173.5 -2.68068 -3.77503 0
M  V30 35158 H 6170.66 -5.40332 -6.79951 0
M  V30 35159 H 6170.39 -4.41613 -5.32378 0
M  V30 35160 H 6171.26 -3.26331 -7.47797 0
M  V30 35161 P 6175.22 -2.75334 -8.47391 0
M  V30 35162 O 6175.44 -2.44571 -9.90142 0
M  V30 35163 O 6176.01 -3.87688 -7.92115 0
M  V30 35164 O 6175.47 -1.4459 -7.59357 0
M  V30 35165 C 6174.53 -0.347608 -7.69215 0
M  V30 35166 C 6175.26 0.96767 -7.52806 0
M  V30 35167 O 6175.47 1.21036 -6.1011 0
M  V30 35168 C 6176.66 1.04544 -8.13308 0
M  V30 35169 O 6177.05 2.38311 -8.41922 0
M  V30 35170 C 6177.54 0.491279 -7.02284 0
M  V30 35171 C 6176.83 0.996264 -5.77469 0
M  V30 35172 N 6176.88 0.0501916 -4.62973 0
M  V30 35173 H 6174.04 -0.374722 -8.67691 0
M  V30 35174 H 6173.77 -0.443485 -6.90277 0
M  V30 35175 H 6174.64 1.75537 -7.96793 0
M  V30 35176 P 6178.6 2.75334 -8.47391 0
M  V30 35177 O 6178.82 3.84128 -9.44797 0
M  V30 35178 O 6179.39 1.51947 -8.68712 0
M  V30 35179 O 6178.85 3.29363 -6.99321 0
M  V30 35180 C 6177.91 4.24011 -6.4274 0
M  V30 35181 C 6178.64 5.20775 -5.52155 0
M  V30 35182 O 6178.85 4.56534 -4.22446 0
M  V30 35183 C 6180.04 5.62629 -5.96531 0
M  V30 35184 O 6180.43 6.87667 -5.41053 0
M  V30 35185 C 6180.92 4.52537 -5.39283 0
M  V30 35186 C 6180.21 4.20027 -4.08623 0
M  V30 35187 N 6180.26 2.76189 -3.71603 0
M  V30 35188 C 6180.18 1.64862 -4.52822 0
M  V30 35189 N 6180.26 0.512671 -3.88633 0
M  V30 35190 C 6180.4 0.888083 -2.54977 0
M  V30 35191 C 6180.53 0.094668 -1.38677 0
M  V30 35192 N 6180.65 0.890102 -0.232633 0
M  V30 35193 C 6180.65 2.26958 -0.21772 0
M  V30 35194 N 6180.78 2.84626 0.97925 0
M  V30 35195 N 6180.52 3.0178 -1.31033 0
M  V30 35196 C 6180.4 2.26781 -2.43843 0
M  V30 35197 H 6177.42 4.797 -7.24003 0
M  V30 35198 H 6177.15 3.69856 -5.84513 0
M  V30 35199 H 6178.02 6.10356 -5.41441 0
M  V30 35200 P 6181.98 7.20834 -5.23717 0
M  V30 35201 O 6182.2 8.66104 -5.38572 0
M  V30 35202 O 6182.77 6.33544 -6.1349 0
M  V30 35203 O 6182.23 6.7751 -3.72168 0
M  V30 35204 C 6181.29 7.20825 -2.7076 0
M  V30 35205 C 6182.02 7.45864 -1.40599 0
M  V30 35206 O 6182.23 6.17651 -0.734225 0
M  V30 35207 C 6183.42 8.05808 -1.51899 0
M  V30 35208 O 6183.81 8.74358 -0.335205 0
M  V30 35209 C 6184.3 6.83093 -1.70294 0
M  V30 35210 C 6183.59 5.79992 -0.836974 0
M  V30 35211 N 6183.64 4.41864 -1.38293 0
M  V30 35212 H 6180.8 8.13644 -3.0377 0
M  V30 35213 H 6180.53 6.42788 -2.55485 0
M  V30 35214 H 6181.4 8.12039 -0.792769 0
M  V30 35215 P 6185.36 8.91 -3.04601e-10 0
M  V30 35216 O 6185.58 10.1726 0.733694 0
M  V30 35217 O 6186.15 8.73148 -1.23936 0
M  V30 35218 O 6185.61 7.66872 0.971405 0
M  V30 35219 C 6184.67 7.42309 2.04641 0
M  V30 35220 C 6185.4 6.86059 3.24661 0
M  V30 35221 O 6185.61 5.42847 3.03646 0
M  V30 35222 C 6186.8 7.41196 3.50753 0
M  V30 35223 O 6187.19 7.27073 4.86816 0
M  V30 35224 C 6187.68 6.5273 2.63741 0
M  V30 35225 C 6186.97 5.1842 2.73198 0
M  V30 35226 N 6187.02 4.38762 1.4784 0
M  V30 35227 H 6184.18 8.36803 2.32493 0
M  V30 35228 H 6183.91 6.70197 1.71129 0
M  V30 35229 H 6184.78 7.03551 4.13168 0
M  V30 35230 P 6188.74 7.20834 5.23717 0
M  V30 35231 O 6188.96 7.80006 6.57415 0
M  V30 35232 O 6189.53 7.79416 4.13051 0
M  V30 35233 O 6188.99 5.63315 5.29344 0
M  V30 35234 C 6188.05 4.80318 6.01954 0
M  V30 35235 C 6188.78 3.64202 6.65911 0
M  V30 35236 O 6188.99 2.60736 5.64823 0
M  V30 35237 C 6190.18 3.93521 7.19518 0
M  V30 35238 O 6190.57 3.02071 8.21205 0
M  V30 35239 C 6191.06 3.73047 5.97036 0
M  V30 35240 C 6190.35 2.58828 5.25741 0
M  V30 35241 N 6190.4 2.68068 3.77503 0
M  V30 35242 C 6190.32 3.80474 2.99159 0
M  V30 35243 N 6190.39 3.55622 1.71925 0
M  V30 35244 C 6190.54 2.1832 1.65733 0
M  V30 35245 C 6190.67 1.28842 0.572777 0
M  V30 35246 N 6190.68 1.66875 -0.70098 0
M  V30 35247 N 6190.79 -0.016788 0.859836 0
M  V30 35248 C 6190.78 -0.398145 2.13316 0
M  V30 35249 N 6190.66 0.328224 3.22333 0
M  V30 35250 C 6190.54 1.62992 2.90383 0
M  V30 35251 H 6187.57 5.40394 6.8003 0
M  V30 35252 H 6187.29 4.41741 5.32532 0
M  V30 35253 H 6188.16 3.26371 7.47889 0
M  V30 35254 H 6190.82 1.64007 5.56746 0
M  V30 35255 H 6191.1 4.63439 5.3432 0
M  V30 35256 H 6192.09 3.44776 6.25925 0
M  V30 35257 H 6190.25 4.96707 7.57347 0
M  V30 35258 H 6190.21 4.8089 3.39924 0
M  V30 35259 H 6190.59 2.66547 -0.941919 0
M  V30 35260 H 6190.78 0.965341 -1.44766 0
M  V30 35261 H 6190.89 -1.46427 2.29697 0
M  V30 35262 P 6192.12 2.75334 8.47391 0
M  V30 35263 O 6192.34 2.44619 9.90336 0
M  V30 35264 O 6192.91 3.87776 7.92294 0
M  V30 35265 O 6192.37 1.4459 7.59357 0
M  V30 35266 C 6191.43 0.347653 7.69315 0
M  V30 35267 C 6192.16 -0.96767 7.52806 0
M  V30 35268 O 6192.37 -1.21055 6.10208 0
M  V30 35269 C 6193.56 -1.04557 8.13408 0
M  V30 35270 O 6193.95 -2.38311 8.41922 0
M  V30 35271 C 6194.44 -0.491279 7.02284 0
M  V30 35272 C 6193.73 -0.996264 5.77469 0
M  V30 35273 N 6193.78 -0.0501916 4.62973 0
M  V30 35274 C 6193.7 1.31969 4.65661 0
M  V30 35275 N 6193.77 1.86649 3.48119 0
M  V30 35276 C 6193.92 0.792089 2.62406 0
M  V30 35277 C 6194.05 0.705684 1.2207 0
M  V30 35278 N 6194.06 1.76207 0.413762 0
M  V30 35279 N 6194.17 -0.518981 0.685754 0
M  V30 35280 C 6194.16 -1.57595 1.49174 0
M  V30 35281 N 6194.04 -1.62909 2.80066 0
M  V30 35282 C 6193.92 -0.388195 3.3073 0
M  V30 35283 H 6190.95 0.374765 8.67791 0
M  V30 35284 H 6190.67 0.443613 6.90476 0
M  V30 35285 H 6191.54 -1.75559 7.96891 0
M  V30 35286 H 6194.2 -1.94563 5.46818 0
M  V30 35287 H 6194.48 0.608651 7.04676 0
M  V30 35288 H 6195.47 -0.889796 7.09039 0
M  V30 35289 H 6193.63 -0.433128 9.04664 0
M  V30 35290 H 6193.59 1.89246 5.57664 0
M  V30 35291 H 6193.97 2.71005 0.804694 0
M  V30 35292 H 6194.16 1.63189 -0.603768 0
M  V30 35293 H 6194.27 -2.53475 0.997614 0
M  V30 35294 P 6195.5 -2.75334 8.47391 0
M  V30 35295 O 6195.72 -3.84128 9.44797 0
M  V30 35296 O 6196.29 -1.51947 8.68712 0
M  V30 35297 O 6195.75 -3.29363 6.99321 0
M  V30 35298 C 6194.81 -4.24011 6.4274 0
M  V30 35299 C 6195.54 -5.20775 5.52155 0
M  V30 35300 O 6195.75 -4.56534 4.22446 0
M  V30 35301 C 6196.94 -5.62629 5.96531 0
M  V30 35302 O 6197.33 -6.87667 5.41053 0
M  V30 35303 C 6197.82 -4.52537 5.39283 0
M  V30 35304 C 6197.11 -4.20027 4.08623 0
M  V30 35305 N 6197.16 -2.76189 3.71603 0
M  V30 35306 H 6194.32 -4.797 7.24003 0
M  V30 35307 H 6194.05 -3.69856 5.84513 0
M  V30 35308 H 6194.92 -6.10356 5.41441 0
M  V30 35309 P 6198.88 -7.20834 5.23717 0
M  V30 35310 O 6199.1 -8.66104 5.38572 0
M  V30 35311 O 6199.67 -6.33544 6.1349 0
M  V30 35312 O 6199.13 -6.7751 3.72168 0
M  V30 35313 C 6198.19 -7.20825 2.7076 0
M  V30 35314 C 6198.92 -7.45864 1.40599 0
M  V30 35315 O 6199.13 -6.17651 0.734225 0
M  V30 35316 C 6200.32 -8.05808 1.51899 0
M  V30 35317 O 6200.71 -8.74358 0.335205 0
M  V30 35318 C 6201.2 -6.83093 1.70294 0
M  V30 35319 C 6200.49 -5.79992 0.836974 0
M  V30 35320 N 6200.54 -4.41864 1.38293 0
M  V30 35321 H 6197.7 -8.13644 3.0377 0
M  V30 35322 H 6197.43 -6.42788 2.55485 0
M  V30 35323 H 6198.3 -8.12039 0.792769 0
M  V30 35324 P 6202.26 -8.91 3.0571e-10 0
M  V30 35325 O 6202.48 -10.1726 -0.733694 0
M  V30 35326 O 6203.05 -8.73148 1.23936 0
M  V30 35327 O 6202.51 -7.66872 -0.971405 0
M  V30 35328 C 6201.57 -7.42309 -2.04641 0
M  V30 35329 C 6202.3 -6.86059 -3.24661 0
M  V30 35330 O 6202.51 -5.42847 -3.03646 0
M  V30 35331 C 6203.7 -7.41196 -3.50753 0
M  V30 35332 O 6204.09 -7.27073 -4.86816 0
M  V30 35333 C 6204.58 -6.5273 -2.63741 0
M  V30 35334 C 6203.87 -5.1842 -2.73198 0
M  V30 35335 N 6203.92 -4.38762 -1.4784 0
M  V30 35336 H 6201.08 -8.36803 -2.32493 0
M  V30 35337 H 6200.81 -6.70197 -1.71129 0
M  V30 35338 H 6201.68 -7.03551 -4.13168 0
M  V30 35339 P 6205.64 -7.20834 -5.23717 0
M  V30 35340 O 6205.86 -7.79853 -6.57286 0
M  V30 35341 O 6206.43 -7.79239 -4.12957 0
M  V30 35342 O 6205.89 -5.63315 -5.29344 0
M  V30 35343 C 6204.95 -4.80255 -6.01876 0
M  V30 35344 C 6205.68 -3.64202 -6.65911 0
M  V30 35345 O 6205.89 -2.60694 -5.64732 0
M  V30 35346 C 6207.08 -3.93473 -7.1943 0
M  V30 35347 O 6207.47 -3.02071 -8.21205 0
M  V30 35348 C 6207.96 -3.73047 -5.97036 0
M  V30 35349 C 6207.25 -2.58828 -5.25741 0
M  V30 35350 N 6207.3 -2.68068 -3.77503 0
M  V30 35351 C 6207.22 -3.79715 -2.96723 0
M  V30 35352 N 6207.3 -3.5377 -1.68852 0
M  V30 35353 C 6207.44 -2.15054 -1.63254 0
M  V30 35354 C 6207.57 -1.28964 -0.518571 0
M  V30 35355 O 6207.59 -1.56826 0.679156 0
M  V30 35356 N 6207.69 0.0538097 -0.918425 0
M  V30 35357 C 6207.69 0.494275 -2.22578 0
M  V30 35358 N 6207.82 1.81086 -2.40434 0
M  V30 35359 N 6207.56 -0.313645 -3.27502 0
M  V30 35360 C 6207.44 -1.61829 -2.91033 0
M  V30 35361 H 6204.46 -5.40332 -6.79951 0
M  V30 35362 H 6204.19 -4.41613 -5.32378 0
M  V30 35363 H 6205.06 -3.26331 -7.47797 0
M  V30 35364 H 6207.72 -1.63422 -5.56814 0
M  V30 35365 H 6208 -4.63374 -5.34244 0
M  V30 35366 H 6208.99 -3.44728 -6.25838 0
M  V30 35367 H 6207.15 -4.96652 -7.57263 0
M  V30 35368 H 6207.1 -4.80617 -3.3614 0
M  V30 35369 H 6207.79 0.742702 -0.199384 0
M  V30 35370 H 6207.82 2.20598 -3.35588 0
M  V30 35371 H 6207.92 2.43518 -1.58945 0
M  V30 35372 P 6209.02 -2.75334 -8.47391 0
M  V30 35373 O 6209.24 -2.44571 -9.90142 0
M  V30 35374 O 6209.81 -3.87688 -7.92115 0
M  V30 35375 O 6209.27 -1.4459 -7.59357 0
M  V30 35376 C 6208.33 -0.347608 -7.69215 0
M  V30 35377 C 6209.06 0.96767 -7.52806 0
M  V30 35378 O 6209.27 1.21036 -6.1011 0
M  V30 35379 C 6210.46 1.04544 -8.13308 0
M  V30 35380 O 6210.85 2.38311 -8.41922 0
M  V30 35381 C 6211.34 0.491279 -7.02284 0
M  V30 35382 C 6210.63 0.996264 -5.77469 0
M  V30 35383 N 6210.68 0.0501916 -4.62973 0
M  V30 35384 H 6207.84 -0.374722 -8.67691 0
M  V30 35385 H 6207.57 -0.443485 -6.90277 0
M  V30 35386 H 6208.44 1.75537 -7.96793 0
M  V30 35387 P 6212.4 2.75334 -8.47391 0
M  V30 35388 O 6212.62 3.84128 -9.44797 0
M  V30 35389 O 6213.19 1.51947 -8.68712 0
M  V30 35390 O 6212.65 3.29363 -6.99321 0
M  V30 35391 C 6211.71 4.24011 -6.4274 0
M  V30 35392 C 6212.44 5.20775 -5.52155 0
M  V30 35393 O 6212.65 4.56534 -4.22446 0
M  V30 35394 C 6213.84 5.62629 -5.96531 0
M  V30 35395 O 6214.23 6.87667 -5.41053 0
M  V30 35396 C 6214.72 4.52537 -5.39283 0
M  V30 35397 C 6214.01 4.20027 -4.08623 0
M  V30 35398 N 6214.06 2.76189 -3.71603 0
M  V30 35399 C 6213.98 1.64862 -4.52822 0
M  V30 35400 N 6214.06 0.512671 -3.88633 0
M  V30 35401 C 6214.2 0.888083 -2.54977 0
M  V30 35402 C 6214.33 0.094668 -1.38677 0
M  V30 35403 O 6214.35 -1.13053 -1.28163 0
M  V30 35404 N 6214.45 0.890102 -0.232633 0
M  V30 35405 C 6214.45 2.26958 -0.21772 0
M  V30 35406 N 6214.58 2.84626 0.97925 0
M  V30 35407 N 6214.32 3.0178 -1.31033 0
M  V30 35408 C 6214.2 2.26781 -2.43843 0
M  V30 35409 H 6211.22 4.797 -7.24003 0
M  V30 35410 H 6210.95 3.69856 -5.84513 0
M  V30 35411 H 6211.82 6.10356 -5.41441 0
M  V30 35412 H 6214.48 4.79061 -3.27488 0
M  V30 35413 H 6214.76 3.64906 -6.05785 0
M  V30 35414 H 6215.75 4.8868 -5.2125 0
M  V30 35415 H 6213.91 5.66726 -7.06352 0
M  V30 35416 H 6213.86 1.71169 -5.60966 0
M  V30 35417 H 6214.55 0.419134 0.644739 0
M  V30 35418 H 6214.58 3.87332 1.06098 0
M  V30 35419 H 6214.68 2.26417 1.82483 0
M  V30 35420 P 6215.78 7.20834 -5.23717 0
M  V30 35421 O 6216 8.66104 -5.38572 0
M  V30 35422 O 6216.57 6.33544 -6.1349 0
M  V30 35423 O 6216.03 6.7751 -3.72168 0
M  V30 35424 C 6215.09 7.20825 -2.7076 0
M  V30 35425 C 6215.82 7.45864 -1.40599 0
M  V30 35426 O 6216.03 6.17651 -0.734225 0
M  V30 35427 C 6217.22 8.05808 -1.51899 0
M  V30 35428 O 6217.61 8.74358 -0.335205 0
M  V30 35429 C 6218.1 6.83093 -1.70294 0
M  V30 35430 C 6217.39 5.79992 -0.836974 0
M  V30 35431 N 6217.44 4.41864 -1.38293 0
M  V30 35432 H 6214.6 8.13644 -3.0377 0
M  V30 35433 H 6214.33 6.42788 -2.55485 0
M  V30 35434 H 6215.2 8.12039 -0.792769 0
M  V30 35435 P 6219.16 8.91 -3.06819e-10 0
M  V30 35436 O 6219.38 10.1736 0.733766 0
M  V30 35437 O 6219.95 8.73247 -1.2395 0
M  V30 35438 O 6219.41 7.66872 0.971405 0
M  V30 35439 C 6218.47 7.42212 2.04614 0
M  V30 35440 C 6219.2 6.86059 3.24661 0
M  V30 35441 O 6219.41 5.42847 3.03646 0
M  V30 35442 C 6220.6 7.41196 3.50753 0
M  V30 35443 O 6220.99 7.27073 4.86816 0
M  V30 35444 C 6221.48 6.5273 2.63741 0
M  V30 35445 C 6220.77 5.1842 2.73198 0
M  V30 35446 N 6220.82 4.38668 1.47808 0
M  V30 35447 C 6220.97 3.02239 1.60048 0
M  V30 35448 O 6221.06 2.46459 2.67869 0
M  V30 35449 N 6221.01 2.32436 0.408571 0
M  V30 35450 C 6220.92 2.85471 -0.854993 0
M  V30 35451 C 6220.77 4.28918 -0.887335 0
M  V30 35452 C 6220.72 5.00349 0.255399 0
M  V30 35453 H 6217.98 8.36803 2.32493 0
M  V30 35454 H 6217.71 6.701 1.71105 0
M  V30 35455 H 6218.58 7.03551 4.13168 0
M  V30 35456 H 6221.24 4.59773 3.53894 0
M  V30 35457 H 6221.52 6.88995 1.59871 0
M  V30 35458 H 6222.51 6.46749 3.03687 0
M  V30 35459 H 6220.67 8.46908 3.20714 0
M  V30 35460 H 6220.6 6.08548 0.206986 0
M  V30 35461 P 6222.54 7.20834 5.23717 0
M  V30 35462 O 6222.76 7.79853 6.57286 0
M  V30 35463 O 6223.33 7.79239 4.12957 0
M  V30 35464 O 6222.79 5.63315 5.29344 0
M  V30 35465 C 6221.85 4.80255 6.01876 0
M  V30 35466 C 6222.58 3.64202 6.65911 0
M  V30 35467 O 6222.79 2.60694 5.64732 0
M  V30 35468 C 6223.98 3.93473 7.1943 0
M  V30 35469 O 6224.37 3.02071 8.21205 0
M  V30 35470 C 6224.86 3.73047 5.97036 0
M  V30 35471 C 6224.15 2.58828 5.25741 0
M  V30 35472 N 6224.2 2.68068 3.77503 0
M  V30 35473 H 6221.36 5.40332 6.79951 0
M  V30 35474 H 6221.09 4.41613 5.32378 0
M  V30 35475 H 6221.96 3.26331 7.47797 0
M  V30 35476 P 6225.92 2.75334 8.47391 0
M  V30 35477 O 6226.14 2.44571 9.90142 0
M  V30 35478 O 6226.71 3.87688 7.92115 0
M  V30 35479 O 6226.17 1.4459 7.59357 0
M  V30 35480 C 6225.23 0.347608 7.69215 0
M  V30 35481 C 6225.96 -0.96767 7.52806 0
M  V30 35482 O 6226.17 -1.21036 6.1011 0
M  V30 35483 C 6227.36 -1.04544 8.13308 0
M  V30 35484 O 6227.75 -2.38311 8.41922 0
M  V30 35485 C 6228.24 -0.491279 7.02284 0
M  V30 35486 C 6227.53 -0.996264 5.77469 0
M  V30 35487 N 6227.58 -0.0501916 4.62973 0
M  V30 35488 C 6227.5 1.32786 4.63244 0
M  V30 35489 N 6227.58 1.86957 3.44545 0
M  V30 35490 C 6227.72 0.780241 2.58481 0
M  V30 35491 C 6227.85 0.738536 1.17757 0
M  V30 35492 O 6227.87 1.66794 0.372349 0
M  V30 35493 N 6227.97 -0.58337 0.711393 0
M  V30 35494 C 6227.97 -1.70816 1.51017 0
M  V30 35495 N 6228.1 -2.87826 0.880757 0
M  V30 35496 N 6227.84 -1.67126 2.8339 0
M  V30 35497 C 6227.72 -0.401421 3.30572 0
M  V30 35498 H 6224.74 0.374722 8.67691 0
M  V30 35499 H 6224.47 0.443485 6.90277 0
M  V30 35500 H 6225.34 -1.75537 7.96793 0
M  V30 35501 H 6228 -1.95076 5.46529 0
M  V30 35502 H 6228.28 0.608565 7.04577 0
M  V30 35503 H 6229.27 -0.889672 7.08939 0
M  V30 35504 H 6227.43 -0.43308 9.04564 0
M  V30 35505 H 6227.38 1.91249 5.54442 0
M  V30 35506 H 6228.07 -0.718054 -0.275244 0
M  V30 35507 H 6228.1 -3.75721 1.41832 0
M  V30 35508 H 6228.2 -2.90436 -0.145468 0
M  V30 35509 P 6229.3 -2.75334 8.47391 0
M  V30 35510 O 6229.52 -3.84128 9.44797 0
M  V30 35511 O 6230.09 -1.51947 8.68712 0
M  V30 35512 O 6229.55 -3.29363 6.99321 0
M  V30 35513 C 6228.61 -4.24011 6.4274 0
M  V30 35514 C 6229.34 -5.20775 5.52155 0
M  V30 35515 O 6229.55 -4.56534 4.22446 0
M  V30 35516 C 6230.74 -5.62629 5.96531 0
M  V30 35517 O 6231.13 -6.87667 5.41053 0
M  V30 35518 C 6231.62 -4.52537 5.39283 0
M  V30 35519 C 6230.91 -4.20027 4.08623 0
M  V30 35520 N 6230.96 -2.76189 3.71603 0
M  V30 35521 H 6228.12 -4.797 7.24003 0
M  V30 35522 H 6227.85 -3.69856 5.84513 0
M  V30 35523 H 6228.72 -6.10356 5.41441 0
M  V30 35524 P 6232.68 -7.20834 5.23717 0
M  V30 35525 O 6232.9 -8.66104 5.38572 0
M  V30 35526 O 6233.47 -6.33544 6.1349 0
M  V30 35527 O 6232.93 -6.7751 3.72168 0
M  V30 35528 C 6231.99 -7.20825 2.7076 0
M  V30 35529 C 6232.72 -7.45864 1.40599 0
M  V30 35530 O 6232.93 -6.17651 0.734225 0
M  V30 35531 C 6234.12 -8.05808 1.51899 0
M  V30 35532 O 6234.51 -8.74358 0.335205 0
M  V30 35533 C 6235 -6.83093 1.70294 0
M  V30 35534 C 6234.29 -5.79992 0.836974 0
M  V30 35535 N 6234.34 -4.41864 1.38293 0
M  V30 35536 H 6231.5 -8.13644 3.0377 0
M  V30 35537 H 6231.23 -6.42788 2.55485 0
M  V30 35538 H 6232.1 -8.12039 0.792769 0
M  V30 35539 P 6236.06 -8.91 3.07928e-10 0
M  V30 35540 O 6236.28 -10.1726 -0.733694 0
M  V30 35541 O 6236.85 -8.73148 1.23936 0
M  V30 35542 O 6236.31 -7.66872 -0.971405 0
M  V30 35543 C 6235.37 -7.42309 -2.04641 0
M  V30 35544 C 6236.1 -6.86059 -3.24661 0
M  V30 35545 O 6236.31 -5.42847 -3.03646 0
M  V30 35546 C 6237.5 -7.41196 -3.50753 0
M  V30 35547 O 6237.89 -7.27073 -4.86816 0
M  V30 35548 C 6238.38 -6.5273 -2.63741 0
M  V30 35549 C 6237.67 -5.1842 -2.73198 0
M  V30 35550 N 6237.72 -4.38762 -1.4784 0
M  V30 35551 H 6234.88 -8.36803 -2.32493 0
M  V30 35552 H 6234.61 -6.70197 -1.71129 0
M  V30 35553 H 6235.48 -7.03551 -4.13168 0
M  V30 35554 P 6239.44 -7.20834 -5.23717 0
M  V30 35555 O 6239.66 -7.79853 -6.57286 0
M  V30 35556 O 6240.23 -7.79239 -4.12957 0
M  V30 35557 O 6239.69 -5.63315 -5.29344 0
M  V30 35558 C 6238.75 -4.80255 -6.01876 0
M  V30 35559 C 6239.48 -3.64202 -6.65911 0
M  V30 35560 O 6239.69 -2.60694 -5.64732 0
M  V30 35561 C 6240.88 -3.93473 -7.1943 0
M  V30 35562 O 6241.27 -3.02071 -8.21205 0
M  V30 35563 C 6241.76 -3.73047 -5.97036 0
M  V30 35564 C 6241.05 -2.58828 -5.25741 0
M  V30 35565 N 6241.1 -2.68068 -3.77503 0
M  V30 35566 H 6238.26 -5.40332 -6.79951 0
M  V30 35567 H 6237.99 -4.41613 -5.32378 0
M  V30 35568 H 6238.86 -3.26331 -7.47797 0
M  V30 35569 P 6242.82 -2.75334 -8.47391 0
M  V30 35570 O 6243.04 -2.44571 -9.90142 0
M  V30 35571 O 6243.61 -3.87688 -7.92115 0
M  V30 35572 O 6243.07 -1.4459 -7.59357 0
M  V30 35573 C 6242.13 -0.347608 -7.69215 0
M  V30 35574 C 6242.86 0.96767 -7.52806 0
M  V30 35575 O 6243.07 1.21036 -6.1011 0
M  V30 35576 C 6244.26 1.04544 -8.13308 0
M  V30 35577 O 6244.65 2.38311 -8.41922 0
M  V30 35578 C 6245.14 0.491279 -7.02284 0
M  V30 35579 C 6244.43 0.996264 -5.77469 0
M  V30 35580 N 6244.48 0.0501916 -4.62973 0
M  V30 35581 H 6241.64 -0.374722 -8.67691 0
M  V30 35582 H 6241.37 -0.443485 -6.90277 0
M  V30 35583 H 6242.24 1.75537 -7.96793 0
M  V30 35584 P 6246.2 2.75334 -8.47391 0
M  V30 35585 O 6246.42 3.84128 -9.44797 0
M  V30 35586 O 6246.99 1.51947 -8.68712 0
M  V30 35587 O 6246.45 3.29363 -6.99321 0
M  V30 35588 C 6245.51 4.24011 -6.4274 0
M  V30 35589 C 6246.24 5.20775 -5.52155 0
M  V30 35590 O 6246.45 4.56534 -4.22446 0
M  V30 35591 C 6247.64 5.62629 -5.96531 0
M  V30 35592 O 6248.03 6.87667 -5.41053 0
M  V30 35593 C 6248.52 4.52537 -5.39283 0
M  V30 35594 C 6247.81 4.20027 -4.08623 0
M  V30 35595 N 6247.86 2.76189 -3.71603 0
M  V30 35596 H 6245.02 4.797 -7.24003 0
M  V30 35597 H 6244.75 3.69856 -5.84513 0
M  V30 35598 H 6245.62 6.10356 -5.41441 0
M  V30 35599 P 6249.58 7.20834 -5.23717 0
M  V30 35600 O 6249.8 8.66104 -5.38572 0
M  V30 35601 O 6250.37 6.33544 -6.1349 0
M  V30 35602 O 6249.83 6.7751 -3.72168 0
M  V30 35603 C 6248.89 7.20825 -2.7076 0
M  V30 35604 C 6249.62 7.45864 -1.40599 0
M  V30 35605 O 6249.83 6.17651 -0.734225 0
M  V30 35606 C 6251.02 8.05808 -1.51899 0
M  V30 35607 O 6251.41 8.74358 -0.335205 0
M  V30 35608 C 6251.9 6.83093 -1.70294 0
M  V30 35609 C 6251.19 5.79992 -0.836974 0
M  V30 35610 N 6251.24 4.41864 -1.38293 0
M  V30 35611 H 6248.4 8.13644 -3.0377 0
M  V30 35612 H 6248.13 6.42788 -2.55485 0
M  V30 35613 H 6249 8.12039 -0.792769 0
M  V30 35614 P 6252.96 8.91 -3.09037e-10 0
M  V30 35615 O 6253.18 10.1726 0.733694 0
M  V30 35616 O 6253.75 8.73148 -1.23936 0
M  V30 35617 O 6253.21 7.66872 0.971405 0
M  V30 35618 C 6252.27 7.42309 2.04641 0
M  V30 35619 C 6253 6.86059 3.24661 0
M  V30 35620 O 6253.21 5.42847 3.03646 0
M  V30 35621 C 6254.4 7.41196 3.50753 0
M  V30 35622 O 6254.79 7.27073 4.86816 0
M  V30 35623 C 6255.28 6.5273 2.63741 0
M  V30 35624 C 6254.57 5.1842 2.73198 0
M  V30 35625 N 6254.62 4.38762 1.4784 0
M  V30 35626 H 6251.78 8.36803 2.32493 0
M  V30 35627 H 6251.51 6.70197 1.71129 0
M  V30 35628 H 6252.38 7.03551 4.13168 0
M  V30 35629 P 6256.34 7.20834 5.23717 0
M  V30 35630 O 6256.56 7.79853 6.57286 0
M  V30 35631 O 6257.13 7.79239 4.12957 0
M  V30 35632 O 6256.59 5.63315 5.29344 0
M  V30 35633 C 6255.65 4.80255 6.01876 0
M  V30 35634 C 6256.38 3.64202 6.65911 0
M  V30 35635 O 6256.59 2.60694 5.64732 0
M  V30 35636 C 6257.78 3.93473 7.1943 0
M  V30 35637 O 6258.17 3.02071 8.21205 0
M  V30 35638 C 6258.66 3.73047 5.97036 0
M  V30 35639 C 6257.95 2.58828 5.25741 0
M  V30 35640 N 6258 2.68068 3.77503 0
M  V30 35641 C 6257.92 3.79715 2.96723 0
M  V30 35642 N 6258 3.5377 1.68852 0
M  V30 35643 C 6258.14 2.15054 1.63254 0
M  V30 35644 C 6258.27 1.28964 0.518571 0
M  V30 35645 O 6258.29 1.56826 -0.679156 0
M  V30 35646 N 6258.39 -0.0538097 0.918425 0
M  V30 35647 C 6258.39 -0.494275 2.22578 0
M  V30 35648 N 6258.52 -1.81086 2.40434 0
M  V30 35649 N 6258.26 0.313645 3.27502 0
M  V30 35650 C 6258.14 1.61829 2.91033 0
M  V30 35651 H 6255.16 5.40332 6.79951 0
M  V30 35652 H 6254.89 4.41613 5.32378 0
M  V30 35653 H 6255.76 3.26331 7.47797 0
M  V30 35654 H 6258.42 1.63422 5.56814 0
M  V30 35655 H 6258.69 4.63374 5.34244 0
M  V30 35656 H 6259.69 3.44728 6.25838 0
M  V30 35657 H 6257.85 4.96652 7.57263 0
M  V30 35658 H 6257.8 4.80617 3.3614 0
M  V30 35659 H 6258.49 -0.742702 0.199384 0
M  V30 35660 H 6258.52 -2.20598 3.35588 0
M  V30 35661 H 6258.62 -2.43518 1.58945 0
M  V30 35662 P 6259.72 2.75334 8.47391 0
M  V30 35663 O 6259.94 2.44571 9.90142 0
M  V30 35664 O 6260.51 3.87688 7.92115 0
M  V30 35665 O 6259.97 1.4459 7.59357 0
M  V30 35666 C 6259.03 0.347608 7.69215 0
M  V30 35667 C 6259.76 -0.96767 7.52806 0
M  V30 35668 O 6259.97 -1.21036 6.1011 0
M  V30 35669 C 6261.16 -1.04544 8.13308 0
M  V30 35670 O 6261.55 -2.38311 8.41922 0
M  V30 35671 C 6262.04 -0.491279 7.02284 0
M  V30 35672 C 6261.33 -0.996264 5.77469 0
M  V30 35673 N 6261.38 -0.0501916 4.62973 0
M  V30 35674 H 6258.54 0.374722 8.67691 0
M  V30 35675 H 6258.27 0.443485 6.90277 0
M  V30 35676 H 6259.14 -1.75537 7.96793 0
M  V30 35677 P 6263.1 -2.75334 8.47391 0
M  V30 35678 O 6263.32 -3.84128 9.44797 0
M  V30 35679 O 6263.89 -1.51947 8.68712 0
M  V30 35680 O 6263.35 -3.29363 6.99321 0
M  V30 35681 C 6262.41 -4.24011 6.4274 0
M  V30 35682 C 6263.14 -5.20775 5.52155 0
M  V30 35683 O 6263.35 -4.56534 4.22446 0
M  V30 35684 C 6264.54 -5.62629 5.96531 0
M  V30 35685 O 6264.93 -6.87667 5.41053 0
M  V30 35686 C 6265.42 -4.52537 5.39283 0
M  V30 35687 C 6264.71 -4.20027 4.08623 0
M  V30 35688 N 6264.76 -2.76189 3.71603 0
M  V30 35689 H 6261.92 -4.797 7.24003 0
M  V30 35690 H 6261.65 -3.69856 5.84513 0
M  V30 35691 H 6262.52 -6.10356 5.41441 0
M  V30 35692 P 6266.48 -7.20834 5.23717 0
M  V30 35693 O 6266.7 -8.66104 5.38572 0
M  V30 35694 O 6267.27 -6.33544 6.1349 0
M  V30 35695 O 6266.73 -6.7751 3.72168 0
M  V30 35696 C 6265.79 -7.20825 2.7076 0
M  V30 35697 C 6266.52 -7.45864 1.40599 0
M  V30 35698 O 6266.73 -6.17651 0.734225 0
M  V30 35699 C 6267.92 -8.05808 1.51899 0
M  V30 35700 O 6268.31 -8.74358 0.335205 0
M  V30 35701 C 6268.8 -6.83093 1.70294 0
M  V30 35702 C 6268.09 -5.79992 0.836974 0
M  V30 35703 N 6268.14 -4.41864 1.38293 0
M  V30 35704 H 6265.3 -8.13644 3.0377 0
M  V30 35705 H 6265.03 -6.42788 2.55485 0
M  V30 35706 H 6265.9 -8.12039 0.792769 0
M  V30 35707 P 6269.86 -8.91 3.10146e-10 0
M  V30 35708 O 6270.08 -10.1746 -0.733838 0
M  V30 35709 O 6270.65 -8.73346 1.23964 0
M  V30 35710 O 6270.11 -7.66872 -0.971405 0
M  V30 35711 C 6269.17 -7.42405 -2.04668 0
M  V30 35712 C 6269.9 -6.86059 -3.24661 0
M  V30 35713 O 6270.11 -5.42934 -3.03695 0
M  V30 35714 C 6271.3 -7.41287 -3.50796 0
M  V30 35715 O 6271.69 -7.27073 -4.86816 0
M  V30 35716 C 6272.18 -6.5273 -2.63741 0
M  V30 35717 C 6271.47 -5.1842 -2.73198 0
M  V30 35718 N 6271.52 -4.38762 -1.4784 0
M  V30 35719 H 6268.68 -8.36899 -2.3252 0
M  V30 35720 H 6268.41 -6.70391 -1.71179 0
M  V30 35721 H 6269.28 -7.03638 -4.13219 0
M  V30 35722 H 6271.94 -4.59931 -3.54016 0
M  V30 35723 H 6272.22 -6.88995 -1.59871 0
M  V30 35724 H 6273.21 -6.4684 -3.0373 0
M  V30 35725 H 6271.37 -8.47002 -3.20749 0
M  V30 35726 P 6273.24 -7.20834 -5.23717 0
M  V30 35727 O 6273.46 -7.79853 -6.57286 0
M  V30 35728 O 6274.03 -7.79239 -4.12957 0
M  V30 35729 O 6273.49 -5.63315 -5.29344 0
M  V30 35730 C 6272.55 -4.80255 -6.01876 0
M  V30 35731 C 6273.28 -3.64202 -6.65911 0
M  V30 35732 O 6273.49 -2.60694 -5.64732 0
M  V30 35733 C 6274.68 -3.93473 -7.1943 0
M  V30 35734 O 6275.07 -3.02071 -8.21205 0
M  V30 35735 C 6275.56 -3.73047 -5.97036 0
M  V30 35736 C 6274.85 -2.58828 -5.25741 0
M  V30 35737 N 6274.9 -2.68068 -3.77503 0
M  V30 35738 H 6272.06 -5.40332 -6.79951 0
M  V30 35739 H 6271.79 -4.41613 -5.32378 0
M  V30 35740 H 6272.66 -3.26331 -7.47797 0
M  V30 35741 P 6276.62 -2.75334 -8.47391 0
M  V30 35742 O 6276.84 -2.44571 -9.90142 0
M  V30 35743 O 6277.41 -3.87688 -7.92115 0
M  V30 35744 O 6276.87 -1.4459 -7.59357 0
M  V30 35745 C 6275.93 -0.347608 -7.69215 0
M  V30 35746 C 6276.66 0.96767 -7.52806 0
M  V30 35747 O 6276.87 1.21036 -6.1011 0
M  V30 35748 C 6278.06 1.04544 -8.13308 0
M  V30 35749 O 6278.45 2.38311 -8.41922 0
M  V30 35750 C 6278.94 0.491279 -7.02284 0
M  V30 35751 C 6278.23 0.996264 -5.77469 0
M  V30 35752 N 6278.28 0.0501916 -4.62973 0
M  V30 35753 H 6275.44 -0.374722 -8.67691 0
M  V30 35754 H 6275.17 -0.443485 -6.90277 0
M  V30 35755 H 6276.04 1.75537 -7.96793 0
M  V30 35756 P 6280 2.75334 -8.47391 0
M  V30 35757 O 6280.22 3.84128 -9.44797 0
M  V30 35758 O 6280.79 1.51947 -8.68712 0
M  V30 35759 O 6280.25 3.29363 -6.99321 0
M  V30 35760 C 6279.31 4.24011 -6.4274 0
M  V30 35761 C 6280.04 5.20775 -5.52155 0
M  V30 35762 O 6280.25 4.56534 -4.22446 0
M  V30 35763 C 6281.44 5.62629 -5.96531 0
M  V30 35764 O 6281.83 6.87667 -5.41053 0
M  V30 35765 C 6282.32 4.52537 -5.39283 0
M  V30 35766 C 6281.61 4.20027 -4.08623 0
M  V30 35767 N 6281.66 2.76189 -3.71603 0
M  V30 35768 H 6278.82 4.797 -7.24003 0
M  V30 35769 H 6278.55 3.69856 -5.84513 0
M  V30 35770 H 6279.42 6.10356 -5.41441 0
M  V30 35771 P 6283.38 7.20834 -5.23717 0
M  V30 35772 O 6283.6 8.66189 -5.38625 0
M  V30 35773 O 6284.17 6.33615 -6.1356 0
M  V30 35774 O 6283.63 6.7751 -3.72168 0
M  V30 35775 C 6282.69 7.20732 -2.70725 0
M  V30 35776 C 6283.42 7.45864 -1.40599 0
M  V30 35777 O 6283.63 6.17651 -0.734225 0
M  V30 35778 C 6284.82 8.05808 -1.51899 0
M  V30 35779 O 6285.21 8.74358 -0.335205 0
M  V30 35780 C 6285.7 6.83093 -1.70294 0
M  V30 35781 C 6284.99 5.79992 -0.836974 0
M  V30 35782 N 6285.04 4.41769 -1.38263 0
M  V30 35783 C 6285.19 3.38591 -0.481702 0
M  V30 35784 O 6285.28 3.56839 0.718452 0
M  V30 35785 N 6285.23 2.1206 -1.03569 0
M  V30 35786 C 6285.14 1.80696 -2.36966 0
M  V30 35787 O 6285.19 0.630473 -2.74862 0
M  V30 35788 C 6284.99 2.94845 -3.23898 0
M  V30 35789 C 6284.88 2.65253 -4.70362 0
M  V30 35790 C 6284.94 4.19803 -2.73435 0
M  V30 35791 H 6282.2 8.13644 -3.0377 0
M  V30 35792 H 6281.93 6.42695 -2.55448 0
M  V30 35793 H 6282.8 8.12039 -0.792769 0
M  V30 35794 H 6285.46 5.79978 0.160587 0
M  V30 35795 H 6285.73 6.51379 -2.75643 0
M  V30 35796 H 6286.73 7.01734 -1.34462 0
M  V30 35797 H 6284.89 8.73674 -2.38337 0
M  V30 35798 H 6284.82 5.04492 -3.4095 0
M  V30 35799 H 6285.85 2.83924 -5.1913 0
M  V30 35800 H 6284.11 3.29824 -5.15163 0
M  V30 35801 H 6284.6 1.59723 -4.84449 0
M  V30 35802 H 6285.34 1.35644 -0.399345 0
M  V30 35803 P 6286.76 8.91 -3.11255e-10 0
M  V30 35804 O 6286.98 10.1726 0.733694 0
M  V30 35805 O 6287.55 8.73148 -1.23936 0
M  V30 35806 O 6287.01 7.66872 0.971405 0
M  V30 35807 C 6286.07 7.42309 2.04641 0
M  V30 35808 C 6286.8 6.86059 3.24661 0
M  V30 35809 O 6287.01 5.42847 3.03646 0
M  V30 35810 C 6288.2 7.41196 3.50753 0
M  V30 35811 O 6288.59 7.27073 4.86816 0
M  V30 35812 C 6289.08 6.5273 2.63741 0
M  V30 35813 C 6288.37 5.1842 2.73198 0
M  V30 35814 N 6288.42 4.38762 1.4784 0
M  V30 35815 H 6285.58 8.36803 2.32493 0
M  V30 35816 H 6285.31 6.70197 1.71129 0
M  V30 35817 H 6286.18 7.03551 4.13168 0
M  V30 35818 P 6290.14 7.20834 5.23717 0
M  V30 35819 O 6290.36 7.79853 6.57286 0
M  V30 35820 O 6290.93 7.79239 4.12957 0
M  V30 35821 O 6290.39 5.63315 5.29344 0
M  V30 35822 C 6289.45 4.80255 6.01876 0
M  V30 35823 C 6290.18 3.64202 6.65911 0
M  V30 35824 O 6290.39 2.60694 5.64732 0
M  V30 35825 C 6291.58 3.93473 7.1943 0
M  V30 35826 O 6291.97 3.02071 8.21205 0
M  V30 35827 C 6292.46 3.73047 5.97036 0
M  V30 35828 C 6291.75 2.58828 5.25741 0
M  V30 35829 N 6291.8 2.68068 3.77503 0
M  V30 35830 H 6288.96 5.40332 6.79951 0
M  V30 35831 H 6288.69 4.41613 5.32378 0
M  V30 35832 H 6289.56 3.26331 7.47797 0
M  V30 35833 P 6293.52 2.75334 8.47391 0
M  V30 35834 O 6293.74 2.44571 9.90142 0
M  V30 35835 O 6294.31 3.87688 7.92115 0
M  V30 35836 O 6293.77 1.4459 7.59357 0
M  V30 35837 C 6292.83 0.347608 7.69215 0
M  V30 35838 C 6293.56 -0.96767 7.52806 0
M  V30 35839 O 6293.77 -1.21036 6.1011 0
M  V30 35840 C 6294.96 -1.04544 8.13308 0
M  V30 35841 O 6295.35 -2.38311 8.41922 0
M  V30 35842 C 6295.84 -0.491279 7.02284 0
M  V30 35843 C 6295.13 -0.996264 5.77469 0
M  V30 35844 N 6295.18 -0.0501916 4.62973 0
M  V30 35845 H 6292.34 0.374722 8.67691 0
M  V30 35846 H 6292.07 0.443485 6.90277 0
M  V30 35847 H 6292.94 -1.75537 7.96793 0
M  V30 35848 P 6296.9 -2.75334 8.47391 0
M  V30 35849 O 6297.12 -3.84128 9.44797 0
M  V30 35850 O 6297.69 -1.51947 8.68712 0
M  V30 35851 O 6297.15 -3.29363 6.99321 0
M  V30 35852 C 6296.21 -4.24011 6.4274 0
M  V30 35853 C 6296.94 -5.20775 5.52155 0
M  V30 35854 O 6297.15 -4.56534 4.22446 0
M  V30 35855 C 6298.34 -5.62629 5.96531 0
M  V30 35856 O 6298.73 -6.87667 5.41053 0
M  V30 35857 C 6299.22 -4.52537 5.39283 0
M  V30 35858 C 6298.51 -4.20027 4.08623 0
M  V30 35859 N 6298.56 -2.76189 3.71603 0
M  V30 35860 H 6295.72 -4.797 7.24003 0
M  V30 35861 H 6295.45 -3.69856 5.84513 0
M  V30 35862 H 6296.32 -6.10356 5.41441 0
M  V30 35863 P 6300.28 -7.20834 5.23717 0
M  V30 35864 O 6300.5 -8.66189 5.38625 0
M  V30 35865 O 6301.07 -6.33615 6.1356 0
M  V30 35866 O 6300.53 -6.7751 3.72168 0
M  V30 35867 C 6299.59 -7.20732 2.70725 0
M  V30 35868 C 6300.32 -7.45864 1.40599 0
M  V30 35869 O 6300.53 -6.17651 0.734225 0
M  V30 35870 C 6301.72 -8.05808 1.51899 0
M  V30 35871 O 6302.11 -8.74358 0.335205 0
M  V30 35872 C 6302.6 -6.83093 1.70294 0
M  V30 35873 C 6301.89 -5.79992 0.836974 0
M  V30 35874 N 6301.94 -4.41769 1.38263 0
M  V30 35875 C 6302.09 -3.38591 0.481702 0
M  V30 35876 O 6302.18 -3.56839 -0.718452 0
M  V30 35877 N 6302.13 -2.1206 1.03569 0
M  V30 35878 C 6302.04 -1.80696 2.36966 0
M  V30 35879 O 6302.09 -0.630473 2.74862 0
M  V30 35880 C 6301.89 -2.94845 3.23898 0
M  V30 35881 C 6301.78 -2.65253 4.70362 0
M  V30 35882 C 6301.84 -4.19803 2.73435 0
M  V30 35883 H 6299.1 -8.13644 3.0377 0
M  V30 35884 H 6298.83 -6.42695 2.55448 0
M  V30 35885 H 6299.7 -8.12039 0.792769 0
M  V30 35886 H 6302.36 -5.79978 -0.160587 0
M  V30 35887 H 6302.63 -6.51379 2.75643 0
M  V30 35888 H 6303.63 -7.01734 1.34462 0
M  V30 35889 H 6301.79 -8.73674 2.38337 0
M  V30 35890 H 6301.72 -5.04492 3.4095 0
M  V30 35891 H 6302.75 -2.83924 5.1913 0
M  V30 35892 H 6301.01 -3.29824 5.15163 0
M  V30 35893 H 6301.5 -1.59723 4.84449 0
M  V30 35894 H 6302.24 -1.35644 0.399345 0
M  V30 35895 P 6303.66 -8.91 3.12364e-10 0
M  V30 35896 O 6303.88 -10.1726 -0.733694 0
M  V30 35897 O 6304.45 -8.73148 1.23936 0
M  V30 35898 O 6303.91 -7.66872 -0.971405 0
M  V30 35899 C 6302.97 -7.42309 -2.04641 0
M  V30 35900 C 6303.7 -6.86059 -3.24661 0
M  V30 35901 O 6303.91 -5.42847 -3.03646 0
M  V30 35902 C 6305.1 -7.41196 -3.50753 0
M  V30 35903 O 6305.49 -7.27073 -4.86816 0
M  V30 35904 C 6305.98 -6.5273 -2.63741 0
M  V30 35905 C 6305.27 -5.1842 -2.73198 0
M  V30 35906 N 6305.32 -4.38762 -1.4784 0
M  V30 35907 H 6302.48 -8.36803 -2.32493 0
M  V30 35908 H 6302.21 -6.70197 -1.71129 0
M  V30 35909 H 6303.08 -7.03551 -4.13168 0
M  V30 35910 P 6307.04 -7.20834 -5.23717 0
M  V30 35911 O 6307.26 -7.79853 -6.57286 0
M  V30 35912 O 6307.83 -7.79239 -4.12957 0
M  V30 35913 O 6307.29 -5.63315 -5.29344 0
M  V30 35914 C 6306.35 -4.80255 -6.01876 0
M  V30 35915 C 6307.08 -3.64202 -6.65911 0
M  V30 35916 O 6307.29 -2.60694 -5.64732 0
M  V30 35917 C 6308.48 -3.93473 -7.1943 0
M  V30 35918 O 6308.87 -3.02071 -8.21205 0
M  V30 35919 C 6309.36 -3.73047 -5.97036 0
M  V30 35920 C 6308.65 -2.58828 -5.25741 0
M  V30 35921 N 6308.7 -2.68068 -3.77503 0
M  V30 35922 H 6305.86 -5.40332 -6.79951 0
M  V30 35923 H 6305.59 -4.41613 -5.32378 0
M  V30 35924 H 6306.46 -3.26331 -7.47797 0
M  V30 35925 P 6310.42 -2.75334 -8.47391 0
M  V30 35926 O 6310.64 -2.44571 -9.90142 0
M  V30 35927 O 6311.21 -3.87688 -7.92115 0
M  V30 35928 O 6310.67 -1.4459 -7.59357 0
M  V30 35929 C 6309.73 -0.347608 -7.69215 0
M  V30 35930 C 6310.46 0.96767 -7.52806 0
M  V30 35931 O 6310.67 1.21036 -6.1011 0
M  V30 35932 C 6311.86 1.04544 -8.13308 0
M  V30 35933 O 6312.25 2.38311 -8.41922 0
M  V30 35934 C 6312.74 0.491279 -7.02284 0
M  V30 35935 C 6312.03 0.996264 -5.77469 0
M  V30 35936 N 6312.08 0.0501916 -4.62973 0
M  V30 35937 H 6309.24 -0.374722 -8.67691 0
M  V30 35938 H 6308.97 -0.443485 -6.90277 0
M  V30 35939 H 6309.84 1.75537 -7.96793 0
M  V30 35940 P 6313.8 2.75334 -8.47391 0
M  V30 35941 O 6314.02 3.84128 -9.44797 0
M  V30 35942 O 6314.59 1.51947 -8.68712 0
M  V30 35943 O 6314.05 3.29363 -6.99321 0
M  V30 35944 C 6313.11 4.24011 -6.4274 0
M  V30 35945 C 6313.84 5.20775 -5.52155 0
M  V30 35946 O 6314.05 4.56534 -4.22446 0
M  V30 35947 C 6315.24 5.62629 -5.96531 0
M  V30 35948 O 6315.63 6.87667 -5.41053 0
M  V30 35949 C 6316.12 4.52537 -5.39283 0
M  V30 35950 C 6315.41 4.20027 -4.08623 0
M  V30 35951 N 6315.46 2.76189 -3.71603 0
M  V30 35952 C 6315.38 1.64862 -4.52822 0
M  V30 35953 N 6315.46 0.512671 -3.88633 0
M  V30 35954 C 6315.6 0.888083 -2.54977 0
M  V30 35955 C 6315.73 0.094668 -1.38677 0
M  V30 35956 O 6315.75 -1.13053 -1.28163 0
M  V30 35957 N 6315.85 0.890102 -0.232633 0
M  V30 35958 C 6315.85 2.26958 -0.21772 0
M  V30 35959 N 6315.98 2.84626 0.97925 0
M  V30 35960 N 6315.72 3.0178 -1.31033 0
M  V30 35961 C 6315.6 2.26781 -2.43843 0
M  V30 35962 H 6312.62 4.797 -7.24003 0
M  V30 35963 H 6312.35 3.69856 -5.84513 0
M  V30 35964 H 6313.22 6.10356 -5.41441 0
M  V30 35965 H 6315.88 4.79061 -3.27488 0
M  V30 35966 H 6316.15 3.64906 -6.05785 0
M  V30 35967 H 6317.15 4.8868 -5.2125 0
M  V30 35968 H 6315.31 5.66726 -7.06352 0
M  V30 35969 H 6315.26 1.71169 -5.60966 0
M  V30 35970 H 6315.95 0.419134 0.644739 0
M  V30 35971 H 6315.98 3.87332 1.06098 0
M  V30 35972 H 6316.08 2.26417 1.82483 0
M  V30 35973 P 6317.18 7.20834 -5.23717 0
M  V30 35974 O 6317.4 8.66104 -5.38572 0
M  V30 35975 O 6317.97 6.33544 -6.1349 0
M  V30 35976 O 6317.43 6.7751 -3.72168 0
M  V30 35977 C 6316.49 7.20825 -2.7076 0
M  V30 35978 C 6317.22 7.45864 -1.40599 0
M  V30 35979 O 6317.43 6.17651 -0.734225 0
M  V30 35980 C 6318.62 8.05808 -1.51899 0
M  V30 35981 O 6319.01 8.74358 -0.335205 0
M  V30 35982 C 6319.5 6.83093 -1.70294 0
M  V30 35983 C 6318.79 5.79992 -0.836974 0
M  V30 35984 N 6318.84 4.41864 -1.38293 0
M  V30 35985 H 6316 8.13644 -3.0377 0
M  V30 35986 H 6315.73 6.42788 -2.55485 0
M  V30 35987 H 6316.6 8.12039 -0.792769 0
M  V30 35988 P 6320.56 8.91 -3.13473e-10 0
M  V30 35989 O 6320.78 10.1726 0.733694 0
M  V30 35990 O 6321.35 8.73148 -1.23936 0
M  V30 35991 O 6320.81 7.66872 0.971405 0
M  V30 35992 C 6319.87 7.42309 2.04641 0
M  V30 35993 C 6320.6 6.86059 3.24661 0
M  V30 35994 O 6320.81 5.42847 3.03646 0
M  V30 35995 C 6322 7.41196 3.50753 0
M  V30 35996 O 6322.39 7.27073 4.86816 0
M  V30 35997 C 6322.88 6.5273 2.63741 0
M  V30 35998 C 6322.17 5.1842 2.73198 0
M  V30 35999 N 6322.22 4.38762 1.4784 0
M  V30 36000 H 6319.38 8.36803 2.32493 0
M  V30 36001 H 6319.11 6.70197 1.71129 0
M  V30 36002 H 6319.98 7.03551 4.13168 0
M  V30 36003 P 6323.94 7.20834 5.23717 0
M  V30 36004 O 6324.16 7.79853 6.57286 0
M  V30 36005 O 6324.73 7.79239 4.12957 0
M  V30 36006 O 6324.19 5.63315 5.29344 0
M  V30 36007 C 6323.25 4.80255 6.01876 0
M  V30 36008 C 6323.98 3.64202 6.65911 0
M  V30 36009 O 6324.19 2.60694 5.64732 0
M  V30 36010 C 6325.38 3.93473 7.1943 0
M  V30 36011 O 6325.77 3.02071 8.21205 0
M  V30 36012 C 6326.26 3.73047 5.97036 0
M  V30 36013 C 6325.55 2.58828 5.25741 0
M  V30 36014 N 6325.6 2.68068 3.77503 0
M  V30 36015 H 6322.76 5.40332 6.79951 0
M  V30 36016 H 6322.49 4.41613 5.32378 0
M  V30 36017 H 6323.36 3.26331 7.47797 0
M  V30 36018 P 6327.32 2.75334 8.47391 0
M  V30 36019 O 6327.54 2.44571 9.90142 0
M  V30 36020 O 6328.11 3.87688 7.92115 0
M  V30 36021 O 6327.57 1.4459 7.59357 0
M  V30 36022 C 6326.63 0.347608 7.69215 0
M  V30 36023 C 6327.36 -0.96767 7.52806 0
M  V30 36024 O 6327.57 -1.21036 6.1011 0
M  V30 36025 C 6328.76 -1.04544 8.13308 0
M  V30 36026 O 6329.15 -2.38311 8.41922 0
M  V30 36027 C 6329.64 -0.491279 7.02284 0
M  V30 36028 C 6328.93 -0.996264 5.77469 0
M  V30 36029 N 6328.98 -0.0501916 4.62973 0
M  V30 36030 H 6326.14 0.374722 8.67691 0
M  V30 36031 H 6325.87 0.443485 6.90277 0
M  V30 36032 H 6326.74 -1.75537 7.96793 0
M  V30 36033 P 6330.7 -2.75334 8.47391 0
M  V30 36034 O 6330.92 -3.84128 9.44797 0
M  V30 36035 O 6331.49 -1.51947 8.68712 0
M  V30 36036 O 6330.95 -3.29363 6.99321 0
M  V30 36037 C 6330.01 -4.24011 6.4274 0
M  V30 36038 C 6330.74 -5.20775 5.52155 0
M  V30 36039 O 6330.95 -4.56534 4.22446 0
M  V30 36040 C 6332.14 -5.62629 5.96531 0
M  V30 36041 O 6332.53 -6.87667 5.41053 0
M  V30 36042 C 6333.02 -4.52537 5.39283 0
M  V30 36043 C 6332.31 -4.20027 4.08623 0
M  V30 36044 N 6332.36 -2.76189 3.71603 0
M  V30 36045 H 6329.52 -4.797 7.24003 0
M  V30 36046 H 6329.25 -3.69856 5.84513 0
M  V30 36047 H 6330.12 -6.10356 5.41441 0
M  V30 36048 P 6334.08 -7.20834 5.23717 0
M  V30 36049 O 6334.3 -8.66189 5.38625 0
M  V30 36050 O 6334.87 -6.33615 6.1356 0
M  V30 36051 O 6334.33 -6.7751 3.72168 0
M  V30 36052 C 6333.39 -7.20732 2.70725 0
M  V30 36053 C 6334.12 -7.45864 1.40599 0
M  V30 36054 O 6334.33 -6.17651 0.734225 0
M  V30 36055 C 6335.52 -8.05808 1.51899 0
M  V30 36056 O 6335.91 -8.74358 0.335205 0
M  V30 36057 C 6336.4 -6.83093 1.70294 0
M  V30 36058 C 6335.69 -5.79992 0.836974 0
M  V30 36059 N 6335.74 -4.41769 1.38263 0
M  V30 36060 C 6335.89 -3.38591 0.481702 0
M  V30 36061 O 6335.98 -3.56839 -0.718452 0
M  V30 36062 N 6335.93 -2.1206 1.03569 0
M  V30 36063 C 6335.84 -1.80696 2.36966 0
M  V30 36064 O 6335.89 -0.630473 2.74862 0
M  V30 36065 C 6335.69 -2.94845 3.23898 0
M  V30 36066 C 6335.58 -2.65253 4.70362 0
M  V30 36067 C 6335.64 -4.19803 2.73435 0
M  V30 36068 H 6332.9 -8.13644 3.0377 0
M  V30 36069 H 6332.63 -6.42695 2.55448 0
M  V30 36070 H 6333.5 -8.12039 0.792769 0
M  V30 36071 H 6336.16 -5.79978 -0.160587 0
M  V30 36072 H 6336.43 -6.51379 2.75643 0
M  V30 36073 H 6337.43 -7.01734 1.34462 0
M  V30 36074 H 6335.59 -8.73674 2.38337 0
M  V30 36075 H 6335.52 -5.04492 3.4095 0
M  V30 36076 H 6336.55 -2.83924 5.1913 0
M  V30 36077 H 6334.81 -3.29824 5.15163 0
M  V30 36078 H 6335.3 -1.59723 4.84449 0
M  V30 36079 H 6336.04 -1.35644 0.399345 0
M  V30 36080 P 6337.46 -8.91 3.14582e-10 0
M  V30 36081 O 6337.68 -10.1726 -0.733694 0
M  V30 36082 O 6338.25 -8.73148 1.23936 0
M  V30 36083 O 6337.71 -7.66872 -0.971405 0
M  V30 36084 C 6336.77 -7.42309 -2.04641 0
M  V30 36085 C 6337.5 -6.86059 -3.24661 0
M  V30 36086 O 6337.71 -5.42847 -3.03646 0
M  V30 36087 C 6338.9 -7.41196 -3.50753 0
M  V30 36088 O 6339.29 -7.27073 -4.86816 0
M  V30 36089 C 6339.78 -6.5273 -2.63741 0
M  V30 36090 C 6339.07 -5.1842 -2.73198 0
M  V30 36091 N 6339.12 -4.38762 -1.4784 0
M  V30 36092 H 6336.28 -8.36803 -2.32493 0
M  V30 36093 H 6336.01 -6.70197 -1.71129 0
M  V30 36094 H 6336.88 -7.03551 -4.13168 0
M  V30 36095 P 6340.84 -7.20834 -5.23717 0
M  V30 36096 O 6341.06 -7.79853 -6.57286 0
M  V30 36097 O 6341.63 -7.79239 -4.12957 0
M  V30 36098 O 6341.09 -5.63315 -5.29344 0
M  V30 36099 C 6340.15 -4.80255 -6.01876 0
M  V30 36100 C 6340.88 -3.64202 -6.65911 0
M  V30 36101 O 6341.09 -2.60694 -5.64732 0
M  V30 36102 C 6342.28 -3.93473 -7.1943 0
M  V30 36103 O 6342.67 -3.02071 -8.21205 0
M  V30 36104 C 6343.16 -3.73047 -5.97036 0
M  V30 36105 C 6342.45 -2.58828 -5.25741 0
M  V30 36106 N 6342.5 -2.68068 -3.77503 0
M  V30 36107 H 6339.66 -5.40332 -6.79951 0
M  V30 36108 H 6339.39 -4.41613 -5.32378 0
M  V30 36109 H 6340.26 -3.26331 -7.47797 0
M  V30 36110 P 6344.22 -2.75334 -8.47391 0
M  V30 36111 O 6344.44 -2.44571 -9.90142 0
M  V30 36112 O 6345.01 -3.87688 -7.92115 0
M  V30 36113 O 6344.47 -1.4459 -7.59357 0
M  V30 36114 C 6343.53 -0.347608 -7.69215 0
M  V30 36115 C 6344.26 0.96767 -7.52806 0
M  V30 36116 O 6344.47 1.21036 -6.1011 0
M  V30 36117 C 6345.66 1.04544 -8.13308 0
M  V30 36118 O 6346.05 2.38311 -8.41922 0
M  V30 36119 C 6346.54 0.491279 -7.02284 0
M  V30 36120 C 6345.83 0.996264 -5.77469 0
M  V30 36121 N 6345.88 0.0501916 -4.62973 0
M  V30 36122 H 6343.04 -0.374722 -8.67691 0
M  V30 36123 H 6342.77 -0.443485 -6.90277 0
M  V30 36124 H 6343.64 1.75537 -7.96793 0
M  V30 36125 P 6347.6 2.75334 -8.47391 0
M  V30 36126 O 6347.82 3.84166 -9.4489 0
M  V30 36127 O 6348.39 1.51964 -8.6881 0
M  V30 36128 O 6347.85 3.29363 -6.99321 0
M  V30 36129 C 6346.91 4.23956 -6.42656 0
M  V30 36130 C 6347.64 5.20775 -5.52155 0
M  V30 36131 O 6347.85 4.56534 -4.22446 0
M  V30 36132 C 6349.04 5.62629 -5.96531 0
M  V30 36133 O 6349.43 6.87667 -5.41053 0
M  V30 36134 C 6349.92 4.52537 -5.39283 0
M  V30 36135 C 6349.21 4.20027 -4.08623 0
M  V30 36136 N 6349.26 2.7613 -3.71522 0
M  V30 36137 C 6349.41 2.45612 -2.37989 0
M  V30 36138 O 6349.5 3.30919 -1.51621 0
M  V30 36139 N 6349.45 1.10684 -2.08435 0
M  V30 36140 C 6349.36 0.0690084 -2.9792 0
M  V30 36141 O 6349.41 -1.10553 -2.59426 0
M  V30 36142 C 6349.21 0.481522 -4.35345 0
M  V30 36143 C 6349.1 -0.618778 -5.36443 0
M  V30 36144 C 6349.16 1.78906 -4.67968 0
M  V30 36145 H 6346.42 4.797 -7.24003 0
M  V30 36146 H 6346.15 3.69802 -5.84429 0
M  V30 36147 H 6347.02 6.10356 -5.41441 0
M  V30 36148 H 6349.68 4.78651 -3.27911 0
M  V30 36149 H 6349.95 3.64957 -6.05871 0
M  V30 36150 H 6350.95 4.8868 -5.2125 0
M  V30 36151 H 6349.11 5.66726 -7.06352 0
M  V30 36152 H 6349.04 2.07737 -5.72367 0
M  V30 36153 H 6350.07 -0.754375 -5.86871 0
M  V30 36154 H 6348.33 -0.359721 -6.10641 0
M  V30 36155 H 6348.82 -1.55533 -4.8581 0
M  V30 36156 H 6349.56 0.862651 -1.12037 0
M  V30 36157 P 6350.98 7.20834 -5.23717 0
M  V30 36158 O 6351.2 8.66104 -5.38572 0
M  V30 36159 O 6351.77 6.33544 -6.1349 0
M  V30 36160 O 6351.23 6.7751 -3.72168 0
M  V30 36161 C 6350.29 7.20825 -2.7076 0
M  V30 36162 C 6351.02 7.45864 -1.40599 0
M  V30 36163 O 6351.23 6.17651 -0.734225 0
M  V30 36164 C 6352.42 8.05808 -1.51899 0
M  V30 36165 O 6352.81 8.74358 -0.335205 0
M  V30 36166 C 6353.3 6.83093 -1.70294 0
M  V30 36167 C 6352.59 5.79992 -0.836974 0
M  V30 36168 N 6352.64 4.41864 -1.38293 0
M  V30 36169 H 6349.8 8.13644 -3.0377 0
M  V30 36170 H 6349.53 6.42788 -2.55485 0
M  V30 36171 H 6350.4 8.12039 -0.792769 0
M  V30 36172 P 6354.36 8.91 -3.15691e-10 0
M  V30 36173 O 6354.58 10.1726 0.733694 0
M  V30 36174 O 6355.15 8.73148 -1.23936 0
M  V30 36175 O 6354.61 7.66872 0.971405 0
M  V30 36176 C 6353.67 7.42309 2.04641 0
M  V30 36177 C 6354.4 6.86059 3.24661 0
M  V30 36178 O 6354.61 5.42847 3.03646 0
M  V30 36179 C 6355.8 7.41196 3.50753 0
M  V30 36180 O 6356.19 7.27073 4.86816 0
M  V30 36181 C 6356.68 6.5273 2.63741 0
M  V30 36182 C 6355.97 5.1842 2.73198 0
M  V30 36183 N 6356.02 4.38762 1.4784 0
M  V30 36184 H 6353.18 8.36803 2.32493 0
M  V30 36185 H 6352.91 6.70197 1.71129 0
M  V30 36186 H 6353.78 7.03551 4.13168 0
M  V30 36187 P 6357.74 7.20834 5.23717 0
M  V30 36188 O 6357.96 7.80006 6.57415 0
M  V30 36189 O 6358.53 7.79416 4.13051 0
M  V30 36190 O 6357.99 5.63315 5.29344 0
M  V30 36191 C 6357.05 4.80318 6.01954 0
M  V30 36192 C 6357.78 3.64202 6.65911 0
M  V30 36193 O 6357.99 2.60736 5.64823 0
M  V30 36194 C 6359.18 3.93521 7.19518 0
M  V30 36195 O 6359.57 3.02071 8.21205 0
M  V30 36196 C 6360.06 3.73047 5.97036 0
M  V30 36197 C 6359.35 2.58828 5.25741 0
M  V30 36198 N 6359.4 2.68068 3.77503 0
M  V30 36199 H 6356.56 5.40394 6.8003 0
M  V30 36200 H 6356.29 4.41741 5.32532 0
M  V30 36201 H 6357.16 3.26371 7.47889 0
M  V30 36202 H 6359.82 1.64007 5.56746 0
M  V30 36203 H 6360.1 4.63439 5.3432 0
M  V30 36204 H 6361.09 3.44776 6.25925 0
M  V30 36205 H 6359.25 4.96707 7.57347 0
M  V30 36206 P 6361.12 2.75334 8.47391 0
M  V30 36207 O 6361.34 2.44619 9.90336 0
M  V30 36208 O 6361.91 3.87776 7.92294 0
M  V30 36209 O 6361.37 1.4459 7.59357 0
M  V30 36210 C 6360.43 0.347653 7.69315 0
M  V30 36211 C 6361.16 -0.96767 7.52806 0
M  V30 36212 O 6361.37 -1.21055 6.10208 0
M  V30 36213 C 6362.56 -1.04557 8.13408 0
M  V30 36214 O 6362.95 -2.38311 8.41922 0
M  V30 36215 C 6363.44 -0.491279 7.02284 0
M  V30 36216 C 6362.73 -0.996264 5.77469 0
M  V30 36217 N 6362.78 -0.0501916 4.62973 0
M  V30 36218 H 6359.94 0.374765 8.67791 0
M  V30 36219 H 6359.67 0.443613 6.90476 0
M  V30 36220 H 6360.54 -1.75559 7.96891 0
M  V30 36221 H 6363.2 -1.94563 5.46818 0
M  V30 36222 H 6363.48 0.608651 7.04676 0
M  V30 36223 H 6364.47 -0.889796 7.09039 0
M  V30 36224 H 6362.63 -0.433128 9.04664 0
M  V30 36225 P 6364.5 -2.75334 8.47391 0
M  V30 36226 O 6364.72 -3.84128 9.44797 0
M  V30 36227 O 6365.29 -1.51947 8.68712 0
M  V30 36228 O 6364.75 -3.29363 6.99321 0
M  V30 36229 C 6363.81 -4.24011 6.4274 0
M  V30 36230 C 6364.54 -5.20775 5.52155 0
M  V30 36231 O 6364.75 -4.56534 4.22446 0
M  V30 36232 C 6365.94 -5.62629 5.96531 0
M  V30 36233 O 6366.33 -6.87667 5.41053 0
M  V30 36234 C 6366.82 -4.52537 5.39283 0
M  V30 36235 C 6366.11 -4.20027 4.08623 0
M  V30 36236 N 6366.16 -2.76189 3.71603 0
M  V30 36237 C 6366.08 -1.64862 4.52822 0
M  V30 36238 N 6366.16 -0.512671 3.88633 0
M  V30 36239 C 6366.3 -0.888083 2.54977 0
M  V30 36240 C 6366.43 -0.094668 1.38677 0
M  V30 36241 N 6366.55 -0.890102 0.232633 0
M  V30 36242 C 6366.55 -2.26958 0.21772 0
M  V30 36243 N 6366.68 -2.84626 -0.97925 0
M  V30 36244 N 6366.42 -3.0178 1.31033 0
M  V30 36245 C 6366.3 -2.26781 2.43843 0
M  V30 36246 H 6363.32 -4.797 7.24003 0
M  V30 36247 H 6363.05 -3.69856 5.84513 0
M  V30 36248 H 6363.92 -6.10356 5.41441 0
M  V30 36249 P 6367.88 -7.20834 5.23717 0
M  V30 36250 O 6368.1 -8.66104 5.38572 0
M  V30 36251 O 6368.67 -6.33544 6.1349 0
M  V30 36252 O 6368.13 -6.7751 3.72168 0
M  V30 36253 C 6367.19 -7.20825 2.7076 0
M  V30 36254 C 6367.92 -7.45864 1.40599 0
M  V30 36255 O 6368.13 -6.17651 0.734225 0
M  V30 36256 C 6369.32 -8.05808 1.51899 0
M  V30 36257 O 6369.71 -8.74358 0.335205 0
M  V30 36258 C 6370.2 -6.83093 1.70294 0
M  V30 36259 C 6369.49 -5.79992 0.836974 0
M  V30 36260 N 6369.54 -4.41864 1.38293 0
M  V30 36261 C 6369.46 -3.99538 2.69438 0
M  V30 36262 N 6369.54 -2.69909 2.84277 0
M  V30 36263 C 6369.68 -2.21719 1.5408 0
M  V30 36264 C 6369.81 -0.891712 1.06628 0
M  V30 36265 N 6369.93 -0.856846 -0.334985 0
M  V30 36266 C 6369.93 -1.9641 -1.15789 0
M  V30 36267 N 6370.06 -1.72708 -2.46522 0
M  V30 36268 N 6369.8 -3.21165 -0.713741 0
M  V30 36269 C 6369.68 -3.26797 0.639748 0
M  V30 36270 H 6366.7 -8.13644 3.0377 0
M  V30 36271 H 6366.43 -6.42788 2.55485 0
M  V30 36272 H 6367.3 -8.12039 0.792769 0
M  V30 36273 P 6371.26 -8.91 3.168e-10 0
M  V30 36274 O 6371.48 -10.1726 -0.733694 0
M  V30 36275 O 6372.05 -8.73148 1.23936 0
M  V30 36276 O 6371.51 -7.66872 -0.971405 0
M  V30 36277 C 6370.57 -7.42309 -2.04641 0
M  V30 36278 C 6371.3 -6.86059 -3.24661 0
M  V30 36279 O 6371.51 -5.42847 -3.03646 0
M  V30 36280 C 6372.7 -7.41196 -3.50753 0
M  V30 36281 O 6373.09 -7.27073 -4.86816 0
M  V30 36282 C 6373.58 -6.5273 -2.63741 0
M  V30 36283 C 6372.87 -5.1842 -2.73198 0
M  V30 36284 N 6372.92 -4.38762 -1.4784 0
M  V30 36285 H 6370.08 -8.36803 -2.32493 0
M  V30 36286 H 6369.81 -6.70197 -1.71129 0
M  V30 36287 H 6370.68 -7.03551 -4.13168 0
M  V30 36288 P 6374.64 -7.20834 -5.23717 0
M  V30 36289 O 6374.86 -7.79853 -6.57286 0
M  V30 36290 O 6375.43 -7.79239 -4.12957 0
M  V30 36291 O 6374.89 -5.63315 -5.29344 0
M  V30 36292 C 6373.95 -4.80255 -6.01876 0
M  V30 36293 C 6374.68 -3.64202 -6.65911 0
M  V30 36294 O 6374.89 -2.60694 -5.64732 0
M  V30 36295 C 6376.08 -3.93473 -7.1943 0
M  V30 36296 O 6376.47 -3.02071 -8.21205 0
M  V30 36297 C 6376.96 -3.73047 -5.97036 0
M  V30 36298 C 6376.25 -2.58828 -5.25741 0
M  V30 36299 N 6376.3 -2.68068 -3.77503 0
M  V30 36300 H 6373.46 -5.40332 -6.79951 0
M  V30 36301 H 6373.19 -4.41613 -5.32378 0
M  V30 36302 H 6374.06 -3.26331 -7.47797 0
M  V30 36303 P 6378.02 -2.75334 -8.47391 0
M  V30 36304 O 6378.24 -2.44571 -9.90142 0
M  V30 36305 O 6378.81 -3.87688 -7.92115 0
M  V30 36306 O 6378.27 -1.4459 -7.59357 0
M  V30 36307 C 6377.33 -0.347608 -7.69215 0
M  V30 36308 C 6378.06 0.96767 -7.52806 0
M  V30 36309 O 6378.27 1.21036 -6.1011 0
M  V30 36310 C 6379.46 1.04544 -8.13308 0
M  V30 36311 O 6379.85 2.38311 -8.41922 0
M  V30 36312 C 6380.34 0.491279 -7.02284 0
M  V30 36313 C 6379.63 0.996264 -5.77469 0
M  V30 36314 N 6379.68 0.0501916 -4.62973 0
M  V30 36315 H 6376.84 -0.374722 -8.67691 0
M  V30 36316 H 6376.57 -0.443485 -6.90277 0
M  V30 36317 H 6377.44 1.75537 -7.96793 0
M  V30 36318 P 6381.4 2.75334 -8.47391 0
M  V30 36319 O 6381.62 3.84128 -9.44797 0
M  V30 36320 O 6382.19 1.51947 -8.68712 0
M  V30 36321 O 6381.65 3.29363 -6.99321 0
M  V30 36322 C 6380.71 4.24011 -6.4274 0
M  V30 36323 C 6381.44 5.20775 -5.52155 0
M  V30 36324 O 6381.65 4.56534 -4.22446 0
M  V30 36325 C 6382.84 5.62629 -5.96531 0
M  V30 36326 O 6383.23 6.87667 -5.41053 0
M  V30 36327 C 6383.72 4.52537 -5.39283 0
M  V30 36328 C 6383.01 4.20027 -4.08623 0
M  V30 36329 N 6383.06 2.76189 -3.71603 0
M  V30 36330 H 6380.22 4.797 -7.24003 0
M  V30 36331 H 6379.95 3.69856 -5.84513 0
M  V30 36332 H 6380.82 6.10356 -5.41441 0
M  V30 36333 P 6384.78 7.20834 -5.23717 0
M  V30 36334 O 6385 8.66104 -5.38572 0
M  V30 36335 O 6385.57 6.33544 -6.1349 0
M  V30 36336 O 6385.03 6.7751 -3.72168 0
M  V30 36337 C 6384.09 7.20825 -2.7076 0
M  V30 36338 C 6384.82 7.45864 -1.40599 0
M  V30 36339 O 6385.03 6.17651 -0.734225 0
M  V30 36340 C 6386.22 8.05808 -1.51899 0
M  V30 36341 O 6386.61 8.74358 -0.335205 0
M  V30 36342 C 6387.1 6.83093 -1.70294 0
M  V30 36343 C 6386.39 5.79992 -0.836974 0
M  V30 36344 N 6386.44 4.41864 -1.38293 0
M  V30 36345 H 6383.6 8.13644 -3.0377 0
M  V30 36346 H 6383.33 6.42788 -2.55485 0
M  V30 36347 H 6384.2 8.12039 -0.792769 0
M  V30 36348 P 6388.16 8.91 -3.17909e-10 0
M  V30 36349 O 6388.38 10.1726 0.733694 0
M  V30 36350 O 6388.95 8.73148 -1.23936 0
M  V30 36351 O 6388.41 7.66872 0.971405 0
M  V30 36352 C 6387.47 7.42309 2.04641 0
M  V30 36353 C 6388.2 6.86059 3.24661 0
M  V30 36354 O 6388.41 5.42847 3.03646 0
M  V30 36355 C 6389.6 7.41196 3.50753 0
M  V30 36356 O 6389.99 7.27073 4.86816 0
M  V30 36357 C 6390.48 6.5273 2.63741 0
M  V30 36358 C 6389.77 5.1842 2.73198 0
M  V30 36359 N 6389.82 4.38762 1.4784 0
M  V30 36360 H 6386.98 8.36803 2.32493 0
M  V30 36361 H 6386.71 6.70197 1.71129 0
M  V30 36362 H 6387.58 7.03551 4.13168 0
M  V30 36363 P 6391.54 7.20834 5.23717 0
M  V30 36364 O 6391.76 7.80006 6.57415 0
M  V30 36365 O 6392.33 7.79416 4.13051 0
M  V30 36366 O 6391.79 5.63315 5.29344 0
M  V30 36367 C 6390.85 4.80318 6.01954 0
M  V30 36368 C 6391.58 3.64202 6.65911 0
M  V30 36369 O 6391.79 2.60736 5.64823 0
M  V30 36370 C 6392.98 3.93521 7.19518 0
M  V30 36371 O 6393.37 3.02071 8.21205 0
M  V30 36372 C 6393.86 3.73047 5.97036 0
M  V30 36373 C 6393.15 2.58828 5.25741 0
M  V30 36374 N 6393.2 2.68068 3.77503 0
M  V30 36375 C 6393.12 3.80474 2.99159 0
M  V30 36376 N 6393.19 3.55622 1.71925 0
M  V30 36377 C 6393.34 2.1832 1.65733 0
M  V30 36378 C 6393.47 1.28842 0.572777 0
M  V30 36379 N 6393.48 1.66875 -0.70098 0
M  V30 36380 N 6393.59 -0.016788 0.859836 0
M  V30 36381 C 6393.58 -0.398145 2.13316 0
M  V30 36382 N 6393.46 0.328224 3.22333 0
M  V30 36383 C 6393.34 1.62992 2.90383 0
M  V30 36384 H 6390.36 5.40394 6.8003 0
M  V30 36385 H 6390.09 4.41741 5.32532 0
M  V30 36386 H 6390.96 3.26371 7.47889 0
M  V30 36387 H 6393.62 1.64007 5.56746 0
M  V30 36388 H 6393.9 4.63439 5.3432 0
M  V30 36389 H 6394.89 3.44776 6.25925 0
M  V30 36390 H 6393.05 4.96707 7.57347 0
M  V30 36391 H 6393.01 4.8089 3.39924 0
M  V30 36392 H 6393.39 2.66547 -0.941919 0
M  V30 36393 H 6393.58 0.965341 -1.44766 0
M  V30 36394 H 6393.69 -1.46427 2.29697 0
M  V30 36395 P 6394.92 2.75334 8.47391 0
M  V30 36396 O 6395.14 2.44571 9.90142 0
M  V30 36397 O 6395.71 3.87688 7.92115 0
M  V30 36398 O 6395.17 1.4459 7.59357 0
M  V30 36399 C 6394.23 0.347608 7.69215 0
M  V30 36400 C 6394.96 -0.96767 7.52806 0
M  V30 36401 O 6395.17 -1.21036 6.1011 0
M  V30 36402 C 6396.36 -1.04544 8.13308 0
M  V30 36403 O 6396.75 -2.38311 8.41922 0
M  V30 36404 C 6397.24 -0.491279 7.02284 0
M  V30 36405 C 6396.53 -0.996264 5.77469 0
M  V30 36406 N 6396.58 -0.0501916 4.62973 0
M  V30 36407 H 6393.74 0.374722 8.67691 0
M  V30 36408 H 6393.47 0.443485 6.90277 0
M  V30 36409 H 6394.34 -1.75537 7.96793 0
M  V30 36410 P 6398.3 -2.75334 8.47391 0
M  V30 36411 O 6398.52 -3.84128 9.44797 0
M  V30 36412 O 6399.09 -1.51947 8.68712 0
M  V30 36413 O 6398.55 -3.29363 6.99321 0
M  V30 36414 C 6397.61 -4.24011 6.4274 0
M  V30 36415 C 6398.34 -5.20775 5.52155 0
M  V30 36416 O 6398.55 -4.56534 4.22446 0
M  V30 36417 C 6399.74 -5.62629 5.96531 0
M  V30 36418 O 6400.13 -6.87667 5.41053 0
M  V30 36419 C 6400.62 -4.52537 5.39283 0
M  V30 36420 C 6399.91 -4.20027 4.08623 0
M  V30 36421 N 6399.96 -2.76189 3.71603 0
M  V30 36422 H 6397.12 -4.797 7.24003 0
M  V30 36423 H 6396.85 -3.69856 5.84513 0
M  V30 36424 H 6397.72 -6.10356 5.41441 0
M  V30 36425 P 6401.68 -7.20834 5.23717 0
M  V30 36426 O 6401.9 -8.66104 5.38572 0
M  V30 36427 O 6402.47 -6.33544 6.1349 0
M  V30 36428 O 6401.93 -6.7751 3.72168 0
M  V30 36429 C 6400.99 -7.20825 2.7076 0
M  V30 36430 C 6401.72 -7.45864 1.40599 0
M  V30 36431 O 6401.93 -6.17651 0.734225 0
M  V30 36432 C 6403.12 -8.05808 1.51899 0
M  V30 36433 O 6403.51 -8.74358 0.335205 0
M  V30 36434 C 6404 -6.83093 1.70294 0
M  V30 36435 C 6403.29 -5.79992 0.836974 0
M  V30 36436 N 6403.34 -4.41864 1.38293 0
M  V30 36437 C 6403.26 -3.99538 2.69438 0
M  V30 36438 N 6403.34 -2.69909 2.84277 0
M  V30 36439 C 6403.48 -2.21719 1.5408 0
M  V30 36440 C 6403.61 -0.891712 1.06628 0
M  V30 36441 O 6403.63 0.161298 1.70137 0
M  V30 36442 N 6403.73 -0.856846 -0.334985 0
M  V30 36443 C 6403.73 -1.9641 -1.15789 0
M  V30 36444 N 6403.86 -1.72708 -2.46522 0
M  V30 36445 N 6403.6 -3.21165 -0.713741 0
M  V30 36446 C 6403.48 -3.26797 0.639748 0
M  V30 36447 H 6400.5 -8.13644 3.0377 0
M  V30 36448 H 6400.23 -6.42788 2.55485 0
M  V30 36449 H 6401.1 -8.12039 0.792769 0
M  V30 36450 H 6403.76 -5.80061 -0.166416 0
M  V30 36451 H 6404.03 -6.51287 2.75604 0
M  V30 36452 H 6405.03 -7.01734 1.34462 0
M  V30 36453 H 6403.19 -8.73674 2.38337 0
M  V30 36454 H 6403.14 -4.68207 3.53221 0
M  V30 36455 H 6403.83 0.0398818 -0.767965 0
M  V30 36456 H 6403.86 -2.50995 -3.13503 0
M  V30 36457 H 6403.96 -0.759148 -2.80716 0
M  V30 36458 P 6405.06 -8.91 3.19018e-10 0
M  V30 36459 O 6405.28 -10.1726 -0.733694 0
M  V30 36460 O 6405.85 -8.73148 1.23936 0
M  V30 36461 O 6405.31 -7.66872 -0.971405 0
M  V30 36462 C 6404.37 -7.42309 -2.04641 0
M  V30 36463 C 6405.1 -6.86059 -3.24661 0
M  V30 36464 O 6405.31 -5.42847 -3.03646 0
M  V30 36465 C 6406.5 -7.41196 -3.50753 0
M  V30 36466 O 6406.89 -7.27073 -4.86816 0
M  V30 36467 C 6407.38 -6.5273 -2.63741 0
M  V30 36468 C 6406.67 -5.1842 -2.73198 0
M  V30 36469 N 6406.72 -4.38762 -1.4784 0
M  V30 36470 H 6403.88 -8.36803 -2.32493 0
M  V30 36471 H 6403.61 -6.70197 -1.71129 0
M  V30 36472 H 6404.48 -7.03551 -4.13168 0
M  V30 36473 P 6408.44 -7.20834 -5.23717 0
M  V30 36474 O 6408.66 -7.7993 -6.57351 0
M  V30 36475 O 6409.23 -7.79328 -4.13004 0
M  V30 36476 O 6408.69 -5.63315 -5.29344 0
M  V30 36477 C 6407.75 -4.80193 -6.01798 0
M  V30 36478 C 6408.48 -3.64202 -6.65911 0
M  V30 36479 O 6408.69 -2.60694 -5.64732 0
M  V30 36480 C 6409.88 -3.93473 -7.1943 0
M  V30 36481 O 6410.27 -3.02071 -8.21205 0
M  V30 36482 C 6410.76 -3.73047 -5.97036 0
M  V30 36483 C 6410.05 -2.58828 -5.25741 0
M  V30 36484 N 6410.1 -2.6801 -3.77422 0
M  V30 36485 C 6410.25 -1.50443 -3.07133 0
M  V30 36486 O 6410.34 -0.419406 -3.61576 0
M  V30 36487 N 6410.29 -1.6403 -1.69677 0
M  V30 36488 C 6410.2 -2.81206 -0.986255 0
M  V30 36489 O 6410.25 -2.80892 0.249754 0
M  V30 36490 C 6410.05 -3.99158 -1.80325 0
M  V30 36491 C 6409.94 -5.29309 -1.06921 0
M  V30 36492 C 6410 -3.89779 -3.1476 0
M  V30 36493 H 6407.26 -5.40332 -6.79951 0
M  V30 36494 H 6406.99 -4.41549 -5.32301 0
M  V30 36495 H 6407.86 -3.26331 -7.47797 0
M  V30 36496 H 6410.52 -1.6395 -5.56554 0
M  V30 36497 H 6410.79 -4.63439 -5.3432 0
M  V30 36498 H 6411.79 -3.44728 -6.25838 0
M  V30 36499 H 6409.95 -4.96652 -7.57263 0
M  V30 36500 H 6409.88 -4.80159 -3.74441 0
M  V30 36501 H 6410.91 -5.81459 -1.09608 0
M  V30 36502 H 6409.17 -5.9187 -1.54487 0
M  V30 36503 H 6409.66 -5.10095 -0.0220288 0
M  V30 36504 H 6410.4 -0.798962 -1.16664 0
M  V30 36505 P 6411.82 -2.75334 -8.47391 0
M  V30 36506 O 6412.04 -2.44571 -9.90142 0
M  V30 36507 O 6412.61 -3.87688 -7.92115 0
M  V30 36508 O 6412.07 -1.4459 -7.59357 0
M  V30 36509 C 6411.13 -0.347608 -7.69215 0
M  V30 36510 C 6411.86 0.96767 -7.52806 0
M  V30 36511 O 6412.07 1.21036 -6.1011 0
M  V30 36512 C 6413.26 1.04544 -8.13308 0
M  V30 36513 O 6413.65 2.38311 -8.41922 0
M  V30 36514 C 6414.14 0.491279 -7.02284 0
M  V30 36515 C 6413.43 0.996264 -5.77469 0
M  V30 36516 N 6413.48 0.0501916 -4.62973 0
M  V30 36517 H 6410.64 -0.374722 -8.67691 0
M  V30 36518 H 6410.37 -0.443485 -6.90277 0
M  V30 36519 H 6411.24 1.75537 -7.96793 0
M  V30 36520 P 6415.2 2.75334 -8.47391 0
M  V30 36521 O 6415.42 3.84128 -9.44797 0
M  V30 36522 O 6415.99 1.51947 -8.68712 0
M  V30 36523 O 6415.45 3.29363 -6.99321 0
M  V30 36524 C 6414.51 4.24011 -6.4274 0
M  V30 36525 C 6415.24 5.20775 -5.52155 0
M  V30 36526 O 6415.45 4.56534 -4.22446 0
M  V30 36527 C 6416.64 5.62629 -5.96531 0
M  V30 36528 O 6417.03 6.87667 -5.41053 0
M  V30 36529 C 6417.52 4.52537 -5.39283 0
M  V30 36530 C 6416.81 4.20027 -4.08623 0
M  V30 36531 N 6416.86 2.76189 -3.71603 0
M  V30 36532 H 6414.02 4.797 -7.24003 0
M  V30 36533 H 6413.75 3.69856 -5.84513 0
M  V30 36534 H 6414.62 6.10356 -5.41441 0
M  V30 36535 P 6418.58 7.20834 -5.23717 0
M  V30 36536 O 6418.8 8.66104 -5.38572 0
M  V30 36537 O 6419.37 6.33544 -6.1349 0
M  V30 36538 O 6418.83 6.7751 -3.72168 0
M  V30 36539 C 6417.89 7.20825 -2.7076 0
M  V30 36540 C 6418.62 7.45864 -1.40599 0
M  V30 36541 O 6418.83 6.17651 -0.734225 0
M  V30 36542 C 6420.02 8.05808 -1.51899 0
M  V30 36543 O 6420.41 8.74358 -0.335205 0
M  V30 36544 C 6420.9 6.83093 -1.70294 0
M  V30 36545 C 6420.19 5.79992 -0.836974 0
M  V30 36546 N 6420.24 4.41864 -1.38293 0
M  V30 36547 H 6417.4 8.13644 -3.0377 0
M  V30 36548 H 6417.13 6.42788 -2.55485 0
M  V30 36549 H 6418 8.12039 -0.792769 0
M  V30 36550 P 6421.96 8.91 -3.20127e-10 0
M  V30 36551 O 6422.18 10.1726 0.733694 0
M  V30 36552 O 6422.75 8.73148 -1.23936 0
M  V30 36553 O 6422.21 7.66872 0.971405 0
M  V30 36554 C 6421.27 7.42309 2.04641 0
M  V30 36555 C 6422 6.86059 3.24661 0
M  V30 36556 O 6422.21 5.42847 3.03646 0
M  V30 36557 C 6423.4 7.41196 3.50753 0
M  V30 36558 O 6423.79 7.27073 4.86816 0
M  V30 36559 C 6424.28 6.5273 2.63741 0
M  V30 36560 C 6423.57 5.1842 2.73198 0
M  V30 36561 N 6423.62 4.38762 1.4784 0
M  V30 36562 H 6420.78 8.36803 2.32493 0
M  V30 36563 H 6420.51 6.70197 1.71129 0
M  V30 36564 H 6421.38 7.03551 4.13168 0
M  V30 36565 P 6425.34 7.20834 5.23717 0
M  V30 36566 O 6425.56 7.79853 6.57286 0
M  V30 36567 O 6426.13 7.79239 4.12957 0
M  V30 36568 O 6425.59 5.63315 5.29344 0
M  V30 36569 C 6424.65 4.80255 6.01876 0
M  V30 36570 C 6425.38 3.64202 6.65911 0
M  V30 36571 O 6425.59 2.60694 5.64732 0
M  V30 36572 C 6426.78 3.93473 7.1943 0
M  V30 36573 O 6427.17 3.02071 8.21205 0
M  V30 36574 C 6427.66 3.73047 5.97036 0
M  V30 36575 C 6426.95 2.58828 5.25741 0
M  V30 36576 N 6427 2.68068 3.77503 0
M  V30 36577 H 6424.16 5.40332 6.79951 0
M  V30 36578 H 6423.89 4.41613 5.32378 0
M  V30 36579 H 6424.76 3.26331 7.47797 0
M  V30 36580 P 6428.72 2.75334 8.47391 0
M  V30 36581 O 6428.94 2.44571 9.90142 0
M  V30 36582 O 6429.51 3.87688 7.92115 0
M  V30 36583 O 6428.97 1.4459 7.59357 0
M  V30 36584 C 6428.03 0.347608 7.69215 0
M  V30 36585 C 6428.76 -0.96767 7.52806 0
M  V30 36586 O 6428.97 -1.21036 6.1011 0
M  V30 36587 C 6430.16 -1.04544 8.13308 0
M  V30 36588 O 6430.55 -2.38311 8.41922 0
M  V30 36589 C 6431.04 -0.491279 7.02284 0
M  V30 36590 C 6430.33 -0.996264 5.77469 0
M  V30 36591 N 6430.38 -0.0501916 4.62973 0
M  V30 36592 H 6427.54 0.374722 8.67691 0
M  V30 36593 H 6427.27 0.443485 6.90277 0
M  V30 36594 H 6428.14 -1.75537 7.96793 0
M  V30 36595 P 6432.1 -2.75334 8.47391 0
M  V30 36596 O 6432.32 -3.84128 9.44797 0
M  V30 36597 O 6432.89 -1.51947 8.68712 0
M  V30 36598 O 6432.35 -3.29363 6.99321 0
M  V30 36599 C 6431.41 -4.24011 6.4274 0
M  V30 36600 C 6432.14 -5.20775 5.52155 0
M  V30 36601 O 6432.35 -4.56534 4.22446 0
M  V30 36602 C 6433.54 -5.62629 5.96531 0
M  V30 36603 O 6433.93 -6.87667 5.41053 0
M  V30 36604 C 6434.42 -4.52537 5.39283 0
M  V30 36605 C 6433.71 -4.20027 4.08623 0
M  V30 36606 N 6433.76 -2.76189 3.71603 0
M  V30 36607 H 6430.92 -4.797 7.24003 0
M  V30 36608 H 6430.65 -3.69856 5.84513 0
M  V30 36609 H 6431.52 -6.10356 5.41441 0
M  V30 36610 P 6435.48 -7.20834 5.23717 0
M  V30 36611 O 6435.7 -8.66104 5.38572 0
M  V30 36612 O 6436.27 -6.33544 6.1349 0
M  V30 36613 O 6435.73 -6.7751 3.72168 0
M  V30 36614 C 6434.79 -7.20825 2.7076 0
M  V30 36615 C 6435.52 -7.45864 1.40599 0
M  V30 36616 O 6435.73 -6.17651 0.734225 0
M  V30 36617 C 6436.92 -8.05808 1.51899 0
M  V30 36618 O 6437.31 -8.74358 0.335205 0
M  V30 36619 C 6437.8 -6.83093 1.70294 0
M  V30 36620 C 6437.09 -5.79992 0.836974 0
M  V30 36621 N 6437.14 -4.41864 1.38293 0
M  V30 36622 H 6434.3 -8.13644 3.0377 0
M  V30 36623 H 6434.03 -6.42788 2.55485 0
M  V30 36624 H 6434.9 -8.12039 0.792769 0
M  V30 36625 P 6438.86 -8.91 3.21236e-10 0
M  V30 36626 O 6439.08 -10.1726 -0.733694 0
M  V30 36627 O 6439.65 -8.73148 1.23936 0
M  V30 36628 O 6439.11 -7.66872 -0.971405 0
M  V30 36629 C 6438.17 -7.42309 -2.04641 0
M  V30 36630 C 6438.9 -6.86059 -3.24661 0
M  V30 36631 O 6439.11 -5.42847 -3.03646 0
M  V30 36632 C 6440.3 -7.41196 -3.50753 0
M  V30 36633 O 6440.69 -7.27073 -4.86816 0
M  V30 36634 C 6441.18 -6.5273 -2.63741 0
M  V30 36635 C 6440.47 -5.1842 -2.73198 0
M  V30 36636 N 6440.52 -4.38762 -1.4784 0
M  V30 36637 H 6437.68 -8.36803 -2.32493 0
M  V30 36638 H 6437.41 -6.70197 -1.71129 0
M  V30 36639 H 6438.28 -7.03551 -4.13168 0
M  V30 36640 P 6442.24 -7.20834 -5.23717 0
M  V30 36641 O 6442.46 -7.80006 -6.57415 0
M  V30 36642 O 6443.03 -7.79416 -4.13051 0
M  V30 36643 O 6442.49 -5.63315 -5.29344 0
M  V30 36644 C 6441.55 -4.80318 -6.01954 0
M  V30 36645 C 6442.28 -3.64202 -6.65911 0
M  V30 36646 O 6442.49 -2.60736 -5.64823 0
M  V30 36647 C 6443.68 -3.93521 -7.19518 0
M  V30 36648 O 6444.07 -3.02071 -8.21205 0
M  V30 36649 C 6444.56 -3.73047 -5.97036 0
M  V30 36650 C 6443.85 -2.58828 -5.25741 0
M  V30 36651 N 6443.9 -2.68068 -3.77503 0
M  V30 36652 C 6443.82 -3.80474 -2.99159 0
M  V30 36653 N 6443.89 -3.55622 -1.71925 0
M  V30 36654 C 6444.04 -2.1832 -1.65733 0
M  V30 36655 C 6444.17 -1.28842 -0.572777 0
M  V30 36656 N 6444.18 -1.66875 0.70098 0
M  V30 36657 N 6444.29 0.016788 -0.859836 0
M  V30 36658 C 6444.28 0.398145 -2.13316 0
M  V30 36659 N 6444.16 -0.328224 -3.22333 0
M  V30 36660 C 6444.04 -1.62992 -2.90383 0
M  V30 36661 H 6441.06 -5.40394 -6.8003 0
M  V30 36662 H 6440.79 -4.41741 -5.32532 0
M  V30 36663 H 6441.66 -3.26371 -7.47889 0
M  V30 36664 H 6444.31 -1.64007 -5.56746 0
M  V30 36665 H 6444.59 -4.63439 -5.3432 0
M  V30 36666 H 6445.59 -3.44776 -6.25925 0
M  V30 36667 H 6443.75 -4.96707 -7.57347 0
M  V30 36668 H 6443.71 -4.8089 -3.39924 0
M  V30 36669 H 6444.09 -2.66547 0.941919 0
M  V30 36670 H 6444.28 -0.965341 1.44766 0
M  V30 36671 H 6444.39 1.46427 -2.29697 0
M  V30 36672 P 6445.62 -2.75334 -8.47391 0
M  V30 36673 O 6445.84 -2.44571 -9.90142 0
M  V30 36674 O 6446.41 -3.87688 -7.92115 0
M  V30 36675 O 6445.87 -1.4459 -7.59357 0
M  V30 36676 C 6444.93 -0.347608 -7.69215 0
M  V30 36677 C 6445.66 0.96767 -7.52806 0
M  V30 36678 O 6445.87 1.21036 -6.1011 0
M  V30 36679 C 6447.06 1.04544 -8.13308 0
M  V30 36680 O 6447.45 2.38311 -8.41922 0
M  V30 36681 C 6447.94 0.491279 -7.02284 0
M  V30 36682 C 6447.23 0.996264 -5.77469 0
M  V30 36683 N 6447.28 0.0501916 -4.62973 0
M  V30 36684 H 6444.44 -0.374722 -8.67691 0
M  V30 36685 H 6444.17 -0.443485 -6.90277 0
M  V30 36686 H 6445.04 1.75537 -7.96793 0
M  V30 36687 P 6449 2.75334 -8.47391 0
M  V30 36688 O 6449.22 3.84128 -9.44797 0
M  V30 36689 O 6449.79 1.51947 -8.68712 0
M  V30 36690 O 6449.25 3.29363 -6.99321 0
M  V30 36691 C 6448.31 4.24011 -6.4274 0
M  V30 36692 C 6449.04 5.20775 -5.52155 0
M  V30 36693 O 6449.25 4.56534 -4.22446 0
M  V30 36694 C 6450.44 5.62629 -5.96531 0
M  V30 36695 O 6450.83 6.87667 -5.41053 0
M  V30 36696 C 6451.32 4.52537 -5.39283 0
M  V30 36697 C 6450.61 4.20027 -4.08623 0
M  V30 36698 N 6450.66 2.76189 -3.71603 0
M  V30 36699 H 6447.82 4.797 -7.24003 0
M  V30 36700 H 6447.55 3.69856 -5.84513 0
M  V30 36701 H 6448.42 6.10356 -5.41441 0
M  V30 36702 P 6452.38 7.20834 -5.23717 0
M  V30 36703 O 6452.6 8.66104 -5.38572 0
M  V30 36704 O 6453.17 6.33544 -6.1349 0
M  V30 36705 O 6452.63 6.7751 -3.72168 0
M  V30 36706 C 6451.69 7.20825 -2.7076 0
M  V30 36707 C 6452.42 7.45864 -1.40599 0
M  V30 36708 O 6452.63 6.17651 -0.734225 0
M  V30 36709 C 6453.82 8.05808 -1.51899 0
M  V30 36710 O 6454.21 8.74358 -0.335205 0
M  V30 36711 C 6454.7 6.83093 -1.70294 0
M  V30 36712 C 6453.99 5.79992 -0.836974 0
M  V30 36713 N 6454.04 4.41864 -1.38293 0
M  V30 36714 C 6453.96 3.99538 -2.69438 0
M  V30 36715 N 6454.04 2.69909 -2.84277 0
M  V30 36716 C 6454.18 2.21719 -1.5408 0
M  V30 36717 C 6454.31 0.891712 -1.06628 0
M  V30 36718 N 6454.43 0.856846 0.334985 0
M  V30 36719 C 6454.43 1.9641 1.15789 0
M  V30 36720 N 6454.56 1.72708 2.46522 0
M  V30 36721 N 6454.3 3.21165 0.713741 0
M  V30 36722 C 6454.18 3.26797 -0.639748 0
M  V30 36723 H 6451.2 8.13644 -3.0377 0
M  V30 36724 H 6450.93 6.42788 -2.55485 0
M  V30 36725 H 6451.8 8.12039 -0.792769 0
M  V30 36726 P 6455.76 8.91 -3.22345e-10 0
M  V30 36727 O 6455.98 10.1726 0.733694 0
M  V30 36728 O 6456.55 8.73148 -1.23936 0
M  V30 36729 O 6456.01 7.66872 0.971405 0
M  V30 36730 C 6455.07 7.42309 2.04641 0
M  V30 36731 C 6455.8 6.86059 3.24661 0
M  V30 36732 O 6456.01 5.42847 3.03646 0
M  V30 36733 C 6457.2 7.41196 3.50753 0
M  V30 36734 O 6457.59 7.27073 4.86816 0
M  V30 36735 C 6458.08 6.5273 2.63741 0
M  V30 36736 C 6457.37 5.1842 2.73198 0
M  V30 36737 N 6457.42 4.38762 1.4784 0
M  V30 36738 C 6457.34 4.81605 0.168631 0
M  V30 36739 N 6457.42 3.85454 -0.713363 0
M  V30 36740 C 6457.56 2.6994 0.0566958 0
M  V30 36741 C 6457.69 1.34815 -0.338502 0
M  V30 36742 O 6457.71 0.869548 -1.47125 0
M  V30 36743 N 6457.81 0.496304 0.77465 0
M  V30 36744 C 6457.81 0.908403 2.09122 0
M  V30 36745 N 6457.94 -0.0517805 3.00955 0
M  V30 36746 N 6457.68 2.17875 2.46519 0
M  V30 36747 C 6457.56 3.01988 1.4033 0
M  V30 36748 H 6454.58 8.36803 2.32493 0
M  V30 36749 H 6454.31 6.70197 1.71129 0
M  V30 36750 H 6455.18 7.03551 4.13168 0
M  V30 36751 H 6457.83 4.59498 3.54415 0
M  V30 36752 H 6458.11 6.88898 1.59848 0
M  V30 36753 H 6459.11 6.46749 3.03687 0
M  V30 36754 H 6457.27 8.46908 3.20714 0
M  V30 36755 H 6457.22 5.86405 -0.105564 0
M  V30 36756 H 6457.9 -0.483664 0.597855 0
M  V30 36757 H 6457.94 0.187865 4.0116 0
M  V30 36758 H 6458.04 -1.03585 2.71726 0
M  V30 36759 P 6459.14 7.20834 5.23717 0
M  V30 36760 O 6459.36 7.79853 6.57286 0
M  V30 36761 O 6459.93 7.79239 4.12957 0
M  V30 36762 O 6459.39 5.63315 5.29344 0
M  V30 36763 C 6458.45 4.80255 6.01876 0
M  V30 36764 C 6459.18 3.64202 6.65911 0
M  V30 36765 O 6459.39 2.60694 5.64732 0
M  V30 36766 C 6460.58 3.93473 7.1943 0
M  V30 36767 O 6460.97 3.02071 8.21205 0
M  V30 36768 C 6461.46 3.73047 5.97036 0
M  V30 36769 C 6460.75 2.58828 5.25741 0
M  V30 36770 N 6460.8 2.68068 3.77503 0
M  V30 36771 H 6457.96 5.40332 6.79951 0
M  V30 36772 H 6457.69 4.41613 5.32378 0
M  V30 36773 H 6458.56 3.26331 7.47797 0
M  V30 36774 P 6462.52 2.75334 8.47391 0
M  V30 36775 O 6462.74 2.44619 9.90336 0
M  V30 36776 O 6463.31 3.87776 7.92294 0
M  V30 36777 O 6462.77 1.4459 7.59357 0
M  V30 36778 C 6461.83 0.347653 7.69315 0
M  V30 36779 C 6462.56 -0.96767 7.52806 0
M  V30 36780 O 6462.77 -1.21055 6.10208 0
M  V30 36781 C 6463.96 -1.04557 8.13408 0
M  V30 36782 O 6464.35 -2.38311 8.41922 0
M  V30 36783 C 6464.84 -0.491279 7.02284 0
M  V30 36784 C 6464.13 -0.996264 5.77469 0
M  V30 36785 N 6464.18 -0.0501916 4.62973 0
M  V30 36786 C 6464.1 1.31969 4.65661 0
M  V30 36787 N 6464.17 1.86649 3.48119 0
M  V30 36788 C 6464.32 0.792089 2.62406 0
M  V30 36789 C 6464.45 0.705684 1.2207 0
M  V30 36790 N 6464.46 1.76207 0.413762 0
M  V30 36791 N 6464.57 -0.518981 0.685754 0
M  V30 36792 C 6464.56 -1.57595 1.49174 0
M  V30 36793 N 6464.44 -1.62909 2.80066 0
M  V30 36794 C 6464.32 -0.388195 3.3073 0
M  V30 36795 H 6461.34 0.374765 8.67791 0
M  V30 36796 H 6461.07 0.443613 6.90476 0
M  V30 36797 H 6461.94 -1.75559 7.96891 0
M  V30 36798 H 6464.59 -1.94563 5.46818 0
M  V30 36799 H 6464.87 0.608651 7.04676 0
M  V30 36800 H 6465.87 -0.889796 7.09039 0
M  V30 36801 H 6464.03 -0.433128 9.04664 0
M  V30 36802 H 6463.99 1.89246 5.57664 0
M  V30 36803 H 6464.37 2.71005 0.804694 0
M  V30 36804 H 6464.56 1.63189 -0.603768 0
M  V30 36805 H 6464.67 -2.53475 0.997614 0
M  V30 36806 P 6465.9 -2.75334 8.47391 0
M  V30 36807 O 6466.12 -3.84204 9.44982 0
M  V30 36808 O 6466.69 -1.51982 8.68909 0
M  V30 36809 O 6466.15 -3.29363 6.99321 0
M  V30 36810 C 6465.21 -4.24066 6.42823 0
M  V30 36811 C 6465.94 -5.20775 5.52155 0
M  V30 36812 O 6466.15 -4.56607 4.22514 0
M  V30 36813 C 6467.34 -5.62697 5.96604 0
M  V30 36814 O 6467.73 -6.87667 5.41053 0
M  V30 36815 C 6468.22 -4.52537 5.39283 0
M  V30 36816 C 6467.51 -4.20027 4.08623 0
M  V30 36817 N 6467.56 -2.76189 3.71603 0
M  V30 36818 C 6467.48 -1.66944 4.54297 0
M  V30 36819 N 6467.55 -0.536169 3.91344 0
M  V30 36820 C 6467.7 -0.901569 2.58849 0
M  V30 36821 C 6467.83 -0.146599 1.40236 0
M  V30 36822 N 6467.84 1.18234 1.37046 0
M  V30 36823 N 6467.95 -0.822941 0.249738 0
M  V30 36824 C 6467.94 -2.15179 0.280525 0
M  V30 36825 N 6467.82 -2.96414 1.30822 0
M  V30 36826 C 6467.7 -2.25804 2.44748 0
M  V30 36827 H 6464.72 -4.79756 7.24086 0
M  V30 36828 H 6464.45 -3.69963 5.84682 0
M  V30 36829 H 6465.32 -6.10431 5.41508 0
M  V30 36830 H 6467.97 -4.78816 3.28024 0
M  V30 36831 H 6468.25 -3.64957 6.05871 0
M  V30 36832 H 6469.25 -4.88748 5.21323 0
M  V30 36833 H 6467.41 -5.66789 7.0643 0
M  V30 36834 H 6467.37 -1.74684 5.62396 0
M  V30 36835 H 6467.75 1.71949 2.24394 0
M  V30 36836 H 6467.94 1.67511 0.470742 0
M  V30 36837 H 6468.05 -2.63704 -0.6828 0
M  V30 36838 P 6469.28 -7.20834 5.23717 0
M  V30 36839 O 6469.5 -8.66104 5.38572 0
M  V30 36840 O 6470.07 -6.33544 6.1349 0
M  V30 36841 O 6469.53 -6.7751 3.72168 0
M  V30 36842 C 6468.59 -7.20825 2.7076 0
M  V30 36843 C 6469.32 -7.45864 1.40599 0
M  V30 36844 O 6469.53 -6.17651 0.734225 0
M  V30 36845 C 6470.72 -8.05808 1.51899 0
M  V30 36846 O 6471.11 -8.74358 0.335205 0
M  V30 36847 C 6471.6 -6.83093 1.70294 0
M  V30 36848 C 6470.89 -5.79992 0.836974 0
M  V30 36849 N 6470.94 -4.41864 1.38293 0
M  V30 36850 C 6470.86 -3.99538 2.69438 0
M  V30 36851 N 6470.94 -2.69909 2.84277 0
M  V30 36852 C 6471.08 -2.21719 1.5408 0
M  V30 36853 C 6471.21 -0.891712 1.06628 0
M  V30 36854 O 6471.23 0.161298 1.70137 0
M  V30 36855 N 6471.33 -0.856846 -0.334985 0
M  V30 36856 C 6471.33 -1.9641 -1.15789 0
M  V30 36857 N 6471.46 -1.72708 -2.46522 0
M  V30 36858 N 6471.2 -3.21165 -0.713741 0
M  V30 36859 C 6471.08 -3.26797 0.639748 0
M  V30 36860 H 6468.1 -8.13644 3.0377 0
M  V30 36861 H 6467.83 -6.42788 2.55485 0
M  V30 36862 H 6468.7 -8.12039 0.792769 0
M  V30 36863 H 6471.35 -5.80061 -0.166416 0
M  V30 36864 H 6471.63 -6.51287 2.75604 0
M  V30 36865 H 6472.63 -7.01734 1.34462 0
M  V30 36866 H 6470.79 -8.73674 2.38337 0
M  V30 36867 H 6470.74 -4.68207 3.53221 0
M  V30 36868 H 6471.42 0.0398818 -0.767965 0
M  V30 36869 H 6471.46 -2.50995 -3.13503 0
M  V30 36870 H 6471.56 -0.759148 -2.80716 0
M  V30 36871 P 6472.66 -8.91 3.23454e-10 0
M  V30 36872 O 6472.88 -10.1726 -0.733694 0
M  V30 36873 O 6473.45 -8.73148 1.23936 0
M  V30 36874 O 6472.91 -7.66872 -0.971405 0
M  V30 36875 C 6471.97 -7.42309 -2.04641 0
M  V30 36876 C 6472.7 -6.86059 -3.24661 0
M  V30 36877 O 6472.91 -5.42847 -3.03646 0
M  V30 36878 C 6474.1 -7.41196 -3.50753 0
M  V30 36879 O 6474.49 -7.27073 -4.86816 0
M  V30 36880 C 6474.98 -6.5273 -2.63741 0
M  V30 36881 C 6474.27 -5.1842 -2.73198 0
M  V30 36882 N 6474.32 -4.38762 -1.4784 0
M  V30 36883 H 6471.48 -8.36803 -2.32493 0
M  V30 36884 H 6471.21 -6.70197 -1.71129 0
M  V30 36885 H 6472.08 -7.03551 -4.13168 0
M  V30 36886 P 6476.04 -7.20834 -5.23717 0
M  V30 36887 O 6476.26 -7.79853 -6.57286 0
M  V30 36888 O 6476.83 -7.79239 -4.12957 0
M  V30 36889 O 6476.29 -5.63315 -5.29344 0
M  V30 36890 C 6475.35 -4.80255 -6.01876 0
M  V30 36891 C 6476.08 -3.64202 -6.65911 0
M  V30 36892 O 6476.29 -2.60694 -5.64732 0
M  V30 36893 C 6477.48 -3.93473 -7.1943 0
M  V30 36894 O 6477.87 -3.02071 -8.21205 0
M  V30 36895 C 6478.36 -3.73047 -5.97036 0
M  V30 36896 C 6477.65 -2.58828 -5.25741 0
M  V30 36897 N 6477.7 -2.68068 -3.77503 0
M  V30 36898 C 6477.62 -3.79715 -2.96723 0
M  V30 36899 N 6477.7 -3.5377 -1.68852 0
M  V30 36900 C 6477.84 -2.15054 -1.63254 0
M  V30 36901 C 6477.97 -1.28964 -0.518571 0
M  V30 36902 O 6477.99 -1.56826 0.679156 0
M  V30 36903 N 6478.09 0.0538097 -0.918425 0
M  V30 36904 C 6478.09 0.494275 -2.22578 0
M  V30 36905 N 6478.22 1.81086 -2.40434 0
M  V30 36906 N 6477.96 -0.313645 -3.27502 0
M  V30 36907 C 6477.84 -1.61829 -2.91033 0
M  V30 36908 H 6474.86 -5.40332 -6.79951 0
M  V30 36909 H 6474.59 -4.41613 -5.32378 0
M  V30 36910 H 6475.46 -3.26331 -7.47797 0
M  V30 36911 H 6478.11 -1.63422 -5.56814 0
M  V30 36912 H 6478.39 -4.63374 -5.34244 0
M  V30 36913 H 6479.39 -3.44728 -6.25838 0
M  V30 36914 H 6477.55 -4.96652 -7.57263 0
M  V30 36915 H 6477.5 -4.80617 -3.3614 0
M  V30 36916 H 6478.18 0.742702 -0.199384 0
M  V30 36917 H 6478.22 2.20598 -3.35588 0
M  V30 36918 H 6478.32 2.43518 -1.58945 0
M  V30 36919 P 6479.42 -2.75334 -8.47391 0
M  V30 36920 O 6479.64 -2.44571 -9.90142 0
M  V30 36921 O 6480.21 -3.87688 -7.92115 0
M  V30 36922 O 6479.67 -1.4459 -7.59357 0
M  V30 36923 C 6478.73 -0.347608 -7.69215 0
M  V30 36924 C 6479.46 0.96767 -7.52806 0
M  V30 36925 O 6479.67 1.21036 -6.1011 0
M  V30 36926 C 6480.86 1.04544 -8.13308 0
M  V30 36927 O 6481.25 2.38311 -8.41922 0
M  V30 36928 C 6481.74 0.491279 -7.02284 0
M  V30 36929 C 6481.03 0.996264 -5.77469 0
M  V30 36930 N 6481.08 0.0501916 -4.62973 0
M  V30 36931 H 6478.24 -0.374722 -8.67691 0
M  V30 36932 H 6477.97 -0.443485 -6.90277 0
M  V30 36933 H 6478.84 1.75537 -7.96793 0
M  V30 36934 P 6482.8 2.75334 -8.47391 0
M  V30 36935 O 6483.02 3.84204 -9.44982 0
M  V30 36936 O 6483.59 1.51982 -8.68909 0
M  V30 36937 O 6483.05 3.29363 -6.99321 0
M  V30 36938 C 6482.11 4.24066 -6.42823 0
M  V30 36939 C 6482.84 5.20775 -5.52155 0
M  V30 36940 O 6483.05 4.56607 -4.22514 0
M  V30 36941 C 6484.24 5.62697 -5.96604 0
M  V30 36942 O 6484.63 6.87667 -5.41053 0
M  V30 36943 C 6485.12 4.52537 -5.39283 0
M  V30 36944 C 6484.41 4.20027 -4.08623 0
M  V30 36945 N 6484.46 2.76189 -3.71603 0
M  V30 36946 C 6484.38 1.66944 -4.54297 0
M  V30 36947 N 6484.45 0.536169 -3.91344 0
M  V30 36948 C 6484.6 0.901569 -2.58849 0
M  V30 36949 C 6484.73 0.146599 -1.40236 0
M  V30 36950 N 6484.74 -1.18234 -1.37046 0
M  V30 36951 N 6484.85 0.822941 -0.249738 0
M  V30 36952 C 6484.84 2.15179 -0.280525 0
M  V30 36953 N 6484.72 2.96414 -1.30822 0
M  V30 36954 C 6484.6 2.25804 -2.44748 0
M  V30 36955 H 6481.62 4.79756 -7.24086 0
M  V30 36956 H 6481.35 3.69963 -5.84682 0
M  V30 36957 H 6482.22 6.10431 -5.41508 0
M  V30 36958 H 6484.87 4.78816 -3.28024 0
M  V30 36959 H 6485.15 3.64957 -6.05871 0
M  V30 36960 H 6486.15 4.88748 -5.21323 0
M  V30 36961 H 6484.31 5.66789 -7.0643 0
M  V30 36962 H 6484.27 1.74684 -5.62396 0
M  V30 36963 H 6484.65 -1.71949 -2.24394 0
M  V30 36964 H 6484.84 -1.67511 -0.470742 0
M  V30 36965 H 6484.95 2.63704 0.6828 0
M  V30 36966 P 6486.18 7.20834 -5.23717 0
M  V30 36967 O 6486.4 8.66104 -5.38572 0
M  V30 36968 O 6486.97 6.33544 -6.1349 0
M  V30 36969 O 6486.43 6.7751 -3.72168 0
M  V30 36970 C 6485.49 7.20825 -2.7076 0
M  V30 36971 C 6486.22 7.45864 -1.40599 0
M  V30 36972 O 6486.43 6.17651 -0.734225 0
M  V30 36973 C 6487.62 8.05808 -1.51899 0
M  V30 36974 O 6488.01 8.74358 -0.335205 0
M  V30 36975 C 6488.5 6.83093 -1.70294 0
M  V30 36976 C 6487.79 5.79992 -0.836974 0
M  V30 36977 N 6487.84 4.41864 -1.38293 0
M  V30 36978 H 6485 8.13644 -3.0377 0
M  V30 36979 H 6484.73 6.42788 -2.55485 0
M  V30 36980 H 6485.6 8.12039 -0.792769 0
M  V30 36981 P 6489.56 8.91 -3.24563e-10 0
M  V30 36982 O 6489.78 10.1746 0.733838 0
M  V30 36983 O 6490.35 8.73346 -1.23964 0
M  V30 36984 O 6489.81 7.66872 0.971405 0
M  V30 36985 C 6488.87 7.42405 2.04668 0
M  V30 36986 C 6489.6 6.86059 3.24661 0
M  V30 36987 O 6489.81 5.42934 3.03695 0
M  V30 36988 C 6491 7.41287 3.50796 0
M  V30 36989 O 6491.39 7.27073 4.86816 0
M  V30 36990 C 6491.88 6.5273 2.63741 0
M  V30 36991 C 6491.17 5.1842 2.73198 0
M  V30 36992 N 6491.22 4.38762 1.4784 0
M  V30 36993 C 6491.14 4.83651 0.183876 0
M  V30 36994 N 6491.21 3.88759 -0.699393 0
M  V30 36995 C 6491.36 2.7404 0.0575568 0
M  V30 36996 C 6491.49 1.37902 -0.293928 0
M  V30 36997 N 6491.5 0.938021 -1.54797 0
M  V30 36998 N 6491.61 0.491817 0.70549 0
M  V30 36999 C 6491.6 0.931735 1.95979 0
M  V30 37000 N 6491.48 2.16017 2.41481 0
M  V30 37001 C 6491.36 3.02547 1.39121 0
M  V30 37002 H 6488.38 8.36899 2.3252 0
M  V30 37003 H 6488.11 6.70391 1.71179 0
M  V30 37004 H 6488.98 7.03638 4.13219 0
M  V30 37005 H 6491.63 4.59931 3.54016 0
M  V30 37006 H 6491.91 6.88995 1.59871 0
M  V30 37007 H 6492.91 6.4684 3.0373 0
M  V30 37008 H 6491.07 8.47002 3.20749 0
M  V30 37009 H 6491.03 5.8885 -0.0765548 0
M  V30 37010 H 6491.41 1.60276 -2.32875 0
M  V30 37011 H 6491.6 -0.0699355 -1.73859 0
M  V30 37012 H 6491.71 0.165507 2.71897 0
M  V30 37013 P 6492.94 7.20834 5.23717 0
M  V30 37014 O 6493.16 7.7993 6.57351 0
M  V30 37015 O 6493.73 7.79328 4.13004 0
M  V30 37016 O 6493.19 5.63315 5.29344 0
M  V30 37017 C 6492.25 4.80255 6.01876 0
M  V30 37018 C 6492.98 3.64202 6.65911 0
M  V30 37019 O 6493.19 2.60694 5.64732 0
M  V30 37020 C 6494.38 3.93473 7.1943 0
M  V30 37021 O 6494.77 3.02071 8.21205 0
M  V30 37022 C 6495.26 3.73047 5.97036 0
M  V30 37023 C 6494.55 2.58828 5.25741 0
M  V30 37024 N 6494.6 2.6801 3.77422 0
M  V30 37025 C 6494.75 1.50173 3.05038 0
M  V30 37026 O 6494.84 0.428832 3.665 0
M  V30 37027 N 6494.8 1.70922 1.55541 0
M  V30 37028 C 6494.7 2.7407 1.06402 0
M  V30 37029 N 6494.75 2.74764 -0.260931 0
M  V30 37030 C 6494.55 3.96781 1.78296 0
M  V30 37031 C 6494.5 3.87909 3.13891 0
M  V30 37032 H 6491.76 5.4027 6.79873 0
M  V30 37033 H 6491.49 4.41549 5.32301 0
M  V30 37034 H 6492.36 3.26371 7.47889 0
M  V30 37035 H 6495.01 1.63978 5.5665 0
M  V30 37036 H 6495.29 4.63439 5.3432 0
M  V30 37037 H 6496.29 3.44728 6.25838 0
M  V30 37038 H 6494.45 4.96652 7.57263 0
M  V30 37039 H 6494.38 4.78425 3.73088 0
M  V30 37040 H 6494.48 4.92593 1.26997 0
M  V30 37041 H 6494.87 1.86285 -0.77595 0
M  V30 37042 H 6494.67 3.63657 -0.773896 0
M  V30 37043 P 6496.32 2.75334 8.47391 0
M  V30 37044 O 6496.54 2.44595 9.90239 0
M  V30 37045 O 6497.11 3.87732 7.92204 0
M  V30 37046 O 6496.57 1.4459 7.59357 0
M  V30 37047 C 6495.63 0.347563 7.69115 0
M  V30 37048 C 6496.36 -0.96767 7.52806 0
M  V30 37049 O 6496.57 -1.21036 6.1011 0
M  V30 37050 C 6497.76 -1.04544 8.13308 0
M  V30 37051 O 6498.15 -2.38311 8.41922 0
M  V30 37052 C 6498.64 -0.491279 7.02284 0
M  V30 37053 C 6497.93 -0.996264 5.77469 0
M  V30 37054 N 6497.98 -0.0501808 4.62873 0
M  V30 37055 C 6498.13 -0.588177 3.36904 0
M  V30 37056 O 6498.22 -1.78598 3.17173 0
M  V30 37057 N 6498.17 0.329694 2.33686 0
M  V30 37058 C 6498.08 1.6953 2.45079 0
M  V30 37059 C 6497.93 2.16933 3.80505 0
M  V30 37060 C 6497.88 1.30326 4.83752 0
M  V30 37061 H 6495.14 0.374722 8.67691 0
M  V30 37062 H 6494.87 0.443421 6.90177 0
M  V30 37063 H 6495.74 -1.75537 7.96793 0
M  V30 37064 H 6498.39 -1.94496 5.46629 0
M  V30 37065 H 6498.67 0.608651 7.04676 0
M  V30 37066 H 6499.67 -0.889672 7.08939 0
M  V30 37067 H 6497.83 -0.43308 9.04564 0
M  V30 37068 H 6497.76 1.68366 5.8516 0
M  V30 37069 P 6499.7 -2.75334 8.47391 0
M  V30 37070 O 6499.92 -3.84204 9.44982 0
M  V30 37071 O 6500.49 -1.51982 8.68909 0
M  V30 37072 O 6499.95 -3.29363 6.99321 0
M  V30 37073 C 6499.01 -4.24066 6.42823 0
M  V30 37074 C 6499.74 -5.20775 5.52155 0
M  V30 37075 O 6499.95 -4.56607 4.22514 0
M  V30 37076 C 6501.14 -5.62697 5.96604 0
M  V30 37077 O 6501.53 -6.87667 5.41053 0
M  V30 37078 C 6502.02 -4.52537 5.39283 0
M  V30 37079 C 6501.31 -4.20027 4.08623 0
M  V30 37080 N 6501.36 -2.76189 3.71603 0
M  V30 37081 C 6501.28 -1.66944 4.54297 0
M  V30 37082 N 6501.35 -0.536169 3.91344 0
M  V30 37083 C 6501.5 -0.901569 2.58849 0
M  V30 37084 C 6501.63 -0.146599 1.40236 0
M  V30 37085 N 6501.64 1.18234 1.37046 0
M  V30 37086 N 6501.75 -0.822941 0.249738 0
M  V30 37087 C 6501.74 -2.15179 0.280525 0
M  V30 37088 N 6501.62 -2.96414 1.30822 0
M  V30 37089 C 6501.5 -2.25804 2.44748 0
M  V30 37090 H 6498.52 -4.79756 7.24086 0
M  V30 37091 H 6498.25 -3.69963 5.84682 0
M  V30 37092 H 6499.12 -6.10431 5.41508 0
M  V30 37093 H 6501.77 -4.78816 3.28024 0
M  V30 37094 H 6502.05 -3.64957 6.05871 0
M  V30 37095 H 6503.05 -4.88748 5.21323 0
M  V30 37096 H 6501.21 -5.66789 7.0643 0
M  V30 37097 H 6501.17 -1.74684 5.62396 0
M  V30 37098 H 6501.55 1.71949 2.24394 0
M  V30 37099 H 6501.74 1.67511 0.470742 0
M  V30 37100 H 6501.85 -2.63704 -0.6828 0
M  V30 37101 P 6503.08 -7.20834 5.23717 0
M  V30 37102 O 6503.3 -8.66104 5.38572 0
M  V30 37103 O 6503.87 -6.33544 6.1349 0
M  V30 37104 O 6503.33 -6.7751 3.72168 0
M  V30 37105 C 6502.39 -7.20825 2.7076 0
M  V30 37106 C 6503.12 -7.45864 1.40599 0
M  V30 37107 O 6503.33 -6.17651 0.734225 0
M  V30 37108 C 6504.52 -8.05808 1.51899 0
M  V30 37109 O 6504.91 -8.74358 0.335205 0
M  V30 37110 C 6505.4 -6.83093 1.70294 0
M  V30 37111 C 6504.69 -5.79992 0.836974 0
M  V30 37112 N 6504.74 -4.41864 1.38293 0
M  V30 37113 H 6501.9 -8.13644 3.0377 0
M  V30 37114 H 6501.63 -6.42788 2.55485 0
M  V30 37115 H 6502.5 -8.12039 0.792769 0
M  V30 37116 P 6506.46 -8.91 3.25672e-10 0
M  V30 37117 O 6506.68 -10.1746 -0.733838 0
M  V30 37118 O 6507.25 -8.73346 1.23964 0
M  V30 37119 O 6506.71 -7.66872 -0.971405 0
M  V30 37120 C 6505.77 -7.42405 -2.04668 0
M  V30 37121 C 6506.5 -6.86059 -3.24661 0
M  V30 37122 O 6506.71 -5.42934 -3.03695 0
M  V30 37123 C 6507.9 -7.41287 -3.50796 0
M  V30 37124 O 6508.29 -7.27073 -4.86816 0
M  V30 37125 C 6508.78 -6.5273 -2.63741 0
M  V30 37126 C 6508.07 -5.1842 -2.73198 0
M  V30 37127 N 6508.12 -4.38762 -1.4784 0
M  V30 37128 H 6505.28 -8.36899 -2.3252 0
M  V30 37129 H 6505.01 -6.70391 -1.71179 0
M  V30 37130 H 6505.88 -7.03638 -4.13219 0
M  V30 37131 H 6508.53 -4.59931 -3.54016 0
M  V30 37132 H 6508.81 -6.88995 -1.59871 0
M  V30 37133 H 6509.81 -6.4684 -3.0373 0
M  V30 37134 H 6507.97 -8.47002 -3.20749 0
M  V30 37135 P 6509.84 -7.20834 -5.23717 0
M  V30 37136 O 6510.06 -7.7993 -6.57351 0
M  V30 37137 O 6510.63 -7.79328 -4.13004 0
M  V30 37138 O 6510.09 -5.63315 -5.29344 0
M  V30 37139 C 6509.15 -4.80193 -6.01798 0
M  V30 37140 C 6509.88 -3.64202 -6.65911 0
M  V30 37141 O 6510.09 -2.60694 -5.64732 0
M  V30 37142 C 6511.28 -3.93473 -7.1943 0
M  V30 37143 O 6511.67 -3.02071 -8.21205 0
M  V30 37144 C 6512.16 -3.73047 -5.97036 0
M  V30 37145 C 6511.45 -2.58828 -5.25741 0
M  V30 37146 N 6511.5 -2.6801 -3.77422 0
M  V30 37147 C 6511.65 -1.50443 -3.07133 0
M  V30 37148 O 6511.74 -0.419406 -3.61576 0
M  V30 37149 N 6511.69 -1.6403 -1.69677 0
M  V30 37150 C 6511.6 -2.81206 -0.986255 0
M  V30 37151 O 6511.65 -2.80892 0.249754 0
M  V30 37152 C 6511.45 -3.99158 -1.80325 0
M  V30 37153 C 6511.34 -5.29309 -1.06921 0
M  V30 37154 C 6511.4 -3.89779 -3.1476 0
M  V30 37155 H 6508.66 -5.40332 -6.79951 0
M  V30 37156 H 6508.39 -4.41549 -5.32301 0
M  V30 37157 H 6509.26 -3.26331 -7.47797 0
M  V30 37158 H 6511.91 -1.6395 -5.56554 0
M  V30 37159 H 6512.19 -4.63439 -5.3432 0
M  V30 37160 H 6513.19 -3.44728 -6.25838 0
M  V30 37161 H 6511.35 -4.96652 -7.57263 0
M  V30 37162 H 6511.28 -4.80159 -3.74441 0
M  V30 37163 H 6512.31 -5.81459 -1.09608 0
M  V30 37164 H 6510.57 -5.9187 -1.54487 0
M  V30 37165 H 6511.06 -5.10095 -0.0220288 0
M  V30 37166 H 6511.8 -0.798962 -1.16664 0
M  V30 37167 P 6513.22 -2.75334 -8.47391 0
M  V30 37168 O 6513.44 -2.44571 -9.90142 0
M  V30 37169 O 6514.01 -3.87688 -7.92115 0
M  V30 37170 O 6513.47 -1.4459 -7.59357 0
M  V30 37171 C 6512.53 -0.347608 -7.69215 0
M  V30 37172 C 6513.26 0.96767 -7.52806 0
M  V30 37173 O 6513.47 1.21036 -6.1011 0
M  V30 37174 C 6514.66 1.04544 -8.13308 0
M  V30 37175 O 6515.05 2.38311 -8.41922 0
M  V30 37176 C 6515.54 0.491279 -7.02284 0
M  V30 37177 C 6514.83 0.996264 -5.77469 0
M  V30 37178 N 6514.88 0.0501916 -4.62973 0
M  V30 37179 H 6512.04 -0.374722 -8.67691 0
M  V30 37180 H 6511.77 -0.443485 -6.90277 0
M  V30 37181 H 6512.64 1.75537 -7.96793 0
M  V30 37182 P 6516.6 2.75334 -8.47391 0
M  V30 37183 O 6516.82 3.84128 -9.44797 0
M  V30 37184 O 6517.39 1.51947 -8.68712 0
M  V30 37185 O 6516.85 3.29363 -6.99321 0
M  V30 37186 C 6515.91 4.24011 -6.4274 0
M  V30 37187 C 6516.64 5.20775 -5.52155 0
M  V30 37188 O 6516.85 4.56534 -4.22446 0
M  V30 37189 C 6518.04 5.62629 -5.96531 0
M  V30 37190 O 6518.43 6.87667 -5.41053 0
M  V30 37191 C 6518.92 4.52537 -5.39283 0
M  V30 37192 C 6518.21 4.20027 -4.08623 0
M  V30 37193 N 6518.26 2.76189 -3.71603 0
M  V30 37194 H 6515.42 4.797 -7.24003 0
M  V30 37195 H 6515.15 3.69856 -5.84513 0
M  V30 37196 H 6516.02 6.10356 -5.41441 0
M  V30 37197 P 6519.98 7.20834 -5.23717 0
M  V30 37198 O 6520.2 8.66189 -5.38625 0
M  V30 37199 O 6520.77 6.33615 -6.1356 0
M  V30 37200 O 6520.23 6.7751 -3.72168 0
M  V30 37201 C 6519.29 7.20732 -2.70725 0
M  V30 37202 C 6520.02 7.45864 -1.40599 0
M  V30 37203 O 6520.23 6.17651 -0.734225 0
M  V30 37204 C 6521.42 8.05808 -1.51899 0
M  V30 37205 O 6521.81 8.74358 -0.335205 0
M  V30 37206 C 6522.3 6.83093 -1.70294 0
M  V30 37207 C 6521.59 5.79992 -0.836974 0
M  V30 37208 N 6521.64 4.41769 -1.38263 0
M  V30 37209 C 6521.79 3.38591 -0.481702 0
M  V30 37210 O 6521.88 3.56839 0.718452 0
M  V30 37211 N 6521.83 2.1206 -1.03569 0
M  V30 37212 C 6521.74 1.80696 -2.36966 0
M  V30 37213 O 6521.79 0.630473 -2.74862 0
M  V30 37214 C 6521.59 2.94845 -3.23898 0
M  V30 37215 C 6521.48 2.65253 -4.70362 0
M  V30 37216 C 6521.54 4.19803 -2.73435 0
M  V30 37217 H 6518.8 8.13644 -3.0377 0
M  V30 37218 H 6518.53 6.42695 -2.55448 0
M  V30 37219 H 6519.4 8.12039 -0.792769 0
M  V30 37220 H 6522.05 5.79978 0.160587 0
M  V30 37221 H 6522.33 6.51379 -2.75643 0
M  V30 37222 H 6523.33 7.01734 -1.34462 0
M  V30 37223 H 6521.49 8.73674 -2.38337 0
M  V30 37224 H 6521.42 5.04492 -3.4095 0
M  V30 37225 H 6522.45 2.83924 -5.1913 0
M  V30 37226 H 6520.71 3.29824 -5.15163 0
M  V30 37227 H 6521.2 1.59723 -4.84449 0
M  V30 37228 H 6521.94 1.35644 -0.399345 0
M  V30 37229 P 6523.36 8.91 -3.26781e-10 0
M  V30 37230 O 6523.58 10.1726 0.733694 0
M  V30 37231 O 6524.15 8.73148 -1.23936 0
M  V30 37232 O 6523.61 7.66872 0.971405 0
M  V30 37233 C 6522.67 7.42309 2.04641 0
M  V30 37234 C 6523.4 6.86059 3.24661 0
M  V30 37235 O 6523.61 5.42847 3.03646 0
M  V30 37236 C 6524.8 7.41196 3.50753 0
M  V30 37237 O 6525.19 7.27073 4.86816 0
M  V30 37238 C 6525.68 6.5273 2.63741 0
M  V30 37239 C 6524.97 5.1842 2.73198 0
M  V30 37240 N 6525.02 4.38762 1.4784 0
M  V30 37241 H 6522.18 8.36803 2.32493 0
M  V30 37242 H 6521.91 6.70197 1.71129 0
M  V30 37243 H 6522.78 7.03551 4.13168 0
M  V30 37244 P 6526.74 7.20834 5.23717 0
M  V30 37245 O 6526.96 7.79853 6.57286 0
M  V30 37246 O 6527.53 7.79239 4.12957 0
M  V30 37247 O 6526.99 5.63315 5.29344 0
M  V30 37248 C 6526.05 4.80255 6.01876 0
M  V30 37249 C 6526.78 3.64202 6.65911 0
M  V30 37250 O 6526.99 2.60694 5.64732 0
M  V30 37251 C 6528.18 3.93473 7.1943 0
M  V30 37252 O 6528.57 3.02071 8.21205 0
M  V30 37253 C 6529.06 3.73047 5.97036 0
M  V30 37254 C 6528.35 2.58828 5.25741 0
M  V30 37255 N 6528.4 2.68068 3.77503 0
M  V30 37256 H 6525.56 5.40332 6.79951 0
M  V30 37257 H 6525.29 4.41613 5.32378 0
M  V30 37258 H 6526.16 3.26331 7.47797 0
M  V30 37259 P 6530.12 2.75334 8.47391 0
M  V30 37260 O 6530.34 2.44571 9.90142 0
M  V30 37261 O 6530.91 3.87688 7.92115 0
M  V30 37262 O 6530.37 1.4459 7.59357 0
M  V30 37263 C 6529.43 0.347608 7.69215 0
M  V30 37264 C 6530.16 -0.96767 7.52806 0
M  V30 37265 O 6530.37 -1.21036 6.1011 0
M  V30 37266 C 6531.56 -1.04544 8.13308 0
M  V30 37267 O 6531.95 -2.38311 8.41922 0
M  V30 37268 C 6532.44 -0.491279 7.02284 0
M  V30 37269 C 6531.73 -0.996264 5.77469 0
M  V30 37270 N 6531.78 -0.0501916 4.62973 0
M  V30 37271 H 6528.94 0.374722 8.67691 0
M  V30 37272 H 6528.67 0.443485 6.90277 0
M  V30 37273 H 6529.54 -1.75537 7.96793 0
M  V30 37274 P 6533.5 -2.75334 8.47391 0
M  V30 37275 O 6533.72 -3.84128 9.44797 0
M  V30 37276 O 6534.29 -1.51947 8.68712 0
M  V30 37277 O 6533.75 -3.29363 6.99321 0
M  V30 37278 C 6532.81 -4.24011 6.4274 0
M  V30 37279 C 6533.54 -5.20775 5.52155 0
M  V30 37280 O 6533.75 -4.56534 4.22446 0
M  V30 37281 C 6534.94 -5.62629 5.96531 0
M  V30 37282 O 6535.33 -6.87667 5.41053 0
M  V30 37283 C 6535.82 -4.52537 5.39283 0
M  V30 37284 C 6535.11 -4.20027 4.08623 0
M  V30 37285 N 6535.16 -2.76189 3.71603 0
M  V30 37286 H 6532.32 -4.797 7.24003 0
M  V30 37287 H 6532.05 -3.69856 5.84513 0
M  V30 37288 H 6532.92 -6.10356 5.41441 0
M  V30 37289 P 6536.88 -7.20834 5.23717 0
M  V30 37290 O 6537.1 -8.66104 5.38572 0
M  V30 37291 O 6537.67 -6.33544 6.1349 0
M  V30 37292 O 6537.13 -6.7751 3.72168 0
M  V30 37293 C 6536.19 -7.20825 2.7076 0
M  V30 37294 C 6536.92 -7.45864 1.40599 0
M  V30 37295 O 6537.13 -6.17651 0.734225 0
M  V30 37296 C 6538.32 -8.05808 1.51899 0
M  V30 37297 O 6538.71 -8.74358 0.335205 0
M  V30 37298 C 6539.2 -6.83093 1.70294 0
M  V30 37299 C 6538.49 -5.79992 0.836974 0
M  V30 37300 N 6538.54 -4.41864 1.38293 0
M  V30 37301 H 6535.7 -8.13644 3.0377 0
M  V30 37302 H 6535.43 -6.42788 2.55485 0
M  V30 37303 H 6536.3 -8.12039 0.792769 0
M  V30 37304 P 6540.26 -8.91 3.2789e-10 0
M  V30 37305 O 6540.48 -10.1726 -0.733694 0
M  V30 37306 O 6541.05 -8.73148 1.23936 0
M  V30 37307 O 6540.51 -7.66872 -0.971405 0
M  V30 37308 C 6539.57 -7.42309 -2.04641 0
M  V30 37309 C 6540.3 -6.86059 -3.24661 0
M  V30 37310 O 6540.51 -5.42847 -3.03646 0
M  V30 37311 C 6541.7 -7.41196 -3.50753 0
M  V30 37312 O 6542.09 -7.27073 -4.86816 0
M  V30 37313 C 6542.58 -6.5273 -2.63741 0
M  V30 37314 C 6541.87 -5.1842 -2.73198 0
M  V30 37315 N 6541.92 -4.38762 -1.4784 0
M  V30 37316 H 6539.08 -8.36803 -2.32493 0
M  V30 37317 H 6538.81 -6.70197 -1.71129 0
M  V30 37318 H 6539.68 -7.03551 -4.13168 0
M  V30 37319 P 6543.64 -7.20834 -5.23717 0
M  V30 37320 O 6543.86 -7.79853 -6.57286 0
M  V30 37321 O 6544.43 -7.79239 -4.12957 0
M  V30 37322 O 6543.89 -5.63315 -5.29344 0
M  V30 37323 C 6542.95 -4.80255 -6.01876 0
M  V30 37324 C 6543.68 -3.64202 -6.65911 0
M  V30 37325 O 6543.89 -2.60694 -5.64732 0
M  V30 37326 C 6545.08 -3.93473 -7.1943 0
M  V30 37327 O 6545.47 -3.02071 -8.21205 0
M  V30 37328 C 6545.96 -3.73047 -5.97036 0
M  V30 37329 C 6545.25 -2.58828 -5.25741 0
M  V30 37330 N 6545.3 -2.68068 -3.77503 0
M  V30 37331 H 6542.46 -5.40332 -6.79951 0
M  V30 37332 H 6542.19 -4.41613 -5.32378 0
M  V30 37333 H 6543.06 -3.26331 -7.47797 0
M  V30 37334 P 6547.02 -2.75334 -8.47391 0
M  V30 37335 O 6547.24 -2.44571 -9.90142 0
M  V30 37336 O 6547.81 -3.87688 -7.92115 0
M  V30 37337 O 6547.27 -1.4459 -7.59357 0
M  V30 37338 C 6546.33 -0.347608 -7.69215 0
M  V30 37339 C 6547.06 0.96767 -7.52806 0
M  V30 37340 O 6547.27 1.21036 -6.1011 0
M  V30 37341 C 6548.46 1.04544 -8.13308 0
M  V30 37342 O 6548.85 2.38311 -8.41922 0
M  V30 37343 C 6549.34 0.491279 -7.02284 0
M  V30 37344 C 6548.63 0.996264 -5.77469 0
M  V30 37345 N 6548.68 0.0501916 -4.62973 0
M  V30 37346 H 6545.84 -0.374722 -8.67691 0
M  V30 37347 H 6545.57 -0.443485 -6.90277 0
M  V30 37348 H 6546.44 1.75537 -7.96793 0
M  V30 37349 P 6550.4 2.75334 -8.47391 0
M  V30 37350 O 6550.62 3.84204 -9.44982 0
M  V30 37351 O 6551.19 1.51982 -8.68909 0
M  V30 37352 O 6550.65 3.29363 -6.99321 0
M  V30 37353 C 6549.71 4.24066 -6.42823 0
M  V30 37354 C 6550.44 5.20775 -5.52155 0
M  V30 37355 O 6550.65 4.56607 -4.22514 0
M  V30 37356 C 6551.84 5.62697 -5.96604 0
M  V30 37357 O 6552.23 6.87667 -5.41053 0
M  V30 37358 C 6552.72 4.52537 -5.39283 0
M  V30 37359 C 6552.01 4.20027 -4.08623 0
M  V30 37360 N 6552.06 2.76189 -3.71603 0
M  V30 37361 C 6551.98 1.66944 -4.54297 0
M  V30 37362 N 6552.05 0.536169 -3.91344 0
M  V30 37363 C 6552.2 0.901569 -2.58849 0
M  V30 37364 C 6552.33 0.146599 -1.40236 0
M  V30 37365 N 6552.34 -1.18234 -1.37046 0
M  V30 37366 N 6552.45 0.822941 -0.249738 0
M  V30 37367 C 6552.44 2.15179 -0.280525 0
M  V30 37368 N 6552.32 2.96414 -1.30822 0
M  V30 37369 C 6552.2 2.25804 -2.44748 0
M  V30 37370 H 6549.22 4.79756 -7.24086 0
M  V30 37371 H 6548.95 3.69963 -5.84682 0
M  V30 37372 H 6549.82 6.10431 -5.41508 0
M  V30 37373 H 6552.47 4.78816 -3.28024 0
M  V30 37374 H 6552.75 3.64957 -6.05871 0
M  V30 37375 H 6553.75 4.88748 -5.21323 0
M  V30 37376 H 6551.91 5.66789 -7.0643 0
M  V30 37377 H 6551.87 1.74684 -5.62396 0
M  V30 37378 H 6552.25 -1.71949 -2.24394 0
M  V30 37379 H 6552.44 -1.67511 -0.470742 0
M  V30 37380 H 6552.55 2.63704 0.6828 0
M  V30 37381 P 6553.78 7.20834 -5.23717 0
M  V30 37382 O 6554 8.66104 -5.38572 0
M  V30 37383 O 6554.57 6.33544 -6.1349 0
M  V30 37384 O 6554.03 6.7751 -3.72168 0
M  V30 37385 C 6553.09 7.20825 -2.7076 0
M  V30 37386 C 6553.82 7.45864 -1.40599 0
M  V30 37387 O 6554.03 6.17651 -0.734225 0
M  V30 37388 C 6555.22 8.05808 -1.51899 0
M  V30 37389 O 6555.61 8.74358 -0.335205 0
M  V30 37390 C 6556.1 6.83093 -1.70294 0
M  V30 37391 C 6555.39 5.79992 -0.836974 0
M  V30 37392 N 6555.44 4.41864 -1.38293 0
M  V30 37393 H 6552.6 8.13644 -3.0377 0
M  V30 37394 H 6552.33 6.42788 -2.55485 0
M  V30 37395 H 6553.2 8.12039 -0.792769 0
M  V30 37396 P 6557.16 8.91 -3.28999e-10 0
M  V30 37397 O 6557.38 10.1726 0.733694 0
M  V30 37398 O 6557.95 8.73148 -1.23936 0
M  V30 37399 O 6557.41 7.66872 0.971405 0
M  V30 37400 C 6556.47 7.42309 2.04641 0
M  V30 37401 C 6557.2 6.86059 3.24661 0
M  V30 37402 O 6557.41 5.42847 3.03646 0
M  V30 37403 C 6558.6 7.41196 3.50753 0
M  V30 37404 O 6558.99 7.27073 4.86816 0
M  V30 37405 C 6559.48 6.5273 2.63741 0
M  V30 37406 C 6558.77 5.1842 2.73198 0
M  V30 37407 N 6558.82 4.38762 1.4784 0
M  V30 37408 H 6555.98 8.36803 2.32493 0
M  V30 37409 H 6555.71 6.70197 1.71129 0
M  V30 37410 H 6556.58 7.03551 4.13168 0
M  V30 37411 P 6560.54 7.20834 5.23717 0
M  V30 37412 O 6560.76 7.79853 6.57286 0
M  V30 37413 O 6561.33 7.79239 4.12957 0
M  V30 37414 O 6560.79 5.63315 5.29344 0
M  V30 37415 C 6559.85 4.80255 6.01876 0
M  V30 37416 C 6560.58 3.64202 6.65911 0
M  V30 37417 O 6560.79 2.60694 5.64732 0
M  V30 37418 C 6561.98 3.93473 7.1943 0
M  V30 37419 O 6562.37 3.02071 8.21205 0
M  V30 37420 C 6562.86 3.73047 5.97036 0
M  V30 37421 C 6562.15 2.58828 5.25741 0
M  V30 37422 N 6562.2 2.68068 3.77503 0
M  V30 37423 C 6562.12 3.79715 2.96723 0
M  V30 37424 N 6562.2 3.5377 1.68852 0
M  V30 37425 C 6562.34 2.15054 1.63254 0
M  V30 37426 C 6562.47 1.28964 0.518571 0
M  V30 37427 N 6562.59 -0.0538097 0.918425 0
M  V30 37428 C 6562.59 -0.494275 2.22578 0
M  V30 37429 N 6562.72 -1.81086 2.40434 0
M  V30 37430 N 6562.46 0.313645 3.27502 0
M  V30 37431 C 6562.34 1.61829 2.91033 0
M  V30 37432 H 6559.36 5.40332 6.79951 0
M  V30 37433 H 6559.09 4.41613 5.32378 0
M  V30 37434 H 6559.96 3.26331 7.47797 0
M  V30 37435 P 6563.92 2.75334 8.47391 0
M  V30 37436 O 6564.14 2.44571 9.90142 0
M  V30 37437 O 6564.71 3.87688 7.92115 0
M  V30 37438 O 6564.17 1.4459 7.59357 0
M  V30 37439 C 6563.23 0.347608 7.69215 0
M  V30 37440 C 6563.96 -0.96767 7.52806 0
M  V30 37441 O 6564.17 -1.21036 6.1011 0
M  V30 37442 C 6565.36 -1.04544 8.13308 0
M  V30 37443 O 6565.75 -2.38311 8.41922 0
M  V30 37444 C 6566.24 -0.491279 7.02284 0
M  V30 37445 C 6565.53 -0.996264 5.77469 0
M  V30 37446 N 6565.58 -0.0501916 4.62973 0
M  V30 37447 H 6562.74 0.374722 8.67691 0
M  V30 37448 H 6562.47 0.443485 6.90277 0
M  V30 37449 H 6563.34 -1.75537 7.96793 0
M  V30 37450 P 6567.3 -2.75334 8.47391 0
M  V30 37451 O 6567.52 -3.84128 9.44797 0
M  V30 37452 O 6568.09 -1.51947 8.68712 0
M  V30 37453 O 6567.55 -3.29363 6.99321 0
M  V30 37454 C 6566.61 -4.24011 6.4274 0
M  V30 37455 C 6567.34 -5.20775 5.52155 0
M  V30 37456 O 6567.55 -4.56534 4.22446 0
M  V30 37457 C 6568.74 -5.62629 5.96531 0
M  V30 37458 O 6569.13 -6.87667 5.41053 0
M  V30 37459 C 6569.62 -4.52537 5.39283 0
M  V30 37460 C 6568.91 -4.20027 4.08623 0
M  V30 37461 N 6568.96 -2.76189 3.71603 0
M  V30 37462 H 6566.12 -4.797 7.24003 0
M  V30 37463 H 6565.85 -3.69856 5.84513 0
M  V30 37464 H 6566.72 -6.10356 5.41441 0
M  V30 37465 P 6570.68 -7.20834 5.23717 0
M  V30 37466 O 6570.9 -8.66104 5.38572 0
M  V30 37467 O 6571.47 -6.33544 6.1349 0
M  V30 37468 O 6570.93 -6.7751 3.72168 0
M  V30 37469 C 6569.99 -7.20825 2.7076 0
M  V30 37470 C 6570.72 -7.45864 1.40599 0
M  V30 37471 O 6570.93 -6.17651 0.734225 0
M  V30 37472 C 6572.12 -8.05808 1.51899 0
M  V30 37473 O 6572.51 -8.74358 0.335205 0
M  V30 37474 C 6573 -6.83093 1.70294 0
M  V30 37475 C 6572.29 -5.79992 0.836974 0
M  V30 37476 N 6572.34 -4.41864 1.38293 0
M  V30 37477 H 6569.5 -8.13644 3.0377 0
M  V30 37478 H 6569.23 -6.42788 2.55485 0
M  V30 37479 H 6570.1 -8.12039 0.792769 0
M  V30 37480 P 6574.06 -8.91 3.30108e-10 0
M  V30 37481 O 6574.28 -10.1736 -0.733766 0
M  V30 37482 O 6574.85 -8.73247 1.2395 0
M  V30 37483 O 6574.31 -7.66872 -0.971405 0
M  V30 37484 C 6573.37 -7.42212 -2.04614 0
M  V30 37485 C 6574.1 -6.86059 -3.24661 0
M  V30 37486 O 6574.31 -5.42847 -3.03646 0
M  V30 37487 C 6575.5 -7.41196 -3.50753 0
M  V30 37488 O 6575.89 -7.27073 -4.86816 0
M  V30 37489 C 6576.38 -6.5273 -2.63741 0
M  V30 37490 C 6575.67 -5.1842 -2.73198 0
M  V30 37491 N 6575.72 -4.38668 -1.47808 0
M  V30 37492 C 6575.87 -3.02239 -1.60048 0
M  V30 37493 O 6575.96 -2.46459 -2.67869 0
M  V30 37494 N 6575.91 -2.32436 -0.408571 0
M  V30 37495 C 6575.82 -2.85471 0.854993 0
M  V30 37496 O 6575.87 -2.12566 1.8531 0
M  V30 37497 C 6575.67 -4.28918 0.887335 0
M  V30 37498 C 6575.56 -4.91066 2.24619 0
M  V30 37499 C 6575.62 -5.00349 -0.255399 0
M  V30 37500 H 6572.88 -8.36803 -2.32493 0
M  V30 37501 H 6572.61 -6.701 -1.71105 0
M  V30 37502 H 6573.48 -7.03551 -4.13168 0
M  V30 37503 H 6576.13 -4.59773 -3.53894 0
M  V30 37504 H 6576.41 -6.88995 -1.59871 0
M  V30 37505 H 6577.41 -6.46749 -3.03687 0
M  V30 37506 H 6575.57 -8.46908 -3.20714 0
M  V30 37507 H 6575.5 -6.08548 -0.206986 0
M  V30 37508 H 6576.53 -5.34836 2.53099 0
M  V30 37509 H 6574.79 -5.69638 2.2291 0
M  V30 37510 H 6575.28 -4.13971 2.98044 0
M  V30 37511 H 6576.02 -1.33211 -0.474216 0
M  V30 37512 P 6577.44 -7.20834 -5.23717 0
M  V30 37513 O 6577.66 -7.79853 -6.57286 0
M  V30 37514 O 6578.23 -7.79239 -4.12957 0
M  V30 37515 O 6577.69 -5.63315 -5.29344 0
M  V30 37516 C 6576.75 -4.80255 -6.01876 0
M  V30 37517 C 6577.48 -3.64202 -6.65911 0
M  V30 37518 O 6577.69 -2.60694 -5.64732 0
M  V30 37519 C 6578.88 -3.93473 -7.1943 0
M  V30 37520 O 6579.27 -3.02071 -8.21205 0
M  V30 37521 C 6579.76 -3.73047 -5.97036 0
M  V30 37522 C 6579.05 -2.58828 -5.25741 0
M  V30 37523 N 6579.1 -2.68068 -3.77503 0
M  V30 37524 H 6576.26 -5.40332 -6.79951 0
M  V30 37525 H 6575.99 -4.41613 -5.32378 0
M  V30 37526 H 6576.86 -3.26331 -7.47797 0
M  V30 37527 P 6580.82 -2.75334 -8.47391 0
M  V30 37528 O 6581.04 -2.44571 -9.90142 0
M  V30 37529 O 6581.61 -3.87688 -7.92115 0
M  V30 37530 O 6581.07 -1.4459 -7.59357 0
M  V30 37531 C 6580.13 -0.347608 -7.69215 0
M  V30 37532 C 6580.86 0.96767 -7.52806 0
M  V30 37533 O 6581.07 1.21036 -6.1011 0
M  V30 37534 C 6582.26 1.04544 -8.13308 0
M  V30 37535 O 6582.65 2.38311 -8.41922 0
M  V30 37536 C 6583.14 0.491279 -7.02284 0
M  V30 37537 C 6582.43 0.996264 -5.77469 0
M  V30 37538 N 6582.48 0.0501916 -4.62973 0
M  V30 37539 C 6582.4 -1.32786 -4.63244 0
M  V30 37540 N 6582.48 -1.86957 -3.44545 0
M  V30 37541 C 6582.62 -0.780241 -2.58481 0
M  V30 37542 C 6582.75 -0.738536 -1.17757 0
M  V30 37543 N 6582.87 0.58337 -0.711393 0
M  V30 37544 C 6582.87 1.70816 -1.51017 0
M  V30 37545 N 6583 2.87826 -0.880757 0
M  V30 37546 N 6582.74 1.67126 -2.8339 0
M  V30 37547 C 6582.62 0.401421 -3.30572 0
M  V30 37548 H 6579.64 -0.374722 -8.67691 0
M  V30 37549 H 6579.37 -0.443485 -6.90277 0
M  V30 37550 H 6580.24 1.75537 -7.96793 0
M  V30 37551 P 6584.2 2.75334 -8.47391 0
M  V30 37552 O 6584.42 3.84128 -9.44797 0
M  V30 37553 O 6584.99 1.51947 -8.68712 0
M  V30 37554 O 6584.45 3.29363 -6.99321 0
M  V30 37555 C 6583.51 4.24011 -6.4274 0
M  V30 37556 C 6584.24 5.20775 -5.52155 0
M  V30 37557 O 6584.45 4.56534 -4.22446 0
M  V30 37558 C 6585.64 5.62629 -5.96531 0
M  V30 37559 O 6586.03 6.87667 -5.41053 0
M  V30 37560 C 6586.52 4.52537 -5.39283 0
M  V30 37561 C 6585.81 4.20027 -4.08623 0
M  V30 37562 N 6585.86 2.76189 -3.71603 0
M  V30 37563 H 6583.02 4.797 -7.24003 0
M  V30 37564 H 6582.75 3.69856 -5.84513 0
M  V30 37565 H 6583.62 6.10356 -5.41441 0
M  V30 37566 P 6587.58 7.20834 -5.23717 0
M  V30 37567 O 6587.8 8.66104 -5.38572 0
M  V30 37568 O 6588.37 6.33544 -6.1349 0
M  V30 37569 O 6587.83 6.7751 -3.72168 0
M  V30 37570 C 6586.89 7.20825 -2.7076 0
M  V30 37571 C 6587.62 7.45864 -1.40599 0
M  V30 37572 O 6587.83 6.17651 -0.734225 0
M  V30 37573 C 6589.02 8.05808 -1.51899 0
M  V30 37574 O 6589.41 8.74358 -0.335205 0
M  V30 37575 C 6589.9 6.83093 -1.70294 0
M  V30 37576 C 6589.19 5.79992 -0.836974 0
M  V30 37577 N 6589.24 4.41864 -1.38293 0
M  V30 37578 H 6586.4 8.13644 -3.0377 0
M  V30 37579 H 6586.13 6.42788 -2.55485 0
M  V30 37580 H 6587 8.12039 -0.792769 0
M  V30 37581 P 6590.96 8.91 -3.31217e-10 0
M  V30 37582 O 6591.18 10.1726 0.733694 0
M  V30 37583 O 6591.75 8.73148 -1.23936 0
M  V30 37584 O 6591.21 7.66872 0.971405 0
M  V30 37585 C 6590.27 7.42309 2.04641 0
M  V30 37586 C 6591 6.86059 3.24661 0
M  V30 37587 O 6591.21 5.42847 3.03646 0
M  V30 37588 C 6592.4 7.41196 3.50753 0
M  V30 37589 O 6592.79 7.27073 4.86816 0
M  V30 37590 C 6593.28 6.5273 2.63741 0
M  V30 37591 C 6592.57 5.1842 2.73198 0
M  V30 37592 N 6592.62 4.38762 1.4784 0
M  V30 37593 H 6589.78 8.36803 2.32493 0
M  V30 37594 H 6589.51 6.70197 1.71129 0
M  V30 37595 H 6590.38 7.03551 4.13168 0
M  V30 37596 P 6594.34 7.20834 5.23717 0
M  V30 37597 O 6594.56 7.79853 6.57286 0
M  V30 37598 O 6595.13 7.79239 4.12957 0
M  V30 37599 O 6594.59 5.63315 5.29344 0
M  V30 37600 C 6593.65 4.80255 6.01876 0
M  V30 37601 C 6594.38 3.64202 6.65911 0
M  V30 37602 O 6594.59 2.60694 5.64732 0
M  V30 37603 C 6595.78 3.93473 7.1943 0
M  V30 37604 O 6596.17 3.02071 8.21205 0
M  V30 37605 C 6596.66 3.73047 5.97036 0
M  V30 37606 C 6595.95 2.58828 5.25741 0
M  V30 37607 N 6596 2.68068 3.77503 0
M  V30 37608 C 6595.92 3.79715 2.96723 0
M  V30 37609 N 6596 3.5377 1.68852 0
M  V30 37610 C 6596.14 2.15054 1.63254 0
M  V30 37611 C 6596.27 1.28964 0.518571 0
M  V30 37612 O 6596.29 1.56826 -0.679156 0
M  V30 37613 N 6596.39 -0.0538097 0.918425 0
M  V30 37614 C 6596.39 -0.494275 2.22578 0
M  V30 37615 N 6596.52 -1.81086 2.40434 0
M  V30 37616 N 6596.26 0.313645 3.27502 0
M  V30 37617 C 6596.14 1.61829 2.91033 0
M  V30 37618 H 6593.16 5.40332 6.79951 0
M  V30 37619 H 6592.89 4.41613 5.32378 0
M  V30 37620 H 6593.76 3.26331 7.47797 0
M  V30 37621 H 6596.41 1.63422 5.56814 0
M  V30 37622 H 6596.69 4.63374 5.34244 0
M  V30 37623 H 6597.68 3.44728 6.25838 0
M  V30 37624 H 6595.85 4.96652 7.57263 0
M  V30 37625 H 6595.8 4.80617 3.3614 0
M  V30 37626 H 6596.48 -0.742702 0.199384 0
M  V30 37627 H 6596.52 -2.20598 3.35588 0
M  V30 37628 H 6596.62 -2.43518 1.58945 0
M  V30 37629 P 6597.72 2.75334 8.47391 0
M  V30 37630 O 6597.94 2.44571 9.90142 0
M  V30 37631 O 6598.51 3.87688 7.92115 0
M  V30 37632 O 6597.97 1.4459 7.59357 0
M  V30 37633 C 6597.03 0.347608 7.69215 0
M  V30 37634 C 6597.76 -0.96767 7.52806 0
M  V30 37635 O 6597.97 -1.21036 6.1011 0
M  V30 37636 C 6599.16 -1.04544 8.13308 0
M  V30 37637 O 6599.55 -2.38311 8.41922 0
M  V30 37638 C 6600.04 -0.491279 7.02284 0
M  V30 37639 C 6599.33 -0.996264 5.77469 0
M  V30 37640 N 6599.38 -0.0501916 4.62973 0
M  V30 37641 H 6596.54 0.374722 8.67691 0
M  V30 37642 H 6596.27 0.443485 6.90277 0
M  V30 37643 H 6597.14 -1.75537 7.96793 0
M  V30 37644 P 6601.1 -2.75334 8.47391 0
M  V30 37645 O 6601.32 -3.84128 9.44797 0
M  V30 37646 O 6601.89 -1.51947 8.68712 0
M  V30 37647 O 6601.35 -3.29363 6.99321 0
M  V30 37648 C 6600.41 -4.24011 6.4274 0
M  V30 37649 C 6601.14 -5.20775 5.52155 0
M  V30 37650 O 6601.35 -4.56534 4.22446 0
M  V30 37651 C 6602.54 -5.62629 5.96531 0
M  V30 37652 O 6602.93 -6.87667 5.41053 0
M  V30 37653 C 6603.42 -4.52537 5.39283 0
M  V30 37654 C 6602.71 -4.20027 4.08623 0
M  V30 37655 N 6602.76 -2.76189 3.71603 0
M  V30 37656 C 6602.68 -1.64862 4.52822 0
M  V30 37657 N 6602.76 -0.512671 3.88633 0
M  V30 37658 C 6602.9 -0.888083 2.54977 0
M  V30 37659 C 6603.03 -0.094668 1.38677 0
M  V30 37660 O 6603.05 1.13053 1.28163 0
M  V30 37661 N 6603.15 -0.890102 0.232633 0
M  V30 37662 C 6603.15 -2.26958 0.21772 0
M  V30 37663 N 6603.28 -2.84626 -0.97925 0
M  V30 37664 N 6603.02 -3.0178 1.31033 0
M  V30 37665 C 6602.9 -2.26781 2.43843 0
M  V30 37666 H 6599.92 -4.797 7.24003 0
M  V30 37667 H 6599.65 -3.69856 5.84513 0
M  V30 37668 H 6600.52 -6.10356 5.41441 0
M  V30 37669 H 6603.17 -4.79061 3.27488 0
M  V30 37670 H 6603.45 -3.64906 6.05785 0
M  V30 37671 H 6604.44 -4.8868 5.2125 0
M  V30 37672 H 6602.61 -5.66726 7.06352 0
M  V30 37673 H 6602.56 -1.71169 5.60966 0
M  V30 37674 H 6603.24 -0.419134 -0.644739 0
M  V30 37675 H 6603.28 -3.87332 -1.06098 0
M  V30 37676 H 6603.38 -2.26417 -1.82483 0
M  V30 37677 P 6604.48 -7.20834 5.23717 0
M  V30 37678 O 6604.7 -8.66274 5.38678 0
M  V30 37679 O 6605.27 -6.33687 6.13629 0
M  V30 37680 O 6604.73 -6.7751 3.72168 0
M  V30 37681 C 6603.79 -7.20919 2.70795 0
M  V30 37682 C 6604.52 -7.45864 1.40599 0
M  V30 37683 O 6604.73 -6.17751 0.734343 0
M  V30 37684 C 6605.92 -8.05906 1.51917 0
M  V30 37685 O 6606.31 -8.74358 0.335205 0
M  V30 37686 C 6606.8 -6.83093 1.70294 0
M  V30 37687 C 6606.09 -5.79992 0.836974 0
M  V30 37688 N 6606.14 -4.41864 1.38293 0
M  V30 37689 C 6606.06 -4.02089 2.69407 0
M  V30 37690 N 6606.13 -2.73403 2.85089 0
M  V30 37691 C 6606.28 -2.25086 1.5642 0
M  V30 37692 C 6606.41 -0.942887 1.04836 0
M  V30 37693 N 6606.42 0.150999 1.80369 0
M  V30 37694 N 6606.53 -0.812565 -0.28167 0
M  V30 37695 C 6606.52 -1.90572 -1.03784 0
M  V30 37696 N 6606.4 -3.167 -0.683905 0
M  V30 37697 C 6606.28 -3.26538 0.652815 0
M  V30 37698 H 6603.3 -8.13738 3.03804 0
M  V30 37699 H 6603.03 -6.42974 2.55559 0
M  V30 37700 H 6603.9 -8.12139 0.792866 0
M  V30 37701 H 6606.55 -5.80178 -0.160643 0
M  V30 37702 H 6606.83 -6.51379 2.75643 0
M  V30 37703 H 6607.82 -7.01832 1.3448 0
M  V30 37704 H 6605.99 -8.73771 2.38364 0
M  V30 37705 H 6605.95 -4.7189 3.52311 0
M  V30 37706 H 6606.33 0.0721434 2.82608 0
M  V30 37707 H 6606.52 1.0785 1.36544 0
M  V30 37708 H 6606.63 -1.73207 -2.10241 0
M  V30 37709 P 6607.86 -8.91 3.32326e-10 0
M  V30 37710 O 6608.08 -10.1726 -0.733694 0
M  V30 37711 O 6608.65 -8.73148 1.23936 0
M  V30 37712 O 6608.11 -7.66872 -0.971405 0
M  V30 37713 C 6607.17 -7.42309 -2.04641 0
M  V30 37714 C 6607.9 -6.86059 -3.24661 0
M  V30 37715 O 6608.11 -5.42847 -3.03646 0
M  V30 37716 C 6609.3 -7.41196 -3.50753 0
M  V30 37717 O 6609.69 -7.27073 -4.86816 0
M  V30 37718 C 6610.18 -6.5273 -2.63741 0
M  V30 37719 C 6609.47 -5.1842 -2.73198 0
M  V30 37720 N 6609.52 -4.38762 -1.4784 0
M  V30 37721 H 6606.68 -8.36803 -2.32493 0
M  V30 37722 H 6606.41 -6.70197 -1.71129 0
M  V30 37723 H 6607.28 -7.03551 -4.13168 0
M  V30 37724 P 6611.24 -7.20834 -5.23717 0
M  V30 37725 O 6611.46 -7.79853 -6.57286 0
M  V30 37726 O 6612.03 -7.79239 -4.12957 0
M  V30 37727 O 6611.49 -5.63315 -5.29344 0
M  V30 37728 C 6610.55 -4.80255 -6.01876 0
M  V30 37729 C 6611.28 -3.64202 -6.65911 0
M  V30 37730 O 6611.49 -2.60694 -5.64732 0
M  V30 37731 C 6612.68 -3.93473 -7.1943 0
M  V30 37732 O 6613.07 -3.02071 -8.21205 0
M  V30 37733 C 6613.56 -3.73047 -5.97036 0
M  V30 37734 C 6612.85 -2.58828 -5.25741 0
M  V30 37735 N 6612.9 -2.68068 -3.77503 0
M  V30 37736 C 6612.82 -3.79715 -2.96723 0
M  V30 37737 N 6612.9 -3.5377 -1.68852 0
M  V30 37738 C 6613.04 -2.15054 -1.63254 0
M  V30 37739 C 6613.17 -1.28964 -0.518571 0
M  V30 37740 O 6613.19 -1.56826 0.679156 0
M  V30 37741 N 6613.29 0.0538097 -0.918425 0
M  V30 37742 C 6613.29 0.494275 -2.22578 0
M  V30 37743 N 6613.42 1.81086 -2.40434 0
M  V30 37744 N 6613.16 -0.313645 -3.27502 0
M  V30 37745 C 6613.04 -1.61829 -2.91033 0
M  V30 37746 H 6610.06 -5.40332 -6.79951 0
M  V30 37747 H 6609.79 -4.41613 -5.32378 0
M  V30 37748 H 6610.66 -3.26331 -7.47797 0
M  V30 37749 H 6613.31 -1.63422 -5.56814 0
M  V30 37750 H 6613.59 -4.63374 -5.34244 0
M  V30 37751 H 6614.58 -3.44728 -6.25838 0
M  V30 37752 H 6612.75 -4.96652 -7.57263 0
M  V30 37753 H 6612.7 -4.80617 -3.3614 0
M  V30 37754 H 6613.38 0.742702 -0.199384 0
M  V30 37755 H 6613.42 2.20598 -3.35588 0
M  V30 37756 H 6613.52 2.43518 -1.58945 0
M  V30 37757 P 6614.62 -2.75334 -8.47391 0
M  V30 37758 O 6614.84 -2.44571 -9.90142 0
M  V30 37759 O 6615.41 -3.87688 -7.92115 0
M  V30 37760 O 6614.87 -1.4459 -7.59357 0
M  V30 37761 C 6613.93 -0.347608 -7.69215 0
M  V30 37762 C 6614.66 0.96767 -7.52806 0
M  V30 37763 O 6614.87 1.21036 -6.1011 0
M  V30 37764 C 6616.06 1.04544 -8.13308 0
M  V30 37765 O 6616.45 2.38311 -8.41922 0
M  V30 37766 C 6616.94 0.491279 -7.02284 0
M  V30 37767 C 6616.23 0.996264 -5.77469 0
M  V30 37768 N 6616.28 0.0501916 -4.62973 0
M  V30 37769 H 6613.44 -0.374722 -8.67691 0
M  V30 37770 H 6613.17 -0.443485 -6.90277 0
M  V30 37771 H 6614.04 1.75537 -7.96793 0
M  V30 37772 P 6618 2.75334 -8.47391 0
M  V30 37773 O 6618.22 3.84128 -9.44797 0
M  V30 37774 O 6618.79 1.51947 -8.68712 0
M  V30 37775 O 6618.25 3.29363 -6.99321 0
M  V30 37776 C 6617.31 4.24011 -6.4274 0
M  V30 37777 C 6618.04 5.20775 -5.52155 0
M  V30 37778 O 6618.25 4.56534 -4.22446 0
M  V30 37779 C 6619.44 5.62629 -5.96531 0
M  V30 37780 O 6619.83 6.87667 -5.41053 0
M  V30 37781 C 6620.32 4.52537 -5.39283 0
M  V30 37782 C 6619.61 4.20027 -4.08623 0
M  V30 37783 N 6619.66 2.76189 -3.71603 0
M  V30 37784 H 6616.82 4.797 -7.24003 0
M  V30 37785 H 6616.55 3.69856 -5.84513 0
M  V30 37786 H 6617.42 6.10356 -5.41441 0
M  V30 37787 P 6621.38 7.20834 -5.23717 0
M  V30 37788 O 6621.6 8.66189 -5.38625 0
M  V30 37789 O 6622.17 6.33615 -6.1356 0
M  V30 37790 O 6621.63 6.7751 -3.72168 0
M  V30 37791 C 6620.69 7.20732 -2.70725 0
M  V30 37792 C 6621.42 7.45864 -1.40599 0
M  V30 37793 O 6621.63 6.17651 -0.734225 0
M  V30 37794 C 6622.82 8.05808 -1.51899 0
M  V30 37795 O 6623.21 8.74358 -0.335205 0
M  V30 37796 C 6623.7 6.83093 -1.70294 0
M  V30 37797 C 6622.99 5.79992 -0.836974 0
M  V30 37798 N 6623.04 4.41769 -1.38263 0
M  V30 37799 C 6623.19 3.38591 -0.481702 0
M  V30 37800 O 6623.28 3.56839 0.718452 0
M  V30 37801 N 6623.23 2.1206 -1.03569 0
M  V30 37802 C 6623.14 1.80696 -2.36966 0
M  V30 37803 C 6622.99 2.94845 -3.23898 0
M  V30 37804 C 6622.94 4.19803 -2.73435 0
M  V30 37805 H 6620.2 8.13644 -3.0377 0
M  V30 37806 H 6619.93 6.42695 -2.55448 0
M  V30 37807 H 6620.8 8.12039 -0.792769 0
M  V30 37808 H 6623.45 5.79978 0.160587 0
M  V30 37809 H 6623.73 6.51379 -2.75643 0
M  V30 37810 H 6624.72 7.01734 -1.34462 0
M  V30 37811 H 6622.89 8.73674 -2.38337 0
M  V30 37812 H 6622.82 5.04492 -3.4095 0
M  V30 37813 P 6624.76 8.91 -3.33435e-10 0
M  V30 37814 O 6624.98 10.1726 0.733694 0
M  V30 37815 O 6625.55 8.73148 -1.23936 0
M  V30 37816 O 6625.01 7.66872 0.971405 0
M  V30 37817 C 6624.07 7.42309 2.04641 0
M  V30 37818 C 6624.8 6.86059 3.24661 0
M  V30 37819 O 6625.01 5.42847 3.03646 0
M  V30 37820 C 6626.2 7.41196 3.50753 0
M  V30 37821 O 6626.59 7.27073 4.86816 0
M  V30 37822 C 6627.08 6.5273 2.63741 0
M  V30 37823 C 6626.37 5.1842 2.73198 0
M  V30 37824 N 6626.42 4.38762 1.4784 0
M  V30 37825 H 6623.58 8.36803 2.32493 0
M  V30 37826 H 6623.31 6.70197 1.71129 0
M  V30 37827 H 6624.18 7.03551 4.13168 0
M  V30 37828 P 6628.14 7.20834 5.23717 0
M  V30 37829 O 6628.36 7.79853 6.57286 0
M  V30 37830 O 6628.93 7.79239 4.12957 0
M  V30 37831 O 6628.39 5.63315 5.29344 0
M  V30 37832 C 6627.45 4.80255 6.01876 0
M  V30 37833 C 6628.18 3.64202 6.65911 0
M  V30 37834 O 6628.39 2.60694 5.64732 0
M  V30 37835 C 6629.58 3.93473 7.1943 0
M  V30 37836 O 6629.97 3.02071 8.21205 0
M  V30 37837 C 6630.46 3.73047 5.97036 0
M  V30 37838 C 6629.75 2.58828 5.25741 0
M  V30 37839 N 6629.8 2.68068 3.77503 0
M  V30 37840 C 6629.72 3.79715 2.96723 0
M  V30 37841 N 6629.8 3.5377 1.68852 0
M  V30 37842 C 6629.94 2.15054 1.63254 0
M  V30 37843 C 6630.07 1.28964 0.518571 0
M  V30 37844 O 6630.09 1.56826 -0.679156 0
M  V30 37845 N 6630.19 -0.0538097 0.918425 0
M  V30 37846 C 6630.19 -0.494275 2.22578 0
M  V30 37847 N 6630.32 -1.81086 2.40434 0
M  V30 37848 N 6630.06 0.313645 3.27502 0
M  V30 37849 C 6629.94 1.61829 2.91033 0
M  V30 37850 H 6626.96 5.40332 6.79951 0
M  V30 37851 H 6626.69 4.41613 5.32378 0
M  V30 37852 H 6627.56 3.26331 7.47797 0
M  V30 37853 H 6630.21 1.63422 5.56814 0
M  V30 37854 H 6630.49 4.63374 5.34244 0
M  V30 37855 H 6631.48 3.44728 6.25838 0
M  V30 37856 H 6629.65 4.96652 7.57263 0
M  V30 37857 H 6629.6 4.80617 3.3614 0
M  V30 37858 H 6630.28 -0.742702 0.199384 0
M  V30 37859 H 6630.32 -2.20598 3.35588 0
M  V30 37860 H 6630.42 -2.43518 1.58945 0
M  V30 37861 P 6631.52 2.75334 8.47391 0
M  V30 37862 O 6631.74 2.44595 9.90239 0
M  V30 37863 O 6632.31 3.87732 7.92204 0
M  V30 37864 O 6631.77 1.4459 7.59357 0
M  V30 37865 C 6630.83 0.347563 7.69115 0
M  V30 37866 C 6631.56 -0.96767 7.52806 0
M  V30 37867 O 6631.77 -1.21036 6.1011 0
M  V30 37868 C 6632.96 -1.04544 8.13308 0
M  V30 37869 O 6633.35 -2.38311 8.41922 0
M  V30 37870 C 6633.84 -0.491279 7.02284 0
M  V30 37871 C 6633.13 -0.996264 5.77469 0
M  V30 37872 N 6633.18 -0.0501808 4.62873 0
M  V30 37873 C 6633.33 -0.588177 3.36904 0
M  V30 37874 O 6633.42 -1.78598 3.17173 0
M  V30 37875 N 6633.37 0.329694 2.33686 0
M  V30 37876 C 6633.28 1.6953 2.45079 0
M  V30 37877 O 6633.33 2.41926 1.44899 0
M  V30 37878 C 6633.13 2.16933 3.80505 0
M  V30 37879 C 6633.02 3.65373 3.97621 0
M  V30 37880 C 6633.08 1.30326 4.83752 0
M  V30 37881 H 6630.34 0.374722 8.67691 0
M  V30 37882 H 6630.07 0.443421 6.90177 0
M  V30 37883 H 6630.94 -1.75537 7.96793 0
M  V30 37884 H 6633.59 -1.94496 5.46629 0
M  V30 37885 H 6633.87 0.608651 7.04676 0
M  V30 37886 H 6634.86 -0.889672 7.08939 0
M  V30 37887 H 6633.03 -0.43308 9.04564 0
M  V30 37888 H 6632.96 1.68366 5.8516 0
M  V30 37889 H 6633.99 4.05985 4.30448 0
M  V30 37890 H 6632.25 3.88028 4.72875 0
M  V30 37891 H 6632.74 4.11381 3.01609 0
M  V30 37892 H 6633.48 -0.0393617 1.41345 0
M  V30 37893 P 6634.9 -2.75334 8.47391 0
M  V30 37894 O 6635.12 -3.84204 9.44982 0
M  V30 37895 O 6635.69 -1.51982 8.68909 0
M  V30 37896 O 6635.15 -3.29363 6.99321 0
M  V30 37897 C 6634.21 -4.24066 6.42823 0
M  V30 37898 C 6634.94 -5.20775 5.52155 0
M  V30 37899 O 6635.15 -4.56607 4.22514 0
M  V30 37900 C 6636.34 -5.62697 5.96604 0
M  V30 37901 O 6636.73 -6.87667 5.41053 0
M  V30 37902 C 6637.22 -4.52537 5.39283 0
M  V30 37903 C 6636.51 -4.20027 4.08623 0
M  V30 37904 N 6636.56 -2.76189 3.71603 0
M  V30 37905 C 6636.48 -1.66944 4.54297 0
M  V30 37906 N 6636.55 -0.536169 3.91344 0
M  V30 37907 C 6636.7 -0.901569 2.58849 0
M  V30 37908 C 6636.83 -0.146599 1.40236 0
M  V30 37909 N 6636.84 1.18234 1.37046 0
M  V30 37910 N 6636.95 -0.822941 0.249738 0
M  V30 37911 C 6636.94 -2.15179 0.280525 0
M  V30 37912 N 6636.82 -2.96414 1.30822 0
M  V30 37913 C 6636.7 -2.25804 2.44748 0
M  V30 37914 H 6633.72 -4.79756 7.24086 0
M  V30 37915 H 6633.45 -3.69963 5.84682 0
M  V30 37916 H 6634.32 -6.10431 5.41508 0
M  V30 37917 H 6636.97 -4.78816 3.28024 0
M  V30 37918 H 6637.25 -3.64957 6.05871 0
M  V30 37919 H 6638.24 -4.88748 5.21323 0
M  V30 37920 H 6636.41 -5.66789 7.0643 0
M  V30 37921 H 6636.37 -1.74684 5.62396 0
M  V30 37922 H 6636.75 1.71949 2.24394 0
M  V30 37923 H 6636.94 1.67511 0.470742 0
M  V30 37924 H 6637.05 -2.63704 -0.6828 0
M  V30 37925 P 6638.28 -7.20834 5.23717 0
M  V30 37926 O 6638.5 -8.66104 5.38572 0
M  V30 37927 O 6639.07 -6.33544 6.1349 0
M  V30 37928 O 6638.53 -6.7751 3.72168 0
M  V30 37929 C 6637.59 -7.20825 2.7076 0
M  V30 37930 C 6638.32 -7.45864 1.40599 0
M  V30 37931 O 6638.53 -6.17651 0.734225 0
M  V30 37932 C 6639.72 -8.05808 1.51899 0
M  V30 37933 O 6640.11 -8.74358 0.335205 0
M  V30 37934 C 6640.6 -6.83093 1.70294 0
M  V30 37935 C 6639.89 -5.79992 0.836974 0
M  V30 37936 N 6639.94 -4.41864 1.38293 0
M  V30 37937 H 6637.1 -8.13644 3.0377 0
M  V30 37938 H 6636.83 -6.42788 2.55485 0
M  V30 37939 H 6637.7 -8.12039 0.792769 0
M  V30 37940 P 6641.66 -8.91 3.34544e-10 0
M  V30 37941 O 6641.88 -10.1726 -0.733694 0
M  V30 37942 O 6642.45 -8.73148 1.23936 0
M  V30 37943 O 6641.91 -7.66872 -0.971405 0
M  V30 37944 C 6640.97 -7.42309 -2.04641 0
M  V30 37945 C 6641.7 -6.86059 -3.24661 0
M  V30 37946 O 6641.91 -5.42847 -3.03646 0
M  V30 37947 C 6643.1 -7.41196 -3.50753 0
M  V30 37948 O 6643.49 -7.27073 -4.86816 0
M  V30 37949 C 6643.98 -6.5273 -2.63741 0
M  V30 37950 C 6643.27 -5.1842 -2.73198 0
M  V30 37951 N 6643.32 -4.38762 -1.4784 0
M  V30 37952 H 6640.48 -8.36803 -2.32493 0
M  V30 37953 H 6640.21 -6.70197 -1.71129 0
M  V30 37954 H 6641.08 -7.03551 -4.13168 0
M  V30 37955 P 6645.04 -7.20834 -5.23717 0
M  V30 37956 O 6645.26 -7.79853 -6.57286 0
M  V30 37957 O 6645.83 -7.79239 -4.12957 0
M  V30 37958 O 6645.29 -5.63315 -5.29344 0
M  V30 37959 C 6644.35 -4.80255 -6.01876 0
M  V30 37960 C 6645.08 -3.64202 -6.65911 0
M  V30 37961 O 6645.29 -2.60694 -5.64732 0
M  V30 37962 C 6646.48 -3.93473 -7.1943 0
M  V30 37963 O 6646.87 -3.02071 -8.21205 0
M  V30 37964 C 6647.36 -3.73047 -5.97036 0
M  V30 37965 C 6646.65 -2.58828 -5.25741 0
M  V30 37966 N 6646.7 -2.68068 -3.77503 0
M  V30 37967 H 6643.86 -5.40332 -6.79951 0
M  V30 37968 H 6643.59 -4.41613 -5.32378 0
M  V30 37969 H 6644.46 -3.26331 -7.47797 0
M  V30 37970 P 6648.42 -2.75334 -8.47391 0
M  V30 37971 O 6648.64 -2.44571 -9.90142 0
M  V30 37972 O 6649.21 -3.87688 -7.92115 0
M  V30 37973 O 6648.67 -1.4459 -7.59357 0
M  V30 37974 C 6647.73 -0.347608 -7.69215 0
M  V30 37975 C 6648.46 0.96767 -7.52806 0
M  V30 37976 O 6648.67 1.21036 -6.1011 0
M  V30 37977 C 6649.86 1.04544 -8.13308 0
M  V30 37978 O 6650.25 2.38311 -8.41922 0
M  V30 37979 C 6650.74 0.491279 -7.02284 0
M  V30 37980 C 6650.03 0.996264 -5.77469 0
M  V30 37981 N 6650.08 0.0501916 -4.62973 0
M  V30 37982 H 6647.24 -0.374722 -8.67691 0
M  V30 37983 H 6646.97 -0.443485 -6.90277 0
M  V30 37984 H 6647.84 1.75537 -7.96793 0
M  V30 37985 P 6651.8 2.75334 -8.47391 0
M  V30 37986 O 6652.02 3.84128 -9.44797 0
M  V30 37987 O 6652.59 1.51947 -8.68712 0
M  V30 37988 O 6652.05 3.29363 -6.99321 0
M  V30 37989 C 6651.11 4.24011 -6.4274 0
M  V30 37990 C 6651.84 5.20775 -5.52155 0
M  V30 37991 O 6652.05 4.56534 -4.22446 0
M  V30 37992 C 6653.24 5.62629 -5.96531 0
M  V30 37993 O 6653.63 6.87667 -5.41053 0
M  V30 37994 C 6654.12 4.52537 -5.39283 0
M  V30 37995 C 6653.41 4.20027 -4.08623 0
M  V30 37996 N 6653.46 2.76189 -3.71603 0
M  V30 37997 C 6653.38 1.64862 -4.52822 0
M  V30 37998 N 6653.46 0.512671 -3.88633 0
M  V30 37999 C 6653.6 0.888083 -2.54977 0
M  V30 38000 C 6653.73 0.094668 -1.38677 0
M  V30 38001 O 6653.75 -1.13053 -1.28163 0
M  V30 38002 N 6653.85 0.890102 -0.232633 0
M  V30 38003 C 6653.85 2.26958 -0.21772 0
M  V30 38004 N 6653.98 2.84626 0.97925 0
M  V30 38005 N 6653.72 3.0178 -1.31033 0
M  V30 38006 C 6653.6 2.26781 -2.43843 0
M  V30 38007 H 6650.62 4.797 -7.24003 0
M  V30 38008 H 6650.35 3.69856 -5.84513 0
M  V30 38009 H 6651.22 6.10356 -5.41441 0
M  V30 38010 H 6653.87 4.79061 -3.27488 0
M  V30 38011 H 6654.15 3.64906 -6.05785 0
M  V30 38012 H 6655.14 4.8868 -5.2125 0
M  V30 38013 H 6653.31 5.66726 -7.06352 0
M  V30 38014 H 6653.26 1.71169 -5.60966 0
M  V30 38015 H 6653.94 0.419134 0.644739 0
M  V30 38016 H 6653.98 3.87332 1.06098 0
M  V30 38017 H 6654.08 2.26417 1.82483 0
M  V30 38018 P 6655.18 7.20834 -5.23717 0
M  V30 38019 O 6655.4 8.66104 -5.38572 0
M  V30 38020 O 6655.97 6.33544 -6.1349 0
M  V30 38021 O 6655.43 6.7751 -3.72168 0
M  V30 38022 C 6654.49 7.20825 -2.7076 0
M  V30 38023 C 6655.22 7.45864 -1.40599 0
M  V30 38024 O 6655.43 6.17651 -0.734225 0
M  V30 38025 C 6656.62 8.05808 -1.51899 0
M  V30 38026 O 6657.01 8.74358 -0.335205 0
M  V30 38027 C 6657.5 6.83093 -1.70294 0
M  V30 38028 C 6656.79 5.79992 -0.836974 0
M  V30 38029 N 6656.84 4.41864 -1.38293 0
M  V30 38030 H 6654 8.13644 -3.0377 0
M  V30 38031 H 6653.73 6.42788 -2.55485 0
M  V30 38032 H 6654.6 8.12039 -0.792769 0
M  V30 38033 P 6658.56 8.91 -3.35653e-10 0
M  V30 38034 O 6658.78 10.1726 0.733694 0
M  V30 38035 O 6659.35 8.73148 -1.23936 0
M  V30 38036 O 6658.81 7.66872 0.971405 0
M  V30 38037 C 6657.87 7.42309 2.04641 0
M  V30 38038 C 6658.6 6.86059 3.24661 0
M  V30 38039 O 6658.81 5.42847 3.03646 0
M  V30 38040 C 6660 7.41196 3.50753 0
M  V30 38041 O 6660.39 7.27073 4.86816 0
M  V30 38042 C 6660.88 6.5273 2.63741 0
M  V30 38043 C 6660.17 5.1842 2.73198 0
M  V30 38044 N 6660.22 4.38762 1.4784 0
M  V30 38045 C 6660.14 4.81605 0.168631 0
M  V30 38046 N 6660.22 3.85454 -0.713363 0
M  V30 38047 C 6660.36 2.6994 0.0566958 0
M  V30 38048 C 6660.49 1.34815 -0.338502 0
M  V30 38049 O 6660.51 0.869548 -1.47125 0
M  V30 38050 N 6660.61 0.496304 0.77465 0
M  V30 38051 C 6660.61 0.908403 2.09122 0
M  V30 38052 N 6660.74 -0.0517805 3.00955 0
M  V30 38053 N 6660.48 2.17875 2.46519 0
M  V30 38054 C 6660.36 3.01988 1.4033 0
M  V30 38055 H 6657.38 8.36803 2.32493 0
M  V30 38056 H 6657.11 6.70197 1.71129 0
M  V30 38057 H 6657.98 7.03551 4.13168 0
M  V30 38058 H 6660.63 4.59498 3.54415 0
M  V30 38059 H 6660.91 6.88898 1.59848 0
M  V30 38060 H 6661.9 6.46749 3.03687 0
M  V30 38061 H 6660.07 8.46908 3.20714 0
M  V30 38062 H 6660.02 5.86405 -0.105564 0
M  V30 38063 H 6660.7 -0.483664 0.597855 0
M  V30 38064 H 6660.74 0.187865 4.0116 0
M  V30 38065 H 6660.84 -1.03585 2.71726 0
M  V30 38066 P 6661.94 7.20834 5.23717 0
M  V30 38067 O 6662.16 7.79853 6.57286 0
M  V30 38068 O 6662.73 7.79239 4.12957 0
M  V30 38069 O 6662.19 5.63315 5.29344 0
M  V30 38070 C 6661.25 4.80255 6.01876 0
M  V30 38071 C 6661.98 3.64202 6.65911 0
M  V30 38072 O 6662.19 2.60694 5.64732 0
M  V30 38073 C 6663.38 3.93473 7.1943 0
M  V30 38074 O 6663.77 3.02071 8.21205 0
M  V30 38075 C 6664.26 3.73047 5.97036 0
M  V30 38076 C 6663.55 2.58828 5.25741 0
M  V30 38077 N 6663.6 2.68068 3.77503 0
M  V30 38078 H 6660.76 5.40332 6.79951 0
M  V30 38079 H 6660.49 4.41613 5.32378 0
M  V30 38080 H 6661.36 3.26331 7.47797 0
M  V30 38081 P 6665.32 2.75334 8.47391 0
M  V30 38082 O 6665.54 2.44571 9.90142 0
M  V30 38083 O 6666.11 3.87688 7.92115 0
M  V30 38084 O 6665.57 1.4459 7.59357 0
M  V30 38085 C 6664.63 0.347608 7.69215 0
M  V30 38086 C 6665.36 -0.96767 7.52806 0
M  V30 38087 O 6665.57 -1.21036 6.1011 0
M  V30 38088 C 6666.76 -1.04544 8.13308 0
M  V30 38089 O 6667.15 -2.38311 8.41922 0
M  V30 38090 C 6667.64 -0.491279 7.02284 0
M  V30 38091 C 6666.93 -0.996264 5.77469 0
M  V30 38092 N 6666.98 -0.0501916 4.62973 0
M  V30 38093 C 6666.9 1.32786 4.63244 0
M  V30 38094 N 6666.98 1.86957 3.44545 0
M  V30 38095 C 6667.12 0.780241 2.58481 0
M  V30 38096 C 6667.25 0.738536 1.17757 0
M  V30 38097 O 6667.27 1.66794 0.372349 0
M  V30 38098 N 6667.37 -0.58337 0.711393 0
M  V30 38099 C 6667.37 -1.70816 1.51017 0
M  V30 38100 N 6667.5 -2.87826 0.880757 0
M  V30 38101 N 6667.24 -1.67126 2.8339 0
M  V30 38102 C 6667.12 -0.401421 3.30572 0
M  V30 38103 H 6664.14 0.374722 8.67691 0
M  V30 38104 H 6663.87 0.443485 6.90277 0
M  V30 38105 H 6664.74 -1.75537 7.96793 0
M  V30 38106 H 6667.39 -1.95076 5.46529 0
M  V30 38107 H 6667.67 0.608565 7.04577 0
M  V30 38108 H 6668.66 -0.889672 7.08939 0
M  V30 38109 H 6666.83 -0.43308 9.04564 0
M  V30 38110 H 6666.78 1.91249 5.54442 0
M  V30 38111 H 6667.46 -0.718054 -0.275244 0
M  V30 38112 H 6667.5 -3.75721 1.41832 0
M  V30 38113 H 6667.6 -2.90436 -0.145468 0
M  V30 38114 P 6668.7 -2.75334 8.47391 0
M  V30 38115 O 6668.92 -3.84128 9.44797 0
M  V30 38116 O 6669.49 -1.51947 8.68712 0
M  V30 38117 O 6668.95 -3.29363 6.99321 0
M  V30 38118 C 6668.01 -4.24011 6.4274 0
M  V30 38119 C 6668.74 -5.20775 5.52155 0
M  V30 38120 O 6668.95 -4.56534 4.22446 0
M  V30 38121 C 6670.14 -5.62629 5.96531 0
M  V30 38122 O 6670.53 -6.87667 5.41053 0
M  V30 38123 C 6671.02 -4.52537 5.39283 0
M  V30 38124 C 6670.31 -4.20027 4.08623 0
M  V30 38125 N 6670.36 -2.76189 3.71603 0
M  V30 38126 H 6667.52 -4.797 7.24003 0
M  V30 38127 H 6667.25 -3.69856 5.84513 0
M  V30 38128 H 6668.12 -6.10356 5.41441 0
M  V30 38129 P 6672.08 -7.20834 5.23717 0
M  V30 38130 O 6672.3 -8.66104 5.38572 0
M  V30 38131 O 6672.87 -6.33544 6.1349 0
M  V30 38132 O 6672.33 -6.7751 3.72168 0
M  V30 38133 C 6671.39 -7.20825 2.7076 0
M  V30 38134 C 6672.12 -7.45864 1.40599 0
M  V30 38135 O 6672.33 -6.17651 0.734225 0
M  V30 38136 C 6673.52 -8.05808 1.51899 0
M  V30 38137 O 6673.91 -8.74358 0.335205 0
M  V30 38138 C 6674.4 -6.83093 1.70294 0
M  V30 38139 C 6673.69 -5.79992 0.836974 0
M  V30 38140 N 6673.74 -4.41864 1.38293 0
M  V30 38141 H 6670.9 -8.13644 3.0377 0
M  V30 38142 H 6670.63 -6.42788 2.55485 0
M  V30 38143 H 6671.5 -8.12039 0.792769 0
M  V30 38144 P 6675.46 -8.91 3.36762e-10 0
M  V30 38145 O 6675.68 -10.1726 -0.733694 0
M  V30 38146 O 6676.25 -8.73148 1.23936 0
M  V30 38147 O 6675.71 -7.66872 -0.971405 0
M  V30 38148 C 6674.77 -7.42309 -2.04641 0
M  V30 38149 C 6675.5 -6.86059 -3.24661 0
M  V30 38150 O 6675.71 -5.42847 -3.03646 0
M  V30 38151 C 6676.9 -7.41196 -3.50753 0
M  V30 38152 O 6677.29 -7.27073 -4.86816 0
M  V30 38153 C 6677.78 -6.5273 -2.63741 0
M  V30 38154 C 6677.07 -5.1842 -2.73198 0
M  V30 38155 N 6677.12 -4.38762 -1.4784 0
M  V30 38156 H 6674.28 -8.36803 -2.32493 0
M  V30 38157 H 6674.01 -6.70197 -1.71129 0
M  V30 38158 H 6674.88 -7.03551 -4.13168 0
M  V30 38159 P 6678.84 -7.20834 -5.23717 0
M  V30 38160 O 6679.06 -7.79853 -6.57286 0
M  V30 38161 O 6679.63 -7.79239 -4.12957 0
M  V30 38162 O 6679.09 -5.63315 -5.29344 0
M  V30 38163 C 6678.15 -4.80255 -6.01876 0
M  V30 38164 C 6678.88 -3.64202 -6.65911 0
M  V30 38165 O 6679.09 -2.60694 -5.64732 0
M  V30 38166 C 6680.28 -3.93473 -7.1943 0
M  V30 38167 O 6680.67 -3.02071 -8.21205 0
M  V30 38168 C 6681.16 -3.73047 -5.97036 0
M  V30 38169 C 6680.45 -2.58828 -5.25741 0
M  V30 38170 N 6680.5 -2.68068 -3.77503 0
M  V30 38171 H 6677.66 -5.40332 -6.79951 0
M  V30 38172 H 6677.39 -4.41613 -5.32378 0
M  V30 38173 H 6678.26 -3.26331 -7.47797 0
M  V30 38174 P 6682.22 -2.75334 -8.47391 0
M  V30 38175 O 6682.44 -2.44619 -9.90336 0
M  V30 38176 O 6683.01 -3.87776 -7.92294 0
M  V30 38177 O 6682.47 -1.4459 -7.59357 0
M  V30 38178 C 6681.53 -0.347653 -7.69315 0
M  V30 38179 C 6682.26 0.96767 -7.52806 0
M  V30 38180 O 6682.47 1.21055 -6.10208 0
M  V30 38181 C 6683.66 1.04557 -8.13408 0
M  V30 38182 O 6684.05 2.38311 -8.41922 0
M  V30 38183 C 6684.54 0.491279 -7.02284 0
M  V30 38184 C 6683.83 0.996264 -5.77469 0
M  V30 38185 N 6683.88 0.0501916 -4.62973 0
M  V30 38186 C 6683.8 -1.31969 -4.65661 0
M  V30 38187 N 6683.87 -1.86649 -3.48119 0
M  V30 38188 C 6684.02 -0.792089 -2.62406 0
M  V30 38189 C 6684.15 -0.705684 -1.2207 0
M  V30 38190 N 6684.16 -1.76207 -0.413762 0
M  V30 38191 N 6684.27 0.518981 -0.685754 0
M  V30 38192 C 6684.26 1.57595 -1.49174 0
M  V30 38193 N 6684.14 1.62909 -2.80066 0
M  V30 38194 C 6684.02 0.388195 -3.3073 0
M  V30 38195 H 6681.04 -0.374765 -8.67791 0
M  V30 38196 H 6680.77 -0.443613 -6.90476 0
M  V30 38197 H 6681.64 1.75559 -7.96891 0
M  V30 38198 H 6684.29 1.94563 -5.46818 0
M  V30 38199 H 6684.57 -0.608651 -7.04676 0
M  V30 38200 H 6685.56 0.889796 -7.09039 0
M  V30 38201 H 6683.73 0.433128 -9.04664 0
M  V30 38202 H 6683.69 -1.89246 -5.57664 0
M  V30 38203 H 6684.07 -2.71005 -0.804694 0
M  V30 38204 H 6684.26 -1.63189 0.603768 0
M  V30 38205 H 6684.37 2.53475 -0.997614 0
M  V30 38206 P 6685.6 2.75334 -8.47391 0
M  V30 38207 O 6685.82 3.84128 -9.44797 0
M  V30 38208 O 6686.39 1.51947 -8.68712 0
M  V30 38209 O 6685.85 3.29363 -6.99321 0
M  V30 38210 C 6684.91 4.24011 -6.4274 0
M  V30 38211 C 6685.64 5.20775 -5.52155 0
M  V30 38212 O 6685.85 4.56534 -4.22446 0
M  V30 38213 C 6687.04 5.62629 -5.96531 0
M  V30 38214 O 6687.43 6.87667 -5.41053 0
M  V30 38215 C 6687.92 4.52537 -5.39283 0
M  V30 38216 C 6687.21 4.20027 -4.08623 0
M  V30 38217 N 6687.26 2.76189 -3.71603 0
M  V30 38218 H 6684.42 4.797 -7.24003 0
M  V30 38219 H 6684.15 3.69856 -5.84513 0
M  V30 38220 H 6685.02 6.10356 -5.41441 0
M  V30 38221 P 6688.98 7.20834 -5.23717 0
M  V30 38222 O 6689.2 8.66104 -5.38572 0
M  V30 38223 O 6689.77 6.33544 -6.1349 0
M  V30 38224 O 6689.23 6.7751 -3.72168 0
M  V30 38225 C 6688.29 7.20825 -2.7076 0
M  V30 38226 C 6689.02 7.45864 -1.40599 0
M  V30 38227 O 6689.23 6.17651 -0.734225 0
M  V30 38228 C 6690.42 8.05808 -1.51899 0
M  V30 38229 O 6690.81 8.74358 -0.335205 0
M  V30 38230 C 6691.3 6.83093 -1.70294 0
M  V30 38231 C 6690.59 5.79992 -0.836974 0
M  V30 38232 N 6690.64 4.41864 -1.38293 0
M  V30 38233 H 6687.8 8.13644 -3.0377 0
M  V30 38234 H 6687.53 6.42788 -2.55485 0
M  V30 38235 H 6688.4 8.12039 -0.792769 0
M  V30 38236 P 6692.36 8.91 -3.37871e-10 0
M  V30 38237 O 6692.58 10.1736 0.733766 0
M  V30 38238 O 6693.15 8.73247 -1.2395 0
M  V30 38239 O 6692.61 7.66872 0.971405 0
M  V30 38240 C 6691.67 7.42212 2.04614 0
M  V30 38241 C 6692.4 6.86059 3.24661 0
M  V30 38242 O 6692.61 5.42847 3.03646 0
M  V30 38243 C 6693.8 7.41196 3.50753 0
M  V30 38244 O 6694.19 7.27073 4.86816 0
M  V30 38245 C 6694.68 6.5273 2.63741 0
M  V30 38246 C 6693.97 5.1842 2.73198 0
M  V30 38247 N 6694.02 4.38668 1.47808 0
M  V30 38248 C 6694.17 3.02239 1.60048 0
M  V30 38249 O 6694.26 2.46459 2.67869 0
M  V30 38250 N 6694.21 2.32436 0.408571 0
M  V30 38251 C 6694.12 2.85471 -0.854993 0
M  V30 38252 O 6694.17 2.12566 -1.8531 0
M  V30 38253 C 6693.97 4.28918 -0.887335 0
M  V30 38254 C 6693.86 4.91066 -2.24619 0
M  V30 38255 C 6693.92 5.00349 0.255399 0
M  V30 38256 H 6691.18 8.36803 2.32493 0
M  V30 38257 H 6690.91 6.701 1.71105 0
M  V30 38258 H 6691.78 7.03551 4.13168 0
M  V30 38259 H 6694.43 4.59773 3.53894 0
M  V30 38260 H 6694.71 6.88995 1.59871 0
M  V30 38261 H 6695.7 6.46749 3.03687 0
M  V30 38262 H 6693.87 8.46908 3.20714 0
M  V30 38263 H 6693.8 6.08548 0.206986 0
M  V30 38264 H 6694.83 5.34836 -2.53099 0
M  V30 38265 H 6693.09 5.69638 -2.2291 0
M  V30 38266 H 6693.58 4.13971 -2.98044 0
M  V30 38267 H 6694.32 1.33211 0.474216 0
M  V30 38268 P 6695.74 7.20834 5.23717 0
M  V30 38269 O 6695.96 7.79853 6.57286 0
M  V30 38270 O 6696.53 7.79239 4.12957 0
M  V30 38271 O 6695.99 5.63315 5.29344 0
M  V30 38272 C 6695.05 4.80255 6.01876 0
M  V30 38273 C 6695.78 3.64202 6.65911 0
M  V30 38274 O 6695.99 2.60694 5.64732 0
M  V30 38275 C 6697.18 3.93473 7.1943 0
M  V30 38276 O 6697.57 3.02071 8.21205 0
M  V30 38277 C 6698.06 3.73047 5.97036 0
M  V30 38278 C 6697.35 2.58828 5.25741 0
M  V30 38279 N 6697.4 2.68068 3.77503 0
M  V30 38280 H 6694.56 5.40332 6.79951 0
M  V30 38281 H 6694.29 4.41613 5.32378 0
M  V30 38282 H 6695.16 3.26331 7.47797 0
M  V30 38283 P 6699.12 2.75334 8.47391 0
M  V30 38284 O 6699.34 2.44571 9.90142 0
M  V30 38285 O 6699.91 3.87688 7.92115 0
M  V30 38286 O 6699.37 1.4459 7.59357 0
M  V30 38287 C 6698.43 0.347608 7.69215 0
M  V30 38288 C 6699.16 -0.96767 7.52806 0
M  V30 38289 O 6699.37 -1.21036 6.1011 0
M  V30 38290 C 6700.56 -1.04544 8.13308 0
M  V30 38291 O 6700.95 -2.38311 8.41922 0
M  V30 38292 C 6701.44 -0.491279 7.02284 0
M  V30 38293 C 6700.73 -0.996264 5.77469 0
M  V30 38294 N 6700.78 -0.0501916 4.62973 0
M  V30 38295 H 6697.94 0.374722 8.67691 0
M  V30 38296 H 6697.67 0.443485 6.90277 0
M  V30 38297 H 6698.54 -1.75537 7.96793 0
M  V30 38298 P 6702.5 -2.75334 8.47391 0
M  V30 38299 O 6702.72 -3.84128 9.44797 0
M  V30 38300 O 6703.29 -1.51947 8.68712 0
M  V30 38301 O 6702.75 -3.29363 6.99321 0
M  V30 38302 C 6701.81 -4.24011 6.4274 0
M  V30 38303 C 6702.54 -5.20775 5.52155 0
M  V30 38304 O 6702.75 -4.56534 4.22446 0
M  V30 38305 C 6703.94 -5.62629 5.96531 0
M  V30 38306 O 6704.33 -6.87667 5.41053 0
M  V30 38307 C 6704.82 -4.52537 5.39283 0
M  V30 38308 C 6704.11 -4.20027 4.08623 0
M  V30 38309 N 6704.16 -2.76189 3.71603 0
M  V30 38310 H 6701.32 -4.797 7.24003 0
M  V30 38311 H 6701.05 -3.69856 5.84513 0
M  V30 38312 H 6701.92 -6.10356 5.41441 0
M  V30 38313 P 6705.88 -7.20834 5.23717 0
M  V30 38314 O 6706.1 -8.66104 5.38572 0
M  V30 38315 O 6706.67 -6.33544 6.1349 0
M  V30 38316 O 6706.13 -6.7751 3.72168 0
M  V30 38317 C 6705.19 -7.20825 2.7076 0
M  V30 38318 C 6705.92 -7.45864 1.40599 0
M  V30 38319 O 6706.13 -6.17651 0.734225 0
M  V30 38320 C 6707.32 -8.05808 1.51899 0
M  V30 38321 O 6707.71 -8.74358 0.335205 0
M  V30 38322 C 6708.2 -6.83093 1.70294 0
M  V30 38323 C 6707.49 -5.79992 0.836974 0
M  V30 38324 N 6707.54 -4.41864 1.38293 0
M  V30 38325 C 6707.46 -3.99538 2.69438 0
M  V30 38326 N 6707.54 -2.69909 2.84277 0
M  V30 38327 C 6707.68 -2.21719 1.5408 0
M  V30 38328 C 6707.81 -0.891712 1.06628 0
M  V30 38329 O 6707.83 0.161298 1.70137 0
M  V30 38330 N 6707.93 -0.856846 -0.334985 0
M  V30 38331 C 6707.93 -1.9641 -1.15789 0
M  V30 38332 N 6708.06 -1.72708 -2.46522 0
M  V30 38333 N 6707.8 -3.21165 -0.713741 0
M  V30 38334 C 6707.68 -3.26797 0.639748 0
M  V30 38335 H 6704.7 -8.13644 3.0377 0
M  V30 38336 H 6704.43 -6.42788 2.55485 0
M  V30 38337 H 6705.3 -8.12039 0.792769 0
M  V30 38338 H 6707.95 -5.80061 -0.166416 0
M  V30 38339 H 6708.23 -6.51287 2.75604 0
M  V30 38340 H 6709.22 -7.01734 1.34462 0
M  V30 38341 H 6707.39 -8.73674 2.38337 0
M  V30 38342 H 6707.34 -4.68207 3.53221 0
M  V30 38343 H 6708.02 0.0398818 -0.767965 0
M  V30 38344 H 6708.06 -2.50995 -3.13503 0
M  V30 38345 H 6708.16 -0.759148 -2.80716 0
M  V30 38346 P 6709.26 -8.91 3.3898e-10 0
M  V30 38347 O 6709.48 -10.1726 -0.733694 0
M  V30 38348 O 6710.05 -8.73148 1.23936 0
M  V30 38349 O 6709.51 -7.66872 -0.971405 0
M  V30 38350 C 6708.57 -7.42309 -2.04641 0
M  V30 38351 C 6709.3 -6.86059 -3.24661 0
M  V30 38352 O 6709.51 -5.42847 -3.03646 0
M  V30 38353 C 6710.7 -7.41196 -3.50753 0
M  V30 38354 O 6711.09 -7.27073 -4.86816 0
M  V30 38355 C 6711.58 -6.5273 -2.63741 0
M  V30 38356 C 6710.87 -5.1842 -2.73198 0
M  V30 38357 N 6710.92 -4.38762 -1.4784 0
M  V30 38358 H 6708.08 -8.36803 -2.32493 0
M  V30 38359 H 6707.81 -6.70197 -1.71129 0
M  V30 38360 H 6708.68 -7.03551 -4.13168 0
M  V30 38361 P 6712.64 -7.20834 -5.23717 0
M  V30 38362 O 6712.86 -7.7993 -6.57351 0
M  V30 38363 O 6713.43 -7.79328 -4.13004 0
M  V30 38364 O 6712.89 -5.63315 -5.29344 0
M  V30 38365 C 6711.95 -4.80193 -6.01798 0
M  V30 38366 C 6712.68 -3.64202 -6.65911 0
M  V30 38367 O 6712.89 -2.60694 -5.64732 0
M  V30 38368 C 6714.08 -3.93473 -7.1943 0
M  V30 38369 O 6714.47 -3.02071 -8.21205 0
M  V30 38370 C 6714.96 -3.73047 -5.97036 0
M  V30 38371 C 6714.25 -2.58828 -5.25741 0
M  V30 38372 N 6714.3 -2.6801 -3.77422 0
M  V30 38373 C 6714.45 -1.50443 -3.07133 0
M  V30 38374 O 6714.54 -0.419406 -3.61576 0
M  V30 38375 N 6714.49 -1.6403 -1.69677 0
M  V30 38376 C 6714.4 -2.81206 -0.986255 0
M  V30 38377 O 6714.45 -2.80892 0.249754 0
M  V30 38378 C 6714.25 -3.99158 -1.80325 0
M  V30 38379 C 6714.14 -5.29309 -1.06921 0
M  V30 38380 C 6714.2 -3.89779 -3.1476 0
M  V30 38381 H 6711.46 -5.40332 -6.79951 0
M  V30 38382 H 6711.19 -4.41549 -5.32301 0
M  V30 38383 H 6712.06 -3.26331 -7.47797 0
M  V30 38384 H 6714.71 -1.6395 -5.56554 0
M  V30 38385 H 6714.99 -4.63439 -5.3432 0
M  V30 38386 H 6715.98 -3.44728 -6.25838 0
M  V30 38387 H 6714.15 -4.96652 -7.57263 0
M  V30 38388 H 6714.08 -4.80159 -3.74441 0
M  V30 38389 H 6715.11 -5.81459 -1.09608 0
M  V30 38390 H 6713.37 -5.9187 -1.54487 0
M  V30 38391 H 6713.86 -5.10095 -0.0220288 0
M  V30 38392 H 6714.6 -0.798962 -1.16664 0
M  V30 38393 P 6716.02 -2.75334 -8.47391 0
M  V30 38394 O 6716.24 -2.44571 -9.90142 0
M  V30 38395 O 6716.81 -3.87688 -7.92115 0
M  V30 38396 O 6716.27 -1.4459 -7.59357 0
M  V30 38397 C 6715.33 -0.347608 -7.69215 0
M  V30 38398 C 6716.06 0.96767 -7.52806 0
M  V30 38399 O 6716.27 1.21036 -6.1011 0
M  V30 38400 C 6717.46 1.04544 -8.13308 0
M  V30 38401 O 6717.85 2.38311 -8.41922 0
M  V30 38402 C 6718.34 0.491279 -7.02284 0
M  V30 38403 C 6717.63 0.996264 -5.77469 0
M  V30 38404 N 6717.68 0.0501916 -4.62973 0
M  V30 38405 H 6714.84 -0.374722 -8.67691 0
M  V30 38406 H 6714.57 -0.443485 -6.90277 0
M  V30 38407 H 6715.44 1.75537 -7.96793 0
M  V30 38408 P 6719.4 2.75334 -8.47391 0
M  V30 38409 O 6719.62 3.84128 -9.44797 0
M  V30 38410 O 6720.19 1.51947 -8.68712 0
M  V30 38411 O 6719.65 3.29363 -6.99321 0
M  V30 38412 C 6718.71 4.24011 -6.4274 0
M  V30 38413 C 6719.44 5.20775 -5.52155 0
M  V30 38414 O 6719.65 4.56534 -4.22446 0
M  V30 38415 C 6720.84 5.62629 -5.96531 0
M  V30 38416 O 6721.23 6.87667 -5.41053 0
M  V30 38417 C 6721.72 4.52537 -5.39283 0
M  V30 38418 C 6721.01 4.20027 -4.08623 0
M  V30 38419 N 6721.06 2.76189 -3.71603 0
M  V30 38420 H 6718.22 4.797 -7.24003 0
M  V30 38421 H 6717.95 3.69856 -5.84513 0
M  V30 38422 H 6718.82 6.10356 -5.41441 0
M  V30 38423 P 6722.78 7.20834 -5.23717 0
M  V30 38424 O 6723 8.66104 -5.38572 0
M  V30 38425 O 6723.57 6.33544 -6.1349 0
M  V30 38426 O 6723.03 6.7751 -3.72168 0
M  V30 38427 C 6722.09 7.20825 -2.7076 0
M  V30 38428 C 6722.82 7.45864 -1.40599 0
M  V30 38429 O 6723.03 6.17651 -0.734225 0
M  V30 38430 C 6724.22 8.05808 -1.51899 0
M  V30 38431 O 6724.61 8.74358 -0.335205 0
M  V30 38432 C 6725.1 6.83093 -1.70294 0
M  V30 38433 C 6724.39 5.79992 -0.836974 0
M  V30 38434 N 6724.44 4.41864 -1.38293 0
M  V30 38435 H 6721.6 8.13644 -3.0377 0
M  V30 38436 H 6721.33 6.42788 -2.55485 0
M  V30 38437 H 6722.2 8.12039 -0.792769 0
M  V30 38438 P 6726.16 8.91 -3.40089e-10 0
M  V30 38439 O 6726.38 10.1726 0.733694 0
M  V30 38440 O 6726.95 8.73148 -1.23936 0
M  V30 38441 O 6726.41 7.66872 0.971405 0
M  V30 38442 C 6725.47 7.42309 2.04641 0
M  V30 38443 C 6726.2 6.86059 3.24661 0
M  V30 38444 O 6726.41 5.42847 3.03646 0
M  V30 38445 C 6727.6 7.41196 3.50753 0
M  V30 38446 O 6727.99 7.27073 4.86816 0
M  V30 38447 C 6728.48 6.5273 2.63741 0
M  V30 38448 C 6727.77 5.1842 2.73198 0
M  V30 38449 N 6727.82 4.38762 1.4784 0
M  V30 38450 H 6724.98 8.36803 2.32493 0
M  V30 38451 H 6724.71 6.70197 1.71129 0
M  V30 38452 H 6725.58 7.03551 4.13168 0
M  V30 38453 P 6729.54 7.20834 5.23717 0
M  V30 38454 O 6729.76 7.79853 6.57286 0
M  V30 38455 O 6730.33 7.79239 4.12957 0
M  V30 38456 O 6729.79 5.63315 5.29344 0
M  V30 38457 C 6728.85 4.80255 6.01876 0
M  V30 38458 C 6729.58 3.64202 6.65911 0
M  V30 38459 O 6729.79 2.60694 5.64732 0
M  V30 38460 C 6730.98 3.93473 7.1943 0
M  V30 38461 O 6731.37 3.02071 8.21205 0
M  V30 38462 C 6731.86 3.73047 5.97036 0
M  V30 38463 C 6731.15 2.58828 5.25741 0
M  V30 38464 N 6731.2 2.68068 3.77503 0
M  V30 38465 H 6728.36 5.40332 6.79951 0
M  V30 38466 H 6728.09 4.41613 5.32378 0
M  V30 38467 H 6728.96 3.26331 7.47797 0
M  V30 38468 P 6732.92 2.75334 8.47391 0
M  V30 38469 O 6733.14 2.44571 9.90142 0
M  V30 38470 O 6733.71 3.87688 7.92115 0
M  V30 38471 O 6733.17 1.4459 7.59357 0
M  V30 38472 C 6732.23 0.347608 7.69215 0
M  V30 38473 C 6732.96 -0.96767 7.52806 0
M  V30 38474 O 6733.17 -1.21036 6.1011 0
M  V30 38475 C 6734.36 -1.04544 8.13308 0
M  V30 38476 O 6734.75 -2.38311 8.41922 0
M  V30 38477 C 6735.24 -0.491279 7.02284 0
M  V30 38478 C 6734.53 -0.996264 5.77469 0
M  V30 38479 N 6734.58 -0.0501916 4.62973 0
M  V30 38480 H 6731.74 0.374722 8.67691 0
M  V30 38481 H 6731.47 0.443485 6.90277 0
M  V30 38482 H 6732.34 -1.75537 7.96793 0
M  V30 38483 P 6736.3 -2.75334 8.47391 0
M  V30 38484 O 6736.52 -3.84128 9.44797 0
M  V30 38485 O 6737.09 -1.51947 8.68712 0
M  V30 38486 O 6736.55 -3.29363 6.99321 0
M  V30 38487 C 6735.61 -4.24011 6.4274 0
M  V30 38488 C 6736.34 -5.20775 5.52155 0
M  V30 38489 O 6736.55 -4.56534 4.22446 0
M  V30 38490 C 6737.74 -5.62629 5.96531 0
M  V30 38491 O 6738.13 -6.87667 5.41053 0
M  V30 38492 C 6738.62 -4.52537 5.39283 0
M  V30 38493 C 6737.91 -4.20027 4.08623 0
M  V30 38494 N 6737.96 -2.76189 3.71603 0
M  V30 38495 H 6735.12 -4.797 7.24003 0
M  V30 38496 H 6734.85 -3.69856 5.84513 0
M  V30 38497 H 6735.72 -6.10356 5.41441 0
M  V30 38498 P 6739.68 -7.20834 5.23717 0
M  V30 38499 O 6739.9 -8.66104 5.38572 0
M  V30 38500 O 6740.47 -6.33544 6.1349 0
M  V30 38501 O 6739.93 -6.7751 3.72168 0
M  V30 38502 C 6738.99 -7.20825 2.7076 0
M  V30 38503 C 6739.72 -7.45864 1.40599 0
M  V30 38504 O 6739.93 -6.17651 0.734225 0
M  V30 38505 C 6741.12 -8.05808 1.51899 0
M  V30 38506 O 6741.51 -8.74358 0.335205 0
M  V30 38507 C 6742 -6.83093 1.70294 0
M  V30 38508 C 6741.29 -5.79992 0.836974 0
M  V30 38509 N 6741.34 -4.41864 1.38293 0
M  V30 38510 H 6738.5 -8.13644 3.0377 0
M  V30 38511 H 6738.23 -6.42788 2.55485 0
M  V30 38512 H 6739.1 -8.12039 0.792769 0
M  V30 38513 P 6743.06 -8.91 3.41198e-10 0
M  V30 38514 O 6743.28 -10.1726 -0.733694 0
M  V30 38515 O 6743.85 -8.73148 1.23936 0
M  V30 38516 O 6743.31 -7.66872 -0.971405 0
M  V30 38517 C 6742.37 -7.42309 -2.04641 0
M  V30 38518 C 6743.1 -6.86059 -3.24661 0
M  V30 38519 O 6743.31 -5.42847 -3.03646 0
M  V30 38520 C 6744.5 -7.41196 -3.50753 0
M  V30 38521 O 6744.89 -7.27073 -4.86816 0
M  V30 38522 C 6745.38 -6.5273 -2.63741 0
M  V30 38523 C 6744.67 -5.1842 -2.73198 0
M  V30 38524 N 6744.72 -4.38762 -1.4784 0
M  V30 38525 H 6741.88 -8.36803 -2.32493 0
M  V30 38526 H 6741.61 -6.70197 -1.71129 0
M  V30 38527 H 6742.48 -7.03551 -4.13168 0
M  V30 38528 P 6746.44 -7.20834 -5.23717 0
M  V30 38529 O 6746.66 -7.79853 -6.57286 0
M  V30 38530 O 6747.23 -7.79239 -4.12957 0
M  V30 38531 O 6746.69 -5.63315 -5.29344 0
M  V30 38532 C 6745.75 -4.80255 -6.01876 0
M  V30 38533 C 6746.48 -3.64202 -6.65911 0
M  V30 38534 O 6746.69 -2.60694 -5.64732 0
M  V30 38535 C 6747.88 -3.93473 -7.1943 0
M  V30 38536 O 6748.27 -3.02071 -8.21205 0
M  V30 38537 C 6748.76 -3.73047 -5.97036 0
M  V30 38538 C 6748.05 -2.58828 -5.25741 0
M  V30 38539 N 6748.1 -2.68068 -3.77503 0
M  V30 38540 H 6745.26 -5.40332 -6.79951 0
M  V30 38541 H 6744.99 -4.41613 -5.32378 0
M  V30 38542 H 6745.86 -3.26331 -7.47797 0
M  V30 38543 P 6749.82 -2.75334 -8.47391 0
M  V30 38544 O 6750.04 -2.44619 -9.90336 0
M  V30 38545 O 6750.61 -3.87776 -7.92294 0
M  V30 38546 O 6750.07 -1.4459 -7.59357 0
M  V30 38547 C 6749.13 -0.347653 -7.69315 0
M  V30 38548 C 6749.86 0.96767 -7.52806 0
M  V30 38549 O 6750.07 1.21055 -6.10208 0
M  V30 38550 C 6751.26 1.04557 -8.13408 0
M  V30 38551 O 6751.65 2.38311 -8.41922 0
M  V30 38552 C 6752.14 0.491279 -7.02284 0
M  V30 38553 C 6751.43 0.996264 -5.77469 0
M  V30 38554 N 6751.48 0.0501916 -4.62973 0
M  V30 38555 C 6751.4 -1.31969 -4.65661 0
M  V30 38556 N 6751.47 -1.86649 -3.48119 0
M  V30 38557 C 6751.62 -0.792089 -2.62406 0
M  V30 38558 C 6751.75 -0.705684 -1.2207 0
M  V30 38559 N 6751.76 -1.76207 -0.413762 0
M  V30 38560 N 6751.87 0.518981 -0.685754 0
M  V30 38561 C 6751.86 1.57595 -1.49174 0
M  V30 38562 N 6751.74 1.62909 -2.80066 0
M  V30 38563 C 6751.62 0.388195 -3.3073 0
M  V30 38564 H 6748.64 -0.374765 -8.67791 0
M  V30 38565 H 6748.37 -0.443613 -6.90476 0
M  V30 38566 H 6749.24 1.75559 -7.96891 0
M  V30 38567 H 6751.89 1.94563 -5.46818 0
M  V30 38568 H 6752.17 -0.608651 -7.04676 0
M  V30 38569 H 6753.16 0.889796 -7.09039 0
M  V30 38570 H 6751.33 0.433128 -9.04664 0
M  V30 38571 H 6751.29 -1.89246 -5.57664 0
M  V30 38572 H 6751.67 -2.71005 -0.804694 0
M  V30 38573 H 6751.86 -1.63189 0.603768 0
M  V30 38574 H 6751.97 2.53475 -0.997614 0
M  V30 38575 P 6753.2 2.75334 -8.47391 0
M  V30 38576 O 6753.42 3.84204 -9.44982 0
M  V30 38577 O 6753.99 1.51982 -8.68909 0
M  V30 38578 O 6753.45 3.29363 -6.99321 0
M  V30 38579 C 6752.51 4.24066 -6.42823 0
M  V30 38580 C 6753.24 5.20775 -5.52155 0
M  V30 38581 O 6753.45 4.56607 -4.22514 0
M  V30 38582 C 6754.64 5.62697 -5.96604 0
M  V30 38583 O 6755.03 6.87667 -5.41053 0
M  V30 38584 C 6755.52 4.52537 -5.39283 0
M  V30 38585 C 6754.81 4.20027 -4.08623 0
M  V30 38586 N 6754.86 2.76189 -3.71603 0
M  V30 38587 H 6752.02 4.79756 -7.24086 0
M  V30 38588 H 6751.75 3.69963 -5.84682 0
M  V30 38589 H 6752.62 6.10431 -5.41508 0
M  V30 38590 H 6755.27 4.78816 -3.28024 0
M  V30 38591 H 6755.55 3.64957 -6.05871 0
M  V30 38592 H 6756.54 4.88748 -5.21323 0
M  V30 38593 H 6754.71 5.66789 -7.0643 0
M  V30 38594 P 6756.58 7.20834 -5.23717 0
M  V30 38595 O 6756.8 8.66104 -5.38572 0
M  V30 38596 O 6757.37 6.33544 -6.1349 0
M  V30 38597 O 6756.83 6.7751 -3.72168 0
M  V30 38598 C 6755.89 7.20825 -2.7076 0
M  V30 38599 C 6756.62 7.45864 -1.40599 0
M  V30 38600 O 6756.83 6.17651 -0.734225 0
M  V30 38601 C 6758.02 8.05808 -1.51899 0
M  V30 38602 O 6758.41 8.74358 -0.335205 0
M  V30 38603 C 6758.9 6.83093 -1.70294 0
M  V30 38604 C 6758.19 5.79992 -0.836974 0
M  V30 38605 N 6758.24 4.41864 -1.38293 0
M  V30 38606 H 6755.4 8.13644 -3.0377 0
M  V30 38607 H 6755.13 6.42788 -2.55485 0
M  V30 38608 H 6756 8.12039 -0.792769 0
M  V30 38609 P 6759.96 8.91 -3.42307e-10 0
M  V30 38610 O 6760.18 10.1746 0.733838 0
M  V30 38611 O 6760.75 8.73346 -1.23964 0
M  V30 38612 O 6760.21 7.66872 0.971405 0
M  V30 38613 C 6759.27 7.42405 2.04668 0
M  V30 38614 C 6760 6.86059 3.24661 0
M  V30 38615 O 6760.21 5.42934 3.03695 0
M  V30 38616 C 6761.4 7.41287 3.50796 0
M  V30 38617 O 6761.79 7.27073 4.86816 0
M  V30 38618 C 6762.28 6.5273 2.63741 0
M  V30 38619 C 6761.57 5.1842 2.73198 0
M  V30 38620 N 6761.62 4.38762 1.4784 0
M  V30 38621 H 6758.78 8.36899 2.3252 0
M  V30 38622 H 6758.51 6.70391 1.71179 0
M  V30 38623 H 6759.38 7.03638 4.13219 0
M  V30 38624 H 6762.03 4.59931 3.54016 0
M  V30 38625 H 6762.31 6.88995 1.59871 0
M  V30 38626 H 6763.3 6.4684 3.0373 0
M  V30 38627 H 6761.47 8.47002 3.20749 0
M  V30 38628 P 6763.34 7.20834 5.23717 0
M  V30 38629 O 6763.56 7.79853 6.57286 0
M  V30 38630 O 6764.13 7.79239 4.12957 0
M  V30 38631 O 6763.59 5.63315 5.29344 0
M  V30 38632 C 6762.65 4.80255 6.01876 0
M  V30 38633 C 6763.38 3.64202 6.65911 0
M  V30 38634 O 6763.59 2.60694 5.64732 0
M  V30 38635 C 6764.78 3.93473 7.1943 0
M  V30 38636 O 6765.17 3.02071 8.21205 0
M  V30 38637 C 6765.66 3.73047 5.97036 0
M  V30 38638 C 6764.95 2.58828 5.25741 0
M  V30 38639 N 6765 2.68068 3.77503 0
M  V30 38640 H 6762.16 5.40332 6.79951 0
M  V30 38641 H 6761.89 4.41613 5.32378 0
M  V30 38642 H 6762.76 3.26331 7.47797 0
M  V30 38643 P 6766.72 2.75334 8.47391 0
M  V30 38644 O 6766.94 2.44571 9.90142 0
M  V30 38645 O 6767.51 3.87688 7.92115 0
M  V30 38646 O 6766.97 1.4459 7.59357 0
M  V30 38647 C 6766.03 0.347608 7.69215 0
M  V30 38648 C 6766.76 -0.96767 7.52806 0
M  V30 38649 O 6766.97 -1.21036 6.1011 0
M  V30 38650 C 6768.16 -1.04544 8.13308 0
M  V30 38651 O 6768.55 -2.38311 8.41922 0
M  V30 38652 C 6769.04 -0.491279 7.02284 0
M  V30 38653 C 6768.33 -0.996264 5.77469 0
M  V30 38654 N 6768.38 -0.0501916 4.62973 0
M  V30 38655 H 6765.54 0.374722 8.67691 0
M  V30 38656 H 6765.27 0.443485 6.90277 0
M  V30 38657 H 6766.14 -1.75537 7.96793 0
M  V30 38658 P 6770.1 -2.75334 8.47391 0
M  V30 38659 O 6770.32 -3.84128 9.44797 0
M  V30 38660 O 6770.89 -1.51947 8.68712 0
M  V30 38661 O 6770.35 -3.29363 6.99321 0
M  V30 38662 C 6769.41 -4.24011 6.4274 0
M  V30 38663 C 6770.14 -5.20775 5.52155 0
M  V30 38664 O 6770.35 -4.56534 4.22446 0
M  V30 38665 C 6771.54 -5.62629 5.96531 0
M  V30 38666 O 6771.93 -6.87667 5.41053 0
M  V30 38667 C 6772.42 -4.52537 5.39283 0
M  V30 38668 C 6771.71 -4.20027 4.08623 0
M  V30 38669 N 6771.76 -2.76189 3.71603 0
M  V30 38670 H 6768.92 -4.797 7.24003 0
M  V30 38671 H 6768.65 -3.69856 5.84513 0
M  V30 38672 H 6769.52 -6.10356 5.41441 0
M  V30 38673 P 6773.48 -7.20834 5.23717 0
M  V30 38674 O 6773.7 -8.66104 5.38572 0
M  V30 38675 O 6774.27 -6.33544 6.1349 0
M  V30 38676 O 6773.73 -6.7751 3.72168 0
M  V30 38677 C 6772.79 -7.20825 2.7076 0
M  V30 38678 C 6773.52 -7.45864 1.40599 0
M  V30 38679 O 6773.73 -6.17651 0.734225 0
M  V30 38680 C 6774.92 -8.05808 1.51899 0
M  V30 38681 O 6775.31 -8.74358 0.335205 0
M  V30 38682 C 6775.8 -6.83093 1.70294 0
M  V30 38683 C 6775.09 -5.79992 0.836974 0
M  V30 38684 N 6775.14 -4.41864 1.38293 0
M  V30 38685 H 6772.3 -8.13644 3.0377 0
M  V30 38686 H 6772.03 -6.42788 2.55485 0
M  V30 38687 H 6772.9 -8.12039 0.792769 0
M  V30 38688 P 6776.86 -8.91 3.43416e-10 0
M  V30 38689 O 6777.08 -10.1746 -0.733838 0
M  V30 38690 O 6777.65 -8.73346 1.23964 0
M  V30 38691 O 6777.11 -7.66872 -0.971405 0
M  V30 38692 C 6776.17 -7.42405 -2.04668 0
M  V30 38693 C 6776.9 -6.86059 -3.24661 0
M  V30 38694 O 6777.11 -5.42934 -3.03695 0
M  V30 38695 C 6778.3 -7.41287 -3.50796 0
M  V30 38696 O 6778.69 -7.27073 -4.86816 0
M  V30 38697 C 6779.18 -6.5273 -2.63741 0
M  V30 38698 C 6778.47 -5.1842 -2.73198 0
M  V30 38699 N 6778.52 -4.38762 -1.4784 0
M  V30 38700 H 6775.68 -8.36899 -2.3252 0
M  V30 38701 H 6775.41 -6.70391 -1.71179 0
M  V30 38702 H 6776.28 -7.03638 -4.13219 0
M  V30 38703 H 6778.93 -4.59931 -3.54016 0
M  V30 38704 H 6779.21 -6.88995 -1.59871 0
M  V30 38705 H 6780.2 -6.4684 -3.0373 0
M  V30 38706 H 6778.37 -8.47002 -3.20749 0
M  V30 38707 P 6780.24 -7.20834 -5.23717 0
M  V30 38708 O 6780.46 -7.79853 -6.57286 0
M  V30 38709 O 6781.03 -7.79239 -4.12957 0
M  V30 38710 O 6780.49 -5.63315 -5.29344 0
M  V30 38711 C 6779.55 -4.80255 -6.01876 0
M  V30 38712 C 6780.28 -3.64202 -6.65911 0
M  V30 38713 O 6780.49 -2.60694 -5.64732 0
M  V30 38714 C 6781.68 -3.93473 -7.1943 0
M  V30 38715 O 6782.07 -3.02071 -8.21205 0
M  V30 38716 C 6782.56 -3.73047 -5.97036 0
M  V30 38717 C 6781.85 -2.58828 -5.25741 0
M  V30 38718 N 6781.9 -2.68068 -3.77503 0
M  V30 38719 H 6779.06 -5.40332 -6.79951 0
M  V30 38720 H 6778.79 -4.41613 -5.32378 0
M  V30 38721 H 6779.66 -3.26331 -7.47797 0
M  V30 38722 P 6783.62 -2.75334 -8.47391 0
M  V30 38723 O 6783.84 -2.44571 -9.90142 0
M  V30 38724 O 6784.41 -3.87688 -7.92115 0
M  V30 38725 O 6783.87 -1.4459 -7.59357 0
M  V30 38726 C 6782.93 -0.347608 -7.69215 0
M  V30 38727 C 6783.66 0.96767 -7.52806 0
M  V30 38728 O 6783.87 1.21036 -6.1011 0
M  V30 38729 C 6785.06 1.04544 -8.13308 0
M  V30 38730 O 6785.45 2.38311 -8.41922 0
M  V30 38731 C 6785.94 0.491279 -7.02284 0
M  V30 38732 C 6785.23 0.996264 -5.77469 0
M  V30 38733 N 6785.28 0.0501916 -4.62973 0
M  V30 38734 H 6782.44 -0.374722 -8.67691 0
M  V30 38735 H 6782.17 -0.443485 -6.90277 0
M  V30 38736 H 6783.04 1.75537 -7.96793 0
M  V30 38737 P 6787 2.75334 -8.47391 0
M  V30 38738 O 6787.22 3.84128 -9.44797 0
M  V30 38739 O 6787.79 1.51947 -8.68712 0
M  V30 38740 O 6787.25 3.29363 -6.99321 0
M  V30 38741 C 6786.31 4.24011 -6.4274 0
M  V30 38742 C 6787.04 5.20775 -5.52155 0
M  V30 38743 O 6787.25 4.56534 -4.22446 0
M  V30 38744 C 6788.44 5.62629 -5.96531 0
M  V30 38745 O 6788.83 6.87667 -5.41053 0
M  V30 38746 C 6789.32 4.52537 -5.39283 0
M  V30 38747 C 6788.61 4.20027 -4.08623 0
M  V30 38748 N 6788.66 2.76189 -3.71603 0
M  V30 38749 H 6785.82 4.797 -7.24003 0
M  V30 38750 H 6785.55 3.69856 -5.84513 0
M  V30 38751 H 6786.42 6.10356 -5.41441 0
M  V30 38752 P 6790.38 7.20834 -5.23717 0
M  V30 38753 O 6790.6 8.66104 -5.38572 0
M  V30 38754 O 6791.17 6.33544 -6.1349 0
M  V30 38755 O 6790.63 6.7751 -3.72168 0
M  V30 38756 C 6789.69 7.20825 -2.7076 0
M  V30 38757 C 6790.42 7.45864 -1.40599 0
M  V30 38758 O 6790.63 6.17651 -0.734225 0
M  V30 38759 C 6791.82 8.05808 -1.51899 0
M  V30 38760 O 6792.21 8.74358 -0.335205 0
M  V30 38761 C 6792.7 6.83093 -1.70294 0
M  V30 38762 C 6791.99 5.79992 -0.836974 0
M  V30 38763 N 6792.04 4.41864 -1.38293 0
M  V30 38764 H 6789.2 8.13644 -3.0377 0
M  V30 38765 H 6788.93 6.42788 -2.55485 0
M  V30 38766 H 6789.8 8.12039 -0.792769 0
M  V30 38767 P 6793.76 8.91 -3.44525e-10 0
M  V30 38768 O 6793.98 10.1726 0.733694 0
M  V30 38769 O 6794.55 8.73148 -1.23936 0
M  V30 38770 O 6794.01 7.66872 0.971405 0
M  V30 38771 C 6793.07 7.42309 2.04641 0
M  V30 38772 C 6793.8 6.86059 3.24661 0
M  V30 38773 O 6794.01 5.42847 3.03646 0
M  V30 38774 C 6795.2 7.41196 3.50753 0
M  V30 38775 O 6795.59 7.27073 4.86816 0
M  V30 38776 C 6796.08 6.5273 2.63741 0
M  V30 38777 C 6795.37 5.1842 2.73198 0
M  V30 38778 N 6795.42 4.38762 1.4784 0
M  V30 38779 H 6792.58 8.36803 2.32493 0
M  V30 38780 H 6792.31 6.70197 1.71129 0
M  V30 38781 H 6793.18 7.03551 4.13168 0
M  V30 38782 P 6797.14 7.20834 5.23717 0
M  V30 38783 O 6797.36 7.79853 6.57286 0
M  V30 38784 O 6797.93 7.79239 4.12957 0
M  V30 38785 O 6797.39 5.63315 5.29344 0
M  V30 38786 C 6796.45 4.80255 6.01876 0
M  V30 38787 C 6797.18 3.64202 6.65911 0
M  V30 38788 O 6797.39 2.60694 5.64732 0
M  V30 38789 C 6798.58 3.93473 7.1943 0
M  V30 38790 O 6798.97 3.02071 8.21205 0
M  V30 38791 C 6799.46 3.73047 5.97036 0
M  V30 38792 C 6798.75 2.58828 5.25741 0
M  V30 38793 N 6798.8 2.68068 3.77503 0
M  V30 38794 H 6795.96 5.40332 6.79951 0
M  V30 38795 H 6795.69 4.41613 5.32378 0
M  V30 38796 H 6796.56 3.26331 7.47797 0
M  V30 38797 P 6800.52 2.75334 8.47391 0
M  V30 38798 O 6800.74 2.44571 9.90142 0
M  V30 38799 O 6801.31 3.87688 7.92115 0
M  V30 38800 O 6800.77 1.4459 7.59357 0
M  V30 38801 C 6799.83 0.347608 7.69215 0
M  V30 38802 C 6800.56 -0.96767 7.52806 0
M  V30 38803 O 6800.77 -1.21036 6.1011 0
M  V30 38804 C 6801.96 -1.04544 8.13308 0
M  V30 38805 O 6802.35 -2.38311 8.41922 0
M  V30 38806 C 6802.84 -0.491279 7.02284 0
M  V30 38807 C 6802.13 -0.996264 5.77469 0
M  V30 38808 N 6802.18 -0.0501916 4.62973 0
M  V30 38809 H 6799.34 0.374722 8.67691 0
M  V30 38810 H 6799.07 0.443485 6.90277 0
M  V30 38811 H 6799.94 -1.75537 7.96793 0
M  V30 38812 P 6803.9 -2.75334 8.47391 0
M  V30 38813 O 6804.12 -3.84128 9.44797 0
M  V30 38814 O 6804.69 -1.51947 8.68712 0
M  V30 38815 O 6804.15 -3.29363 6.99321 0
M  V30 38816 C 6803.21 -4.24011 6.4274 0
M  V30 38817 C 6803.94 -5.20775 5.52155 0
M  V30 38818 O 6804.15 -4.56534 4.22446 0
M  V30 38819 C 6805.34 -5.62629 5.96531 0
M  V30 38820 O 6805.73 -6.87667 5.41053 0
M  V30 38821 C 6806.22 -4.52537 5.39283 0
M  V30 38822 C 6805.51 -4.20027 4.08623 0
M  V30 38823 N 6805.56 -2.76189 3.71603 0
M  V30 38824 C 6805.48 -1.64862 4.52822 0
M  V30 38825 N 6805.56 -0.512671 3.88633 0
M  V30 38826 C 6805.7 -0.888083 2.54977 0
M  V30 38827 C 6805.83 -0.094668 1.38677 0
M  V30 38828 O 6805.85 1.13053 1.28163 0
M  V30 38829 N 6805.95 -0.890102 0.232633 0
M  V30 38830 C 6805.95 -2.26958 0.21772 0
M  V30 38831 N 6806.08 -2.84626 -0.97925 0
M  V30 38832 N 6805.82 -3.0178 1.31033 0
M  V30 38833 C 6805.7 -2.26781 2.43843 0
M  V30 38834 H 6802.72 -4.797 7.24003 0
M  V30 38835 H 6802.45 -3.69856 5.84513 0
M  V30 38836 H 6803.32 -6.10356 5.41441 0
M  V30 38837 H 6805.97 -4.79061 3.27488 0
M  V30 38838 H 6806.25 -3.64906 6.05785 0
M  V30 38839 H 6807.24 -4.8868 5.2125 0
M  V30 38840 H 6805.41 -5.66726 7.06352 0
M  V30 38841 H 6805.36 -1.71169 5.60966 0
M  V30 38842 H 6806.04 -0.419134 -0.644739 0
M  V30 38843 H 6806.08 -3.87332 -1.06098 0
M  V30 38844 H 6806.18 -2.26417 -1.82483 0
M  V30 38845 P 6807.28 -7.20834 5.23717 0
M  V30 38846 O 6807.5 -8.66104 5.38572 0
M  V30 38847 O 6808.07 -6.33544 6.1349 0
M  V30 38848 O 6807.53 -6.7751 3.72168 0
M  V30 38849 C 6806.59 -7.20825 2.7076 0
M  V30 38850 C 6807.32 -7.45864 1.40599 0
M  V30 38851 O 6807.53 -6.17651 0.734225 0
M  V30 38852 C 6808.72 -8.05808 1.51899 0
M  V30 38853 O 6809.11 -8.74358 0.335205 0
M  V30 38854 C 6809.6 -6.83093 1.70294 0
M  V30 38855 C 6808.89 -5.79992 0.836974 0
M  V30 38856 N 6808.94 -4.41864 1.38293 0
M  V30 38857 H 6806.1 -8.13644 3.0377 0
M  V30 38858 H 6805.83 -6.42788 2.55485 0
M  V30 38859 H 6806.7 -8.12039 0.792769 0
M  V30 38860 P 6810.66 -8.91 3.45634e-10 0
M  V30 38861 O 6810.88 -10.1736 -0.733766 0
M  V30 38862 O 6811.45 -8.73247 1.2395 0
M  V30 38863 O 6810.91 -7.66872 -0.971405 0
M  V30 38864 C 6809.97 -7.42309 -2.04641 0
M  V30 38865 C 6810.7 -6.86059 -3.24661 0
M  V30 38866 O 6810.91 -5.42847 -3.03646 0
M  V30 38867 C 6812.1 -7.41196 -3.50753 0
M  V30 38868 O 6812.49 -7.27073 -4.86816 0
M  V30 38869 C 6812.98 -6.5273 -2.63741 0
M  V30 38870 C 6812.27 -5.1842 -2.73198 0
M  V30 38871 N 6812.32 -4.38668 -1.47808 0
M  V30 38872 C 6812.47 -3.00789 -1.58511 0
M  V30 38873 O 6812.56 -2.50116 -2.71298 0
M  V30 38874 N 6812.52 -2.29703 -0.253698 0
M  V30 38875 C 6812.42 -2.84269 0.750133 0
M  V30 38876 N 6812.47 -2.06951 1.82612 0
M  V30 38877 C 6812.27 -4.25803 0.889776 0
M  V30 38878 C 6812.22 -4.98326 -0.259363 0
M  V30 38879 H 6809.48 -8.36707 -2.32466 0
M  V30 38880 H 6809.21 -6.701 -1.71105 0
M  V30 38881 H 6810.08 -7.03638 -4.13219 0
M  V30 38882 H 6812.73 -4.59852 -3.53955 0
M  V30 38883 H 6813.01 -6.88995 -1.59871 0
M  V30 38884 H 6814 -6.46749 -3.03687 0
M  V30 38885 H 6812.17 -8.46908 -3.20714 0
M  V30 38886 H 6812.1 -6.06349 -0.206238 0
M  V30 38887 H 6812.2 -4.73163 1.86796 0
M  V30 38888 H 6812.59 -1.05099 1.72271 0
M  V30 38889 H 6812.39 -2.48716 2.76361 0
M  V30 38890 P 6814.04 -7.20834 -5.23717 0
M  V30 38891 O 6814.26 -7.79853 -6.57286 0
M  V30 38892 O 6814.83 -7.79239 -4.12957 0
M  V30 38893 O 6814.29 -5.63315 -5.29344 0
M  V30 38894 C 6813.35 -4.80255 -6.01876 0
M  V30 38895 C 6814.08 -3.64202 -6.65911 0
M  V30 38896 O 6814.29 -2.60694 -5.64732 0
M  V30 38897 C 6815.48 -3.93473 -7.1943 0
M  V30 38898 O 6815.87 -3.02071 -8.21205 0
M  V30 38899 C 6816.36 -3.73047 -5.97036 0
M  V30 38900 C 6815.65 -2.58828 -5.25741 0
M  V30 38901 N 6815.7 -2.68068 -3.77503 0
M  V30 38902 H 6812.86 -5.40332 -6.79951 0
M  V30 38903 H 6812.59 -4.41613 -5.32378 0
M  V30 38904 H 6813.46 -3.26331 -7.47797 0
M  V30 38905 P 6817.42 -2.75334 -8.47391 0
M  V30 38906 O 6817.64 -2.44571 -9.90142 0
M  V30 38907 O 6818.21 -3.87688 -7.92115 0
M  V30 38908 O 6817.67 -1.4459 -7.59357 0
M  V30 38909 C 6816.73 -0.347608 -7.69215 0
M  V30 38910 C 6817.46 0.96767 -7.52806 0
M  V30 38911 O 6817.67 1.21036 -6.1011 0
M  V30 38912 C 6818.86 1.04544 -8.13308 0
M  V30 38913 O 6819.25 2.38311 -8.41922 0
M  V30 38914 C 6819.74 0.491279 -7.02284 0
M  V30 38915 C 6819.03 0.996264 -5.77469 0
M  V30 38916 N 6819.08 0.0501916 -4.62973 0
M  V30 38917 H 6816.24 -0.374722 -8.67691 0
M  V30 38918 H 6815.97 -0.443485 -6.90277 0
M  V30 38919 H 6816.84 1.75537 -7.96793 0
M  V30 38920 P 6820.8 2.75334 -8.47391 0
M  V30 38921 O 6821.02 3.84128 -9.44797 0
M  V30 38922 O 6821.59 1.51947 -8.68712 0
M  V30 38923 O 6821.05 3.29363 -6.99321 0
M  V30 38924 C 6820.11 4.24011 -6.4274 0
M  V30 38925 C 6820.84 5.20775 -5.52155 0
M  V30 38926 O 6821.05 4.56534 -4.22446 0
M  V30 38927 C 6822.24 5.62629 -5.96531 0
M  V30 38928 O 6822.63 6.87667 -5.41053 0
M  V30 38929 C 6823.12 4.52537 -5.39283 0
M  V30 38930 C 6822.41 4.20027 -4.08623 0
M  V30 38931 N 6822.46 2.76189 -3.71603 0
M  V30 38932 H 6819.62 4.797 -7.24003 0
M  V30 38933 H 6819.35 3.69856 -5.84513 0
M  V30 38934 H 6820.22 6.10356 -5.41441 0
M  V30 38935 P 6824.18 7.20834 -5.23717 0
M  V30 38936 O 6824.4 8.66104 -5.38572 0
M  V30 38937 O 6824.97 6.33544 -6.1349 0
M  V30 38938 O 6824.43 6.7751 -3.72168 0
M  V30 38939 C 6823.49 7.20825 -2.7076 0
M  V30 38940 C 6824.22 7.45864 -1.40599 0
M  V30 38941 O 6824.43 6.17651 -0.734225 0
M  V30 38942 C 6825.62 8.05808 -1.51899 0
M  V30 38943 O 6826.01 8.74358 -0.335205 0
M  V30 38944 C 6826.5 6.83093 -1.70294 0
M  V30 38945 C 6825.79 5.79992 -0.836974 0
M  V30 38946 N 6825.84 4.41864 -1.38293 0
M  V30 38947 H 6823 8.13644 -3.0377 0
M  V30 38948 H 6822.73 6.42788 -2.55485 0
M  V30 38949 H 6823.6 8.12039 -0.792769 0
M  V30 38950 P 6827.56 8.91 -3.46743e-10 0
M  V30 38951 O 6827.78 10.1726 0.733694 0
M  V30 38952 O 6828.35 8.73148 -1.23936 0
M  V30 38953 O 6827.81 7.66872 0.971405 0
M  V30 38954 C 6826.87 7.42309 2.04641 0
M  V30 38955 C 6827.6 6.86059 3.24661 0
M  V30 38956 O 6827.81 5.42847 3.03646 0
M  V30 38957 C 6829 7.41196 3.50753 0
M  V30 38958 O 6829.39 7.27073 4.86816 0
M  V30 38959 C 6829.88 6.5273 2.63741 0
M  V30 38960 C 6829.17 5.1842 2.73198 0
M  V30 38961 N 6829.22 4.38762 1.4784 0
M  V30 38962 H 6826.38 8.36803 2.32493 0
M  V30 38963 H 6826.11 6.70197 1.71129 0
M  V30 38964 H 6826.98 7.03551 4.13168 0
M  V30 38965 P 6830.94 7.20834 5.23717 0
M  V30 38966 O 6831.16 7.79853 6.57286 0
M  V30 38967 O 6831.73 7.79239 4.12957 0
M  V30 38968 O 6831.19 5.63315 5.29344 0
M  V30 38969 C 6830.25 4.80255 6.01876 0
M  V30 38970 C 6830.98 3.64202 6.65911 0
M  V30 38971 O 6831.19 2.60694 5.64732 0
M  V30 38972 C 6832.38 3.93473 7.1943 0
M  V30 38973 O 6832.77 3.02071 8.21205 0
M  V30 38974 C 6833.26 3.73047 5.97036 0
M  V30 38975 C 6832.55 2.58828 5.25741 0
M  V30 38976 N 6832.6 2.68068 3.77503 0
M  V30 38977 H 6829.76 5.40332 6.79951 0
M  V30 38978 H 6829.49 4.41613 5.32378 0
M  V30 38979 H 6830.36 3.26331 7.47797 0
M  V30 38980 P 6834.32 2.75334 8.47391 0
M  V30 38981 O 6834.54 2.44595 9.90239 0
M  V30 38982 O 6835.11 3.87732 7.92204 0
M  V30 38983 O 6834.57 1.4459 7.59357 0
M  V30 38984 C 6833.63 0.347563 7.69115 0
M  V30 38985 C 6834.36 -0.96767 7.52806 0
M  V30 38986 O 6834.57 -1.21036 6.1011 0
M  V30 38987 C 6835.76 -1.04544 8.13308 0
M  V30 38988 O 6836.15 -2.38311 8.41922 0
M  V30 38989 C 6836.64 -0.491279 7.02284 0
M  V30 38990 C 6835.93 -0.996264 5.77469 0
M  V30 38991 N 6835.98 -0.0501808 4.62873 0
M  V30 38992 C 6836.13 -0.588177 3.36904 0
M  V30 38993 O 6836.22 -1.78598 3.17173 0
M  V30 38994 N 6836.17 0.329694 2.33686 0
M  V30 38995 C 6836.08 1.6953 2.45079 0
M  V30 38996 C 6835.93 2.16933 3.80505 0
M  V30 38997 C 6835.88 1.30326 4.83752 0
M  V30 38998 H 6833.14 0.374722 8.67691 0
M  V30 38999 H 6832.87 0.443421 6.90177 0
M  V30 39000 H 6833.74 -1.75537 7.96793 0
M  V30 39001 H 6836.39 -1.94496 5.46629 0
M  V30 39002 H 6836.67 0.608651 7.04676 0
M  V30 39003 H 6837.66 -0.889672 7.08939 0
M  V30 39004 H 6835.83 -0.43308 9.04564 0
M  V30 39005 H 6835.76 1.68366 5.8516 0
M  V30 39006 P 6837.7 -2.75334 8.47391 0
M  V30 39007 O 6837.92 -3.84128 9.44797 0
M  V30 39008 O 6838.49 -1.51947 8.68712 0
M  V30 39009 O 6837.95 -3.29363 6.99321 0
M  V30 39010 C 6837.01 -4.24011 6.4274 0
M  V30 39011 C 6837.74 -5.20775 5.52155 0
M  V30 39012 O 6837.95 -4.56534 4.22446 0
M  V30 39013 C 6839.14 -5.62629 5.96531 0
M  V30 39014 O 6839.53 -6.87667 5.41053 0
M  V30 39015 C 6840.02 -4.52537 5.39283 0
M  V30 39016 C 6839.31 -4.20027 4.08623 0
M  V30 39017 N 6839.36 -2.76189 3.71603 0
M  V30 39018 H 6836.52 -4.797 7.24003 0
M  V30 39019 H 6836.25 -3.69856 5.84513 0
M  V30 39020 H 6837.12 -6.10356 5.41441 0
M  V30 39021 P 6841.08 -7.20834 5.23717 0
M  V30 39022 O 6841.3 -8.66104 5.38572 0
M  V30 39023 O 6841.87 -6.33544 6.1349 0
M  V30 39024 O 6841.33 -6.7751 3.72168 0
M  V30 39025 C 6840.39 -7.20825 2.7076 0
M  V30 39026 C 6841.12 -7.45864 1.40599 0
M  V30 39027 O 6841.33 -6.17651 0.734225 0
M  V30 39028 C 6842.52 -8.05808 1.51899 0
M  V30 39029 O 6842.91 -8.74358 0.335205 0
M  V30 39030 C 6843.4 -6.83093 1.70294 0
M  V30 39031 C 6842.69 -5.79992 0.836974 0
M  V30 39032 N 6842.74 -4.41864 1.38293 0
M  V30 39033 H 6839.9 -8.13644 3.0377 0
M  V30 39034 H 6839.63 -6.42788 2.55485 0
M  V30 39035 H 6840.5 -8.12039 0.792769 0
M  V30 39036 P 6844.46 -8.91 3.47852e-10 0
M  V30 39037 O 6844.68 -10.1726 -0.733694 0
M  V30 39038 O 6845.25 -8.73148 1.23936 0
M  V30 39039 O 6844.71 -7.66872 -0.971405 0
M  V30 39040 C 6843.77 -7.42309 -2.04641 0
M  V30 39041 C 6844.5 -6.86059 -3.24661 0
M  V30 39042 O 6844.71 -5.42847 -3.03646 0
M  V30 39043 C 6845.9 -7.41196 -3.50753 0
M  V30 39044 O 6846.29 -7.27073 -4.86816 0
M  V30 39045 C 6846.78 -6.5273 -2.63741 0
M  V30 39046 C 6846.07 -5.1842 -2.73198 0
M  V30 39047 N 6846.12 -4.38762 -1.4784 0
M  V30 39048 H 6843.28 -8.36803 -2.32493 0
M  V30 39049 H 6843.01 -6.70197 -1.71129 0
M  V30 39050 H 6843.88 -7.03551 -4.13168 0
M  V30 39051 P 6847.84 -7.20834 -5.23717 0
M  V30 39052 O 6848.06 -7.79853 -6.57286 0
M  V30 39053 O 6848.63 -7.79239 -4.12957 0
M  V30 39054 O 6848.09 -5.63315 -5.29344 0
M  V30 39055 C 6847.15 -4.80255 -6.01876 0
M  V30 39056 C 6847.88 -3.64202 -6.65911 0
M  V30 39057 O 6848.09 -2.60694 -5.64732 0
M  V30 39058 C 6849.28 -3.93473 -7.1943 0
M  V30 39059 O 6849.67 -3.02071 -8.21205 0
M  V30 39060 C 6850.16 -3.73047 -5.97036 0
M  V30 39061 C 6849.45 -2.58828 -5.25741 0
M  V30 39062 N 6849.5 -2.68068 -3.77503 0
M  V30 39063 H 6846.66 -5.40332 -6.79951 0
M  V30 39064 H 6846.39 -4.41613 -5.32378 0
M  V30 39065 H 6847.26 -3.26331 -7.47797 0
M  V30 39066 P 6851.22 -2.75334 -8.47391 0
M  V30 39067 O 6851.44 -2.44571 -9.90142 0
M  V30 39068 O 6852.01 -3.87688 -7.92115 0
M  V30 39069 O 6851.47 -1.4459 -7.59357 0
M  V30 39070 C 6850.53 -0.347608 -7.69215 0
M  V30 39071 C 6851.26 0.96767 -7.52806 0
M  V30 39072 O 6851.47 1.21036 -6.1011 0
M  V30 39073 C 6852.66 1.04544 -8.13308 0
M  V30 39074 O 6853.05 2.38311 -8.41922 0
M  V30 39075 C 6853.54 0.491279 -7.02284 0
M  V30 39076 C 6852.83 0.996264 -5.77469 0
M  V30 39077 N 6852.88 0.0501916 -4.62973 0
M  V30 39078 H 6850.04 -0.374722 -8.67691 0
M  V30 39079 H 6849.77 -0.443485 -6.90277 0
M  V30 39080 H 6850.64 1.75537 -7.96793 0
M  V30 39081 P 6854.6 2.75334 -8.47391 0
M  V30 39082 O 6854.82 3.84204 -9.44982 0
M  V30 39083 O 6855.39 1.51982 -8.68909 0
M  V30 39084 O 6854.85 3.29363 -6.99321 0
M  V30 39085 C 6853.91 4.24066 -6.42823 0
M  V30 39086 C 6854.64 5.20775 -5.52155 0
M  V30 39087 O 6854.85 4.56607 -4.22514 0
M  V30 39088 C 6856.04 5.62697 -5.96604 0
M  V30 39089 O 6856.43 6.87667 -5.41053 0
M  V30 39090 C 6856.92 4.52537 -5.39283 0
M  V30 39091 C 6856.21 4.20027 -4.08623 0
M  V30 39092 N 6856.26 2.76189 -3.71603 0
M  V30 39093 H 6853.42 4.79756 -7.24086 0
M  V30 39094 H 6853.15 3.69963 -5.84682 0
M  V30 39095 H 6854.02 6.10431 -5.41508 0
M  V30 39096 H 6856.67 4.78816 -3.28024 0
M  V30 39097 H 6856.95 3.64957 -6.05871 0
M  V30 39098 H 6857.94 4.88748 -5.21323 0
M  V30 39099 H 6856.11 5.66789 -7.0643 0
M  V30 39100 P 6857.98 7.20834 -5.23717 0
M  V30 39101 O 6858.2 8.66104 -5.38572 0
M  V30 39102 O 6858.77 6.33544 -6.1349 0
M  V30 39103 O 6858.23 6.7751 -3.72168 0
M  V30 39104 C 6857.29 7.20825 -2.7076 0
M  V30 39105 C 6858.02 7.45864 -1.40599 0
M  V30 39106 O 6858.23 6.17651 -0.734225 0
M  V30 39107 C 6859.42 8.05808 -1.51899 0
M  V30 39108 O 6859.81 8.74358 -0.335205 0
M  V30 39109 C 6860.3 6.83093 -1.70294 0
M  V30 39110 C 6859.59 5.79992 -0.836974 0
M  V30 39111 N 6859.64 4.41864 -1.38293 0
M  V30 39112 H 6856.8 8.13644 -3.0377 0
M  V30 39113 H 6856.53 6.42788 -2.55485 0
M  V30 39114 H 6857.4 8.12039 -0.792769 0
M  V30 39115 P 6861.36 8.91 -3.48961e-10 0
M  V30 39116 O 6861.58 10.1726 0.733694 0
M  V30 39117 O 6862.15 8.73148 -1.23936 0
M  V30 39118 O 6861.61 7.66872 0.971405 0
M  V30 39119 C 6860.67 7.42309 2.04641 0
M  V30 39120 C 6861.4 6.86059 3.24661 0
M  V30 39121 O 6861.61 5.42847 3.03646 0
M  V30 39122 C 6862.8 7.41196 3.50753 0
M  V30 39123 O 6863.19 7.27073 4.86816 0
M  V30 39124 C 6863.68 6.5273 2.63741 0
M  V30 39125 C 6862.97 5.1842 2.73198 0
M  V30 39126 N 6863.02 4.38762 1.4784 0
M  V30 39127 C 6862.94 4.81605 0.168631 0
M  V30 39128 N 6863.02 3.85454 -0.713363 0
M  V30 39129 C 6863.16 2.6994 0.0566958 0
M  V30 39130 C 6863.29 1.34815 -0.338502 0
M  V30 39131 O 6863.31 0.869548 -1.47125 0
M  V30 39132 N 6863.41 0.496304 0.77465 0
M  V30 39133 C 6863.41 0.908403 2.09122 0
M  V30 39134 N 6863.54 -0.0517805 3.00955 0
M  V30 39135 N 6863.28 2.17875 2.46519 0
M  V30 39136 C 6863.16 3.01988 1.4033 0
M  V30 39137 H 6860.18 8.36803 2.32493 0
M  V30 39138 H 6859.91 6.70197 1.71129 0
M  V30 39139 H 6860.78 7.03551 4.13168 0
M  V30 39140 H 6863.43 4.59498 3.54415 0
M  V30 39141 H 6863.71 6.88898 1.59848 0
M  V30 39142 H 6864.7 6.46749 3.03687 0
M  V30 39143 H 6862.87 8.46908 3.20714 0
M  V30 39144 H 6862.82 5.86405 -0.105564 0
M  V30 39145 H 6863.5 -0.483664 0.597855 0
M  V30 39146 H 6863.54 0.187865 4.0116 0
M  V30 39147 H 6863.64 -1.03585 2.71726 0
M  V30 39148 P 6864.74 7.20834 5.23717 0
M  V30 39149 O 6864.96 7.79853 6.57286 0
M  V30 39150 O 6865.53 7.79239 4.12957 0
M  V30 39151 O 6864.99 5.63315 5.29344 0
M  V30 39152 C 6864.05 4.80255 6.01876 0
M  V30 39153 C 6864.78 3.64202 6.65911 0
M  V30 39154 O 6864.99 2.60694 5.64732 0
M  V30 39155 C 6866.18 3.93473 7.1943 0
M  V30 39156 O 6866.57 3.02071 8.21205 0
M  V30 39157 C 6867.06 3.73047 5.97036 0
M  V30 39158 C 6866.35 2.58828 5.25741 0
M  V30 39159 N 6866.4 2.68068 3.77503 0
M  V30 39160 C 6866.32 3.79715 2.96723 0
M  V30 39161 N 6866.4 3.5377 1.68852 0
M  V30 39162 C 6866.54 2.15054 1.63254 0
M  V30 39163 C 6866.67 1.28964 0.518571 0
M  V30 39164 O 6866.69 1.56826 -0.679156 0
M  V30 39165 N 6866.79 -0.0538097 0.918425 0
M  V30 39166 C 6866.79 -0.494275 2.22578 0
M  V30 39167 N 6866.92 -1.81086 2.40434 0
M  V30 39168 N 6866.66 0.313645 3.27502 0
M  V30 39169 C 6866.54 1.61829 2.91033 0
M  V30 39170 H 6863.56 5.40332 6.79951 0
M  V30 39171 H 6863.29 4.41613 5.32378 0
M  V30 39172 H 6864.16 3.26331 7.47797 0
M  V30 39173 H 6866.81 1.63422 5.56814 0
M  V30 39174 H 6867.09 4.63374 5.34244 0
M  V30 39175 H 6868.08 3.44728 6.25838 0
M  V30 39176 H 6866.25 4.96652 7.57263 0
M  V30 39177 H 6866.2 4.80617 3.3614 0
M  V30 39178 H 6866.88 -0.742702 0.199384 0
M  V30 39179 H 6866.92 -2.20598 3.35588 0
M  V30 39180 H 6867.02 -2.43518 1.58945 0
M  V30 39181 P 6868.12 2.75334 8.47391 0
M  V30 39182 O 6868.34 2.44571 9.90142 0
M  V30 39183 O 6868.91 3.87688 7.92115 0
M  V30 39184 O 6868.37 1.4459 7.59357 0
M  V30 39185 C 6867.43 0.347608 7.69215 0
M  V30 39186 C 6868.16 -0.96767 7.52806 0
M  V30 39187 O 6868.37 -1.21036 6.1011 0
M  V30 39188 C 6869.56 -1.04544 8.13308 0
M  V30 39189 O 6869.95 -2.38311 8.41922 0
M  V30 39190 C 6870.44 -0.491279 7.02284 0
M  V30 39191 C 6869.73 -0.996264 5.77469 0
M  V30 39192 N 6869.78 -0.0501916 4.62973 0
M  V30 39193 H 6866.94 0.374722 8.67691 0
M  V30 39194 H 6866.67 0.443485 6.90277 0
M  V30 39195 H 6867.54 -1.75537 7.96793 0
M  V30 39196 P 6871.5 -2.75334 8.47391 0
M  V30 39197 O 6871.72 -3.84128 9.44797 0
M  V30 39198 O 6872.29 -1.51947 8.68712 0
M  V30 39199 O 6871.75 -3.29363 6.99321 0
M  V30 39200 C 6870.81 -4.24011 6.4274 0
M  V30 39201 C 6871.54 -5.20775 5.52155 0
M  V30 39202 O 6871.75 -4.56534 4.22446 0
M  V30 39203 C 6872.94 -5.62629 5.96531 0
M  V30 39204 O 6873.33 -6.87667 5.41053 0
M  V30 39205 C 6873.82 -4.52537 5.39283 0
M  V30 39206 C 6873.11 -4.20027 4.08623 0
M  V30 39207 N 6873.16 -2.76189 3.71603 0
M  V30 39208 H 6870.32 -4.797 7.24003 0
M  V30 39209 H 6870.05 -3.69856 5.84513 0
M  V30 39210 H 6870.92 -6.10356 5.41441 0
M  V30 39211 P 6874.88 -7.20834 5.23717 0
M  V30 39212 O 6875.1 -8.66104 5.38572 0
M  V30 39213 O 6875.67 -6.33544 6.1349 0
M  V30 39214 O 6875.13 -6.7751 3.72168 0
M  V30 39215 C 6874.19 -7.20825 2.7076 0
M  V30 39216 C 6874.92 -7.45864 1.40599 0
M  V30 39217 O 6875.13 -6.17651 0.734225 0
M  V30 39218 C 6876.32 -8.05808 1.51899 0
M  V30 39219 O 6876.71 -8.74358 0.335205 0
M  V30 39220 C 6877.2 -6.83093 1.70294 0
M  V30 39221 C 6876.49 -5.79992 0.836974 0
M  V30 39222 N 6876.54 -4.41864 1.38293 0
M  V30 39223 H 6873.7 -8.13644 3.0377 0
M  V30 39224 H 6873.43 -6.42788 2.55485 0
M  V30 39225 H 6874.3 -8.12039 0.792769 0
M  V30 39226 P 6878.26 -8.91 3.5007e-10 0
M  V30 39227 O 6878.48 -10.1736 -0.733766 0
M  V30 39228 O 6879.05 -8.73247 1.2395 0
M  V30 39229 O 6878.51 -7.66872 -0.971405 0
M  V30 39230 C 6877.57 -7.42212 -2.04614 0
M  V30 39231 C 6878.3 -6.86059 -3.24661 0
M  V30 39232 O 6878.51 -5.42847 -3.03646 0
M  V30 39233 C 6879.7 -7.41196 -3.50753 0
M  V30 39234 O 6880.09 -7.27073 -4.86816 0
M  V30 39235 C 6880.58 -6.5273 -2.63741 0
M  V30 39236 C 6879.87 -5.1842 -2.73198 0
M  V30 39237 N 6879.92 -4.38668 -1.47808 0
M  V30 39238 C 6880.07 -3.02239 -1.60048 0
M  V30 39239 O 6880.16 -2.46459 -2.67869 0
M  V30 39240 N 6880.11 -2.32436 -0.408571 0
M  V30 39241 C 6880.02 -2.85471 0.854993 0
M  V30 39242 O 6880.07 -2.12566 1.8531 0
M  V30 39243 C 6879.87 -4.28918 0.887335 0
M  V30 39244 C 6879.76 -4.91066 2.24619 0
M  V30 39245 C 6879.82 -5.00349 -0.255399 0
M  V30 39246 H 6877.08 -8.36803 -2.32493 0
M  V30 39247 H 6876.81 -6.701 -1.71105 0
M  V30 39248 H 6877.68 -7.03551 -4.13168 0
M  V30 39249 H 6880.33 -4.59773 -3.53894 0
M  V30 39250 H 6880.61 -6.88995 -1.59871 0
M  V30 39251 H 6881.6 -6.46749 -3.03687 0
M  V30 39252 H 6879.77 -8.46908 -3.20714 0
M  V30 39253 H 6879.7 -6.08548 -0.206986 0
M  V30 39254 H 6880.73 -5.34836 2.53099 0
M  V30 39255 H 6878.99 -5.69638 2.2291 0
M  V30 39256 H 6879.48 -4.13971 2.98044 0
M  V30 39257 H 6880.22 -1.33211 -0.474216 0
M  V30 39258 P 6881.64 -7.20834 -5.23717 0
M  V30 39259 O 6881.86 -7.7993 -6.57351 0
M  V30 39260 O 6882.43 -7.79328 -4.13004 0
M  V30 39261 O 6881.89 -5.63315 -5.29344 0
M  V30 39262 C 6880.95 -4.80193 -6.01798 0
M  V30 39263 C 6881.68 -3.64202 -6.65911 0
M  V30 39264 O 6881.89 -2.60694 -5.64732 0
M  V30 39265 C 6883.08 -3.93473 -7.1943 0
M  V30 39266 O 6883.47 -3.02071 -8.21205 0
M  V30 39267 C 6883.96 -3.73047 -5.97036 0
M  V30 39268 C 6883.25 -2.58828 -5.25741 0
M  V30 39269 N 6883.3 -2.6801 -3.77422 0
M  V30 39270 C 6883.45 -1.50443 -3.07133 0
M  V30 39271 O 6883.54 -0.419406 -3.61576 0
M  V30 39272 N 6883.49 -1.6403 -1.69677 0
M  V30 39273 C 6883.4 -2.81206 -0.986255 0
M  V30 39274 C 6883.25 -3.99158 -1.80325 0
M  V30 39275 C 6883.2 -3.89779 -3.1476 0
M  V30 39276 H 6880.46 -5.40332 -6.79951 0
M  V30 39277 H 6880.19 -4.41549 -5.32301 0
M  V30 39278 H 6881.06 -3.26331 -7.47797 0
M  V30 39279 H 6883.71 -1.6395 -5.56554 0
M  V30 39280 H 6883.99 -4.63439 -5.3432 0
M  V30 39281 H 6884.98 -3.44728 -6.25838 0
M  V30 39282 H 6883.15 -4.96652 -7.57263 0
M  V30 39283 H 6883.08 -4.80159 -3.74441 0
M  V30 39284 P 6885.02 -2.75334 -8.47391 0
M  V30 39285 O 6885.24 -2.44571 -9.90142 0
M  V30 39286 O 6885.81 -3.87688 -7.92115 0
M  V30 39287 O 6885.27 -1.4459 -7.59357 0
M  V30 39288 C 6884.33 -0.347608 -7.69215 0
M  V30 39289 C 6885.06 0.96767 -7.52806 0
M  V30 39290 O 6885.27 1.21036 -6.1011 0
M  V30 39291 C 6886.46 1.04544 -8.13308 0
M  V30 39292 O 6886.85 2.38311 -8.41922 0
M  V30 39293 C 6887.34 0.491279 -7.02284 0
M  V30 39294 C 6886.63 0.996264 -5.77469 0
M  V30 39295 N 6886.68 0.0501916 -4.62973 0
M  V30 39296 H 6883.84 -0.374722 -8.67691 0
M  V30 39297 H 6883.57 -0.443485 -6.90277 0
M  V30 39298 H 6884.44 1.75537 -7.96793 0
M  V30 39299 P 6888.4 2.75334 -8.47391 0
M  V30 39300 O 6888.62 3.84128 -9.44797 0
M  V30 39301 O 6889.19 1.51947 -8.68712 0
M  V30 39302 O 6888.65 3.29363 -6.99321 0
M  V30 39303 C 6887.71 4.24011 -6.4274 0
M  V30 39304 C 6888.44 5.20775 -5.52155 0
M  V30 39305 O 6888.65 4.56534 -4.22446 0
M  V30 39306 C 6889.84 5.62629 -5.96531 0
M  V30 39307 O 6890.23 6.87667 -5.41053 0
M  V30 39308 C 6890.72 4.52537 -5.39283 0
M  V30 39309 C 6890.01 4.20027 -4.08623 0
M  V30 39310 N 6890.06 2.76189 -3.71603 0
M  V30 39311 C 6889.98 1.64862 -4.52822 0
M  V30 39312 N 6890.06 0.512671 -3.88633 0
M  V30 39313 C 6890.2 0.888083 -2.54977 0
M  V30 39314 C 6890.33 0.094668 -1.38677 0
M  V30 39315 N 6890.45 0.890102 -0.232633 0
M  V30 39316 C 6890.45 2.26958 -0.21772 0
M  V30 39317 N 6890.58 2.84626 0.97925 0
M  V30 39318 N 6890.32 3.0178 -1.31033 0
M  V30 39319 C 6890.2 2.26781 -2.43843 0
M  V30 39320 H 6887.22 4.797 -7.24003 0
M  V30 39321 H 6886.95 3.69856 -5.84513 0
M  V30 39322 H 6887.82 6.10356 -5.41441 0
M  V30 39323 P 6891.78 7.20834 -5.23717 0
M  V30 39324 O 6892 8.66104 -5.38572 0
M  V30 39325 O 6892.57 6.33544 -6.1349 0
M  V30 39326 O 6892.03 6.7751 -3.72168 0
M  V30 39327 C 6891.09 7.20825 -2.7076 0
M  V30 39328 C 6891.82 7.45864 -1.40599 0
M  V30 39329 O 6892.03 6.17651 -0.734225 0
M  V30 39330 C 6893.22 8.05808 -1.51899 0
M  V30 39331 O 6893.61 8.74358 -0.335205 0
M  V30 39332 C 6894.1 6.83093 -1.70294 0
M  V30 39333 C 6893.39 5.79992 -0.836974 0
M  V30 39334 N 6893.44 4.41864 -1.38293 0
M  V30 39335 H 6890.6 8.13644 -3.0377 0
M  V30 39336 H 6890.33 6.42788 -2.55485 0
M  V30 39337 H 6891.2 8.12039 -0.792769 0
M  V30 39338 P 6895.16 8.91 -3.51179e-10 0
M  V30 39339 O 6895.38 10.1746 0.733838 0
M  V30 39340 O 6895.95 8.73346 -1.23964 0
M  V30 39341 O 6895.41 7.66872 0.971405 0
M  V30 39342 C 6894.47 7.42405 2.04668 0
M  V30 39343 C 6895.2 6.86059 3.24661 0
M  V30 39344 O 6895.41 5.42934 3.03695 0
M  V30 39345 C 6896.6 7.41287 3.50796 0
M  V30 39346 O 6896.99 7.27073 4.86816 0
M  V30 39347 C 6897.48 6.5273 2.63741 0
M  V30 39348 C 6896.77 5.1842 2.73198 0
M  V30 39349 N 6896.82 4.38762 1.4784 0
M  V30 39350 C 6896.74 4.83651 0.183876 0
M  V30 39351 N 6896.81 3.88759 -0.699393 0
M  V30 39352 C 6896.96 2.7404 0.0575568 0
M  V30 39353 C 6897.09 1.37902 -0.293928 0
M  V30 39354 N 6897.1 0.938021 -1.54797 0
M  V30 39355 N 6897.21 0.491817 0.70549 0
M  V30 39356 C 6897.2 0.931735 1.95979 0
M  V30 39357 N 6897.08 2.16017 2.41481 0
M  V30 39358 C 6896.96 3.02547 1.39121 0
M  V30 39359 H 6893.98 8.36899 2.3252 0
M  V30 39360 H 6893.71 6.70391 1.71179 0
M  V30 39361 H 6894.58 7.03638 4.13219 0
M  V30 39362 H 6897.23 4.59931 3.54016 0
M  V30 39363 H 6897.51 6.88995 1.59871 0
M  V30 39364 H 6898.5 6.4684 3.0373 0
M  V30 39365 H 6896.67 8.47002 3.20749 0
M  V30 39366 H 6896.63 5.8885 -0.0765548 0
M  V30 39367 H 6897.01 1.60276 -2.32875 0
M  V30 39368 H 6897.2 -0.0699355 -1.73859 0
M  V30 39369 H 6897.31 0.165507 2.71897 0
M  V30 39370 P 6898.54 7.20834 5.23717 0
M  V30 39371 O 6898.76 7.79853 6.57286 0
M  V30 39372 O 6899.33 7.79239 4.12957 0
M  V30 39373 O 6898.79 5.63315 5.29344 0
M  V30 39374 C 6897.85 4.80255 6.01876 0
M  V30 39375 C 6898.58 3.64202 6.65911 0
M  V30 39376 O 6898.79 2.60694 5.64732 0
M  V30 39377 C 6899.98 3.93473 7.1943 0
M  V30 39378 O 6900.37 3.02071 8.21205 0
M  V30 39379 C 6900.86 3.73047 5.97036 0
M  V30 39380 C 6900.15 2.58828 5.25741 0
M  V30 39381 N 6900.2 2.68068 3.77503 0
M  V30 39382 C 6900.12 3.79715 2.96723 0
M  V30 39383 N 6900.2 3.5377 1.68852 0
M  V30 39384 C 6900.34 2.15054 1.63254 0
M  V30 39385 C 6900.47 1.28964 0.518571 0
M  V30 39386 N 6900.59 -0.0538097 0.918425 0
M  V30 39387 C 6900.59 -0.494275 2.22578 0
M  V30 39388 N 6900.72 -1.81086 2.40434 0
M  V30 39389 N 6900.46 0.313645 3.27502 0
M  V30 39390 C 6900.34 1.61829 2.91033 0
M  V30 39391 H 6897.36 5.40332 6.79951 0
M  V30 39392 H 6897.09 4.41613 5.32378 0
M  V30 39393 H 6897.96 3.26331 7.47797 0
M  V30 39394 P 6901.92 2.75334 8.47391 0
M  V30 39395 O 6902.14 2.44619 9.90336 0
M  V30 39396 O 6902.71 3.87776 7.92294 0
M  V30 39397 O 6902.17 1.4459 7.59357 0
M  V30 39398 C 6901.23 0.347653 7.69315 0
M  V30 39399 C 6901.96 -0.96767 7.52806 0
M  V30 39400 O 6902.17 -1.21055 6.10208 0
M  V30 39401 C 6903.36 -1.04557 8.13408 0
M  V30 39402 O 6903.75 -2.38311 8.41922 0
M  V30 39403 C 6904.24 -0.491279 7.02284 0
M  V30 39404 C 6903.53 -0.996264 5.77469 0
M  V30 39405 N 6903.58 -0.0501916 4.62973 0
M  V30 39406 H 6900.74 0.374765 8.67791 0
M  V30 39407 H 6900.47 0.443613 6.90476 0
M  V30 39408 H 6901.34 -1.75559 7.96891 0
M  V30 39409 H 6903.99 -1.94563 5.46818 0
M  V30 39410 H 6904.27 0.608651 7.04676 0
M  V30 39411 H 6905.26 -0.889796 7.09039 0
M  V30 39412 H 6903.43 -0.433128 9.04664 0
M  V30 39413 P 6905.3 -2.75334 8.47391 0
M  V30 39414 O 6905.52 -3.84204 9.44982 0
M  V30 39415 O 6906.09 -1.51982 8.68909 0
M  V30 39416 O 6905.55 -3.29363 6.99321 0
M  V30 39417 C 6904.61 -4.24066 6.42823 0
M  V30 39418 C 6905.34 -5.20775 5.52155 0
M  V30 39419 O 6905.55 -4.56607 4.22514 0
M  V30 39420 C 6906.74 -5.62697 5.96604 0
M  V30 39421 O 6907.13 -6.87667 5.41053 0
M  V30 39422 C 6907.62 -4.52537 5.39283 0
M  V30 39423 C 6906.91 -4.20027 4.08623 0
M  V30 39424 N 6906.96 -2.76189 3.71603 0
M  V30 39425 C 6906.88 -1.66944 4.54297 0
M  V30 39426 N 6906.95 -0.536169 3.91344 0
M  V30 39427 C 6907.1 -0.901569 2.58849 0
M  V30 39428 C 6907.23 -0.146599 1.40236 0
M  V30 39429 N 6907.24 1.18234 1.37046 0
M  V30 39430 N 6907.35 -0.822941 0.249738 0
M  V30 39431 C 6907.34 -2.15179 0.280525 0
M  V30 39432 N 6907.22 -2.96414 1.30822 0
M  V30 39433 C 6907.1 -2.25804 2.44748 0
M  V30 39434 H 6904.12 -4.79756 7.24086 0
M  V30 39435 H 6903.85 -3.69963 5.84682 0
M  V30 39436 H 6904.72 -6.10431 5.41508 0
M  V30 39437 H 6907.37 -4.78816 3.28024 0
M  V30 39438 H 6907.65 -3.64957 6.05871 0
M  V30 39439 H 6908.64 -4.88748 5.21323 0
M  V30 39440 H 6906.81 -5.66789 7.0643 0
M  V30 39441 H 6906.77 -1.74684 5.62396 0
M  V30 39442 H 6907.15 1.71949 2.24394 0
M  V30 39443 H 6907.34 1.67511 0.470742 0
M  V30 39444 H 6907.45 -2.63704 -0.6828 0
M  V30 39445 P 6908.68 -7.20834 5.23717 0
M  V30 39446 O 6908.9 -8.66189 5.38625 0
M  V30 39447 O 6909.47 -6.33615 6.1356 0
M  V30 39448 O 6908.93 -6.7751 3.72168 0
M  V30 39449 C 6907.99 -7.20732 2.70725 0
M  V30 39450 C 6908.72 -7.45864 1.40599 0
M  V30 39451 O 6908.93 -6.17651 0.734225 0
M  V30 39452 C 6910.12 -8.05808 1.51899 0
M  V30 39453 O 6910.51 -8.74358 0.335205 0
M  V30 39454 C 6911 -6.83093 1.70294 0
M  V30 39455 C 6910.29 -5.79992 0.836974 0
M  V30 39456 N 6910.34 -4.41769 1.38263 0
M  V30 39457 C 6910.49 -3.38591 0.481702 0
M  V30 39458 O 6910.58 -3.56839 -0.718452 0
M  V30 39459 N 6910.53 -2.1206 1.03569 0
M  V30 39460 C 6910.44 -1.80696 2.36966 0
M  V30 39461 O 6910.49 -0.630473 2.74862 0
M  V30 39462 C 6910.29 -2.94845 3.23898 0
M  V30 39463 C 6910.18 -2.65253 4.70362 0
M  V30 39464 C 6910.24 -4.19803 2.73435 0
M  V30 39465 H 6907.5 -8.13644 3.0377 0
M  V30 39466 H 6907.23 -6.42695 2.55448 0
M  V30 39467 H 6908.1 -8.12039 0.792769 0
M  V30 39468 H 6910.75 -5.79978 -0.160587 0
M  V30 39469 H 6911.03 -6.51379 2.75643 0
M  V30 39470 H 6912.02 -7.01734 1.34462 0
M  V30 39471 H 6910.19 -8.73674 2.38337 0
M  V30 39472 H 6910.12 -5.04492 3.4095 0
M  V30 39473 H 6911.15 -2.83924 5.1913 0
M  V30 39474 H 6909.41 -3.29824 5.15163 0
M  V30 39475 H 6909.9 -1.59723 4.84449 0
M  V30 39476 H 6910.64 -1.35644 0.399345 0
M  V30 39477 P 6912.06 -8.91 3.52288e-10 0
M  V30 39478 O 6912.28 -10.1726 -0.733694 0
M  V30 39479 O 6912.85 -8.73148 1.23936 0
M  V30 39480 O 6912.31 -7.66872 -0.971405 0
M  V30 39481 C 6911.37 -7.42309 -2.04641 0
M  V30 39482 C 6912.1 -6.86059 -3.24661 0
M  V30 39483 O 6912.31 -5.42847 -3.03646 0
M  V30 39484 C 6913.5 -7.41196 -3.50753 0
M  V30 39485 O 6913.89 -7.27073 -4.86816 0
M  V30 39486 C 6914.38 -6.5273 -2.63741 0
M  V30 39487 C 6913.67 -5.1842 -2.73198 0
M  V30 39488 N 6913.72 -4.38762 -1.4784 0
M  V30 39489 H 6910.88 -8.36803 -2.32493 0
M  V30 39490 H 6910.61 -6.70197 -1.71129 0
M  V30 39491 H 6911.48 -7.03551 -4.13168 0
M  V30 39492 P 6915.44 -7.20834 -5.23717 0
M  V30 39493 O 6915.66 -7.7993 -6.57351 0
M  V30 39494 O 6916.23 -7.79328 -4.13004 0
M  V30 39495 O 6915.69 -5.63315 -5.29344 0
M  V30 39496 C 6914.75 -4.80193 -6.01798 0
M  V30 39497 C 6915.48 -3.64202 -6.65911 0
M  V30 39498 O 6915.69 -2.60694 -5.64732 0
M  V30 39499 C 6916.88 -3.93473 -7.1943 0
M  V30 39500 O 6917.27 -3.02071 -8.21205 0
M  V30 39501 C 6917.76 -3.73047 -5.97036 0
M  V30 39502 C 6917.05 -2.58828 -5.25741 0
M  V30 39503 N 6917.1 -2.6801 -3.77422 0
M  V30 39504 C 6917.25 -1.50443 -3.07133 0
M  V30 39505 O 6917.34 -0.419406 -3.61576 0
M  V30 39506 N 6917.29 -1.6403 -1.69677 0
M  V30 39507 C 6917.2 -2.81206 -0.986255 0
M  V30 39508 C 6917.05 -3.99158 -1.80325 0
M  V30 39509 C 6917 -3.89779 -3.1476 0
M  V30 39510 H 6914.26 -5.40332 -6.79951 0
M  V30 39511 H 6913.99 -4.41549 -5.32301 0
M  V30 39512 H 6914.86 -3.26331 -7.47797 0
M  V30 39513 H 6917.51 -1.6395 -5.56554 0
M  V30 39514 H 6917.79 -4.63439 -5.3432 0
M  V30 39515 H 6918.78 -3.44728 -6.25838 0
M  V30 39516 H 6916.95 -4.96652 -7.57263 0
M  V30 39517 H 6916.88 -4.80159 -3.74441 0
M  V30 39518 P 6918.82 -2.75334 -8.47391 0
M  V30 39519 O 6919.04 -2.44571 -9.90142 0
M  V30 39520 O 6919.61 -3.87688 -7.92115 0
M  V30 39521 O 6919.07 -1.4459 -7.59357 0
M  V30 39522 C 6918.13 -0.347608 -7.69215 0
M  V30 39523 C 6918.86 0.96767 -7.52806 0
M  V30 39524 O 6919.07 1.21036 -6.1011 0
M  V30 39525 C 6920.26 1.04544 -8.13308 0
M  V30 39526 O 6920.65 2.38311 -8.41922 0
M  V30 39527 C 6921.14 0.491279 -7.02284 0
M  V30 39528 C 6920.43 0.996264 -5.77469 0
M  V30 39529 N 6920.48 0.0501916 -4.62973 0
M  V30 39530 C 6920.4 -1.32786 -4.63244 0
M  V30 39531 N 6920.48 -1.86957 -3.44545 0
M  V30 39532 C 6920.62 -0.780241 -2.58481 0
M  V30 39533 C 6920.75 -0.738536 -1.17757 0
M  V30 39534 O 6920.77 -1.66794 -0.372349 0
M  V30 39535 N 6920.87 0.58337 -0.711393 0
M  V30 39536 C 6920.87 1.70816 -1.51017 0
M  V30 39537 N 6921 2.87826 -0.880757 0
M  V30 39538 N 6920.74 1.67126 -2.8339 0
M  V30 39539 C 6920.62 0.401421 -3.30572 0
M  V30 39540 H 6917.64 -0.374722 -8.67691 0
M  V30 39541 H 6917.37 -0.443485 -6.90277 0
M  V30 39542 H 6918.24 1.75537 -7.96793 0
M  V30 39543 H 6920.89 1.95076 -5.46529 0
M  V30 39544 H 6921.17 -0.608565 -7.04577 0
M  V30 39545 H 6922.16 0.889672 -7.08939 0
M  V30 39546 H 6920.33 0.43308 -9.04564 0
M  V30 39547 H 6920.28 -1.91249 -5.54442 0
M  V30 39548 H 6920.96 0.718054 0.275244 0
M  V30 39549 H 6921 3.75721 -1.41832 0
M  V30 39550 H 6921.1 2.90436 0.145468 0
M  V30 39551 P 6922.2 2.75334 -8.47391 0
M  V30 39552 O 6922.42 3.84128 -9.44797 0
M  V30 39553 O 6922.99 1.51947 -8.68712 0
M  V30 39554 O 6922.45 3.29363 -6.99321 0
M  V30 39555 C 6921.51 4.24011 -6.4274 0
M  V30 39556 C 6922.24 5.20775 -5.52155 0
M  V30 39557 O 6922.45 4.56534 -4.22446 0
M  V30 39558 C 6923.64 5.62629 -5.96531 0
M  V30 39559 O 6924.03 6.87667 -5.41053 0
M  V30 39560 C 6924.52 4.52537 -5.39283 0
M  V30 39561 C 6923.81 4.20027 -4.08623 0
M  V30 39562 N 6923.86 2.76189 -3.71603 0
M  V30 39563 H 6921.02 4.797 -7.24003 0
M  V30 39564 H 6920.75 3.69856 -5.84513 0
M  V30 39565 H 6921.62 6.10356 -5.41441 0
M  V30 39566 P 6925.58 7.20834 -5.23717 0
M  V30 39567 O 6925.8 8.66104 -5.38572 0
M  V30 39568 O 6926.37 6.33544 -6.1349 0
M  V30 39569 O 6925.83 6.7751 -3.72168 0
M  V30 39570 C 6924.89 7.20825 -2.7076 0
M  V30 39571 C 6925.62 7.45864 -1.40599 0
M  V30 39572 O 6925.83 6.17651 -0.734225 0
M  V30 39573 C 6927.02 8.05808 -1.51899 0
M  V30 39574 O 6927.41 8.74358 -0.335205 0
M  V30 39575 C 6927.9 6.83093 -1.70294 0
M  V30 39576 C 6927.19 5.79992 -0.836974 0
M  V30 39577 N 6927.24 4.41864 -1.38293 0
M  V30 39578 H 6924.4 8.13644 -3.0377 0
M  V30 39579 H 6924.13 6.42788 -2.55485 0
M  V30 39580 H 6925 8.12039 -0.792769 0
M  V30 39581 P 6928.96 8.91 -3.53397e-10 0
M  V30 39582 O 6929.18 10.1726 0.733694 0
M  V30 39583 O 6929.75 8.73148 -1.23936 0
M  V30 39584 O 6929.21 7.66872 0.971405 0
M  V30 39585 C 6928.27 7.42309 2.04641 0
M  V30 39586 C 6929 6.86059 3.24661 0
M  V30 39587 O 6929.21 5.42847 3.03646 0
M  V30 39588 C 6930.4 7.41196 3.50753 0
M  V30 39589 O 6930.79 7.27073 4.86816 0
M  V30 39590 C 6931.28 6.5273 2.63741 0
M  V30 39591 C 6930.57 5.1842 2.73198 0
M  V30 39592 N 6930.62 4.38762 1.4784 0
M  V30 39593 H 6927.78 8.36803 2.32493 0
M  V30 39594 H 6927.51 6.70197 1.71129 0
M  V30 39595 H 6928.38 7.03551 4.13168 0
M  V30 39596 P 6932.34 7.20834 5.23717 0
M  V30 39597 O 6932.56 7.7993 6.57351 0
M  V30 39598 O 6933.13 7.79328 4.13004 0
M  V30 39599 O 6932.59 5.63315 5.29344 0
M  V30 39600 C 6931.65 4.80193 6.01798 0
M  V30 39601 C 6932.38 3.64202 6.65911 0
M  V30 39602 O 6932.59 2.60694 5.64732 0
M  V30 39603 C 6933.78 3.93473 7.1943 0
M  V30 39604 O 6934.17 3.02071 8.21205 0
M  V30 39605 C 6934.66 3.73047 5.97036 0
M  V30 39606 C 6933.95 2.58828 5.25741 0
M  V30 39607 N 6934 2.6801 3.77422 0
M  V30 39608 C 6934.15 1.50443 3.07133 0
M  V30 39609 O 6934.24 0.419406 3.61576 0
M  V30 39610 N 6934.19 1.6403 1.69677 0
M  V30 39611 C 6934.1 2.81206 0.986255 0
M  V30 39612 O 6934.15 2.80892 -0.249754 0
M  V30 39613 C 6933.95 3.99158 1.80325 0
M  V30 39614 C 6933.84 5.29309 1.06921 0
M  V30 39615 C 6933.9 3.89779 3.1476 0
M  V30 39616 H 6931.16 5.40332 6.79951 0
M  V30 39617 H 6930.89 4.41549 5.32301 0
M  V30 39618 H 6931.76 3.26331 7.47797 0
M  V30 39619 H 6934.41 1.6395 5.56554 0
M  V30 39620 H 6934.69 4.63439 5.3432 0
M  V30 39621 H 6935.68 3.44728 6.25838 0
M  V30 39622 H 6933.85 4.96652 7.57263 0
M  V30 39623 H 6933.78 4.80159 3.74441 0
M  V30 39624 H 6934.81 5.81459 1.09608 0
M  V30 39625 H 6933.07 5.9187 1.54487 0
M  V30 39626 H 6933.56 5.10095 0.0220288 0
M  V30 39627 H 6934.29 0.798962 1.16664 0
M  V30 39628 P 6935.72 2.75334 8.47391 0
M  V30 39629 O 6935.94 2.44571 9.90142 0
M  V30 39630 O 6936.51 3.87688 7.92115 0
M  V30 39631 O 6935.97 1.4459 7.59357 0
M  V30 39632 C 6935.03 0.347608 7.69215 0
M  V30 39633 C 6935.76 -0.96767 7.52806 0
M  V30 39634 O 6935.97 -1.21036 6.1011 0
M  V30 39635 C 6937.16 -1.04544 8.13308 0
M  V30 39636 O 6937.55 -2.38311 8.41922 0
M  V30 39637 C 6938.04 -0.491279 7.02284 0
M  V30 39638 C 6937.33 -0.996264 5.77469 0
M  V30 39639 N 6937.38 -0.0501916 4.62973 0
M  V30 39640 H 6934.54 0.374722 8.67691 0
M  V30 39641 H 6934.27 0.443485 6.90277 0
M  V30 39642 H 6935.14 -1.75537 7.96793 0
M  V30 39643 P 6939.1 -2.75334 8.47391 0
M  V30 39644 O 6939.32 -3.84128 9.44797 0
M  V30 39645 O 6939.89 -1.51947 8.68712 0
M  V30 39646 O 6939.35 -3.29363 6.99321 0
M  V30 39647 C 6938.41 -4.24011 6.4274 0
M  V30 39648 C 6939.14 -5.20775 5.52155 0
M  V30 39649 O 6939.35 -4.56534 4.22446 0
M  V30 39650 C 6940.54 -5.62629 5.96531 0
M  V30 39651 O 6940.93 -6.87667 5.41053 0
M  V30 39652 C 6941.42 -4.52537 5.39283 0
M  V30 39653 C 6940.71 -4.20027 4.08623 0
M  V30 39654 N 6940.76 -2.76189 3.71603 0
M  V30 39655 H 6937.92 -4.797 7.24003 0
M  V30 39656 H 6937.65 -3.69856 5.84513 0
M  V30 39657 H 6938.52 -6.10356 5.41441 0
M  V30 39658 P 6942.48 -7.20834 5.23717 0
M  V30 39659 O 6942.7 -8.66104 5.38572 0
M  V30 39660 O 6943.27 -6.33544 6.1349 0
M  V30 39661 O 6942.73 -6.7751 3.72168 0
M  V30 39662 C 6941.79 -7.20825 2.7076 0
M  V30 39663 C 6942.52 -7.45864 1.40599 0
M  V30 39664 O 6942.73 -6.17651 0.734225 0
M  V30 39665 C 6943.92 -8.05808 1.51899 0
M  V30 39666 O 6944.31 -8.74358 0.335205 0
M  V30 39667 C 6944.8 -6.83093 1.70294 0
M  V30 39668 C 6944.09 -5.79992 0.836974 0
M  V30 39669 N 6944.14 -4.41864 1.38293 0
M  V30 39670 H 6941.3 -8.13644 3.0377 0
M  V30 39671 H 6941.03 -6.42788 2.55485 0
M  V30 39672 H 6941.9 -8.12039 0.792769 0
M  V30 39673 P 6945.86 -8.91 3.54506e-10 0
M  V30 39674 O 6946.08 -10.1726 -0.733694 0
M  V30 39675 O 6946.65 -8.73148 1.23936 0
M  V30 39676 O 6946.11 -7.66872 -0.971405 0
M  V30 39677 C 6945.17 -7.42309 -2.04641 0
M  V30 39678 C 6945.9 -6.86059 -3.24661 0
M  V30 39679 O 6946.11 -5.42847 -3.03646 0
M  V30 39680 C 6947.3 -7.41196 -3.50753 0
M  V30 39681 O 6947.69 -7.27073 -4.86816 0
M  V30 39682 C 6948.18 -6.5273 -2.63741 0
M  V30 39683 C 6947.47 -5.1842 -2.73198 0
M  V30 39684 N 6947.52 -4.38762 -1.4784 0
M  V30 39685 H 6944.68 -8.36803 -2.32493 0
M  V30 39686 H 6944.41 -6.70197 -1.71129 0
M  V30 39687 H 6945.28 -7.03551 -4.13168 0
M  V30 39688 P 6949.24 -7.20834 -5.23717 0
M  V30 39689 O 6949.46 -7.79853 -6.57286 0
M  V30 39690 O 6950.03 -7.79239 -4.12957 0
M  V30 39691 O 6949.49 -5.63315 -5.29344 0
M  V30 39692 C 6948.55 -4.80255 -6.01876 0
M  V30 39693 C 6949.28 -3.64202 -6.65911 0
M  V30 39694 O 6949.49 -2.60694 -5.64732 0
M  V30 39695 C 6950.68 -3.93473 -7.1943 0
M  V30 39696 O 6951.07 -3.02071 -8.21205 0
M  V30 39697 C 6951.56 -3.73047 -5.97036 0
M  V30 39698 C 6950.85 -2.58828 -5.25741 0
M  V30 39699 N 6950.9 -2.68068 -3.77503 0
M  V30 39700 H 6948.06 -5.40332 -6.79951 0
M  V30 39701 H 6947.79 -4.41613 -5.32378 0
M  V30 39702 H 6948.66 -3.26331 -7.47797 0
M  V30 39703 P 6952.62 -2.75334 -8.47391 0
M  V30 39704 O 6952.84 -2.44571 -9.90142 0
M  V30 39705 O 6953.41 -3.87688 -7.92115 0
M  V30 39706 O 6952.87 -1.4459 -7.59357 0
M  V30 39707 C 6951.93 -0.347608 -7.69215 0
M  V30 39708 C 6952.66 0.96767 -7.52806 0
M  V30 39709 O 6952.87 1.21036 -6.1011 0
M  V30 39710 C 6954.06 1.04544 -8.13308 0
M  V30 39711 O 6954.45 2.38311 -8.41922 0
M  V30 39712 C 6954.94 0.491279 -7.02284 0
M  V30 39713 C 6954.23 0.996264 -5.77469 0
M  V30 39714 N 6954.28 0.0501916 -4.62973 0
M  V30 39715 H 6951.44 -0.374722 -8.67691 0
M  V30 39716 H 6951.17 -0.443485 -6.90277 0
M  V30 39717 H 6952.04 1.75537 -7.96793 0
M  V30 39718 P 6956 2.75334 -8.47391 0
M  V30 39719 O 6956.22 3.84128 -9.44797 0
M  V30 39720 O 6956.79 1.51947 -8.68712 0
M  V30 39721 O 6956.25 3.29363 -6.99321 0
M  V30 39722 C 6955.31 4.24011 -6.4274 0
M  V30 39723 C 6956.04 5.20775 -5.52155 0
M  V30 39724 O 6956.25 4.56534 -4.22446 0
M  V30 39725 C 6957.44 5.62629 -5.96531 0
M  V30 39726 O 6957.83 6.87667 -5.41053 0
M  V30 39727 C 6958.32 4.52537 -5.39283 0
M  V30 39728 C 6957.61 4.20027 -4.08623 0
M  V30 39729 N 6957.66 2.76189 -3.71603 0
M  V30 39730 H 6954.82 4.797 -7.24003 0
M  V30 39731 H 6954.55 3.69856 -5.84513 0
M  V30 39732 H 6955.42 6.10356 -5.41441 0
M  V30 39733 P 6959.38 7.20834 -5.23717 0
M  V30 39734 O 6959.6 8.66189 -5.38625 0
M  V30 39735 O 6960.17 6.33615 -6.1356 0
M  V30 39736 O 6959.63 6.7751 -3.72168 0
M  V30 39737 C 6958.69 7.20825 -2.7076 0
M  V30 39738 C 6959.42 7.45864 -1.40599 0
M  V30 39739 O 6959.63 6.17651 -0.734225 0
M  V30 39740 C 6960.82 8.05808 -1.51899 0
M  V30 39741 O 6961.21 8.74358 -0.335205 0
M  V30 39742 C 6961.7 6.83093 -1.70294 0
M  V30 39743 C 6960.99 5.79992 -0.836974 0
M  V30 39744 N 6961.04 4.41769 -1.38263 0
M  V30 39745 C 6961.19 3.36514 -0.485617 0
M  V30 39746 O 6961.28 3.61814 0.724703 0
M  V30 39747 N 6961.24 2.00746 -1.14492 0
M  V30 39748 C 6961.14 1.85887 -2.27776 0
M  V30 39749 N 6961.19 0.600907 -2.69379 0
M  V30 39750 C 6960.99 2.92182 -3.22265 0
M  V30 39751 C 6960.94 4.18399 -2.71925 0
M  V30 39752 H 6958.2 8.1355 -3.03735 0
M  V30 39753 H 6957.93 6.42695 -2.55448 0
M  V30 39754 H 6958.8 8.12139 -0.792866 0
M  V30 39755 H 6961.45 5.80078 0.160615 0
M  V30 39756 H 6961.73 6.51379 -2.75643 0
M  V30 39757 H 6962.72 7.01734 -1.34462 0
M  V30 39758 H 6960.89 8.73674 -2.38337 0
M  V30 39759 H 6960.82 5.02669 -3.39718 0
M  V30 39760 H 6960.92 2.73001 -4.29239 0
M  V30 39761 H 6961.31 -0.162318 -2.01146 0
M  V30 39762 H 6961.11 0.387742 -3.69773 0
M  V30 39763 P 6962.76 8.91 -3.55615e-10 0
M  V30 39764 O 6962.98 10.1726 0.733694 0
M  V30 39765 O 6963.55 8.73148 -1.23936 0
M  V30 39766 O 6963.01 7.66872 0.971405 0
M  V30 39767 C 6962.07 7.42309 2.04641 0
M  V30 39768 C 6962.8 6.86059 3.24661 0
M  V30 39769 O 6963.01 5.42847 3.03646 0
M  V30 39770 C 6964.2 7.41196 3.50753 0
M  V30 39771 O 6964.59 7.27073 4.86816 0
M  V30 39772 C 6965.08 6.5273 2.63741 0
M  V30 39773 C 6964.37 5.1842 2.73198 0
M  V30 39774 N 6964.42 4.38762 1.4784 0
M  V30 39775 H 6961.58 8.36803 2.32493 0
M  V30 39776 H 6961.31 6.70197 1.71129 0
M  V30 39777 H 6962.18 7.03551 4.13168 0
M  V30 39778 P 6966.14 7.20834 5.23717 0
M  V30 39779 O 6966.36 7.79853 6.57286 0
M  V30 39780 O 6966.93 7.79239 4.12957 0
M  V30 39781 O 6966.39 5.63315 5.29344 0
M  V30 39782 C 6965.45 4.80255 6.01876 0
M  V30 39783 C 6966.18 3.64202 6.65911 0
M  V30 39784 O 6966.39 2.60694 5.64732 0
M  V30 39785 C 6967.58 3.93473 7.1943 0
M  V30 39786 O 6967.97 3.02071 8.21205 0
M  V30 39787 C 6968.46 3.73047 5.97036 0
M  V30 39788 C 6967.75 2.58828 5.25741 0
M  V30 39789 N 6967.8 2.68068 3.77503 0
M  V30 39790 H 6964.96 5.40332 6.79951 0
M  V30 39791 H 6964.69 4.41613 5.32378 0
M  V30 39792 H 6965.56 3.26331 7.47797 0
M  V30 39793 P 6969.52 2.75334 8.47391 0
M  V30 39794 O 6969.74 2.44571 9.90142 0
M  V30 39795 O 6970.31 3.87688 7.92115 0
M  V30 39796 O 6969.77 1.4459 7.59357 0
M  V30 39797 C 6968.83 0.347608 7.69215 0
M  V30 39798 C 6969.56 -0.96767 7.52806 0
M  V30 39799 O 6969.77 -1.21036 6.1011 0
M  V30 39800 C 6970.96 -1.04544 8.13308 0
M  V30 39801 O 6971.35 -2.38311 8.41922 0
M  V30 39802 C 6971.84 -0.491279 7.02284 0
M  V30 39803 C 6971.13 -0.996264 5.77469 0
M  V30 39804 N 6971.18 -0.0501916 4.62973 0
M  V30 39805 H 6968.34 0.374722 8.67691 0
M  V30 39806 H 6968.07 0.443485 6.90277 0
M  V30 39807 H 6968.94 -1.75537 7.96793 0
M  V30 39808 P 6972.9 -2.75334 8.47391 0
M  V30 39809 O 6973.12 -3.84128 9.44797 0
M  V30 39810 O 6973.69 -1.51947 8.68712 0
M  V30 39811 O 6973.15 -3.29363 6.99321 0
M  V30 39812 C 6972.21 -4.24011 6.4274 0
M  V30 39813 C 6972.94 -5.20775 5.52155 0
M  V30 39814 O 6973.15 -4.56534 4.22446 0
M  V30 39815 C 6974.34 -5.62629 5.96531 0
M  V30 39816 O 6974.73 -6.87667 5.41053 0
M  V30 39817 C 6975.22 -4.52537 5.39283 0
M  V30 39818 C 6974.51 -4.20027 4.08623 0
M  V30 39819 N 6974.56 -2.76189 3.71603 0
M  V30 39820 H 6971.72 -4.797 7.24003 0
M  V30 39821 H 6971.45 -3.69856 5.84513 0
M  V30 39822 H 6972.32 -6.10356 5.41441 0
M  V30 39823 P 6976.28 -7.20834 5.23717 0
M  V30 39824 O 6976.5 -8.66104 5.38572 0
M  V30 39825 O 6977.07 -6.33544 6.1349 0
M  V30 39826 O 6976.53 -6.7751 3.72168 0
M  V30 39827 C 6975.59 -7.20825 2.7076 0
M  V30 39828 C 6976.32 -7.45864 1.40599 0
M  V30 39829 O 6976.53 -6.17651 0.734225 0
M  V30 39830 C 6977.72 -8.05808 1.51899 0
M  V30 39831 O 6978.11 -8.74358 0.335205 0
M  V30 39832 C 6978.6 -6.83093 1.70294 0
M  V30 39833 C 6977.89 -5.79992 0.836974 0
M  V30 39834 N 6977.94 -4.41864 1.38293 0
M  V30 39835 H 6975.1 -8.13644 3.0377 0
M  V30 39836 H 6974.83 -6.42788 2.55485 0
M  V30 39837 H 6975.7 -8.12039 0.792769 0
M  V30 39838 P 6979.66 -8.91 3.56724e-10 0
M  V30 39839 O 6979.88 -10.1726 -0.733694 0
M  V30 39840 O 6980.45 -8.73148 1.23936 0
M  V30 39841 O 6979.91 -7.66872 -0.971405 0
M  V30 39842 C 6978.97 -7.42309 -2.04641 0
M  V30 39843 C 6979.7 -6.86059 -3.24661 0
M  V30 39844 O 6979.91 -5.42847 -3.03646 0
M  V30 39845 C 6981.1 -7.41196 -3.50753 0
M  V30 39846 O 6981.49 -7.27073 -4.86816 0
M  V30 39847 C 6981.98 -6.5273 -2.63741 0
M  V30 39848 C 6981.27 -5.1842 -2.73198 0
M  V30 39849 N 6981.32 -4.38762 -1.4784 0
M  V30 39850 C 6981.24 -4.81605 -0.168631 0
M  V30 39851 N 6981.32 -3.85454 0.713363 0
M  V30 39852 C 6981.46 -2.6994 -0.0566958 0
M  V30 39853 C 6981.59 -1.34815 0.338502 0
M  V30 39854 O 6981.61 -0.869548 1.47125 0
M  V30 39855 N 6981.71 -0.496304 -0.77465 0
M  V30 39856 C 6981.71 -0.908403 -2.09122 0
M  V30 39857 N 6981.84 0.0517805 -3.00955 0
M  V30 39858 N 6981.58 -2.17875 -2.46519 0
M  V30 39859 C 6981.46 -3.01988 -1.4033 0
M  V30 39860 H 6978.48 -8.36803 -2.32493 0
M  V30 39861 H 6978.21 -6.70197 -1.71129 0
M  V30 39862 H 6979.08 -7.03551 -4.13168 0
M  V30 39863 H 6981.73 -4.59498 -3.54415 0
M  V30 39864 H 6982.01 -6.88898 -1.59848 0
M  V30 39865 H 6983 -6.46749 -3.03687 0
M  V30 39866 H 6981.17 -8.46908 -3.20714 0
M  V30 39867 H 6981.12 -5.86405 0.105564 0
M  V30 39868 H 6981.8 0.483664 -0.597855 0
M  V30 39869 H 6981.84 -0.187865 -4.0116 0
M  V30 39870 H 6981.94 1.03585 -2.71726 0
M  V30 39871 P 6983.04 -7.20834 -5.23717 0
M  V30 39872 O 6983.26 -7.7993 -6.57351 0
M  V30 39873 O 6983.83 -7.79328 -4.13004 0
M  V30 39874 O 6983.29 -5.63315 -5.29344 0
M  V30 39875 C 6982.35 -4.80255 -6.01876 0
M  V30 39876 C 6983.08 -3.64202 -6.65911 0
M  V30 39877 O 6983.29 -2.60694 -5.64732 0
M  V30 39878 C 6984.48 -3.93473 -7.1943 0
M  V30 39879 O 6984.87 -3.02071 -8.21205 0
M  V30 39880 C 6985.36 -3.73047 -5.97036 0
M  V30 39881 C 6984.65 -2.58828 -5.25741 0
M  V30 39882 N 6984.7 -2.6801 -3.77422 0
M  V30 39883 C 6984.85 -1.50173 -3.05038 0
M  V30 39884 O 6984.94 -0.428832 -3.665 0
M  V30 39885 N 6984.9 -1.70922 -1.55541 0
M  V30 39886 C 6984.8 -2.7407 -1.06402 0
M  V30 39887 N 6984.85 -2.74764 0.260931 0
M  V30 39888 C 6984.65 -3.96781 -1.78296 0
M  V30 39889 C 6984.6 -3.87909 -3.13891 0
M  V30 39890 H 6981.86 -5.4027 -6.79873 0
M  V30 39891 H 6981.59 -4.41549 -5.32301 0
M  V30 39892 H 6982.46 -3.26371 -7.47889 0
M  V30 39893 H 6985.11 -1.63978 -5.5665 0
M  V30 39894 H 6985.39 -4.63439 -5.3432 0
M  V30 39895 H 6986.38 -3.44728 -6.25838 0
M  V30 39896 H 6984.55 -4.96652 -7.57263 0
M  V30 39897 H 6984.48 -4.78425 -3.73088 0
M  V30 39898 H 6984.58 -4.92593 -1.26997 0
M  V30 39899 H 6984.97 -1.86285 0.77595 0
M  V30 39900 H 6984.77 -3.63657 0.773896 0
M  V30 39901 P 6986.42 -2.75334 -8.47391 0
M  V30 39902 O 6986.64 -2.44571 -9.90142 0
M  V30 39903 O 6987.21 -3.87688 -7.92115 0
M  V30 39904 O 6986.67 -1.4459 -7.59357 0
M  V30 39905 C 6985.73 -0.347608 -7.69215 0
M  V30 39906 C 6986.46 0.96767 -7.52806 0
M  V30 39907 O 6986.67 1.21036 -6.1011 0
M  V30 39908 C 6987.86 1.04544 -8.13308 0
M  V30 39909 O 6988.25 2.38311 -8.41922 0
M  V30 39910 C 6988.74 0.491279 -7.02284 0
M  V30 39911 C 6988.03 0.996264 -5.77469 0
M  V30 39912 N 6988.08 0.0501916 -4.62973 0
M  V30 39913 H 6985.24 -0.374722 -8.67691 0
M  V30 39914 H 6984.97 -0.443485 -6.90277 0
M  V30 39915 H 6985.84 1.75537 -7.96793 0
M  V30 39916 P 6989.8 2.75334 -8.47391 0
M  V30 39917 O 6990.02 3.84166 -9.4489 0
M  V30 39918 O 6990.59 1.51964 -8.6881 0
M  V30 39919 O 6990.05 3.29363 -6.99321 0
M  V30 39920 C 6989.11 4.23956 -6.42656 0
M  V30 39921 C 6989.84 5.20775 -5.52155 0
M  V30 39922 O 6990.05 4.56534 -4.22446 0
M  V30 39923 C 6991.24 5.62629 -5.96531 0
M  V30 39924 O 6991.63 6.87667 -5.41053 0
M  V30 39925 C 6992.12 4.52537 -5.39283 0
M  V30 39926 C 6991.41 4.20027 -4.08623 0
M  V30 39927 N 6991.46 2.7613 -3.71522 0
M  V30 39928 C 6991.61 2.45612 -2.37989 0
M  V30 39929 O 6991.7 3.30919 -1.51621 0
M  V30 39930 N 6991.65 1.10684 -2.08435 0
M  V30 39931 C 6991.56 0.0690084 -2.9792 0
M  V30 39932 C 6991.41 0.481522 -4.35345 0
M  V30 39933 C 6991.36 1.78906 -4.67968 0
M  V30 39934 H 6988.62 4.797 -7.24003 0
M  V30 39935 H 6988.35 3.69802 -5.84429 0
M  V30 39936 H 6989.22 6.10356 -5.41441 0
M  V30 39937 H 6991.87 4.78651 -3.27911 0
M  V30 39938 H 6992.15 3.64957 -6.05871 0
M  V30 39939 H 6993.14 4.8868 -5.2125 0
M  V30 39940 H 6991.31 5.66726 -7.06352 0
M  V30 39941 H 6991.24 2.07737 -5.72367 0
M  V30 39942 P 6993.18 7.20834 -5.23717 0
M  V30 39943 O 6993.4 8.66104 -5.38572 0
M  V30 39944 O 6993.97 6.33544 -6.1349 0
M  V30 39945 O 6993.43 6.7751 -3.72168 0
M  V30 39946 C 6992.49 7.20825 -2.7076 0
M  V30 39947 C 6993.22 7.45864 -1.40599 0
M  V30 39948 O 6993.43 6.17651 -0.734225 0
M  V30 39949 C 6994.62 8.05808 -1.51899 0
M  V30 39950 O 6995.01 8.74358 -0.335205 0
M  V30 39951 C 6995.5 6.83093 -1.70294 0
M  V30 39952 C 6994.79 5.79992 -0.836974 0
M  V30 39953 N 6994.84 4.41864 -1.38293 0
M  V30 39954 H 6992 8.13644 -3.0377 0
M  V30 39955 H 6991.73 6.42788 -2.55485 0
M  V30 39956 H 6992.6 8.12039 -0.792769 0
M  V30 39957 P 6996.56 8.91 -3.57833e-10 0
M  V30 39958 O 6996.78 10.1726 0.733694 0
M  V30 39959 O 6997.35 8.73148 -1.23936 0
M  V30 39960 O 6996.81 7.66872 0.971405 0
M  V30 39961 C 6995.87 7.42309 2.04641 0
M  V30 39962 C 6996.6 6.86059 3.24661 0
M  V30 39963 O 6996.81 5.42847 3.03646 0
M  V30 39964 C 6998 7.41196 3.50753 0
M  V30 39965 O 6998.39 7.27073 4.86816 0
M  V30 39966 C 6998.88 6.5273 2.63741 0
M  V30 39967 C 6998.17 5.1842 2.73198 0
M  V30 39968 N 6998.22 4.38762 1.4784 0
M  V30 39969 H 6995.38 8.36803 2.32493 0
M  V30 39970 H 6995.11 6.70197 1.71129 0
M  V30 39971 H 6995.98 7.03551 4.13168 0
M  V30 39972 P 6999.94 7.20834 5.23717 0
M  V30 39973 O 7000.16 7.79853 6.57286 0
M  V30 39974 O 7000.73 7.79239 4.12957 0
M  V30 39975 O 7000.19 5.63315 5.29344 0
M  V30 39976 C 6999.25 4.80255 6.01876 0
M  V30 39977 C 6999.98 3.64202 6.65911 0
M  V30 39978 O 7000.19 2.60694 5.64732 0
M  V30 39979 C 7001.38 3.93473 7.1943 0
M  V30 39980 O 7001.77 3.02071 8.21205 0
M  V30 39981 C 7002.26 3.73047 5.97036 0
M  V30 39982 C 7001.55 2.58828 5.25741 0
M  V30 39983 N 7001.6 2.68068 3.77503 0
M  V30 39984 C 7001.52 3.79715 2.96723 0
M  V30 39985 N 7001.6 3.5377 1.68852 0
M  V30 39986 C 7001.74 2.15054 1.63254 0
M  V30 39987 C 7001.87 1.28964 0.518571 0
M  V30 39988 N 7001.99 -0.0538097 0.918425 0
M  V30 39989 C 7001.99 -0.494275 2.22578 0
M  V30 39990 N 7002.12 -1.81086 2.40434 0
M  V30 39991 N 7001.86 0.313645 3.27502 0
M  V30 39992 C 7001.74 1.61829 2.91033 0
M  V30 39993 H 6998.76 5.40332 6.79951 0
M  V30 39994 H 6998.49 4.41613 5.32378 0
M  V30 39995 H 6999.36 3.26331 7.47797 0
M  V30 39996 P 7003.32 2.75334 8.47391 0
M  V30 39997 O 7003.54 2.44619 9.90336 0
M  V30 39998 O 7004.11 3.87776 7.92294 0
M  V30 39999 O 7003.57 1.4459 7.59357 0
M  V30 40000 C 7002.63 0.347653 7.69315 0
M  V30 40001 C 7003.36 -0.96767 7.52806 0
M  V30 40002 O 7003.57 -1.21055 6.10208 0
M  V30 40003 C 7004.76 -1.04557 8.13408 0
M  V30 40004 O 7005.15 -2.38311 8.41922 0
M  V30 40005 C 7005.64 -0.491279 7.02284 0
M  V30 40006 C 7004.93 -0.996264 5.77469 0
M  V30 40007 N 7004.98 -0.0501916 4.62973 0
M  V30 40008 H 7002.14 0.374765 8.67791 0
M  V30 40009 H 7001.87 0.443613 6.90476 0
M  V30 40010 H 7002.74 -1.75559 7.96891 0
M  V30 40011 H 7005.39 -1.94563 5.46818 0
M  V30 40012 H 7005.67 0.608651 7.04676 0
M  V30 40013 H 7006.66 -0.889796 7.09039 0
M  V30 40014 H 7004.83 -0.433128 9.04664 0
M  V30 40015 P 7006.7 -2.75334 8.47391 0
M  V30 40016 O 7006.92 -3.84204 9.44982 0
M  V30 40017 O 7007.49 -1.51982 8.68909 0
M  V30 40018 O 7006.95 -3.29363 6.99321 0
M  V30 40019 C 7006.01 -4.24066 6.42823 0
M  V30 40020 C 7006.74 -5.20775 5.52155 0
M  V30 40021 O 7006.95 -4.56607 4.22514 0
M  V30 40022 C 7008.14 -5.62697 5.96604 0
M  V30 40023 O 7008.53 -6.87667 5.41053 0
M  V30 40024 C 7009.02 -4.52537 5.39283 0
M  V30 40025 C 7008.31 -4.20027 4.08623 0
M  V30 40026 N 7008.36 -2.76189 3.71603 0
M  V30 40027 H 7005.52 -4.79756 7.24086 0
M  V30 40028 H 7005.25 -3.69963 5.84682 0
M  V30 40029 H 7006.12 -6.10431 5.41508 0
M  V30 40030 H 7008.77 -4.78816 3.28024 0
M  V30 40031 H 7009.05 -3.64957 6.05871 0
M  V30 40032 H 7010.04 -4.88748 5.21323 0
M  V30 40033 H 7008.21 -5.66789 7.0643 0
M  V30 40034 P 7010.08 -7.20834 5.23717 0
M  V30 40035 O 7010.3 -8.66104 5.38572 0
M  V30 40036 O 7010.87 -6.33544 6.1349 0
M  V30 40037 O 7010.33 -6.7751 3.72168 0
M  V30 40038 C 7009.39 -7.20825 2.7076 0
M  V30 40039 C 7010.12 -7.45864 1.40599 0
M  V30 40040 O 7010.33 -6.17651 0.734225 0
M  V30 40041 C 7011.52 -8.05808 1.51899 0
M  V30 40042 O 7011.91 -8.74358 0.335205 0
M  V30 40043 C 7012.4 -6.83093 1.70294 0
M  V30 40044 C 7011.69 -5.79992 0.836974 0
M  V30 40045 N 7011.74 -4.41864 1.38293 0
M  V30 40046 H 7008.9 -8.13644 3.0377 0
M  V30 40047 H 7008.63 -6.42788 2.55485 0
M  V30 40048 H 7009.5 -8.12039 0.792769 0
M  V30 40049 P 7013.46 -8.91 3.58942e-10 0
M  V30 40050 O 7013.68 -10.1726 -0.733694 0
M  V30 40051 O 7014.25 -8.73148 1.23936 0
M  V30 40052 O 7013.71 -7.66872 -0.971405 0
M  V30 40053 C 7012.77 -7.42309 -2.04641 0
M  V30 40054 C 7013.5 -6.86059 -3.24661 0
M  V30 40055 O 7013.71 -5.42847 -3.03646 0
M  V30 40056 C 7014.9 -7.41196 -3.50753 0
M  V30 40057 O 7015.29 -7.27073 -4.86816 0
M  V30 40058 C 7015.78 -6.5273 -2.63741 0
M  V30 40059 C 7015.07 -5.1842 -2.73198 0
M  V30 40060 N 7015.12 -4.38762 -1.4784 0
M  V30 40061 H 7012.28 -8.36803 -2.32493 0
M  V30 40062 H 7012.01 -6.70197 -1.71129 0
M  V30 40063 H 7012.88 -7.03551 -4.13168 0
M  V30 40064 P 7016.84 -7.20834 -5.23717 0
M  V30 40065 O 7017.06 -7.80006 -6.57415 0
M  V30 40066 O 7017.63 -7.79416 -4.13051 0
M  V30 40067 O 7017.09 -5.63315 -5.29344 0
M  V30 40068 C 7016.15 -4.80318 -6.01954 0
M  V30 40069 C 7016.88 -3.64202 -6.65911 0
M  V30 40070 O 7017.09 -2.60736 -5.64823 0
M  V30 40071 C 7018.28 -3.93521 -7.19518 0
M  V30 40072 O 7018.67 -3.02071 -8.21205 0
M  V30 40073 C 7019.16 -3.73047 -5.97036 0
M  V30 40074 C 7018.45 -2.58828 -5.25741 0
M  V30 40075 N 7018.5 -2.68068 -3.77503 0
M  V30 40076 H 7015.66 -5.40394 -6.8003 0
M  V30 40077 H 7015.39 -4.41741 -5.32532 0
M  V30 40078 H 7016.26 -3.26371 -7.47889 0
M  V30 40079 H 7018.91 -1.64007 -5.56746 0
M  V30 40080 H 7019.19 -4.63439 -5.3432 0
M  V30 40081 H 7020.18 -3.44776 -6.25925 0
M  V30 40082 H 7018.35 -4.96707 -7.57347 0
M  V30 40083 P 7020.22 -2.75334 -8.47391 0
M  V30 40084 O 7020.44 -2.44571 -9.90142 0
M  V30 40085 O 7021.01 -3.87688 -7.92115 0
M  V30 40086 O 7020.47 -1.4459 -7.59357 0
M  V30 40087 C 7019.53 -0.347608 -7.69215 0
M  V30 40088 C 7020.26 0.96767 -7.52806 0
M  V30 40089 O 7020.47 1.21036 -6.1011 0
M  V30 40090 C 7021.66 1.04544 -8.13308 0
M  V30 40091 O 7022.05 2.38311 -8.41922 0
M  V30 40092 C 7022.54 0.491279 -7.02284 0
M  V30 40093 C 7021.83 0.996264 -5.77469 0
M  V30 40094 N 7021.88 0.0501916 -4.62973 0
M  V30 40095 C 7021.8 -1.32786 -4.63244 0
M  V30 40096 N 7021.88 -1.86957 -3.44545 0
M  V30 40097 C 7022.02 -0.780241 -2.58481 0
M  V30 40098 C 7022.15 -0.738536 -1.17757 0
M  V30 40099 N 7022.27 0.58337 -0.711393 0
M  V30 40100 C 7022.27 1.70816 -1.51017 0
M  V30 40101 N 7022.4 2.87826 -0.880757 0
M  V30 40102 N 7022.14 1.67126 -2.8339 0
M  V30 40103 C 7022.02 0.401421 -3.30572 0
M  V30 40104 H 7019.04 -0.374722 -8.67691 0
M  V30 40105 H 7018.77 -0.443485 -6.90277 0
M  V30 40106 H 7019.64 1.75537 -7.96793 0
M  V30 40107 P 7023.6 2.75334 -8.47391 0
M  V30 40108 O 7023.82 3.84128 -9.44797 0
M  V30 40109 O 7024.39 1.51947 -8.68712 0
M  V30 40110 O 7023.85 3.29363 -6.99321 0
M  V30 40111 C 7022.91 4.24011 -6.4274 0
M  V30 40112 C 7023.64 5.20775 -5.52155 0
M  V30 40113 O 7023.85 4.56534 -4.22446 0
M  V30 40114 C 7025.04 5.62629 -5.96531 0
M  V30 40115 O 7025.43 6.87667 -5.41053 0
M  V30 40116 C 7025.92 4.52537 -5.39283 0
M  V30 40117 C 7025.21 4.20027 -4.08623 0
M  V30 40118 N 7025.26 2.76189 -3.71603 0
M  V30 40119 H 7022.42 4.797 -7.24003 0
M  V30 40120 H 7022.15 3.69856 -5.84513 0
M  V30 40121 H 7023.02 6.10356 -5.41441 0
M  V30 40122 P 7026.98 7.20834 -5.23717 0
M  V30 40123 O 7027.2 8.66104 -5.38572 0
M  V30 40124 O 7027.77 6.33544 -6.1349 0
M  V30 40125 O 7027.23 6.7751 -3.72168 0
M  V30 40126 C 7026.29 7.20825 -2.7076 0
M  V30 40127 C 7027.02 7.45864 -1.40599 0
M  V30 40128 O 7027.23 6.17651 -0.734225 0
M  V30 40129 C 7028.42 8.05808 -1.51899 0
M  V30 40130 O 7028.81 8.74358 -0.335205 0
M  V30 40131 C 7029.3 6.83093 -1.70294 0
M  V30 40132 C 7028.59 5.79992 -0.836974 0
M  V30 40133 N 7028.64 4.41864 -1.38293 0
M  V30 40134 H 7025.8 8.13644 -3.0377 0
M  V30 40135 H 7025.53 6.42788 -2.55485 0
M  V30 40136 H 7026.4 8.12039 -0.792769 0
M  V30 40137 P 7030.36 8.91 -3.60051e-10 0
M  V30 40138 O 7030.58 10.1746 0.733838 0
M  V30 40139 O 7031.15 8.73346 -1.23964 0
M  V30 40140 O 7030.61 7.66872 0.971405 0
M  V30 40141 C 7029.67 7.42405 2.04668 0
M  V30 40142 C 7030.4 6.86059 3.24661 0
M  V30 40143 O 7030.61 5.42934 3.03695 0
M  V30 40144 C 7031.8 7.41287 3.50796 0
M  V30 40145 O 7032.19 7.27073 4.86816 0
M  V30 40146 C 7032.68 6.5273 2.63741 0
M  V30 40147 C 7031.97 5.1842 2.73198 0
M  V30 40148 N 7032.02 4.38762 1.4784 0
M  V30 40149 C 7031.94 4.83651 0.183876 0
M  V30 40150 N 7032.01 3.88759 -0.699393 0
M  V30 40151 C 7032.16 2.7404 0.0575568 0
M  V30 40152 C 7032.29 1.37902 -0.293928 0
M  V30 40153 N 7032.3 0.938021 -1.54797 0
M  V30 40154 N 7032.41 0.491817 0.70549 0
M  V30 40155 C 7032.4 0.931735 1.95979 0
M  V30 40156 N 7032.28 2.16017 2.41481 0
M  V30 40157 C 7032.16 3.02547 1.39121 0
M  V30 40158 H 7029.18 8.36899 2.3252 0
M  V30 40159 H 7028.91 6.70391 1.71179 0
M  V30 40160 H 7029.78 7.03638 4.13219 0
M  V30 40161 H 7032.43 4.59931 3.54016 0
M  V30 40162 H 7032.71 6.88995 1.59871 0
M  V30 40163 H 7033.7 6.4684 3.0373 0
M  V30 40164 H 7031.87 8.47002 3.20749 0
M  V30 40165 H 7031.83 5.8885 -0.0765548 0
M  V30 40166 H 7032.21 1.60276 -2.32875 0
M  V30 40167 H 7032.4 -0.0699355 -1.73859 0
M  V30 40168 H 7032.51 0.165507 2.71897 0
M  V30 40169 P 7033.74 7.20834 5.23717 0
M  V30 40170 O 7033.96 7.80006 6.57415 0
M  V30 40171 O 7034.53 7.79416 4.13051 0
M  V30 40172 O 7033.99 5.63315 5.29344 0
M  V30 40173 C 7033.05 4.80318 6.01954 0
M  V30 40174 C 7033.78 3.64202 6.65911 0
M  V30 40175 O 7033.99 2.60736 5.64823 0
M  V30 40176 C 7035.18 3.93521 7.19518 0
M  V30 40177 O 7035.57 3.02071 8.21205 0
M  V30 40178 C 7036.06 3.73047 5.97036 0
M  V30 40179 C 7035.35 2.58828 5.25741 0
M  V30 40180 N 7035.4 2.68068 3.77503 0
M  V30 40181 C 7035.32 3.80474 2.99159 0
M  V30 40182 N 7035.39 3.55622 1.71925 0
M  V30 40183 C 7035.54 2.1832 1.65733 0
M  V30 40184 C 7035.67 1.28842 0.572777 0
M  V30 40185 N 7035.68 1.66875 -0.70098 0
M  V30 40186 N 7035.79 -0.016788 0.859836 0
M  V30 40187 C 7035.78 -0.398145 2.13316 0
M  V30 40188 N 7035.66 0.328224 3.22333 0
M  V30 40189 C 7035.54 1.62992 2.90383 0
M  V30 40190 H 7032.56 5.40394 6.8003 0
M  V30 40191 H 7032.29 4.41741 5.32532 0
M  V30 40192 H 7033.16 3.26371 7.47889 0
M  V30 40193 H 7035.81 1.64007 5.56746 0
M  V30 40194 H 7036.09 4.63439 5.3432 0
M  V30 40195 H 7037.08 3.44776 6.25925 0
M  V30 40196 H 7035.25 4.96707 7.57347 0
M  V30 40197 H 7035.21 4.8089 3.39924 0
M  V30 40198 H 7035.59 2.66547 -0.941919 0
M  V30 40199 H 7035.78 0.965341 -1.44766 0
M  V30 40200 H 7035.89 -1.46427 2.29697 0
M  V30 40201 P 7037.12 2.75334 8.47391 0
M  V30 40202 O 7037.34 2.44571 9.90142 0
M  V30 40203 O 7037.91 3.87688 7.92115 0
M  V30 40204 O 7037.37 1.4459 7.59357 0
M  V30 40205 C 7036.43 0.347608 7.69215 0
M  V30 40206 C 7037.16 -0.96767 7.52806 0
M  V30 40207 O 7037.37 -1.21036 6.1011 0
M  V30 40208 C 7038.56 -1.04544 8.13308 0
M  V30 40209 O 7038.95 -2.38311 8.41922 0
M  V30 40210 C 7039.44 -0.491279 7.02284 0
M  V30 40211 C 7038.73 -0.996264 5.77469 0
M  V30 40212 N 7038.78 -0.0501916 4.62973 0
M  V30 40213 C 7038.7 1.32786 4.63244 0
M  V30 40214 N 7038.78 1.86957 3.44545 0
M  V30 40215 C 7038.92 0.780241 2.58481 0
M  V30 40216 C 7039.05 0.738536 1.17757 0
M  V30 40217 N 7039.17 -0.58337 0.711393 0
M  V30 40218 C 7039.17 -1.70816 1.51017 0
M  V30 40219 N 7039.3 -2.87826 0.880757 0
M  V30 40220 N 7039.04 -1.67126 2.8339 0
M  V30 40221 C 7038.92 -0.401421 3.30572 0
M  V30 40222 H 7035.94 0.374722 8.67691 0
M  V30 40223 H 7035.67 0.443485 6.90277 0
M  V30 40224 H 7036.54 -1.75537 7.96793 0
M  V30 40225 P 7040.5 -2.75334 8.47391 0
M  V30 40226 O 7040.72 -3.84128 9.44797 0
M  V30 40227 O 7041.29 -1.51947 8.68712 0
M  V30 40228 O 7040.75 -3.29363 6.99321 0
M  V30 40229 C 7039.81 -4.24011 6.4274 0
M  V30 40230 C 7040.54 -5.20775 5.52155 0
M  V30 40231 O 7040.75 -4.56534 4.22446 0
M  V30 40232 C 7041.94 -5.62629 5.96531 0
M  V30 40233 O 7042.33 -6.87667 5.41053 0
M  V30 40234 C 7042.82 -4.52537 5.39283 0
M  V30 40235 C 7042.11 -4.20027 4.08623 0
M  V30 40236 N 7042.16 -2.76189 3.71603 0
M  V30 40237 H 7039.32 -4.797 7.24003 0
M  V30 40238 H 7039.05 -3.69856 5.84513 0
M  V30 40239 H 7039.92 -6.10356 5.41441 0
M  V30 40240 P 7043.88 -7.20834 5.23717 0
M  V30 40241 O 7044.1 -8.66189 5.38625 0
M  V30 40242 O 7044.67 -6.33615 6.1356 0
M  V30 40243 O 7044.13 -6.7751 3.72168 0
M  V30 40244 C 7043.19 -7.20825 2.7076 0
M  V30 40245 C 7043.92 -7.45864 1.40599 0
M  V30 40246 O 7044.13 -6.17651 0.734225 0
M  V30 40247 C 7045.32 -8.05808 1.51899 0
M  V30 40248 O 7045.71 -8.74358 0.335205 0
M  V30 40249 C 7046.2 -6.83093 1.70294 0
M  V30 40250 C 7045.49 -5.79992 0.836974 0
M  V30 40251 N 7045.54 -4.41769 1.38263 0
M  V30 40252 C 7045.69 -3.36514 0.485617 0
M  V30 40253 O 7045.78 -3.61814 -0.724703 0
M  V30 40254 N 7045.74 -2.00746 1.14492 0
M  V30 40255 C 7045.64 -1.85887 2.27776 0
M  V30 40256 N 7045.69 -0.600907 2.69379 0
M  V30 40257 C 7045.49 -2.92182 3.22265 0
M  V30 40258 C 7045.44 -4.18399 2.71925 0
M  V30 40259 H 7042.7 -8.1355 3.03735 0
M  V30 40260 H 7042.43 -6.42695 2.55448 0
M  V30 40261 H 7043.3 -8.12139 0.792866 0
M  V30 40262 H 7045.95 -5.80078 -0.160615 0
M  V30 40263 H 7046.23 -6.51379 2.75643 0
M  V30 40264 H 7047.22 -7.01734 1.34462 0
M  V30 40265 H 7045.39 -8.73674 2.38337 0
M  V30 40266 H 7045.32 -5.02669 3.39718 0
M  V30 40267 H 7045.42 -2.73001 4.29239 0
M  V30 40268 H 7045.81 0.162318 2.01146 0
M  V30 40269 H 7045.61 -0.387742 3.69773 0
M  V30 40270 P 7047.26 -8.91 3.6116e-10 0
M  V30 40271 O 7047.48 -10.1726 -0.733694 0
M  V30 40272 O 7048.05 -8.73148 1.23936 0
M  V30 40273 O 7047.51 -7.66872 -0.971405 0
M  V30 40274 C 7046.57 -7.42309 -2.04641 0
M  V30 40275 C 7047.3 -6.86059 -3.24661 0
M  V30 40276 O 7047.51 -5.42847 -3.03646 0
M  V30 40277 C 7048.7 -7.41196 -3.50753 0
M  V30 40278 O 7049.09 -7.27073 -4.86816 0
M  V30 40279 C 7049.58 -6.5273 -2.63741 0
M  V30 40280 C 7048.87 -5.1842 -2.73198 0
M  V30 40281 N 7048.92 -4.38762 -1.4784 0
M  V30 40282 H 7046.08 -8.36803 -2.32493 0
M  V30 40283 H 7045.81 -6.70197 -1.71129 0
M  V30 40284 H 7046.68 -7.03551 -4.13168 0
M  V30 40285 P 7050.64 -7.20834 -5.23717 0
M  V30 40286 O 7050.86 -7.79853 -6.57286 0
M  V30 40287 O 7051.43 -7.79239 -4.12957 0
M  V30 40288 O 7050.89 -5.63315 -5.29344 0
M  V30 40289 C 7049.95 -4.80255 -6.01876 0
M  V30 40290 C 7050.68 -3.64202 -6.65911 0
M  V30 40291 O 7050.89 -2.60694 -5.64732 0
M  V30 40292 C 7052.08 -3.93473 -7.1943 0
M  V30 40293 O 7052.47 -3.02071 -8.21205 0
M  V30 40294 C 7052.96 -3.73047 -5.97036 0
M  V30 40295 C 7052.25 -2.58828 -5.25741 0
M  V30 40296 N 7052.3 -2.68068 -3.77503 0
M  V30 40297 H 7049.46 -5.40332 -6.79951 0
M  V30 40298 H 7049.19 -4.41613 -5.32378 0
M  V30 40299 H 7050.06 -3.26331 -7.47797 0
M  V30 40300 P 7054.02 -2.75334 -8.47391 0
M  V30 40301 O 7054.24 -2.44571 -9.90142 0
M  V30 40302 O 7054.81 -3.87688 -7.92115 0
M  V30 40303 O 7054.27 -1.4459 -7.59357 0
M  V30 40304 C 7053.33 -0.347608 -7.69215 0
M  V30 40305 C 7054.06 0.96767 -7.52806 0
M  V30 40306 O 7054.27 1.21036 -6.1011 0
M  V30 40307 C 7055.46 1.04544 -8.13308 0
M  V30 40308 O 7055.85 2.38311 -8.41922 0
M  V30 40309 C 7056.34 0.491279 -7.02284 0
M  V30 40310 C 7055.63 0.996264 -5.77469 0
M  V30 40311 N 7055.68 0.0501916 -4.62973 0
M  V30 40312 H 7052.84 -0.374722 -8.67691 0
M  V30 40313 H 7052.57 -0.443485 -6.90277 0
M  V30 40314 H 7053.44 1.75537 -7.96793 0
M  V30 40315 P 7057.4 2.75334 -8.47391 0
M  V30 40316 O 7057.62 3.84128 -9.44797 0
M  V30 40317 O 7058.19 1.51947 -8.68712 0
M  V30 40318 O 7057.65 3.29363 -6.99321 0
M  V30 40319 C 7056.71 4.24011 -6.4274 0
M  V30 40320 C 7057.44 5.20775 -5.52155 0
M  V30 40321 O 7057.65 4.56534 -4.22446 0
M  V30 40322 C 7058.84 5.62629 -5.96531 0
M  V30 40323 O 7059.23 6.87667 -5.41053 0
M  V30 40324 C 7059.72 4.52537 -5.39283 0
M  V30 40325 C 7059.01 4.20027 -4.08623 0
M  V30 40326 N 7059.06 2.76189 -3.71603 0
M  V30 40327 H 7056.22 4.797 -7.24003 0
M  V30 40328 H 7055.95 3.69856 -5.84513 0
M  V30 40329 H 7056.82 6.10356 -5.41441 0
M  V30 40330 P 7060.78 7.20834 -5.23717 0
M  V30 40331 O 7061 8.66104 -5.38572 0
M  V30 40332 O 7061.57 6.33544 -6.1349 0
M  V30 40333 O 7061.03 6.7751 -3.72168 0
M  V30 40334 C 7060.09 7.20825 -2.7076 0
M  V30 40335 C 7060.82 7.45864 -1.40599 0
M  V30 40336 O 7061.03 6.17651 -0.734225 0
M  V30 40337 C 7062.22 8.05808 -1.51899 0
M  V30 40338 O 7062.61 8.74358 -0.335205 0
M  V30 40339 C 7063.1 6.83093 -1.70294 0
M  V30 40340 C 7062.39 5.79992 -0.836974 0
M  V30 40341 N 7062.44 4.41864 -1.38293 0
M  V30 40342 H 7059.6 8.13644 -3.0377 0
M  V30 40343 H 7059.33 6.42788 -2.55485 0
M  V30 40344 H 7060.2 8.12039 -0.792769 0
M  V30 40345 P 7064.16 8.91 -3.62269e-10 0
M  V30 40346 O 7064.38 10.1726 0.733694 0
M  V30 40347 O 7064.95 8.73148 -1.23936 0
M  V30 40348 O 7064.41 7.66872 0.971405 0
M  V30 40349 C 7063.47 7.42309 2.04641 0
M  V30 40350 C 7064.2 6.86059 3.24661 0
M  V30 40351 O 7064.41 5.42847 3.03646 0
M  V30 40352 C 7065.6 7.41196 3.50753 0
M  V30 40353 O 7065.99 7.27073 4.86816 0
M  V30 40354 C 7066.48 6.5273 2.63741 0
M  V30 40355 C 7065.77 5.1842 2.73198 0
M  V30 40356 N 7065.82 4.38762 1.4784 0
M  V30 40357 H 7062.98 8.36803 2.32493 0
M  V30 40358 H 7062.71 6.70197 1.71129 0
M  V30 40359 H 7063.58 7.03551 4.13168 0
M  V30 40360 P 7067.54 7.20834 5.23717 0
M  V30 40361 O 7067.76 7.7993 6.57351 0
M  V30 40362 O 7068.33 7.79328 4.13004 0
M  V30 40363 O 7067.79 5.63315 5.29344 0
M  V30 40364 C 7066.85 4.80193 6.01798 0
M  V30 40365 C 7067.58 3.64202 6.65911 0
M  V30 40366 O 7067.79 2.60694 5.64732 0
M  V30 40367 C 7068.98 3.93473 7.1943 0
M  V30 40368 O 7069.37 3.02071 8.21205 0
M  V30 40369 C 7069.86 3.73047 5.97036 0
M  V30 40370 C 7069.15 2.58828 5.25741 0
M  V30 40371 N 7069.2 2.6801 3.77422 0
M  V30 40372 C 7069.35 1.50443 3.07133 0
M  V30 40373 O 7069.44 0.419406 3.61576 0
M  V30 40374 N 7069.39 1.6403 1.69677 0
M  V30 40375 C 7069.3 2.81206 0.986255 0
M  V30 40376 C 7069.15 3.99158 1.80325 0
M  V30 40377 C 7069.1 3.89779 3.1476 0
M  V30 40378 H 7066.36 5.40332 6.79951 0
M  V30 40379 H 7066.09 4.41549 5.32301 0
M  V30 40380 H 7066.96 3.26331 7.47797 0
M  V30 40381 H 7069.61 1.6395 5.56554 0
M  V30 40382 H 7069.89 4.63439 5.3432 0
M  V30 40383 H 7070.88 3.44728 6.25838 0
M  V30 40384 H 7069.05 4.96652 7.57263 0
M  V30 40385 H 7068.98 4.80159 3.74441 0
M  V30 40386 P 7070.92 2.75334 8.47391 0
M  V30 40387 O 7071.14 2.44595 9.90239 0
M  V30 40388 O 7071.71 3.87732 7.92204 0
M  V30 40389 O 7071.17 1.4459 7.59357 0
M  V30 40390 C 7070.23 0.347563 7.69115 0
M  V30 40391 C 7070.96 -0.96767 7.52806 0
M  V30 40392 O 7071.17 -1.21036 6.1011 0
M  V30 40393 C 7072.36 -1.04544 8.13308 0
M  V30 40394 O 7072.75 -2.38311 8.41922 0
M  V30 40395 C 7073.24 -0.491279 7.02284 0
M  V30 40396 C 7072.53 -0.996264 5.77469 0
M  V30 40397 N 7072.58 -0.0501808 4.62873 0
M  V30 40398 C 7072.73 -0.588177 3.36904 0
M  V30 40399 O 7072.82 -1.78598 3.17173 0
M  V30 40400 N 7072.77 0.329694 2.33686 0
M  V30 40401 C 7072.68 1.6953 2.45079 0
M  V30 40402 O 7072.73 2.41926 1.44899 0
M  V30 40403 C 7072.53 2.16933 3.80505 0
M  V30 40404 C 7072.42 3.65373 3.97621 0
M  V30 40405 C 7072.48 1.30326 4.83752 0
M  V30 40406 H 7069.74 0.374722 8.67691 0
M  V30 40407 H 7069.47 0.443421 6.90177 0
M  V30 40408 H 7070.34 -1.75537 7.96793 0
M  V30 40409 H 7072.99 -1.94496 5.46629 0
M  V30 40410 H 7073.27 0.608651 7.04676 0
M  V30 40411 H 7074.26 -0.889672 7.08939 0
M  V30 40412 H 7072.43 -0.43308 9.04564 0
M  V30 40413 H 7072.36 1.68366 5.8516 0
M  V30 40414 H 7073.39 4.05985 4.30448 0
M  V30 40415 H 7071.65 3.88028 4.72875 0
M  V30 40416 H 7072.14 4.11381 3.01609 0
M  V30 40417 H 7072.87 -0.0393617 1.41345 0
M  V30 40418 P 7074.3 -2.75334 8.47391 0
M  V30 40419 O 7074.52 -3.84128 9.44797 0
M  V30 40420 O 7075.09 -1.51947 8.68712 0
M  V30 40421 O 7074.55 -3.29363 6.99321 0
M  V30 40422 C 7073.61 -4.24011 6.4274 0
M  V30 40423 C 7074.34 -5.20775 5.52155 0
M  V30 40424 O 7074.55 -4.56534 4.22446 0
M  V30 40425 C 7075.74 -5.62629 5.96531 0
M  V30 40426 O 7076.13 -6.87667 5.41053 0
M  V30 40427 C 7076.62 -4.52537 5.39283 0
M  V30 40428 C 7075.91 -4.20027 4.08623 0
M  V30 40429 N 7075.96 -2.76189 3.71603 0
M  V30 40430 H 7073.12 -4.797 7.24003 0
M  V30 40431 H 7072.85 -3.69856 5.84513 0
M  V30 40432 H 7073.72 -6.10356 5.41441 0
M  V30 40433 P 7077.68 -7.20834 5.23717 0
M  V30 40434 O 7077.9 -8.66104 5.38572 0
M  V30 40435 O 7078.47 -6.33544 6.1349 0
M  V30 40436 O 7077.93 -6.7751 3.72168 0
M  V30 40437 C 7076.99 -7.20825 2.7076 0
M  V30 40438 C 7077.72 -7.45864 1.40599 0
M  V30 40439 O 7077.93 -6.17651 0.734225 0
M  V30 40440 C 7079.12 -8.05808 1.51899 0
M  V30 40441 O 7079.51 -8.74358 0.335205 0
M  V30 40442 C 7080 -6.83093 1.70294 0
M  V30 40443 C 7079.29 -5.79992 0.836974 0
M  V30 40444 N 7079.34 -4.41864 1.38293 0
M  V30 40445 H 7076.5 -8.13644 3.0377 0
M  V30 40446 H 7076.23 -6.42788 2.55485 0
M  V30 40447 H 7077.1 -8.12039 0.792769 0
M  V30 40448 P 7081.06 -8.91 3.63378e-10 0
M  V30 40449 O 7081.28 -10.1726 -0.733694 0
M  V30 40450 O 7081.85 -8.73148 1.23936 0
M  V30 40451 O 7081.31 -7.66872 -0.971405 0
M  V30 40452 C 7080.37 -7.42309 -2.04641 0
M  V30 40453 C 7081.1 -6.86059 -3.24661 0
M  V30 40454 O 7081.31 -5.42847 -3.03646 0
M  V30 40455 C 7082.5 -7.41196 -3.50753 0
M  V30 40456 O 7082.89 -7.27073 -4.86816 0
M  V30 40457 C 7083.38 -6.5273 -2.63741 0
M  V30 40458 C 7082.67 -5.1842 -2.73198 0
M  V30 40459 N 7082.72 -4.38762 -1.4784 0
M  V30 40460 C 7082.64 -4.81605 -0.168631 0
M  V30 40461 N 7082.72 -3.85454 0.713363 0
M  V30 40462 C 7082.86 -2.6994 -0.0566958 0
M  V30 40463 C 7082.99 -1.34815 0.338502 0
M  V30 40464 N 7083.11 -0.496304 -0.77465 0
M  V30 40465 C 7083.11 -0.908403 -2.09122 0
M  V30 40466 N 7083.24 0.0517805 -3.00955 0
M  V30 40467 N 7082.98 -2.17875 -2.46519 0
M  V30 40468 C 7082.86 -3.01988 -1.4033 0
M  V30 40469 H 7079.88 -8.36803 -2.32493 0
M  V30 40470 H 7079.61 -6.70197 -1.71129 0
M  V30 40471 H 7080.48 -7.03551 -4.13168 0
M  V30 40472 P 7084.44 -7.20834 -5.23717 0
M  V30 40473 O 7084.66 -7.79853 -6.57286 0
M  V30 40474 O 7085.23 -7.79239 -4.12957 0
M  V30 40475 O 7084.69 -5.63315 -5.29344 0
M  V30 40476 C 7083.75 -4.80255 -6.01876 0
M  V30 40477 C 7084.48 -3.64202 -6.65911 0
M  V30 40478 O 7084.69 -2.60694 -5.64732 0
M  V30 40479 C 7085.88 -3.93473 -7.1943 0
M  V30 40480 O 7086.27 -3.02071 -8.21205 0
M  V30 40481 C 7086.76 -3.73047 -5.97036 0
M  V30 40482 C 7086.05 -2.58828 -5.25741 0
M  V30 40483 N 7086.1 -2.68068 -3.77503 0
M  V30 40484 H 7083.26 -5.40332 -6.79951 0
M  V30 40485 H 7082.99 -4.41613 -5.32378 0
M  V30 40486 H 7083.86 -3.26331 -7.47797 0
M  V30 40487 P 7087.82 -2.75334 -8.47391 0
M  V30 40488 O 7088.04 -2.44571 -9.90142 0
M  V30 40489 O 7088.61 -3.87688 -7.92115 0
M  V30 40490 O 7088.07 -1.4459 -7.59357 0
M  V30 40491 C 7087.13 -0.347608 -7.69215 0
M  V30 40492 C 7087.86 0.96767 -7.52806 0
M  V30 40493 O 7088.07 1.21036 -6.1011 0
M  V30 40494 C 7089.26 1.04544 -8.13308 0
M  V30 40495 O 7089.65 2.38311 -8.41922 0
M  V30 40496 C 7090.14 0.491279 -7.02284 0
M  V30 40497 C 7089.43 0.996264 -5.77469 0
M  V30 40498 N 7089.48 0.0501916 -4.62973 0
M  V30 40499 H 7086.64 -0.374722 -8.67691 0
M  V30 40500 H 7086.37 -0.443485 -6.90277 0
M  V30 40501 H 7087.24 1.75537 -7.96793 0
M  V30 40502 P 7091.2 2.75334 -8.47391 0
M  V30 40503 O 7091.42 3.84128 -9.44797 0
M  V30 40504 O 7091.99 1.51947 -8.68712 0
M  V30 40505 O 7091.45 3.29363 -6.99321 0
M  V30 40506 C 7090.51 4.24011 -6.4274 0
M  V30 40507 C 7091.24 5.20775 -5.52155 0
M  V30 40508 O 7091.45 4.56534 -4.22446 0
M  V30 40509 C 7092.64 5.62629 -5.96531 0
M  V30 40510 O 7093.03 6.87667 -5.41053 0
M  V30 40511 C 7093.52 4.52537 -5.39283 0
M  V30 40512 C 7092.81 4.20027 -4.08623 0
M  V30 40513 N 7092.86 2.76189 -3.71603 0
M  V30 40514 H 7090.02 4.797 -7.24003 0
M  V30 40515 H 7089.75 3.69856 -5.84513 0
M  V30 40516 H 7090.62 6.10356 -5.41441 0
M  V30 40517 P 7094.58 7.20834 -5.23717 0
M  V30 40518 O 7094.8 8.66104 -5.38572 0
M  V30 40519 O 7095.37 6.33544 -6.1349 0
M  V30 40520 O 7094.83 6.7751 -3.72168 0
M  V30 40521 C 7093.89 7.20825 -2.7076 0
M  V30 40522 C 7094.62 7.45864 -1.40599 0
M  V30 40523 O 7094.83 6.17651 -0.734225 0
M  V30 40524 C 7096.02 8.05808 -1.51899 0
M  V30 40525 O 7096.41 8.74358 -0.335205 0
M  V30 40526 C 7096.9 6.83093 -1.70294 0
M  V30 40527 C 7096.19 5.79992 -0.836974 0
M  V30 40528 N 7096.24 4.41864 -1.38293 0
M  V30 40529 H 7093.4 8.13644 -3.0377 0
M  V30 40530 H 7093.13 6.42788 -2.55485 0
M  V30 40531 H 7094 8.12039 -0.792769 0
M  V30 40532 P 7097.96 8.91 -3.64487e-10 0
M  V30 40533 O 7098.18 10.1726 0.733694 0
M  V30 40534 O 7098.75 8.73148 -1.23936 0
M  V30 40535 O 7098.21 7.66872 0.971405 0
M  V30 40536 C 7097.27 7.42309 2.04641 0
M  V30 40537 C 7098 6.86059 3.24661 0
M  V30 40538 O 7098.21 5.42847 3.03646 0
M  V30 40539 C 7099.4 7.41196 3.50753 0
M  V30 40540 O 7099.79 7.27073 4.86816 0
M  V30 40541 C 7100.28 6.5273 2.63741 0
M  V30 40542 C 7099.57 5.1842 2.73198 0
M  V30 40543 N 7099.62 4.38762 1.4784 0
M  V30 40544 C 7099.54 4.81605 0.168631 0
M  V30 40545 N 7099.62 3.85454 -0.713363 0
M  V30 40546 C 7099.76 2.6994 0.0566958 0
M  V30 40547 C 7099.89 1.34815 -0.338502 0
M  V30 40548 O 7099.91 0.869548 -1.47125 0
M  V30 40549 N 7100.01 0.496304 0.77465 0
M  V30 40550 C 7100.01 0.908403 2.09122 0
M  V30 40551 N 7100.14 -0.0517805 3.00955 0
M  V30 40552 N 7099.88 2.17875 2.46519 0
M  V30 40553 C 7099.76 3.01988 1.4033 0
M  V30 40554 H 7096.78 8.36803 2.32493 0
M  V30 40555 H 7096.51 6.70197 1.71129 0
M  V30 40556 H 7097.38 7.03551 4.13168 0
M  V30 40557 H 7100.03 4.59498 3.54415 0
M  V30 40558 H 7100.31 6.88898 1.59848 0
M  V30 40559 H 7101.3 6.46749 3.03687 0
M  V30 40560 H 7099.47 8.46908 3.20714 0
M  V30 40561 H 7099.42 5.86405 -0.105564 0
M  V30 40562 H 7100.1 -0.483664 0.597855 0
M  V30 40563 H 7100.14 0.187865 4.0116 0
M  V30 40564 H 7100.24 -1.03585 2.71726 0
M  V30 40565 P 7101.34 7.20834 5.23717 0
M  V30 40566 O 7101.56 7.79853 6.57286 0
M  V30 40567 O 7102.13 7.79239 4.12957 0
M  V30 40568 O 7101.59 5.63315 5.29344 0
M  V30 40569 C 7100.65 4.80255 6.01876 0
M  V30 40570 C 7101.38 3.64202 6.65911 0
M  V30 40571 O 7101.59 2.60694 5.64732 0
M  V30 40572 C 7102.78 3.93473 7.1943 0
M  V30 40573 O 7103.17 3.02071 8.21205 0
M  V30 40574 C 7103.66 3.73047 5.97036 0
M  V30 40575 C 7102.95 2.58828 5.25741 0
M  V30 40576 N 7103 2.68068 3.77503 0
M  V30 40577 H 7100.16 5.40332 6.79951 0
M  V30 40578 H 7099.89 4.41613 5.32378 0
M  V30 40579 H 7100.76 3.26331 7.47797 0
M  V30 40580 P 7104.72 2.75334 8.47391 0
M  V30 40581 O 7104.94 2.44571 9.90142 0
M  V30 40582 O 7105.51 3.87688 7.92115 0
M  V30 40583 O 7104.97 1.4459 7.59357 0
M  V30 40584 C 7104.03 0.347608 7.69215 0
M  V30 40585 C 7104.76 -0.96767 7.52806 0
M  V30 40586 O 7104.97 -1.21036 6.1011 0
M  V30 40587 C 7106.16 -1.04544 8.13308 0
M  V30 40588 O 7106.55 -2.38311 8.41922 0
M  V30 40589 C 7107.04 -0.491279 7.02284 0
M  V30 40590 C 7106.33 -0.996264 5.77469 0
M  V30 40591 N 7106.38 -0.0501916 4.62973 0
M  V30 40592 H 7103.54 0.374722 8.67691 0
M  V30 40593 H 7103.27 0.443485 6.90277 0
M  V30 40594 H 7104.14 -1.75537 7.96793 0
M  V30 40595 P 7108.1 -2.75334 8.47391 0
M  V30 40596 O 7108.32 -3.84128 9.44797 0
M  V30 40597 O 7108.89 -1.51947 8.68712 0
M  V30 40598 O 7108.35 -3.29363 6.99321 0
M  V30 40599 C 7107.41 -4.24011 6.4274 0
M  V30 40600 C 7108.14 -5.20775 5.52155 0
M  V30 40601 O 7108.35 -4.56534 4.22446 0
M  V30 40602 C 7109.54 -5.62629 5.96531 0
M  V30 40603 O 7109.93 -6.87667 5.41053 0
M  V30 40604 C 7110.42 -4.52537 5.39283 0
M  V30 40605 C 7109.71 -4.20027 4.08623 0
M  V30 40606 N 7109.76 -2.76189 3.71603 0
M  V30 40607 C 7109.68 -1.64862 4.52822 0
M  V30 40608 N 7109.76 -0.512671 3.88633 0
M  V30 40609 C 7109.9 -0.888083 2.54977 0
M  V30 40610 C 7110.03 -0.094668 1.38677 0
M  V30 40611 O 7110.05 1.13053 1.28163 0
M  V30 40612 N 7110.15 -0.890102 0.232633 0
M  V30 40613 C 7110.15 -2.26958 0.21772 0
M  V30 40614 N 7110.28 -2.84626 -0.97925 0
M  V30 40615 N 7110.02 -3.0178 1.31033 0
M  V30 40616 C 7109.9 -2.26781 2.43843 0
M  V30 40617 H 7106.92 -4.797 7.24003 0
M  V30 40618 H 7106.65 -3.69856 5.84513 0
M  V30 40619 H 7107.52 -6.10356 5.41441 0
M  V30 40620 H 7110.17 -4.79061 3.27488 0
M  V30 40621 H 7110.45 -3.64906 6.05785 0
M  V30 40622 H 7111.44 -4.8868 5.2125 0
M  V30 40623 H 7109.61 -5.66726 7.06352 0
M  V30 40624 H 7109.56 -1.71169 5.60966 0
M  V30 40625 H 7110.24 -0.419134 -0.644739 0
M  V30 40626 H 7110.28 -3.87332 -1.06098 0
M  V30 40627 H 7110.38 -2.26417 -1.82483 0
M  V30 40628 P 7111.48 -7.20834 5.23717 0
M  V30 40629 O 7111.7 -8.66104 5.38572 0
M  V30 40630 O 7112.27 -6.33544 6.1349 0
M  V30 40631 O 7111.73 -6.7751 3.72168 0
M  V30 40632 C 7110.79 -7.20825 2.7076 0
M  V30 40633 C 7111.52 -7.45864 1.40599 0
M  V30 40634 O 7111.73 -6.17651 0.734225 0
M  V30 40635 C 7112.92 -8.05808 1.51899 0
M  V30 40636 O 7113.31 -8.74358 0.335205 0
M  V30 40637 C 7113.8 -6.83093 1.70294 0
M  V30 40638 C 7113.09 -5.79992 0.836974 0
M  V30 40639 N 7113.14 -4.41864 1.38293 0
M  V30 40640 H 7110.3 -8.13644 3.0377 0
M  V30 40641 H 7110.03 -6.42788 2.55485 0
M  V30 40642 H 7110.9 -8.12039 0.792769 0
M  V30 40643 P 7114.86 -8.91 3.65596e-10 0
M  V30 40644 O 7115.08 -10.1746 -0.733838 0
M  V30 40645 O 7115.65 -8.73346 1.23964 0
M  V30 40646 O 7115.11 -7.66872 -0.971405 0
M  V30 40647 C 7114.17 -7.42405 -2.04668 0
M  V30 40648 C 7114.9 -6.86059 -3.24661 0
M  V30 40649 O 7115.11 -5.42934 -3.03695 0
M  V30 40650 C 7116.3 -7.41287 -3.50796 0
M  V30 40651 O 7116.69 -7.27073 -4.86816 0
M  V30 40652 C 7117.18 -6.5273 -2.63741 0
M  V30 40653 C 7116.47 -5.1842 -2.73198 0
M  V30 40654 N 7116.52 -4.38762 -1.4784 0
M  V30 40655 C 7116.44 -4.83651 -0.183876 0
M  V30 40656 N 7116.51 -3.88759 0.699393 0
M  V30 40657 C 7116.66 -2.7404 -0.0575568 0
M  V30 40658 C 7116.79 -1.37902 0.293928 0
M  V30 40659 N 7116.8 -0.938021 1.54797 0
M  V30 40660 N 7116.91 -0.491817 -0.70549 0
M  V30 40661 C 7116.9 -0.931735 -1.95979 0
M  V30 40662 N 7116.78 -2.16017 -2.41481 0
M  V30 40663 C 7116.66 -3.02547 -1.39121 0
M  V30 40664 H 7113.68 -8.36899 -2.3252 0
M  V30 40665 H 7113.41 -6.70391 -1.71179 0
M  V30 40666 H 7114.28 -7.03638 -4.13219 0
M  V30 40667 H 7116.93 -4.59931 -3.54016 0
M  V30 40668 H 7117.21 -6.88995 -1.59871 0
M  V30 40669 H 7118.2 -6.4684 -3.0373 0
M  V30 40670 H 7116.37 -8.47002 -3.20749 0
M  V30 40671 H 7116.33 -5.8885 0.0765548 0
M  V30 40672 H 7116.71 -1.60276 2.32875 0
M  V30 40673 H 7116.9 0.0699355 1.73859 0
M  V30 40674 H 7117 -0.165507 -2.71897 0
M  V30 40675 P 7118.24 -7.20834 -5.23717 0
M  V30 40676 O 7118.46 -7.79853 -6.57286 0
M  V30 40677 O 7119.03 -7.79239 -4.12957 0
M  V30 40678 O 7118.49 -5.63315 -5.29344 0
M  V30 40679 C 7117.55 -4.80255 -6.01876 0
M  V30 40680 C 7118.28 -3.64202 -6.65911 0
M  V30 40681 O 7118.49 -2.60694 -5.64732 0
M  V30 40682 C 7119.68 -3.93473 -7.1943 0
M  V30 40683 O 7120.07 -3.02071 -8.21205 0
M  V30 40684 C 7120.56 -3.73047 -5.97036 0
M  V30 40685 C 7119.85 -2.58828 -5.25741 0
M  V30 40686 N 7119.9 -2.68068 -3.77503 0
M  V30 40687 C 7119.82 -3.79715 -2.96723 0
M  V30 40688 N 7119.9 -3.5377 -1.68852 0
M  V30 40689 C 7120.04 -2.15054 -1.63254 0
M  V30 40690 C 7120.17 -1.28964 -0.518571 0
M  V30 40691 N 7120.29 0.0538097 -0.918425 0
M  V30 40692 C 7120.29 0.494275 -2.22578 0
M  V30 40693 N 7120.42 1.81086 -2.40434 0
M  V30 40694 N 7120.16 -0.313645 -3.27502 0
M  V30 40695 C 7120.04 -1.61829 -2.91033 0
M  V30 40696 H 7117.06 -5.40332 -6.79951 0
M  V30 40697 H 7116.79 -4.41613 -5.32378 0
M  V30 40698 H 7117.66 -3.26331 -7.47797 0
M  V30 40699 P 7121.62 -2.75334 -8.47391 0
M  V30 40700 O 7121.84 -2.44571 -9.90142 0
M  V30 40701 O 7122.41 -3.87688 -7.92115 0
M  V30 40702 O 7121.87 -1.4459 -7.59357 0
M  V30 40703 C 7120.93 -0.347608 -7.69215 0
M  V30 40704 C 7121.66 0.96767 -7.52806 0
M  V30 40705 O 7121.87 1.21036 -6.1011 0
M  V30 40706 C 7123.06 1.04544 -8.13308 0
M  V30 40707 O 7123.45 2.38311 -8.41922 0
M  V30 40708 C 7123.94 0.491279 -7.02284 0
M  V30 40709 C 7123.23 0.996264 -5.77469 0
M  V30 40710 N 7123.28 0.0501916 -4.62973 0
M  V30 40711 H 7120.44 -0.374722 -8.67691 0
M  V30 40712 H 7120.17 -0.443485 -6.90277 0
M  V30 40713 H 7121.04 1.75537 -7.96793 0
M  V30 40714 P 7125 2.75334 -8.47391 0
M  V30 40715 O 7125.22 3.84128 -9.44797 0
M  V30 40716 O 7125.79 1.51947 -8.68712 0
M  V30 40717 O 7125.25 3.29363 -6.99321 0
M  V30 40718 C 7124.31 4.24011 -6.4274 0
M  V30 40719 C 7125.04 5.20775 -5.52155 0
M  V30 40720 O 7125.25 4.56534 -4.22446 0
M  V30 40721 C 7126.44 5.62629 -5.96531 0
M  V30 40722 O 7126.83 6.87667 -5.41053 0
M  V30 40723 C 7127.32 4.52537 -5.39283 0
M  V30 40724 C 7126.61 4.20027 -4.08623 0
M  V30 40725 N 7126.66 2.76189 -3.71603 0
M  V30 40726 H 7123.82 4.797 -7.24003 0
M  V30 40727 H 7123.55 3.69856 -5.84513 0
M  V30 40728 H 7124.42 6.10356 -5.41441 0
M  V30 40729 P 7128.38 7.20834 -5.23717 0
M  V30 40730 O 7128.6 8.66189 -5.38625 0
M  V30 40731 O 7129.17 6.33615 -6.1356 0
M  V30 40732 O 7128.63 6.7751 -3.72168 0
M  V30 40733 C 7127.69 7.20732 -2.70725 0
M  V30 40734 C 7128.42 7.45864 -1.40599 0
M  V30 40735 O 7128.63 6.17651 -0.734225 0
M  V30 40736 C 7129.82 8.05808 -1.51899 0
M  V30 40737 O 7130.21 8.74358 -0.335205 0
M  V30 40738 C 7130.7 6.83093 -1.70294 0
M  V30 40739 C 7129.99 5.79992 -0.836974 0
M  V30 40740 N 7130.04 4.41769 -1.38263 0
M  V30 40741 C 7130.19 3.38591 -0.481702 0
M  V30 40742 O 7130.28 3.56839 0.718452 0
M  V30 40743 N 7130.23 2.1206 -1.03569 0
M  V30 40744 C 7130.14 1.80696 -2.36966 0
M  V30 40745 C 7129.99 2.94845 -3.23898 0
M  V30 40746 C 7129.94 4.19803 -2.73435 0
M  V30 40747 H 7127.2 8.13644 -3.0377 0
M  V30 40748 H 7126.93 6.42695 -2.55448 0
M  V30 40749 H 7127.8 8.12039 -0.792769 0
M  V30 40750 H 7130.45 5.79978 0.160587 0
M  V30 40751 H 7130.73 6.51379 -2.75643 0
M  V30 40752 H 7131.72 7.01734 -1.34462 0
M  V30 40753 H 7129.89 8.73674 -2.38337 0
M  V30 40754 H 7129.82 5.04492 -3.4095 0
M  V30 40755 P 7131.76 8.91 -3.66705e-10 0
M  V30 40756 O 7131.98 10.1726 0.733694 0
M  V30 40757 O 7132.55 8.73148 -1.23936 0
M  V30 40758 O 7132.01 7.66872 0.971405 0
M  V30 40759 C 7131.07 7.42309 2.04641 0
M  V30 40760 C 7131.8 6.86059 3.24661 0
M  V30 40761 O 7132.01 5.42847 3.03646 0
M  V30 40762 C 7133.2 7.41196 3.50753 0
M  V30 40763 O 7133.59 7.27073 4.86816 0
M  V30 40764 C 7134.08 6.5273 2.63741 0
M  V30 40765 C 7133.37 5.1842 2.73198 0
M  V30 40766 N 7133.42 4.38762 1.4784 0
M  V30 40767 H 7130.58 8.36803 2.32493 0
M  V30 40768 H 7130.31 6.70197 1.71129 0
M  V30 40769 H 7131.18 7.03551 4.13168 0
M  V30 40770 P 7135.14 7.20834 5.23717 0
M  V30 40771 O 7135.36 7.79853 6.57286 0
M  V30 40772 O 7135.93 7.79239 4.12957 0
M  V30 40773 O 7135.39 5.63315 5.29344 0
M  V30 40774 C 7134.45 4.80255 6.01876 0
M  V30 40775 C 7135.18 3.64202 6.65911 0
M  V30 40776 O 7135.39 2.60694 5.64732 0
M  V30 40777 C 7136.58 3.93473 7.1943 0
M  V30 40778 O 7136.97 3.02071 8.21205 0
M  V30 40779 C 7137.46 3.73047 5.97036 0
M  V30 40780 C 7136.75 2.58828 5.25741 0
M  V30 40781 N 7136.8 2.68068 3.77503 0
M  V30 40782 H 7133.96 5.40332 6.79951 0
M  V30 40783 H 7133.69 4.41613 5.32378 0
M  V30 40784 H 7134.56 3.26331 7.47797 0
M  V30 40785 P 7138.52 2.75334 8.47391 0
M  V30 40786 O 7138.74 2.44571 9.90142 0
M  V30 40787 O 7139.31 3.87688 7.92115 0
M  V30 40788 O 7138.77 1.4459 7.59357 0
M  V30 40789 C 7137.83 0.347608 7.69215 0
M  V30 40790 C 7138.56 -0.96767 7.52806 0
M  V30 40791 O 7138.77 -1.21036 6.1011 0
M  V30 40792 C 7139.96 -1.04544 8.13308 0
M  V30 40793 O 7140.35 -2.38311 8.41922 0
M  V30 40794 C 7140.84 -0.491279 7.02284 0
M  V30 40795 C 7140.13 -0.996264 5.77469 0
M  V30 40796 N 7140.18 -0.0501916 4.62973 0
M  V30 40797 H 7137.34 0.374722 8.67691 0
M  V30 40798 H 7137.07 0.443485 6.90277 0
M  V30 40799 H 7137.94 -1.75537 7.96793 0
M  V30 40800 P 7141.9 -2.75334 8.47391 0
M  V30 40801 O 7142.12 -3.84166 9.4489 0
M  V30 40802 O 7142.69 -1.51964 8.6881 0
M  V30 40803 O 7142.15 -3.29363 6.99321 0
M  V30 40804 C 7141.21 -4.23956 6.42656 0
M  V30 40805 C 7141.94 -5.20775 5.52155 0
M  V30 40806 O 7142.15 -4.56534 4.22446 0
M  V30 40807 C 7143.34 -5.62629 5.96531 0
M  V30 40808 O 7143.73 -6.87667 5.41053 0
M  V30 40809 C 7144.22 -4.52537 5.39283 0
M  V30 40810 C 7143.51 -4.20027 4.08623 0
M  V30 40811 N 7143.56 -2.7613 3.71522 0
M  V30 40812 C 7143.71 -2.45612 2.37989 0
M  V30 40813 O 7143.8 -3.30919 1.51621 0
M  V30 40814 N 7143.75 -1.10684 2.08435 0
M  V30 40815 C 7143.66 -0.0690084 2.9792 0
M  V30 40816 C 7143.51 -0.481522 4.35345 0
M  V30 40817 C 7143.46 -1.78906 4.67968 0
M  V30 40818 H 7140.72 -4.797 7.24003 0
M  V30 40819 H 7140.45 -3.69802 5.84429 0
M  V30 40820 H 7141.32 -6.10356 5.41441 0
M  V30 40821 H 7143.97 -4.78651 3.27911 0
M  V30 40822 H 7144.25 -3.64957 6.05871 0
M  V30 40823 H 7145.24 -4.8868 5.2125 0
M  V30 40824 H 7143.41 -5.66726 7.06352 0
M  V30 40825 H 7143.34 -2.07737 5.72367 0
M  V30 40826 P 7145.28 -7.20834 5.23717 0
M  V30 40827 O 7145.5 -8.66189 5.38625 0
M  V30 40828 O 7146.07 -6.33615 6.1356 0
M  V30 40829 O 7145.53 -6.7751 3.72168 0
M  V30 40830 C 7144.59 -7.20732 2.70725 0
M  V30 40831 C 7145.32 -7.45864 1.40599 0
M  V30 40832 O 7145.53 -6.17651 0.734225 0
M  V30 40833 C 7146.72 -8.05808 1.51899 0
M  V30 40834 O 7147.11 -8.74358 0.335205 0
M  V30 40835 C 7147.6 -6.83093 1.70294 0
M  V30 40836 C 7146.89 -5.79992 0.836974 0
M  V30 40837 N 7146.94 -4.41769 1.38263 0
M  V30 40838 C 7147.09 -3.38591 0.481702 0
M  V30 40839 O 7147.18 -3.56839 -0.718452 0
M  V30 40840 N 7147.13 -2.1206 1.03569 0
M  V30 40841 C 7147.04 -1.80696 2.36966 0
M  V30 40842 C 7146.89 -2.94845 3.23898 0
M  V30 40843 C 7146.84 -4.19803 2.73435 0
M  V30 40844 H 7144.1 -8.13644 3.0377 0
M  V30 40845 H 7143.83 -6.42695 2.55448 0
M  V30 40846 H 7144.7 -8.12039 0.792769 0
M  V30 40847 H 7147.35 -5.79978 -0.160587 0
M  V30 40848 H 7147.63 -6.51379 2.75643 0
M  V30 40849 H 7148.62 -7.01734 1.34462 0
M  V30 40850 H 7146.79 -8.73674 2.38337 0
M  V30 40851 H 7146.72 -5.04492 3.4095 0
M  V30 40852 P 7148.66 -8.91 3.67814e-10 0
M  V30 40853 O 7148.88 -10.1726 -0.733694 0
M  V30 40854 O 7149.45 -8.73148 1.23936 0
M  V30 40855 O 7148.91 -7.66872 -0.971405 0
M  V30 40856 C 7147.97 -7.42309 -2.04641 0
M  V30 40857 C 7148.7 -6.86059 -3.24661 0
M  V30 40858 O 7148.91 -5.42847 -3.03646 0
M  V30 40859 C 7150.1 -7.41196 -3.50753 0
M  V30 40860 O 7150.49 -7.27073 -4.86816 0
M  V30 40861 C 7150.98 -6.5273 -2.63741 0
M  V30 40862 C 7150.27 -5.1842 -2.73198 0
M  V30 40863 N 7150.32 -4.38762 -1.4784 0
M  V30 40864 C 7150.24 -4.81605 -0.168631 0
M  V30 40865 N 7150.32 -3.85454 0.713363 0
M  V30 40866 C 7150.46 -2.6994 -0.0566958 0
M  V30 40867 C 7150.59 -1.34815 0.338502 0
M  V30 40868 N 7150.71 -0.496304 -0.77465 0
M  V30 40869 C 7150.71 -0.908403 -2.09122 0
M  V30 40870 N 7150.84 0.0517805 -3.00955 0
M  V30 40871 N 7150.58 -2.17875 -2.46519 0
M  V30 40872 C 7150.46 -3.01988 -1.4033 0
M  V30 40873 H 7147.48 -8.36803 -2.32493 0
M  V30 40874 H 7147.21 -6.70197 -1.71129 0
M  V30 40875 H 7148.08 -7.03551 -4.13168 0
M  V30 40876 P 7152.04 -7.20834 -5.23717 0
M  V30 40877 O 7152.26 -7.79853 -6.57286 0
M  V30 40878 O 7152.83 -7.79239 -4.12957 0
M  V30 40879 O 7152.29 -5.63315 -5.29344 0
M  V30 40880 C 7151.35 -4.80255 -6.01876 0
M  V30 40881 C 7152.08 -3.64202 -6.65911 0
M  V30 40882 O 7152.29 -2.60694 -5.64732 0
M  V30 40883 C 7153.48 -3.93473 -7.1943 0
M  V30 40884 O 7153.87 -3.02071 -8.21205 0
M  V30 40885 C 7154.36 -3.73047 -5.97036 0
M  V30 40886 C 7153.65 -2.58828 -5.25741 0
M  V30 40887 N 7153.7 -2.68068 -3.77503 0
M  V30 40888 H 7150.86 -5.40332 -6.79951 0
M  V30 40889 H 7150.59 -4.41613 -5.32378 0
M  V30 40890 H 7151.46 -3.26331 -7.47797 0
M  V30 40891 P 7155.42 -2.75334 -8.47391 0
M  V30 40892 O 7155.64 -2.44571 -9.90142 0
M  V30 40893 O 7156.21 -3.87688 -7.92115 0
M  V30 40894 O 7155.67 -1.4459 -7.59357 0
M  V30 40895 C 7154.73 -0.347608 -7.69215 0
M  V30 40896 C 7155.46 0.96767 -7.52806 0
M  V30 40897 O 7155.67 1.21036 -6.1011 0
M  V30 40898 C 7156.86 1.04544 -8.13308 0
M  V30 40899 O 7157.25 2.38311 -8.41922 0
M  V30 40900 C 7157.74 0.491279 -7.02284 0
M  V30 40901 C 7157.03 0.996264 -5.77469 0
M  V30 40902 N 7157.08 0.0501916 -4.62973 0
M  V30 40903 C 7157 -1.32786 -4.63244 0
M  V30 40904 N 7157.08 -1.86957 -3.44545 0
M  V30 40905 C 7157.22 -0.780241 -2.58481 0
M  V30 40906 C 7157.35 -0.738536 -1.17757 0
M  V30 40907 N 7157.47 0.58337 -0.711393 0
M  V30 40908 C 7157.47 1.70816 -1.51017 0
M  V30 40909 N 7157.6 2.87826 -0.880757 0
M  V30 40910 N 7157.34 1.67126 -2.8339 0
M  V30 40911 C 7157.22 0.401421 -3.30572 0
M  V30 40912 H 7154.24 -0.374722 -8.67691 0
M  V30 40913 H 7153.97 -0.443485 -6.90277 0
M  V30 40914 H 7154.84 1.75537 -7.96793 0
M  V30 40915 P 7158.8 2.75334 -8.47391 0
M  V30 40916 O 7159.02 3.84128 -9.44797 0
M  V30 40917 O 7159.59 1.51947 -8.68712 0
M  V30 40918 O 7159.05 3.29363 -6.99321 0
M  V30 40919 C 7158.11 4.24011 -6.4274 0
M  V30 40920 C 7158.84 5.20775 -5.52155 0
M  V30 40921 O 7159.05 4.56534 -4.22446 0
M  V30 40922 C 7160.24 5.62629 -5.96531 0
M  V30 40923 O 7160.63 6.87667 -5.41053 0
M  V30 40924 C 7161.12 4.52537 -5.39283 0
M  V30 40925 C 7160.41 4.20027 -4.08623 0
M  V30 40926 N 7160.46 2.76189 -3.71603 0
M  V30 40927 C 7160.38 1.64862 -4.52822 0
M  V30 40928 N 7160.46 0.512671 -3.88633 0
M  V30 40929 C 7160.6 0.888083 -2.54977 0
M  V30 40930 C 7160.73 0.094668 -1.38677 0
M  V30 40931 O 7160.75 -1.13053 -1.28163 0
M  V30 40932 N 7160.85 0.890102 -0.232633 0
M  V30 40933 C 7160.85 2.26958 -0.21772 0
M  V30 40934 N 7160.98 2.84626 0.97925 0
M  V30 40935 N 7160.72 3.0178 -1.31033 0
M  V30 40936 C 7160.6 2.26781 -2.43843 0
M  V30 40937 H 7157.62 4.797 -7.24003 0
M  V30 40938 H 7157.35 3.69856 -5.84513 0
M  V30 40939 H 7158.22 6.10356 -5.41441 0
M  V30 40940 H 7160.87 4.79061 -3.27488 0
M  V30 40941 H 7161.15 3.64906 -6.05785 0
M  V30 40942 H 7162.14 4.8868 -5.2125 0
M  V30 40943 H 7160.31 5.66726 -7.06352 0
M  V30 40944 H 7160.26 1.71169 -5.60966 0
M  V30 40945 H 7160.94 0.419134 0.644739 0
M  V30 40946 H 7160.98 3.87332 1.06098 0
M  V30 40947 H 7161.08 2.26417 1.82483 0
M  V30 40948 P 7162.18 7.20834 -5.23717 0
M  V30 40949 O 7162.4 8.66104 -5.38572 0
M  V30 40950 O 7162.97 6.33544 -6.1349 0
M  V30 40951 O 7162.43 6.7751 -3.72168 0
M  V30 40952 C 7161.49 7.20825 -2.7076 0
M  V30 40953 C 7162.22 7.45864 -1.40599 0
M  V30 40954 O 7162.43 6.17651 -0.734225 0
M  V30 40955 C 7163.62 8.05808 -1.51899 0
M  V30 40956 O 7164.01 8.74358 -0.335205 0
M  V30 40957 C 7164.5 6.83093 -1.70294 0
M  V30 40958 C 7163.79 5.79992 -0.836974 0
M  V30 40959 N 7163.84 4.41864 -1.38293 0
M  V30 40960 H 7161 8.13644 -3.0377 0
M  V30 40961 H 7160.73 6.42788 -2.55485 0
M  V30 40962 H 7161.6 8.12039 -0.792769 0
M  V30 40963 P 7165.56 8.91 -3.68923e-10 0
M  V30 40964 O 7165.78 10.1726 0.733694 0
M  V30 40965 O 7166.35 8.73148 -1.23936 0
M  V30 40966 O 7165.81 7.66872 0.971405 0
M  V30 40967 C 7164.87 7.42309 2.04641 0
M  V30 40968 C 7165.6 6.86059 3.24661 0
M  V30 40969 O 7165.81 5.42847 3.03646 0
M  V30 40970 C 7167 7.41196 3.50753 0
M  V30 40971 O 7167.39 7.27073 4.86816 0
M  V30 40972 C 7167.88 6.5273 2.63741 0
M  V30 40973 C 7167.17 5.1842 2.73198 0
M  V30 40974 N 7167.22 4.38762 1.4784 0
M  V30 40975 C 7167.14 4.81605 0.168631 0
M  V30 40976 N 7167.22 3.85454 -0.713363 0
M  V30 40977 C 7167.36 2.6994 0.0566958 0
M  V30 40978 C 7167.49 1.34815 -0.338502 0
M  V30 40979 O 7167.51 0.869548 -1.47125 0
M  V30 40980 N 7167.61 0.496304 0.77465 0
M  V30 40981 C 7167.61 0.908403 2.09122 0
M  V30 40982 N 7167.74 -0.0517805 3.00955 0
M  V30 40983 N 7167.48 2.17875 2.46519 0
M  V30 40984 C 7167.36 3.01988 1.4033 0
M  V30 40985 H 7164.38 8.36803 2.32493 0
M  V30 40986 H 7164.11 6.70197 1.71129 0
M  V30 40987 H 7164.98 7.03551 4.13168 0
M  V30 40988 H 7167.63 4.59498 3.54415 0
M  V30 40989 H 7167.91 6.88898 1.59848 0
M  V30 40990 H 7168.9 6.46749 3.03687 0
M  V30 40991 H 7167.07 8.46908 3.20714 0
M  V30 40992 H 7167.02 5.86405 -0.105564 0
M  V30 40993 H 7167.7 -0.483664 0.597855 0
M  V30 40994 H 7167.74 0.187865 4.0116 0
M  V30 40995 H 7167.84 -1.03585 2.71726 0
M  V30 40996 P 7168.94 7.20834 5.23717 0
M  V30 40997 O 7169.16 7.79853 6.57286 0
M  V30 40998 O 7169.73 7.79239 4.12957 0
M  V30 40999 O 7169.19 5.63315 5.29344 0
M  V30 41000 C 7168.25 4.80255 6.01876 0
M  V30 41001 C 7168.98 3.64202 6.65911 0
M  V30 41002 O 7169.19 2.60694 5.64732 0
M  V30 41003 C 7170.38 3.93473 7.1943 0
M  V30 41004 O 7170.77 3.02071 8.21205 0
M  V30 41005 C 7171.26 3.73047 5.97036 0
M  V30 41006 C 7170.55 2.58828 5.25741 0
M  V30 41007 N 7170.6 2.68068 3.77503 0
M  V30 41008 H 7167.76 5.40332 6.79951 0
M  V30 41009 H 7167.49 4.41613 5.32378 0
M  V30 41010 H 7168.36 3.26331 7.47797 0
M  V30 41011 P 7172.32 2.75334 8.47391 0
M  V30 41012 O 7172.54 2.44571 9.90142 0
M  V30 41013 O 7173.11 3.87688 7.92115 0
M  V30 41014 O 7172.57 1.4459 7.59357 0
M  V30 41015 C 7171.63 0.347608 7.69215 0
M  V30 41016 C 7172.36 -0.96767 7.52806 0
M  V30 41017 O 7172.57 -1.21036 6.1011 0
M  V30 41018 C 7173.76 -1.04544 8.13308 0
M  V30 41019 O 7174.15 -2.38311 8.41922 0
M  V30 41020 C 7174.64 -0.491279 7.02284 0
M  V30 41021 C 7173.93 -0.996264 5.77469 0
M  V30 41022 N 7173.98 -0.0501916 4.62973 0
M  V30 41023 H 7171.14 0.374722 8.67691 0
M  V30 41024 H 7170.87 0.443485 6.90277 0
M  V30 41025 H 7171.74 -1.75537 7.96793 0
M  V30 41026 P 7175.7 -2.75334 8.47391 0
M  V30 41027 O 7175.92 -3.84128 9.44797 0
M  V30 41028 O 7176.49 -1.51947 8.68712 0
M  V30 41029 O 7175.95 -3.29363 6.99321 0
M  V30 41030 C 7175.01 -4.24011 6.4274 0
M  V30 41031 C 7175.74 -5.20775 5.52155 0
M  V30 41032 O 7175.95 -4.56534 4.22446 0
M  V30 41033 C 7177.14 -5.62629 5.96531 0
M  V30 41034 O 7177.53 -6.87667 5.41053 0
M  V30 41035 C 7178.02 -4.52537 5.39283 0
M  V30 41036 C 7177.31 -4.20027 4.08623 0
M  V30 41037 N 7177.36 -2.76189 3.71603 0
M  V30 41038 H 7174.52 -4.797 7.24003 0
M  V30 41039 H 7174.25 -3.69856 5.84513 0
M  V30 41040 H 7175.12 -6.10356 5.41441 0
M  V30 41041 P 7179.08 -7.20834 5.23717 0
M  V30 41042 O 7179.3 -8.66104 5.38572 0
M  V30 41043 O 7179.87 -6.33544 6.1349 0
M  V30 41044 O 7179.33 -6.7751 3.72168 0
M  V30 41045 C 7178.39 -7.20825 2.7076 0
M  V30 41046 C 7179.12 -7.45864 1.40599 0
M  V30 41047 O 7179.33 -6.17651 0.734225 0
M  V30 41048 C 7180.52 -8.05808 1.51899 0
M  V30 41049 O 7180.91 -8.74358 0.335205 0
M  V30 41050 C 7181.4 -6.83093 1.70294 0
M  V30 41051 C 7180.69 -5.79992 0.836974 0
M  V30 41052 N 7180.74 -4.41864 1.38293 0
M  V30 41053 H 7177.9 -8.13644 3.0377 0
M  V30 41054 H 7177.63 -6.42788 2.55485 0
M  V30 41055 H 7178.5 -8.12039 0.792769 0
M  V30 41056 P 7182.46 -8.91 3.70032e-10 0
M  V30 41057 O 7182.68 -10.1726 -0.733694 0
M  V30 41058 O 7183.25 -8.73148 1.23936 0
M  V30 41059 O 7182.71 -7.66872 -0.971405 0
M  V30 41060 C 7181.77 -7.42309 -2.04641 0
M  V30 41061 C 7182.5 -6.86059 -3.24661 0
M  V30 41062 O 7182.71 -5.42847 -3.03646 0
M  V30 41063 C 7183.9 -7.41196 -3.50753 0
M  V30 41064 O 7184.29 -7.27073 -4.86816 0
M  V30 41065 C 7184.78 -6.5273 -2.63741 0
M  V30 41066 C 7184.07 -5.1842 -2.73198 0
M  V30 41067 N 7184.12 -4.38762 -1.4784 0
M  V30 41068 C 7184.04 -4.81605 -0.168631 0
M  V30 41069 N 7184.12 -3.85454 0.713363 0
M  V30 41070 C 7184.26 -2.6994 -0.0566958 0
M  V30 41071 C 7184.39 -1.34815 0.338502 0
M  V30 41072 N 7184.51 -0.496304 -0.77465 0
M  V30 41073 C 7184.51 -0.908403 -2.09122 0
M  V30 41074 N 7184.64 0.0517805 -3.00955 0
M  V30 41075 N 7184.38 -2.17875 -2.46519 0
M  V30 41076 C 7184.26 -3.01988 -1.4033 0
M  V30 41077 H 7181.28 -8.36803 -2.32493 0
M  V30 41078 H 7181.01 -6.70197 -1.71129 0
M  V30 41079 H 7181.88 -7.03551 -4.13168 0
M  V30 41080 P 7185.84 -7.20834 -5.23717 0
M  V30 41081 O 7186.06 -7.80006 -6.57415 0
M  V30 41082 O 7186.63 -7.79416 -4.13051 0
M  V30 41083 O 7186.09 -5.63315 -5.29344 0
M  V30 41084 C 7185.15 -4.80318 -6.01954 0
M  V30 41085 C 7185.88 -3.64202 -6.65911 0
M  V30 41086 O 7186.09 -2.60736 -5.64823 0
M  V30 41087 C 7187.28 -3.93521 -7.19518 0
M  V30 41088 O 7187.67 -3.02071 -8.21205 0
M  V30 41089 C 7188.16 -3.73047 -5.97036 0
M  V30 41090 C 7187.45 -2.58828 -5.25741 0
M  V30 41091 N 7187.5 -2.68068 -3.77503 0
M  V30 41092 H 7184.66 -5.40394 -6.8003 0
M  V30 41093 H 7184.39 -4.41741 -5.32532 0
M  V30 41094 H 7185.26 -3.26371 -7.47889 0
M  V30 41095 H 7187.91 -1.64007 -5.56746 0
M  V30 41096 H 7188.19 -4.63439 -5.3432 0
M  V30 41097 H 7189.18 -3.44776 -6.25925 0
M  V30 41098 H 7187.35 -4.96707 -7.57347 0
M  V30 41099 P 7189.22 -2.75334 -8.47391 0
M  V30 41100 O 7189.44 -2.44619 -9.90336 0
M  V30 41101 O 7190.01 -3.87776 -7.92294 0
M  V30 41102 O 7189.47 -1.4459 -7.59357 0
M  V30 41103 C 7188.53 -0.347653 -7.69315 0
M  V30 41104 C 7189.26 0.96767 -7.52806 0
M  V30 41105 O 7189.47 1.21055 -6.10208 0
M  V30 41106 C 7190.66 1.04557 -8.13408 0
M  V30 41107 O 7191.05 2.38311 -8.41922 0
M  V30 41108 C 7191.54 0.491279 -7.02284 0
M  V30 41109 C 7190.83 0.996264 -5.77469 0
M  V30 41110 N 7190.88 0.0501916 -4.62973 0
M  V30 41111 H 7188.04 -0.374765 -8.67791 0
M  V30 41112 H 7187.77 -0.443613 -6.90476 0
M  V30 41113 H 7188.64 1.75559 -7.96891 0
M  V30 41114 H 7191.29 1.94563 -5.46818 0
M  V30 41115 H 7191.57 -0.608651 -7.04676 0
M  V30 41116 H 7192.56 0.889796 -7.09039 0
M  V30 41117 H 7190.73 0.433128 -9.04664 0
M  V30 41118 P 7192.6 2.75334 -8.47391 0
M  V30 41119 O 7192.82 3.84204 -9.44982 0
M  V30 41120 O 7193.39 1.51982 -8.68909 0
M  V30 41121 O 7192.85 3.29363 -6.99321 0
M  V30 41122 C 7191.91 4.24066 -6.42823 0
M  V30 41123 C 7192.64 5.20775 -5.52155 0
M  V30 41124 O 7192.85 4.56607 -4.22514 0
M  V30 41125 C 7194.04 5.62697 -5.96604 0
M  V30 41126 O 7194.43 6.87667 -5.41053 0
M  V30 41127 C 7194.92 4.52537 -5.39283 0
M  V30 41128 C 7194.21 4.20027 -4.08623 0
M  V30 41129 N 7194.26 2.76189 -3.71603 0
M  V30 41130 C 7194.18 1.66944 -4.54297 0
M  V30 41131 N 7194.25 0.536169 -3.91344 0
M  V30 41132 C 7194.4 0.901569 -2.58849 0
M  V30 41133 C 7194.53 0.146599 -1.40236 0
M  V30 41134 N 7194.54 -1.18234 -1.37046 0
M  V30 41135 N 7194.65 0.822941 -0.249738 0
M  V30 41136 C 7194.64 2.15179 -0.280525 0
M  V30 41137 N 7194.52 2.96414 -1.30822 0
M  V30 41138 C 7194.4 2.25804 -2.44748 0
M  V30 41139 H 7191.42 4.79756 -7.24086 0
M  V30 41140 H 7191.15 3.69963 -5.84682 0
M  V30 41141 H 7192.02 6.10431 -5.41508 0
M  V30 41142 H 7194.67 4.78816 -3.28024 0
M  V30 41143 H 7194.95 3.64957 -6.05871 0
M  V30 41144 H 7195.94 4.88748 -5.21323 0
M  V30 41145 H 7194.11 5.66789 -7.0643 0
M  V30 41146 H 7194.07 1.74684 -5.62396 0
M  V30 41147 H 7194.45 -1.71949 -2.24394 0
M  V30 41148 H 7194.64 -1.67511 -0.470742 0
M  V30 41149 H 7194.74 2.63704 0.6828 0
M  V30 41150 P 7195.98 7.20834 -5.23717 0
M  V30 41151 O 7196.2 8.66104 -5.38572 0
M  V30 41152 O 7196.77 6.33544 -6.1349 0
M  V30 41153 O 7196.23 6.7751 -3.72168 0
M  V30 41154 C 7195.29 7.20825 -2.7076 0
M  V30 41155 C 7196.02 7.45864 -1.40599 0
M  V30 41156 O 7196.23 6.17651 -0.734225 0
M  V30 41157 C 7197.42 8.05808 -1.51899 0
M  V30 41158 O 7197.81 8.74358 -0.335205 0
M  V30 41159 C 7198.3 6.83093 -1.70294 0
M  V30 41160 C 7197.59 5.79992 -0.836974 0
M  V30 41161 N 7197.64 4.41864 -1.38293 0
M  V30 41162 H 7194.8 8.13644 -3.0377 0
M  V30 41163 H 7194.53 6.42788 -2.55485 0
M  V30 41164 H 7195.4 8.12039 -0.792769 0
M  V30 41165 P 7199.36 8.91 -3.71141e-10 0
M  V30 41166 O 7199.58 10.1726 0.733694 0
M  V30 41167 O 7200.15 8.73148 -1.23936 0
M  V30 41168 O 7199.61 7.66872 0.971405 0
M  V30 41169 C 7198.67 7.42309 2.04641 0
M  V30 41170 C 7199.4 6.86059 3.24661 0
M  V30 41171 O 7199.61 5.42847 3.03646 0
M  V30 41172 C 7200.8 7.41196 3.50753 0
M  V30 41173 O 7201.19 7.27073 4.86816 0
M  V30 41174 C 7201.68 6.5273 2.63741 0
M  V30 41175 C 7200.97 5.1842 2.73198 0
M  V30 41176 N 7201.02 4.38762 1.4784 0
M  V30 41177 H 7198.18 8.36803 2.32493 0
M  V30 41178 H 7197.91 6.70197 1.71129 0
M  V30 41179 H 7198.78 7.03551 4.13168 0
M  V30 41180 P 7202.74 7.20834 5.23717 0
M  V30 41181 O 7202.96 7.79853 6.57286 0
M  V30 41182 O 7203.53 7.79239 4.12957 0
M  V30 41183 O 7202.99 5.63315 5.29344 0
M  V30 41184 C 7202.05 4.80255 6.01876 0
M  V30 41185 C 7202.78 3.64202 6.65911 0
M  V30 41186 O 7202.99 2.60694 5.64732 0
M  V30 41187 C 7204.18 3.93473 7.1943 0
M  V30 41188 O 7204.57 3.02071 8.21205 0
M  V30 41189 C 7205.06 3.73047 5.97036 0
M  V30 41190 C 7204.35 2.58828 5.25741 0
M  V30 41191 N 7204.4 2.68068 3.77503 0
M  V30 41192 H 7201.56 5.40332 6.79951 0
M  V30 41193 H 7201.29 4.41613 5.32378 0
M  V30 41194 H 7202.16 3.26331 7.47797 0
M  V30 41195 P 7206.12 2.75334 8.47391 0
M  V30 41196 O 7206.34 2.44571 9.90142 0
M  V30 41197 O 7206.91 3.87688 7.92115 0
M  V30 41198 O 7206.37 1.4459 7.59357 0
M  V30 41199 C 7205.43 0.347608 7.69215 0
M  V30 41200 C 7206.16 -0.96767 7.52806 0
M  V30 41201 O 7206.37 -1.21036 6.1011 0
M  V30 41202 C 7207.56 -1.04544 8.13308 0
M  V30 41203 O 7207.95 -2.38311 8.41922 0
M  V30 41204 C 7208.44 -0.491279 7.02284 0
M  V30 41205 C 7207.73 -0.996264 5.77469 0
M  V30 41206 N 7207.78 -0.0501916 4.62973 0
M  V30 41207 H 7204.94 0.374722 8.67691 0
M  V30 41208 H 7204.67 0.443485 6.90277 0
M  V30 41209 H 7205.54 -1.75537 7.96793 0
M  V30 41210 P 7209.5 -2.75334 8.47391 0
M  V30 41211 O 7209.72 -3.84204 9.44982 0
M  V30 41212 O 7210.29 -1.51982 8.68909 0
M  V30 41213 O 7209.75 -3.29363 6.99321 0
M  V30 41214 C 7208.81 -4.24066 6.42823 0
M  V30 41215 C 7209.54 -5.20775 5.52155 0
M  V30 41216 O 7209.75 -4.56607 4.22514 0
M  V30 41217 C 7210.94 -5.62697 5.96604 0
M  V30 41218 O 7211.33 -6.87667 5.41053 0
M  V30 41219 C 7211.82 -4.52537 5.39283 0
M  V30 41220 C 7211.11 -4.20027 4.08623 0
M  V30 41221 N 7211.16 -2.76189 3.71603 0
M  V30 41222 H 7208.32 -4.79756 7.24086 0
M  V30 41223 H 7208.05 -3.69963 5.84682 0
M  V30 41224 H 7208.92 -6.10431 5.41508 0
M  V30 41225 H 7211.57 -4.78816 3.28024 0
M  V30 41226 H 7211.85 -3.64957 6.05871 0
M  V30 41227 H 7212.84 -4.88748 5.21323 0
M  V30 41228 H 7211.01 -5.66789 7.0643 0
M  V30 41229 P 7212.88 -7.20834 5.23717 0
M  V30 41230 O 7213.1 -8.66104 5.38572 0
M  V30 41231 O 7213.67 -6.33544 6.1349 0
M  V30 41232 O 7213.13 -6.7751 3.72168 0
M  V30 41233 C 7212.19 -7.20825 2.7076 0
M  V30 41234 C 7212.92 -7.45864 1.40599 0
M  V30 41235 O 7213.13 -6.17651 0.734225 0
M  V30 41236 C 7214.32 -8.05808 1.51899 0
M  V30 41237 O 7214.71 -8.74358 0.335205 0
M  V30 41238 C 7215.2 -6.83093 1.70294 0
M  V30 41239 C 7214.49 -5.79992 0.836974 0
M  V30 41240 N 7214.54 -4.41864 1.38293 0
M  V30 41241 H 7211.7 -8.13644 3.0377 0
M  V30 41242 H 7211.43 -6.42788 2.55485 0
M  V30 41243 H 7212.3 -8.12039 0.792769 0
M  V30 41244 P 7216.26 -8.91 3.7225e-10 0
M  V30 41245 O 7216.48 -10.1726 -0.733694 0
M  V30 41246 O 7217.05 -8.73148 1.23936 0
M  V30 41247 O 7216.51 -7.66872 -0.971405 0
M  V30 41248 C 7215.57 -7.42309 -2.04641 0
M  V30 41249 C 7216.3 -6.86059 -3.24661 0
M  V30 41250 O 7216.51 -5.42847 -3.03646 0
M  V30 41251 C 7217.7 -7.41196 -3.50753 0
M  V30 41252 O 7218.09 -7.27073 -4.86816 0
M  V30 41253 C 7218.58 -6.5273 -2.63741 0
M  V30 41254 C 7217.87 -5.1842 -2.73198 0
M  V30 41255 N 7217.92 -4.38762 -1.4784 0
M  V30 41256 C 7217.84 -4.81605 -0.168631 0
M  V30 41257 N 7217.92 -3.85454 0.713363 0
M  V30 41258 C 7218.06 -2.6994 -0.0566958 0
M  V30 41259 C 7218.19 -1.34815 0.338502 0
M  V30 41260 O 7218.21 -0.869548 1.47125 0
M  V30 41261 N 7218.31 -0.496304 -0.77465 0
M  V30 41262 C 7218.31 -0.908403 -2.09122 0
M  V30 41263 N 7218.44 0.0517805 -3.00955 0
M  V30 41264 N 7218.18 -2.17875 -2.46519 0
M  V30 41265 C 7218.06 -3.01988 -1.4033 0
M  V30 41266 H 7215.08 -8.36803 -2.32493 0
M  V30 41267 H 7214.81 -6.70197 -1.71129 0
M  V30 41268 H 7215.68 -7.03551 -4.13168 0
M  V30 41269 H 7218.33 -4.59498 -3.54415 0
M  V30 41270 H 7218.61 -6.88898 -1.59848 0
M  V30 41271 H 7219.6 -6.46749 -3.03687 0
M  V30 41272 H 7217.77 -8.46908 -3.20714 0
M  V30 41273 H 7217.72 -5.86405 0.105564 0
M  V30 41274 H 7218.4 0.483664 -0.597855 0
M  V30 41275 H 7218.44 -0.187865 -4.0116 0
M  V30 41276 H 7218.54 1.03585 -2.71726 0
M  V30 41277 P 7219.64 -7.20834 -5.23717 0
M  V30 41278 O 7219.86 -7.79853 -6.57286 0
M  V30 41279 O 7220.43 -7.79239 -4.12957 0
M  V30 41280 O 7219.89 -5.63315 -5.29344 0
M  V30 41281 C 7218.95 -4.80255 -6.01876 0
M  V30 41282 C 7219.68 -3.64202 -6.65911 0
M  V30 41283 O 7219.89 -2.60694 -5.64732 0
M  V30 41284 C 7221.08 -3.93473 -7.1943 0
M  V30 41285 O 7221.47 -3.02071 -8.21205 0
M  V30 41286 C 7221.96 -3.73047 -5.97036 0
M  V30 41287 C 7221.25 -2.58828 -5.25741 0
M  V30 41288 N 7221.3 -2.68068 -3.77503 0
M  V30 41289 H 7218.46 -5.40332 -6.79951 0
M  V30 41290 H 7218.19 -4.41613 -5.32378 0
M  V30 41291 H 7219.06 -3.26331 -7.47797 0
M  V30 41292 P 7223.02 -2.75334 -8.47391 0
M  V30 41293 O 7223.24 -2.44571 -9.90142 0
M  V30 41294 O 7223.81 -3.87688 -7.92115 0
M  V30 41295 O 7223.27 -1.4459 -7.59357 0
M  V30 41296 C 7222.33 -0.347608 -7.69215 0
M  V30 41297 C 7223.06 0.96767 -7.52806 0
M  V30 41298 O 7223.27 1.21036 -6.1011 0
M  V30 41299 C 7224.46 1.04544 -8.13308 0
M  V30 41300 O 7224.85 2.38311 -8.41922 0
M  V30 41301 C 7225.34 0.491279 -7.02284 0
M  V30 41302 C 7224.63 0.996264 -5.77469 0
M  V30 41303 N 7224.68 0.0501916 -4.62973 0
M  V30 41304 H 7221.84 -0.374722 -8.67691 0
M  V30 41305 H 7221.57 -0.443485 -6.90277 0
M  V30 41306 H 7222.44 1.75537 -7.96793 0
M  V30 41307 P 7226.4 2.75334 -8.47391 0
M  V30 41308 O 7226.62 3.84166 -9.4489 0
M  V30 41309 O 7227.19 1.51964 -8.6881 0
M  V30 41310 O 7226.65 3.29363 -6.99321 0
M  V30 41311 C 7225.71 4.23956 -6.42656 0
M  V30 41312 C 7226.44 5.20775 -5.52155 0
M  V30 41313 O 7226.65 4.56534 -4.22446 0
M  V30 41314 C 7227.84 5.62629 -5.96531 0
M  V30 41315 O 7228.23 6.87667 -5.41053 0
M  V30 41316 C 7228.72 4.52537 -5.39283 0
M  V30 41317 C 7228.01 4.20027 -4.08623 0
M  V30 41318 N 7228.06 2.7613 -3.71522 0
M  V30 41319 C 7228.21 2.45612 -2.37989 0
M  V30 41320 O 7228.3 3.30919 -1.51621 0
M  V30 41321 N 7228.25 1.10684 -2.08435 0
M  V30 41322 C 7228.16 0.0690084 -2.9792 0
M  V30 41323 O 7228.21 -1.10553 -2.59426 0
M  V30 41324 C 7228.01 0.481522 -4.35345 0
M  V30 41325 C 7227.9 -0.618778 -5.36443 0
M  V30 41326 C 7227.96 1.78906 -4.67968 0
M  V30 41327 H 7225.22 4.797 -7.24003 0
M  V30 41328 H 7224.95 3.69802 -5.84429 0
M  V30 41329 H 7225.82 6.10356 -5.41441 0
M  V30 41330 H 7228.47 4.78651 -3.27911 0
M  V30 41331 H 7228.75 3.64957 -6.05871 0
M  V30 41332 H 7229.74 4.8868 -5.2125 0
M  V30 41333 H 7227.91 5.66726 -7.06352 0
M  V30 41334 H 7227.84 2.07737 -5.72367 0
M  V30 41335 H 7228.87 -0.754375 -5.86871 0
M  V30 41336 H 7227.13 -0.359721 -6.10641 0
M  V30 41337 H 7227.62 -1.55533 -4.8581 0
M  V30 41338 H 7228.35 0.862651 -1.12037 0
M  V30 41339 P 7229.78 7.20834 -5.23717 0
M  V30 41340 O 7230 8.66189 -5.38625 0
M  V30 41341 O 7230.57 6.33615 -6.1356 0
M  V30 41342 O 7230.03 6.7751 -3.72168 0
M  V30 41343 C 7229.09 7.20732 -2.70725 0
M  V30 41344 C 7229.82 7.45864 -1.40599 0
M  V30 41345 O 7230.03 6.17651 -0.734225 0
M  V30 41346 C 7231.22 8.05808 -1.51899 0
M  V30 41347 O 7231.61 8.74358 -0.335205 0
M  V30 41348 C 7232.1 6.83093 -1.70294 0
M  V30 41349 C 7231.39 5.79992 -0.836974 0
M  V30 41350 N 7231.44 4.41769 -1.38263 0
M  V30 41351 C 7231.59 3.38591 -0.481702 0
M  V30 41352 O 7231.68 3.56839 0.718452 0
M  V30 41353 N 7231.63 2.1206 -1.03569 0
M  V30 41354 C 7231.54 1.80696 -2.36966 0
M  V30 41355 O 7231.59 0.630473 -2.74862 0
M  V30 41356 C 7231.39 2.94845 -3.23898 0
M  V30 41357 C 7231.28 2.65253 -4.70362 0
M  V30 41358 C 7231.34 4.19803 -2.73435 0
M  V30 41359 H 7228.6 8.13644 -3.0377 0
M  V30 41360 H 7228.33 6.42695 -2.55448 0
M  V30 41361 H 7229.2 8.12039 -0.792769 0
M  V30 41362 H 7231.85 5.79978 0.160587 0
M  V30 41363 H 7232.13 6.51379 -2.75643 0
M  V30 41364 H 7233.12 7.01734 -1.34462 0
M  V30 41365 H 7231.29 8.73674 -2.38337 0
M  V30 41366 H 7231.22 5.04492 -3.4095 0
M  V30 41367 H 7232.25 2.83924 -5.1913 0
M  V30 41368 H 7230.51 3.29824 -5.15163 0
M  V30 41369 H 7231 1.59723 -4.84449 0
M  V30 41370 H 7231.73 1.35644 -0.399345 0
M  V30 41371 P 7233.16 8.91 -3.73359e-10 0
M  V30 41372 O 7233.38 10.1726 0.733694 0
M  V30 41373 O 7233.95 8.73148 -1.23936 0
M  V30 41374 O 7233.41 7.66872 0.971405 0
M  V30 41375 C 7232.47 7.42309 2.04641 0
M  V30 41376 C 7233.2 6.86059 3.24661 0
M  V30 41377 O 7233.41 5.42847 3.03646 0
M  V30 41378 C 7234.6 7.41196 3.50753 0
M  V30 41379 O 7234.99 7.27073 4.86816 0
M  V30 41380 C 7235.48 6.5273 2.63741 0
M  V30 41381 C 7234.77 5.1842 2.73198 0
M  V30 41382 N 7234.82 4.38762 1.4784 0
M  V30 41383 H 7231.98 8.36803 2.32493 0
M  V30 41384 H 7231.71 6.70197 1.71129 0
M  V30 41385 H 7232.58 7.03551 4.13168 0
M  V30 41386 P 7236.54 7.20834 5.23717 0
M  V30 41387 O 7236.76 7.79853 6.57286 0
M  V30 41388 O 7237.33 7.79239 4.12957 0
M  V30 41389 O 7236.79 5.63315 5.29344 0
M  V30 41390 C 7235.85 4.80255 6.01876 0
M  V30 41391 C 7236.58 3.64202 6.65911 0
M  V30 41392 O 7236.79 2.60694 5.64732 0
M  V30 41393 C 7237.98 3.93473 7.1943 0
M  V30 41394 O 7238.37 3.02071 8.21205 0
M  V30 41395 C 7238.86 3.73047 5.97036 0
M  V30 41396 C 7238.15 2.58828 5.25741 0
M  V30 41397 N 7238.2 2.68068 3.77503 0
M  V30 41398 H 7235.36 5.40332 6.79951 0
M  V30 41399 H 7235.09 4.41613 5.32378 0
M  V30 41400 H 7235.96 3.26331 7.47797 0
M  V30 41401 P 7239.92 2.75334 8.47391 0
M  V30 41402 O 7240.14 2.44571 9.90142 0
M  V30 41403 O 7240.71 3.87688 7.92115 0
M  V30 41404 O 7240.17 1.4459 7.59357 0
M  V30 41405 C 7239.23 0.347608 7.69215 0
M  V30 41406 C 7239.96 -0.96767 7.52806 0
M  V30 41407 O 7240.17 -1.21036 6.1011 0
M  V30 41408 C 7241.36 -1.04544 8.13308 0
M  V30 41409 O 7241.75 -2.38311 8.41922 0
M  V30 41410 C 7242.24 -0.491279 7.02284 0
M  V30 41411 C 7241.53 -0.996264 5.77469 0
M  V30 41412 N 7241.58 -0.0501916 4.62973 0
M  V30 41413 H 7238.74 0.374722 8.67691 0
M  V30 41414 H 7238.47 0.443485 6.90277 0
M  V30 41415 H 7239.34 -1.75537 7.96793 0
M  V30 41416 P 7243.3 -2.75334 8.47391 0
M  V30 41417 O 7243.52 -3.84128 9.44797 0
M  V30 41418 O 7244.09 -1.51947 8.68712 0
M  V30 41419 O 7243.55 -3.29363 6.99321 0
M  V30 41420 C 7242.61 -4.24011 6.4274 0
M  V30 41421 C 7243.34 -5.20775 5.52155 0
M  V30 41422 O 7243.55 -4.56534 4.22446 0
M  V30 41423 C 7244.74 -5.62629 5.96531 0
M  V30 41424 O 7245.13 -6.87667 5.41053 0
M  V30 41425 C 7245.62 -4.52537 5.39283 0
M  V30 41426 C 7244.91 -4.20027 4.08623 0
M  V30 41427 N 7244.96 -2.76189 3.71603 0
M  V30 41428 H 7242.12 -4.797 7.24003 0
M  V30 41429 H 7241.85 -3.69856 5.84513 0
M  V30 41430 H 7242.72 -6.10356 5.41441 0
M  V30 41431 P 7246.68 -7.20834 5.23717 0
M  V30 41432 O 7246.9 -8.66274 5.38678 0
M  V30 41433 O 7247.47 -6.33687 6.13629 0
M  V30 41434 O 7246.93 -6.7751 3.72168 0
M  V30 41435 C 7245.99 -7.20919 2.70795 0
M  V30 41436 C 7246.72 -7.45864 1.40599 0
M  V30 41437 O 7246.93 -6.17751 0.734343 0
M  V30 41438 C 7248.12 -8.05906 1.51917 0
M  V30 41439 O 7248.51 -8.74358 0.335205 0
M  V30 41440 C 7249 -6.83093 1.70294 0
M  V30 41441 C 7248.29 -5.79992 0.836974 0
M  V30 41442 N 7248.34 -4.41864 1.38293 0
M  V30 41443 H 7245.5 -8.13738 3.03804 0
M  V30 41444 H 7245.23 -6.42974 2.55559 0
M  V30 41445 H 7246.1 -8.12139 0.792866 0
M  V30 41446 H 7248.75 -5.80178 -0.160643 0
M  V30 41447 H 7249.03 -6.51379 2.75643 0
M  V30 41448 H 7250.02 -7.01832 1.3448 0
M  V30 41449 H 7248.19 -8.73771 2.38364 0
M  V30 41450 P 7250.06 -8.91 3.74468e-10 0
M  V30 41451 O 7250.28 -10.1726 -0.733694 0
M  V30 41452 O 7250.85 -8.73148 1.23936 0
M  V30 41453 O 7250.31 -7.66872 -0.971405 0
M  V30 41454 C 7249.37 -7.42309 -2.04641 0
M  V30 41455 C 7250.1 -6.86059 -3.24661 0
M  V30 41456 O 7250.31 -5.42847 -3.03646 0
M  V30 41457 C 7251.5 -7.41196 -3.50753 0
M  V30 41458 O 7251.89 -7.27073 -4.86816 0
M  V30 41459 C 7252.38 -6.5273 -2.63741 0
M  V30 41460 C 7251.67 -5.1842 -2.73198 0
M  V30 41461 N 7251.72 -4.38762 -1.4784 0
M  V30 41462 H 7248.88 -8.36803 -2.32493 0
M  V30 41463 H 7248.61 -6.70197 -1.71129 0
M  V30 41464 H 7249.48 -7.03551 -4.13168 0
M  V30 41465 P 7253.44 -7.20834 -5.23717 0
M  V30 41466 O 7253.66 -7.79853 -6.57286 0
M  V30 41467 O 7254.23 -7.79239 -4.12957 0
M  V30 41468 O 7253.69 -5.63315 -5.29344 0
M  V30 41469 C 7252.75 -4.80255 -6.01876 0
M  V30 41470 C 7253.48 -3.64202 -6.65911 0
M  V30 41471 O 7253.69 -2.60694 -5.64732 0
M  V30 41472 C 7254.88 -3.93473 -7.1943 0
M  V30 41473 O 7255.27 -3.02071 -8.21205 0
M  V30 41474 C 7255.76 -3.73047 -5.97036 0
M  V30 41475 C 7255.05 -2.58828 -5.25741 0
M  V30 41476 N 7255.1 -2.68068 -3.77503 0
M  V30 41477 H 7252.26 -5.40332 -6.79951 0
M  V30 41478 H 7251.99 -4.41613 -5.32378 0
M  V30 41479 H 7252.86 -3.26331 -7.47797 0
M  V30 41480 P 7256.82 -2.75334 -8.47391 0
M  V30 41481 O 7257.04 -2.44571 -9.90142 0
M  V30 41482 O 7257.61 -3.87688 -7.92115 0
M  V30 41483 O 7257.07 -1.4459 -7.59357 0
M  V30 41484 C 7256.13 -0.347608 -7.69215 0
M  V30 41485 C 7256.86 0.96767 -7.52806 0
M  V30 41486 O 7257.07 1.21036 -6.1011 0
M  V30 41487 C 7258.26 1.04544 -8.13308 0
M  V30 41488 O 7258.65 2.38311 -8.41922 0
M  V30 41489 C 7259.14 0.491279 -7.02284 0
M  V30 41490 C 7258.43 0.996264 -5.77469 0
M  V30 41491 N 7258.48 0.0501916 -4.62973 0
M  V30 41492 C 7258.4 -1.32786 -4.63244 0
M  V30 41493 N 7258.48 -1.86957 -3.44545 0
M  V30 41494 C 7258.62 -0.780241 -2.58481 0
M  V30 41495 C 7258.75 -0.738536 -1.17757 0
M  V30 41496 O 7258.77 -1.66794 -0.372349 0
M  V30 41497 N 7258.87 0.58337 -0.711393 0
M  V30 41498 C 7258.87 1.70816 -1.51017 0
M  V30 41499 N 7259 2.87826 -0.880757 0
M  V30 41500 N 7258.74 1.67126 -2.8339 0
M  V30 41501 C 7258.62 0.401421 -3.30572 0
M  V30 41502 H 7255.64 -0.374722 -8.67691 0
M  V30 41503 H 7255.37 -0.443485 -6.90277 0
M  V30 41504 H 7256.24 1.75537 -7.96793 0
M  V30 41505 H 7258.89 1.95076 -5.46529 0
M  V30 41506 H 7259.17 -0.608565 -7.04577 0
M  V30 41507 H 7260.16 0.889672 -7.08939 0
M  V30 41508 H 7258.33 0.43308 -9.04564 0
M  V30 41509 H 7258.28 -1.91249 -5.54442 0
M  V30 41510 H 7258.96 0.718054 0.275244 0
M  V30 41511 H 7259 3.75721 -1.41832 0
M  V30 41512 H 7259.1 2.90436 0.145468 0
M  V30 41513 P 7260.2 2.75334 -8.47391 0
M  V30 41514 O 7260.42 3.84128 -9.44797 0
M  V30 41515 O 7260.99 1.51947 -8.68712 0
M  V30 41516 O 7260.45 3.29363 -6.99321 0
M  V30 41517 C 7259.51 4.24011 -6.4274 0
M  V30 41518 C 7260.24 5.20775 -5.52155 0
M  V30 41519 O 7260.45 4.56534 -4.22446 0
M  V30 41520 C 7261.64 5.62629 -5.96531 0
M  V30 41521 O 7262.03 6.87667 -5.41053 0
M  V30 41522 C 7262.52 4.52537 -5.39283 0
M  V30 41523 C 7261.81 4.20027 -4.08623 0
M  V30 41524 N 7261.86 2.76189 -3.71603 0
M  V30 41525 H 7259.02 4.797 -7.24003 0
M  V30 41526 H 7258.75 3.69856 -5.84513 0
M  V30 41527 H 7259.62 6.10356 -5.41441 0
M  V30 41528 P 7263.58 7.20834 -5.23717 0
M  V30 41529 O 7263.8 8.66104 -5.38572 0
M  V30 41530 O 7264.37 6.33544 -6.1349 0
M  V30 41531 O 7263.83 6.7751 -3.72168 0
M  V30 41532 C 7262.89 7.20825 -2.7076 0
M  V30 41533 C 7263.62 7.45864 -1.40599 0
M  V30 41534 O 7263.83 6.17651 -0.734225 0
M  V30 41535 C 7265.02 8.05808 -1.51899 0
M  V30 41536 O 7265.41 8.74358 -0.335205 0
M  V30 41537 C 7265.9 6.83093 -1.70294 0
M  V30 41538 C 7265.19 5.79992 -0.836974 0
M  V30 41539 N 7265.24 4.41864 -1.38293 0
M  V30 41540 H 7262.4 8.13644 -3.0377 0
M  V30 41541 H 7262.13 6.42788 -2.55485 0
M  V30 41542 H 7263 8.12039 -0.792769 0
M  V30 41543 P 7266.96 8.91 -3.75577e-10 0
M  V30 41544 O 7267.18 10.1726 0.733694 0
M  V30 41545 O 7267.75 8.73148 -1.23936 0
M  V30 41546 O 7267.21 7.66872 0.971405 0
M  V30 41547 C 7266.27 7.42309 2.04641 0
M  V30 41548 C 7267 6.86059 3.24661 0
M  V30 41549 O 7267.21 5.42847 3.03646 0
M  V30 41550 C 7268.4 7.41196 3.50753 0
M  V30 41551 O 7268.79 7.27073 4.86816 0
M  V30 41552 C 7269.28 6.5273 2.63741 0
M  V30 41553 C 7268.57 5.1842 2.73198 0
M  V30 41554 N 7268.62 4.38762 1.4784 0
M  V30 41555 H 7265.78 8.36803 2.32493 0
M  V30 41556 H 7265.51 6.70197 1.71129 0
M  V30 41557 H 7266.37 7.03551 4.13168 0
M  V30 41558 P 7270.34 7.20834 5.23717 0
M  V30 41559 O 7270.56 7.80006 6.57415 0
M  V30 41560 O 7271.13 7.79416 4.13051 0
M  V30 41561 O 7270.59 5.63315 5.29344 0
M  V30 41562 C 7269.65 4.80318 6.01954 0
M  V30 41563 C 7270.38 3.64202 6.65911 0
M  V30 41564 O 7270.59 2.60736 5.64823 0
M  V30 41565 C 7271.78 3.93521 7.19518 0
M  V30 41566 O 7272.17 3.02071 8.21205 0
M  V30 41567 C 7272.66 3.73047 5.97036 0
M  V30 41568 C 7271.95 2.58828 5.25741 0
M  V30 41569 N 7272 2.68068 3.77503 0
M  V30 41570 H 7269.16 5.40394 6.8003 0
M  V30 41571 H 7268.89 4.41741 5.32532 0
M  V30 41572 H 7269.75 3.26371 7.47889 0
M  V30 41573 H 7272.41 1.64007 5.56746 0
M  V30 41574 H 7272.69 4.63439 5.3432 0
M  V30 41575 H 7273.68 3.44776 6.25925 0
M  V30 41576 H 7271.85 4.96707 7.57347 0
M  V30 41577 P 7273.72 2.75334 8.47391 0
M  V30 41578 O 7273.94 2.44571 9.90142 0
M  V30 41579 O 7274.51 3.87688 7.92115 0
M  V30 41580 O 7273.97 1.4459 7.59357 0
M  V30 41581 C 7273.03 0.347608 7.69215 0
M  V30 41582 C 7273.76 -0.96767 7.52806 0
M  V30 41583 O 7273.97 -1.21036 6.1011 0
M  V30 41584 C 7275.16 -1.04544 8.13308 0
M  V30 41585 O 7275.55 -2.38311 8.41922 0
M  V30 41586 C 7276.04 -0.491279 7.02284 0
M  V30 41587 C 7275.33 -0.996264 5.77469 0
M  V30 41588 N 7275.38 -0.0501916 4.62973 0
M  V30 41589 H 7272.54 0.374722 8.67691 0
M  V30 41590 H 7272.27 0.443485 6.90277 0
M  V30 41591 H 7273.13 -1.75537 7.96793 0
M  V30 41592 P 7277.1 -2.75334 8.47391 0
M  V30 41593 O 7277.32 -3.84128 9.44797 0
M  V30 41594 O 7277.89 -1.51947 8.68712 0
M  V30 41595 O 7277.35 -3.29363 6.99321 0
M  V30 41596 C 7276.41 -4.24011 6.4274 0
M  V30 41597 C 7277.14 -5.20775 5.52155 0
M  V30 41598 O 7277.35 -4.56534 4.22446 0
M  V30 41599 C 7278.54 -5.62629 5.96531 0
M  V30 41600 O 7278.93 -6.87667 5.41053 0
M  V30 41601 C 7279.42 -4.52537 5.39283 0
M  V30 41602 C 7278.71 -4.20027 4.08623 0
M  V30 41603 N 7278.76 -2.76189 3.71603 0
M  V30 41604 H 7275.92 -4.797 7.24003 0
M  V30 41605 H 7275.65 -3.69856 5.84513 0
M  V30 41606 H 7276.51 -6.10356 5.41441 0
M  V30 41607 P 7280.48 -7.20834 5.23717 0
M  V30 41608 O 7280.7 -8.66104 5.38572 0
M  V30 41609 O 7281.27 -6.33544 6.1349 0
M  V30 41610 O 7280.73 -6.7751 3.72168 0
M  V30 41611 C 7279.79 -7.20825 2.7076 0
M  V30 41612 C 7280.52 -7.45864 1.40599 0
M  V30 41613 O 7280.73 -6.17651 0.734225 0
M  V30 41614 C 7281.92 -8.05808 1.51899 0
M  V30 41615 O 7282.31 -8.74358 0.335205 0
M  V30 41616 C 7282.8 -6.83093 1.70294 0
M  V30 41617 C 7282.09 -5.79992 0.836974 0
M  V30 41618 N 7282.14 -4.41864 1.38293 0
M  V30 41619 H 7279.3 -8.13644 3.0377 0
M  V30 41620 H 7279.03 -6.42788 2.55485 0
M  V30 41621 H 7279.89 -8.12039 0.792769 0
M  V30 41622 P 7283.86 -8.91 3.76686e-10 0
M  V30 41623 O 7284.08 -10.1736 -0.733766 0
M  V30 41624 O 7284.65 -8.73247 1.2395 0
M  V30 41625 O 7284.11 -7.66872 -0.971405 0
M  V30 41626 C 7283.17 -7.42212 -2.04614 0
M  V30 41627 C 7283.9 -6.86059 -3.24661 0
M  V30 41628 O 7284.11 -5.42847 -3.03646 0
M  V30 41629 C 7285.3 -7.41196 -3.50753 0
M  V30 41630 O 7285.69 -7.27073 -4.86816 0
M  V30 41631 C 7286.18 -6.5273 -2.63741 0
M  V30 41632 C 7285.47 -5.1842 -2.73198 0
M  V30 41633 N 7285.52 -4.38668 -1.47808 0
M  V30 41634 C 7285.67 -3.02239 -1.60048 0
M  V30 41635 O 7285.76 -2.46459 -2.67869 0
M  V30 41636 N 7285.71 -2.32436 -0.408571 0
M  V30 41637 C 7285.62 -2.85471 0.854993 0
M  V30 41638 O 7285.67 -2.12566 1.8531 0
M  V30 41639 C 7285.47 -4.28918 0.887335 0
M  V30 41640 C 7285.36 -4.91066 2.24619 0
M  V30 41641 C 7285.42 -5.00349 -0.255399 0
M  V30 41642 H 7282.68 -8.36803 -2.32493 0
M  V30 41643 H 7282.41 -6.701 -1.71105 0
M  V30 41644 H 7283.27 -7.03551 -4.13168 0
M  V30 41645 H 7285.93 -4.59773 -3.53894 0
M  V30 41646 H 7286.21 -6.88995 -1.59871 0
M  V30 41647 H 7287.2 -6.46749 -3.03687 0
M  V30 41648 H 7285.37 -8.46908 -3.20714 0
M  V30 41649 H 7285.3 -6.08548 -0.206986 0
M  V30 41650 H 7286.33 -5.34836 2.53099 0
M  V30 41651 H 7284.59 -5.69638 2.2291 0
M  V30 41652 H 7285.08 -4.13971 2.98044 0
M  V30 41653 H 7285.81 -1.33211 -0.474216 0
M  V30 41654 P 7287.24 -7.20834 -5.23717 0
M  V30 41655 O 7287.46 -7.79853 -6.57286 0
M  V30 41656 O 7288.03 -7.79239 -4.12957 0
M  V30 41657 O 7287.49 -5.63315 -5.29344 0
M  V30 41658 C 7286.55 -4.80255 -6.01876 0
M  V30 41659 C 7287.28 -3.64202 -6.65911 0
M  V30 41660 O 7287.49 -2.60694 -5.64732 0
M  V30 41661 C 7288.68 -3.93473 -7.1943 0
M  V30 41662 O 7289.07 -3.02071 -8.21205 0
M  V30 41663 C 7289.56 -3.73047 -5.97036 0
M  V30 41664 C 7288.85 -2.58828 -5.25741 0
M  V30 41665 N 7288.9 -2.68068 -3.77503 0
M  V30 41666 H 7286.06 -5.40332 -6.79951 0
M  V30 41667 H 7285.79 -4.41613 -5.32378 0
M  V30 41668 H 7286.65 -3.26331 -7.47797 0
M  V30 41669 P 7290.62 -2.75334 -8.47391 0
M  V30 41670 O 7290.84 -2.44571 -9.90142 0
M  V30 41671 O 7291.41 -3.87688 -7.92115 0
M  V30 41672 O 7290.87 -1.4459 -7.59357 0
M  V30 41673 C 7289.93 -0.347608 -7.69215 0
M  V30 41674 C 7290.66 0.96767 -7.52806 0
M  V30 41675 O 7290.87 1.21036 -6.1011 0
M  V30 41676 C 7292.06 1.04544 -8.13308 0
M  V30 41677 O 7292.45 2.38311 -8.41922 0
M  V30 41678 C 7292.94 0.491279 -7.02284 0
M  V30 41679 C 7292.23 0.996264 -5.77469 0
M  V30 41680 N 7292.28 0.0501916 -4.62973 0
M  V30 41681 C 7292.2 -1.32786 -4.63244 0
M  V30 41682 N 7292.28 -1.86957 -3.44545 0
M  V30 41683 C 7292.42 -0.780241 -2.58481 0
M  V30 41684 C 7292.55 -0.738536 -1.17757 0
M  V30 41685 O 7292.57 -1.66794 -0.372349 0
M  V30 41686 N 7292.67 0.58337 -0.711393 0
M  V30 41687 C 7292.67 1.70816 -1.51017 0
M  V30 41688 N 7292.8 2.87826 -0.880757 0
M  V30 41689 N 7292.54 1.67126 -2.8339 0
M  V30 41690 C 7292.42 0.401421 -3.30572 0
M  V30 41691 H 7289.44 -0.374722 -8.67691 0
M  V30 41692 H 7289.17 -0.443485 -6.90277 0
M  V30 41693 H 7290.03 1.75537 -7.96793 0
M  V30 41694 H 7292.69 1.95076 -5.46529 0
M  V30 41695 H 7292.97 -0.608565 -7.04577 0
M  V30 41696 H 7293.96 0.889672 -7.08939 0
M  V30 41697 H 7292.13 0.43308 -9.04564 0
M  V30 41698 H 7292.08 -1.91249 -5.54442 0
M  V30 41699 H 7292.76 0.718054 0.275244 0
M  V30 41700 H 7292.8 3.75721 -1.41832 0
M  V30 41701 H 7292.9 2.90436 0.145468 0
M  V30 41702 P 7294 2.75334 -8.47391 0
M  V30 41703 O 7294.22 3.84204 -9.44982 0
M  V30 41704 O 7294.79 1.51982 -8.68909 0
M  V30 41705 O 7294.25 3.29363 -6.99321 0
M  V30 41706 C 7293.31 4.24066 -6.42823 0
M  V30 41707 C 7294.04 5.20775 -5.52155 0
M  V30 41708 O 7294.25 4.56607 -4.22514 0
M  V30 41709 C 7295.44 5.62697 -5.96604 0
M  V30 41710 O 7295.83 6.87667 -5.41053 0
M  V30 41711 C 7296.32 4.52537 -5.39283 0
M  V30 41712 C 7295.61 4.20027 -4.08623 0
M  V30 41713 N 7295.66 2.76189 -3.71603 0
M  V30 41714 H 7292.82 4.79756 -7.24086 0
M  V30 41715 H 7292.55 3.69963 -5.84682 0
M  V30 41716 H 7293.41 6.10431 -5.41508 0
M  V30 41717 H 7296.07 4.78816 -3.28024 0
M  V30 41718 H 7296.35 3.64957 -6.05871 0
M  V30 41719 H 7297.34 4.88748 -5.21323 0
M  V30 41720 H 7295.51 5.66789 -7.0643 0
M  V30 41721 P 7297.38 7.20834 -5.23717 0
M  V30 41722 O 7297.6 8.66104 -5.38572 0
M  V30 41723 O 7298.17 6.33544 -6.1349 0
M  V30 41724 O 7297.63 6.7751 -3.72168 0
M  V30 41725 C 7296.69 7.20825 -2.7076 0
M  V30 41726 C 7297.42 7.45864 -1.40599 0
M  V30 41727 O 7297.63 6.17651 -0.734225 0
M  V30 41728 C 7298.82 8.05808 -1.51899 0
M  V30 41729 O 7299.21 8.74358 -0.335205 0
M  V30 41730 C 7299.7 6.83093 -1.70294 0
M  V30 41731 C 7298.99 5.79992 -0.836974 0
M  V30 41732 N 7299.04 4.41864 -1.38293 0
M  V30 41733 H 7296.2 8.13644 -3.0377 0
M  V30 41734 H 7295.93 6.42788 -2.55485 0
M  V30 41735 H 7296.79 8.12039 -0.792769 0
M  V30 41736 P 7300.76 8.91 -3.77795e-10 0
M  V30 41737 O 7300.98 10.1726 0.733694 0
M  V30 41738 O 7301.55 8.73148 -1.23936 0
M  V30 41739 O 7301.01 7.66872 0.971405 0
M  V30 41740 C 7300.07 7.42309 2.04641 0
M  V30 41741 C 7300.8 6.86059 3.24661 0
M  V30 41742 O 7301.01 5.42847 3.03646 0
M  V30 41743 C 7302.2 7.41196 3.50753 0
M  V30 41744 O 7302.59 7.27073 4.86816 0
M  V30 41745 C 7303.08 6.5273 2.63741 0
M  V30 41746 C 7302.37 5.1842 2.73198 0
M  V30 41747 N 7302.42 4.38762 1.4784 0
M  V30 41748 H 7299.58 8.36803 2.32493 0
M  V30 41749 H 7299.31 6.70197 1.71129 0
M  V30 41750 H 7300.17 7.03551 4.13168 0
M  V30 41751 P 7304.14 7.20834 5.23717 0
M  V30 41752 O 7304.36 7.7993 6.57351 0
M  V30 41753 O 7304.93 7.79328 4.13004 0
M  V30 41754 O 7304.39 5.63315 5.29344 0
M  V30 41755 C 7303.45 4.80193 6.01798 0
M  V30 41756 C 7304.18 3.64202 6.65911 0
M  V30 41757 O 7304.39 2.60694 5.64732 0
M  V30 41758 C 7305.58 3.93473 7.1943 0
M  V30 41759 O 7305.97 3.02071 8.21205 0
M  V30 41760 C 7306.46 3.73047 5.97036 0
M  V30 41761 C 7305.75 2.58828 5.25741 0
M  V30 41762 N 7305.8 2.6801 3.77422 0
M  V30 41763 C 7305.95 1.50443 3.07133 0
M  V30 41764 O 7306.04 0.419406 3.61576 0
M  V30 41765 N 7305.99 1.6403 1.69677 0
M  V30 41766 C 7305.9 2.81206 0.986255 0
M  V30 41767 C 7305.75 3.99158 1.80325 0
M  V30 41768 C 7305.7 3.89779 3.1476 0
M  V30 41769 H 7302.96 5.40332 6.79951 0
M  V30 41770 H 7302.69 4.41549 5.32301 0
M  V30 41771 H 7303.55 3.26331 7.47797 0
M  V30 41772 H 7306.21 1.6395 5.56554 0
M  V30 41773 H 7306.49 4.63439 5.3432 0
M  V30 41774 H 7307.48 3.44728 6.25838 0
M  V30 41775 H 7305.65 4.96652 7.57263 0
M  V30 41776 H 7305.58 4.80159 3.74441 0
M  V30 41777 P 7307.52 2.75334 8.47391 0
M  V30 41778 O 7307.74 2.44571 9.90142 0
M  V30 41779 O 7308.31 3.87688 7.92115 0
M  V30 41780 O 7307.77 1.4459 7.59357 0
M  V30 41781 C 7306.83 0.347608 7.69215 0
M  V30 41782 C 7307.56 -0.96767 7.52806 0
M  V30 41783 O 7307.77 -1.21036 6.1011 0
M  V30 41784 C 7308.96 -1.04544 8.13308 0
M  V30 41785 O 7309.35 -2.38311 8.41922 0
M  V30 41786 C 7309.84 -0.491279 7.02284 0
M  V30 41787 C 7309.13 -0.996264 5.77469 0
M  V30 41788 N 7309.18 -0.0501916 4.62973 0
M  V30 41789 H 7306.34 0.374722 8.67691 0
M  V30 41790 H 7306.07 0.443485 6.90277 0
M  V30 41791 H 7306.93 -1.75537 7.96793 0
M  V30 41792 P 7310.9 -2.75334 8.47391 0
M  V30 41793 O 7311.12 -3.84204 9.44982 0
M  V30 41794 O 7311.69 -1.51982 8.68909 0
M  V30 41795 O 7311.15 -3.29363 6.99321 0
M  V30 41796 C 7310.21 -4.24066 6.42823 0
M  V30 41797 C 7310.94 -5.20775 5.52155 0
M  V30 41798 O 7311.15 -4.56607 4.22514 0
M  V30 41799 C 7312.34 -5.62697 5.96604 0
M  V30 41800 O 7312.73 -6.87667 5.41053 0
M  V30 41801 C 7313.22 -4.52537 5.39283 0
M  V30 41802 C 7312.51 -4.20027 4.08623 0
M  V30 41803 N 7312.56 -2.76189 3.71603 0
M  V30 41804 C 7312.48 -1.66944 4.54297 0
M  V30 41805 N 7312.55 -0.536169 3.91344 0
M  V30 41806 C 7312.7 -0.901569 2.58849 0
M  V30 41807 C 7312.83 -0.146599 1.40236 0
M  V30 41808 N 7312.84 1.18234 1.37046 0
M  V30 41809 N 7312.95 -0.822941 0.249738 0
M  V30 41810 C 7312.94 -2.15179 0.280525 0
M  V30 41811 N 7312.82 -2.96414 1.30822 0
M  V30 41812 C 7312.7 -2.25804 2.44748 0
M  V30 41813 H 7309.72 -4.79756 7.24086 0
M  V30 41814 H 7309.45 -3.69963 5.84682 0
M  V30 41815 H 7310.31 -6.10431 5.41508 0
M  V30 41816 H 7312.97 -4.78816 3.28024 0
M  V30 41817 H 7313.25 -3.64957 6.05871 0
M  V30 41818 H 7314.24 -4.88748 5.21323 0
M  V30 41819 H 7312.41 -5.66789 7.0643 0
M  V30 41820 H 7312.37 -1.74684 5.62396 0
M  V30 41821 H 7312.75 1.71949 2.24394 0
M  V30 41822 H 7312.94 1.67511 0.470742 0
M  V30 41823 H 7313.04 -2.63704 -0.6828 0
M  V30 41824 P 7314.28 -7.20834 5.23717 0
M  V30 41825 O 7314.5 -8.66274 5.38678 0
M  V30 41826 O 7315.07 -6.33687 6.13629 0
M  V30 41827 O 7314.53 -6.7751 3.72168 0
M  V30 41828 C 7313.59 -7.20919 2.70795 0
M  V30 41829 C 7314.32 -7.45864 1.40599 0
M  V30 41830 O 7314.53 -6.17751 0.734343 0
M  V30 41831 C 7315.72 -8.05906 1.51917 0
M  V30 41832 O 7316.11 -8.74358 0.335205 0
M  V30 41833 C 7316.6 -6.83093 1.70294 0
M  V30 41834 C 7315.89 -5.79992 0.836974 0
M  V30 41835 N 7315.94 -4.41864 1.38293 0
M  V30 41836 H 7313.1 -8.13738 3.03804 0
M  V30 41837 H 7312.83 -6.42974 2.55559 0
M  V30 41838 H 7313.69 -8.12139 0.792866 0
M  V30 41839 H 7316.35 -5.80178 -0.160643 0
M  V30 41840 H 7316.63 -6.51379 2.75643 0
M  V30 41841 H 7317.62 -7.01832 1.3448 0
M  V30 41842 H 7315.79 -8.73771 2.38364 0
M  V30 41843 P 7317.66 -8.91 3.78904e-10 0
M  V30 41844 O 7317.88 -10.1726 -0.733694 0
M  V30 41845 O 7318.45 -8.73148 1.23936 0
M  V30 41846 O 7317.91 -7.66872 -0.971405 0
M  V30 41847 C 7316.97 -7.42309 -2.04641 0
M  V30 41848 C 7317.7 -6.86059 -3.24661 0
M  V30 41849 O 7317.91 -5.42847 -3.03646 0
M  V30 41850 C 7319.1 -7.41196 -3.50753 0
M  V30 41851 O 7319.49 -7.27073 -4.86816 0
M  V30 41852 C 7319.98 -6.5273 -2.63741 0
M  V30 41853 C 7319.27 -5.1842 -2.73198 0
M  V30 41854 N 7319.32 -4.38762 -1.4784 0
M  V30 41855 H 7316.48 -8.36803 -2.32493 0
M  V30 41856 H 7316.21 -6.70197 -1.71129 0
M  V30 41857 H 7317.07 -7.03551 -4.13168 0
M  V30 41858 P 7321.04 -7.20834 -5.23717 0
M  V30 41859 O 7321.26 -7.79853 -6.57286 0
M  V30 41860 O 7321.83 -7.79239 -4.12957 0
M  V30 41861 O 7321.29 -5.63315 -5.29344 0
M  V30 41862 C 7320.35 -4.80255 -6.01876 0
M  V30 41863 C 7321.08 -3.64202 -6.65911 0
M  V30 41864 O 7321.29 -2.60694 -5.64732 0
M  V30 41865 C 7322.48 -3.93473 -7.1943 0
M  V30 41866 O 7322.87 -3.02071 -8.21205 0
M  V30 41867 C 7323.36 -3.73047 -5.97036 0
M  V30 41868 C 7322.65 -2.58828 -5.25741 0
M  V30 41869 N 7322.7 -2.68068 -3.77503 0
M  V30 41870 H 7319.86 -5.40332 -6.79951 0
M  V30 41871 H 7319.59 -4.41613 -5.32378 0
M  V30 41872 H 7320.45 -3.26331 -7.47797 0
M  V30 41873 P 7324.42 -2.75334 -8.47391 0
M  V30 41874 O 7324.64 -2.44571 -9.90142 0
M  V30 41875 O 7325.21 -3.87688 -7.92115 0
M  V30 41876 O 7324.67 -1.4459 -7.59357 0
M  V30 41877 C 7323.73 -0.347608 -7.69215 0
M  V30 41878 C 7324.46 0.96767 -7.52806 0
M  V30 41879 O 7324.67 1.21036 -6.1011 0
M  V30 41880 C 7325.86 1.04544 -8.13308 0
M  V30 41881 O 7326.25 2.38311 -8.41922 0
M  V30 41882 C 7326.74 0.491279 -7.02284 0
M  V30 41883 C 7326.03 0.996264 -5.77469 0
M  V30 41884 N 7326.08 0.0501916 -4.62973 0
M  V30 41885 H 7323.24 -0.374722 -8.67691 0
M  V30 41886 H 7322.97 -0.443485 -6.90277 0
M  V30 41887 H 7323.83 1.75537 -7.96793 0
M  V30 41888 P 7327.8 2.75334 -8.47391 0
M  V30 41889 O 7328.02 3.84128 -9.44797 0
M  V30 41890 O 7328.59 1.51947 -8.68712 0
M  V30 41891 O 7328.05 3.29363 -6.99321 0
M  V30 41892 C 7327.11 4.24011 -6.4274 0
M  V30 41893 C 7327.84 5.20775 -5.52155 0
M  V30 41894 O 7328.05 4.56534 -4.22446 0
M  V30 41895 C 7329.24 5.62629 -5.96531 0
M  V30 41896 O 7329.63 6.87667 -5.41053 0
M  V30 41897 C 7330.12 4.52537 -5.39283 0
M  V30 41898 C 7329.41 4.20027 -4.08623 0
M  V30 41899 N 7329.46 2.76189 -3.71603 0
M  V30 41900 H 7326.62 4.797 -7.24003 0
M  V30 41901 H 7326.35 3.69856 -5.84513 0
M  V30 41902 H 7327.21 6.10356 -5.41441 0
M  V30 41903 P 7331.18 7.20834 -5.23717 0
M  V30 41904 O 7331.4 8.66104 -5.38572 0
M  V30 41905 O 7331.97 6.33544 -6.1349 0
M  V30 41906 O 7331.43 6.7751 -3.72168 0
M  V30 41907 C 7330.49 7.20825 -2.7076 0
M  V30 41908 C 7331.22 7.45864 -1.40599 0
M  V30 41909 O 7331.43 6.17651 -0.734225 0
M  V30 41910 C 7332.62 8.05808 -1.51899 0
M  V30 41911 O 7333.01 8.74358 -0.335205 0
M  V30 41912 C 7333.5 6.83093 -1.70294 0
M  V30 41913 C 7332.79 5.79992 -0.836974 0
M  V30 41914 N 7332.84 4.41864 -1.38293 0
M  V30 41915 H 7330 8.13644 -3.0377 0
M  V30 41916 H 7329.73 6.42788 -2.55485 0
M  V30 41917 H 7330.59 8.12039 -0.792769 0
M  V30 41918 P 7334.56 8.91 -3.80013e-10 0
M  V30 41919 O 7334.78 10.1726 0.733694 0
M  V30 41920 O 7335.35 8.73148 -1.23936 0
M  V30 41921 O 7334.81 7.66872 0.971405 0
M  V30 41922 C 7333.87 7.42309 2.04641 0
M  V30 41923 C 7334.6 6.86059 3.24661 0
M  V30 41924 O 7334.81 5.42847 3.03646 0
M  V30 41925 C 7336 7.41196 3.50753 0
M  V30 41926 O 7336.39 7.27073 4.86816 0
M  V30 41927 C 7336.88 6.5273 2.63741 0
M  V30 41928 C 7336.17 5.1842 2.73198 0
M  V30 41929 N 7336.22 4.38762 1.4784 0
M  V30 41930 H 7333.38 8.36803 2.32493 0
M  V30 41931 H 7333.11 6.70197 1.71129 0
M  V30 41932 H 7333.97 7.03551 4.13168 0
M  V30 41933 P 7337.94 7.20834 5.23717 0
M  V30 41934 O 7338.16 7.79853 6.57286 0
M  V30 41935 O 7338.73 7.79239 4.12957 0
M  V30 41936 O 7338.19 5.63315 5.29344 0
M  V30 41937 C 7337.25 4.80255 6.01876 0
M  V30 41938 C 7337.98 3.64202 6.65911 0
M  V30 41939 O 7338.19 2.60694 5.64732 0
M  V30 41940 C 7339.38 3.93473 7.1943 0
M  V30 41941 O 7339.77 3.02071 8.21205 0
M  V30 41942 C 7340.26 3.73047 5.97036 0
M  V30 41943 C 7339.55 2.58828 5.25741 0
M  V30 41944 N 7339.6 2.68068 3.77503 0
M  V30 41945 H 7336.76 5.40332 6.79951 0
M  V30 41946 H 7336.49 4.41613 5.32378 0
M  V30 41947 H 7337.35 3.26331 7.47797 0
M  V30 41948 P 7341.32 2.75334 8.47391 0
M  V30 41949 O 7341.54 2.44595 9.90239 0
M  V30 41950 O 7342.11 3.87732 7.92204 0
M  V30 41951 O 7341.57 1.4459 7.59357 0
M  V30 41952 C 7340.63 0.347563 7.69115 0
M  V30 41953 C 7341.36 -0.96767 7.52806 0
M  V30 41954 O 7341.57 -1.21036 6.1011 0
M  V30 41955 C 7342.76 -1.04544 8.13308 0
M  V30 41956 O 7343.15 -2.38311 8.41922 0
M  V30 41957 C 7343.64 -0.491279 7.02284 0
M  V30 41958 C 7342.93 -0.996264 5.77469 0
M  V30 41959 N 7342.98 -0.0501808 4.62873 0
M  V30 41960 C 7343.13 -0.588177 3.36904 0
M  V30 41961 O 7343.22 -1.78598 3.17173 0
M  V30 41962 N 7343.17 0.329694 2.33686 0
M  V30 41963 C 7343.08 1.6953 2.45079 0
M  V30 41964 C 7342.93 2.16933 3.80505 0
M  V30 41965 C 7342.88 1.30326 4.83752 0
M  V30 41966 H 7340.14 0.374722 8.67691 0
M  V30 41967 H 7339.87 0.443421 6.90177 0
M  V30 41968 H 7340.73 -1.75537 7.96793 0
M  V30 41969 H 7343.39 -1.94496 5.46629 0
M  V30 41970 H 7343.67 0.608651 7.04676 0
M  V30 41971 H 7344.66 -0.889672 7.08939 0
M  V30 41972 H 7342.83 -0.43308 9.04564 0
M  V30 41973 H 7342.76 1.68366 5.8516 0
M  V30 41974 P 7344.7 -2.75334 8.47391 0
M  V30 41975 O 7344.92 -3.84128 9.44797 0
M  V30 41976 O 7345.49 -1.51947 8.68712 0
M  V30 41977 O 7344.95 -3.29363 6.99321 0
M  V30 41978 C 7344.01 -4.24011 6.4274 0
M  V30 41979 C 7344.74 -5.20775 5.52155 0
M  V30 41980 O 7344.95 -4.56534 4.22446 0
M  V30 41981 C 7346.14 -5.62629 5.96531 0
M  V30 41982 O 7346.53 -6.87667 5.41053 0
M  V30 41983 C 7347.02 -4.52537 5.39283 0
M  V30 41984 C 7346.31 -4.20027 4.08623 0
M  V30 41985 N 7346.36 -2.76189 3.71603 0
M  V30 41986 H 7343.52 -4.797 7.24003 0
M  V30 41987 H 7343.25 -3.69856 5.84513 0
M  V30 41988 H 7344.11 -6.10356 5.41441 0
M  V30 41989 P 7348.08 -7.20834 5.23717 0
M  V30 41990 O 7348.3 -8.66104 5.38572 0
M  V30 41991 O 7348.87 -6.33544 6.1349 0
M  V30 41992 O 7348.33 -6.7751 3.72168 0
M  V30 41993 C 7347.39 -7.20825 2.7076 0
M  V30 41994 C 7348.12 -7.45864 1.40599 0
M  V30 41995 O 7348.33 -6.17651 0.734225 0
M  V30 41996 C 7349.52 -8.05808 1.51899 0
M  V30 41997 O 7349.91 -8.74358 0.335205 0
M  V30 41998 C 7350.4 -6.83093 1.70294 0
M  V30 41999 C 7349.69 -5.79992 0.836974 0
M  V30 42000 N 7349.74 -4.41864 1.38293 0
M  V30 42001 H 7346.9 -8.13644 3.0377 0
M  V30 42002 H 7346.63 -6.42788 2.55485 0
M  V30 42003 H 7347.49 -8.12039 0.792769 0
M  V30 42004 P 7351.46 -8.91 3.81122e-10 0
M  V30 42005 O 7351.68 -10.1736 -0.733766 0
M  V30 42006 O 7352.25 -8.73247 1.2395 0
M  V30 42007 O 7351.71 -7.66872 -0.971405 0
M  V30 42008 C 7350.77 -7.42212 -2.04614 0
M  V30 42009 C 7351.5 -6.86059 -3.24661 0
M  V30 42010 O 7351.71 -5.42847 -3.03646 0
M  V30 42011 C 7352.9 -7.41196 -3.50753 0
M  V30 42012 O 7353.29 -7.27073 -4.86816 0
M  V30 42013 C 7353.78 -6.5273 -2.63741 0
M  V30 42014 C 7353.07 -5.1842 -2.73198 0
M  V30 42015 N 7353.12 -4.38668 -1.47808 0
M  V30 42016 C 7353.27 -3.02239 -1.60048 0
M  V30 42017 O 7353.36 -2.46459 -2.67869 0
M  V30 42018 N 7353.31 -2.32436 -0.408571 0
M  V30 42019 C 7353.22 -2.85471 0.854993 0
M  V30 42020 O 7353.27 -2.12566 1.8531 0
M  V30 42021 C 7353.07 -4.28918 0.887335 0
M  V30 42022 C 7352.96 -4.91066 2.24619 0
M  V30 42023 C 7353.02 -5.00349 -0.255399 0
M  V30 42024 H 7350.28 -8.36803 -2.32493 0
M  V30 42025 H 7350.01 -6.701 -1.71105 0
M  V30 42026 H 7350.87 -7.03551 -4.13168 0
M  V30 42027 H 7353.53 -4.59773 -3.53894 0
M  V30 42028 H 7353.81 -6.88995 -1.59871 0
M  V30 42029 H 7354.8 -6.46749 -3.03687 0
M  V30 42030 H 7352.97 -8.46908 -3.20714 0
M  V30 42031 H 7352.9 -6.08548 -0.206986 0
M  V30 42032 H 7353.93 -5.34836 2.53099 0
M  V30 42033 H 7352.19 -5.69638 2.2291 0
M  V30 42034 H 7352.68 -4.13971 2.98044 0
M  V30 42035 H 7353.41 -1.33211 -0.474216 0
M  V30 42036 P 7354.84 -7.20834 -5.23717 0
M  V30 42037 O 7355.06 -7.79853 -6.57286 0
M  V30 42038 O 7355.63 -7.79239 -4.12957 0
M  V30 42039 O 7355.09 -5.63315 -5.29344 0
M  V30 42040 C 7354.15 -4.80255 -6.01876 0
M  V30 42041 C 7354.88 -3.64202 -6.65911 0
M  V30 42042 O 7355.09 -2.60694 -5.64732 0
M  V30 42043 C 7356.28 -3.93473 -7.1943 0
M  V30 42044 O 7356.67 -3.02071 -8.21205 0
M  V30 42045 C 7357.16 -3.73047 -5.97036 0
M  V30 42046 C 7356.45 -2.58828 -5.25741 0
M  V30 42047 N 7356.5 -2.68068 -3.77503 0
M  V30 42048 C 7356.42 -3.79715 -2.96723 0
M  V30 42049 N 7356.5 -3.5377 -1.68852 0
M  V30 42050 C 7356.64 -2.15054 -1.63254 0
M  V30 42051 C 7356.77 -1.28964 -0.518571 0
M  V30 42052 O 7356.79 -1.56826 0.679156 0
M  V30 42053 N 7356.89 0.0538097 -0.918425 0
M  V30 42054 C 7356.89 0.494275 -2.22578 0
M  V30 42055 N 7357.02 1.81086 -2.40434 0
M  V30 42056 N 7356.76 -0.313645 -3.27502 0
M  V30 42057 C 7356.64 -1.61829 -2.91033 0
M  V30 42058 H 7353.66 -5.40332 -6.79951 0
M  V30 42059 H 7353.39 -4.41613 -5.32378 0
M  V30 42060 H 7354.25 -3.26331 -7.47797 0
M  V30 42061 H 7356.91 -1.63422 -5.56814 0
M  V30 42062 H 7357.19 -4.63374 -5.34244 0
M  V30 42063 H 7358.18 -3.44728 -6.25838 0
M  V30 42064 H 7356.35 -4.96652 -7.57263 0
M  V30 42065 H 7356.3 -4.80617 -3.3614 0
M  V30 42066 H 7356.98 0.742702 -0.199384 0
M  V30 42067 H 7357.02 2.20598 -3.35588 0
M  V30 42068 H 7357.12 2.43518 -1.58945 0
M  V30 42069 P 7358.22 -2.75334 -8.47391 0
M  V30 42070 O 7358.44 -2.44571 -9.90142 0
M  V30 42071 O 7359.01 -3.87688 -7.92115 0
M  V30 42072 O 7358.47 -1.4459 -7.59357 0
M  V30 42073 C 7357.53 -0.347608 -7.69215 0
M  V30 42074 C 7358.26 0.96767 -7.52806 0
M  V30 42075 O 7358.47 1.21036 -6.1011 0
M  V30 42076 C 7359.66 1.04544 -8.13308 0
M  V30 42077 O 7360.05 2.38311 -8.41922 0
M  V30 42078 C 7360.54 0.491279 -7.02284 0
M  V30 42079 C 7359.83 0.996264 -5.77469 0
M  V30 42080 N 7359.88 0.0501916 -4.62973 0
M  V30 42081 C 7359.8 -1.32786 -4.63244 0
M  V30 42082 N 7359.88 -1.86957 -3.44545 0
M  V30 42083 C 7360.02 -0.780241 -2.58481 0
M  V30 42084 C 7360.15 -0.738536 -1.17757 0
M  V30 42085 O 7360.17 -1.66794 -0.372349 0
M  V30 42086 N 7360.27 0.58337 -0.711393 0
M  V30 42087 C 7360.27 1.70816 -1.51017 0
M  V30 42088 N 7360.4 2.87826 -0.880757 0
M  V30 42089 N 7360.14 1.67126 -2.8339 0
M  V30 42090 C 7360.02 0.401421 -3.30572 0
M  V30 42091 H 7357.04 -0.374722 -8.67691 0
M  V30 42092 H 7356.77 -0.443485 -6.90277 0
M  V30 42093 H 7357.63 1.75537 -7.96793 0
M  V30 42094 H 7360.29 1.95076 -5.46529 0
M  V30 42095 H 7360.57 -0.608565 -7.04577 0
M  V30 42096 H 7361.56 0.889672 -7.08939 0
M  V30 42097 H 7359.73 0.43308 -9.04564 0
M  V30 42098 H 7359.68 -1.91249 -5.54442 0
M  V30 42099 H 7360.36 0.718054 0.275244 0
M  V30 42100 H 7360.4 3.75721 -1.41832 0
M  V30 42101 H 7360.5 2.90436 0.145468 0
M  V30 42102 P 7361.6 2.75334 -8.47391 0
M  V30 42103 O 7361.82 3.84128 -9.44797 0
M  V30 42104 O 7362.39 1.51947 -8.68712 0
M  V30 42105 O 7361.85 3.29363 -6.99321 0
M  V30 42106 C 7360.91 4.24011 -6.4274 0
M  V30 42107 C 7361.64 5.20775 -5.52155 0
M  V30 42108 O 7361.85 4.56534 -4.22446 0
M  V30 42109 C 7363.04 5.62629 -5.96531 0
M  V30 42110 O 7363.43 6.87667 -5.41053 0
M  V30 42111 C 7363.92 4.52537 -5.39283 0
M  V30 42112 C 7363.21 4.20027 -4.08623 0
M  V30 42113 N 7363.26 2.76189 -3.71603 0
M  V30 42114 C 7363.18 1.64862 -4.52822 0
M  V30 42115 N 7363.26 0.512671 -3.88633 0
M  V30 42116 C 7363.4 0.888083 -2.54977 0
M  V30 42117 C 7363.53 0.094668 -1.38677 0
M  V30 42118 N 7363.65 0.890102 -0.232633 0
M  V30 42119 C 7363.65 2.26958 -0.21772 0
M  V30 42120 N 7363.78 2.84626 0.97925 0
M  V30 42121 N 7363.52 3.0178 -1.31033 0
M  V30 42122 C 7363.4 2.26781 -2.43843 0
M  V30 42123 H 7360.42 4.797 -7.24003 0
M  V30 42124 H 7360.15 3.69856 -5.84513 0
M  V30 42125 H 7361.01 6.10356 -5.41441 0
M  V30 42126 P 7364.98 7.20834 -5.23717 0
M  V30 42127 O 7365.2 8.66104 -5.38572 0
M  V30 42128 O 7365.77 6.33544 -6.1349 0
M  V30 42129 O 7365.23 6.7751 -3.72168 0
M  V30 42130 C 7364.29 7.20825 -2.7076 0
M  V30 42131 C 7365.02 7.45864 -1.40599 0
M  V30 42132 O 7365.23 6.17651 -0.734225 0
M  V30 42133 C 7366.42 8.05808 -1.51899 0
M  V30 42134 O 7366.81 8.74358 -0.335205 0
M  V30 42135 C 7367.3 6.83093 -1.70294 0
M  V30 42136 C 7366.59 5.79992 -0.836974 0
M  V30 42137 N 7366.64 4.41864 -1.38293 0
M  V30 42138 H 7363.8 8.13644 -3.0377 0
M  V30 42139 H 7363.53 6.42788 -2.55485 0
M  V30 42140 H 7364.39 8.12039 -0.792769 0
M  V30 42141 P 7368.36 8.91 -3.82231e-10 0
M  V30 42142 O 7368.58 10.1726 0.733694 0
M  V30 42143 O 7369.15 8.73148 -1.23936 0
M  V30 42144 O 7368.61 7.66872 0.971405 0
M  V30 42145 C 7367.67 7.42309 2.04641 0
M  V30 42146 C 7368.4 6.86059 3.24661 0
M  V30 42147 O 7368.61 5.42847 3.03646 0
M  V30 42148 C 7369.8 7.41196 3.50753 0
M  V30 42149 O 7370.19 7.27073 4.86816 0
M  V30 42150 C 7370.68 6.5273 2.63741 0
M  V30 42151 C 7369.97 5.1842 2.73198 0
M  V30 42152 N 7370.02 4.38762 1.4784 0
M  V30 42153 H 7367.18 8.36803 2.32493 0
M  V30 42154 H 7366.91 6.70197 1.71129 0
M  V30 42155 H 7367.77 7.03551 4.13168 0
M  V30 42156 P 7371.74 7.20834 5.23717 0
M  V30 42157 O 7371.96 7.79853 6.57286 0
M  V30 42158 O 7372.53 7.79239 4.12957 0
M  V30 42159 O 7371.99 5.63315 5.29344 0
M  V30 42160 C 7371.05 4.80255 6.01876 0
M  V30 42161 C 7371.78 3.64202 6.65911 0
M  V30 42162 O 7371.99 2.60694 5.64732 0
M  V30 42163 C 7373.18 3.93473 7.1943 0
M  V30 42164 O 7373.57 3.02071 8.21205 0
M  V30 42165 C 7374.06 3.73047 5.97036 0
M  V30 42166 C 7373.35 2.58828 5.25741 0
M  V30 42167 N 7373.4 2.68068 3.77503 0
M  V30 42168 H 7370.56 5.40332 6.79951 0
M  V30 42169 H 7370.29 4.41613 5.32378 0
M  V30 42170 H 7371.15 3.26331 7.47797 0
M  V30 42171 P 7375.12 2.75334 8.47391 0
M  V30 42172 O 7375.34 2.44571 9.90142 0
M  V30 42173 O 7375.91 3.87688 7.92115 0
M  V30 42174 O 7375.37 1.4459 7.59357 0
M  V30 42175 C 7374.43 0.347608 7.69215 0
M  V30 42176 C 7375.16 -0.96767 7.52806 0
M  V30 42177 O 7375.37 -1.21036 6.1011 0
M  V30 42178 C 7376.56 -1.04544 8.13308 0
M  V30 42179 O 7376.95 -2.38311 8.41922 0
M  V30 42180 C 7377.44 -0.491279 7.02284 0
M  V30 42181 C 7376.73 -0.996264 5.77469 0
M  V30 42182 N 7376.78 -0.0501916 4.62973 0
M  V30 42183 H 7373.94 0.374722 8.67691 0
M  V30 42184 H 7373.67 0.443485 6.90277 0
M  V30 42185 H 7374.53 -1.75537 7.96793 0
M  V30 42186 P 7378.5 -2.75334 8.47391 0
M  V30 42187 O 7378.72 -3.84128 9.44797 0
M  V30 42188 O 7379.29 -1.51947 8.68712 0
M  V30 42189 O 7378.75 -3.29363 6.99321 0
M  V30 42190 C 7377.81 -4.24011 6.4274 0
M  V30 42191 C 7378.54 -5.20775 5.52155 0
M  V30 42192 O 7378.75 -4.56534 4.22446 0
M  V30 42193 C 7379.94 -5.62629 5.96531 0
M  V30 42194 O 7380.33 -6.87667 5.41053 0
M  V30 42195 C 7380.82 -4.52537 5.39283 0
M  V30 42196 C 7380.11 -4.20027 4.08623 0
M  V30 42197 N 7380.16 -2.76189 3.71603 0
M  V30 42198 C 7380.08 -1.64862 4.52822 0
M  V30 42199 N 7380.16 -0.512671 3.88633 0
M  V30 42200 C 7380.3 -0.888083 2.54977 0
M  V30 42201 C 7380.43 -0.094668 1.38677 0
M  V30 42202 N 7380.55 -0.890102 0.232633 0
M  V30 42203 C 7380.55 -2.26958 0.21772 0
M  V30 42204 N 7380.68 -2.84626 -0.97925 0
M  V30 42205 N 7380.42 -3.0178 1.31033 0
M  V30 42206 C 7380.3 -2.26781 2.43843 0
M  V30 42207 H 7377.32 -4.797 7.24003 0
M  V30 42208 H 7377.05 -3.69856 5.84513 0
M  V30 42209 H 7377.91 -6.10356 5.41441 0
M  V30 42210 P 7381.88 -7.20834 5.23717 0
M  V30 42211 O 7382.1 -8.66104 5.38572 0
M  V30 42212 O 7382.67 -6.33544 6.1349 0
M  V30 42213 O 7382.13 -6.7751 3.72168 0
M  V30 42214 C 7381.19 -7.20825 2.7076 0
M  V30 42215 C 7381.92 -7.45864 1.40599 0
M  V30 42216 O 7382.13 -6.17651 0.734225 0
M  V30 42217 C 7383.32 -8.05808 1.51899 0
M  V30 42218 O 7383.71 -8.74358 0.335205 0
M  V30 42219 C 7384.2 -6.83093 1.70294 0
M  V30 42220 C 7383.49 -5.79992 0.836974 0
M  V30 42221 N 7383.54 -4.41864 1.38293 0
M  V30 42222 H 7380.7 -8.13644 3.0377 0
M  V30 42223 H 7380.43 -6.42788 2.55485 0
M  V30 42224 H 7381.29 -8.12039 0.792769 0
M  V30 42225 P 7385.26 -8.91 3.8334e-10 0
M  V30 42226 O 7385.48 -10.1736 -0.733766 0
M  V30 42227 O 7386.05 -8.73247 1.2395 0
M  V30 42228 O 7385.51 -7.66872 -0.971405 0
M  V30 42229 C 7384.57 -7.42309 -2.04641 0
M  V30 42230 C 7385.3 -6.86059 -3.24661 0
M  V30 42231 O 7385.51 -5.42847 -3.03646 0
M  V30 42232 C 7386.7 -7.41196 -3.50753 0
M  V30 42233 O 7387.09 -7.27073 -4.86816 0
M  V30 42234 C 7387.58 -6.5273 -2.63741 0
M  V30 42235 C 7386.87 -5.1842 -2.73198 0
M  V30 42236 N 7386.92 -4.38668 -1.47808 0
M  V30 42237 C 7387.07 -3.00789 -1.58511 0
M  V30 42238 O 7387.16 -2.50116 -2.71298 0
M  V30 42239 N 7387.12 -2.29703 -0.253698 0
M  V30 42240 C 7387.02 -2.84269 0.750133 0
M  V30 42241 N 7387.07 -2.06951 1.82612 0
M  V30 42242 C 7386.87 -4.25803 0.889776 0
M  V30 42243 C 7386.82 -4.98326 -0.259363 0
M  V30 42244 H 7384.08 -8.36707 -2.32466 0
M  V30 42245 H 7383.81 -6.701 -1.71105 0
M  V30 42246 H 7384.67 -7.03638 -4.13219 0
M  V30 42247 H 7387.33 -4.59852 -3.53955 0
M  V30 42248 H 7387.61 -6.88995 -1.59871 0
M  V30 42249 H 7388.6 -6.46749 -3.03687 0
M  V30 42250 H 7386.77 -8.46908 -3.20714 0
M  V30 42251 H 7386.69 -6.06349 -0.206238 0
M  V30 42252 H 7386.8 -4.73163 1.86796 0
M  V30 42253 H 7387.18 -1.05099 1.72271 0
M  V30 42254 H 7386.99 -2.48716 2.76361 0
M  V30 42255 P 7388.64 -7.20834 -5.23717 0
M  V30 42256 O 7388.86 -7.79853 -6.57286 0
M  V30 42257 O 7389.43 -7.79239 -4.12957 0
M  V30 42258 O 7388.89 -5.63315 -5.29344 0
M  V30 42259 C 7387.95 -4.80255 -6.01876 0
M  V30 42260 C 7388.68 -3.64202 -6.65911 0
M  V30 42261 O 7388.89 -2.60694 -5.64732 0
M  V30 42262 C 7390.08 -3.93473 -7.1943 0
M  V30 42263 O 7390.47 -3.02071 -8.21205 0
M  V30 42264 C 7390.96 -3.73047 -5.97036 0
M  V30 42265 C 7390.25 -2.58828 -5.25741 0
M  V30 42266 N 7390.3 -2.68068 -3.77503 0
M  V30 42267 H 7387.46 -5.40332 -6.79951 0
M  V30 42268 H 7387.19 -4.41613 -5.32378 0
M  V30 42269 H 7388.05 -3.26331 -7.47797 0
M  V30 42270 P 7392.02 -2.75334 -8.47391 0
M  V30 42271 O 7392.24 -2.44571 -9.90142 0
M  V30 42272 O 7392.81 -3.87688 -7.92115 0
M  V30 42273 O 7392.27 -1.4459 -7.59357 0
M  V30 42274 C 7391.33 -0.347608 -7.69215 0
M  V30 42275 C 7392.06 0.96767 -7.52806 0
M  V30 42276 O 7392.27 1.21036 -6.1011 0
M  V30 42277 C 7393.46 1.04544 -8.13308 0
M  V30 42278 O 7393.85 2.38311 -8.41922 0
M  V30 42279 C 7394.34 0.491279 -7.02284 0
M  V30 42280 C 7393.63 0.996264 -5.77469 0
M  V30 42281 N 7393.68 0.0501916 -4.62973 0
M  V30 42282 H 7390.84 -0.374722 -8.67691 0
M  V30 42283 H 7390.57 -0.443485 -6.90277 0
M  V30 42284 H 7391.43 1.75537 -7.96793 0
M  V30 42285 P 7395.4 2.75334 -8.47391 0
M  V30 42286 O 7395.62 3.84128 -9.44797 0
M  V30 42287 O 7396.19 1.51947 -8.68712 0
M  V30 42288 O 7395.65 3.29363 -6.99321 0
M  V30 42289 C 7394.71 4.24011 -6.4274 0
M  V30 42290 C 7395.44 5.20775 -5.52155 0
M  V30 42291 O 7395.65 4.56534 -4.22446 0
M  V30 42292 C 7396.84 5.62629 -5.96531 0
M  V30 42293 O 7397.23 6.87667 -5.41053 0
M  V30 42294 C 7397.72 4.52537 -5.39283 0
M  V30 42295 C 7397.01 4.20027 -4.08623 0
M  V30 42296 N 7397.06 2.76189 -3.71603 0
M  V30 42297 H 7394.22 4.797 -7.24003 0
M  V30 42298 H 7393.95 3.69856 -5.84513 0
M  V30 42299 H 7394.81 6.10356 -5.41441 0
M  V30 42300 P 7398.78 7.20834 -5.23717 0
M  V30 42301 O 7399 8.66104 -5.38572 0
M  V30 42302 O 7399.57 6.33544 -6.1349 0
M  V30 42303 O 7399.03 6.7751 -3.72168 0
M  V30 42304 C 7398.09 7.20825 -2.7076 0
M  V30 42305 C 7398.82 7.45864 -1.40599 0
M  V30 42306 O 7399.03 6.17651 -0.734225 0
M  V30 42307 C 7400.22 8.05808 -1.51899 0
M  V30 42308 O 7400.61 8.74358 -0.335205 0
M  V30 42309 C 7401.1 6.83093 -1.70294 0
M  V30 42310 C 7400.39 5.79992 -0.836974 0
M  V30 42311 N 7400.44 4.41864 -1.38293 0
M  V30 42312 H 7397.6 8.13644 -3.0377 0
M  V30 42313 H 7397.33 6.42788 -2.55485 0
M  V30 42314 H 7398.19 8.12039 -0.792769 0
M  V30 42315 P 7402.16 8.91 -3.84449e-10 0
M  V30 42316 O 7402.38 10.1746 0.733838 0
M  V30 42317 O 7402.95 8.73346 -1.23964 0
M  V30 42318 O 7402.41 7.66872 0.971405 0
M  V30 42319 C 7401.47 7.42405 2.04668 0
M  V30 42320 C 7402.2 6.86059 3.24661 0
M  V30 42321 O 7402.41 5.42934 3.03695 0
M  V30 42322 C 7403.6 7.41287 3.50796 0
M  V30 42323 O 7403.99 7.27073 4.86816 0
M  V30 42324 C 7404.48 6.5273 2.63741 0
M  V30 42325 C 7403.77 5.1842 2.73198 0
M  V30 42326 N 7403.82 4.38762 1.4784 0
M  V30 42327 H 7400.98 8.36899 2.3252 0
M  V30 42328 H 7400.71 6.70391 1.71179 0
M  V30 42329 H 7401.57 7.03638 4.13219 0
M  V30 42330 H 7404.23 4.59931 3.54016 0
M  V30 42331 H 7404.51 6.88995 1.59871 0
M  V30 42332 H 7405.5 6.4684 3.0373 0
M  V30 42333 H 7403.67 8.47002 3.20749 0
M  V30 42334 P 7405.54 7.20834 5.23717 0
M  V30 42335 O 7405.76 7.79853 6.57286 0
M  V30 42336 O 7406.33 7.79239 4.12957 0
M  V30 42337 O 7405.79 5.63315 5.29344 0
M  V30 42338 C 7404.85 4.80255 6.01876 0
M  V30 42339 C 7405.58 3.64202 6.65911 0
M  V30 42340 O 7405.79 2.60694 5.64732 0
M  V30 42341 C 7406.98 3.93473 7.1943 0
M  V30 42342 O 7407.37 3.02071 8.21205 0
M  V30 42343 C 7407.86 3.73047 5.97036 0
M  V30 42344 C 7407.15 2.58828 5.25741 0
M  V30 42345 N 7407.2 2.68068 3.77503 0
M  V30 42346 H 7404.36 5.40332 6.79951 0
M  V30 42347 H 7404.09 4.41613 5.32378 0
M  V30 42348 H 7404.95 3.26331 7.47797 0
M  V30 42349 P 7408.92 2.75334 8.47391 0
M  V30 42350 O 7409.14 2.44571 9.90142 0
M  V30 42351 O 7409.71 3.87688 7.92115 0
M  V30 42352 O 7409.17 1.4459 7.59357 0
M  V30 42353 C 7408.23 0.347608 7.69215 0
M  V30 42354 C 7408.96 -0.96767 7.52806 0
M  V30 42355 O 7409.17 -1.21036 6.1011 0
M  V30 42356 C 7410.36 -1.04544 8.13308 0
M  V30 42357 O 7410.75 -2.38311 8.41922 0
M  V30 42358 C 7411.24 -0.491279 7.02284 0
M  V30 42359 C 7410.53 -0.996264 5.77469 0
M  V30 42360 N 7410.58 -0.0501916 4.62973 0
M  V30 42361 H 7407.74 0.374722 8.67691 0
M  V30 42362 H 7407.47 0.443485 6.90277 0
M  V30 42363 H 7408.33 -1.75537 7.96793 0
M  V30 42364 P 7412.3 -2.75334 8.47391 0
M  V30 42365 O 7412.52 -3.84204 9.44982 0
M  V30 42366 O 7413.09 -1.51982 8.68909 0
M  V30 42367 O 7412.55 -3.29363 6.99321 0
M  V30 42368 C 7411.61 -4.24066 6.42823 0
M  V30 42369 C 7412.34 -5.20775 5.52155 0
M  V30 42370 O 7412.55 -4.56607 4.22514 0
M  V30 42371 C 7413.74 -5.62697 5.96604 0
M  V30 42372 O 7414.13 -6.87667 5.41053 0
M  V30 42373 C 7414.62 -4.52537 5.39283 0
M  V30 42374 C 7413.91 -4.20027 4.08623 0
M  V30 42375 N 7413.96 -2.76189 3.71603 0
M  V30 42376 H 7411.12 -4.79756 7.24086 0
M  V30 42377 H 7410.85 -3.69963 5.84682 0
M  V30 42378 H 7411.71 -6.10431 5.41508 0
M  V30 42379 H 7414.37 -4.78816 3.28024 0
M  V30 42380 H 7414.65 -3.64957 6.05871 0
M  V30 42381 H 7415.64 -4.88748 5.21323 0
M  V30 42382 H 7413.81 -5.66789 7.0643 0
M  V30 42383 P 7415.68 -7.20834 5.23717 0
M  V30 42384 O 7415.9 -8.66189 5.38625 0
M  V30 42385 O 7416.47 -6.33615 6.1356 0
M  V30 42386 O 7415.93 -6.7751 3.72168 0
M  V30 42387 C 7414.99 -7.20732 2.70725 0
M  V30 42388 C 7415.72 -7.45864 1.40599 0
M  V30 42389 O 7415.93 -6.17651 0.734225 0
M  V30 42390 C 7417.12 -8.05808 1.51899 0
M  V30 42391 O 7417.51 -8.74358 0.335205 0
M  V30 42392 C 7418 -6.83093 1.70294 0
M  V30 42393 C 7417.29 -5.79992 0.836974 0
M  V30 42394 N 7417.34 -4.41769 1.38263 0
M  V30 42395 C 7417.49 -3.38591 0.481702 0
M  V30 42396 O 7417.58 -3.56839 -0.718452 0
M  V30 42397 N 7417.53 -2.1206 1.03569 0
M  V30 42398 C 7417.44 -1.80696 2.36966 0
M  V30 42399 O 7417.49 -0.630473 2.74862 0
M  V30 42400 C 7417.29 -2.94845 3.23898 0
M  V30 42401 C 7417.18 -2.65253 4.70362 0
M  V30 42402 C 7417.24 -4.19803 2.73435 0
M  V30 42403 H 7414.5 -8.13644 3.0377 0
M  V30 42404 H 7414.23 -6.42695 2.55448 0
M  V30 42405 H 7415.09 -8.12039 0.792769 0
M  V30 42406 H 7417.75 -5.79978 -0.160587 0
M  V30 42407 H 7418.03 -6.51379 2.75643 0
M  V30 42408 H 7419.02 -7.01734 1.34462 0
M  V30 42409 H 7417.19 -8.73674 2.38337 0
M  V30 42410 H 7417.12 -5.04492 3.4095 0
M  V30 42411 H 7418.15 -2.83924 5.1913 0
M  V30 42412 H 7416.41 -3.29824 5.15163 0
M  V30 42413 H 7416.9 -1.59723 4.84449 0
M  V30 42414 H 7417.63 -1.35644 0.399345 0
M  V30 42415 P 7419.06 -8.91 3.85558e-10 0
M  V30 42416 O 7419.28 -10.1726 -0.733694 0
M  V30 42417 O 7419.85 -8.73148 1.23936 0
M  V30 42418 O 7419.31 -7.66872 -0.971405 0
M  V30 42419 C 7418.37 -7.42309 -2.04641 0
M  V30 42420 C 7419.1 -6.86059 -3.24661 0
M  V30 42421 O 7419.31 -5.42847 -3.03646 0
M  V30 42422 C 7420.5 -7.41196 -3.50753 0
M  V30 42423 O 7420.89 -7.27073 -4.86816 0
M  V30 42424 C 7421.38 -6.5273 -2.63741 0
M  V30 42425 C 7420.67 -5.1842 -2.73198 0
M  V30 42426 N 7420.72 -4.38762 -1.4784 0
M  V30 42427 H 7417.88 -8.36803 -2.32493 0
M  V30 42428 H 7417.61 -6.70197 -1.71129 0
M  V30 42429 H 7418.47 -7.03551 -4.13168 0
M  V30 42430 P 7422.44 -7.20834 -5.23717 0
M  V30 42431 O 7422.66 -7.7993 -6.57351 0
M  V30 42432 O 7423.23 -7.79328 -4.13004 0
M  V30 42433 O 7422.69 -5.63315 -5.29344 0
M  V30 42434 C 7421.75 -4.80255 -6.01876 0
M  V30 42435 C 7422.48 -3.64202 -6.65911 0
M  V30 42436 O 7422.69 -2.60694 -5.64732 0
M  V30 42437 C 7423.88 -3.93473 -7.1943 0
M  V30 42438 O 7424.27 -3.02071 -8.21205 0
M  V30 42439 C 7424.76 -3.73047 -5.97036 0
M  V30 42440 C 7424.05 -2.58828 -5.25741 0
M  V30 42441 N 7424.1 -2.6801 -3.77422 0
M  V30 42442 C 7424.25 -1.50173 -3.05038 0
M  V30 42443 O 7424.34 -0.428832 -3.665 0
M  V30 42444 N 7424.3 -1.70922 -1.55541 0
M  V30 42445 C 7424.2 -2.7407 -1.06402 0
M  V30 42446 N 7424.25 -2.74764 0.260931 0
M  V30 42447 C 7424.05 -3.96781 -1.78296 0
M  V30 42448 C 7424 -3.87909 -3.13891 0
M  V30 42449 H 7421.26 -5.4027 -6.79873 0
M  V30 42450 H 7420.99 -4.41549 -5.32301 0
M  V30 42451 H 7421.85 -3.26371 -7.47889 0
M  V30 42452 H 7424.51 -1.63978 -5.5665 0
M  V30 42453 H 7424.79 -4.63439 -5.3432 0
M  V30 42454 H 7425.78 -3.44728 -6.25838 0
M  V30 42455 H 7423.95 -4.96652 -7.57263 0
M  V30 42456 H 7423.87 -4.78425 -3.73088 0
M  V30 42457 H 7423.98 -4.92593 -1.26997 0
M  V30 42458 H 7424.36 -1.86285 0.77595 0
M  V30 42459 H 7424.17 -3.63657 0.773896 0
M  V30 42460 P 7425.82 -2.75334 -8.47391 0
M  V30 42461 O 7426.04 -2.44619 -9.90336 0
M  V30 42462 O 7426.61 -3.87776 -7.92294 0
M  V30 42463 O 7426.07 -1.4459 -7.59357 0
M  V30 42464 C 7425.13 -0.347653 -7.69315 0
M  V30 42465 C 7425.86 0.96767 -7.52806 0
M  V30 42466 O 7426.07 1.21055 -6.10208 0
M  V30 42467 C 7427.26 1.04557 -8.13408 0
M  V30 42468 O 7427.65 2.38311 -8.41922 0
M  V30 42469 C 7428.14 0.491279 -7.02284 0
M  V30 42470 C 7427.43 0.996264 -5.77469 0
M  V30 42471 N 7427.48 0.0501916 -4.62973 0
M  V30 42472 H 7424.64 -0.374765 -8.67791 0
M  V30 42473 H 7424.37 -0.443613 -6.90476 0
M  V30 42474 H 7425.23 1.75559 -7.96891 0
M  V30 42475 H 7427.89 1.94563 -5.46818 0
M  V30 42476 H 7428.17 -0.608651 -7.04676 0
M  V30 42477 H 7429.16 0.889796 -7.09039 0
M  V30 42478 H 7427.33 0.433128 -9.04664 0
M  V30 42479 P 7429.2 2.75334 -8.47391 0
M  V30 42480 O 7429.42 3.84204 -9.44982 0
M  V30 42481 O 7429.99 1.51982 -8.68909 0
M  V30 42482 O 7429.45 3.29363 -6.99321 0
M  V30 42483 C 7428.51 4.24066 -6.42823 0
M  V30 42484 C 7429.24 5.20775 -5.52155 0
M  V30 42485 O 7429.45 4.56607 -4.22514 0
M  V30 42486 C 7430.64 5.62697 -5.96604 0
M  V30 42487 O 7431.03 6.87667 -5.41053 0
M  V30 42488 C 7431.52 4.52537 -5.39283 0
M  V30 42489 C 7430.81 4.20027 -4.08623 0
M  V30 42490 N 7430.86 2.76189 -3.71603 0
M  V30 42491 C 7430.78 1.66944 -4.54297 0
M  V30 42492 N 7430.85 0.536169 -3.91344 0
M  V30 42493 C 7431 0.901569 -2.58849 0
M  V30 42494 C 7431.13 0.146599 -1.40236 0
M  V30 42495 N 7431.14 -1.18234 -1.37046 0
M  V30 42496 N 7431.25 0.822941 -0.249738 0
M  V30 42497 C 7431.24 2.15179 -0.280525 0
M  V30 42498 N 7431.12 2.96414 -1.30822 0
M  V30 42499 C 7431 2.25804 -2.44748 0
M  V30 42500 H 7428.02 4.79756 -7.24086 0
M  V30 42501 H 7427.75 3.69963 -5.84682 0
M  V30 42502 H 7428.61 6.10431 -5.41508 0
M  V30 42503 H 7431.27 4.78816 -3.28024 0
M  V30 42504 H 7431.55 3.64957 -6.05871 0
M  V30 42505 H 7432.54 4.88748 -5.21323 0
M  V30 42506 H 7430.71 5.66789 -7.0643 0
M  V30 42507 H 7430.67 1.74684 -5.62396 0
M  V30 42508 H 7431.05 -1.71949 -2.24394 0
M  V30 42509 H 7431.24 -1.67511 -0.470742 0
M  V30 42510 H 7431.34 2.63704 0.6828 0
M  V30 42511 P 7432.58 7.20834 -5.23717 0
M  V30 42512 O 7432.8 8.66104 -5.38572 0
M  V30 42513 O 7433.37 6.33544 -6.1349 0
M  V30 42514 O 7432.83 6.7751 -3.72168 0
M  V30 42515 C 7431.89 7.20825 -2.7076 0
M  V30 42516 C 7432.62 7.45864 -1.40599 0
M  V30 42517 O 7432.83 6.17651 -0.734225 0
M  V30 42518 C 7434.02 8.05808 -1.51899 0
M  V30 42519 O 7434.41 8.74358 -0.335205 0
M  V30 42520 C 7434.9 6.83093 -1.70294 0
M  V30 42521 C 7434.19 5.79992 -0.836974 0
M  V30 42522 N 7434.24 4.41864 -1.38293 0
M  V30 42523 H 7431.4 8.13644 -3.0377 0
M  V30 42524 H 7431.13 6.42788 -2.55485 0
M  V30 42525 H 7431.99 8.12039 -0.792769 0
M  V30 42526 P 7435.96 8.91 -3.86667e-10 0
M  V30 42527 O 7436.18 10.1726 0.733694 0
M  V30 42528 O 7436.75 8.73148 -1.23936 0
M  V30 42529 O 7436.21 7.66872 0.971405 0
M  V30 42530 C 7435.27 7.42309 2.04641 0
M  V30 42531 C 7436 6.86059 3.24661 0
M  V30 42532 O 7436.21 5.42847 3.03646 0
M  V30 42533 C 7437.4 7.41196 3.50753 0
M  V30 42534 O 7437.79 7.27073 4.86816 0
M  V30 42535 C 7438.28 6.5273 2.63741 0
M  V30 42536 C 7437.57 5.1842 2.73198 0
M  V30 42537 N 7437.62 4.38762 1.4784 0
M  V30 42538 H 7434.78 8.36803 2.32493 0
M  V30 42539 H 7434.51 6.70197 1.71129 0
M  V30 42540 H 7435.37 7.03551 4.13168 0
M  V30 42541 P 7439.34 7.20834 5.23717 0
M  V30 42542 O 7439.56 7.79853 6.57286 0
M  V30 42543 O 7440.13 7.79239 4.12957 0
M  V30 42544 O 7439.59 5.63315 5.29344 0
M  V30 42545 C 7438.65 4.80255 6.01876 0
M  V30 42546 C 7439.38 3.64202 6.65911 0
M  V30 42547 O 7439.59 2.60694 5.64732 0
M  V30 42548 C 7440.78 3.93473 7.1943 0
M  V30 42549 O 7441.17 3.02071 8.21205 0
M  V30 42550 C 7441.66 3.73047 5.97036 0
M  V30 42551 C 7440.95 2.58828 5.25741 0
M  V30 42552 N 7441 2.68068 3.77503 0
M  V30 42553 H 7438.16 5.40332 6.79951 0
M  V30 42554 H 7437.89 4.41613 5.32378 0
M  V30 42555 H 7438.75 3.26331 7.47797 0
M  V30 42556 P 7442.72 2.75334 8.47391 0
M  V30 42557 O 7442.94 2.44571 9.90142 0
M  V30 42558 O 7443.51 3.87688 7.92115 0
M  V30 42559 O 7442.97 1.4459 7.59357 0
M  V30 42560 C 7442.03 0.347608 7.69215 0
M  V30 42561 C 7442.76 -0.96767 7.52806 0
M  V30 42562 O 7442.97 -1.21036 6.1011 0
M  V30 42563 C 7444.16 -1.04544 8.13308 0
M  V30 42564 O 7444.55 -2.38311 8.41922 0
M  V30 42565 C 7445.04 -0.491279 7.02284 0
M  V30 42566 C 7444.33 -0.996264 5.77469 0
M  V30 42567 N 7444.38 -0.0501916 4.62973 0
M  V30 42568 H 7441.54 0.374722 8.67691 0
M  V30 42569 H 7441.27 0.443485 6.90277 0
M  V30 42570 H 7442.13 -1.75537 7.96793 0
M  V30 42571 P 7446.1 -2.75334 8.47391 0
M  V30 42572 O 7446.32 -3.84128 9.44797 0
M  V30 42573 O 7446.89 -1.51947 8.68712 0
M  V30 42574 O 7446.35 -3.29363 6.99321 0
M  V30 42575 C 7445.41 -4.24011 6.4274 0
M  V30 42576 C 7446.14 -5.20775 5.52155 0
M  V30 42577 O 7446.35 -4.56534 4.22446 0
M  V30 42578 C 7447.54 -5.62629 5.96531 0
M  V30 42579 O 7447.93 -6.87667 5.41053 0
M  V30 42580 C 7448.42 -4.52537 5.39283 0
M  V30 42581 C 7447.71 -4.20027 4.08623 0
M  V30 42582 N 7447.76 -2.76189 3.71603 0
M  V30 42583 H 7444.92 -4.797 7.24003 0
M  V30 42584 H 7444.65 -3.69856 5.84513 0
M  V30 42585 H 7445.51 -6.10356 5.41441 0
M  V30 42586 P 7449.48 -7.20834 5.23717 0
M  V30 42587 O 7449.7 -8.66104 5.38572 0
M  V30 42588 O 7450.27 -6.33544 6.1349 0
M  V30 42589 O 7449.73 -6.7751 3.72168 0
M  V30 42590 C 7448.79 -7.20825 2.7076 0
M  V30 42591 C 7449.52 -7.45864 1.40599 0
M  V30 42592 O 7449.73 -6.17651 0.734225 0
M  V30 42593 C 7450.92 -8.05808 1.51899 0
M  V30 42594 O 7451.31 -8.74358 0.335205 0
M  V30 42595 C 7451.8 -6.83093 1.70294 0
M  V30 42596 C 7451.09 -5.79992 0.836974 0
M  V30 42597 N 7451.14 -4.41864 1.38293 0
M  V30 42598 C 7451.06 -3.99538 2.69438 0
M  V30 42599 N 7451.14 -2.69909 2.84277 0
M  V30 42600 C 7451.28 -2.21719 1.5408 0
M  V30 42601 C 7451.41 -0.891712 1.06628 0
M  V30 42602 N 7451.53 -0.856846 -0.334985 0
M  V30 42603 C 7451.53 -1.9641 -1.15789 0
M  V30 42604 N 7451.66 -1.72708 -2.46522 0
M  V30 42605 N 7451.4 -3.21165 -0.713741 0
M  V30 42606 C 7451.28 -3.26797 0.639748 0
M  V30 42607 H 7448.3 -8.13644 3.0377 0
M  V30 42608 H 7448.03 -6.42788 2.55485 0
M  V30 42609 H 7448.89 -8.12039 0.792769 0
M  V30 42610 P 7452.86 -8.91 3.87776e-10 0
M  V30 42611 O 7453.08 -10.1726 -0.733694 0
M  V30 42612 O 7453.65 -8.73148 1.23936 0
M  V30 42613 O 7453.11 -7.66872 -0.971405 0
M  V30 42614 C 7452.17 -7.42309 -2.04641 0
M  V30 42615 C 7452.9 -6.86059 -3.24661 0
M  V30 42616 O 7453.11 -5.42847 -3.03646 0
M  V30 42617 C 7454.3 -7.41196 -3.50753 0
M  V30 42618 O 7454.69 -7.27073 -4.86816 0
M  V30 42619 C 7455.18 -6.5273 -2.63741 0
M  V30 42620 C 7454.47 -5.1842 -2.73198 0
M  V30 42621 N 7454.52 -4.38762 -1.4784 0
M  V30 42622 H 7451.68 -8.36803 -2.32493 0
M  V30 42623 H 7451.41 -6.70197 -1.71129 0
M  V30 42624 H 7452.27 -7.03551 -4.13168 0
M  V30 42625 P 7456.24 -7.20834 -5.23717 0
M  V30 42626 O 7456.46 -7.7993 -6.57351 0
M  V30 42627 O 7457.03 -7.79328 -4.13004 0
M  V30 42628 O 7456.49 -5.63315 -5.29344 0
M  V30 42629 C 7455.55 -4.80193 -6.01798 0
M  V30 42630 C 7456.28 -3.64202 -6.65911 0
M  V30 42631 O 7456.49 -2.60694 -5.64732 0
M  V30 42632 C 7457.68 -3.93473 -7.1943 0
M  V30 42633 O 7458.07 -3.02071 -8.21205 0
M  V30 42634 C 7458.56 -3.73047 -5.97036 0
M  V30 42635 C 7457.85 -2.58828 -5.25741 0
M  V30 42636 N 7457.9 -2.6801 -3.77422 0
M  V30 42637 C 7458.05 -1.50443 -3.07133 0
M  V30 42638 O 7458.14 -0.419406 -3.61576 0
M  V30 42639 N 7458.09 -1.6403 -1.69677 0
M  V30 42640 C 7458 -2.81206 -0.986255 0
M  V30 42641 O 7458.05 -2.80892 0.249754 0
M  V30 42642 C 7457.85 -3.99158 -1.80325 0
M  V30 42643 C 7457.74 -5.29309 -1.06921 0
M  V30 42644 C 7457.8 -3.89779 -3.1476 0
M  V30 42645 H 7455.06 -5.40332 -6.79951 0
M  V30 42646 H 7454.79 -4.41549 -5.32301 0
M  V30 42647 H 7455.65 -3.26331 -7.47797 0
M  V30 42648 H 7458.31 -1.6395 -5.56554 0
M  V30 42649 H 7458.59 -4.63439 -5.3432 0
M  V30 42650 H 7459.58 -3.44728 -6.25838 0
M  V30 42651 H 7457.75 -4.96652 -7.57263 0
M  V30 42652 H 7457.67 -4.80159 -3.74441 0
M  V30 42653 H 7458.7 -5.81459 -1.09608 0
M  V30 42654 H 7456.97 -5.9187 -1.54487 0
M  V30 42655 H 7457.46 -5.10095 -0.0220288 0
M  V30 42656 H 7458.19 -0.798962 -1.16664 0
M  V30 42657 P 7459.62 -2.75334 -8.47391 0
M  V30 42658 O 7459.84 -2.44571 -9.90142 0
M  V30 42659 O 7460.41 -3.87688 -7.92115 0
M  V30 42660 O 7459.87 -1.4459 -7.59357 0
M  V30 42661 C 7458.93 -0.347608 -7.69215 0
M  V30 42662 C 7459.66 0.96767 -7.52806 0
M  V30 42663 O 7459.87 1.21036 -6.1011 0
M  V30 42664 C 7461.06 1.04544 -8.13308 0
M  V30 42665 O 7461.45 2.38311 -8.41922 0
M  V30 42666 C 7461.94 0.491279 -7.02284 0
M  V30 42667 C 7461.23 0.996264 -5.77469 0
M  V30 42668 N 7461.28 0.0501916 -4.62973 0
M  V30 42669 H 7458.44 -0.374722 -8.67691 0
M  V30 42670 H 7458.17 -0.443485 -6.90277 0
M  V30 42671 H 7459.03 1.75537 -7.96793 0
M  V30 42672 P 7463 2.75334 -8.47391 0
M  V30 42673 O 7463.22 3.84204 -9.44982 0
M  V30 42674 O 7463.79 1.51982 -8.68909 0
M  V30 42675 O 7463.25 3.29363 -6.99321 0
M  V30 42676 C 7462.31 4.24066 -6.42823 0
M  V30 42677 C 7463.04 5.20775 -5.52155 0
M  V30 42678 O 7463.25 4.56607 -4.22514 0
M  V30 42679 C 7464.44 5.62697 -5.96604 0
M  V30 42680 O 7464.83 6.87667 -5.41053 0
M  V30 42681 C 7465.32 4.52537 -5.39283 0
M  V30 42682 C 7464.61 4.20027 -4.08623 0
M  V30 42683 N 7464.66 2.76189 -3.71603 0
M  V30 42684 H 7461.82 4.79756 -7.24086 0
M  V30 42685 H 7461.55 3.69963 -5.84682 0
M  V30 42686 H 7462.41 6.10431 -5.41508 0
M  V30 42687 H 7465.07 4.78816 -3.28024 0
M  V30 42688 H 7465.35 3.64957 -6.05871 0
M  V30 42689 H 7466.34 4.88748 -5.21323 0
M  V30 42690 H 7464.51 5.66789 -7.0643 0
M  V30 42691 P 7466.38 7.20834 -5.23717 0
M  V30 42692 O 7466.6 8.66104 -5.38572 0
M  V30 42693 O 7467.17 6.33544 -6.1349 0
M  V30 42694 O 7466.63 6.7751 -3.72168 0
M  V30 42695 C 7465.69 7.20825 -2.7076 0
M  V30 42696 C 7466.42 7.45864 -1.40599 0
M  V30 42697 O 7466.63 6.17651 -0.734225 0
M  V30 42698 C 7467.82 8.05808 -1.51899 0
M  V30 42699 O 7468.21 8.74358 -0.335205 0
M  V30 42700 C 7468.7 6.83093 -1.70294 0
M  V30 42701 C 7467.99 5.79992 -0.836974 0
M  V30 42702 N 7468.04 4.41864 -1.38293 0
M  V30 42703 C 7467.96 3.99538 -2.69438 0
M  V30 42704 N 7468.04 2.69909 -2.84277 0
M  V30 42705 C 7468.18 2.21719 -1.5408 0
M  V30 42706 C 7468.31 0.891712 -1.06628 0
M  V30 42707 N 7468.43 0.856846 0.334985 0
M  V30 42708 C 7468.43 1.9641 1.15789 0
M  V30 42709 N 7468.56 1.72708 2.46522 0
M  V30 42710 N 7468.3 3.21165 0.713741 0
M  V30 42711 C 7468.18 3.26797 -0.639748 0
M  V30 42712 H 7465.2 8.13644 -3.0377 0
M  V30 42713 H 7464.93 6.42788 -2.55485 0
M  V30 42714 H 7465.79 8.12039 -0.792769 0
M  V30 42715 P 7469.76 8.91 -3.88885e-10 0
M  V30 42716 O 7469.98 10.1726 0.733694 0
M  V30 42717 O 7470.55 8.73148 -1.23936 0
M  V30 42718 O 7470.01 7.66872 0.971405 0
M  V30 42719 C 7469.07 7.42309 2.04641 0
M  V30 42720 C 7469.8 6.86059 3.24661 0
M  V30 42721 O 7470.01 5.42847 3.03646 0
M  V30 42722 C 7471.2 7.41196 3.50753 0
M  V30 42723 O 7471.59 7.27073 4.86816 0
M  V30 42724 C 7472.08 6.5273 2.63741 0
M  V30 42725 C 7471.37 5.1842 2.73198 0
M  V30 42726 N 7471.42 4.38762 1.4784 0
M  V30 42727 H 7468.58 8.36803 2.32493 0
M  V30 42728 H 7468.31 6.70197 1.71129 0
M  V30 42729 H 7469.17 7.03551 4.13168 0
M  V30 42730 P 7473.14 7.20834 5.23717 0
M  V30 42731 O 7473.36 7.79853 6.57286 0
M  V30 42732 O 7473.93 7.79239 4.12957 0
M  V30 42733 O 7473.39 5.63315 5.29344 0
M  V30 42734 C 7472.45 4.80255 6.01876 0
M  V30 42735 C 7473.18 3.64202 6.65911 0
M  V30 42736 O 7473.39 2.60694 5.64732 0
M  V30 42737 C 7474.58 3.93473 7.1943 0
M  V30 42738 O 7474.97 3.02071 8.21205 0
M  V30 42739 C 7475.46 3.73047 5.97036 0
M  V30 42740 C 7474.75 2.58828 5.25741 0
M  V30 42741 N 7474.8 2.68068 3.77503 0
M  V30 42742 H 7471.96 5.40332 6.79951 0
M  V30 42743 H 7471.69 4.41613 5.32378 0
M  V30 42744 H 7472.55 3.26331 7.47797 0
M  V30 42745 P 7476.52 2.75334 8.47391 0
M  V30 42746 O 7476.74 2.44571 9.90142 0
M  V30 42747 O 7477.31 3.87688 7.92115 0
M  V30 42748 O 7476.77 1.4459 7.59357 0
M  V30 42749 C 7475.83 0.347608 7.69215 0
M  V30 42750 C 7476.56 -0.96767 7.52806 0
M  V30 42751 O 7476.77 -1.21036 6.1011 0
M  V30 42752 C 7477.96 -1.04544 8.13308 0
M  V30 42753 O 7478.35 -2.38311 8.41922 0
M  V30 42754 C 7478.84 -0.491279 7.02284 0
M  V30 42755 C 7478.13 -0.996264 5.77469 0
M  V30 42756 N 7478.18 -0.0501916 4.62973 0
M  V30 42757 H 7475.34 0.374722 8.67691 0
M  V30 42758 H 7475.07 0.443485 6.90277 0
M  V30 42759 H 7475.93 -1.75537 7.96793 0
M  V30 42760 P 7479.9 -2.75334 8.47391 0
M  V30 42761 O 7480.12 -3.84128 9.44797 0
M  V30 42762 O 7480.69 -1.51947 8.68712 0
M  V30 42763 O 7480.15 -3.29363 6.99321 0
M  V30 42764 C 7479.21 -4.24011 6.4274 0
M  V30 42765 C 7479.94 -5.20775 5.52155 0
M  V30 42766 O 7480.15 -4.56534 4.22446 0
M  V30 42767 C 7481.34 -5.62629 5.96531 0
M  V30 42768 O 7481.73 -6.87667 5.41053 0
M  V30 42769 C 7482.22 -4.52537 5.39283 0
M  V30 42770 C 7481.51 -4.20027 4.08623 0
M  V30 42771 N 7481.56 -2.76189 3.71603 0
M  V30 42772 H 7478.72 -4.797 7.24003 0
M  V30 42773 H 7478.45 -3.69856 5.84513 0
M  V30 42774 H 7479.31 -6.10356 5.41441 0
M  V30 42775 P 7483.28 -7.20834 5.23717 0
M  V30 42776 O 7483.5 -8.66104 5.38572 0
M  V30 42777 O 7484.07 -6.33544 6.1349 0
M  V30 42778 O 7483.53 -6.7751 3.72168 0
M  V30 42779 C 7482.59 -7.20825 2.7076 0
M  V30 42780 C 7483.32 -7.45864 1.40599 0
M  V30 42781 O 7483.53 -6.17651 0.734225 0
M  V30 42782 C 7484.72 -8.05808 1.51899 0
M  V30 42783 O 7485.11 -8.74358 0.335205 0
M  V30 42784 C 7485.6 -6.83093 1.70294 0
M  V30 42785 C 7484.89 -5.79992 0.836974 0
M  V30 42786 N 7484.94 -4.41864 1.38293 0
M  V30 42787 H 7482.1 -8.13644 3.0377 0
M  V30 42788 H 7481.83 -6.42788 2.55485 0
M  V30 42789 H 7482.69 -8.12039 0.792769 0
M  V30 42790 P 7486.66 -8.91 3.89994e-10 0
M  V30 42791 O 7486.88 -10.1726 -0.733694 0
M  V30 42792 O 7487.45 -8.73148 1.23936 0
M  V30 42793 O 7486.91 -7.66872 -0.971405 0
M  V30 42794 C 7485.97 -7.42309 -2.04641 0
M  V30 42795 C 7486.7 -6.86059 -3.24661 0
M  V30 42796 O 7486.91 -5.42847 -3.03646 0
M  V30 42797 C 7488.1 -7.41196 -3.50753 0
M  V30 42798 O 7488.49 -7.27073 -4.86816 0
M  V30 42799 C 7488.98 -6.5273 -2.63741 0
M  V30 42800 C 7488.27 -5.1842 -2.73198 0
M  V30 42801 N 7488.32 -4.38762 -1.4784 0
M  V30 42802 H 7485.48 -8.36803 -2.32493 0
M  V30 42803 H 7485.21 -6.70197 -1.71129 0
M  V30 42804 H 7486.07 -7.03551 -4.13168 0
M  V30 42805 P 7490.04 -7.20834 -5.23717 0
M  V30 42806 O 7490.26 -7.79853 -6.57286 0
M  V30 42807 O 7490.83 -7.79239 -4.12957 0
M  V30 42808 O 7490.29 -5.63315 -5.29344 0
M  V30 42809 C 7489.35 -4.80255 -6.01876 0
M  V30 42810 C 7490.08 -3.64202 -6.65911 0
M  V30 42811 O 7490.29 -2.60694 -5.64732 0
M  V30 42812 C 7491.48 -3.93473 -7.1943 0
M  V30 42813 O 7491.87 -3.02071 -8.21205 0
M  V30 42814 C 7492.36 -3.73047 -5.97036 0
M  V30 42815 C 7491.65 -2.58828 -5.25741 0
M  V30 42816 N 7491.7 -2.68068 -3.77503 0
M  V30 42817 H 7488.86 -5.40332 -6.79951 0
M  V30 42818 H 7488.59 -4.41613 -5.32378 0
M  V30 42819 H 7489.45 -3.26331 -7.47797 0
M  V30 42820 P 7493.42 -2.75334 -8.47391 0
M  V30 42821 O 7493.64 -2.44571 -9.90142 0
M  V30 42822 O 7494.21 -3.87688 -7.92115 0
M  V30 42823 O 7493.67 -1.4459 -7.59357 0
M  V30 42824 C 7492.73 -0.347608 -7.69215 0
M  V30 42825 C 7493.46 0.96767 -7.52806 0
M  V30 42826 O 7493.67 1.21036 -6.1011 0
M  V30 42827 C 7494.86 1.04544 -8.13308 0
M  V30 42828 O 7495.25 2.38311 -8.41922 0
M  V30 42829 C 7495.74 0.491279 -7.02284 0
M  V30 42830 C 7495.03 0.996264 -5.77469 0
M  V30 42831 N 7495.08 0.0501916 -4.62973 0
M  V30 42832 H 7492.24 -0.374722 -8.67691 0
M  V30 42833 H 7491.97 -0.443485 -6.90277 0
M  V30 42834 H 7492.83 1.75537 -7.96793 0
M  V30 42835 P 7496.8 2.75334 -8.47391 0
M  V30 42836 O 7497.02 3.84128 -9.44797 0
M  V30 42837 O 7497.59 1.51947 -8.68712 0
M  V30 42838 O 7497.05 3.29363 -6.99321 0
M  V30 42839 C 7496.11 4.24011 -6.4274 0
M  V30 42840 C 7496.84 5.20775 -5.52155 0
M  V30 42841 O 7497.05 4.56534 -4.22446 0
M  V30 42842 C 7498.24 5.62629 -5.96531 0
M  V30 42843 O 7498.63 6.87667 -5.41053 0
M  V30 42844 C 7499.12 4.52537 -5.39283 0
M  V30 42845 C 7498.41 4.20027 -4.08623 0
M  V30 42846 N 7498.46 2.76189 -3.71603 0
M  V30 42847 C 7498.38 1.64862 -4.52822 0
M  V30 42848 N 7498.46 0.512671 -3.88633 0
M  V30 42849 C 7498.6 0.888083 -2.54977 0
M  V30 42850 C 7498.73 0.094668 -1.38677 0
M  V30 42851 N 7498.85 0.890102 -0.232633 0
M  V30 42852 C 7498.85 2.26958 -0.21772 0
M  V30 42853 N 7498.98 2.84626 0.97925 0
M  V30 42854 N 7498.72 3.0178 -1.31033 0
M  V30 42855 C 7498.6 2.26781 -2.43843 0
M  V30 42856 H 7495.62 4.797 -7.24003 0
M  V30 42857 H 7495.35 3.69856 -5.84513 0
M  V30 42858 H 7496.21 6.10356 -5.41441 0
M  V30 42859 P 7500.18 7.20834 -5.23717 0
M  V30 42860 O 7500.4 8.66104 -5.38572 0
M  V30 42861 O 7500.97 6.33544 -6.1349 0
M  V30 42862 O 7500.43 6.7751 -3.72168 0
M  V30 42863 C 7499.49 7.20825 -2.7076 0
M  V30 42864 C 7500.22 7.45864 -1.40599 0
M  V30 42865 O 7500.43 6.17651 -0.734225 0
M  V30 42866 C 7501.62 8.05808 -1.51899 0
M  V30 42867 O 7502.01 8.74358 -0.335205 0
M  V30 42868 C 7502.5 6.83093 -1.70294 0
M  V30 42869 C 7501.79 5.79992 -0.836974 0
M  V30 42870 N 7501.84 4.41864 -1.38293 0
M  V30 42871 H 7499 8.13644 -3.0377 0
M  V30 42872 H 7498.73 6.42788 -2.55485 0
M  V30 42873 H 7499.59 8.12039 -0.792769 0
M  V30 42874 P 7503.56 8.91 -3.91103e-10 0
M  V30 42875 O 7503.78 10.1726 0.733694 0
M  V30 42876 O 7504.35 8.73148 -1.23936 0
M  V30 42877 O 7503.81 7.66872 0.971405 0
M  V30 42878 C 7502.87 7.42309 2.04641 0
M  V30 42879 C 7503.6 6.86059 3.24661 0
M  V30 42880 O 7503.81 5.42847 3.03646 0
M  V30 42881 C 7505 7.41196 3.50753 0
M  V30 42882 O 7505.39 7.27073 4.86816 0
M  V30 42883 C 7505.88 6.5273 2.63741 0
M  V30 42884 C 7505.17 5.1842 2.73198 0
M  V30 42885 N 7505.22 4.38762 1.4784 0
M  V30 42886 H 7502.38 8.36803 2.32493 0
M  V30 42887 H 7502.11 6.70197 1.71129 0
M  V30 42888 H 7502.97 7.03551 4.13168 0
M  V30 42889 P 7506.94 7.20834 5.23717 0
M  V30 42890 O 7507.16 7.79853 6.57286 0
M  V30 42891 O 7507.73 7.79239 4.12957 0
M  V30 42892 O 7507.19 5.63315 5.29344 0
M  V30 42893 C 7506.25 4.80255 6.01876 0
M  V30 42894 C 7506.98 3.64202 6.65911 0
M  V30 42895 O 7507.19 2.60694 5.64732 0
M  V30 42896 C 7508.38 3.93473 7.1943 0
M  V30 42897 O 7508.77 3.02071 8.21205 0
M  V30 42898 C 7509.26 3.73047 5.97036 0
M  V30 42899 C 7508.55 2.58828 5.25741 0
M  V30 42900 N 7508.6 2.68068 3.77503 0
M  V30 42901 H 7505.76 5.40332 6.79951 0
M  V30 42902 H 7505.49 4.41613 5.32378 0
M  V30 42903 H 7506.35 3.26331 7.47797 0
M  V30 42904 P 7510.32 2.75334 8.47391 0
M  V30 42905 O 7510.54 2.44571 9.90142 0
M  V30 42906 O 7511.11 3.87688 7.92115 0
M  V30 42907 O 7510.57 1.4459 7.59357 0
M  V30 42908 C 7509.63 0.347608 7.69215 0
M  V30 42909 C 7510.36 -0.96767 7.52806 0
M  V30 42910 O 7510.57 -1.21036 6.1011 0
M  V30 42911 C 7511.76 -1.04544 8.13308 0
M  V30 42912 O 7512.15 -2.38311 8.41922 0
M  V30 42913 C 7512.64 -0.491279 7.02284 0
M  V30 42914 C 7511.93 -0.996264 5.77469 0
M  V30 42915 N 7511.98 -0.0501916 4.62973 0
M  V30 42916 H 7509.14 0.374722 8.67691 0
M  V30 42917 H 7508.87 0.443485 6.90277 0
M  V30 42918 H 7509.73 -1.75537 7.96793 0
M  V30 42919 P 7513.7 -2.75334 8.47391 0
M  V30 42920 O 7513.92 -3.84128 9.44797 0
M  V30 42921 O 7514.49 -1.51947 8.68712 0
M  V30 42922 O 7513.95 -3.29363 6.99321 0
M  V30 42923 C 7513.01 -4.24011 6.4274 0
M  V30 42924 C 7513.74 -5.20775 5.52155 0
M  V30 42925 O 7513.95 -4.56534 4.22446 0
M  V30 42926 C 7515.14 -5.62629 5.96531 0
M  V30 42927 O 7515.53 -6.87667 5.41053 0
M  V30 42928 C 7516.02 -4.52537 5.39283 0
M  V30 42929 C 7515.31 -4.20027 4.08623 0
M  V30 42930 N 7515.36 -2.76189 3.71603 0
M  V30 42931 H 7512.52 -4.797 7.24003 0
M  V30 42932 H 7512.25 -3.69856 5.84513 0
M  V30 42933 H 7513.11 -6.10356 5.41441 0
M  V30 42934 P 7517.08 -7.20834 5.23717 0
M  V30 42935 O 7517.3 -8.66104 5.38572 0
M  V30 42936 O 7517.87 -6.33544 6.1349 0
M  V30 42937 O 7517.33 -6.7751 3.72168 0
M  V30 42938 C 7516.39 -7.20825 2.7076 0
M  V30 42939 C 7517.12 -7.45864 1.40599 0
M  V30 42940 O 7517.33 -6.17651 0.734225 0
M  V30 42941 C 7518.52 -8.05808 1.51899 0
M  V30 42942 O 7518.91 -8.74358 0.335205 0
M  V30 42943 C 7519.4 -6.83093 1.70294 0
M  V30 42944 C 7518.69 -5.79992 0.836974 0
M  V30 42945 N 7518.74 -4.41864 1.38293 0
M  V30 42946 H 7515.9 -8.13644 3.0377 0
M  V30 42947 H 7515.63 -6.42788 2.55485 0
M  V30 42948 H 7516.49 -8.12039 0.792769 0
M  V30 42949 P 7520.46 -8.91 3.92212e-10 0
M  V30 42950 O 7520.68 -10.1726 -0.733694 0
M  V30 42951 O 7521.25 -8.73148 1.23936 0
M  V30 42952 O 7520.71 -7.66872 -0.971405 0
M  V30 42953 C 7519.77 -7.42309 -2.04641 0
M  V30 42954 C 7520.5 -6.86059 -3.24661 0
M  V30 42955 O 7520.71 -5.42847 -3.03646 0
M  V30 42956 C 7521.9 -7.41196 -3.50753 0
M  V30 42957 O 7522.29 -7.27073 -4.86816 0
M  V30 42958 C 7522.78 -6.5273 -2.63741 0
M  V30 42959 C 7522.07 -5.1842 -2.73198 0
M  V30 42960 N 7522.12 -4.38762 -1.4784 0
M  V30 42961 H 7519.28 -8.36803 -2.32493 0
M  V30 42962 H 7519.01 -6.70197 -1.71129 0
M  V30 42963 H 7519.87 -7.03551 -4.13168 0
M  V30 42964 P 7523.84 -7.20834 -5.23717 0
M  V30 42965 O 7524.06 -7.7993 -6.57351 0
M  V30 42966 O 7524.63 -7.79328 -4.13004 0
M  V30 42967 O 7524.09 -5.63315 -5.29344 0
M  V30 42968 C 7523.15 -4.80193 -6.01798 0
M  V30 42969 C 7523.88 -3.64202 -6.65911 0
M  V30 42970 O 7524.09 -2.60694 -5.64732 0
M  V30 42971 C 7525.28 -3.93473 -7.1943 0
M  V30 42972 O 7525.67 -3.02071 -8.21205 0
M  V30 42973 C 7526.16 -3.73047 -5.97036 0
M  V30 42974 C 7525.45 -2.58828 -5.25741 0
M  V30 42975 N 7525.5 -2.6801 -3.77422 0
M  V30 42976 C 7525.65 -1.50443 -3.07133 0
M  V30 42977 O 7525.74 -0.419406 -3.61576 0
M  V30 42978 N 7525.69 -1.6403 -1.69677 0
M  V30 42979 C 7525.6 -2.81206 -0.986255 0
M  V30 42980 C 7525.45 -3.99158 -1.80325 0
M  V30 42981 C 7525.4 -3.89779 -3.1476 0
M  V30 42982 H 7522.66 -5.40332 -6.79951 0
M  V30 42983 H 7522.39 -4.41549 -5.32301 0
M  V30 42984 H 7523.25 -3.26331 -7.47797 0
M  V30 42985 H 7525.91 -1.6395 -5.56554 0
M  V30 42986 H 7526.19 -4.63439 -5.3432 0
M  V30 42987 H 7527.18 -3.44728 -6.25838 0
M  V30 42988 H 7525.35 -4.96652 -7.57263 0
M  V30 42989 H 7525.27 -4.80159 -3.74441 0
M  V30 42990 P 7527.22 -2.75334 -8.47391 0
M  V30 42991 O 7527.44 -2.44571 -9.90142 0
M  V30 42992 O 7528.01 -3.87688 -7.92115 0
M  V30 42993 O 7527.47 -1.4459 -7.59357 0
M  V30 42994 C 7526.53 -0.347608 -7.69215 0
M  V30 42995 C 7527.26 0.96767 -7.52806 0
M  V30 42996 O 7527.47 1.21036 -6.1011 0
M  V30 42997 C 7528.66 1.04544 -8.13308 0
M  V30 42998 O 7529.05 2.38311 -8.41922 0
M  V30 42999 C 7529.54 0.491279 -7.02284 0
M  V30 43000 C 7528.83 0.996264 -5.77469 0
M  V30 43001 N 7528.88 0.0501916 -4.62973 0
M  V30 43002 H 7526.04 -0.374722 -8.67691 0
M  V30 43003 H 7525.77 -0.443485 -6.90277 0
M  V30 43004 H 7526.63 1.75537 -7.96793 0
M  V30 43005 P 7530.6 2.75334 -8.47391 0
M  V30 43006 O 7530.82 3.84128 -9.44797 0
M  V30 43007 O 7531.39 1.51947 -8.68712 0
M  V30 43008 O 7530.85 3.29363 -6.99321 0
M  V30 43009 C 7529.91 4.24011 -6.4274 0
M  V30 43010 C 7530.64 5.20775 -5.52155 0
M  V30 43011 O 7530.85 4.56534 -4.22446 0
M  V30 43012 C 7532.04 5.62629 -5.96531 0
M  V30 43013 O 7532.43 6.87667 -5.41053 0
M  V30 43014 C 7532.92 4.52537 -5.39283 0
M  V30 43015 C 7532.21 4.20027 -4.08623 0
M  V30 43016 N 7532.26 2.76189 -3.71603 0
M  V30 43017 H 7529.42 4.797 -7.24003 0
M  V30 43018 H 7529.15 3.69856 -5.84513 0
M  V30 43019 H 7530.01 6.10356 -5.41441 0
M  V30 43020 P 7533.98 7.20834 -5.23717 0
M  V30 43021 O 7534.2 8.66104 -5.38572 0
M  V30 43022 O 7534.77 6.33544 -6.1349 0
M  V30 43023 O 7534.23 6.7751 -3.72168 0
M  V30 43024 C 7533.29 7.20825 -2.7076 0
M  V30 43025 C 7534.02 7.45864 -1.40599 0
M  V30 43026 O 7534.23 6.17651 -0.734225 0
M  V30 43027 C 7535.42 8.05808 -1.51899 0
M  V30 43028 O 7535.81 8.74358 -0.335205 0
M  V30 43029 C 7536.3 6.83093 -1.70294 0
M  V30 43030 C 7535.59 5.79992 -0.836974 0
M  V30 43031 N 7535.64 4.41864 -1.38293 0
M  V30 43032 C 7535.56 3.99538 -2.69438 0
M  V30 43033 N 7535.64 2.69909 -2.84277 0
M  V30 43034 C 7535.78 2.21719 -1.5408 0
M  V30 43035 C 7535.91 0.891712 -1.06628 0
M  V30 43036 N 7536.03 0.856846 0.334985 0
M  V30 43037 C 7536.03 1.9641 1.15789 0
M  V30 43038 N 7536.16 1.72708 2.46522 0
M  V30 43039 N 7535.9 3.21165 0.713741 0
M  V30 43040 C 7535.78 3.26797 -0.639748 0
M  V30 43041 H 7532.8 8.13644 -3.0377 0
M  V30 43042 H 7532.53 6.42788 -2.55485 0
M  V30 43043 H 7533.39 8.12039 -0.792769 0
M  V30 43044 P 7537.36 8.91 -3.93321e-10 0
M  V30 43045 O 7537.58 10.1726 0.733694 0
M  V30 43046 O 7538.15 8.73148 -1.23936 0
M  V30 43047 O 7537.61 7.66872 0.971405 0
M  V30 43048 C 7536.67 7.42309 2.04641 0
M  V30 43049 C 7537.4 6.86059 3.24661 0
M  V30 43050 O 7537.61 5.42847 3.03646 0
M  V30 43051 C 7538.8 7.41196 3.50753 0
M  V30 43052 O 7539.19 7.27073 4.86816 0
M  V30 43053 C 7539.68 6.5273 2.63741 0
M  V30 43054 C 7538.97 5.1842 2.73198 0
M  V30 43055 N 7539.02 4.38762 1.4784 0
M  V30 43056 H 7536.18 8.36803 2.32493 0
M  V30 43057 H 7535.91 6.70197 1.71129 0
M  V30 43058 H 7536.77 7.03551 4.13168 0
M  V30 43059 P 7540.74 7.20834 5.23717 0
M  V30 43060 O 7540.96 7.79853 6.57286 0
M  V30 43061 O 7541.53 7.79239 4.12957 0
M  V30 43062 O 7540.99 5.63315 5.29344 0
M  V30 43063 C 7540.05 4.80255 6.01876 0
M  V30 43064 C 7540.78 3.64202 6.65911 0
M  V30 43065 O 7540.99 2.60694 5.64732 0
M  V30 43066 C 7542.18 3.93473 7.1943 0
M  V30 43067 O 7542.57 3.02071 8.21205 0
M  V30 43068 C 7543.06 3.73047 5.97036 0
M  V30 43069 C 7542.35 2.58828 5.25741 0
M  V30 43070 N 7542.4 2.68068 3.77503 0
M  V30 43071 H 7539.56 5.40332 6.79951 0
M  V30 43072 H 7539.29 4.41613 5.32378 0
M  V30 43073 H 7540.15 3.26331 7.47797 0
M  V30 43074 P 7544.12 2.75334 8.47391 0
M  V30 43075 O 7544.34 2.44619 9.90336 0
M  V30 43076 O 7544.91 3.87776 7.92294 0
M  V30 43077 O 7544.37 1.4459 7.59357 0
M  V30 43078 C 7543.43 0.347653 7.69315 0
M  V30 43079 C 7544.16 -0.96767 7.52806 0
M  V30 43080 O 7544.37 -1.21055 6.10208 0
M  V30 43081 C 7545.56 -1.04557 8.13408 0
M  V30 43082 O 7545.95 -2.38311 8.41922 0
M  V30 43083 C 7546.44 -0.491279 7.02284 0
M  V30 43084 C 7545.73 -0.996264 5.77469 0
M  V30 43085 N 7545.78 -0.0501916 4.62973 0
M  V30 43086 C 7545.7 1.31969 4.65661 0
M  V30 43087 N 7545.77 1.86649 3.48119 0
M  V30 43088 C 7545.92 0.792089 2.62406 0
M  V30 43089 C 7546.05 0.705684 1.2207 0
M  V30 43090 N 7546.06 1.76207 0.413762 0
M  V30 43091 N 7546.17 -0.518981 0.685754 0
M  V30 43092 C 7546.16 -1.57595 1.49174 0
M  V30 43093 N 7546.04 -1.62909 2.80066 0
M  V30 43094 C 7545.92 -0.388195 3.3073 0
M  V30 43095 H 7542.94 0.374765 8.67791 0
M  V30 43096 H 7542.67 0.443613 6.90476 0
M  V30 43097 H 7543.53 -1.75559 7.96891 0
M  V30 43098 H 7546.19 -1.94563 5.46818 0
M  V30 43099 H 7546.47 0.608651 7.04676 0
M  V30 43100 H 7547.46 -0.889796 7.09039 0
M  V30 43101 H 7545.63 -0.433128 9.04664 0
M  V30 43102 H 7545.58 1.89246 5.57664 0
M  V30 43103 H 7545.97 2.71005 0.804694 0
M  V30 43104 H 7546.15 1.63189 -0.603768 0
M  V30 43105 H 7546.26 -2.53475 0.997614 0
M  V30 43106 P 7547.5 -2.75334 8.47391 0
M  V30 43107 O 7547.72 -3.84128 9.44797 0
M  V30 43108 O 7548.29 -1.51947 8.68712 0
M  V30 43109 O 7547.75 -3.29363 6.99321 0
M  V30 43110 C 7546.81 -4.24011 6.4274 0
M  V30 43111 C 7547.54 -5.20775 5.52155 0
M  V30 43112 O 7547.75 -4.56534 4.22446 0
M  V30 43113 C 7548.94 -5.62629 5.96531 0
M  V30 43114 O 7549.33 -6.87667 5.41053 0
M  V30 43115 C 7549.82 -4.52537 5.39283 0
M  V30 43116 C 7549.11 -4.20027 4.08623 0
M  V30 43117 N 7549.16 -2.76189 3.71603 0
M  V30 43118 H 7546.32 -4.797 7.24003 0
M  V30 43119 H 7546.05 -3.69856 5.84513 0
M  V30 43120 H 7546.91 -6.10356 5.41441 0
M  V30 43121 P 7550.88 -7.20834 5.23717 0
M  V30 43122 O 7551.1 -8.66104 5.38572 0
M  V30 43123 O 7551.67 -6.33544 6.1349 0
M  V30 43124 O 7551.13 -6.7751 3.72168 0
M  V30 43125 C 7550.19 -7.20825 2.7076 0
M  V30 43126 C 7550.92 -7.45864 1.40599 0
M  V30 43127 O 7551.13 -6.17651 0.734225 0
M  V30 43128 C 7552.32 -8.05808 1.51899 0
M  V30 43129 O 7552.71 -8.74358 0.335205 0
M  V30 43130 C 7553.2 -6.83093 1.70294 0
M  V30 43131 C 7552.49 -5.79992 0.836974 0
M  V30 43132 N 7552.54 -4.41864 1.38293 0
M  V30 43133 H 7549.7 -8.13644 3.0377 0
M  V30 43134 H 7549.43 -6.42788 2.55485 0
M  V30 43135 H 7550.29 -8.12039 0.792769 0
M  V30 43136 P 7554.26 -8.91 3.9443e-10 0
M  V30 43137 O 7554.48 -10.1726 -0.733694 0
M  V30 43138 O 7555.05 -8.73148 1.23936 0
M  V30 43139 O 7554.51 -7.66872 -0.971405 0
M  V30 43140 C 7553.57 -7.42309 -2.04641 0
M  V30 43141 C 7554.3 -6.86059 -3.24661 0
M  V30 43142 O 7554.51 -5.42847 -3.03646 0
M  V30 43143 C 7555.7 -7.41196 -3.50753 0
M  V30 43144 O 7556.09 -7.27073 -4.86816 0
M  V30 43145 C 7556.58 -6.5273 -2.63741 0
M  V30 43146 C 7555.87 -5.1842 -2.73198 0
M  V30 43147 N 7555.92 -4.38762 -1.4784 0
M  V30 43148 H 7553.08 -8.36803 -2.32493 0
M  V30 43149 H 7552.81 -6.70197 -1.71129 0
M  V30 43150 H 7553.67 -7.03551 -4.13168 0
M  V30 43151 P 7557.64 -7.20834 -5.23717 0
M  V30 43152 O 7557.86 -7.79853 -6.57286 0
M  V30 43153 O 7558.43 -7.79239 -4.12957 0
M  V30 43154 O 7557.89 -5.63315 -5.29344 0
M  V30 43155 C 7556.95 -4.80255 -6.01876 0
M  V30 43156 C 7557.68 -3.64202 -6.65911 0
M  V30 43157 O 7557.89 -2.60694 -5.64732 0
M  V30 43158 C 7559.08 -3.93473 -7.1943 0
M  V30 43159 O 7559.47 -3.02071 -8.21205 0
M  V30 43160 C 7559.96 -3.73047 -5.97036 0
M  V30 43161 C 7559.25 -2.58828 -5.25741 0
M  V30 43162 N 7559.3 -2.68068 -3.77503 0
M  V30 43163 C 7559.22 -3.79715 -2.96723 0
M  V30 43164 N 7559.3 -3.5377 -1.68852 0
M  V30 43165 C 7559.44 -2.15054 -1.63254 0
M  V30 43166 C 7559.57 -1.28964 -0.518571 0
M  V30 43167 O 7559.59 -1.56826 0.679156 0
M  V30 43168 N 7559.69 0.0538097 -0.918425 0
M  V30 43169 C 7559.69 0.494275 -2.22578 0
M  V30 43170 N 7559.82 1.81086 -2.40434 0
M  V30 43171 N 7559.56 -0.313645 -3.27502 0
M  V30 43172 C 7559.44 -1.61829 -2.91033 0
M  V30 43173 H 7556.46 -5.40332 -6.79951 0
M  V30 43174 H 7556.19 -4.41613 -5.32378 0
M  V30 43175 H 7557.05 -3.26331 -7.47797 0
M  V30 43176 H 7559.71 -1.63422 -5.56814 0
M  V30 43177 H 7559.99 -4.63374 -5.34244 0
M  V30 43178 H 7560.98 -3.44728 -6.25838 0
M  V30 43179 H 7559.15 -4.96652 -7.57263 0
M  V30 43180 H 7559.1 -4.80617 -3.3614 0
M  V30 43181 H 7559.78 0.742702 -0.199384 0
M  V30 43182 H 7559.82 2.20598 -3.35588 0
M  V30 43183 H 7559.92 2.43518 -1.58945 0
M  V30 43184 P 7561.02 -2.75334 -8.47391 0
M  V30 43185 O 7561.24 -2.44571 -9.90142 0
M  V30 43186 O 7561.81 -3.87688 -7.92115 0
M  V30 43187 O 7561.27 -1.4459 -7.59357 0
M  V30 43188 C 7560.33 -0.347608 -7.69215 0
M  V30 43189 C 7561.06 0.96767 -7.52806 0
M  V30 43190 O 7561.27 1.21036 -6.1011 0
M  V30 43191 C 7562.46 1.04544 -8.13308 0
M  V30 43192 O 7562.85 2.38311 -8.41922 0
M  V30 43193 C 7563.34 0.491279 -7.02284 0
M  V30 43194 C 7562.63 0.996264 -5.77469 0
M  V30 43195 N 7562.68 0.0501916 -4.62973 0
M  V30 43196 H 7559.84 -0.374722 -8.67691 0
M  V30 43197 H 7559.57 -0.443485 -6.90277 0
M  V30 43198 H 7560.43 1.75537 -7.96793 0
M  V30 43199 P 7564.4 2.75334 -8.47391 0
M  V30 43200 O 7564.62 3.84128 -9.44797 0
M  V30 43201 O 7565.19 1.51947 -8.68712 0
M  V30 43202 O 7564.65 3.29363 -6.99321 0
M  V30 43203 C 7563.71 4.24011 -6.4274 0
M  V30 43204 C 7564.44 5.20775 -5.52155 0
M  V30 43205 O 7564.65 4.56534 -4.22446 0
M  V30 43206 C 7565.84 5.62629 -5.96531 0
M  V30 43207 O 7566.23 6.87667 -5.41053 0
M  V30 43208 C 7566.72 4.52537 -5.39283 0
M  V30 43209 C 7566.01 4.20027 -4.08623 0
M  V30 43210 N 7566.06 2.76189 -3.71603 0
M  V30 43211 H 7563.22 4.797 -7.24003 0
M  V30 43212 H 7562.95 3.69856 -5.84513 0
M  V30 43213 H 7563.81 6.10356 -5.41441 0
M  V30 43214 P 7567.78 7.20834 -5.23717 0
M  V30 43215 O 7568 8.66104 -5.38572 0
M  V30 43216 O 7568.57 6.33544 -6.1349 0
M  V30 43217 O 7568.03 6.7751 -3.72168 0
M  V30 43218 C 7567.09 7.20825 -2.7076 0
M  V30 43219 C 7567.82 7.45864 -1.40599 0
M  V30 43220 O 7568.03 6.17651 -0.734225 0
M  V30 43221 C 7569.22 8.05808 -1.51899 0
M  V30 43222 O 7569.61 8.74358 -0.335205 0
M  V30 43223 C 7570.1 6.83093 -1.70294 0
M  V30 43224 C 7569.39 5.79992 -0.836974 0
M  V30 43225 N 7569.44 4.41864 -1.38293 0
M  V30 43226 H 7566.6 8.13644 -3.0377 0
M  V30 43227 H 7566.33 6.42788 -2.55485 0
M  V30 43228 H 7567.19 8.12039 -0.792769 0
M  V30 43229 P 7571.16 8.91 -3.95539e-10 0
M  V30 43230 O 7571.38 10.1726 0.733694 0
M  V30 43231 O 7571.95 8.73148 -1.23936 0
M  V30 43232 O 7571.41 7.66872 0.971405 0
M  V30 43233 C 7570.47 7.42309 2.04641 0
M  V30 43234 C 7571.2 6.86059 3.24661 0
M  V30 43235 O 7571.41 5.42847 3.03646 0
M  V30 43236 C 7572.6 7.41196 3.50753 0
M  V30 43237 O 7572.99 7.27073 4.86816 0
M  V30 43238 C 7573.48 6.5273 2.63741 0
M  V30 43239 C 7572.77 5.1842 2.73198 0
M  V30 43240 N 7572.82 4.38762 1.4784 0
M  V30 43241 H 7569.98 8.36803 2.32493 0
M  V30 43242 H 7569.71 6.70197 1.71129 0
M  V30 43243 H 7570.57 7.03551 4.13168 0
M  V30 43244 P 7574.54 7.20834 5.23717 0
M  V30 43245 O 7574.76 7.79853 6.57286 0
M  V30 43246 O 7575.33 7.79239 4.12957 0
M  V30 43247 O 7574.79 5.63315 5.29344 0
M  V30 43248 C 7573.85 4.80255 6.01876 0
M  V30 43249 C 7574.58 3.64202 6.65911 0
M  V30 43250 O 7574.79 2.60694 5.64732 0
M  V30 43251 C 7575.98 3.93473 7.1943 0
M  V30 43252 O 7576.37 3.02071 8.21205 0
M  V30 43253 C 7576.86 3.73047 5.97036 0
M  V30 43254 C 7576.15 2.58828 5.25741 0
M  V30 43255 N 7576.2 2.68068 3.77503 0
M  V30 43256 H 7573.36 5.40332 6.79951 0
M  V30 43257 H 7573.09 4.41613 5.32378 0
M  V30 43258 H 7573.95 3.26331 7.47797 0
M  V30 43259 P 7577.92 2.75334 8.47391 0
M  V30 43260 O 7578.14 2.44571 9.90142 0
M  V30 43261 O 7578.71 3.87688 7.92115 0
M  V30 43262 O 7578.17 1.4459 7.59357 0
M  V30 43263 C 7577.23 0.347608 7.69215 0
M  V30 43264 C 7577.96 -0.96767 7.52806 0
M  V30 43265 O 7578.17 -1.21036 6.1011 0
M  V30 43266 C 7579.36 -1.04544 8.13308 0
M  V30 43267 O 7579.75 -2.38311 8.41922 0
M  V30 43268 C 7580.24 -0.491279 7.02284 0
M  V30 43269 C 7579.53 -0.996264 5.77469 0
M  V30 43270 N 7579.58 -0.0501916 4.62973 0
M  V30 43271 H 7576.74 0.374722 8.67691 0
M  V30 43272 H 7576.47 0.443485 6.90277 0
M  V30 43273 H 7577.33 -1.75537 7.96793 0
M  V30 43274 P 7581.3 -2.75334 8.47391 0
M  V30 43275 O 7581.52 -3.84128 9.44797 0
M  V30 43276 O 7582.09 -1.51947 8.68712 0
M  V30 43277 O 7581.55 -3.29363 6.99321 0
M  V30 43278 C 7580.61 -4.24011 6.4274 0
M  V30 43279 C 7581.34 -5.20775 5.52155 0
M  V30 43280 O 7581.55 -4.56534 4.22446 0
M  V30 43281 C 7582.74 -5.62629 5.96531 0
M  V30 43282 O 7583.13 -6.87667 5.41053 0
M  V30 43283 C 7583.62 -4.52537 5.39283 0
M  V30 43284 C 7582.91 -4.20027 4.08623 0
M  V30 43285 N 7582.96 -2.76189 3.71603 0
M  V30 43286 H 7580.12 -4.797 7.24003 0
M  V30 43287 H 7579.85 -3.69856 5.84513 0
M  V30 43288 H 7580.71 -6.10356 5.41441 0
M  V30 43289 P 7584.68 -7.20834 5.23717 0
M  V30 43290 O 7584.9 -8.66104 5.38572 0
M  V30 43291 O 7585.47 -6.33544 6.1349 0
M  V30 43292 O 7584.93 -6.7751 3.72168 0
M  V30 43293 C 7583.99 -7.20825 2.7076 0
M  V30 43294 C 7584.72 -7.45864 1.40599 0
M  V30 43295 O 7584.93 -6.17651 0.734225 0
M  V30 43296 C 7586.12 -8.05808 1.51899 0
M  V30 43297 O 7586.51 -8.74358 0.335205 0
M  V30 43298 C 7587 -6.83093 1.70294 0
M  V30 43299 C 7586.29 -5.79992 0.836974 0
M  V30 43300 N 7586.34 -4.41864 1.38293 0
M  V30 43301 C 7586.26 -3.99538 2.69438 0
M  V30 43302 N 7586.34 -2.69909 2.84277 0
M  V30 43303 C 7586.48 -2.21719 1.5408 0
M  V30 43304 C 7586.61 -0.891712 1.06628 0
M  V30 43305 O 7586.63 0.161298 1.70137 0
M  V30 43306 N 7586.73 -0.856846 -0.334985 0
M  V30 43307 C 7586.73 -1.9641 -1.15789 0
M  V30 43308 N 7586.86 -1.72708 -2.46522 0
M  V30 43309 N 7586.6 -3.21165 -0.713741 0
M  V30 43310 C 7586.48 -3.26797 0.639748 0
M  V30 43311 H 7583.5 -8.13644 3.0377 0
M  V30 43312 H 7583.23 -6.42788 2.55485 0
M  V30 43313 H 7584.09 -8.12039 0.792769 0
M  V30 43314 H 7586.75 -5.80061 -0.166416 0
M  V30 43315 H 7587.03 -6.51287 2.75604 0
M  V30 43316 H 7588.02 -7.01734 1.34462 0
M  V30 43317 H 7586.19 -8.73674 2.38337 0
M  V30 43318 H 7586.14 -4.68207 3.53221 0
M  V30 43319 H 7586.82 0.0398818 -0.767965 0
M  V30 43320 H 7586.86 -2.50995 -3.13503 0
M  V30 43321 H 7586.96 -0.759148 -2.80716 0
M  V30 43322 P 7588.06 -8.91 3.96648e-10 0
M  V30 43323 O 7588.28 -10.1726 -0.733694 0
M  V30 43324 O 7588.85 -8.73148 1.23936 0
M  V30 43325 O 7588.31 -7.66872 -0.971405 0
M  V30 43326 C 7587.37 -7.42309 -2.04641 0
M  V30 43327 C 7588.1 -6.86059 -3.24661 0
M  V30 43328 O 7588.31 -5.42847 -3.03646 0
M  V30 43329 C 7589.5 -7.41196 -3.50753 0
M  V30 43330 O 7589.89 -7.27073 -4.86816 0
M  V30 43331 C 7590.38 -6.5273 -2.63741 0
M  V30 43332 C 7589.67 -5.1842 -2.73198 0
M  V30 43333 N 7589.72 -4.38762 -1.4784 0
M  V30 43334 H 7586.88 -8.36803 -2.32493 0
M  V30 43335 H 7586.61 -6.70197 -1.71129 0
M  V30 43336 H 7587.47 -7.03551 -4.13168 0
M  V30 43337 P 7591.44 -7.20834 -5.23717 0
M  V30 43338 O 7591.66 -7.79853 -6.57286 0
M  V30 43339 O 7592.23 -7.79239 -4.12957 0
M  V30 43340 O 7591.69 -5.63315 -5.29344 0
M  V30 43341 C 7590.75 -4.80255 -6.01876 0
M  V30 43342 C 7591.48 -3.64202 -6.65911 0
M  V30 43343 O 7591.69 -2.60694 -5.64732 0
M  V30 43344 C 7592.88 -3.93473 -7.1943 0
M  V30 43345 O 7593.27 -3.02071 -8.21205 0
M  V30 43346 C 7593.76 -3.73047 -5.97036 0
M  V30 43347 C 7593.05 -2.58828 -5.25741 0
M  V30 43348 N 7593.1 -2.68068 -3.77503 0
M  V30 43349 H 7590.26 -5.40332 -6.79951 0
M  V30 43350 H 7589.99 -4.41613 -5.32378 0
M  V30 43351 H 7590.85 -3.26331 -7.47797 0
M  V30 43352 P 7594.82 -2.75334 -8.47391 0
M  V30 43353 O 7595.04 -2.44571 -9.90142 0
M  V30 43354 O 7595.61 -3.87688 -7.92115 0
M  V30 43355 O 7595.07 -1.4459 -7.59357 0
M  V30 43356 C 7594.13 -0.347608 -7.69215 0
M  V30 43357 C 7594.86 0.96767 -7.52806 0
M  V30 43358 O 7595.07 1.21036 -6.1011 0
M  V30 43359 C 7596.26 1.04544 -8.13308 0
M  V30 43360 O 7596.65 2.38311 -8.41922 0
M  V30 43361 C 7597.14 0.491279 -7.02284 0
M  V30 43362 C 7596.43 0.996264 -5.77469 0
M  V30 43363 N 7596.48 0.0501916 -4.62973 0
M  V30 43364 C 7596.4 -1.32786 -4.63244 0
M  V30 43365 N 7596.48 -1.86957 -3.44545 0
M  V30 43366 C 7596.62 -0.780241 -2.58481 0
M  V30 43367 C 7596.75 -0.738536 -1.17757 0
M  V30 43368 O 7596.77 -1.66794 -0.372349 0
M  V30 43369 N 7596.87 0.58337 -0.711393 0
M  V30 43370 C 7596.87 1.70816 -1.51017 0
M  V30 43371 N 7597 2.87826 -0.880757 0
M  V30 43372 N 7596.74 1.67126 -2.8339 0
M  V30 43373 C 7596.62 0.401421 -3.30572 0
M  V30 43374 H 7593.64 -0.374722 -8.67691 0
M  V30 43375 H 7593.37 -0.443485 -6.90277 0
M  V30 43376 H 7594.23 1.75537 -7.96793 0
M  V30 43377 H 7596.89 1.95076 -5.46529 0
M  V30 43378 H 7597.17 -0.608565 -7.04577 0
M  V30 43379 H 7598.16 0.889672 -7.08939 0
M  V30 43380 H 7596.33 0.43308 -9.04564 0
M  V30 43381 H 7596.28 -1.91249 -5.54442 0
M  V30 43382 H 7596.96 0.718054 0.275244 0
M  V30 43383 H 7597 3.75721 -1.41832 0
M  V30 43384 H 7597.1 2.90436 0.145468 0
M  V30 43385 P 7598.2 2.75334 -8.47391 0
M  V30 43386 O 7598.42 3.84128 -9.44797 0
M  V30 43387 O 7598.99 1.51947 -8.68712 0
M  V30 43388 O 7598.45 3.29363 -6.99321 0
M  V30 43389 C 7597.51 4.24011 -6.4274 0
M  V30 43390 C 7598.24 5.20775 -5.52155 0
M  V30 43391 O 7598.45 4.56534 -4.22446 0
M  V30 43392 C 7599.64 5.62629 -5.96531 0
M  V30 43393 O 7600.03 6.87667 -5.41053 0
M  V30 43394 C 7600.52 4.52537 -5.39283 0
M  V30 43395 C 7599.81 4.20027 -4.08623 0
M  V30 43396 N 7599.86 2.76189 -3.71603 0
M  V30 43397 H 7597.02 4.797 -7.24003 0
M  V30 43398 H 7596.75 3.69856 -5.84513 0
M  V30 43399 H 7597.61 6.10356 -5.41441 0
M  V30 43400 P 7601.58 7.20834 -5.23717 0
M  V30 43401 O 7601.8 8.66104 -5.38572 0
M  V30 43402 O 7602.37 6.33544 -6.1349 0
M  V30 43403 O 7601.83 6.7751 -3.72168 0
M  V30 43404 C 7600.89 7.20825 -2.7076 0
M  V30 43405 C 7601.62 7.45864 -1.40599 0
M  V30 43406 O 7601.83 6.17651 -0.734225 0
M  V30 43407 C 7603.02 8.05808 -1.51899 0
M  V30 43408 O 7603.41 8.74358 -0.335205 0
M  V30 43409 C 7603.9 6.83093 -1.70294 0
M  V30 43410 C 7603.19 5.79992 -0.836974 0
M  V30 43411 N 7603.24 4.41864 -1.38293 0
M  V30 43412 H 7600.4 8.13644 -3.0377 0
M  V30 43413 H 7600.13 6.42788 -2.55485 0
M  V30 43414 H 7600.99 8.12039 -0.792769 0
M  V30 43415 P 7604.95 8.91 -3.97757e-10 0
M  V30 43416 O 7605.17 10.1726 0.733694 0
M  V30 43417 O 7605.74 8.73148 -1.23936 0
M  V30 43418 O 7605.2 7.66872 0.971405 0
M  V30 43419 C 7604.26 7.42309 2.04641 0
M  V30 43420 C 7604.99 6.86059 3.24661 0
M  V30 43421 O 7605.2 5.42847 3.03646 0
M  V30 43422 C 7606.39 7.41196 3.50753 0
M  V30 43423 O 7606.78 7.27073 4.86816 0
M  V30 43424 C 7607.27 6.5273 2.63741 0
M  V30 43425 C 7606.56 5.1842 2.73198 0
M  V30 43426 N 7606.61 4.38762 1.4784 0
M  V30 43427 H 7603.78 8.36803 2.32493 0
M  V30 43428 H 7603.51 6.70197 1.71129 0
M  V30 43429 H 7604.37 7.03551 4.13168 0
M  V30 43430 P 7608.33 7.20834 5.23717 0
M  V30 43431 O 7608.55 7.7993 6.57351 0
M  V30 43432 O 7609.12 7.79328 4.13004 0
M  V30 43433 O 7608.58 5.63315 5.29344 0
M  V30 43434 C 7607.64 4.80255 6.01876 0
M  V30 43435 C 7608.37 3.64202 6.65911 0
M  V30 43436 O 7608.58 2.60694 5.64732 0
M  V30 43437 C 7609.77 3.93473 7.1943 0
M  V30 43438 O 7610.16 3.02071 8.21205 0
M  V30 43439 C 7610.65 3.73047 5.97036 0
M  V30 43440 C 7609.94 2.58828 5.25741 0
M  V30 43441 N 7609.99 2.6801 3.77422 0
M  V30 43442 C 7610.14 1.50173 3.05038 0
M  V30 43443 O 7610.23 0.428832 3.665 0
M  V30 43444 N 7610.19 1.70922 1.55541 0
M  V30 43445 C 7610.09 2.7407 1.06402 0
M  V30 43446 N 7610.14 2.74764 -0.260931 0
M  V30 43447 C 7609.94 3.96781 1.78296 0
M  V30 43448 C 7609.89 3.87909 3.13891 0
M  V30 43449 H 7607.15 5.4027 6.79873 0
M  V30 43450 H 7606.89 4.41549 5.32301 0
M  V30 43451 H 7607.75 3.26371 7.47889 0
M  V30 43452 H 7610.41 1.63978 5.5665 0
M  V30 43453 H 7610.69 4.63439 5.3432 0
M  V30 43454 H 7611.68 3.44728 6.25838 0
M  V30 43455 H 7609.84 4.96652 7.57263 0
M  V30 43456 H 7609.77 4.78425 3.73088 0
M  V30 43457 H 7609.87 4.92593 1.26997 0
M  V30 43458 H 7610.26 1.86285 -0.77595 0
M  V30 43459 H 7610.07 3.63657 -0.773896 0
M  V30 43460 P 7611.71 2.75334 8.47391 0
M  V30 43461 O 7611.93 2.44571 9.90142 0
M  V30 43462 O 7612.5 3.87688 7.92115 0
M  V30 43463 O 7611.96 1.4459 7.59357 0
M  V30 43464 C 7611.02 0.347608 7.69215 0
M  V30 43465 C 7611.75 -0.96767 7.52806 0
M  V30 43466 O 7611.96 -1.21036 6.1011 0
M  V30 43467 C 7613.15 -1.04544 8.13308 0
M  V30 43468 O 7613.54 -2.38311 8.41922 0
M  V30 43469 C 7614.03 -0.491279 7.02284 0
M  V30 43470 C 7613.32 -0.996264 5.77469 0
M  V30 43471 N 7613.37 -0.0501916 4.62973 0
M  V30 43472 H 7610.54 0.374722 8.67691 0
M  V30 43473 H 7610.27 0.443485 6.90277 0
M  V30 43474 H 7611.13 -1.75537 7.96793 0
M  V30 43475 P 7615.09 -2.75334 8.47391 0
M  V30 43476 O 7615.31 -3.84128 9.44797 0
M  V30 43477 O 7615.88 -1.51947 8.68712 0
M  V30 43478 O 7615.34 -3.29363 6.99321 0
M  V30 43479 C 7614.4 -4.24011 6.4274 0
M  V30 43480 C 7615.13 -5.20775 5.52155 0
M  V30 43481 O 7615.34 -4.56534 4.22446 0
M  V30 43482 C 7616.53 -5.62629 5.96531 0
M  V30 43483 O 7616.92 -6.87667 5.41053 0
M  V30 43484 C 7617.41 -4.52537 5.39283 0
M  V30 43485 C 7616.7 -4.20027 4.08623 0
M  V30 43486 N 7616.75 -2.76189 3.71603 0
M  V30 43487 H 7613.92 -4.797 7.24003 0
M  V30 43488 H 7613.65 -3.69856 5.84513 0
M  V30 43489 H 7614.51 -6.10356 5.41441 0
M  V30 43490 P 7618.47 -7.20834 5.23717 0
M  V30 43491 O 7618.69 -8.66104 5.38572 0
M  V30 43492 O 7619.26 -6.33544 6.1349 0
M  V30 43493 O 7618.72 -6.7751 3.72168 0
M  V30 43494 C 7617.78 -7.20825 2.7076 0
M  V30 43495 C 7618.51 -7.45864 1.40599 0
M  V30 43496 O 7618.72 -6.17651 0.734225 0
M  V30 43497 C 7619.91 -8.05808 1.51899 0
M  V30 43498 O 7620.3 -8.74358 0.335205 0
M  V30 43499 C 7620.79 -6.83093 1.70294 0
M  V30 43500 C 7620.08 -5.79992 0.836974 0
M  V30 43501 N 7620.13 -4.41864 1.38293 0
M  V30 43502 H 7617.3 -8.13644 3.0377 0
M  V30 43503 H 7617.03 -6.42788 2.55485 0
M  V30 43504 H 7617.89 -8.12039 0.792769 0
M  V30 43505 P 7621.85 -8.91 3.98866e-10 0
M  V30 43506 O 7622.07 -10.1726 -0.733694 0
M  V30 43507 O 7622.64 -8.73148 1.23936 0
M  V30 43508 O 7622.1 -7.66872 -0.971405 0
M  V30 43509 C 7621.16 -7.42309 -2.04641 0
M  V30 43510 C 7621.89 -6.86059 -3.24661 0
M  V30 43511 O 7622.1 -5.42847 -3.03646 0
M  V30 43512 C 7623.29 -7.41196 -3.50753 0
M  V30 43513 O 7623.68 -7.27073 -4.86816 0
M  V30 43514 C 7624.17 -6.5273 -2.63741 0
M  V30 43515 C 7623.46 -5.1842 -2.73198 0
M  V30 43516 N 7623.51 -4.38762 -1.4784 0
M  V30 43517 H 7620.68 -8.36803 -2.32493 0
M  V30 43518 H 7620.41 -6.70197 -1.71129 0
M  V30 43519 H 7621.27 -7.03551 -4.13168 0
M  V30 43520 P 7625.23 -7.20834 -5.23717 0
M  V30 43521 O 7625.45 -7.79853 -6.57286 0
M  V30 43522 O 7626.02 -7.79239 -4.12957 0
M  V30 43523 O 7625.48 -5.63315 -5.29344 0
M  V30 43524 C 7624.54 -4.80255 -6.01876 0
M  V30 43525 C 7625.27 -3.64202 -6.65911 0
M  V30 43526 O 7625.48 -2.60694 -5.64732 0
M  V30 43527 C 7626.67 -3.93473 -7.1943 0
M  V30 43528 O 7627.06 -3.02071 -8.21205 0
M  V30 43529 C 7627.55 -3.73047 -5.97036 0
M  V30 43530 C 7626.84 -2.58828 -5.25741 0
M  V30 43531 N 7626.89 -2.68068 -3.77503 0
M  V30 43532 H 7624.06 -5.40332 -6.79951 0
M  V30 43533 H 7623.79 -4.41613 -5.32378 0
M  V30 43534 H 7624.65 -3.26331 -7.47797 0
M  V30 43535 P 7628.61 -2.75334 -8.47391 0
M  V30 43536 O 7628.83 -2.44571 -9.90142 0
M  V30 43537 O 7629.4 -3.87688 -7.92115 0
M  V30 43538 O 7628.86 -1.4459 -7.59357 0
M  V30 43539 C 7627.92 -0.347608 -7.69215 0
M  V30 43540 C 7628.65 0.96767 -7.52806 0
M  V30 43541 O 7628.86 1.21036 -6.1011 0
M  V30 43542 C 7630.05 1.04544 -8.13308 0
M  V30 43543 O 7630.44 2.38311 -8.41922 0
M  V30 43544 C 7630.93 0.491279 -7.02284 0
M  V30 43545 C 7630.22 0.996264 -5.77469 0
M  V30 43546 N 7630.27 0.0501916 -4.62973 0
M  V30 43547 H 7627.44 -0.374722 -8.67691 0
M  V30 43548 H 7627.17 -0.443485 -6.90277 0
M  V30 43549 H 7628.03 1.75537 -7.96793 0
M  V30 43550 P 7631.99 2.75334 -8.47391 0
M  V30 43551 O 7632.21 3.84204 -9.44982 0
M  V30 43552 O 7632.78 1.51982 -8.68909 0
M  V30 43553 O 7632.24 3.29363 -6.99321 0
M  V30 43554 C 7631.3 4.24066 -6.42823 0
M  V30 43555 C 7632.03 5.20775 -5.52155 0
M  V30 43556 O 7632.24 4.56607 -4.22514 0
M  V30 43557 C 7633.43 5.62697 -5.96604 0
M  V30 43558 O 7633.82 6.87667 -5.41053 0
M  V30 43559 C 7634.31 4.52537 -5.39283 0
M  V30 43560 C 7633.6 4.20027 -4.08623 0
M  V30 43561 N 7633.65 2.76189 -3.71603 0
M  V30 43562 H 7630.82 4.79756 -7.24086 0
M  V30 43563 H 7630.54 3.69963 -5.84682 0
M  V30 43564 H 7631.41 6.10431 -5.41508 0
M  V30 43565 H 7634.07 4.78816 -3.28024 0
M  V30 43566 H 7634.35 3.64957 -6.05871 0
M  V30 43567 H 7635.34 4.88748 -5.21323 0
M  V30 43568 H 7633.5 5.66789 -7.0643 0
M  V30 43569 P 7635.37 7.20834 -5.23717 0
M  V30 43570 O 7635.59 8.66104 -5.38572 0
M  V30 43571 O 7636.16 6.33544 -6.1349 0
M  V30 43572 O 7635.62 6.7751 -3.72168 0
M  V30 43573 C 7634.68 7.20825 -2.7076 0
M  V30 43574 C 7635.41 7.45864 -1.40599 0
M  V30 43575 O 7635.62 6.17651 -0.734225 0
M  V30 43576 C 7636.81 8.05808 -1.51899 0
M  V30 43577 O 7637.2 8.74358 -0.335205 0
M  V30 43578 C 7637.69 6.83093 -1.70294 0
M  V30 43579 C 7636.98 5.79992 -0.836974 0
M  V30 43580 N 7637.03 4.41864 -1.38293 0
M  V30 43581 H 7634.2 8.13644 -3.0377 0
M  V30 43582 H 7633.93 6.42788 -2.55485 0
M  V30 43583 H 7634.79 8.12039 -0.792769 0
M  V30 43584 P 7638.75 8.91 -3.99975e-10 0
M  V30 43585 O 7638.97 10.1726 0.733694 0
M  V30 43586 O 7639.54 8.73148 -1.23936 0
M  V30 43587 O 7639 7.66872 0.971405 0
M  V30 43588 C 7638.06 7.42309 2.04641 0
M  V30 43589 C 7638.79 6.86059 3.24661 0
M  V30 43590 O 7639 5.42847 3.03646 0
M  V30 43591 C 7640.19 7.41196 3.50753 0
M  V30 43592 O 7640.58 7.27073 4.86816 0
M  V30 43593 C 7641.07 6.5273 2.63741 0
M  V30 43594 C 7640.36 5.1842 2.73198 0
M  V30 43595 N 7640.41 4.38762 1.4784 0
M  V30 43596 H 7637.58 8.36803 2.32493 0
M  V30 43597 H 7637.31 6.70197 1.71129 0
M  V30 43598 H 7638.17 7.03551 4.13168 0
M  V30 43599 P 7642.13 7.20834 5.23717 0
M  V30 43600 O 7642.35 7.80006 6.57415 0
M  V30 43601 O 7642.92 7.79416 4.13051 0
M  V30 43602 O 7642.38 5.63315 5.29344 0
M  V30 43603 C 7641.44 4.80318 6.01954 0
M  V30 43604 C 7642.17 3.64202 6.65911 0
M  V30 43605 O 7642.38 2.60736 5.64823 0
M  V30 43606 C 7643.57 3.93521 7.19518 0
M  V30 43607 O 7643.96 3.02071 8.21205 0
M  V30 43608 C 7644.45 3.73047 5.97036 0
M  V30 43609 C 7643.74 2.58828 5.25741 0
M  V30 43610 N 7643.79 2.68068 3.77503 0
M  V30 43611 C 7643.71 3.80474 2.99159 0
M  V30 43612 N 7643.78 3.55622 1.71925 0
M  V30 43613 C 7643.93 2.1832 1.65733 0
M  V30 43614 C 7644.06 1.28842 0.572777 0
M  V30 43615 N 7644.07 1.66875 -0.70098 0
M  V30 43616 N 7644.18 -0.016788 0.859836 0
M  V30 43617 C 7644.17 -0.398145 2.13316 0
M  V30 43618 N 7644.05 0.328224 3.22333 0
M  V30 43619 C 7643.93 1.62992 2.90383 0
M  V30 43620 H 7640.96 5.40394 6.8003 0
M  V30 43621 H 7640.68 4.41741 5.32532 0
M  V30 43622 H 7641.55 3.26371 7.47889 0
M  V30 43623 H 7644.21 1.64007 5.56746 0
M  V30 43624 H 7644.49 4.63439 5.3432 0
M  V30 43625 H 7645.48 3.44776 6.25925 0
M  V30 43626 H 7643.64 4.96707 7.57347 0
M  V30 43627 H 7643.6 4.8089 3.39924 0
M  V30 43628 H 7643.98 2.66547 -0.941919 0
M  V30 43629 H 7644.17 0.965341 -1.44766 0
M  V30 43630 H 7644.28 -1.46427 2.29697 0
M  V30 43631 P 7645.51 2.75334 8.47391 0
M  V30 43632 O 7645.73 2.44571 9.90142 0
M  V30 43633 O 7646.3 3.87688 7.92115 0
M  V30 43634 O 7645.76 1.4459 7.59357 0
M  V30 43635 C 7644.82 0.347608 7.69215 0
M  V30 43636 C 7645.55 -0.96767 7.52806 0
M  V30 43637 O 7645.76 -1.21036 6.1011 0
M  V30 43638 C 7646.95 -1.04544 8.13308 0
M  V30 43639 O 7647.34 -2.38311 8.41922 0
M  V30 43640 C 7647.83 -0.491279 7.02284 0
M  V30 43641 C 7647.12 -0.996264 5.77469 0
M  V30 43642 N 7647.17 -0.0501916 4.62973 0
M  V30 43643 H 7644.34 0.374722 8.67691 0
M  V30 43644 H 7644.07 0.443485 6.90277 0
M  V30 43645 H 7644.93 -1.75537 7.96793 0
M  V30 43646 P 7648.89 -2.75334 8.47391 0
M  V30 43647 O 7649.11 -3.84204 9.44982 0
M  V30 43648 O 7649.68 -1.51982 8.68909 0
M  V30 43649 O 7649.14 -3.29363 6.99321 0
M  V30 43650 C 7648.2 -4.24066 6.42823 0
M  V30 43651 C 7648.93 -5.20775 5.52155 0
M  V30 43652 O 7649.14 -4.56607 4.22514 0
M  V30 43653 C 7650.33 -5.62697 5.96604 0
M  V30 43654 O 7650.72 -6.87667 5.41053 0
M  V30 43655 C 7651.21 -4.52537 5.39283 0
M  V30 43656 C 7650.5 -4.20027 4.08623 0
M  V30 43657 N 7650.55 -2.76189 3.71603 0
M  V30 43658 H 7647.72 -4.79756 7.24086 0
M  V30 43659 H 7647.44 -3.69963 5.84682 0
M  V30 43660 H 7648.31 -6.10431 5.41508 0
M  V30 43661 H 7650.97 -4.78816 3.28024 0
M  V30 43662 H 7651.25 -3.64957 6.05871 0
M  V30 43663 H 7652.24 -4.88748 5.21323 0
M  V30 43664 H 7650.4 -5.66789 7.0643 0
M  V30 43665 P 7652.27 -7.20834 5.23717 0
M  V30 43666 O 7652.49 -8.66104 5.38572 0
M  V30 43667 O 7653.06 -6.33544 6.1349 0
M  V30 43668 O 7652.52 -6.7751 3.72168 0
M  V30 43669 C 7651.58 -7.20825 2.7076 0
M  V30 43670 C 7652.31 -7.45864 1.40599 0
M  V30 43671 O 7652.52 -6.17651 0.734225 0
M  V30 43672 C 7653.71 -8.05808 1.51899 0
M  V30 43673 O 7654.1 -8.74358 0.335205 0
M  V30 43674 C 7654.59 -6.83093 1.70294 0
M  V30 43675 C 7653.88 -5.79992 0.836974 0
M  V30 43676 N 7653.93 -4.41864 1.38293 0
M  V30 43677 H 7651.1 -8.13644 3.0377 0
M  V30 43678 H 7650.83 -6.42788 2.55485 0
M  V30 43679 H 7651.69 -8.12039 0.792769 0
M  V30 43680 P 7655.65 -8.91 4.01084e-10 0
M  V30 43681 O 7655.87 -10.1736 -0.733766 0
M  V30 43682 O 7656.44 -8.73247 1.2395 0
M  V30 43683 O 7655.9 -7.66872 -0.971405 0
M  V30 43684 C 7654.96 -7.42212 -2.04614 0
M  V30 43685 C 7655.69 -6.86059 -3.24661 0
M  V30 43686 O 7655.9 -5.42847 -3.03646 0
M  V30 43687 C 7657.09 -7.41196 -3.50753 0
M  V30 43688 O 7657.48 -7.27073 -4.86816 0
M  V30 43689 C 7657.97 -6.5273 -2.63741 0
M  V30 43690 C 7657.26 -5.1842 -2.73198 0
M  V30 43691 N 7657.31 -4.38668 -1.47808 0
M  V30 43692 C 7657.46 -3.02239 -1.60048 0
M  V30 43693 O 7657.55 -2.46459 -2.67869 0
M  V30 43694 N 7657.5 -2.32436 -0.408571 0
M  V30 43695 C 7657.41 -2.85471 0.854993 0
M  V30 43696 O 7657.46 -2.12566 1.8531 0
M  V30 43697 C 7657.26 -4.28918 0.887335 0
M  V30 43698 C 7657.15 -4.91066 2.24619 0
M  V30 43699 C 7657.21 -5.00349 -0.255399 0
M  V30 43700 H 7654.47 -8.36803 -2.32493 0
M  V30 43701 H 7654.21 -6.701 -1.71105 0
M  V30 43702 H 7655.07 -7.03551 -4.13168 0
M  V30 43703 H 7657.73 -4.59773 -3.53894 0
M  V30 43704 H 7658.01 -6.88995 -1.59871 0
M  V30 43705 H 7659 -6.46749 -3.03687 0
M  V30 43706 H 7657.16 -8.46908 -3.20714 0
M  V30 43707 H 7657.09 -6.08548 -0.206986 0
M  V30 43708 H 7658.12 -5.34836 2.53099 0
M  V30 43709 H 7656.39 -5.69638 2.2291 0
M  V30 43710 H 7656.87 -4.13971 2.98044 0
M  V30 43711 H 7657.61 -1.33211 -0.474216 0
M  V30 43712 P 7659.03 -7.20834 -5.23717 0
M  V30 43713 O 7659.25 -7.79853 -6.57286 0
M  V30 43714 O 7659.82 -7.79239 -4.12957 0
M  V30 43715 O 7659.28 -5.63315 -5.29344 0
M  V30 43716 C 7658.34 -4.80255 -6.01876 0
M  V30 43717 C 7659.07 -3.64202 -6.65911 0
M  V30 43718 O 7659.28 -2.60694 -5.64732 0
M  V30 43719 C 7660.47 -3.93473 -7.1943 0
M  V30 43720 O 7660.86 -3.02071 -8.21205 0
M  V30 43721 C 7661.35 -3.73047 -5.97036 0
M  V30 43722 C 7660.64 -2.58828 -5.25741 0
M  V30 43723 N 7660.69 -2.68068 -3.77503 0
M  V30 43724 H 7657.86 -5.40332 -6.79951 0
M  V30 43725 H 7657.59 -4.41613 -5.32378 0
M  V30 43726 H 7658.45 -3.26331 -7.47797 0
M  V30 43727 P 7662.41 -2.75334 -8.47391 0
M  V30 43728 O 7662.63 -2.44571 -9.90142 0
M  V30 43729 O 7663.2 -3.87688 -7.92115 0
M  V30 43730 O 7662.66 -1.4459 -7.59357 0
M  V30 43731 C 7661.72 -0.347608 -7.69215 0
M  V30 43732 C 7662.45 0.96767 -7.52806 0
M  V30 43733 O 7662.66 1.21036 -6.1011 0
M  V30 43734 C 7663.85 1.04544 -8.13308 0
M  V30 43735 O 7664.24 2.38311 -8.41922 0
M  V30 43736 C 7664.73 0.491279 -7.02284 0
M  V30 43737 C 7664.02 0.996264 -5.77469 0
M  V30 43738 N 7664.07 0.0501916 -4.62973 0
M  V30 43739 H 7661.24 -0.374722 -8.67691 0
M  V30 43740 H 7660.97 -0.443485 -6.90277 0
M  V30 43741 H 7661.83 1.75537 -7.96793 0
M  V30 43742 P 7665.79 2.75334 -8.47391 0
M  V30 43743 O 7666.01 3.84128 -9.44797 0
M  V30 43744 O 7666.58 1.51947 -8.68712 0
M  V30 43745 O 7666.04 3.29363 -6.99321 0
M  V30 43746 C 7665.1 4.24011 -6.4274 0
M  V30 43747 C 7665.83 5.20775 -5.52155 0
M  V30 43748 O 7666.04 4.56534 -4.22446 0
M  V30 43749 C 7667.23 5.62629 -5.96531 0
M  V30 43750 O 7667.62 6.87667 -5.41053 0
M  V30 43751 C 7668.11 4.52537 -5.39283 0
M  V30 43752 C 7667.4 4.20027 -4.08623 0
M  V30 43753 N 7667.45 2.76189 -3.71603 0
M  V30 43754 C 7667.37 1.64862 -4.52822 0
M  V30 43755 N 7667.45 0.512671 -3.88633 0
M  V30 43756 C 7667.59 0.888083 -2.54977 0
M  V30 43757 C 7667.72 0.094668 -1.38677 0
M  V30 43758 N 7667.84 0.890102 -0.232633 0
M  V30 43759 C 7667.84 2.26958 -0.21772 0
M  V30 43760 N 7667.97 2.84626 0.97925 0
M  V30 43761 N 7667.71 3.0178 -1.31033 0
M  V30 43762 C 7667.59 2.26781 -2.43843 0
M  V30 43763 H 7664.62 4.797 -7.24003 0
M  V30 43764 H 7664.35 3.69856 -5.84513 0
M  V30 43765 H 7665.21 6.10356 -5.41441 0
M  V30 43766 P 7669.17 7.20834 -5.23717 0
M  V30 43767 O 7669.39 8.66104 -5.38572 0
M  V30 43768 O 7669.96 6.33544 -6.1349 0
M  V30 43769 O 7669.42 6.7751 -3.72168 0
M  V30 43770 C 7668.48 7.20825 -2.7076 0
M  V30 43771 C 7669.21 7.45864 -1.40599 0
M  V30 43772 O 7669.42 6.17651 -0.734225 0
M  V30 43773 C 7670.61 8.05808 -1.51899 0
M  V30 43774 O 7671 8.74358 -0.335205 0
M  V30 43775 C 7671.49 6.83093 -1.70294 0
M  V30 43776 C 7670.78 5.79992 -0.836974 0
M  V30 43777 N 7670.83 4.41864 -1.38293 0
M  V30 43778 H 7668 8.13644 -3.0377 0
M  V30 43779 H 7667.73 6.42788 -2.55485 0
M  V30 43780 H 7668.59 8.12039 -0.792769 0
M  V30 43781 P 7672.55 8.91 -4.02193e-10 0
M  V30 43782 O 7672.77 10.1726 0.733694 0
M  V30 43783 O 7673.34 8.73148 -1.23936 0
M  V30 43784 O 7672.8 7.66872 0.971405 0
M  V30 43785 C 7671.86 7.42309 2.04641 0
M  V30 43786 C 7672.59 6.86059 3.24661 0
M  V30 43787 O 7672.8 5.42847 3.03646 0
M  V30 43788 C 7673.99 7.41196 3.50753 0
M  V30 43789 O 7674.38 7.27073 4.86816 0
M  V30 43790 C 7674.87 6.5273 2.63741 0
M  V30 43791 C 7674.16 5.1842 2.73198 0
M  V30 43792 N 7674.21 4.38762 1.4784 0
M  V30 43793 C 7674.13 4.81605 0.168631 0
M  V30 43794 N 7674.21 3.85454 -0.713363 0
M  V30 43795 C 7674.35 2.6994 0.0566958 0
M  V30 43796 C 7674.48 1.34815 -0.338502 0
M  V30 43797 O 7674.5 0.869548 -1.47125 0
M  V30 43798 N 7674.6 0.496304 0.77465 0
M  V30 43799 C 7674.6 0.908403 2.09122 0
M  V30 43800 N 7674.73 -0.0517805 3.00955 0
M  V30 43801 N 7674.47 2.17875 2.46519 0
M  V30 43802 C 7674.35 3.01988 1.4033 0
M  V30 43803 H 7671.38 8.36803 2.32493 0
M  V30 43804 H 7671.11 6.70197 1.71129 0
M  V30 43805 H 7671.97 7.03551 4.13168 0
M  V30 43806 H 7674.63 4.59498 3.54415 0
M  V30 43807 H 7674.91 6.88898 1.59848 0
M  V30 43808 H 7675.9 6.46749 3.03687 0
M  V30 43809 H 7674.06 8.46908 3.20714 0
M  V30 43810 H 7674.02 5.86405 -0.105564 0
M  V30 43811 H 7674.7 -0.483664 0.597855 0
M  V30 43812 H 7674.73 0.187865 4.0116 0
M  V30 43813 H 7674.84 -1.03585 2.71726 0
M  V30 43814 P 7675.93 7.20834 5.23717 0
M  V30 43815 O 7676.15 7.79853 6.57286 0
M  V30 43816 O 7676.72 7.79239 4.12957 0
M  V30 43817 O 7676.18 5.63315 5.29344 0
M  V30 43818 C 7675.24 4.80255 6.01876 0
M  V30 43819 C 7675.97 3.64202 6.65911 0
M  V30 43820 O 7676.18 2.60694 5.64732 0
M  V30 43821 C 7677.37 3.93473 7.1943 0
M  V30 43822 O 7677.76 3.02071 8.21205 0
M  V30 43823 C 7678.25 3.73047 5.97036 0
M  V30 43824 C 7677.54 2.58828 5.25741 0
M  V30 43825 N 7677.59 2.68068 3.77503 0
M  V30 43826 H 7674.76 5.40332 6.79951 0
M  V30 43827 H 7674.49 4.41613 5.32378 0
M  V30 43828 H 7675.35 3.26331 7.47797 0
M  V30 43829 P 7679.31 2.75334 8.47391 0
M  V30 43830 O 7679.53 2.44571 9.90142 0
M  V30 43831 O 7680.1 3.87688 7.92115 0
M  V30 43832 O 7679.56 1.4459 7.59357 0
M  V30 43833 C 7678.62 0.347608 7.69215 0
M  V30 43834 C 7679.35 -0.96767 7.52806 0
M  V30 43835 O 7679.56 -1.21036 6.1011 0
M  V30 43836 C 7680.75 -1.04544 8.13308 0
M  V30 43837 O 7681.14 -2.38311 8.41922 0
M  V30 43838 C 7681.63 -0.491279 7.02284 0
M  V30 43839 C 7680.92 -0.996264 5.77469 0
M  V30 43840 N 7680.97 -0.0501916 4.62973 0
M  V30 43841 H 7678.14 0.374722 8.67691 0
M  V30 43842 H 7677.87 0.443485 6.90277 0
M  V30 43843 H 7678.73 -1.75537 7.96793 0
M  V30 43844 P 7682.69 -2.75334 8.47391 0
M  V30 43845 O 7682.91 -3.84166 9.4489 0
M  V30 43846 O 7683.48 -1.51964 8.6881 0
M  V30 43847 O 7682.94 -3.29363 6.99321 0
M  V30 43848 C 7682 -4.23956 6.42656 0
M  V30 43849 C 7682.73 -5.20775 5.52155 0
M  V30 43850 O 7682.94 -4.56534 4.22446 0
M  V30 43851 C 7684.13 -5.62629 5.96531 0
M  V30 43852 O 7684.52 -6.87667 5.41053 0
M  V30 43853 C 7685.01 -4.52537 5.39283 0
M  V30 43854 C 7684.3 -4.20027 4.08623 0
M  V30 43855 N 7684.35 -2.7613 3.71522 0
M  V30 43856 C 7684.5 -2.45612 2.37989 0
M  V30 43857 O 7684.59 -3.30919 1.51621 0
M  V30 43858 N 7684.54 -1.10684 2.08435 0
M  V30 43859 C 7684.45 -0.0690084 2.9792 0
M  V30 43860 C 7684.3 -0.481522 4.35345 0
M  V30 43861 C 7684.25 -1.78906 4.67968 0
M  V30 43862 H 7681.51 -4.797 7.24003 0
M  V30 43863 H 7681.25 -3.69802 5.84429 0
M  V30 43864 H 7682.11 -6.10356 5.41441 0
M  V30 43865 H 7684.77 -4.78651 3.27911 0
M  V30 43866 H 7685.05 -3.64957 6.05871 0
M  V30 43867 H 7686.04 -4.8868 5.2125 0
M  V30 43868 H 7684.2 -5.66726 7.06352 0
M  V30 43869 H 7684.13 -2.07737 5.72367 0
M  V30 43870 P 7686.07 -7.20834 5.23717 0
M  V30 43871 O 7686.29 -8.66274 5.38678 0
M  V30 43872 O 7686.86 -6.33687 6.13629 0
M  V30 43873 O 7686.32 -6.7751 3.72168 0
M  V30 43874 C 7685.38 -7.20919 2.70795 0
M  V30 43875 C 7686.11 -7.45864 1.40599 0
M  V30 43876 O 7686.32 -6.17751 0.734343 0
M  V30 43877 C 7687.51 -8.05906 1.51917 0
M  V30 43878 O 7687.9 -8.74358 0.335205 0
M  V30 43879 C 7688.39 -6.83093 1.70294 0
M  V30 43880 C 7687.68 -5.79992 0.836974 0
M  V30 43881 N 7687.73 -4.41864 1.38293 0
M  V30 43882 H 7684.9 -8.13738 3.03804 0
M  V30 43883 H 7684.62 -6.42974 2.55559 0
M  V30 43884 H 7685.49 -8.12139 0.792866 0
M  V30 43885 H 7688.15 -5.80178 -0.160643 0
M  V30 43886 H 7688.43 -6.51379 2.75643 0
M  V30 43887 H 7689.42 -7.01832 1.3448 0
M  V30 43888 H 7687.58 -8.73771 2.38364 0
M  V30 43889 P 7689.45 -8.91 4.03302e-10 0
M  V30 43890 O 7689.67 -10.1726 -0.733694 0
M  V30 43891 O 7690.24 -8.73148 1.23936 0
M  V30 43892 O 7689.7 -7.66872 -0.971405 0
M  V30 43893 C 7688.76 -7.42309 -2.04641 0
M  V30 43894 C 7689.49 -6.86059 -3.24661 0
M  V30 43895 O 7689.7 -5.42847 -3.03646 0
M  V30 43896 C 7690.89 -7.41196 -3.50753 0
M  V30 43897 O 7691.28 -7.27073 -4.86816 0
M  V30 43898 C 7691.77 -6.5273 -2.63741 0
M  V30 43899 C 7691.06 -5.1842 -2.73198 0
M  V30 43900 N 7691.11 -4.38762 -1.4784 0
M  V30 43901 H 7688.28 -8.36803 -2.32493 0
M  V30 43902 H 7688.01 -6.70197 -1.71129 0
M  V30 43903 H 7688.87 -7.03551 -4.13168 0
M  V30 43904 P 7692.83 -7.20834 -5.23717 0
M  V30 43905 O 7693.05 -7.79853 -6.57286 0
M  V30 43906 O 7693.62 -7.79239 -4.12957 0
M  V30 43907 O 7693.08 -5.63315 -5.29344 0
M  V30 43908 C 7692.14 -4.80255 -6.01876 0
M  V30 43909 C 7692.87 -3.64202 -6.65911 0
M  V30 43910 O 7693.08 -2.60694 -5.64732 0
M  V30 43911 C 7694.27 -3.93473 -7.1943 0
M  V30 43912 O 7694.66 -3.02071 -8.21205 0
M  V30 43913 C 7695.15 -3.73047 -5.97036 0
M  V30 43914 C 7694.44 -2.58828 -5.25741 0
M  V30 43915 N 7694.49 -2.68068 -3.77503 0
M  V30 43916 H 7691.66 -5.40332 -6.79951 0
M  V30 43917 H 7691.39 -4.41613 -5.32378 0
M  V30 43918 H 7692.25 -3.26331 -7.47797 0
M  V30 43919 P 7696.21 -2.75334 -8.47391 0
M  V30 43920 O 7696.43 -2.44619 -9.90336 0
M  V30 43921 O 7697 -3.87776 -7.92294 0
M  V30 43922 O 7696.46 -1.4459 -7.59357 0
M  V30 43923 C 7695.52 -0.347653 -7.69315 0
M  V30 43924 C 7696.25 0.96767 -7.52806 0
M  V30 43925 O 7696.46 1.21055 -6.10208 0
M  V30 43926 C 7697.65 1.04557 -8.13408 0
M  V30 43927 O 7698.04 2.38311 -8.41922 0
M  V30 43928 C 7698.53 0.491279 -7.02284 0
M  V30 43929 C 7697.82 0.996264 -5.77469 0
M  V30 43930 N 7697.87 0.0501916 -4.62973 0
M  V30 43931 C 7697.79 -1.31969 -4.65661 0
M  V30 43932 N 7697.86 -1.86649 -3.48119 0
M  V30 43933 C 7698.01 -0.792089 -2.62406 0
M  V30 43934 C 7698.14 -0.705684 -1.2207 0
M  V30 43935 N 7698.15 -1.76207 -0.413762 0
M  V30 43936 N 7698.26 0.518981 -0.685754 0
M  V30 43937 C 7698.25 1.57595 -1.49174 0
M  V30 43938 N 7698.13 1.62909 -2.80066 0
M  V30 43939 C 7698.01 0.388195 -3.3073 0
M  V30 43940 H 7695.04 -0.374765 -8.67791 0
M  V30 43941 H 7694.76 -0.443613 -6.90476 0
M  V30 43942 H 7695.63 1.75559 -7.96891 0
M  V30 43943 H 7698.29 1.94563 -5.46818 0
M  V30 43944 H 7698.57 -0.608651 -7.04676 0
M  V30 43945 H 7699.56 0.889796 -7.09039 0
M  V30 43946 H 7697.72 0.433128 -9.04664 0
M  V30 43947 H 7697.68 -1.89246 -5.57664 0
M  V30 43948 H 7698.06 -2.71005 -0.804694 0
M  V30 43949 H 7698.25 -1.63189 0.603768 0
M  V30 43950 H 7698.36 2.53475 -0.997614 0
M  V30 43951 P 7699.59 2.75334 -8.47391 0
M  V30 43952 O 7699.81 3.84166 -9.4489 0
M  V30 43953 O 7700.38 1.51964 -8.6881 0
M  V30 43954 O 7699.84 3.29363 -6.99321 0
M  V30 43955 C 7698.9 4.23956 -6.42656 0
M  V30 43956 C 7699.63 5.20775 -5.52155 0
M  V30 43957 O 7699.84 4.56534 -4.22446 0
M  V30 43958 C 7701.03 5.62629 -5.96531 0
M  V30 43959 O 7701.42 6.87667 -5.41053 0
M  V30 43960 C 7701.91 4.52537 -5.39283 0
M  V30 43961 C 7701.2 4.20027 -4.08623 0
M  V30 43962 N 7701.25 2.7613 -3.71522 0
M  V30 43963 C 7701.4 2.45612 -2.37989 0
M  V30 43964 O 7701.49 3.30919 -1.51621 0
M  V30 43965 N 7701.44 1.10684 -2.08435 0
M  V30 43966 C 7701.35 0.0690084 -2.9792 0
M  V30 43967 O 7701.4 -1.10553 -2.59426 0
M  V30 43968 C 7701.2 0.481522 -4.35345 0
M  V30 43969 C 7701.09 -0.618778 -5.36443 0
M  V30 43970 C 7701.15 1.78906 -4.67968 0
M  V30 43971 H 7698.41 4.797 -7.24003 0
M  V30 43972 H 7698.15 3.69802 -5.84429 0
M  V30 43973 H 7699.01 6.10356 -5.41441 0
M  V30 43974 H 7701.67 4.78651 -3.27911 0
M  V30 43975 H 7701.95 3.64957 -6.05871 0
M  V30 43976 H 7702.94 4.8868 -5.2125 0
M  V30 43977 H 7701.1 5.66726 -7.06352 0
M  V30 43978 H 7701.03 2.07737 -5.72367 0
M  V30 43979 H 7702.06 -0.754375 -5.86871 0
M  V30 43980 H 7700.33 -0.359721 -6.10641 0
M  V30 43981 H 7700.81 -1.55533 -4.8581 0
M  V30 43982 H 7701.55 0.862651 -1.12037 0
M  V30 43983 P 7702.97 7.20834 -5.23717 0
M  V30 43984 O 7703.19 8.66104 -5.38572 0
M  V30 43985 O 7703.76 6.33544 -6.1349 0
M  V30 43986 O 7703.22 6.7751 -3.72168 0
M  V30 43987 C 7702.28 7.20825 -2.7076 0
M  V30 43988 C 7703.01 7.45864 -1.40599 0
M  V30 43989 O 7703.22 6.17651 -0.734225 0
M  V30 43990 C 7704.41 8.05808 -1.51899 0
M  V30 43991 O 7704.8 8.74358 -0.335205 0
M  V30 43992 C 7705.29 6.83093 -1.70294 0
M  V30 43993 C 7704.58 5.79992 -0.836974 0
M  V30 43994 N 7704.63 4.41864 -1.38293 0
M  V30 43995 H 7701.8 8.13644 -3.0377 0
M  V30 43996 H 7701.53 6.42788 -2.55485 0
M  V30 43997 H 7702.39 8.12039 -0.792769 0
M  V30 43998 P 7706.35 8.91 -4.04411e-10 0
M  V30 43999 O 7706.57 10.1736 0.733766 0
M  V30 44000 O 7707.14 8.73247 -1.2395 0
M  V30 44001 O 7706.6 7.66872 0.971405 0
M  V30 44002 C 7705.66 7.42309 2.04641 0
M  V30 44003 C 7706.39 6.86059 3.24661 0
M  V30 44004 O 7706.6 5.42847 3.03646 0
M  V30 44005 C 7707.79 7.41196 3.50753 0
M  V30 44006 O 7708.18 7.27073 4.86816 0
M  V30 44007 C 7708.67 6.5273 2.63741 0
M  V30 44008 C 7707.96 5.1842 2.73198 0
M  V30 44009 N 7708.01 4.38668 1.47808 0
M  V30 44010 C 7708.16 3.00789 1.58511 0
M  V30 44011 O 7708.25 2.50116 2.71298 0
M  V30 44012 N 7708.21 2.29703 0.253698 0
M  V30 44013 C 7708.11 2.84269 -0.750133 0
M  V30 44014 N 7708.16 2.06951 -1.82612 0
M  V30 44015 C 7707.96 4.25803 -0.889776 0
M  V30 44016 C 7707.91 4.98326 0.259363 0
M  V30 44017 H 7705.17 8.36707 2.32466 0
M  V30 44018 H 7704.91 6.701 1.71105 0
M  V30 44019 H 7705.77 7.03638 4.13219 0
M  V30 44020 H 7708.43 4.59852 3.53955 0
M  V30 44021 H 7708.71 6.88995 1.59871 0
M  V30 44022 H 7709.7 6.46749 3.03687 0
M  V30 44023 H 7707.86 8.46908 3.20714 0
M  V30 44024 H 7707.79 6.06349 0.206238 0
M  V30 44025 H 7707.89 4.73163 -1.86796 0
M  V30 44026 H 7708.28 1.05099 -1.72271 0
M  V30 44027 H 7708.09 2.48716 -2.76361 0
M  V30 44028 P 7709.73 7.20834 5.23717 0
M  V30 44029 O 7709.95 7.79853 6.57286 0
M  V30 44030 O 7710.52 7.79239 4.12957 0
M  V30 44031 O 7709.98 5.63315 5.29344 0
M  V30 44032 C 7709.04 4.80255 6.01876 0
M  V30 44033 C 7709.77 3.64202 6.65911 0
M  V30 44034 O 7709.98 2.60694 5.64732 0
M  V30 44035 C 7711.17 3.93473 7.1943 0
M  V30 44036 O 7711.56 3.02071 8.21205 0
M  V30 44037 C 7712.05 3.73047 5.97036 0
M  V30 44038 C 7711.34 2.58828 5.25741 0
M  V30 44039 N 7711.39 2.68068 3.77503 0
M  V30 44040 C 7711.31 3.79715 2.96723 0
M  V30 44041 N 7711.39 3.5377 1.68852 0
M  V30 44042 C 7711.53 2.15054 1.63254 0
M  V30 44043 C 7711.66 1.28964 0.518571 0
M  V30 44044 O 7711.68 1.56826 -0.679156 0
M  V30 44045 N 7711.78 -0.0538097 0.918425 0
M  V30 44046 C 7711.78 -0.494275 2.22578 0
M  V30 44047 N 7711.91 -1.81086 2.40434 0
M  V30 44048 N 7711.65 0.313645 3.27502 0
M  V30 44049 C 7711.53 1.61829 2.91033 0
M  V30 44050 H 7708.56 5.40332 6.79951 0
M  V30 44051 H 7708.29 4.41613 5.32378 0
M  V30 44052 H 7709.15 3.26331 7.47797 0
M  V30 44053 H 7711.81 1.63422 5.56814 0
M  V30 44054 H 7712.09 4.63374 5.34244 0
M  V30 44055 H 7713.08 3.44728 6.25838 0
M  V30 44056 H 7711.24 4.96652 7.57263 0
M  V30 44057 H 7711.2 4.80617 3.3614 0
M  V30 44058 H 7711.88 -0.742702 0.199384 0
M  V30 44059 H 7711.91 -2.20598 3.35588 0
M  V30 44060 H 7712.02 -2.43518 1.58945 0
M  V30 44061 P 7713.11 2.75334 8.47391 0
M  V30 44062 O 7713.33 2.44571 9.90142 0
M  V30 44063 O 7713.9 3.87688 7.92115 0
M  V30 44064 O 7713.36 1.4459 7.59357 0
M  V30 44065 C 7712.42 0.347608 7.69215 0
M  V30 44066 C 7713.15 -0.96767 7.52806 0
M  V30 44067 O 7713.36 -1.21036 6.1011 0
M  V30 44068 C 7714.55 -1.04544 8.13308 0
M  V30 44069 O 7714.94 -2.38311 8.41922 0
M  V30 44070 C 7715.43 -0.491279 7.02284 0
M  V30 44071 C 7714.72 -0.996264 5.77469 0
M  V30 44072 N 7714.77 -0.0501916 4.62973 0
M  V30 44073 H 7711.94 0.374722 8.67691 0
M  V30 44074 H 7711.67 0.443485 6.90277 0
M  V30 44075 H 7712.53 -1.75537 7.96793 0
M  V30 44076 P 7716.49 -2.75334 8.47391 0
M  V30 44077 O 7716.71 -3.84128 9.44797 0
M  V30 44078 O 7717.28 -1.51947 8.68712 0
M  V30 44079 O 7716.74 -3.29363 6.99321 0
M  V30 44080 C 7715.8 -4.24011 6.4274 0
M  V30 44081 C 7716.53 -5.20775 5.52155 0
M  V30 44082 O 7716.74 -4.56534 4.22446 0
M  V30 44083 C 7717.93 -5.62629 5.96531 0
M  V30 44084 O 7718.32 -6.87667 5.41053 0
M  V30 44085 C 7718.81 -4.52537 5.39283 0
M  V30 44086 C 7718.1 -4.20027 4.08623 0
M  V30 44087 N 7718.15 -2.76189 3.71603 0
M  V30 44088 C 7718.07 -1.64862 4.52822 0
M  V30 44089 N 7718.15 -0.512671 3.88633 0
M  V30 44090 C 7718.29 -0.888083 2.54977 0
M  V30 44091 C 7718.42 -0.094668 1.38677 0
M  V30 44092 O 7718.44 1.13053 1.28163 0
M  V30 44093 N 7718.54 -0.890102 0.232633 0
M  V30 44094 C 7718.54 -2.26958 0.21772 0
M  V30 44095 N 7718.67 -2.84626 -0.97925 0
M  V30 44096 N 7718.41 -3.0178 1.31033 0
M  V30 44097 C 7718.29 -2.26781 2.43843 0
M  V30 44098 H 7715.32 -4.797 7.24003 0
M  V30 44099 H 7715.05 -3.69856 5.84513 0
M  V30 44100 H 7715.91 -6.10356 5.41441 0
M  V30 44101 H 7718.57 -4.79061 3.27488 0
M  V30 44102 H 7718.85 -3.64906 6.05785 0
M  V30 44103 H 7719.84 -4.8868 5.2125 0
M  V30 44104 H 7718 -5.66726 7.06352 0
M  V30 44105 H 7717.96 -1.71169 5.60966 0
M  V30 44106 H 7718.64 -0.419134 -0.644739 0
M  V30 44107 H 7718.67 -3.87332 -1.06098 0
M  V30 44108 H 7718.78 -2.26417 -1.82483 0
M  V30 44109 P 7719.87 -7.20834 5.23717 0
M  V30 44110 O 7720.09 -8.66104 5.38572 0
M  V30 44111 O 7720.66 -6.33544 6.1349 0
M  V30 44112 O 7720.12 -6.7751 3.72168 0
M  V30 44113 C 7719.18 -7.20825 2.7076 0
M  V30 44114 C 7719.91 -7.45864 1.40599 0
M  V30 44115 O 7720.12 -6.17651 0.734225 0
M  V30 44116 C 7721.31 -8.05808 1.51899 0
M  V30 44117 O 7721.7 -8.74358 0.335205 0
M  V30 44118 C 7722.19 -6.83093 1.70294 0
M  V30 44119 C 7721.48 -5.79992 0.836974 0
M  V30 44120 N 7721.53 -4.41864 1.38293 0
M  V30 44121 H 7718.7 -8.13644 3.0377 0
M  V30 44122 H 7718.43 -6.42788 2.55485 0
M  V30 44123 H 7719.29 -8.12039 0.792769 0
M  V30 44124 P 7723.25 -8.91 4.0552e-10 0
M  V30 44125 O 7723.47 -10.1726 -0.733694 0
M  V30 44126 O 7724.04 -8.73148 1.23936 0
M  V30 44127 O 7723.5 -7.66872 -0.971405 0
M  V30 44128 C 7722.56 -7.42309 -2.04641 0
M  V30 44129 C 7723.29 -6.86059 -3.24661 0
M  V30 44130 O 7723.5 -5.42847 -3.03646 0
M  V30 44131 C 7724.69 -7.41196 -3.50753 0
M  V30 44132 O 7725.08 -7.27073 -4.86816 0
M  V30 44133 C 7725.57 -6.5273 -2.63741 0
M  V30 44134 C 7724.86 -5.1842 -2.73198 0
M  V30 44135 N 7724.91 -4.38762 -1.4784 0
M  V30 44136 H 7722.08 -8.36803 -2.32493 0
M  V30 44137 H 7721.81 -6.70197 -1.71129 0
M  V30 44138 H 7722.67 -7.03551 -4.13168 0
M  V30 44139 P 7726.63 -7.20834 -5.23717 0
M  V30 44140 O 7726.85 -7.79853 -6.57286 0
M  V30 44141 O 7727.42 -7.79239 -4.12957 0
M  V30 44142 O 7726.88 -5.63315 -5.29344 0
M  V30 44143 C 7725.94 -4.80255 -6.01876 0
M  V30 44144 C 7726.67 -3.64202 -6.65911 0
M  V30 44145 O 7726.88 -2.60694 -5.64732 0
M  V30 44146 C 7728.07 -3.93473 -7.1943 0
M  V30 44147 O 7728.46 -3.02071 -8.21205 0
M  V30 44148 C 7728.95 -3.73047 -5.97036 0
M  V30 44149 C 7728.24 -2.58828 -5.25741 0
M  V30 44150 N 7728.29 -2.68068 -3.77503 0
M  V30 44151 H 7725.46 -5.40332 -6.79951 0
M  V30 44152 H 7725.19 -4.41613 -5.32378 0
M  V30 44153 H 7726.05 -3.26331 -7.47797 0
M  V30 44154 P 7730.01 -2.75334 -8.47391 0
M  V30 44155 O 7730.23 -2.44571 -9.90142 0
M  V30 44156 O 7730.8 -3.87688 -7.92115 0
M  V30 44157 O 7730.26 -1.4459 -7.59357 0
M  V30 44158 C 7729.32 -0.347608 -7.69215 0
M  V30 44159 C 7730.05 0.96767 -7.52806 0
M  V30 44160 O 7730.26 1.21036 -6.1011 0
M  V30 44161 C 7731.45 1.04544 -8.13308 0
M  V30 44162 O 7731.84 2.38311 -8.41922 0
M  V30 44163 C 7732.33 0.491279 -7.02284 0
M  V30 44164 C 7731.62 0.996264 -5.77469 0
M  V30 44165 N 7731.67 0.0501916 -4.62973 0
M  V30 44166 H 7728.84 -0.374722 -8.67691 0
M  V30 44167 H 7728.57 -0.443485 -6.90277 0
M  V30 44168 H 7729.43 1.75537 -7.96793 0
M  V30 44169 P 7733.39 2.75334 -8.47391 0
M  V30 44170 O 7733.61 3.84128 -9.44797 0
M  V30 44171 O 7734.18 1.51947 -8.68712 0
M  V30 44172 O 7733.64 3.29363 -6.99321 0
M  V30 44173 C 7732.7 4.24011 -6.4274 0
M  V30 44174 C 7733.43 5.20775 -5.52155 0
M  V30 44175 O 7733.64 4.56534 -4.22446 0
M  V30 44176 C 7734.83 5.62629 -5.96531 0
M  V30 44177 O 7735.22 6.87667 -5.41053 0
M  V30 44178 C 7735.71 4.52537 -5.39283 0
M  V30 44179 C 7735 4.20027 -4.08623 0
M  V30 44180 N 7735.05 2.76189 -3.71603 0
M  V30 44181 H 7732.22 4.797 -7.24003 0
M  V30 44182 H 7731.95 3.69856 -5.84513 0
M  V30 44183 H 7732.81 6.10356 -5.41441 0
M  V30 44184 P 7736.77 7.20834 -5.23717 0
M  V30 44185 O 7736.99 8.66104 -5.38572 0
M  V30 44186 O 7737.56 6.33544 -6.1349 0
M  V30 44187 O 7737.02 6.7751 -3.72168 0
M  V30 44188 C 7736.08 7.20825 -2.7076 0
M  V30 44189 C 7736.81 7.45864 -1.40599 0
M  V30 44190 O 7737.02 6.17651 -0.734225 0
M  V30 44191 C 7738.21 8.05808 -1.51899 0
M  V30 44192 O 7738.6 8.74358 -0.335205 0
M  V30 44193 C 7739.09 6.83093 -1.70294 0
M  V30 44194 C 7738.38 5.79992 -0.836974 0
M  V30 44195 N 7738.43 4.41864 -1.38293 0
M  V30 44196 C 7738.35 3.99538 -2.69438 0
M  V30 44197 N 7738.43 2.69909 -2.84277 0
M  V30 44198 C 7738.57 2.21719 -1.5408 0
M  V30 44199 C 7738.7 0.891712 -1.06628 0
M  V30 44200 O 7738.72 -0.161298 -1.70137 0
M  V30 44201 N 7738.82 0.856846 0.334985 0
M  V30 44202 C 7738.82 1.9641 1.15789 0
M  V30 44203 N 7738.95 1.72708 2.46522 0
M  V30 44204 N 7738.69 3.21165 0.713741 0
M  V30 44205 C 7738.57 3.26797 -0.639748 0
M  V30 44206 H 7735.6 8.13644 -3.0377 0
M  V30 44207 H 7735.33 6.42788 -2.55485 0
M  V30 44208 H 7736.19 8.12039 -0.792769 0
M  V30 44209 H 7738.85 5.80061 0.166416 0
M  V30 44210 H 7739.13 6.51287 -2.75604 0
M  V30 44211 H 7740.12 7.01734 -1.34462 0
M  V30 44212 H 7738.28 8.73674 -2.38337 0
M  V30 44213 H 7738.24 4.68207 -3.53221 0
M  V30 44214 H 7738.92 -0.0398818 0.767965 0
M  V30 44215 H 7738.95 2.50995 3.13503 0
M  V30 44216 H 7739.06 0.759148 2.80716 0
M  V30 44217 P 7740.15 8.91 -4.06629e-10 0
M  V30 44218 O 7740.37 10.1726 0.733694 0
M  V30 44219 O 7740.94 8.73148 -1.23936 0
M  V30 44220 O 7740.4 7.66872 0.971405 0
M  V30 44221 C 7739.46 7.42309 2.04641 0
M  V30 44222 C 7740.19 6.86059 3.24661 0
M  V30 44223 O 7740.4 5.42847 3.03646 0
M  V30 44224 C 7741.59 7.41196 3.50753 0
M  V30 44225 O 7741.98 7.27073 4.86816 0
M  V30 44226 C 7742.47 6.5273 2.63741 0
M  V30 44227 C 7741.76 5.1842 2.73198 0
M  V30 44228 N 7741.81 4.38762 1.4784 0
M  V30 44229 H 7738.98 8.36803 2.32493 0
M  V30 44230 H 7738.71 6.70197 1.71129 0
M  V30 44231 H 7739.57 7.03551 4.13168 0
M  V30 44232 P 7743.53 7.20834 5.23717 0
M  V30 44233 O 7743.75 7.79853 6.57286 0
M  V30 44234 O 7744.32 7.79239 4.12957 0
M  V30 44235 O 7743.78 5.63315 5.29344 0
M  V30 44236 C 7742.84 4.80255 6.01876 0
M  V30 44237 C 7743.57 3.64202 6.65911 0
M  V30 44238 O 7743.78 2.60694 5.64732 0
M  V30 44239 C 7744.97 3.93473 7.1943 0
M  V30 44240 O 7745.36 3.02071 8.21205 0
M  V30 44241 C 7745.85 3.73047 5.97036 0
M  V30 44242 C 7745.14 2.58828 5.25741 0
M  V30 44243 N 7745.19 2.68068 3.77503 0
M  V30 44244 H 7742.36 5.40332 6.79951 0
M  V30 44245 H 7742.09 4.41613 5.32378 0
M  V30 44246 H 7742.95 3.26331 7.47797 0
M  V30 44247 P 7746.91 2.75334 8.47391 0
M  V30 44248 O 7747.13 2.44571 9.90142 0
M  V30 44249 O 7747.7 3.87688 7.92115 0
M  V30 44250 O 7747.16 1.4459 7.59357 0
M  V30 44251 C 7746.22 0.347608 7.69215 0
M  V30 44252 C 7746.95 -0.96767 7.52806 0
M  V30 44253 O 7747.16 -1.21036 6.1011 0
M  V30 44254 C 7748.35 -1.04544 8.13308 0
M  V30 44255 O 7748.74 -2.38311 8.41922 0
M  V30 44256 C 7749.23 -0.491279 7.02284 0
M  V30 44257 C 7748.52 -0.996264 5.77469 0
M  V30 44258 N 7748.57 -0.0501916 4.62973 0
M  V30 44259 C 7748.49 1.32786 4.63244 0
M  V30 44260 N 7748.57 1.86957 3.44545 0
M  V30 44261 C 7748.71 0.780241 2.58481 0
M  V30 44262 C 7748.84 0.738536 1.17757 0
M  V30 44263 O 7748.86 1.66794 0.372349 0
M  V30 44264 N 7748.96 -0.58337 0.711393 0
M  V30 44265 C 7748.96 -1.70816 1.51017 0
M  V30 44266 N 7749.09 -2.87826 0.880757 0
M  V30 44267 N 7748.83 -1.67126 2.8339 0
M  V30 44268 C 7748.71 -0.401421 3.30572 0
M  V30 44269 H 7745.74 0.374722 8.67691 0
M  V30 44270 H 7745.47 0.443485 6.90277 0
M  V30 44271 H 7746.33 -1.75537 7.96793 0
M  V30 44272 H 7748.99 -1.95076 5.46529 0
M  V30 44273 H 7749.27 0.608565 7.04577 0
M  V30 44274 H 7750.26 -0.889672 7.08939 0
M  V30 44275 H 7748.42 -0.43308 9.04564 0
M  V30 44276 H 7748.38 1.91249 5.54442 0
M  V30 44277 H 7749.06 -0.718054 -0.275244 0
M  V30 44278 H 7749.09 -3.75721 1.41832 0
M  V30 44279 H 7749.2 -2.90436 -0.145468 0
M  V30 44280 P 7750.29 -2.75334 8.47391 0
M  V30 44281 O 7750.51 -3.84128 9.44797 0
M  V30 44282 O 7751.08 -1.51947 8.68712 0
M  V30 44283 O 7750.54 -3.29363 6.99321 0
M  V30 44284 C 7749.6 -4.24011 6.4274 0
M  V30 44285 C 7750.33 -5.20775 5.52155 0
M  V30 44286 O 7750.54 -4.56534 4.22446 0
M  V30 44287 C 7751.73 -5.62629 5.96531 0
M  V30 44288 O 7752.12 -6.87667 5.41053 0
M  V30 44289 C 7752.61 -4.52537 5.39283 0
M  V30 44290 C 7751.9 -4.20027 4.08623 0
M  V30 44291 N 7751.95 -2.76189 3.71603 0
M  V30 44292 H 7749.12 -4.797 7.24003 0
M  V30 44293 H 7748.85 -3.69856 5.84513 0
M  V30 44294 H 7749.71 -6.10356 5.41441 0
M  V30 44295 P 7753.67 -7.20834 5.23717 0
M  V30 44296 O 7753.89 -8.66104 5.38572 0
M  V30 44297 O 7754.46 -6.33544 6.1349 0
M  V30 44298 O 7753.92 -6.7751 3.72168 0
M  V30 44299 C 7752.98 -7.20825 2.7076 0
M  V30 44300 C 7753.71 -7.45864 1.40599 0
M  V30 44301 O 7753.92 -6.17651 0.734225 0
M  V30 44302 C 7755.11 -8.05808 1.51899 0
M  V30 44303 O 7755.5 -8.74358 0.335205 0
M  V30 44304 C 7755.99 -6.83093 1.70294 0
M  V30 44305 C 7755.28 -5.79992 0.836974 0
M  V30 44306 N 7755.33 -4.41864 1.38293 0
M  V30 44307 H 7752.5 -8.13644 3.0377 0
M  V30 44308 H 7752.23 -6.42788 2.55485 0
M  V30 44309 H 7753.09 -8.12039 0.792769 0
M  V30 44310 P 7757.05 -8.91 4.07738e-10 0
M  V30 44311 O 7757.27 -10.1726 -0.733694 0
M  V30 44312 O 7757.84 -8.73148 1.23936 0
M  V30 44313 O 7757.3 -7.66872 -0.971405 0
M  V30 44314 C 7756.36 -7.42309 -2.04641 0
M  V30 44315 C 7757.09 -6.86059 -3.24661 0
M  V30 44316 O 7757.3 -5.42847 -3.03646 0
M  V30 44317 C 7758.49 -7.41196 -3.50753 0
M  V30 44318 O 7758.88 -7.27073 -4.86816 0
M  V30 44319 C 7759.37 -6.5273 -2.63741 0
M  V30 44320 C 7758.66 -5.1842 -2.73198 0
M  V30 44321 N 7758.71 -4.38762 -1.4784 0
M  V30 44322 H 7755.88 -8.36803 -2.32493 0
M  V30 44323 H 7755.61 -6.70197 -1.71129 0
M  V30 44324 H 7756.47 -7.03551 -4.13168 0
M  V30 44325 P 7760.43 -7.20834 -5.23717 0
M  V30 44326 O 7760.65 -7.79853 -6.57286 0
M  V30 44327 O 7761.22 -7.79239 -4.12957 0
M  V30 44328 O 7760.68 -5.63315 -5.29344 0
M  V30 44329 C 7759.74 -4.80255 -6.01876 0
M  V30 44330 C 7760.47 -3.64202 -6.65911 0
M  V30 44331 O 7760.68 -2.60694 -5.64732 0
M  V30 44332 C 7761.87 -3.93473 -7.1943 0
M  V30 44333 O 7762.26 -3.02071 -8.21205 0
M  V30 44334 C 7762.75 -3.73047 -5.97036 0
M  V30 44335 C 7762.04 -2.58828 -5.25741 0
M  V30 44336 N 7762.09 -2.68068 -3.77503 0
M  V30 44337 H 7759.26 -5.40332 -6.79951 0
M  V30 44338 H 7758.99 -4.41613 -5.32378 0
M  V30 44339 H 7759.85 -3.26331 -7.47797 0
M  V30 44340 P 7763.81 -2.75334 -8.47391 0
M  V30 44341 O 7764.03 -2.44571 -9.90142 0
M  V30 44342 O 7764.6 -3.87688 -7.92115 0
M  V30 44343 O 7764.06 -1.4459 -7.59357 0
M  V30 44344 C 7763.12 -0.347608 -7.69215 0
M  V30 44345 C 7763.85 0.96767 -7.52806 0
M  V30 44346 O 7764.06 1.21036 -6.1011 0
M  V30 44347 C 7765.25 1.04544 -8.13308 0
M  V30 44348 O 7765.64 2.38311 -8.41922 0
M  V30 44349 C 7766.13 0.491279 -7.02284 0
M  V30 44350 C 7765.42 0.996264 -5.77469 0
M  V30 44351 N 7765.47 0.0501916 -4.62973 0
M  V30 44352 H 7762.64 -0.374722 -8.67691 0
M  V30 44353 H 7762.37 -0.443485 -6.90277 0
M  V30 44354 H 7763.23 1.75537 -7.96793 0
M  V30 44355 P 7767.19 2.75334 -8.47391 0
M  V30 44356 O 7767.41 3.84128 -9.44797 0
M  V30 44357 O 7767.98 1.51947 -8.68712 0
M  V30 44358 O 7767.44 3.29363 -6.99321 0
M  V30 44359 C 7766.5 4.24011 -6.4274 0
M  V30 44360 C 7767.23 5.20775 -5.52155 0
M  V30 44361 O 7767.44 4.56534 -4.22446 0
M  V30 44362 C 7768.63 5.62629 -5.96531 0
M  V30 44363 O 7769.02 6.87667 -5.41053 0
M  V30 44364 C 7769.51 4.52537 -5.39283 0
M  V30 44365 C 7768.8 4.20027 -4.08623 0
M  V30 44366 N 7768.85 2.76189 -3.71603 0
M  V30 44367 H 7766.02 4.797 -7.24003 0
M  V30 44368 H 7765.75 3.69856 -5.84513 0
M  V30 44369 H 7766.61 6.10356 -5.41441 0
M  V30 44370 P 7770.57 7.20834 -5.23717 0
M  V30 44371 O 7770.79 8.66189 -5.38625 0
M  V30 44372 O 7771.36 6.33615 -6.1356 0
M  V30 44373 O 7770.82 6.7751 -3.72168 0
M  V30 44374 C 7769.88 7.20825 -2.7076 0
M  V30 44375 C 7770.61 7.45864 -1.40599 0
M  V30 44376 O 7770.82 6.17651 -0.734225 0
M  V30 44377 C 7772.01 8.05808 -1.51899 0
M  V30 44378 O 7772.4 8.74358 -0.335205 0
M  V30 44379 C 7772.89 6.83093 -1.70294 0
M  V30 44380 C 7772.18 5.79992 -0.836974 0
M  V30 44381 N 7772.23 4.41769 -1.38263 0
M  V30 44382 C 7772.38 3.36514 -0.485617 0
M  V30 44383 O 7772.47 3.61814 0.724703 0
M  V30 44384 N 7772.43 2.00746 -1.14492 0
M  V30 44385 C 7772.33 1.85887 -2.27776 0
M  V30 44386 N 7772.38 0.600907 -2.69379 0
M  V30 44387 C 7772.18 2.92182 -3.22265 0
M  V30 44388 C 7772.13 4.18399 -2.71925 0
M  V30 44389 H 7769.39 8.1355 -3.03735 0
M  V30 44390 H 7769.13 6.42695 -2.55448 0
M  V30 44391 H 7769.99 8.12139 -0.792866 0
M  V30 44392 H 7772.65 5.80078 0.160615 0
M  V30 44393 H 7772.93 6.51379 -2.75643 0
M  V30 44394 H 7773.92 7.01734 -1.34462 0
M  V30 44395 H 7772.08 8.73674 -2.38337 0
M  V30 44396 H 7772.01 5.02669 -3.39718 0
M  V30 44397 H 7772.11 2.73001 -4.29239 0
M  V30 44398 H 7772.5 -0.162318 -2.01146 0
M  V30 44399 H 7772.31 0.387742 -3.69773 0
M  V30 44400 P 7773.95 8.91 -4.08847e-10 0
M  V30 44401 O 7774.17 10.1726 0.733694 0
M  V30 44402 O 7774.74 8.73148 -1.23936 0
M  V30 44403 O 7774.2 7.66872 0.971405 0
M  V30 44404 C 7773.26 7.42309 2.04641 0
M  V30 44405 C 7773.99 6.86059 3.24661 0
M  V30 44406 O 7774.2 5.42847 3.03646 0
M  V30 44407 C 7775.39 7.41196 3.50753 0
M  V30 44408 O 7775.78 7.27073 4.86816 0
M  V30 44409 C 7776.27 6.5273 2.63741 0
M  V30 44410 C 7775.56 5.1842 2.73198 0
M  V30 44411 N 7775.61 4.38762 1.4784 0
M  V30 44412 C 7775.53 4.81605 0.168631 0
M  V30 44413 N 7775.61 3.85454 -0.713363 0
M  V30 44414 C 7775.75 2.6994 0.0566958 0
M  V30 44415 C 7775.88 1.34815 -0.338502 0
M  V30 44416 O 7775.9 0.869548 -1.47125 0
M  V30 44417 N 7776 0.496304 0.77465 0
M  V30 44418 C 7776 0.908403 2.09122 0
M  V30 44419 N 7776.13 -0.0517805 3.00955 0
M  V30 44420 N 7775.87 2.17875 2.46519 0
M  V30 44421 C 7775.75 3.01988 1.4033 0
M  V30 44422 H 7772.77 8.36803 2.32493 0
M  V30 44423 H 7772.5 6.70197 1.71129 0
M  V30 44424 H 7773.37 7.03551 4.13168 0
M  V30 44425 H 7776.03 4.59498 3.54415 0
M  V30 44426 H 7776.31 6.88898 1.59848 0
M  V30 44427 H 7777.3 6.46749 3.03687 0
M  V30 44428 H 7775.46 8.46908 3.20714 0
M  V30 44429 H 7775.41 5.86405 -0.105564 0
M  V30 44430 H 7776.1 -0.483664 0.597855 0
M  V30 44431 H 7776.13 0.187865 4.0116 0
M  V30 44432 H 7776.23 -1.03585 2.71726 0
M  V30 44433 P 7777.33 7.20834 5.23717 0
M  V30 44434 O 7777.55 7.79853 6.57286 0
M  V30 44435 O 7778.12 7.79239 4.12957 0
M  V30 44436 O 7777.58 5.63315 5.29344 0
M  V30 44437 C 7776.64 4.80255 6.01876 0
M  V30 44438 C 7777.37 3.64202 6.65911 0
M  V30 44439 O 7777.58 2.60694 5.64732 0
M  V30 44440 C 7778.77 3.93473 7.1943 0
M  V30 44441 O 7779.16 3.02071 8.21205 0
M  V30 44442 C 7779.65 3.73047 5.97036 0
M  V30 44443 C 7778.94 2.58828 5.25741 0
M  V30 44444 N 7778.99 2.68068 3.77503 0
M  V30 44445 H 7776.15 5.40332 6.79951 0
M  V30 44446 H 7775.88 4.41613 5.32378 0
M  V30 44447 H 7776.75 3.26331 7.47797 0
M  V30 44448 P 7780.71 2.75334 8.47391 0
M  V30 44449 O 7780.93 2.44571 9.90142 0
M  V30 44450 O 7781.5 3.87688 7.92115 0
M  V30 44451 O 7780.96 1.4459 7.59357 0
M  V30 44452 C 7780.02 0.347608 7.69215 0
M  V30 44453 C 7780.75 -0.96767 7.52806 0
M  V30 44454 O 7780.96 -1.21036 6.1011 0
M  V30 44455 C 7782.15 -1.04544 8.13308 0
M  V30 44456 O 7782.54 -2.38311 8.41922 0
M  V30 44457 C 7783.03 -0.491279 7.02284 0
M  V30 44458 C 7782.32 -0.996264 5.77469 0
M  V30 44459 N 7782.37 -0.0501916 4.62973 0
M  V30 44460 C 7782.29 1.32786 4.63244 0
M  V30 44461 N 7782.37 1.86957 3.44545 0
M  V30 44462 C 7782.51 0.780241 2.58481 0
M  V30 44463 C 7782.64 0.738536 1.17757 0
M  V30 44464 N 7782.76 -0.58337 0.711393 0
M  V30 44465 C 7782.76 -1.70816 1.51017 0
M  V30 44466 N 7782.89 -2.87826 0.880757 0
M  V30 44467 N 7782.63 -1.67126 2.8339 0
M  V30 44468 C 7782.51 -0.401421 3.30572 0
M  V30 44469 H 7779.53 0.374722 8.67691 0
M  V30 44470 H 7779.26 0.443485 6.90277 0
M  V30 44471 H 7780.13 -1.75537 7.96793 0
M  V30 44472 P 7784.09 -2.75334 8.47391 0
M  V30 44473 O 7784.31 -3.84128 9.44797 0
M  V30 44474 O 7784.88 -1.51947 8.68712 0
M  V30 44475 O 7784.34 -3.29363 6.99321 0
M  V30 44476 C 7783.4 -4.24011 6.4274 0
M  V30 44477 C 7784.13 -5.20775 5.52155 0
M  V30 44478 O 7784.34 -4.56534 4.22446 0
M  V30 44479 C 7785.53 -5.62629 5.96531 0
M  V30 44480 O 7785.92 -6.87667 5.41053 0
M  V30 44481 C 7786.41 -4.52537 5.39283 0
M  V30 44482 C 7785.7 -4.20027 4.08623 0
M  V30 44483 N 7785.75 -2.76189 3.71603 0
M  V30 44484 H 7782.91 -4.797 7.24003 0
M  V30 44485 H 7782.64 -3.69856 5.84513 0
M  V30 44486 H 7783.51 -6.10356 5.41441 0
M  V30 44487 P 7787.47 -7.20834 5.23717 0
M  V30 44488 O 7787.69 -8.66104 5.38572 0
M  V30 44489 O 7788.26 -6.33544 6.1349 0
M  V30 44490 O 7787.72 -6.7751 3.72168 0
M  V30 44491 C 7786.78 -7.20825 2.7076 0
M  V30 44492 C 7787.51 -7.45864 1.40599 0
M  V30 44493 O 7787.72 -6.17651 0.734225 0
M  V30 44494 C 7788.91 -8.05808 1.51899 0
M  V30 44495 O 7789.3 -8.74358 0.335205 0
M  V30 44496 C 7789.79 -6.83093 1.70294 0
M  V30 44497 C 7789.08 -5.79992 0.836974 0
M  V30 44498 N 7789.13 -4.41864 1.38293 0
M  V30 44499 H 7786.29 -8.13644 3.0377 0
M  V30 44500 H 7786.02 -6.42788 2.55485 0
M  V30 44501 H 7786.89 -8.12039 0.792769 0
M  V30 44502 P 7790.85 -8.91 4.09956e-10 0
M  V30 44503 O 7791.07 -10.1726 -0.733694 0
M  V30 44504 O 7791.64 -8.73148 1.23936 0
M  V30 44505 O 7791.1 -7.66872 -0.971405 0
M  V30 44506 C 7790.16 -7.42309 -2.04641 0
M  V30 44507 C 7790.89 -6.86059 -3.24661 0
M  V30 44508 O 7791.1 -5.42847 -3.03646 0
M  V30 44509 C 7792.29 -7.41196 -3.50753 0
M  V30 44510 O 7792.68 -7.27073 -4.86816 0
M  V30 44511 C 7793.17 -6.5273 -2.63741 0
M  V30 44512 C 7792.46 -5.1842 -2.73198 0
M  V30 44513 N 7792.51 -4.38762 -1.4784 0
M  V30 44514 H 7789.67 -8.36803 -2.32493 0
M  V30 44515 H 7789.4 -6.70197 -1.71129 0
M  V30 44516 H 7790.27 -7.03551 -4.13168 0
M  V30 44517 P 7794.23 -7.20834 -5.23717 0
M  V30 44518 O 7794.45 -7.79853 -6.57286 0
M  V30 44519 O 7795.02 -7.79239 -4.12957 0
M  V30 44520 O 7794.48 -5.63315 -5.29344 0
M  V30 44521 C 7793.54 -4.80255 -6.01876 0
M  V30 44522 C 7794.27 -3.64202 -6.65911 0
M  V30 44523 O 7794.48 -2.60694 -5.64732 0
M  V30 44524 C 7795.67 -3.93473 -7.1943 0
M  V30 44525 O 7796.06 -3.02071 -8.21205 0
M  V30 44526 C 7796.55 -3.73047 -5.97036 0
M  V30 44527 C 7795.84 -2.58828 -5.25741 0
M  V30 44528 N 7795.89 -2.68068 -3.77503 0
M  V30 44529 H 7793.05 -5.40332 -6.79951 0
M  V30 44530 H 7792.78 -4.41613 -5.32378 0
M  V30 44531 H 7793.65 -3.26331 -7.47797 0
M  V30 44532 P 7797.61 -2.75334 -8.47391 0
M  V30 44533 O 7797.83 -2.44571 -9.90142 0
M  V30 44534 O 7798.4 -3.87688 -7.92115 0
M  V30 44535 O 7797.86 -1.4459 -7.59357 0
M  V30 44536 C 7796.92 -0.347608 -7.69215 0
M  V30 44537 C 7797.65 0.96767 -7.52806 0
M  V30 44538 O 7797.86 1.21036 -6.1011 0
M  V30 44539 C 7799.05 1.04544 -8.13308 0
M  V30 44540 O 7799.44 2.38311 -8.41922 0
M  V30 44541 C 7799.93 0.491279 -7.02284 0
M  V30 44542 C 7799.22 0.996264 -5.77469 0
M  V30 44543 N 7799.27 0.0501916 -4.62973 0
M  V30 44544 H 7796.43 -0.374722 -8.67691 0
M  V30 44545 H 7796.16 -0.443485 -6.90277 0
M  V30 44546 H 7797.03 1.75537 -7.96793 0
M  V30 44547 P 7800.99 2.75334 -8.47391 0
M  V30 44548 O 7801.21 3.84128 -9.44797 0
M  V30 44549 O 7801.78 1.51947 -8.68712 0
M  V30 44550 O 7801.24 3.29363 -6.99321 0
M  V30 44551 C 7800.3 4.24011 -6.4274 0
M  V30 44552 C 7801.03 5.20775 -5.52155 0
M  V30 44553 O 7801.24 4.56534 -4.22446 0
M  V30 44554 C 7802.43 5.62629 -5.96531 0
M  V30 44555 O 7802.82 6.87667 -5.41053 0
M  V30 44556 C 7803.31 4.52537 -5.39283 0
M  V30 44557 C 7802.6 4.20027 -4.08623 0
M  V30 44558 N 7802.65 2.76189 -3.71603 0
M  V30 44559 H 7799.81 4.797 -7.24003 0
M  V30 44560 H 7799.54 3.69856 -5.84513 0
M  V30 44561 H 7800.41 6.10356 -5.41441 0
M  V30 44562 P 7804.37 7.20834 -5.23717 0
M  V30 44563 O 7804.59 8.66274 -5.38678 0
M  V30 44564 O 7805.16 6.33687 -6.13629 0
M  V30 44565 O 7804.62 6.7751 -3.72168 0
M  V30 44566 C 7803.68 7.20919 -2.70795 0
M  V30 44567 C 7804.41 7.45864 -1.40599 0
M  V30 44568 O 7804.62 6.17751 -0.734343 0
M  V30 44569 C 7805.81 8.05906 -1.51917 0
M  V30 44570 O 7806.2 8.74358 -0.335205 0
M  V30 44571 C 7806.69 6.83093 -1.70294 0
M  V30 44572 C 7805.98 5.79992 -0.836974 0
M  V30 44573 N 7806.03 4.41864 -1.38293 0
M  V30 44574 H 7803.2 8.13738 -3.03804 0
M  V30 44575 H 7802.92 6.42974 -2.55559 0
M  V30 44576 H 7803.79 8.12139 -0.792866 0
M  V30 44577 H 7806.45 5.80178 0.160643 0
M  V30 44578 H 7806.73 6.51379 -2.75643 0
M  V30 44579 H 7807.72 7.01832 -1.3448 0
M  V30 44580 H 7805.88 8.73771 -2.38364 0
M  V30 44581 P 7807.75 8.91 -4.11065e-10 0
M  V30 44582 O 7807.97 10.1746 0.733838 0
M  V30 44583 O 7808.54 8.73346 -1.23964 0
M  V30 44584 O 7808 7.66872 0.971405 0
M  V30 44585 C 7807.06 7.42405 2.04668 0
M  V30 44586 C 7807.79 6.86059 3.24661 0
M  V30 44587 O 7808 5.42934 3.03695 0
M  V30 44588 C 7809.19 7.41287 3.50796 0
M  V30 44589 O 7809.58 7.27073 4.86816 0
M  V30 44590 C 7810.07 6.5273 2.63741 0
M  V30 44591 C 7809.36 5.1842 2.73198 0
M  V30 44592 N 7809.41 4.38762 1.4784 0
M  V30 44593 C 7809.33 4.83651 0.183876 0
M  V30 44594 N 7809.4 3.88759 -0.699393 0
M  V30 44595 C 7809.55 2.7404 0.0575568 0
M  V30 44596 C 7809.68 1.37902 -0.293928 0
M  V30 44597 N 7809.69 0.938021 -1.54797 0
M  V30 44598 N 7809.8 0.491817 0.70549 0
M  V30 44599 C 7809.79 0.931735 1.95979 0
M  V30 44600 N 7809.67 2.16017 2.41481 0
M  V30 44601 C 7809.55 3.02547 1.39121 0
M  V30 44602 H 7806.58 8.36899 2.3252 0
M  V30 44603 H 7806.3 6.70391 1.71179 0
M  V30 44604 H 7807.17 7.03638 4.13219 0
M  V30 44605 H 7809.83 4.59931 3.54016 0
M  V30 44606 H 7810.11 6.88995 1.59871 0
M  V30 44607 H 7811.1 6.4684 3.0373 0
M  V30 44608 H 7809.26 8.47002 3.20749 0
M  V30 44609 H 7809.22 5.8885 -0.0765548 0
M  V30 44610 H 7809.6 1.60276 -2.32875 0
M  V30 44611 H 7809.79 -0.0699355 -1.73859 0
M  V30 44612 H 7809.9 0.165507 2.71897 0
M  V30 44613 P 7811.13 7.20834 5.23717 0
M  V30 44614 O 7811.35 7.79853 6.57286 0
M  V30 44615 O 7811.92 7.79239 4.12957 0
M  V30 44616 O 7811.38 5.63315 5.29344 0
M  V30 44617 C 7810.44 4.80255 6.01876 0
M  V30 44618 C 7811.17 3.64202 6.65911 0
M  V30 44619 O 7811.38 2.60694 5.64732 0
M  V30 44620 C 7812.57 3.93473 7.1943 0
M  V30 44621 O 7812.96 3.02071 8.21205 0
M  V30 44622 C 7813.45 3.73047 5.97036 0
M  V30 44623 C 7812.74 2.58828 5.25741 0
M  V30 44624 N 7812.79 2.68068 3.77503 0
M  V30 44625 H 7809.95 5.40332 6.79951 0
M  V30 44626 H 7809.68 4.41613 5.32378 0
M  V30 44627 H 7810.55 3.26331 7.47797 0
M  V30 44628 P 7814.51 2.75334 8.47391 0
M  V30 44629 O 7814.73 2.44571 9.90142 0
M  V30 44630 O 7815.3 3.87688 7.92115 0
M  V30 44631 O 7814.76 1.4459 7.59357 0
M  V30 44632 C 7813.82 0.347608 7.69215 0
M  V30 44633 C 7814.55 -0.96767 7.52806 0
M  V30 44634 O 7814.76 -1.21036 6.1011 0
M  V30 44635 C 7815.95 -1.04544 8.13308 0
M  V30 44636 O 7816.34 -2.38311 8.41922 0
M  V30 44637 C 7816.83 -0.491279 7.02284 0
M  V30 44638 C 7816.12 -0.996264 5.77469 0
M  V30 44639 N 7816.17 -0.0501916 4.62973 0
M  V30 44640 H 7813.33 0.374722 8.67691 0
M  V30 44641 H 7813.06 0.443485 6.90277 0
M  V30 44642 H 7813.93 -1.75537 7.96793 0
M  V30 44643 P 7817.89 -2.75334 8.47391 0
M  V30 44644 O 7818.11 -3.84128 9.44797 0
M  V30 44645 O 7818.68 -1.51947 8.68712 0
M  V30 44646 O 7818.14 -3.29363 6.99321 0
M  V30 44647 C 7817.2 -4.24011 6.4274 0
M  V30 44648 C 7817.93 -5.20775 5.52155 0
M  V30 44649 O 7818.14 -4.56534 4.22446 0
M  V30 44650 C 7819.33 -5.62629 5.96531 0
M  V30 44651 O 7819.72 -6.87667 5.41053 0
M  V30 44652 C 7820.21 -4.52537 5.39283 0
M  V30 44653 C 7819.5 -4.20027 4.08623 0
M  V30 44654 N 7819.55 -2.76189 3.71603 0
M  V30 44655 H 7816.71 -4.797 7.24003 0
M  V30 44656 H 7816.44 -3.69856 5.84513 0
M  V30 44657 H 7817.31 -6.10356 5.41441 0
M  V30 44658 P 7821.27 -7.20834 5.23717 0
M  V30 44659 O 7821.49 -8.66104 5.38572 0
M  V30 44660 O 7822.06 -6.33544 6.1349 0
M  V30 44661 O 7821.52 -6.7751 3.72168 0
M  V30 44662 C 7820.58 -7.20825 2.7076 0
M  V30 44663 C 7821.31 -7.45864 1.40599 0
M  V30 44664 O 7821.52 -6.17651 0.734225 0
M  V30 44665 C 7822.71 -8.05808 1.51899 0
M  V30 44666 O 7823.1 -8.74358 0.335205 0
M  V30 44667 C 7823.59 -6.83093 1.70294 0
M  V30 44668 C 7822.88 -5.79992 0.836974 0
M  V30 44669 N 7822.93 -4.41864 1.38293 0
M  V30 44670 H 7820.09 -8.13644 3.0377 0
M  V30 44671 H 7819.82 -6.42788 2.55485 0
M  V30 44672 H 7820.69 -8.12039 0.792769 0
M  V30 44673 P 7824.65 -8.91 4.12174e-10 0
M  V30 44674 O 7824.87 -10.1736 -0.733766 0
M  V30 44675 O 7825.44 -8.73247 1.2395 0
M  V30 44676 O 7824.9 -7.66872 -0.971405 0
M  V30 44677 C 7823.96 -7.42309 -2.04641 0
M  V30 44678 C 7824.69 -6.86059 -3.24661 0
M  V30 44679 O 7824.9 -5.42847 -3.03646 0
M  V30 44680 C 7826.09 -7.41196 -3.50753 0
M  V30 44681 O 7826.48 -7.27073 -4.86816 0
M  V30 44682 C 7826.97 -6.5273 -2.63741 0
M  V30 44683 C 7826.26 -5.1842 -2.73198 0
M  V30 44684 N 7826.31 -4.38668 -1.47808 0
M  V30 44685 C 7826.46 -3.00789 -1.58511 0
M  V30 44686 O 7826.55 -2.50116 -2.71298 0
M  V30 44687 N 7826.51 -2.29703 -0.253698 0
M  V30 44688 C 7826.41 -2.84269 0.750133 0
M  V30 44689 N 7826.46 -2.06951 1.82612 0
M  V30 44690 C 7826.26 -4.25803 0.889776 0
M  V30 44691 C 7826.21 -4.98326 -0.259363 0
M  V30 44692 H 7823.47 -8.36707 -2.32466 0
M  V30 44693 H 7823.2 -6.701 -1.71105 0
M  V30 44694 H 7824.07 -7.03638 -4.13219 0
M  V30 44695 H 7826.73 -4.59852 -3.53955 0
M  V30 44696 H 7827.01 -6.88995 -1.59871 0
M  V30 44697 H 7828 -6.46749 -3.03687 0
M  V30 44698 H 7826.16 -8.46908 -3.20714 0
M  V30 44699 H 7826.09 -6.06349 -0.206238 0
M  V30 44700 H 7826.19 -4.73163 1.86796 0
M  V30 44701 H 7826.58 -1.05099 1.72271 0
M  V30 44702 H 7826.38 -2.48716 2.76361 0
M  V30 44703 P 7828.03 -7.20834 -5.23717 0
M  V30 44704 O 7828.25 -7.79853 -6.57286 0
M  V30 44705 O 7828.82 -7.79239 -4.12957 0
M  V30 44706 O 7828.28 -5.63315 -5.29344 0
M  V30 44707 C 7827.34 -4.80255 -6.01876 0
M  V30 44708 C 7828.07 -3.64202 -6.65911 0
M  V30 44709 O 7828.28 -2.60694 -5.64732 0
M  V30 44710 C 7829.47 -3.93473 -7.1943 0
M  V30 44711 O 7829.86 -3.02071 -8.21205 0
M  V30 44712 C 7830.35 -3.73047 -5.97036 0
M  V30 44713 C 7829.64 -2.58828 -5.25741 0
M  V30 44714 N 7829.69 -2.68068 -3.77503 0
M  V30 44715 H 7826.85 -5.40332 -6.79951 0
M  V30 44716 H 7826.58 -4.41613 -5.32378 0
M  V30 44717 H 7827.45 -3.26331 -7.47797 0
M  V30 44718 P 7831.41 -2.75334 -8.47391 0
M  V30 44719 O 7831.63 -2.44571 -9.90142 0
M  V30 44720 O 7832.2 -3.87688 -7.92115 0
M  V30 44721 O 7831.66 -1.4459 -7.59357 0
M  V30 44722 C 7830.72 -0.347608 -7.69215 0
M  V30 44723 C 7831.45 0.96767 -7.52806 0
M  V30 44724 O 7831.66 1.21036 -6.1011 0
M  V30 44725 C 7832.85 1.04544 -8.13308 0
M  V30 44726 O 7833.24 2.38311 -8.41922 0
M  V30 44727 C 7833.73 0.491279 -7.02284 0
M  V30 44728 C 7833.02 0.996264 -5.77469 0
M  V30 44729 N 7833.07 0.0501916 -4.62973 0
M  V30 44730 H 7830.23 -0.374722 -8.67691 0
M  V30 44731 H 7829.96 -0.443485 -6.90277 0
M  V30 44732 H 7830.83 1.75537 -7.96793 0
M  V30 44733 P 7834.79 2.75334 -8.47391 0
M  V30 44734 O 7835.01 3.84128 -9.44797 0
M  V30 44735 O 7835.58 1.51947 -8.68712 0
M  V30 44736 O 7835.04 3.29363 -6.99321 0
M  V30 44737 C 7834.1 4.24011 -6.4274 0
M  V30 44738 C 7834.83 5.20775 -5.52155 0
M  V30 44739 O 7835.04 4.56534 -4.22446 0
M  V30 44740 C 7836.23 5.62629 -5.96531 0
M  V30 44741 O 7836.62 6.87667 -5.41053 0
M  V30 44742 C 7837.11 4.52537 -5.39283 0
M  V30 44743 C 7836.4 4.20027 -4.08623 0
M  V30 44744 N 7836.45 2.76189 -3.71603 0
M  V30 44745 H 7833.61 4.797 -7.24003 0
M  V30 44746 H 7833.34 3.69856 -5.84513 0
M  V30 44747 H 7834.21 6.10356 -5.41441 0
M  V30 44748 P 7838.17 7.20834 -5.23717 0
M  V30 44749 O 7838.39 8.66104 -5.38572 0
M  V30 44750 O 7838.96 6.33544 -6.1349 0
M  V30 44751 O 7838.42 6.7751 -3.72168 0
M  V30 44752 C 7837.48 7.20825 -2.7076 0
M  V30 44753 C 7838.21 7.45864 -1.40599 0
M  V30 44754 O 7838.42 6.17651 -0.734225 0
M  V30 44755 C 7839.61 8.05808 -1.51899 0
M  V30 44756 O 7840 8.74358 -0.335205 0
M  V30 44757 C 7840.49 6.83093 -1.70294 0
M  V30 44758 C 7839.78 5.79992 -0.836974 0
M  V30 44759 N 7839.83 4.41864 -1.38293 0
M  V30 44760 H 7836.99 8.13644 -3.0377 0
M  V30 44761 H 7836.72 6.42788 -2.55485 0
M  V30 44762 H 7837.59 8.12039 -0.792769 0
M  V30 44763 P 7841.55 8.91 -4.13283e-10 0
M  V30 44764 O 7841.77 10.1726 0.733694 0
M  V30 44765 O 7842.34 8.73148 -1.23936 0
M  V30 44766 O 7841.8 7.66872 0.971405 0
M  V30 44767 C 7840.86 7.42309 2.04641 0
M  V30 44768 C 7841.59 6.86059 3.24661 0
M  V30 44769 O 7841.8 5.42847 3.03646 0
M  V30 44770 C 7842.99 7.41196 3.50753 0
M  V30 44771 O 7843.38 7.27073 4.86816 0
M  V30 44772 C 7843.87 6.5273 2.63741 0
M  V30 44773 C 7843.16 5.1842 2.73198 0
M  V30 44774 N 7843.21 4.38762 1.4784 0
M  V30 44775 H 7840.37 8.36803 2.32493 0
M  V30 44776 H 7840.1 6.70197 1.71129 0
M  V30 44777 H 7840.97 7.03551 4.13168 0
M  V30 44778 P 7844.93 7.20834 5.23717 0
M  V30 44779 O 7845.15 7.80006 6.57415 0
M  V30 44780 O 7845.72 7.79416 4.13051 0
M  V30 44781 O 7845.18 5.63315 5.29344 0
M  V30 44782 C 7844.24 4.80318 6.01954 0
M  V30 44783 C 7844.97 3.64202 6.65911 0
M  V30 44784 O 7845.18 2.60736 5.64823 0
M  V30 44785 C 7846.37 3.93521 7.19518 0
M  V30 44786 O 7846.76 3.02071 8.21205 0
M  V30 44787 C 7847.25 3.73047 5.97036 0
M  V30 44788 C 7846.54 2.58828 5.25741 0
M  V30 44789 N 7846.59 2.68068 3.77503 0
M  V30 44790 C 7846.51 3.80474 2.99159 0
M  V30 44791 N 7846.58 3.55622 1.71925 0
M  V30 44792 C 7846.73 2.1832 1.65733 0
M  V30 44793 C 7846.86 1.28842 0.572777 0
M  V30 44794 N 7846.87 1.66875 -0.70098 0
M  V30 44795 N 7846.98 -0.016788 0.859836 0
M  V30 44796 C 7846.97 -0.398145 2.13316 0
M  V30 44797 N 7846.85 0.328224 3.22333 0
M  V30 44798 C 7846.73 1.62992 2.90383 0
M  V30 44799 H 7843.76 5.40394 6.8003 0
M  V30 44800 H 7843.48 4.41741 5.32532 0
M  V30 44801 H 7844.35 3.26371 7.47889 0
M  V30 44802 H 7847.01 1.64007 5.56746 0
M  V30 44803 H 7847.29 4.63439 5.3432 0
M  V30 44804 H 7848.28 3.44776 6.25925 0
M  V30 44805 H 7846.44 4.96707 7.57347 0
M  V30 44806 H 7846.4 4.8089 3.39924 0
M  V30 44807 H 7846.78 2.66547 -0.941919 0
M  V30 44808 H 7846.97 0.965341 -1.44766 0
M  V30 44809 H 7847.08 -1.46427 2.29697 0
M  V30 44810 P 7848.31 2.75334 8.47391 0
M  V30 44811 O 7848.53 2.44595 9.90239 0
M  V30 44812 O 7849.1 3.87732 7.92204 0
M  V30 44813 O 7848.56 1.4459 7.59357 0
M  V30 44814 C 7847.62 0.347563 7.69115 0
M  V30 44815 C 7848.35 -0.96767 7.52806 0
M  V30 44816 O 7848.56 -1.21036 6.1011 0
M  V30 44817 C 7849.75 -1.04544 8.13308 0
M  V30 44818 O 7850.14 -2.38311 8.41922 0
M  V30 44819 C 7850.63 -0.491279 7.02284 0
M  V30 44820 C 7849.92 -0.996264 5.77469 0
M  V30 44821 N 7849.97 -0.0501808 4.62873 0
M  V30 44822 C 7850.12 -0.588177 3.36904 0
M  V30 44823 O 7850.21 -1.78598 3.17173 0
M  V30 44824 N 7850.16 0.329694 2.33686 0
M  V30 44825 C 7850.07 1.6953 2.45079 0
M  V30 44826 C 7849.92 2.16933 3.80505 0
M  V30 44827 C 7849.87 1.30326 4.83752 0
M  V30 44828 H 7847.13 0.374722 8.67691 0
M  V30 44829 H 7846.86 0.443421 6.90177 0
M  V30 44830 H 7847.73 -1.75537 7.96793 0
M  V30 44831 H 7850.39 -1.94496 5.46629 0
M  V30 44832 H 7850.67 0.608651 7.04676 0
M  V30 44833 H 7851.66 -0.889672 7.08939 0
M  V30 44834 H 7849.82 -0.43308 9.04564 0
M  V30 44835 H 7849.75 1.68366 5.8516 0
M  V30 44836 P 7851.69 -2.75334 8.47391 0
M  V30 44837 O 7851.91 -3.84166 9.4489 0
M  V30 44838 O 7852.48 -1.51964 8.6881 0
M  V30 44839 O 7851.94 -3.29363 6.99321 0
M  V30 44840 C 7851 -4.24011 6.4274 0
M  V30 44841 C 7851.73 -5.20775 5.52155 0
M  V30 44842 O 7851.94 -4.56534 4.22446 0
M  V30 44843 C 7853.13 -5.62629 5.96531 0
M  V30 44844 O 7853.52 -6.87667 5.41053 0
M  V30 44845 C 7854.01 -4.52537 5.39283 0
M  V30 44846 C 7853.3 -4.20027 4.08623 0
M  V30 44847 N 7853.35 -2.7613 3.71522 0
M  V30 44848 C 7853.5 -2.43702 2.37085 0
M  V30 44849 O 7853.59 -3.3531 1.54039 0
M  V30 44850 N 7853.55 -0.951103 2.10621 0
M  V30 44851 C 7853.45 -0.165021 2.93537 0
M  V30 44852 N 7853.5 1.09723 2.53253 0
M  V30 44853 C 7853.3 -0.469576 4.32458 0
M  V30 44854 C 7853.25 -1.78658 4.65921 0
M  V30 44855 H 7850.51 -4.79645 7.23919 0
M  V30 44856 H 7850.24 -3.69802 5.84429 0
M  V30 44857 H 7851.11 -6.10431 5.41508 0
M  V30 44858 H 7853.77 -4.78733 3.27967 0
M  V30 44859 H 7854.05 -3.64957 6.05871 0
M  V30 44860 H 7855.04 -4.8868 5.2125 0
M  V30 44861 H 7853.2 -5.66726 7.06352 0
M  V30 44862 H 7853.13 -2.06987 5.70299 0
M  V30 44863 H 7853.23 0.314383 5.07728 0
M  V30 44864 H 7853.62 1.31363 1.5319 0
M  V30 44865 H 7853.42 1.85978 3.21943 0
M  V30 44866 P 7855.07 -7.20834 5.23717 0
M  V30 44867 O 7855.29 -8.66104 5.38572 0
M  V30 44868 O 7855.86 -6.33544 6.1349 0
M  V30 44869 O 7855.32 -6.7751 3.72168 0
M  V30 44870 C 7854.38 -7.20825 2.7076 0
M  V30 44871 C 7855.11 -7.45864 1.40599 0
M  V30 44872 O 7855.32 -6.17651 0.734225 0
M  V30 44873 C 7856.51 -8.05808 1.51899 0
M  V30 44874 O 7856.9 -8.74358 0.335205 0
M  V30 44875 C 7857.39 -6.83093 1.70294 0
M  V30 44876 C 7856.68 -5.79992 0.836974 0
M  V30 44877 N 7856.73 -4.41864 1.38293 0
M  V30 44878 H 7853.89 -8.13644 3.0377 0
M  V30 44879 H 7853.62 -6.42788 2.55485 0
M  V30 44880 H 7854.49 -8.12039 0.792769 0
M  V30 44881 P 7858.45 -8.91 4.14392e-10 0
M  V30 44882 O 7858.67 -10.1726 -0.733694 0
M  V30 44883 O 7859.24 -8.73148 1.23936 0
M  V30 44884 O 7858.7 -7.66872 -0.971405 0
M  V30 44885 C 7857.76 -7.42309 -2.04641 0
M  V30 44886 C 7858.49 -6.86059 -3.24661 0
M  V30 44887 O 7858.7 -5.42847 -3.03646 0
M  V30 44888 C 7859.89 -7.41196 -3.50753 0
M  V30 44889 O 7860.28 -7.27073 -4.86816 0
M  V30 44890 C 7860.77 -6.5273 -2.63741 0
M  V30 44891 C 7860.06 -5.1842 -2.73198 0
M  V30 44892 N 7860.11 -4.38762 -1.4784 0
M  V30 44893 H 7857.27 -8.36803 -2.32493 0
M  V30 44894 H 7857 -6.70197 -1.71129 0
M  V30 44895 H 7857.87 -7.03551 -4.13168 0
M  V30 44896 P 7861.83 -7.20834 -5.23717 0
M  V30 44897 O 7862.05 -7.79853 -6.57286 0
M  V30 44898 O 7862.62 -7.79239 -4.12957 0
M  V30 44899 O 7862.08 -5.63315 -5.29344 0
M  V30 44900 C 7861.14 -4.80255 -6.01876 0
M  V30 44901 C 7861.87 -3.64202 -6.65911 0
M  V30 44902 O 7862.08 -2.60694 -5.64732 0
M  V30 44903 C 7863.27 -3.93473 -7.1943 0
M  V30 44904 O 7863.66 -3.02071 -8.21205 0
M  V30 44905 C 7864.15 -3.73047 -5.97036 0
M  V30 44906 C 7863.44 -2.58828 -5.25741 0
M  V30 44907 N 7863.49 -2.68068 -3.77503 0
M  V30 44908 C 7863.41 -3.79715 -2.96723 0
M  V30 44909 N 7863.49 -3.5377 -1.68852 0
M  V30 44910 C 7863.63 -2.15054 -1.63254 0
M  V30 44911 C 7863.76 -1.28964 -0.518571 0
M  V30 44912 O 7863.78 -1.56826 0.679156 0
M  V30 44913 N 7863.88 0.0538097 -0.918425 0
M  V30 44914 C 7863.88 0.494275 -2.22578 0
M  V30 44915 N 7864.01 1.81086 -2.40434 0
M  V30 44916 N 7863.75 -0.313645 -3.27502 0
M  V30 44917 C 7863.63 -1.61829 -2.91033 0
M  V30 44918 H 7860.65 -5.40332 -6.79951 0
M  V30 44919 H 7860.38 -4.41613 -5.32378 0
M  V30 44920 H 7861.25 -3.26331 -7.47797 0
M  V30 44921 H 7863.91 -1.63422 -5.56814 0
M  V30 44922 H 7864.19 -4.63374 -5.34244 0
M  V30 44923 H 7865.18 -3.44728 -6.25838 0
M  V30 44924 H 7863.34 -4.96652 -7.57263 0
M  V30 44925 H 7863.29 -4.80617 -3.3614 0
M  V30 44926 H 7863.98 0.742702 -0.199384 0
M  V30 44927 H 7864.01 2.20598 -3.35588 0
M  V30 44928 H 7864.11 2.43518 -1.58945 0
M  V30 44929 P 7865.21 -2.75334 -8.47391 0
M  V30 44930 O 7865.43 -2.44571 -9.90142 0
M  V30 44931 O 7866 -3.87688 -7.92115 0
M  V30 44932 O 7865.46 -1.4459 -7.59357 0
M  V30 44933 C 7864.52 -0.347608 -7.69215 0
M  V30 44934 C 7865.25 0.96767 -7.52806 0
M  V30 44935 O 7865.46 1.21036 -6.1011 0
M  V30 44936 C 7866.65 1.04544 -8.13308 0
M  V30 44937 O 7867.04 2.38311 -8.41922 0
M  V30 44938 C 7867.53 0.491279 -7.02284 0
M  V30 44939 C 7866.82 0.996264 -5.77469 0
M  V30 44940 N 7866.87 0.0501916 -4.62973 0
M  V30 44941 H 7864.03 -0.374722 -8.67691 0
M  V30 44942 H 7863.76 -0.443485 -6.90277 0
M  V30 44943 H 7864.63 1.75537 -7.96793 0
M  V30 44944 P 7868.59 2.75334 -8.47391 0
M  V30 44945 O 7868.81 3.84128 -9.44797 0
M  V30 44946 O 7869.38 1.51947 -8.68712 0
M  V30 44947 O 7868.84 3.29363 -6.99321 0
M  V30 44948 C 7867.9 4.24011 -6.4274 0
M  V30 44949 C 7868.63 5.20775 -5.52155 0
M  V30 44950 O 7868.84 4.56534 -4.22446 0
M  V30 44951 C 7870.03 5.62629 -5.96531 0
M  V30 44952 O 7870.42 6.87667 -5.41053 0
M  V30 44953 C 7870.91 4.52537 -5.39283 0
M  V30 44954 C 7870.2 4.20027 -4.08623 0
M  V30 44955 N 7870.25 2.76189 -3.71603 0
M  V30 44956 H 7867.41 4.797 -7.24003 0
M  V30 44957 H 7867.14 3.69856 -5.84513 0
M  V30 44958 H 7868.01 6.10356 -5.41441 0
M  V30 44959 P 7871.97 7.20834 -5.23717 0
M  V30 44960 O 7872.19 8.66104 -5.38572 0
M  V30 44961 O 7872.76 6.33544 -6.1349 0
M  V30 44962 O 7872.22 6.7751 -3.72168 0
M  V30 44963 C 7871.28 7.20825 -2.7076 0
M  V30 44964 C 7872.01 7.45864 -1.40599 0
M  V30 44965 O 7872.22 6.17651 -0.734225 0
M  V30 44966 C 7873.41 8.05808 -1.51899 0
M  V30 44967 O 7873.8 8.74358 -0.335205 0
M  V30 44968 C 7874.29 6.83093 -1.70294 0
M  V30 44969 C 7873.58 5.79992 -0.836974 0
M  V30 44970 N 7873.63 4.41864 -1.38293 0
M  V30 44971 H 7870.79 8.13644 -3.0377 0
M  V30 44972 H 7870.52 6.42788 -2.55485 0
M  V30 44973 H 7871.39 8.12039 -0.792769 0
M  V30 44974 P 7875.35 8.91 -4.15501e-10 0
M  V30 44975 O 7875.57 10.1726 0.733694 0
M  V30 44976 O 7876.14 8.73148 -1.23936 0
M  V30 44977 O 7875.6 7.66872 0.971405 0
M  V30 44978 C 7874.66 7.42309 2.04641 0
M  V30 44979 C 7875.39 6.86059 3.24661 0
M  V30 44980 O 7875.6 5.42847 3.03646 0
M  V30 44981 C 7876.79 7.41196 3.50753 0
M  V30 44982 O 7877.18 7.27073 4.86816 0
M  V30 44983 C 7877.67 6.5273 2.63741 0
M  V30 44984 C 7876.96 5.1842 2.73198 0
M  V30 44985 N 7877.01 4.38762 1.4784 0
M  V30 44986 C 7876.93 4.81605 0.168631 0
M  V30 44987 N 7877.01 3.85454 -0.713363 0
M  V30 44988 C 7877.15 2.6994 0.0566958 0
M  V30 44989 C 7877.28 1.34815 -0.338502 0
M  V30 44990 O 7877.3 0.869548 -1.47125 0
M  V30 44991 N 7877.4 0.496304 0.77465 0
M  V30 44992 C 7877.4 0.908403 2.09122 0
M  V30 44993 N 7877.53 -0.0517805 3.00955 0
M  V30 44994 N 7877.27 2.17875 2.46519 0
M  V30 44995 C 7877.15 3.01988 1.4033 0
M  V30 44996 H 7874.17 8.36803 2.32493 0
M  V30 44997 H 7873.9 6.70197 1.71129 0
M  V30 44998 H 7874.77 7.03551 4.13168 0
M  V30 44999 H 7877.43 4.59498 3.54415 0
M  V30 45000 H 7877.71 6.88898 1.59848 0
M  V30 45001 H 7878.7 6.46749 3.03687 0
M  V30 45002 H 7876.86 8.46908 3.20714 0
M  V30 45003 H 7876.81 5.86405 -0.105564 0
M  V30 45004 H 7877.5 -0.483664 0.597855 0
M  V30 45005 H 7877.53 0.187865 4.0116 0
M  V30 45006 H 7877.63 -1.03585 2.71726 0
M  V30 45007 P 7878.73 7.20834 5.23717 0
M  V30 45008 O 7878.95 7.79853 6.57286 0
M  V30 45009 O 7879.52 7.79239 4.12957 0
M  V30 45010 O 7878.98 5.63315 5.29344 0
M  V30 45011 C 7878.04 4.80255 6.01876 0
M  V30 45012 C 7878.77 3.64202 6.65911 0
M  V30 45013 O 7878.98 2.60694 5.64732 0
M  V30 45014 C 7880.17 3.93473 7.1943 0
M  V30 45015 O 7880.56 3.02071 8.21205 0
M  V30 45016 C 7881.05 3.73047 5.97036 0
M  V30 45017 C 7880.34 2.58828 5.25741 0
M  V30 45018 N 7880.39 2.68068 3.77503 0
M  V30 45019 H 7877.55 5.40332 6.79951 0
M  V30 45020 H 7877.28 4.41613 5.32378 0
M  V30 45021 H 7878.15 3.26331 7.47797 0
M  V30 45022 P 7882.11 2.75334 8.47391 0
M  V30 45023 O 7882.33 2.44571 9.90142 0
M  V30 45024 O 7882.9 3.87688 7.92115 0
M  V30 45025 O 7882.36 1.4459 7.59357 0
M  V30 45026 C 7881.42 0.347608 7.69215 0
M  V30 45027 C 7882.15 -0.96767 7.52806 0
M  V30 45028 O 7882.36 -1.21036 6.1011 0
M  V30 45029 C 7883.55 -1.04544 8.13308 0
M  V30 45030 O 7883.94 -2.38311 8.41922 0
M  V30 45031 C 7884.43 -0.491279 7.02284 0
M  V30 45032 C 7883.72 -0.996264 5.77469 0
M  V30 45033 N 7883.77 -0.0501916 4.62973 0
M  V30 45034 H 7880.93 0.374722 8.67691 0
M  V30 45035 H 7880.66 0.443485 6.90277 0
M  V30 45036 H 7881.53 -1.75537 7.96793 0
M  V30 45037 P 7885.49 -2.75334 8.47391 0
M  V30 45038 O 7885.71 -3.84166 9.4489 0
M  V30 45039 O 7886.28 -1.51964 8.6881 0
M  V30 45040 O 7885.74 -3.29363 6.99321 0
M  V30 45041 C 7884.8 -4.23956 6.42656 0
M  V30 45042 C 7885.53 -5.20775 5.52155 0
M  V30 45043 O 7885.74 -4.56534 4.22446 0
M  V30 45044 C 7886.93 -5.62629 5.96531 0
M  V30 45045 O 7887.32 -6.87667 5.41053 0
M  V30 45046 C 7887.81 -4.52537 5.39283 0
M  V30 45047 C 7887.1 -4.20027 4.08623 0
M  V30 45048 N 7887.15 -2.7613 3.71522 0
M  V30 45049 C 7887.3 -2.45612 2.37989 0
M  V30 45050 O 7887.39 -3.30919 1.51621 0
M  V30 45051 N 7887.34 -1.10684 2.08435 0
M  V30 45052 C 7887.25 -0.0690084 2.9792 0
M  V30 45053 C 7887.1 -0.481522 4.35345 0
M  V30 45054 C 7887.05 -1.78906 4.67968 0
M  V30 45055 H 7884.31 -4.797 7.24003 0
M  V30 45056 H 7884.04 -3.69802 5.84429 0
M  V30 45057 H 7884.91 -6.10356 5.41441 0
M  V30 45058 H 7887.57 -4.78651 3.27911 0
M  V30 45059 H 7887.85 -3.64957 6.05871 0
M  V30 45060 H 7888.84 -4.8868 5.2125 0
M  V30 45061 H 7887 -5.66726 7.06352 0
M  V30 45062 H 7886.93 -2.07737 5.72367 0
M  V30 45063 P 7888.87 -7.20834 5.23717 0
M  V30 45064 O 7889.09 -8.66274 5.38678 0
M  V30 45065 O 7889.66 -6.33687 6.13629 0
M  V30 45066 O 7889.12 -6.7751 3.72168 0
M  V30 45067 C 7888.18 -7.20919 2.70795 0
M  V30 45068 C 7888.91 -7.45864 1.40599 0
M  V30 45069 O 7889.12 -6.17751 0.734343 0
M  V30 45070 C 7890.31 -8.05906 1.51917 0
M  V30 45071 O 7890.7 -8.74358 0.335205 0
M  V30 45072 C 7891.19 -6.83093 1.70294 0
M  V30 45073 C 7890.48 -5.79992 0.836974 0
M  V30 45074 N 7890.53 -4.41864 1.38293 0
M  V30 45075 C 7890.45 -4.02089 2.69407 0
M  V30 45076 N 7890.52 -2.73403 2.85089 0
M  V30 45077 C 7890.67 -2.25086 1.5642 0
M  V30 45078 C 7890.8 -0.942887 1.04836 0
M  V30 45079 N 7890.81 0.150999 1.80369 0
M  V30 45080 N 7890.92 -0.812565 -0.28167 0
M  V30 45081 C 7890.91 -1.90572 -1.03784 0
M  V30 45082 N 7890.79 -3.167 -0.683905 0
M  V30 45083 C 7890.67 -3.26538 0.652815 0
M  V30 45084 H 7887.7 -8.13738 3.03804 0
M  V30 45085 H 7887.42 -6.42974 2.55559 0
M  V30 45086 H 7888.29 -8.12139 0.792866 0
M  V30 45087 H 7890.95 -5.80178 -0.160643 0
M  V30 45088 H 7891.23 -6.51379 2.75643 0
M  V30 45089 H 7892.22 -7.01832 1.3448 0
M  V30 45090 H 7890.38 -8.73771 2.38364 0
M  V30 45091 H 7890.34 -4.7189 3.52311 0
M  V30 45092 H 7890.72 0.0721434 2.82608 0
M  V30 45093 H 7890.91 1.0785 1.36544 0
M  V30 45094 H 7891.02 -1.73207 -2.10241 0
M  V30 45095 P 7892.25 -8.91 4.1661e-10 0
M  V30 45096 O 7892.47 -10.1736 -0.733766 0
M  V30 45097 O 7893.04 -8.73247 1.2395 0
M  V30 45098 O 7892.5 -7.66872 -0.971405 0
M  V30 45099 C 7891.56 -7.42309 -2.04641 0
M  V30 45100 C 7892.29 -6.86059 -3.24661 0
M  V30 45101 O 7892.5 -5.42847 -3.03646 0
M  V30 45102 C 7893.69 -7.41196 -3.50753 0
M  V30 45103 O 7894.08 -7.27073 -4.86816 0
M  V30 45104 C 7894.57 -6.5273 -2.63741 0
M  V30 45105 C 7893.86 -5.1842 -2.73198 0
M  V30 45106 N 7893.91 -4.38668 -1.47808 0
M  V30 45107 C 7894.06 -3.00789 -1.58511 0
M  V30 45108 O 7894.15 -2.50116 -2.71298 0
M  V30 45109 N 7894.11 -2.29703 -0.253698 0
M  V30 45110 C 7894.01 -2.84269 0.750133 0
M  V30 45111 N 7894.06 -2.06951 1.82612 0
M  V30 45112 C 7893.86 -4.25803 0.889776 0
M  V30 45113 C 7893.81 -4.98326 -0.259363 0
M  V30 45114 H 7891.07 -8.36707 -2.32466 0
M  V30 45115 H 7890.8 -6.701 -1.71105 0
M  V30 45116 H 7891.67 -7.03638 -4.13219 0
M  V30 45117 H 7894.33 -4.59852 -3.53955 0
M  V30 45118 H 7894.61 -6.88995 -1.59871 0
M  V30 45119 H 7895.6 -6.46749 -3.03687 0
M  V30 45120 H 7893.76 -8.46908 -3.20714 0
M  V30 45121 H 7893.69 -6.06349 -0.206238 0
M  V30 45122 H 7893.79 -4.73163 1.86796 0
M  V30 45123 H 7894.18 -1.05099 1.72271 0
M  V30 45124 H 7893.98 -2.48716 2.76361 0
M  V30 45125 P 7895.63 -7.20834 -5.23717 0
M  V30 45126 O 7895.85 -7.79853 -6.57286 0
M  V30 45127 O 7896.42 -7.79239 -4.12957 0
M  V30 45128 O 7895.88 -5.63315 -5.29344 0
M  V30 45129 C 7894.94 -4.80255 -6.01876 0
M  V30 45130 C 7895.67 -3.64202 -6.65911 0
M  V30 45131 O 7895.88 -2.60694 -5.64732 0
M  V30 45132 C 7897.07 -3.93473 -7.1943 0
M  V30 45133 O 7897.46 -3.02071 -8.21205 0
M  V30 45134 C 7897.95 -3.73047 -5.97036 0
M  V30 45135 C 7897.24 -2.58828 -5.25741 0
M  V30 45136 N 7897.29 -2.68068 -3.77503 0
M  V30 45137 H 7894.45 -5.40332 -6.79951 0
M  V30 45138 H 7894.18 -4.41613 -5.32378 0
M  V30 45139 H 7895.05 -3.26331 -7.47797 0
M  V30 45140 P 7899.01 -2.75334 -8.47391 0
M  V30 45141 O 7899.23 -2.44595 -9.90239 0
M  V30 45142 O 7899.8 -3.87732 -7.92204 0
M  V30 45143 O 7899.26 -1.4459 -7.59357 0
M  V30 45144 C 7898.32 -0.347563 -7.69115 0
M  V30 45145 C 7899.05 0.96767 -7.52806 0
M  V30 45146 O 7899.26 1.21036 -6.1011 0
M  V30 45147 C 7900.45 1.04544 -8.13308 0
M  V30 45148 O 7900.84 2.38311 -8.41922 0
M  V30 45149 C 7901.33 0.491279 -7.02284 0
M  V30 45150 C 7900.62 0.996264 -5.77469 0
M  V30 45151 N 7900.67 0.0501808 -4.62873 0
M  V30 45152 C 7900.82 0.588177 -3.36904 0
M  V30 45153 O 7900.91 1.78598 -3.17173 0
M  V30 45154 N 7900.86 -0.329694 -2.33686 0
M  V30 45155 C 7900.77 -1.6953 -2.45079 0
M  V30 45156 O 7900.82 -2.41926 -1.44899 0
M  V30 45157 C 7900.62 -2.16933 -3.80505 0
M  V30 45158 C 7900.51 -3.65373 -3.97621 0
M  V30 45159 C 7900.57 -1.30326 -4.83752 0
M  V30 45160 H 7897.83 -0.374722 -8.67691 0
M  V30 45161 H 7897.56 -0.443421 -6.90177 0
M  V30 45162 H 7898.43 1.75537 -7.96793 0
M  V30 45163 H 7901.09 1.94496 -5.46629 0
M  V30 45164 H 7901.37 -0.608651 -7.04676 0
M  V30 45165 H 7902.36 0.889672 -7.08939 0
M  V30 45166 H 7900.52 0.43308 -9.04564 0
M  V30 45167 H 7900.45 -1.68366 -5.8516 0
M  V30 45168 H 7901.48 -4.05985 -4.30448 0
M  V30 45169 H 7899.75 -3.88028 -4.72875 0
M  V30 45170 H 7900.23 -4.11381 -3.01609 0
M  V30 45171 H 7900.97 0.0393617 -1.41345 0
M  V30 45172 P 7902.39 2.75334 -8.47391 0
M  V30 45173 O 7902.61 3.84204 -9.44982 0
M  V30 45174 O 7903.18 1.51982 -8.68909 0
M  V30 45175 O 7902.64 3.29363 -6.99321 0
M  V30 45176 C 7901.7 4.24066 -6.42823 0
M  V30 45177 C 7902.43 5.20775 -5.52155 0
M  V30 45178 O 7902.64 4.56607 -4.22514 0
M  V30 45179 C 7903.83 5.62697 -5.96604 0
M  V30 45180 O 7904.22 6.87667 -5.41053 0
M  V30 45181 C 7904.71 4.52537 -5.39283 0
M  V30 45182 C 7904 4.20027 -4.08623 0
M  V30 45183 N 7904.05 2.76189 -3.71603 0
M  V30 45184 H 7901.22 4.79756 -7.24086 0
M  V30 45185 H 7900.94 3.69963 -5.84682 0
M  V30 45186 H 7901.81 6.10431 -5.41508 0
M  V30 45187 H 7904.47 4.78816 -3.28024 0
M  V30 45188 H 7904.75 3.64957 -6.05871 0
M  V30 45189 H 7905.74 4.88748 -5.21323 0
M  V30 45190 H 7903.9 5.66789 -7.0643 0
M  V30 45191 P 7905.77 7.20834 -5.23717 0
M  V30 45192 O 7905.99 8.66104 -5.38572 0
M  V30 45193 O 7906.56 6.33544 -6.1349 0
M  V30 45194 O 7906.02 6.7751 -3.72168 0
M  V30 45195 C 7905.08 7.20825 -2.7076 0
M  V30 45196 C 7905.81 7.45864 -1.40599 0
M  V30 45197 O 7906.02 6.17651 -0.734225 0
M  V30 45198 C 7907.21 8.05808 -1.51899 0
M  V30 45199 O 7907.6 8.74358 -0.335205 0
M  V30 45200 C 7908.09 6.83093 -1.70294 0
M  V30 45201 C 7907.38 5.79992 -0.836974 0
M  V30 45202 N 7907.43 4.41864 -1.38293 0
M  V30 45203 H 7904.59 8.13644 -3.0377 0
M  V30 45204 H 7904.32 6.42788 -2.55485 0
M  V30 45205 H 7905.19 8.12039 -0.792769 0
M  V30 45206 P 7909.15 8.91 -4.17719e-10 0
M  V30 45207 O 7909.37 10.1726 0.733694 0
M  V30 45208 O 7909.94 8.73148 -1.23936 0
M  V30 45209 O 7909.4 7.66872 0.971405 0
M  V30 45210 C 7908.46 7.42309 2.04641 0
M  V30 45211 C 7909.19 6.86059 3.24661 0
M  V30 45212 O 7909.4 5.42847 3.03646 0
M  V30 45213 C 7910.59 7.41196 3.50753 0
M  V30 45214 O 7910.98 7.27073 4.86816 0
M  V30 45215 C 7911.47 6.5273 2.63741 0
M  V30 45216 C 7910.76 5.1842 2.73198 0
M  V30 45217 N 7910.81 4.38762 1.4784 0
M  V30 45218 C 7910.73 4.81605 0.168631 0
M  V30 45219 N 7910.81 3.85454 -0.713363 0
M  V30 45220 C 7910.95 2.6994 0.0566958 0
M  V30 45221 C 7911.08 1.34815 -0.338502 0
M  V30 45222 O 7911.1 0.869548 -1.47125 0
M  V30 45223 N 7911.2 0.496304 0.77465 0
M  V30 45224 C 7911.2 0.908403 2.09122 0
M  V30 45225 N 7911.33 -0.0517805 3.00955 0
M  V30 45226 N 7911.07 2.17875 2.46519 0
M  V30 45227 C 7910.95 3.01988 1.4033 0
M  V30 45228 H 7907.97 8.36803 2.32493 0
M  V30 45229 H 7907.7 6.70197 1.71129 0
M  V30 45230 H 7908.57 7.03551 4.13168 0
M  V30 45231 H 7911.23 4.59498 3.54415 0
M  V30 45232 H 7911.51 6.88898 1.59848 0
M  V30 45233 H 7912.5 6.46749 3.03687 0
M  V30 45234 H 7910.66 8.46908 3.20714 0
M  V30 45235 H 7910.61 5.86405 -0.105564 0
M  V30 45236 H 7911.3 -0.483664 0.597855 0
M  V30 45237 H 7911.33 0.187865 4.0116 0
M  V30 45238 H 7911.43 -1.03585 2.71726 0
M  V30 45239 P 7912.53 7.20834 5.23717 0
M  V30 45240 O 7912.75 7.7993 6.57351 0
M  V30 45241 O 7913.32 7.79328 4.13004 0
M  V30 45242 O 7912.78 5.63315 5.29344 0
M  V30 45243 C 7911.84 4.80193 6.01798 0
M  V30 45244 C 7912.57 3.64202 6.65911 0
M  V30 45245 O 7912.78 2.60694 5.64732 0
M  V30 45246 C 7913.97 3.93473 7.1943 0
M  V30 45247 O 7914.36 3.02071 8.21205 0
M  V30 45248 C 7914.85 3.73047 5.97036 0
M  V30 45249 C 7914.14 2.58828 5.25741 0
M  V30 45250 N 7914.19 2.6801 3.77422 0
M  V30 45251 C 7914.34 1.50443 3.07133 0
M  V30 45252 O 7914.43 0.419406 3.61576 0
M  V30 45253 N 7914.38 1.6403 1.69677 0
M  V30 45254 C 7914.29 2.81206 0.986255 0
M  V30 45255 C 7914.14 3.99158 1.80325 0
M  V30 45256 C 7914.09 3.89779 3.1476 0
M  V30 45257 H 7911.35 5.40332 6.79951 0
M  V30 45258 H 7911.08 4.41549 5.32301 0
M  V30 45259 H 7911.95 3.26331 7.47797 0
M  V30 45260 H 7914.61 1.6395 5.56554 0
M  V30 45261 H 7914.89 4.63439 5.3432 0
M  V30 45262 H 7915.88 3.44728 6.25838 0
M  V30 45263 H 7914.04 4.96652 7.57263 0
M  V30 45264 H 7913.97 4.80159 3.74441 0
M  V30 45265 P 7915.91 2.75334 8.47391 0
M  V30 45266 O 7916.13 2.44571 9.90142 0
M  V30 45267 O 7916.7 3.87688 7.92115 0
M  V30 45268 O 7916.16 1.4459 7.59357 0
M  V30 45269 C 7915.22 0.347608 7.69215 0
M  V30 45270 C 7915.95 -0.96767 7.52806 0
M  V30 45271 O 7916.16 -1.21036 6.1011 0
M  V30 45272 C 7917.35 -1.04544 8.13308 0
M  V30 45273 O 7917.74 -2.38311 8.41922 0
M  V30 45274 C 7918.23 -0.491279 7.02284 0
M  V30 45275 C 7917.52 -0.996264 5.77469 0
M  V30 45276 N 7917.57 -0.0501916 4.62973 0
M  V30 45277 C 7917.49 1.32786 4.63244 0
M  V30 45278 N 7917.57 1.86957 3.44545 0
M  V30 45279 C 7917.71 0.780241 2.58481 0
M  V30 45280 C 7917.84 0.738536 1.17757 0
M  V30 45281 O 7917.86 1.66794 0.372349 0
M  V30 45282 N 7917.96 -0.58337 0.711393 0
M  V30 45283 C 7917.96 -1.70816 1.51017 0
M  V30 45284 N 7918.09 -2.87826 0.880757 0
M  V30 45285 N 7917.83 -1.67126 2.8339 0
M  V30 45286 C 7917.71 -0.401421 3.30572 0
M  V30 45287 H 7914.73 0.374722 8.67691 0
M  V30 45288 H 7914.46 0.443485 6.90277 0
M  V30 45289 H 7915.33 -1.75537 7.96793 0
M  V30 45290 H 7917.99 -1.95076 5.46529 0
M  V30 45291 H 7918.27 0.608565 7.04577 0
M  V30 45292 H 7919.26 -0.889672 7.08939 0
M  V30 45293 H 7917.42 -0.43308 9.04564 0
M  V30 45294 H 7917.37 1.91249 5.54442 0
M  V30 45295 H 7918.06 -0.718054 -0.275244 0
M  V30 45296 H 7918.09 -3.75721 1.41832 0
M  V30 45297 H 7918.19 -2.90436 -0.145468 0
M  V30 45298 P 7919.29 -2.75334 8.47391 0
M  V30 45299 O 7919.51 -3.84128 9.44797 0
M  V30 45300 O 7920.08 -1.51947 8.68712 0
M  V30 45301 O 7919.54 -3.29363 6.99321 0
M  V30 45302 C 7918.6 -4.24011 6.4274 0
M  V30 45303 C 7919.33 -5.20775 5.52155 0
M  V30 45304 O 7919.54 -4.56534 4.22446 0
M  V30 45305 C 7920.73 -5.62629 5.96531 0
M  V30 45306 O 7921.12 -6.87667 5.41053 0
M  V30 45307 C 7921.61 -4.52537 5.39283 0
M  V30 45308 C 7920.9 -4.20027 4.08623 0
M  V30 45309 N 7920.95 -2.76189 3.71603 0
M  V30 45310 H 7918.11 -4.797 7.24003 0
M  V30 45311 H 7917.84 -3.69856 5.84513 0
M  V30 45312 H 7918.71 -6.10356 5.41441 0
M  V30 45313 P 7922.67 -7.20834 5.23717 0
M  V30 45314 O 7922.89 -8.66104 5.38572 0
M  V30 45315 O 7923.46 -6.33544 6.1349 0
M  V30 45316 O 7922.92 -6.7751 3.72168 0
M  V30 45317 C 7921.98 -7.20825 2.7076 0
M  V30 45318 C 7922.71 -7.45864 1.40599 0
M  V30 45319 O 7922.92 -6.17651 0.734225 0
M  V30 45320 C 7924.11 -8.05808 1.51899 0
M  V30 45321 O 7924.5 -8.74358 0.335205 0
M  V30 45322 C 7924.99 -6.83093 1.70294 0
M  V30 45323 C 7924.28 -5.79992 0.836974 0
M  V30 45324 N 7924.33 -4.41864 1.38293 0
M  V30 45325 C 7924.25 -3.99538 2.69438 0
M  V30 45326 N 7924.33 -2.69909 2.84277 0
M  V30 45327 C 7924.47 -2.21719 1.5408 0
M  V30 45328 C 7924.6 -0.891712 1.06628 0
M  V30 45329 O 7924.62 0.161298 1.70137 0
M  V30 45330 N 7924.72 -0.856846 -0.334985 0
M  V30 45331 C 7924.72 -1.9641 -1.15789 0
M  V30 45332 N 7924.85 -1.72708 -2.46522 0
M  V30 45333 N 7924.59 -3.21165 -0.713741 0
M  V30 45334 C 7924.47 -3.26797 0.639748 0
M  V30 45335 H 7921.49 -8.13644 3.0377 0
M  V30 45336 H 7921.22 -6.42788 2.55485 0
M  V30 45337 H 7922.09 -8.12039 0.792769 0
M  V30 45338 H 7924.75 -5.80061 -0.166416 0
M  V30 45339 H 7925.03 -6.51287 2.75604 0
M  V30 45340 H 7926.02 -7.01734 1.34462 0
M  V30 45341 H 7924.18 -8.73674 2.38337 0
M  V30 45342 H 7924.13 -4.68207 3.53221 0
M  V30 45343 H 7924.82 0.0398818 -0.767965 0
M  V30 45344 H 7924.85 -2.50995 -3.13503 0
M  V30 45345 H 7924.95 -0.759148 -2.80716 0
M  V30 45346 P 7926.05 -8.91 4.18828e-10 0
M  V30 45347 O 7926.27 -10.1726 -0.733694 0
M  V30 45348 O 7926.84 -8.73148 1.23936 0
M  V30 45349 O 7926.3 -7.66872 -0.971405 0
M  V30 45350 C 7925.36 -7.42309 -2.04641 0
M  V30 45351 C 7926.09 -6.86059 -3.24661 0
M  V30 45352 O 7926.3 -5.42847 -3.03646 0
M  V30 45353 C 7927.49 -7.41196 -3.50753 0
M  V30 45354 O 7927.88 -7.27073 -4.86816 0
M  V30 45355 C 7928.37 -6.5273 -2.63741 0
M  V30 45356 C 7927.66 -5.1842 -2.73198 0
M  V30 45357 N 7927.71 -4.38762 -1.4784 0
M  V30 45358 H 7924.87 -8.36803 -2.32493 0
M  V30 45359 H 7924.6 -6.70197 -1.71129 0
M  V30 45360 H 7925.47 -7.03551 -4.13168 0
M  V30 45361 P 7929.43 -7.20834 -5.23717 0
M  V30 45362 O 7929.65 -7.79853 -6.57286 0
M  V30 45363 O 7930.22 -7.79239 -4.12957 0
M  V30 45364 O 7929.68 -5.63315 -5.29344 0
M  V30 45365 C 7928.74 -4.80255 -6.01876 0
M  V30 45366 C 7929.47 -3.64202 -6.65911 0
M  V30 45367 O 7929.68 -2.60694 -5.64732 0
M  V30 45368 C 7930.87 -3.93473 -7.1943 0
M  V30 45369 O 7931.26 -3.02071 -8.21205 0
M  V30 45370 C 7931.75 -3.73047 -5.97036 0
M  V30 45371 C 7931.04 -2.58828 -5.25741 0
M  V30 45372 N 7931.09 -2.68068 -3.77503 0
M  V30 45373 H 7928.25 -5.40332 -6.79951 0
M  V30 45374 H 7927.98 -4.41613 -5.32378 0
M  V30 45375 H 7928.85 -3.26331 -7.47797 0
M  V30 45376 H 7931.13 -2.12276 -7.9008 0
M  V30 45377 H 7935.15 5.66378 7.64073 0
M  V30 45378 O 7935.03 5.84357 6.71818 0
M  V30 45379 P 7933.59 6.144 6.45285 0
M  V30 45380 O 7933.37 7.54673 6.86199 0
M  V30 45381 O 7932.8 5.12391 7.179 0
M  V30 45382 O 7933.34 5.99158 4.88404 0
M  V30 45383 C 7934.28 6.60234 3.96415 0
M  V30 45384 C 7933.55 7.08259 2.72856 0
M  V30 45385 O 7933.34 5.9427 1.83651 0
M  V30 45386 C 7932.15 7.64886 2.9555 0
M  V30 45387 O 7931.76 8.53963 1.90717 0
M  V30 45388 C 7931.27 6.4116 2.90739 0
M  V30 45389 C 7931.98 5.55375 1.86963 0
M  V30 45390 N 7931.93 4.09448 2.16152 0
M  V30 45391 H 7934.77 7.45574 4.45629 0
M  V30 45392 H 7935.04 5.85864 3.679 0
M  V30 45393 H 7934.18 7.84412 2.24479 0
M  V30 45394 H 7931.52 5.73457 0.888562 0
M  V30 45395 H 7931.24 5.90877 3.88583 0
M  V30 45396 H 7930.25 6.6596 2.58858 0
M  V30 45397 H 7932.08 8.16339 3.92049 0
M  V30 45398 P 7930.21 8.7635 1.60911 0
M  V30 45399 O 7929.99 10.1388 1.11561 0
M  V30 45400 O 7929.42 8.36503 2.79617 0
M  V30 45401 O 7929.96 7.71806 0.42951 0
M  V30 45402 C 7930.9 7.67148 -0.673689 0
M  V30 45403 C 7930.17 7.33374 -1.95559 0
M  V30 45404 O 7929.96 5.88721 -2.00726 0
M  V30 45405 C 7928.77 7.92526 -2.10483 0
M  V30 45406 O 7928.38 8.02971 -3.47653 0
M  V30 45407 C 7927.89 6.89602 -1.41652 0
M  V30 45408 C 7928.6 5.59201 -1.75185 0
M  V30 45409 N 7928.55 4.58301 -0.657969 0
M  V30 45410 H 7931.39 8.65116 -0.777161 0
M  V30 45411 H 7931.66 6.9022 -0.46725 0
M  V30 45412 H 7930.8 7.66548 -2.79458 0
M  V30 45413 H 7928.14 5.16165 -2.65183 0
M  V30 45414 H 7927.86 7.06433 -0.329384 0
M  V30 45415 H 7926.87 6.90926 -1.82021 0
M  V30 45416 H 7928.7 8.90873 -1.62657 0
M  V30 45417 P 7926.83 8.03563 -3.84925 0
M  V30 45418 O 7926.61 8.85821 -5.0569 0
M  V30 45419 O 7926.04 8.41101 -2.65469 0
M  V30 45420 O 7926.58 6.49734 -4.18962 0
M  V30 45421 C 7927.52 5.81037 -5.05421 0
M  V30 45422 C 7926.79 4.79018 -5.88876 0
M  V30 45423 O 7926.58 3.58359 -5.08515 0
M  V30 45424 C 7925.39 5.17448 -6.36119 0
M  V30 45425 O 7925 4.45322 -7.53318 0
M  V30 45426 C 7924.51 4.74639 -5.19936 0
M  V30 45427 C 7925.22 3.49432 -4.70418 0
M  V30 45428 N 7925.17 3.31776 -3.22945 0
M  V30 45429 C 7925.02 2.02742 -2.72939 0
M  V30 45430 O 7924.93 1.08301 -3.52749 0
M  V30 45431 N 7924.97 1.96117 -1.22063 0
M  V30 45432 C 7925.07 2.8878 -0.551566 0
M  V30 45433 N 7925.02 2.65609 0.750198 0
M  V30 45434 C 7925.22 4.22457 -1.03707 0
M  V30 45435 C 7925.27 4.37979 -2.39113 0
M  V30 45436 H 7928.01 6.54138 -5.7131 0
M  V30 45437 H 7928.28 5.30492 -4.44033 0
M  V30 45438 H 7927.42 4.55945 -6.76735 0
M  V30 45439 H 7924.76 2.6176 -5.18021 0
M  V30 45440 H 7924.48 5.52233 -4.41941 0
M  V30 45441 H 7923.49 4.52045 -5.53452 0
M  V30 45442 H 7925.32 6.25124 -6.55234 0
M  V30 45443 H 7925.4 5.37936 -2.80552 0
M  V30 45444 H 7925.29 5.07528 -0.359553 0
M  V30 45445 H 7924.91 1.69403 1.09847 0
M  V30 45446 H 7925.1 3.43701 1.41792 0
M  V30 45447 P 7923.45 4.23843 -7.83734 0
M  V30 45448 O 7923.23 4.19407 -9.29784 0
M  V30 45449 O 7922.66 5.24426 -7.09156 0
M  V30 45450 O 7923.2 2.7935 -7.20758 0
M  V30 45451 C 7924.14 1.7299 -7.50419 0
M  V30 45452 C 7923.41 0.406376 -7.57911 0
M  V30 45453 O 7923.2 -0.0897726 -6.21935 0
M  V30 45454 C 7922.01 0.447224 -8.1878 0
M  V30 45455 O 7921.62 -0.825065 -8.71101 0
M  V30 45456 C 7921.13 0.783801 -6.99623 0
M  V30 45457 C 7921.84 0.0619192 -5.85967 0
M  V30 45458 N 7921.79 0.790462 -4.56202 0
M  V30 45459 H 7924.63 1.93423 -8.4679 0
M  V30 45460 H 7924.9 1.68852 -6.70877 0
M  V30 45461 H 7924.04 -0.289041 -8.15388 0
M  V30 45462 H 7921.38 -0.927006 -5.72848 0
M  V30 45463 H 7921.1 1.86973 -6.82036 0
M  V30 45464 H 7920.11 0.403953 -7.13357 0
M  V30 45465 H 7921.94 1.20599 -8.97534 0
M  V30 45466 P 7920.07 -1.17771 -8.83182 0
M  V30 45467 O 7919.85 -2.07206 -9.98732 0
M  V30 45468 O 7919.28 0.0743816 -8.81969 0
M  V30 45469 O 7919.82 -1.97678 -7.474 0
M  V30 45470 C 7920.76 -3.01133 -7.08783 0
M  V30 45471 C 7920.03 -4.1203 -6.37546 0
M  V30 45472 O 7919.82 -3.72887 -4.9796 0
M  V30 45473 C 7918.63 -4.45085 -6.88694 0
M  V30 45474 O 7918.24 -5.78836 -6.56315 0
M  V30 45475 C 7917.75 -3.47817 -6.12078 0
M  V30 45476 C 7918.46 -3.39414 -4.77697 0
M  V30 45477 N 7918.41 -2.04615 -4.15333 0
M  V30 45478 C 7918.26 -1.96929 -2.77162 0
M  V30 45479 O 7918.17 -3.02017 -2.12006 0
M  V30 45480 N 7918.21 -0.55485 -2.24237 0
M  V30 45481 C 7918.31 0.367808 -2.9169 0
M  V30 45482 N 7918.26 1.53426 -2.29427 0
M  V30 45483 C 7918.46 0.319148 -4.33828 0
M  V30 45484 C 7918.51 -0.920672 -4.90433 0
M  V30 45485 H 7921.25 -3.41209 -7.98667 0
M  V30 45486 H 7921.52 -2.5837 -6.41742 0
M  V30 45487 H 7920.66 -5.02718 -6.42752 0
M  V30 45488 H 7918 -4.11779 -4.09026 0
M  V30 45489 H 7917.72 -2.49661 -6.61772 0
M  V30 45490 H 7916.73 -3.86674 -6.00946 0
M  V30 45491 H 7918.56 -4.29991 -7.97006 0
M  V30 45492 H 7918.64 -1.00589 -5.98303 0
M  V30 45493 H 7918.53 1.22639 -4.93799 0
M  V30 45494 H 7918.15 1.56819 -1.27167 0
M  V30 45495 H 7918.34 2.41062 -2.83063 0
M  V30 45496 P 7916.69 -6.144 -6.45285 0
M  V30 45497 O 7916.47 -7.54673 -6.86199 0
M  V30 45498 O 7915.9 -5.12391 -7.179 0
M  V30 45499 O 7916.44 -5.99158 -4.88404 0
M  V30 45500 C 7917.38 -6.60234 -3.96415 0
M  V30 45501 C 7916.65 -7.08259 -2.72856 0
M  V30 45502 O 7916.44 -5.9427 -1.83651 0
M  V30 45503 C 7915.25 -7.64886 -2.9555 0
M  V30 45504 O 7914.86 -8.53963 -1.90717 0
M  V30 45505 C 7914.37 -6.4116 -2.90739 0
M  V30 45506 C 7915.08 -5.55375 -1.86963 0
M  V30 45507 N 7915.03 -4.09664 -2.15742 0
M  V30 45508 C 7915.11 -3.44381 -3.37233 0
M  V30 45509 N 7915.03 -2.14131 -3.28347 0
M  V30 45510 C 7914.89 -1.90247 -1.91588 0
M  V30 45511 C 7914.76 -0.683992 -1.20892 0
M  V30 45512 N 7914.64 -0.903396 0.173998 0
M  V30 45513 C 7914.64 -2.14171 0.784879 0
M  V30 45514 N 7914.51 -2.1435 2.11317 0
M  V30 45515 N 7914.77 -3.28784 0.119316 0
M  V30 45516 C 7914.89 -3.0977 -1.22194 0
M  V30 45517 H 7917.87 -7.45574 -4.45629 0
M  V30 45518 H 7918.14 -5.86232 -3.67314 0
M  V30 45519 H 7917.28 -7.84412 -2.24479 0
M  V30 45520 P 7913.31 -8.7635 -1.60911 0
M  V30 45521 O 7913.09 -10.1388 -1.11561 0
M  V30 45522 O 7912.52 -8.36503 -2.79617 0
M  V30 45523 O 7913.06 -7.71906 -0.429565 0
M  V30 45524 C 7914 -7.67148 0.673689 0
M  V30 45525 C 7913.27 -7.33666 1.94851 0
M  V30 45526 O 7913.06 -5.88816 2.00759 0
M  V30 45527 C 7911.87 -7.92526 2.10483 0
M  V30 45528 O 7911.48 -8.03063 3.47693 0
M  V30 45529 C 7910.99 -6.89602 1.41652 0
M  V30 45530 C 7911.7 -5.59201 1.75185 0
M  V30 45531 N 7911.65 -4.58235 0.662552 0
M  V30 45532 C 7911.5 -3.24451 1.01643 0
M  V30 45533 O 7911.41 -2.94958 2.21722 0
M  V30 45534 N 7911.45 -2.30408 -0.165238 0
M  V30 45535 C 7911.55 -2.66048 -1.25118 0
M  V30 45536 N 7911.5 -1.70787 -2.16813 0
M  V30 45537 C 7911.7 -4.02732 -1.64413 0
M  V30 45538 C 7911.75 -4.9488 -0.63991 0
M  V30 45539 H 7914.49 -8.65017 0.777072 0
M  V30 45540 H 7914.76 -6.90173 0.474152 0
M  V30 45541 H 7913.9 -7.66642 2.79492 0
M  V30 45542 H 7911.24 -5.16254 2.65229 0
M  V30 45543 H 7910.96 -7.06532 0.329431 0
M  V30 45544 H 7909.97 -6.91023 1.82047 0
M  V30 45545 H 7911.8 -8.90873 1.62657 0
M  V30 45546 H 7911.88 -6.00104 -0.892197 0
M  V30 45547 H 7911.77 -4.31733 -2.69229 0
M  V30 45548 H 7911.39 -0.724835 -1.8844 0
M  V30 45549 H 7911.58 -1.94716 -3.16734 0
M  V30 45550 P 7909.93 -8.03563 3.84925 0
M  V30 45551 O 7909.71 -8.85821 5.0569 0
M  V30 45552 O 7909.14 -8.41101 2.65469 0
M  V30 45553 O 7909.68 -6.4965 4.18908 0
M  V30 45554 C 7910.62 -5.81037 5.05421 0
M  V30 45555 C 7909.89 -4.78366 5.89277 0
M  V30 45556 O 7909.68 -3.58302 5.08433 0
M  V30 45557 C 7908.49 -5.17448 6.36119 0
M  V30 45558 O 7908.1 -4.45271 7.53232 0
M  V30 45559 C 7907.61 -4.74639 5.19936 0
M  V30 45560 C 7908.32 -3.49432 4.70418 0
M  V30 45561 N 7908.27 -3.32099 3.22613 0
M  V30 45562 H 7911.11 -6.54213 5.71376 0
M  V30 45563 H 7911.38 -5.30936 4.43503 0
M  V30 45564 H 7910.52 -4.55889 6.76652 0
M  V30 45565 H 7907.86 -2.61715 5.17932 0
M  V30 45566 H 7907.58 -5.52155 4.41878 0
M  V30 45567 H 7906.59 -4.51981 5.53374 0
M  V30 45568 H 7908.42 -6.25124 6.55234 0
M  V30 45569 P 7906.55 -4.23843 7.83734 0
M  V30 45570 O 7906.33 -4.19407 9.29784 0
M  V30 45571 O 7905.76 -5.24426 7.09156 0
M  V30 45572 O 7906.3 -2.7935 7.20758 0
M  V30 45573 C 7907.24 -1.7299 7.50419 0
M  V30 45574 C 7906.51 -0.406376 7.57911 0
M  V30 45575 O 7906.3 0.0897726 6.21935 0
M  V30 45576 C 7905.11 -0.447224 8.1878 0
M  V30 45577 O 7904.72 0.825065 8.71101 0
M  V30 45578 C 7904.23 -0.783801 6.99623 0
M  V30 45579 C 7904.94 -0.0619192 5.85967 0
M  V30 45580 N 7904.89 -0.7859 4.56281 0
M  V30 45581 H 7907.73 -1.93423 8.4679 0
M  V30 45582 H 7908 -1.68181 6.71046 0
M  V30 45583 H 7907.14 0.289041 8.15388 0
M  V30 45584 P 7903.17 1.17771 8.83182 0
M  V30 45585 O 7902.95 2.07206 9.98732 0
M  V30 45586 O 7902.38 -0.0743816 8.81969 0
M  V30 45587 O 7902.92 1.97652 7.47304 0
M  V30 45588 C 7903.86 3.01133 7.08783 0
M  V30 45589 C 7903.13 4.12613 6.37049 0
M  V30 45590 O 7902.92 3.72827 4.97879 0
M  V30 45591 C 7901.73 4.45085 6.88694 0
M  V30 45592 O 7901.34 5.7877 6.5624 0
M  V30 45593 C 7900.85 3.47817 6.12078 0
M  V30 45594 C 7901.56 3.39414 4.77697 0
M  V30 45595 N 7901.51 2.04199 4.15538 0
M  V30 45596 C 7901.59 0.821545 4.76977 0
M  V30 45597 N 7901.52 -0.1794 3.94592 0
M  V30 45598 C 7901.37 0.419121 2.70776 0
M  V30 45599 C 7901.24 -0.109072 1.40577 0
M  V30 45600 N 7901.23 -1.4104 1.1344 0
M  V30 45601 N 7901.12 0.764381 0.39411 0
M  V30 45602 C 7901.13 2.06587 0.664135 0
M  V30 45603 N 7901.25 2.67948 1.82153 0
M  V30 45604 C 7901.37 1.77942 2.8147 0
M  V30 45605 H 7904.35 3.41248 7.98759 0
M  V30 45606 H 7904.62 2.57728 6.42 0
M  V30 45607 H 7903.76 5.02657 6.42673 0
M  V30 45608 H 7901.1 4.11708 4.08956 0
M  V30 45609 H 7900.82 2.49626 6.61679 0
M  V30 45610 H 7899.83 3.8662 6.00862 0
M  V30 45611 H 7901.66 4.29991 7.97006 0
M  V30 45612 H 7901.71 0.702451 5.84696 0
M  V30 45613 H 7901.32 -2.09647 1.89651 0
M  V30 45614 H 7901.14 -1.73358 0.160575 0
M  V30 45615 H 7901.03 2.71695 -0.195838 0
M  V30 45616 P 7899.79 6.144 6.45285 0
M  V30 45617 O 7899.57 7.54673 6.86199 0
M  V30 45618 O 7899 5.12391 7.179 0
M  V30 45619 O 7899.54 5.99158 4.88404 0
M  V30 45620 C 7900.48 6.60234 3.96415 0
M  V30 45621 C 7899.75 7.08259 2.72856 0
M  V30 45622 O 7899.54 5.9427 1.83651 0
M  V30 45623 C 7898.35 7.64886 2.9555 0
M  V30 45624 O 7897.96 8.53963 1.90717 0
M  V30 45625 C 7897.47 6.4116 2.90739 0
M  V30 45626 C 7898.18 5.55375 1.86963 0
M  V30 45627 N 7898.13 4.09664 2.15742 0
M  V30 45628 H 7900.97 7.45574 4.45629 0
M  V30 45629 H 7901.24 5.86232 3.67314 0
M  V30 45630 H 7900.38 7.84412 2.24479 0
M  V30 45631 P 7896.41 8.7635 1.60911 0
M  V30 45632 O 7896.19 10.1388 1.11561 0
M  V30 45633 O 7895.62 8.36503 2.79617 0
M  V30 45634 O 7896.16 7.71806 0.42951 0
M  V30 45635 C 7897.1 7.67148 -0.673689 0
M  V30 45636 C 7896.37 7.33374 -1.95559 0
M  V30 45637 O 7896.16 5.88721 -2.00726 0
M  V30 45638 C 7894.97 7.92526 -2.10483 0
M  V30 45639 O 7894.58 8.02971 -3.47653 0
M  V30 45640 C 7894.09 6.89602 -1.41652 0
M  V30 45641 C 7894.8 5.59201 -1.75185 0
M  V30 45642 N 7894.75 4.58235 -0.662552 0
M  V30 45643 C 7894.83 4.7683 0.704049 0
M  V30 45644 N 7894.75 3.66233 1.39775 0
M  V30 45645 C 7894.61 2.66526 0.431739 0
M  V30 45646 C 7894.48 1.26394 0.575992 0
M  V30 45647 O 7894.46 0.589894 1.60503 0
M  V30 45648 N 7894.36 0.62859 -0.67177 0
M  V30 45649 C 7894.36 1.27134 -1.89385 0
M  V30 45650 N 7894.23 0.492035 -2.96951 0
M  V30 45651 N 7894.49 2.58978 -2.02907 0
M  V30 45652 C 7894.61 3.22433 -0.832218 0
M  V30 45653 H 7897.59 8.65116 -0.777161 0
M  V30 45654 H 7897.86 6.90173 -0.474152 0
M  V30 45655 H 7897 7.66548 -2.79458 0
M  V30 45656 H 7894.34 5.16254 -2.65229 0
M  V30 45657 H 7894.06 7.06532 -0.329431 0
M  V30 45658 H 7893.07 6.91023 -1.82047 0
M  V30 45659 H 7894.9 8.90971 -1.62675 0
M  V30 45660 H 7894.95 5.74954 1.16305 0
M  V30 45661 H 7894.27 -0.366713 -0.674793 0
M  V30 45662 H 7894.23 0.908532 -3.91188 0
M  V30 45663 H 7894.13 -0.528253 -2.85758 0
M  V30 45664 P 7893.03 8.03563 -3.84925 0
M  V30 45665 O 7892.81 8.85821 -5.0569 0
M  V30 45666 O 7892.24 8.41101 -2.65469 0
M  V30 45667 O 7892.78 6.4965 -4.18908 0
M  V30 45668 C 7893.72 5.80886 -5.05289 0
M  V30 45669 C 7892.99 4.78366 -5.89277 0
M  V30 45670 O 7892.78 3.58302 -5.08433 0
M  V30 45671 C 7891.59 5.16748 -6.36559 0
M  V30 45672 O 7891.2 4.45271 -7.53232 0
M  V30 45673 C 7890.71 4.74572 -5.19863 0
M  V30 45674 C 7891.42 3.49373 -4.70338 0
M  V30 45675 N 7891.37 3.31704 -3.22876 0
M  V30 45676 C 7891.22 2.03326 -2.74871 0
M  V30 45677 O 7891.13 1.06486 -3.48076 0
M  V30 45678 N 7891.18 1.91838 -1.37456 0
M  V30 45679 C 7891.27 2.94295 -0.462035 0
M  V30 45680 O 7891.22 2.71763 0.752928 0
M  V30 45681 C 7891.42 4.25064 -1.05249 0
M  V30 45682 C 7891.53 5.39815 -0.095697 0
M  V30 45683 C 7891.47 4.40214 -2.39192 0
M  V30 45684 H 7894.21 6.54063 -5.71245 0
M  V30 45685 H 7894.48 5.30339 -4.43905 0
M  V30 45686 H 7893.62 4.55889 -6.76652 0
M  V30 45687 H 7890.96 2.6167 -5.17842 0
M  V30 45688 H 7890.68 5.52155 -4.41878 0
M  V30 45689 H 7889.69 4.51918 -5.53297 0
M  V30 45690 H 7891.52 6.25055 -6.55162 0
M  V30 45691 H 7891.6 5.39798 -2.81523 0
M  V30 45692 H 7890.57 5.91593 -0.0279582 0
M  V30 45693 H 7892.3 6.10038 -0.450573 0
M  V30 45694 H 7891.81 5.02007 0.89937 0
M  V30 45695 H 7891.08 0.995326 -1.00435 0
M  V30 45696 P 7889.65 4.23843 -7.83734 0
M  V30 45697 O 7889.43 4.19407 -9.29784 0
M  V30 45698 O 7888.86 5.24426 -7.09156 0
M  V30 45699 O 7889.4 2.7935 -7.20758 0
M  V30 45700 C 7890.34 1.7299 -7.50419 0
M  V30 45701 C 7889.61 0.406376 -7.57911 0
M  V30 45702 O 7889.4 -0.0897726 -6.21935 0
M  V30 45703 C 7888.21 0.447224 -8.1878 0
M  V30 45704 O 7887.82 -0.825065 -8.71101 0
M  V30 45705 C 7887.33 0.783801 -6.99623 0
M  V30 45706 C 7888.04 0.0619192 -5.85967 0
M  V30 45707 N 7887.99 0.7859 -4.56281 0
M  V30 45708 C 7888.07 2.14308 -4.31736 0
M  V30 45709 N 7887.99 2.46106 -3.05116 0
M  V30 45710 C 7887.85 1.23422 -2.4014 0
M  V30 45711 C 7887.72 0.938381 -1.02409 0
M  V30 45712 N 7887.6 -0.444647 -0.805413 0
M  V30 45713 C 7887.6 -1.40829 -1.79435 0
M  V30 45714 N 7887.47 -2.67213 -1.38558 0
M  V30 45715 N 7887.73 -1.12947 -3.09005 0
M  V30 45716 C 7887.85 0.204887 -3.32369 0
M  V30 45717 H 7890.83 1.93423 -8.4679 0
M  V30 45718 H 7891.1 1.68181 -6.71046 0
M  V30 45719 H 7890.24 -0.289041 -8.15388 0
M  V30 45720 P 7886.27 -1.17771 -8.83182 0
M  V30 45721 O 7886.05 -2.07206 -9.98732 0
M  V30 45722 O 7885.48 0.0743816 -8.81969 0
M  V30 45723 O 7886.02 -1.97652 -7.47304 0
M  V30 45724 C 7886.96 -3.01133 -7.08783 0
M  V30 45725 C 7886.23 -4.12613 -6.37049 0
M  V30 45726 O 7886.02 -3.72827 -4.97879 0
M  V30 45727 C 7884.83 -4.45085 -6.88694 0
M  V30 45728 O 7884.44 -5.7877 -6.5624 0
M  V30 45729 C 7883.95 -3.47817 -6.12078 0
M  V30 45730 C 7884.66 -3.39414 -4.77697 0
M  V30 45731 N 7884.61 -2.04615 -4.15333 0
M  V30 45732 H 7887.45 -3.41248 -7.98759 0
M  V30 45733 H 7887.72 -2.5837 -6.41742 0
M  V30 45734 H 7886.86 -5.02657 -6.42673 0
M  V30 45735 P 7882.89 -6.144 -6.45285 0
M  V30 45736 O 7882.67 -7.54673 -6.86199 0
M  V30 45737 O 7882.1 -5.12391 -7.179 0
M  V30 45738 O 7882.64 -5.99158 -4.88404 0
M  V30 45739 C 7883.58 -6.60234 -3.96415 0
M  V30 45740 C 7882.85 -7.08259 -2.72856 0
M  V30 45741 O 7882.64 -5.9427 -1.83651 0
M  V30 45742 C 7881.45 -7.64886 -2.9555 0
M  V30 45743 O 7881.06 -8.53963 -1.90717 0
M  V30 45744 C 7880.57 -6.4116 -2.90739 0
M  V30 45745 C 7881.28 -5.55375 -1.86963 0
M  V30 45746 N 7881.23 -4.09664 -2.15742 0
M  V30 45747 H 7884.07 -7.45574 -4.45629 0
M  V30 45748 H 7884.34 -5.86232 -3.67314 0
M  V30 45749 H 7883.48 -7.84412 -2.24479 0
M  V30 45750 P 7879.51 -8.7635 -1.60911 0
M  V30 45751 O 7879.29 -10.1388 -1.11561 0
M  V30 45752 O 7878.72 -8.36503 -2.79617 0
M  V30 45753 O 7879.26 -7.71906 -0.429565 0
M  V30 45754 C 7880.2 -7.67148 0.673689 0
M  V30 45755 C 7879.47 -7.33666 1.94851 0
M  V30 45756 O 7879.26 -5.88816 2.00759 0
M  V30 45757 C 7878.07 -7.92526 2.10483 0
M  V30 45758 O 7877.68 -8.03063 3.47693 0
M  V30 45759 C 7877.19 -6.89602 1.41652 0
M  V30 45760 C 7877.9 -5.59201 1.75185 0
M  V30 45761 N 7877.85 -4.58235 0.662552 0
M  V30 45762 C 7877.7 -3.24451 1.01643 0
M  V30 45763 O 7877.61 -2.94958 2.21722 0
M  V30 45764 N 7877.65 -2.30408 -0.165238 0
M  V30 45765 C 7877.75 -2.66048 -1.25118 0
M  V30 45766 N 7877.7 -1.70787 -2.16813 0
M  V30 45767 C 7877.9 -4.02732 -1.64413 0
M  V30 45768 C 7877.95 -4.9488 -0.63991 0
M  V30 45769 H 7880.69 -8.65017 0.777072 0
M  V30 45770 H 7880.96 -6.90173 0.474152 0
M  V30 45771 H 7880.1 -7.66642 2.79492 0
M  V30 45772 H 7877.44 -5.16254 2.65229 0
M  V30 45773 H 7877.16 -7.06532 0.329431 0
M  V30 45774 H 7876.17 -6.91023 1.82047 0
M  V30 45775 H 7878 -8.90873 1.62657 0
M  V30 45776 H 7878.08 -6.00104 -0.892197 0
M  V30 45777 H 7877.97 -4.31733 -2.69229 0
M  V30 45778 H 7877.59 -0.724835 -1.8844 0
M  V30 45779 H 7877.78 -1.94716 -3.16734 0
M  V30 45780 P 7876.13 -8.03563 3.84925 0
M  V30 45781 O 7875.91 -8.85821 5.0569 0
M  V30 45782 O 7875.34 -8.41101 2.65469 0
M  V30 45783 O 7875.88 -6.4965 4.18908 0
M  V30 45784 C 7876.82 -5.81037 5.05421 0
M  V30 45785 C 7876.09 -4.78366 5.89277 0
M  V30 45786 O 7875.88 -3.58302 5.08433 0
M  V30 45787 C 7874.69 -5.17448 6.36119 0
M  V30 45788 O 7874.3 -4.45271 7.53232 0
M  V30 45789 C 7873.81 -4.74639 5.19936 0
M  V30 45790 C 7874.52 -3.49432 4.70418 0
M  V30 45791 N 7874.47 -3.31776 3.22945 0
M  V30 45792 H 7877.31 -6.54213 5.71376 0
M  V30 45793 H 7877.58 -5.30492 4.44033 0
M  V30 45794 H 7876.72 -4.55889 6.76652 0
M  V30 45795 P 7872.75 -4.23843 7.83734 0
M  V30 45796 O 7872.53 -4.19407 9.29784 0
M  V30 45797 O 7871.96 -5.24426 7.09156 0
M  V30 45798 O 7872.5 -2.7935 7.20758 0
M  V30 45799 C 7873.44 -1.7299 7.50419 0
M  V30 45800 C 7872.71 -0.406376 7.57911 0
M  V30 45801 O 7872.5 0.0897726 6.21935 0
M  V30 45802 C 7871.31 -0.447224 8.1878 0
M  V30 45803 O 7870.92 0.825065 8.71101 0
M  V30 45804 C 7870.43 -0.783801 6.99623 0
M  V30 45805 C 7871.14 -0.0619192 5.85967 0
M  V30 45806 N 7871.09 -0.7859 4.56281 0
M  V30 45807 H 7873.93 -1.93423 8.4679 0
M  V30 45808 H 7874.2 -1.68181 6.71046 0
M  V30 45809 H 7873.34 0.289041 8.15388 0
M  V30 45810 P 7869.37 1.17771 8.83182 0
M  V30 45811 O 7869.15 2.07206 9.98732 0
M  V30 45812 O 7868.58 -0.0743816 8.81969 0
M  V30 45813 O 7869.12 1.97652 7.47304 0
M  V30 45814 C 7870.06 3.01133 7.08783 0
M  V30 45815 C 7869.33 4.12613 6.37049 0
M  V30 45816 O 7869.12 3.72827 4.97879 0
M  V30 45817 C 7867.93 4.45085 6.88694 0
M  V30 45818 O 7867.54 5.7877 6.5624 0
M  V30 45819 C 7867.05 3.47817 6.12078 0
M  V30 45820 C 7867.76 3.39414 4.77697 0
M  V30 45821 N 7867.71 2.04199 4.15538 0
M  V30 45822 H 7870.55 3.41248 7.98759 0
M  V30 45823 H 7870.82 2.57728 6.42 0
M  V30 45824 H 7869.96 5.02657 6.42673 0
M  V30 45825 H 7867.3 4.11708 4.08956 0
M  V30 45826 H 7867.02 2.49626 6.61679 0
M  V30 45827 H 7866.03 3.8662 6.00862 0
M  V30 45828 H 7867.86 4.29991 7.97006 0
M  V30 45829 P 7865.99 6.144 6.45285 0
M  V30 45830 O 7865.77 7.54673 6.86199 0
M  V30 45831 O 7865.2 5.12391 7.179 0
M  V30 45832 O 7865.74 5.99236 4.88467 0
M  V30 45833 C 7866.68 6.60234 3.96415 0
M  V30 45834 C 7865.95 7.08079 2.736 0
M  V30 45835 O 7865.74 5.94365 1.8368 0
M  V30 45836 C 7864.55 7.64886 2.9555 0
M  V30 45837 O 7864.16 8.5406 1.90739 0
M  V30 45838 C 7863.67 6.4116 2.90739 0
M  V30 45839 C 7864.38 5.55375 1.86963 0
M  V30 45840 N 7864.33 4.09664 2.15742 0
M  V30 45841 C 7864.18 3.22231 1.08477 0
M  V30 45842 O 7864.09 3.68951 -0.0600489 0
M  V30 45843 N 7864.13 1.76692 1.48799 0
M  V30 45844 C 7864.23 1.41695 2.57602 0
M  V30 45845 N 7864.18 0.107296 2.75791 0
M  V30 45846 C 7864.38 2.29178 3.69733 0
M  V30 45847 C 7864.43 3.62753 3.42653 0
M  V30 45848 H 7867.17 7.45488 4.45578 0
M  V30 45849 H 7867.44 5.86232 3.67314 0
M  V30 45850 H 7866.58 7.84508 2.24507 0
M  V30 45851 H 7863.92 5.73556 0.888715 0
M  V30 45852 H 7863.64 5.9096 3.88638 0
M  V30 45853 H 7862.65 6.66053 2.58894 0
M  V30 45854 H 7864.48 8.16339 3.92049 0
M  V30 45855 H 7864.56 4.33052 4.24913 0
M  V30 45856 H 7864.45 1.9103 4.71577 0
M  V30 45857 H 7864.07 -0.521221 1.95056 0
M  V30 45858 H 7864.26 -0.286429 3.70695 0
M  V30 45859 P 7862.61 8.7635 1.60911 0
M  V30 45860 O 7862.39 10.1388 1.11561 0
M  V30 45861 O 7861.82 8.36503 2.79617 0
M  V30 45862 O 7862.36 7.71806 0.42951 0
M  V30 45863 C 7863.3 7.67148 -0.673689 0
M  V30 45864 C 7862.57 7.33374 -1.95559 0
M  V30 45865 O 7862.36 5.88721 -2.00726 0
M  V30 45866 C 7861.17 7.92526 -2.10483 0
M  V30 45867 O 7860.78 8.02971 -3.47653 0
M  V30 45868 C 7860.29 6.89602 -1.41652 0
M  V30 45869 C 7861 5.59201 -1.75185 0
M  V30 45870 N 7860.95 4.58301 -0.657969 0
M  V30 45871 H 7863.79 8.65116 -0.777161 0
M  V30 45872 H 7864.06 6.9022 -0.46725 0
M  V30 45873 H 7863.2 7.66548 -2.79458 0
M  V30 45874 H 7860.54 5.16165 -2.65183 0
M  V30 45875 H 7860.26 7.06433 -0.329384 0
M  V30 45876 H 7859.27 6.90926 -1.82021 0
M  V30 45877 H 7861.1 8.90873 -1.62657 0
M  V30 45878 P 7859.23 8.03563 -3.84925 0
M  V30 45879 O 7859.01 8.85821 -5.0569 0
M  V30 45880 O 7858.44 8.41101 -2.65469 0
M  V30 45881 O 7858.98 6.4965 -4.18908 0
M  V30 45882 C 7859.92 5.81037 -5.05421 0
M  V30 45883 C 7859.19 4.78366 -5.89277 0
M  V30 45884 O 7858.98 3.58302 -5.08433 0
M  V30 45885 C 7857.79 5.17448 -6.36119 0
M  V30 45886 O 7857.4 4.45271 -7.53232 0
M  V30 45887 C 7856.91 4.74639 -5.19936 0
M  V30 45888 C 7857.62 3.49432 -4.70418 0
M  V30 45889 N 7857.57 3.31776 -3.22945 0
M  V30 45890 H 7860.41 6.54213 -5.71376 0
M  V30 45891 H 7860.68 5.30492 -4.44033 0
M  V30 45892 H 7859.82 4.55889 -6.76652 0
M  V30 45893 P 7855.85 4.23843 -7.83734 0
M  V30 45894 O 7855.63 4.19407 -9.29784 0
M  V30 45895 O 7855.06 5.24426 -7.09156 0
M  V30 45896 O 7855.6 2.7935 -7.20758 0
M  V30 45897 C 7856.54 1.7299 -7.50419 0
M  V30 45898 C 7855.81 0.406376 -7.57911 0
M  V30 45899 O 7855.6 -0.0897726 -6.21935 0
M  V30 45900 C 7854.41 0.447224 -8.1878 0
M  V30 45901 O 7854.02 -0.825065 -8.71101 0
M  V30 45902 C 7853.53 0.783801 -6.99623 0
M  V30 45903 C 7854.24 0.0619192 -5.85967 0
M  V30 45904 N 7854.19 0.7859 -4.56281 0
M  V30 45905 C 7854.27 2.14308 -4.31736 0
M  V30 45906 N 7854.19 2.46106 -3.05116 0
M  V30 45907 C 7854.05 1.23422 -2.4014 0
M  V30 45908 C 7853.92 0.938381 -1.02409 0
M  V30 45909 O 7853.9 1.70876 -0.0650402 0
M  V30 45910 N 7853.8 -0.444647 -0.805413 0
M  V30 45911 C 7853.8 -1.40829 -1.79435 0
M  V30 45912 N 7853.67 -2.67213 -1.38558 0
M  V30 45913 N 7853.93 -1.12947 -3.09005 0
M  V30 45914 C 7854.05 0.204887 -3.32369 0
M  V30 45915 H 7857.03 1.93423 -8.4679 0
M  V30 45916 H 7857.3 1.68181 -6.71046 0
M  V30 45917 H 7856.44 -0.289041 -8.15388 0
M  V30 45918 H 7853.78 -0.927166 -5.72947 0
M  V30 45919 H 7853.5 1.87 -6.82132 0
M  V30 45920 H 7852.51 0.404009 -7.13457 0
M  V30 45921 H 7854.34 1.20612 -8.97633 0
M  V30 45922 H 7854.39 2.88284 -5.10874 0
M  V30 45923 H 7853.71 -0.755087 0.140242 0
M  V30 45924 H 7853.67 -3.43967 -2.0729 0
M  V30 45925 H 7853.57 -2.88096 -0.380644 0
M  V30 45926 P 7852.47 -1.17771 -8.83182 0
M  V30 45927 O 7852.25 -2.07206 -9.98732 0
M  V30 45928 O 7851.68 0.0743816 -8.81969 0
M  V30 45929 O 7852.22 -1.97652 -7.47304 0
M  V30 45930 C 7853.16 -3.01133 -7.08783 0
M  V30 45931 C 7852.43 -4.12613 -6.37049 0
M  V30 45932 O 7852.22 -3.72827 -4.97879 0
M  V30 45933 C 7851.03 -4.45085 -6.88694 0
M  V30 45934 O 7850.64 -5.7877 -6.5624 0
M  V30 45935 C 7850.15 -3.47817 -6.12078 0
M  V30 45936 C 7850.86 -3.39414 -4.77697 0
M  V30 45937 N 7850.81 -2.04615 -4.15333 0
M  V30 45938 C 7850.89 -0.803897 -4.75249 0
M  V30 45939 N 7850.81 0.197615 -3.91502 0
M  V30 45940 C 7850.67 -0.413002 -2.66823 0
M  V30 45941 C 7850.54 0.157221 -1.38007 0
M  V30 45942 N 7850.42 -0.833136 -0.390236 0
M  V30 45943 C 7850.42 -2.19402 -0.623885 0
M  V30 45944 N 7850.29 -2.97622 0.449677 0
M  V30 45945 N 7850.55 -2.73005 -1.83601 0
M  V30 45946 C 7850.67 -1.78786 -2.80935 0
M  V30 45947 H 7853.65 -3.41248 -7.98759 0
M  V30 45948 H 7853.92 -2.5837 -6.41742 0
M  V30 45949 H 7853.06 -5.02657 -6.42673 0
M  V30 45950 P 7849.09 -6.144 -6.45285 0
M  V30 45951 O 7848.87 -7.54673 -6.86199 0
M  V30 45952 O 7848.3 -5.12391 -7.179 0
M  V30 45953 O 7848.84 -5.99158 -4.88404 0
M  V30 45954 C 7849.78 -6.60062 -3.96313 0
M  V30 45955 C 7849.05 -7.08259 -2.72856 0
M  V30 45956 O 7848.84 -5.9427 -1.83651 0
M  V30 45957 C 7847.65 -7.65087 -2.94749 0
M  V30 45958 O 7847.26 -8.53963 -1.90717 0
M  V30 45959 C 7846.77 -6.41069 -2.90698 0
M  V30 45960 C 7847.48 -5.5528 -1.86931 0
M  V30 45961 N 7847.43 -4.09575 -2.15696 0
M  V30 45962 C 7847.28 -3.24249 -1.08435 0
M  V30 45963 O 7847.19 -3.63946 0.0628747 0
M  V30 45964 N 7847.24 -1.90009 -1.39973 0
M  V30 45965 C 7847.33 -1.34884 -2.65614 0
M  V30 45966 O 7847.28 -0.123716 -2.81728 0
M  V30 45967 C 7847.48 -2.3145 -3.71736 0
M  V30 45968 C 7847.59 -1.75913 -5.10438 0
M  V30 45969 C 7847.53 -3.63518 -3.44754 0
M  V30 45970 H 7850.27 -7.45402 -4.45526 0
M  V30 45971 H 7850.54 -5.86062 -3.67208 0
M  V30 45972 H 7849.68 -7.84412 -2.24479 0
M  V30 45973 H 7847.02 -5.73358 -0.888409 0
M  V30 45974 H 7846.74 -5.90877 -3.88583 0
M  V30 45975 H 7845.75 -6.65867 -2.58821 0
M  V30 45976 H 7847.58 -8.16248 -3.92006 0
M  V30 45977 H 7847.66 -4.34551 -4.26383 0
M  V30 45978 H 7846.63 -1.85471 -5.61775 0
M  V30 45979 H 7848.36 -2.31364 -5.66257 0
M  V30 45980 H 7847.87 -0.695936 -5.05229 0
M  V30 45981 H 7847.14 -1.26277 -0.63625 0
M  V30 45982 P 7845.71 -8.7635 -1.60911 0
M  V30 45983 O 7845.49 -10.1388 -1.11561 0
M  V30 45984 O 7844.92 -8.36503 -2.79617 0
M  V30 45985 O 7845.46 -7.71806 -0.42951 0
M  V30 45986 C 7846.4 -7.67148 0.673689 0
M  V30 45987 C 7845.67 -7.33374 1.95559 0
M  V30 45988 O 7845.46 -5.88721 2.00726 0
M  V30 45989 C 7844.27 -7.92526 2.10483 0
M  V30 45990 O 7843.88 -8.02971 3.47653 0
M  V30 45991 C 7843.39 -6.89602 1.41652 0
M  V30 45992 C 7844.1 -5.59201 1.75185 0
M  V30 45993 N 7844.05 -4.58235 0.662552 0
M  V30 45994 H 7846.89 -8.65116 0.777161 0
M  V30 45995 H 7847.16 -6.90173 0.474152 0
M  V30 45996 H 7846.3 -7.66548 2.79458 0
M  V30 45997 P 7842.33 -8.03563 3.84925 0
M  V30 45998 O 7842.11 -8.85821 5.0569 0
M  V30 45999 O 7841.54 -8.41101 2.65469 0
M  V30 46000 O 7842.08 -6.4965 4.18908 0
M  V30 46001 C 7843.02 -5.81037 5.05421 0
M  V30 46002 C 7842.29 -4.78366 5.89277 0
M  V30 46003 O 7842.08 -3.58302 5.08433 0
M  V30 46004 C 7840.89 -5.17448 6.36119 0
M  V30 46005 O 7840.5 -4.45271 7.53232 0
M  V30 46006 C 7840.01 -4.74639 5.19936 0
M  V30 46007 C 7840.72 -3.49432 4.70418 0
M  V30 46008 N 7840.67 -3.31776 3.22945 0
M  V30 46009 H 7843.51 -6.54213 5.71376 0
M  V30 46010 H 7843.78 -5.30492 4.44033 0
M  V30 46011 H 7842.92 -4.55889 6.76652 0
M  V30 46012 P 7838.95 -4.23843 7.83734 0
M  V30 46013 O 7838.73 -4.19407 9.29784 0
M  V30 46014 O 7838.16 -5.24426 7.09156 0
M  V30 46015 O 7838.7 -2.7935 7.20758 0
M  V30 46016 C 7839.64 -1.7299 7.50419 0
M  V30 46017 C 7838.91 -0.406376 7.57911 0
M  V30 46018 O 7838.7 0.0897726 6.21935 0
M  V30 46019 C 7837.51 -0.447224 8.1878 0
M  V30 46020 O 7837.12 0.825065 8.71101 0
M  V30 46021 C 7836.63 -0.783801 6.99623 0
M  V30 46022 C 7837.34 -0.0619192 5.85967 0
M  V30 46023 N 7837.29 -0.790462 4.56202 0
M  V30 46024 H 7840.13 -1.93423 8.4679 0
M  V30 46025 H 7840.4 -1.68852 6.70877 0
M  V30 46026 H 7839.54 0.289041 8.15388 0
M  V30 46027 H 7836.88 0.927006 5.72848 0
M  V30 46028 H 7836.6 -1.86973 6.82036 0
M  V30 46029 H 7835.61 -0.403953 7.13357 0
M  V30 46030 H 7837.44 -1.20599 8.97534 0
M  V30 46031 P 7835.57 1.17771 8.83182 0
M  V30 46032 O 7835.35 2.07206 9.98732 0
M  V30 46033 O 7834.78 -0.0743816 8.81969 0
M  V30 46034 O 7835.32 1.97652 7.47304 0
M  V30 46035 C 7836.26 3.01133 7.08783 0
M  V30 46036 C 7835.53 4.12613 6.37049 0
M  V30 46037 O 7835.32 3.72827 4.97879 0
M  V30 46038 C 7834.13 4.45085 6.88694 0
M  V30 46039 O 7833.74 5.7877 6.5624 0
M  V30 46040 C 7833.25 3.47817 6.12078 0
M  V30 46041 C 7833.96 3.39414 4.77697 0
M  V30 46042 N 7833.91 2.04615 4.15333 0
M  V30 46043 H 7836.75 3.41248 7.98759 0
M  V30 46044 H 7837.02 2.5837 6.41742 0
M  V30 46045 H 7836.16 5.02657 6.42673 0
M  V30 46046 P 7832.19 6.144 6.45285 0
M  V30 46047 O 7831.97 7.54673 6.86199 0
M  V30 46048 O 7831.4 5.12391 7.179 0
M  V30 46049 O 7831.94 5.99158 4.88404 0
M  V30 46050 C 7832.88 6.60234 3.96415 0
M  V30 46051 C 7832.15 7.08259 2.72856 0
M  V30 46052 O 7831.94 5.9427 1.83651 0
M  V30 46053 C 7830.75 7.64886 2.9555 0
M  V30 46054 O 7830.36 8.53963 1.90717 0
M  V30 46055 C 7829.87 6.4116 2.90739 0
M  V30 46056 C 7830.58 5.55375 1.86963 0
M  V30 46057 N 7830.53 4.09664 2.15742 0
M  V30 46058 H 7833.37 7.45574 4.45629 0
M  V30 46059 H 7833.64 5.86232 3.67314 0
M  V30 46060 H 7832.78 7.84412 2.24479 0
M  V30 46061 P 7828.81 8.7635 1.60911 0
M  V30 46062 O 7828.59 10.1388 1.11561 0
M  V30 46063 O 7828.02 8.36503 2.79617 0
M  V30 46064 O 7828.56 7.71806 0.42951 0
M  V30 46065 C 7829.5 7.67148 -0.673689 0
M  V30 46066 C 7828.77 7.33374 -1.95559 0
M  V30 46067 O 7828.56 5.88721 -2.00726 0
M  V30 46068 C 7827.37 7.92526 -2.10483 0
M  V30 46069 O 7826.98 8.02971 -3.47653 0
M  V30 46070 C 7826.49 6.89602 -1.41652 0
M  V30 46071 C 7827.2 5.59201 -1.75185 0
M  V30 46072 N 7827.15 4.58235 -0.662552 0
M  V30 46073 C 7827.23 4.7683 0.704049 0
M  V30 46074 N 7827.15 3.66233 1.39775 0
M  V30 46075 C 7827.01 2.66526 0.431739 0
M  V30 46076 C 7826.88 1.26394 0.575992 0
M  V30 46077 O 7826.86 0.589894 1.60503 0
M  V30 46078 N 7826.76 0.62859 -0.67177 0
M  V30 46079 C 7826.76 1.27134 -1.89385 0
M  V30 46080 N 7826.63 0.492035 -2.96951 0
M  V30 46081 N 7826.89 2.58978 -2.02907 0
M  V30 46082 C 7827.01 3.22433 -0.832218 0
M  V30 46083 H 7829.99 8.65116 -0.777161 0
M  V30 46084 H 7830.26 6.90173 -0.474152 0
M  V30 46085 H 7829.4 7.66548 -2.79458 0
M  V30 46086 H 7826.74 5.16254 -2.65229 0
M  V30 46087 H 7826.46 7.06532 -0.329431 0
M  V30 46088 H 7825.47 6.91023 -1.82047 0
M  V30 46089 H 7827.3 8.90971 -1.62675 0
M  V30 46090 H 7827.35 5.74954 1.16305 0
M  V30 46091 H 7826.67 -0.366713 -0.674793 0
M  V30 46092 H 7826.63 0.908532 -3.91188 0
M  V30 46093 H 7826.53 -0.528253 -2.85758 0
M  V30 46094 P 7825.43 8.03563 -3.84925 0
M  V30 46095 O 7825.21 8.85821 -5.0569 0
M  V30 46096 O 7824.64 8.41101 -2.65469 0
M  V30 46097 O 7825.18 6.4965 -4.18908 0
M  V30 46098 C 7826.12 5.81037 -5.05421 0
M  V30 46099 C 7825.39 4.78366 -5.89277 0
M  V30 46100 O 7825.18 3.58302 -5.08433 0
M  V30 46101 C 7823.99 5.17448 -6.36119 0
M  V30 46102 O 7823.6 4.45271 -7.53232 0
M  V30 46103 C 7823.11 4.74639 -5.19936 0
M  V30 46104 C 7823.82 3.49432 -4.70418 0
M  V30 46105 N 7823.77 3.31776 -3.22945 0
M  V30 46106 H 7826.61 6.54213 -5.71376 0
M  V30 46107 H 7826.88 5.30492 -4.44033 0
M  V30 46108 H 7826.02 4.55889 -6.76652 0
M  V30 46109 P 7822.05 4.23843 -7.83734 0
M  V30 46110 O 7821.83 4.19407 -9.29784 0
M  V30 46111 O 7821.26 5.24426 -7.09156 0
M  V30 46112 O 7821.8 2.7935 -7.20758 0
M  V30 46113 C 7822.74 1.7299 -7.50419 0
M  V30 46114 C 7822.01 0.406376 -7.57911 0
M  V30 46115 O 7821.8 -0.0897726 -6.21935 0
M  V30 46116 C 7820.61 0.447224 -8.1878 0
M  V30 46117 O 7820.22 -0.825065 -8.71101 0
M  V30 46118 C 7819.73 0.783801 -6.99623 0
M  V30 46119 C 7820.44 0.0619192 -5.85967 0
M  V30 46120 N 7820.39 0.790462 -4.56202 0
M  V30 46121 H 7823.23 1.93423 -8.4679 0
M  V30 46122 H 7823.5 1.68852 -6.70877 0
M  V30 46123 H 7822.64 -0.289041 -8.15388 0
M  V30 46124 H 7819.98 -0.927006 -5.72848 0
M  V30 46125 H 7819.7 1.86973 -6.82036 0
M  V30 46126 H 7818.71 0.403953 -7.13357 0
M  V30 46127 H 7820.54 1.20599 -8.97534 0
M  V30 46128 P 7818.67 -1.17771 -8.83182 0
M  V30 46129 O 7818.45 -2.07206 -9.98732 0
M  V30 46130 O 7817.88 0.0743816 -8.81969 0
M  V30 46131 O 7818.42 -1.97652 -7.47304 0
M  V30 46132 C 7819.36 -3.01133 -7.08783 0
M  V30 46133 C 7818.63 -4.12613 -6.37049 0
M  V30 46134 O 7818.42 -3.72827 -4.97879 0
M  V30 46135 C 7817.23 -4.45085 -6.88694 0
M  V30 46136 O 7816.84 -5.7877 -6.5624 0
M  V30 46137 C 7816.35 -3.47817 -6.12078 0
M  V30 46138 C 7817.06 -3.39414 -4.77697 0
M  V30 46139 N 7817.01 -2.04199 -4.15538 0
M  V30 46140 H 7819.85 -3.41248 -7.98759 0
M  V30 46141 H 7820.12 -2.57728 -6.42 0
M  V30 46142 H 7819.26 -5.02657 -6.42673 0
M  V30 46143 H 7816.6 -4.11708 -4.08956 0
M  V30 46144 H 7816.32 -2.49626 -6.61679 0
M  V30 46145 H 7815.33 -3.8662 -6.00862 0
M  V30 46146 H 7817.16 -4.29991 -7.97006 0
M  V30 46147 P 7815.29 -6.144 -6.45285 0
M  V30 46148 O 7815.07 -7.54673 -6.86199 0
M  V30 46149 O 7814.5 -5.12391 -7.179 0
M  V30 46150 O 7815.04 -5.99158 -4.88404 0
M  V30 46151 C 7815.98 -6.60234 -3.96415 0
M  V30 46152 C 7815.25 -7.08259 -2.72856 0
M  V30 46153 O 7815.04 -5.9427 -1.83651 0
M  V30 46154 C 7813.85 -7.64886 -2.9555 0
M  V30 46155 O 7813.46 -8.53963 -1.90717 0
M  V30 46156 C 7812.97 -6.4116 -2.90739 0
M  V30 46157 C 7813.68 -5.55375 -1.86963 0
M  V30 46158 N 7813.63 -4.09448 -2.16152 0
M  V30 46159 H 7816.47 -7.45574 -4.45629 0
M  V30 46160 H 7816.74 -5.85864 -3.679 0
M  V30 46161 H 7815.88 -7.84412 -2.24479 0
M  V30 46162 H 7813.22 -5.73457 -0.888562 0
M  V30 46163 H 7812.94 -5.90877 -3.88583 0
M  V30 46164 H 7811.95 -6.6596 -2.58858 0
M  V30 46165 H 7813.78 -8.16339 -3.92049 0
M  V30 46166 P 7811.91 -8.7635 -1.60911 0
M  V30 46167 O 7811.69 -10.1388 -1.11561 0
M  V30 46168 O 7811.12 -8.36503 -2.79617 0
M  V30 46169 O 7811.66 -7.71806 -0.42951 0
M  V30 46170 C 7812.6 -7.66948 0.673514 0
M  V30 46171 C 7811.87 -7.33374 1.95559 0
M  V30 46172 O 7811.66 -5.88721 2.00726 0
M  V30 46173 C 7810.47 -7.92218 2.1125 0
M  V30 46174 O 7810.08 -8.02971 3.47653 0
M  V30 46175 C 7809.59 -6.89504 1.41631 0
M  V30 46176 C 7810.3 -5.59106 1.75155 0
M  V30 46177 N 7810.25 -4.58136 0.662409 0
M  V30 46178 C 7810.1 -3.26059 1.02863 0
M  V30 46179 O 7810.01 -2.90743 2.19009 0
M  V30 46180 N 7810.06 -2.35995 -0.0155585 0
M  V30 46181 C 7810.15 -2.65248 -1.35603 0
M  V30 46182 O 7810.1 -1.75605 -2.20651 0
M  V30 46183 C 7810.3 -4.05747 -1.64698 0
M  V30 46184 C 7810.41 -4.42345 -3.09553 0
M  V30 46185 C 7810.35 -4.96734 -0.652411 0
M  V30 46186 H 7813.09 -8.64917 0.776982 0
M  V30 46187 H 7813.36 -6.89974 0.474015 0
M  V30 46188 H 7812.5 -7.66548 2.79458 0
M  V30 46189 H 7809.84 -5.16076 2.65138 0
M  V30 46190 H 7809.56 -7.06433 0.329384 0
M  V30 46191 H 7808.57 -6.90829 1.81996 0
M  V30 46192 H 7810.4 -8.90774 1.62639 0
M  V30 46193 H 7810.48 -6.02181 -0.895285 0
M  V30 46194 H 7809.45 -4.80252 -3.45468 0
M  V30 46195 H 7811.18 -5.20015 -3.22119 0
M  V30 46196 H 7810.69 -3.53269 -3.67833 0
M  V30 46197 H 7809.96 -1.39558 0.227499 0
M  V30 46198 P 7808.53 -8.03563 3.84925 0
M  V30 46199 O 7808.31 -8.85821 5.0569 0
M  V30 46200 O 7807.74 -8.41101 2.65469 0
M  V30 46201 O 7808.28 -6.4965 4.18908 0
M  V30 46202 C 7809.22 -5.81037 5.05421 0
M  V30 46203 C 7808.49 -4.78366 5.89277 0
M  V30 46204 O 7808.28 -3.58302 5.08433 0
M  V30 46205 C 7807.09 -5.17448 6.36119 0
M  V30 46206 O 7806.7 -4.45271 7.53232 0
M  V30 46207 C 7806.21 -4.74639 5.19936 0
M  V30 46208 C 7806.92 -3.49432 4.70418 0
M  V30 46209 N 7806.87 -3.31776 3.22945 0
M  V30 46210 H 7809.71 -6.54213 5.71376 0
M  V30 46211 H 7809.98 -5.30492 4.44033 0
M  V30 46212 H 7809.12 -4.55889 6.76652 0
M  V30 46213 P 7805.15 -4.23843 7.83734 0
M  V30 46214 O 7804.93 -4.19407 9.29784 0
M  V30 46215 O 7804.36 -5.24426 7.09156 0
M  V30 46216 O 7804.9 -2.7935 7.20758 0
M  V30 46217 C 7805.84 -1.7299 7.50419 0
M  V30 46218 C 7805.11 -0.406376 7.57911 0
M  V30 46219 O 7804.9 0.0897726 6.21935 0
M  V30 46220 C 7803.71 -0.447224 8.1878 0
M  V30 46221 O 7803.32 0.825065 8.71101 0
M  V30 46222 C 7802.83 -0.783801 6.99623 0
M  V30 46223 C 7803.54 -0.0619192 5.85967 0
M  V30 46224 N 7803.49 -0.7859 4.56281 0
M  V30 46225 H 7806.33 -1.93423 8.4679 0
M  V30 46226 H 7806.6 -1.68181 6.71046 0
M  V30 46227 H 7805.74 0.289041 8.15388 0
M  V30 46228 P 7801.77 1.17771 8.83182 0
M  V30 46229 O 7801.55 2.07206 9.98732 0
M  V30 46230 O 7800.98 -0.0743816 8.81969 0
M  V30 46231 O 7801.52 1.97652 7.47304 0
M  V30 46232 C 7802.46 3.01133 7.08783 0
M  V30 46233 C 7801.73 4.12613 6.37049 0
M  V30 46234 O 7801.52 3.72827 4.97879 0
M  V30 46235 C 7800.33 4.45085 6.88694 0
M  V30 46236 O 7799.94 5.7877 6.5624 0
M  V30 46237 C 7799.45 3.47817 6.12078 0
M  V30 46238 C 7800.16 3.39414 4.77697 0
M  V30 46239 N 7800.11 2.04615 4.15333 0
M  V30 46240 H 7802.95 3.41248 7.98759 0
M  V30 46241 H 7803.22 2.5837 6.41742 0
M  V30 46242 H 7802.36 5.02657 6.42673 0
M  V30 46243 P 7798.39 6.144 6.45285 0
M  V30 46244 O 7798.17 7.54673 6.86199 0
M  V30 46245 O 7797.6 5.12391 7.179 0
M  V30 46246 O 7798.14 5.99158 4.88404 0
M  V30 46247 C 7799.08 6.60234 3.96415 0
M  V30 46248 C 7798.35 7.08259 2.72856 0
M  V30 46249 O 7798.14 5.9427 1.83651 0
M  V30 46250 C 7796.95 7.64886 2.9555 0
M  V30 46251 O 7796.56 8.53963 1.90717 0
M  V30 46252 C 7796.07 6.4116 2.90739 0
M  V30 46253 C 7796.78 5.55375 1.86963 0
M  V30 46254 N 7796.73 4.09448 2.16152 0
M  V30 46255 H 7799.57 7.45574 4.45629 0
M  V30 46256 H 7799.84 5.85864 3.679 0
M  V30 46257 H 7798.98 7.84412 2.24479 0
M  V30 46258 H 7796.32 5.73457 0.888562 0
M  V30 46259 H 7796.04 5.90877 3.88583 0
M  V30 46260 H 7795.05 6.6596 2.58858 0
M  V30 46261 H 7796.88 8.16339 3.92049 0
M  V30 46262 P 7795.01 8.7635 1.60911 0
M  V30 46263 O 7794.79 10.1388 1.11561 0
M  V30 46264 O 7794.22 8.36503 2.79617 0
M  V30 46265 O 7794.76 7.71806 0.42951 0
M  V30 46266 C 7795.7 7.67148 -0.673689 0
M  V30 46267 C 7794.97 7.33374 -1.95559 0
M  V30 46268 O 7794.76 5.88721 -2.00726 0
M  V30 46269 C 7793.57 7.92526 -2.10483 0
M  V30 46270 O 7793.18 8.02971 -3.47653 0
M  V30 46271 C 7792.69 6.89602 -1.41652 0
M  V30 46272 C 7793.4 5.59201 -1.75185 0
M  V30 46273 N 7793.35 4.58235 -0.662552 0
M  V30 46274 H 7796.19 8.65116 -0.777161 0
M  V30 46275 H 7796.46 6.90173 -0.474152 0
M  V30 46276 H 7795.6 7.66548 -2.79458 0
M  V30 46277 P 7791.63 8.03563 -3.84925 0
M  V30 46278 O 7791.41 8.85821 -5.0569 0
M  V30 46279 O 7790.84 8.41101 -2.65469 0
M  V30 46280 O 7791.38 6.4965 -4.18908 0
M  V30 46281 C 7792.32 5.81037 -5.05421 0
M  V30 46282 C 7791.59 4.78366 -5.89277 0
M  V30 46283 O 7791.38 3.58302 -5.08433 0
M  V30 46284 C 7790.19 5.17448 -6.36119 0
M  V30 46285 O 7789.8 4.45271 -7.53232 0
M  V30 46286 C 7789.31 4.74639 -5.19936 0
M  V30 46287 C 7790.02 3.49432 -4.70418 0
M  V30 46288 N 7789.97 3.31776 -3.22945 0
M  V30 46289 H 7792.81 6.54213 -5.71376 0
M  V30 46290 H 7793.08 5.30492 -4.44033 0
M  V30 46291 H 7792.22 4.55889 -6.76652 0
M  V30 46292 P 7788.25 4.23843 -7.83734 0
M  V30 46293 O 7788.03 4.19407 -9.29784 0
M  V30 46294 O 7787.46 5.24426 -7.09156 0
M  V30 46295 O 7788 2.7935 -7.20758 0
M  V30 46296 C 7788.94 1.7299 -7.50419 0
M  V30 46297 C 7788.21 0.406376 -7.57911 0
M  V30 46298 O 7788 -0.0897726 -6.21935 0
M  V30 46299 C 7786.81 0.447224 -8.1878 0
M  V30 46300 O 7786.42 -0.825065 -8.71101 0
M  V30 46301 C 7785.93 0.783801 -6.99623 0
M  V30 46302 C 7786.64 0.0619192 -5.85967 0
M  V30 46303 N 7786.59 0.790462 -4.56202 0
M  V30 46304 H 7789.43 1.93423 -8.4679 0
M  V30 46305 H 7789.7 1.68852 -6.70877 0
M  V30 46306 H 7788.84 -0.289041 -8.15388 0
M  V30 46307 H 7786.18 -0.927006 -5.72848 0
M  V30 46308 H 7785.9 1.86973 -6.82036 0
M  V30 46309 H 7784.91 0.403953 -7.13357 0
M  V30 46310 H 7786.74 1.20599 -8.97534 0
M  V30 46311 P 7784.87 -1.17771 -8.83182 0
M  V30 46312 O 7784.65 -2.07206 -9.98732 0
M  V30 46313 O 7784.08 0.0743816 -8.81969 0
M  V30 46314 O 7784.62 -1.97652 -7.47304 0
M  V30 46315 C 7785.56 -3.01055 -7.08599 0
M  V30 46316 C 7784.83 -4.12613 -6.37049 0
M  V30 46317 O 7784.62 -3.72827 -4.97879 0
M  V30 46318 C 7783.43 -4.45719 -6.88164 0
M  V30 46319 O 7783.04 -5.7877 -6.5624 0
M  V30 46320 C 7782.55 -3.47768 -6.11991 0
M  V30 46321 C 7783.26 -3.39356 -4.77615 0
M  V30 46322 N 7783.21 -2.04571 -4.15244 0
M  V30 46323 C 7783.06 -1.98587 -2.78314 0
M  V30 46324 O 7782.97 -2.98134 -2.08835 0
M  V30 46325 N 7783.02 -0.714467 -2.24925 0
M  V30 46326 C 7783.11 0.470001 -2.94169 0
M  V30 46327 C 7783.26 0.312541 -4.36783 0
M  V30 46328 C 7783.31 -0.914512 -4.92583 0
M  V30 46329 H 7786.05 -3.41169 -7.98575 0
M  V30 46330 H 7786.32 -2.58295 -6.41556 0
M  V30 46331 H 7785.46 -5.02657 -6.42673 0
M  V30 46332 H 7782.8 -4.11637 -4.08885 0
M  V30 46333 H 7782.52 -2.49626 -6.61679 0
M  V30 46334 H 7781.53 -3.86566 -6.00778 0
M  V30 46335 H 7783.36 -4.29943 -7.96918 0
M  V30 46336 H 7783.44 -1.00937 -6.00374 0
M  V30 46337 P 7781.49 -6.144 -6.45285 0
M  V30 46338 O 7781.27 -7.54673 -6.86199 0
M  V30 46339 O 7780.7 -5.12391 -7.179 0
M  V30 46340 O 7781.24 -5.99158 -4.88404 0
M  V30 46341 C 7782.18 -6.60234 -3.96415 0
M  V30 46342 C 7781.45 -7.08259 -2.72856 0
M  V30 46343 O 7781.24 -5.9427 -1.83651 0
M  V30 46344 C 7780.05 -7.64886 -2.9555 0
M  V30 46345 O 7779.66 -8.53963 -1.90717 0
M  V30 46346 C 7779.17 -6.4116 -2.90739 0
M  V30 46347 C 7779.88 -5.55375 -1.86963 0
M  V30 46348 N 7779.83 -4.09664 -2.15742 0
M  V30 46349 H 7782.67 -7.45574 -4.45629 0
M  V30 46350 H 7782.94 -5.86232 -3.67314 0
M  V30 46351 H 7782.08 -7.84412 -2.24479 0
M  V30 46352 P 7778.11 -8.7635 -1.60911 0
M  V30 46353 O 7777.89 -10.1388 -1.11561 0
M  V30 46354 O 7777.32 -8.36503 -2.79617 0
M  V30 46355 O 7777.86 -7.71906 -0.429565 0
M  V30 46356 C 7778.8 -7.67148 0.673689 0
M  V30 46357 C 7778.07 -7.33666 1.94851 0
M  V30 46358 O 7777.86 -5.88816 2.00759 0
M  V30 46359 C 7776.67 -7.92526 2.10483 0
M  V30 46360 O 7776.28 -8.03063 3.47693 0
M  V30 46361 C 7775.79 -6.89602 1.41652 0
M  V30 46362 C 7776.5 -5.59201 1.75185 0
M  V30 46363 N 7776.45 -4.58235 0.662552 0
M  V30 46364 C 7776.3 -3.24451 1.01643 0
M  V30 46365 O 7776.21 -2.94958 2.21722 0
M  V30 46366 N 7776.25 -2.30408 -0.165238 0
M  V30 46367 C 7776.35 -2.66048 -1.25118 0
M  V30 46368 N 7776.3 -1.70787 -2.16813 0
M  V30 46369 C 7776.5 -4.02732 -1.64413 0
M  V30 46370 C 7776.55 -4.9488 -0.63991 0
M  V30 46371 H 7779.29 -8.65017 0.777072 0
M  V30 46372 H 7779.56 -6.90173 0.474152 0
M  V30 46373 H 7778.7 -7.66642 2.79492 0
M  V30 46374 H 7776.04 -5.16254 2.65229 0
M  V30 46375 H 7775.76 -7.06532 0.329431 0
M  V30 46376 H 7774.77 -6.91023 1.82047 0
M  V30 46377 H 7776.6 -8.90873 1.62657 0
M  V30 46378 H 7776.68 -6.00104 -0.892197 0
M  V30 46379 H 7776.57 -4.31733 -2.69229 0
M  V30 46380 H 7776.19 -0.724835 -1.8844 0
M  V30 46381 H 7776.38 -1.94716 -3.16734 0
M  V30 46382 P 7774.73 -8.03563 3.84925 0
M  V30 46383 O 7774.51 -8.85821 5.0569 0
M  V30 46384 O 7773.94 -8.41101 2.65469 0
M  V30 46385 O 7774.48 -6.4965 4.18908 0
M  V30 46386 C 7775.42 -5.81037 5.05421 0
M  V30 46387 C 7774.69 -4.78366 5.89277 0
M  V30 46388 O 7774.48 -3.58302 5.08433 0
M  V30 46389 C 7773.29 -5.17448 6.36119 0
M  V30 46390 O 7772.9 -4.45271 7.53232 0
M  V30 46391 C 7772.41 -4.74639 5.19936 0
M  V30 46392 C 7773.12 -3.49432 4.70418 0
M  V30 46393 N 7773.07 -3.31776 3.22945 0
M  V30 46394 C 7773.15 -4.27147 2.23315 0
M  V30 46395 N 7773.07 -3.78447 1.02186 0
M  V30 46396 C 7772.93 -2.41001 1.21732 0
M  V30 46397 C 7772.8 -1.36111 0.27694 0
M  V30 46398 O 7772.78 -1.42065 -0.951767 0
M  V30 46399 N 7772.68 -0.113683 0.912949 0
M  V30 46400 C 7772.68 0.0846396 2.27943 0
M  V30 46401 N 7772.55 1.34737 2.6916 0
M  V30 46402 N 7772.81 -0.902521 3.16379 0
M  V30 46403 C 7772.93 -2.11937 2.56849 0
M  V30 46404 H 7775.91 -6.54213 5.71376 0
M  V30 46405 H 7776.19 -5.30492 4.44033 0
M  V30 46406 H 7775.32 -4.55889 6.76652 0
M  V30 46407 H 7772.66 -2.6176 5.18021 0
M  V30 46408 H 7772.38 -5.52233 4.41941 0
M  V30 46409 H 7771.39 -4.52045 5.53452 0
M  V30 46410 H 7773.23 -6.25193 6.55307 0
M  V30 46411 H 7773.27 -5.3351 2.43857 0
M  V30 46412 H 7772.59 0.69331 0.330371 0
M  V30 46413 H 7772.56 1.56433 3.6988 0
M  V30 46414 H 7772.45 2.10701 2.00133 0
M  V30 46415 P 7771.35 -4.23843 7.83734 0
M  V30 46416 O 7771.13 -4.19407 9.29784 0
M  V30 46417 O 7770.56 -5.24426 7.09156 0
M  V30 46418 O 7771.1 -2.7935 7.20758 0
M  V30 46419 C 7772.04 -1.7299 7.50419 0
M  V30 46420 C 7771.31 -0.406376 7.57911 0
M  V30 46421 O 7771.1 0.0897726 6.21935 0
M  V30 46422 C 7769.91 -0.447224 8.1878 0
M  V30 46423 O 7769.52 0.825065 8.71101 0
M  V30 46424 C 7769.03 -0.783801 6.99623 0
M  V30 46425 C 7769.74 -0.0619192 5.85967 0
M  V30 46426 N 7769.69 -0.790462 4.56202 0
M  V30 46427 H 7772.53 -1.93423 8.4679 0
M  V30 46428 H 7772.81 -1.68852 6.70877 0
M  V30 46429 H 7771.94 0.289041 8.15388 0
M  V30 46430 H 7769.28 0.927006 5.72848 0
M  V30 46431 H 7769 -1.86973 6.82036 0
M  V30 46432 H 7768.01 -0.403953 7.13357 0
M  V30 46433 H 7769.85 -1.20599 8.97534 0
M  V30 46434 P 7767.97 1.17771 8.83182 0
M  V30 46435 O 7767.75 2.07206 9.98732 0
M  V30 46436 O 7767.18 -0.0743816 8.81969 0
M  V30 46437 O 7767.72 1.97652 7.47304 0
M  V30 46438 C 7768.66 3.01133 7.08783 0
M  V30 46439 C 7767.93 4.12613 6.37049 0
M  V30 46440 O 7767.72 3.72827 4.97879 0
M  V30 46441 C 7766.53 4.45085 6.88694 0
M  V30 46442 O 7766.14 5.7877 6.5624 0
M  V30 46443 C 7765.65 3.47817 6.12078 0
M  V30 46444 C 7766.36 3.39414 4.77697 0
M  V30 46445 N 7766.31 2.04615 4.15333 0
M  V30 46446 H 7769.15 3.41248 7.98759 0
M  V30 46447 H 7769.43 2.5837 6.41742 0
M  V30 46448 H 7768.56 5.02657 6.42673 0
M  V30 46449 P 7764.59 6.144 6.45285 0
M  V30 46450 O 7764.37 7.54673 6.86199 0
M  V30 46451 O 7763.8 5.12391 7.179 0
M  V30 46452 O 7764.34 5.99158 4.88404 0
M  V30 46453 C 7765.28 6.60234 3.96415 0
M  V30 46454 C 7764.55 7.08259 2.72856 0
M  V30 46455 O 7764.34 5.9427 1.83651 0
M  V30 46456 C 7763.15 7.64886 2.9555 0
M  V30 46457 O 7762.76 8.53963 1.90717 0
M  V30 46458 C 7762.27 6.4116 2.90739 0
M  V30 46459 C 7762.98 5.55375 1.86963 0
M  V30 46460 N 7762.93 4.09448 2.16152 0
M  V30 46461 H 7765.77 7.45574 4.45629 0
M  V30 46462 H 7766.05 5.85864 3.679 0
M  V30 46463 H 7765.18 7.84412 2.24479 0
M  V30 46464 H 7762.52 5.73457 0.888562 0
M  V30 46465 H 7762.24 5.90877 3.88583 0
M  V30 46466 H 7761.25 6.6596 2.58858 0
M  V30 46467 H 7763.09 8.16339 3.92049 0
M  V30 46468 P 7761.21 8.7635 1.60911 0
M  V30 46469 O 7760.99 10.1388 1.11561 0
M  V30 46470 O 7760.42 8.36503 2.79617 0
M  V30 46471 O 7760.96 7.71806 0.42951 0
M  V30 46472 C 7761.9 7.67148 -0.673689 0
M  V30 46473 C 7761.17 7.33374 -1.95559 0
M  V30 46474 O 7760.96 5.88721 -2.00726 0
M  V30 46475 C 7759.77 7.92526 -2.10483 0
M  V30 46476 O 7759.38 8.02971 -3.47653 0
M  V30 46477 C 7758.89 6.89602 -1.41652 0
M  V30 46478 C 7759.6 5.59201 -1.75185 0
M  V30 46479 N 7759.55 4.58235 -0.662552 0
M  V30 46480 H 7762.39 8.65116 -0.777161 0
M  V30 46481 H 7762.67 6.90173 -0.474152 0
M  V30 46482 H 7761.8 7.66548 -2.79458 0
M  V30 46483 P 7757.83 8.03563 -3.84925 0
M  V30 46484 O 7757.61 8.85821 -5.0569 0
M  V30 46485 O 7757.04 8.41101 -2.65469 0
M  V30 46486 O 7757.58 6.4965 -4.18908 0
M  V30 46487 C 7758.52 5.81037 -5.05421 0
M  V30 46488 C 7757.79 4.78366 -5.89277 0
M  V30 46489 O 7757.58 3.58302 -5.08433 0
M  V30 46490 C 7756.39 5.17448 -6.36119 0
M  V30 46491 O 7756 4.45271 -7.53232 0
M  V30 46492 C 7755.51 4.74639 -5.19936 0
M  V30 46493 C 7756.22 3.49432 -4.70418 0
M  V30 46494 N 7756.17 3.31776 -3.22945 0
M  V30 46495 H 7759.01 6.54213 -5.71376 0
M  V30 46496 H 7759.29 5.30492 -4.44033 0
M  V30 46497 H 7758.42 4.55889 -6.76652 0
M  V30 46498 P 7754.45 4.23843 -7.83734 0
M  V30 46499 O 7754.23 4.19407 -9.29784 0
M  V30 46500 O 7753.66 5.24426 -7.09156 0
M  V30 46501 O 7754.2 2.7935 -7.20758 0
M  V30 46502 C 7755.14 1.7299 -7.50419 0
M  V30 46503 C 7754.41 0.406376 -7.57911 0
M  V30 46504 O 7754.2 -0.0897726 -6.21935 0
M  V30 46505 C 7753.01 0.447224 -8.1878 0
M  V30 46506 O 7752.62 -0.825065 -8.71101 0
M  V30 46507 C 7752.13 0.783801 -6.99623 0
M  V30 46508 C 7752.84 0.0619192 -5.85967 0
M  V30 46509 N 7752.79 0.790462 -4.56202 0
M  V30 46510 H 7755.63 1.93423 -8.4679 0
M  V30 46511 H 7755.91 1.68852 -6.70877 0
M  V30 46512 H 7755.04 -0.289041 -8.15388 0
M  V30 46513 H 7752.38 -0.927006 -5.72848 0
M  V30 46514 H 7752.1 1.86973 -6.82036 0
M  V30 46515 H 7751.11 0.403953 -7.13357 0
M  V30 46516 H 7752.95 1.20599 -8.97534 0
M  V30 46517 P 7751.07 -1.17771 -8.83182 0
M  V30 46518 O 7750.85 -2.07206 -9.98732 0
M  V30 46519 O 7750.28 0.0743816 -8.81969 0
M  V30 46520 O 7750.82 -1.97678 -7.474 0
M  V30 46521 C 7751.76 -3.01133 -7.08783 0
M  V30 46522 C 7751.03 -4.1203 -6.37546 0
M  V30 46523 O 7750.82 -3.72887 -4.9796 0
M  V30 46524 C 7749.63 -4.45085 -6.88694 0
M  V30 46525 O 7749.24 -5.78836 -6.56315 0
M  V30 46526 C 7748.75 -3.47817 -6.12078 0
M  V30 46527 C 7749.46 -3.39414 -4.77697 0
M  V30 46528 N 7749.41 -2.04615 -4.15333 0
M  V30 46529 C 7749.26 -1.96929 -2.77162 0
M  V30 46530 O 7749.17 -3.02017 -2.12006 0
M  V30 46531 N 7749.21 -0.55485 -2.24237 0
M  V30 46532 C 7749.31 0.367808 -2.9169 0
M  V30 46533 N 7749.26 1.53426 -2.29427 0
M  V30 46534 C 7749.46 0.319148 -4.33828 0
M  V30 46535 C 7749.51 -0.920672 -4.90433 0
M  V30 46536 H 7752.25 -3.41209 -7.98667 0
M  V30 46537 H 7752.52 -2.5837 -6.41742 0
M  V30 46538 H 7751.66 -5.02718 -6.42752 0
M  V30 46539 H 7749 -4.11779 -4.09026 0
M  V30 46540 H 7748.72 -2.49661 -6.61772 0
M  V30 46541 H 7747.73 -3.86674 -6.00946 0
M  V30 46542 H 7749.57 -4.29991 -7.97006 0
M  V30 46543 H 7749.64 -1.00589 -5.98303 0
M  V30 46544 H 7749.54 1.22639 -4.93799 0
M  V30 46545 H 7749.15 1.56819 -1.27167 0
M  V30 46546 H 7749.34 2.41062 -2.83063 0
M  V30 46547 P 7747.69 -6.144 -6.45285 0
M  V30 46548 O 7747.47 -7.54673 -6.86199 0
M  V30 46549 O 7746.9 -5.12391 -7.179 0
M  V30 46550 O 7747.44 -5.99158 -4.88404 0
M  V30 46551 C 7748.38 -6.60234 -3.96415 0
M  V30 46552 C 7747.65 -7.08259 -2.72856 0
M  V30 46553 O 7747.44 -5.9427 -1.83651 0
M  V30 46554 C 7746.25 -7.64886 -2.9555 0
M  V30 46555 O 7745.86 -8.53963 -1.90717 0
M  V30 46556 C 7745.37 -6.4116 -2.90739 0
M  V30 46557 C 7746.08 -5.55375 -1.86963 0
M  V30 46558 N 7746.03 -4.09664 -2.15742 0
M  V30 46559 H 7748.87 -7.45574 -4.45629 0
M  V30 46560 H 7749.15 -5.86232 -3.67314 0
M  V30 46561 H 7748.28 -7.84412 -2.24479 0
M  V30 46562 P 7744.31 -8.7635 -1.60911 0
M  V30 46563 O 7744.09 -10.1388 -1.11561 0
M  V30 46564 O 7743.52 -8.36503 -2.79617 0
M  V30 46565 O 7744.06 -7.71806 -0.42951 0
M  V30 46566 C 7745 -7.67148 0.673689 0
M  V30 46567 C 7744.27 -7.33374 1.95559 0
M  V30 46568 O 7744.06 -5.88721 2.00726 0
M  V30 46569 C 7742.87 -7.92526 2.10483 0
M  V30 46570 O 7742.48 -8.02971 3.47653 0
M  V30 46571 C 7741.99 -6.89602 1.41652 0
M  V30 46572 C 7742.7 -5.59201 1.75185 0
M  V30 46573 N 7742.65 -4.58235 0.662552 0
M  V30 46574 H 7745.49 -8.65116 0.777161 0
M  V30 46575 H 7745.77 -6.90173 0.474152 0
M  V30 46576 H 7744.9 -7.66548 2.79458 0
M  V30 46577 P 7740.93 -8.03563 3.84925 0
M  V30 46578 O 7740.71 -8.85821 5.0569 0
M  V30 46579 O 7740.14 -8.41101 2.65469 0
M  V30 46580 O 7740.68 -6.49734 4.18962 0
M  V30 46581 C 7741.62 -5.81037 5.05421 0
M  V30 46582 C 7740.89 -4.79018 5.88876 0
M  V30 46583 O 7740.68 -3.58359 5.08515 0
M  V30 46584 C 7739.49 -5.17448 6.36119 0
M  V30 46585 O 7739.1 -4.45322 7.53318 0
M  V30 46586 C 7738.61 -4.74639 5.19936 0
M  V30 46587 C 7739.32 -3.49432 4.70418 0
M  V30 46588 N 7739.27 -3.31776 3.22945 0
M  V30 46589 C 7739.12 -2.02742 2.72939 0
M  V30 46590 O 7739.03 -1.08301 3.52749 0
M  V30 46591 N 7739.07 -1.96117 1.22063 0
M  V30 46592 C 7739.17 -2.8878 0.551566 0
M  V30 46593 N 7739.12 -2.65609 -0.750198 0
M  V30 46594 C 7739.32 -4.22457 1.03707 0
M  V30 46595 C 7739.37 -4.37979 2.39113 0
M  V30 46596 H 7742.11 -6.54138 5.7131 0
M  V30 46597 H 7742.38 -5.30492 4.44033 0
M  V30 46598 H 7741.52 -4.55945 6.76735 0
M  V30 46599 H 7738.86 -2.6176 5.18021 0
M  V30 46600 H 7738.58 -5.52233 4.41941 0
M  V30 46601 H 7737.59 -4.52045 5.53452 0
M  V30 46602 H 7739.43 -6.25124 6.55234 0
M  V30 46603 H 7739.5 -5.37936 2.80552 0
M  V30 46604 H 7739.4 -5.07528 0.359553 0
M  V30 46605 H 7739.01 -1.69403 -1.09847 0
M  V30 46606 H 7739.2 -3.43701 -1.41792 0
M  V30 46607 P 7737.55 -4.23843 7.83734 0
M  V30 46608 O 7737.33 -4.19407 9.29784 0
M  V30 46609 O 7736.76 -5.24426 7.09156 0
M  V30 46610 O 7737.3 -2.7935 7.20758 0
M  V30 46611 C 7738.24 -1.7299 7.50419 0
M  V30 46612 C 7737.51 -0.406376 7.57911 0
M  V30 46613 O 7737.3 0.0897726 6.21935 0
M  V30 46614 C 7736.11 -0.447224 8.1878 0
M  V30 46615 O 7735.72 0.825065 8.71101 0
M  V30 46616 C 7735.23 -0.783801 6.99623 0
M  V30 46617 C 7735.94 -0.0619192 5.85967 0
M  V30 46618 N 7735.89 -0.7859 4.56281 0
M  V30 46619 H 7738.73 -1.93423 8.4679 0
M  V30 46620 H 7739.01 -1.68181 6.71046 0
M  V30 46621 H 7738.14 0.289041 8.15388 0
M  V30 46622 P 7734.17 1.17771 8.83182 0
M  V30 46623 O 7733.95 2.07206 9.98732 0
M  V30 46624 O 7733.38 -0.0743816 8.81969 0
M  V30 46625 O 7733.92 1.97652 7.47304 0
M  V30 46626 C 7734.86 3.01133 7.08783 0
M  V30 46627 C 7734.13 4.12613 6.37049 0
M  V30 46628 O 7733.92 3.72827 4.97879 0
M  V30 46629 C 7732.73 4.45085 6.88694 0
M  V30 46630 O 7732.34 5.7877 6.5624 0
M  V30 46631 C 7731.85 3.47817 6.12078 0
M  V30 46632 C 7732.56 3.39414 4.77697 0
M  V30 46633 N 7732.51 2.04199 4.15538 0
M  V30 46634 H 7735.35 3.41248 7.98759 0
M  V30 46635 H 7735.63 2.57728 6.42 0
M  V30 46636 H 7734.76 5.02657 6.42673 0
M  V30 46637 H 7732.1 4.11708 4.08956 0
M  V30 46638 H 7731.82 2.49626 6.61679 0
M  V30 46639 H 7730.83 3.8662 6.00862 0
M  V30 46640 H 7732.67 4.29991 7.97006 0
M  V30 46641 P 7730.79 6.144 6.45285 0
M  V30 46642 O 7730.57 7.54673 6.86199 0
M  V30 46643 O 7730 5.12391 7.179 0
M  V30 46644 O 7730.54 5.99158 4.88404 0
M  V30 46645 C 7731.48 6.60234 3.96415 0
M  V30 46646 C 7730.75 7.08259 2.72856 0
M  V30 46647 O 7730.54 5.9427 1.83651 0
M  V30 46648 C 7729.35 7.64886 2.9555 0
M  V30 46649 O 7728.96 8.53963 1.90717 0
M  V30 46650 C 7728.47 6.4116 2.90739 0
M  V30 46651 C 7729.18 5.55375 1.86963 0
M  V30 46652 N 7729.13 4.09448 2.16152 0
M  V30 46653 H 7731.97 7.45574 4.45629 0
M  V30 46654 H 7732.25 5.85864 3.679 0
M  V30 46655 H 7731.38 7.84412 2.24479 0
M  V30 46656 H 7728.72 5.73457 0.888562 0
M  V30 46657 H 7728.44 5.90877 3.88583 0
M  V30 46658 H 7727.45 6.6596 2.58858 0
M  V30 46659 H 7729.29 8.16339 3.92049 0
M  V30 46660 P 7727.41 8.7635 1.60911 0
M  V30 46661 O 7727.19 10.1388 1.11561 0
M  V30 46662 O 7726.62 8.36503 2.79617 0
M  V30 46663 O 7727.16 7.71806 0.42951 0
M  V30 46664 C 7728.1 7.67148 -0.673689 0
M  V30 46665 C 7727.37 7.33374 -1.95559 0
M  V30 46666 O 7727.16 5.88721 -2.00726 0
M  V30 46667 C 7725.97 7.92526 -2.10483 0
M  V30 46668 O 7725.58 8.02971 -3.47653 0
M  V30 46669 C 7725.09 6.89602 -1.41652 0
M  V30 46670 C 7725.8 5.59201 -1.75185 0
M  V30 46671 N 7725.75 4.58235 -0.662552 0
M  V30 46672 H 7728.59 8.65116 -0.777161 0
M  V30 46673 H 7728.87 6.90173 -0.474152 0
M  V30 46674 H 7728 7.66548 -2.79458 0
M  V30 46675 P 7724.03 8.03563 -3.84925 0
M  V30 46676 O 7723.81 8.85821 -5.0569 0
M  V30 46677 O 7723.24 8.41101 -2.65469 0
M  V30 46678 O 7723.78 6.4965 -4.18908 0
M  V30 46679 C 7724.72 5.81037 -5.05421 0
M  V30 46680 C 7723.99 4.78366 -5.89277 0
M  V30 46681 O 7723.78 3.58302 -5.08433 0
M  V30 46682 C 7722.59 5.17448 -6.36119 0
M  V30 46683 O 7722.2 4.45271 -7.53232 0
M  V30 46684 C 7721.71 4.74639 -5.19936 0
M  V30 46685 C 7722.42 3.49432 -4.70418 0
M  V30 46686 N 7722.37 3.31776 -3.22945 0
M  V30 46687 H 7725.21 6.54213 -5.71376 0
M  V30 46688 H 7725.49 5.30492 -4.44033 0
M  V30 46689 H 7724.62 4.55889 -6.76652 0
M  V30 46690 P 7720.65 4.23843 -7.83734 0
M  V30 46691 O 7720.43 4.19407 -9.29784 0
M  V30 46692 O 7719.86 5.24426 -7.09156 0
M  V30 46693 O 7720.4 2.79386 -7.20852 0
M  V30 46694 C 7721.34 1.7299 -7.50419 0
M  V30 46695 C 7720.61 0.41401 -7.5797 0
M  V30 46696 O 7720.4 -0.089787 -6.22035 0
M  V30 46697 C 7719.21 0.447224 -8.1878 0
M  V30 46698 O 7718.82 -0.825159 -8.71201 0
M  V30 46699 C 7718.33 0.783801 -6.99623 0
M  V30 46700 C 7719.04 0.0619192 -5.85967 0
M  V30 46701 N 7718.99 0.7859 -4.56281 0
M  V30 46702 C 7718.84 0.0359258 -3.39981 0
M  V30 46703 O 7718.75 -1.19723 -3.49038 0
M  V30 46704 N 7718.79 0.869151 -2.14025 0
M  V30 46705 C 7718.89 2.01207 -2.14363 0
M  V30 46706 N 7718.84 2.58978 -0.954287 0
M  V30 46707 C 7719.04 2.80817 -3.32215 0
M  V30 46708 C 7719.09 2.13785 -4.50884 0
M  V30 46709 H 7721.83 1.93401 -8.46693 0
M  V30 46710 H 7722.1 1.68181 -6.71046 0
M  V30 46711 H 7721.24 -0.289076 -8.15488 0
M  V30 46712 H 7718.58 -0.927166 -5.72947 0
M  V30 46713 H 7718.3 1.87 -6.82132 0
M  V30 46714 H 7717.31 0.404009 -7.13457 0
M  V30 46715 H 7719.15 1.20599 -8.97534 0
M  V30 46716 H 7719.22 2.70295 -5.43162 0
M  V30 46717 H 7719.12 3.89465 -3.27406 0
M  V30 46718 H 7718.73 2.01616 -0.107046 0
M  V30 46719 H 7718.92 3.61403 -0.873101 0
M  V30 46720 P 7717.27 -1.17771 -8.83182 0
M  V30 46721 O 7717.05 -2.07206 -9.98732 0
M  V30 46722 O 7716.48 0.0743816 -8.81969 0
M  V30 46723 O 7717.02 -1.97652 -7.47304 0
M  V30 46724 C 7717.96 -3.01133 -7.08783 0
M  V30 46725 C 7717.23 -4.12613 -6.37049 0
M  V30 46726 O 7717.02 -3.72827 -4.97879 0
M  V30 46727 C 7715.83 -4.45085 -6.88694 0
M  V30 46728 O 7715.44 -5.7877 -6.5624 0
M  V30 46729 C 7714.95 -3.47817 -6.12078 0
M  V30 46730 C 7715.66 -3.39414 -4.77697 0
M  V30 46731 N 7715.61 -2.04615 -4.15333 0
M  V30 46732 H 7718.45 -3.41248 -7.98759 0
M  V30 46733 H 7718.73 -2.5837 -6.41742 0
M  V30 46734 H 7717.86 -5.02657 -6.42673 0
M  V30 46735 P 7713.89 -6.144 -6.45285 0
M  V30 46736 O 7713.67 -7.54673 -6.86199 0
M  V30 46737 O 7713.1 -5.12391 -7.179 0
M  V30 46738 O 7713.64 -5.99236 -4.88467 0
M  V30 46739 C 7714.58 -6.60234 -3.96415 0
M  V30 46740 C 7713.85 -7.08079 -2.736 0
M  V30 46741 O 7713.64 -5.94365 -1.8368 0
M  V30 46742 C 7712.45 -7.64886 -2.9555 0
M  V30 46743 O 7712.06 -8.5406 -1.90739 0
M  V30 46744 C 7711.57 -6.4116 -2.90739 0
M  V30 46745 C 7712.28 -5.55375 -1.86963 0
M  V30 46746 N 7712.23 -4.09664 -2.15742 0
M  V30 46747 C 7712.08 -3.22231 -1.08477 0
M  V30 46748 O 7711.99 -3.68951 0.0600489 0
M  V30 46749 N 7712.03 -1.76692 -1.48799 0
M  V30 46750 C 7712.13 -1.41695 -2.57602 0
M  V30 46751 N 7712.08 -0.107296 -2.75791 0
M  V30 46752 C 7712.28 -2.29178 -3.69733 0
M  V30 46753 C 7712.33 -3.62753 -3.42653 0
M  V30 46754 H 7715.07 -7.45488 -4.45578 0
M  V30 46755 H 7715.34 -5.86232 -3.67314 0
M  V30 46756 H 7714.48 -7.84508 -2.24507 0
M  V30 46757 H 7711.82 -5.73556 -0.888715 0
M  V30 46758 H 7711.54 -5.9096 -3.88638 0
M  V30 46759 H 7710.55 -6.66053 -2.58894 0
M  V30 46760 H 7712.39 -8.16339 -3.92049 0
M  V30 46761 H 7712.46 -4.33052 -4.24913 0
M  V30 46762 H 7712.36 -1.9103 -4.71577 0
M  V30 46763 H 7711.97 0.521221 -1.95056 0
M  V30 46764 H 7712.16 0.286429 -3.70695 0
M  V30 46765 P 7710.51 -8.7635 -1.60911 0
M  V30 46766 O 7710.29 -10.1388 -1.11561 0
M  V30 46767 O 7709.72 -8.36503 -2.79617 0
M  V30 46768 O 7710.26 -7.71806 -0.42951 0
M  V30 46769 C 7711.2 -7.67148 0.673689 0
M  V30 46770 C 7710.47 -7.33374 1.95559 0
M  V30 46771 O 7710.26 -5.88721 2.00726 0
M  V30 46772 C 7709.07 -7.92526 2.10483 0
M  V30 46773 O 7708.68 -8.02971 3.47653 0
M  V30 46774 C 7708.19 -6.89602 1.41652 0
M  V30 46775 C 7708.9 -5.59201 1.75185 0
M  V30 46776 N 7708.85 -4.58235 0.662552 0
M  V30 46777 C 7708.93 -4.7683 -0.704049 0
M  V30 46778 N 7708.85 -3.66233 -1.39775 0
M  V30 46779 C 7708.71 -2.66526 -0.431739 0
M  V30 46780 C 7708.58 -1.26394 -0.575992 0
M  V30 46781 O 7708.56 -0.589894 -1.60503 0
M  V30 46782 N 7708.46 -0.62859 0.67177 0
M  V30 46783 C 7708.46 -1.27134 1.89385 0
M  V30 46784 N 7708.33 -0.492035 2.96951 0
M  V30 46785 N 7708.59 -2.58978 2.02907 0
M  V30 46786 C 7708.71 -3.22433 0.832218 0
M  V30 46787 H 7711.69 -8.65116 0.777161 0
M  V30 46788 H 7711.97 -6.90173 0.474152 0
M  V30 46789 H 7711.1 -7.66548 2.79458 0
M  V30 46790 H 7708.44 -5.16254 2.65229 0
M  V30 46791 H 7708.16 -7.06532 0.329431 0
M  V30 46792 H 7707.17 -6.91023 1.82047 0
M  V30 46793 H 7709.01 -8.90971 1.62675 0
M  V30 46794 H 7709.05 -5.74954 -1.16305 0
M  V30 46795 H 7708.37 0.366713 0.674793 0
M  V30 46796 H 7708.34 -0.908532 3.91188 0
M  V30 46797 H 7708.23 0.528253 2.85758 0
M  V30 46798 P 7707.13 -8.03563 3.84925 0
M  V30 46799 O 7706.91 -8.85821 5.0569 0
M  V30 46800 O 7706.34 -8.41101 2.65469 0
M  V30 46801 O 7706.88 -6.4965 4.18908 0
M  V30 46802 C 7707.82 -5.81037 5.05421 0
M  V30 46803 C 7707.09 -4.78366 5.89277 0
M  V30 46804 O 7706.88 -3.58302 5.08433 0
M  V30 46805 C 7705.69 -5.17448 6.36119 0
M  V30 46806 O 7705.3 -4.45271 7.53232 0
M  V30 46807 C 7704.81 -4.74639 5.19936 0
M  V30 46808 C 7705.52 -3.49432 4.70418 0
M  V30 46809 N 7705.47 -3.31776 3.22945 0
M  V30 46810 H 7708.31 -6.54213 5.71376 0
M  V30 46811 H 7708.59 -5.30492 4.44033 0
M  V30 46812 H 7707.72 -4.55889 6.76652 0
M  V30 46813 P 7703.75 -4.23843 7.83734 0
M  V30 46814 O 7703.53 -4.19407 9.29784 0
M  V30 46815 O 7702.96 -5.24426 7.09156 0
M  V30 46816 O 7703.5 -2.7935 7.20758 0
M  V30 46817 C 7704.44 -1.7299 7.50419 0
M  V30 46818 C 7703.71 -0.406376 7.57911 0
M  V30 46819 O 7703.5 0.0897726 6.21935 0
M  V30 46820 C 7702.31 -0.447224 8.1878 0
M  V30 46821 O 7701.92 0.825065 8.71101 0
M  V30 46822 C 7701.43 -0.783801 6.99623 0
M  V30 46823 C 7702.14 -0.0619192 5.85967 0
M  V30 46824 N 7702.09 -0.790462 4.56202 0
M  V30 46825 C 7702.17 -2.13895 4.34171 0
M  V30 46826 N 7702.1 -2.46449 3.08687 0
M  V30 46827 C 7701.95 -1.2525 2.43697 0
M  V30 46828 C 7701.82 -0.914535 1.07318 0
M  V30 46829 N 7701.81 -1.80782 0.0887348 0
M  V30 46830 N 7701.7 0.386745 0.768133 0
M  V30 46831 C 7701.71 1.28096 1.75159 0
M  V30 46832 N 7701.83 1.09708 3.04861 0
M  V30 46833 C 7701.95 -0.214857 3.32306 0
M  V30 46834 H 7704.93 -1.93423 8.4679 0
M  V30 46835 H 7705.21 -1.68852 6.70877 0
M  V30 46836 H 7704.34 0.289041 8.15388 0
M  V30 46837 H 7701.68 0.927006 5.72848 0
M  V30 46838 H 7701.4 -1.86973 6.82036 0
M  V30 46839 H 7700.41 -0.403953 7.13357 0
M  V30 46840 H 7702.25 -1.20599 8.97534 0
M  V30 46841 H 7702.29 -2.86846 5.14318 0
M  V30 46842 H 7701.91 -2.81082 0.302037 0
M  V30 46843 H 7701.72 -1.49688 -0.889064 0
M  V30 46844 H 7701.61 2.31317 1.43855 0
M  V30 46845 P 7700.37 1.17771 8.83182 0
M  V30 46846 O 7700.15 2.07206 9.98732 0
M  V30 46847 O 7699.58 -0.0743816 8.81969 0
M  V30 46848 O 7700.12 1.97652 7.47304 0
M  V30 46849 C 7701.06 3.01055 7.08599 0
M  V30 46850 C 7700.33 4.12613 6.37049 0
M  V30 46851 O 7700.12 3.72827 4.97879 0
M  V30 46852 C 7698.93 4.45719 6.88164 0
M  V30 46853 O 7698.54 5.7877 6.5624 0
M  V30 46854 C 7698.05 3.47768 6.11991 0
M  V30 46855 C 7698.76 3.39356 4.77615 0
M  V30 46856 N 7698.71 2.04571 4.15244 0
M  V30 46857 C 7698.56 1.98587 2.78314 0
M  V30 46858 O 7698.47 2.98134 2.08835 0
M  V30 46859 N 7698.52 0.714467 2.24925 0
M  V30 46860 C 7698.61 -0.470001 2.94169 0
M  V30 46861 O 7698.56 -1.55587 2.35195 0
M  V30 46862 C 7698.76 -0.312541 4.36783 0
M  V30 46863 C 7698.87 -1.57711 5.16352 0
M  V30 46864 C 7698.81 0.914512 4.92583 0
M  V30 46865 H 7701.56 3.41169 7.98575 0
M  V30 46866 H 7701.82 2.58295 6.41556 0
M  V30 46867 H 7700.96 5.02657 6.42673 0
M  V30 46868 H 7698.3 4.11637 4.08885 0
M  V30 46869 H 7698.02 2.49626 6.61679 0
M  V30 46870 H 7697.03 3.86566 6.00778 0
M  V30 46871 H 7698.87 4.29943 7.96918 0
M  V30 46872 H 7698.94 1.00937 6.00374 0
M  V30 46873 H 7697.91 -1.80153 5.63503 0
M  V30 46874 H 7699.64 -1.4566 5.94104 0
M  V30 46875 H 7699.16 -2.40664 4.49645 0
M  V30 46876 H 7698.42 0.647622 1.25697 0
M  V30 46877 P 7696.99 6.144 6.45285 0
M  V30 46878 O 7696.77 7.54673 6.86199 0
M  V30 46879 O 7696.2 5.12391 7.179 0
M  V30 46880 O 7696.74 5.99158 4.88404 0
M  V30 46881 C 7697.68 6.60234 3.96415 0
M  V30 46882 C 7696.95 7.08259 2.72856 0
M  V30 46883 O 7696.74 5.9427 1.83651 0
M  V30 46884 C 7695.55 7.64886 2.9555 0
M  V30 46885 O 7695.16 8.53963 1.90717 0
M  V30 46886 C 7694.67 6.4116 2.90739 0
M  V30 46887 C 7695.38 5.55375 1.86963 0
M  V30 46888 N 7695.33 4.09664 2.15742 0
M  V30 46889 H 7698.17 7.45574 4.45629 0
M  V30 46890 H 7698.45 5.86232 3.67314 0
M  V30 46891 H 7697.58 7.84412 2.24479 0
M  V30 46892 P 7693.61 8.7635 1.60911 0
M  V30 46893 O 7693.39 10.1388 1.11561 0
M  V30 46894 O 7692.82 8.36503 2.79617 0
M  V30 46895 O 7693.36 7.71806 0.42951 0
M  V30 46896 C 7694.3 7.67148 -0.673689 0
M  V30 46897 C 7693.57 7.33374 -1.95559 0
M  V30 46898 O 7693.36 5.88721 -2.00726 0
M  V30 46899 C 7692.17 7.92526 -2.10483 0
M  V30 46900 O 7691.78 8.02971 -3.47653 0
M  V30 46901 C 7691.29 6.89602 -1.41652 0
M  V30 46902 C 7692 5.59201 -1.75185 0
M  V30 46903 N 7691.95 4.58235 -0.662552 0
M  V30 46904 H 7694.79 8.65116 -0.777161 0
M  V30 46905 H 7695.07 6.90173 -0.474152 0
M  V30 46906 H 7694.2 7.66548 -2.79458 0
M  V30 46907 P 7690.23 8.03563 -3.84925 0
M  V30 46908 O 7690.01 8.85821 -5.0569 0
M  V30 46909 O 7689.44 8.41101 -2.65469 0
M  V30 46910 O 7689.98 6.4965 -4.18908 0
M  V30 46911 C 7690.92 5.81037 -5.05421 0
M  V30 46912 C 7690.19 4.78366 -5.89277 0
M  V30 46913 O 7689.98 3.58302 -5.08433 0
M  V30 46914 C 7688.79 5.17448 -6.36119 0
M  V30 46915 O 7688.4 4.45271 -7.53232 0
M  V30 46916 C 7687.91 4.74639 -5.19936 0
M  V30 46917 C 7688.62 3.49432 -4.70418 0
M  V30 46918 N 7688.57 3.31776 -3.22945 0
M  V30 46919 H 7691.41 6.54213 -5.71376 0
M  V30 46920 H 7691.69 5.30492 -4.44033 0
M  V30 46921 H 7690.82 4.55889 -6.76652 0
M  V30 46922 P 7686.85 4.23843 -7.83734 0
M  V30 46923 O 7686.63 4.19407 -9.29784 0
M  V30 46924 O 7686.06 5.24426 -7.09156 0
M  V30 46925 O 7686.6 2.7935 -7.20758 0
M  V30 46926 C 7687.54 1.7299 -7.50419 0
M  V30 46927 C 7686.81 0.406376 -7.57911 0
M  V30 46928 O 7686.6 -0.0897726 -6.21935 0
M  V30 46929 C 7685.41 0.447224 -8.1878 0
M  V30 46930 O 7685.02 -0.825065 -8.71101 0
M  V30 46931 C 7684.53 0.783801 -6.99623 0
M  V30 46932 C 7685.24 0.0619192 -5.85967 0
M  V30 46933 N 7685.19 0.7859 -4.56281 0
M  V30 46934 C 7685.27 2.14308 -4.31736 0
M  V30 46935 N 7685.19 2.46106 -3.05116 0
M  V30 46936 C 7685.05 1.23422 -2.4014 0
M  V30 46937 C 7684.92 0.938381 -1.02409 0
M  V30 46938 N 7684.8 -0.444647 -0.805413 0
M  V30 46939 C 7684.8 -1.40829 -1.79435 0
M  V30 46940 N 7684.67 -2.67213 -1.38558 0
M  V30 46941 N 7684.93 -1.12947 -3.09005 0
M  V30 46942 C 7685.05 0.204887 -3.32369 0
M  V30 46943 H 7688.03 1.93423 -8.4679 0
M  V30 46944 H 7688.31 1.68181 -6.71046 0
M  V30 46945 H 7687.44 -0.289041 -8.15388 0
M  V30 46946 P 7683.47 -1.17771 -8.83182 0
M  V30 46947 O 7683.25 -2.07206 -9.98732 0
M  V30 46948 O 7682.68 0.0743816 -8.81969 0
M  V30 46949 O 7683.22 -1.97652 -7.47304 0
M  V30 46950 C 7684.16 -3.01133 -7.08783 0
M  V30 46951 C 7683.43 -4.12613 -6.37049 0
M  V30 46952 O 7683.22 -3.72827 -4.97879 0
M  V30 46953 C 7682.03 -4.45085 -6.88694 0
M  V30 46954 O 7681.64 -5.7877 -6.5624 0
M  V30 46955 C 7681.15 -3.47817 -6.12078 0
M  V30 46956 C 7681.86 -3.39414 -4.77697 0
M  V30 46957 N 7681.81 -2.04615 -4.15333 0
M  V30 46958 H 7684.65 -3.41248 -7.98759 0
M  V30 46959 H 7684.93 -2.5837 -6.41742 0
M  V30 46960 H 7684.06 -5.02657 -6.42673 0
M  V30 46961 P 7680.09 -6.144 -6.45285 0
M  V30 46962 O 7679.87 -7.54673 -6.86199 0
M  V30 46963 O 7679.3 -5.12391 -7.179 0
M  V30 46964 O 7679.84 -5.99158 -4.88404 0
M  V30 46965 C 7680.78 -6.60234 -3.96415 0
M  V30 46966 C 7680.05 -7.08259 -2.72856 0
M  V30 46967 O 7679.84 -5.9427 -1.83651 0
M  V30 46968 C 7678.65 -7.64886 -2.9555 0
M  V30 46969 O 7678.26 -8.53963 -1.90717 0
M  V30 46970 C 7677.77 -6.4116 -2.90739 0
M  V30 46971 C 7678.48 -5.55375 -1.86963 0
M  V30 46972 N 7678.43 -4.09664 -2.15742 0
M  V30 46973 H 7681.27 -7.45574 -4.45629 0
M  V30 46974 H 7681.55 -5.86232 -3.67314 0
M  V30 46975 H 7680.68 -7.84412 -2.24479 0
M  V30 46976 P 7676.71 -8.7635 -1.60911 0
M  V30 46977 O 7676.49 -10.1388 -1.11561 0
M  V30 46978 O 7675.92 -8.36503 -2.79617 0
M  V30 46979 O 7676.46 -7.71906 -0.429565 0
M  V30 46980 C 7677.4 -7.67148 0.673689 0
M  V30 46981 C 7676.67 -7.33666 1.94851 0
M  V30 46982 O 7676.46 -5.88816 2.00759 0
M  V30 46983 C 7675.27 -7.92526 2.10483 0
M  V30 46984 O 7674.88 -8.03063 3.47693 0
M  V30 46985 C 7674.39 -6.89602 1.41652 0
M  V30 46986 C 7675.1 -5.59201 1.75185 0
M  V30 46987 N 7675.05 -4.58235 0.662552 0
M  V30 46988 C 7674.9 -3.24451 1.01643 0
M  V30 46989 O 7674.81 -2.94958 2.21722 0
M  V30 46990 N 7674.85 -2.30408 -0.165238 0
M  V30 46991 C 7674.95 -2.66048 -1.25118 0
M  V30 46992 N 7674.9 -1.70787 -2.16813 0
M  V30 46993 C 7675.1 -4.02732 -1.64413 0
M  V30 46994 C 7675.15 -4.9488 -0.63991 0
M  V30 46995 H 7677.89 -8.65017 0.777072 0
M  V30 46996 H 7678.16 -6.90173 0.474152 0
M  V30 46997 H 7677.3 -7.66642 2.79492 0
M  V30 46998 H 7674.64 -5.16254 2.65229 0
M  V30 46999 H 7674.36 -7.06532 0.329431 0
M  V30 47000 H 7673.37 -6.91023 1.82047 0
M  V30 47001 H 7675.21 -8.90873 1.62657 0
M  V30 47002 H 7675.28 -6.00104 -0.892197 0
M  V30 47003 H 7675.18 -4.31733 -2.69229 0
M  V30 47004 H 7674.79 -0.724835 -1.8844 0
M  V30 47005 H 7674.98 -1.94716 -3.16734 0
M  V30 47006 P 7673.33 -8.03563 3.84925 0
M  V30 47007 O 7673.11 -8.85821 5.0569 0
M  V30 47008 O 7672.54 -8.41101 2.65469 0
M  V30 47009 O 7673.08 -6.4965 4.18908 0
M  V30 47010 C 7674.02 -5.81037 5.05421 0
M  V30 47011 C 7673.29 -4.78366 5.89277 0
M  V30 47012 O 7673.08 -3.58302 5.08433 0
M  V30 47013 C 7671.89 -5.17448 6.36119 0
M  V30 47014 O 7671.5 -4.45271 7.53232 0
M  V30 47015 C 7671.01 -4.74639 5.19936 0
M  V30 47016 C 7671.72 -3.49432 4.70418 0
M  V30 47017 N 7671.67 -3.31776 3.22945 0
M  V30 47018 H 7674.51 -6.54213 5.71376 0
M  V30 47019 H 7674.79 -5.30492 4.44033 0
M  V30 47020 H 7673.92 -4.55889 6.76652 0
M  V30 47021 P 7669.95 -4.23843 7.83734 0
M  V30 47022 O 7669.73 -4.19407 9.29784 0
M  V30 47023 O 7669.16 -5.24426 7.09156 0
M  V30 47024 O 7669.7 -2.7935 7.20758 0
M  V30 47025 C 7670.64 -1.72945 7.50224 0
M  V30 47026 C 7669.91 -0.406376 7.57911 0
M  V30 47027 O 7669.7 0.0897726 6.21935 0
M  V30 47028 C 7668.51 -0.438983 8.18724 0
M  V30 47029 O 7668.12 0.825065 8.71101 0
M  V30 47030 C 7667.63 -0.783689 6.99524 0
M  V30 47031 C 7668.34 -0.0619086 5.85867 0
M  V30 47032 N 7668.29 -0.78573 4.56183 0
M  V30 47033 C 7668.14 -0.0292889 3.41887 0
M  V30 47034 O 7668.05 1.18445 3.4419 0
M  V30 47035 N 7668.1 -0.744061 2.23964 0
M  V30 47036 C 7668.19 -2.10932 2.10362 0
M  V30 47037 C 7668.34 -2.8202 3.34994 0
M  V30 47038 C 7668.39 -2.15547 4.52261 0
M  V30 47039 H 7671.14 -1.93379 8.46595 0
M  V30 47040 H 7671.4 -1.68132 6.70852 0
M  V30 47041 H 7670.54 0.289041 8.15388 0
M  V30 47042 H 7667.88 0.926847 5.72749 0
M  V30 47043 H 7667.6 -1.86973 6.82036 0
M  V30 47044 H 7666.61 -0.403896 7.13257 0
M  V30 47045 H 7668.45 -1.20585 8.97435 0
M  V30 47046 H 7668.52 -2.71231 5.45042 0
M  V30 47047 P 7666.57 1.17771 8.83182 0
M  V30 47048 O 7666.35 2.07206 9.98732 0
M  V30 47049 O 7665.78 -0.0743816 8.81969 0
M  V30 47050 O 7666.32 1.97652 7.47304 0
M  V30 47051 C 7667.26 3.01133 7.08783 0
M  V30 47052 C 7666.53 4.12613 6.37049 0
M  V30 47053 O 7666.32 3.72827 4.97879 0
M  V30 47054 C 7665.13 4.45085 6.88694 0
M  V30 47055 O 7664.74 5.7877 6.5624 0
M  V30 47056 C 7664.25 3.47817 6.12078 0
M  V30 47057 C 7664.96 3.39414 4.77697 0
M  V30 47058 N 7664.91 2.04615 4.15333 0
M  V30 47059 H 7667.75 3.41248 7.98759 0
M  V30 47060 H 7668.03 2.5837 6.41742 0
M  V30 47061 H 7667.16 5.02657 6.42673 0
M  V30 47062 P 7663.19 6.144 6.45285 0
M  V30 47063 O 7662.97 7.54673 6.86199 0
M  V30 47064 O 7662.4 5.12391 7.179 0
M  V30 47065 O 7662.94 5.99158 4.88404 0
M  V30 47066 C 7663.88 6.60234 3.96415 0
M  V30 47067 C 7663.15 7.08259 2.72856 0
M  V30 47068 O 7662.94 5.9427 1.83651 0
M  V30 47069 C 7661.75 7.64886 2.9555 0
M  V30 47070 O 7661.36 8.53963 1.90717 0
M  V30 47071 C 7660.87 6.4116 2.90739 0
M  V30 47072 C 7661.58 5.55375 1.86963 0
M  V30 47073 N 7661.53 4.09448 2.16152 0
M  V30 47074 H 7664.37 7.45574 4.45629 0
M  V30 47075 H 7664.65 5.85864 3.679 0
M  V30 47076 H 7663.78 7.84412 2.24479 0
M  V30 47077 H 7661.12 5.73457 0.888562 0
M  V30 47078 H 7660.84 5.90877 3.88583 0
M  V30 47079 H 7659.85 6.6596 2.58858 0
M  V30 47080 H 7661.69 8.16339 3.92049 0
M  V30 47081 P 7659.81 8.7635 1.60911 0
M  V30 47082 O 7659.59 10.1388 1.11561 0
M  V30 47083 O 7659.02 8.36503 2.79617 0
M  V30 47084 O 7659.56 7.71806 0.42951 0
M  V30 47085 C 7660.5 7.67148 -0.673689 0
M  V30 47086 C 7659.77 7.33374 -1.95559 0
M  V30 47087 O 7659.56 5.88721 -2.00726 0
M  V30 47088 C 7658.37 7.92526 -2.10483 0
M  V30 47089 O 7657.98 8.02971 -3.47653 0
M  V30 47090 C 7657.49 6.89602 -1.41652 0
M  V30 47091 C 7658.2 5.59201 -1.75185 0
M  V30 47092 N 7658.15 4.58301 -0.657969 0
M  V30 47093 C 7658.23 4.79019 0.692603 0
M  V30 47094 N 7658.16 3.69736 1.38998 0
M  V30 47095 C 7658.01 2.70474 0.438135 0
M  V30 47096 C 7657.88 1.30327 0.538142 0
M  V30 47097 N 7657.87 0.64304 1.69192 0
M  V30 47098 N 7657.76 0.611027 -0.605183 0
M  V30 47099 C 7657.77 1.27002 -1.75953 0
M  V30 47100 N 7657.89 2.56038 -1.98546 0
M  V30 47101 C 7658.01 3.22681 -0.822541 0
M  V30 47102 H 7660.99 8.65116 -0.777161 0
M  V30 47103 H 7661.27 6.9022 -0.46725 0
M  V30 47104 H 7660.4 7.66548 -2.79458 0
M  V30 47105 H 7657.74 5.16165 -2.65183 0
M  V30 47106 H 7657.46 7.06433 -0.329384 0
M  V30 47107 H 7656.47 6.90926 -1.82021 0
M  V30 47108 H 7658.31 8.90873 -1.62657 0
M  V30 47109 H 7658.35 5.77785 1.13874 0
M  V30 47110 H 7657.97 1.15585 2.57991 0
M  V30 47111 H 7657.78 -0.382989 1.69835 0
M  V30 47112 H 7657.67 0.653331 -2.64449 0
M  V30 47113 P 7656.43 8.03563 -3.84925 0
M  V30 47114 O 7656.21 8.85821 -5.0569 0
M  V30 47115 O 7655.64 8.41101 -2.65469 0
M  V30 47116 O 7656.18 6.4965 -4.18908 0
M  V30 47117 C 7657.12 5.81037 -5.05421 0
M  V30 47118 C 7656.39 4.78366 -5.89277 0
M  V30 47119 O 7656.18 3.58302 -5.08433 0
M  V30 47120 C 7654.99 5.17448 -6.36119 0
M  V30 47121 O 7654.6 4.45271 -7.53232 0
M  V30 47122 C 7654.11 4.74639 -5.19936 0
M  V30 47123 C 7654.82 3.49432 -4.70418 0
M  V30 47124 N 7654.77 3.31776 -3.22945 0
M  V30 47125 H 7657.61 6.54213 -5.71376 0
M  V30 47126 H 7657.89 5.30492 -4.44033 0
M  V30 47127 H 7657.02 4.55889 -6.76652 0
M  V30 47128 P 7653.05 4.23843 -7.83734 0
M  V30 47129 O 7652.83 4.19407 -9.29784 0
M  V30 47130 O 7652.26 5.24426 -7.09156 0
M  V30 47131 O 7652.8 2.7935 -7.20758 0
M  V30 47132 C 7653.74 1.7299 -7.50419 0
M  V30 47133 C 7653.01 0.406376 -7.57911 0
M  V30 47134 O 7652.8 -0.0897726 -6.21935 0
M  V30 47135 C 7651.61 0.447224 -8.1878 0
M  V30 47136 O 7651.22 -0.825065 -8.71101 0
M  V30 47137 C 7650.73 0.783801 -6.99623 0
M  V30 47138 C 7651.44 0.0619192 -5.85967 0
M  V30 47139 N 7651.39 0.7859 -4.56281 0
M  V30 47140 H 7654.23 1.93423 -8.4679 0
M  V30 47141 H 7654.51 1.68181 -6.71046 0
M  V30 47142 H 7653.64 -0.289041 -8.15388 0
M  V30 47143 P 7649.67 -1.17771 -8.83182 0
M  V30 47144 O 7649.45 -2.07206 -9.98732 0
M  V30 47145 O 7648.88 0.0743816 -8.81969 0
M  V30 47146 O 7649.42 -1.97652 -7.47304 0
M  V30 47147 C 7650.36 -3.01133 -7.08783 0
M  V30 47148 C 7649.63 -4.12613 -6.37049 0
M  V30 47149 O 7649.42 -3.72827 -4.97879 0
M  V30 47150 C 7648.23 -4.45085 -6.88694 0
M  V30 47151 O 7647.84 -5.7877 -6.5624 0
M  V30 47152 C 7647.35 -3.47817 -6.12078 0
M  V30 47153 C 7648.06 -3.39414 -4.77697 0
M  V30 47154 N 7648.01 -2.04615 -4.15333 0
M  V30 47155 H 7650.85 -3.41248 -7.98759 0
M  V30 47156 H 7651.13 -2.5837 -6.41742 0
M  V30 47157 H 7650.26 -5.02657 -6.42673 0
M  V30 47158 P 7646.29 -6.144 -6.45285 0
M  V30 47159 O 7646.07 -7.54673 -6.86199 0
M  V30 47160 O 7645.5 -5.12391 -7.179 0
M  V30 47161 O 7646.04 -5.99158 -4.88404 0
M  V30 47162 C 7646.98 -6.60062 -3.96313 0
M  V30 47163 C 7646.25 -7.08259 -2.72856 0
M  V30 47164 O 7646.04 -5.9427 -1.83651 0
M  V30 47165 C 7644.85 -7.65087 -2.94749 0
M  V30 47166 O 7644.46 -8.53963 -1.90717 0
M  V30 47167 C 7643.97 -6.41069 -2.90698 0
M  V30 47168 C 7644.68 -5.5528 -1.86931 0
M  V30 47169 N 7644.63 -4.09575 -2.15696 0
M  V30 47170 C 7644.48 -3.24249 -1.08435 0
M  V30 47171 O 7644.39 -3.63946 0.0628747 0
M  V30 47172 N 7644.44 -1.90009 -1.39973 0
M  V30 47173 C 7644.53 -1.34884 -2.65614 0
M  V30 47174 O 7644.48 -0.123716 -2.81728 0
M  V30 47175 C 7644.68 -2.3145 -3.71736 0
M  V30 47176 C 7644.79 -1.75913 -5.10438 0
M  V30 47177 C 7644.73 -3.63518 -3.44754 0
M  V30 47178 H 7647.48 -7.45402 -4.45526 0
M  V30 47179 H 7647.74 -5.86062 -3.67208 0
M  V30 47180 H 7646.88 -7.84412 -2.24479 0
M  V30 47181 H 7644.22 -5.73358 -0.888409 0
M  V30 47182 H 7643.94 -5.90877 -3.88583 0
M  V30 47183 H 7642.95 -6.65867 -2.58821 0
M  V30 47184 H 7644.79 -8.16248 -3.92006 0
M  V30 47185 H 7644.86 -4.34551 -4.26383 0
M  V30 47186 H 7643.83 -1.85471 -5.61775 0
M  V30 47187 H 7645.56 -2.31364 -5.66257 0
M  V30 47188 H 7645.08 -0.695936 -5.05229 0
M  V30 47189 H 7644.34 -1.26277 -0.63625 0
M  V30 47190 P 7642.91 -8.7635 -1.60911 0
M  V30 47191 O 7642.69 -10.1388 -1.11561 0
M  V30 47192 O 7642.12 -8.36503 -2.79617 0
M  V30 47193 O 7642.66 -7.71806 -0.42951 0
M  V30 47194 C 7643.6 -7.67148 0.673689 0
M  V30 47195 C 7642.87 -7.33374 1.95559 0
M  V30 47196 O 7642.66 -5.88721 2.00726 0
M  V30 47197 C 7641.47 -7.92526 2.10483 0
M  V30 47198 O 7641.08 -8.02971 3.47653 0
M  V30 47199 C 7640.59 -6.89602 1.41652 0
M  V30 47200 C 7641.3 -5.59201 1.75185 0
M  V30 47201 N 7641.25 -4.58235 0.662552 0
M  V30 47202 H 7644.09 -8.65116 0.777161 0
M  V30 47203 H 7644.37 -6.90173 0.474152 0
M  V30 47204 H 7643.5 -7.66548 2.79458 0
M  V30 47205 P 7639.53 -8.03563 3.84925 0
M  V30 47206 O 7639.31 -8.85821 5.0569 0
M  V30 47207 O 7638.74 -8.41101 2.65469 0
M  V30 47208 O 7639.28 -6.4965 4.18908 0
M  V30 47209 C 7640.22 -5.81037 5.05421 0
M  V30 47210 C 7639.49 -4.78366 5.89277 0
M  V30 47211 O 7639.28 -3.58302 5.08433 0
M  V30 47212 C 7638.09 -5.17448 6.36119 0
M  V30 47213 O 7637.7 -4.45271 7.53232 0
M  V30 47214 C 7637.21 -4.74639 5.19936 0
M  V30 47215 C 7637.92 -3.49432 4.70418 0
M  V30 47216 N 7637.87 -3.31776 3.22945 0
M  V30 47217 H 7640.71 -6.54213 5.71376 0
M  V30 47218 H 7640.99 -5.30492 4.44033 0
M  V30 47219 H 7640.12 -4.55889 6.76652 0
M  V30 47220 P 7636.15 -4.23843 7.83734 0
M  V30 47221 O 7635.93 -4.19407 9.29784 0
M  V30 47222 O 7635.36 -5.24426 7.09156 0
M  V30 47223 O 7635.9 -2.7935 7.20758 0
M  V30 47224 C 7636.84 -1.7299 7.50419 0
M  V30 47225 C 7636.11 -0.406376 7.57911 0
M  V30 47226 O 7635.9 0.0897726 6.21935 0
M  V30 47227 C 7634.71 -0.447224 8.1878 0
M  V30 47228 O 7634.32 0.825065 8.71101 0
M  V30 47229 C 7633.83 -0.783801 6.99623 0
M  V30 47230 C 7634.54 -0.0619192 5.85967 0
M  V30 47231 N 7634.49 -0.7859 4.56281 0
M  V30 47232 H 7637.33 -1.93423 8.4679 0
M  V30 47233 H 7637.61 -1.68181 6.71046 0
M  V30 47234 H 7636.74 0.289041 8.15388 0
M  V30 47235 P 7632.77 1.17771 8.83182 0
M  V30 47236 O 7632.55 2.07206 9.98732 0
M  V30 47237 O 7631.98 -0.0743816 8.81969 0
M  V30 47238 O 7632.52 1.97652 7.47304 0
M  V30 47239 C 7633.46 3.01133 7.08783 0
M  V30 47240 C 7632.73 4.12613 6.37049 0
M  V30 47241 O 7632.52 3.72827 4.97879 0
M  V30 47242 C 7631.33 4.45085 6.88694 0
M  V30 47243 O 7630.94 5.7877 6.5624 0
M  V30 47244 C 7630.45 3.47817 6.12078 0
M  V30 47245 C 7631.16 3.39414 4.77697 0
M  V30 47246 N 7631.11 2.04615 4.15333 0
M  V30 47247 H 7633.95 3.41248 7.98759 0
M  V30 47248 H 7634.23 2.5837 6.41742 0
M  V30 47249 H 7633.36 5.02657 6.42673 0
M  V30 47250 P 7629.39 6.144 6.45285 0
M  V30 47251 O 7629.17 7.54673 6.86199 0
M  V30 47252 O 7628.6 5.12391 7.179 0
M  V30 47253 O 7629.14 5.99158 4.88404 0
M  V30 47254 C 7630.08 6.60234 3.96415 0
M  V30 47255 C 7629.35 7.08259 2.72856 0
M  V30 47256 O 7629.14 5.9427 1.83651 0
M  V30 47257 C 7627.95 7.64886 2.9555 0
M  V30 47258 O 7627.56 8.53963 1.90717 0
M  V30 47259 C 7627.07 6.4116 2.90739 0
M  V30 47260 C 7627.78 5.55375 1.86963 0
M  V30 47261 N 7627.73 4.09448 2.16152 0
M  V30 47262 H 7630.57 7.45574 4.45629 0
M  V30 47263 H 7630.85 5.85864 3.679 0
M  V30 47264 H 7629.98 7.84412 2.24479 0
M  V30 47265 H 7627.32 5.73457 0.888562 0
M  V30 47266 H 7627.04 5.90877 3.88583 0
M  V30 47267 H 7626.05 6.6596 2.58858 0
M  V30 47268 H 7627.89 8.16339 3.92049 0
M  V30 47269 P 7626.01 8.7635 1.60911 0
M  V30 47270 O 7625.79 10.1388 1.11561 0
M  V30 47271 O 7625.22 8.36503 2.79617 0
M  V30 47272 O 7625.76 7.71806 0.42951 0
M  V30 47273 C 7626.7 7.67148 -0.673689 0
M  V30 47274 C 7625.97 7.33374 -1.95559 0
M  V30 47275 O 7625.76 5.88721 -2.00726 0
M  V30 47276 C 7624.57 7.92526 -2.10483 0
M  V30 47277 O 7624.18 8.02971 -3.47653 0
M  V30 47278 C 7623.69 6.89602 -1.41652 0
M  V30 47279 C 7624.4 5.59201 -1.75185 0
M  V30 47280 N 7624.35 4.58301 -0.657969 0
M  V30 47281 H 7627.19 8.65116 -0.777161 0
M  V30 47282 H 7627.47 6.9022 -0.46725 0
M  V30 47283 H 7626.6 7.66548 -2.79458 0
M  V30 47284 H 7623.94 5.16165 -2.65183 0
M  V30 47285 H 7623.66 7.06433 -0.329384 0
M  V30 47286 H 7622.67 6.90926 -1.82021 0
M  V30 47287 H 7624.51 8.90873 -1.62657 0
M  V30 47288 P 7622.63 8.03563 -3.84925 0
M  V30 47289 O 7622.41 8.85821 -5.0569 0
M  V30 47290 O 7621.84 8.41101 -2.65469 0
M  V30 47291 O 7622.38 6.4965 -4.18908 0
M  V30 47292 C 7623.32 5.81037 -5.05421 0
M  V30 47293 C 7622.59 4.78366 -5.89277 0
M  V30 47294 O 7622.38 3.58302 -5.08433 0
M  V30 47295 C 7621.19 5.17448 -6.36119 0
M  V30 47296 O 7620.8 4.45271 -7.53232 0
M  V30 47297 C 7620.31 4.74639 -5.19936 0
M  V30 47298 C 7621.02 3.49432 -4.70418 0
M  V30 47299 N 7620.97 3.32099 -3.22613 0
M  V30 47300 H 7623.81 6.54213 -5.71376 0
M  V30 47301 H 7624.09 5.30936 -4.43503 0
M  V30 47302 H 7623.22 4.55889 -6.76652 0
M  V30 47303 H 7620.56 2.61715 -5.17932 0
M  V30 47304 H 7620.28 5.52155 -4.41878 0
M  V30 47305 H 7619.29 4.51981 -5.53374 0
M  V30 47306 H 7621.13 6.25124 -6.55234 0
M  V30 47307 P 7619.25 4.23843 -7.83734 0
M  V30 47308 O 7619.03 4.19407 -9.29784 0
M  V30 47309 O 7618.46 5.24426 -7.09156 0
M  V30 47310 O 7619 2.7935 -7.20758 0
M  V30 47311 C 7619.94 1.7299 -7.50419 0
M  V30 47312 C 7619.21 0.406376 -7.57911 0
M  V30 47313 O 7619 -0.0897726 -6.21935 0
M  V30 47314 C 7617.81 0.447224 -8.1878 0
M  V30 47315 O 7617.42 -0.825065 -8.71101 0
M  V30 47316 C 7616.93 0.783801 -6.99623 0
M  V30 47317 C 7617.64 0.0619192 -5.85967 0
M  V30 47318 N 7617.59 0.7859 -4.56281 0
M  V30 47319 H 7620.43 1.93423 -8.4679 0
M  V30 47320 H 7620.71 1.68181 -6.71046 0
M  V30 47321 H 7619.84 -0.289041 -8.15388 0
M  V30 47322 P 7615.87 -1.17771 -8.83182 0
M  V30 47323 O 7615.65 -2.07206 -9.98732 0
M  V30 47324 O 7615.08 0.0743816 -8.81969 0
M  V30 47325 O 7615.62 -1.97652 -7.47304 0
M  V30 47326 C 7616.56 -3.01133 -7.08783 0
M  V30 47327 C 7615.83 -4.12613 -6.37049 0
M  V30 47328 O 7615.62 -3.72827 -4.97879 0
M  V30 47329 C 7614.43 -4.45085 -6.88694 0
M  V30 47330 O 7614.04 -5.7877 -6.5624 0
M  V30 47331 C 7613.55 -3.47817 -6.12078 0
M  V30 47332 C 7614.26 -3.39414 -4.77697 0
M  V30 47333 N 7614.21 -2.04615 -4.15333 0
M  V30 47334 H 7617.05 -3.41248 -7.98759 0
M  V30 47335 H 7617.33 -2.5837 -6.41742 0
M  V30 47336 H 7616.46 -5.02657 -6.42673 0
M  V30 47337 P 7612.49 -6.144 -6.45285 0
M  V30 47338 O 7612.27 -7.54673 -6.86199 0
M  V30 47339 O 7611.7 -5.12391 -7.179 0
M  V30 47340 O 7612.24 -5.99158 -4.88404 0
M  V30 47341 C 7613.18 -6.60234 -3.96415 0
M  V30 47342 C 7612.45 -7.08259 -2.72856 0
M  V30 47343 O 7612.24 -5.9427 -1.83651 0
M  V30 47344 C 7611.05 -7.64886 -2.9555 0
M  V30 47345 O 7610.66 -8.53963 -1.90717 0
M  V30 47346 C 7610.17 -6.4116 -2.90739 0
M  V30 47347 C 7610.88 -5.55375 -1.86963 0
M  V30 47348 N 7610.83 -4.09664 -2.15742 0
M  V30 47349 C 7610.91 -3.44381 -3.37233 0
M  V30 47350 N 7610.83 -2.14131 -3.28347 0
M  V30 47351 C 7610.69 -1.90247 -1.91588 0
M  V30 47352 C 7610.56 -0.683992 -1.20892 0
M  V30 47353 O 7610.54 0.46618 -1.64523 0
M  V30 47354 N 7610.44 -0.903396 0.173998 0
M  V30 47355 C 7610.44 -2.14171 0.784879 0
M  V30 47356 N 7610.31 -2.1435 2.11317 0
M  V30 47357 N 7610.57 -3.28784 0.119316 0
M  V30 47358 C 7610.69 -3.0977 -1.22194 0
M  V30 47359 H 7613.67 -7.45574 -4.45629 0
M  V30 47360 H 7613.95 -5.86232 -3.67314 0
M  V30 47361 H 7613.08 -7.84412 -2.24479 0
M  V30 47362 H 7610.42 -5.73556 -0.888715 0
M  V30 47363 H 7610.14 -5.9096 -3.88638 0
M  V30 47364 H 7609.15 -6.66053 -2.58894 0
M  V30 47365 H 7610.99 -8.16429 -3.92093 0
M  V30 47366 H 7611.03 -3.96785 -4.32043 0
M  V30 47367 H 7610.35 -0.0999567 0.761467 0
M  V30 47368 H 7610.32 -3.03436 2.63076 0
M  V30 47369 H 7610.21 -1.25228 2.62233 0
M  V30 47370 P 7609.11 -8.7635 -1.60911 0
M  V30 47371 O 7608.89 -10.1388 -1.11561 0
M  V30 47372 O 7608.32 -8.36503 -2.79617 0
M  V30 47373 O 7608.86 -7.71806 -0.42951 0
M  V30 47374 C 7609.8 -7.67148 0.673689 0
M  V30 47375 C 7609.07 -7.33374 1.95559 0
M  V30 47376 O 7608.86 -5.88721 2.00726 0
M  V30 47377 C 7607.67 -7.92526 2.10483 0
M  V30 47378 O 7607.28 -8.02971 3.47653 0
M  V30 47379 C 7606.79 -6.89602 1.41652 0
M  V30 47380 C 7607.5 -5.59201 1.75185 0
M  V30 47381 N 7607.45 -4.58235 0.662552 0
M  V30 47382 H 7610.29 -8.65116 0.777161 0
M  V30 47383 H 7610.57 -6.90173 0.474152 0
M  V30 47384 H 7609.7 -7.66548 2.79458 0
M  V30 47385 P 7605.74 -8.03563 3.84925 0
M  V30 47386 O 7605.52 -8.85821 5.0569 0
M  V30 47387 O 7604.95 -8.41101 2.65469 0
M  V30 47388 O 7605.49 -6.4965 4.18908 0
M  V30 47389 C 7606.43 -5.81037 5.05421 0
M  V30 47390 C 7605.7 -4.78366 5.89277 0
M  V30 47391 O 7605.49 -3.58302 5.08433 0
M  V30 47392 C 7604.3 -5.17448 6.36119 0
M  V30 47393 O 7603.91 -4.45271 7.53232 0
M  V30 47394 C 7603.42 -4.74639 5.19936 0
M  V30 47395 C 7604.13 -3.49432 4.70418 0
M  V30 47396 N 7604.08 -3.31776 3.22945 0
M  V30 47397 H 7606.91 -6.54213 5.71376 0
M  V30 47398 H 7607.19 -5.30492 4.44033 0
M  V30 47399 H 7606.32 -4.55889 6.76652 0
M  V30 47400 P 7602.36 -4.23843 7.83734 0
M  V30 47401 O 7602.14 -4.19407 9.29784 0
M  V30 47402 O 7601.57 -5.24426 7.09156 0
M  V30 47403 O 7602.11 -2.7935 7.20758 0
M  V30 47404 C 7603.05 -1.7299 7.50419 0
M  V30 47405 C 7602.32 -0.406376 7.57911 0
M  V30 47406 O 7602.11 0.0897726 6.21935 0
M  V30 47407 C 7600.92 -0.447224 8.1878 0
M  V30 47408 O 7600.53 0.825065 8.71101 0
M  V30 47409 C 7600.04 -0.783801 6.99623 0
M  V30 47410 C 7600.75 -0.0619192 5.85967 0
M  V30 47411 N 7600.7 -0.790462 4.56202 0
M  V30 47412 H 7603.53 -1.93423 8.4679 0
M  V30 47413 H 7603.81 -1.68852 6.70877 0
M  V30 47414 H 7602.94 0.289041 8.15388 0
M  V30 47415 H 7600.28 0.927006 5.72848 0
M  V30 47416 H 7600 -1.86973 6.82036 0
M  V30 47417 H 7599.01 -0.403953 7.13357 0
M  V30 47418 H 7600.85 -1.20599 8.97534 0
M  V30 47419 P 7598.98 1.17771 8.83182 0
M  V30 47420 O 7598.76 2.07206 9.98732 0
M  V30 47421 O 7598.19 -0.0743816 8.81969 0
M  V30 47422 O 7598.73 1.97678 7.474 0
M  V30 47423 C 7599.67 3.01133 7.08783 0
M  V30 47424 C 7598.94 4.1203 6.37546 0
M  V30 47425 O 7598.73 3.72887 4.9796 0
M  V30 47426 C 7597.54 4.45085 6.88694 0
M  V30 47427 O 7597.15 5.78836 6.56315 0
M  V30 47428 C 7596.66 3.47817 6.12078 0
M  V30 47429 C 7597.37 3.39414 4.77697 0
M  V30 47430 N 7597.32 2.04615 4.15333 0
M  V30 47431 C 7597.17 1.96929 2.77162 0
M  V30 47432 O 7597.08 3.02017 2.12006 0
M  V30 47433 N 7597.12 0.55485 2.24237 0
M  V30 47434 C 7597.22 -0.367808 2.9169 0
M  V30 47435 N 7597.17 -1.53426 2.29427 0
M  V30 47436 C 7597.37 -0.319148 4.33828 0
M  V30 47437 C 7597.42 0.920672 4.90433 0
M  V30 47438 H 7600.16 3.41209 7.98667 0
M  V30 47439 H 7600.43 2.5837 6.41742 0
M  V30 47440 H 7599.56 5.02718 6.42752 0
M  V30 47441 H 7596.9 4.11779 4.09026 0
M  V30 47442 H 7596.62 2.49661 6.61772 0
M  V30 47443 H 7595.63 3.86674 6.00946 0
M  V30 47444 H 7597.47 4.29991 7.97006 0
M  V30 47445 H 7597.54 1.00589 5.98303 0
M  V30 47446 H 7597.44 -1.22639 4.93799 0
M  V30 47447 H 7597.05 -1.56819 1.27167 0
M  V30 47448 H 7597.24 -2.41062 2.83063 0
M  V30 47449 P 7595.6 6.144 6.45285 0
M  V30 47450 O 7595.38 7.54673 6.86199 0
M  V30 47451 O 7594.81 5.12391 7.179 0
M  V30 47452 O 7595.35 5.99158 4.88404 0
M  V30 47453 C 7596.29 6.60234 3.96415 0
M  V30 47454 C 7595.56 7.08259 2.72856 0
M  V30 47455 O 7595.35 5.9427 1.83651 0
M  V30 47456 C 7594.16 7.64886 2.9555 0
M  V30 47457 O 7593.77 8.53963 1.90717 0
M  V30 47458 C 7593.28 6.4116 2.90739 0
M  V30 47459 C 7593.99 5.55375 1.86963 0
M  V30 47460 N 7593.94 4.09448 2.16152 0
M  V30 47461 H 7596.77 7.45574 4.45629 0
M  V30 47462 H 7597.05 5.85864 3.679 0
M  V30 47463 H 7596.18 7.84412 2.24479 0
M  V30 47464 H 7593.52 5.73457 0.888562 0
M  V30 47465 H 7593.24 5.90877 3.88583 0
M  V30 47466 H 7592.25 6.6596 2.58858 0
M  V30 47467 H 7594.09 8.16339 3.92049 0
M  V30 47468 P 7592.22 8.7635 1.60911 0
M  V30 47469 O 7592 10.1388 1.11561 0
M  V30 47470 O 7591.43 8.36503 2.79617 0
M  V30 47471 O 7591.97 7.71806 0.42951 0
M  V30 47472 C 7592.91 7.67148 -0.673689 0
M  V30 47473 C 7592.18 7.33374 -1.95559 0
M  V30 47474 O 7591.97 5.88721 -2.00726 0
M  V30 47475 C 7590.78 7.92526 -2.10483 0
M  V30 47476 O 7590.39 8.02971 -3.47653 0
M  V30 47477 C 7589.9 6.89602 -1.41652 0
M  V30 47478 C 7590.61 5.59201 -1.75185 0
M  V30 47479 N 7590.56 4.58235 -0.662552 0
M  V30 47480 H 7593.39 8.65116 -0.777161 0
M  V30 47481 H 7593.67 6.90173 -0.474152 0
M  V30 47482 H 7592.8 7.66548 -2.79458 0
M  V30 47483 P 7588.84 8.03563 -3.84925 0
M  V30 47484 O 7588.62 8.85821 -5.0569 0
M  V30 47485 O 7588.05 8.41101 -2.65469 0
M  V30 47486 O 7588.59 6.49734 -4.18962 0
M  V30 47487 C 7589.53 5.81037 -5.05421 0
M  V30 47488 C 7588.8 4.79018 -5.88876 0
M  V30 47489 O 7588.59 3.58359 -5.08515 0
M  V30 47490 C 7587.4 5.17448 -6.36119 0
M  V30 47491 O 7587.01 4.45322 -7.53318 0
M  V30 47492 C 7586.52 4.74639 -5.19936 0
M  V30 47493 C 7587.23 3.49432 -4.70418 0
M  V30 47494 N 7587.18 3.31776 -3.22945 0
M  V30 47495 C 7587.03 2.02742 -2.72939 0
M  V30 47496 O 7586.94 1.08301 -3.52749 0
M  V30 47497 N 7586.98 1.96117 -1.22063 0
M  V30 47498 C 7587.08 2.8878 -0.551566 0
M  V30 47499 N 7587.03 2.65609 0.750198 0
M  V30 47500 C 7587.23 4.22457 -1.03707 0
M  V30 47501 C 7587.28 4.37979 -2.39113 0
M  V30 47502 H 7590.02 6.54138 -5.7131 0
M  V30 47503 H 7590.29 5.30492 -4.44033 0
M  V30 47504 H 7589.42 4.55945 -6.76735 0
M  V30 47505 H 7586.76 2.6176 -5.18021 0
M  V30 47506 H 7586.48 5.52233 -4.41941 0
M  V30 47507 H 7585.49 4.52045 -5.53452 0
M  V30 47508 H 7587.33 6.25124 -6.55234 0
M  V30 47509 H 7587.4 5.37936 -2.80552 0
M  V30 47510 H 7587.3 5.07528 -0.359553 0
M  V30 47511 H 7586.91 1.69403 1.09847 0
M  V30 47512 H 7587.1 3.43701 1.41792 0
M  V30 47513 P 7585.46 4.23843 -7.83734 0
M  V30 47514 O 7585.24 4.19407 -9.29784 0
M  V30 47515 O 7584.67 5.24426 -7.09156 0
M  V30 47516 O 7585.21 2.7935 -7.20758 0
M  V30 47517 C 7586.15 1.7299 -7.50419 0
M  V30 47518 C 7585.42 0.406376 -7.57911 0
M  V30 47519 O 7585.21 -0.0897726 -6.21935 0
M  V30 47520 C 7584.02 0.447224 -8.1878 0
M  V30 47521 O 7583.63 -0.825065 -8.71101 0
M  V30 47522 C 7583.14 0.783801 -6.99623 0
M  V30 47523 C 7583.85 0.0619192 -5.85967 0
M  V30 47524 N 7583.8 0.7859 -4.56281 0
M  V30 47525 H 7586.63 1.93423 -8.4679 0
M  V30 47526 H 7586.91 1.68181 -6.71046 0
M  V30 47527 H 7586.04 -0.289041 -8.15388 0
M  V30 47528 P 7582.08 -1.17771 -8.83182 0
M  V30 47529 O 7581.86 -2.07206 -9.98732 0
M  V30 47530 O 7581.29 0.0743816 -8.81969 0
M  V30 47531 O 7581.83 -1.97652 -7.47304 0
M  V30 47532 C 7582.77 -3.01133 -7.08783 0
M  V30 47533 C 7582.04 -4.12613 -6.37049 0
M  V30 47534 O 7581.83 -3.72827 -4.97879 0
M  V30 47535 C 7580.64 -4.45085 -6.88694 0
M  V30 47536 O 7580.25 -5.7877 -6.5624 0
M  V30 47537 C 7579.76 -3.47817 -6.12078 0
M  V30 47538 C 7580.47 -3.39414 -4.77697 0
M  V30 47539 N 7580.42 -2.04615 -4.15333 0
M  V30 47540 H 7583.25 -3.41248 -7.98759 0
M  V30 47541 H 7583.53 -2.5837 -6.41742 0
M  V30 47542 H 7582.66 -5.02657 -6.42673 0
M  V30 47543 P 7578.7 -6.144 -6.45285 0
M  V30 47544 O 7578.48 -7.54673 -6.86199 0
M  V30 47545 O 7577.91 -5.12391 -7.179 0
M  V30 47546 O 7578.45 -5.99158 -4.88404 0
M  V30 47547 C 7579.39 -6.60234 -3.96415 0
M  V30 47548 C 7578.66 -7.08259 -2.72856 0
M  V30 47549 O 7578.45 -5.9427 -1.83651 0
M  V30 47550 C 7577.26 -7.64886 -2.9555 0
M  V30 47551 O 7576.87 -8.53963 -1.90717 0
M  V30 47552 C 7576.38 -6.4116 -2.90739 0
M  V30 47553 C 7577.09 -5.55375 -1.86963 0
M  V30 47554 N 7577.04 -4.09448 -2.16152 0
M  V30 47555 H 7579.87 -7.45574 -4.45629 0
M  V30 47556 H 7580.15 -5.85864 -3.679 0
M  V30 47557 H 7579.28 -7.84412 -2.24479 0
M  V30 47558 H 7576.62 -5.73457 -0.888562 0
M  V30 47559 H 7576.34 -5.90877 -3.88583 0
M  V30 47560 H 7575.35 -6.6596 -2.58858 0
M  V30 47561 H 7577.19 -8.16339 -3.92049 0
M  V30 47562 P 7575.32 -8.7635 -1.60911 0
M  V30 47563 O 7575.1 -10.1388 -1.11561 0
M  V30 47564 O 7574.53 -8.36503 -2.79617 0
M  V30 47565 O 7575.07 -7.71806 -0.42951 0
M  V30 47566 C 7576.01 -7.67148 0.673689 0
M  V30 47567 C 7575.28 -7.33374 1.95559 0
M  V30 47568 O 7575.07 -5.88721 2.00726 0
M  V30 47569 C 7573.88 -7.92526 2.10483 0
M  V30 47570 O 7573.49 -8.02971 3.47653 0
M  V30 47571 C 7573 -6.89602 1.41652 0
M  V30 47572 C 7573.71 -5.59201 1.75185 0
M  V30 47573 N 7573.66 -4.58235 0.662552 0
M  V30 47574 H 7576.49 -8.65116 0.777161 0
M  V30 47575 H 7576.77 -6.90173 0.474152 0
M  V30 47576 H 7575.9 -7.66548 2.79458 0
M  V30 47577 P 7571.94 -8.03563 3.84925 0
M  V30 47578 O 7571.72 -8.85821 5.0569 0
M  V30 47579 O 7571.15 -8.41101 2.65469 0
M  V30 47580 O 7571.69 -6.4965 4.18908 0
M  V30 47581 C 7572.63 -5.81037 5.05421 0
M  V30 47582 C 7571.9 -4.78366 5.89277 0
M  V30 47583 O 7571.69 -3.58302 5.08433 0
M  V30 47584 C 7570.5 -5.17448 6.36119 0
M  V30 47585 O 7570.11 -4.45271 7.53232 0
M  V30 47586 C 7569.62 -4.74639 5.19936 0
M  V30 47587 C 7570.33 -3.49432 4.70418 0
M  V30 47588 N 7570.28 -3.31776 3.22945 0
M  V30 47589 H 7573.11 -6.54213 5.71376 0
M  V30 47590 H 7573.39 -5.30492 4.44033 0
M  V30 47591 H 7572.52 -4.55889 6.76652 0
M  V30 47592 P 7568.56 -4.23843 7.83734 0
M  V30 47593 O 7568.34 -4.19407 9.29784 0
M  V30 47594 O 7567.77 -5.24426 7.09156 0
M  V30 47595 O 7568.31 -2.7935 7.20758 0
M  V30 47596 C 7569.25 -1.7299 7.50419 0
M  V30 47597 C 7568.52 -0.406376 7.57911 0
M  V30 47598 O 7568.31 0.0897726 6.21935 0
M  V30 47599 C 7567.12 -0.447224 8.1878 0
M  V30 47600 O 7566.73 0.825065 8.71101 0
M  V30 47601 C 7566.24 -0.783801 6.99623 0
M  V30 47602 C 7566.95 -0.0619192 5.85967 0
M  V30 47603 N 7566.9 -0.7859 4.56281 0
M  V30 47604 H 7569.73 -1.93423 8.4679 0
M  V30 47605 H 7570.01 -1.68181 6.71046 0
M  V30 47606 H 7569.14 0.289041 8.15388 0
M  V30 47607 P 7565.18 1.17771 8.83182 0
M  V30 47608 O 7564.96 2.07206 9.98732 0
M  V30 47609 O 7564.39 -0.0743816 8.81969 0
M  V30 47610 O 7564.93 1.97652 7.47304 0
M  V30 47611 C 7565.87 3.01133 7.08783 0
M  V30 47612 C 7565.14 4.12613 6.37049 0
M  V30 47613 O 7564.93 3.72827 4.97879 0
M  V30 47614 C 7563.74 4.45085 6.88694 0
M  V30 47615 O 7563.35 5.7877 6.5624 0
M  V30 47616 C 7562.86 3.47817 6.12078 0
M  V30 47617 C 7563.57 3.39414 4.77697 0
M  V30 47618 N 7563.52 2.04615 4.15333 0
M  V30 47619 H 7566.35 3.41248 7.98759 0
M  V30 47620 H 7566.63 2.5837 6.41742 0
M  V30 47621 H 7565.76 5.02657 6.42673 0
M  V30 47622 P 7561.8 6.144 6.45285 0
M  V30 47623 O 7561.58 7.54673 6.86199 0
M  V30 47624 O 7561.01 5.12391 7.179 0
M  V30 47625 O 7561.55 5.99236 4.88467 0
M  V30 47626 C 7562.49 6.60234 3.96415 0
M  V30 47627 C 7561.76 7.08079 2.736 0
M  V30 47628 O 7561.55 5.94365 1.8368 0
M  V30 47629 C 7560.36 7.64886 2.9555 0
M  V30 47630 O 7559.97 8.5406 1.90739 0
M  V30 47631 C 7559.48 6.4116 2.90739 0
M  V30 47632 C 7560.19 5.55375 1.86963 0
M  V30 47633 N 7560.14 4.09664 2.15742 0
M  V30 47634 C 7559.99 3.22231 1.08477 0
M  V30 47635 O 7559.9 3.68951 -0.0600489 0
M  V30 47636 N 7559.94 1.76692 1.48799 0
M  V30 47637 C 7560.04 1.41695 2.57602 0
M  V30 47638 N 7559.99 0.107296 2.75791 0
M  V30 47639 C 7560.19 2.29178 3.69733 0
M  V30 47640 C 7560.24 3.62753 3.42653 0
M  V30 47641 H 7562.98 7.45488 4.45578 0
M  V30 47642 H 7563.25 5.86232 3.67314 0
M  V30 47643 H 7562.38 7.84508 2.24507 0
M  V30 47644 H 7559.72 5.73556 0.888715 0
M  V30 47645 H 7559.44 5.9096 3.88638 0
M  V30 47646 H 7558.45 6.66053 2.58894 0
M  V30 47647 H 7560.29 8.16339 3.92049 0
M  V30 47648 H 7560.36 4.33052 4.24913 0
M  V30 47649 H 7560.26 1.9103 4.71577 0
M  V30 47650 H 7559.87 -0.521221 1.95056 0
M  V30 47651 H 7560.06 -0.286429 3.70695 0
M  V30 47652 P 7558.42 8.7635 1.60911 0
M  V30 47653 O 7558.2 10.1388 1.11561 0
M  V30 47654 O 7557.63 8.36503 2.79617 0
M  V30 47655 O 7558.17 7.71806 0.42951 0
M  V30 47656 C 7559.11 7.67148 -0.673689 0
M  V30 47657 C 7558.38 7.33374 -1.95559 0
M  V30 47658 O 7558.17 5.88721 -2.00726 0
M  V30 47659 C 7556.98 7.92526 -2.10483 0
M  V30 47660 O 7556.59 8.02971 -3.47653 0
M  V30 47661 C 7556.1 6.89602 -1.41652 0
M  V30 47662 C 7556.81 5.59201 -1.75185 0
M  V30 47663 N 7556.76 4.58301 -0.657969 0
M  V30 47664 H 7559.59 8.65116 -0.777161 0
M  V30 47665 H 7559.87 6.9022 -0.46725 0
M  V30 47666 H 7559 7.66548 -2.79458 0
M  V30 47667 H 7556.34 5.16165 -2.65183 0
M  V30 47668 H 7556.06 7.06433 -0.329384 0
M  V30 47669 H 7555.07 6.90926 -1.82021 0
M  V30 47670 H 7556.91 8.90873 -1.62657 0
M  V30 47671 P 7555.04 8.03563 -3.84925 0
M  V30 47672 O 7554.82 8.85821 -5.0569 0
M  V30 47673 O 7554.25 8.41101 -2.65469 0
M  V30 47674 O 7554.79 6.4965 -4.18908 0
M  V30 47675 C 7555.73 5.81037 -5.05421 0
M  V30 47676 C 7555 4.78366 -5.89277 0
M  V30 47677 O 7554.79 3.58302 -5.08433 0
M  V30 47678 C 7553.6 5.17448 -6.36119 0
M  V30 47679 O 7553.21 4.45271 -7.53232 0
M  V30 47680 C 7552.72 4.74639 -5.19936 0
M  V30 47681 C 7553.43 3.49432 -4.70418 0
M  V30 47682 N 7553.38 3.31776 -3.22945 0
M  V30 47683 H 7556.21 6.54213 -5.71376 0
M  V30 47684 H 7556.49 5.30492 -4.44033 0
M  V30 47685 H 7555.62 4.55889 -6.76652 0
M  V30 47686 P 7551.66 4.23843 -7.83734 0
M  V30 47687 O 7551.44 4.19407 -9.29784 0
M  V30 47688 O 7550.87 5.24426 -7.09156 0
M  V30 47689 O 7551.41 2.7935 -7.20758 0
M  V30 47690 C 7552.35 1.7299 -7.50419 0
M  V30 47691 C 7551.62 0.406376 -7.57911 0
M  V30 47692 O 7551.41 -0.0897726 -6.21935 0
M  V30 47693 C 7550.22 0.447224 -8.1878 0
M  V30 47694 O 7549.83 -0.825065 -8.71101 0
M  V30 47695 C 7549.34 0.783801 -6.99623 0
M  V30 47696 C 7550.05 0.0619192 -5.85967 0
M  V30 47697 N 7550 0.7859 -4.56281 0
M  V30 47698 H 7552.83 1.93423 -8.4679 0
M  V30 47699 H 7553.11 1.68181 -6.71046 0
M  V30 47700 H 7552.24 -0.289041 -8.15388 0
M  V30 47701 P 7548.28 -1.17771 -8.83182 0
M  V30 47702 O 7548.06 -2.07206 -9.98732 0
M  V30 47703 O 7547.49 0.0743816 -8.81969 0
M  V30 47704 O 7548.03 -1.97652 -7.47304 0
M  V30 47705 C 7548.97 -3.01055 -7.08599 0
M  V30 47706 C 7548.24 -4.12613 -6.37049 0
M  V30 47707 O 7548.03 -3.72827 -4.97879 0
M  V30 47708 C 7546.84 -4.45719 -6.88164 0
M  V30 47709 O 7546.45 -5.7877 -6.5624 0
M  V30 47710 C 7545.96 -3.47768 -6.11991 0
M  V30 47711 C 7546.67 -3.39356 -4.77615 0
M  V30 47712 N 7546.62 -2.04571 -4.15244 0
M  V30 47713 C 7546.47 -1.98587 -2.78314 0
M  V30 47714 O 7546.38 -2.98134 -2.08835 0
M  V30 47715 N 7546.43 -0.714467 -2.24925 0
M  V30 47716 C 7546.52 0.470001 -2.94169 0
M  V30 47717 O 7546.47 1.55587 -2.35195 0
M  V30 47718 C 7546.67 0.312541 -4.36783 0
M  V30 47719 C 7546.78 1.57711 -5.16352 0
M  V30 47720 C 7546.72 -0.914512 -4.92583 0
M  V30 47721 H 7549.46 -3.41169 -7.98575 0
M  V30 47722 H 7549.73 -2.58295 -6.41556 0
M  V30 47723 H 7548.86 -5.02657 -6.42673 0
M  V30 47724 H 7546.2 -4.11637 -4.08885 0
M  V30 47725 H 7545.92 -2.49626 -6.61679 0
M  V30 47726 H 7544.93 -3.86566 -6.00778 0
M  V30 47727 H 7546.77 -4.29943 -7.96918 0
M  V30 47728 H 7546.84 -1.00937 -6.00374 0
M  V30 47729 H 7545.81 1.80153 -5.63503 0
M  V30 47730 H 7547.54 1.4566 -5.94104 0
M  V30 47731 H 7547.06 2.40664 -4.49645 0
M  V30 47732 H 7546.32 -0.647622 -1.25697 0
M  V30 47733 P 7544.9 -6.144 -6.45285 0
M  V30 47734 O 7544.68 -7.54673 -6.86199 0
M  V30 47735 O 7544.11 -5.12391 -7.179 0
M  V30 47736 O 7544.65 -5.99158 -4.88404 0
M  V30 47737 C 7545.59 -6.60234 -3.96415 0
M  V30 47738 C 7544.86 -7.08259 -2.72856 0
M  V30 47739 O 7544.65 -5.9427 -1.83651 0
M  V30 47740 C 7543.46 -7.64886 -2.9555 0
M  V30 47741 O 7543.07 -8.53963 -1.90717 0
M  V30 47742 C 7542.58 -6.4116 -2.90739 0
M  V30 47743 C 7543.29 -5.55375 -1.86963 0
M  V30 47744 N 7543.24 -4.09664 -2.15742 0
M  V30 47745 H 7546.07 -7.45574 -4.45629 0
M  V30 47746 H 7546.35 -5.86232 -3.67314 0
M  V30 47747 H 7545.48 -7.84412 -2.24479 0
M  V30 47748 P 7541.52 -8.7635 -1.60911 0
M  V30 47749 O 7541.3 -10.1388 -1.11561 0
M  V30 47750 O 7540.73 -8.36503 -2.79617 0
M  V30 47751 O 7541.27 -7.71806 -0.42951 0
M  V30 47752 C 7542.21 -7.67148 0.673689 0
M  V30 47753 C 7541.48 -7.33374 1.95559 0
M  V30 47754 O 7541.27 -5.88721 2.00726 0
M  V30 47755 C 7540.08 -7.92526 2.10483 0
M  V30 47756 O 7539.69 -8.02971 3.47653 0
M  V30 47757 C 7539.2 -6.89602 1.41652 0
M  V30 47758 C 7539.91 -5.59201 1.75185 0
M  V30 47759 N 7539.86 -4.58301 0.657969 0
M  V30 47760 H 7542.69 -8.65116 0.777161 0
M  V30 47761 H 7542.97 -6.9022 0.46725 0
M  V30 47762 H 7542.1 -7.66548 2.79458 0
M  V30 47763 H 7539.44 -5.16165 2.65183 0
M  V30 47764 H 7539.16 -7.06433 0.329384 0
M  V30 47765 H 7538.17 -6.90926 1.82021 0
M  V30 47766 H 7540.01 -8.90873 1.62657 0
M  V30 47767 P 7538.14 -8.03563 3.84925 0
M  V30 47768 O 7537.92 -8.85821 5.0569 0
M  V30 47769 O 7537.35 -8.41101 2.65469 0
M  V30 47770 O 7537.89 -6.4965 4.18908 0
M  V30 47771 C 7538.83 -5.80886 5.05289 0
M  V30 47772 C 7538.1 -4.78366 5.89277 0
M  V30 47773 O 7537.89 -3.58302 5.08433 0
M  V30 47774 C 7536.7 -5.16748 6.36559 0
M  V30 47775 O 7536.31 -4.45271 7.53232 0
M  V30 47776 C 7535.82 -4.74572 5.19863 0
M  V30 47777 C 7536.53 -3.49373 4.70338 0
M  V30 47778 N 7536.48 -3.31704 3.22876 0
M  V30 47779 C 7536.33 -2.03326 2.74871 0
M  V30 47780 O 7536.24 -1.06486 3.48076 0
M  V30 47781 N 7536.29 -1.91838 1.37456 0
M  V30 47782 C 7536.38 -2.94295 0.462035 0
M  V30 47783 C 7536.53 -4.25064 1.05249 0
M  V30 47784 C 7536.58 -4.40214 2.39192 0
M  V30 47785 H 7539.32 -6.54063 5.71245 0
M  V30 47786 H 7539.59 -5.30339 4.43905 0
M  V30 47787 H 7538.72 -4.55889 6.76652 0
M  V30 47788 H 7536.06 -2.6167 5.17842 0
M  V30 47789 H 7535.78 -5.52155 4.41878 0
M  V30 47790 H 7534.79 -4.51918 5.53297 0
M  V30 47791 H 7536.63 -6.25055 6.55162 0
M  V30 47792 H 7536.7 -5.39798 2.81523 0
M  V30 47793 P 7534.76 -4.23843 7.83734 0
M  V30 47794 O 7534.54 -4.19407 9.29784 0
M  V30 47795 O 7533.97 -5.24426 7.09156 0
M  V30 47796 O 7534.51 -2.7935 7.20758 0
M  V30 47797 C 7535.45 -1.7299 7.50419 0
M  V30 47798 C 7534.72 -0.406376 7.57911 0
M  V30 47799 O 7534.51 0.0897726 6.21935 0
M  V30 47800 C 7533.32 -0.447224 8.1878 0
M  V30 47801 O 7532.93 0.825065 8.71101 0
M  V30 47802 C 7532.44 -0.783801 6.99623 0
M  V30 47803 C 7533.15 -0.0619192 5.85967 0
M  V30 47804 N 7533.1 -0.790462 4.56202 0
M  V30 47805 H 7535.93 -1.93423 8.4679 0
M  V30 47806 H 7536.21 -1.68852 6.70877 0
M  V30 47807 H 7535.34 0.289041 8.15388 0
M  V30 47808 H 7532.68 0.927006 5.72848 0
M  V30 47809 H 7532.4 -1.86973 6.82036 0
M  V30 47810 H 7531.41 -0.403953 7.13357 0
M  V30 47811 H 7533.25 -1.20599 8.97534 0
M  V30 47812 P 7531.38 1.17771 8.83182 0
M  V30 47813 O 7531.16 2.07206 9.98732 0
M  V30 47814 O 7530.59 -0.0743816 8.81969 0
M  V30 47815 O 7531.13 1.97652 7.47304 0
M  V30 47816 C 7532.07 3.01133 7.08783 0
M  V30 47817 C 7531.34 4.12613 6.37049 0
M  V30 47818 O 7531.13 3.72827 4.97879 0
M  V30 47819 C 7529.94 4.45085 6.88694 0
M  V30 47820 O 7529.55 5.7877 6.5624 0
M  V30 47821 C 7529.06 3.47817 6.12078 0
M  V30 47822 C 7529.77 3.39414 4.77697 0
M  V30 47823 N 7529.72 2.04199 4.15538 0
M  V30 47824 H 7532.55 3.41248 7.98759 0
M  V30 47825 H 7532.83 2.57728 6.42 0
M  V30 47826 H 7531.96 5.02657 6.42673 0
M  V30 47827 H 7529.3 4.11708 4.08956 0
M  V30 47828 H 7529.02 2.49626 6.61679 0
M  V30 47829 H 7528.03 3.8662 6.00862 0
M  V30 47830 H 7529.87 4.29991 7.97006 0
M  V30 47831 P 7528 6.144 6.45285 0
M  V30 47832 O 7527.78 7.54673 6.86199 0
M  V30 47833 O 7527.21 5.12391 7.179 0
M  V30 47834 O 7527.75 5.99158 4.88404 0
M  V30 47835 C 7528.69 6.60234 3.96415 0
M  V30 47836 C 7527.96 7.08259 2.72856 0
M  V30 47837 O 7527.75 5.9427 1.83651 0
M  V30 47838 C 7526.56 7.64886 2.9555 0
M  V30 47839 O 7526.17 8.53963 1.90717 0
M  V30 47840 C 7525.68 6.4116 2.90739 0
M  V30 47841 C 7526.39 5.55375 1.86963 0
M  V30 47842 N 7526.34 4.09664 2.15742 0
M  V30 47843 C 7526.42 3.44381 3.37233 0
M  V30 47844 N 7526.34 2.14131 3.28347 0
M  V30 47845 C 7526.2 1.90247 1.91588 0
M  V30 47846 C 7526.07 0.683992 1.20892 0
M  V30 47847 N 7525.95 0.903396 -0.173998 0
M  V30 47848 C 7525.95 2.14171 -0.784879 0
M  V30 47849 N 7525.82 2.1435 -2.11317 0
M  V30 47850 N 7526.08 3.28784 -0.119316 0
M  V30 47851 C 7526.2 3.0977 1.22194 0
M  V30 47852 H 7529.17 7.45574 4.45629 0
M  V30 47853 H 7529.45 5.86232 3.67314 0
M  V30 47854 H 7528.58 7.84412 2.24479 0
M  V30 47855 P 7524.62 8.7635 1.60911 0
M  V30 47856 O 7524.4 10.1388 1.11561 0
M  V30 47857 O 7523.83 8.36503 2.79617 0
M  V30 47858 O 7524.37 7.71806 0.42951 0
M  V30 47859 C 7525.31 7.67148 -0.673689 0
M  V30 47860 C 7524.58 7.33374 -1.95559 0
M  V30 47861 O 7524.37 5.88721 -2.00726 0
M  V30 47862 C 7523.18 7.92526 -2.10483 0
M  V30 47863 O 7522.79 8.02971 -3.47653 0
M  V30 47864 C 7522.3 6.89602 -1.41652 0
M  V30 47865 C 7523.01 5.59201 -1.75185 0
M  V30 47866 N 7522.96 4.58235 -0.662552 0
M  V30 47867 H 7525.79 8.65116 -0.777161 0
M  V30 47868 H 7526.07 6.90173 -0.474152 0
M  V30 47869 H 7525.2 7.66548 -2.79458 0
M  V30 47870 P 7521.24 8.03563 -3.84925 0
M  V30 47871 O 7521.02 8.85821 -5.0569 0
M  V30 47872 O 7520.45 8.41101 -2.65469 0
M  V30 47873 O 7520.99 6.4965 -4.18908 0
M  V30 47874 C 7521.93 5.81037 -5.05421 0
M  V30 47875 C 7521.2 4.78366 -5.89277 0
M  V30 47876 O 7520.99 3.58302 -5.08433 0
M  V30 47877 C 7519.8 5.17448 -6.36119 0
M  V30 47878 O 7519.41 4.45271 -7.53232 0
M  V30 47879 C 7518.92 4.74639 -5.19936 0
M  V30 47880 C 7519.63 3.49432 -4.70418 0
M  V30 47881 N 7519.58 3.32099 -3.22613 0
M  V30 47882 H 7522.41 6.54213 -5.71376 0
M  V30 47883 H 7522.69 5.30936 -4.43503 0
M  V30 47884 H 7521.82 4.55889 -6.76652 0
M  V30 47885 H 7519.16 2.61715 -5.17932 0
M  V30 47886 H 7518.88 5.52155 -4.41878 0
M  V30 47887 H 7517.89 4.51981 -5.53374 0
M  V30 47888 H 7519.73 6.25124 -6.55234 0
M  V30 47889 P 7517.86 4.23843 -7.83734 0
M  V30 47890 O 7517.64 4.19407 -9.29784 0
M  V30 47891 O 7517.07 5.24426 -7.09156 0
M  V30 47892 O 7517.61 2.7935 -7.20758 0
M  V30 47893 C 7518.55 1.7299 -7.50419 0
M  V30 47894 C 7517.82 0.406376 -7.57911 0
M  V30 47895 O 7517.61 -0.0897726 -6.21935 0
M  V30 47896 C 7516.42 0.447224 -8.1878 0
M  V30 47897 O 7516.03 -0.825065 -8.71101 0
M  V30 47898 C 7515.54 0.783801 -6.99623 0
M  V30 47899 C 7516.25 0.0619192 -5.85967 0
M  V30 47900 N 7516.2 0.7859 -4.56281 0
M  V30 47901 H 7519.03 1.93423 -8.4679 0
M  V30 47902 H 7519.31 1.68181 -6.71046 0
M  V30 47903 H 7518.44 -0.289041 -8.15388 0
M  V30 47904 P 7514.48 -1.17771 -8.83182 0
M  V30 47905 O 7514.26 -2.07206 -9.98732 0
M  V30 47906 O 7513.69 0.0743816 -8.81969 0
M  V30 47907 O 7514.23 -1.97652 -7.47304 0
M  V30 47908 C 7515.17 -3.01133 -7.08783 0
M  V30 47909 C 7514.44 -4.12613 -6.37049 0
M  V30 47910 O 7514.23 -3.72827 -4.97879 0
M  V30 47911 C 7513.04 -4.45085 -6.88694 0
M  V30 47912 O 7512.65 -5.7877 -6.5624 0
M  V30 47913 C 7512.16 -3.47817 -6.12078 0
M  V30 47914 C 7512.87 -3.39414 -4.77697 0
M  V30 47915 N 7512.82 -2.04615 -4.15333 0
M  V30 47916 H 7515.65 -3.41248 -7.98759 0
M  V30 47917 H 7515.93 -2.5837 -6.41742 0
M  V30 47918 H 7515.06 -5.02657 -6.42673 0
M  V30 47919 P 7511.1 -6.144 -6.45285 0
M  V30 47920 O 7510.88 -7.54673 -6.86199 0
M  V30 47921 O 7510.31 -5.12391 -7.179 0
M  V30 47922 O 7510.85 -5.99158 -4.88404 0
M  V30 47923 C 7511.79 -6.60234 -3.96415 0
M  V30 47924 C 7511.06 -7.08259 -2.72856 0
M  V30 47925 O 7510.85 -5.9427 -1.83651 0
M  V30 47926 C 7509.66 -7.64886 -2.9555 0
M  V30 47927 O 7509.27 -8.53963 -1.90717 0
M  V30 47928 C 7508.78 -6.4116 -2.90739 0
M  V30 47929 C 7509.49 -5.55375 -1.86963 0
M  V30 47930 N 7509.44 -4.09664 -2.15742 0
M  V30 47931 H 7512.27 -7.45574 -4.45629 0
M  V30 47932 H 7512.55 -5.86232 -3.67314 0
M  V30 47933 H 7511.68 -7.84412 -2.24479 0
M  V30 47934 P 7507.72 -8.7635 -1.60911 0
M  V30 47935 O 7507.5 -10.1388 -1.11561 0
M  V30 47936 O 7506.93 -8.36503 -2.79617 0
M  V30 47937 O 7507.47 -7.71806 -0.42951 0
M  V30 47938 C 7508.41 -7.67148 0.673689 0
M  V30 47939 C 7507.68 -7.33374 1.95559 0
M  V30 47940 O 7507.47 -5.88721 2.00726 0
M  V30 47941 C 7506.28 -7.92526 2.10483 0
M  V30 47942 O 7505.89 -8.02971 3.47653 0
M  V30 47943 C 7505.4 -6.89602 1.41652 0
M  V30 47944 C 7506.11 -5.59201 1.75185 0
M  V30 47945 N 7506.06 -4.58235 0.662552 0
M  V30 47946 H 7508.89 -8.65116 0.777161 0
M  V30 47947 H 7509.17 -6.90173 0.474152 0
M  V30 47948 H 7508.3 -7.66548 2.79458 0
M  V30 47949 P 7504.34 -8.03563 3.84925 0
M  V30 47950 O 7504.12 -8.85821 5.0569 0
M  V30 47951 O 7503.55 -8.41101 2.65469 0
M  V30 47952 O 7504.09 -6.4965 4.18908 0
M  V30 47953 C 7505.03 -5.81037 5.05421 0
M  V30 47954 C 7504.3 -4.78366 5.89277 0
M  V30 47955 O 7504.09 -3.58302 5.08433 0
M  V30 47956 C 7502.9 -5.17448 6.36119 0
M  V30 47957 O 7502.51 -4.45271 7.53232 0
M  V30 47958 C 7502.02 -4.74639 5.19936 0
M  V30 47959 C 7502.73 -3.49432 4.70418 0
M  V30 47960 N 7502.68 -3.31776 3.22945 0
M  V30 47961 H 7505.51 -6.54213 5.71376 0
M  V30 47962 H 7505.79 -5.30492 4.44033 0
M  V30 47963 H 7504.92 -4.55889 6.76652 0
M  V30 47964 P 7500.96 -4.23843 7.83734 0
M  V30 47965 O 7500.74 -4.19407 9.29784 0
M  V30 47966 O 7500.17 -5.24426 7.09156 0
M  V30 47967 O 7500.71 -2.7935 7.20758 0
M  V30 47968 C 7501.65 -1.72945 7.50224 0
M  V30 47969 C 7500.92 -0.406376 7.57911 0
M  V30 47970 O 7500.71 0.0897726 6.21935 0
M  V30 47971 C 7499.52 -0.438983 8.18724 0
M  V30 47972 O 7499.13 0.825065 8.71101 0
M  V30 47973 C 7498.64 -0.783689 6.99524 0
M  V30 47974 C 7499.35 -0.0619086 5.85867 0
M  V30 47975 N 7499.3 -0.78573 4.56183 0
M  V30 47976 C 7499.15 -0.0292889 3.41887 0
M  V30 47977 O 7499.06 1.18445 3.4419 0
M  V30 47978 N 7499.11 -0.744061 2.23964 0
M  V30 47979 C 7499.2 -2.10932 2.10362 0
M  V30 47980 C 7499.35 -2.8202 3.34994 0
M  V30 47981 C 7499.4 -2.15547 4.52261 0
M  V30 47982 H 7502.14 -1.93379 8.46595 0
M  V30 47983 H 7502.41 -1.68132 6.70852 0
M  V30 47984 H 7501.54 0.289041 8.15388 0
M  V30 47985 H 7498.88 0.926847 5.72749 0
M  V30 47986 H 7498.6 -1.86973 6.82036 0
M  V30 47987 H 7497.61 -0.403896 7.13257 0
M  V30 47988 H 7499.45 -1.20585 8.97435 0
M  V30 47989 H 7499.52 -2.71231 5.45042 0
M  V30 47990 P 7497.58 1.17771 8.83182 0
M  V30 47991 O 7497.36 2.07206 9.98732 0
M  V30 47992 O 7496.79 -0.0743816 8.81969 0
M  V30 47993 O 7497.33 1.97652 7.47304 0
M  V30 47994 C 7498.27 3.01133 7.08783 0
M  V30 47995 C 7497.54 4.12613 6.37049 0
M  V30 47996 O 7497.33 3.72827 4.97879 0
M  V30 47997 C 7496.14 4.45085 6.88694 0
M  V30 47998 O 7495.75 5.7877 6.5624 0
M  V30 47999 C 7495.26 3.47817 6.12078 0
M  V30 48000 C 7495.97 3.39414 4.77697 0
M  V30 48001 N 7495.92 2.04615 4.15333 0
M  V30 48002 H 7498.75 3.41248 7.98759 0
M  V30 48003 H 7499.03 2.5837 6.41742 0
M  V30 48004 H 7498.16 5.02657 6.42673 0
M  V30 48005 P 7494.2 6.144 6.45285 0
M  V30 48006 O 7493.98 7.54673 6.86199 0
M  V30 48007 O 7493.41 5.12391 7.179 0
M  V30 48008 O 7493.95 5.99158 4.88404 0
M  V30 48009 C 7494.89 6.60234 3.96415 0
M  V30 48010 C 7494.16 7.08259 2.72856 0
M  V30 48011 O 7493.95 5.9427 1.83651 0
M  V30 48012 C 7492.76 7.64886 2.9555 0
M  V30 48013 O 7492.37 8.53963 1.90717 0
M  V30 48014 C 7491.88 6.4116 2.90739 0
M  V30 48015 C 7492.59 5.55375 1.86963 0
M  V30 48016 N 7492.54 4.09664 2.15742 0
M  V30 48017 H 7495.37 7.45574 4.45629 0
M  V30 48018 H 7495.65 5.86232 3.67314 0
M  V30 48019 H 7494.78 7.84412 2.24479 0
M  V30 48020 P 7490.82 8.7635 1.60911 0
M  V30 48021 O 7490.6 10.1388 1.11561 0
M  V30 48022 O 7490.03 8.36503 2.79617 0
M  V30 48023 O 7490.57 7.71806 0.42951 0
M  V30 48024 C 7491.51 7.67148 -0.673689 0
M  V30 48025 C 7490.78 7.33374 -1.95559 0
M  V30 48026 O 7490.57 5.88721 -2.00726 0
M  V30 48027 C 7489.38 7.92526 -2.10483 0
M  V30 48028 O 7488.99 8.02971 -3.47653 0
M  V30 48029 C 7488.5 6.89602 -1.41652 0
M  V30 48030 C 7489.21 5.59201 -1.75185 0
M  V30 48031 N 7489.16 4.58235 -0.662552 0
M  V30 48032 H 7491.99 8.65116 -0.777161 0
M  V30 48033 H 7492.27 6.90173 -0.474152 0
M  V30 48034 H 7491.4 7.66548 -2.79458 0
M  V30 48035 P 7487.44 8.03563 -3.84925 0
M  V30 48036 O 7487.22 8.85821 -5.0569 0
M  V30 48037 O 7486.65 8.41101 -2.65469 0
M  V30 48038 O 7487.19 6.4965 -4.18908 0
M  V30 48039 C 7488.13 5.81037 -5.05421 0
M  V30 48040 C 7487.4 4.78366 -5.89277 0
M  V30 48041 O 7487.19 3.58302 -5.08433 0
M  V30 48042 C 7486 5.17448 -6.36119 0
M  V30 48043 O 7485.61 4.45271 -7.53232 0
M  V30 48044 C 7485.12 4.74639 -5.19936 0
M  V30 48045 C 7485.83 3.49432 -4.70418 0
M  V30 48046 N 7485.78 3.31776 -3.22945 0
M  V30 48047 H 7488.61 6.54213 -5.71376 0
M  V30 48048 H 7488.89 5.30492 -4.44033 0
M  V30 48049 H 7488.02 4.55889 -6.76652 0
M  V30 48050 P 7484.06 4.23843 -7.83734 0
M  V30 48051 O 7483.84 4.19407 -9.29784 0
M  V30 48052 O 7483.27 5.24426 -7.09156 0
M  V30 48053 O 7483.81 2.7935 -7.20758 0
M  V30 48054 C 7484.75 1.7299 -7.50419 0
M  V30 48055 C 7484.02 0.406376 -7.57911 0
M  V30 48056 O 7483.81 -0.0897726 -6.21935 0
M  V30 48057 C 7482.62 0.447224 -8.1878 0
M  V30 48058 O 7482.23 -0.825065 -8.71101 0
M  V30 48059 C 7481.74 0.783801 -6.99623 0
M  V30 48060 C 7482.45 0.0619192 -5.85967 0
M  V30 48061 N 7482.4 0.7859 -4.56281 0
M  V30 48062 H 7485.23 1.93423 -8.4679 0
M  V30 48063 H 7485.51 1.68181 -6.71046 0
M  V30 48064 H 7484.64 -0.289041 -8.15388 0
M  V30 48065 P 7480.68 -1.17771 -8.83182 0
M  V30 48066 O 7480.46 -2.07206 -9.98732 0
M  V30 48067 O 7479.89 0.0743816 -8.81969 0
M  V30 48068 O 7480.43 -1.97652 -7.47304 0
M  V30 48069 C 7481.37 -3.01133 -7.08783 0
M  V30 48070 C 7480.64 -4.12613 -6.37049 0
M  V30 48071 O 7480.43 -3.72827 -4.97879 0
M  V30 48072 C 7479.24 -4.45085 -6.88694 0
M  V30 48073 O 7478.85 -5.7877 -6.5624 0
M  V30 48074 C 7478.36 -3.47817 -6.12078 0
M  V30 48075 C 7479.07 -3.39414 -4.77697 0
M  V30 48076 N 7479.02 -2.04199 -4.15538 0
M  V30 48077 H 7481.85 -3.41248 -7.98759 0
M  V30 48078 H 7482.13 -2.57728 -6.42 0
M  V30 48079 H 7481.26 -5.02657 -6.42673 0
M  V30 48080 H 7478.6 -4.11708 -4.08956 0
M  V30 48081 H 7478.32 -2.49626 -6.61679 0
M  V30 48082 H 7477.33 -3.8662 -6.00862 0
M  V30 48083 H 7479.17 -4.29991 -7.97006 0
M  V30 48084 P 7477.3 -6.144 -6.45285 0
M  V30 48085 O 7477.08 -7.54673 -6.86199 0
M  V30 48086 O 7476.51 -5.12391 -7.179 0
M  V30 48087 O 7477.05 -5.99158 -4.88404 0
M  V30 48088 C 7477.99 -6.60234 -3.96415 0
M  V30 48089 C 7477.26 -7.08259 -2.72856 0
M  V30 48090 O 7477.05 -5.9427 -1.83651 0
M  V30 48091 C 7475.86 -7.64886 -2.9555 0
M  V30 48092 O 7475.47 -8.53963 -1.90717 0
M  V30 48093 C 7474.98 -6.4116 -2.90739 0
M  V30 48094 C 7475.69 -5.55375 -1.86963 0
M  V30 48095 N 7475.64 -4.09664 -2.15742 0
M  V30 48096 H 7478.47 -7.45574 -4.45629 0
M  V30 48097 H 7478.75 -5.86232 -3.67314 0
M  V30 48098 H 7477.88 -7.84412 -2.24479 0
M  V30 48099 P 7473.92 -8.7635 -1.60911 0
M  V30 48100 O 7473.7 -10.1388 -1.11561 0
M  V30 48101 O 7473.13 -8.36503 -2.79617 0
M  V30 48102 O 7473.67 -7.71806 -0.42951 0
M  V30 48103 C 7474.61 -7.67148 0.673689 0
M  V30 48104 C 7473.88 -7.33374 1.95559 0
M  V30 48105 O 7473.67 -5.88721 2.00726 0
M  V30 48106 C 7472.48 -7.92526 2.10483 0
M  V30 48107 O 7472.09 -8.02971 3.47653 0
M  V30 48108 C 7471.6 -6.89602 1.41652 0
M  V30 48109 C 7472.31 -5.59201 1.75185 0
M  V30 48110 N 7472.26 -4.58235 0.662552 0
M  V30 48111 H 7475.09 -8.65116 0.777161 0
M  V30 48112 H 7475.37 -6.90173 0.474152 0
M  V30 48113 H 7474.5 -7.66548 2.79458 0
M  V30 48114 P 7470.54 -8.03563 3.84925 0
M  V30 48115 O 7470.32 -8.85821 5.0569 0
M  V30 48116 O 7469.75 -8.41101 2.65469 0
M  V30 48117 O 7470.29 -6.4965 4.18908 0
M  V30 48118 C 7471.23 -5.80886 5.05289 0
M  V30 48119 C 7470.5 -4.78366 5.89277 0
M  V30 48120 O 7470.29 -3.58302 5.08433 0
M  V30 48121 C 7469.1 -5.16748 6.36559 0
M  V30 48122 O 7468.71 -4.45271 7.53232 0
M  V30 48123 C 7468.22 -4.74572 5.19863 0
M  V30 48124 C 7468.93 -3.49373 4.70338 0
M  V30 48125 N 7468.88 -3.31704 3.22876 0
M  V30 48126 C 7468.73 -2.03326 2.74871 0
M  V30 48127 O 7468.64 -1.06486 3.48076 0
M  V30 48128 N 7468.69 -1.91838 1.37456 0
M  V30 48129 C 7468.78 -2.94295 0.462035 0
M  V30 48130 C 7468.93 -4.25064 1.05249 0
M  V30 48131 C 7468.98 -4.40214 2.39192 0
M  V30 48132 H 7471.72 -6.54063 5.71245 0
M  V30 48133 H 7471.99 -5.30339 4.43905 0
M  V30 48134 H 7471.12 -4.55889 6.76652 0
M  V30 48135 H 7468.46 -2.6167 5.17842 0
M  V30 48136 H 7468.18 -5.52155 4.41878 0
M  V30 48137 H 7467.19 -4.51918 5.53297 0
M  V30 48138 H 7469.03 -6.25055 6.55162 0
M  V30 48139 H 7469.1 -5.39798 2.81523 0
M  V30 48140 P 7467.16 -4.23843 7.83734 0
M  V30 48141 O 7466.94 -4.19407 9.29784 0
M  V30 48142 O 7466.37 -5.24426 7.09156 0
M  V30 48143 O 7466.91 -2.7935 7.20758 0
M  V30 48144 C 7467.85 -1.7299 7.50419 0
M  V30 48145 C 7467.12 -0.406376 7.57911 0
M  V30 48146 O 7466.91 0.0897726 6.21935 0
M  V30 48147 C 7465.72 -0.447224 8.1878 0
M  V30 48148 O 7465.33 0.825065 8.71101 0
M  V30 48149 C 7464.84 -0.783801 6.99623 0
M  V30 48150 C 7465.55 -0.0619192 5.85967 0
M  V30 48151 N 7465.5 -0.7859 4.56281 0
M  V30 48152 H 7468.33 -1.93423 8.4679 0
M  V30 48153 H 7468.61 -1.68181 6.71046 0
M  V30 48154 H 7467.74 0.289041 8.15388 0
M  V30 48155 P 7463.78 1.17771 8.83182 0
M  V30 48156 O 7463.56 2.07206 9.98732 0
M  V30 48157 O 7462.99 -0.0743816 8.81969 0
M  V30 48158 O 7463.53 1.97652 7.47304 0
M  V30 48159 C 7464.47 3.01133 7.08783 0
M  V30 48160 C 7463.74 4.12613 6.37049 0
M  V30 48161 O 7463.53 3.72827 4.97879 0
M  V30 48162 C 7462.34 4.45085 6.88694 0
M  V30 48163 O 7461.95 5.7877 6.5624 0
M  V30 48164 C 7461.46 3.47817 6.12078 0
M  V30 48165 C 7462.17 3.39414 4.77697 0
M  V30 48166 N 7462.12 2.04615 4.15333 0
M  V30 48167 H 7464.95 3.41248 7.98759 0
M  V30 48168 H 7465.23 2.5837 6.41742 0
M  V30 48169 H 7464.36 5.02657 6.42673 0
M  V30 48170 P 7460.4 6.144 6.45285 0
M  V30 48171 O 7460.18 7.54673 6.86199 0
M  V30 48172 O 7459.61 5.12391 7.179 0
M  V30 48173 O 7460.15 5.99158 4.88404 0
M  V30 48174 C 7461.09 6.60234 3.96415 0
M  V30 48175 C 7460.36 7.08259 2.72856 0
M  V30 48176 O 7460.15 5.9427 1.83651 0
M  V30 48177 C 7458.96 7.64886 2.9555 0
M  V30 48178 O 7458.57 8.53963 1.90717 0
M  V30 48179 C 7458.08 6.4116 2.90739 0
M  V30 48180 C 7458.79 5.55375 1.86963 0
M  V30 48181 N 7458.74 4.09448 2.16152 0
M  V30 48182 C 7458.82 3.46824 3.37593 0
M  V30 48183 N 7458.75 2.17422 3.29777 0
M  V30 48184 C 7458.6 1.93065 1.94427 0
M  V30 48185 C 7458.47 0.738053 1.20141 0
M  V30 48186 N 7458.46 -0.474256 1.74676 0
M  V30 48187 N 7458.35 0.850049 -0.13045 0
M  V30 48188 C 7458.36 2.06169 -0.676992 0
M  V30 48189 N 7458.48 3.23842 -0.101312 0
M  V30 48190 C 7458.6 3.09402 1.23122 0
M  V30 48191 H 7461.57 7.45574 4.45629 0
M  V30 48192 H 7461.85 5.85864 3.679 0
M  V30 48193 H 7460.98 7.84412 2.24479 0
M  V30 48194 H 7458.32 5.73457 0.888562 0
M  V30 48195 H 7458.04 5.90877 3.88583 0
M  V30 48196 H 7457.05 6.6596 2.58858 0
M  V30 48197 H 7458.89 8.16339 3.92049 0
M  V30 48198 H 7458.93 4.00505 4.3174 0
M  V30 48199 H 7458.55 -0.581337 2.76658 0
M  V30 48200 H 7458.36 -1.30811 1.14888 0
M  V30 48201 H 7458.25 2.08295 -1.75542 0
M  V30 48202 P 7457.02 8.7635 1.60911 0
M  V30 48203 O 7456.8 10.1388 1.11561 0
M  V30 48204 O 7456.23 8.36503 2.79617 0
M  V30 48205 O 7456.77 7.71806 0.42951 0
M  V30 48206 C 7457.71 7.67148 -0.673689 0
M  V30 48207 C 7456.98 7.33374 -1.95559 0
M  V30 48208 O 7456.77 5.88721 -2.00726 0
M  V30 48209 C 7455.58 7.92526 -2.10483 0
M  V30 48210 O 7455.19 8.02971 -3.47653 0
M  V30 48211 C 7454.7 6.89602 -1.41652 0
M  V30 48212 C 7455.41 5.59201 -1.75185 0
M  V30 48213 N 7455.36 4.58235 -0.662552 0
M  V30 48214 H 7458.19 8.65116 -0.777161 0
M  V30 48215 H 7458.47 6.90173 -0.474152 0
M  V30 48216 H 7457.6 7.66548 -2.79458 0
M  V30 48217 P 7453.64 8.03563 -3.84925 0
M  V30 48218 O 7453.42 8.85821 -5.0569 0
M  V30 48219 O 7452.85 8.41101 -2.65469 0
M  V30 48220 O 7453.39 6.4965 -4.18908 0
M  V30 48221 C 7454.33 5.80886 -5.05289 0
M  V30 48222 C 7453.6 4.78366 -5.89277 0
M  V30 48223 O 7453.39 3.58302 -5.08433 0
M  V30 48224 C 7452.2 5.16748 -6.36559 0
M  V30 48225 O 7451.81 4.45271 -7.53232 0
M  V30 48226 C 7451.32 4.74572 -5.19863 0
M  V30 48227 C 7452.03 3.49373 -4.70338 0
M  V30 48228 N 7451.98 3.31704 -3.22876 0
M  V30 48229 C 7451.83 2.03326 -2.74871 0
M  V30 48230 O 7451.74 1.06486 -3.48076 0
M  V30 48231 N 7451.79 1.91838 -1.37456 0
M  V30 48232 C 7451.88 2.94295 -0.462035 0
M  V30 48233 C 7452.03 4.25064 -1.05249 0
M  V30 48234 C 7452.08 4.40214 -2.39192 0
M  V30 48235 H 7454.82 6.54063 -5.71245 0
M  V30 48236 H 7455.09 5.30339 -4.43905 0
M  V30 48237 H 7454.22 4.55889 -6.76652 0
M  V30 48238 H 7451.56 2.6167 -5.17842 0
M  V30 48239 H 7451.28 5.52155 -4.41878 0
M  V30 48240 H 7450.29 4.51918 -5.53297 0
M  V30 48241 H 7452.13 6.25055 -6.55162 0
M  V30 48242 H 7452.2 5.39798 -2.81523 0
M  V30 48243 P 7450.26 4.23843 -7.83734 0
M  V30 48244 O 7450.04 4.19407 -9.29784 0
M  V30 48245 O 7449.47 5.24426 -7.09156 0
M  V30 48246 O 7450.01 2.7935 -7.20758 0
M  V30 48247 C 7450.95 1.7299 -7.50419 0
M  V30 48248 C 7450.22 0.406376 -7.57911 0
M  V30 48249 O 7450.01 -0.0897726 -6.21935 0
M  V30 48250 C 7448.82 0.447224 -8.1878 0
M  V30 48251 O 7448.43 -0.825065 -8.71101 0
M  V30 48252 C 7447.94 0.783801 -6.99623 0
M  V30 48253 C 7448.65 0.0619192 -5.85967 0
M  V30 48254 N 7448.6 0.7859 -4.56281 0
M  V30 48255 H 7451.43 1.93423 -8.4679 0
M  V30 48256 H 7451.71 1.68181 -6.71046 0
M  V30 48257 H 7450.84 -0.289041 -8.15388 0
M  V30 48258 P 7446.88 -1.17771 -8.83182 0
M  V30 48259 O 7446.66 -2.07206 -9.98732 0
M  V30 48260 O 7446.09 0.0743816 -8.81969 0
M  V30 48261 O 7446.63 -1.97652 -7.47304 0
M  V30 48262 C 7447.57 -3.01133 -7.08783 0
M  V30 48263 C 7446.84 -4.12613 -6.37049 0
M  V30 48264 O 7446.63 -3.72827 -4.97879 0
M  V30 48265 C 7445.44 -4.45085 -6.88694 0
M  V30 48266 O 7445.05 -5.7877 -6.5624 0
M  V30 48267 C 7444.56 -3.47817 -6.12078 0
M  V30 48268 C 7445.27 -3.39414 -4.77697 0
M  V30 48269 N 7445.22 -2.04199 -4.15538 0
M  V30 48270 H 7448.05 -3.41248 -7.98759 0
M  V30 48271 H 7448.33 -2.57728 -6.42 0
M  V30 48272 H 7447.46 -5.02657 -6.42673 0
M  V30 48273 H 7444.8 -4.11708 -4.08956 0
M  V30 48274 H 7444.52 -2.49626 -6.61679 0
M  V30 48275 H 7443.53 -3.8662 -6.00862 0
M  V30 48276 H 7445.37 -4.29991 -7.97006 0
M  V30 48277 P 7443.5 -6.144 -6.45285 0
M  V30 48278 O 7443.28 -7.54673 -6.86199 0
M  V30 48279 O 7442.71 -5.12391 -7.179 0
M  V30 48280 O 7443.25 -5.99158 -4.88404 0
M  V30 48281 C 7444.19 -6.60234 -3.96415 0
M  V30 48282 C 7443.46 -7.08259 -2.72856 0
M  V30 48283 O 7443.25 -5.9427 -1.83651 0
M  V30 48284 C 7442.06 -7.64886 -2.9555 0
M  V30 48285 O 7441.67 -8.53963 -1.90717 0
M  V30 48286 C 7441.18 -6.4116 -2.90739 0
M  V30 48287 C 7441.89 -5.55375 -1.86963 0
M  V30 48288 N 7441.84 -4.09664 -2.15742 0
M  V30 48289 H 7444.67 -7.45574 -4.45629 0
M  V30 48290 H 7444.95 -5.86232 -3.67314 0
M  V30 48291 H 7444.08 -7.84412 -2.24479 0
M  V30 48292 P 7440.12 -8.7635 -1.60911 0
M  V30 48293 O 7439.9 -10.1388 -1.11561 0
M  V30 48294 O 7439.33 -8.36503 -2.79617 0
M  V30 48295 O 7439.87 -7.71806 -0.42951 0
M  V30 48296 C 7440.81 -7.67148 0.673689 0
M  V30 48297 C 7440.08 -7.33374 1.95559 0
M  V30 48298 O 7439.87 -5.88721 2.00726 0
M  V30 48299 C 7438.68 -7.92526 2.10483 0
M  V30 48300 O 7438.29 -8.02971 3.47653 0
M  V30 48301 C 7437.8 -6.89602 1.41652 0
M  V30 48302 C 7438.51 -5.59201 1.75185 0
M  V30 48303 N 7438.46 -4.58235 0.662552 0
M  V30 48304 H 7441.29 -8.65116 0.777161 0
M  V30 48305 H 7441.57 -6.90173 0.474152 0
M  V30 48306 H 7440.7 -7.66548 2.79458 0
M  V30 48307 P 7436.74 -8.03563 3.84925 0
M  V30 48308 O 7436.52 -8.85821 5.0569 0
M  V30 48309 O 7435.95 -8.41101 2.65469 0
M  V30 48310 O 7436.49 -6.4965 4.18908 0
M  V30 48311 C 7437.43 -5.81037 5.05421 0
M  V30 48312 C 7436.7 -4.78366 5.89277 0
M  V30 48313 O 7436.49 -3.58302 5.08433 0
M  V30 48314 C 7435.3 -5.17448 6.36119 0
M  V30 48315 O 7434.91 -4.45271 7.53232 0
M  V30 48316 C 7434.42 -4.74639 5.19936 0
M  V30 48317 C 7435.13 -3.49432 4.70418 0
M  V30 48318 N 7435.08 -3.31776 3.22945 0
M  V30 48319 H 7437.92 -6.54213 5.71376 0
M  V30 48320 H 7438.19 -5.30492 4.44033 0
M  V30 48321 H 7437.32 -4.55889 6.76652 0
M  V30 48322 P 7433.36 -4.23843 7.83734 0
M  V30 48323 O 7433.14 -4.19407 9.29784 0
M  V30 48324 O 7432.57 -5.24426 7.09156 0
M  V30 48325 O 7433.11 -2.7935 7.20758 0
M  V30 48326 C 7434.05 -1.72945 7.50224 0
M  V30 48327 C 7433.32 -0.406376 7.57911 0
M  V30 48328 O 7433.11 0.0897726 6.21935 0
M  V30 48329 C 7431.92 -0.438983 8.18724 0
M  V30 48330 O 7431.53 0.825065 8.71101 0
M  V30 48331 C 7431.04 -0.783689 6.99524 0
M  V30 48332 C 7431.75 -0.0619086 5.85867 0
M  V30 48333 N 7431.7 -0.78573 4.56183 0
M  V30 48334 C 7431.55 -0.0292889 3.41887 0
M  V30 48335 O 7431.46 1.18445 3.4419 0
M  V30 48336 N 7431.51 -0.744061 2.23964 0
M  V30 48337 C 7431.6 -2.10932 2.10362 0
M  V30 48338 O 7431.55 -2.64117 0.98825 0
M  V30 48339 C 7431.75 -2.8202 3.34994 0
M  V30 48340 C 7431.86 -4.31095 3.25037 0
M  V30 48341 C 7431.8 -2.15547 4.52261 0
M  V30 48342 H 7434.54 -1.93379 8.46595 0
M  V30 48343 H 7434.81 -1.68132 6.70852 0
M  V30 48344 H 7433.94 0.289041 8.15388 0
M  V30 48345 H 7431.28 0.926847 5.72749 0
M  V30 48346 H 7431.01 -1.86973 6.82036 0
M  V30 48347 H 7430.01 -0.403896 7.13257 0
M  V30 48348 H 7431.85 -1.20585 8.97435 0
M  V30 48349 H 7431.92 -2.71231 5.45042 0
M  V30 48350 H 7430.89 -4.76966 3.49992 0
M  V30 48351 H 7432.63 -4.67047 3.95024 0
M  V30 48352 H 7432.14 -4.58996 2.22312 0
M  V30 48353 H 7431.4 -0.214893 1.39758 0
M  V30 48354 P 7429.98 1.17771 8.83182 0
M  V30 48355 O 7429.76 2.07206 9.98732 0
M  V30 48356 O 7429.19 -0.0743816 8.81969 0
M  V30 48357 O 7429.73 1.97652 7.47304 0
M  V30 48358 C 7430.67 3.01133 7.08783 0
M  V30 48359 C 7429.94 4.12613 6.37049 0
M  V30 48360 O 7429.73 3.72827 4.97879 0
M  V30 48361 C 7428.54 4.45085 6.88694 0
M  V30 48362 O 7428.15 5.7877 6.5624 0
M  V30 48363 C 7427.66 3.47817 6.12078 0
M  V30 48364 C 7428.37 3.39414 4.77697 0
M  V30 48365 N 7428.32 2.04615 4.15333 0
M  V30 48366 H 7431.16 3.41248 7.98759 0
M  V30 48367 H 7431.43 2.5837 6.41742 0
M  V30 48368 H 7430.56 5.02657 6.42673 0
M  V30 48369 P 7426.6 6.144 6.45285 0
M  V30 48370 O 7426.38 7.54673 6.86199 0
M  V30 48371 O 7425.81 5.12391 7.179 0
M  V30 48372 O 7426.35 5.99158 4.88404 0
M  V30 48373 C 7427.29 6.60234 3.96415 0
M  V30 48374 C 7426.56 7.08259 2.72856 0
M  V30 48375 O 7426.35 5.9427 1.83651 0
M  V30 48376 C 7425.16 7.64886 2.9555 0
M  V30 48377 O 7424.77 8.53963 1.90717 0
M  V30 48378 C 7424.28 6.4116 2.90739 0
M  V30 48379 C 7424.99 5.55375 1.86963 0
M  V30 48380 N 7424.94 4.09664 2.15742 0
M  V30 48381 C 7425.02 3.44381 3.37233 0
M  V30 48382 N 7424.94 2.14131 3.28347 0
M  V30 48383 C 7424.8 1.90247 1.91588 0
M  V30 48384 C 7424.67 0.683992 1.20892 0
M  V30 48385 O 7424.65 -0.46618 1.64523 0
M  V30 48386 N 7424.55 0.903396 -0.173998 0
M  V30 48387 C 7424.55 2.14171 -0.784879 0
M  V30 48388 N 7424.42 2.1435 -2.11317 0
M  V30 48389 N 7424.68 3.28784 -0.119316 0
M  V30 48390 C 7424.8 3.0977 1.22194 0
M  V30 48391 H 7427.78 7.45574 4.45629 0
M  V30 48392 H 7428.05 5.86232 3.67314 0
M  V30 48393 H 7427.18 7.84412 2.24479 0
M  V30 48394 H 7424.52 5.73556 0.888715 0
M  V30 48395 H 7424.24 5.9096 3.88638 0
M  V30 48396 H 7423.25 6.66053 2.58894 0
M  V30 48397 H 7425.09 8.16429 3.92093 0
M  V30 48398 H 7425.14 3.96785 4.32043 0
M  V30 48399 H 7424.45 0.0999567 -0.761467 0
M  V30 48400 H 7424.42 3.03436 -2.63076 0
M  V30 48401 H 7424.32 1.25228 -2.62233 0
M  V30 48402 P 7423.22 8.7635 1.60911 0
M  V30 48403 O 7423 10.1388 1.11561 0
M  V30 48404 O 7422.43 8.36503 2.79617 0
M  V30 48405 O 7422.97 7.71806 0.42951 0
M  V30 48406 C 7423.91 7.67148 -0.673689 0
M  V30 48407 C 7423.18 7.33374 -1.95559 0
M  V30 48408 O 7422.97 5.88721 -2.00726 0
M  V30 48409 C 7421.78 7.92526 -2.10483 0
M  V30 48410 O 7421.39 8.02971 -3.47653 0
M  V30 48411 C 7420.9 6.89602 -1.41652 0
M  V30 48412 C 7421.61 5.59201 -1.75185 0
M  V30 48413 N 7421.56 4.58235 -0.662552 0
M  V30 48414 H 7424.4 8.65116 -0.777161 0
M  V30 48415 H 7424.67 6.90173 -0.474152 0
M  V30 48416 H 7423.8 7.66548 -2.79458 0
M  V30 48417 P 7419.84 8.03563 -3.84925 0
M  V30 48418 O 7419.62 8.85821 -5.0569 0
M  V30 48419 O 7419.05 8.41101 -2.65469 0
M  V30 48420 O 7419.59 6.4965 -4.18908 0
M  V30 48421 C 7420.53 5.81037 -5.05421 0
M  V30 48422 C 7419.8 4.78366 -5.89277 0
M  V30 48423 O 7419.59 3.58302 -5.08433 0
M  V30 48424 C 7418.4 5.17448 -6.36119 0
M  V30 48425 O 7418.01 4.45271 -7.53232 0
M  V30 48426 C 7417.52 4.74639 -5.19936 0
M  V30 48427 C 7418.23 3.49432 -4.70418 0
M  V30 48428 N 7418.18 3.32099 -3.22613 0
M  V30 48429 C 7418.26 4.28245 -2.25527 0
M  V30 48430 N 7418.19 3.80823 -1.04874 0
M  V30 48431 C 7418.04 2.44571 -1.23535 0
M  V30 48432 C 7417.91 1.37068 -0.330675 0
M  V30 48433 N 7417.9 1.51472 0.990824 0
M  V30 48434 N 7417.79 0.138614 -0.848756 0
M  V30 48435 C 7417.8 -0.00675923 -2.16999 0
M  V30 48436 N 7417.92 0.904372 -3.11122 0
M  V30 48437 C 7418.04 2.12707 -2.56212 0
M  V30 48438 H 7421.02 6.54213 -5.71376 0
M  V30 48439 H 7421.29 5.30936 -4.43503 0
M  V30 48440 H 7420.42 4.55889 -6.76652 0
M  V30 48441 H 7417.76 2.61715 -5.17932 0
M  V30 48442 H 7417.48 5.52155 -4.41878 0
M  V30 48443 H 7416.49 4.51981 -5.53374 0
M  V30 48444 H 7418.33 6.25124 -6.55234 0
M  V30 48445 H 7418.37 5.34372 -2.47488 0
M  V30 48446 H 7417.99 2.45153 1.4078 0
M  V30 48447 H 7417.8 0.688422 1.59911 0
M  V30 48448 H 7417.69 -1.02584 -2.52346 0
M  V30 48449 P 7416.46 4.23843 -7.83734 0
M  V30 48450 O 7416.24 4.19407 -9.29784 0
M  V30 48451 O 7415.67 5.24426 -7.09156 0
M  V30 48452 O 7416.21 2.7935 -7.20758 0
M  V30 48453 C 7417.15 1.7299 -7.50419 0
M  V30 48454 C 7416.42 0.406376 -7.57911 0
M  V30 48455 O 7416.21 -0.0897726 -6.21935 0
M  V30 48456 C 7415.02 0.447224 -8.1878 0
M  V30 48457 O 7414.63 -0.825065 -8.71101 0
M  V30 48458 C 7414.14 0.783801 -6.99623 0
M  V30 48459 C 7414.85 0.0619192 -5.85967 0
M  V30 48460 N 7414.8 0.7859 -4.56281 0
M  V30 48461 H 7417.64 1.93423 -8.4679 0
M  V30 48462 H 7417.91 1.68181 -6.71046 0
M  V30 48463 H 7417.04 -0.289041 -8.15388 0
M  V30 48464 P 7413.08 -1.17771 -8.83182 0
M  V30 48465 O 7412.86 -2.07206 -9.98732 0
M  V30 48466 O 7412.29 0.0743816 -8.81969 0
M  V30 48467 O 7412.83 -1.97652 -7.47304 0
M  V30 48468 C 7413.77 -3.01133 -7.08783 0
M  V30 48469 C 7413.04 -4.12613 -6.37049 0
M  V30 48470 O 7412.83 -3.72827 -4.97879 0
M  V30 48471 C 7411.64 -4.45085 -6.88694 0
M  V30 48472 O 7411.25 -5.7877 -6.5624 0
M  V30 48473 C 7410.76 -3.47817 -6.12078 0
M  V30 48474 C 7411.47 -3.39414 -4.77697 0
M  V30 48475 N 7411.42 -2.04615 -4.15333 0
M  V30 48476 H 7414.26 -3.41248 -7.98759 0
M  V30 48477 H 7414.53 -2.5837 -6.41742 0
M  V30 48478 H 7413.66 -5.02657 -6.42673 0
M  V30 48479 P 7409.7 -6.144 -6.45285 0
M  V30 48480 O 7409.48 -7.54673 -6.86199 0
M  V30 48481 O 7408.91 -5.12391 -7.179 0
M  V30 48482 O 7409.45 -5.99158 -4.88404 0
M  V30 48483 C 7410.39 -6.60234 -3.96415 0
M  V30 48484 C 7409.66 -7.08259 -2.72856 0
M  V30 48485 O 7409.45 -5.9427 -1.83651 0
M  V30 48486 C 7408.26 -7.64886 -2.9555 0
M  V30 48487 O 7407.87 -8.53963 -1.90717 0
M  V30 48488 C 7407.38 -6.4116 -2.90739 0
M  V30 48489 C 7408.09 -5.55375 -1.86963 0
M  V30 48490 N 7408.04 -4.09664 -2.15742 0
M  V30 48491 H 7410.88 -7.45574 -4.45629 0
M  V30 48492 H 7411.15 -5.86232 -3.67314 0
M  V30 48493 H 7410.28 -7.84412 -2.24479 0
M  V30 48494 P 7406.32 -8.7635 -1.60911 0
M  V30 48495 O 7406.1 -10.1388 -1.11561 0
M  V30 48496 O 7405.53 -8.36503 -2.79617 0
M  V30 48497 O 7406.07 -7.71806 -0.42951 0
M  V30 48498 C 7407.01 -7.67148 0.673689 0
M  V30 48499 C 7406.28 -7.33374 1.95559 0
M  V30 48500 O 7406.07 -5.88721 2.00726 0
M  V30 48501 C 7404.88 -7.92526 2.10483 0
M  V30 48502 O 7404.49 -8.02971 3.47653 0
M  V30 48503 C 7404 -6.89602 1.41652 0
M  V30 48504 C 7404.71 -5.59201 1.75185 0
M  V30 48505 N 7404.66 -4.58235 0.662552 0
M  V30 48506 H 7407.5 -8.65116 0.777161 0
M  V30 48507 H 7407.77 -6.90173 0.474152 0
M  V30 48508 H 7406.9 -7.66548 2.79458 0
M  V30 48509 P 7402.94 -8.03563 3.84925 0
M  V30 48510 O 7402.72 -8.85821 5.0569 0
M  V30 48511 O 7402.15 -8.41101 2.65469 0
M  V30 48512 O 7402.69 -6.4965 4.18908 0
M  V30 48513 C 7403.63 -5.81037 5.05421 0
M  V30 48514 C 7402.9 -4.78366 5.89277 0
M  V30 48515 O 7402.69 -3.58302 5.08433 0
M  V30 48516 C 7401.5 -5.17448 6.36119 0
M  V30 48517 O 7401.11 -4.45271 7.53232 0
M  V30 48518 C 7400.62 -4.74639 5.19936 0
M  V30 48519 C 7401.33 -3.49432 4.70418 0
M  V30 48520 N 7401.28 -3.31776 3.22945 0
M  V30 48521 H 7404.12 -6.54213 5.71376 0
M  V30 48522 H 7404.39 -5.30492 4.44033 0
M  V30 48523 H 7403.52 -4.55889 6.76652 0
M  V30 48524 P 7399.56 -4.23843 7.83734 0
M  V30 48525 O 7399.34 -4.19407 9.29784 0
M  V30 48526 O 7398.77 -5.24426 7.09156 0
M  V30 48527 O 7399.31 -2.7935 7.20758 0
M  V30 48528 C 7400.25 -1.7299 7.50419 0
M  V30 48529 C 7399.52 -0.406376 7.57911 0
M  V30 48530 O 7399.31 0.0897726 6.21935 0
M  V30 48531 C 7398.12 -0.447224 8.1878 0
M  V30 48532 O 7397.73 0.825065 8.71101 0
M  V30 48533 C 7397.24 -0.783801 6.99623 0
M  V30 48534 C 7397.95 -0.0619192 5.85967 0
M  V30 48535 N 7397.9 -0.790462 4.56202 0
M  V30 48536 H 7400.74 -1.93423 8.4679 0
M  V30 48537 H 7401.01 -1.68852 6.70877 0
M  V30 48538 H 7400.14 0.289041 8.15388 0
M  V30 48539 H 7397.48 0.927006 5.72848 0
M  V30 48540 H 7397.2 -1.86973 6.82036 0
M  V30 48541 H 7396.21 -0.403953 7.13357 0
M  V30 48542 H 7398.05 -1.20599 8.97534 0
M  V30 48543 P 7396.18 1.17771 8.83182 0
M  V30 48544 O 7395.96 2.07206 9.98732 0
M  V30 48545 O 7395.39 -0.0743816 8.81969 0
M  V30 48546 O 7395.93 1.97652 7.47304 0
M  V30 48547 C 7396.87 3.01133 7.08783 0
M  V30 48548 C 7396.14 4.12613 6.37049 0
M  V30 48549 O 7395.93 3.72827 4.97879 0
M  V30 48550 C 7394.74 4.45085 6.88694 0
M  V30 48551 O 7394.35 5.7877 6.5624 0
M  V30 48552 C 7393.86 3.47817 6.12078 0
M  V30 48553 C 7394.57 3.39414 4.77697 0
M  V30 48554 N 7394.52 2.04199 4.15538 0
M  V30 48555 H 7397.36 3.41248 7.98759 0
M  V30 48556 H 7397.63 2.57728 6.42 0
M  V30 48557 H 7396.76 5.02657 6.42673 0
M  V30 48558 H 7394.1 4.11708 4.08956 0
M  V30 48559 H 7393.82 2.49626 6.61679 0
M  V30 48560 H 7392.83 3.8662 6.00862 0
M  V30 48561 H 7394.67 4.29991 7.97006 0
M  V30 48562 P 7392.8 6.144 6.45285 0
M  V30 48563 O 7392.58 7.54673 6.86199 0
M  V30 48564 O 7392.01 5.12391 7.179 0
M  V30 48565 O 7392.55 5.99158 4.88404 0
M  V30 48566 C 7393.49 6.60234 3.96415 0
M  V30 48567 C 7392.76 7.08259 2.72856 0
M  V30 48568 O 7392.55 5.9427 1.83651 0
M  V30 48569 C 7391.36 7.64886 2.9555 0
M  V30 48570 O 7390.97 8.53963 1.90717 0
M  V30 48571 C 7390.48 6.4116 2.90739 0
M  V30 48572 C 7391.19 5.55375 1.86963 0
M  V30 48573 N 7391.14 4.09664 2.15742 0
M  V30 48574 H 7393.98 7.45574 4.45629 0
M  V30 48575 H 7394.25 5.86232 3.67314 0
M  V30 48576 H 7393.38 7.84412 2.24479 0
M  V30 48577 P 7389.42 8.7635 1.60911 0
M  V30 48578 O 7389.2 10.1388 1.11561 0
M  V30 48579 O 7388.63 8.36503 2.79617 0
M  V30 48580 O 7389.17 7.71806 0.42951 0
M  V30 48581 C 7390.11 7.67148 -0.673689 0
M  V30 48582 C 7389.38 7.33374 -1.95559 0
M  V30 48583 O 7389.17 5.88721 -2.00726 0
M  V30 48584 C 7387.98 7.92526 -2.10483 0
M  V30 48585 O 7387.59 8.02971 -3.47653 0
M  V30 48586 C 7387.1 6.89602 -1.41652 0
M  V30 48587 C 7387.81 5.59201 -1.75185 0
M  V30 48588 N 7387.76 4.58235 -0.662552 0
M  V30 48589 C 7387.84 4.7683 0.704049 0
M  V30 48590 N 7387.76 3.66233 1.39775 0
M  V30 48591 C 7387.62 2.66526 0.431739 0
M  V30 48592 C 7387.49 1.26394 0.575992 0
M  V30 48593 O 7387.47 0.589894 1.60503 0
M  V30 48594 N 7387.37 0.62859 -0.67177 0
M  V30 48595 C 7387.37 1.27134 -1.89385 0
M  V30 48596 N 7387.24 0.492035 -2.96951 0
M  V30 48597 N 7387.5 2.58978 -2.02907 0
M  V30 48598 C 7387.62 3.22433 -0.832218 0
M  V30 48599 H 7390.6 8.65116 -0.777161 0
M  V30 48600 H 7390.87 6.90173 -0.474152 0
M  V30 48601 H 7390 7.66548 -2.79458 0
M  V30 48602 H 7387.34 5.16254 -2.65229 0
M  V30 48603 H 7387.06 7.06532 -0.329431 0
M  V30 48604 H 7386.07 6.91023 -1.82047 0
M  V30 48605 H 7387.91 8.90971 -1.62675 0
M  V30 48606 H 7387.96 5.74954 1.16305 0
M  V30 48607 H 7387.27 -0.366713 -0.674793 0
M  V30 48608 H 7387.24 0.908532 -3.91188 0
M  V30 48609 H 7387.14 -0.528253 -2.85758 0
M  V30 48610 P 7386.04 8.03563 -3.84925 0
M  V30 48611 O 7385.82 8.85821 -5.0569 0
M  V30 48612 O 7385.25 8.41101 -2.65469 0
M  V30 48613 O 7385.79 6.4965 -4.18908 0
M  V30 48614 C 7386.73 5.81037 -5.05421 0
M  V30 48615 C 7386 4.78366 -5.89277 0
M  V30 48616 O 7385.79 3.58302 -5.08433 0
M  V30 48617 C 7384.6 5.17448 -6.36119 0
M  V30 48618 O 7384.21 4.45271 -7.53232 0
M  V30 48619 C 7383.72 4.74639 -5.19936 0
M  V30 48620 C 7384.43 3.49432 -4.70418 0
M  V30 48621 N 7384.38 3.31776 -3.22945 0
M  V30 48622 H 7387.22 6.54213 -5.71376 0
M  V30 48623 H 7387.49 5.30492 -4.44033 0
M  V30 48624 H 7386.62 4.55889 -6.76652 0
M  V30 48625 P 7382.66 4.23843 -7.83734 0
M  V30 48626 O 7382.44 4.19407 -9.29784 0
M  V30 48627 O 7381.87 5.24426 -7.09156 0
M  V30 48628 O 7382.41 2.7935 -7.20758 0
M  V30 48629 C 7383.35 1.72945 -7.50224 0
M  V30 48630 C 7382.62 0.406376 -7.57911 0
M  V30 48631 O 7382.41 -0.0897726 -6.21935 0
M  V30 48632 C 7381.22 0.438983 -8.18724 0
M  V30 48633 O 7380.83 -0.825065 -8.71101 0
M  V30 48634 C 7380.34 0.783689 -6.99524 0
M  V30 48635 C 7381.05 0.0619086 -5.85867 0
M  V30 48636 N 7381 0.78573 -4.56183 0
M  V30 48637 C 7380.85 0.0292889 -3.41887 0
M  V30 48638 O 7380.76 -1.18445 -3.4419 0
M  V30 48639 N 7380.81 0.744061 -2.23964 0
M  V30 48640 C 7380.9 2.10932 -2.10362 0
M  V30 48641 C 7381.05 2.8202 -3.34994 0
M  V30 48642 C 7381.1 2.15547 -4.52261 0
M  V30 48643 H 7383.84 1.93379 -8.46595 0
M  V30 48644 H 7384.11 1.68132 -6.70852 0
M  V30 48645 H 7383.24 -0.289041 -8.15388 0
M  V30 48646 H 7380.58 -0.926847 -5.72749 0
M  V30 48647 H 7380.31 1.86973 -6.82036 0
M  V30 48648 H 7379.31 0.403896 -7.13257 0
M  V30 48649 H 7381.15 1.20585 -8.97435 0
M  V30 48650 H 7381.22 2.71231 -5.45042 0
M  V30 48651 P 7379.28 -1.17771 -8.83182 0
M  V30 48652 O 7379.06 -2.07206 -9.98732 0
M  V30 48653 O 7378.49 0.0743816 -8.81969 0
M  V30 48654 O 7379.03 -1.97652 -7.47304 0
M  V30 48655 C 7379.97 -3.01133 -7.08783 0
M  V30 48656 C 7379.24 -4.12613 -6.37049 0
M  V30 48657 O 7379.03 -3.72827 -4.97879 0
M  V30 48658 C 7377.84 -4.45085 -6.88694 0
M  V30 48659 O 7377.45 -5.7877 -6.5624 0
M  V30 48660 C 7376.96 -3.47817 -6.12078 0
M  V30 48661 C 7377.67 -3.39414 -4.77697 0
M  V30 48662 N 7377.62 -2.04615 -4.15333 0
M  V30 48663 H 7380.46 -3.41248 -7.98759 0
M  V30 48664 H 7380.73 -2.5837 -6.41742 0
M  V30 48665 H 7379.86 -5.02657 -6.42673 0
M  V30 48666 P 7375.9 -6.144 -6.45285 0
M  V30 48667 O 7375.68 -7.54673 -6.86199 0
M  V30 48668 O 7375.11 -5.12391 -7.179 0
M  V30 48669 O 7375.65 -5.99158 -4.88404 0
M  V30 48670 C 7376.59 -6.60234 -3.96415 0
M  V30 48671 C 7375.86 -7.08259 -2.72856 0
M  V30 48672 O 7375.65 -5.9427 -1.83651 0
M  V30 48673 C 7374.46 -7.64886 -2.9555 0
M  V30 48674 O 7374.07 -8.53963 -1.90717 0
M  V30 48675 C 7373.58 -6.4116 -2.90739 0
M  V30 48676 C 7374.29 -5.55375 -1.86963 0
M  V30 48677 N 7374.24 -4.09664 -2.15742 0
M  V30 48678 H 7377.08 -7.45574 -4.45629 0
M  V30 48679 H 7377.35 -5.86232 -3.67314 0
M  V30 48680 H 7376.48 -7.84412 -2.24479 0
M  V30 48681 P 7372.52 -8.7635 -1.60911 0
M  V30 48682 O 7372.3 -10.1388 -1.11561 0
M  V30 48683 O 7371.73 -8.36503 -2.79617 0
M  V30 48684 O 7372.27 -7.71806 -0.42951 0
M  V30 48685 C 7373.21 -7.67148 0.673689 0
M  V30 48686 C 7372.48 -7.33374 1.95559 0
M  V30 48687 O 7372.27 -5.88721 2.00726 0
M  V30 48688 C 7371.08 -7.92526 2.10483 0
M  V30 48689 O 7370.69 -8.02971 3.47653 0
M  V30 48690 C 7370.2 -6.89602 1.41652 0
M  V30 48691 C 7370.91 -5.59201 1.75185 0
M  V30 48692 N 7370.86 -4.58235 0.662552 0
M  V30 48693 H 7373.7 -8.65116 0.777161 0
M  V30 48694 H 7373.97 -6.90173 0.474152 0
M  V30 48695 H 7373.1 -7.66548 2.79458 0
M  V30 48696 P 7369.14 -8.03563 3.84925 0
M  V30 48697 O 7368.92 -8.85821 5.0569 0
M  V30 48698 O 7368.35 -8.41101 2.65469 0
M  V30 48699 O 7368.89 -6.4965 4.18908 0
M  V30 48700 C 7369.83 -5.81037 5.05421 0
M  V30 48701 C 7369.1 -4.78366 5.89277 0
M  V30 48702 O 7368.89 -3.58302 5.08433 0
M  V30 48703 C 7367.7 -5.17448 6.36119 0
M  V30 48704 O 7367.31 -4.45271 7.53232 0
M  V30 48705 C 7366.82 -4.74639 5.19936 0
M  V30 48706 C 7367.53 -3.49432 4.70418 0
M  V30 48707 N 7367.48 -3.31776 3.22945 0
M  V30 48708 H 7370.32 -6.54213 5.71376 0
M  V30 48709 H 7370.59 -5.30492 4.44033 0
M  V30 48710 H 7369.72 -4.55889 6.76652 0
M  V30 48711 P 7365.76 -4.23843 7.83734 0
M  V30 48712 O 7365.54 -4.19407 9.29784 0
M  V30 48713 O 7364.97 -5.24426 7.09156 0
M  V30 48714 O 7365.51 -2.7935 7.20758 0
M  V30 48715 C 7366.45 -1.72945 7.50224 0
M  V30 48716 C 7365.72 -0.406376 7.57911 0
M  V30 48717 O 7365.51 0.0897726 6.21935 0
M  V30 48718 C 7364.32 -0.438983 8.18724 0
M  V30 48719 O 7363.93 0.825065 8.71101 0
M  V30 48720 C 7363.44 -0.783689 6.99524 0
M  V30 48721 C 7364.15 -0.0619086 5.85867 0
M  V30 48722 N 7364.1 -0.78573 4.56183 0
M  V30 48723 C 7363.95 -0.0292889 3.41887 0
M  V30 48724 O 7363.86 1.18445 3.4419 0
M  V30 48725 N 7363.91 -0.744061 2.23964 0
M  V30 48726 C 7364 -2.10932 2.10362 0
M  V30 48727 C 7364.15 -2.8202 3.34994 0
M  V30 48728 C 7364.2 -2.15547 4.52261 0
M  V30 48729 H 7366.94 -1.93379 8.46595 0
M  V30 48730 H 7367.21 -1.68132 6.70852 0
M  V30 48731 H 7366.34 0.289041 8.15388 0
M  V30 48732 H 7363.68 0.926847 5.72749 0
M  V30 48733 H 7363.41 -1.86973 6.82036 0
M  V30 48734 H 7362.41 -0.403896 7.13257 0
M  V30 48735 H 7364.25 -1.20585 8.97435 0
M  V30 48736 H 7364.32 -2.71231 5.45042 0
M  V30 48737 P 7362.38 1.17771 8.83182 0
M  V30 48738 O 7362.16 2.07206 9.98732 0
M  V30 48739 O 7361.59 -0.0743816 8.81969 0
M  V30 48740 O 7362.13 1.97678 7.474 0
M  V30 48741 C 7363.07 3.01133 7.08783 0
M  V30 48742 C 7362.34 4.1203 6.37546 0
M  V30 48743 O 7362.13 3.72887 4.9796 0
M  V30 48744 C 7360.94 4.45085 6.88694 0
M  V30 48745 O 7360.55 5.78836 6.56315 0
M  V30 48746 C 7360.06 3.47817 6.12078 0
M  V30 48747 C 7360.77 3.39414 4.77697 0
M  V30 48748 N 7360.72 2.04615 4.15333 0
M  V30 48749 C 7360.57 1.96929 2.77162 0
M  V30 48750 O 7360.48 3.02017 2.12006 0
M  V30 48751 N 7360.52 0.55485 2.24237 0
M  V30 48752 C 7360.62 -0.367808 2.9169 0
M  V30 48753 N 7360.57 -1.53426 2.29427 0
M  V30 48754 C 7360.77 -0.319148 4.33828 0
M  V30 48755 C 7360.82 0.920672 4.90433 0
M  V30 48756 H 7363.56 3.41209 7.98667 0
M  V30 48757 H 7363.83 2.5837 6.41742 0
M  V30 48758 H 7362.96 5.02718 6.42752 0
M  V30 48759 H 7360.3 4.11779 4.09026 0
M  V30 48760 H 7360.02 2.49661 6.61772 0
M  V30 48761 H 7359.03 3.86674 6.00946 0
M  V30 48762 H 7360.87 4.29991 7.97006 0
M  V30 48763 H 7360.94 1.00589 5.98303 0
M  V30 48764 H 7360.84 -1.22639 4.93799 0
M  V30 48765 H 7360.45 -1.56819 1.27167 0
M  V30 48766 H 7360.65 -2.41062 2.83063 0
M  V30 48767 P 7359 6.144 6.45285 0
M  V30 48768 O 7358.78 7.54673 6.86199 0
M  V30 48769 O 7358.21 5.12391 7.179 0
M  V30 48770 O 7358.75 5.99236 4.88467 0
M  V30 48771 C 7359.69 6.60234 3.96415 0
M  V30 48772 C 7358.96 7.08079 2.736 0
M  V30 48773 O 7358.75 5.94365 1.8368 0
M  V30 48774 C 7357.56 7.64886 2.9555 0
M  V30 48775 O 7357.17 8.5406 1.90739 0
M  V30 48776 C 7356.68 6.4116 2.90739 0
M  V30 48777 C 7357.39 5.55375 1.86963 0
M  V30 48778 N 7357.34 4.09664 2.15742 0
M  V30 48779 C 7357.19 3.22231 1.08477 0
M  V30 48780 O 7357.1 3.68951 -0.0600489 0
M  V30 48781 N 7357.14 1.76692 1.48799 0
M  V30 48782 C 7357.24 1.41695 2.57602 0
M  V30 48783 N 7357.19 0.107296 2.75791 0
M  V30 48784 C 7357.39 2.29178 3.69733 0
M  V30 48785 C 7357.44 3.62753 3.42653 0
M  V30 48786 H 7360.18 7.45488 4.45578 0
M  V30 48787 H 7360.45 5.86232 3.67314 0
M  V30 48788 H 7359.58 7.84508 2.24507 0
M  V30 48789 H 7356.92 5.73556 0.888715 0
M  V30 48790 H 7356.64 5.9096 3.88638 0
M  V30 48791 H 7355.65 6.66053 2.58894 0
M  V30 48792 H 7357.49 8.16339 3.92049 0
M  V30 48793 H 7357.56 4.33052 4.24913 0
M  V30 48794 H 7357.46 1.9103 4.71577 0
M  V30 48795 H 7357.07 -0.521221 1.95056 0
M  V30 48796 H 7357.27 -0.286429 3.70695 0
M  V30 48797 P 7355.62 8.7635 1.60911 0
M  V30 48798 O 7355.4 10.1388 1.11561 0
M  V30 48799 O 7354.83 8.36503 2.79617 0
M  V30 48800 O 7355.37 7.71806 0.42951 0
M  V30 48801 C 7356.31 7.67148 -0.673689 0
M  V30 48802 C 7355.58 7.33374 -1.95559 0
M  V30 48803 O 7355.37 5.88721 -2.00726 0
M  V30 48804 C 7354.18 7.92526 -2.10483 0
M  V30 48805 O 7353.79 8.02971 -3.47653 0
M  V30 48806 C 7353.3 6.89602 -1.41652 0
M  V30 48807 C 7354.01 5.59201 -1.75185 0
M  V30 48808 N 7353.96 4.58301 -0.657969 0
M  V30 48809 C 7354.04 4.79019 0.692603 0
M  V30 48810 N 7353.97 3.69736 1.38998 0
M  V30 48811 C 7353.82 2.70474 0.438135 0
M  V30 48812 C 7353.69 1.30327 0.538142 0
M  V30 48813 N 7353.68 0.64304 1.69192 0
M  V30 48814 N 7353.57 0.611027 -0.605183 0
M  V30 48815 C 7353.58 1.27002 -1.75953 0
M  V30 48816 N 7353.7 2.56038 -1.98546 0
M  V30 48817 C 7353.82 3.22681 -0.822541 0
M  V30 48818 H 7356.8 8.65116 -0.777161 0
M  V30 48819 H 7357.07 6.9022 -0.46725 0
M  V30 48820 H 7356.2 7.66548 -2.79458 0
M  V30 48821 H 7353.54 5.16165 -2.65183 0
M  V30 48822 H 7353.26 7.06433 -0.329384 0
M  V30 48823 H 7352.27 6.90926 -1.82021 0
M  V30 48824 H 7354.11 8.90873 -1.62657 0
M  V30 48825 H 7354.15 5.77785 1.13874 0
M  V30 48826 H 7353.77 1.15585 2.57991 0
M  V30 48827 H 7353.58 -0.382989 1.69835 0
M  V30 48828 H 7353.47 0.653331 -2.64449 0
M  V30 48829 P 7352.24 8.03563 -3.84925 0
M  V30 48830 O 7352.02 8.85821 -5.0569 0
M  V30 48831 O 7351.45 8.41101 -2.65469 0
M  V30 48832 O 7351.99 6.4965 -4.18908 0
M  V30 48833 C 7352.93 5.81037 -5.05421 0
M  V30 48834 C 7352.2 4.78366 -5.89277 0
M  V30 48835 O 7351.99 3.58302 -5.08433 0
M  V30 48836 C 7350.8 5.17448 -6.36119 0
M  V30 48837 O 7350.41 4.45271 -7.53232 0
M  V30 48838 C 7349.92 4.74639 -5.19936 0
M  V30 48839 C 7350.63 3.49432 -4.70418 0
M  V30 48840 N 7350.58 3.31776 -3.22945 0
M  V30 48841 H 7353.42 6.54213 -5.71376 0
M  V30 48842 H 7353.69 5.30492 -4.44033 0
M  V30 48843 H 7352.82 4.55889 -6.76652 0
M  V30 48844 P 7348.86 4.23843 -7.83734 0
M  V30 48845 O 7348.64 4.19407 -9.29784 0
M  V30 48846 O 7348.07 5.24426 -7.09156 0
M  V30 48847 O 7348.61 2.7935 -7.20758 0
M  V30 48848 C 7349.55 1.7299 -7.50419 0
M  V30 48849 C 7348.82 0.406376 -7.57911 0
M  V30 48850 O 7348.61 -0.0897726 -6.21935 0
M  V30 48851 C 7347.42 0.447224 -8.1878 0
M  V30 48852 O 7347.03 -0.825065 -8.71101 0
M  V30 48853 C 7346.54 0.783801 -6.99623 0
M  V30 48854 C 7347.25 0.0619192 -5.85967 0
M  V30 48855 N 7347.2 0.7859 -4.56281 0
M  V30 48856 H 7350.04 1.93423 -8.4679 0
M  V30 48857 H 7350.31 1.68181 -6.71046 0
M  V30 48858 H 7349.44 -0.289041 -8.15388 0
M  V30 48859 P 7345.48 -1.17771 -8.83182 0
M  V30 48860 O 7345.26 -2.07206 -9.98732 0
M  V30 48861 O 7344.69 0.0743816 -8.81969 0
M  V30 48862 O 7345.23 -1.97652 -7.47304 0
M  V30 48863 C 7346.17 -3.01133 -7.08783 0
M  V30 48864 C 7345.44 -4.12613 -6.37049 0
M  V30 48865 O 7345.23 -3.72827 -4.97879 0
M  V30 48866 C 7344.04 -4.45085 -6.88694 0
M  V30 48867 O 7343.65 -5.7877 -6.5624 0
M  V30 48868 C 7343.16 -3.47817 -6.12078 0
M  V30 48869 C 7343.87 -3.39414 -4.77697 0
M  V30 48870 N 7343.82 -2.04615 -4.15333 0
M  V30 48871 C 7343.9 -0.803897 -4.75249 0
M  V30 48872 N 7343.82 0.197615 -3.91502 0
M  V30 48873 C 7343.68 -0.413002 -2.66823 0
M  V30 48874 C 7343.55 0.157221 -1.38007 0
M  V30 48875 N 7343.43 -0.833136 -0.390236 0
M  V30 48876 C 7343.43 -2.19402 -0.623885 0
M  V30 48877 N 7343.3 -2.97622 0.449677 0
M  V30 48878 N 7343.56 -2.73005 -1.83601 0
M  V30 48879 C 7343.68 -1.78786 -2.80935 0
M  V30 48880 H 7346.66 -3.41248 -7.98759 0
M  V30 48881 H 7346.93 -2.5837 -6.41742 0
M  V30 48882 H 7346.06 -5.02657 -6.42673 0
M  V30 48883 P 7342.1 -6.144 -6.45285 0
M  V30 48884 O 7341.88 -7.54673 -6.86199 0
M  V30 48885 O 7341.31 -5.12391 -7.179 0
M  V30 48886 O 7341.85 -5.99158 -4.88404 0
M  V30 48887 C 7342.79 -6.60234 -3.96415 0
M  V30 48888 C 7342.06 -7.08259 -2.72856 0
M  V30 48889 O 7341.85 -5.9427 -1.83651 0
M  V30 48890 C 7340.66 -7.64886 -2.9555 0
M  V30 48891 O 7340.27 -8.53963 -1.90717 0
M  V30 48892 C 7339.78 -6.4116 -2.90739 0
M  V30 48893 C 7340.49 -5.55375 -1.86963 0
M  V30 48894 N 7340.44 -4.09664 -2.15742 0
M  V30 48895 H 7343.28 -7.45574 -4.45629 0
M  V30 48896 H 7343.55 -5.86232 -3.67314 0
M  V30 48897 H 7342.68 -7.84412 -2.24479 0
M  V30 48898 P 7338.72 -8.7635 -1.60911 0
M  V30 48899 O 7338.5 -10.1388 -1.11561 0
M  V30 48900 O 7337.93 -8.36503 -2.79617 0
M  V30 48901 O 7338.47 -7.71806 -0.42951 0
M  V30 48902 C 7339.41 -7.67148 0.673689 0
M  V30 48903 C 7338.68 -7.33374 1.95559 0
M  V30 48904 O 7338.47 -5.88721 2.00726 0
M  V30 48905 C 7337.28 -7.92526 2.10483 0
M  V30 48906 O 7336.89 -8.02971 3.47653 0
M  V30 48907 C 7336.4 -6.89602 1.41652 0
M  V30 48908 C 7337.11 -5.59201 1.75185 0
M  V30 48909 N 7337.06 -4.58235 0.662552 0
M  V30 48910 H 7339.9 -8.65116 0.777161 0
M  V30 48911 H 7340.17 -6.90173 0.474152 0
M  V30 48912 H 7339.3 -7.66548 2.79458 0
M  V30 48913 P 7335.34 -8.03563 3.84925 0
M  V30 48914 O 7335.12 -8.85821 5.0569 0
M  V30 48915 O 7334.55 -8.41101 2.65469 0
M  V30 48916 O 7335.09 -6.4965 4.18908 0
M  V30 48917 C 7336.03 -5.81037 5.05421 0
M  V30 48918 C 7335.3 -4.78366 5.89277 0
M  V30 48919 O 7335.09 -3.58302 5.08433 0
M  V30 48920 C 7333.9 -5.17448 6.36119 0
M  V30 48921 O 7333.51 -4.45271 7.53232 0
M  V30 48922 C 7333.02 -4.74639 5.19936 0
M  V30 48923 C 7333.73 -3.49432 4.70418 0
M  V30 48924 N 7333.68 -3.31776 3.22945 0
M  V30 48925 H 7336.52 -6.54213 5.71376 0
M  V30 48926 H 7336.79 -5.30492 4.44033 0
M  V30 48927 H 7335.92 -4.55889 6.76652 0
M  V30 48928 P 7331.96 -4.23843 7.83734 0
M  V30 48929 O 7331.74 -4.19407 9.29784 0
M  V30 48930 O 7331.17 -5.24426 7.09156 0
M  V30 48931 O 7331.71 -2.7935 7.20758 0
M  V30 48932 C 7332.65 -1.7299 7.50419 0
M  V30 48933 C 7331.92 -0.406376 7.57911 0
M  V30 48934 O 7331.71 0.0897726 6.21935 0
M  V30 48935 C 7330.52 -0.447224 8.1878 0
M  V30 48936 O 7330.13 0.825065 8.71101 0
M  V30 48937 C 7329.64 -0.783801 6.99623 0
M  V30 48938 C 7330.35 -0.0619192 5.85967 0
M  V30 48939 N 7330.3 -0.790462 4.56202 0
M  V30 48940 H 7333.14 -1.93423 8.4679 0
M  V30 48941 H 7333.41 -1.68852 6.70877 0
M  V30 48942 H 7332.54 0.289041 8.15388 0
M  V30 48943 H 7329.88 0.927006 5.72848 0
M  V30 48944 H 7329.6 -1.86973 6.82036 0
M  V30 48945 H 7328.61 -0.403953 7.13357 0
M  V30 48946 H 7330.45 -1.20599 8.97534 0
M  V30 48947 P 7328.58 1.17771 8.83182 0
M  V30 48948 O 7328.36 2.07206 9.98732 0
M  V30 48949 O 7327.79 -0.0743816 8.81969 0
M  V30 48950 O 7328.33 1.97652 7.47304 0
M  V30 48951 C 7329.27 3.01133 7.08783 0
M  V30 48952 C 7328.54 4.12613 6.37049 0
M  V30 48953 O 7328.33 3.72827 4.97879 0
M  V30 48954 C 7327.14 4.45085 6.88694 0
M  V30 48955 O 7326.75 5.7877 6.5624 0
M  V30 48956 C 7326.26 3.47817 6.12078 0
M  V30 48957 C 7326.97 3.39414 4.77697 0
M  V30 48958 N 7326.92 2.04615 4.15333 0
M  V30 48959 H 7329.76 3.41248 7.98759 0
M  V30 48960 H 7330.03 2.5837 6.41742 0
M  V30 48961 H 7329.16 5.02657 6.42673 0
M  V30 48962 P 7325.2 6.144 6.45285 0
M  V30 48963 O 7324.98 7.54673 6.86199 0
M  V30 48964 O 7324.41 5.12391 7.179 0
M  V30 48965 O 7324.95 5.99158 4.88404 0
M  V30 48966 C 7325.89 6.60234 3.96415 0
M  V30 48967 C 7325.16 7.08259 2.72856 0
M  V30 48968 O 7324.95 5.9427 1.83651 0
M  V30 48969 C 7323.76 7.64886 2.9555 0
M  V30 48970 O 7323.37 8.53963 1.90717 0
M  V30 48971 C 7322.88 6.4116 2.90739 0
M  V30 48972 C 7323.59 5.55375 1.86963 0
M  V30 48973 N 7323.54 4.09664 2.15742 0
M  V30 48974 H 7326.38 7.45574 4.45629 0
M  V30 48975 H 7326.65 5.86232 3.67314 0
M  V30 48976 H 7325.78 7.84412 2.24479 0
M  V30 48977 P 7321.82 8.7635 1.60911 0
M  V30 48978 O 7321.6 10.1388 1.11561 0
M  V30 48979 O 7321.03 8.36503 2.79617 0
M  V30 48980 O 7321.57 7.71806 0.42951 0
M  V30 48981 C 7322.51 7.67148 -0.673689 0
M  V30 48982 C 7321.78 7.33374 -1.95559 0
M  V30 48983 O 7321.57 5.88721 -2.00726 0
M  V30 48984 C 7320.38 7.92526 -2.10483 0
M  V30 48985 O 7319.99 8.02971 -3.47653 0
M  V30 48986 C 7319.5 6.89602 -1.41652 0
M  V30 48987 C 7320.21 5.59201 -1.75185 0
M  V30 48988 N 7320.16 4.58301 -0.657969 0
M  V30 48989 H 7323 8.65116 -0.777161 0
M  V30 48990 H 7323.27 6.9022 -0.46725 0
M  V30 48991 H 7322.4 7.66548 -2.79458 0
M  V30 48992 H 7319.74 5.16165 -2.65183 0
M  V30 48993 H 7319.46 7.06433 -0.329384 0
M  V30 48994 H 7318.47 6.90926 -1.82021 0
M  V30 48995 H 7320.31 8.90873 -1.62657 0
M  V30 48996 P 7318.44 8.03563 -3.84925 0
M  V30 48997 O 7318.22 8.85821 -5.0569 0
M  V30 48998 O 7317.65 8.41101 -2.65469 0
M  V30 48999 O 7318.19 6.4965 -4.18908 0
M  V30 49000 C 7319.13 5.81037 -5.05421 0
M  V30 49001 C 7318.4 4.78366 -5.89277 0
M  V30 49002 O 7318.19 3.58302 -5.08433 0
M  V30 49003 C 7317 5.17448 -6.36119 0
M  V30 49004 O 7316.61 4.45271 -7.53232 0
M  V30 49005 C 7316.12 4.74639 -5.19936 0
M  V30 49006 C 7316.83 3.49432 -4.70418 0
M  V30 49007 N 7316.78 3.31776 -3.22945 0
M  V30 49008 H 7319.62 6.54213 -5.71376 0
M  V30 49009 H 7319.89 5.30492 -4.44033 0
M  V30 49010 H 7319.02 4.55889 -6.76652 0
M  V30 49011 P 7315.06 4.23843 -7.83734 0
M  V30 49012 O 7314.84 4.19407 -9.29784 0
M  V30 49013 O 7314.27 5.24426 -7.09156 0
M  V30 49014 O 7314.81 2.7935 -7.20758 0
M  V30 49015 C 7315.75 1.72945 -7.50224 0
M  V30 49016 C 7315.02 0.406376 -7.57911 0
M  V30 49017 O 7314.81 -0.0897726 -6.21935 0
M  V30 49018 C 7313.62 0.438983 -8.18724 0
M  V30 49019 O 7313.23 -0.825065 -8.71101 0
M  V30 49020 C 7312.74 0.783689 -6.99524 0
M  V30 49021 C 7313.45 0.0619086 -5.85867 0
M  V30 49022 N 7313.4 0.78573 -4.56183 0
M  V30 49023 C 7313.25 0.0292889 -3.41887 0
M  V30 49024 O 7313.16 -1.18445 -3.4419 0
M  V30 49025 N 7313.21 0.744061 -2.23964 0
M  V30 49026 C 7313.3 2.10932 -2.10362 0
M  V30 49027 O 7313.25 2.64117 -0.98825 0
M  V30 49028 C 7313.45 2.8202 -3.34994 0
M  V30 49029 C 7313.56 4.31095 -3.25037 0
M  V30 49030 C 7313.5 2.15547 -4.52261 0
M  V30 49031 H 7316.24 1.93379 -8.46595 0
M  V30 49032 H 7316.51 1.68132 -6.70852 0
M  V30 49033 H 7315.64 -0.289041 -8.15388 0
M  V30 49034 H 7312.98 -0.926847 -5.72749 0
M  V30 49035 H 7312.71 1.86973 -6.82036 0
M  V30 49036 H 7311.71 0.403896 -7.13257 0
M  V30 49037 H 7313.55 1.20585 -8.97435 0
M  V30 49038 H 7313.62 2.71231 -5.45042 0
M  V30 49039 H 7312.59 4.76966 -3.49992 0
M  V30 49040 H 7314.33 4.67047 -3.95024 0
M  V30 49041 H 7313.84 4.58996 -2.22312 0
M  V30 49042 H 7313.1 0.214893 -1.39758 0
M  V30 49043 P 7311.68 -1.17771 -8.83182 0
M  V30 49044 O 7311.46 -2.07206 -9.98732 0
M  V30 49045 O 7310.89 0.0743816 -8.81969 0
M  V30 49046 O 7311.43 -1.97652 -7.47304 0
M  V30 49047 C 7312.37 -3.01133 -7.08783 0
M  V30 49048 C 7311.64 -4.12613 -6.37049 0
M  V30 49049 O 7311.43 -3.72827 -4.97879 0
M  V30 49050 C 7310.24 -4.45085 -6.88694 0
M  V30 49051 O 7309.85 -5.7877 -6.5624 0
M  V30 49052 C 7309.36 -3.47817 -6.12078 0
M  V30 49053 C 7310.07 -3.39414 -4.77697 0
M  V30 49054 N 7310.02 -2.04615 -4.15333 0
M  V30 49055 H 7312.86 -3.41248 -7.98759 0
M  V30 49056 H 7313.13 -2.5837 -6.41742 0
M  V30 49057 H 7312.26 -5.02657 -6.42673 0
M  V30 49058 P 7308.3 -6.144 -6.45285 0
M  V30 49059 O 7308.08 -7.54673 -6.86199 0
M  V30 49060 O 7307.51 -5.12391 -7.179 0
M  V30 49061 O 7308.05 -5.99158 -4.88404 0
M  V30 49062 C 7308.99 -6.60234 -3.96415 0
M  V30 49063 C 7308.26 -7.08259 -2.72856 0
M  V30 49064 O 7308.05 -5.9427 -1.83651 0
M  V30 49065 C 7306.86 -7.64886 -2.9555 0
M  V30 49066 O 7306.47 -8.53963 -1.90717 0
M  V30 49067 C 7305.98 -6.4116 -2.90739 0
M  V30 49068 C 7306.69 -5.55375 -1.86963 0
M  V30 49069 N 7306.64 -4.09664 -2.15742 0
M  V30 49070 C 7306.72 -3.44381 -3.37233 0
M  V30 49071 N 7306.64 -2.14131 -3.28347 0
M  V30 49072 C 7306.5 -1.90247 -1.91588 0
M  V30 49073 C 7306.37 -0.683992 -1.20892 0
M  V30 49074 N 7306.25 -0.903396 0.173998 0
M  V30 49075 C 7306.25 -2.14171 0.784879 0
M  V30 49076 N 7306.12 -2.1435 2.11317 0
M  V30 49077 N 7306.38 -3.28784 0.119316 0
M  V30 49078 C 7306.5 -3.0977 -1.22194 0
M  V30 49079 H 7309.48 -7.45574 -4.45629 0
M  V30 49080 H 7309.75 -5.86232 -3.67314 0
M  V30 49081 H 7308.88 -7.84412 -2.24479 0
M  V30 49082 P 7304.92 -8.7635 -1.60911 0
M  V30 49083 O 7304.7 -10.1388 -1.11561 0
M  V30 49084 O 7304.13 -8.36503 -2.79617 0
M  V30 49085 O 7304.67 -7.71806 -0.42951 0
M  V30 49086 C 7305.61 -7.67148 0.673689 0
M  V30 49087 C 7304.88 -7.33374 1.95559 0
M  V30 49088 O 7304.67 -5.88721 2.00726 0
M  V30 49089 C 7303.48 -7.92526 2.10483 0
M  V30 49090 O 7303.09 -8.02971 3.47653 0
M  V30 49091 C 7302.6 -6.89602 1.41652 0
M  V30 49092 C 7303.31 -5.59201 1.75185 0
M  V30 49093 N 7303.26 -4.58235 0.662552 0
M  V30 49094 H 7306.1 -8.65116 0.777161 0
M  V30 49095 H 7306.37 -6.90173 0.474152 0
M  V30 49096 H 7305.5 -7.66548 2.79458 0
M  V30 49097 P 7301.54 -8.03563 3.84925 0
M  V30 49098 O 7301.32 -8.85821 5.0569 0
M  V30 49099 O 7300.75 -8.41101 2.65469 0
M  V30 49100 O 7301.29 -6.4965 4.18908 0
M  V30 49101 C 7302.23 -5.81037 5.05421 0
M  V30 49102 C 7301.5 -4.78366 5.89277 0
M  V30 49103 O 7301.29 -3.58302 5.08433 0
M  V30 49104 C 7300.1 -5.17448 6.36119 0
M  V30 49105 O 7299.71 -4.45271 7.53232 0
M  V30 49106 C 7299.22 -4.74639 5.19936 0
M  V30 49107 C 7299.93 -3.49432 4.70418 0
M  V30 49108 N 7299.88 -3.31776 3.22945 0
M  V30 49109 H 7302.72 -6.54213 5.71376 0
M  V30 49110 H 7302.99 -5.30492 4.44033 0
M  V30 49111 H 7302.12 -4.55889 6.76652 0
M  V30 49112 P 7298.16 -4.23843 7.83734 0
M  V30 49113 O 7297.94 -4.19407 9.29784 0
M  V30 49114 O 7297.37 -5.24426 7.09156 0
M  V30 49115 O 7297.91 -2.7935 7.20758 0
M  V30 49116 C 7298.85 -1.7299 7.50419 0
M  V30 49117 C 7298.12 -0.406376 7.57911 0
M  V30 49118 O 7297.91 0.0897726 6.21935 0
M  V30 49119 C 7296.72 -0.447224 8.1878 0
M  V30 49120 O 7296.33 0.825065 8.71101 0
M  V30 49121 C 7295.84 -0.783801 6.99623 0
M  V30 49122 C 7296.55 -0.0619192 5.85967 0
M  V30 49123 N 7296.5 -0.7859 4.56281 0
M  V30 49124 H 7299.34 -1.93423 8.4679 0
M  V30 49125 H 7299.61 -1.68181 6.71046 0
M  V30 49126 H 7298.74 0.289041 8.15388 0
M  V30 49127 P 7294.78 1.17771 8.83182 0
M  V30 49128 O 7294.56 2.07206 9.98732 0
M  V30 49129 O 7293.99 -0.0743816 8.81969 0
M  V30 49130 O 7294.53 1.97678 7.474 0
M  V30 49131 C 7295.47 3.01133 7.08783 0
M  V30 49132 C 7294.74 4.1203 6.37546 0
M  V30 49133 O 7294.53 3.72887 4.9796 0
M  V30 49134 C 7293.34 4.45085 6.88694 0
M  V30 49135 O 7292.95 5.78836 6.56315 0
M  V30 49136 C 7292.46 3.47817 6.12078 0
M  V30 49137 C 7293.17 3.39414 4.77697 0
M  V30 49138 N 7293.12 2.04615 4.15333 0
M  V30 49139 C 7292.97 1.96929 2.77162 0
M  V30 49140 O 7292.88 3.02017 2.12006 0
M  V30 49141 N 7292.92 0.55485 2.24237 0
M  V30 49142 C 7293.02 -0.367808 2.9169 0
M  V30 49143 N 7292.97 -1.53426 2.29427 0
M  V30 49144 C 7293.17 -0.319148 4.33828 0
M  V30 49145 C 7293.22 0.920672 4.90433 0
M  V30 49146 H 7295.96 3.41209 7.98667 0
M  V30 49147 H 7296.23 2.5837 6.41742 0
M  V30 49148 H 7295.36 5.02718 6.42752 0
M  V30 49149 H 7292.7 4.11779 4.09026 0
M  V30 49150 H 7292.42 2.49661 6.61772 0
M  V30 49151 H 7291.43 3.86674 6.00946 0
M  V30 49152 H 7293.27 4.29991 7.97006 0
M  V30 49153 H 7293.34 1.00589 5.98303 0
M  V30 49154 H 7293.24 -1.22639 4.93799 0
M  V30 49155 H 7292.85 -1.56819 1.27167 0
M  V30 49156 H 7293.05 -2.41062 2.83063 0
M  V30 49157 P 7291.4 6.144 6.45285 0
M  V30 49158 O 7291.18 7.54673 6.86199 0
M  V30 49159 O 7290.61 5.12391 7.179 0
M  V30 49160 O 7291.15 5.99158 4.88404 0
M  V30 49161 C 7292.09 6.60234 3.96415 0
M  V30 49162 C 7291.36 7.08259 2.72856 0
M  V30 49163 O 7291.15 5.9427 1.83651 0
M  V30 49164 C 7289.96 7.64886 2.9555 0
M  V30 49165 O 7289.57 8.53963 1.90717 0
M  V30 49166 C 7289.08 6.4116 2.90739 0
M  V30 49167 C 7289.79 5.55375 1.86963 0
M  V30 49168 N 7289.74 4.09664 2.15742 0
M  V30 49169 H 7292.58 7.45574 4.45629 0
M  V30 49170 H 7292.85 5.86232 3.67314 0
M  V30 49171 H 7291.98 7.84412 2.24479 0
M  V30 49172 P 7288.02 8.7635 1.60911 0
M  V30 49173 O 7287.8 10.1388 1.11561 0
M  V30 49174 O 7287.23 8.36503 2.79617 0
M  V30 49175 O 7287.77 7.71806 0.42951 0
M  V30 49176 C 7288.71 7.67148 -0.673689 0
M  V30 49177 C 7287.98 7.33374 -1.95559 0
M  V30 49178 O 7287.77 5.88721 -2.00726 0
M  V30 49179 C 7286.58 7.92526 -2.10483 0
M  V30 49180 O 7286.19 8.02971 -3.47653 0
M  V30 49181 C 7285.7 6.89602 -1.41652 0
M  V30 49182 C 7286.41 5.59201 -1.75185 0
M  V30 49183 N 7286.36 4.58301 -0.657969 0
M  V30 49184 C 7286.44 4.79019 0.692603 0
M  V30 49185 N 7286.37 3.69736 1.38998 0
M  V30 49186 C 7286.22 2.70474 0.438135 0
M  V30 49187 C 7286.09 1.30327 0.538142 0
M  V30 49188 N 7286.08 0.64304 1.69192 0
M  V30 49189 N 7285.97 0.611027 -0.605183 0
M  V30 49190 C 7285.98 1.27002 -1.75953 0
M  V30 49191 N 7286.1 2.56038 -1.98546 0
M  V30 49192 C 7286.22 3.22681 -0.822541 0
M  V30 49193 H 7289.2 8.65116 -0.777161 0
M  V30 49194 H 7289.47 6.9022 -0.46725 0
M  V30 49195 H 7288.6 7.66548 -2.79458 0
M  V30 49196 H 7285.94 5.16165 -2.65183 0
M  V30 49197 H 7285.66 7.06433 -0.329384 0
M  V30 49198 H 7284.67 6.90926 -1.82021 0
M  V30 49199 H 7286.51 8.90873 -1.62657 0
M  V30 49200 H 7286.55 5.77785 1.13874 0
M  V30 49201 H 7286.17 1.15585 2.57991 0
M  V30 49202 H 7285.98 -0.382989 1.69835 0
M  V30 49203 H 7285.87 0.653331 -2.64449 0
M  V30 49204 P 7284.64 8.03563 -3.84925 0
M  V30 49205 O 7284.42 8.85821 -5.0569 0
M  V30 49206 O 7283.85 8.41101 -2.65469 0
M  V30 49207 O 7284.39 6.4965 -4.18908 0
M  V30 49208 C 7285.33 5.81037 -5.05421 0
M  V30 49209 C 7284.6 4.78366 -5.89277 0
M  V30 49210 O 7284.39 3.58302 -5.08433 0
M  V30 49211 C 7283.2 5.17448 -6.36119 0
M  V30 49212 O 7282.81 4.45271 -7.53232 0
M  V30 49213 C 7282.32 4.74639 -5.19936 0
M  V30 49214 C 7283.03 3.49432 -4.70418 0
M  V30 49215 N 7282.98 3.31776 -3.22945 0
M  V30 49216 H 7285.82 6.54213 -5.71376 0
M  V30 49217 H 7286.09 5.30492 -4.44033 0
M  V30 49218 H 7285.22 4.55889 -6.76652 0
M  V30 49219 P 7281.26 4.23843 -7.83734 0
M  V30 49220 O 7281.04 4.19407 -9.29784 0
M  V30 49221 O 7280.47 5.24426 -7.09156 0
M  V30 49222 O 7281.01 2.7935 -7.20758 0
M  V30 49223 C 7281.95 1.7299 -7.50419 0
M  V30 49224 C 7281.22 0.406376 -7.57911 0
M  V30 49225 O 7281.01 -0.0897726 -6.21935 0
M  V30 49226 C 7279.82 0.447224 -8.1878 0
M  V30 49227 O 7279.43 -0.825065 -8.71101 0
M  V30 49228 C 7278.94 0.783801 -6.99623 0
M  V30 49229 C 7279.65 0.0619192 -5.85967 0
M  V30 49230 N 7279.6 0.7859 -4.56281 0
M  V30 49231 H 7282.44 1.93423 -8.4679 0
M  V30 49232 H 7282.71 1.68181 -6.71046 0
M  V30 49233 H 7281.84 -0.289041 -8.15388 0
M  V30 49234 P 7277.88 -1.17771 -8.83182 0
M  V30 49235 O 7277.66 -2.07206 -9.98732 0
M  V30 49236 O 7277.09 0.0743816 -8.81969 0
M  V30 49237 O 7277.63 -1.97652 -7.47304 0
M  V30 49238 C 7278.57 -3.01133 -7.08783 0
M  V30 49239 C 7277.84 -4.12613 -6.37049 0
M  V30 49240 O 7277.63 -3.72827 -4.97879 0
M  V30 49241 C 7276.44 -4.45085 -6.88694 0
M  V30 49242 O 7276.05 -5.7877 -6.5624 0
M  V30 49243 C 7275.56 -3.47817 -6.12078 0
M  V30 49244 C 7276.27 -3.39414 -4.77697 0
M  V30 49245 N 7276.22 -2.04615 -4.15333 0
M  V30 49246 H 7279.06 -3.41248 -7.98759 0
M  V30 49247 H 7279.33 -2.5837 -6.41742 0
M  V30 49248 H 7278.46 -5.02657 -6.42673 0
M  V30 49249 P 7274.5 -6.144 -6.45285 0
M  V30 49250 O 7274.28 -7.54673 -6.86199 0
M  V30 49251 O 7273.71 -5.12391 -7.179 0
M  V30 49252 O 7274.25 -5.99158 -4.88404 0
M  V30 49253 C 7275.19 -6.60234 -3.96415 0
M  V30 49254 C 7274.46 -7.08259 -2.72856 0
M  V30 49255 O 7274.25 -5.9427 -1.83651 0
M  V30 49256 C 7273.06 -7.64886 -2.9555 0
M  V30 49257 O 7272.67 -8.53963 -1.90717 0
M  V30 49258 C 7272.18 -6.4116 -2.90739 0
M  V30 49259 C 7272.89 -5.55375 -1.86963 0
M  V30 49260 N 7272.84 -4.09664 -2.15742 0
M  V30 49261 H 7275.68 -7.45574 -4.45629 0
M  V30 49262 H 7275.95 -5.86232 -3.67314 0
M  V30 49263 H 7275.08 -7.84412 -2.24479 0
M  V30 49264 P 7271.12 -8.7635 -1.60911 0
M  V30 49265 O 7270.9 -10.1388 -1.11561 0
M  V30 49266 O 7270.33 -8.36503 -2.79617 0
M  V30 49267 O 7270.87 -7.71806 -0.42951 0
M  V30 49268 C 7271.81 -7.67148 0.673689 0
M  V30 49269 C 7271.08 -7.33374 1.95559 0
M  V30 49270 O 7270.87 -5.88721 2.00726 0
M  V30 49271 C 7269.68 -7.92526 2.10483 0
M  V30 49272 O 7269.29 -8.02971 3.47653 0
M  V30 49273 C 7268.8 -6.89602 1.41652 0
M  V30 49274 C 7269.51 -5.59201 1.75185 0
M  V30 49275 N 7269.46 -4.58235 0.662552 0
M  V30 49276 H 7272.3 -8.65116 0.777161 0
M  V30 49277 H 7272.57 -6.90173 0.474152 0
M  V30 49278 H 7271.7 -7.66548 2.79458 0
M  V30 49279 P 7267.74 -8.03563 3.84925 0
M  V30 49280 O 7267.52 -8.85821 5.0569 0
M  V30 49281 O 7266.95 -8.41101 2.65469 0
M  V30 49282 O 7267.49 -6.4965 4.18908 0
M  V30 49283 C 7268.43 -5.81037 5.05421 0
M  V30 49284 C 7267.7 -4.78366 5.89277 0
M  V30 49285 O 7267.49 -3.58302 5.08433 0
M  V30 49286 C 7266.3 -5.17448 6.36119 0
M  V30 49287 O 7265.91 -4.45271 7.53232 0
M  V30 49288 C 7265.42 -4.74639 5.19936 0
M  V30 49289 C 7266.13 -3.49432 4.70418 0
M  V30 49290 N 7266.08 -3.31776 3.22945 0
M  V30 49291 H 7268.92 -6.54213 5.71376 0
M  V30 49292 H 7269.19 -5.30492 4.44033 0
M  V30 49293 H 7268.32 -4.55889 6.76652 0
M  V30 49294 P 7264.36 -4.23843 7.83734 0
M  V30 49295 O 7264.14 -4.19407 9.29784 0
M  V30 49296 O 7263.57 -5.24426 7.09156 0
M  V30 49297 O 7264.11 -2.7935 7.20758 0
M  V30 49298 C 7265.05 -1.7299 7.50419 0
M  V30 49299 C 7264.32 -0.406376 7.57911 0
M  V30 49300 O 7264.11 0.0897726 6.21935 0
M  V30 49301 C 7262.92 -0.447224 8.1878 0
M  V30 49302 O 7262.53 0.825065 8.71101 0
M  V30 49303 C 7262.04 -0.783801 6.99623 0
M  V30 49304 C 7262.75 -0.0619192 5.85967 0
M  V30 49305 N 7262.7 -0.7859 4.56281 0
M  V30 49306 H 7265.54 -1.93423 8.4679 0
M  V30 49307 H 7265.81 -1.68181 6.71046 0
M  V30 49308 H 7264.94 0.289041 8.15388 0
M  V30 49309 P 7260.98 1.17771 8.83182 0
M  V30 49310 O 7260.76 2.07206 9.98732 0
M  V30 49311 O 7260.19 -0.0743816 8.81969 0
M  V30 49312 O 7260.73 1.97678 7.474 0
M  V30 49313 C 7261.67 3.01133 7.08783 0
M  V30 49314 C 7260.94 4.1203 6.37546 0
M  V30 49315 O 7260.73 3.72887 4.9796 0
M  V30 49316 C 7259.54 4.45085 6.88694 0
M  V30 49317 O 7259.15 5.78836 6.56315 0
M  V30 49318 C 7258.66 3.47817 6.12078 0
M  V30 49319 C 7259.37 3.39414 4.77697 0
M  V30 49320 N 7259.32 2.04615 4.15333 0
M  V30 49321 C 7259.17 1.96929 2.77162 0
M  V30 49322 O 7259.08 3.02017 2.12006 0
M  V30 49323 N 7259.12 0.55485 2.24237 0
M  V30 49324 C 7259.22 -0.367808 2.9169 0
M  V30 49325 N 7259.17 -1.53426 2.29427 0
M  V30 49326 C 7259.37 -0.319148 4.33828 0
M  V30 49327 C 7259.42 0.920672 4.90433 0
M  V30 49328 H 7262.16 3.41209 7.98667 0
M  V30 49329 H 7262.43 2.5837 6.41742 0
M  V30 49330 H 7261.56 5.02718 6.42752 0
M  V30 49331 H 7258.91 4.11779 4.09026 0
M  V30 49332 H 7258.63 2.49661 6.61772 0
M  V30 49333 H 7257.63 3.86674 6.00946 0
M  V30 49334 H 7259.47 4.29991 7.97006 0
M  V30 49335 H 7259.54 1.00589 5.98303 0
M  V30 49336 H 7259.44 -1.22639 4.93799 0
M  V30 49337 H 7259.05 -1.56819 1.27167 0
M  V30 49338 H 7259.25 -2.41062 2.83063 0
M  V30 49339 P 7257.6 6.144 6.45285 0
M  V30 49340 O 7257.38 7.54673 6.86199 0
M  V30 49341 O 7256.81 5.12391 7.179 0
M  V30 49342 O 7257.35 5.99158 4.88404 0
M  V30 49343 C 7258.29 6.60234 3.96415 0
M  V30 49344 C 7257.56 7.08259 2.72856 0
M  V30 49345 O 7257.35 5.9427 1.83651 0
M  V30 49346 C 7256.16 7.64886 2.9555 0
M  V30 49347 O 7255.77 8.53963 1.90717 0
M  V30 49348 C 7255.28 6.4116 2.90739 0
M  V30 49349 C 7255.99 5.55375 1.86963 0
M  V30 49350 N 7255.94 4.09664 2.15742 0
M  V30 49351 H 7258.78 7.45574 4.45629 0
M  V30 49352 H 7259.05 5.86232 3.67314 0
M  V30 49353 H 7258.18 7.84412 2.24479 0
M  V30 49354 P 7254.22 8.7635 1.60911 0
M  V30 49355 O 7254 10.1388 1.11561 0
M  V30 49356 O 7253.43 8.36503 2.79617 0
M  V30 49357 O 7253.97 7.71806 0.42951 0
M  V30 49358 C 7254.91 7.67148 -0.673689 0
M  V30 49359 C 7254.18 7.33374 -1.95559 0
M  V30 49360 O 7253.97 5.88721 -2.00726 0
M  V30 49361 C 7252.78 7.92526 -2.10483 0
M  V30 49362 O 7252.39 8.02971 -3.47653 0
M  V30 49363 C 7251.9 6.89602 -1.41652 0
M  V30 49364 C 7252.61 5.59201 -1.75185 0
M  V30 49365 N 7252.56 4.58301 -0.657969 0
M  V30 49366 H 7255.4 8.65116 -0.777161 0
M  V30 49367 H 7255.67 6.9022 -0.46725 0
M  V30 49368 H 7254.8 7.66548 -2.79458 0
M  V30 49369 H 7252.15 5.16165 -2.65183 0
M  V30 49370 H 7251.87 7.06433 -0.329384 0
M  V30 49371 H 7250.87 6.90926 -1.82021 0
M  V30 49372 H 7252.71 8.90873 -1.62657 0
M  V30 49373 P 7250.84 8.03563 -3.84925 0
M  V30 49374 O 7250.62 8.85821 -5.0569 0
M  V30 49375 O 7250.05 8.41101 -2.65469 0
M  V30 49376 O 7250.59 6.4965 -4.18908 0
M  V30 49377 C 7251.53 5.81037 -5.05421 0
M  V30 49378 C 7250.8 4.78366 -5.89277 0
M  V30 49379 O 7250.59 3.58302 -5.08433 0
M  V30 49380 C 7249.4 5.17448 -6.36119 0
M  V30 49381 O 7249.01 4.45271 -7.53232 0
M  V30 49382 C 7248.52 4.74639 -5.19936 0
M  V30 49383 C 7249.23 3.49432 -4.70418 0
M  V30 49384 N 7249.18 3.31776 -3.22945 0
M  V30 49385 H 7252.02 6.54213 -5.71376 0
M  V30 49386 H 7252.29 5.30492 -4.44033 0
M  V30 49387 H 7251.42 4.55889 -6.76652 0
M  V30 49388 P 7247.46 4.23843 -7.83734 0
M  V30 49389 O 7247.24 4.19407 -9.29784 0
M  V30 49390 O 7246.67 5.24426 -7.09156 0
M  V30 49391 O 7247.21 2.7935 -7.20758 0
M  V30 49392 C 7248.15 1.7299 -7.50419 0
M  V30 49393 C 7247.42 0.406376 -7.57911 0
M  V30 49394 O 7247.21 -0.0897726 -6.21935 0
M  V30 49395 C 7246.02 0.447224 -8.1878 0
M  V30 49396 O 7245.63 -0.825065 -8.71101 0
M  V30 49397 C 7245.14 0.783801 -6.99623 0
M  V30 49398 C 7245.85 0.0619192 -5.85967 0
M  V30 49399 N 7245.8 0.7859 -4.56281 0
M  V30 49400 H 7248.64 1.93423 -8.4679 0
M  V30 49401 H 7248.91 1.68181 -6.71046 0
M  V30 49402 H 7248.04 -0.289041 -8.15388 0
M  V30 49403 P 7244.08 -1.17771 -8.83182 0
M  V30 49404 O 7243.86 -2.07206 -9.98732 0
M  V30 49405 O 7243.29 0.0743816 -8.81969 0
M  V30 49406 O 7243.83 -1.97652 -7.47304 0
M  V30 49407 C 7244.77 -3.01133 -7.08783 0
M  V30 49408 C 7244.04 -4.12613 -6.37049 0
M  V30 49409 O 7243.83 -3.72827 -4.97879 0
M  V30 49410 C 7242.64 -4.45085 -6.88694 0
M  V30 49411 O 7242.25 -5.7877 -6.5624 0
M  V30 49412 C 7241.76 -3.47817 -6.12078 0
M  V30 49413 C 7242.47 -3.39414 -4.77697 0
M  V30 49414 N 7242.42 -2.04199 -4.15538 0
M  V30 49415 H 7245.26 -3.41248 -7.98759 0
M  V30 49416 H 7245.53 -2.57728 -6.42 0
M  V30 49417 H 7244.66 -5.02657 -6.42673 0
M  V30 49418 H 7242.01 -4.11708 -4.08956 0
M  V30 49419 H 7241.73 -2.49626 -6.61679 0
M  V30 49420 H 7240.73 -3.8662 -6.00862 0
M  V30 49421 H 7242.57 -4.29991 -7.97006 0
M  V30 49422 P 7240.7 -6.144 -6.45285 0
M  V30 49423 O 7240.48 -7.54673 -6.86199 0
M  V30 49424 O 7239.91 -5.12391 -7.179 0
M  V30 49425 O 7240.45 -5.99158 -4.88404 0
M  V30 49426 C 7241.39 -6.60234 -3.96415 0
M  V30 49427 C 7240.66 -7.08259 -2.72856 0
M  V30 49428 O 7240.45 -5.9427 -1.83651 0
M  V30 49429 C 7239.26 -7.64886 -2.9555 0
M  V30 49430 O 7238.87 -8.53963 -1.90717 0
M  V30 49431 C 7238.38 -6.4116 -2.90739 0
M  V30 49432 C 7239.09 -5.55375 -1.86963 0
M  V30 49433 N 7239.04 -4.09448 -2.16152 0
M  V30 49434 H 7241.88 -7.45574 -4.45629 0
M  V30 49435 H 7242.15 -5.85864 -3.679 0
M  V30 49436 H 7241.28 -7.84412 -2.24479 0
M  V30 49437 H 7238.63 -5.73457 -0.888562 0
M  V30 49438 H 7238.35 -5.90877 -3.88583 0
M  V30 49439 H 7237.35 -6.6596 -2.58858 0
M  V30 49440 H 7239.19 -8.16339 -3.92049 0
M  V30 49441 P 7237.32 -8.7635 -1.60911 0
M  V30 49442 O 7237.1 -10.1388 -1.11561 0
M  V30 49443 O 7236.53 -8.36503 -2.79617 0
M  V30 49444 O 7237.07 -7.71806 -0.42951 0
M  V30 49445 C 7238.01 -7.67148 0.673689 0
M  V30 49446 C 7237.28 -7.33374 1.95559 0
M  V30 49447 O 7237.07 -5.88721 2.00726 0
M  V30 49448 C 7235.88 -7.92526 2.10483 0
M  V30 49449 O 7235.49 -8.02971 3.47653 0
M  V30 49450 C 7235 -6.89602 1.41652 0
M  V30 49451 C 7235.71 -5.59201 1.75185 0
M  V30 49452 N 7235.66 -4.58235 0.662552 0
M  V30 49453 H 7238.5 -8.65116 0.777161 0
M  V30 49454 H 7238.77 -6.90173 0.474152 0
M  V30 49455 H 7237.9 -7.66548 2.79458 0
M  V30 49456 P 7233.94 -8.03563 3.84925 0
M  V30 49457 O 7233.72 -8.85821 5.0569 0
M  V30 49458 O 7233.15 -8.41101 2.65469 0
M  V30 49459 O 7233.69 -6.4965 4.18908 0
M  V30 49460 C 7234.63 -5.81037 5.05421 0
M  V30 49461 C 7233.9 -4.78366 5.89277 0
M  V30 49462 O 7233.69 -3.58302 5.08433 0
M  V30 49463 C 7232.5 -5.17448 6.36119 0
M  V30 49464 O 7232.11 -4.45271 7.53232 0
M  V30 49465 C 7231.62 -4.74639 5.19936 0
M  V30 49466 C 7232.33 -3.49432 4.70418 0
M  V30 49467 N 7232.28 -3.32099 3.22613 0
M  V30 49468 C 7232.36 -4.28245 2.25527 0
M  V30 49469 N 7232.29 -3.80823 1.04874 0
M  V30 49470 C 7232.14 -2.44571 1.23535 0
M  V30 49471 C 7232.01 -1.37068 0.330675 0
M  V30 49472 N 7232 -1.51472 -0.990824 0
M  V30 49473 N 7231.89 -0.138614 0.848756 0
M  V30 49474 C 7231.9 0.00675923 2.16999 0
M  V30 49475 N 7232.02 -0.904372 3.11122 0
M  V30 49476 C 7232.14 -2.12707 2.56212 0
M  V30 49477 H 7235.12 -6.54213 5.71376 0
M  V30 49478 H 7235.39 -5.30936 4.43503 0
M  V30 49479 H 7234.52 -4.55889 6.76652 0
M  V30 49480 H 7231.87 -2.61715 5.17932 0
M  V30 49481 H 7231.59 -5.52155 4.41878 0
M  V30 49482 H 7230.59 -4.51981 5.53374 0
M  V30 49483 H 7232.43 -6.25124 6.55234 0
M  V30 49484 H 7232.47 -5.34372 2.47488 0
M  V30 49485 H 7232.09 -2.45153 -1.4078 0
M  V30 49486 H 7231.9 -0.688422 -1.59911 0
M  V30 49487 H 7231.79 1.02584 2.52346 0
M  V30 49488 P 7230.56 -4.23843 7.83734 0
M  V30 49489 O 7230.34 -4.19407 9.29784 0
M  V30 49490 O 7229.77 -5.24426 7.09156 0
M  V30 49491 O 7230.31 -2.7935 7.20758 0
M  V30 49492 C 7231.25 -1.7299 7.50419 0
M  V30 49493 C 7230.52 -0.406376 7.57911 0
M  V30 49494 O 7230.31 0.0897726 6.21935 0
M  V30 49495 C 7229.12 -0.447224 8.1878 0
M  V30 49496 O 7228.73 0.825065 8.71101 0
M  V30 49497 C 7228.24 -0.783801 6.99623 0
M  V30 49498 C 7228.95 -0.0619192 5.85967 0
M  V30 49499 N 7228.9 -0.790462 4.56202 0
M  V30 49500 C 7228.98 -2.13895 4.34171 0
M  V30 49501 N 7228.91 -2.46449 3.08687 0
M  V30 49502 C 7228.76 -1.2525 2.43697 0
M  V30 49503 C 7228.63 -0.914535 1.07318 0
M  V30 49504 N 7228.62 -1.80782 0.0887348 0
M  V30 49505 N 7228.51 0.386745 0.768133 0
M  V30 49506 C 7228.52 1.28096 1.75159 0
M  V30 49507 N 7228.64 1.09708 3.04861 0
M  V30 49508 C 7228.76 -0.214857 3.32306 0
M  V30 49509 H 7231.74 -1.93423 8.4679 0
M  V30 49510 H 7232.01 -1.68852 6.70877 0
M  V30 49511 H 7231.14 0.289041 8.15388 0
M  V30 49512 H 7228.49 0.927006 5.72848 0
M  V30 49513 H 7228.21 -1.86973 6.82036 0
M  V30 49514 H 7227.21 -0.403953 7.13357 0
M  V30 49515 H 7229.05 -1.20599 8.97534 0
M  V30 49516 H 7229.09 -2.86846 5.14318 0
M  V30 49517 H 7228.71 -2.81082 0.302037 0
M  V30 49518 H 7228.52 -1.49688 -0.889064 0
M  V30 49519 H 7228.41 2.31317 1.43855 0
M  V30 49520 P 7227.18 1.17771 8.83182 0
M  V30 49521 O 7226.96 2.07206 9.98732 0
M  V30 49522 O 7226.39 -0.0743816 8.81969 0
M  V30 49523 O 7226.93 1.97652 7.47304 0
M  V30 49524 C 7227.87 3.01133 7.08783 0
M  V30 49525 C 7227.14 4.12613 6.37049 0
M  V30 49526 O 7226.93 3.72827 4.97879 0
M  V30 49527 C 7225.74 4.45085 6.88694 0
M  V30 49528 O 7225.35 5.7877 6.5624 0
M  V30 49529 C 7224.86 3.47817 6.12078 0
M  V30 49530 C 7225.57 3.39414 4.77697 0
M  V30 49531 N 7225.52 2.04615 4.15333 0
M  V30 49532 H 7228.36 3.41248 7.98759 0
M  V30 49533 H 7228.63 2.5837 6.41742 0
M  V30 49534 H 7227.76 5.02657 6.42673 0
M  V30 49535 P 7223.8 6.144 6.45285 0
M  V30 49536 O 7223.58 7.54673 6.86199 0
M  V30 49537 O 7223.01 5.12391 7.179 0
M  V30 49538 O 7223.55 5.99158 4.88404 0
M  V30 49539 C 7224.49 6.60234 3.96415 0
M  V30 49540 C 7223.76 7.08259 2.72856 0
M  V30 49541 O 7223.55 5.9427 1.83651 0
M  V30 49542 C 7222.36 7.64886 2.9555 0
M  V30 49543 O 7221.97 8.53963 1.90717 0
M  V30 49544 C 7221.48 6.4116 2.90739 0
M  V30 49545 C 7222.19 5.55375 1.86963 0
M  V30 49546 N 7222.14 4.09664 2.15742 0
M  V30 49547 H 7224.98 7.45574 4.45629 0
M  V30 49548 H 7225.25 5.86232 3.67314 0
M  V30 49549 H 7224.38 7.84412 2.24479 0
M  V30 49550 P 7220.42 8.7635 1.60911 0
M  V30 49551 O 7220.2 10.1388 1.11561 0
M  V30 49552 O 7219.63 8.36503 2.79617 0
M  V30 49553 O 7220.17 7.71906 0.429565 0
M  V30 49554 C 7221.11 7.67148 -0.673689 0
M  V30 49555 C 7220.38 7.33666 -1.94851 0
M  V30 49556 O 7220.17 5.88816 -2.00759 0
M  V30 49557 C 7218.98 7.92526 -2.10483 0
M  V30 49558 O 7218.59 8.03063 -3.47693 0
M  V30 49559 C 7218.1 6.89602 -1.41652 0
M  V30 49560 C 7218.81 5.59201 -1.75185 0
M  V30 49561 N 7218.76 4.58235 -0.662552 0
M  V30 49562 C 7218.61 3.24451 -1.01643 0
M  V30 49563 O 7218.52 2.94958 -2.21722 0
M  V30 49564 N 7218.56 2.30408 0.165238 0
M  V30 49565 C 7218.66 2.66048 1.25118 0
M  V30 49566 N 7218.61 1.70787 2.16813 0
M  V30 49567 C 7218.81 4.02732 1.64413 0
M  V30 49568 C 7218.86 4.9488 0.63991 0
M  V30 49569 H 7221.6 8.65017 -0.777072 0
M  V30 49570 H 7221.87 6.90173 -0.474152 0
M  V30 49571 H 7221 7.66642 -2.79492 0
M  V30 49572 H 7218.35 5.16254 -2.65229 0
M  V30 49573 H 7218.07 7.06532 -0.329431 0
M  V30 49574 H 7217.07 6.91023 -1.82047 0
M  V30 49575 H 7218.91 8.90873 -1.62657 0
M  V30 49576 H 7218.98 6.00104 0.892197 0
M  V30 49577 H 7218.88 4.31733 2.69229 0
M  V30 49578 H 7218.49 0.724835 1.8844 0
M  V30 49579 H 7218.69 1.94716 3.16734 0
M  V30 49580 P 7217.04 8.03563 -3.84925 0
M  V30 49581 O 7216.82 8.85821 -5.0569 0
M  V30 49582 O 7216.25 8.41101 -2.65469 0
M  V30 49583 O 7216.79 6.4965 -4.18908 0
M  V30 49584 C 7217.73 5.81037 -5.05421 0
M  V30 49585 C 7217 4.78366 -5.89277 0
M  V30 49586 O 7216.79 3.58302 -5.08433 0
M  V30 49587 C 7215.6 5.17448 -6.36119 0
M  V30 49588 O 7215.21 4.45271 -7.53232 0
M  V30 49589 C 7214.72 4.74639 -5.19936 0
M  V30 49590 C 7215.43 3.49432 -4.70418 0
M  V30 49591 N 7215.38 3.32099 -3.22613 0
M  V30 49592 H 7218.22 6.54213 -5.71376 0
M  V30 49593 H 7218.49 5.30936 -4.43503 0
M  V30 49594 H 7217.62 4.55889 -6.76652 0
M  V30 49595 H 7214.97 2.61715 -5.17932 0
M  V30 49596 H 7214.69 5.52155 -4.41878 0
M  V30 49597 H 7213.69 4.51981 -5.53374 0
M  V30 49598 H 7215.53 6.25124 -6.55234 0
M  V30 49599 P 7213.66 4.23843 -7.83734 0
M  V30 49600 O 7213.44 4.19407 -9.29784 0
M  V30 49601 O 7212.87 5.24426 -7.09156 0
M  V30 49602 O 7213.41 2.7935 -7.20758 0
M  V30 49603 C 7214.35 1.7299 -7.50419 0
M  V30 49604 C 7213.62 0.406376 -7.57911 0
M  V30 49605 O 7213.41 -0.0897726 -6.21935 0
M  V30 49606 C 7212.22 0.447224 -8.1878 0
M  V30 49607 O 7211.83 -0.825065 -8.71101 0
M  V30 49608 C 7211.34 0.783801 -6.99623 0
M  V30 49609 C 7212.05 0.0619192 -5.85967 0
M  V30 49610 N 7212 0.7859 -4.56281 0
M  V30 49611 H 7214.84 1.93423 -8.4679 0
M  V30 49612 H 7215.11 1.68181 -6.71046 0
M  V30 49613 H 7214.24 -0.289041 -8.15388 0
M  V30 49614 P 7210.28 -1.17771 -8.83182 0
M  V30 49615 O 7210.06 -2.07206 -9.98732 0
M  V30 49616 O 7209.49 0.0743816 -8.81969 0
M  V30 49617 O 7210.03 -1.97652 -7.47304 0
M  V30 49618 C 7210.97 -3.01133 -7.08783 0
M  V30 49619 C 7210.24 -4.12613 -6.37049 0
M  V30 49620 O 7210.03 -3.72827 -4.97879 0
M  V30 49621 C 7208.84 -4.45085 -6.88694 0
M  V30 49622 O 7208.45 -5.7877 -6.5624 0
M  V30 49623 C 7207.96 -3.47817 -6.12078 0
M  V30 49624 C 7208.67 -3.39414 -4.77697 0
M  V30 49625 N 7208.62 -2.04615 -4.15333 0
M  V30 49626 H 7211.46 -3.41248 -7.98759 0
M  V30 49627 H 7211.73 -2.5837 -6.41742 0
M  V30 49628 H 7210.86 -5.02657 -6.42673 0
M  V30 49629 P 7206.9 -6.144 -6.45285 0
M  V30 49630 O 7206.68 -7.54673 -6.86199 0
M  V30 49631 O 7206.11 -5.12391 -7.179 0
M  V30 49632 O 7206.65 -5.99158 -4.88404 0
M  V30 49633 C 7207.59 -6.60234 -3.96415 0
M  V30 49634 C 7206.86 -7.08259 -2.72856 0
M  V30 49635 O 7206.65 -5.9427 -1.83651 0
M  V30 49636 C 7205.46 -7.64886 -2.9555 0
M  V30 49637 O 7205.07 -8.53963 -1.90717 0
M  V30 49638 C 7204.58 -6.4116 -2.90739 0
M  V30 49639 C 7205.29 -5.55375 -1.86963 0
M  V30 49640 N 7205.24 -4.09448 -2.16152 0
M  V30 49641 H 7208.08 -7.45574 -4.45629 0
M  V30 49642 H 7208.35 -5.85864 -3.679 0
M  V30 49643 H 7207.48 -7.84412 -2.24479 0
M  V30 49644 H 7204.83 -5.73457 -0.888562 0
M  V30 49645 H 7204.55 -5.90877 -3.88583 0
M  V30 49646 H 7203.55 -6.6596 -2.58858 0
M  V30 49647 H 7205.39 -8.16339 -3.92049 0
M  V30 49648 P 7203.52 -8.7635 -1.60911 0
M  V30 49649 O 7203.3 -10.1388 -1.11561 0
M  V30 49650 O 7202.73 -8.36503 -2.79617 0
M  V30 49651 O 7203.27 -7.71806 -0.42951 0
M  V30 49652 C 7204.21 -7.67148 0.673689 0
M  V30 49653 C 7203.48 -7.33374 1.95559 0
M  V30 49654 O 7203.27 -5.88721 2.00726 0
M  V30 49655 C 7202.08 -7.92526 2.10483 0
M  V30 49656 O 7201.69 -8.02971 3.47653 0
M  V30 49657 C 7201.2 -6.89602 1.41652 0
M  V30 49658 C 7201.91 -5.59201 1.75185 0
M  V30 49659 N 7201.86 -4.58235 0.662552 0
M  V30 49660 H 7204.7 -8.65116 0.777161 0
M  V30 49661 H 7204.97 -6.90173 0.474152 0
M  V30 49662 H 7204.1 -7.66548 2.79458 0
M  V30 49663 P 7200.14 -8.03563 3.84925 0
M  V30 49664 O 7199.92 -8.85821 5.0569 0
M  V30 49665 O 7199.35 -8.41101 2.65469 0
M  V30 49666 O 7199.89 -6.4965 4.18908 0
M  V30 49667 C 7200.83 -5.81037 5.05421 0
M  V30 49668 C 7200.1 -4.78366 5.89277 0
M  V30 49669 O 7199.89 -3.58302 5.08433 0
M  V30 49670 C 7198.7 -5.17448 6.36119 0
M  V30 49671 O 7198.31 -4.45271 7.53232 0
M  V30 49672 C 7197.82 -4.74639 5.19936 0
M  V30 49673 C 7198.53 -3.49432 4.70418 0
M  V30 49674 N 7198.48 -3.31776 3.22945 0
M  V30 49675 H 7201.32 -6.54213 5.71376 0
M  V30 49676 H 7201.59 -5.30492 4.44033 0
M  V30 49677 H 7200.72 -4.55889 6.76652 0
M  V30 49678 P 7196.76 -4.23843 7.83734 0
M  V30 49679 O 7196.54 -4.19407 9.29784 0
M  V30 49680 O 7195.97 -5.24426 7.09156 0
M  V30 49681 O 7196.51 -2.7935 7.20758 0
M  V30 49682 C 7197.45 -1.72945 7.50224 0
M  V30 49683 C 7196.72 -0.406376 7.57911 0
M  V30 49684 O 7196.51 0.0897726 6.21935 0
M  V30 49685 C 7195.32 -0.438983 8.18724 0
M  V30 49686 O 7194.93 0.825065 8.71101 0
M  V30 49687 C 7194.44 -0.783689 6.99524 0
M  V30 49688 C 7195.15 -0.0619086 5.85867 0
M  V30 49689 N 7195.1 -0.78573 4.56183 0
M  V30 49690 C 7194.95 -0.0292889 3.41887 0
M  V30 49691 O 7194.86 1.18445 3.4419 0
M  V30 49692 N 7194.91 -0.744061 2.23964 0
M  V30 49693 C 7195 -2.10932 2.10362 0
M  V30 49694 O 7194.95 -2.64117 0.98825 0
M  V30 49695 C 7195.15 -2.8202 3.34994 0
M  V30 49696 C 7195.26 -4.31095 3.25037 0
M  V30 49697 C 7195.2 -2.15547 4.52261 0
M  V30 49698 H 7197.94 -1.93379 8.46595 0
M  V30 49699 H 7198.21 -1.68132 6.70852 0
M  V30 49700 H 7197.34 0.289041 8.15388 0
M  V30 49701 H 7194.69 0.926847 5.72749 0
M  V30 49702 H 7194.41 -1.86973 6.82036 0
M  V30 49703 H 7193.41 -0.403896 7.13257 0
M  V30 49704 H 7195.25 -1.20585 8.97435 0
M  V30 49705 H 7195.32 -2.71231 5.45042 0
M  V30 49706 H 7194.29 -4.76966 3.49992 0
M  V30 49707 H 7196.03 -4.67047 3.95024 0
M  V30 49708 H 7195.54 -4.58996 2.22312 0
M  V30 49709 H 7194.8 -0.214893 1.39758 0
M  V30 49710 P 7193.38 1.17771 8.83182 0
M  V30 49711 O 7193.16 2.07206 9.98732 0
M  V30 49712 O 7192.59 -0.0743816 8.81969 0
M  V30 49713 O 7193.13 1.97652 7.47304 0
M  V30 49714 C 7194.07 3.01133 7.08783 0
M  V30 49715 C 7193.34 4.12613 6.37049 0
M  V30 49716 O 7193.13 3.72827 4.97879 0
M  V30 49717 C 7191.94 4.45085 6.88694 0
M  V30 49718 O 7191.55 5.7877 6.5624 0
M  V30 49719 C 7191.06 3.47817 6.12078 0
M  V30 49720 C 7191.77 3.39414 4.77697 0
M  V30 49721 N 7191.72 2.04615 4.15333 0
M  V30 49722 H 7194.56 3.41248 7.98759 0
M  V30 49723 H 7194.83 2.5837 6.41742 0
M  V30 49724 H 7193.96 5.02657 6.42673 0
M  V30 49725 P 7190 6.144 6.45285 0
M  V30 49726 O 7189.78 7.54673 6.86199 0
M  V30 49727 O 7189.21 5.12391 7.179 0
M  V30 49728 O 7189.75 5.99158 4.88404 0
M  V30 49729 C 7190.69 6.60234 3.96415 0
M  V30 49730 C 7189.96 7.08259 2.72856 0
M  V30 49731 O 7189.75 5.9427 1.83651 0
M  V30 49732 C 7188.56 7.64886 2.9555 0
M  V30 49733 O 7188.17 8.53963 1.90717 0
M  V30 49734 C 7187.68 6.4116 2.90739 0
M  V30 49735 C 7188.39 5.55375 1.86963 0
M  V30 49736 N 7188.34 4.09664 2.15742 0
M  V30 49737 H 7191.18 7.45574 4.45629 0
M  V30 49738 H 7191.45 5.86232 3.67314 0
M  V30 49739 H 7190.58 7.84412 2.24479 0
M  V30 49740 P 7186.62 8.7635 1.60911 0
M  V30 49741 O 7186.4 10.1388 1.11561 0
M  V30 49742 O 7185.83 8.36503 2.79617 0
M  V30 49743 O 7186.37 7.71806 0.42951 0
M  V30 49744 C 7187.31 7.66948 -0.673514 0
M  V30 49745 C 7186.58 7.33374 -1.95559 0
M  V30 49746 O 7186.37 5.88721 -2.00726 0
M  V30 49747 C 7185.18 7.92218 -2.1125 0
M  V30 49748 O 7184.79 8.02971 -3.47653 0
M  V30 49749 C 7184.3 6.89504 -1.41631 0
M  V30 49750 C 7185.01 5.59106 -1.75155 0
M  V30 49751 N 7184.96 4.58136 -0.662409 0
M  V30 49752 C 7184.81 3.26059 -1.02863 0
M  V30 49753 O 7184.72 2.90743 -2.19009 0
M  V30 49754 N 7184.77 2.35995 0.0155585 0
M  V30 49755 C 7184.86 2.65248 1.35603 0
M  V30 49756 C 7185.01 4.05747 1.64698 0
M  V30 49757 C 7185.06 4.96734 0.652411 0
M  V30 49758 H 7187.8 8.64917 -0.776982 0
M  V30 49759 H 7188.07 6.89974 -0.474015 0
M  V30 49760 H 7187.2 7.66548 -2.79458 0
M  V30 49761 H 7184.55 5.16076 -2.65138 0
M  V30 49762 H 7184.27 7.06433 -0.329384 0
M  V30 49763 H 7183.27 6.90829 -1.81996 0
M  V30 49764 H 7185.11 8.90774 -1.62639 0
M  V30 49765 H 7185.18 6.02181 0.895285 0
M  V30 49766 P 7183.24 8.03563 -3.84925 0
M  V30 49767 O 7183.02 8.85821 -5.0569 0
M  V30 49768 O 7182.45 8.41101 -2.65469 0
M  V30 49769 O 7182.99 6.4965 -4.18908 0
M  V30 49770 C 7183.93 5.81037 -5.05421 0
M  V30 49771 C 7183.2 4.78366 -5.89277 0
M  V30 49772 O 7182.99 3.58302 -5.08433 0
M  V30 49773 C 7181.8 5.17448 -6.36119 0
M  V30 49774 O 7181.41 4.45271 -7.53232 0
M  V30 49775 C 7180.92 4.74639 -5.19936 0
M  V30 49776 C 7181.63 3.49432 -4.70418 0
M  V30 49777 N 7181.58 3.31776 -3.22945 0
M  V30 49778 H 7184.42 6.54213 -5.71376 0
M  V30 49779 H 7184.69 5.30492 -4.44033 0
M  V30 49780 H 7183.82 4.55889 -6.76652 0
M  V30 49781 P 7179.86 4.23843 -7.83734 0
M  V30 49782 O 7179.64 4.19407 -9.29784 0
M  V30 49783 O 7179.07 5.24426 -7.09156 0
M  V30 49784 O 7179.61 2.7935 -7.20758 0
M  V30 49785 C 7180.55 1.7299 -7.50419 0
M  V30 49786 C 7179.82 0.406376 -7.57911 0
M  V30 49787 O 7179.61 -0.0897726 -6.21935 0
M  V30 49788 C 7178.42 0.447224 -8.1878 0
M  V30 49789 O 7178.03 -0.825065 -8.71101 0
M  V30 49790 C 7177.54 0.783801 -6.99623 0
M  V30 49791 C 7178.25 0.0619192 -5.85967 0
M  V30 49792 N 7178.2 0.7859 -4.56281 0
M  V30 49793 H 7181.04 1.93423 -8.4679 0
M  V30 49794 H 7181.31 1.68181 -6.71046 0
M  V30 49795 H 7180.44 -0.289041 -8.15388 0
M  V30 49796 P 7176.48 -1.17771 -8.83182 0
M  V30 49797 O 7176.26 -2.07206 -9.98732 0
M  V30 49798 O 7175.69 0.0743816 -8.81969 0
M  V30 49799 O 7176.23 -1.97652 -7.47304 0
M  V30 49800 C 7177.17 -3.01133 -7.08783 0
M  V30 49801 C 7176.44 -4.12613 -6.37049 0
M  V30 49802 O 7176.23 -3.72827 -4.97879 0
M  V30 49803 C 7175.04 -4.45085 -6.88694 0
M  V30 49804 O 7174.65 -5.7877 -6.5624 0
M  V30 49805 C 7174.16 -3.47817 -6.12078 0
M  V30 49806 C 7174.87 -3.39414 -4.77697 0
M  V30 49807 N 7174.82 -2.04615 -4.15333 0
M  V30 49808 H 7177.66 -3.41248 -7.98759 0
M  V30 49809 H 7177.93 -2.5837 -6.41742 0
M  V30 49810 H 7177.06 -5.02657 -6.42673 0
M  V30 49811 P 7173.1 -6.144 -6.45285 0
M  V30 49812 O 7172.88 -7.54673 -6.86199 0
M  V30 49813 O 7172.31 -5.12391 -7.179 0
M  V30 49814 O 7172.85 -5.99158 -4.88404 0
M  V30 49815 C 7173.79 -6.60234 -3.96415 0
M  V30 49816 C 7173.06 -7.08259 -2.72856 0
M  V30 49817 O 7172.85 -5.9427 -1.83651 0
M  V30 49818 C 7171.66 -7.64886 -2.9555 0
M  V30 49819 O 7171.27 -8.53963 -1.90717 0
M  V30 49820 C 7170.78 -6.4116 -2.90739 0
M  V30 49821 C 7171.49 -5.55375 -1.86963 0
M  V30 49822 N 7171.44 -4.09664 -2.15742 0
M  V30 49823 H 7174.28 -7.45574 -4.45629 0
M  V30 49824 H 7174.55 -5.86232 -3.67314 0
M  V30 49825 H 7173.68 -7.84412 -2.24479 0
M  V30 49826 P 7169.72 -8.7635 -1.60911 0
M  V30 49827 O 7169.5 -10.1388 -1.11561 0
M  V30 49828 O 7168.93 -8.36503 -2.79617 0
M  V30 49829 O 7169.47 -7.71906 -0.429565 0
M  V30 49830 C 7170.41 -7.67148 0.673689 0
M  V30 49831 C 7169.68 -7.33666 1.94851 0
M  V30 49832 O 7169.47 -5.88816 2.00759 0
M  V30 49833 C 7168.28 -7.92526 2.10483 0
M  V30 49834 O 7167.89 -8.03063 3.47693 0
M  V30 49835 C 7167.4 -6.89602 1.41652 0
M  V30 49836 C 7168.11 -5.59201 1.75185 0
M  V30 49837 N 7168.06 -4.58235 0.662552 0
M  V30 49838 C 7167.91 -3.24451 1.01643 0
M  V30 49839 O 7167.82 -2.94958 2.21722 0
M  V30 49840 N 7167.86 -2.30408 -0.165238 0
M  V30 49841 C 7167.96 -2.66048 -1.25118 0
M  V30 49842 N 7167.91 -1.70787 -2.16813 0
M  V30 49843 C 7168.11 -4.02732 -1.64413 0
M  V30 49844 C 7168.16 -4.9488 -0.63991 0
M  V30 49845 H 7170.9 -8.65017 0.777072 0
M  V30 49846 H 7171.17 -6.90173 0.474152 0
M  V30 49847 H 7170.3 -7.66642 2.79492 0
M  V30 49848 H 7167.65 -5.16254 2.65229 0
M  V30 49849 H 7167.37 -7.06532 0.329431 0
M  V30 49850 H 7166.37 -6.91023 1.82047 0
M  V30 49851 H 7168.21 -8.90873 1.62657 0
M  V30 49852 H 7168.28 -6.00104 -0.892197 0
M  V30 49853 H 7168.18 -4.31733 -2.69229 0
M  V30 49854 H 7167.79 -0.724835 -1.8844 0
M  V30 49855 H 7167.99 -1.94716 -3.16734 0
M  V30 49856 P 7166.34 -8.03563 3.84925 0
M  V30 49857 O 7166.12 -8.85821 5.0569 0
M  V30 49858 O 7165.55 -8.41101 2.65469 0
M  V30 49859 O 7166.09 -6.4965 4.18908 0
M  V30 49860 C 7167.03 -5.81037 5.05421 0
M  V30 49861 C 7166.3 -4.78366 5.89277 0
M  V30 49862 O 7166.09 -3.58302 5.08433 0
M  V30 49863 C 7164.9 -5.17448 6.36119 0
M  V30 49864 O 7164.51 -4.45271 7.53232 0
M  V30 49865 C 7164.02 -4.74639 5.19936 0
M  V30 49866 C 7164.73 -3.49432 4.70418 0
M  V30 49867 N 7164.68 -3.31776 3.22945 0
M  V30 49868 H 7167.52 -6.54213 5.71376 0
M  V30 49869 H 7167.79 -5.30492 4.44033 0
M  V30 49870 H 7166.92 -4.55889 6.76652 0
M  V30 49871 P 7162.96 -4.23843 7.83734 0
M  V30 49872 O 7162.74 -4.19407 9.29784 0
M  V30 49873 O 7162.17 -5.24426 7.09156 0
M  V30 49874 O 7162.71 -2.79386 7.20852 0
M  V30 49875 C 7163.65 -1.7299 7.50419 0
M  V30 49876 C 7162.92 -0.41401 7.5797 0
M  V30 49877 O 7162.71 0.089787 6.22035 0
M  V30 49878 C 7161.52 -0.447224 8.1878 0
M  V30 49879 O 7161.13 0.825159 8.71201 0
M  V30 49880 C 7160.64 -0.783801 6.99623 0
M  V30 49881 C 7161.35 -0.0619192 5.85967 0
M  V30 49882 N 7161.3 -0.7859 4.56281 0
M  V30 49883 C 7161.15 -0.0359258 3.39981 0
M  V30 49884 O 7161.06 1.19723 3.49038 0
M  V30 49885 N 7161.1 -0.869151 2.14025 0
M  V30 49886 C 7161.2 -2.01207 2.14363 0
M  V30 49887 N 7161.15 -2.58978 0.954287 0
M  V30 49888 C 7161.35 -2.80817 3.32215 0
M  V30 49889 C 7161.4 -2.13785 4.50884 0
M  V30 49890 H 7164.14 -1.93401 8.46693 0
M  V30 49891 H 7164.41 -1.68181 6.71046 0
M  V30 49892 H 7163.54 0.289076 8.15488 0
M  V30 49893 H 7160.89 0.927166 5.72947 0
M  V30 49894 H 7160.61 -1.87 6.82132 0
M  V30 49895 H 7159.61 -0.404009 7.13457 0
M  V30 49896 H 7161.45 -1.20599 8.97534 0
M  V30 49897 H 7161.52 -2.70295 5.43162 0
M  V30 49898 H 7161.42 -3.89465 3.27406 0
M  V30 49899 H 7161.03 -2.01616 0.107046 0
M  V30 49900 H 7161.23 -3.61403 0.873101 0
M  V30 49901 P 7159.58 1.17771 8.83182 0
M  V30 49902 O 7159.36 2.07206 9.98732 0
M  V30 49903 O 7158.79 -0.0743816 8.81969 0
M  V30 49904 O 7159.33 1.97652 7.47304 0
M  V30 49905 C 7160.27 3.01055 7.08599 0
M  V30 49906 C 7159.54 4.12613 6.37049 0
M  V30 49907 O 7159.33 3.72827 4.97879 0
M  V30 49908 C 7158.14 4.45719 6.88164 0
M  V30 49909 O 7157.75 5.7877 6.5624 0
M  V30 49910 C 7157.26 3.47768 6.11991 0
M  V30 49911 C 7157.97 3.39356 4.77615 0
M  V30 49912 N 7157.92 2.04571 4.15244 0
M  V30 49913 C 7157.77 1.98587 2.78314 0
M  V30 49914 O 7157.68 2.98134 2.08835 0
M  V30 49915 N 7157.73 0.714467 2.24925 0
M  V30 49916 C 7157.82 -0.470001 2.94169 0
M  V30 49917 C 7157.97 -0.312541 4.36783 0
M  V30 49918 C 7158.02 0.914512 4.92583 0
M  V30 49919 H 7160.76 3.41169 7.98575 0
M  V30 49920 H 7161.03 2.58295 6.41556 0
M  V30 49921 H 7160.16 5.02657 6.42673 0
M  V30 49922 H 7157.51 4.11637 4.08885 0
M  V30 49923 H 7157.23 2.49626 6.61679 0
M  V30 49924 H 7156.23 3.86566 6.00778 0
M  V30 49925 H 7158.07 4.29943 7.96918 0
M  V30 49926 H 7158.14 1.00937 6.00374 0
M  V30 49927 P 7156.2 6.144 6.45285 0
M  V30 49928 O 7155.98 7.54673 6.86199 0
M  V30 49929 O 7155.41 5.12391 7.179 0
M  V30 49930 O 7155.95 5.99158 4.88404 0
M  V30 49931 C 7156.89 6.60234 3.96415 0
M  V30 49932 C 7156.16 7.08259 2.72856 0
M  V30 49933 O 7155.95 5.9427 1.83651 0
M  V30 49934 C 7154.76 7.64886 2.9555 0
M  V30 49935 O 7154.37 8.53963 1.90717 0
M  V30 49936 C 7153.88 6.4116 2.90739 0
M  V30 49937 C 7154.59 5.55375 1.86963 0
M  V30 49938 N 7154.54 4.09448 2.16152 0
M  V30 49939 H 7157.38 7.45574 4.45629 0
M  V30 49940 H 7157.65 5.85864 3.679 0
M  V30 49941 H 7156.78 7.84412 2.24479 0
M  V30 49942 H 7154.13 5.73457 0.888562 0
M  V30 49943 H 7153.85 5.90877 3.88583 0
M  V30 49944 H 7152.85 6.6596 2.58858 0
M  V30 49945 H 7154.69 8.16339 3.92049 0
M  V30 49946 P 7152.82 8.7635 1.60911 0
M  V30 49947 O 7152.6 10.1388 1.11561 0
M  V30 49948 O 7152.03 8.36503 2.79617 0
M  V30 49949 O 7152.57 7.71806 0.42951 0
M  V30 49950 C 7153.51 7.66948 -0.673514 0
M  V30 49951 C 7152.78 7.33374 -1.95559 0
M  V30 49952 O 7152.57 5.88721 -2.00726 0
M  V30 49953 C 7151.38 7.92218 -2.1125 0
M  V30 49954 O 7150.99 8.02971 -3.47653 0
M  V30 49955 C 7150.5 6.89504 -1.41631 0
M  V30 49956 C 7151.21 5.59106 -1.75155 0
M  V30 49957 N 7151.16 4.58136 -0.662409 0
M  V30 49958 C 7151.01 3.26059 -1.02863 0
M  V30 49959 O 7150.92 2.90743 -2.19009 0
M  V30 49960 N 7150.97 2.35995 0.0155585 0
M  V30 49961 C 7151.06 2.65248 1.35603 0
M  V30 49962 C 7151.21 4.05747 1.64698 0
M  V30 49963 C 7151.26 4.96734 0.652411 0
M  V30 49964 H 7154 8.64917 -0.776982 0
M  V30 49965 H 7154.27 6.89974 -0.474015 0
M  V30 49966 H 7153.4 7.66548 -2.79458 0
M  V30 49967 H 7150.75 5.16076 -2.65138 0
M  V30 49968 H 7150.47 7.06433 -0.329384 0
M  V30 49969 H 7149.47 6.90829 -1.81996 0
M  V30 49970 H 7151.31 8.90774 -1.62639 0
M  V30 49971 H 7151.38 6.02181 0.895285 0
M  V30 49972 P 7149.44 8.03563 -3.84925 0
M  V30 49973 O 7149.22 8.85821 -5.0569 0
M  V30 49974 O 7148.65 8.41101 -2.65469 0
M  V30 49975 O 7149.19 6.4965 -4.18908 0
M  V30 49976 C 7150.13 5.81037 -5.05421 0
M  V30 49977 C 7149.4 4.78366 -5.89277 0
M  V30 49978 O 7149.19 3.58302 -5.08433 0
M  V30 49979 C 7148 5.17448 -6.36119 0
M  V30 49980 O 7147.61 4.45271 -7.53232 0
M  V30 49981 C 7147.12 4.74639 -5.19936 0
M  V30 49982 C 7147.83 3.49432 -4.70418 0
M  V30 49983 N 7147.78 3.31776 -3.22945 0
M  V30 49984 C 7147.86 4.27147 -2.23315 0
M  V30 49985 N 7147.78 3.78447 -1.02186 0
M  V30 49986 C 7147.64 2.41001 -1.21732 0
M  V30 49987 C 7147.51 1.36111 -0.27694 0
M  V30 49988 N 7147.39 0.113683 -0.912949 0
M  V30 49989 C 7147.39 -0.0846396 -2.27943 0
M  V30 49990 N 7147.26 -1.34737 -2.6916 0
M  V30 49991 N 7147.52 0.902521 -3.16379 0
M  V30 49992 C 7147.64 2.11937 -2.56849 0
M  V30 49993 H 7150.62 6.54213 -5.71376 0
M  V30 49994 H 7150.89 5.30492 -4.44033 0
M  V30 49995 H 7150.02 4.55889 -6.76652 0
M  V30 49996 P 7146.06 4.23843 -7.83734 0
M  V30 49997 O 7145.84 4.19407 -9.29784 0
M  V30 49998 O 7145.27 5.24426 -7.09156 0
M  V30 49999 O 7145.81 2.7935 -7.20758 0
M  V30 50000 C 7146.75 1.7299 -7.50419 0
M  V30 50001 C 7146.02 0.406376 -7.57911 0
M  V30 50002 O 7145.81 -0.0897726 -6.21935 0
M  V30 50003 C 7144.62 0.447224 -8.1878 0
M  V30 50004 O 7144.23 -0.825065 -8.71101 0
M  V30 50005 C 7143.74 0.783801 -6.99623 0
M  V30 50006 C 7144.45 0.0619192 -5.85967 0
M  V30 50007 N 7144.4 0.7859 -4.56281 0
M  V30 50008 C 7144.48 2.14308 -4.31736 0
M  V30 50009 N 7144.4 2.46106 -3.05116 0
M  V30 50010 C 7144.26 1.23422 -2.4014 0
M  V30 50011 C 7144.13 0.938381 -1.02409 0
M  V30 50012 N 7144.01 -0.444647 -0.805413 0
M  V30 50013 C 7144.01 -1.40829 -1.79435 0
M  V30 50014 N 7143.88 -2.67213 -1.38558 0
M  V30 50015 N 7144.14 -1.12947 -3.09005 0
M  V30 50016 C 7144.26 0.204887 -3.32369 0
M  V30 50017 H 7147.24 1.93423 -8.4679 0
M  V30 50018 H 7147.51 1.68181 -6.71046 0
M  V30 50019 H 7146.64 -0.289041 -8.15388 0
M  V30 50020 P 7142.68 -1.17771 -8.83182 0
M  V30 50021 O 7142.46 -2.07206 -9.98732 0
M  V30 50022 O 7141.89 0.0743816 -8.81969 0
M  V30 50023 O 7142.43 -1.97652 -7.47304 0
M  V30 50024 C 7143.37 -3.01133 -7.08783 0
M  V30 50025 C 7142.64 -4.12613 -6.37049 0
M  V30 50026 O 7142.43 -3.72827 -4.97879 0
M  V30 50027 C 7141.24 -4.45085 -6.88694 0
M  V30 50028 O 7140.85 -5.7877 -6.5624 0
M  V30 50029 C 7140.36 -3.47817 -6.12078 0
M  V30 50030 C 7141.07 -3.39414 -4.77697 0
M  V30 50031 N 7141.02 -2.04199 -4.15538 0
M  V30 50032 H 7143.86 -3.41248 -7.98759 0
M  V30 50033 H 7144.13 -2.57728 -6.42 0
M  V30 50034 H 7143.26 -5.02657 -6.42673 0
M  V30 50035 H 7140.61 -4.11708 -4.08956 0
M  V30 50036 H 7140.33 -2.49626 -6.61679 0
M  V30 50037 H 7139.33 -3.8662 -6.00862 0
M  V30 50038 H 7141.17 -4.29991 -7.97006 0
M  V30 50039 P 7139.3 -6.144 -6.45285 0
M  V30 50040 O 7139.08 -7.54673 -6.86199 0
M  V30 50041 O 7138.51 -5.12391 -7.179 0
M  V30 50042 O 7139.05 -5.99158 -4.88404 0
M  V30 50043 C 7139.99 -6.60234 -3.96415 0
M  V30 50044 C 7139.26 -7.08259 -2.72856 0
M  V30 50045 O 7139.05 -5.9427 -1.83651 0
M  V30 50046 C 7137.86 -7.64886 -2.9555 0
M  V30 50047 O 7137.47 -8.53963 -1.90717 0
M  V30 50048 C 7136.98 -6.4116 -2.90739 0
M  V30 50049 C 7137.69 -5.55375 -1.86963 0
M  V30 50050 N 7137.64 -4.09664 -2.15742 0
M  V30 50051 H 7140.48 -7.45574 -4.45629 0
M  V30 50052 H 7140.75 -5.86232 -3.67314 0
M  V30 50053 H 7139.88 -7.84412 -2.24479 0
M  V30 50054 P 7135.92 -8.7635 -1.60911 0
M  V30 50055 O 7135.7 -10.1388 -1.11561 0
M  V30 50056 O 7135.13 -8.36503 -2.79617 0
M  V30 50057 O 7135.67 -7.71806 -0.42951 0
M  V30 50058 C 7136.61 -7.67148 0.673689 0
M  V30 50059 C 7135.88 -7.33374 1.95559 0
M  V30 50060 O 7135.67 -5.88721 2.00726 0
M  V30 50061 C 7134.48 -7.92526 2.10483 0
M  V30 50062 O 7134.09 -8.02971 3.47653 0
M  V30 50063 C 7133.6 -6.89602 1.41652 0
M  V30 50064 C 7134.31 -5.59201 1.75185 0
M  V30 50065 N 7134.26 -4.58301 0.657969 0
M  V30 50066 H 7137.1 -8.65116 0.777161 0
M  V30 50067 H 7137.37 -6.9022 0.46725 0
M  V30 50068 H 7136.5 -7.66548 2.79458 0
M  V30 50069 H 7133.85 -5.16165 2.65183 0
M  V30 50070 H 7133.57 -7.06433 0.329384 0
M  V30 50071 H 7132.57 -6.90926 1.82021 0
M  V30 50072 H 7134.41 -8.90873 1.62657 0
M  V30 50073 P 7132.54 -8.03563 3.84925 0
M  V30 50074 O 7132.32 -8.85821 5.0569 0
M  V30 50075 O 7131.75 -8.41101 2.65469 0
M  V30 50076 O 7132.29 -6.4965 4.18908 0
M  V30 50077 C 7133.23 -5.81037 5.05421 0
M  V30 50078 C 7132.5 -4.78366 5.89277 0
M  V30 50079 O 7132.29 -3.58302 5.08433 0
M  V30 50080 C 7131.1 -5.17448 6.36119 0
M  V30 50081 O 7130.71 -4.45271 7.53232 0
M  V30 50082 C 7130.22 -4.74639 5.19936 0
M  V30 50083 C 7130.93 -3.49432 4.70418 0
M  V30 50084 N 7130.88 -3.31776 3.22945 0
M  V30 50085 C 7130.96 -4.27147 2.23315 0
M  V30 50086 N 7130.88 -3.78447 1.02186 0
M  V30 50087 C 7130.74 -2.41001 1.21732 0
M  V30 50088 C 7130.61 -1.36111 0.27694 0
M  V30 50089 N 7130.49 -0.113683 0.912949 0
M  V30 50090 C 7130.49 0.0846396 2.27943 0
M  V30 50091 N 7130.36 1.34737 2.6916 0
M  V30 50092 N 7130.62 -0.902521 3.16379 0
M  V30 50093 C 7130.74 -2.11937 2.56849 0
M  V30 50094 H 7133.72 -6.54213 5.71376 0
M  V30 50095 H 7133.99 -5.30492 4.44033 0
M  V30 50096 H 7133.12 -4.55889 6.76652 0
M  V30 50097 P 7129.16 -4.23843 7.83734 0
M  V30 50098 O 7128.94 -4.19407 9.29784 0
M  V30 50099 O 7128.37 -5.24426 7.09156 0
M  V30 50100 O 7128.91 -2.7935 7.20758 0
M  V30 50101 C 7129.85 -1.7299 7.50419 0
M  V30 50102 C 7129.12 -0.406376 7.57911 0
M  V30 50103 O 7128.91 0.0897726 6.21935 0
M  V30 50104 C 7127.72 -0.447224 8.1878 0
M  V30 50105 O 7127.33 0.825065 8.71101 0
M  V30 50106 C 7126.84 -0.783801 6.99623 0
M  V30 50107 C 7127.55 -0.0619192 5.85967 0
M  V30 50108 N 7127.5 -0.7859 4.56281 0
M  V30 50109 H 7130.34 -1.93423 8.4679 0
M  V30 50110 H 7130.61 -1.68181 6.71046 0
M  V30 50111 H 7129.74 0.289041 8.15388 0
M  V30 50112 P 7125.78 1.17771 8.83182 0
M  V30 50113 O 7125.56 2.07206 9.98732 0
M  V30 50114 O 7124.99 -0.0743816 8.81969 0
M  V30 50115 O 7125.53 1.97652 7.47304 0
M  V30 50116 C 7126.47 3.01133 7.08783 0
M  V30 50117 C 7125.74 4.12613 6.37049 0
M  V30 50118 O 7125.53 3.72827 4.97879 0
M  V30 50119 C 7124.34 4.45085 6.88694 0
M  V30 50120 O 7123.95 5.7877 6.5624 0
M  V30 50121 C 7123.46 3.47817 6.12078 0
M  V30 50122 C 7124.17 3.39414 4.77697 0
M  V30 50123 N 7124.12 2.04199 4.15538 0
M  V30 50124 H 7126.96 3.41248 7.98759 0
M  V30 50125 H 7127.23 2.57728 6.42 0
M  V30 50126 H 7126.36 5.02657 6.42673 0
M  V30 50127 H 7123.71 4.11708 4.08956 0
M  V30 50128 H 7123.43 2.49626 6.61679 0
M  V30 50129 H 7122.43 3.8662 6.00862 0
M  V30 50130 H 7124.27 4.29991 7.97006 0
M  V30 50131 P 7122.4 6.144 6.45285 0
M  V30 50132 O 7122.18 7.54673 6.86199 0
M  V30 50133 O 7121.61 5.12391 7.179 0
M  V30 50134 O 7122.15 5.99158 4.88404 0
M  V30 50135 C 7123.09 6.60062 3.96313 0
M  V30 50136 C 7122.36 7.08259 2.72856 0
M  V30 50137 O 7122.15 5.9427 1.83651 0
M  V30 50138 C 7120.96 7.65087 2.94749 0
M  V30 50139 O 7120.57 8.53963 1.90717 0
M  V30 50140 C 7120.08 6.41069 2.90698 0
M  V30 50141 C 7120.79 5.5528 1.86931 0
M  V30 50142 N 7120.74 4.09575 2.15696 0
M  V30 50143 C 7120.59 3.24249 1.08435 0
M  V30 50144 O 7120.5 3.63946 -0.0628747 0
M  V30 50145 N 7120.55 1.90009 1.39973 0
M  V30 50146 C 7120.64 1.34884 2.65614 0
M  V30 50147 C 7120.79 2.3145 3.71736 0
M  V30 50148 C 7120.84 3.63518 3.44754 0
M  V30 50149 H 7123.58 7.45402 4.45526 0
M  V30 50150 H 7123.85 5.86062 3.67208 0
M  V30 50151 H 7122.98 7.84412 2.24479 0
M  V30 50152 H 7120.33 5.73358 0.888409 0
M  V30 50153 H 7120.05 5.90877 3.88583 0
M  V30 50154 H 7119.05 6.65867 2.58821 0
M  V30 50155 H 7120.89 8.16248 3.92006 0
M  V30 50156 H 7120.96 4.34551 4.26383 0
M  V30 50157 P 7119.02 8.7635 1.60911 0
M  V30 50158 O 7118.8 10.1388 1.11561 0
M  V30 50159 O 7118.23 8.36503 2.79617 0
M  V30 50160 O 7118.77 7.71806 0.42951 0
M  V30 50161 C 7119.71 7.66948 -0.673514 0
M  V30 50162 C 7118.98 7.33374 -1.95559 0
M  V30 50163 O 7118.77 5.88721 -2.00726 0
M  V30 50164 C 7117.58 7.92218 -2.1125 0
M  V30 50165 O 7117.19 8.02971 -3.47653 0
M  V30 50166 C 7116.7 6.89504 -1.41631 0
M  V30 50167 C 7117.41 5.59106 -1.75155 0
M  V30 50168 N 7117.36 4.58136 -0.662409 0
M  V30 50169 C 7117.21 3.26059 -1.02863 0
M  V30 50170 O 7117.12 2.90743 -2.19009 0
M  V30 50171 N 7117.17 2.35995 0.0155585 0
M  V30 50172 C 7117.26 2.65248 1.35603 0
M  V30 50173 O 7117.21 1.75605 2.20651 0
M  V30 50174 C 7117.41 4.05747 1.64698 0
M  V30 50175 C 7117.52 4.42345 3.09553 0
M  V30 50176 C 7117.46 4.96734 0.652411 0
M  V30 50177 H 7120.2 8.64917 -0.776982 0
M  V30 50178 H 7120.47 6.89974 -0.474015 0
M  V30 50179 H 7119.6 7.66548 -2.79458 0
M  V30 50180 H 7116.95 5.16076 -2.65138 0
M  V30 50181 H 7116.67 7.06433 -0.329384 0
M  V30 50182 H 7115.67 6.90829 -1.81996 0
M  V30 50183 H 7117.51 8.90774 -1.62639 0
M  V30 50184 H 7117.58 6.02181 0.895285 0
M  V30 50185 H 7116.55 4.80252 3.45468 0
M  V30 50186 H 7118.29 5.20015 3.22119 0
M  V30 50187 H 7117.8 3.53269 3.67833 0
M  V30 50188 H 7117.06 1.39558 -0.227499 0
M  V30 50189 P 7115.64 8.03563 -3.84925 0
M  V30 50190 O 7115.42 8.85821 -5.0569 0
M  V30 50191 O 7114.85 8.41101 -2.65469 0
M  V30 50192 O 7115.39 6.4965 -4.18908 0
M  V30 50193 C 7116.33 5.81037 -5.05421 0
M  V30 50194 C 7115.6 4.78366 -5.89277 0
M  V30 50195 O 7115.39 3.58302 -5.08433 0
M  V30 50196 C 7114.2 5.17448 -6.36119 0
M  V30 50197 O 7113.81 4.45271 -7.53232 0
M  V30 50198 C 7113.32 4.74639 -5.19936 0
M  V30 50199 C 7114.03 3.49432 -4.70418 0
M  V30 50200 N 7113.98 3.31776 -3.22945 0
M  V30 50201 H 7116.82 6.54213 -5.71376 0
M  V30 50202 H 7117.09 5.30492 -4.44033 0
M  V30 50203 H 7116.22 4.55889 -6.76652 0
M  V30 50204 P 7112.26 4.23843 -7.83734 0
M  V30 50205 O 7112.04 4.19407 -9.29784 0
M  V30 50206 O 7111.47 5.24426 -7.09156 0
M  V30 50207 O 7112.01 2.79386 -7.20852 0
M  V30 50208 C 7112.95 1.7299 -7.50419 0
M  V30 50209 C 7112.22 0.41401 -7.5797 0
M  V30 50210 O 7112.01 -0.089787 -6.22035 0
M  V30 50211 C 7110.82 0.447224 -8.1878 0
M  V30 50212 O 7110.43 -0.825159 -8.71201 0
M  V30 50213 C 7109.94 0.783801 -6.99623 0
M  V30 50214 C 7110.65 0.0619192 -5.85967 0
M  V30 50215 N 7110.6 0.7859 -4.56281 0
M  V30 50216 C 7110.45 0.0359258 -3.39981 0
M  V30 50217 O 7110.36 -1.19723 -3.49038 0
M  V30 50218 N 7110.4 0.869151 -2.14025 0
M  V30 50219 C 7110.5 2.01207 -2.14363 0
M  V30 50220 N 7110.45 2.58978 -0.954287 0
M  V30 50221 C 7110.65 2.80817 -3.32215 0
M  V30 50222 C 7110.7 2.13785 -4.50884 0
M  V30 50223 H 7113.44 1.93401 -8.46693 0
M  V30 50224 H 7113.71 1.68181 -6.71046 0
M  V30 50225 H 7112.84 -0.289076 -8.15488 0
M  V30 50226 H 7110.19 -0.927166 -5.72947 0
M  V30 50227 H 7109.91 1.87 -6.82132 0
M  V30 50228 H 7108.91 0.404009 -7.13457 0
M  V30 50229 H 7110.75 1.20599 -8.97534 0
M  V30 50230 H 7110.82 2.70295 -5.43162 0
M  V30 50231 H 7110.72 3.89465 -3.27406 0
M  V30 50232 H 7110.33 2.01616 -0.107046 0
M  V30 50233 H 7110.53 3.61403 -0.873101 0
M  V30 50234 P 7108.88 -1.17771 -8.83182 0
M  V30 50235 O 7108.66 -2.07206 -9.98732 0
M  V30 50236 O 7108.09 0.0743816 -8.81969 0
M  V30 50237 O 7108.63 -1.97652 -7.47304 0
M  V30 50238 C 7109.57 -3.01133 -7.08783 0
M  V30 50239 C 7108.84 -4.12613 -6.37049 0
M  V30 50240 O 7108.63 -3.72827 -4.97879 0
M  V30 50241 C 7107.44 -4.45085 -6.88694 0
M  V30 50242 O 7107.05 -5.7877 -6.5624 0
M  V30 50243 C 7106.56 -3.47817 -6.12078 0
M  V30 50244 C 7107.27 -3.39414 -4.77697 0
M  V30 50245 N 7107.22 -2.04615 -4.15333 0
M  V30 50246 H 7110.06 -3.41248 -7.98759 0
M  V30 50247 H 7110.33 -2.5837 -6.41742 0
M  V30 50248 H 7109.46 -5.02657 -6.42673 0
M  V30 50249 P 7105.5 -6.144 -6.45285 0
M  V30 50250 O 7105.28 -7.54673 -6.86199 0
M  V30 50251 O 7104.71 -5.12391 -7.179 0
M  V30 50252 O 7105.25 -5.99158 -4.88404 0
M  V30 50253 C 7106.19 -6.60234 -3.96415 0
M  V30 50254 C 7105.46 -7.08259 -2.72856 0
M  V30 50255 O 7105.25 -5.9427 -1.83651 0
M  V30 50256 C 7104.06 -7.64886 -2.9555 0
M  V30 50257 O 7103.67 -8.53963 -1.90717 0
M  V30 50258 C 7103.18 -6.4116 -2.90739 0
M  V30 50259 C 7103.89 -5.55375 -1.86963 0
M  V30 50260 N 7103.84 -4.09448 -2.16152 0
M  V30 50261 H 7106.68 -7.45574 -4.45629 0
M  V30 50262 H 7106.95 -5.85864 -3.679 0
M  V30 50263 H 7106.08 -7.84412 -2.24479 0
M  V30 50264 H 7103.43 -5.73457 -0.888562 0
M  V30 50265 H 7103.15 -5.90877 -3.88583 0
M  V30 50266 H 7102.15 -6.6596 -2.58858 0
M  V30 50267 H 7103.99 -8.16339 -3.92049 0
M  V30 50268 P 7102.12 -8.7635 -1.60911 0
M  V30 50269 O 7101.9 -10.1388 -1.11561 0
M  V30 50270 O 7101.33 -8.36503 -2.79617 0
M  V30 50271 O 7101.87 -7.71906 -0.429565 0
M  V30 50272 C 7102.81 -7.67148 0.673689 0
M  V30 50273 C 7102.08 -7.33666 1.94851 0
M  V30 50274 O 7101.87 -5.88816 2.00759 0
M  V30 50275 C 7100.68 -7.92526 2.10483 0
M  V30 50276 O 7100.29 -8.03063 3.47693 0
M  V30 50277 C 7099.8 -6.89602 1.41652 0
M  V30 50278 C 7100.51 -5.59201 1.75185 0
M  V30 50279 N 7100.46 -4.58235 0.662552 0
M  V30 50280 C 7100.31 -3.24451 1.01643 0
M  V30 50281 O 7100.22 -2.94958 2.21722 0
M  V30 50282 N 7100.26 -2.30408 -0.165238 0
M  V30 50283 C 7100.36 -2.66048 -1.25118 0
M  V30 50284 N 7100.31 -1.70787 -2.16813 0
M  V30 50285 C 7100.51 -4.02732 -1.64413 0
M  V30 50286 C 7100.56 -4.9488 -0.63991 0
M  V30 50287 H 7103.3 -8.65017 0.777072 0
M  V30 50288 H 7103.57 -6.90173 0.474152 0
M  V30 50289 H 7102.7 -7.66642 2.79492 0
M  V30 50290 H 7100.05 -5.16254 2.65229 0
M  V30 50291 H 7099.77 -7.06532 0.329431 0
M  V30 50292 H 7098.77 -6.91023 1.82047 0
M  V30 50293 H 7100.61 -8.90873 1.62657 0
M  V30 50294 H 7100.68 -6.00104 -0.892197 0
M  V30 50295 H 7100.58 -4.31733 -2.69229 0
M  V30 50296 H 7100.19 -0.724835 -1.8844 0
M  V30 50297 H 7100.39 -1.94716 -3.16734 0
M  V30 50298 P 7098.74 -8.03563 3.84925 0
M  V30 50299 O 7098.52 -8.85821 5.0569 0
M  V30 50300 O 7097.95 -8.41101 2.65469 0
M  V30 50301 O 7098.49 -6.4965 4.18908 0
M  V30 50302 C 7099.43 -5.81037 5.05421 0
M  V30 50303 C 7098.7 -4.78366 5.89277 0
M  V30 50304 O 7098.49 -3.58302 5.08433 0
M  V30 50305 C 7097.3 -5.17448 6.36119 0
M  V30 50306 O 7096.91 -4.45271 7.53232 0
M  V30 50307 C 7096.42 -4.74639 5.19936 0
M  V30 50308 C 7097.13 -3.49432 4.70418 0
M  V30 50309 N 7097.08 -3.31776 3.22945 0
M  V30 50310 H 7099.92 -6.54213 5.71376 0
M  V30 50311 H 7100.19 -5.30492 4.44033 0
M  V30 50312 H 7099.32 -4.55889 6.76652 0
M  V30 50313 P 7095.36 -4.23843 7.83734 0
M  V30 50314 O 7095.14 -4.19407 9.29784 0
M  V30 50315 O 7094.57 -5.24426 7.09156 0
M  V30 50316 O 7095.11 -2.7935 7.20758 0
M  V30 50317 C 7096.05 -1.7299 7.50419 0
M  V30 50318 C 7095.32 -0.406376 7.57911 0
M  V30 50319 O 7095.11 0.0897726 6.21935 0
M  V30 50320 C 7093.92 -0.447224 8.1878 0
M  V30 50321 O 7093.53 0.825065 8.71101 0
M  V30 50322 C 7093.04 -0.783801 6.99623 0
M  V30 50323 C 7093.75 -0.0619192 5.85967 0
M  V30 50324 N 7093.7 -0.790462 4.56202 0
M  V30 50325 H 7096.54 -1.93423 8.4679 0
M  V30 50326 H 7096.81 -1.68852 6.70877 0
M  V30 50327 H 7095.94 0.289041 8.15388 0
M  V30 50328 H 7093.29 0.927006 5.72848 0
M  V30 50329 H 7093.01 -1.86973 6.82036 0
M  V30 50330 H 7092.02 -0.403953 7.13357 0
M  V30 50331 H 7093.85 -1.20599 8.97534 0
M  V30 50332 P 7091.98 1.17771 8.83182 0
M  V30 50333 O 7091.76 2.07206 9.98732 0
M  V30 50334 O 7091.19 -0.0743816 8.81969 0
M  V30 50335 O 7091.73 1.97652 7.47304 0
M  V30 50336 C 7092.67 3.01133 7.08783 0
M  V30 50337 C 7091.94 4.12613 6.37049 0
M  V30 50338 O 7091.73 3.72827 4.97879 0
M  V30 50339 C 7090.54 4.45085 6.88694 0
M  V30 50340 O 7090.15 5.7877 6.5624 0
M  V30 50341 C 7089.66 3.47817 6.12078 0
M  V30 50342 C 7090.37 3.39414 4.77697 0
M  V30 50343 N 7090.32 2.04615 4.15333 0
M  V30 50344 H 7093.16 3.41248 7.98759 0
M  V30 50345 H 7093.43 2.5837 6.41742 0
M  V30 50346 H 7092.56 5.02657 6.42673 0
M  V30 50347 P 7088.6 6.144 6.45285 0
M  V30 50348 O 7088.38 7.54673 6.86199 0
M  V30 50349 O 7087.81 5.12391 7.179 0
M  V30 50350 O 7088.35 5.99158 4.88404 0
M  V30 50351 C 7089.29 6.60234 3.96415 0
M  V30 50352 C 7088.56 7.08259 2.72856 0
M  V30 50353 O 7088.35 5.9427 1.83651 0
M  V30 50354 C 7087.16 7.64886 2.9555 0
M  V30 50355 O 7086.77 8.53963 1.90717 0
M  V30 50356 C 7086.28 6.4116 2.90739 0
M  V30 50357 C 7086.99 5.55375 1.86963 0
M  V30 50358 N 7086.94 4.09664 2.15742 0
M  V30 50359 H 7089.78 7.45574 4.45629 0
M  V30 50360 H 7090.05 5.86232 3.67314 0
M  V30 50361 H 7089.18 7.84412 2.24479 0
M  V30 50362 P 7085.22 8.7635 1.60911 0
M  V30 50363 O 7085 10.1388 1.11561 0
M  V30 50364 O 7084.43 8.36503 2.79617 0
M  V30 50365 O 7084.97 7.71806 0.42951 0
M  V30 50366 C 7085.91 7.66948 -0.673514 0
M  V30 50367 C 7085.18 7.33374 -1.95559 0
M  V30 50368 O 7084.97 5.88721 -2.00726 0
M  V30 50369 C 7083.78 7.92218 -2.1125 0
M  V30 50370 O 7083.39 8.02971 -3.47653 0
M  V30 50371 C 7082.9 6.89504 -1.41631 0
M  V30 50372 C 7083.61 5.59106 -1.75155 0
M  V30 50373 N 7083.56 4.58136 -0.662409 0
M  V30 50374 C 7083.41 3.26059 -1.02863 0
M  V30 50375 O 7083.32 2.90743 -2.19009 0
M  V30 50376 N 7083.37 2.35995 0.0155585 0
M  V30 50377 C 7083.46 2.65248 1.35603 0
M  V30 50378 C 7083.61 4.05747 1.64698 0
M  V30 50379 C 7083.66 4.96734 0.652411 0
M  V30 50380 H 7086.4 8.64917 -0.776982 0
M  V30 50381 H 7086.67 6.89974 -0.474015 0
M  V30 50382 H 7085.8 7.66548 -2.79458 0
M  V30 50383 H 7083.15 5.16076 -2.65138 0
M  V30 50384 H 7082.87 7.06433 -0.329384 0
M  V30 50385 H 7081.88 6.90829 -1.81996 0
M  V30 50386 H 7083.71 8.90774 -1.62639 0
M  V30 50387 H 7083.78 6.02181 0.895285 0
M  V30 50388 P 7081.84 8.03563 -3.84925 0
M  V30 50389 O 7081.62 8.85821 -5.0569 0
M  V30 50390 O 7081.05 8.41101 -2.65469 0
M  V30 50391 O 7081.59 6.4965 -4.18908 0
M  V30 50392 C 7082.53 5.81037 -5.05421 0
M  V30 50393 C 7081.8 4.78366 -5.89277 0
M  V30 50394 O 7081.59 3.58302 -5.08433 0
M  V30 50395 C 7080.4 5.17448 -6.36119 0
M  V30 50396 O 7080.01 4.45271 -7.53232 0
M  V30 50397 C 7079.52 4.74639 -5.19936 0
M  V30 50398 C 7080.23 3.49432 -4.70418 0
M  V30 50399 N 7080.18 3.31776 -3.22945 0
M  V30 50400 H 7083.02 6.54213 -5.71376 0
M  V30 50401 H 7083.29 5.30492 -4.44033 0
M  V30 50402 H 7082.42 4.55889 -6.76652 0
M  V30 50403 P 7078.46 4.23843 -7.83734 0
M  V30 50404 O 7078.24 4.19407 -9.29784 0
M  V30 50405 O 7077.67 5.24426 -7.09156 0
M  V30 50406 O 7078.21 2.7935 -7.20758 0
M  V30 50407 C 7079.15 1.7299 -7.50419 0
M  V30 50408 C 7078.42 0.406376 -7.57911 0
M  V30 50409 O 7078.21 -0.0897726 -6.21935 0
M  V30 50410 C 7077.02 0.447224 -8.1878 0
M  V30 50411 O 7076.63 -0.825065 -8.71101 0
M  V30 50412 C 7076.14 0.783801 -6.99623 0
M  V30 50413 C 7076.85 0.0619192 -5.85967 0
M  V30 50414 N 7076.8 0.790462 -4.56202 0
M  V30 50415 H 7079.64 1.93423 -8.4679 0
M  V30 50416 H 7079.91 1.68852 -6.70877 0
M  V30 50417 H 7079.04 -0.289041 -8.15388 0
M  V30 50418 H 7076.39 -0.927006 -5.72848 0
M  V30 50419 H 7076.11 1.86973 -6.82036 0
M  V30 50420 H 7075.12 0.403953 -7.13357 0
M  V30 50421 H 7076.95 1.20599 -8.97534 0
M  V30 50422 P 7075.08 -1.17771 -8.83182 0
M  V30 50423 O 7074.86 -2.07206 -9.98732 0
M  V30 50424 O 7074.29 0.0743816 -8.81969 0
M  V30 50425 O 7074.83 -1.97652 -7.47304 0
M  V30 50426 C 7075.77 -3.01133 -7.08783 0
M  V30 50427 C 7075.04 -4.12613 -6.37049 0
M  V30 50428 O 7074.83 -3.72827 -4.97879 0
M  V30 50429 C 7073.64 -4.45085 -6.88694 0
M  V30 50430 O 7073.25 -5.7877 -6.5624 0
M  V30 50431 C 7072.76 -3.47817 -6.12078 0
M  V30 50432 C 7073.47 -3.39414 -4.77697 0
M  V30 50433 N 7073.42 -2.04199 -4.15538 0
M  V30 50434 C 7073.5 -0.821545 -4.76977 0
M  V30 50435 N 7073.43 0.1794 -3.94592 0
M  V30 50436 C 7073.28 -0.419121 -2.70776 0
M  V30 50437 C 7073.15 0.109072 -1.40577 0
M  V30 50438 N 7073.14 1.4104 -1.1344 0
M  V30 50439 N 7073.03 -0.764381 -0.39411 0
M  V30 50440 C 7073.04 -2.06587 -0.664135 0
M  V30 50441 N 7073.16 -2.67948 -1.82153 0
M  V30 50442 C 7073.28 -1.77942 -2.8147 0
M  V30 50443 H 7076.26 -3.41248 -7.98759 0
M  V30 50444 H 7076.53 -2.57728 -6.42 0
M  V30 50445 H 7075.66 -5.02657 -6.42673 0
M  V30 50446 H 7073.01 -4.11708 -4.08956 0
M  V30 50447 H 7072.73 -2.49626 -6.61679 0
M  V30 50448 H 7071.74 -3.8662 -6.00862 0
M  V30 50449 H 7073.57 -4.29991 -7.97006 0
M  V30 50450 H 7073.61 -0.702451 -5.84696 0
M  V30 50451 H 7073.23 2.09647 -1.89651 0
M  V30 50452 H 7073.04 1.73358 -0.160575 0
M  V30 50453 H 7072.93 -2.71695 0.195838 0
M  V30 50454 P 7071.7 -6.144 -6.45285 0
M  V30 50455 O 7071.48 -7.54673 -6.86199 0
M  V30 50456 O 7070.91 -5.12391 -7.179 0
M  V30 50457 O 7071.45 -5.99158 -4.88404 0
M  V30 50458 C 7072.39 -6.60234 -3.96415 0
M  V30 50459 C 7071.66 -7.08259 -2.72856 0
M  V30 50460 O 7071.45 -5.9427 -1.83651 0
M  V30 50461 C 7070.26 -7.64886 -2.9555 0
M  V30 50462 O 7069.87 -8.53963 -1.90717 0
M  V30 50463 C 7069.38 -6.4116 -2.90739 0
M  V30 50464 C 7070.09 -5.55375 -1.86963 0
M  V30 50465 N 7070.04 -4.09664 -2.15742 0
M  V30 50466 C 7070.12 -3.44381 -3.37233 0
M  V30 50467 N 7070.04 -2.14131 -3.28347 0
M  V30 50468 C 7069.9 -1.90247 -1.91588 0
M  V30 50469 C 7069.77 -0.683992 -1.20892 0
M  V30 50470 N 7069.65 -0.903396 0.173998 0
M  V30 50471 C 7069.65 -2.14171 0.784879 0
M  V30 50472 N 7069.52 -2.1435 2.11317 0
M  V30 50473 N 7069.78 -3.28784 0.119316 0
M  V30 50474 C 7069.9 -3.0977 -1.22194 0
M  V30 50475 H 7072.88 -7.45574 -4.45629 0
M  V30 50476 H 7073.15 -5.86232 -3.67314 0
M  V30 50477 H 7072.28 -7.84412 -2.24479 0
M  V30 50478 P 7068.32 -8.7635 -1.60911 0
M  V30 50479 O 7068.1 -10.1388 -1.11561 0
M  V30 50480 O 7067.53 -8.36503 -2.79617 0
M  V30 50481 O 7068.07 -7.71806 -0.42951 0
M  V30 50482 C 7069.01 -7.67148 0.673689 0
M  V30 50483 C 7068.28 -7.33374 1.95559 0
M  V30 50484 O 7068.07 -5.88721 2.00726 0
M  V30 50485 C 7066.88 -7.92526 2.10483 0
M  V30 50486 O 7066.49 -8.02971 3.47653 0
M  V30 50487 C 7066 -6.89602 1.41652 0
M  V30 50488 C 7066.71 -5.59201 1.75185 0
M  V30 50489 N 7066.66 -4.58301 0.657969 0
M  V30 50490 H 7069.5 -8.65116 0.777161 0
M  V30 50491 H 7069.77 -6.9022 0.46725 0
M  V30 50492 H 7068.9 -7.66548 2.79458 0
M  V30 50493 H 7066.25 -5.16165 2.65183 0
M  V30 50494 H 7065.97 -7.06433 0.329384 0
M  V30 50495 H 7064.98 -6.90926 1.82021 0
M  V30 50496 H 7066.81 -8.90873 1.62657 0
M  V30 50497 P 7064.94 -8.03563 3.84925 0
M  V30 50498 O 7064.72 -8.85821 5.0569 0
M  V30 50499 O 7064.15 -8.41101 2.65469 0
M  V30 50500 O 7064.69 -6.4965 4.18908 0
M  V30 50501 C 7065.63 -5.81037 5.05421 0
M  V30 50502 C 7064.9 -4.78366 5.89277 0
M  V30 50503 O 7064.69 -3.58302 5.08433 0
M  V30 50504 C 7063.5 -5.17448 6.36119 0
M  V30 50505 O 7063.11 -4.45271 7.53232 0
M  V30 50506 C 7062.62 -4.74639 5.19936 0
M  V30 50507 C 7063.33 -3.49432 4.70418 0
M  V30 50508 N 7063.28 -3.32099 3.22613 0
M  V30 50509 H 7066.12 -6.54213 5.71376 0
M  V30 50510 H 7066.39 -5.30936 4.43503 0
M  V30 50511 H 7065.52 -4.55889 6.76652 0
M  V30 50512 H 7062.87 -2.61715 5.17932 0
M  V30 50513 H 7062.59 -5.52155 4.41878 0
M  V30 50514 H 7061.6 -4.51981 5.53374 0
M  V30 50515 H 7063.43 -6.25124 6.55234 0
M  V30 50516 P 7061.56 -4.23843 7.83734 0
M  V30 50517 O 7061.34 -4.19407 9.29784 0
M  V30 50518 O 7060.77 -5.24426 7.09156 0
M  V30 50519 O 7061.31 -2.7935 7.20758 0
M  V30 50520 C 7062.25 -1.7299 7.50419 0
M  V30 50521 C 7061.52 -0.406376 7.57911 0
M  V30 50522 O 7061.31 0.0897726 6.21935 0
M  V30 50523 C 7060.12 -0.447224 8.1878 0
M  V30 50524 O 7059.73 0.825065 8.71101 0
M  V30 50525 C 7059.24 -0.783801 6.99623 0
M  V30 50526 C 7059.95 -0.0619192 5.85967 0
M  V30 50527 N 7059.9 -0.7859 4.56281 0
M  V30 50528 H 7062.74 -1.93423 8.4679 0
M  V30 50529 H 7063.01 -1.68181 6.71046 0
M  V30 50530 H 7062.14 0.289041 8.15388 0
M  V30 50531 P 7058.18 1.17771 8.83182 0
M  V30 50532 O 7057.96 2.07206 9.98732 0
M  V30 50533 O 7057.39 -0.0743816 8.81969 0
M  V30 50534 O 7057.93 1.97652 7.47304 0
M  V30 50535 C 7058.87 3.01133 7.08783 0
M  V30 50536 C 7058.14 4.12613 6.37049 0
M  V30 50537 O 7057.93 3.72827 4.97879 0
M  V30 50538 C 7056.74 4.45085 6.88694 0
M  V30 50539 O 7056.35 5.7877 6.5624 0
M  V30 50540 C 7055.86 3.47817 6.12078 0
M  V30 50541 C 7056.57 3.39414 4.77697 0
M  V30 50542 N 7056.52 2.04199 4.15538 0
M  V30 50543 H 7059.36 3.41248 7.98759 0
M  V30 50544 H 7059.63 2.57728 6.42 0
M  V30 50545 H 7058.76 5.02657 6.42673 0
M  V30 50546 H 7056.11 4.11708 4.08956 0
M  V30 50547 H 7055.83 2.49626 6.61679 0
M  V30 50548 H 7054.84 3.8662 6.00862 0
M  V30 50549 H 7056.67 4.29991 7.97006 0
M  V30 50550 P 7054.8 6.144 6.45285 0
M  V30 50551 O 7054.58 7.54673 6.86199 0
M  V30 50552 O 7054.01 5.12391 7.179 0
M  V30 50553 O 7054.55 5.99158 4.88404 0
M  V30 50554 C 7055.49 6.60234 3.96415 0
M  V30 50555 C 7054.76 7.08259 2.72856 0
M  V30 50556 O 7054.55 5.9427 1.83651 0
M  V30 50557 C 7053.36 7.64886 2.9555 0
M  V30 50558 O 7052.97 8.53963 1.90717 0
M  V30 50559 C 7052.48 6.4116 2.90739 0
M  V30 50560 C 7053.19 5.55375 1.86963 0
M  V30 50561 N 7053.14 4.09664 2.15742 0
M  V30 50562 H 7055.98 7.45574 4.45629 0
M  V30 50563 H 7056.25 5.86232 3.67314 0
M  V30 50564 H 7055.38 7.84412 2.24479 0
M  V30 50565 P 7051.42 8.7635 1.60911 0
M  V30 50566 O 7051.2 10.1388 1.11561 0
M  V30 50567 O 7050.63 8.36503 2.79617 0
M  V30 50568 O 7051.17 7.71806 0.42951 0
M  V30 50569 C 7052.11 7.67148 -0.673689 0
M  V30 50570 C 7051.38 7.33374 -1.95559 0
M  V30 50571 O 7051.17 5.88721 -2.00726 0
M  V30 50572 C 7049.98 7.92526 -2.10483 0
M  V30 50573 O 7049.59 8.02971 -3.47653 0
M  V30 50574 C 7049.1 6.89602 -1.41652 0
M  V30 50575 C 7049.81 5.59201 -1.75185 0
M  V30 50576 N 7049.76 4.58235 -0.662552 0
M  V30 50577 H 7052.6 8.65116 -0.777161 0
M  V30 50578 H 7052.87 6.90173 -0.474152 0
M  V30 50579 H 7052 7.66548 -2.79458 0
M  V30 50580 P 7048.04 8.03563 -3.84925 0
M  V30 50581 O 7047.82 8.85821 -5.0569 0
M  V30 50582 O 7047.25 8.41101 -2.65469 0
M  V30 50583 O 7047.79 6.4965 -4.18908 0
M  V30 50584 C 7048.73 5.81037 -5.05421 0
M  V30 50585 C 7048 4.78366 -5.89277 0
M  V30 50586 O 7047.79 3.58302 -5.08433 0
M  V30 50587 C 7046.6 5.17448 -6.36119 0
M  V30 50588 O 7046.21 4.45271 -7.53232 0
M  V30 50589 C 7045.72 4.74639 -5.19936 0
M  V30 50590 C 7046.43 3.49432 -4.70418 0
M  V30 50591 N 7046.38 3.31776 -3.22945 0
M  V30 50592 C 7046.46 4.27147 -2.23315 0
M  V30 50593 N 7046.38 3.78447 -1.02186 0
M  V30 50594 C 7046.24 2.41001 -1.21732 0
M  V30 50595 C 7046.11 1.36111 -0.27694 0
M  V30 50596 O 7046.09 1.42065 0.951767 0
M  V30 50597 N 7045.99 0.113683 -0.912949 0
M  V30 50598 C 7045.99 -0.0846396 -2.27943 0
M  V30 50599 N 7045.86 -1.34737 -2.6916 0
M  V30 50600 N 7046.12 0.902521 -3.16379 0
M  V30 50601 C 7046.24 2.11937 -2.56849 0
M  V30 50602 H 7049.22 6.54213 -5.71376 0
M  V30 50603 H 7049.49 5.30492 -4.44033 0
M  V30 50604 H 7048.62 4.55889 -6.76652 0
M  V30 50605 H 7045.97 2.6176 -5.18021 0
M  V30 50606 H 7045.69 5.52233 -4.41941 0
M  V30 50607 H 7044.7 4.52045 -5.53452 0
M  V30 50608 H 7046.53 6.25193 -6.55307 0
M  V30 50609 H 7046.58 5.3351 -2.43857 0
M  V30 50610 H 7045.9 -0.69331 -0.330371 0
M  V30 50611 H 7045.86 -1.56433 -3.6988 0
M  V30 50612 H 7045.76 -2.10701 -2.00133 0
M  V30 50613 P 7044.66 4.23843 -7.83734 0
M  V30 50614 O 7044.44 4.19407 -9.29784 0
M  V30 50615 O 7043.87 5.24426 -7.09156 0
M  V30 50616 O 7044.41 2.7935 -7.20758 0
M  V30 50617 C 7045.35 1.7299 -7.50419 0
M  V30 50618 C 7044.62 0.406376 -7.57911 0
M  V30 50619 O 7044.41 -0.0897726 -6.21935 0
M  V30 50620 C 7043.22 0.447224 -8.1878 0
M  V30 50621 O 7042.83 -0.825065 -8.71101 0
M  V30 50622 C 7042.34 0.783801 -6.99623 0
M  V30 50623 C 7043.05 0.0619192 -5.85967 0
M  V30 50624 N 7043 0.7859 -4.56281 0
M  V30 50625 H 7045.84 1.93423 -8.4679 0
M  V30 50626 H 7046.11 1.68181 -6.71046 0
M  V30 50627 H 7045.24 -0.289041 -8.15388 0
M  V30 50628 P 7041.28 -1.17771 -8.83182 0
M  V30 50629 O 7041.06 -2.07206 -9.98732 0
M  V30 50630 O 7040.49 0.0743816 -8.81969 0
M  V30 50631 O 7041.03 -1.97652 -7.47304 0
M  V30 50632 C 7041.97 -3.01055 -7.08599 0
M  V30 50633 C 7041.24 -4.12613 -6.37049 0
M  V30 50634 O 7041.03 -3.72827 -4.97879 0
M  V30 50635 C 7039.84 -4.45719 -6.88164 0
M  V30 50636 O 7039.45 -5.7877 -6.5624 0
M  V30 50637 C 7038.96 -3.47768 -6.11991 0
M  V30 50638 C 7039.67 -3.39356 -4.77615 0
M  V30 50639 N 7039.62 -2.04571 -4.15244 0
M  V30 50640 C 7039.47 -1.98587 -2.78314 0
M  V30 50641 O 7039.38 -2.98134 -2.08835 0
M  V30 50642 N 7039.43 -0.714467 -2.24925 0
M  V30 50643 C 7039.52 0.470001 -2.94169 0
M  V30 50644 C 7039.67 0.312541 -4.36783 0
M  V30 50645 C 7039.72 -0.914512 -4.92583 0
M  V30 50646 H 7042.46 -3.41169 -7.98575 0
M  V30 50647 H 7042.73 -2.58295 -6.41556 0
M  V30 50648 H 7041.86 -5.02657 -6.42673 0
M  V30 50649 H 7039.21 -4.11637 -4.08885 0
M  V30 50650 H 7038.93 -2.49626 -6.61679 0
M  V30 50651 H 7037.94 -3.86566 -6.00778 0
M  V30 50652 H 7039.77 -4.29943 -7.96918 0
M  V30 50653 H 7039.84 -1.00937 -6.00374 0
M  V30 50654 P 7037.9 -6.144 -6.45285 0
M  V30 50655 O 7037.68 -7.54673 -6.86199 0
M  V30 50656 O 7037.11 -5.12391 -7.179 0
M  V30 50657 O 7037.65 -5.99158 -4.88404 0
M  V30 50658 C 7038.59 -6.60062 -3.96313 0
M  V30 50659 C 7037.86 -7.08259 -2.72856 0
M  V30 50660 O 7037.65 -5.9427 -1.83651 0
M  V30 50661 C 7036.46 -7.65087 -2.94749 0
M  V30 50662 O 7036.07 -8.53963 -1.90717 0
M  V30 50663 C 7035.58 -6.41069 -2.90698 0
M  V30 50664 C 7036.29 -5.5528 -1.86931 0
M  V30 50665 N 7036.24 -4.09575 -2.15696 0
M  V30 50666 C 7036.09 -3.24249 -1.08435 0
M  V30 50667 O 7036 -3.63946 0.0628747 0
M  V30 50668 N 7036.05 -1.90009 -1.39973 0
M  V30 50669 C 7036.14 -1.34884 -2.65614 0
M  V30 50670 O 7036.09 -0.123716 -2.81728 0
M  V30 50671 C 7036.29 -2.3145 -3.71736 0
M  V30 50672 C 7036.4 -1.75913 -5.10438 0
M  V30 50673 C 7036.34 -3.63518 -3.44754 0
M  V30 50674 H 7039.08 -7.45402 -4.45526 0
M  V30 50675 H 7039.35 -5.86062 -3.67208 0
M  V30 50676 H 7038.48 -7.84412 -2.24479 0
M  V30 50677 H 7035.83 -5.73358 -0.888409 0
M  V30 50678 H 7035.55 -5.90877 -3.88583 0
M  V30 50679 H 7034.56 -6.65867 -2.58821 0
M  V30 50680 H 7036.39 -8.16248 -3.92006 0
M  V30 50681 H 7036.46 -4.34551 -4.26383 0
M  V30 50682 H 7035.43 -1.85471 -5.61775 0
M  V30 50683 H 7037.17 -2.31364 -5.66257 0
M  V30 50684 H 7036.68 -0.695936 -5.05229 0
M  V30 50685 H 7035.94 -1.26277 -0.63625 0
M  V30 50686 P 7034.52 -8.7635 -1.60911 0
M  V30 50687 O 7034.3 -10.1388 -1.11561 0
M  V30 50688 O 7033.73 -8.36503 -2.79617 0
M  V30 50689 O 7034.27 -7.71806 -0.42951 0
M  V30 50690 C 7035.21 -7.66948 0.673514 0
M  V30 50691 C 7034.48 -7.33374 1.95559 0
M  V30 50692 O 7034.27 -5.88721 2.00726 0
M  V30 50693 C 7033.08 -7.92218 2.1125 0
M  V30 50694 O 7032.69 -8.02971 3.47653 0
M  V30 50695 C 7032.2 -6.89504 1.41631 0
M  V30 50696 C 7032.91 -5.59106 1.75155 0
M  V30 50697 N 7032.86 -4.58136 0.662409 0
M  V30 50698 C 7032.71 -3.26059 1.02863 0
M  V30 50699 O 7032.62 -2.90743 2.19009 0
M  V30 50700 N 7032.67 -2.35995 -0.0155585 0
M  V30 50701 C 7032.76 -2.65248 -1.35603 0
M  V30 50702 O 7032.71 -1.75605 -2.20651 0
M  V30 50703 C 7032.91 -4.05747 -1.64698 0
M  V30 50704 C 7033.02 -4.42345 -3.09553 0
M  V30 50705 C 7032.96 -4.96734 -0.652411 0
M  V30 50706 H 7035.7 -8.64917 0.776982 0
M  V30 50707 H 7035.97 -6.89974 0.474015 0
M  V30 50708 H 7035.1 -7.66548 2.79458 0
M  V30 50709 H 7032.45 -5.16076 2.65138 0
M  V30 50710 H 7032.17 -7.06433 0.329384 0
M  V30 50711 H 7031.18 -6.90829 1.81996 0
M  V30 50712 H 7033.01 -8.90774 1.62639 0
M  V30 50713 H 7033.08 -6.02181 -0.895285 0
M  V30 50714 H 7032.05 -4.80252 -3.45468 0
M  V30 50715 H 7033.79 -5.20015 -3.22119 0
M  V30 50716 H 7033.3 -3.53269 -3.67833 0
M  V30 50717 H 7032.56 -1.39558 0.227499 0
M  V30 50718 P 7031.14 -8.03563 3.84925 0
M  V30 50719 O 7030.92 -8.85821 5.0569 0
M  V30 50720 O 7030.35 -8.41101 2.65469 0
M  V30 50721 O 7030.89 -6.4965 4.18908 0
M  V30 50722 C 7031.83 -5.81037 5.05421 0
M  V30 50723 C 7031.1 -4.78366 5.89277 0
M  V30 50724 O 7030.89 -3.58302 5.08433 0
M  V30 50725 C 7029.7 -5.17448 6.36119 0
M  V30 50726 O 7029.31 -4.45271 7.53232 0
M  V30 50727 C 7028.82 -4.74639 5.19936 0
M  V30 50728 C 7029.53 -3.49432 4.70418 0
M  V30 50729 N 7029.48 -3.31776 3.22945 0
M  V30 50730 H 7032.32 -6.54213 5.71376 0
M  V30 50731 H 7032.59 -5.30492 4.44033 0
M  V30 50732 H 7031.72 -4.55889 6.76652 0
M  V30 50733 P 7027.76 -4.23843 7.83734 0
M  V30 50734 O 7027.54 -4.19407 9.29784 0
M  V30 50735 O 7026.97 -5.24426 7.09156 0
M  V30 50736 O 7027.51 -2.7935 7.20758 0
M  V30 50737 C 7028.45 -1.7299 7.50419 0
M  V30 50738 C 7027.72 -0.406376 7.57911 0
M  V30 50739 O 7027.51 0.0897726 6.21935 0
M  V30 50740 C 7026.32 -0.447224 8.1878 0
M  V30 50741 O 7025.93 0.825065 8.71101 0
M  V30 50742 C 7025.44 -0.783801 6.99623 0
M  V30 50743 C 7026.15 -0.0619192 5.85967 0
M  V30 50744 N 7026.1 -0.790462 4.56202 0
M  V30 50745 H 7028.94 -1.93423 8.4679 0
M  V30 50746 H 7029.21 -1.68852 6.70877 0
M  V30 50747 H 7028.34 0.289041 8.15388 0
M  V30 50748 H 7025.69 0.927006 5.72848 0
M  V30 50749 H 7025.41 -1.86973 6.82036 0
M  V30 50750 H 7024.42 -0.403953 7.13357 0
M  V30 50751 H 7026.25 -1.20599 8.97534 0
M  V30 50752 P 7024.38 1.17771 8.83182 0
M  V30 50753 O 7024.16 2.07206 9.98732 0
M  V30 50754 O 7023.59 -0.0743816 8.81969 0
M  V30 50755 O 7024.13 1.97652 7.47304 0
M  V30 50756 C 7025.07 3.01055 7.08599 0
M  V30 50757 C 7024.34 4.12613 6.37049 0
M  V30 50758 O 7024.13 3.72827 4.97879 0
M  V30 50759 C 7022.94 4.45719 6.88164 0
M  V30 50760 O 7022.55 5.7877 6.5624 0
M  V30 50761 C 7022.06 3.47768 6.11991 0
M  V30 50762 C 7022.77 3.39356 4.77615 0
M  V30 50763 N 7022.72 2.04571 4.15244 0
M  V30 50764 C 7022.57 1.98587 2.78314 0
M  V30 50765 O 7022.48 2.98134 2.08835 0
M  V30 50766 N 7022.53 0.714467 2.24925 0
M  V30 50767 C 7022.62 -0.470001 2.94169 0
M  V30 50768 C 7022.77 -0.312541 4.36783 0
M  V30 50769 C 7022.82 0.914512 4.92583 0
M  V30 50770 H 7025.56 3.41169 7.98575 0
M  V30 50771 H 7025.83 2.58295 6.41556 0
M  V30 50772 H 7024.96 5.02657 6.42673 0
M  V30 50773 H 7022.31 4.11637 4.08885 0
M  V30 50774 H 7022.03 2.49626 6.61679 0
M  V30 50775 H 7021.04 3.86566 6.00778 0
M  V30 50776 H 7022.87 4.29943 7.96918 0
M  V30 50777 H 7022.94 1.00937 6.00374 0
M  V30 50778 P 7021 6.144 6.45285 0
M  V30 50779 O 7020.78 7.54673 6.86199 0
M  V30 50780 O 7020.21 5.12391 7.179 0
M  V30 50781 O 7020.75 5.99158 4.88404 0
M  V30 50782 C 7021.69 6.60234 3.96415 0
M  V30 50783 C 7020.96 7.08259 2.72856 0
M  V30 50784 O 7020.75 5.9427 1.83651 0
M  V30 50785 C 7019.56 7.64886 2.9555 0
M  V30 50786 O 7019.17 8.53963 1.90717 0
M  V30 50787 C 7018.68 6.4116 2.90739 0
M  V30 50788 C 7019.39 5.55375 1.86963 0
M  V30 50789 N 7019.34 4.09664 2.15742 0
M  V30 50790 H 7022.18 7.45574 4.45629 0
M  V30 50791 H 7022.45 5.86232 3.67314 0
M  V30 50792 H 7021.58 7.84412 2.24479 0
M  V30 50793 P 7017.62 8.7635 1.60911 0
M  V30 50794 O 7017.4 10.1388 1.11561 0
M  V30 50795 O 7016.83 8.36503 2.79617 0
M  V30 50796 O 7017.37 7.71806 0.42951 0
M  V30 50797 C 7018.31 7.67148 -0.673689 0
M  V30 50798 C 7017.58 7.33374 -1.95559 0
M  V30 50799 O 7017.37 5.88721 -2.00726 0
M  V30 50800 C 7016.18 7.92526 -2.10483 0
M  V30 50801 O 7015.79 8.02971 -3.47653 0
M  V30 50802 C 7015.3 6.89602 -1.41652 0
M  V30 50803 C 7016.01 5.59201 -1.75185 0
M  V30 50804 N 7015.96 4.58235 -0.662552 0
M  V30 50805 H 7018.8 8.65116 -0.777161 0
M  V30 50806 H 7019.07 6.90173 -0.474152 0
M  V30 50807 H 7018.2 7.66548 -2.79458 0
M  V30 50808 P 7014.24 8.03563 -3.84925 0
M  V30 50809 O 7014.02 8.85821 -5.0569 0
M  V30 50810 O 7013.45 8.41101 -2.65469 0
M  V30 50811 O 7013.99 6.4965 -4.18908 0
M  V30 50812 C 7014.93 5.81037 -5.05421 0
M  V30 50813 C 7014.2 4.78366 -5.89277 0
M  V30 50814 O 7013.99 3.58302 -5.08433 0
M  V30 50815 C 7012.8 5.17448 -6.36119 0
M  V30 50816 O 7012.41 4.45271 -7.53232 0
M  V30 50817 C 7011.92 4.74639 -5.19936 0
M  V30 50818 C 7012.63 3.49432 -4.70418 0
M  V30 50819 N 7012.58 3.31776 -3.22945 0
M  V30 50820 H 7015.42 6.54213 -5.71376 0
M  V30 50821 H 7015.69 5.30492 -4.44033 0
M  V30 50822 H 7014.82 4.55889 -6.76652 0
M  V30 50823 P 7010.86 4.23843 -7.83734 0
M  V30 50824 O 7010.64 4.19407 -9.29784 0
M  V30 50825 O 7010.07 5.24426 -7.09156 0
M  V30 50826 O 7010.61 2.7935 -7.20758 0
M  V30 50827 C 7011.55 1.7299 -7.50419 0
M  V30 50828 C 7010.82 0.406376 -7.57911 0
M  V30 50829 O 7010.61 -0.0897726 -6.21935 0
M  V30 50830 C 7009.42 0.447224 -8.1878 0
M  V30 50831 O 7009.03 -0.825065 -8.71101 0
M  V30 50832 C 7008.54 0.783801 -6.99623 0
M  V30 50833 C 7009.25 0.0619192 -5.85967 0
M  V30 50834 N 7009.2 0.7859 -4.56281 0
M  V30 50835 H 7012.04 1.93423 -8.4679 0
M  V30 50836 H 7012.31 1.68181 -6.71046 0
M  V30 50837 H 7011.44 -0.289041 -8.15388 0
M  V30 50838 P 7007.48 -1.17771 -8.83182 0
M  V30 50839 O 7007.26 -2.07206 -9.98732 0
M  V30 50840 O 7006.69 0.0743816 -8.81969 0
M  V30 50841 O 7007.23 -1.97652 -7.47304 0
M  V30 50842 C 7008.17 -3.01133 -7.08783 0
M  V30 50843 C 7007.44 -4.12613 -6.37049 0
M  V30 50844 O 7007.23 -3.72827 -4.97879 0
M  V30 50845 C 7006.04 -4.45085 -6.88694 0
M  V30 50846 O 7005.65 -5.7877 -6.5624 0
M  V30 50847 C 7005.16 -3.47817 -6.12078 0
M  V30 50848 C 7005.87 -3.39414 -4.77697 0
M  V30 50849 N 7005.82 -2.04615 -4.15333 0
M  V30 50850 H 7008.66 -3.41248 -7.98759 0
M  V30 50851 H 7008.93 -2.5837 -6.41742 0
M  V30 50852 H 7008.06 -5.02657 -6.42673 0
M  V30 50853 P 7004.1 -6.144 -6.45285 0
M  V30 50854 O 7003.88 -7.54673 -6.86199 0
M  V30 50855 O 7003.31 -5.12391 -7.179 0
M  V30 50856 O 7003.85 -5.99158 -4.88404 0
M  V30 50857 C 7004.79 -6.60062 -3.96313 0
M  V30 50858 C 7004.06 -7.08259 -2.72856 0
M  V30 50859 O 7003.85 -5.9427 -1.83651 0
M  V30 50860 C 7002.66 -7.65087 -2.94749 0
M  V30 50861 O 7002.27 -8.53963 -1.90717 0
M  V30 50862 C 7001.78 -6.41069 -2.90698 0
M  V30 50863 C 7002.49 -5.5528 -1.86931 0
M  V30 50864 N 7002.44 -4.09575 -2.15696 0
M  V30 50865 C 7002.29 -3.24249 -1.08435 0
M  V30 50866 O 7002.2 -3.63946 0.0628747 0
M  V30 50867 N 7002.25 -1.90009 -1.39973 0
M  V30 50868 C 7002.34 -1.34884 -2.65614 0
M  V30 50869 C 7002.49 -2.3145 -3.71736 0
M  V30 50870 C 7002.54 -3.63518 -3.44754 0
M  V30 50871 H 7005.28 -7.45402 -4.45526 0
M  V30 50872 H 7005.55 -5.86062 -3.67208 0
M  V30 50873 H 7004.68 -7.84412 -2.24479 0
M  V30 50874 H 7002.03 -5.73358 -0.888409 0
M  V30 50875 H 7001.75 -5.90877 -3.88583 0
M  V30 50876 H 7000.76 -6.65867 -2.58821 0
M  V30 50877 H 7002.59 -8.16248 -3.92006 0
M  V30 50878 H 7002.66 -4.34551 -4.26383 0
M  V30 50879 P 7000.72 -8.7635 -1.60911 0
M  V30 50880 O 7000.5 -10.1388 -1.11561 0
M  V30 50881 O 6999.93 -8.36503 -2.79617 0
M  V30 50882 O 7000.47 -7.71806 -0.42951 0
M  V30 50883 C 7001.41 -7.67148 0.673689 0
M  V30 50884 C 7000.68 -7.33374 1.95559 0
M  V30 50885 O 7000.47 -5.88721 2.00726 0
M  V30 50886 C 6999.28 -7.92526 2.10483 0
M  V30 50887 O 6998.89 -8.02971 3.47653 0
M  V30 50888 C 6998.4 -6.89602 1.41652 0
M  V30 50889 C 6999.11 -5.59201 1.75185 0
M  V30 50890 N 6999.06 -4.58235 0.662552 0
M  V30 50891 H 7001.9 -8.65116 0.777161 0
M  V30 50892 H 7002.17 -6.90173 0.474152 0
M  V30 50893 H 7001.3 -7.66548 2.79458 0
M  V30 50894 P 6997.34 -8.03563 3.84925 0
M  V30 50895 O 6997.12 -8.85821 5.0569 0
M  V30 50896 O 6996.55 -8.41101 2.65469 0
M  V30 50897 O 6997.09 -6.4965 4.18908 0
M  V30 50898 C 6998.03 -5.81037 5.05421 0
M  V30 50899 C 6997.3 -4.78366 5.89277 0
M  V30 50900 O 6997.09 -3.58302 5.08433 0
M  V30 50901 C 6995.9 -5.17448 6.36119 0
M  V30 50902 O 6995.51 -4.45271 7.53232 0
M  V30 50903 C 6995.02 -4.74639 5.19936 0
M  V30 50904 C 6995.73 -3.49432 4.70418 0
M  V30 50905 N 6995.68 -3.31776 3.22945 0
M  V30 50906 H 6998.52 -6.54213 5.71376 0
M  V30 50907 H 6998.79 -5.30492 4.44033 0
M  V30 50908 H 6997.92 -4.55889 6.76652 0
M  V30 50909 P 6993.96 -4.23843 7.83734 0
M  V30 50910 O 6993.74 -4.19407 9.29784 0
M  V30 50911 O 6993.17 -5.24426 7.09156 0
M  V30 50912 O 6993.71 -2.7935 7.20758 0
M  V30 50913 C 6994.65 -1.7299 7.50419 0
M  V30 50914 C 6993.92 -0.406376 7.57911 0
M  V30 50915 O 6993.71 0.0897726 6.21935 0
M  V30 50916 C 6992.52 -0.447224 8.1878 0
M  V30 50917 O 6992.13 0.825065 8.71101 0
M  V30 50918 C 6991.64 -0.783801 6.99623 0
M  V30 50919 C 6992.35 -0.0619192 5.85967 0
M  V30 50920 N 6992.3 -0.7859 4.56281 0
M  V30 50921 C 6992.38 -2.14308 4.31736 0
M  V30 50922 N 6992.3 -2.46106 3.05116 0
M  V30 50923 C 6992.16 -1.23422 2.4014 0
M  V30 50924 C 6992.03 -0.938381 1.02409 0
M  V30 50925 N 6991.91 0.444647 0.805413 0
M  V30 50926 C 6991.91 1.40829 1.79435 0
M  V30 50927 N 6991.78 2.67213 1.38558 0
M  V30 50928 N 6992.04 1.12947 3.09005 0
M  V30 50929 C 6992.16 -0.204887 3.32369 0
M  V30 50930 H 6995.14 -1.93423 8.4679 0
M  V30 50931 H 6995.41 -1.68181 6.71046 0
M  V30 50932 H 6994.54 0.289041 8.15388 0
M  V30 50933 P 6990.58 1.17771 8.83182 0
M  V30 50934 O 6990.36 2.07206 9.98732 0
M  V30 50935 O 6989.79 -0.0743816 8.81969 0
M  V30 50936 O 6990.33 1.97652 7.47304 0
M  V30 50937 C 6991.27 3.01133 7.08783 0
M  V30 50938 C 6990.54 4.12613 6.37049 0
M  V30 50939 O 6990.33 3.72827 4.97879 0
M  V30 50940 C 6989.14 4.45085 6.88694 0
M  V30 50941 O 6988.75 5.7877 6.5624 0
M  V30 50942 C 6988.26 3.47817 6.12078 0
M  V30 50943 C 6988.97 3.39414 4.77697 0
M  V30 50944 N 6988.92 2.04615 4.15333 0
M  V30 50945 H 6991.76 3.41248 7.98759 0
M  V30 50946 H 6992.03 2.5837 6.41742 0
M  V30 50947 H 6991.16 5.02657 6.42673 0
M  V30 50948 P 6987.2 6.144 6.45285 0
M  V30 50949 O 6986.98 7.54673 6.86199 0
M  V30 50950 O 6986.41 5.12391 7.179 0
M  V30 50951 O 6986.95 5.99158 4.88404 0
M  V30 50952 C 6987.89 6.60234 3.96415 0
M  V30 50953 C 6987.16 7.08259 2.72856 0
M  V30 50954 O 6986.95 5.9427 1.83651 0
M  V30 50955 C 6985.76 7.64886 2.9555 0
M  V30 50956 O 6985.37 8.53963 1.90717 0
M  V30 50957 C 6984.88 6.4116 2.90739 0
M  V30 50958 C 6985.59 5.55375 1.86963 0
M  V30 50959 N 6985.54 4.09664 2.15742 0
M  V30 50960 C 6985.62 3.44381 3.37233 0
M  V30 50961 N 6985.54 2.14131 3.28347 0
M  V30 50962 C 6985.4 1.90247 1.91588 0
M  V30 50963 C 6985.27 0.683992 1.20892 0
M  V30 50964 O 6985.25 -0.46618 1.64523 0
M  V30 50965 N 6985.15 0.903396 -0.173998 0
M  V30 50966 C 6985.15 2.14171 -0.784879 0
M  V30 50967 N 6985.02 2.1435 -2.11317 0
M  V30 50968 N 6985.28 3.28784 -0.119316 0
M  V30 50969 C 6985.4 3.0977 1.22194 0
M  V30 50970 H 6988.38 7.45574 4.45629 0
M  V30 50971 H 6988.65 5.86232 3.67314 0
M  V30 50972 H 6987.78 7.84412 2.24479 0
M  V30 50973 H 6985.13 5.73556 0.888715 0
M  V30 50974 H 6984.85 5.9096 3.88638 0
M  V30 50975 H 6983.86 6.66053 2.58894 0
M  V30 50976 H 6985.69 8.16429 3.92093 0
M  V30 50977 H 6985.74 3.96785 4.32043 0
M  V30 50978 H 6985.06 0.0999567 -0.761467 0
M  V30 50979 H 6985.02 3.03436 -2.63076 0
M  V30 50980 H 6984.92 1.25228 -2.62233 0
M  V30 50981 P 6983.82 8.7635 1.60911 0
M  V30 50982 O 6983.6 10.1388 1.11561 0
M  V30 50983 O 6983.03 8.36503 2.79617 0
M  V30 50984 O 6983.57 7.71906 0.429565 0
M  V30 50985 C 6984.51 7.67148 -0.673689 0
M  V30 50986 C 6983.78 7.33666 -1.94851 0
M  V30 50987 O 6983.57 5.88816 -2.00759 0
M  V30 50988 C 6982.38 7.92526 -2.10483 0
M  V30 50989 O 6981.99 8.03063 -3.47693 0
M  V30 50990 C 6981.5 6.89602 -1.41652 0
M  V30 50991 C 6982.21 5.59201 -1.75185 0
M  V30 50992 N 6982.16 4.58235 -0.662552 0
M  V30 50993 C 6982.01 3.24451 -1.01643 0
M  V30 50994 O 6981.92 2.94958 -2.21722 0
M  V30 50995 N 6981.96 2.30408 0.165238 0
M  V30 50996 C 6982.06 2.66048 1.25118 0
M  V30 50997 N 6982.01 1.70787 2.16813 0
M  V30 50998 C 6982.21 4.02732 1.64413 0
M  V30 50999 C 6982.26 4.9488 0.63991 0
M  V30 51000 H 6985 8.65017 -0.777072 0
M  V30 51001 H 6985.27 6.90173 -0.474152 0
M  V30 51002 H 6984.4 7.66642 -2.79492 0
M  V30 51003 H 6981.75 5.16254 -2.65229 0
M  V30 51004 H 6981.47 7.06532 -0.329431 0
M  V30 51005 H 6980.48 6.91023 -1.82047 0
M  V30 51006 H 6982.31 8.90873 -1.62657 0
M  V30 51007 H 6982.38 6.00104 0.892197 0
M  V30 51008 H 6982.28 4.31733 2.69229 0
M  V30 51009 H 6981.89 0.724835 1.8844 0
M  V30 51010 H 6982.09 1.94716 3.16734 0
M  V30 51011 P 6980.44 8.03563 -3.84925 0
M  V30 51012 O 6980.22 8.85821 -5.0569 0
M  V30 51013 O 6979.65 8.41101 -2.65469 0
M  V30 51014 O 6980.19 6.4965 -4.18908 0
M  V30 51015 C 6981.13 5.81037 -5.05421 0
M  V30 51016 C 6980.4 4.78366 -5.89277 0
M  V30 51017 O 6980.19 3.58302 -5.08433 0
M  V30 51018 C 6979 5.17448 -6.36119 0
M  V30 51019 O 6978.61 4.45271 -7.53232 0
M  V30 51020 C 6978.12 4.74639 -5.19936 0
M  V30 51021 C 6978.83 3.49432 -4.70418 0
M  V30 51022 N 6978.78 3.32099 -3.22613 0
M  V30 51023 H 6981.62 6.54213 -5.71376 0
M  V30 51024 H 6981.89 5.30936 -4.43503 0
M  V30 51025 H 6981.02 4.55889 -6.76652 0
M  V30 51026 H 6978.37 2.61715 -5.17932 0
M  V30 51027 H 6978.09 5.52155 -4.41878 0
M  V30 51028 H 6977.1 4.51981 -5.53374 0
M  V30 51029 H 6978.93 6.25124 -6.55234 0
M  V30 51030 P 6977.06 4.23843 -7.83734 0
M  V30 51031 O 6976.84 4.19407 -9.29784 0
M  V30 51032 O 6976.27 5.24426 -7.09156 0
M  V30 51033 O 6976.81 2.7935 -7.20758 0
M  V30 51034 C 6977.75 1.7299 -7.50419 0
M  V30 51035 C 6977.02 0.406376 -7.57911 0
M  V30 51036 O 6976.81 -0.0897726 -6.21935 0
M  V30 51037 C 6975.62 0.447224 -8.1878 0
M  V30 51038 O 6975.23 -0.825065 -8.71101 0
M  V30 51039 C 6974.74 0.783801 -6.99623 0
M  V30 51040 C 6975.45 0.0619192 -5.85967 0
M  V30 51041 N 6975.4 0.790462 -4.56202 0
M  V30 51042 H 6978.24 1.93423 -8.4679 0
M  V30 51043 H 6978.51 1.68852 -6.70877 0
M  V30 51044 H 6977.64 -0.289041 -8.15388 0
M  V30 51045 H 6974.99 -0.927006 -5.72848 0
M  V30 51046 H 6974.71 1.86973 -6.82036 0
M  V30 51047 H 6973.72 0.403953 -7.13357 0
M  V30 51048 H 6975.55 1.20599 -8.97534 0
M  V30 51049 P 6973.68 -1.17771 -8.83182 0
M  V30 51050 O 6973.46 -2.07206 -9.98732 0
M  V30 51051 O 6972.89 0.0743816 -8.81969 0
M  V30 51052 O 6973.43 -1.97652 -7.47304 0
M  V30 51053 C 6974.37 -3.01133 -7.08783 0
M  V30 51054 C 6973.64 -4.12613 -6.37049 0
M  V30 51055 O 6973.43 -3.72827 -4.97879 0
M  V30 51056 C 6972.24 -4.45085 -6.88694 0
M  V30 51057 O 6971.85 -5.7877 -6.5624 0
M  V30 51058 C 6971.36 -3.47817 -6.12078 0
M  V30 51059 C 6972.07 -3.39414 -4.77697 0
M  V30 51060 N 6972.02 -2.04615 -4.15333 0
M  V30 51061 H 6974.86 -3.41248 -7.98759 0
M  V30 51062 H 6975.13 -2.5837 -6.41742 0
M  V30 51063 H 6974.26 -5.02657 -6.42673 0
M  V30 51064 P 6970.3 -6.144 -6.45285 0
M  V30 51065 O 6970.08 -7.54673 -6.86199 0
M  V30 51066 O 6969.51 -5.12391 -7.179 0
M  V30 51067 O 6970.05 -5.99158 -4.88404 0
M  V30 51068 C 6970.99 -6.60234 -3.96415 0
M  V30 51069 C 6970.26 -7.08259 -2.72856 0
M  V30 51070 O 6970.05 -5.9427 -1.83651 0
M  V30 51071 C 6968.86 -7.64886 -2.9555 0
M  V30 51072 O 6968.47 -8.53963 -1.90717 0
M  V30 51073 C 6967.98 -6.4116 -2.90739 0
M  V30 51074 C 6968.69 -5.55375 -1.86963 0
M  V30 51075 N 6968.64 -4.09448 -2.16152 0
M  V30 51076 H 6971.48 -7.45574 -4.45629 0
M  V30 51077 H 6971.75 -5.85864 -3.679 0
M  V30 51078 H 6970.88 -7.84412 -2.24479 0
M  V30 51079 H 6968.23 -5.73457 -0.888562 0
M  V30 51080 H 6967.95 -5.90877 -3.88583 0
M  V30 51081 H 6966.96 -6.6596 -2.58858 0
M  V30 51082 H 6968.79 -8.16339 -3.92049 0
M  V30 51083 P 6966.92 -8.7635 -1.60911 0
M  V30 51084 O 6966.7 -10.1388 -1.11561 0
M  V30 51085 O 6966.13 -8.36503 -2.79617 0
M  V30 51086 O 6966.67 -7.71806 -0.42951 0
M  V30 51087 C 6967.61 -7.67148 0.673689 0
M  V30 51088 C 6966.88 -7.33374 1.95559 0
M  V30 51089 O 6966.67 -5.88721 2.00726 0
M  V30 51090 C 6965.48 -7.92526 2.10483 0
M  V30 51091 O 6965.09 -8.02971 3.47653 0
M  V30 51092 C 6964.6 -6.89602 1.41652 0
M  V30 51093 C 6965.31 -5.59201 1.75185 0
M  V30 51094 N 6965.26 -4.58235 0.662552 0
M  V30 51095 H 6968.1 -8.65116 0.777161 0
M  V30 51096 H 6968.37 -6.90173 0.474152 0
M  V30 51097 H 6967.5 -7.66548 2.79458 0
M  V30 51098 P 6963.54 -8.03563 3.84925 0
M  V30 51099 O 6963.32 -8.85821 5.0569 0
M  V30 51100 O 6962.75 -8.41101 2.65469 0
M  V30 51101 O 6963.29 -6.4965 4.18908 0
M  V30 51102 C 6964.23 -5.81037 5.05421 0
M  V30 51103 C 6963.5 -4.78366 5.89277 0
M  V30 51104 O 6963.29 -3.58302 5.08433 0
M  V30 51105 C 6962.1 -5.17448 6.36119 0
M  V30 51106 O 6961.71 -4.45271 7.53232 0
M  V30 51107 C 6961.22 -4.74639 5.19936 0
M  V30 51108 C 6961.93 -3.49432 4.70418 0
M  V30 51109 N 6961.88 -3.31776 3.22945 0
M  V30 51110 C 6961.96 -4.27147 2.23315 0
M  V30 51111 N 6961.88 -3.78447 1.02186 0
M  V30 51112 C 6961.74 -2.41001 1.21732 0
M  V30 51113 C 6961.61 -1.36111 0.27694 0
M  V30 51114 O 6961.59 -1.42065 -0.951767 0
M  V30 51115 N 6961.49 -0.113683 0.912949 0
M  V30 51116 C 6961.49 0.0846396 2.27943 0
M  V30 51117 N 6961.36 1.34737 2.6916 0
M  V30 51118 N 6961.62 -0.902521 3.16379 0
M  V30 51119 C 6961.74 -2.11937 2.56849 0
M  V30 51120 H 6964.72 -6.54213 5.71376 0
M  V30 51121 H 6964.99 -5.30492 4.44033 0
M  V30 51122 H 6964.12 -4.55889 6.76652 0
M  V30 51123 H 6961.47 -2.6176 5.18021 0
M  V30 51124 H 6961.19 -5.52233 4.41941 0
M  V30 51125 H 6960.2 -4.52045 5.53452 0
M  V30 51126 H 6962.03 -6.25193 6.55307 0
M  V30 51127 H 6962.08 -5.3351 2.43857 0
M  V30 51128 H 6961.4 0.69331 0.330371 0
M  V30 51129 H 6961.36 1.56433 3.6988 0
M  V30 51130 H 6961.26 2.10701 2.00133 0
M  V30 51131 P 6960.16 -4.23843 7.83734 0
M  V30 51132 O 6959.94 -4.19407 9.29784 0
M  V30 51133 O 6959.37 -5.24426 7.09156 0
M  V30 51134 O 6959.91 -2.7935 7.20758 0
M  V30 51135 C 6960.85 -1.7299 7.50419 0
M  V30 51136 C 6960.12 -0.406376 7.57911 0
M  V30 51137 O 6959.91 0.0897726 6.21935 0
M  V30 51138 C 6958.72 -0.447224 8.1878 0
M  V30 51139 O 6958.33 0.825065 8.71101 0
M  V30 51140 C 6957.84 -0.783801 6.99623 0
M  V30 51141 C 6958.55 -0.0619192 5.85967 0
M  V30 51142 N 6958.5 -0.7859 4.56281 0
M  V30 51143 H 6961.34 -1.93423 8.4679 0
M  V30 51144 H 6961.61 -1.68181 6.71046 0
M  V30 51145 H 6960.74 0.289041 8.15388 0
M  V30 51146 P 6956.78 1.17771 8.83182 0
M  V30 51147 O 6956.56 2.07206 9.98732 0
M  V30 51148 O 6955.99 -0.0743816 8.81969 0
M  V30 51149 O 6956.53 1.97652 7.47304 0
M  V30 51150 C 6957.47 3.01133 7.08783 0
M  V30 51151 C 6956.74 4.12613 6.37049 0
M  V30 51152 O 6956.53 3.72827 4.97879 0
M  V30 51153 C 6955.34 4.45085 6.88694 0
M  V30 51154 O 6954.95 5.7877 6.5624 0
M  V30 51155 C 6954.46 3.47817 6.12078 0
M  V30 51156 C 6955.17 3.39414 4.77697 0
M  V30 51157 N 6955.12 2.04199 4.15538 0
M  V30 51158 H 6957.96 3.41248 7.98759 0
M  V30 51159 H 6958.23 2.57728 6.42 0
M  V30 51160 H 6957.36 5.02657 6.42673 0
M  V30 51161 H 6954.71 4.11708 4.08956 0
M  V30 51162 H 6954.43 2.49626 6.61679 0
M  V30 51163 H 6953.44 3.8662 6.00862 0
M  V30 51164 H 6955.27 4.29991 7.97006 0
M  V30 51165 P 6953.4 6.144 6.45285 0
M  V30 51166 O 6953.18 7.54673 6.86199 0
M  V30 51167 O 6952.61 5.12391 7.179 0
M  V30 51168 O 6953.15 5.99158 4.88404 0
M  V30 51169 C 6954.09 6.60234 3.96415 0
M  V30 51170 C 6953.36 7.08259 2.72856 0
M  V30 51171 O 6953.15 5.9427 1.83651 0
M  V30 51172 C 6951.96 7.64886 2.9555 0
M  V30 51173 O 6951.57 8.53963 1.90717 0
M  V30 51174 C 6951.08 6.4116 2.90739 0
M  V30 51175 C 6951.79 5.55375 1.86963 0
M  V30 51176 N 6951.74 4.09664 2.15742 0
M  V30 51177 H 6954.58 7.45574 4.45629 0
M  V30 51178 H 6954.85 5.86232 3.67314 0
M  V30 51179 H 6953.98 7.84412 2.24479 0
M  V30 51180 P 6950.02 8.7635 1.60911 0
M  V30 51181 O 6949.8 10.1388 1.11561 0
M  V30 51182 O 6949.23 8.36503 2.79617 0
M  V30 51183 O 6949.77 7.71806 0.42951 0
M  V30 51184 C 6950.71 7.67148 -0.673689 0
M  V30 51185 C 6949.98 7.33374 -1.95559 0
M  V30 51186 O 6949.77 5.88721 -2.00726 0
M  V30 51187 C 6948.58 7.92526 -2.10483 0
M  V30 51188 O 6948.19 8.02971 -3.47653 0
M  V30 51189 C 6947.7 6.89602 -1.41652 0
M  V30 51190 C 6948.41 5.59201 -1.75185 0
M  V30 51191 N 6948.36 4.58235 -0.662552 0
M  V30 51192 H 6951.2 8.65116 -0.777161 0
M  V30 51193 H 6951.47 6.90173 -0.474152 0
M  V30 51194 H 6950.6 7.66548 -2.79458 0
M  V30 51195 P 6946.64 8.03563 -3.84925 0
M  V30 51196 O 6946.42 8.85821 -5.0569 0
M  V30 51197 O 6945.85 8.41101 -2.65469 0
M  V30 51198 O 6946.39 6.4965 -4.18908 0
M  V30 51199 C 6947.33 5.81037 -5.05421 0
M  V30 51200 C 6946.6 4.78366 -5.89277 0
M  V30 51201 O 6946.39 3.58302 -5.08433 0
M  V30 51202 C 6945.2 5.17448 -6.36119 0
M  V30 51203 O 6944.81 4.45271 -7.53232 0
M  V30 51204 C 6944.32 4.74639 -5.19936 0
M  V30 51205 C 6945.03 3.49432 -4.70418 0
M  V30 51206 N 6944.98 3.32099 -3.22613 0
M  V30 51207 H 6947.82 6.54213 -5.71376 0
M  V30 51208 H 6948.09 5.30936 -4.43503 0
M  V30 51209 H 6947.22 4.55889 -6.76652 0
M  V30 51210 H 6944.57 2.61715 -5.17932 0
M  V30 51211 H 6944.29 5.52155 -4.41878 0
M  V30 51212 H 6943.3 4.51981 -5.53374 0
M  V30 51213 H 6945.13 6.25124 -6.55234 0
M  V30 51214 P 6943.26 4.23843 -7.83734 0
M  V30 51215 O 6943.04 4.19407 -9.29784 0
M  V30 51216 O 6942.47 5.24426 -7.09156 0
M  V30 51217 O 6943.01 2.7935 -7.20758 0
M  V30 51218 C 6943.95 1.7299 -7.50419 0
M  V30 51219 C 6943.22 0.406376 -7.57911 0
M  V30 51220 O 6943.01 -0.0897726 -6.21935 0
M  V30 51221 C 6941.82 0.447224 -8.1878 0
M  V30 51222 O 6941.43 -0.825065 -8.71101 0
M  V30 51223 C 6940.94 0.783801 -6.99623 0
M  V30 51224 C 6941.65 0.0619192 -5.85967 0
M  V30 51225 N 6941.6 0.7859 -4.56281 0
M  V30 51226 H 6944.44 1.93423 -8.4679 0
M  V30 51227 H 6944.71 1.68181 -6.71046 0
M  V30 51228 H 6943.84 -0.289041 -8.15388 0
M  V30 51229 P 6939.88 -1.17771 -8.83182 0
M  V30 51230 O 6939.66 -2.07206 -9.98732 0
M  V30 51231 O 6939.09 0.0743816 -8.81969 0
M  V30 51232 O 6939.63 -1.97652 -7.47304 0
M  V30 51233 C 6940.57 -3.01133 -7.08783 0
M  V30 51234 C 6939.84 -4.12613 -6.37049 0
M  V30 51235 O 6939.63 -3.72827 -4.97879 0
M  V30 51236 C 6938.44 -4.45085 -6.88694 0
M  V30 51237 O 6938.05 -5.7877 -6.5624 0
M  V30 51238 C 6937.56 -3.47817 -6.12078 0
M  V30 51239 C 6938.27 -3.39414 -4.77697 0
M  V30 51240 N 6938.22 -2.04615 -4.15333 0
M  V30 51241 H 6941.06 -3.41248 -7.98759 0
M  V30 51242 H 6941.33 -2.5837 -6.41742 0
M  V30 51243 H 6940.46 -5.02657 -6.42673 0
M  V30 51244 P 6936.5 -6.144 -6.45285 0
M  V30 51245 O 6936.28 -7.54673 -6.86199 0
M  V30 51246 O 6935.71 -5.12391 -7.179 0
M  V30 51247 O 6936.25 -5.99158 -4.88404 0
M  V30 51248 C 6937.19 -6.60234 -3.96415 0
M  V30 51249 C 6936.46 -7.08259 -2.72856 0
M  V30 51250 O 6936.25 -5.9427 -1.83651 0
M  V30 51251 C 6935.06 -7.64886 -2.9555 0
M  V30 51252 O 6934.67 -8.53963 -1.90717 0
M  V30 51253 C 6934.18 -6.4116 -2.90739 0
M  V30 51254 C 6934.89 -5.55375 -1.86963 0
M  V30 51255 N 6934.84 -4.09448 -2.16152 0
M  V30 51256 C 6934.92 -3.46824 -3.37593 0
M  V30 51257 N 6934.85 -2.17422 -3.29777 0
M  V30 51258 C 6934.7 -1.93065 -1.94427 0
M  V30 51259 C 6934.57 -0.738053 -1.20141 0
M  V30 51260 N 6934.56 0.474256 -1.74676 0
M  V30 51261 N 6934.45 -0.850049 0.13045 0
M  V30 51262 C 6934.46 -2.06169 0.676992 0
M  V30 51263 N 6934.58 -3.23842 0.101312 0
M  V30 51264 C 6934.7 -3.09402 -1.23122 0
M  V30 51265 H 6937.68 -7.45574 -4.45629 0
M  V30 51266 H 6937.95 -5.85864 -3.679 0
M  V30 51267 H 6937.08 -7.84412 -2.24479 0
M  V30 51268 H 6934.43 -5.73457 -0.888562 0
M  V30 51269 H 6934.15 -5.90877 -3.88583 0
M  V30 51270 H 6933.16 -6.6596 -2.58858 0
M  V30 51271 H 6934.99 -8.16339 -3.92049 0
M  V30 51272 H 6935.03 -4.00505 -4.3174 0
M  V30 51273 H 6934.65 0.581337 -2.76658 0
M  V30 51274 H 6934.46 1.30811 -1.14888 0
M  V30 51275 H 6934.35 -2.08295 1.75542 0
M  V30 51276 P 6933.12 -8.7635 -1.60911 0
M  V30 51277 O 6932.9 -10.1388 -1.11561 0
M  V30 51278 O 6932.33 -8.36503 -2.79617 0
M  V30 51279 O 6932.87 -7.71806 -0.42951 0
M  V30 51280 C 6933.81 -7.67148 0.673689 0
M  V30 51281 C 6933.08 -7.33374 1.95559 0
M  V30 51282 O 6932.87 -5.88721 2.00726 0
M  V30 51283 C 6931.68 -7.92526 2.10483 0
M  V30 51284 O 6931.29 -8.02971 3.47653 0
M  V30 51285 C 6930.8 -6.89602 1.41652 0
M  V30 51286 C 6931.51 -5.59201 1.75185 0
M  V30 51287 N 6931.46 -4.58235 0.662552 0
M  V30 51288 H 6934.3 -8.65116 0.777161 0
M  V30 51289 H 6934.57 -6.90173 0.474152 0
M  V30 51290 H 6933.7 -7.66548 2.79458 0
M  V30 51291 P 6929.74 -8.03563 3.84925 0
M  V30 51292 O 6929.52 -8.85821 5.0569 0
M  V30 51293 O 6928.95 -8.41101 2.65469 0
M  V30 51294 O 6929.49 -6.4965 4.18908 0
M  V30 51295 C 6930.43 -5.81037 5.05421 0
M  V30 51296 C 6929.7 -4.78366 5.89277 0
M  V30 51297 O 6929.49 -3.58302 5.08433 0
M  V30 51298 C 6928.3 -5.17448 6.36119 0
M  V30 51299 O 6927.91 -4.45271 7.53232 0
M  V30 51300 C 6927.42 -4.74639 5.19936 0
M  V30 51301 C 6928.13 -3.49432 4.70418 0
M  V30 51302 N 6928.08 -3.31776 3.22945 0
M  V30 51303 H 6930.92 -6.54213 5.71376 0
M  V30 51304 H 6931.19 -5.30492 4.44033 0
M  V30 51305 H 6930.32 -4.55889 6.76652 0
M  V30 51306 P 6926.36 -4.23843 7.83734 0
M  V30 51307 O 6926.14 -4.19407 9.29784 0
M  V30 51308 O 6925.57 -5.24426 7.09156 0
M  V30 51309 O 6926.11 -2.7935 7.20758 0
M  V30 51310 C 6927.05 -1.7299 7.50419 0
M  V30 51311 C 6926.32 -0.406376 7.57911 0
M  V30 51312 O 6926.11 0.0897726 6.21935 0
M  V30 51313 C 6924.92 -0.447224 8.1878 0
M  V30 51314 O 6924.53 0.825065 8.71101 0
M  V30 51315 C 6924.04 -0.783801 6.99623 0
M  V30 51316 C 6924.75 -0.0619192 5.85967 0
M  V30 51317 N 6924.7 -0.7859 4.56281 0
M  V30 51318 H 6927.54 -1.93423 8.4679 0
M  V30 51319 H 6927.81 -1.68181 6.71046 0
M  V30 51320 H 6926.94 0.289041 8.15388 0
M  V30 51321 P 6922.98 1.17771 8.83182 0
M  V30 51322 O 6922.76 2.07206 9.98732 0
M  V30 51323 O 6922.19 -0.0743816 8.81969 0
M  V30 51324 O 6922.73 1.97678 7.474 0
M  V30 51325 C 6923.67 3.01133 7.08783 0
M  V30 51326 C 6922.94 4.1203 6.37546 0
M  V30 51327 O 6922.73 3.72887 4.9796 0
M  V30 51328 C 6921.54 4.45085 6.88694 0
M  V30 51329 O 6921.15 5.78836 6.56315 0
M  V30 51330 C 6920.66 3.47817 6.12078 0
M  V30 51331 C 6921.37 3.39414 4.77697 0
M  V30 51332 N 6921.32 2.04615 4.15333 0
M  V30 51333 C 6921.17 1.96929 2.77162 0
M  V30 51334 O 6921.08 3.02017 2.12006 0
M  V30 51335 N 6921.12 0.55485 2.24237 0
M  V30 51336 C 6921.22 -0.367808 2.9169 0
M  V30 51337 N 6921.17 -1.53426 2.29427 0
M  V30 51338 C 6921.37 -0.319148 4.33828 0
M  V30 51339 C 6921.42 0.920672 4.90433 0
M  V30 51340 H 6924.16 3.41209 7.98667 0
M  V30 51341 H 6924.43 2.5837 6.41742 0
M  V30 51342 H 6923.56 5.02718 6.42752 0
M  V30 51343 H 6920.91 4.11779 4.09026 0
M  V30 51344 H 6920.63 2.49661 6.61772 0
M  V30 51345 H 6919.64 3.86674 6.00946 0
M  V30 51346 H 6921.47 4.29991 7.97006 0
M  V30 51347 H 6921.54 1.00589 5.98303 0
M  V30 51348 H 6921.44 -1.22639 4.93799 0
M  V30 51349 H 6921.05 -1.56819 1.27167 0
M  V30 51350 H 6921.25 -2.41062 2.83063 0
M  V30 51351 P 6919.6 6.144 6.45285 0
M  V30 51352 O 6919.38 7.54673 6.86199 0
M  V30 51353 O 6918.81 5.12391 7.179 0
M  V30 51354 O 6919.35 5.99158 4.88404 0
M  V30 51355 C 6920.29 6.60234 3.96415 0
M  V30 51356 C 6919.56 7.08259 2.72856 0
M  V30 51357 O 6919.35 5.9427 1.83651 0
M  V30 51358 C 6918.16 7.64886 2.9555 0
M  V30 51359 O 6917.77 8.53963 1.90717 0
M  V30 51360 C 6917.28 6.4116 2.90739 0
M  V30 51361 C 6917.99 5.55375 1.86963 0
M  V30 51362 N 6917.94 4.09664 2.15742 0
M  V30 51363 C 6918.02 3.44381 3.37233 0
M  V30 51364 N 6917.94 2.14131 3.28347 0
M  V30 51365 C 6917.8 1.90247 1.91588 0
M  V30 51366 C 6917.67 0.683992 1.20892 0
M  V30 51367 N 6917.55 0.903396 -0.173998 0
M  V30 51368 C 6917.55 2.14171 -0.784879 0
M  V30 51369 N 6917.42 2.1435 -2.11317 0
M  V30 51370 N 6917.68 3.28784 -0.119316 0
M  V30 51371 C 6917.8 3.0977 1.22194 0
M  V30 51372 H 6920.78 7.45574 4.45629 0
M  V30 51373 H 6921.05 5.86232 3.67314 0
M  V30 51374 H 6920.18 7.84412 2.24479 0
M  V30 51375 P 6916.22 8.7635 1.60911 0
M  V30 51376 O 6916 10.1388 1.11561 0
M  V30 51377 O 6915.43 8.36503 2.79617 0
M  V30 51378 O 6915.97 7.71806 0.42951 0
M  V30 51379 C 6916.91 7.67148 -0.673689 0
M  V30 51380 C 6916.18 7.33374 -1.95559 0
M  V30 51381 O 6915.97 5.88721 -2.00726 0
M  V30 51382 C 6914.78 7.92526 -2.10483 0
M  V30 51383 O 6914.39 8.02971 -3.47653 0
M  V30 51384 C 6913.9 6.89602 -1.41652 0
M  V30 51385 C 6914.61 5.59201 -1.75185 0
M  V30 51386 N 6914.56 4.58235 -0.662552 0
M  V30 51387 H 6917.4 8.65116 -0.777161 0
M  V30 51388 H 6917.67 6.90173 -0.474152 0
M  V30 51389 H 6916.8 7.66548 -2.79458 0
M  V30 51390 P 6912.84 8.03563 -3.84925 0
M  V30 51391 O 6912.62 8.85821 -5.0569 0
M  V30 51392 O 6912.05 8.41101 -2.65469 0
M  V30 51393 O 6912.59 6.4965 -4.18908 0
M  V30 51394 C 6913.53 5.81037 -5.05421 0
M  V30 51395 C 6912.8 4.78366 -5.89277 0
M  V30 51396 O 6912.59 3.58302 -5.08433 0
M  V30 51397 C 6911.4 5.17448 -6.36119 0
M  V30 51398 O 6911.01 4.45271 -7.53232 0
M  V30 51399 C 6910.52 4.74639 -5.19936 0
M  V30 51400 C 6911.23 3.49432 -4.70418 0
M  V30 51401 N 6911.18 3.32099 -3.22613 0
M  V30 51402 C 6911.26 4.28245 -2.25527 0
M  V30 51403 N 6911.19 3.80823 -1.04874 0
M  V30 51404 C 6911.04 2.44571 -1.23535 0
M  V30 51405 C 6910.91 1.37068 -0.330675 0
M  V30 51406 N 6910.9 1.51472 0.990824 0
M  V30 51407 N 6910.79 0.138614 -0.848756 0
M  V30 51408 C 6910.8 -0.00675923 -2.16999 0
M  V30 51409 N 6910.92 0.904372 -3.11122 0
M  V30 51410 C 6911.04 2.12707 -2.56212 0
M  V30 51411 H 6914.02 6.54213 -5.71376 0
M  V30 51412 H 6914.29 5.30936 -4.43503 0
M  V30 51413 H 6913.42 4.55889 -6.76652 0
M  V30 51414 H 6910.77 2.61715 -5.17932 0
M  V30 51415 H 6910.49 5.52155 -4.41878 0
M  V30 51416 H 6909.5 4.51981 -5.53374 0
M  V30 51417 H 6911.33 6.25124 -6.55234 0
M  V30 51418 H 6911.37 5.34372 -2.47488 0
M  V30 51419 H 6910.99 2.45153 1.4078 0
M  V30 51420 H 6910.8 0.688422 1.59911 0
M  V30 51421 H 6910.69 -1.02584 -2.52346 0
M  V30 51422 P 6909.46 4.23843 -7.83734 0
M  V30 51423 O 6909.24 4.19407 -9.29784 0
M  V30 51424 O 6908.67 5.24426 -7.09156 0
M  V30 51425 O 6909.21 2.7935 -7.20758 0
M  V30 51426 C 6910.15 1.72945 -7.50224 0
M  V30 51427 C 6909.42 0.406376 -7.57911 0
M  V30 51428 O 6909.21 -0.0897726 -6.21935 0
M  V30 51429 C 6908.02 0.438983 -8.18724 0
M  V30 51430 O 6907.63 -0.825065 -8.71101 0
M  V30 51431 C 6907.14 0.783689 -6.99524 0
M  V30 51432 C 6907.85 0.0619086 -5.85867 0
M  V30 51433 N 6907.8 0.78573 -4.56183 0
M  V30 51434 C 6907.65 0.0292889 -3.41887 0
M  V30 51435 O 6907.56 -1.18445 -3.4419 0
M  V30 51436 N 6907.61 0.744061 -2.23964 0
M  V30 51437 C 6907.7 2.10932 -2.10362 0
M  V30 51438 O 6907.65 2.64117 -0.98825 0
M  V30 51439 C 6907.85 2.8202 -3.34994 0
M  V30 51440 C 6907.96 4.31095 -3.25037 0
M  V30 51441 C 6907.9 2.15547 -4.52261 0
M  V30 51442 H 6910.64 1.93379 -8.46595 0
M  V30 51443 H 6910.91 1.68132 -6.70852 0
M  V30 51444 H 6910.04 -0.289041 -8.15388 0
M  V30 51445 H 6907.39 -0.926847 -5.72749 0
M  V30 51446 H 6907.11 1.86973 -6.82036 0
M  V30 51447 H 6906.12 0.403896 -7.13257 0
M  V30 51448 H 6907.95 1.20585 -8.97435 0
M  V30 51449 H 6908.02 2.71231 -5.45042 0
M  V30 51450 H 6906.99 4.76966 -3.49992 0
M  V30 51451 H 6908.73 4.67047 -3.95024 0
M  V30 51452 H 6908.24 4.58996 -2.22312 0
M  V30 51453 H 6907.5 0.214893 -1.39758 0
M  V30 51454 P 6906.08 -1.17771 -8.83182 0
M  V30 51455 O 6905.86 -2.07206 -9.98732 0
M  V30 51456 O 6905.29 0.0743816 -8.81969 0
M  V30 51457 O 6905.83 -1.97652 -7.47304 0
M  V30 51458 C 6906.77 -3.01133 -7.08783 0
M  V30 51459 C 6906.04 -4.12613 -6.37049 0
M  V30 51460 O 6905.83 -3.72827 -4.97879 0
M  V30 51461 C 6904.64 -4.45085 -6.88694 0
M  V30 51462 O 6904.25 -5.7877 -6.5624 0
M  V30 51463 C 6903.76 -3.47817 -6.12078 0
M  V30 51464 C 6904.47 -3.39414 -4.77697 0
M  V30 51465 N 6904.42 -2.04615 -4.15333 0
M  V30 51466 H 6907.26 -3.41248 -7.98759 0
M  V30 51467 H 6907.53 -2.5837 -6.41742 0
M  V30 51468 H 6906.66 -5.02657 -6.42673 0
M  V30 51469 P 6902.7 -6.144 -6.45285 0
M  V30 51470 O 6902.48 -7.54673 -6.86199 0
M  V30 51471 O 6901.91 -5.12391 -7.179 0
M  V30 51472 O 6902.45 -5.99158 -4.88404 0
M  V30 51473 C 6903.39 -6.60062 -3.96313 0
M  V30 51474 C 6902.66 -7.08259 -2.72856 0
M  V30 51475 O 6902.45 -5.9427 -1.83651 0
M  V30 51476 C 6901.26 -7.65087 -2.94749 0
M  V30 51477 O 6900.87 -8.53963 -1.90717 0
M  V30 51478 C 6900.38 -6.41069 -2.90698 0
M  V30 51479 C 6901.09 -5.5528 -1.86931 0
M  V30 51480 N 6901.04 -4.09575 -2.15696 0
M  V30 51481 C 6900.89 -3.24249 -1.08435 0
M  V30 51482 O 6900.8 -3.63946 0.0628747 0
M  V30 51483 N 6900.85 -1.90009 -1.39973 0
M  V30 51484 C 6900.94 -1.34884 -2.65614 0
M  V30 51485 C 6901.09 -2.3145 -3.71736 0
M  V30 51486 C 6901.14 -3.63518 -3.44754 0
M  V30 51487 H 6903.88 -7.45402 -4.45526 0
M  V30 51488 H 6904.15 -5.86062 -3.67208 0
M  V30 51489 H 6903.28 -7.84412 -2.24479 0
M  V30 51490 H 6900.63 -5.73358 -0.888409 0
M  V30 51491 H 6900.35 -5.90877 -3.88583 0
M  V30 51492 H 6899.36 -6.65867 -2.58821 0
M  V30 51493 H 6901.19 -8.16248 -3.92006 0
M  V30 51494 H 6901.26 -4.34551 -4.26383 0
M  V30 51495 P 6899.32 -8.7635 -1.60911 0
M  V30 51496 O 6899.1 -10.1388 -1.11561 0
M  V30 51497 O 6898.53 -8.36503 -2.79617 0
M  V30 51498 O 6899.07 -7.71806 -0.42951 0
M  V30 51499 C 6900.01 -7.66948 0.673514 0
M  V30 51500 C 6899.28 -7.33374 1.95559 0
M  V30 51501 O 6899.07 -5.88721 2.00726 0
M  V30 51502 C 6897.88 -7.92218 2.1125 0
M  V30 51503 O 6897.49 -8.02971 3.47653 0
M  V30 51504 C 6897 -6.89504 1.41631 0
M  V30 51505 C 6897.71 -5.59106 1.75155 0
M  V30 51506 N 6897.66 -4.58136 0.662409 0
M  V30 51507 C 6897.51 -3.26059 1.02863 0
M  V30 51508 O 6897.42 -2.90743 2.19009 0
M  V30 51509 N 6897.47 -2.35995 -0.0155585 0
M  V30 51510 C 6897.56 -2.65248 -1.35603 0
M  V30 51511 O 6897.51 -1.75605 -2.20651 0
M  V30 51512 C 6897.71 -4.05747 -1.64698 0
M  V30 51513 C 6897.82 -4.42345 -3.09553 0
M  V30 51514 C 6897.76 -4.96734 -0.652411 0
M  V30 51515 H 6900.5 -8.64917 0.776982 0
M  V30 51516 H 6900.77 -6.89974 0.474015 0
M  V30 51517 H 6899.9 -7.66548 2.79458 0
M  V30 51518 H 6897.25 -5.16076 2.65138 0
M  V30 51519 H 6896.97 -7.06433 0.329384 0
M  V30 51520 H 6895.98 -6.90829 1.81996 0
M  V30 51521 H 6897.81 -8.90774 1.62639 0
M  V30 51522 H 6897.88 -6.02181 -0.895285 0
M  V30 51523 H 6896.85 -4.80252 -3.45468 0
M  V30 51524 H 6898.59 -5.20015 -3.22119 0
M  V30 51525 H 6898.1 -3.53269 -3.67833 0
M  V30 51526 H 6897.36 -1.39558 0.227499 0
M  V30 51527 P 6895.94 -8.03563 3.84925 0
M  V30 51528 O 6895.72 -8.85821 5.0569 0
M  V30 51529 O 6895.15 -8.41101 2.65469 0
M  V30 51530 O 6895.69 -6.4965 4.18908 0
M  V30 51531 C 6896.63 -5.81037 5.05421 0
M  V30 51532 C 6895.9 -4.78366 5.89277 0
M  V30 51533 O 6895.69 -3.58302 5.08433 0
M  V30 51534 C 6894.5 -5.17448 6.36119 0
M  V30 51535 O 6894.11 -4.45271 7.53232 0
M  V30 51536 C 6893.62 -4.74639 5.19936 0
M  V30 51537 C 6894.33 -3.49432 4.70418 0
M  V30 51538 N 6894.28 -3.32099 3.22613 0
M  V30 51539 H 6897.12 -6.54213 5.71376 0
M  V30 51540 H 6897.39 -5.30936 4.43503 0
M  V30 51541 H 6896.52 -4.55889 6.76652 0
M  V30 51542 H 6893.87 -2.61715 5.17932 0
M  V30 51543 H 6893.59 -5.52155 4.41878 0
M  V30 51544 H 6892.6 -4.51981 5.53374 0
M  V30 51545 H 6894.43 -6.25124 6.55234 0
M  V30 51546 P 6892.56 -4.23843 7.83734 0
M  V30 51547 O 6892.34 -4.19407 9.29784 0
M  V30 51548 O 6891.77 -5.24426 7.09156 0
M  V30 51549 O 6892.31 -2.7935 7.20758 0
M  V30 51550 C 6893.25 -1.72945 7.50224 0
M  V30 51551 C 6892.52 -0.406376 7.57911 0
M  V30 51552 O 6892.31 0.0897726 6.21935 0
M  V30 51553 C 6891.12 -0.438983 8.18724 0
M  V30 51554 O 6890.73 0.825065 8.71101 0
M  V30 51555 C 6890.24 -0.783689 6.99524 0
M  V30 51556 C 6890.95 -0.0619086 5.85867 0
M  V30 51557 N 6890.9 -0.78573 4.56183 0
M  V30 51558 C 6890.75 -0.0292889 3.41887 0
M  V30 51559 O 6890.66 1.18445 3.4419 0
M  V30 51560 N 6890.71 -0.744061 2.23964 0
M  V30 51561 C 6890.8 -2.10932 2.10362 0
M  V30 51562 C 6890.95 -2.8202 3.34994 0
M  V30 51563 C 6891 -2.15547 4.52261 0
M  V30 51564 H 6893.74 -1.93379 8.46595 0
M  V30 51565 H 6894.01 -1.68132 6.70852 0
M  V30 51566 H 6893.14 0.289041 8.15388 0
M  V30 51567 H 6890.49 0.926847 5.72749 0
M  V30 51568 H 6890.21 -1.86973 6.82036 0
M  V30 51569 H 6889.22 -0.403896 7.13257 0
M  V30 51570 H 6891.05 -1.20585 8.97435 0
M  V30 51571 H 6891.12 -2.71231 5.45042 0
M  V30 51572 P 6889.18 1.17771 8.83182 0
M  V30 51573 O 6888.96 2.07206 9.98732 0
M  V30 51574 O 6888.39 -0.0743816 8.81969 0
M  V30 51575 O 6888.93 1.97652 7.47304 0
M  V30 51576 C 6889.87 3.01133 7.08783 0
M  V30 51577 C 6889.14 4.12613 6.37049 0
M  V30 51578 O 6888.93 3.72827 4.97879 0
M  V30 51579 C 6887.74 4.45085 6.88694 0
M  V30 51580 O 6887.35 5.7877 6.5624 0
M  V30 51581 C 6886.86 3.47817 6.12078 0
M  V30 51582 C 6887.57 3.39414 4.77697 0
M  V30 51583 N 6887.52 2.04615 4.15333 0
M  V30 51584 H 6890.36 3.41248 7.98759 0
M  V30 51585 H 6890.63 2.5837 6.41742 0
M  V30 51586 H 6889.76 5.02657 6.42673 0
M  V30 51587 P 6885.8 6.144 6.45285 0
M  V30 51588 O 6885.58 7.54673 6.86199 0
M  V30 51589 O 6885.01 5.12391 7.179 0
M  V30 51590 O 6885.55 5.99158 4.88404 0
M  V30 51591 C 6886.49 6.60234 3.96415 0
M  V30 51592 C 6885.76 7.08259 2.72856 0
M  V30 51593 O 6885.55 5.9427 1.83651 0
M  V30 51594 C 6884.36 7.64886 2.9555 0
M  V30 51595 O 6883.97 8.53963 1.90717 0
M  V30 51596 C 6883.48 6.4116 2.90739 0
M  V30 51597 C 6884.19 5.55375 1.86963 0
M  V30 51598 N 6884.14 4.09664 2.15742 0
M  V30 51599 C 6884.22 3.44381 3.37233 0
M  V30 51600 N 6884.14 2.14131 3.28347 0
M  V30 51601 C 6884 1.90247 1.91588 0
M  V30 51602 C 6883.87 0.683992 1.20892 0
M  V30 51603 N 6883.75 0.903396 -0.173998 0
M  V30 51604 C 6883.75 2.14171 -0.784879 0
M  V30 51605 N 6883.62 2.1435 -2.11317 0
M  V30 51606 N 6883.88 3.28784 -0.119316 0
M  V30 51607 C 6884 3.0977 1.22194 0
M  V30 51608 H 6886.98 7.45574 4.45629 0
M  V30 51609 H 6887.25 5.86232 3.67314 0
M  V30 51610 H 6886.38 7.84412 2.24479 0
M  V30 51611 P 6882.42 8.7635 1.60911 0
M  V30 51612 O 6882.2 10.1388 1.11561 0
M  V30 51613 O 6881.63 8.36503 2.79617 0
M  V30 51614 O 6882.17 7.71806 0.42951 0
M  V30 51615 C 6883.11 7.67148 -0.673689 0
M  V30 51616 C 6882.38 7.33374 -1.95559 0
M  V30 51617 O 6882.17 5.88721 -2.00726 0
M  V30 51618 C 6880.98 7.92526 -2.10483 0
M  V30 51619 O 6880.59 8.02971 -3.47653 0
M  V30 51620 C 6880.1 6.89602 -1.41652 0
M  V30 51621 C 6880.81 5.59201 -1.75185 0
M  V30 51622 N 6880.76 4.58301 -0.657969 0
M  V30 51623 C 6880.84 4.79019 0.692603 0
M  V30 51624 N 6880.77 3.69736 1.38998 0
M  V30 51625 C 6880.62 2.70474 0.438135 0
M  V30 51626 C 6880.49 1.30327 0.538142 0
M  V30 51627 N 6880.48 0.64304 1.69192 0
M  V30 51628 N 6880.37 0.611027 -0.605183 0
M  V30 51629 C 6880.38 1.27002 -1.75953 0
M  V30 51630 N 6880.5 2.56038 -1.98546 0
M  V30 51631 C 6880.62 3.22681 -0.822541 0
M  V30 51632 H 6883.6 8.65116 -0.777161 0
M  V30 51633 H 6883.87 6.9022 -0.46725 0
M  V30 51634 H 6883 7.66548 -2.79458 0
M  V30 51635 H 6880.35 5.16165 -2.65183 0
M  V30 51636 H 6880.07 7.06433 -0.329384 0
M  V30 51637 H 6879.08 6.90926 -1.82021 0
M  V30 51638 H 6880.91 8.90873 -1.62657 0
M  V30 51639 H 6880.95 5.77785 1.13874 0
M  V30 51640 H 6880.57 1.15585 2.57991 0
M  V30 51641 H 6880.38 -0.382989 1.69835 0
M  V30 51642 H 6880.27 0.653331 -2.64449 0
M  V30 51643 P 6879.04 8.03563 -3.84925 0
M  V30 51644 O 6878.82 8.85821 -5.0569 0
M  V30 51645 O 6878.25 8.41101 -2.65469 0
M  V30 51646 O 6878.79 6.4965 -4.18908 0
M  V30 51647 C 6879.73 5.81037 -5.05421 0
M  V30 51648 C 6879 4.78366 -5.89277 0
M  V30 51649 O 6878.79 3.58302 -5.08433 0
M  V30 51650 C 6877.6 5.17448 -6.36119 0
M  V30 51651 O 6877.21 4.45271 -7.53232 0
M  V30 51652 C 6876.72 4.74639 -5.19936 0
M  V30 51653 C 6877.43 3.49432 -4.70418 0
M  V30 51654 N 6877.38 3.31776 -3.22945 0
M  V30 51655 H 6880.22 6.54213 -5.71376 0
M  V30 51656 H 6880.49 5.30492 -4.44033 0
M  V30 51657 H 6879.62 4.55889 -6.76652 0
M  V30 51658 P 6875.66 4.23843 -7.83734 0
M  V30 51659 O 6875.44 4.19407 -9.29784 0
M  V30 51660 O 6874.87 5.24426 -7.09156 0
M  V30 51661 O 6875.41 2.7935 -7.20758 0
M  V30 51662 C 6876.35 1.7299 -7.50419 0
M  V30 51663 C 6875.62 0.406376 -7.57911 0
M  V30 51664 O 6875.41 -0.0897726 -6.21935 0
M  V30 51665 C 6874.22 0.447224 -8.1878 0
M  V30 51666 O 6873.83 -0.825065 -8.71101 0
M  V30 51667 C 6873.34 0.783801 -6.99623 0
M  V30 51668 C 6874.05 0.0619192 -5.85967 0
M  V30 51669 N 6874 0.7859 -4.56281 0
M  V30 51670 H 6876.84 1.93423 -8.4679 0
M  V30 51671 H 6877.11 1.68181 -6.71046 0
M  V30 51672 H 6876.24 -0.289041 -8.15388 0
M  V30 51673 P 6872.28 -1.17771 -8.83182 0
M  V30 51674 O 6872.06 -2.07206 -9.98732 0
M  V30 51675 O 6871.49 0.0743816 -8.81969 0
M  V30 51676 O 6872.03 -1.97652 -7.47304 0
M  V30 51677 C 6872.97 -3.01133 -7.08783 0
M  V30 51678 C 6872.24 -4.12613 -6.37049 0
M  V30 51679 O 6872.03 -3.72827 -4.97879 0
M  V30 51680 C 6870.84 -4.45085 -6.88694 0
M  V30 51681 O 6870.45 -5.7877 -6.5624 0
M  V30 51682 C 6869.96 -3.47817 -6.12078 0
M  V30 51683 C 6870.67 -3.39414 -4.77697 0
M  V30 51684 N 6870.62 -2.04199 -4.15538 0
M  V30 51685 H 6873.46 -3.41248 -7.98759 0
M  V30 51686 H 6873.73 -2.57728 -6.42 0
M  V30 51687 H 6872.86 -5.02657 -6.42673 0
M  V30 51688 H 6870.21 -4.11708 -4.08956 0
M  V30 51689 H 6869.93 -2.49626 -6.61679 0
M  V30 51690 H 6868.94 -3.8662 -6.00862 0
M  V30 51691 H 6870.77 -4.29991 -7.97006 0
M  V30 51692 P 6868.9 -6.144 -6.45285 0
M  V30 51693 O 6868.68 -7.54673 -6.86199 0
M  V30 51694 O 6868.11 -5.12391 -7.179 0
M  V30 51695 O 6868.65 -5.99236 -4.88467 0
M  V30 51696 C 6869.59 -6.60234 -3.96415 0
M  V30 51697 C 6868.86 -7.08079 -2.736 0
M  V30 51698 O 6868.65 -5.94365 -1.8368 0
M  V30 51699 C 6867.46 -7.64886 -2.9555 0
M  V30 51700 O 6867.07 -8.5406 -1.90739 0
M  V30 51701 C 6866.58 -6.4116 -2.90739 0
M  V30 51702 C 6867.29 -5.55375 -1.86963 0
M  V30 51703 N 6867.24 -4.09664 -2.15742 0
M  V30 51704 C 6867.09 -3.22231 -1.08477 0
M  V30 51705 O 6867 -3.68951 0.0600489 0
M  V30 51706 N 6867.04 -1.76692 -1.48799 0
M  V30 51707 C 6867.14 -1.41695 -2.57602 0
M  V30 51708 N 6867.09 -0.107296 -2.75791 0
M  V30 51709 C 6867.29 -2.29178 -3.69733 0
M  V30 51710 C 6867.34 -3.62753 -3.42653 0
M  V30 51711 H 6870.08 -7.45488 -4.45578 0
M  V30 51712 H 6870.35 -5.86232 -3.67314 0
M  V30 51713 H 6869.48 -7.84508 -2.24507 0
M  V30 51714 H 6866.83 -5.73556 -0.888715 0
M  V30 51715 H 6866.55 -5.9096 -3.88638 0
M  V30 51716 H 6865.56 -6.66053 -2.58894 0
M  V30 51717 H 6867.39 -8.16339 -3.92049 0
M  V30 51718 H 6867.46 -4.33052 -4.24913 0
M  V30 51719 H 6867.36 -1.9103 -4.71577 0
M  V30 51720 H 6866.97 0.521221 -1.95056 0
M  V30 51721 H 6867.17 0.286429 -3.70695 0
M  V30 51722 P 6865.52 -8.7635 -1.60911 0
M  V30 51723 O 6865.3 -10.1388 -1.11561 0
M  V30 51724 O 6864.73 -8.36503 -2.79617 0
M  V30 51725 O 6865.27 -7.71906 -0.429565 0
M  V30 51726 C 6866.21 -7.67148 0.673689 0
M  V30 51727 C 6865.48 -7.33666 1.94851 0
M  V30 51728 O 6865.27 -5.88816 2.00759 0
M  V30 51729 C 6864.08 -7.92526 2.10483 0
M  V30 51730 O 6863.69 -8.03063 3.47693 0
M  V30 51731 C 6863.2 -6.89602 1.41652 0
M  V30 51732 C 6863.91 -5.59201 1.75185 0
M  V30 51733 N 6863.86 -4.58235 0.662552 0
M  V30 51734 C 6863.71 -3.24451 1.01643 0
M  V30 51735 O 6863.62 -2.94958 2.21722 0
M  V30 51736 N 6863.66 -2.30408 -0.165238 0
M  V30 51737 C 6863.76 -2.66048 -1.25118 0
M  V30 51738 N 6863.71 -1.70787 -2.16813 0
M  V30 51739 C 6863.91 -4.02732 -1.64413 0
M  V30 51740 C 6863.96 -4.9488 -0.63991 0
M  V30 51741 H 6866.7 -8.65017 0.777072 0
M  V30 51742 H 6866.97 -6.90173 0.474152 0
M  V30 51743 H 6866.1 -7.66642 2.79492 0
M  V30 51744 H 6863.45 -5.16254 2.65229 0
M  V30 51745 H 6863.17 -7.06532 0.329431 0
M  V30 51746 H 6862.18 -6.91023 1.82047 0
M  V30 51747 H 6864.01 -8.90873 1.62657 0
M  V30 51748 H 6864.08 -6.00104 -0.892197 0
M  V30 51749 H 6863.98 -4.31733 -2.69229 0
M  V30 51750 H 6863.59 -0.724835 -1.8844 0
M  V30 51751 H 6863.79 -1.94716 -3.16734 0
M  V30 51752 P 6862.14 -8.03563 3.84925 0
M  V30 51753 O 6861.92 -8.85821 5.0569 0
M  V30 51754 O 6861.35 -8.41101 2.65469 0
M  V30 51755 O 6861.89 -6.4965 4.18908 0
M  V30 51756 C 6862.83 -5.81037 5.05421 0
M  V30 51757 C 6862.1 -4.78366 5.89277 0
M  V30 51758 O 6861.89 -3.58302 5.08433 0
M  V30 51759 C 6860.7 -5.17448 6.36119 0
M  V30 51760 O 6860.31 -4.45271 7.53232 0
M  V30 51761 C 6859.82 -4.74639 5.19936 0
M  V30 51762 C 6860.53 -3.49432 4.70418 0
M  V30 51763 N 6860.48 -3.31776 3.22945 0
M  V30 51764 H 6863.32 -6.54213 5.71376 0
M  V30 51765 H 6863.59 -5.30492 4.44033 0
M  V30 51766 H 6862.72 -4.55889 6.76652 0
M  V30 51767 P 6858.76 -4.23843 7.83734 0
M  V30 51768 O 6858.54 -4.19407 9.29784 0
M  V30 51769 O 6857.97 -5.24426 7.09156 0
M  V30 51770 O 6858.51 -2.7935 7.20758 0
M  V30 51771 C 6859.45 -1.7299 7.50419 0
M  V30 51772 C 6858.72 -0.406376 7.57911 0
M  V30 51773 O 6858.51 0.0897726 6.21935 0
M  V30 51774 C 6857.32 -0.447224 8.1878 0
M  V30 51775 O 6856.93 0.825065 8.71101 0
M  V30 51776 C 6856.44 -0.783801 6.99623 0
M  V30 51777 C 6857.15 -0.0619192 5.85967 0
M  V30 51778 N 6857.1 -0.7859 4.56281 0
M  V30 51779 H 6859.94 -1.93423 8.4679 0
M  V30 51780 H 6860.21 -1.68181 6.71046 0
M  V30 51781 H 6859.34 0.289041 8.15388 0
M  V30 51782 P 6855.38 1.17771 8.83182 0
M  V30 51783 O 6855.16 2.07206 9.98732 0
M  V30 51784 O 6854.59 -0.0743816 8.81969 0
M  V30 51785 O 6855.13 1.97652 7.47304 0
M  V30 51786 C 6856.07 3.01133 7.08783 0
M  V30 51787 C 6855.34 4.12613 6.37049 0
M  V30 51788 O 6855.13 3.72827 4.97879 0
M  V30 51789 C 6853.94 4.45085 6.88694 0
M  V30 51790 O 6853.55 5.7877 6.5624 0
M  V30 51791 C 6853.06 3.47817 6.12078 0
M  V30 51792 C 6853.77 3.39414 4.77697 0
M  V30 51793 N 6853.72 2.04615 4.15333 0
M  V30 51794 H 6856.56 3.41248 7.98759 0
M  V30 51795 H 6856.83 2.5837 6.41742 0
M  V30 51796 H 6855.96 5.02657 6.42673 0
M  V30 51797 P 6852 6.144 6.45285 0
M  V30 51798 O 6851.78 7.54673 6.86199 0
M  V30 51799 O 6851.21 5.12391 7.179 0
M  V30 51800 O 6851.75 5.99158 4.88404 0
M  V30 51801 C 6852.69 6.60234 3.96415 0
M  V30 51802 C 6851.96 7.08259 2.72856 0
M  V30 51803 O 6851.75 5.9427 1.83651 0
M  V30 51804 C 6850.56 7.64886 2.9555 0
M  V30 51805 O 6850.17 8.53963 1.90717 0
M  V30 51806 C 6849.68 6.4116 2.90739 0
M  V30 51807 C 6850.39 5.55375 1.86963 0
M  V30 51808 N 6850.34 4.09664 2.15742 0
M  V30 51809 H 6853.18 7.45574 4.45629 0
M  V30 51810 H 6853.45 5.86232 3.67314 0
M  V30 51811 H 6852.58 7.84412 2.24479 0
M  V30 51812 P 6848.62 8.7635 1.60911 0
M  V30 51813 O 6848.4 10.1388 1.11561 0
M  V30 51814 O 6847.83 8.36503 2.79617 0
M  V30 51815 O 6848.37 7.71806 0.42951 0
M  V30 51816 C 6849.31 7.67148 -0.673689 0
M  V30 51817 C 6848.58 7.33374 -1.95559 0
M  V30 51818 O 6848.37 5.88721 -2.00726 0
M  V30 51819 C 6847.18 7.92526 -2.10483 0
M  V30 51820 O 6846.79 8.02971 -3.47653 0
M  V30 51821 C 6846.3 6.89602 -1.41652 0
M  V30 51822 C 6847.01 5.59201 -1.75185 0
M  V30 51823 N 6846.96 4.58235 -0.662552 0
M  V30 51824 H 6849.8 8.65116 -0.777161 0
M  V30 51825 H 6850.07 6.90173 -0.474152 0
M  V30 51826 H 6849.2 7.66548 -2.79458 0
M  V30 51827 P 6845.24 8.03563 -3.84925 0
M  V30 51828 O 6845.02 8.85821 -5.0569 0
M  V30 51829 O 6844.45 8.41101 -2.65469 0
M  V30 51830 O 6844.99 6.4965 -4.18908 0
M  V30 51831 C 6845.93 5.81037 -5.05421 0
M  V30 51832 C 6845.2 4.78366 -5.89277 0
M  V30 51833 O 6844.99 3.58302 -5.08433 0
M  V30 51834 C 6843.8 5.17448 -6.36119 0
M  V30 51835 O 6843.41 4.45271 -7.53232 0
M  V30 51836 C 6842.92 4.74639 -5.19936 0
M  V30 51837 C 6843.63 3.49432 -4.70418 0
M  V30 51838 N 6843.58 3.31776 -3.22945 0
M  V30 51839 H 6846.42 6.54213 -5.71376 0
M  V30 51840 H 6846.69 5.30492 -4.44033 0
M  V30 51841 H 6845.82 4.55889 -6.76652 0
M  V30 51842 P 6841.86 4.23843 -7.83734 0
M  V30 51843 O 6841.64 4.19407 -9.29784 0
M  V30 51844 O 6841.07 5.24426 -7.09156 0
M  V30 51845 O 6841.61 2.7935 -7.20758 0
M  V30 51846 C 6842.55 1.7299 -7.50419 0
M  V30 51847 C 6841.82 0.406376 -7.57911 0
M  V30 51848 O 6841.61 -0.0897726 -6.21935 0
M  V30 51849 C 6840.42 0.447224 -8.1878 0
M  V30 51850 O 6840.03 -0.825065 -8.71101 0
M  V30 51851 C 6839.54 0.783801 -6.99623 0
M  V30 51852 C 6840.25 0.0619192 -5.85967 0
M  V30 51853 N 6840.2 0.7859 -4.56281 0
M  V30 51854 H 6843.04 1.93423 -8.4679 0
M  V30 51855 H 6843.31 1.68181 -6.71046 0
M  V30 51856 H 6842.44 -0.289041 -8.15388 0
M  V30 51857 P 6838.48 -1.17771 -8.83182 0
M  V30 51858 O 6838.26 -2.07206 -9.98732 0
M  V30 51859 O 6837.69 0.0743816 -8.81969 0
M  V30 51860 O 6838.23 -1.97652 -7.47304 0
M  V30 51861 C 6839.17 -3.01133 -7.08783 0
M  V30 51862 C 6838.44 -4.12613 -6.37049 0
M  V30 51863 O 6838.23 -3.72827 -4.97879 0
M  V30 51864 C 6837.04 -4.45085 -6.88694 0
M  V30 51865 O 6836.65 -5.7877 -6.5624 0
M  V30 51866 C 6836.16 -3.47817 -6.12078 0
M  V30 51867 C 6836.87 -3.39414 -4.77697 0
M  V30 51868 N 6836.82 -2.04615 -4.15333 0
M  V30 51869 C 6836.9 -0.803897 -4.75249 0
M  V30 51870 N 6836.82 0.197615 -3.91502 0
M  V30 51871 C 6836.68 -0.413002 -2.66823 0
M  V30 51872 C 6836.55 0.157221 -1.38007 0
M  V30 51873 N 6836.43 -0.833136 -0.390236 0
M  V30 51874 C 6836.43 -2.19402 -0.623885 0
M  V30 51875 N 6836.3 -2.97622 0.449677 0
M  V30 51876 N 6836.56 -2.73005 -1.83601 0
M  V30 51877 C 6836.68 -1.78786 -2.80935 0
M  V30 51878 H 6839.66 -3.41248 -7.98759 0
M  V30 51879 H 6839.93 -2.5837 -6.41742 0
M  V30 51880 H 6839.06 -5.02657 -6.42673 0
M  V30 51881 P 6835.1 -6.144 -6.45285 0
M  V30 51882 O 6834.88 -7.54673 -6.86199 0
M  V30 51883 O 6834.31 -5.12391 -7.179 0
M  V30 51884 O 6834.85 -5.99158 -4.88404 0
M  V30 51885 C 6835.79 -6.60234 -3.96415 0
M  V30 51886 C 6835.06 -7.08259 -2.72856 0
M  V30 51887 O 6834.85 -5.9427 -1.83651 0
M  V30 51888 C 6833.66 -7.64886 -2.9555 0
M  V30 51889 O 6833.27 -8.53963 -1.90717 0
M  V30 51890 C 6832.78 -6.4116 -2.90739 0
M  V30 51891 C 6833.49 -5.55375 -1.86963 0
M  V30 51892 N 6833.44 -4.09664 -2.15742 0
M  V30 51893 H 6836.28 -7.45574 -4.45629 0
M  V30 51894 H 6836.55 -5.86232 -3.67314 0
M  V30 51895 H 6835.68 -7.84412 -2.24479 0
M  V30 51896 P 6831.72 -8.7635 -1.60911 0
M  V30 51897 O 6831.5 -10.1388 -1.11561 0
M  V30 51898 O 6830.93 -8.36503 -2.79617 0
M  V30 51899 O 6831.47 -7.71806 -0.42951 0
M  V30 51900 C 6832.41 -7.67148 0.673689 0
M  V30 51901 C 6831.68 -7.33374 1.95559 0
M  V30 51902 O 6831.47 -5.88721 2.00726 0
M  V30 51903 C 6830.28 -7.92526 2.10483 0
M  V30 51904 O 6829.89 -8.02971 3.47653 0
M  V30 51905 C 6829.4 -6.89602 1.41652 0
M  V30 51906 C 6830.11 -5.59201 1.75185 0
M  V30 51907 N 6830.06 -4.58235 0.662552 0
M  V30 51908 H 6832.9 -8.65116 0.777161 0
M  V30 51909 H 6833.17 -6.90173 0.474152 0
M  V30 51910 H 6832.3 -7.66548 2.79458 0
M  V30 51911 P 6828.34 -8.03563 3.84925 0
M  V30 51912 O 6828.12 -8.85821 5.0569 0
M  V30 51913 O 6827.55 -8.41101 2.65469 0
M  V30 51914 O 6828.09 -6.4965 4.18908 0
M  V30 51915 C 6829.03 -5.81037 5.05421 0
M  V30 51916 C 6828.3 -4.78366 5.89277 0
M  V30 51917 O 6828.09 -3.58302 5.08433 0
M  V30 51918 C 6826.9 -5.17448 6.36119 0
M  V30 51919 O 6826.51 -4.45271 7.53232 0
M  V30 51920 C 6826.02 -4.74639 5.19936 0
M  V30 51921 C 6826.73 -3.49432 4.70418 0
M  V30 51922 N 6826.68 -3.31776 3.22945 0
M  V30 51923 H 6829.52 -6.54213 5.71376 0
M  V30 51924 H 6829.79 -5.30492 4.44033 0
M  V30 51925 H 6828.92 -4.55889 6.76652 0
M  V30 51926 P 6824.96 -4.23843 7.83734 0
M  V30 51927 O 6824.74 -4.19407 9.29784 0
M  V30 51928 O 6824.17 -5.24426 7.09156 0
M  V30 51929 O 6824.71 -2.7935 7.20758 0
M  V30 51930 C 6825.65 -1.7299 7.50419 0
M  V30 51931 C 6824.92 -0.406376 7.57911 0
M  V30 51932 O 6824.71 0.0897726 6.21935 0
M  V30 51933 C 6823.52 -0.447224 8.1878 0
M  V30 51934 O 6823.13 0.825065 8.71101 0
M  V30 51935 C 6822.64 -0.783801 6.99623 0
M  V30 51936 C 6823.35 -0.0619192 5.85967 0
M  V30 51937 N 6823.3 -0.7859 4.56281 0
M  V30 51938 H 6826.14 -1.93423 8.4679 0
M  V30 51939 H 6826.41 -1.68181 6.71046 0
M  V30 51940 H 6825.54 0.289041 8.15388 0
M  V30 51941 P 6821.58 1.17771 8.83182 0
M  V30 51942 O 6821.36 2.07206 9.98732 0
M  V30 51943 O 6820.79 -0.0743816 8.81969 0
M  V30 51944 O 6821.33 1.97652 7.47304 0
M  V30 51945 C 6822.27 3.01133 7.08783 0
M  V30 51946 C 6821.54 4.12613 6.37049 0
M  V30 51947 O 6821.33 3.72827 4.97879 0
M  V30 51948 C 6820.14 4.45085 6.88694 0
M  V30 51949 O 6819.75 5.7877 6.5624 0
M  V30 51950 C 6819.26 3.47817 6.12078 0
M  V30 51951 C 6819.97 3.39414 4.77697 0
M  V30 51952 N 6819.92 2.04615 4.15333 0
M  V30 51953 H 6822.76 3.41248 7.98759 0
M  V30 51954 H 6823.03 2.5837 6.41742 0
M  V30 51955 H 6822.16 5.02657 6.42673 0
M  V30 51956 P 6818.2 6.144 6.45285 0
M  V30 51957 O 6817.98 7.54673 6.86199 0
M  V30 51958 O 6817.41 5.12391 7.179 0
M  V30 51959 O 6817.95 5.99158 4.88404 0
M  V30 51960 C 6818.89 6.60234 3.96415 0
M  V30 51961 C 6818.16 7.08259 2.72856 0
M  V30 51962 O 6817.95 5.9427 1.83651 0
M  V30 51963 C 6816.76 7.64886 2.9555 0
M  V30 51964 O 6816.37 8.53963 1.90717 0
M  V30 51965 C 6815.88 6.4116 2.90739 0
M  V30 51966 C 6816.59 5.55375 1.86963 0
M  V30 51967 N 6816.54 4.09664 2.15742 0
M  V30 51968 H 6819.38 7.45574 4.45629 0
M  V30 51969 H 6819.65 5.86232 3.67314 0
M  V30 51970 H 6818.78 7.84412 2.24479 0
M  V30 51971 P 6814.82 8.7635 1.60911 0
M  V30 51972 O 6814.6 10.1388 1.11561 0
M  V30 51973 O 6814.03 8.36503 2.79617 0
M  V30 51974 O 6814.57 7.71806 0.42951 0
M  V30 51975 C 6815.51 7.67148 -0.673689 0
M  V30 51976 C 6814.78 7.33374 -1.95559 0
M  V30 51977 O 6814.57 5.88721 -2.00726 0
M  V30 51978 C 6813.38 7.92526 -2.10483 0
M  V30 51979 O 6812.99 8.02971 -3.47653 0
M  V30 51980 C 6812.5 6.89602 -1.41652 0
M  V30 51981 C 6813.21 5.59201 -1.75185 0
M  V30 51982 N 6813.16 4.58235 -0.662552 0
M  V30 51983 C 6813.24 4.7683 0.704049 0
M  V30 51984 N 6813.16 3.66233 1.39775 0
M  V30 51985 C 6813.02 2.66526 0.431739 0
M  V30 51986 C 6812.89 1.26394 0.575992 0
M  V30 51987 O 6812.87 0.589894 1.60503 0
M  V30 51988 N 6812.77 0.62859 -0.67177 0
M  V30 51989 C 6812.77 1.27134 -1.89385 0
M  V30 51990 N 6812.64 0.492035 -2.96951 0
M  V30 51991 N 6812.9 2.58978 -2.02907 0
M  V30 51992 C 6813.02 3.22433 -0.832218 0
M  V30 51993 H 6816 8.65116 -0.777161 0
M  V30 51994 H 6816.27 6.90173 -0.474152 0
M  V30 51995 H 6815.4 7.66548 -2.79458 0
M  V30 51996 H 6812.75 5.16254 -2.65229 0
M  V30 51997 H 6812.47 7.06532 -0.329431 0
M  V30 51998 H 6811.48 6.91023 -1.82047 0
M  V30 51999 H 6813.31 8.90971 -1.62675 0
M  V30 52000 H 6813.36 5.74954 1.16305 0
M  V30 52001 H 6812.68 -0.366713 -0.674793 0
M  V30 52002 H 6812.64 0.908532 -3.91188 0
M  V30 52003 H 6812.54 -0.528253 -2.85758 0
M  V30 52004 P 6811.44 8.03563 -3.84925 0
M  V30 52005 O 6811.22 8.85821 -5.0569 0
M  V30 52006 O 6810.65 8.41101 -2.65469 0
M  V30 52007 O 6811.19 6.4965 -4.18908 0
M  V30 52008 C 6812.13 5.81037 -5.05421 0
M  V30 52009 C 6811.4 4.78366 -5.89277 0
M  V30 52010 O 6811.19 3.58302 -5.08433 0
M  V30 52011 C 6810 5.17448 -6.36119 0
M  V30 52012 O 6809.61 4.45271 -7.53232 0
M  V30 52013 C 6809.12 4.74639 -5.19936 0
M  V30 52014 C 6809.83 3.49432 -4.70418 0
M  V30 52015 N 6809.78 3.31776 -3.22945 0
M  V30 52016 H 6812.62 6.54213 -5.71376 0
M  V30 52017 H 6812.89 5.30492 -4.44033 0
M  V30 52018 H 6812.02 4.55889 -6.76652 0
M  V30 52019 P 6808.06 4.23843 -7.83734 0
M  V30 52020 O 6807.84 4.19407 -9.29784 0
M  V30 52021 O 6807.27 5.24426 -7.09156 0
M  V30 52022 O 6807.81 2.79386 -7.20852 0
M  V30 52023 C 6808.75 1.7299 -7.50419 0
M  V30 52024 C 6808.02 0.41401 -7.5797 0
M  V30 52025 O 6807.81 -0.089787 -6.22035 0
M  V30 52026 C 6806.62 0.447224 -8.1878 0
M  V30 52027 O 6806.23 -0.825159 -8.71201 0
M  V30 52028 C 6805.74 0.783801 -6.99623 0
M  V30 52029 C 6806.45 0.0619192 -5.85967 0
M  V30 52030 N 6806.4 0.7859 -4.56281 0
M  V30 52031 C 6806.25 0.0359258 -3.39981 0
M  V30 52032 O 6806.16 -1.19723 -3.49038 0
M  V30 52033 N 6806.2 0.869151 -2.14025 0
M  V30 52034 C 6806.3 2.01207 -2.14363 0
M  V30 52035 N 6806.25 2.58978 -0.954287 0
M  V30 52036 C 6806.45 2.80817 -3.32215 0
M  V30 52037 C 6806.5 2.13785 -4.50884 0
M  V30 52038 H 6809.24 1.93401 -8.46693 0
M  V30 52039 H 6809.51 1.68181 -6.71046 0
M  V30 52040 H 6808.64 -0.289076 -8.15488 0
M  V30 52041 H 6805.99 -0.927166 -5.72947 0
M  V30 52042 H 6805.71 1.87 -6.82132 0
M  V30 52043 H 6804.72 0.404009 -7.13457 0
M  V30 52044 H 6806.55 1.20599 -8.97534 0
M  V30 52045 H 6806.62 2.70295 -5.43162 0
M  V30 52046 H 6806.52 3.89465 -3.27406 0
M  V30 52047 H 6806.13 2.01616 -0.107046 0
M  V30 52048 H 6806.33 3.61403 -0.873101 0
M  V30 52049 P 6804.68 -1.17771 -8.83182 0
M  V30 52050 O 6804.46 -2.07206 -9.98732 0
M  V30 52051 O 6803.89 0.0743816 -8.81969 0
M  V30 52052 O 6804.43 -1.97652 -7.47304 0
M  V30 52053 C 6805.37 -3.01133 -7.08783 0
M  V30 52054 C 6804.64 -4.12613 -6.37049 0
M  V30 52055 O 6804.43 -3.72827 -4.97879 0
M  V30 52056 C 6803.24 -4.45085 -6.88694 0
M  V30 52057 O 6802.85 -5.7877 -6.5624 0
M  V30 52058 C 6802.36 -3.47817 -6.12078 0
M  V30 52059 C 6803.07 -3.39414 -4.77697 0
M  V30 52060 N 6803.02 -2.04615 -4.15333 0
M  V30 52061 H 6805.86 -3.41248 -7.98759 0
M  V30 52062 H 6806.13 -2.5837 -6.41742 0
M  V30 52063 H 6805.26 -5.02657 -6.42673 0
M  V30 52064 P 6801.3 -6.144 -6.45285 0
M  V30 52065 O 6801.08 -7.54673 -6.86199 0
M  V30 52066 O 6800.51 -5.12391 -7.179 0
M  V30 52067 O 6801.05 -5.99158 -4.88404 0
M  V30 52068 C 6801.99 -6.60234 -3.96415 0
M  V30 52069 C 6801.26 -7.08259 -2.72856 0
M  V30 52070 O 6801.05 -5.9427 -1.83651 0
M  V30 52071 C 6799.86 -7.64886 -2.9555 0
M  V30 52072 O 6799.47 -8.53963 -1.90717 0
M  V30 52073 C 6798.98 -6.4116 -2.90739 0
M  V30 52074 C 6799.69 -5.55375 -1.86963 0
M  V30 52075 N 6799.64 -4.09664 -2.15742 0
M  V30 52076 H 6802.48 -7.45574 -4.45629 0
M  V30 52077 H 6802.75 -5.86232 -3.67314 0
M  V30 52078 H 6801.88 -7.84412 -2.24479 0
M  V30 52079 P 6797.92 -8.7635 -1.60911 0
M  V30 52080 O 6797.7 -10.1388 -1.11561 0
M  V30 52081 O 6797.13 -8.36503 -2.79617 0
M  V30 52082 O 6797.67 -7.71806 -0.42951 0
M  V30 52083 C 6798.61 -7.67148 0.673689 0
M  V30 52084 C 6797.88 -7.33374 1.95559 0
M  V30 52085 O 6797.67 -5.88721 2.00726 0
M  V30 52086 C 6796.48 -7.92526 2.10483 0
M  V30 52087 O 6796.09 -8.02971 3.47653 0
M  V30 52088 C 6795.6 -6.89602 1.41652 0
M  V30 52089 C 6796.31 -5.59201 1.75185 0
M  V30 52090 N 6796.26 -4.58301 0.657969 0
M  V30 52091 H 6799.1 -8.65116 0.777161 0
M  V30 52092 H 6799.37 -6.9022 0.46725 0
M  V30 52093 H 6798.5 -7.66548 2.79458 0
M  V30 52094 H 6795.85 -5.16165 2.65183 0
M  V30 52095 H 6795.57 -7.06433 0.329384 0
M  V30 52096 H 6794.58 -6.90926 1.82021 0
M  V30 52097 H 6796.41 -8.90873 1.62657 0
M  V30 52098 P 6794.54 -8.03563 3.84925 0
M  V30 52099 O 6794.32 -8.85821 5.0569 0
M  V30 52100 O 6793.75 -8.41101 2.65469 0
M  V30 52101 O 6794.29 -6.4965 4.18908 0
M  V30 52102 C 6795.23 -5.81037 5.05421 0
M  V30 52103 C 6794.5 -4.78366 5.89277 0
M  V30 52104 O 6794.29 -3.58302 5.08433 0
M  V30 52105 C 6793.1 -5.17448 6.36119 0
M  V30 52106 O 6792.71 -4.45271 7.53232 0
M  V30 52107 C 6792.22 -4.74639 5.19936 0
M  V30 52108 C 6792.93 -3.49432 4.70418 0
M  V30 52109 N 6792.88 -3.31776 3.22945 0
M  V30 52110 H 6795.72 -6.54213 5.71376 0
M  V30 52111 H 6795.99 -5.30492 4.44033 0
M  V30 52112 H 6795.12 -4.55889 6.76652 0
M  V30 52113 P 6791.16 -4.23843 7.83734 0
M  V30 52114 O 6790.94 -4.19407 9.29784 0
M  V30 52115 O 6790.37 -5.24426 7.09156 0
M  V30 52116 O 6790.91 -2.7935 7.20758 0
M  V30 52117 C 6791.85 -1.7299 7.50419 0
M  V30 52118 C 6791.12 -0.406376 7.57911 0
M  V30 52119 O 6790.91 0.0897726 6.21935 0
M  V30 52120 C 6789.72 -0.447224 8.1878 0
M  V30 52121 O 6789.33 0.825065 8.71101 0
M  V30 52122 C 6788.84 -0.783801 6.99623 0
M  V30 52123 C 6789.55 -0.0619192 5.85967 0
M  V30 52124 N 6789.5 -0.7859 4.56281 0
M  V30 52125 H 6792.34 -1.93423 8.4679 0
M  V30 52126 H 6792.61 -1.68181 6.71046 0
M  V30 52127 H 6791.74 0.289041 8.15388 0
M  V30 52128 P 6787.78 1.17771 8.83182 0
M  V30 52129 O 6787.56 2.07206 9.98732 0
M  V30 52130 O 6786.99 -0.0743816 8.81969 0
M  V30 52131 O 6787.53 1.97652 7.47304 0
M  V30 52132 C 6788.47 3.01133 7.08783 0
M  V30 52133 C 6787.74 4.12613 6.37049 0
M  V30 52134 O 6787.53 3.72827 4.97879 0
M  V30 52135 C 6786.34 4.45085 6.88694 0
M  V30 52136 O 6785.95 5.7877 6.5624 0
M  V30 52137 C 6785.46 3.47817 6.12078 0
M  V30 52138 C 6786.17 3.39414 4.77697 0
M  V30 52139 N 6786.12 2.04615 4.15333 0
M  V30 52140 H 6788.96 3.41248 7.98759 0
M  V30 52141 H 6789.23 2.5837 6.41742 0
M  V30 52142 H 6788.36 5.02657 6.42673 0
M  V30 52143 P 6784.4 6.144 6.45285 0
M  V30 52144 O 6784.18 7.54673 6.86199 0
M  V30 52145 O 6783.61 5.12391 7.179 0
M  V30 52146 O 6784.15 5.99158 4.88404 0
M  V30 52147 C 6785.09 6.60234 3.96415 0
M  V30 52148 C 6784.36 7.08259 2.72856 0
M  V30 52149 O 6784.15 5.9427 1.83651 0
M  V30 52150 C 6782.96 7.64886 2.9555 0
M  V30 52151 O 6782.57 8.53963 1.90717 0
M  V30 52152 C 6782.08 6.4116 2.90739 0
M  V30 52153 C 6782.79 5.55375 1.86963 0
M  V30 52154 N 6782.74 4.09664 2.15742 0
M  V30 52155 H 6785.58 7.45574 4.45629 0
M  V30 52156 H 6785.85 5.86232 3.67314 0
M  V30 52157 H 6784.98 7.84412 2.24479 0
M  V30 52158 P 6781.02 8.7635 1.60911 0
M  V30 52159 O 6780.8 10.1388 1.11561 0
M  V30 52160 O 6780.23 8.36503 2.79617 0
M  V30 52161 O 6780.77 7.71806 0.42951 0
M  V30 52162 C 6781.71 7.67148 -0.673689 0
M  V30 52163 C 6780.98 7.33374 -1.95559 0
M  V30 52164 O 6780.77 5.88721 -2.00726 0
M  V30 52165 C 6779.58 7.92526 -2.10483 0
M  V30 52166 O 6779.19 8.02971 -3.47653 0
M  V30 52167 C 6778.7 6.89602 -1.41652 0
M  V30 52168 C 6779.41 5.59201 -1.75185 0
M  V30 52169 N 6779.36 4.58235 -0.662552 0
M  V30 52170 H 6782.2 8.65116 -0.777161 0
M  V30 52171 H 6782.47 6.90173 -0.474152 0
M  V30 52172 H 6781.6 7.66548 -2.79458 0
M  V30 52173 P 6777.64 8.03563 -3.84925 0
M  V30 52174 O 6777.42 8.85821 -5.0569 0
M  V30 52175 O 6776.85 8.41101 -2.65469 0
M  V30 52176 O 6777.39 6.4965 -4.18908 0
M  V30 52177 C 6778.33 5.81037 -5.05421 0
M  V30 52178 C 6777.6 4.78366 -5.89277 0
M  V30 52179 O 6777.39 3.58302 -5.08433 0
M  V30 52180 C 6776.2 5.17448 -6.36119 0
M  V30 52181 O 6775.81 4.45271 -7.53232 0
M  V30 52182 C 6775.32 4.74639 -5.19936 0
M  V30 52183 C 6776.03 3.49432 -4.70418 0
M  V30 52184 N 6775.98 3.31776 -3.22945 0
M  V30 52185 H 6778.82 6.54213 -5.71376 0
M  V30 52186 H 6779.09 5.30492 -4.44033 0
M  V30 52187 H 6778.22 4.55889 -6.76652 0
M  V30 52188 P 6774.26 4.23843 -7.83734 0
M  V30 52189 O 6774.04 4.19407 -9.29784 0
M  V30 52190 O 6773.47 5.24426 -7.09156 0
M  V30 52191 O 6774.01 2.7935 -7.20758 0
M  V30 52192 C 6774.95 1.7299 -7.50419 0
M  V30 52193 C 6774.22 0.406376 -7.57911 0
M  V30 52194 O 6774.01 -0.0897726 -6.21935 0
M  V30 52195 C 6772.82 0.447224 -8.1878 0
M  V30 52196 O 6772.43 -0.825065 -8.71101 0
M  V30 52197 C 6771.94 0.783801 -6.99623 0
M  V30 52198 C 6772.65 0.0619192 -5.85967 0
M  V30 52199 N 6772.6 0.7859 -4.56281 0
M  V30 52200 H 6775.44 1.93423 -8.4679 0
M  V30 52201 H 6775.71 1.68181 -6.71046 0
M  V30 52202 H 6774.84 -0.289041 -8.15388 0
M  V30 52203 P 6770.88 -1.17771 -8.83182 0
M  V30 52204 O 6770.66 -2.07206 -9.98732 0
M  V30 52205 O 6770.09 0.0743816 -8.81969 0
M  V30 52206 O 6770.63 -1.97652 -7.47304 0
M  V30 52207 C 6771.57 -3.01133 -7.08783 0
M  V30 52208 C 6770.84 -4.12613 -6.37049 0
M  V30 52209 O 6770.63 -3.72827 -4.97879 0
M  V30 52210 C 6769.44 -4.45085 -6.88694 0
M  V30 52211 O 6769.05 -5.7877 -6.5624 0
M  V30 52212 C 6768.56 -3.47817 -6.12078 0
M  V30 52213 C 6769.27 -3.39414 -4.77697 0
M  V30 52214 N 6769.22 -2.04199 -4.15538 0
M  V30 52215 H 6772.06 -3.41248 -7.98759 0
M  V30 52216 H 6772.33 -2.57728 -6.42 0
M  V30 52217 H 6771.46 -5.02657 -6.42673 0
M  V30 52218 H 6768.81 -4.11708 -4.08956 0
M  V30 52219 H 6768.53 -2.49626 -6.61679 0
M  V30 52220 H 6767.54 -3.8662 -6.00862 0
M  V30 52221 H 6769.37 -4.29991 -7.97006 0
M  V30 52222 P 6767.5 -6.144 -6.45285 0
M  V30 52223 O 6767.28 -7.54673 -6.86199 0
M  V30 52224 O 6766.71 -5.12391 -7.179 0
M  V30 52225 O 6767.25 -5.99158 -4.88404 0
M  V30 52226 C 6768.19 -6.60234 -3.96415 0
M  V30 52227 C 6767.46 -7.08259 -2.72856 0
M  V30 52228 O 6767.25 -5.9427 -1.83651 0
M  V30 52229 C 6766.06 -7.64886 -2.9555 0
M  V30 52230 O 6765.67 -8.53963 -1.90717 0
M  V30 52231 C 6765.18 -6.4116 -2.90739 0
M  V30 52232 C 6765.89 -5.55375 -1.86963 0
M  V30 52233 N 6765.84 -4.09448 -2.16152 0
M  V30 52234 H 6768.68 -7.45574 -4.45629 0
M  V30 52235 H 6768.95 -5.85864 -3.679 0
M  V30 52236 H 6768.08 -7.84412 -2.24479 0
M  V30 52237 H 6765.43 -5.73457 -0.888562 0
M  V30 52238 H 6765.15 -5.90877 -3.88583 0
M  V30 52239 H 6764.16 -6.6596 -2.58858 0
M  V30 52240 H 6765.99 -8.16339 -3.92049 0
M  V30 52241 P 6764.12 -8.7635 -1.60911 0
M  V30 52242 O 6763.9 -10.1388 -1.11561 0
M  V30 52243 O 6763.33 -8.36503 -2.79617 0
M  V30 52244 O 6763.87 -7.71806 -0.42951 0
M  V30 52245 C 6764.81 -7.67148 0.673689 0
M  V30 52246 C 6764.08 -7.33374 1.95559 0
M  V30 52247 O 6763.87 -5.88721 2.00726 0
M  V30 52248 C 6762.68 -7.92526 2.10483 0
M  V30 52249 O 6762.29 -8.02971 3.47653 0
M  V30 52250 C 6761.8 -6.89602 1.41652 0
M  V30 52251 C 6762.51 -5.59201 1.75185 0
M  V30 52252 N 6762.46 -4.58235 0.662552 0
M  V30 52253 H 6765.3 -8.65116 0.777161 0
M  V30 52254 H 6765.57 -6.90173 0.474152 0
M  V30 52255 H 6764.7 -7.66548 2.79458 0
M  V30 52256 P 6760.74 -8.03563 3.84925 0
M  V30 52257 O 6760.52 -8.85821 5.0569 0
M  V30 52258 O 6759.95 -8.41101 2.65469 0
M  V30 52259 O 6760.49 -6.4965 4.18908 0
M  V30 52260 C 6761.43 -5.81037 5.05421 0
M  V30 52261 C 6760.7 -4.78366 5.89277 0
M  V30 52262 O 6760.49 -3.58302 5.08433 0
M  V30 52263 C 6759.3 -5.17448 6.36119 0
M  V30 52264 O 6758.91 -4.45271 7.53232 0
M  V30 52265 C 6758.42 -4.74639 5.19936 0
M  V30 52266 C 6759.13 -3.49432 4.70418 0
M  V30 52267 N 6759.08 -3.31776 3.22945 0
M  V30 52268 H 6761.92 -6.54213 5.71376 0
M  V30 52269 H 6762.19 -5.30492 4.44033 0
M  V30 52270 H 6761.32 -4.55889 6.76652 0
M  V30 52271 P 6757.36 -4.23843 7.83734 0
M  V30 52272 O 6757.14 -4.19407 9.29784 0
M  V30 52273 O 6756.57 -5.24426 7.09156 0
M  V30 52274 O 6757.11 -2.7935 7.20758 0
M  V30 52275 C 6758.05 -1.7299 7.50419 0
M  V30 52276 C 6757.32 -0.406376 7.57911 0
M  V30 52277 O 6757.11 0.0897726 6.21935 0
M  V30 52278 C 6755.92 -0.447224 8.1878 0
M  V30 52279 O 6755.53 0.825065 8.71101 0
M  V30 52280 C 6755.04 -0.783801 6.99623 0
M  V30 52281 C 6755.75 -0.0619192 5.85967 0
M  V30 52282 N 6755.7 -0.7859 4.56281 0
M  V30 52283 H 6758.54 -1.93423 8.4679 0
M  V30 52284 H 6758.81 -1.68181 6.71046 0
M  V30 52285 H 6757.94 0.289041 8.15388 0
M  V30 52286 P 6753.98 1.17771 8.83182 0
M  V30 52287 O 6753.76 2.07206 9.98732 0
M  V30 52288 O 6753.19 -0.0743816 8.81969 0
M  V30 52289 O 6753.73 1.97652 7.47304 0
M  V30 52290 C 6754.67 3.01055 7.08599 0
M  V30 52291 C 6753.94 4.12613 6.37049 0
M  V30 52292 O 6753.73 3.72827 4.97879 0
M  V30 52293 C 6752.54 4.45719 6.88164 0
M  V30 52294 O 6752.15 5.7877 6.5624 0
M  V30 52295 C 6751.66 3.47768 6.11991 0
M  V30 52296 C 6752.37 3.39356 4.77615 0
M  V30 52297 N 6752.32 2.04571 4.15244 0
M  V30 52298 C 6752.17 1.98587 2.78314 0
M  V30 52299 O 6752.08 2.98134 2.08835 0
M  V30 52300 N 6752.13 0.714467 2.24925 0
M  V30 52301 C 6752.22 -0.470001 2.94169 0
M  V30 52302 O 6752.17 -1.55587 2.35195 0
M  V30 52303 C 6752.37 -0.312541 4.36783 0
M  V30 52304 C 6752.48 -1.57711 5.16352 0
M  V30 52305 C 6752.42 0.914512 4.92583 0
M  V30 52306 H 6755.16 3.41169 7.98575 0
M  V30 52307 H 6755.43 2.58295 6.41556 0
M  V30 52308 H 6754.56 5.02657 6.42673 0
M  V30 52309 H 6751.91 4.11637 4.08885 0
M  V30 52310 H 6751.63 2.49626 6.61679 0
M  V30 52311 H 6750.64 3.86566 6.00778 0
M  V30 52312 H 6752.47 4.29943 7.96918 0
M  V30 52313 H 6752.54 1.00937 6.00374 0
M  V30 52314 H 6751.51 -1.80153 5.63503 0
M  V30 52315 H 6753.25 -1.4566 5.94104 0
M  V30 52316 H 6752.76 -2.40664 4.49645 0
M  V30 52317 H 6752.03 0.647622 1.25697 0
M  V30 52318 P 6750.6 6.144 6.45285 0
M  V30 52319 O 6750.38 7.54673 6.86199 0
M  V30 52320 O 6749.81 5.12391 7.179 0
M  V30 52321 O 6750.35 5.99158 4.88404 0
M  V30 52322 C 6751.29 6.60234 3.96415 0
M  V30 52323 C 6750.56 7.08259 2.72856 0
M  V30 52324 O 6750.35 5.9427 1.83651 0
M  V30 52325 C 6749.16 7.64886 2.9555 0
M  V30 52326 O 6748.77 8.53963 1.90717 0
M  V30 52327 C 6748.28 6.4116 2.90739 0
M  V30 52328 C 6748.99 5.55375 1.86963 0
M  V30 52329 N 6748.94 4.09664 2.15742 0
M  V30 52330 H 6751.78 7.45574 4.45629 0
M  V30 52331 H 6752.05 5.86232 3.67314 0
M  V30 52332 H 6751.18 7.84412 2.24479 0
M  V30 52333 P 6747.22 8.7635 1.60911 0
M  V30 52334 O 6747 10.1388 1.11561 0
M  V30 52335 O 6746.43 8.36503 2.79617 0
M  V30 52336 O 6746.97 7.71806 0.42951 0
M  V30 52337 C 6747.91 7.67148 -0.673689 0
M  V30 52338 C 6747.18 7.33374 -1.95559 0
M  V30 52339 O 6746.97 5.88721 -2.00726 0
M  V30 52340 C 6745.78 7.92526 -2.10483 0
M  V30 52341 O 6745.39 8.02971 -3.47653 0
M  V30 52342 C 6744.9 6.89602 -1.41652 0
M  V30 52343 C 6745.61 5.59201 -1.75185 0
M  V30 52344 N 6745.56 4.58301 -0.657969 0
M  V30 52345 H 6748.4 8.65116 -0.777161 0
M  V30 52346 H 6748.67 6.9022 -0.46725 0
M  V30 52347 H 6747.8 7.66548 -2.79458 0
M  V30 52348 H 6745.15 5.16165 -2.65183 0
M  V30 52349 H 6744.87 7.06433 -0.329384 0
M  V30 52350 H 6743.88 6.90926 -1.82021 0
M  V30 52351 H 6745.71 8.90873 -1.62657 0
M  V30 52352 P 6743.84 8.03563 -3.84925 0
M  V30 52353 O 6743.62 8.85821 -5.0569 0
M  V30 52354 O 6743.05 8.41101 -2.65469 0
M  V30 52355 O 6743.59 6.4965 -4.18908 0
M  V30 52356 C 6744.53 5.81037 -5.05421 0
M  V30 52357 C 6743.8 4.78366 -5.89277 0
M  V30 52358 O 6743.59 3.58302 -5.08433 0
M  V30 52359 C 6742.4 5.17448 -6.36119 0
M  V30 52360 O 6742.01 4.45271 -7.53232 0
M  V30 52361 C 6741.52 4.74639 -5.19936 0
M  V30 52362 C 6742.23 3.49432 -4.70418 0
M  V30 52363 N 6742.18 3.31776 -3.22945 0
M  V30 52364 H 6745.02 6.54213 -5.71376 0
M  V30 52365 H 6745.29 5.30492 -4.44033 0
M  V30 52366 H 6744.42 4.55889 -6.76652 0
M  V30 52367 P 6740.46 4.23843 -7.83734 0
M  V30 52368 O 6740.24 4.19407 -9.29784 0
M  V30 52369 O 6739.67 5.24426 -7.09156 0
M  V30 52370 O 6740.21 2.7935 -7.20758 0
M  V30 52371 C 6741.15 1.7299 -7.50419 0
M  V30 52372 C 6740.42 0.406376 -7.57911 0
M  V30 52373 O 6740.21 -0.0897726 -6.21935 0
M  V30 52374 C 6739.02 0.447224 -8.1878 0
M  V30 52375 O 6738.63 -0.825065 -8.71101 0
M  V30 52376 C 6738.14 0.783801 -6.99623 0
M  V30 52377 C 6738.85 0.0619192 -5.85967 0
M  V30 52378 N 6738.8 0.7859 -4.56281 0
M  V30 52379 H 6741.64 1.93423 -8.4679 0
M  V30 52380 H 6741.91 1.68181 -6.71046 0
M  V30 52381 H 6741.04 -0.289041 -8.15388 0
M  V30 52382 P 6737.08 -1.17771 -8.83182 0
M  V30 52383 O 6736.86 -2.07206 -9.98732 0
M  V30 52384 O 6736.29 0.0743816 -8.81969 0
M  V30 52385 O 6736.83 -1.97652 -7.47304 0
M  V30 52386 C 6737.77 -3.01133 -7.08783 0
M  V30 52387 C 6737.04 -4.12613 -6.37049 0
M  V30 52388 O 6736.83 -3.72827 -4.97879 0
M  V30 52389 C 6735.64 -4.45085 -6.88694 0
M  V30 52390 O 6735.25 -5.7877 -6.5624 0
M  V30 52391 C 6734.76 -3.47817 -6.12078 0
M  V30 52392 C 6735.47 -3.39414 -4.77697 0
M  V30 52393 N 6735.42 -2.04615 -4.15333 0
M  V30 52394 H 6738.26 -3.41248 -7.98759 0
M  V30 52395 H 6738.53 -2.5837 -6.41742 0
M  V30 52396 H 6737.66 -5.02657 -6.42673 0
M  V30 52397 P 6733.7 -6.144 -6.45285 0
M  V30 52398 O 6733.48 -7.54673 -6.86199 0
M  V30 52399 O 6732.91 -5.12391 -7.179 0
M  V30 52400 O 6733.45 -5.99158 -4.88404 0
M  V30 52401 C 6734.39 -6.60234 -3.96415 0
M  V30 52402 C 6733.66 -7.08259 -2.72856 0
M  V30 52403 O 6733.45 -5.9427 -1.83651 0
M  V30 52404 C 6732.26 -7.64886 -2.9555 0
M  V30 52405 O 6731.87 -8.53963 -1.90717 0
M  V30 52406 C 6731.38 -6.4116 -2.90739 0
M  V30 52407 C 6732.09 -5.55375 -1.86963 0
M  V30 52408 N 6732.04 -4.09664 -2.15742 0
M  V30 52409 H 6734.88 -7.45574 -4.45629 0
M  V30 52410 H 6735.15 -5.86232 -3.67314 0
M  V30 52411 H 6734.28 -7.84412 -2.24479 0
M  V30 52412 P 6730.32 -8.7635 -1.60911 0
M  V30 52413 O 6730.1 -10.1388 -1.11561 0
M  V30 52414 O 6729.53 -8.36503 -2.79617 0
M  V30 52415 O 6730.07 -7.71806 -0.42951 0
M  V30 52416 C 6731.01 -7.67148 0.673689 0
M  V30 52417 C 6730.28 -7.33374 1.95559 0
M  V30 52418 O 6730.07 -5.88721 2.00726 0
M  V30 52419 C 6728.88 -7.92526 2.10483 0
M  V30 52420 O 6728.49 -8.02971 3.47653 0
M  V30 52421 C 6728 -6.89602 1.41652 0
M  V30 52422 C 6728.71 -5.59201 1.75185 0
M  V30 52423 N 6728.66 -4.58301 0.657969 0
M  V30 52424 H 6731.5 -8.65116 0.777161 0
M  V30 52425 H 6731.77 -6.9022 0.46725 0
M  V30 52426 H 6730.9 -7.66548 2.79458 0
M  V30 52427 H 6728.25 -5.16165 2.65183 0
M  V30 52428 H 6727.97 -7.06433 0.329384 0
M  V30 52429 H 6726.98 -6.90926 1.82021 0
M  V30 52430 H 6728.81 -8.90873 1.62657 0
M  V30 52431 P 6726.94 -8.03563 3.84925 0
M  V30 52432 O 6726.72 -8.85821 5.0569 0
M  V30 52433 O 6726.15 -8.41101 2.65469 0
M  V30 52434 O 6726.69 -6.4965 4.18908 0
M  V30 52435 C 6727.63 -5.81037 5.05421 0
M  V30 52436 C 6726.9 -4.78366 5.89277 0
M  V30 52437 O 6726.69 -3.58302 5.08433 0
M  V30 52438 C 6725.5 -5.17448 6.36119 0
M  V30 52439 O 6725.11 -4.45271 7.53232 0
M  V30 52440 C 6724.62 -4.74639 5.19936 0
M  V30 52441 C 6725.33 -3.49432 4.70418 0
M  V30 52442 N 6725.28 -3.31776 3.22945 0
M  V30 52443 H 6728.12 -6.54213 5.71376 0
M  V30 52444 H 6728.39 -5.30492 4.44033 0
M  V30 52445 H 6727.52 -4.55889 6.76652 0
M  V30 52446 P 6723.56 -4.23843 7.83734 0
M  V30 52447 O 6723.34 -4.19407 9.29784 0
M  V30 52448 O 6722.77 -5.24426 7.09156 0
M  V30 52449 O 6723.31 -2.7935 7.20758 0
M  V30 52450 C 6724.25 -1.7299 7.50419 0
M  V30 52451 C 6723.52 -0.406376 7.57911 0
M  V30 52452 O 6723.31 0.0897726 6.21935 0
M  V30 52453 C 6722.12 -0.447224 8.1878 0
M  V30 52454 O 6721.73 0.825065 8.71101 0
M  V30 52455 C 6721.24 -0.783801 6.99623 0
M  V30 52456 C 6721.95 -0.0619192 5.85967 0
M  V30 52457 N 6721.9 -0.7859 4.56281 0
M  V30 52458 H 6724.74 -1.93423 8.4679 0
M  V30 52459 H 6725.01 -1.68181 6.71046 0
M  V30 52460 H 6724.14 0.289041 8.15388 0
M  V30 52461 P 6720.18 1.17771 8.83182 0
M  V30 52462 O 6719.96 2.07206 9.98732 0
M  V30 52463 O 6719.39 -0.0743816 8.81969 0
M  V30 52464 O 6719.93 1.97652 7.47304 0
M  V30 52465 C 6720.87 3.01133 7.08783 0
M  V30 52466 C 6720.14 4.12613 6.37049 0
M  V30 52467 O 6719.93 3.72827 4.97879 0
M  V30 52468 C 6718.74 4.45085 6.88694 0
M  V30 52469 O 6718.35 5.7877 6.5624 0
M  V30 52470 C 6717.86 3.47817 6.12078 0
M  V30 52471 C 6718.57 3.39414 4.77697 0
M  V30 52472 N 6718.52 2.04199 4.15538 0
M  V30 52473 H 6721.36 3.41248 7.98759 0
M  V30 52474 H 6721.63 2.57728 6.42 0
M  V30 52475 H 6720.76 5.02657 6.42673 0
M  V30 52476 H 6718.11 4.11708 4.08956 0
M  V30 52477 H 6717.83 2.49626 6.61679 0
M  V30 52478 H 6716.84 3.8662 6.00862 0
M  V30 52479 H 6718.67 4.29991 7.97006 0
M  V30 52480 P 6716.8 6.144 6.45285 0
M  V30 52481 O 6716.58 7.54673 6.86199 0
M  V30 52482 O 6716.01 5.12391 7.179 0
M  V30 52483 O 6716.55 5.99158 4.88404 0
M  V30 52484 C 6717.49 6.60234 3.96415 0
M  V30 52485 C 6716.76 7.08259 2.72856 0
M  V30 52486 O 6716.55 5.9427 1.83651 0
M  V30 52487 C 6715.36 7.64886 2.9555 0
M  V30 52488 O 6714.97 8.53963 1.90717 0
M  V30 52489 C 6714.48 6.4116 2.90739 0
M  V30 52490 C 6715.19 5.55375 1.86963 0
M  V30 52491 N 6715.14 4.09448 2.16152 0
M  V30 52492 C 6715.22 3.46824 3.37593 0
M  V30 52493 N 6715.15 2.17422 3.29777 0
M  V30 52494 C 6715 1.93065 1.94427 0
M  V30 52495 C 6714.87 0.738053 1.20141 0
M  V30 52496 N 6714.86 -0.474256 1.74676 0
M  V30 52497 N 6714.75 0.850049 -0.13045 0
M  V30 52498 C 6714.76 2.06169 -0.676992 0
M  V30 52499 N 6714.88 3.23842 -0.101312 0
M  V30 52500 C 6715 3.09402 1.23122 0
M  V30 52501 H 6717.98 7.45574 4.45629 0
M  V30 52502 H 6718.25 5.85864 3.679 0
M  V30 52503 H 6717.38 7.84412 2.24479 0
M  V30 52504 H 6714.73 5.73457 0.888562 0
M  V30 52505 H 6714.45 5.90877 3.88583 0
M  V30 52506 H 6713.46 6.6596 2.58858 0
M  V30 52507 H 6715.29 8.16339 3.92049 0
M  V30 52508 H 6715.33 4.00505 4.3174 0
M  V30 52509 H 6714.95 -0.581337 2.76658 0
M  V30 52510 H 6714.76 -1.30811 1.14888 0
M  V30 52511 H 6714.65 2.08295 -1.75542 0
M  V30 52512 P 6713.42 8.7635 1.60911 0
M  V30 52513 O 6713.2 10.1388 1.11561 0
M  V30 52514 O 6712.63 8.36503 2.79617 0
M  V30 52515 O 6713.17 7.71806 0.42951 0
M  V30 52516 C 6714.11 7.67148 -0.673689 0
M  V30 52517 C 6713.38 7.33374 -1.95559 0
M  V30 52518 O 6713.17 5.88721 -2.00726 0
M  V30 52519 C 6711.98 7.92526 -2.10483 0
M  V30 52520 O 6711.59 8.02971 -3.47653 0
M  V30 52521 C 6711.1 6.89602 -1.41652 0
M  V30 52522 C 6711.81 5.59201 -1.75185 0
M  V30 52523 N 6711.76 4.58301 -0.657969 0
M  V30 52524 H 6714.6 8.65116 -0.777161 0
M  V30 52525 H 6714.87 6.9022 -0.46725 0
M  V30 52526 H 6714 7.66548 -2.79458 0
M  V30 52527 H 6711.35 5.16165 -2.65183 0
M  V30 52528 H 6711.07 7.06433 -0.329384 0
M  V30 52529 H 6710.08 6.90926 -1.82021 0
M  V30 52530 H 6711.91 8.90873 -1.62657 0
M  V30 52531 P 6710.04 8.03563 -3.84925 0
M  V30 52532 O 6709.82 8.85821 -5.0569 0
M  V30 52533 O 6709.25 8.41101 -2.65469 0
M  V30 52534 O 6709.79 6.49734 -4.18962 0
M  V30 52535 C 6710.73 5.81037 -5.05421 0
M  V30 52536 C 6710 4.79018 -5.88876 0
M  V30 52537 O 6709.79 3.58359 -5.08515 0
M  V30 52538 C 6708.6 5.17448 -6.36119 0
M  V30 52539 O 6708.21 4.45322 -7.53318 0
M  V30 52540 C 6707.72 4.74639 -5.19936 0
M  V30 52541 C 6708.43 3.49432 -4.70418 0
M  V30 52542 N 6708.38 3.31776 -3.22945 0
M  V30 52543 C 6708.23 2.02742 -2.72939 0
M  V30 52544 O 6708.14 1.08301 -3.52749 0
M  V30 52545 N 6708.18 1.96117 -1.22063 0
M  V30 52546 C 6708.28 2.8878 -0.551566 0
M  V30 52547 N 6708.23 2.65609 0.750198 0
M  V30 52548 C 6708.43 4.22457 -1.03707 0
M  V30 52549 C 6708.48 4.37979 -2.39113 0
M  V30 52550 H 6711.22 6.54138 -5.7131 0
M  V30 52551 H 6711.49 5.30492 -4.44033 0
M  V30 52552 H 6710.62 4.55945 -6.76735 0
M  V30 52553 H 6707.97 2.6176 -5.18021 0
M  V30 52554 H 6707.69 5.52233 -4.41941 0
M  V30 52555 H 6706.7 4.52045 -5.53452 0
M  V30 52556 H 6708.53 6.25124 -6.55234 0
M  V30 52557 H 6708.6 5.37936 -2.80552 0
M  V30 52558 H 6708.5 5.07528 -0.359553 0
M  V30 52559 H 6708.11 1.69403 1.09847 0
M  V30 52560 H 6708.31 3.43701 1.41792 0
M  V30 52561 P 6706.66 4.23843 -7.83734 0
M  V30 52562 O 6706.44 4.19407 -9.29784 0
M  V30 52563 O 6705.87 5.24426 -7.09156 0
M  V30 52564 O 6706.41 2.7935 -7.20758 0
M  V30 52565 C 6707.35 1.7299 -7.50419 0
M  V30 52566 C 6706.62 0.406376 -7.57911 0
M  V30 52567 O 6706.41 -0.0897726 -6.21935 0
M  V30 52568 C 6705.22 0.447224 -8.1878 0
M  V30 52569 O 6704.83 -0.825065 -8.71101 0
M  V30 52570 C 6704.34 0.783801 -6.99623 0
M  V30 52571 C 6705.05 0.0619192 -5.85967 0
M  V30 52572 N 6705 0.790462 -4.56202 0
M  V30 52573 H 6707.84 1.93423 -8.4679 0
M  V30 52574 H 6708.11 1.68852 -6.70877 0
M  V30 52575 H 6707.24 -0.289041 -8.15388 0
M  V30 52576 H 6704.59 -0.927006 -5.72848 0
M  V30 52577 H 6704.31 1.86973 -6.82036 0
M  V30 52578 H 6703.32 0.403953 -7.13357 0
M  V30 52579 H 6705.15 1.20599 -8.97534 0
M  V30 52580 P 6703.28 -1.17771 -8.83182 0
M  V30 52581 O 6703.06 -2.07206 -9.98732 0
M  V30 52582 O 6702.49 0.0743816 -8.81969 0
M  V30 52583 O 6703.03 -1.97652 -7.47304 0
M  V30 52584 C 6703.97 -3.01133 -7.08783 0
M  V30 52585 C 6703.24 -4.12613 -6.37049 0
M  V30 52586 O 6703.03 -3.72827 -4.97879 0
M  V30 52587 C 6701.84 -4.45085 -6.88694 0
M  V30 52588 O 6701.45 -5.7877 -6.5624 0
M  V30 52589 C 6700.96 -3.47817 -6.12078 0
M  V30 52590 C 6701.67 -3.39414 -4.77697 0
M  V30 52591 N 6701.62 -2.04199 -4.15538 0
M  V30 52592 H 6704.46 -3.41248 -7.98759 0
M  V30 52593 H 6704.73 -2.57728 -6.42 0
M  V30 52594 H 6703.86 -5.02657 -6.42673 0
M  V30 52595 H 6701.21 -4.11708 -4.08956 0
M  V30 52596 H 6700.93 -2.49626 -6.61679 0
M  V30 52597 H 6699.94 -3.8662 -6.00862 0
M  V30 52598 H 6701.77 -4.29991 -7.97006 0
M  V30 52599 P 6699.9 -6.144 -6.45285 0
M  V30 52600 O 6699.68 -7.54673 -6.86199 0
M  V30 52601 O 6699.11 -5.12391 -7.179 0
M  V30 52602 O 6699.65 -5.99158 -4.88404 0
M  V30 52603 C 6700.59 -6.60234 -3.96415 0
M  V30 52604 C 6699.86 -7.08259 -2.72856 0
M  V30 52605 O 6699.65 -5.9427 -1.83651 0
M  V30 52606 C 6698.46 -7.64886 -2.9555 0
M  V30 52607 O 6698.07 -8.53963 -1.90717 0
M  V30 52608 C 6697.58 -6.4116 -2.90739 0
M  V30 52609 C 6698.29 -5.55375 -1.86963 0
M  V30 52610 N 6698.24 -4.09664 -2.15742 0
M  V30 52611 H 6701.08 -7.45574 -4.45629 0
M  V30 52612 H 6701.35 -5.86232 -3.67314 0
M  V30 52613 H 6700.48 -7.84412 -2.24479 0
M  V30 52614 P 6696.52 -8.7635 -1.60911 0
M  V30 52615 O 6696.3 -10.1388 -1.11561 0
M  V30 52616 O 6695.73 -8.36503 -2.79617 0
M  V30 52617 O 6696.27 -7.71806 -0.42951 0
M  V30 52618 C 6697.21 -7.67148 0.673689 0
M  V30 52619 C 6696.48 -7.33374 1.95559 0
M  V30 52620 O 6696.27 -5.88721 2.00726 0
M  V30 52621 C 6695.08 -7.92526 2.10483 0
M  V30 52622 O 6694.69 -8.02971 3.47653 0
M  V30 52623 C 6694.2 -6.89602 1.41652 0
M  V30 52624 C 6694.91 -5.59201 1.75185 0
M  V30 52625 N 6694.86 -4.58301 0.657969 0
M  V30 52626 C 6694.94 -4.79019 -0.692603 0
M  V30 52627 N 6694.87 -3.69736 -1.38998 0
M  V30 52628 C 6694.72 -2.70474 -0.438135 0
M  V30 52629 C 6694.59 -1.30327 -0.538142 0
M  V30 52630 N 6694.58 -0.64304 -1.69192 0
M  V30 52631 N 6694.47 -0.611027 0.605183 0
M  V30 52632 C 6694.48 -1.27002 1.75953 0
M  V30 52633 N 6694.6 -2.56038 1.98546 0
M  V30 52634 C 6694.72 -3.22681 0.822541 0
M  V30 52635 H 6697.7 -8.65116 0.777161 0
M  V30 52636 H 6697.97 -6.9022 0.46725 0
M  V30 52637 H 6697.1 -7.66548 2.79458 0
M  V30 52638 H 6694.45 -5.16165 2.65183 0
M  V30 52639 H 6694.17 -7.06433 0.329384 0
M  V30 52640 H 6693.18 -6.90926 1.82021 0
M  V30 52641 H 6695.01 -8.90873 1.62657 0
M  V30 52642 H 6695.05 -5.77785 -1.13874 0
M  V30 52643 H 6694.67 -1.15585 -2.57991 0
M  V30 52644 H 6694.48 0.382989 -1.69835 0
M  V30 52645 H 6694.37 -0.653331 2.64449 0
M  V30 52646 P 6693.14 -8.03563 3.84925 0
M  V30 52647 O 6692.92 -8.85821 5.0569 0
M  V30 52648 O 6692.35 -8.41101 2.65469 0
M  V30 52649 O 6692.89 -6.4965 4.18908 0
M  V30 52650 C 6693.83 -5.81037 5.05421 0
M  V30 52651 C 6693.1 -4.78366 5.89277 0
M  V30 52652 O 6692.89 -3.58302 5.08433 0
M  V30 52653 C 6691.7 -5.17448 6.36119 0
M  V30 52654 O 6691.31 -4.45271 7.53232 0
M  V30 52655 C 6690.82 -4.74639 5.19936 0
M  V30 52656 C 6691.53 -3.49432 4.70418 0
M  V30 52657 N 6691.48 -3.32099 3.22613 0
M  V30 52658 H 6694.32 -6.54213 5.71376 0
M  V30 52659 H 6694.59 -5.30936 4.43503 0
M  V30 52660 H 6693.72 -4.55889 6.76652 0
M  V30 52661 H 6691.07 -2.61715 5.17932 0
M  V30 52662 H 6690.79 -5.52155 4.41878 0
M  V30 52663 H 6689.8 -4.51981 5.53374 0
M  V30 52664 H 6691.63 -6.25124 6.55234 0
M  V30 52665 P 6689.76 -4.23843 7.83734 0
M  V30 52666 O 6689.54 -4.19407 9.29784 0
M  V30 52667 O 6688.97 -5.24426 7.09156 0
M  V30 52668 O 6689.51 -2.7935 7.20758 0
M  V30 52669 C 6690.45 -1.7299 7.50419 0
M  V30 52670 C 6689.72 -0.406376 7.57911 0
M  V30 52671 O 6689.51 0.0897726 6.21935 0
M  V30 52672 C 6688.32 -0.447224 8.1878 0
M  V30 52673 O 6687.93 0.825065 8.71101 0
M  V30 52674 C 6687.44 -0.783801 6.99623 0
M  V30 52675 C 6688.15 -0.0619192 5.85967 0
M  V30 52676 N 6688.1 -0.7859 4.56281 0
M  V30 52677 H 6690.94 -1.93423 8.4679 0
M  V30 52678 H 6691.21 -1.68181 6.71046 0
M  V30 52679 H 6690.34 0.289041 8.15388 0
M  V30 52680 P 6686.38 1.17771 8.83182 0
M  V30 52681 O 6686.16 2.07206 9.98732 0
M  V30 52682 O 6685.59 -0.0743816 8.81969 0
M  V30 52683 O 6686.13 1.97652 7.47304 0
M  V30 52684 C 6687.07 3.01055 7.08599 0
M  V30 52685 C 6686.34 4.12613 6.37049 0
M  V30 52686 O 6686.13 3.72827 4.97879 0
M  V30 52687 C 6684.94 4.45719 6.88164 0
M  V30 52688 O 6684.55 5.7877 6.5624 0
M  V30 52689 C 6684.06 3.47768 6.11991 0
M  V30 52690 C 6684.77 3.39356 4.77615 0
M  V30 52691 N 6684.72 2.04571 4.15244 0
M  V30 52692 C 6684.57 1.98587 2.78314 0
M  V30 52693 O 6684.48 2.98134 2.08835 0
M  V30 52694 N 6684.53 0.714467 2.24925 0
M  V30 52695 C 6684.62 -0.470001 2.94169 0
M  V30 52696 O 6684.57 -1.55587 2.35195 0
M  V30 52697 C 6684.77 -0.312541 4.36783 0
M  V30 52698 C 6684.88 -1.57711 5.16352 0
M  V30 52699 C 6684.82 0.914512 4.92583 0
M  V30 52700 H 6687.56 3.41169 7.98575 0
M  V30 52701 H 6687.83 2.58295 6.41556 0
M  V30 52702 H 6686.96 5.02657 6.42673 0
M  V30 52703 H 6684.31 4.11637 4.08885 0
M  V30 52704 H 6684.03 2.49626 6.61679 0
M  V30 52705 H 6683.04 3.86566 6.00778 0
M  V30 52706 H 6684.87 4.29943 7.96918 0
M  V30 52707 H 6684.94 1.00937 6.00374 0
M  V30 52708 H 6683.91 -1.80153 5.63503 0
M  V30 52709 H 6685.65 -1.4566 5.94104 0
M  V30 52710 H 6685.16 -2.40664 4.49645 0
M  V30 52711 H 6684.43 0.647622 1.25697 0
M  V30 52712 P 6683 6.144 6.45285 0
M  V30 52713 O 6682.78 7.54673 6.86199 0
M  V30 52714 O 6682.21 5.12391 7.179 0
M  V30 52715 O 6682.75 5.99158 4.88404 0
M  V30 52716 C 6683.69 6.60234 3.96415 0
M  V30 52717 C 6682.96 7.08259 2.72856 0
M  V30 52718 O 6682.75 5.9427 1.83651 0
M  V30 52719 C 6681.56 7.64886 2.9555 0
M  V30 52720 O 6681.17 8.53963 1.90717 0
M  V30 52721 C 6680.68 6.4116 2.90739 0
M  V30 52722 C 6681.39 5.55375 1.86963 0
M  V30 52723 N 6681.34 4.09664 2.15742 0
M  V30 52724 H 6684.18 7.45574 4.45629 0
M  V30 52725 H 6684.45 5.86232 3.67314 0
M  V30 52726 H 6683.58 7.84412 2.24479 0
M  V30 52727 P 6679.62 8.7635 1.60911 0
M  V30 52728 O 6679.4 10.1388 1.11561 0
M  V30 52729 O 6678.83 8.36503 2.79617 0
M  V30 52730 O 6679.37 7.71806 0.42951 0
M  V30 52731 C 6680.31 7.67148 -0.673689 0
M  V30 52732 C 6679.58 7.33374 -1.95559 0
M  V30 52733 O 6679.37 5.88721 -2.00726 0
M  V30 52734 C 6678.18 7.92526 -2.10483 0
M  V30 52735 O 6677.79 8.02971 -3.47653 0
M  V30 52736 C 6677.3 6.89602 -1.41652 0
M  V30 52737 C 6678.01 5.59201 -1.75185 0
M  V30 52738 N 6677.96 4.58301 -0.657969 0
M  V30 52739 H 6680.8 8.65116 -0.777161 0
M  V30 52740 H 6681.07 6.9022 -0.46725 0
M  V30 52741 H 6680.2 7.66548 -2.79458 0
M  V30 52742 H 6677.55 5.16165 -2.65183 0
M  V30 52743 H 6677.27 7.06433 -0.329384 0
M  V30 52744 H 6676.28 6.90926 -1.82021 0
M  V30 52745 H 6678.11 8.90873 -1.62657 0
M  V30 52746 P 6676.24 8.03563 -3.84925 0
M  V30 52747 O 6676.02 8.85821 -5.0569 0
M  V30 52748 O 6675.45 8.41101 -2.65469 0
M  V30 52749 O 6675.99 6.4965 -4.18908 0
M  V30 52750 C 6676.93 5.81037 -5.05421 0
M  V30 52751 C 6676.2 4.78366 -5.89277 0
M  V30 52752 O 6675.99 3.58302 -5.08433 0
M  V30 52753 C 6674.8 5.17448 -6.36119 0
M  V30 52754 O 6674.41 4.45271 -7.53232 0
M  V30 52755 C 6673.92 4.74639 -5.19936 0
M  V30 52756 C 6674.63 3.49432 -4.70418 0
M  V30 52757 N 6674.58 3.31776 -3.22945 0
M  V30 52758 H 6677.42 6.54213 -5.71376 0
M  V30 52759 H 6677.69 5.30492 -4.44033 0
M  V30 52760 H 6676.82 4.55889 -6.76652 0
M  V30 52761 P 6672.86 4.23843 -7.83734 0
M  V30 52762 O 6672.64 4.19407 -9.29784 0
M  V30 52763 O 6672.07 5.24426 -7.09156 0
M  V30 52764 O 6672.61 2.7935 -7.20758 0
M  V30 52765 C 6673.55 1.7299 -7.50419 0
M  V30 52766 C 6672.82 0.406376 -7.57911 0
M  V30 52767 O 6672.61 -0.0897726 -6.21935 0
M  V30 52768 C 6671.42 0.447224 -8.1878 0
M  V30 52769 O 6671.03 -0.825065 -8.71101 0
M  V30 52770 C 6670.54 0.783801 -6.99623 0
M  V30 52771 C 6671.25 0.0619192 -5.85967 0
M  V30 52772 N 6671.2 0.7859 -4.56281 0
M  V30 52773 H 6674.04 1.93423 -8.4679 0
M  V30 52774 H 6674.31 1.68181 -6.71046 0
M  V30 52775 H 6673.44 -0.289041 -8.15388 0
M  V30 52776 P 6669.48 -1.17771 -8.83182 0
M  V30 52777 O 6669.26 -2.07206 -9.98732 0
M  V30 52778 O 6668.69 0.0743816 -8.81969 0
M  V30 52779 O 6669.23 -1.97678 -7.474 0
M  V30 52780 C 6670.17 -3.01133 -7.08783 0
M  V30 52781 C 6669.44 -4.1203 -6.37546 0
M  V30 52782 O 6669.23 -3.72887 -4.9796 0
M  V30 52783 C 6668.04 -4.45085 -6.88694 0
M  V30 52784 O 6667.65 -5.78836 -6.56315 0
M  V30 52785 C 6667.16 -3.47817 -6.12078 0
M  V30 52786 C 6667.87 -3.39414 -4.77697 0
M  V30 52787 N 6667.82 -2.04615 -4.15333 0
M  V30 52788 C 6667.67 -1.96929 -2.77162 0
M  V30 52789 O 6667.58 -3.02017 -2.12006 0
M  V30 52790 N 6667.62 -0.55485 -2.24237 0
M  V30 52791 C 6667.72 0.367808 -2.9169 0
M  V30 52792 N 6667.67 1.53426 -2.29427 0
M  V30 52793 C 6667.87 0.319148 -4.33828 0
M  V30 52794 C 6667.92 -0.920672 -4.90433 0
M  V30 52795 H 6670.66 -3.41209 -7.98667 0
M  V30 52796 H 6670.93 -2.5837 -6.41742 0
M  V30 52797 H 6670.06 -5.02718 -6.42752 0
M  V30 52798 H 6667.41 -4.11779 -4.09026 0
M  V30 52799 H 6667.13 -2.49661 -6.61772 0
M  V30 52800 H 6666.14 -3.86674 -6.00946 0
M  V30 52801 H 6667.97 -4.29991 -7.97006 0
M  V30 52802 H 6668.04 -1.00589 -5.98303 0
M  V30 52803 H 6667.94 1.22639 -4.93799 0
M  V30 52804 H 6667.55 1.56819 -1.27167 0
M  V30 52805 H 6667.75 2.41062 -2.83063 0
M  V30 52806 P 6666.1 -6.144 -6.45285 0
M  V30 52807 O 6665.88 -7.54673 -6.86199 0
M  V30 52808 O 6665.31 -5.12391 -7.179 0
M  V30 52809 O 6665.85 -5.99158 -4.88404 0
M  V30 52810 C 6666.79 -6.60234 -3.96415 0
M  V30 52811 C 6666.06 -7.08259 -2.72856 0
M  V30 52812 O 6665.85 -5.9427 -1.83651 0
M  V30 52813 C 6664.66 -7.64886 -2.9555 0
M  V30 52814 O 6664.27 -8.53963 -1.90717 0
M  V30 52815 C 6663.78 -6.4116 -2.90739 0
M  V30 52816 C 6664.49 -5.55375 -1.86963 0
M  V30 52817 N 6664.44 -4.09448 -2.16152 0
M  V30 52818 H 6667.28 -7.45574 -4.45629 0
M  V30 52819 H 6667.55 -5.85864 -3.679 0
M  V30 52820 H 6666.68 -7.84412 -2.24479 0
M  V30 52821 H 6664.03 -5.73457 -0.888562 0
M  V30 52822 H 6663.75 -5.90877 -3.88583 0
M  V30 52823 H 6662.76 -6.6596 -2.58858 0
M  V30 52824 H 6664.59 -8.16339 -3.92049 0
M  V30 52825 P 6662.72 -8.7635 -1.60911 0
M  V30 52826 O 6662.5 -10.1388 -1.11561 0
M  V30 52827 O 6661.93 -8.36503 -2.79617 0
M  V30 52828 O 6662.47 -7.71906 -0.429565 0
M  V30 52829 C 6663.41 -7.67148 0.673689 0
M  V30 52830 C 6662.68 -7.33666 1.94851 0
M  V30 52831 O 6662.47 -5.88816 2.00759 0
M  V30 52832 C 6661.28 -7.92526 2.10483 0
M  V30 52833 O 6660.89 -8.03063 3.47693 0
M  V30 52834 C 6660.4 -6.89602 1.41652 0
M  V30 52835 C 6661.11 -5.59201 1.75185 0
M  V30 52836 N 6661.06 -4.58235 0.662552 0
M  V30 52837 C 6660.91 -3.24451 1.01643 0
M  V30 52838 O 6660.82 -2.94958 2.21722 0
M  V30 52839 N 6660.86 -2.30408 -0.165238 0
M  V30 52840 C 6660.96 -2.66048 -1.25118 0
M  V30 52841 N 6660.91 -1.70787 -2.16813 0
M  V30 52842 C 6661.11 -4.02732 -1.64413 0
M  V30 52843 C 6661.16 -4.9488 -0.63991 0
M  V30 52844 H 6663.9 -8.65017 0.777072 0
M  V30 52845 H 6664.17 -6.90173 0.474152 0
M  V30 52846 H 6663.3 -7.66642 2.79492 0
M  V30 52847 H 6660.65 -5.16254 2.65229 0
M  V30 52848 H 6660.37 -7.06532 0.329431 0
M  V30 52849 H 6659.38 -6.91023 1.82047 0
M  V30 52850 H 6661.21 -8.90873 1.62657 0
M  V30 52851 H 6661.28 -6.00104 -0.892197 0
M  V30 52852 H 6661.18 -4.31733 -2.69229 0
M  V30 52853 H 6660.79 -0.724835 -1.8844 0
M  V30 52854 H 6660.99 -1.94716 -3.16734 0
M  V30 52855 P 6659.34 -8.03563 3.84925 0
M  V30 52856 O 6659.12 -8.85821 5.0569 0
M  V30 52857 O 6658.55 -8.41101 2.65469 0
M  V30 52858 O 6659.09 -6.4965 4.18908 0
M  V30 52859 C 6660.03 -5.81037 5.05421 0
M  V30 52860 C 6659.3 -4.78366 5.89277 0
M  V30 52861 O 6659.09 -3.58302 5.08433 0
M  V30 52862 C 6657.9 -5.17448 6.36119 0
M  V30 52863 O 6657.51 -4.45271 7.53232 0
M  V30 52864 C 6657.02 -4.74639 5.19936 0
M  V30 52865 C 6657.73 -3.49432 4.70418 0
M  V30 52866 N 6657.68 -3.31776 3.22945 0
M  V30 52867 H 6660.52 -6.54213 5.71376 0
M  V30 52868 H 6660.79 -5.30492 4.44033 0
M  V30 52869 H 6659.92 -4.55889 6.76652 0
M  V30 52870 P 6655.96 -4.23843 7.83734 0
M  V30 52871 O 6655.74 -4.19407 9.29784 0
M  V30 52872 O 6655.17 -5.24426 7.09156 0
M  V30 52873 O 6655.71 -2.79386 7.20852 0
M  V30 52874 C 6656.65 -1.7299 7.50419 0
M  V30 52875 C 6655.92 -0.41401 7.5797 0
M  V30 52876 O 6655.71 0.089787 6.22035 0
M  V30 52877 C 6654.52 -0.447224 8.1878 0
M  V30 52878 O 6654.13 0.825159 8.71201 0
M  V30 52879 C 6653.64 -0.783801 6.99623 0
M  V30 52880 C 6654.35 -0.0619192 5.85967 0
M  V30 52881 N 6654.3 -0.7859 4.56281 0
M  V30 52882 C 6654.15 -0.0359258 3.39981 0
M  V30 52883 O 6654.06 1.19723 3.49038 0
M  V30 52884 N 6654.1 -0.869151 2.14025 0
M  V30 52885 C 6654.2 -2.01207 2.14363 0
M  V30 52886 N 6654.15 -2.58978 0.954287 0
M  V30 52887 C 6654.35 -2.80817 3.32215 0
M  V30 52888 C 6654.4 -2.13785 4.50884 0
M  V30 52889 H 6657.14 -1.93401 8.46693 0
M  V30 52890 H 6657.41 -1.68181 6.71046 0
M  V30 52891 H 6656.54 0.289076 8.15488 0
M  V30 52892 H 6653.89 0.927166 5.72947 0
M  V30 52893 H 6653.61 -1.87 6.82132 0
M  V30 52894 H 6652.62 -0.404009 7.13457 0
M  V30 52895 H 6654.45 -1.20599 8.97534 0
M  V30 52896 H 6654.52 -2.70295 5.43162 0
M  V30 52897 H 6654.42 -3.89465 3.27406 0
M  V30 52898 H 6654.03 -2.01616 0.107046 0
M  V30 52899 H 6654.23 -3.61403 0.873101 0
M  V30 52900 P 6652.58 1.17771 8.83182 0
M  V30 52901 O 6652.36 2.07206 9.98732 0
M  V30 52902 O 6651.79 -0.0743816 8.81969 0
M  V30 52903 O 6652.33 1.97652 7.47304 0
M  V30 52904 C 6653.27 3.01133 7.08783 0
M  V30 52905 C 6652.54 4.12613 6.37049 0
M  V30 52906 O 6652.33 3.72827 4.97879 0
M  V30 52907 C 6651.14 4.45085 6.88694 0
M  V30 52908 O 6650.75 5.7877 6.5624 0
M  V30 52909 C 6650.26 3.47817 6.12078 0
M  V30 52910 C 6650.97 3.39414 4.77697 0
M  V30 52911 N 6650.92 2.04615 4.15333 0
M  V30 52912 H 6653.76 3.41248 7.98759 0
M  V30 52913 H 6654.03 2.5837 6.41742 0
M  V30 52914 H 6653.16 5.02657 6.42673 0
M  V30 52915 P 6649.2 6.144 6.45285 0
M  V30 52916 O 6648.98 7.54673 6.86199 0
M  V30 52917 O 6648.41 5.12391 7.179 0
M  V30 52918 O 6648.95 5.99158 4.88404 0
M  V30 52919 C 6649.89 6.60234 3.96415 0
M  V30 52920 C 6649.16 7.08259 2.72856 0
M  V30 52921 O 6648.95 5.9427 1.83651 0
M  V30 52922 C 6647.76 7.64886 2.9555 0
M  V30 52923 O 6647.37 8.53963 1.90717 0
M  V30 52924 C 6646.88 6.4116 2.90739 0
M  V30 52925 C 6647.59 5.55375 1.86963 0
M  V30 52926 N 6647.54 4.09664 2.15742 0
M  V30 52927 H 6650.38 7.45574 4.45629 0
M  V30 52928 H 6650.65 5.86232 3.67314 0
M  V30 52929 H 6649.78 7.84412 2.24479 0
M  V30 52930 P 6645.82 8.7635 1.60911 0
M  V30 52931 O 6645.6 10.1388 1.11561 0
M  V30 52932 O 6645.03 8.36503 2.79617 0
M  V30 52933 O 6645.57 7.71806 0.42951 0
M  V30 52934 C 6646.51 7.67148 -0.673689 0
M  V30 52935 C 6645.78 7.33374 -1.95559 0
M  V30 52936 O 6645.57 5.88721 -2.00726 0
M  V30 52937 C 6644.38 7.92526 -2.10483 0
M  V30 52938 O 6643.99 8.02971 -3.47653 0
M  V30 52939 C 6643.5 6.89602 -1.41652 0
M  V30 52940 C 6644.21 5.59201 -1.75185 0
M  V30 52941 N 6644.16 4.58301 -0.657969 0
M  V30 52942 H 6647 8.65116 -0.777161 0
M  V30 52943 H 6647.27 6.9022 -0.46725 0
M  V30 52944 H 6646.4 7.66548 -2.79458 0
M  V30 52945 H 6643.75 5.16165 -2.65183 0
M  V30 52946 H 6643.47 7.06433 -0.329384 0
M  V30 52947 H 6642.48 6.90926 -1.82021 0
M  V30 52948 H 6644.31 8.90873 -1.62657 0
M  V30 52949 P 6642.44 8.03563 -3.84925 0
M  V30 52950 O 6642.22 8.85821 -5.0569 0
M  V30 52951 O 6641.65 8.41101 -2.65469 0
M  V30 52952 O 6642.19 6.4965 -4.18908 0
M  V30 52953 C 6643.13 5.81037 -5.05421 0
M  V30 52954 C 6642.4 4.78366 -5.89277 0
M  V30 52955 O 6642.19 3.58302 -5.08433 0
M  V30 52956 C 6641 5.17448 -6.36119 0
M  V30 52957 O 6640.61 4.45271 -7.53232 0
M  V30 52958 C 6640.12 4.74639 -5.19936 0
M  V30 52959 C 6640.83 3.49432 -4.70418 0
M  V30 52960 N 6640.78 3.31776 -3.22945 0
M  V30 52961 H 6643.62 6.54213 -5.71376 0
M  V30 52962 H 6643.89 5.30492 -4.44033 0
M  V30 52963 H 6643.02 4.55889 -6.76652 0
M  V30 52964 P 6639.06 4.23843 -7.83734 0
M  V30 52965 O 6638.84 4.19407 -9.29784 0
M  V30 52966 O 6638.27 5.24426 -7.09156 0
M  V30 52967 O 6638.81 2.7935 -7.20758 0
M  V30 52968 C 6639.75 1.72945 -7.50224 0
M  V30 52969 C 6639.02 0.406376 -7.57911 0
M  V30 52970 O 6638.81 -0.0897726 -6.21935 0
M  V30 52971 C 6637.62 0.438983 -8.18724 0
M  V30 52972 O 6637.23 -0.825065 -8.71101 0
M  V30 52973 C 6636.74 0.783689 -6.99524 0
M  V30 52974 C 6637.45 0.0619086 -5.85867 0
M  V30 52975 N 6637.4 0.78573 -4.56183 0
M  V30 52976 C 6637.25 0.0292889 -3.41887 0
M  V30 52977 O 6637.16 -1.18445 -3.4419 0
M  V30 52978 N 6637.21 0.744061 -2.23964 0
M  V30 52979 C 6637.3 2.10932 -2.10362 0
M  V30 52980 O 6637.25 2.64117 -0.98825 0
M  V30 52981 C 6637.45 2.8202 -3.34994 0
M  V30 52982 C 6637.56 4.31095 -3.25037 0
M  V30 52983 C 6637.5 2.15547 -4.52261 0
M  V30 52984 H 6640.24 1.93379 -8.46595 0
M  V30 52985 H 6640.51 1.68132 -6.70852 0
M  V30 52986 H 6639.64 -0.289041 -8.15388 0
M  V30 52987 H 6636.99 -0.926847 -5.72749 0
M  V30 52988 H 6636.71 1.86973 -6.82036 0
M  V30 52989 H 6635.72 0.403896 -7.13257 0
M  V30 52990 H 6637.55 1.20585 -8.97435 0
M  V30 52991 H 6637.62 2.71231 -5.45042 0
M  V30 52992 H 6636.59 4.76966 -3.49992 0
M  V30 52993 H 6638.33 4.67047 -3.95024 0
M  V30 52994 H 6637.84 4.58996 -2.22312 0
M  V30 52995 H 6637.11 0.214893 -1.39758 0
M  V30 52996 P 6635.68 -1.17771 -8.83182 0
M  V30 52997 O 6635.46 -2.07206 -9.98732 0
M  V30 52998 O 6634.89 0.0743816 -8.81969 0
M  V30 52999 O 6635.43 -1.97652 -7.47304 0
M  V30 53000 C 6636.37 -3.01133 -7.08783 0
M  V30 53001 C 6635.64 -4.12613 -6.37049 0
M  V30 53002 O 6635.43 -3.72827 -4.97879 0
M  V30 53003 C 6634.24 -4.45085 -6.88694 0
M  V30 53004 O 6633.85 -5.7877 -6.5624 0
M  V30 53005 C 6633.36 -3.47817 -6.12078 0
M  V30 53006 C 6634.07 -3.39414 -4.77697 0
M  V30 53007 N 6634.02 -2.04199 -4.15538 0
M  V30 53008 C 6634.1 -0.821545 -4.76977 0
M  V30 53009 N 6634.03 0.1794 -3.94592 0
M  V30 53010 C 6633.88 -0.419121 -2.70776 0
M  V30 53011 C 6633.75 0.109072 -1.40577 0
M  V30 53012 N 6633.74 1.4104 -1.1344 0
M  V30 53013 N 6633.63 -0.764381 -0.39411 0
M  V30 53014 C 6633.64 -2.06587 -0.664135 0
M  V30 53015 N 6633.76 -2.67948 -1.82153 0
M  V30 53016 C 6633.88 -1.77942 -2.8147 0
M  V30 53017 H 6636.86 -3.41248 -7.98759 0
M  V30 53018 H 6637.13 -2.57728 -6.42 0
M  V30 53019 H 6636.26 -5.02657 -6.42673 0
M  V30 53020 H 6633.61 -4.11708 -4.08956 0
M  V30 53021 H 6633.33 -2.49626 -6.61679 0
M  V30 53022 H 6632.34 -3.8662 -6.00862 0
M  V30 53023 H 6634.17 -4.29991 -7.97006 0
M  V30 53024 H 6634.21 -0.702451 -5.84696 0
M  V30 53025 H 6633.83 2.09647 -1.89651 0
M  V30 53026 H 6633.64 1.73358 -0.160575 0
M  V30 53027 H 6633.53 -2.71695 0.195838 0
M  V30 53028 P 6632.3 -6.144 -6.45285 0
M  V30 53029 O 6632.08 -7.54673 -6.86199 0
M  V30 53030 O 6631.51 -5.12391 -7.179 0
M  V30 53031 O 6632.05 -5.99236 -4.88467 0
M  V30 53032 C 6632.99 -6.60234 -3.96415 0
M  V30 53033 C 6632.26 -7.08079 -2.736 0
M  V30 53034 O 6632.05 -5.94365 -1.8368 0
M  V30 53035 C 6630.86 -7.64886 -2.9555 0
M  V30 53036 O 6630.47 -8.5406 -1.90739 0
M  V30 53037 C 6629.98 -6.4116 -2.90739 0
M  V30 53038 C 6630.69 -5.55375 -1.86963 0
M  V30 53039 N 6630.64 -4.09664 -2.15742 0
M  V30 53040 C 6630.49 -3.22231 -1.08477 0
M  V30 53041 O 6630.4 -3.68951 0.0600489 0
M  V30 53042 N 6630.44 -1.76692 -1.48799 0
M  V30 53043 C 6630.54 -1.41695 -2.57602 0
M  V30 53044 N 6630.49 -0.107296 -2.75791 0
M  V30 53045 C 6630.69 -2.29178 -3.69733 0
M  V30 53046 C 6630.74 -3.62753 -3.42653 0
M  V30 53047 H 6633.48 -7.45488 -4.45578 0
M  V30 53048 H 6633.75 -5.86232 -3.67314 0
M  V30 53049 H 6632.88 -7.84508 -2.24507 0
M  V30 53050 H 6630.23 -5.73556 -0.888715 0
M  V30 53051 H 6629.95 -5.9096 -3.88638 0
M  V30 53052 H 6628.96 -6.66053 -2.58894 0
M  V30 53053 H 6630.79 -8.16339 -3.92049 0
M  V30 53054 H 6630.86 -4.33052 -4.24913 0
M  V30 53055 H 6630.76 -1.9103 -4.71577 0
M  V30 53056 H 6630.37 0.521221 -1.95056 0
M  V30 53057 H 6630.57 0.286429 -3.70695 0
M  V30 53058 P 6628.92 -8.7635 -1.60911 0
M  V30 53059 O 6628.7 -10.1388 -1.11561 0
M  V30 53060 O 6628.13 -8.36503 -2.79617 0
M  V30 53061 O 6628.67 -7.71806 -0.42951 0
M  V30 53062 C 6629.61 -7.67148 0.673689 0
M  V30 53063 C 6628.88 -7.33374 1.95559 0
M  V30 53064 O 6628.67 -5.88721 2.00726 0
M  V30 53065 C 6627.48 -7.92526 2.10483 0
M  V30 53066 O 6627.09 -8.02971 3.47653 0
M  V30 53067 C 6626.6 -6.89602 1.41652 0
M  V30 53068 C 6627.31 -5.59201 1.75185 0
M  V30 53069 N 6627.26 -4.58235 0.662552 0
M  V30 53070 H 6630.1 -8.65116 0.777161 0
M  V30 53071 H 6630.37 -6.90173 0.474152 0
M  V30 53072 H 6629.5 -7.66548 2.79458 0
M  V30 53073 P 6625.54 -8.03563 3.84925 0
M  V30 53074 O 6625.32 -8.85821 5.0569 0
M  V30 53075 O 6624.75 -8.41101 2.65469 0
M  V30 53076 O 6625.29 -6.4965 4.18908 0
M  V30 53077 C 6626.23 -5.81037 5.05421 0
M  V30 53078 C 6625.5 -4.78366 5.89277 0
M  V30 53079 O 6625.29 -3.58302 5.08433 0
M  V30 53080 C 6624.1 -5.17448 6.36119 0
M  V30 53081 O 6623.71 -4.45271 7.53232 0
M  V30 53082 C 6623.22 -4.74639 5.19936 0
M  V30 53083 C 6623.93 -3.49432 4.70418 0
M  V30 53084 N 6623.88 -3.31776 3.22945 0
M  V30 53085 C 6623.96 -4.27147 2.23315 0
M  V30 53086 N 6623.88 -3.78447 1.02186 0
M  V30 53087 C 6623.74 -2.41001 1.21732 0
M  V30 53088 C 6623.61 -1.36111 0.27694 0
M  V30 53089 N 6623.49 -0.113683 0.912949 0
M  V30 53090 C 6623.49 0.0846396 2.27943 0
M  V30 53091 N 6623.36 1.34737 2.6916 0
M  V30 53092 N 6623.62 -0.902521 3.16379 0
M  V30 53093 C 6623.74 -2.11937 2.56849 0
M  V30 53094 H 6626.72 -6.54213 5.71376 0
M  V30 53095 H 6626.99 -5.30492 4.44033 0
M  V30 53096 H 6626.12 -4.55889 6.76652 0
M  V30 53097 P 6622.16 -4.23843 7.83734 0
M  V30 53098 O 6621.94 -4.19407 9.29784 0
M  V30 53099 O 6621.37 -5.24426 7.09156 0
M  V30 53100 O 6621.91 -2.7935 7.20758 0
M  V30 53101 C 6622.85 -1.7299 7.50419 0
M  V30 53102 C 6622.12 -0.406376 7.57911 0
M  V30 53103 O 6621.91 0.0897726 6.21935 0
M  V30 53104 C 6620.72 -0.447224 8.1878 0
M  V30 53105 O 6620.33 0.825065 8.71101 0
M  V30 53106 C 6619.84 -0.783801 6.99623 0
M  V30 53107 C 6620.55 -0.0619192 5.85967 0
M  V30 53108 N 6620.5 -0.7859 4.56281 0
M  V30 53109 H 6623.34 -1.93423 8.4679 0
M  V30 53110 H 6623.61 -1.68181 6.71046 0
M  V30 53111 H 6622.74 0.289041 8.15388 0
M  V30 53112 P 6618.78 1.17771 8.83182 0
M  V30 53113 O 6618.56 2.07206 9.98732 0
M  V30 53114 O 6617.99 -0.0743816 8.81969 0
M  V30 53115 O 6618.53 1.97652 7.47304 0
M  V30 53116 C 6619.47 3.01133 7.08783 0
M  V30 53117 C 6618.74 4.12613 6.37049 0
M  V30 53118 O 6618.53 3.72827 4.97879 0
M  V30 53119 C 6617.34 4.45085 6.88694 0
M  V30 53120 O 6616.95 5.7877 6.5624 0
M  V30 53121 C 6616.46 3.47817 6.12078 0
M  V30 53122 C 6617.17 3.39414 4.77697 0
M  V30 53123 N 6617.12 2.04615 4.15333 0
M  V30 53124 H 6619.96 3.41248 7.98759 0
M  V30 53125 H 6620.23 2.5837 6.41742 0
M  V30 53126 H 6619.36 5.02657 6.42673 0
M  V30 53127 P 6615.4 6.144 6.45285 0
M  V30 53128 O 6615.18 7.54673 6.86199 0
M  V30 53129 O 6614.61 5.12391 7.179 0
M  V30 53130 O 6615.15 5.99236 4.88467 0
M  V30 53131 C 6616.09 6.60234 3.96415 0
M  V30 53132 C 6615.36 7.08079 2.736 0
M  V30 53133 O 6615.15 5.94365 1.8368 0
M  V30 53134 C 6613.96 7.64886 2.9555 0
M  V30 53135 O 6613.57 8.5406 1.90739 0
M  V30 53136 C 6613.08 6.4116 2.90739 0
M  V30 53137 C 6613.79 5.55375 1.86963 0
M  V30 53138 N 6613.74 4.09664 2.15742 0
M  V30 53139 C 6613.59 3.22231 1.08477 0
M  V30 53140 O 6613.5 3.68951 -0.0600489 0
M  V30 53141 N 6613.54 1.76692 1.48799 0
M  V30 53142 C 6613.64 1.41695 2.57602 0
M  V30 53143 N 6613.59 0.107296 2.75791 0
M  V30 53144 C 6613.79 2.29178 3.69733 0
M  V30 53145 C 6613.84 3.62753 3.42653 0
M  V30 53146 H 6616.58 7.45488 4.45578 0
M  V30 53147 H 6616.85 5.86232 3.67314 0
M  V30 53148 H 6615.98 7.84508 2.24507 0
M  V30 53149 H 6613.33 5.73556 0.888715 0
M  V30 53150 H 6613.05 5.9096 3.88638 0
M  V30 53151 H 6612.06 6.66053 2.58894 0
M  V30 53152 H 6613.89 8.16339 3.92049 0
M  V30 53153 H 6613.96 4.33052 4.24913 0
M  V30 53154 H 6613.86 1.9103 4.71577 0
M  V30 53155 H 6613.47 -0.521221 1.95056 0
M  V30 53156 H 6613.67 -0.286429 3.70695 0
M  V30 53157 P 6612.02 8.7635 1.60911 0
M  V30 53158 O 6611.8 10.1388 1.11561 0
M  V30 53159 O 6611.23 8.36503 2.79617 0
M  V30 53160 O 6611.77 7.71806 0.42951 0
M  V30 53161 C 6612.71 7.67148 -0.673689 0
M  V30 53162 C 6611.98 7.33374 -1.95559 0
M  V30 53163 O 6611.77 5.88721 -2.00726 0
M  V30 53164 C 6610.58 7.92526 -2.10483 0
M  V30 53165 O 6610.19 8.02971 -3.47653 0
M  V30 53166 C 6609.7 6.89602 -1.41652 0
M  V30 53167 C 6610.41 5.59201 -1.75185 0
M  V30 53168 N 6610.36 4.58235 -0.662552 0
M  V30 53169 H 6613.2 8.65116 -0.777161 0
M  V30 53170 H 6613.47 6.90173 -0.474152 0
M  V30 53171 H 6612.6 7.66548 -2.79458 0
M  V30 53172 P 6608.64 8.03563 -3.84925 0
M  V30 53173 O 6608.42 8.85821 -5.0569 0
M  V30 53174 O 6607.85 8.41101 -2.65469 0
M  V30 53175 O 6608.39 6.4965 -4.18908 0
M  V30 53176 C 6609.33 5.80886 -5.05289 0
M  V30 53177 C 6608.6 4.78366 -5.89277 0
M  V30 53178 O 6608.39 3.58302 -5.08433 0
M  V30 53179 C 6607.2 5.16748 -6.36559 0
M  V30 53180 O 6606.81 4.45271 -7.53232 0
M  V30 53181 C 6606.32 4.74572 -5.19863 0
M  V30 53182 C 6607.03 3.49373 -4.70338 0
M  V30 53183 N 6606.98 3.31704 -3.22876 0
M  V30 53184 C 6606.83 2.03326 -2.74871 0
M  V30 53185 O 6606.74 1.06486 -3.48076 0
M  V30 53186 N 6606.79 1.91838 -1.37456 0
M  V30 53187 C 6606.88 2.94295 -0.462035 0
M  V30 53188 O 6606.83 2.71763 0.752928 0
M  V30 53189 C 6607.03 4.25064 -1.05249 0
M  V30 53190 C 6607.14 5.39815 -0.095697 0
M  V30 53191 C 6607.08 4.40214 -2.39192 0
M  V30 53192 H 6609.82 6.54063 -5.71245 0
M  V30 53193 H 6610.09 5.30339 -4.43905 0
M  V30 53194 H 6609.22 4.55889 -6.76652 0
M  V30 53195 H 6606.57 2.6167 -5.17842 0
M  V30 53196 H 6606.29 5.52155 -4.41878 0
M  V30 53197 H 6605.3 4.51918 -5.53297 0
M  V30 53198 H 6607.13 6.25055 -6.55162 0
M  V30 53199 H 6607.2 5.39798 -2.81523 0
M  V30 53200 H 6606.17 5.91593 -0.0279582 0
M  V30 53201 H 6607.91 6.10038 -0.450573 0
M  V30 53202 H 6607.42 5.02007 0.89937 0
M  V30 53203 H 6606.69 0.995326 -1.00435 0
M  V30 53204 P 6605.26 4.23843 -7.83734 0
M  V30 53205 O 6605.04 4.19407 -9.29784 0
M  V30 53206 O 6604.47 5.24426 -7.09156 0
M  V30 53207 O 6605.01 2.79386 -7.20852 0
M  V30 53208 C 6605.95 1.7299 -7.50419 0
M  V30 53209 C 6605.22 0.41401 -7.5797 0
M  V30 53210 O 6605.01 -0.089787 -6.22035 0
M  V30 53211 C 6603.82 0.447224 -8.1878 0
M  V30 53212 O 6603.43 -0.825159 -8.71201 0
M  V30 53213 C 6602.94 0.783801 -6.99623 0
M  V30 53214 C 6603.65 0.0619192 -5.85967 0
M  V30 53215 N 6603.6 0.7859 -4.56281 0
M  V30 53216 C 6603.45 0.0359258 -3.39981 0
M  V30 53217 O 6603.36 -1.19723 -3.49038 0
M  V30 53218 N 6603.4 0.869151 -2.14025 0
M  V30 53219 C 6603.5 2.01207 -2.14363 0
M  V30 53220 N 6603.45 2.58978 -0.954287 0
M  V30 53221 C 6603.65 2.80817 -3.32215 0
M  V30 53222 C 6603.7 2.13785 -4.50884 0
M  V30 53223 H 6606.44 1.93401 -8.46693 0
M  V30 53224 H 6606.71 1.68181 -6.71046 0
M  V30 53225 H 6605.84 -0.289076 -8.15488 0
M  V30 53226 H 6603.19 -0.927166 -5.72947 0
M  V30 53227 H 6602.91 1.87 -6.82132 0
M  V30 53228 H 6601.92 0.404009 -7.13457 0
M  V30 53229 H 6603.75 1.20599 -8.97534 0
M  V30 53230 H 6603.82 2.70295 -5.43162 0
M  V30 53231 H 6603.72 3.89465 -3.27406 0
M  V30 53232 H 6603.33 2.01616 -0.107046 0
M  V30 53233 H 6603.53 3.61403 -0.873101 0
M  V30 53234 P 6601.88 -1.17771 -8.83182 0
M  V30 53235 O 6601.66 -2.07206 -9.98732 0
M  V30 53236 O 6601.09 0.0743816 -8.81969 0
M  V30 53237 O 6601.63 -1.97652 -7.47304 0
M  V30 53238 C 6602.57 -3.01133 -7.08783 0
M  V30 53239 C 6601.84 -4.12613 -6.37049 0
M  V30 53240 O 6601.63 -3.72827 -4.97879 0
M  V30 53241 C 6600.44 -4.45085 -6.88694 0
M  V30 53242 O 6600.05 -5.7877 -6.5624 0
M  V30 53243 C 6599.56 -3.47817 -6.12078 0
M  V30 53244 C 6600.27 -3.39414 -4.77697 0
M  V30 53245 N 6600.22 -2.04199 -4.15538 0
M  V30 53246 H 6603.06 -3.41248 -7.98759 0
M  V30 53247 H 6603.33 -2.57728 -6.42 0
M  V30 53248 H 6602.46 -5.02657 -6.42673 0
M  V30 53249 H 6599.81 -4.11708 -4.08956 0
M  V30 53250 H 6599.53 -2.49626 -6.61679 0
M  V30 53251 H 6598.54 -3.8662 -6.00862 0
M  V30 53252 H 6600.37 -4.29991 -7.97006 0
M  V30 53253 P 6598.5 -6.144 -6.45285 0
M  V30 53254 O 6598.28 -7.54673 -6.86199 0
M  V30 53255 O 6597.71 -5.12391 -7.179 0
M  V30 53256 O 6598.25 -5.99236 -4.88467 0
M  V30 53257 C 6599.19 -6.60234 -3.96415 0
M  V30 53258 C 6598.46 -7.08079 -2.736 0
M  V30 53259 O 6598.25 -5.94365 -1.8368 0
M  V30 53260 C 6597.06 -7.64886 -2.9555 0
M  V30 53261 O 6596.67 -8.5406 -1.90739 0
M  V30 53262 C 6596.18 -6.4116 -2.90739 0
M  V30 53263 C 6596.89 -5.55375 -1.86963 0
M  V30 53264 N 6596.84 -4.09664 -2.15742 0
M  V30 53265 C 6596.69 -3.22231 -1.08477 0
M  V30 53266 O 6596.6 -3.68951 0.0600489 0
M  V30 53267 N 6596.64 -1.76692 -1.48799 0
M  V30 53268 C 6596.74 -1.41695 -2.57602 0
M  V30 53269 N 6596.69 -0.107296 -2.75791 0
M  V30 53270 C 6596.89 -2.29178 -3.69733 0
M  V30 53271 C 6596.94 -3.62753 -3.42653 0
M  V30 53272 H 6599.68 -7.45488 -4.45578 0
M  V30 53273 H 6599.95 -5.86232 -3.67314 0
M  V30 53274 H 6599.08 -7.84508 -2.24507 0
M  V30 53275 H 6596.43 -5.73556 -0.888715 0
M  V30 53276 H 6596.15 -5.9096 -3.88638 0
M  V30 53277 H 6595.16 -6.66053 -2.58894 0
M  V30 53278 H 6596.99 -8.16339 -3.92049 0
M  V30 53279 H 6597.06 -4.33052 -4.24913 0
M  V30 53280 H 6596.96 -1.9103 -4.71577 0
M  V30 53281 H 6596.57 0.521221 -1.95056 0
M  V30 53282 H 6596.77 0.286429 -3.70695 0
M  V30 53283 P 6595.12 -8.7635 -1.60911 0
M  V30 53284 O 6594.9 -10.1388 -1.11561 0
M  V30 53285 O 6594.33 -8.36503 -2.79617 0
M  V30 53286 O 6594.87 -7.71806 -0.42951 0
M  V30 53287 C 6595.81 -7.67148 0.673689 0
M  V30 53288 C 6595.08 -7.33374 1.95559 0
M  V30 53289 O 6594.87 -5.88721 2.00726 0
M  V30 53290 C 6593.68 -7.92526 2.10483 0
M  V30 53291 O 6593.29 -8.02971 3.47653 0
M  V30 53292 C 6592.8 -6.89602 1.41652 0
M  V30 53293 C 6593.51 -5.59201 1.75185 0
M  V30 53294 N 6593.46 -4.58235 0.662552 0
M  V30 53295 H 6596.3 -8.65116 0.777161 0
M  V30 53296 H 6596.57 -6.90173 0.474152 0
M  V30 53297 H 6595.7 -7.66548 2.79458 0
M  V30 53298 P 6591.74 -8.03563 3.84925 0
M  V30 53299 O 6591.52 -8.85821 5.0569 0
M  V30 53300 O 6590.95 -8.41101 2.65469 0
M  V30 53301 O 6591.49 -6.4965 4.18908 0
M  V30 53302 C 6592.43 -5.81037 5.05421 0
M  V30 53303 C 6591.7 -4.78366 5.89277 0
M  V30 53304 O 6591.49 -3.58302 5.08433 0
M  V30 53305 C 6590.3 -5.17448 6.36119 0
M  V30 53306 O 6589.91 -4.45271 7.53232 0
M  V30 53307 C 6589.42 -4.74639 5.19936 0
M  V30 53308 C 6590.13 -3.49432 4.70418 0
M  V30 53309 N 6590.08 -3.31776 3.22945 0
M  V30 53310 H 6592.92 -6.54213 5.71376 0
M  V30 53311 H 6593.19 -5.30492 4.44033 0
M  V30 53312 H 6592.32 -4.55889 6.76652 0
M  V30 53313 P 6588.36 -4.23843 7.83734 0
M  V30 53314 O 6588.14 -4.19407 9.29784 0
M  V30 53315 O 6587.57 -5.24426 7.09156 0
M  V30 53316 O 6588.11 -2.7935 7.20758 0
M  V30 53317 C 6589.05 -1.7299 7.50419 0
M  V30 53318 C 6588.32 -0.406376 7.57911 0
M  V30 53319 O 6588.11 0.0897726 6.21935 0
M  V30 53320 C 6586.92 -0.447224 8.1878 0
M  V30 53321 O 6586.53 0.825065 8.71101 0
M  V30 53322 C 6586.04 -0.783801 6.99623 0
M  V30 53323 C 6586.75 -0.0619192 5.85967 0
M  V30 53324 N 6586.7 -0.7859 4.56281 0
M  V30 53325 H 6589.54 -1.93423 8.4679 0
M  V30 53326 H 6589.81 -1.68181 6.71046 0
M  V30 53327 H 6588.94 0.289041 8.15388 0
M  V30 53328 P 6584.98 1.17771 8.83182 0
M  V30 53329 O 6584.76 2.07206 9.98732 0
M  V30 53330 O 6584.19 -0.0743816 8.81969 0
M  V30 53331 O 6584.73 1.97652 7.47304 0
M  V30 53332 C 6585.67 3.01055 7.08599 0
M  V30 53333 C 6584.94 4.12613 6.37049 0
M  V30 53334 O 6584.73 3.72827 4.97879 0
M  V30 53335 C 6583.54 4.45719 6.88164 0
M  V30 53336 O 6583.15 5.7877 6.5624 0
M  V30 53337 C 6582.66 3.47768 6.11991 0
M  V30 53338 C 6583.37 3.39356 4.77615 0
M  V30 53339 N 6583.32 2.04571 4.15244 0
M  V30 53340 C 6583.17 1.98587 2.78314 0
M  V30 53341 O 6583.08 2.98134 2.08835 0
M  V30 53342 N 6583.13 0.714467 2.24925 0
M  V30 53343 C 6583.22 -0.470001 2.94169 0
M  V30 53344 C 6583.37 -0.312541 4.36783 0
M  V30 53345 C 6583.42 0.914512 4.92583 0
M  V30 53346 H 6586.16 3.41169 7.98575 0
M  V30 53347 H 6586.43 2.58295 6.41556 0
M  V30 53348 H 6585.56 5.02657 6.42673 0
M  V30 53349 H 6582.91 4.11637 4.08885 0
M  V30 53350 H 6582.63 2.49626 6.61679 0
M  V30 53351 H 6581.64 3.86566 6.00778 0
M  V30 53352 H 6583.47 4.29943 7.96918 0
M  V30 53353 H 6583.54 1.00937 6.00374 0
M  V30 53354 P 6581.6 6.144 6.45285 0
M  V30 53355 O 6581.38 7.54673 6.86199 0
M  V30 53356 O 6580.81 5.12391 7.179 0
M  V30 53357 O 6581.35 5.99158 4.88404 0
M  V30 53358 C 6582.29 6.60234 3.96415 0
M  V30 53359 C 6581.56 7.08259 2.72856 0
M  V30 53360 O 6581.35 5.9427 1.83651 0
M  V30 53361 C 6580.16 7.64886 2.9555 0
M  V30 53362 O 6579.77 8.53963 1.90717 0
M  V30 53363 C 6579.28 6.4116 2.90739 0
M  V30 53364 C 6579.99 5.55375 1.86963 0
M  V30 53365 N 6579.94 4.09664 2.15742 0
M  V30 53366 H 6582.78 7.45574 4.45629 0
M  V30 53367 H 6583.05 5.86232 3.67314 0
M  V30 53368 H 6582.18 7.84412 2.24479 0
M  V30 53369 P 6578.22 8.7635 1.60911 0
M  V30 53370 O 6578 10.1388 1.11561 0
M  V30 53371 O 6577.43 8.36503 2.79617 0
M  V30 53372 O 6577.97 7.71806 0.42951 0
M  V30 53373 C 6578.91 7.67148 -0.673689 0
M  V30 53374 C 6578.18 7.33374 -1.95559 0
M  V30 53375 O 6577.97 5.88721 -2.00726 0
M  V30 53376 C 6576.78 7.92526 -2.10483 0
M  V30 53377 O 6576.39 8.02971 -3.47653 0
M  V30 53378 C 6575.9 6.89602 -1.41652 0
M  V30 53379 C 6576.61 5.59201 -1.75185 0
M  V30 53380 N 6576.56 4.58301 -0.657969 0
M  V30 53381 C 6576.64 4.79019 0.692603 0
M  V30 53382 N 6576.57 3.69736 1.38998 0
M  V30 53383 C 6576.42 2.70474 0.438135 0
M  V30 53384 C 6576.29 1.30327 0.538142 0
M  V30 53385 N 6576.28 0.64304 1.69192 0
M  V30 53386 N 6576.17 0.611027 -0.605183 0
M  V30 53387 C 6576.18 1.27002 -1.75953 0
M  V30 53388 N 6576.3 2.56038 -1.98546 0
M  V30 53389 C 6576.42 3.22681 -0.822541 0
M  V30 53390 H 6579.4 8.65116 -0.777161 0
M  V30 53391 H 6579.67 6.9022 -0.46725 0
M  V30 53392 H 6578.8 7.66548 -2.79458 0
M  V30 53393 H 6576.15 5.16165 -2.65183 0
M  V30 53394 H 6575.87 7.06433 -0.329384 0
M  V30 53395 H 6574.88 6.90926 -1.82021 0
M  V30 53396 H 6576.71 8.90873 -1.62657 0
M  V30 53397 H 6576.75 5.77785 1.13874 0
M  V30 53398 H 6576.37 1.15585 2.57991 0
M  V30 53399 H 6576.18 -0.382989 1.69835 0
M  V30 53400 H 6576.08 0.653331 -2.64449 0
M  V30 53401 P 6574.84 8.03563 -3.84925 0
M  V30 53402 O 6574.62 8.85821 -5.0569 0
M  V30 53403 O 6574.05 8.41101 -2.65469 0
M  V30 53404 O 6574.59 6.4965 -4.18908 0
M  V30 53405 C 6575.53 5.81037 -5.05421 0
M  V30 53406 C 6574.8 4.78366 -5.89277 0
M  V30 53407 O 6574.59 3.58302 -5.08433 0
M  V30 53408 C 6573.4 5.17448 -6.36119 0
M  V30 53409 O 6573.01 4.45271 -7.53232 0
M  V30 53410 C 6572.52 4.74639 -5.19936 0
M  V30 53411 C 6573.23 3.49432 -4.70418 0
M  V30 53412 N 6573.18 3.31776 -3.22945 0
M  V30 53413 H 6576.02 6.54213 -5.71376 0
M  V30 53414 H 6576.29 5.30492 -4.44033 0
M  V30 53415 H 6575.42 4.55889 -6.76652 0
M  V30 53416 P 6571.46 4.23843 -7.83734 0
M  V30 53417 O 6571.24 4.19407 -9.29784 0
M  V30 53418 O 6570.67 5.24426 -7.09156 0
M  V30 53419 O 6571.21 2.7935 -7.20758 0
M  V30 53420 C 6572.15 1.7299 -7.50419 0
M  V30 53421 C 6571.42 0.406376 -7.57911 0
M  V30 53422 O 6571.21 -0.0897726 -6.21935 0
M  V30 53423 C 6570.02 0.447224 -8.1878 0
M  V30 53424 O 6569.63 -0.825065 -8.71101 0
M  V30 53425 C 6569.14 0.783801 -6.99623 0
M  V30 53426 C 6569.85 0.0619192 -5.85967 0
M  V30 53427 N 6569.8 0.790462 -4.56202 0
M  V30 53428 H 6572.64 1.93423 -8.4679 0
M  V30 53429 H 6572.91 1.68852 -6.70877 0
M  V30 53430 H 6572.04 -0.289041 -8.15388 0
M  V30 53431 H 6569.39 -0.927006 -5.72848 0
M  V30 53432 H 6569.11 1.86973 -6.82036 0
M  V30 53433 H 6568.12 0.403953 -7.13357 0
M  V30 53434 H 6569.95 1.20599 -8.97534 0
M  V30 53435 P 6568.08 -1.17771 -8.83182 0
M  V30 53436 O 6567.86 -2.07206 -9.98732 0
M  V30 53437 O 6567.29 0.0743816 -8.81969 0
M  V30 53438 O 6567.83 -1.97652 -7.47304 0
M  V30 53439 C 6568.77 -3.01133 -7.08783 0
M  V30 53440 C 6568.04 -4.12613 -6.37049 0
M  V30 53441 O 6567.83 -3.72827 -4.97879 0
M  V30 53442 C 6566.64 -4.45085 -6.88694 0
M  V30 53443 O 6566.25 -5.7877 -6.5624 0
M  V30 53444 C 6565.76 -3.47817 -6.12078 0
M  V30 53445 C 6566.47 -3.39414 -4.77697 0
M  V30 53446 N 6566.42 -2.04615 -4.15333 0
M  V30 53447 H 6569.26 -3.41248 -7.98759 0
M  V30 53448 H 6569.53 -2.5837 -6.41742 0
M  V30 53449 H 6568.66 -5.02657 -6.42673 0
M  V30 53450 P 6564.7 -6.144 -6.45285 0
M  V30 53451 O 6564.48 -7.54673 -6.86199 0
M  V30 53452 O 6563.91 -5.12391 -7.179 0
M  V30 53453 O 6564.45 -5.99158 -4.88404 0
M  V30 53454 C 6565.39 -6.60062 -3.96313 0
M  V30 53455 C 6564.66 -7.08259 -2.72856 0
M  V30 53456 O 6564.45 -5.9427 -1.83651 0
M  V30 53457 C 6563.26 -7.65087 -2.94749 0
M  V30 53458 O 6562.87 -8.53963 -1.90717 0
M  V30 53459 C 6562.38 -6.41069 -2.90698 0
M  V30 53460 C 6563.09 -5.5528 -1.86931 0
M  V30 53461 N 6563.04 -4.09575 -2.15696 0
M  V30 53462 C 6562.89 -3.24249 -1.08435 0
M  V30 53463 O 6562.8 -3.63946 0.0628747 0
M  V30 53464 N 6562.85 -1.90009 -1.39973 0
M  V30 53465 C 6562.94 -1.34884 -2.65614 0
M  V30 53466 C 6563.09 -2.3145 -3.71736 0
M  V30 53467 C 6563.14 -3.63518 -3.44754 0
M  V30 53468 H 6565.88 -7.45402 -4.45526 0
M  V30 53469 H 6566.15 -5.86062 -3.67208 0
M  V30 53470 H 6565.28 -7.84412 -2.24479 0
M  V30 53471 H 6562.63 -5.73358 -0.888409 0
M  V30 53472 H 6562.35 -5.90877 -3.88583 0
M  V30 53473 H 6561.36 -6.65867 -2.58821 0
M  V30 53474 H 6563.19 -8.16248 -3.92006 0
M  V30 53475 H 6563.26 -4.34551 -4.26383 0
M  V30 53476 P 6561.32 -8.7635 -1.60911 0
M  V30 53477 O 6561.1 -10.1388 -1.11561 0
M  V30 53478 O 6560.53 -8.36503 -2.79617 0
M  V30 53479 O 6561.07 -7.71806 -0.42951 0
M  V30 53480 C 6562.01 -7.67148 0.673689 0
M  V30 53481 C 6561.28 -7.33374 1.95559 0
M  V30 53482 O 6561.07 -5.88721 2.00726 0
M  V30 53483 C 6559.88 -7.92526 2.10483 0
M  V30 53484 O 6559.49 -8.02971 3.47653 0
M  V30 53485 C 6559 -6.89602 1.41652 0
M  V30 53486 C 6559.71 -5.59201 1.75185 0
M  V30 53487 N 6559.66 -4.58235 0.662552 0
M  V30 53488 H 6562.5 -8.65116 0.777161 0
M  V30 53489 H 6562.77 -6.90173 0.474152 0
M  V30 53490 H 6561.9 -7.66548 2.79458 0
M  V30 53491 P 6557.94 -8.03563 3.84925 0
M  V30 53492 O 6557.72 -8.85821 5.0569 0
M  V30 53493 O 6557.15 -8.41101 2.65469 0
M  V30 53494 O 6557.69 -6.4965 4.18908 0
M  V30 53495 C 6558.63 -5.81037 5.05421 0
M  V30 53496 C 6557.9 -4.78366 5.89277 0
M  V30 53497 O 6557.69 -3.58302 5.08433 0
M  V30 53498 C 6556.5 -5.17448 6.36119 0
M  V30 53499 O 6556.11 -4.45271 7.53232 0
M  V30 53500 C 6555.62 -4.74639 5.19936 0
M  V30 53501 C 6556.33 -3.49432 4.70418 0
M  V30 53502 N 6556.28 -3.31776 3.22945 0
M  V30 53503 H 6559.12 -6.54213 5.71376 0
M  V30 53504 H 6559.39 -5.30492 4.44033 0
M  V30 53505 H 6558.52 -4.55889 6.76652 0
M  V30 53506 P 6554.56 -4.23843 7.83734 0
M  V30 53507 O 6554.34 -4.19407 9.29784 0
M  V30 53508 O 6553.77 -5.24426 7.09156 0
M  V30 53509 O 6554.31 -2.7935 7.20758 0
M  V30 53510 C 6555.25 -1.72945 7.50224 0
M  V30 53511 C 6554.52 -0.406376 7.57911 0
M  V30 53512 O 6554.31 0.0897726 6.21935 0
M  V30 53513 C 6553.12 -0.438983 8.18724 0
M  V30 53514 O 6552.73 0.825065 8.71101 0
M  V30 53515 C 6552.24 -0.783689 6.99524 0
M  V30 53516 C 6552.95 -0.0619086 5.85867 0
M  V30 53517 N 6552.9 -0.78573 4.56183 0
M  V30 53518 C 6552.75 -0.0292889 3.41887 0
M  V30 53519 O 6552.66 1.18445 3.4419 0
M  V30 53520 N 6552.71 -0.744061 2.23964 0
M  V30 53521 C 6552.8 -2.10932 2.10362 0
M  V30 53522 O 6552.75 -2.64117 0.98825 0
M  V30 53523 C 6552.95 -2.8202 3.34994 0
M  V30 53524 C 6553.06 -4.31095 3.25037 0
M  V30 53525 C 6553 -2.15547 4.52261 0
M  V30 53526 H 6555.74 -1.93379 8.46595 0
M  V30 53527 H 6556.01 -1.68132 6.70852 0
M  V30 53528 H 6555.14 0.289041 8.15388 0
M  V30 53529 H 6552.49 0.926847 5.72749 0
M  V30 53530 H 6552.21 -1.86973 6.82036 0
M  V30 53531 H 6551.22 -0.403896 7.13257 0
M  V30 53532 H 6553.05 -1.20585 8.97435 0
M  V30 53533 H 6553.12 -2.71231 5.45042 0
M  V30 53534 H 6552.09 -4.76966 3.49992 0
M  V30 53535 H 6553.83 -4.67047 3.95024 0
M  V30 53536 H 6553.34 -4.58996 2.22312 0
M  V30 53537 H 6552.61 -0.214893 1.39758 0
M  V30 53538 P 6551.18 1.17771 8.83182 0
M  V30 53539 O 6550.96 2.07206 9.98732 0
M  V30 53540 O 6550.39 -0.0743816 8.81969 0
M  V30 53541 O 6550.93 1.97652 7.47304 0
M  V30 53542 C 6551.87 3.01133 7.08783 0
M  V30 53543 C 6551.14 4.12613 6.37049 0
M  V30 53544 O 6550.93 3.72827 4.97879 0
M  V30 53545 C 6549.74 4.45085 6.88694 0
M  V30 53546 O 6549.35 5.7877 6.5624 0
M  V30 53547 C 6548.86 3.47817 6.12078 0
M  V30 53548 C 6549.57 3.39414 4.77697 0
M  V30 53549 N 6549.52 2.04615 4.15333 0
M  V30 53550 H 6552.36 3.41248 7.98759 0
M  V30 53551 H 6552.63 2.5837 6.41742 0
M  V30 53552 H 6551.76 5.02657 6.42673 0
M  V30 53553 P 6547.8 6.144 6.45285 0
M  V30 53554 O 6547.58 7.54673 6.86199 0
M  V30 53555 O 6547.01 5.12391 7.179 0
M  V30 53556 O 6547.55 5.99158 4.88404 0
M  V30 53557 C 6548.49 6.60234 3.96415 0
M  V30 53558 C 6547.76 7.08259 2.72856 0
M  V30 53559 O 6547.55 5.9427 1.83651 0
M  V30 53560 C 6546.36 7.64886 2.9555 0
M  V30 53561 O 6545.97 8.53963 1.90717 0
M  V30 53562 C 6545.48 6.4116 2.90739 0
M  V30 53563 C 6546.19 5.55375 1.86963 0
M  V30 53564 N 6546.14 4.09664 2.15742 0
M  V30 53565 H 6548.98 7.45574 4.45629 0
M  V30 53566 H 6549.25 5.86232 3.67314 0
M  V30 53567 H 6548.38 7.84412 2.24479 0
M  V30 53568 P 6544.42 8.7635 1.60911 0
M  V30 53569 O 6544.2 10.1388 1.11561 0
M  V30 53570 O 6543.63 8.36503 2.79617 0
M  V30 53571 O 6544.17 7.71806 0.42951 0
M  V30 53572 C 6545.11 7.67148 -0.673689 0
M  V30 53573 C 6544.38 7.33374 -1.95559 0
M  V30 53574 O 6544.17 5.88721 -2.00726 0
M  V30 53575 C 6542.98 7.92526 -2.10483 0
M  V30 53576 O 6542.59 8.02971 -3.47653 0
M  V30 53577 C 6542.1 6.89602 -1.41652 0
M  V30 53578 C 6542.81 5.59201 -1.75185 0
M  V30 53579 N 6542.76 4.58235 -0.662552 0
M  V30 53580 H 6545.6 8.65116 -0.777161 0
M  V30 53581 H 6545.87 6.90173 -0.474152 0
M  V30 53582 H 6545 7.66548 -2.79458 0
M  V30 53583 P 6541.04 8.03563 -3.84925 0
M  V30 53584 O 6540.82 8.85821 -5.0569 0
M  V30 53585 O 6540.25 8.41101 -2.65469 0
M  V30 53586 O 6540.79 6.4965 -4.18908 0
M  V30 53587 C 6541.73 5.81037 -5.05421 0
M  V30 53588 C 6541 4.78366 -5.89277 0
M  V30 53589 O 6540.79 3.58302 -5.08433 0
M  V30 53590 C 6539.6 5.17448 -6.36119 0
M  V30 53591 O 6539.21 4.45271 -7.53232 0
M  V30 53592 C 6538.72 4.74639 -5.19936 0
M  V30 53593 C 6539.43 3.49432 -4.70418 0
M  V30 53594 N 6539.38 3.31776 -3.22945 0
M  V30 53595 H 6542.22 6.54213 -5.71376 0
M  V30 53596 H 6542.49 5.30492 -4.44033 0
M  V30 53597 H 6541.62 4.55889 -6.76652 0
M  V30 53598 P 6537.66 4.23843 -7.83734 0
M  V30 53599 O 6537.44 4.19407 -9.29784 0
M  V30 53600 O 6536.87 5.24426 -7.09156 0
M  V30 53601 O 6537.41 2.7935 -7.20758 0
M  V30 53602 C 6538.35 1.7299 -7.50419 0
M  V30 53603 C 6537.62 0.406376 -7.57911 0
M  V30 53604 O 6537.41 -0.0897726 -6.21935 0
M  V30 53605 C 6536.22 0.447224 -8.1878 0
M  V30 53606 O 6535.83 -0.825065 -8.71101 0
M  V30 53607 C 6535.34 0.783801 -6.99623 0
M  V30 53608 C 6536.05 0.0619192 -5.85967 0
M  V30 53609 N 6536 0.7859 -4.56281 0
M  V30 53610 H 6538.84 1.93423 -8.4679 0
M  V30 53611 H 6539.11 1.68181 -6.71046 0
M  V30 53612 H 6538.24 -0.289041 -8.15388 0
M  V30 53613 P 6534.28 -1.17771 -8.83182 0
M  V30 53614 O 6534.06 -2.07206 -9.98732 0
M  V30 53615 O 6533.49 0.0743816 -8.81969 0
M  V30 53616 O 6534.03 -1.97652 -7.47304 0
M  V30 53617 C 6534.97 -3.01133 -7.08783 0
M  V30 53618 C 6534.24 -4.12613 -6.37049 0
M  V30 53619 O 6534.03 -3.72827 -4.97879 0
M  V30 53620 C 6532.84 -4.45085 -6.88694 0
M  V30 53621 O 6532.45 -5.7877 -6.5624 0
M  V30 53622 C 6531.96 -3.47817 -6.12078 0
M  V30 53623 C 6532.67 -3.39414 -4.77697 0
M  V30 53624 N 6532.62 -2.04615 -4.15333 0
M  V30 53625 H 6535.46 -3.41248 -7.98759 0
M  V30 53626 H 6535.73 -2.5837 -6.41742 0
M  V30 53627 H 6534.86 -5.02657 -6.42673 0
M  V30 53628 P 6530.9 -6.144 -6.45285 0
M  V30 53629 O 6530.68 -7.54673 -6.86199 0
M  V30 53630 O 6530.11 -5.12391 -7.179 0
M  V30 53631 O 6530.65 -5.99158 -4.88404 0
M  V30 53632 C 6531.59 -6.60234 -3.96415 0
M  V30 53633 C 6530.86 -7.08259 -2.72856 0
M  V30 53634 O 6530.65 -5.9427 -1.83651 0
M  V30 53635 C 6529.46 -7.64886 -2.9555 0
M  V30 53636 O 6529.07 -8.53963 -1.90717 0
M  V30 53637 C 6528.58 -6.4116 -2.90739 0
M  V30 53638 C 6529.29 -5.55375 -1.86963 0
M  V30 53639 N 6529.24 -4.09664 -2.15742 0
M  V30 53640 H 6532.08 -7.45574 -4.45629 0
M  V30 53641 H 6532.35 -5.86232 -3.67314 0
M  V30 53642 H 6531.48 -7.84412 -2.24479 0
M  V30 53643 P 6527.52 -8.7635 -1.60911 0
M  V30 53644 O 6527.3 -10.1388 -1.11561 0
M  V30 53645 O 6526.73 -8.36503 -2.79617 0
M  V30 53646 O 6527.27 -7.71806 -0.42951 0
M  V30 53647 C 6528.21 -7.67148 0.673689 0
M  V30 53648 C 6527.48 -7.33374 1.95559 0
M  V30 53649 O 6527.27 -5.88721 2.00726 0
M  V30 53650 C 6526.08 -7.92526 2.10483 0
M  V30 53651 O 6525.69 -8.02971 3.47653 0
M  V30 53652 C 6525.2 -6.89602 1.41652 0
M  V30 53653 C 6525.91 -5.59201 1.75185 0
M  V30 53654 N 6525.86 -4.58235 0.662552 0
M  V30 53655 H 6528.7 -8.65116 0.777161 0
M  V30 53656 H 6528.97 -6.90173 0.474152 0
M  V30 53657 H 6528.1 -7.66548 2.79458 0
M  V30 53658 P 6524.14 -8.03563 3.84925 0
M  V30 53659 O 6523.92 -8.85821 5.0569 0
M  V30 53660 O 6523.35 -8.41101 2.65469 0
M  V30 53661 O 6523.89 -6.4965 4.18908 0
M  V30 53662 C 6524.83 -5.81037 5.05421 0
M  V30 53663 C 6524.1 -4.78366 5.89277 0
M  V30 53664 O 6523.89 -3.58302 5.08433 0
M  V30 53665 C 6522.7 -5.17448 6.36119 0
M  V30 53666 O 6522.31 -4.45271 7.53232 0
M  V30 53667 C 6521.82 -4.74639 5.19936 0
M  V30 53668 C 6522.53 -3.49432 4.70418 0
M  V30 53669 N 6522.48 -3.32099 3.22613 0
M  V30 53670 C 6522.56 -4.28245 2.25527 0
M  V30 53671 N 6522.49 -3.80823 1.04874 0
M  V30 53672 C 6522.34 -2.44571 1.23535 0
M  V30 53673 C 6522.21 -1.37068 0.330675 0
M  V30 53674 N 6522.2 -1.51472 -0.990824 0
M  V30 53675 N 6522.09 -0.138614 0.848756 0
M  V30 53676 C 6522.1 0.00675923 2.16999 0
M  V30 53677 N 6522.22 -0.904372 3.11122 0
M  V30 53678 C 6522.34 -2.12707 2.56212 0
M  V30 53679 H 6525.32 -6.54213 5.71376 0
M  V30 53680 H 6525.59 -5.30936 4.43503 0
M  V30 53681 H 6524.72 -4.55889 6.76652 0
M  V30 53682 H 6522.07 -2.61715 5.17932 0
M  V30 53683 H 6521.79 -5.52155 4.41878 0
M  V30 53684 H 6520.8 -4.51981 5.53374 0
M  V30 53685 H 6522.63 -6.25124 6.55234 0
M  V30 53686 H 6522.67 -5.34372 2.47488 0
M  V30 53687 H 6522.29 -2.45153 -1.4078 0
M  V30 53688 H 6522.1 -0.688422 -1.59911 0
M  V30 53689 H 6522 1.02584 2.52346 0
M  V30 53690 P 6520.76 -4.23843 7.83734 0
M  V30 53691 O 6520.54 -4.19407 9.29784 0
M  V30 53692 O 6519.97 -5.24426 7.09156 0
M  V30 53693 O 6520.51 -2.7935 7.20758 0
M  V30 53694 C 6521.45 -1.7299 7.50419 0
M  V30 53695 C 6520.72 -0.406376 7.57911 0
M  V30 53696 O 6520.51 0.0897726 6.21935 0
M  V30 53697 C 6519.32 -0.447224 8.1878 0
M  V30 53698 O 6518.93 0.825065 8.71101 0
M  V30 53699 C 6518.44 -0.783801 6.99623 0
M  V30 53700 C 6519.15 -0.0619192 5.85967 0
M  V30 53701 N 6519.1 -0.7859 4.56281 0
M  V30 53702 H 6521.94 -1.93423 8.4679 0
M  V30 53703 H 6522.21 -1.68181 6.71046 0
M  V30 53704 H 6521.34 0.289041 8.15388 0
M  V30 53705 P 6517.38 1.17771 8.83182 0
M  V30 53706 O 6517.16 2.07206 9.98732 0
M  V30 53707 O 6516.59 -0.0743816 8.81969 0
M  V30 53708 O 6517.13 1.97652 7.47304 0
M  V30 53709 C 6518.07 3.01133 7.08783 0
M  V30 53710 C 6517.34 4.12613 6.37049 0
M  V30 53711 O 6517.13 3.72827 4.97879 0
M  V30 53712 C 6515.94 4.45085 6.88694 0
M  V30 53713 O 6515.55 5.7877 6.5624 0
M  V30 53714 C 6515.06 3.47817 6.12078 0
M  V30 53715 C 6515.77 3.39414 4.77697 0
M  V30 53716 N 6515.72 2.04615 4.15333 0
M  V30 53717 H 6518.56 3.41248 7.98759 0
M  V30 53718 H 6518.83 2.5837 6.41742 0
M  V30 53719 H 6517.96 5.02657 6.42673 0
M  V30 53720 P 6514 6.144 6.45285 0
M  V30 53721 O 6513.78 7.54673 6.86199 0
M  V30 53722 O 6513.21 5.12391 7.179 0
M  V30 53723 O 6513.75 5.99158 4.88404 0
M  V30 53724 C 6514.69 6.60234 3.96415 0
M  V30 53725 C 6513.96 7.08259 2.72856 0
M  V30 53726 O 6513.75 5.9427 1.83651 0
M  V30 53727 C 6512.56 7.64886 2.9555 0
M  V30 53728 O 6512.17 8.53963 1.90717 0
M  V30 53729 C 6511.68 6.4116 2.90739 0
M  V30 53730 C 6512.39 5.55375 1.86963 0
M  V30 53731 N 6512.34 4.09448 2.16152 0
M  V30 53732 C 6512.42 3.46824 3.37593 0
M  V30 53733 N 6512.35 2.17422 3.29777 0
M  V30 53734 C 6512.2 1.93065 1.94427 0
M  V30 53735 C 6512.07 0.738053 1.20141 0
M  V30 53736 N 6512.06 -0.474256 1.74676 0
M  V30 53737 N 6511.95 0.850049 -0.13045 0
M  V30 53738 C 6511.96 2.06169 -0.676992 0
M  V30 53739 N 6512.08 3.23842 -0.101312 0
M  V30 53740 C 6512.2 3.09402 1.23122 0
M  V30 53741 H 6515.18 7.45574 4.45629 0
M  V30 53742 H 6515.45 5.85864 3.679 0
M  V30 53743 H 6514.58 7.84412 2.24479 0
M  V30 53744 H 6511.93 5.73457 0.888562 0
M  V30 53745 H 6511.65 5.90877 3.88583 0
M  V30 53746 H 6510.66 6.6596 2.58858 0
M  V30 53747 H 6512.49 8.16339 3.92049 0
M  V30 53748 H 6512.53 4.00505 4.3174 0
M  V30 53749 H 6512.15 -0.581337 2.76658 0
M  V30 53750 H 6511.96 -1.30811 1.14888 0
M  V30 53751 H 6511.86 2.08295 -1.75542 0
M  V30 53752 P 6510.62 8.7635 1.60911 0
M  V30 53753 O 6510.4 10.1388 1.11561 0
M  V30 53754 O 6509.83 8.36503 2.79617 0
M  V30 53755 O 6510.37 7.71806 0.42951 0
M  V30 53756 C 6511.31 7.67148 -0.673689 0
M  V30 53757 C 6510.58 7.33374 -1.95559 0
M  V30 53758 O 6510.37 5.88721 -2.00726 0
M  V30 53759 C 6509.18 7.92526 -2.10483 0
M  V30 53760 O 6508.79 8.02971 -3.47653 0
M  V30 53761 C 6508.3 6.89602 -1.41652 0
M  V30 53762 C 6509.01 5.59201 -1.75185 0
M  V30 53763 N 6508.96 4.58235 -0.662552 0
M  V30 53764 H 6511.8 8.65116 -0.777161 0
M  V30 53765 H 6512.07 6.90173 -0.474152 0
M  V30 53766 H 6511.2 7.66548 -2.79458 0
M  V30 53767 P 6507.24 8.03563 -3.84925 0
M  V30 53768 O 6507.02 8.85821 -5.0569 0
M  V30 53769 O 6506.45 8.41101 -2.65469 0
M  V30 53770 O 6506.99 6.4965 -4.18908 0
M  V30 53771 C 6507.93 5.81037 -5.05421 0
M  V30 53772 C 6507.2 4.78366 -5.89277 0
M  V30 53773 O 6506.99 3.58302 -5.08433 0
M  V30 53774 C 6505.8 5.17448 -6.36119 0
M  V30 53775 O 6505.41 4.45271 -7.53232 0
M  V30 53776 C 6504.92 4.74639 -5.19936 0
M  V30 53777 C 6505.63 3.49432 -4.70418 0
M  V30 53778 N 6505.58 3.31776 -3.22945 0
M  V30 53779 H 6508.42 6.54213 -5.71376 0
M  V30 53780 H 6508.69 5.30492 -4.44033 0
M  V30 53781 H 6507.82 4.55889 -6.76652 0
M  V30 53782 P 6503.86 4.23843 -7.83734 0
M  V30 53783 O 6503.64 4.19407 -9.29784 0
M  V30 53784 O 6503.07 5.24426 -7.09156 0
M  V30 53785 O 6503.61 2.7935 -7.20758 0
M  V30 53786 C 6504.55 1.72945 -7.50224 0
M  V30 53787 C 6503.82 0.406376 -7.57911 0
M  V30 53788 O 6503.61 -0.0897726 -6.21935 0
M  V30 53789 C 6502.42 0.438983 -8.18724 0
M  V30 53790 O 6502.03 -0.825065 -8.71101 0
M  V30 53791 C 6501.54 0.783689 -6.99524 0
M  V30 53792 C 6502.25 0.0619086 -5.85867 0
M  V30 53793 N 6502.2 0.78573 -4.56183 0
M  V30 53794 C 6502.05 0.0292889 -3.41887 0
M  V30 53795 O 6501.96 -1.18445 -3.4419 0
M  V30 53796 N 6502.01 0.744061 -2.23964 0
M  V30 53797 C 6502.1 2.10932 -2.10362 0
M  V30 53798 O 6502.05 2.64117 -0.98825 0
M  V30 53799 C 6502.25 2.8202 -3.34994 0
M  V30 53800 C 6502.36 4.31095 -3.25037 0
M  V30 53801 C 6502.3 2.15547 -4.52261 0
M  V30 53802 H 6505.04 1.93379 -8.46595 0
M  V30 53803 H 6505.31 1.68132 -6.70852 0
M  V30 53804 H 6504.44 -0.289041 -8.15388 0
M  V30 53805 H 6501.79 -0.926847 -5.72749 0
M  V30 53806 H 6501.51 1.86973 -6.82036 0
M  V30 53807 H 6500.52 0.403896 -7.13257 0
M  V30 53808 H 6502.35 1.20585 -8.97435 0
M  V30 53809 H 6502.42 2.71231 -5.45042 0
M  V30 53810 H 6501.39 4.76966 -3.49992 0
M  V30 53811 H 6503.13 4.67047 -3.95024 0
M  V30 53812 H 6502.64 4.58996 -2.22312 0
M  V30 53813 H 6501.91 0.214893 -1.39758 0
M  V30 53814 P 6500.48 -1.17771 -8.83182 0
M  V30 53815 O 6500.26 -2.07206 -9.98732 0
M  V30 53816 O 6499.69 0.0743816 -8.81969 0
M  V30 53817 O 6500.23 -1.97652 -7.47304 0
M  V30 53818 C 6501.17 -3.01133 -7.08783 0
M  V30 53819 C 6500.44 -4.12613 -6.37049 0
M  V30 53820 O 6500.23 -3.72827 -4.97879 0
M  V30 53821 C 6499.04 -4.45085 -6.88694 0
M  V30 53822 O 6498.65 -5.7877 -6.5624 0
M  V30 53823 C 6498.16 -3.47817 -6.12078 0
M  V30 53824 C 6498.87 -3.39414 -4.77697 0
M  V30 53825 N 6498.82 -2.04615 -4.15333 0
M  V30 53826 C 6498.9 -0.803897 -4.75249 0
M  V30 53827 N 6498.82 0.197615 -3.91502 0
M  V30 53828 C 6498.68 -0.413002 -2.66823 0
M  V30 53829 C 6498.55 0.157221 -1.38007 0
M  V30 53830 N 6498.43 -0.833136 -0.390236 0
M  V30 53831 C 6498.43 -2.19402 -0.623885 0
M  V30 53832 N 6498.3 -2.97622 0.449677 0
M  V30 53833 N 6498.56 -2.73005 -1.83601 0
M  V30 53834 C 6498.68 -1.78786 -2.80935 0
M  V30 53835 H 6501.66 -3.41248 -7.98759 0
M  V30 53836 H 6501.93 -2.5837 -6.41742 0
M  V30 53837 H 6501.06 -5.02657 -6.42673 0
M  V30 53838 P 6497.1 -6.144 -6.45285 0
M  V30 53839 O 6496.88 -7.54673 -6.86199 0
M  V30 53840 O 6496.31 -5.12391 -7.179 0
M  V30 53841 O 6496.85 -5.99158 -4.88404 0
M  V30 53842 C 6497.79 -6.60234 -3.96415 0
M  V30 53843 C 6497.06 -7.08259 -2.72856 0
M  V30 53844 O 6496.85 -5.9427 -1.83651 0
M  V30 53845 C 6495.66 -7.64886 -2.9555 0
M  V30 53846 O 6495.27 -8.53963 -1.90717 0
M  V30 53847 C 6494.78 -6.4116 -2.90739 0
M  V30 53848 C 6495.49 -5.55375 -1.86963 0
M  V30 53849 N 6495.44 -4.09664 -2.15742 0
M  V30 53850 C 6495.52 -3.44381 -3.37233 0
M  V30 53851 N 6495.44 -2.14131 -3.28347 0
M  V30 53852 C 6495.3 -1.90247 -1.91588 0
M  V30 53853 C 6495.17 -0.683992 -1.20892 0
M  V30 53854 O 6495.15 0.46618 -1.64523 0
M  V30 53855 N 6495.05 -0.903396 0.173998 0
M  V30 53856 C 6495.05 -2.14171 0.784879 0
M  V30 53857 N 6494.92 -2.1435 2.11317 0
M  V30 53858 N 6495.18 -3.28784 0.119316 0
M  V30 53859 C 6495.3 -3.0977 -1.22194 0
M  V30 53860 H 6498.28 -7.45574 -4.45629 0
M  V30 53861 H 6498.55 -5.86232 -3.67314 0
M  V30 53862 H 6497.68 -7.84412 -2.24479 0
M  V30 53863 H 6495.03 -5.73556 -0.888715 0
M  V30 53864 H 6494.75 -5.9096 -3.88638 0
M  V30 53865 H 6493.76 -6.66053 -2.58894 0
M  V30 53866 H 6495.59 -8.16429 -3.92093 0
M  V30 53867 H 6495.64 -3.96785 -4.32043 0
M  V30 53868 H 6494.96 -0.0999567 0.761467 0
M  V30 53869 H 6494.92 -3.03436 2.63076 0
M  V30 53870 H 6494.82 -1.25228 2.62233 0
M  V30 53871 P 6493.72 -8.7635 -1.60911 0
M  V30 53872 O 6493.5 -10.1388 -1.11561 0
M  V30 53873 O 6492.93 -8.36503 -2.79617 0
M  V30 53874 O 6493.47 -7.71806 -0.42951 0
M  V30 53875 C 6494.41 -7.66948 0.673514 0
M  V30 53876 C 6493.68 -7.33374 1.95559 0
M  V30 53877 O 6493.47 -5.88721 2.00726 0
M  V30 53878 C 6492.28 -7.92218 2.1125 0
M  V30 53879 O 6491.89 -8.02971 3.47653 0
M  V30 53880 C 6491.4 -6.89504 1.41631 0
M  V30 53881 C 6492.11 -5.59106 1.75155 0
M  V30 53882 N 6492.06 -4.58136 0.662409 0
M  V30 53883 C 6491.91 -3.26059 1.02863 0
M  V30 53884 O 6491.82 -2.90743 2.19009 0
M  V30 53885 N 6491.87 -2.35995 -0.0155585 0
M  V30 53886 C 6491.96 -2.65248 -1.35603 0
M  V30 53887 O 6491.91 -1.75605 -2.20651 0
M  V30 53888 C 6492.11 -4.05747 -1.64698 0
M  V30 53889 C 6492.22 -4.42345 -3.09553 0
M  V30 53890 C 6492.16 -4.96734 -0.652411 0
M  V30 53891 H 6494.9 -8.64917 0.776982 0
M  V30 53892 H 6495.17 -6.89974 0.474015 0
M  V30 53893 H 6494.3 -7.66548 2.79458 0
M  V30 53894 H 6491.65 -5.16076 2.65138 0
M  V30 53895 H 6491.37 -7.06433 0.329384 0
M  V30 53896 H 6490.38 -6.90829 1.81996 0
M  V30 53897 H 6492.21 -8.90774 1.62639 0
M  V30 53898 H 6492.28 -6.02181 -0.895285 0
M  V30 53899 H 6491.25 -4.80252 -3.45468 0
M  V30 53900 H 6492.99 -5.20015 -3.22119 0
M  V30 53901 H 6492.5 -3.53269 -3.67833 0
M  V30 53902 H 6491.77 -1.39558 0.227499 0
M  V30 53903 P 6490.34 -8.03563 3.84925 0
M  V30 53904 O 6490.12 -8.85821 5.0569 0
M  V30 53905 O 6489.55 -8.41101 2.65469 0
M  V30 53906 O 6490.09 -6.4965 4.18908 0
M  V30 53907 C 6491.03 -5.81037 5.05421 0
M  V30 53908 C 6490.3 -4.78366 5.89277 0
M  V30 53909 O 6490.09 -3.58302 5.08433 0
M  V30 53910 C 6488.9 -5.17448 6.36119 0
M  V30 53911 O 6488.51 -4.45271 7.53232 0
M  V30 53912 C 6488.02 -4.74639 5.19936 0
M  V30 53913 C 6488.73 -3.49432 4.70418 0
M  V30 53914 N 6488.68 -3.31776 3.22945 0
M  V30 53915 H 6491.52 -6.54213 5.71376 0
M  V30 53916 H 6491.79 -5.30492 4.44033 0
M  V30 53917 H 6490.92 -4.55889 6.76652 0
M  V30 53918 P 6486.96 -4.23843 7.83734 0
M  V30 53919 O 6486.74 -4.19407 9.29784 0
M  V30 53920 O 6486.17 -5.24426 7.09156 0
M  V30 53921 O 6486.71 -2.7935 7.20758 0
M  V30 53922 C 6487.65 -1.72945 7.50224 0
M  V30 53923 C 6486.92 -0.406376 7.57911 0
M  V30 53924 O 6486.71 0.0897726 6.21935 0
M  V30 53925 C 6485.52 -0.438983 8.18724 0
M  V30 53926 O 6485.13 0.825065 8.71101 0
M  V30 53927 C 6484.64 -0.783689 6.99524 0
M  V30 53928 C 6485.35 -0.0619086 5.85867 0
M  V30 53929 N 6485.3 -0.78573 4.56183 0
M  V30 53930 C 6485.15 -0.0292889 3.41887 0
M  V30 53931 O 6485.06 1.18445 3.4419 0
M  V30 53932 N 6485.11 -0.744061 2.23964 0
M  V30 53933 C 6485.2 -2.10932 2.10362 0
M  V30 53934 O 6485.15 -2.64117 0.98825 0
M  V30 53935 C 6485.35 -2.8202 3.34994 0
M  V30 53936 C 6485.46 -4.31095 3.25037 0
M  V30 53937 C 6485.4 -2.15547 4.52261 0
M  V30 53938 H 6488.14 -1.93379 8.46595 0
M  V30 53939 H 6488.41 -1.68132 6.70852 0
M  V30 53940 H 6487.54 0.289041 8.15388 0
M  V30 53941 H 6484.89 0.926847 5.72749 0
M  V30 53942 H 6484.61 -1.86973 6.82036 0
M  V30 53943 H 6483.62 -0.403896 7.13257 0
M  V30 53944 H 6485.45 -1.20585 8.97435 0
M  V30 53945 H 6485.52 -2.71231 5.45042 0
M  V30 53946 H 6484.49 -4.76966 3.49992 0
M  V30 53947 H 6486.23 -4.67047 3.95024 0
M  V30 53948 H 6485.74 -4.58996 2.22312 0
M  V30 53949 H 6485.01 -0.214893 1.39758 0
M  V30 53950 P 6483.58 1.17771 8.83182 0
M  V30 53951 O 6483.36 2.07206 9.98732 0
M  V30 53952 O 6482.79 -0.0743816 8.81969 0
M  V30 53953 O 6483.33 1.97652 7.47304 0
M  V30 53954 C 6484.27 3.01133 7.08783 0
M  V30 53955 C 6483.54 4.12613 6.37049 0
M  V30 53956 O 6483.33 3.72827 4.97879 0
M  V30 53957 C 6482.14 4.45085 6.88694 0
M  V30 53958 O 6481.75 5.7877 6.5624 0
M  V30 53959 C 6481.26 3.47817 6.12078 0
M  V30 53960 C 6481.97 3.39414 4.77697 0
M  V30 53961 N 6481.92 2.04615 4.15333 0
M  V30 53962 H 6484.76 3.41248 7.98759 0
M  V30 53963 H 6485.03 2.5837 6.41742 0
M  V30 53964 H 6484.16 5.02657 6.42673 0
M  V30 53965 P 6480.2 6.144 6.45285 0
M  V30 53966 O 6479.98 7.54673 6.86199 0
M  V30 53967 O 6479.41 5.12391 7.179 0
M  V30 53968 O 6479.95 5.99236 4.88467 0
M  V30 53969 C 6480.89 6.60234 3.96415 0
M  V30 53970 C 6480.16 7.08079 2.736 0
M  V30 53971 O 6479.95 5.94365 1.8368 0
M  V30 53972 C 6478.76 7.64886 2.9555 0
M  V30 53973 O 6478.37 8.5406 1.90739 0
M  V30 53974 C 6477.88 6.4116 2.90739 0
M  V30 53975 C 6478.59 5.55375 1.86963 0
M  V30 53976 N 6478.54 4.09664 2.15742 0
M  V30 53977 C 6478.39 3.22231 1.08477 0
M  V30 53978 O 6478.3 3.68951 -0.0600489 0
M  V30 53979 N 6478.34 1.76692 1.48799 0
M  V30 53980 C 6478.44 1.41695 2.57602 0
M  V30 53981 N 6478.39 0.107296 2.75791 0
M  V30 53982 C 6478.59 2.29178 3.69733 0
M  V30 53983 C 6478.64 3.62753 3.42653 0
M  V30 53984 H 6481.38 7.45488 4.45578 0
M  V30 53985 H 6481.65 5.86232 3.67314 0
M  V30 53986 H 6480.78 7.84508 2.24507 0
M  V30 53987 H 6478.13 5.73556 0.888715 0
M  V30 53988 H 6477.85 5.9096 3.88638 0
M  V30 53989 H 6476.86 6.66053 2.58894 0
M  V30 53990 H 6478.69 8.16339 3.92049 0
M  V30 53991 H 6478.76 4.33052 4.24913 0
M  V30 53992 H 6478.66 1.9103 4.71577 0
M  V30 53993 H 6478.27 -0.521221 1.95056 0
M  V30 53994 H 6478.47 -0.286429 3.70695 0
M  V30 53995 P 6476.82 8.7635 1.60911 0
M  V30 53996 O 6476.6 10.1388 1.11561 0
M  V30 53997 O 6476.03 8.36503 2.79617 0
M  V30 53998 O 6476.57 7.71806 0.42951 0
M  V30 53999 C 6477.51 7.67148 -0.673689 0
M  V30 54000 C 6476.78 7.33374 -1.95559 0
M  V30 54001 O 6476.57 5.88721 -2.00726 0
M  V30 54002 C 6475.38 7.92526 -2.10483 0
M  V30 54003 O 6474.99 8.02971 -3.47653 0
M  V30 54004 C 6474.5 6.89602 -1.41652 0
M  V30 54005 C 6475.21 5.59201 -1.75185 0
M  V30 54006 N 6475.16 4.58235 -0.662552 0
M  V30 54007 H 6478 8.65116 -0.777161 0
M  V30 54008 H 6478.27 6.90173 -0.474152 0
M  V30 54009 H 6477.4 7.66548 -2.79458 0
M  V30 54010 P 6473.44 8.03563 -3.84925 0
M  V30 54011 O 6473.22 8.85821 -5.0569 0
M  V30 54012 O 6472.65 8.41101 -2.65469 0
M  V30 54013 O 6473.19 6.49734 -4.18962 0
M  V30 54014 C 6474.13 5.81037 -5.05421 0
M  V30 54015 C 6473.4 4.79018 -5.88876 0
M  V30 54016 O 6473.19 3.58359 -5.08515 0
M  V30 54017 C 6472 5.17448 -6.36119 0
M  V30 54018 O 6471.61 4.45322 -7.53318 0
M  V30 54019 C 6471.12 4.74639 -5.19936 0
M  V30 54020 C 6471.83 3.49432 -4.70418 0
M  V30 54021 N 6471.78 3.31776 -3.22945 0
M  V30 54022 C 6471.63 2.02742 -2.72939 0
M  V30 54023 O 6471.54 1.08301 -3.52749 0
M  V30 54024 N 6471.58 1.96117 -1.22063 0
M  V30 54025 C 6471.68 2.8878 -0.551566 0
M  V30 54026 N 6471.63 2.65609 0.750198 0
M  V30 54027 C 6471.83 4.22457 -1.03707 0
M  V30 54028 C 6471.88 4.37979 -2.39113 0
M  V30 54029 H 6474.62 6.54138 -5.7131 0
M  V30 54030 H 6474.89 5.30492 -4.44033 0
M  V30 54031 H 6474.02 4.55945 -6.76735 0
M  V30 54032 H 6471.37 2.6176 -5.18021 0
M  V30 54033 H 6471.09 5.52233 -4.41941 0
M  V30 54034 H 6470.1 4.52045 -5.53452 0
M  V30 54035 H 6471.93 6.25124 -6.55234 0
M  V30 54036 H 6472 5.37936 -2.80552 0
M  V30 54037 H 6471.9 5.07528 -0.359553 0
M  V30 54038 H 6471.51 1.69403 1.09847 0
M  V30 54039 H 6471.71 3.43701 1.41792 0
M  V30 54040 P 6470.06 4.23843 -7.83734 0
M  V30 54041 O 6469.84 4.19407 -9.29784 0
M  V30 54042 O 6469.27 5.24426 -7.09156 0
M  V30 54043 O 6469.81 2.7935 -7.20758 0
M  V30 54044 C 6470.75 1.72945 -7.50224 0
M  V30 54045 C 6470.02 0.406376 -7.57911 0
M  V30 54046 O 6469.81 -0.0897726 -6.21935 0
M  V30 54047 C 6468.62 0.438983 -8.18724 0
M  V30 54048 O 6468.23 -0.825065 -8.71101 0
M  V30 54049 C 6467.74 0.783689 -6.99524 0
M  V30 54050 C 6468.45 0.0619086 -5.85867 0
M  V30 54051 N 6468.4 0.78573 -4.56183 0
M  V30 54052 C 6468.25 0.0292889 -3.41887 0
M  V30 54053 O 6468.16 -1.18445 -3.4419 0
M  V30 54054 N 6468.21 0.744061 -2.23964 0
M  V30 54055 C 6468.3 2.10932 -2.10362 0
M  V30 54056 O 6468.25 2.64117 -0.98825 0
M  V30 54057 C 6468.45 2.8202 -3.34994 0
M  V30 54058 C 6468.56 4.31095 -3.25037 0
M  V30 54059 C 6468.5 2.15547 -4.52261 0
M  V30 54060 H 6471.24 1.93379 -8.46595 0
M  V30 54061 H 6471.51 1.68132 -6.70852 0
M  V30 54062 H 6470.64 -0.289041 -8.15388 0
M  V30 54063 H 6467.99 -0.926847 -5.72749 0
M  V30 54064 H 6467.71 1.86973 -6.82036 0
M  V30 54065 H 6466.72 0.403896 -7.13257 0
M  V30 54066 H 6468.55 1.20585 -8.97435 0
M  V30 54067 H 6468.62 2.71231 -5.45042 0
M  V30 54068 H 6467.59 4.76966 -3.49992 0
M  V30 54069 H 6469.33 4.67047 -3.95024 0
M  V30 54070 H 6468.84 4.58996 -2.22312 0
M  V30 54071 H 6468.11 0.214893 -1.39758 0
M  V30 54072 P 6466.68 -1.17771 -8.83182 0
M  V30 54073 O 6466.46 -2.07206 -9.98732 0
M  V30 54074 O 6465.89 0.0743816 -8.81969 0
M  V30 54075 O 6466.43 -1.97652 -7.47304 0
M  V30 54076 C 6467.37 -3.01055 -7.08599 0
M  V30 54077 C 6466.64 -4.12613 -6.37049 0
M  V30 54078 O 6466.43 -3.72827 -4.97879 0
M  V30 54079 C 6465.24 -4.45719 -6.88164 0
M  V30 54080 O 6464.85 -5.7877 -6.5624 0
M  V30 54081 C 6464.36 -3.47768 -6.11991 0
M  V30 54082 C 6465.07 -3.39356 -4.77615 0
M  V30 54083 N 6465.02 -2.04571 -4.15244 0
M  V30 54084 C 6464.87 -1.98587 -2.78314 0
M  V30 54085 O 6464.78 -2.98134 -2.08835 0
M  V30 54086 N 6464.83 -0.714467 -2.24925 0
M  V30 54087 C 6464.92 0.470001 -2.94169 0
M  V30 54088 O 6464.87 1.55587 -2.35195 0
M  V30 54089 C 6465.07 0.312541 -4.36783 0
M  V30 54090 C 6465.18 1.57711 -5.16352 0
M  V30 54091 C 6465.12 -0.914512 -4.92583 0
M  V30 54092 H 6467.86 -3.41169 -7.98575 0
M  V30 54093 H 6468.13 -2.58295 -6.41556 0
M  V30 54094 H 6467.26 -5.02657 -6.42673 0
M  V30 54095 H 6464.61 -4.11637 -4.08885 0
M  V30 54096 H 6464.33 -2.49626 -6.61679 0
M  V30 54097 H 6463.34 -3.86566 -6.00778 0
M  V30 54098 H 6465.17 -4.29943 -7.96918 0
M  V30 54099 H 6465.24 -1.00937 -6.00374 0
M  V30 54100 H 6464.21 1.80153 -5.63503 0
M  V30 54101 H 6465.95 1.4566 -5.94104 0
M  V30 54102 H 6465.46 2.40664 -4.49645 0
M  V30 54103 H 6464.73 -0.647622 -1.25697 0
M  V30 54104 P 6463.3 -6.144 -6.45285 0
M  V30 54105 O 6463.08 -7.54673 -6.86199 0
M  V30 54106 O 6462.51 -5.12391 -7.179 0
M  V30 54107 O 6463.05 -5.99158 -4.88404 0
M  V30 54108 C 6463.99 -6.60234 -3.96415 0
M  V30 54109 C 6463.26 -7.08259 -2.72856 0
M  V30 54110 O 6463.05 -5.9427 -1.83651 0
M  V30 54111 C 6461.86 -7.64886 -2.9555 0
M  V30 54112 O 6461.47 -8.53963 -1.90717 0
M  V30 54113 C 6460.98 -6.4116 -2.90739 0
M  V30 54114 C 6461.69 -5.55375 -1.86963 0
M  V30 54115 N 6461.64 -4.09664 -2.15742 0
M  V30 54116 H 6464.48 -7.45574 -4.45629 0
M  V30 54117 H 6464.75 -5.86232 -3.67314 0
M  V30 54118 H 6463.88 -7.84412 -2.24479 0
M  V30 54119 P 6459.92 -8.7635 -1.60911 0
M  V30 54120 O 6459.7 -10.1388 -1.11561 0
M  V30 54121 O 6459.13 -8.36503 -2.79617 0
M  V30 54122 O 6459.67 -7.71906 -0.429565 0
M  V30 54123 C 6460.61 -7.67148 0.673689 0
M  V30 54124 C 6459.88 -7.33666 1.94851 0
M  V30 54125 O 6459.67 -5.88816 2.00759 0
M  V30 54126 C 6458.48 -7.92526 2.10483 0
M  V30 54127 O 6458.09 -8.03063 3.47693 0
M  V30 54128 C 6457.6 -6.89602 1.41652 0
M  V30 54129 C 6458.31 -5.59201 1.75185 0
M  V30 54130 N 6458.26 -4.58235 0.662552 0
M  V30 54131 C 6458.11 -3.24451 1.01643 0
M  V30 54132 O 6458.02 -2.94958 2.21722 0
M  V30 54133 N 6458.06 -2.30408 -0.165238 0
M  V30 54134 C 6458.16 -2.66048 -1.25118 0
M  V30 54135 N 6458.11 -1.70787 -2.16813 0
M  V30 54136 C 6458.31 -4.02732 -1.64413 0
M  V30 54137 C 6458.36 -4.9488 -0.63991 0
M  V30 54138 H 6461.1 -8.65017 0.777072 0
M  V30 54139 H 6461.37 -6.90173 0.474152 0
M  V30 54140 H 6460.5 -7.66642 2.79492 0
M  V30 54141 H 6457.85 -5.16254 2.65229 0
M  V30 54142 H 6457.57 -7.06532 0.329431 0
M  V30 54143 H 6456.58 -6.91023 1.82047 0
M  V30 54144 H 6458.41 -8.90873 1.62657 0
M  V30 54145 H 6458.48 -6.00104 -0.892197 0
M  V30 54146 H 6458.38 -4.31733 -2.69229 0
M  V30 54147 H 6457.99 -0.724835 -1.8844 0
M  V30 54148 H 6458.19 -1.94716 -3.16734 0
M  V30 54149 P 6456.54 -8.03563 3.84925 0
M  V30 54150 O 6456.32 -8.85821 5.0569 0
M  V30 54151 O 6455.75 -8.41101 2.65469 0
M  V30 54152 O 6456.29 -6.4965 4.18908 0
M  V30 54153 C 6457.23 -5.80886 5.05289 0
M  V30 54154 C 6456.5 -4.78366 5.89277 0
M  V30 54155 O 6456.29 -3.58302 5.08433 0
M  V30 54156 C 6455.1 -5.16748 6.36559 0
M  V30 54157 O 6454.71 -4.45271 7.53232 0
M  V30 54158 C 6454.22 -4.74572 5.19863 0
M  V30 54159 C 6454.93 -3.49373 4.70338 0
M  V30 54160 N 6454.88 -3.31704 3.22876 0
M  V30 54161 C 6454.73 -2.03326 2.74871 0
M  V30 54162 O 6454.64 -1.06486 3.48076 0
M  V30 54163 N 6454.69 -1.91838 1.37456 0
M  V30 54164 C 6454.78 -2.94295 0.462035 0
M  V30 54165 C 6454.93 -4.25064 1.05249 0
M  V30 54166 C 6454.98 -4.40214 2.39192 0
M  V30 54167 H 6457.72 -6.54063 5.71245 0
M  V30 54168 H 6457.99 -5.30339 4.43905 0
M  V30 54169 H 6457.12 -4.55889 6.76652 0
M  V30 54170 H 6454.47 -2.6167 5.17842 0
M  V30 54171 H 6454.19 -5.52155 4.41878 0
M  V30 54172 H 6453.2 -4.51918 5.53297 0
M  V30 54173 H 6455.03 -6.25055 6.55162 0
M  V30 54174 H 6455.1 -5.39798 2.81523 0
M  V30 54175 P 6453.16 -4.23843 7.83734 0
M  V30 54176 O 6452.94 -4.19407 9.29784 0
M  V30 54177 O 6452.37 -5.24426 7.09156 0
M  V30 54178 O 6452.91 -2.7935 7.20758 0
M  V30 54179 C 6453.85 -1.7299 7.50419 0
M  V30 54180 C 6453.12 -0.406376 7.57911 0
M  V30 54181 O 6452.91 0.0897726 6.21935 0
M  V30 54182 C 6451.72 -0.447224 8.1878 0
M  V30 54183 O 6451.33 0.825065 8.71101 0
M  V30 54184 C 6450.84 -0.783801 6.99623 0
M  V30 54185 C 6451.55 -0.0619192 5.85967 0
M  V30 54186 N 6451.5 -0.7859 4.56281 0
M  V30 54187 H 6454.34 -1.93423 8.4679 0
M  V30 54188 H 6454.61 -1.68181 6.71046 0
M  V30 54189 H 6453.74 0.289041 8.15388 0
M  V30 54190 P 6449.78 1.17771 8.83182 0
M  V30 54191 O 6449.56 2.07206 9.98732 0
M  V30 54192 O 6448.99 -0.0743816 8.81969 0
M  V30 54193 O 6449.53 1.97652 7.47304 0
M  V30 54194 C 6450.47 3.01133 7.08783 0
M  V30 54195 C 6449.74 4.12613 6.37049 0
M  V30 54196 O 6449.53 3.72827 4.97879 0
M  V30 54197 C 6448.34 4.45085 6.88694 0
M  V30 54198 O 6447.95 5.7877 6.5624 0
M  V30 54199 C 6447.46 3.47817 6.12078 0
M  V30 54200 C 6448.17 3.39414 4.77697 0
M  V30 54201 N 6448.12 2.04615 4.15333 0
M  V30 54202 H 6450.96 3.41248 7.98759 0
M  V30 54203 H 6451.23 2.5837 6.41742 0
M  V30 54204 H 6450.36 5.02657 6.42673 0
M  V30 54205 P 6446.4 6.144 6.45285 0
M  V30 54206 O 6446.18 7.54673 6.86199 0
M  V30 54207 O 6445.61 5.12391 7.179 0
M  V30 54208 O 6446.15 5.99158 4.88404 0
M  V30 54209 C 6447.09 6.60062 3.96313 0
M  V30 54210 C 6446.36 7.08259 2.72856 0
M  V30 54211 O 6446.15 5.9427 1.83651 0
M  V30 54212 C 6444.96 7.65087 2.94749 0
M  V30 54213 O 6444.57 8.53963 1.90717 0
M  V30 54214 C 6444.08 6.41069 2.90698 0
M  V30 54215 C 6444.79 5.5528 1.86931 0
M  V30 54216 N 6444.74 4.09575 2.15696 0
M  V30 54217 C 6444.59 3.24249 1.08435 0
M  V30 54218 O 6444.5 3.63946 -0.0628747 0
M  V30 54219 N 6444.55 1.90009 1.39973 0
M  V30 54220 C 6444.64 1.34884 2.65614 0
M  V30 54221 O 6444.59 0.123716 2.81728 0
M  V30 54222 C 6444.79 2.3145 3.71736 0
M  V30 54223 C 6444.9 1.75913 5.10438 0
M  V30 54224 C 6444.84 3.63518 3.44754 0
M  V30 54225 H 6447.58 7.45402 4.45526 0
M  V30 54226 H 6447.85 5.86062 3.67208 0
M  V30 54227 H 6446.98 7.84412 2.24479 0
M  V30 54228 H 6444.33 5.73358 0.888409 0
M  V30 54229 H 6444.05 5.90877 3.88583 0
M  V30 54230 H 6443.06 6.65867 2.58821 0
M  V30 54231 H 6444.89 8.16248 3.92006 0
M  V30 54232 H 6444.96 4.34551 4.26383 0
M  V30 54233 H 6443.93 1.85471 5.61775 0
M  V30 54234 H 6445.67 2.31364 5.66257 0
M  V30 54235 H 6445.18 0.695936 5.05229 0
M  V30 54236 H 6444.45 1.26277 0.63625 0
M  V30 54237 P 6443.02 8.7635 1.60911 0
M  V30 54238 O 6442.8 10.1388 1.11561 0
M  V30 54239 O 6442.23 8.36503 2.79617 0
M  V30 54240 O 6442.77 7.71806 0.42951 0
M  V30 54241 C 6443.71 7.67148 -0.673689 0
M  V30 54242 C 6442.98 7.33374 -1.95559 0
M  V30 54243 O 6442.77 5.88721 -2.00726 0
M  V30 54244 C 6441.58 7.92526 -2.10483 0
M  V30 54245 O 6441.19 8.02971 -3.47653 0
M  V30 54246 C 6440.7 6.89602 -1.41652 0
M  V30 54247 C 6441.41 5.59201 -1.75185 0
M  V30 54248 N 6441.36 4.58235 -0.662552 0
M  V30 54249 H 6444.2 8.65116 -0.777161 0
M  V30 54250 H 6444.47 6.90173 -0.474152 0
M  V30 54251 H 6443.6 7.66548 -2.79458 0
M  V30 54252 P 6439.64 8.03563 -3.84925 0
M  V30 54253 O 6439.42 8.85821 -5.0569 0
M  V30 54254 O 6438.85 8.41101 -2.65469 0
M  V30 54255 O 6439.39 6.4965 -4.18908 0
M  V30 54256 C 6440.33 5.81037 -5.05421 0
M  V30 54257 C 6439.6 4.78366 -5.89277 0
M  V30 54258 O 6439.39 3.58302 -5.08433 0
M  V30 54259 C 6438.2 5.17448 -6.36119 0
M  V30 54260 O 6437.81 4.45271 -7.53232 0
M  V30 54261 C 6437.32 4.74639 -5.19936 0
M  V30 54262 C 6438.03 3.49432 -4.70418 0
M  V30 54263 N 6437.98 3.31776 -3.22945 0
M  V30 54264 H 6440.82 6.54213 -5.71376 0
M  V30 54265 H 6441.09 5.30492 -4.44033 0
M  V30 54266 H 6440.22 4.55889 -6.76652 0
M  V30 54267 P 6436.26 4.23843 -7.83734 0
M  V30 54268 O 6436.04 4.19407 -9.29784 0
M  V30 54269 O 6435.47 5.24426 -7.09156 0
M  V30 54270 O 6436.01 2.7935 -7.20758 0
M  V30 54271 C 6436.95 1.7299 -7.50419 0
M  V30 54272 C 6436.22 0.406376 -7.57911 0
M  V30 54273 O 6436.01 -0.0897726 -6.21935 0
M  V30 54274 C 6434.82 0.447224 -8.1878 0
M  V30 54275 O 6434.43 -0.825065 -8.71101 0
M  V30 54276 C 6433.94 0.783801 -6.99623 0
M  V30 54277 C 6434.65 0.0619192 -5.85967 0
M  V30 54278 N 6434.6 0.790462 -4.56202 0
M  V30 54279 H 6437.44 1.93423 -8.4679 0
M  V30 54280 H 6437.71 1.68852 -6.70877 0
M  V30 54281 H 6436.84 -0.289041 -8.15388 0
M  V30 54282 H 6434.19 -0.927006 -5.72848 0
M  V30 54283 H 6433.91 1.86973 -6.82036 0
M  V30 54284 H 6432.92 0.403953 -7.13357 0
M  V30 54285 H 6434.75 1.20599 -8.97534 0
M  V30 54286 P 6432.88 -1.17771 -8.83182 0
M  V30 54287 O 6432.66 -2.07206 -9.98732 0
M  V30 54288 O 6432.09 0.0743816 -8.81969 0
M  V30 54289 O 6432.63 -1.97652 -7.47304 0
M  V30 54290 C 6433.57 -3.01133 -7.08783 0
M  V30 54291 C 6432.84 -4.12613 -6.37049 0
M  V30 54292 O 6432.63 -3.72827 -4.97879 0
M  V30 54293 C 6431.44 -4.45085 -6.88694 0
M  V30 54294 O 6431.05 -5.7877 -6.5624 0
M  V30 54295 C 6430.56 -3.47817 -6.12078 0
M  V30 54296 C 6431.27 -3.39414 -4.77697 0
M  V30 54297 N 6431.22 -2.04199 -4.15538 0
M  V30 54298 H 6434.06 -3.41248 -7.98759 0
M  V30 54299 H 6434.33 -2.57728 -6.42 0
M  V30 54300 H 6433.46 -5.02657 -6.42673 0
M  V30 54301 H 6430.81 -4.11708 -4.08956 0
M  V30 54302 H 6430.53 -2.49626 -6.61679 0
M  V30 54303 H 6429.54 -3.8662 -6.00862 0
M  V30 54304 H 6431.37 -4.29991 -7.97006 0
M  V30 54305 P 6429.5 -6.144 -6.45285 0
M  V30 54306 O 6429.28 -7.54673 -6.86199 0
M  V30 54307 O 6428.71 -5.12391 -7.179 0
M  V30 54308 O 6429.25 -5.99158 -4.88404 0
M  V30 54309 C 6430.19 -6.60234 -3.96415 0
M  V30 54310 C 6429.46 -7.08259 -2.72856 0
M  V30 54311 O 6429.25 -5.9427 -1.83651 0
M  V30 54312 C 6428.06 -7.64886 -2.9555 0
M  V30 54313 O 6427.67 -8.53963 -1.90717 0
M  V30 54314 C 6427.18 -6.4116 -2.90739 0
M  V30 54315 C 6427.89 -5.55375 -1.86963 0
M  V30 54316 N 6427.84 -4.09664 -2.15742 0
M  V30 54317 H 6430.68 -7.45574 -4.45629 0
M  V30 54318 H 6430.95 -5.86232 -3.67314 0
M  V30 54319 H 6430.08 -7.84412 -2.24479 0
M  V30 54320 P 6426.12 -8.7635 -1.60911 0
M  V30 54321 O 6425.9 -10.1388 -1.11561 0
M  V30 54322 O 6425.33 -8.36503 -2.79617 0
M  V30 54323 O 6425.87 -7.71806 -0.42951 0
M  V30 54324 C 6426.81 -7.67148 0.673689 0
M  V30 54325 C 6426.08 -7.33374 1.95559 0
M  V30 54326 O 6425.87 -5.88721 2.00726 0
M  V30 54327 C 6424.68 -7.92526 2.10483 0
M  V30 54328 O 6424.29 -8.02971 3.47653 0
M  V30 54329 C 6423.8 -6.89602 1.41652 0
M  V30 54330 C 6424.51 -5.59201 1.75185 0
M  V30 54331 N 6424.46 -4.58235 0.662552 0
M  V30 54332 H 6427.3 -8.65116 0.777161 0
M  V30 54333 H 6427.57 -6.90173 0.474152 0
M  V30 54334 H 6426.7 -7.66548 2.79458 0
M  V30 54335 P 6422.74 -8.03563 3.84925 0
M  V30 54336 O 6422.52 -8.85821 5.0569 0
M  V30 54337 O 6421.95 -8.41101 2.65469 0
M  V30 54338 O 6422.49 -6.4965 4.18908 0
M  V30 54339 C 6423.43 -5.81037 5.05421 0
M  V30 54340 C 6422.7 -4.78366 5.89277 0
M  V30 54341 O 6422.49 -3.58302 5.08433 0
M  V30 54342 C 6421.3 -5.17448 6.36119 0
M  V30 54343 O 6420.91 -4.45271 7.53232 0
M  V30 54344 C 6420.42 -4.74639 5.19936 0
M  V30 54345 C 6421.13 -3.49432 4.70418 0
M  V30 54346 N 6421.08 -3.31776 3.22945 0
M  V30 54347 H 6423.92 -6.54213 5.71376 0
M  V30 54348 H 6424.19 -5.30492 4.44033 0
M  V30 54349 H 6423.33 -4.55889 6.76652 0
M  V30 54350 P 6419.36 -4.23843 7.83734 0
M  V30 54351 O 6419.14 -4.19407 9.29784 0
M  V30 54352 O 6418.57 -5.24426 7.09156 0
M  V30 54353 O 6419.11 -2.7935 7.20758 0
M  V30 54354 C 6420.05 -1.7299 7.50419 0
M  V30 54355 C 6419.32 -0.406376 7.57911 0
M  V30 54356 O 6419.11 0.0897726 6.21935 0
M  V30 54357 C 6417.92 -0.447224 8.1878 0
M  V30 54358 O 6417.53 0.825065 8.71101 0
M  V30 54359 C 6417.04 -0.783801 6.99623 0
M  V30 54360 C 6417.75 -0.0619192 5.85967 0
M  V30 54361 N 6417.7 -0.7859 4.56281 0
M  V30 54362 H 6420.54 -1.93423 8.4679 0
M  V30 54363 H 6420.81 -1.68181 6.71046 0
M  V30 54364 H 6419.95 0.289041 8.15388 0
M  V30 54365 P 6415.98 1.17771 8.83182 0
M  V30 54366 O 6415.76 2.07206 9.98732 0
M  V30 54367 O 6415.19 -0.0743816 8.81969 0
M  V30 54368 O 6415.73 1.97652 7.47304 0
M  V30 54369 C 6416.67 3.01133 7.08783 0
M  V30 54370 C 6415.94 4.12613 6.37049 0
M  V30 54371 O 6415.73 3.72827 4.97879 0
M  V30 54372 C 6414.54 4.45085 6.88694 0
M  V30 54373 O 6414.15 5.7877 6.5624 0
M  V30 54374 C 6413.66 3.47817 6.12078 0
M  V30 54375 C 6414.37 3.39414 4.77697 0
M  V30 54376 N 6414.32 2.04615 4.15333 0
M  V30 54377 H 6417.16 3.41248 7.98759 0
M  V30 54378 H 6417.43 2.5837 6.41742 0
M  V30 54379 H 6416.57 5.02657 6.42673 0
M  V30 54380 P 6412.6 6.144 6.45285 0
M  V30 54381 O 6412.38 7.54673 6.86199 0
M  V30 54382 O 6411.81 5.12391 7.179 0
M  V30 54383 O 6412.35 5.99158 4.88404 0
M  V30 54384 C 6413.29 6.60234 3.96415 0
M  V30 54385 C 6412.56 7.08259 2.72856 0
M  V30 54386 O 6412.35 5.9427 1.83651 0
M  V30 54387 C 6411.16 7.64886 2.9555 0
M  V30 54388 O 6410.77 8.53963 1.90717 0
M  V30 54389 C 6410.28 6.4116 2.90739 0
M  V30 54390 C 6410.99 5.55375 1.86963 0
M  V30 54391 N 6410.94 4.09448 2.16152 0
M  V30 54392 C 6411.02 3.46824 3.37593 0
M  V30 54393 N 6410.95 2.17422 3.29777 0
M  V30 54394 C 6410.8 1.93065 1.94427 0
M  V30 54395 C 6410.67 0.738053 1.20141 0
M  V30 54396 N 6410.66 -0.474256 1.74676 0
M  V30 54397 N 6410.55 0.850049 -0.13045 0
M  V30 54398 C 6410.56 2.06169 -0.676992 0
M  V30 54399 N 6410.68 3.23842 -0.101312 0
M  V30 54400 C 6410.8 3.09402 1.23122 0
M  V30 54401 H 6413.78 7.45574 4.45629 0
M  V30 54402 H 6414.05 5.85864 3.679 0
M  V30 54403 H 6413.19 7.84412 2.24479 0
M  V30 54404 H 6410.53 5.73457 0.888562 0
M  V30 54405 H 6410.25 5.90877 3.88583 0
M  V30 54406 H 6409.26 6.6596 2.58858 0
M  V30 54407 H 6411.09 8.16339 3.92049 0
M  V30 54408 H 6411.13 4.00505 4.3174 0
M  V30 54409 H 6410.75 -0.581337 2.76658 0
M  V30 54410 H 6410.56 -1.30811 1.14888 0
M  V30 54411 H 6410.46 2.08295 -1.75542 0
M  V30 54412 P 6409.22 8.7635 1.60911 0
M  V30 54413 O 6409 10.1388 1.11561 0
M  V30 54414 O 6408.43 8.36503 2.79617 0
M  V30 54415 O 6408.97 7.71806 0.42951 0
M  V30 54416 C 6409.91 7.67148 -0.673689 0
M  V30 54417 C 6409.18 7.33374 -1.95559 0
M  V30 54418 O 6408.97 5.88721 -2.00726 0
M  V30 54419 C 6407.78 7.92526 -2.10483 0
M  V30 54420 O 6407.39 8.02971 -3.47653 0
M  V30 54421 C 6406.9 6.89602 -1.41652 0
M  V30 54422 C 6407.61 5.59201 -1.75185 0
M  V30 54423 N 6407.56 4.58235 -0.662552 0
M  V30 54424 H 6410.4 8.65116 -0.777161 0
M  V30 54425 H 6410.67 6.90173 -0.474152 0
M  V30 54426 H 6409.81 7.66548 -2.79458 0
M  V30 54427 P 6405.84 8.03563 -3.84925 0
M  V30 54428 O 6405.62 8.85821 -5.0569 0
M  V30 54429 O 6405.05 8.41101 -2.65469 0
M  V30 54430 O 6405.59 6.49734 -4.18962 0
M  V30 54431 C 6406.53 5.81037 -5.05421 0
M  V30 54432 C 6405.8 4.79018 -5.88876 0
M  V30 54433 O 6405.59 3.58359 -5.08515 0
M  V30 54434 C 6404.4 5.17448 -6.36119 0
M  V30 54435 O 6404.01 4.45322 -7.53318 0
M  V30 54436 C 6403.52 4.74639 -5.19936 0
M  V30 54437 C 6404.23 3.49432 -4.70418 0
M  V30 54438 N 6404.18 3.31776 -3.22945 0
M  V30 54439 C 6404.03 2.02742 -2.72939 0
M  V30 54440 O 6403.94 1.08301 -3.52749 0
M  V30 54441 N 6403.98 1.96117 -1.22063 0
M  V30 54442 C 6404.08 2.8878 -0.551566 0
M  V30 54443 N 6404.03 2.65609 0.750198 0
M  V30 54444 C 6404.23 4.22457 -1.03707 0
M  V30 54445 C 6404.28 4.37979 -2.39113 0
M  V30 54446 H 6407.02 6.54138 -5.7131 0
M  V30 54447 H 6407.29 5.30492 -4.44033 0
M  V30 54448 H 6406.43 4.55945 -6.76735 0
M  V30 54449 H 6403.77 2.6176 -5.18021 0
M  V30 54450 H 6403.49 5.52233 -4.41941 0
M  V30 54451 H 6402.5 4.52045 -5.53452 0
M  V30 54452 H 6404.33 6.25124 -6.55234 0
M  V30 54453 H 6404.41 5.37936 -2.80552 0
M  V30 54454 H 6404.3 5.07528 -0.359553 0
M  V30 54455 H 6403.92 1.69403 1.09847 0
M  V30 54456 H 6404.11 3.43701 1.41792 0
M  V30 54457 P 6402.46 4.23843 -7.83734 0
M  V30 54458 O 6402.24 4.19407 -9.29784 0
M  V30 54459 O 6401.67 5.24426 -7.09156 0
M  V30 54460 O 6402.21 2.7935 -7.20758 0
M  V30 54461 C 6403.15 1.7299 -7.50419 0
M  V30 54462 C 6402.42 0.406376 -7.57911 0
M  V30 54463 O 6402.21 -0.0897726 -6.21935 0
M  V30 54464 C 6401.02 0.447224 -8.1878 0
M  V30 54465 O 6400.63 -0.825065 -8.71101 0
M  V30 54466 C 6400.14 0.783801 -6.99623 0
M  V30 54467 C 6400.85 0.0619192 -5.85967 0
M  V30 54468 N 6400.8 0.7859 -4.56281 0
M  V30 54469 H 6403.64 1.93423 -8.4679 0
M  V30 54470 H 6403.91 1.68181 -6.71046 0
M  V30 54471 H 6403.05 -0.289041 -8.15388 0
M  V30 54472 P 6399.08 -1.17771 -8.83182 0
M  V30 54473 O 6398.86 -2.07206 -9.98732 0
M  V30 54474 O 6398.29 0.0743816 -8.81969 0
M  V30 54475 O 6398.83 -1.97652 -7.47304 0
M  V30 54476 C 6399.77 -3.01133 -7.08783 0
M  V30 54477 C 6399.04 -4.12613 -6.37049 0
M  V30 54478 O 6398.83 -3.72827 -4.97879 0
M  V30 54479 C 6397.64 -4.45085 -6.88694 0
M  V30 54480 O 6397.25 -5.7877 -6.5624 0
M  V30 54481 C 6396.76 -3.47817 -6.12078 0
M  V30 54482 C 6397.47 -3.39414 -4.77697 0
M  V30 54483 N 6397.42 -2.04199 -4.15538 0
M  V30 54484 H 6400.26 -3.41248 -7.98759 0
M  V30 54485 H 6400.53 -2.57728 -6.42 0
M  V30 54486 H 6399.67 -5.02657 -6.42673 0
M  V30 54487 H 6397.01 -4.11708 -4.08956 0
M  V30 54488 H 6396.73 -2.49626 -6.61679 0
M  V30 54489 H 6395.74 -3.8662 -6.00862 0
M  V30 54490 H 6397.57 -4.29991 -7.97006 0
M  V30 54491 P 6395.7 -6.144 -6.45285 0
M  V30 54492 O 6395.48 -7.54673 -6.86199 0
M  V30 54493 O 6394.91 -5.12391 -7.179 0
M  V30 54494 O 6395.45 -5.99158 -4.88404 0
M  V30 54495 C 6396.39 -6.60062 -3.96313 0
M  V30 54496 C 6395.66 -7.08259 -2.72856 0
M  V30 54497 O 6395.45 -5.9427 -1.83651 0
M  V30 54498 C 6394.26 -7.65087 -2.94749 0
M  V30 54499 O 6393.87 -8.53963 -1.90717 0
M  V30 54500 C 6393.38 -6.41069 -2.90698 0
M  V30 54501 C 6394.09 -5.5528 -1.86931 0
M  V30 54502 N 6394.04 -4.09575 -2.15696 0
M  V30 54503 C 6393.89 -3.24249 -1.08435 0
M  V30 54504 O 6393.8 -3.63946 0.0628747 0
M  V30 54505 N 6393.85 -1.90009 -1.39973 0
M  V30 54506 C 6393.94 -1.34884 -2.65614 0
M  V30 54507 O 6393.89 -0.123716 -2.81728 0
M  V30 54508 C 6394.09 -2.3145 -3.71736 0
M  V30 54509 C 6394.2 -1.75913 -5.10438 0
M  V30 54510 C 6394.14 -3.63518 -3.44754 0
M  V30 54511 H 6396.88 -7.45402 -4.45526 0
M  V30 54512 H 6397.15 -5.86062 -3.67208 0
M  V30 54513 H 6396.29 -7.84412 -2.24479 0
M  V30 54514 H 6393.63 -5.73358 -0.888409 0
M  V30 54515 H 6393.35 -5.90877 -3.88583 0
M  V30 54516 H 6392.36 -6.65867 -2.58821 0
M  V30 54517 H 6394.19 -8.16248 -3.92006 0
M  V30 54518 H 6394.26 -4.34551 -4.26383 0
M  V30 54519 H 6393.23 -1.85471 -5.61775 0
M  V30 54520 H 6394.97 -2.31364 -5.66257 0
M  V30 54521 H 6394.48 -0.695936 -5.05229 0
M  V30 54522 H 6393.75 -1.26277 -0.63625 0
M  V30 54523 P 6392.32 -8.7635 -1.60911 0
M  V30 54524 O 6392.1 -10.1388 -1.11561 0
M  V30 54525 O 6391.53 -8.36503 -2.79617 0
M  V30 54526 O 6392.07 -7.71806 -0.42951 0
M  V30 54527 C 6393.01 -7.67148 0.673689 0
M  V30 54528 C 6392.28 -7.33374 1.95559 0
M  V30 54529 O 6392.07 -5.88721 2.00726 0
M  V30 54530 C 6390.88 -7.92526 2.10483 0
M  V30 54531 O 6390.49 -8.02971 3.47653 0
M  V30 54532 C 6390 -6.89602 1.41652 0
M  V30 54533 C 6390.71 -5.59201 1.75185 0
M  V30 54534 N 6390.66 -4.58301 0.657969 0
M  V30 54535 H 6393.5 -8.65116 0.777161 0
M  V30 54536 H 6393.77 -6.9022 0.46725 0
M  V30 54537 H 6392.91 -7.66548 2.79458 0
M  V30 54538 H 6390.25 -5.16165 2.65183 0
M  V30 54539 H 6389.97 -7.06433 0.329384 0
M  V30 54540 H 6388.98 -6.90926 1.82021 0
M  V30 54541 H 6390.81 -8.90873 1.62657 0
M  V30 54542 P 6388.94 -8.03563 3.84925 0
M  V30 54543 O 6388.72 -8.85821 5.0569 0
M  V30 54544 O 6388.15 -8.41101 2.65469 0
M  V30 54545 O 6388.69 -6.4965 4.18908 0
M  V30 54546 C 6389.63 -5.81037 5.05421 0
M  V30 54547 C 6388.9 -4.78366 5.89277 0
M  V30 54548 O 6388.69 -3.58302 5.08433 0
M  V30 54549 C 6387.5 -5.17448 6.36119 0
M  V30 54550 O 6387.11 -4.45271 7.53232 0
M  V30 54551 C 6386.62 -4.74639 5.19936 0
M  V30 54552 C 6387.33 -3.49432 4.70418 0
M  V30 54553 N 6387.28 -3.32099 3.22613 0
M  V30 54554 H 6390.12 -6.54213 5.71376 0
M  V30 54555 H 6390.39 -5.30936 4.43503 0
M  V30 54556 H 6389.53 -4.55889 6.76652 0
M  V30 54557 H 6386.87 -2.61715 5.17932 0
M  V30 54558 H 6386.59 -5.52155 4.41878 0
M  V30 54559 H 6385.6 -4.51981 5.53374 0
M  V30 54560 H 6387.43 -6.25124 6.55234 0
M  V30 54561 P 6385.56 -4.23843 7.83734 0
M  V30 54562 O 6385.34 -4.19407 9.29784 0
M  V30 54563 O 6384.77 -5.24426 7.09156 0
M  V30 54564 O 6385.31 -2.7935 7.20758 0
M  V30 54565 C 6386.25 -1.7299 7.50419 0
M  V30 54566 C 6385.52 -0.406376 7.57911 0
M  V30 54567 O 6385.31 0.0897726 6.21935 0
M  V30 54568 C 6384.12 -0.447224 8.1878 0
M  V30 54569 O 6383.73 0.825065 8.71101 0
M  V30 54570 C 6383.24 -0.783801 6.99623 0
M  V30 54571 C 6383.95 -0.0619192 5.85967 0
M  V30 54572 N 6383.9 -0.7859 4.56281 0
M  V30 54573 H 6386.74 -1.93423 8.4679 0
M  V30 54574 H 6387.01 -1.68181 6.71046 0
M  V30 54575 H 6386.15 0.289041 8.15388 0
M  V30 54576 P 6382.18 1.17771 8.83182 0
M  V30 54577 O 6381.96 2.07206 9.98732 0
M  V30 54578 O 6381.39 -0.0743816 8.81969 0
M  V30 54579 O 6381.93 1.97652 7.47304 0
M  V30 54580 C 6382.87 3.01133 7.08783 0
M  V30 54581 C 6382.14 4.12613 6.37049 0
M  V30 54582 O 6381.93 3.72827 4.97879 0
M  V30 54583 C 6380.74 4.45085 6.88694 0
M  V30 54584 O 6380.35 5.7877 6.5624 0
M  V30 54585 C 6379.86 3.47817 6.12078 0
M  V30 54586 C 6380.57 3.39414 4.77697 0
M  V30 54587 N 6380.52 2.04615 4.15333 0
M  V30 54588 H 6383.36 3.41248 7.98759 0
M  V30 54589 H 6383.63 2.5837 6.41742 0
M  V30 54590 H 6382.77 5.02657 6.42673 0
M  V30 54591 P 6378.8 6.144 6.45285 0
M  V30 54592 O 6378.58 7.54673 6.86199 0
M  V30 54593 O 6378.01 5.12391 7.179 0
M  V30 54594 O 6378.55 5.99158 4.88404 0
M  V30 54595 C 6379.49 6.60234 3.96415 0
M  V30 54596 C 6378.76 7.08259 2.72856 0
M  V30 54597 O 6378.55 5.9427 1.83651 0
M  V30 54598 C 6377.36 7.64886 2.9555 0
M  V30 54599 O 6376.97 8.53963 1.90717 0
M  V30 54600 C 6376.48 6.4116 2.90739 0
M  V30 54601 C 6377.19 5.55375 1.86963 0
M  V30 54602 N 6377.14 4.09448 2.16152 0
M  V30 54603 H 6379.98 7.45574 4.45629 0
M  V30 54604 H 6380.25 5.85864 3.679 0
M  V30 54605 H 6379.39 7.84412 2.24479 0
M  V30 54606 H 6376.73 5.73457 0.888562 0
M  V30 54607 H 6376.45 5.90877 3.88583 0
M  V30 54608 H 6375.46 6.6596 2.58858 0
M  V30 54609 H 6377.29 8.16339 3.92049 0
M  V30 54610 P 6375.42 8.7635 1.60911 0
M  V30 54611 O 6375.2 10.1388 1.11561 0
M  V30 54612 O 6374.63 8.36503 2.79617 0
M  V30 54613 O 6375.17 7.71806 0.42951 0
M  V30 54614 C 6376.11 7.67148 -0.673689 0
M  V30 54615 C 6375.38 7.33374 -1.95559 0
M  V30 54616 O 6375.17 5.88721 -2.00726 0
M  V30 54617 C 6373.98 7.92526 -2.10483 0
M  V30 54618 O 6373.59 8.02971 -3.47653 0
M  V30 54619 C 6373.1 6.89602 -1.41652 0
M  V30 54620 C 6373.81 5.59201 -1.75185 0
M  V30 54621 N 6373.76 4.58235 -0.662552 0
M  V30 54622 H 6376.6 8.65116 -0.777161 0
M  V30 54623 H 6376.87 6.90173 -0.474152 0
M  V30 54624 H 6376.01 7.66548 -2.79458 0
M  V30 54625 P 6372.04 8.03563 -3.84925 0
M  V30 54626 O 6371.82 8.85821 -5.0569 0
M  V30 54627 O 6371.25 8.41101 -2.65469 0
M  V30 54628 O 6371.79 6.4965 -4.18908 0
M  V30 54629 C 6372.73 5.80886 -5.05289 0
M  V30 54630 C 6372 4.78366 -5.89277 0
M  V30 54631 O 6371.79 3.58302 -5.08433 0
M  V30 54632 C 6370.6 5.16748 -6.36559 0
M  V30 54633 O 6370.21 4.45271 -7.53232 0
M  V30 54634 C 6369.72 4.74572 -5.19863 0
M  V30 54635 C 6370.43 3.49373 -4.70338 0
M  V30 54636 N 6370.38 3.31704 -3.22876 0
M  V30 54637 C 6370.23 2.03326 -2.74871 0
M  V30 54638 O 6370.14 1.06486 -3.48076 0
M  V30 54639 N 6370.19 1.91838 -1.37456 0
M  V30 54640 C 6370.28 2.94295 -0.462035 0
M  V30 54641 C 6370.43 4.25064 -1.05249 0
M  V30 54642 C 6370.48 4.40214 -2.39192 0
M  V30 54643 H 6373.22 6.54063 -5.71245 0
M  V30 54644 H 6373.49 5.30339 -4.43905 0
M  V30 54645 H 6372.63 4.55889 -6.76652 0
M  V30 54646 H 6369.97 2.6167 -5.17842 0
M  V30 54647 H 6369.69 5.52155 -4.41878 0
M  V30 54648 H 6368.7 4.51918 -5.53297 0
M  V30 54649 H 6370.53 6.25055 -6.55162 0
M  V30 54650 H 6370.6 5.39798 -2.81523 0
M  V30 54651 P 6368.66 4.23843 -7.83734 0
M  V30 54652 O 6368.44 4.19407 -9.29784 0
M  V30 54653 O 6367.87 5.24426 -7.09156 0
M  V30 54654 O 6368.41 2.7935 -7.20758 0
M  V30 54655 C 6369.35 1.72945 -7.50224 0
M  V30 54656 C 6368.62 0.406376 -7.57911 0
M  V30 54657 O 6368.41 -0.0897726 -6.21935 0
M  V30 54658 C 6367.22 0.438983 -8.18724 0
M  V30 54659 O 6366.83 -0.825065 -8.71101 0
M  V30 54660 C 6366.34 0.783689 -6.99524 0
M  V30 54661 C 6367.05 0.0619086 -5.85867 0
M  V30 54662 N 6367 0.78573 -4.56183 0
M  V30 54663 C 6366.85 0.0292889 -3.41887 0
M  V30 54664 O 6366.76 -1.18445 -3.4419 0
M  V30 54665 N 6366.81 0.744061 -2.23964 0
M  V30 54666 C 6366.9 2.10932 -2.10362 0
M  V30 54667 C 6367.05 2.8202 -3.34994 0
M  V30 54668 C 6367.1 2.15547 -4.52261 0
M  V30 54669 H 6369.84 1.93379 -8.46595 0
M  V30 54670 H 6370.11 1.68132 -6.70852 0
M  V30 54671 H 6369.25 -0.289041 -8.15388 0
M  V30 54672 H 6366.59 -0.926847 -5.72749 0
M  V30 54673 H 6366.31 1.86973 -6.82036 0
M  V30 54674 H 6365.32 0.403896 -7.13257 0
M  V30 54675 H 6367.15 1.20585 -8.97435 0
M  V30 54676 H 6367.22 2.71231 -5.45042 0
M  V30 54677 P 6365.28 -1.17771 -8.83182 0
M  V30 54678 O 6365.06 -2.07206 -9.98732 0
M  V30 54679 O 6364.49 0.0743816 -8.81969 0
M  V30 54680 O 6365.03 -1.97652 -7.47304 0
M  V30 54681 C 6365.97 -3.01133 -7.08783 0
M  V30 54682 C 6365.24 -4.12613 -6.37049 0
M  V30 54683 O 6365.03 -3.72827 -4.97879 0
M  V30 54684 C 6363.84 -4.45085 -6.88694 0
M  V30 54685 O 6363.45 -5.7877 -6.5624 0
M  V30 54686 C 6362.96 -3.47817 -6.12078 0
M  V30 54687 C 6363.67 -3.39414 -4.77697 0
M  V30 54688 N 6363.62 -2.04615 -4.15333 0
M  V30 54689 H 6366.46 -3.41248 -7.98759 0
M  V30 54690 H 6366.73 -2.5837 -6.41742 0
M  V30 54691 H 6365.87 -5.02657 -6.42673 0
M  V30 54692 P 6361.9 -6.144 -6.45285 0
M  V30 54693 O 6361.68 -7.54673 -6.86199 0
M  V30 54694 O 6361.11 -5.12391 -7.179 0
M  V30 54695 O 6361.65 -5.99158 -4.88404 0
M  V30 54696 C 6362.59 -6.60234 -3.96415 0
M  V30 54697 C 6361.86 -7.08259 -2.72856 0
M  V30 54698 O 6361.65 -5.9427 -1.83651 0
M  V30 54699 C 6360.46 -7.64886 -2.9555 0
M  V30 54700 O 6360.07 -8.53963 -1.90717 0
M  V30 54701 C 6359.58 -6.4116 -2.90739 0
M  V30 54702 C 6360.29 -5.55375 -1.86963 0
M  V30 54703 N 6360.24 -4.09664 -2.15742 0
M  V30 54704 H 6363.08 -7.45574 -4.45629 0
M  V30 54705 H 6363.35 -5.86232 -3.67314 0
M  V30 54706 H 6362.49 -7.84412 -2.24479 0
M  V30 54707 P 6358.52 -8.7635 -1.60911 0
M  V30 54708 O 6358.3 -10.1388 -1.11561 0
M  V30 54709 O 6357.73 -8.36503 -2.79617 0
M  V30 54710 O 6358.27 -7.71806 -0.42951 0
M  V30 54711 C 6359.21 -7.67148 0.673689 0
M  V30 54712 C 6358.48 -7.33374 1.95559 0
M  V30 54713 O 6358.27 -5.88721 2.00726 0
M  V30 54714 C 6357.08 -7.92526 2.10483 0
M  V30 54715 O 6356.69 -8.02971 3.47653 0
M  V30 54716 C 6356.2 -6.89602 1.41652 0
M  V30 54717 C 6356.91 -5.59201 1.75185 0
M  V30 54718 N 6356.86 -4.58235 0.662552 0
M  V30 54719 H 6359.7 -8.65116 0.777161 0
M  V30 54720 H 6359.97 -6.90173 0.474152 0
M  V30 54721 H 6359.11 -7.66548 2.79458 0
M  V30 54722 P 6355.14 -8.03563 3.84925 0
M  V30 54723 O 6354.92 -8.85821 5.0569 0
M  V30 54724 O 6354.35 -8.41101 2.65469 0
M  V30 54725 O 6354.89 -6.4965 4.18908 0
M  V30 54726 C 6355.83 -5.81037 5.05421 0
M  V30 54727 C 6355.1 -4.78366 5.89277 0
M  V30 54728 O 6354.89 -3.58302 5.08433 0
M  V30 54729 C 6353.7 -5.17448 6.36119 0
M  V30 54730 O 6353.31 -4.45271 7.53232 0
M  V30 54731 C 6352.82 -4.74639 5.19936 0
M  V30 54732 C 6353.53 -3.49432 4.70418 0
M  V30 54733 N 6353.48 -3.31776 3.22945 0
M  V30 54734 H 6356.32 -6.54213 5.71376 0
M  V30 54735 H 6356.59 -5.30492 4.44033 0
M  V30 54736 H 6355.73 -4.55889 6.76652 0
M  V30 54737 P 6351.76 -4.23843 7.83734 0
M  V30 54738 O 6351.54 -4.19407 9.29784 0
M  V30 54739 O 6350.97 -5.24426 7.09156 0
M  V30 54740 O 6351.51 -2.7935 7.20758 0
M  V30 54741 C 6352.45 -1.7299 7.50419 0
M  V30 54742 C 6351.72 -0.406376 7.57911 0
M  V30 54743 O 6351.51 0.0897726 6.21935 0
M  V30 54744 C 6350.32 -0.447224 8.1878 0
M  V30 54745 O 6349.93 0.825065 8.71101 0
M  V30 54746 C 6349.44 -0.783801 6.99623 0
M  V30 54747 C 6350.15 -0.0619192 5.85967 0
M  V30 54748 N 6350.1 -0.790462 4.56202 0
M  V30 54749 C 6350.18 -2.13895 4.34171 0
M  V30 54750 N 6350.11 -2.46449 3.08687 0
M  V30 54751 C 6349.96 -1.2525 2.43697 0
M  V30 54752 C 6349.83 -0.914535 1.07318 0
M  V30 54753 N 6349.82 -1.80782 0.0887348 0
M  V30 54754 N 6349.71 0.386745 0.768133 0
M  V30 54755 C 6349.72 1.28096 1.75159 0
M  V30 54756 N 6349.84 1.09708 3.04861 0
M  V30 54757 C 6349.96 -0.214857 3.32306 0
M  V30 54758 H 6352.94 -1.93423 8.4679 0
M  V30 54759 H 6353.21 -1.68852 6.70877 0
M  V30 54760 H 6352.35 0.289041 8.15388 0
M  V30 54761 H 6349.69 0.927006 5.72848 0
M  V30 54762 H 6349.41 -1.86973 6.82036 0
M  V30 54763 H 6348.42 -0.403953 7.13357 0
M  V30 54764 H 6350.25 -1.20599 8.97534 0
M  V30 54765 H 6350.29 -2.86846 5.14318 0
M  V30 54766 H 6349.91 -2.81082 0.302037 0
M  V30 54767 H 6349.72 -1.49688 -0.889064 0
M  V30 54768 H 6349.62 2.31317 1.43855 0
M  V30 54769 P 6348.38 1.17771 8.83182 0
M  V30 54770 O 6348.16 2.07206 9.98732 0
M  V30 54771 O 6347.59 -0.0743816 8.81969 0
M  V30 54772 O 6348.13 1.97652 7.47304 0
M  V30 54773 C 6349.07 3.01133 7.08783 0
M  V30 54774 C 6348.34 4.12613 6.37049 0
M  V30 54775 O 6348.13 3.72827 4.97879 0
M  V30 54776 C 6346.94 4.45085 6.88694 0
M  V30 54777 O 6346.55 5.7877 6.5624 0
M  V30 54778 C 6346.06 3.47817 6.12078 0
M  V30 54779 C 6346.77 3.39414 4.77697 0
M  V30 54780 N 6346.72 2.04615 4.15333 0
M  V30 54781 H 6349.56 3.41248 7.98759 0
M  V30 54782 H 6349.83 2.5837 6.41742 0
M  V30 54783 H 6348.97 5.02657 6.42673 0
M  V30 54784 P 6345 6.144 6.45285 0
M  V30 54785 O 6344.78 7.54673 6.86199 0
M  V30 54786 O 6344.21 5.12391 7.179 0
M  V30 54787 O 6344.75 5.99158 4.88404 0
M  V30 54788 C 6345.69 6.60234 3.96415 0
M  V30 54789 C 6344.96 7.08259 2.72856 0
M  V30 54790 O 6344.75 5.9427 1.83651 0
M  V30 54791 C 6343.56 7.64886 2.9555 0
M  V30 54792 O 6343.17 8.53963 1.90717 0
M  V30 54793 C 6342.68 6.4116 2.90739 0
M  V30 54794 C 6343.39 5.55375 1.86963 0
M  V30 54795 N 6343.34 4.09664 2.15742 0
M  V30 54796 H 6346.18 7.45574 4.45629 0
M  V30 54797 H 6346.45 5.86232 3.67314 0
M  V30 54798 H 6345.59 7.84412 2.24479 0
M  V30 54799 P 6341.62 8.7635 1.60911 0
M  V30 54800 O 6341.4 10.1388 1.11561 0
M  V30 54801 O 6340.83 8.36503 2.79617 0
M  V30 54802 O 6341.37 7.71806 0.42951 0
M  V30 54803 C 6342.31 7.67148 -0.673689 0
M  V30 54804 C 6341.58 7.33374 -1.95559 0
M  V30 54805 O 6341.37 5.88721 -2.00726 0
M  V30 54806 C 6340.18 7.92526 -2.10483 0
M  V30 54807 O 6339.79 8.02971 -3.47653 0
M  V30 54808 C 6339.3 6.89602 -1.41652 0
M  V30 54809 C 6340.01 5.59201 -1.75185 0
M  V30 54810 N 6339.96 4.58235 -0.662552 0
M  V30 54811 H 6342.8 8.65116 -0.777161 0
M  V30 54812 H 6343.07 6.90173 -0.474152 0
M  V30 54813 H 6342.21 7.66548 -2.79458 0
M  V30 54814 P 6338.24 8.03563 -3.84925 0
M  V30 54815 O 6338.02 8.85821 -5.0569 0
M  V30 54816 O 6337.45 8.41101 -2.65469 0
M  V30 54817 O 6337.99 6.4965 -4.18908 0
M  V30 54818 C 6338.93 5.81037 -5.05421 0
M  V30 54819 C 6338.2 4.78366 -5.89277 0
M  V30 54820 O 6337.99 3.58302 -5.08433 0
M  V30 54821 C 6336.8 5.17448 -6.36119 0
M  V30 54822 O 6336.41 4.45271 -7.53232 0
M  V30 54823 C 6335.92 4.74639 -5.19936 0
M  V30 54824 C 6336.63 3.49432 -4.70418 0
M  V30 54825 N 6336.58 3.32099 -3.22613 0
M  V30 54826 C 6336.66 4.28245 -2.25527 0
M  V30 54827 N 6336.59 3.80823 -1.04874 0
M  V30 54828 C 6336.44 2.44571 -1.23535 0
M  V30 54829 C 6336.31 1.37068 -0.330675 0
M  V30 54830 N 6336.3 1.51472 0.990824 0
M  V30 54831 N 6336.19 0.138614 -0.848756 0
M  V30 54832 C 6336.2 -0.00675923 -2.16999 0
M  V30 54833 N 6336.32 0.904372 -3.11122 0
M  V30 54834 C 6336.44 2.12707 -2.56212 0
M  V30 54835 H 6339.42 6.54213 -5.71376 0
M  V30 54836 H 6339.69 5.30936 -4.43503 0
M  V30 54837 H 6338.83 4.55889 -6.76652 0
M  V30 54838 H 6336.17 2.61715 -5.17932 0
M  V30 54839 H 6335.89 5.52155 -4.41878 0
M  V30 54840 H 6334.9 4.51981 -5.53374 0
M  V30 54841 H 6336.73 6.25124 -6.55234 0
M  V30 54842 H 6336.77 5.34372 -2.47488 0
M  V30 54843 H 6336.39 2.45153 1.4078 0
M  V30 54844 H 6336.2 0.688422 1.59911 0
M  V30 54845 H 6336.1 -1.02584 -2.52346 0
M  V30 54846 P 6334.86 4.23843 -7.83734 0
M  V30 54847 O 6334.64 4.19407 -9.29784 0
M  V30 54848 O 6334.07 5.24426 -7.09156 0
M  V30 54849 O 6334.61 2.7935 -7.20758 0
M  V30 54850 C 6335.55 1.7299 -7.50419 0
M  V30 54851 C 6334.82 0.406376 -7.57911 0
M  V30 54852 O 6334.61 -0.0897726 -6.21935 0
M  V30 54853 C 6333.42 0.447224 -8.1878 0
M  V30 54854 O 6333.03 -0.825065 -8.71101 0
M  V30 54855 C 6332.54 0.783801 -6.99623 0
M  V30 54856 C 6333.25 0.0619192 -5.85967 0
M  V30 54857 N 6333.2 0.7859 -4.56281 0
M  V30 54858 H 6336.04 1.93423 -8.4679 0
M  V30 54859 H 6336.31 1.68181 -6.71046 0
M  V30 54860 H 6335.45 -0.289041 -8.15388 0
M  V30 54861 P 6331.48 -1.17771 -8.83182 0
M  V30 54862 O 6331.26 -2.07206 -9.98732 0
M  V30 54863 O 6330.69 0.0743816 -8.81969 0
M  V30 54864 O 6331.23 -1.97652 -7.47304 0
M  V30 54865 C 6332.17 -3.01133 -7.08783 0
M  V30 54866 C 6331.44 -4.12613 -6.37049 0
M  V30 54867 O 6331.23 -3.72827 -4.97879 0
M  V30 54868 C 6330.04 -4.45085 -6.88694 0
M  V30 54869 O 6329.65 -5.7877 -6.5624 0
M  V30 54870 C 6329.16 -3.47817 -6.12078 0
M  V30 54871 C 6329.87 -3.39414 -4.77697 0
M  V30 54872 N 6329.82 -2.04615 -4.15333 0
M  V30 54873 H 6332.66 -3.41248 -7.98759 0
M  V30 54874 H 6332.93 -2.5837 -6.41742 0
M  V30 54875 H 6332.07 -5.02657 -6.42673 0
M  V30 54876 P 6328.1 -6.144 -6.45285 0
M  V30 54877 O 6327.88 -7.54673 -6.86199 0
M  V30 54878 O 6327.31 -5.12391 -7.179 0
M  V30 54879 O 6327.85 -5.99158 -4.88404 0
M  V30 54880 C 6328.79 -6.60234 -3.96415 0
M  V30 54881 C 6328.06 -7.08259 -2.72856 0
M  V30 54882 O 6327.85 -5.9427 -1.83651 0
M  V30 54883 C 6326.66 -7.64886 -2.9555 0
M  V30 54884 O 6326.27 -8.53963 -1.90717 0
M  V30 54885 C 6325.78 -6.4116 -2.90739 0
M  V30 54886 C 6326.49 -5.55375 -1.86963 0
M  V30 54887 N 6326.44 -4.09664 -2.15742 0
M  V30 54888 H 6329.28 -7.45574 -4.45629 0
M  V30 54889 H 6329.55 -5.86232 -3.67314 0
M  V30 54890 H 6328.69 -7.84412 -2.24479 0
M  V30 54891 P 6324.72 -8.7635 -1.60911 0
M  V30 54892 O 6324.5 -10.1388 -1.11561 0
M  V30 54893 O 6323.93 -8.36503 -2.79617 0
M  V30 54894 O 6324.47 -7.71806 -0.42951 0
M  V30 54895 C 6325.41 -7.67148 0.673689 0
M  V30 54896 C 6324.68 -7.33374 1.95559 0
M  V30 54897 O 6324.47 -5.88721 2.00726 0
M  V30 54898 C 6323.28 -7.92526 2.10483 0
M  V30 54899 O 6322.89 -8.02971 3.47653 0
M  V30 54900 C 6322.4 -6.89602 1.41652 0
M  V30 54901 C 6323.11 -5.59201 1.75185 0
M  V30 54902 N 6323.06 -4.58235 0.662552 0
M  V30 54903 H 6325.9 -8.65116 0.777161 0
M  V30 54904 H 6326.17 -6.90173 0.474152 0
M  V30 54905 H 6325.31 -7.66548 2.79458 0
M  V30 54906 P 6321.34 -8.03563 3.84925 0
M  V30 54907 O 6321.12 -8.85821 5.0569 0
M  V30 54908 O 6320.55 -8.41101 2.65469 0
M  V30 54909 O 6321.09 -6.4965 4.18908 0
M  V30 54910 C 6322.03 -5.81037 5.05421 0
M  V30 54911 C 6321.3 -4.78366 5.89277 0
M  V30 54912 O 6321.09 -3.58302 5.08433 0
M  V30 54913 C 6319.9 -5.17448 6.36119 0
M  V30 54914 O 6319.51 -4.45271 7.53232 0
M  V30 54915 C 6319.02 -4.74639 5.19936 0
M  V30 54916 C 6319.73 -3.49432 4.70418 0
M  V30 54917 N 6319.68 -3.31776 3.22945 0
M  V30 54918 H 6322.52 -6.54213 5.71376 0
M  V30 54919 H 6322.79 -5.30492 4.44033 0
M  V30 54920 H 6321.93 -4.55889 6.76652 0
M  V30 54921 P 6317.96 -4.23843 7.83734 0
M  V30 54922 O 6317.74 -4.19407 9.29784 0
M  V30 54923 O 6317.17 -5.24426 7.09156 0
M  V30 54924 O 6317.71 -2.79386 7.20852 0
M  V30 54925 C 6318.65 -1.7299 7.50419 0
M  V30 54926 C 6317.92 -0.41401 7.5797 0
M  V30 54927 O 6317.71 0.089787 6.22035 0
M  V30 54928 C 6316.52 -0.447224 8.1878 0
M  V30 54929 O 6316.13 0.825159 8.71201 0
M  V30 54930 C 6315.64 -0.783801 6.99623 0
M  V30 54931 C 6316.35 -0.0619192 5.85967 0
M  V30 54932 N 6316.3 -0.7859 4.56281 0
M  V30 54933 C 6316.15 -0.0359258 3.39981 0
M  V30 54934 O 6316.06 1.19723 3.49038 0
M  V30 54935 N 6316.1 -0.869151 2.14025 0
M  V30 54936 C 6316.2 -2.01207 2.14363 0
M  V30 54937 N 6316.15 -2.58978 0.954287 0
M  V30 54938 C 6316.35 -2.80817 3.32215 0
M  V30 54939 C 6316.4 -2.13785 4.50884 0
M  V30 54940 H 6319.14 -1.93401 8.46693 0
M  V30 54941 H 6319.41 -1.68181 6.71046 0
M  V30 54942 H 6318.55 0.289076 8.15488 0
M  V30 54943 H 6315.89 0.927166 5.72947 0
M  V30 54944 H 6315.61 -1.87 6.82132 0
M  V30 54945 H 6314.62 -0.404009 7.13457 0
M  V30 54946 H 6316.45 -1.20599 8.97534 0
M  V30 54947 H 6316.53 -2.70295 5.43162 0
M  V30 54948 H 6316.42 -3.89465 3.27406 0
M  V30 54949 H 6316.04 -2.01616 0.107046 0
M  V30 54950 H 6316.23 -3.61403 0.873101 0
M  V30 54951 P 6314.58 1.17771 8.83182 0
M  V30 54952 O 6314.36 2.07206 9.98732 0
M  V30 54953 O 6313.79 -0.0743816 8.81969 0
M  V30 54954 O 6314.33 1.97652 7.47304 0
M  V30 54955 C 6315.27 3.01133 7.08783 0
M  V30 54956 C 6314.54 4.12613 6.37049 0
M  V30 54957 O 6314.33 3.72827 4.97879 0
M  V30 54958 C 6313.14 4.45085 6.88694 0
M  V30 54959 O 6312.75 5.7877 6.5624 0
M  V30 54960 C 6312.26 3.47817 6.12078 0
M  V30 54961 C 6312.97 3.39414 4.77697 0
M  V30 54962 N 6312.92 2.04615 4.15333 0
M  V30 54963 H 6315.76 3.41248 7.98759 0
M  V30 54964 H 6316.03 2.5837 6.41742 0
M  V30 54965 H 6315.17 5.02657 6.42673 0
M  V30 54966 P 6311.2 6.144 6.45285 0
M  V30 54967 O 6310.98 7.54673 6.86199 0
M  V30 54968 O 6310.41 5.12391 7.179 0
M  V30 54969 O 6310.95 5.99158 4.88404 0
M  V30 54970 C 6311.89 6.60234 3.96415 0
M  V30 54971 C 6311.16 7.08259 2.72856 0
M  V30 54972 O 6310.95 5.9427 1.83651 0
M  V30 54973 C 6309.76 7.64886 2.9555 0
M  V30 54974 O 6309.37 8.53963 1.90717 0
M  V30 54975 C 6308.88 6.4116 2.90739 0
M  V30 54976 C 6309.59 5.55375 1.86963 0
M  V30 54977 N 6309.54 4.09664 2.15742 0
M  V30 54978 H 6312.38 7.45574 4.45629 0
M  V30 54979 H 6312.65 5.86232 3.67314 0
M  V30 54980 H 6311.79 7.84412 2.24479 0
M  V30 54981 P 6307.82 8.7635 1.60911 0
M  V30 54982 O 6307.6 10.1388 1.11561 0
M  V30 54983 O 6307.03 8.36503 2.79617 0
M  V30 54984 O 6307.57 7.71806 0.42951 0
M  V30 54985 C 6308.51 7.67148 -0.673689 0
M  V30 54986 C 6307.78 7.33374 -1.95559 0
M  V30 54987 O 6307.57 5.88721 -2.00726 0
M  V30 54988 C 6306.38 7.92526 -2.10483 0
M  V30 54989 O 6305.99 8.02971 -3.47653 0
M  V30 54990 C 6305.5 6.89602 -1.41652 0
M  V30 54991 C 6306.21 5.59201 -1.75185 0
M  V30 54992 N 6306.16 4.58235 -0.662552 0
M  V30 54993 H 6309 8.65116 -0.777161 0
M  V30 54994 H 6309.27 6.90173 -0.474152 0
M  V30 54995 H 6308.41 7.66548 -2.79458 0
M  V30 54996 P 6304.44 8.03563 -3.84925 0
M  V30 54997 O 6304.22 8.85821 -5.0569 0
M  V30 54998 O 6303.65 8.41101 -2.65469 0
M  V30 54999 O 6304.19 6.4965 -4.18908 0
M  V30 55000 C 6305.13 5.81037 -5.05421 0
M  V30 55001 C 6304.4 4.78366 -5.89277 0
M  V30 55002 O 6304.19 3.58302 -5.08433 0
M  V30 55003 C 6303 5.17448 -6.36119 0
M  V30 55004 O 6302.61 4.45271 -7.53232 0
M  V30 55005 C 6302.12 4.74639 -5.19936 0
M  V30 55006 C 6302.83 3.49432 -4.70418 0
M  V30 55007 N 6302.78 3.32099 -3.22613 0
M  V30 55008 C 6302.86 4.28245 -2.25527 0
M  V30 55009 N 6302.79 3.80823 -1.04874 0
M  V30 55010 C 6302.64 2.44571 -1.23535 0
M  V30 55011 C 6302.51 1.37068 -0.330675 0
M  V30 55012 N 6302.5 1.51472 0.990824 0
M  V30 55013 N 6302.39 0.138614 -0.848756 0
M  V30 55014 C 6302.4 -0.00675923 -2.16999 0
M  V30 55015 N 6302.52 0.904372 -3.11122 0
M  V30 55016 C 6302.64 2.12707 -2.56212 0
M  V30 55017 H 6305.62 6.54213 -5.71376 0
M  V30 55018 H 6305.89 5.30936 -4.43503 0
M  V30 55019 H 6305.03 4.55889 -6.76652 0
M  V30 55020 H 6302.37 2.61715 -5.17932 0
M  V30 55021 H 6302.09 5.52155 -4.41878 0
M  V30 55022 H 6301.1 4.51981 -5.53374 0
M  V30 55023 H 6302.93 6.25124 -6.55234 0
M  V30 55024 H 6302.97 5.34372 -2.47488 0
M  V30 55025 H 6302.59 2.45153 1.4078 0
M  V30 55026 H 6302.4 0.688422 1.59911 0
M  V30 55027 H 6302.3 -1.02584 -2.52346 0
M  V30 55028 P 6301.06 4.23843 -7.83734 0
M  V30 55029 O 6300.84 4.19407 -9.29784 0
M  V30 55030 O 6300.27 5.24426 -7.09156 0
M  V30 55031 O 6300.81 2.7935 -7.20758 0
M  V30 55032 C 6301.75 1.7299 -7.50419 0
M  V30 55033 C 6301.02 0.406376 -7.57911 0
M  V30 55034 O 6300.81 -0.0897726 -6.21935 0
M  V30 55035 C 6299.62 0.447224 -8.1878 0
M  V30 55036 O 6299.23 -0.825065 -8.71101 0
M  V30 55037 C 6298.74 0.783801 -6.99623 0
M  V30 55038 C 6299.45 0.0619192 -5.85967 0
M  V30 55039 N 6299.4 0.7859 -4.56281 0
M  V30 55040 H 6302.24 1.93423 -8.4679 0
M  V30 55041 H 6302.51 1.68181 -6.71046 0
M  V30 55042 H 6301.65 -0.289041 -8.15388 0
M  V30 55043 P 6297.68 -1.17771 -8.83182 0
M  V30 55044 O 6297.46 -2.07206 -9.98732 0
M  V30 55045 O 6296.89 0.0743816 -8.81969 0
M  V30 55046 O 6297.43 -1.97652 -7.47304 0
M  V30 55047 C 6298.37 -3.01133 -7.08783 0
M  V30 55048 C 6297.64 -4.12613 -6.37049 0
M  V30 55049 O 6297.43 -3.72827 -4.97879 0
M  V30 55050 C 6296.24 -4.45085 -6.88694 0
M  V30 55051 O 6295.85 -5.7877 -6.5624 0
M  V30 55052 C 6295.36 -3.47817 -6.12078 0
M  V30 55053 C 6296.07 -3.39414 -4.77697 0
M  V30 55054 N 6296.02 -2.04615 -4.15333 0
M  V30 55055 H 6298.86 -3.41248 -7.98759 0
M  V30 55056 H 6299.13 -2.5837 -6.41742 0
M  V30 55057 H 6298.27 -5.02657 -6.42673 0
M  V30 55058 P 6294.3 -6.144 -6.45285 0
M  V30 55059 O 6294.08 -7.54673 -6.86199 0
M  V30 55060 O 6293.51 -5.12391 -7.179 0
M  V30 55061 O 6294.05 -5.99158 -4.88404 0
M  V30 55062 C 6294.99 -6.60234 -3.96415 0
M  V30 55063 C 6294.26 -7.08259 -2.72856 0
M  V30 55064 O 6294.05 -5.9427 -1.83651 0
M  V30 55065 C 6292.86 -7.64886 -2.9555 0
M  V30 55066 O 6292.47 -8.53963 -1.90717 0
M  V30 55067 C 6291.98 -6.4116 -2.90739 0
M  V30 55068 C 6292.69 -5.55375 -1.86963 0
M  V30 55069 N 6292.64 -4.09664 -2.15742 0
M  V30 55070 H 6295.48 -7.45574 -4.45629 0
M  V30 55071 H 6295.75 -5.86232 -3.67314 0
M  V30 55072 H 6294.89 -7.84412 -2.24479 0
M  V30 55073 P 6290.92 -8.7635 -1.60911 0
M  V30 55074 O 6290.7 -10.1388 -1.11561 0
M  V30 55075 O 6290.13 -8.36503 -2.79617 0
M  V30 55076 O 6290.67 -7.71806 -0.42951 0
M  V30 55077 C 6291.61 -7.67148 0.673689 0
M  V30 55078 C 6290.88 -7.33374 1.95559 0
M  V30 55079 O 6290.67 -5.88721 2.00726 0
M  V30 55080 C 6289.48 -7.92526 2.10483 0
M  V30 55081 O 6289.09 -8.02971 3.47653 0
M  V30 55082 C 6288.6 -6.89602 1.41652 0
M  V30 55083 C 6289.31 -5.59201 1.75185 0
M  V30 55084 N 6289.26 -4.58301 0.657969 0
M  V30 55085 H 6292.1 -8.65116 0.777161 0
M  V30 55086 H 6292.37 -6.9022 0.46725 0
M  V30 55087 H 6291.51 -7.66548 2.79458 0
M  V30 55088 H 6288.85 -5.16165 2.65183 0
M  V30 55089 H 6288.57 -7.06433 0.329384 0
M  V30 55090 H 6287.58 -6.90926 1.82021 0
M  V30 55091 H 6289.41 -8.90873 1.62657 0
M  V30 55092 P 6287.54 -8.03563 3.84925 0
M  V30 55093 O 6287.32 -8.85821 5.0569 0
M  V30 55094 O 6286.75 -8.41101 2.65469 0
M  V30 55095 O 6287.29 -6.4965 4.18908 0
M  V30 55096 C 6288.23 -5.81037 5.05421 0
M  V30 55097 C 6287.5 -4.78366 5.89277 0
M  V30 55098 O 6287.29 -3.58302 5.08433 0
M  V30 55099 C 6286.1 -5.17448 6.36119 0
M  V30 55100 O 6285.71 -4.45271 7.53232 0
M  V30 55101 C 6285.22 -4.74639 5.19936 0
M  V30 55102 C 6285.93 -3.49432 4.70418 0
M  V30 55103 N 6285.88 -3.32099 3.22613 0
M  V30 55104 C 6285.96 -4.28245 2.25527 0
M  V30 55105 N 6285.89 -3.80823 1.04874 0
M  V30 55106 C 6285.74 -2.44571 1.23535 0
M  V30 55107 C 6285.61 -1.37068 0.330675 0
M  V30 55108 N 6285.6 -1.51472 -0.990824 0
M  V30 55109 N 6285.49 -0.138614 0.848756 0
M  V30 55110 C 6285.5 0.00675923 2.16999 0
M  V30 55111 N 6285.62 -0.904372 3.11122 0
M  V30 55112 C 6285.74 -2.12707 2.56212 0
M  V30 55113 H 6288.72 -6.54213 5.71376 0
M  V30 55114 H 6288.99 -5.30936 4.43503 0
M  V30 55115 H 6288.13 -4.55889 6.76652 0
M  V30 55116 H 6285.47 -2.61715 5.17932 0
M  V30 55117 H 6285.19 -5.52155 4.41878 0
M  V30 55118 H 6284.2 -4.51981 5.53374 0
M  V30 55119 H 6286.03 -6.25124 6.55234 0
M  V30 55120 H 6286.07 -5.34372 2.47488 0
M  V30 55121 H 6285.69 -2.45153 -1.4078 0
M  V30 55122 H 6285.5 -0.688422 -1.59911 0
M  V30 55123 H 6285.4 1.02584 2.52346 0
M  V30 55124 P 6284.16 -4.23843 7.83734 0
M  V30 55125 O 6283.94 -4.19407 9.29784 0
M  V30 55126 O 6283.37 -5.24426 7.09156 0
M  V30 55127 O 6283.91 -2.7935 7.20758 0
M  V30 55128 C 6284.85 -1.7299 7.50419 0
M  V30 55129 C 6284.12 -0.406376 7.57911 0
M  V30 55130 O 6283.91 0.0897726 6.21935 0
M  V30 55131 C 6282.72 -0.447224 8.1878 0
M  V30 55132 O 6282.33 0.825065 8.71101 0
M  V30 55133 C 6281.84 -0.783801 6.99623 0
M  V30 55134 C 6282.55 -0.0619192 5.85967 0
M  V30 55135 N 6282.5 -0.7859 4.56281 0
M  V30 55136 H 6285.34 -1.93423 8.4679 0
M  V30 55137 H 6285.61 -1.68181 6.71046 0
M  V30 55138 H 6284.75 0.289041 8.15388 0
M  V30 55139 P 6280.78 1.17771 8.83182 0
M  V30 55140 O 6280.56 2.07206 9.98732 0
M  V30 55141 O 6279.99 -0.0743816 8.81969 0
M  V30 55142 O 6280.53 1.97652 7.47304 0
M  V30 55143 C 6281.47 3.01133 7.08783 0
M  V30 55144 C 6280.74 4.12613 6.37049 0
M  V30 55145 O 6280.53 3.72827 4.97879 0
M  V30 55146 C 6279.34 4.45085 6.88694 0
M  V30 55147 O 6278.95 5.7877 6.5624 0
M  V30 55148 C 6278.46 3.47817 6.12078 0
M  V30 55149 C 6279.17 3.39414 4.77697 0
M  V30 55150 N 6279.12 2.04615 4.15333 0
M  V30 55151 H 6281.96 3.41248 7.98759 0
M  V30 55152 H 6282.23 2.5837 6.41742 0
M  V30 55153 H 6281.37 5.02657 6.42673 0
M  V30 55154 P 6277.4 6.144 6.45285 0
M  V30 55155 O 6277.18 7.54673 6.86199 0
M  V30 55156 O 6276.61 5.12391 7.179 0
M  V30 55157 O 6277.15 5.99158 4.88404 0
M  V30 55158 C 6278.09 6.60234 3.96415 0
M  V30 55159 C 6277.36 7.08259 2.72856 0
M  V30 55160 O 6277.15 5.9427 1.83651 0
M  V30 55161 C 6275.96 7.64886 2.9555 0
M  V30 55162 O 6275.57 8.53963 1.90717 0
M  V30 55163 C 6275.08 6.4116 2.90739 0
M  V30 55164 C 6275.79 5.55375 1.86963 0
M  V30 55165 N 6275.74 4.09664 2.15742 0
M  V30 55166 H 6278.58 7.45574 4.45629 0
M  V30 55167 H 6278.85 5.86232 3.67314 0
M  V30 55168 H 6277.99 7.84412 2.24479 0
M  V30 55169 P 6274.02 8.7635 1.60911 0
M  V30 55170 O 6273.8 10.1388 1.11561 0
M  V30 55171 O 6273.23 8.36503 2.79617 0
M  V30 55172 O 6273.77 7.71806 0.42951 0
M  V30 55173 C 6274.71 7.67148 -0.673689 0
M  V30 55174 C 6273.98 7.33374 -1.95559 0
M  V30 55175 O 6273.77 5.88721 -2.00726 0
M  V30 55176 C 6272.58 7.92526 -2.10483 0
M  V30 55177 O 6272.19 8.02971 -3.47653 0
M  V30 55178 C 6271.7 6.89602 -1.41652 0
M  V30 55179 C 6272.41 5.59201 -1.75185 0
M  V30 55180 N 6272.36 4.58235 -0.662552 0
M  V30 55181 H 6275.2 8.65116 -0.777161 0
M  V30 55182 H 6275.47 6.90173 -0.474152 0
M  V30 55183 H 6274.61 7.66548 -2.79458 0
M  V30 55184 P 6270.64 8.03563 -3.84925 0
M  V30 55185 O 6270.42 8.85821 -5.0569 0
M  V30 55186 O 6269.85 8.41101 -2.65469 0
M  V30 55187 O 6270.39 6.4965 -4.18908 0
M  V30 55188 C 6271.33 5.81037 -5.05421 0
M  V30 55189 C 6270.6 4.78366 -5.89277 0
M  V30 55190 O 6270.39 3.58302 -5.08433 0
M  V30 55191 C 6269.2 5.17448 -6.36119 0
M  V30 55192 O 6268.81 4.45271 -7.53232 0
M  V30 55193 C 6268.32 4.74639 -5.19936 0
M  V30 55194 C 6269.03 3.49432 -4.70418 0
M  V30 55195 N 6268.98 3.31776 -3.22945 0
M  V30 55196 H 6271.82 6.54213 -5.71376 0
M  V30 55197 H 6272.09 5.30492 -4.44033 0
M  V30 55198 H 6271.23 4.55889 -6.76652 0
M  V30 55199 P 6267.26 4.23843 -7.83734 0
M  V30 55200 O 6267.04 4.19407 -9.29784 0
M  V30 55201 O 6266.47 5.24426 -7.09156 0
M  V30 55202 O 6267.01 2.7935 -7.20758 0
M  V30 55203 C 6267.95 1.7299 -7.50419 0
M  V30 55204 C 6267.22 0.406376 -7.57911 0
M  V30 55205 O 6267.01 -0.0897726 -6.21935 0
M  V30 55206 C 6265.82 0.447224 -8.1878 0
M  V30 55207 O 6265.43 -0.825065 -8.71101 0
M  V30 55208 C 6264.94 0.783801 -6.99623 0
M  V30 55209 C 6265.65 0.0619192 -5.85967 0
M  V30 55210 N 6265.6 0.790462 -4.56202 0
M  V30 55211 H 6268.44 1.93423 -8.4679 0
M  V30 55212 H 6268.71 1.68852 -6.70877 0
M  V30 55213 H 6267.85 -0.289041 -8.15388 0
M  V30 55214 H 6265.19 -0.927006 -5.72848 0
M  V30 55215 H 6264.91 1.86973 -6.82036 0
M  V30 55216 H 6263.92 0.403953 -7.13357 0
M  V30 55217 H 6265.75 1.20599 -8.97534 0
M  V30 55218 P 6263.88 -1.17771 -8.83182 0
M  V30 55219 O 6263.66 -2.07206 -9.98732 0
M  V30 55220 O 6263.09 0.0743816 -8.81969 0
M  V30 55221 O 6263.63 -1.97652 -7.47304 0
M  V30 55222 C 6264.57 -3.01133 -7.08783 0
M  V30 55223 C 6263.84 -4.12613 -6.37049 0
M  V30 55224 O 6263.63 -3.72827 -4.97879 0
M  V30 55225 C 6262.44 -4.45085 -6.88694 0
M  V30 55226 O 6262.05 -5.7877 -6.5624 0
M  V30 55227 C 6261.56 -3.47817 -6.12078 0
M  V30 55228 C 6262.27 -3.39414 -4.77697 0
M  V30 55229 N 6262.22 -2.04199 -4.15538 0
M  V30 55230 H 6265.06 -3.41248 -7.98759 0
M  V30 55231 H 6265.33 -2.57728 -6.42 0
M  V30 55232 H 6264.47 -5.02657 -6.42673 0
M  V30 55233 H 6261.81 -4.11708 -4.08956 0
M  V30 55234 H 6261.53 -2.49626 -6.61679 0
M  V30 55235 H 6260.54 -3.8662 -6.00862 0
M  V30 55236 H 6262.37 -4.29991 -7.97006 0
M  V30 55237 P 6260.5 -6.144 -6.45285 0
M  V30 55238 O 6260.28 -7.54673 -6.86199 0
M  V30 55239 O 6259.71 -5.12391 -7.179 0
M  V30 55240 O 6260.25 -5.99236 -4.88467 0
M  V30 55241 C 6261.19 -6.60234 -3.96415 0
M  V30 55242 C 6260.46 -7.08079 -2.736 0
M  V30 55243 O 6260.25 -5.94365 -1.8368 0
M  V30 55244 C 6259.06 -7.64886 -2.9555 0
M  V30 55245 O 6258.67 -8.5406 -1.90739 0
M  V30 55246 C 6258.18 -6.4116 -2.90739 0
M  V30 55247 C 6258.89 -5.55375 -1.86963 0
M  V30 55248 N 6258.84 -4.09664 -2.15742 0
M  V30 55249 C 6258.69 -3.22231 -1.08477 0
M  V30 55250 O 6258.6 -3.68951 0.0600489 0
M  V30 55251 N 6258.64 -1.76692 -1.48799 0
M  V30 55252 C 6258.74 -1.41695 -2.57602 0
M  V30 55253 N 6258.69 -0.107296 -2.75791 0
M  V30 55254 C 6258.89 -2.29178 -3.69733 0
M  V30 55255 C 6258.94 -3.62753 -3.42653 0
M  V30 55256 H 6261.68 -7.45488 -4.45578 0
M  V30 55257 H 6261.95 -5.86232 -3.67314 0
M  V30 55258 H 6261.09 -7.84508 -2.24507 0
M  V30 55259 H 6258.43 -5.73556 -0.888715 0
M  V30 55260 H 6258.15 -5.9096 -3.88638 0
M  V30 55261 H 6257.16 -6.66053 -2.58894 0
M  V30 55262 H 6258.99 -8.16339 -3.92049 0
M  V30 55263 H 6259.07 -4.33052 -4.24913 0
M  V30 55264 H 6258.96 -1.9103 -4.71577 0
M  V30 55265 H 6258.58 0.521221 -1.95056 0
M  V30 55266 H 6258.77 0.286429 -3.70695 0
M  V30 55267 P 6257.12 -8.7635 -1.60911 0
M  V30 55268 O 6256.9 -10.1388 -1.11561 0
M  V30 55269 O 6256.33 -8.36503 -2.79617 0
M  V30 55270 O 6256.87 -7.71806 -0.42951 0
M  V30 55271 C 6257.81 -7.67148 0.673689 0
M  V30 55272 C 6257.08 -7.33374 1.95559 0
M  V30 55273 O 6256.87 -5.88721 2.00726 0
M  V30 55274 C 6255.68 -7.92526 2.10483 0
M  V30 55275 O 6255.29 -8.02971 3.47653 0
M  V30 55276 C 6254.8 -6.89602 1.41652 0
M  V30 55277 C 6255.51 -5.59201 1.75185 0
M  V30 55278 N 6255.46 -4.58235 0.662552 0
M  V30 55279 H 6258.3 -8.65116 0.777161 0
M  V30 55280 H 6258.57 -6.90173 0.474152 0
M  V30 55281 H 6257.71 -7.66548 2.79458 0
M  V30 55282 P 6253.74 -8.03563 3.84925 0
M  V30 55283 O 6253.52 -8.85821 5.0569 0
M  V30 55284 O 6252.95 -8.41101 2.65469 0
M  V30 55285 O 6253.49 -6.4965 4.18908 0
M  V30 55286 C 6254.43 -5.81037 5.05421 0
M  V30 55287 C 6253.7 -4.78366 5.89277 0
M  V30 55288 O 6253.49 -3.58302 5.08433 0
M  V30 55289 C 6252.3 -5.17448 6.36119 0
M  V30 55290 O 6251.91 -4.45271 7.53232 0
M  V30 55291 C 6251.42 -4.74639 5.19936 0
M  V30 55292 C 6252.13 -3.49432 4.70418 0
M  V30 55293 N 6252.08 -3.31776 3.22945 0
M  V30 55294 H 6254.92 -6.54213 5.71376 0
M  V30 55295 H 6255.19 -5.30492 4.44033 0
M  V30 55296 H 6254.33 -4.55889 6.76652 0
M  V30 55297 P 6250.36 -4.23843 7.83734 0
M  V30 55298 O 6250.14 -4.19407 9.29784 0
M  V30 55299 O 6249.57 -5.24426 7.09156 0
M  V30 55300 O 6250.11 -2.7935 7.20758 0
M  V30 55301 C 6251.05 -1.7299 7.50419 0
M  V30 55302 C 6250.32 -0.406376 7.57911 0
M  V30 55303 O 6250.11 0.0897726 6.21935 0
M  V30 55304 C 6248.92 -0.447224 8.1878 0
M  V30 55305 O 6248.53 0.825065 8.71101 0
M  V30 55306 C 6248.04 -0.783801 6.99623 0
M  V30 55307 C 6248.75 -0.0619192 5.85967 0
M  V30 55308 N 6248.7 -0.7859 4.56281 0
M  V30 55309 H 6251.54 -1.93423 8.4679 0
M  V30 55310 H 6251.81 -1.68181 6.71046 0
M  V30 55311 H 6250.95 0.289041 8.15388 0
M  V30 55312 P 6246.98 1.17771 8.83182 0
M  V30 55313 O 6246.76 2.07206 9.98732 0
M  V30 55314 O 6246.19 -0.0743816 8.81969 0
M  V30 55315 O 6246.73 1.97652 7.47304 0
M  V30 55316 C 6247.67 3.01133 7.08783 0
M  V30 55317 C 6246.94 4.12613 6.37049 0
M  V30 55318 O 6246.73 3.72827 4.97879 0
M  V30 55319 C 6245.54 4.45085 6.88694 0
M  V30 55320 O 6245.15 5.7877 6.5624 0
M  V30 55321 C 6244.66 3.47817 6.12078 0
M  V30 55322 C 6245.37 3.39414 4.77697 0
M  V30 55323 N 6245.32 2.04615 4.15333 0
M  V30 55324 H 6248.16 3.41248 7.98759 0
M  V30 55325 H 6248.43 2.5837 6.41742 0
M  V30 55326 H 6247.57 5.02657 6.42673 0
M  V30 55327 P 6243.6 6.144 6.45285 0
M  V30 55328 O 6243.38 7.54673 6.86199 0
M  V30 55329 O 6242.81 5.12391 7.179 0
M  V30 55330 O 6243.35 5.99158 4.88404 0
M  V30 55331 C 6244.29 6.60234 3.96415 0
M  V30 55332 C 6243.56 7.08259 2.72856 0
M  V30 55333 O 6243.35 5.9427 1.83651 0
M  V30 55334 C 6242.16 7.64886 2.9555 0
M  V30 55335 O 6241.77 8.53963 1.90717 0
M  V30 55336 C 6241.28 6.4116 2.90739 0
M  V30 55337 C 6241.99 5.55375 1.86963 0
M  V30 55338 N 6241.94 4.09664 2.15742 0
M  V30 55339 H 6244.78 7.45574 4.45629 0
M  V30 55340 H 6245.05 5.86232 3.67314 0
M  V30 55341 H 6244.19 7.84412 2.24479 0
M  V30 55342 P 6240.22 8.7635 1.60911 0
M  V30 55343 O 6240 10.1388 1.11561 0
M  V30 55344 O 6239.43 8.36503 2.79617 0
M  V30 55345 O 6239.97 7.71806 0.42951 0
M  V30 55346 C 6240.91 7.67148 -0.673689 0
M  V30 55347 C 6240.18 7.33374 -1.95559 0
M  V30 55348 O 6239.97 5.88721 -2.00726 0
M  V30 55349 C 6238.78 7.92526 -2.10483 0
M  V30 55350 O 6238.39 8.02971 -3.47653 0
M  V30 55351 C 6237.9 6.89602 -1.41652 0
M  V30 55352 C 6238.61 5.59201 -1.75185 0
M  V30 55353 N 6238.56 4.58235 -0.662552 0
M  V30 55354 H 6241.4 8.65116 -0.777161 0
M  V30 55355 H 6241.67 6.90173 -0.474152 0
M  V30 55356 H 6240.81 7.66548 -2.79458 0
M  V30 55357 P 6236.84 8.03563 -3.84925 0
M  V30 55358 O 6236.62 8.85821 -5.0569 0
M  V30 55359 O 6236.05 8.41101 -2.65469 0
M  V30 55360 O 6236.59 6.4965 -4.18908 0
M  V30 55361 C 6237.53 5.81037 -5.05421 0
M  V30 55362 C 6236.8 4.78366 -5.89277 0
M  V30 55363 O 6236.59 3.58302 -5.08433 0
M  V30 55364 C 6235.4 5.17448 -6.36119 0
M  V30 55365 O 6235.01 4.45271 -7.53232 0
M  V30 55366 C 6234.52 4.74639 -5.19936 0
M  V30 55367 C 6235.23 3.49432 -4.70418 0
M  V30 55368 N 6235.18 3.32099 -3.22613 0
M  V30 55369 H 6238.02 6.54213 -5.71376 0
M  V30 55370 H 6238.29 5.30936 -4.43503 0
M  V30 55371 H 6237.43 4.55889 -6.76652 0
M  V30 55372 H 6234.77 2.61715 -5.17932 0
M  V30 55373 H 6234.49 5.52155 -4.41878 0
M  V30 55374 H 6233.5 4.51981 -5.53374 0
M  V30 55375 H 6235.33 6.25124 -6.55234 0
M  V30 55376 P 6233.46 4.23843 -7.83734 0
M  V30 55377 O 6233.24 4.19407 -9.29784 0
M  V30 55378 O 6232.67 5.24426 -7.09156 0
M  V30 55379 O 6233.21 2.7935 -7.20758 0
M  V30 55380 C 6234.15 1.7299 -7.50419 0
M  V30 55381 C 6233.42 0.406376 -7.57911 0
M  V30 55382 O 6233.21 -0.0897726 -6.21935 0
M  V30 55383 C 6232.02 0.447224 -8.1878 0
M  V30 55384 O 6231.63 -0.825065 -8.71101 0
M  V30 55385 C 6231.14 0.783801 -6.99623 0
M  V30 55386 C 6231.85 0.0619192 -5.85967 0
M  V30 55387 N 6231.8 0.7859 -4.56281 0
M  V30 55388 H 6234.64 1.93423 -8.4679 0
M  V30 55389 H 6234.91 1.68181 -6.71046 0
M  V30 55390 H 6234.05 -0.289041 -8.15388 0
M  V30 55391 P 6230.08 -1.17771 -8.83182 0
M  V30 55392 O 6229.86 -2.07206 -9.98732 0
M  V30 55393 O 6229.29 0.0743816 -8.81969 0
M  V30 55394 O 6229.83 -1.97678 -7.474 0
M  V30 55395 C 6230.77 -3.01133 -7.08783 0
M  V30 55396 C 6230.04 -4.1203 -6.37546 0
M  V30 55397 O 6229.83 -3.72887 -4.9796 0
M  V30 55398 C 6228.64 -4.45085 -6.88694 0
M  V30 55399 O 6228.25 -5.78836 -6.56315 0
M  V30 55400 C 6227.76 -3.47817 -6.12078 0
M  V30 55401 C 6228.47 -3.39414 -4.77697 0
M  V30 55402 N 6228.42 -2.04615 -4.15333 0
M  V30 55403 C 6228.27 -1.96929 -2.77162 0
M  V30 55404 O 6228.18 -3.02017 -2.12006 0
M  V30 55405 N 6228.22 -0.55485 -2.24237 0
M  V30 55406 C 6228.32 0.367808 -2.9169 0
M  V30 55407 N 6228.27 1.53426 -2.29427 0
M  V30 55408 C 6228.47 0.319148 -4.33828 0
M  V30 55409 C 6228.52 -0.920672 -4.90433 0
M  V30 55410 H 6231.26 -3.41209 -7.98667 0
M  V30 55411 H 6231.53 -2.5837 -6.41742 0
M  V30 55412 H 6230.67 -5.02718 -6.42752 0
M  V30 55413 H 6228.01 -4.11779 -4.09026 0
M  V30 55414 H 6227.73 -2.49661 -6.61772 0
M  V30 55415 H 6226.74 -3.86674 -6.00946 0
M  V30 55416 H 6228.57 -4.29991 -7.97006 0
M  V30 55417 H 6228.65 -1.00589 -5.98303 0
M  V30 55418 H 6228.54 1.22639 -4.93799 0
M  V30 55419 H 6228.16 1.56819 -1.27167 0
M  V30 55420 H 6228.35 2.41062 -2.83063 0
M  V30 55421 P 6226.7 -6.144 -6.45285 0
M  V30 55422 O 6226.48 -7.54673 -6.86199 0
M  V30 55423 O 6225.91 -5.12391 -7.179 0
M  V30 55424 O 6226.45 -5.99158 -4.88404 0
M  V30 55425 C 6227.39 -6.60234 -3.96415 0
M  V30 55426 C 6226.66 -7.08259 -2.72856 0
M  V30 55427 O 6226.45 -5.9427 -1.83651 0
M  V30 55428 C 6225.26 -7.64886 -2.9555 0
M  V30 55429 O 6224.87 -8.53963 -1.90717 0
M  V30 55430 C 6224.38 -6.4116 -2.90739 0
M  V30 55431 C 6225.09 -5.55375 -1.86963 0
M  V30 55432 N 6225.04 -4.09448 -2.16152 0
M  V30 55433 H 6227.88 -7.45574 -4.45629 0
M  V30 55434 H 6228.15 -5.85864 -3.679 0
M  V30 55435 H 6227.29 -7.84412 -2.24479 0
M  V30 55436 H 6224.63 -5.73457 -0.888562 0
M  V30 55437 H 6224.35 -5.90877 -3.88583 0
M  V30 55438 H 6223.36 -6.6596 -2.58858 0
M  V30 55439 H 6225.19 -8.16339 -3.92049 0
M  V30 55440 P 6223.32 -8.7635 -1.60911 0
M  V30 55441 O 6223.1 -10.1388 -1.11561 0
M  V30 55442 O 6222.53 -8.36503 -2.79617 0
M  V30 55443 O 6223.07 -7.71806 -0.42951 0
M  V30 55444 C 6224.01 -7.67148 0.673689 0
M  V30 55445 C 6223.28 -7.33374 1.95559 0
M  V30 55446 O 6223.07 -5.88721 2.00726 0
M  V30 55447 C 6221.88 -7.92526 2.10483 0
M  V30 55448 O 6221.49 -8.02971 3.47653 0
M  V30 55449 C 6221 -6.89602 1.41652 0
M  V30 55450 C 6221.71 -5.59201 1.75185 0
M  V30 55451 N 6221.66 -4.58235 0.662552 0
M  V30 55452 C 6221.74 -4.7683 -0.704049 0
M  V30 55453 N 6221.66 -3.66233 -1.39775 0
M  V30 55454 C 6221.52 -2.66526 -0.431739 0
M  V30 55455 C 6221.39 -1.26394 -0.575992 0
M  V30 55456 N 6221.27 -0.62859 0.67177 0
M  V30 55457 C 6221.27 -1.27134 1.89385 0
M  V30 55458 N 6221.14 -0.492035 2.96951 0
M  V30 55459 N 6221.4 -2.58978 2.02907 0
M  V30 55460 C 6221.52 -3.22433 0.832218 0
M  V30 55461 H 6224.5 -8.65116 0.777161 0
M  V30 55462 H 6224.77 -6.90173 0.474152 0
M  V30 55463 H 6223.91 -7.66548 2.79458 0
M  V30 55464 P 6219.94 -8.03563 3.84925 0
M  V30 55465 O 6219.72 -8.85821 5.0569 0
M  V30 55466 O 6219.15 -8.41101 2.65469 0
M  V30 55467 O 6219.69 -6.4965 4.18908 0
M  V30 55468 C 6220.63 -5.81037 5.05421 0
M  V30 55469 C 6219.9 -4.78366 5.89277 0
M  V30 55470 O 6219.69 -3.58302 5.08433 0
M  V30 55471 C 6218.5 -5.17448 6.36119 0
M  V30 55472 O 6218.11 -4.45271 7.53232 0
M  V30 55473 C 6217.62 -4.74639 5.19936 0
M  V30 55474 C 6218.33 -3.49432 4.70418 0
M  V30 55475 N 6218.28 -3.31776 3.22945 0
M  V30 55476 H 6221.12 -6.54213 5.71376 0
M  V30 55477 H 6221.39 -5.30492 4.44033 0
M  V30 55478 H 6220.53 -4.55889 6.76652 0
M  V30 55479 P 6216.56 -4.23843 7.83734 0
M  V30 55480 O 6216.34 -4.19407 9.29784 0
M  V30 55481 O 6215.77 -5.24426 7.09156 0
M  V30 55482 O 6216.31 -2.79386 7.20852 0
M  V30 55483 C 6217.25 -1.7299 7.50419 0
M  V30 55484 C 6216.52 -0.41401 7.5797 0
M  V30 55485 O 6216.31 0.089787 6.22035 0
M  V30 55486 C 6215.12 -0.447224 8.1878 0
M  V30 55487 O 6214.73 0.825159 8.71201 0
M  V30 55488 C 6214.24 -0.783801 6.99623 0
M  V30 55489 C 6214.95 -0.0619192 5.85967 0
M  V30 55490 N 6214.9 -0.7859 4.56281 0
M  V30 55491 C 6214.75 -0.0359258 3.39981 0
M  V30 55492 O 6214.66 1.19723 3.49038 0
M  V30 55493 N 6214.7 -0.869151 2.14025 0
M  V30 55494 C 6214.8 -2.01207 2.14363 0
M  V30 55495 N 6214.75 -2.58978 0.954287 0
M  V30 55496 C 6214.95 -2.80817 3.32215 0
M  V30 55497 C 6215 -2.13785 4.50884 0
M  V30 55498 H 6217.74 -1.93401 8.46693 0
M  V30 55499 H 6218.01 -1.68181 6.71046 0
M  V30 55500 H 6217.15 0.289076 8.15488 0
M  V30 55501 H 6214.49 0.927166 5.72947 0
M  V30 55502 H 6214.21 -1.87 6.82132 0
M  V30 55503 H 6213.22 -0.404009 7.13457 0
M  V30 55504 H 6215.05 -1.20599 8.97534 0
M  V30 55505 H 6215.13 -2.70295 5.43162 0
M  V30 55506 H 6215.02 -3.89465 3.27406 0
M  V30 55507 H 6214.64 -2.01616 0.107046 0
M  V30 55508 H 6214.83 -3.61403 0.873101 0
M  V30 55509 P 6213.18 1.17771 8.83182 0
M  V30 55510 O 6212.96 2.07206 9.98732 0
M  V30 55511 O 6212.39 -0.0743816 8.81969 0
M  V30 55512 O 6212.93 1.97652 7.47304 0
M  V30 55513 C 6213.87 3.01133 7.08783 0
M  V30 55514 C 6213.14 4.12613 6.37049 0
M  V30 55515 O 6212.93 3.72827 4.97879 0
M  V30 55516 C 6211.74 4.45085 6.88694 0
M  V30 55517 O 6211.35 5.7877 6.5624 0
M  V30 55518 C 6210.86 3.47817 6.12078 0
M  V30 55519 C 6211.57 3.39414 4.77697 0
M  V30 55520 N 6211.52 2.04615 4.15333 0
M  V30 55521 H 6214.36 3.41248 7.98759 0
M  V30 55522 H 6214.63 2.5837 6.41742 0
M  V30 55523 H 6213.77 5.02657 6.42673 0
M  V30 55524 P 6209.8 6.144 6.45285 0
M  V30 55525 O 6209.58 7.54673 6.86199 0
M  V30 55526 O 6209.01 5.12391 7.179 0
M  V30 55527 O 6209.55 5.99236 4.88467 0
M  V30 55528 C 6210.49 6.60234 3.96415 0
M  V30 55529 C 6209.76 7.08079 2.736 0
M  V30 55530 O 6209.55 5.94365 1.8368 0
M  V30 55531 C 6208.36 7.64886 2.9555 0
M  V30 55532 O 6207.97 8.5406 1.90739 0
M  V30 55533 C 6207.48 6.4116 2.90739 0
M  V30 55534 C 6208.19 5.55375 1.86963 0
M  V30 55535 N 6208.14 4.09664 2.15742 0
M  V30 55536 C 6207.99 3.22231 1.08477 0
M  V30 55537 O 6207.9 3.68951 -0.0600489 0
M  V30 55538 N 6207.94 1.76692 1.48799 0
M  V30 55539 C 6208.04 1.41695 2.57602 0
M  V30 55540 N 6207.99 0.107296 2.75791 0
M  V30 55541 C 6208.19 2.29178 3.69733 0
M  V30 55542 C 6208.24 3.62753 3.42653 0
M  V30 55543 H 6210.98 7.45488 4.45578 0
M  V30 55544 H 6211.25 5.86232 3.67314 0
M  V30 55545 H 6210.39 7.84508 2.24507 0
M  V30 55546 H 6207.73 5.73556 0.888715 0
M  V30 55547 H 6207.45 5.9096 3.88638 0
M  V30 55548 H 6206.46 6.66053 2.58894 0
M  V30 55549 H 6208.29 8.16339 3.92049 0
M  V30 55550 H 6208.37 4.33052 4.24913 0
M  V30 55551 H 6208.26 1.9103 4.71577 0
M  V30 55552 H 6207.88 -0.521221 1.95056 0
M  V30 55553 H 6208.07 -0.286429 3.70695 0
M  V30 55554 P 6206.42 8.7635 1.60911 0
M  V30 55555 O 6206.2 10.1388 1.11561 0
M  V30 55556 O 6205.63 8.36503 2.79617 0
M  V30 55557 O 6206.17 7.71806 0.42951 0
M  V30 55558 C 6207.11 7.67148 -0.673689 0
M  V30 55559 C 6206.38 7.33374 -1.95559 0
M  V30 55560 O 6206.17 5.88721 -2.00726 0
M  V30 55561 C 6204.98 7.92526 -2.10483 0
M  V30 55562 O 6204.59 8.02971 -3.47653 0
M  V30 55563 C 6204.1 6.89602 -1.41652 0
M  V30 55564 C 6204.81 5.59201 -1.75185 0
M  V30 55565 N 6204.76 4.58235 -0.662552 0
M  V30 55566 H 6207.6 8.65116 -0.777161 0
M  V30 55567 H 6207.87 6.90173 -0.474152 0
M  V30 55568 H 6207.01 7.66548 -2.79458 0
M  V30 55569 P 6203.04 8.03563 -3.84925 0
M  V30 55570 O 6202.82 8.85821 -5.0569 0
M  V30 55571 O 6202.25 8.41101 -2.65469 0
M  V30 55572 O 6202.79 6.4965 -4.18908 0
M  V30 55573 C 6203.73 5.81037 -5.05421 0
M  V30 55574 C 6203 4.78366 -5.89277 0
M  V30 55575 O 6202.79 3.58302 -5.08433 0
M  V30 55576 C 6201.6 5.17448 -6.36119 0
M  V30 55577 O 6201.21 4.45271 -7.53232 0
M  V30 55578 C 6200.72 4.74639 -5.19936 0
M  V30 55579 C 6201.43 3.49432 -4.70418 0
M  V30 55580 N 6201.38 3.31776 -3.22945 0
M  V30 55581 H 6204.22 6.54213 -5.71376 0
M  V30 55582 H 6204.49 5.30492 -4.44033 0
M  V30 55583 H 6203.63 4.55889 -6.76652 0
M  V30 55584 P 6199.66 4.23843 -7.83734 0
M  V30 55585 O 6199.44 4.19407 -9.29784 0
M  V30 55586 O 6198.87 5.24426 -7.09156 0
M  V30 55587 O 6199.41 2.7935 -7.20758 0
M  V30 55588 C 6200.35 1.7299 -7.50419 0
M  V30 55589 C 6199.62 0.406376 -7.57911 0
M  V30 55590 O 6199.41 -0.0897726 -6.21935 0
M  V30 55591 C 6198.22 0.447224 -8.1878 0
M  V30 55592 O 6197.83 -0.825065 -8.71101 0
M  V30 55593 C 6197.34 0.783801 -6.99623 0
M  V30 55594 C 6198.05 0.0619192 -5.85967 0
M  V30 55595 N 6198 0.7859 -4.56281 0
M  V30 55596 H 6200.84 1.93423 -8.4679 0
M  V30 55597 H 6201.11 1.68181 -6.71046 0
M  V30 55598 H 6200.25 -0.289041 -8.15388 0
M  V30 55599 P 6196.28 -1.17771 -8.83182 0
M  V30 55600 O 6196.06 -2.07206 -9.98732 0
M  V30 55601 O 6195.49 0.0743816 -8.81969 0
M  V30 55602 O 6196.03 -1.97652 -7.47304 0
M  V30 55603 C 6196.97 -3.01055 -7.08599 0
M  V30 55604 C 6196.24 -4.12613 -6.37049 0
M  V30 55605 O 6196.03 -3.72827 -4.97879 0
M  V30 55606 C 6194.84 -4.45719 -6.88164 0
M  V30 55607 O 6194.45 -5.7877 -6.5624 0
M  V30 55608 C 6193.96 -3.47768 -6.11991 0
M  V30 55609 C 6194.67 -3.39356 -4.77615 0
M  V30 55610 N 6194.62 -2.04571 -4.15244 0
M  V30 55611 C 6194.47 -1.98587 -2.78314 0
M  V30 55612 O 6194.38 -2.98134 -2.08835 0
M  V30 55613 N 6194.43 -0.714467 -2.24925 0
M  V30 55614 C 6194.52 0.470001 -2.94169 0
M  V30 55615 O 6194.47 1.55587 -2.35195 0
M  V30 55616 C 6194.67 0.312541 -4.36783 0
M  V30 55617 C 6194.78 1.57711 -5.16352 0
M  V30 55618 C 6194.72 -0.914512 -4.92583 0
M  V30 55619 H 6197.46 -3.41169 -7.98575 0
M  V30 55620 H 6197.73 -2.58295 -6.41556 0
M  V30 55621 H 6196.87 -5.02657 -6.42673 0
M  V30 55622 H 6194.21 -4.11637 -4.08885 0
M  V30 55623 H 6193.93 -2.49626 -6.61679 0
M  V30 55624 H 6192.94 -3.86566 -6.00778 0
M  V30 55625 H 6194.77 -4.29943 -7.96918 0
M  V30 55626 H 6194.85 -1.00937 -6.00374 0
M  V30 55627 H 6193.82 1.80153 -5.63503 0
M  V30 55628 H 6195.55 1.4566 -5.94104 0
M  V30 55629 H 6195.06 2.40664 -4.49645 0
M  V30 55630 H 6194.33 -0.647622 -1.25697 0
M  V30 55631 P 6192.9 -6.144 -6.45285 0
M  V30 55632 O 6192.68 -7.54673 -6.86199 0
M  V30 55633 O 6192.11 -5.12391 -7.179 0
M  V30 55634 O 6192.65 -5.99158 -4.88404 0
M  V30 55635 C 6193.59 -6.60062 -3.96313 0
M  V30 55636 C 6192.86 -7.08259 -2.72856 0
M  V30 55637 O 6192.65 -5.9427 -1.83651 0
M  V30 55638 C 6191.46 -7.65087 -2.94749 0
M  V30 55639 O 6191.07 -8.53963 -1.90717 0
M  V30 55640 C 6190.58 -6.41069 -2.90698 0
M  V30 55641 C 6191.29 -5.5528 -1.86931 0
M  V30 55642 N 6191.24 -4.09575 -2.15696 0
M  V30 55643 C 6191.09 -3.24249 -1.08435 0
M  V30 55644 O 6191 -3.63946 0.0628747 0
M  V30 55645 N 6191.05 -1.90009 -1.39973 0
M  V30 55646 C 6191.14 -1.34884 -2.65614 0
M  V30 55647 O 6191.09 -0.123716 -2.81728 0
M  V30 55648 C 6191.29 -2.3145 -3.71736 0
M  V30 55649 C 6191.4 -1.75913 -5.10438 0
M  V30 55650 C 6191.34 -3.63518 -3.44754 0
M  V30 55651 H 6194.08 -7.45402 -4.45526 0
M  V30 55652 H 6194.35 -5.86062 -3.67208 0
M  V30 55653 H 6193.49 -7.84412 -2.24479 0
M  V30 55654 H 6190.83 -5.73358 -0.888409 0
M  V30 55655 H 6190.55 -5.90877 -3.88583 0
M  V30 55656 H 6189.56 -6.65867 -2.58821 0
M  V30 55657 H 6191.39 -8.16248 -3.92006 0
M  V30 55658 H 6191.47 -4.34551 -4.26383 0
M  V30 55659 H 6190.44 -1.85471 -5.61775 0
M  V30 55660 H 6192.17 -2.31364 -5.66257 0
M  V30 55661 H 6191.68 -0.695936 -5.05229 0
M  V30 55662 H 6190.95 -1.26277 -0.63625 0
M  V30 55663 P 6189.52 -8.7635 -1.60911 0
M  V30 55664 O 6189.3 -10.1388 -1.11561 0
M  V30 55665 O 6188.73 -8.36503 -2.79617 0
M  V30 55666 O 6189.27 -7.71806 -0.42951 0
M  V30 55667 C 6190.21 -7.67148 0.673689 0
M  V30 55668 C 6189.48 -7.33374 1.95559 0
M  V30 55669 O 6189.27 -5.88721 2.00726 0
M  V30 55670 C 6188.08 -7.92526 2.10483 0
M  V30 55671 O 6187.69 -8.02971 3.47653 0
M  V30 55672 C 6187.2 -6.89602 1.41652 0
M  V30 55673 C 6187.91 -5.59201 1.75185 0
M  V30 55674 N 6187.86 -4.58235 0.662552 0
M  V30 55675 H 6190.7 -8.65116 0.777161 0
M  V30 55676 H 6190.97 -6.90173 0.474152 0
M  V30 55677 H 6190.11 -7.66548 2.79458 0
M  V30 55678 P 6186.14 -8.03563 3.84925 0
M  V30 55679 O 6185.92 -8.85821 5.0569 0
M  V30 55680 O 6185.35 -8.41101 2.65469 0
M  V30 55681 O 6185.89 -6.4965 4.18908 0
M  V30 55682 C 6186.83 -5.81037 5.05421 0
M  V30 55683 C 6186.1 -4.78366 5.89277 0
M  V30 55684 O 6185.89 -3.58302 5.08433 0
M  V30 55685 C 6184.7 -5.17448 6.36119 0
M  V30 55686 O 6184.31 -4.45271 7.53232 0
M  V30 55687 C 6183.82 -4.74639 5.19936 0
M  V30 55688 C 6184.53 -3.49432 4.70418 0
M  V30 55689 N 6184.48 -3.31776 3.22945 0
M  V30 55690 H 6187.32 -6.54213 5.71376 0
M  V30 55691 H 6187.59 -5.30492 4.44033 0
M  V30 55692 H 6186.73 -4.55889 6.76652 0
M  V30 55693 P 6182.76 -4.23843 7.83734 0
M  V30 55694 O 6182.54 -4.19407 9.29784 0
M  V30 55695 O 6181.97 -5.24426 7.09156 0
M  V30 55696 O 6182.51 -2.7935 7.20758 0
M  V30 55697 C 6183.45 -1.72945 7.50224 0
M  V30 55698 C 6182.72 -0.406376 7.57911 0
M  V30 55699 O 6182.51 0.0897726 6.21935 0
M  V30 55700 C 6181.32 -0.438983 8.18724 0
M  V30 55701 O 6180.93 0.825065 8.71101 0
M  V30 55702 C 6180.44 -0.783689 6.99524 0
M  V30 55703 C 6181.15 -0.0619086 5.85867 0
M  V30 55704 N 6181.1 -0.78573 4.56183 0
M  V30 55705 C 6180.95 -0.0292889 3.41887 0
M  V30 55706 O 6180.86 1.18445 3.4419 0
M  V30 55707 N 6180.91 -0.744061 2.23964 0
M  V30 55708 C 6181 -2.10932 2.10362 0
M  V30 55709 C 6181.15 -2.8202 3.34994 0
M  V30 55710 C 6181.2 -2.15547 4.52261 0
M  V30 55711 H 6183.94 -1.93379 8.46595 0
M  V30 55712 H 6184.21 -1.68132 6.70852 0
M  V30 55713 H 6183.35 0.289041 8.15388 0
M  V30 55714 H 6180.69 0.926847 5.72749 0
M  V30 55715 H 6180.41 -1.86973 6.82036 0
M  V30 55716 H 6179.42 -0.403896 7.13257 0
M  V30 55717 H 6181.25 -1.20585 8.97435 0
M  V30 55718 H 6181.33 -2.71231 5.45042 0
M  V30 55719 P 6179.38 1.17771 8.83182 0
M  V30 55720 O 6179.16 2.07206 9.98732 0
M  V30 55721 O 6178.59 -0.0743816 8.81969 0
M  V30 55722 O 6179.13 1.97652 7.47304 0
M  V30 55723 C 6180.07 3.01133 7.08783 0
M  V30 55724 C 6179.34 4.12613 6.37049 0
M  V30 55725 O 6179.13 3.72827 4.97879 0
M  V30 55726 C 6177.94 4.45085 6.88694 0
M  V30 55727 O 6177.55 5.7877 6.5624 0
M  V30 55728 C 6177.06 3.47817 6.12078 0
M  V30 55729 C 6177.77 3.39414 4.77697 0
M  V30 55730 N 6177.72 2.04615 4.15333 0
M  V30 55731 H 6180.56 3.41248 7.98759 0
M  V30 55732 H 6180.83 2.5837 6.41742 0
M  V30 55733 H 6179.97 5.02657 6.42673 0
M  V30 55734 P 6176 6.144 6.45285 0
M  V30 55735 O 6175.78 7.54673 6.86199 0
M  V30 55736 O 6175.21 5.12391 7.179 0
M  V30 55737 O 6175.75 5.99158 4.88404 0
M  V30 55738 C 6176.69 6.60234 3.96415 0
M  V30 55739 C 6175.96 7.08259 2.72856 0
M  V30 55740 O 6175.75 5.9427 1.83651 0
M  V30 55741 C 6174.56 7.64886 2.9555 0
M  V30 55742 O 6174.17 8.53963 1.90717 0
M  V30 55743 C 6173.68 6.4116 2.90739 0
M  V30 55744 C 6174.39 5.55375 1.86963 0
M  V30 55745 N 6174.34 4.09664 2.15742 0
M  V30 55746 H 6177.18 7.45574 4.45629 0
M  V30 55747 H 6177.45 5.86232 3.67314 0
M  V30 55748 H 6176.59 7.84412 2.24479 0
M  V30 55749 P 6172.62 8.7635 1.60911 0
M  V30 55750 O 6172.4 10.1388 1.11561 0
M  V30 55751 O 6171.83 8.36503 2.79617 0
M  V30 55752 O 6172.37 7.71806 0.42951 0
M  V30 55753 C 6173.31 7.67148 -0.673689 0
M  V30 55754 C 6172.58 7.33374 -1.95559 0
M  V30 55755 O 6172.37 5.88721 -2.00726 0
M  V30 55756 C 6171.18 7.92526 -2.10483 0
M  V30 55757 O 6170.79 8.02971 -3.47653 0
M  V30 55758 C 6170.3 6.89602 -1.41652 0
M  V30 55759 C 6171.01 5.59201 -1.75185 0
M  V30 55760 N 6170.96 4.58235 -0.662552 0
M  V30 55761 H 6173.8 8.65116 -0.777161 0
M  V30 55762 H 6174.07 6.90173 -0.474152 0
M  V30 55763 H 6173.21 7.66548 -2.79458 0
M  V30 55764 P 6169.24 8.03563 -3.84925 0
M  V30 55765 O 6169.02 8.85821 -5.0569 0
M  V30 55766 O 6168.45 8.41101 -2.65469 0
M  V30 55767 O 6168.99 6.4965 -4.18908 0
M  V30 55768 C 6169.93 5.81037 -5.05421 0
M  V30 55769 C 6169.2 4.78366 -5.89277 0
M  V30 55770 O 6168.99 3.58302 -5.08433 0
M  V30 55771 C 6167.8 5.17448 -6.36119 0
M  V30 55772 O 6167.41 4.45271 -7.53232 0
M  V30 55773 C 6166.92 4.74639 -5.19936 0
M  V30 55774 C 6167.63 3.49432 -4.70418 0
M  V30 55775 N 6167.58 3.31776 -3.22945 0
M  V30 55776 H 6170.42 6.54213 -5.71376 0
M  V30 55777 H 6170.69 5.30492 -4.44033 0
M  V30 55778 H 6169.83 4.55889 -6.76652 0
M  V30 55779 P 6165.86 4.23843 -7.83734 0
M  V30 55780 O 6165.64 4.19407 -9.29784 0
M  V30 55781 O 6165.07 5.24426 -7.09156 0
M  V30 55782 O 6165.61 2.79386 -7.20852 0
M  V30 55783 C 6166.55 1.7299 -7.50419 0
M  V30 55784 C 6165.82 0.41401 -7.5797 0
M  V30 55785 O 6165.61 -0.089787 -6.22035 0
M  V30 55786 C 6164.42 0.447224 -8.1878 0
M  V30 55787 O 6164.03 -0.825159 -8.71201 0
M  V30 55788 C 6163.54 0.783801 -6.99623 0
M  V30 55789 C 6164.25 0.0619192 -5.85967 0
M  V30 55790 N 6164.2 0.7859 -4.56281 0
M  V30 55791 C 6164.05 0.0359258 -3.39981 0
M  V30 55792 O 6163.96 -1.19723 -3.49038 0
M  V30 55793 N 6164 0.869151 -2.14025 0
M  V30 55794 C 6164.1 2.01207 -2.14363 0
M  V30 55795 N 6164.05 2.58978 -0.954287 0
M  V30 55796 C 6164.25 2.80817 -3.32215 0
M  V30 55797 C 6164.3 2.13785 -4.50884 0
M  V30 55798 H 6167.04 1.93401 -8.46693 0
M  V30 55799 H 6167.31 1.68181 -6.71046 0
M  V30 55800 H 6166.45 -0.289076 -8.15488 0
M  V30 55801 H 6163.79 -0.927166 -5.72947 0
M  V30 55802 H 6163.51 1.87 -6.82132 0
M  V30 55803 H 6162.52 0.404009 -7.13457 0
M  V30 55804 H 6164.35 1.20599 -8.97534 0
M  V30 55805 H 6164.43 2.70295 -5.43162 0
M  V30 55806 H 6164.32 3.89465 -3.27406 0
M  V30 55807 H 6163.94 2.01616 -0.107046 0
M  V30 55808 H 6164.13 3.61403 -0.873101 0
M  V30 55809 P 6162.48 -1.17771 -8.83182 0
M  V30 55810 O 6162.26 -2.07206 -9.98732 0
M  V30 55811 O 6161.69 0.0743816 -8.81969 0
M  V30 55812 O 6162.23 -1.97652 -7.47304 0
M  V30 55813 C 6163.17 -3.01133 -7.08783 0
M  V30 55814 C 6162.44 -4.12613 -6.37049 0
M  V30 55815 O 6162.23 -3.72827 -4.97879 0
M  V30 55816 C 6161.04 -4.45085 -6.88694 0
M  V30 55817 O 6160.65 -5.7877 -6.5624 0
M  V30 55818 C 6160.16 -3.47817 -6.12078 0
M  V30 55819 C 6160.87 -3.39414 -4.77697 0
M  V30 55820 N 6160.82 -2.04199 -4.15538 0
M  V30 55821 H 6163.66 -3.41248 -7.98759 0
M  V30 55822 H 6163.93 -2.57728 -6.42 0
M  V30 55823 H 6163.07 -5.02657 -6.42673 0
M  V30 55824 H 6160.41 -4.11708 -4.08956 0
M  V30 55825 H 6160.13 -2.49626 -6.61679 0
M  V30 55826 H 6159.14 -3.8662 -6.00862 0
M  V30 55827 H 6160.97 -4.29991 -7.97006 0
M  V30 55828 P 6159.1 -6.144 -6.45285 0
M  V30 55829 O 6158.88 -7.54673 -6.86199 0
M  V30 55830 O 6158.31 -5.12391 -7.179 0
M  V30 55831 O 6158.85 -5.99158 -4.88404 0
M  V30 55832 C 6159.79 -6.60234 -3.96415 0
M  V30 55833 C 6159.06 -7.08259 -2.72856 0
M  V30 55834 O 6158.85 -5.9427 -1.83651 0
M  V30 55835 C 6157.66 -7.64886 -2.9555 0
M  V30 55836 O 6157.27 -8.53963 -1.90717 0
M  V30 55837 C 6156.78 -6.4116 -2.90739 0
M  V30 55838 C 6157.49 -5.55375 -1.86963 0
M  V30 55839 N 6157.44 -4.09664 -2.15742 0
M  V30 55840 H 6160.28 -7.45574 -4.45629 0
M  V30 55841 H 6160.55 -5.86232 -3.67314 0
M  V30 55842 H 6159.69 -7.84412 -2.24479 0
M  V30 55843 P 6155.72 -8.7635 -1.60911 0
M  V30 55844 O 6155.5 -10.1388 -1.11561 0
M  V30 55845 O 6154.93 -8.36503 -2.79617 0
M  V30 55846 O 6155.47 -7.71806 -0.42951 0
M  V30 55847 C 6156.41 -7.67148 0.673689 0
M  V30 55848 C 6155.68 -7.33374 1.95559 0
M  V30 55849 O 6155.47 -5.88721 2.00726 0
M  V30 55850 C 6154.28 -7.92526 2.10483 0
M  V30 55851 O 6153.89 -8.02971 3.47653 0
M  V30 55852 C 6153.4 -6.89602 1.41652 0
M  V30 55853 C 6154.11 -5.59201 1.75185 0
M  V30 55854 N 6154.06 -4.58235 0.662552 0
M  V30 55855 H 6156.9 -8.65116 0.777161 0
M  V30 55856 H 6157.17 -6.90173 0.474152 0
M  V30 55857 H 6156.31 -7.66548 2.79458 0
M  V30 55858 P 6152.34 -8.03563 3.84925 0
M  V30 55859 O 6152.12 -8.85821 5.0569 0
M  V30 55860 O 6151.55 -8.41101 2.65469 0
M  V30 55861 O 6152.09 -6.4965 4.18908 0
M  V30 55862 C 6153.03 -5.81037 5.05421 0
M  V30 55863 C 6152.3 -4.78366 5.89277 0
M  V30 55864 O 6152.09 -3.58302 5.08433 0
M  V30 55865 C 6150.9 -5.17448 6.36119 0
M  V30 55866 O 6150.51 -4.45271 7.53232 0
M  V30 55867 C 6150.02 -4.74639 5.19936 0
M  V30 55868 C 6150.73 -3.49432 4.70418 0
M  V30 55869 N 6150.68 -3.32099 3.22613 0
M  V30 55870 H 6153.52 -6.54213 5.71376 0
M  V30 55871 H 6153.79 -5.30936 4.43503 0
M  V30 55872 H 6152.93 -4.55889 6.76652 0
M  V30 55873 H 6150.27 -2.61715 5.17932 0
M  V30 55874 H 6149.99 -5.52155 4.41878 0
M  V30 55875 H 6149 -4.51981 5.53374 0
M  V30 55876 H 6150.83 -6.25124 6.55234 0
M  V30 55877 P 6148.96 -4.23843 7.83734 0
M  V30 55878 O 6148.74 -4.19407 9.29784 0
M  V30 55879 O 6148.17 -5.24426 7.09156 0
M  V30 55880 O 6148.71 -2.7935 7.20758 0
M  V30 55881 C 6149.65 -1.7299 7.50419 0
M  V30 55882 C 6148.92 -0.406376 7.57911 0
M  V30 55883 O 6148.71 0.0897726 6.21935 0
M  V30 55884 C 6147.52 -0.447224 8.1878 0
M  V30 55885 O 6147.13 0.825065 8.71101 0
M  V30 55886 C 6146.64 -0.783801 6.99623 0
M  V30 55887 C 6147.35 -0.0619192 5.85967 0
M  V30 55888 N 6147.3 -0.790462 4.56202 0
M  V30 55889 H 6150.14 -1.93423 8.4679 0
M  V30 55890 H 6150.41 -1.68852 6.70877 0
M  V30 55891 H 6149.55 0.289041 8.15388 0
M  V30 55892 H 6146.89 0.927006 5.72848 0
M  V30 55893 H 6146.61 -1.86973 6.82036 0
M  V30 55894 H 6145.62 -0.403953 7.13357 0
M  V30 55895 H 6147.45 -1.20599 8.97534 0
M  V30 55896 P 6145.58 1.17771 8.83182 0
M  V30 55897 O 6145.36 2.07206 9.98732 0
M  V30 55898 O 6144.79 -0.0743816 8.81969 0
M  V30 55899 O 6145.33 1.97652 7.47304 0
M  V30 55900 C 6146.27 3.01133 7.08783 0
M  V30 55901 C 6145.54 4.12613 6.37049 0
M  V30 55902 O 6145.33 3.72827 4.97879 0
M  V30 55903 C 6144.14 4.45085 6.88694 0
M  V30 55904 O 6143.75 5.7877 6.5624 0
M  V30 55905 C 6143.26 3.47817 6.12078 0
M  V30 55906 C 6143.97 3.39414 4.77697 0
M  V30 55907 N 6143.92 2.04199 4.15538 0
M  V30 55908 H 6146.76 3.41248 7.98759 0
M  V30 55909 H 6147.03 2.57728 6.42 0
M  V30 55910 H 6146.17 5.02657 6.42673 0
M  V30 55911 H 6143.51 4.11708 4.08956 0
M  V30 55912 H 6143.23 2.49626 6.61679 0
M  V30 55913 H 6142.24 3.8662 6.00862 0
M  V30 55914 H 6144.07 4.29991 7.97006 0
M  V30 55915 P 6142.2 6.144 6.45285 0
M  V30 55916 O 6141.98 7.54673 6.86199 0
M  V30 55917 O 6141.41 5.12391 7.179 0
M  V30 55918 O 6141.95 5.99158 4.88404 0
M  V30 55919 C 6142.89 6.60234 3.96415 0
M  V30 55920 C 6142.16 7.08259 2.72856 0
M  V30 55921 O 6141.95 5.9427 1.83651 0
M  V30 55922 C 6140.76 7.64886 2.9555 0
M  V30 55923 O 6140.37 8.53963 1.90717 0
M  V30 55924 C 6139.88 6.4116 2.90739 0
M  V30 55925 C 6140.59 5.55375 1.86963 0
M  V30 55926 N 6140.54 4.09664 2.15742 0
M  V30 55927 H 6143.38 7.45574 4.45629 0
M  V30 55928 H 6143.65 5.86232 3.67314 0
M  V30 55929 H 6142.79 7.84412 2.24479 0
M  V30 55930 P 6138.82 8.7635 1.60911 0
M  V30 55931 O 6138.6 10.1388 1.11561 0
M  V30 55932 O 6138.03 8.36503 2.79617 0
M  V30 55933 O 6138.57 7.71806 0.42951 0
M  V30 55934 C 6139.51 7.67148 -0.673689 0
M  V30 55935 C 6138.78 7.33374 -1.95559 0
M  V30 55936 O 6138.57 5.88721 -2.00726 0
M  V30 55937 C 6137.38 7.92526 -2.10483 0
M  V30 55938 O 6136.99 8.02971 -3.47653 0
M  V30 55939 C 6136.5 6.89602 -1.41652 0
M  V30 55940 C 6137.21 5.59201 -1.75185 0
M  V30 55941 N 6137.16 4.58301 -0.657969 0
M  V30 55942 C 6137.24 4.79019 0.692603 0
M  V30 55943 N 6137.17 3.69736 1.38998 0
M  V30 55944 C 6137.02 2.70474 0.438135 0
M  V30 55945 C 6136.89 1.30327 0.538142 0
M  V30 55946 N 6136.88 0.64304 1.69192 0
M  V30 55947 N 6136.77 0.611027 -0.605183 0
M  V30 55948 C 6136.78 1.27002 -1.75953 0
M  V30 55949 N 6136.9 2.56038 -1.98546 0
M  V30 55950 C 6137.02 3.22681 -0.822541 0
M  V30 55951 H 6140 8.65116 -0.777161 0
M  V30 55952 H 6140.27 6.9022 -0.46725 0
M  V30 55953 H 6139.41 7.66548 -2.79458 0
M  V30 55954 H 6136.75 5.16165 -2.65183 0
M  V30 55955 H 6136.47 7.06433 -0.329384 0
M  V30 55956 H 6135.48 6.90926 -1.82021 0
M  V30 55957 H 6137.31 8.90873 -1.62657 0
M  V30 55958 H 6137.36 5.77785 1.13874 0
M  V30 55959 H 6136.97 1.15585 2.57991 0
M  V30 55960 H 6136.79 -0.382989 1.69835 0
M  V30 55961 H 6136.68 0.653331 -2.64449 0
M  V30 55962 P 6135.44 8.03563 -3.84925 0
M  V30 55963 O 6135.22 8.85821 -5.0569 0
M  V30 55964 O 6134.65 8.41101 -2.65469 0
M  V30 55965 O 6135.19 6.4965 -4.18908 0
M  V30 55966 C 6136.13 5.81037 -5.05421 0
M  V30 55967 C 6135.4 4.78366 -5.89277 0
M  V30 55968 O 6135.19 3.58302 -5.08433 0
M  V30 55969 C 6134 5.17448 -6.36119 0
M  V30 55970 O 6133.61 4.45271 -7.53232 0
M  V30 55971 C 6133.12 4.74639 -5.19936 0
M  V30 55972 C 6133.83 3.49432 -4.70418 0
M  V30 55973 N 6133.78 3.31776 -3.22945 0
M  V30 55974 C 6133.86 4.27147 -2.23315 0
M  V30 55975 N 6133.78 3.78447 -1.02186 0
M  V30 55976 C 6133.64 2.41001 -1.21732 0
M  V30 55977 C 6133.51 1.36111 -0.27694 0
M  V30 55978 O 6133.49 1.42065 0.951767 0
M  V30 55979 N 6133.39 0.113683 -0.912949 0
M  V30 55980 C 6133.39 -0.0846396 -2.27943 0
M  V30 55981 N 6133.26 -1.34737 -2.6916 0
M  V30 55982 N 6133.52 0.902521 -3.16379 0
M  V30 55983 C 6133.64 2.11937 -2.56849 0
M  V30 55984 H 6136.62 6.54213 -5.71376 0
M  V30 55985 H 6136.89 5.30492 -4.44033 0
M  V30 55986 H 6136.03 4.55889 -6.76652 0
M  V30 55987 H 6133.37 2.6176 -5.18021 0
M  V30 55988 H 6133.09 5.52233 -4.41941 0
M  V30 55989 H 6132.1 4.52045 -5.53452 0
M  V30 55990 H 6133.93 6.25193 -6.55307 0
M  V30 55991 H 6133.98 5.3351 -2.43857 0
M  V30 55992 H 6133.3 -0.69331 -0.330371 0
M  V30 55993 H 6133.26 -1.56433 -3.6988 0
M  V30 55994 H 6133.16 -2.10701 -2.00133 0
M  V30 55995 P 6132.06 4.23843 -7.83734 0
M  V30 55996 O 6131.84 4.19407 -9.29784 0
M  V30 55997 O 6131.27 5.24426 -7.09156 0
M  V30 55998 O 6131.81 2.7935 -7.20758 0
M  V30 55999 C 6132.75 1.7299 -7.50419 0
M  V30 56000 C 6132.02 0.406376 -7.57911 0
M  V30 56001 O 6131.81 -0.0897726 -6.21935 0
M  V30 56002 C 6130.62 0.447224 -8.1878 0
M  V30 56003 O 6130.23 -0.825065 -8.71101 0
M  V30 56004 C 6129.74 0.783801 -6.99623 0
M  V30 56005 C 6130.45 0.0619192 -5.85967 0
M  V30 56006 N 6130.4 0.7859 -4.56281 0
M  V30 56007 H 6133.24 1.93423 -8.4679 0
M  V30 56008 H 6133.51 1.68181 -6.71046 0
M  V30 56009 H 6132.65 -0.289041 -8.15388 0
M  V30 56010 P 6128.68 -1.17771 -8.83182 0
M  V30 56011 O 6128.46 -2.07206 -9.98732 0
M  V30 56012 O 6127.89 0.0743816 -8.81969 0
M  V30 56013 O 6128.43 -1.97652 -7.47304 0
M  V30 56014 C 6129.37 -3.01133 -7.08783 0
M  V30 56015 C 6128.64 -4.12613 -6.37049 0
M  V30 56016 O 6128.43 -3.72827 -4.97879 0
M  V30 56017 C 6127.24 -4.45085 -6.88694 0
M  V30 56018 O 6126.85 -5.7877 -6.5624 0
M  V30 56019 C 6126.36 -3.47817 -6.12078 0
M  V30 56020 C 6127.07 -3.39414 -4.77697 0
M  V30 56021 N 6127.02 -2.04199 -4.15538 0
M  V30 56022 H 6129.86 -3.41248 -7.98759 0
M  V30 56023 H 6130.13 -2.57728 -6.42 0
M  V30 56024 H 6129.27 -5.02657 -6.42673 0
M  V30 56025 H 6126.61 -4.11708 -4.08956 0
M  V30 56026 H 6126.33 -2.49626 -6.61679 0
M  V30 56027 H 6125.34 -3.8662 -6.00862 0
M  V30 56028 H 6127.17 -4.29991 -7.97006 0
M  V30 56029 P 6125.3 -6.144 -6.45285 0
M  V30 56030 O 6125.08 -7.54673 -6.86199 0
M  V30 56031 O 6124.51 -5.12391 -7.179 0
M  V30 56032 O 6125.05 -5.99158 -4.88404 0
M  V30 56033 C 6125.99 -6.60234 -3.96415 0
M  V30 56034 C 6125.26 -7.08259 -2.72856 0
M  V30 56035 O 6125.05 -5.9427 -1.83651 0
M  V30 56036 C 6123.86 -7.64886 -2.9555 0
M  V30 56037 O 6123.47 -8.53963 -1.90717 0
M  V30 56038 C 6122.98 -6.4116 -2.90739 0
M  V30 56039 C 6123.69 -5.55375 -1.86963 0
M  V30 56040 N 6123.64 -4.09448 -2.16152 0
M  V30 56041 H 6126.48 -7.45574 -4.45629 0
M  V30 56042 H 6126.75 -5.85864 -3.679 0
M  V30 56043 H 6125.89 -7.84412 -2.24479 0
M  V30 56044 H 6123.23 -5.73457 -0.888562 0
M  V30 56045 H 6122.95 -5.90877 -3.88583 0
M  V30 56046 H 6121.96 -6.6596 -2.58858 0
M  V30 56047 H 6123.79 -8.16339 -3.92049 0
M  V30 56048 P 6121.92 -8.7635 -1.60911 0
M  V30 56049 O 6121.7 -10.1388 -1.11561 0
M  V30 56050 O 6121.13 -8.36503 -2.79617 0
M  V30 56051 O 6121.67 -7.71806 -0.42951 0
M  V30 56052 C 6122.61 -7.67148 0.673689 0
M  V30 56053 C 6121.88 -7.33374 1.95559 0
M  V30 56054 O 6121.67 -5.88721 2.00726 0
M  V30 56055 C 6120.48 -7.92526 2.10483 0
M  V30 56056 O 6120.09 -8.02971 3.47653 0
M  V30 56057 C 6119.6 -6.89602 1.41652 0
M  V30 56058 C 6120.31 -5.59201 1.75185 0
M  V30 56059 N 6120.26 -4.58235 0.662552 0
M  V30 56060 C 6120.34 -4.7683 -0.704049 0
M  V30 56061 N 6120.26 -3.66233 -1.39775 0
M  V30 56062 C 6120.12 -2.66526 -0.431739 0
M  V30 56063 C 6119.99 -1.26394 -0.575992 0
M  V30 56064 O 6119.97 -0.589894 -1.60503 0
M  V30 56065 N 6119.87 -0.62859 0.67177 0
M  V30 56066 C 6119.87 -1.27134 1.89385 0
M  V30 56067 N 6119.74 -0.492035 2.96951 0
M  V30 56068 N 6120 -2.58978 2.02907 0
M  V30 56069 C 6120.12 -3.22433 0.832218 0
M  V30 56070 H 6123.1 -8.65116 0.777161 0
M  V30 56071 H 6123.37 -6.90173 0.474152 0
M  V30 56072 H 6122.51 -7.66548 2.79458 0
M  V30 56073 H 6119.85 -5.16254 2.65229 0
M  V30 56074 H 6119.57 -7.06532 0.329431 0
M  V30 56075 H 6118.58 -6.91023 1.82047 0
M  V30 56076 H 6120.41 -8.90971 1.62675 0
M  V30 56077 H 6120.46 -5.74954 -1.16305 0
M  V30 56078 H 6119.78 0.366713 0.674793 0
M  V30 56079 H 6119.74 -0.908532 3.91188 0
M  V30 56080 H 6119.64 0.528253 2.85758 0
M  V30 56081 P 6118.54 -8.03563 3.84925 0
M  V30 56082 O 6118.32 -8.85821 5.0569 0
M  V30 56083 O 6117.75 -8.41101 2.65469 0
M  V30 56084 O 6118.29 -6.4965 4.18908 0
M  V30 56085 C 6119.23 -5.81037 5.05421 0
M  V30 56086 C 6118.5 -4.78366 5.89277 0
M  V30 56087 O 6118.29 -3.58302 5.08433 0
M  V30 56088 C 6117.1 -5.17448 6.36119 0
M  V30 56089 O 6116.71 -4.45271 7.53232 0
M  V30 56090 C 6116.22 -4.74639 5.19936 0
M  V30 56091 C 6116.93 -3.49432 4.70418 0
M  V30 56092 N 6116.88 -3.32099 3.22613 0
M  V30 56093 H 6119.72 -6.54213 5.71376 0
M  V30 56094 H 6119.99 -5.30936 4.43503 0
M  V30 56095 H 6119.13 -4.55889 6.76652 0
M  V30 56096 H 6116.47 -2.61715 5.17932 0
M  V30 56097 H 6116.19 -5.52155 4.41878 0
M  V30 56098 H 6115.2 -4.51981 5.53374 0
M  V30 56099 H 6117.03 -6.25124 6.55234 0
M  V30 56100 P 6115.16 -4.23843 7.83734 0
M  V30 56101 O 6114.94 -4.19407 9.29784 0
M  V30 56102 O 6114.37 -5.24426 7.09156 0
M  V30 56103 O 6114.91 -2.79386 7.20852 0
M  V30 56104 C 6115.85 -1.7299 7.50419 0
M  V30 56105 C 6115.12 -0.41401 7.5797 0
M  V30 56106 O 6114.91 0.089787 6.22035 0
M  V30 56107 C 6113.72 -0.447224 8.1878 0
M  V30 56108 O 6113.33 0.825159 8.71201 0
M  V30 56109 C 6112.84 -0.783801 6.99623 0
M  V30 56110 C 6113.55 -0.0619192 5.85967 0
M  V30 56111 N 6113.5 -0.7859 4.56281 0
M  V30 56112 C 6113.35 -0.0359258 3.39981 0
M  V30 56113 O 6113.26 1.19723 3.49038 0
M  V30 56114 N 6113.3 -0.869151 2.14025 0
M  V30 56115 C 6113.4 -2.01207 2.14363 0
M  V30 56116 N 6113.35 -2.58978 0.954287 0
M  V30 56117 C 6113.55 -2.80817 3.32215 0
M  V30 56118 C 6113.6 -2.13785 4.50884 0
M  V30 56119 H 6116.34 -1.93401 8.46693 0
M  V30 56120 H 6116.61 -1.68181 6.71046 0
M  V30 56121 H 6115.75 0.289076 8.15488 0
M  V30 56122 H 6113.09 0.927166 5.72947 0
M  V30 56123 H 6112.81 -1.87 6.82132 0
M  V30 56124 H 6111.82 -0.404009 7.13457 0
M  V30 56125 H 6113.65 -1.20599 8.97534 0
M  V30 56126 H 6113.73 -2.70295 5.43162 0
M  V30 56127 H 6113.62 -3.89465 3.27406 0
M  V30 56128 H 6113.24 -2.01616 0.107046 0
M  V30 56129 H 6113.43 -3.61403 0.873101 0
M  V30 56130 P 6111.78 1.17771 8.83182 0
M  V30 56131 O 6111.56 2.07206 9.98732 0
M  V30 56132 O 6110.99 -0.0743816 8.81969 0
M  V30 56133 O 6111.53 1.97652 7.47304 0
M  V30 56134 C 6112.47 3.01133 7.08783 0
M  V30 56135 C 6111.74 4.12613 6.37049 0
M  V30 56136 O 6111.53 3.72827 4.97879 0
M  V30 56137 C 6110.34 4.45085 6.88694 0
M  V30 56138 O 6109.95 5.7877 6.5624 0
M  V30 56139 C 6109.46 3.47817 6.12078 0
M  V30 56140 C 6110.17 3.39414 4.77697 0
M  V30 56141 N 6110.12 2.04615 4.15333 0
M  V30 56142 H 6112.96 3.41248 7.98759 0
M  V30 56143 H 6113.23 2.5837 6.41742 0
M  V30 56144 H 6112.37 5.02657 6.42673 0
M  V30 56145 P 6108.4 6.144 6.45285 0
M  V30 56146 O 6108.18 7.54673 6.86199 0
M  V30 56147 O 6107.61 5.12391 7.179 0
M  V30 56148 O 6108.15 5.99158 4.88404 0
M  V30 56149 C 6109.09 6.60234 3.96415 0
M  V30 56150 C 6108.36 7.08259 2.72856 0
M  V30 56151 O 6108.15 5.9427 1.83651 0
M  V30 56152 C 6106.96 7.64886 2.9555 0
M  V30 56153 O 6106.57 8.53963 1.90717 0
M  V30 56154 C 6106.08 6.4116 2.90739 0
M  V30 56155 C 6106.79 5.55375 1.86963 0
M  V30 56156 N 6106.74 4.09664 2.15742 0
M  V30 56157 H 6109.58 7.45574 4.45629 0
M  V30 56158 H 6109.85 5.86232 3.67314 0
M  V30 56159 H 6108.99 7.84412 2.24479 0
M  V30 56160 P 6105.02 8.7635 1.60911 0
M  V30 56161 O 6104.8 10.1388 1.11561 0
M  V30 56162 O 6104.23 8.36503 2.79617 0
M  V30 56163 O 6104.77 7.71806 0.42951 0
M  V30 56164 C 6105.71 7.67148 -0.673689 0
M  V30 56165 C 6104.98 7.33374 -1.95559 0
M  V30 56166 O 6104.77 5.88721 -2.00726 0
M  V30 56167 C 6103.58 7.92526 -2.10483 0
M  V30 56168 O 6103.19 8.02971 -3.47653 0
M  V30 56169 C 6102.7 6.89602 -1.41652 0
M  V30 56170 C 6103.41 5.59201 -1.75185 0
M  V30 56171 N 6103.36 4.58301 -0.657969 0
M  V30 56172 C 6103.44 4.79019 0.692603 0
M  V30 56173 N 6103.37 3.69736 1.38998 0
M  V30 56174 C 6103.22 2.70474 0.438135 0
M  V30 56175 C 6103.09 1.30327 0.538142 0
M  V30 56176 N 6103.08 0.64304 1.69192 0
M  V30 56177 N 6102.97 0.611027 -0.605183 0
M  V30 56178 C 6102.98 1.27002 -1.75953 0
M  V30 56179 N 6103.1 2.56038 -1.98546 0
M  V30 56180 C 6103.22 3.22681 -0.822541 0
M  V30 56181 H 6106.2 8.65116 -0.777161 0
M  V30 56182 H 6106.47 6.9022 -0.46725 0
M  V30 56183 H 6105.61 7.66548 -2.79458 0
M  V30 56184 H 6102.95 5.16165 -2.65183 0
M  V30 56185 H 6102.67 7.06433 -0.329384 0
M  V30 56186 H 6101.68 6.90926 -1.82021 0
M  V30 56187 H 6103.51 8.90873 -1.62657 0
M  V30 56188 H 6103.56 5.77785 1.13874 0
M  V30 56189 H 6103.17 1.15585 2.57991 0
M  V30 56190 H 6102.99 -0.382989 1.69835 0
M  V30 56191 H 6102.88 0.653331 -2.64449 0
M  V30 56192 P 6101.64 8.03563 -3.84925 0
M  V30 56193 O 6101.42 8.85821 -5.0569 0
M  V30 56194 O 6100.85 8.41101 -2.65469 0
M  V30 56195 O 6101.39 6.4965 -4.18908 0
M  V30 56196 C 6102.33 5.81037 -5.05421 0
M  V30 56197 C 6101.6 4.78366 -5.89277 0
M  V30 56198 O 6101.39 3.58302 -5.08433 0
M  V30 56199 C 6100.2 5.17448 -6.36119 0
M  V30 56200 O 6099.81 4.45271 -7.53232 0
M  V30 56201 C 6099.32 4.74639 -5.19936 0
M  V30 56202 C 6100.03 3.49432 -4.70418 0
M  V30 56203 N 6099.98 3.31776 -3.22945 0
M  V30 56204 H 6102.82 6.54213 -5.71376 0
M  V30 56205 H 6103.09 5.30492 -4.44033 0
M  V30 56206 H 6102.23 4.55889 -6.76652 0
M  V30 56207 P 6098.26 4.23843 -7.83734 0
M  V30 56208 O 6098.04 4.19407 -9.29784 0
M  V30 56209 O 6097.47 5.24426 -7.09156 0
M  V30 56210 O 6098.01 2.7935 -7.20758 0
M  V30 56211 C 6098.95 1.7299 -7.50419 0
M  V30 56212 C 6098.22 0.406376 -7.57911 0
M  V30 56213 O 6098.01 -0.0897726 -6.21935 0
M  V30 56214 C 6096.82 0.447224 -8.1878 0
M  V30 56215 O 6096.43 -0.825065 -8.71101 0
M  V30 56216 C 6095.94 0.783801 -6.99623 0
M  V30 56217 C 6096.65 0.0619192 -5.85967 0
M  V30 56218 N 6096.6 0.790462 -4.56202 0
M  V30 56219 H 6099.44 1.93423 -8.4679 0
M  V30 56220 H 6099.71 1.68852 -6.70877 0
M  V30 56221 H 6098.85 -0.289041 -8.15388 0
M  V30 56222 H 6096.19 -0.927006 -5.72848 0
M  V30 56223 H 6095.91 1.86973 -6.82036 0
M  V30 56224 H 6094.92 0.403953 -7.13357 0
M  V30 56225 H 6096.75 1.20599 -8.97534 0
M  V30 56226 P 6094.88 -1.17771 -8.83182 0
M  V30 56227 O 6094.66 -2.07206 -9.98732 0
M  V30 56228 O 6094.09 0.0743816 -8.81969 0
M  V30 56229 O 6094.63 -1.97652 -7.47304 0
M  V30 56230 C 6095.57 -3.01133 -7.08783 0
M  V30 56231 C 6094.84 -4.12613 -6.37049 0
M  V30 56232 O 6094.63 -3.72827 -4.97879 0
M  V30 56233 C 6093.44 -4.45085 -6.88694 0
M  V30 56234 O 6093.05 -5.7877 -6.5624 0
M  V30 56235 C 6092.56 -3.47817 -6.12078 0
M  V30 56236 C 6093.27 -3.39414 -4.77697 0
M  V30 56237 N 6093.22 -2.04615 -4.15333 0
M  V30 56238 H 6096.06 -3.41248 -7.98759 0
M  V30 56239 H 6096.33 -2.5837 -6.41742 0
M  V30 56240 H 6095.47 -5.02657 -6.42673 0
M  V30 56241 P 6091.5 -6.144 -6.45285 0
M  V30 56242 O 6091.28 -7.54673 -6.86199 0
M  V30 56243 O 6090.71 -5.12391 -7.179 0
M  V30 56244 O 6091.25 -5.99158 -4.88404 0
M  V30 56245 C 6092.19 -6.60062 -3.96313 0
M  V30 56246 C 6091.46 -7.08259 -2.72856 0
M  V30 56247 O 6091.25 -5.9427 -1.83651 0
M  V30 56248 C 6090.06 -7.65087 -2.94749 0
M  V30 56249 O 6089.67 -8.53963 -1.90717 0
M  V30 56250 C 6089.18 -6.41069 -2.90698 0
M  V30 56251 C 6089.89 -5.5528 -1.86931 0
M  V30 56252 N 6089.84 -4.09575 -2.15696 0
M  V30 56253 C 6089.69 -3.24249 -1.08435 0
M  V30 56254 O 6089.6 -3.63946 0.0628747 0
M  V30 56255 N 6089.65 -1.90009 -1.39973 0
M  V30 56256 C 6089.74 -1.34884 -2.65614 0
M  V30 56257 C 6089.89 -2.3145 -3.71736 0
M  V30 56258 C 6089.94 -3.63518 -3.44754 0
M  V30 56259 H 6092.68 -7.45402 -4.45526 0
M  V30 56260 H 6092.95 -5.86062 -3.67208 0
M  V30 56261 H 6092.09 -7.84412 -2.24479 0
M  V30 56262 H 6089.43 -5.73358 -0.888409 0
M  V30 56263 H 6089.15 -5.90877 -3.88583 0
M  V30 56264 H 6088.16 -6.65867 -2.58821 0
M  V30 56265 H 6089.99 -8.16248 -3.92006 0
M  V30 56266 H 6090.07 -4.34551 -4.26383 0
M  V30 56267 P 6088.12 -8.7635 -1.60911 0
M  V30 56268 O 6087.9 -10.1388 -1.11561 0
M  V30 56269 O 6087.33 -8.36503 -2.79617 0
M  V30 56270 O 6087.87 -7.71806 -0.42951 0
M  V30 56271 C 6088.81 -7.67148 0.673689 0
M  V30 56272 C 6088.08 -7.33374 1.95559 0
M  V30 56273 O 6087.87 -5.88721 2.00726 0
M  V30 56274 C 6086.68 -7.92526 2.10483 0
M  V30 56275 O 6086.29 -8.02971 3.47653 0
M  V30 56276 C 6085.8 -6.89602 1.41652 0
M  V30 56277 C 6086.51 -5.59201 1.75185 0
M  V30 56278 N 6086.46 -4.58235 0.662552 0
M  V30 56279 H 6089.3 -8.65116 0.777161 0
M  V30 56280 H 6089.57 -6.90173 0.474152 0
M  V30 56281 H 6088.71 -7.66548 2.79458 0
M  V30 56282 P 6084.74 -8.03563 3.84925 0
M  V30 56283 O 6084.52 -8.85821 5.0569 0
M  V30 56284 O 6083.95 -8.41101 2.65469 0
M  V30 56285 O 6084.49 -6.4965 4.18908 0
M  V30 56286 C 6085.43 -5.81037 5.05421 0
M  V30 56287 C 6084.7 -4.78366 5.89277 0
M  V30 56288 O 6084.49 -3.58302 5.08433 0
M  V30 56289 C 6083.3 -5.17448 6.36119 0
M  V30 56290 O 6082.91 -4.45271 7.53232 0
M  V30 56291 C 6082.42 -4.74639 5.19936 0
M  V30 56292 C 6083.13 -3.49432 4.70418 0
M  V30 56293 N 6083.08 -3.31776 3.22945 0
M  V30 56294 H 6085.92 -6.54213 5.71376 0
M  V30 56295 H 6086.2 -5.30492 4.44033 0
M  V30 56296 H 6085.33 -4.55889 6.76652 0
M  V30 56297 P 6081.36 -4.23843 7.83734 0
M  V30 56298 O 6081.14 -4.19407 9.29784 0
M  V30 56299 O 6080.57 -5.24426 7.09156 0
M  V30 56300 O 6081.11 -2.7935 7.20758 0
M  V30 56301 C 6082.05 -1.7299 7.50419 0
M  V30 56302 C 6081.32 -0.406376 7.57911 0
M  V30 56303 O 6081.11 0.0897726 6.21935 0
M  V30 56304 C 6079.92 -0.447224 8.1878 0
M  V30 56305 O 6079.53 0.825065 8.71101 0
M  V30 56306 C 6079.04 -0.783801 6.99623 0
M  V30 56307 C 6079.75 -0.0619192 5.85967 0
M  V30 56308 N 6079.7 -0.7859 4.56281 0
M  V30 56309 H 6082.54 -1.93423 8.4679 0
M  V30 56310 H 6082.82 -1.68181 6.71046 0
M  V30 56311 H 6081.95 0.289041 8.15388 0
M  V30 56312 P 6077.98 1.17771 8.83182 0
M  V30 56313 O 6077.76 2.07206 9.98732 0
M  V30 56314 O 6077.19 -0.0743816 8.81969 0
M  V30 56315 O 6077.73 1.97652 7.47304 0
M  V30 56316 C 6078.67 3.01133 7.08783 0
M  V30 56317 C 6077.94 4.12613 6.37049 0
M  V30 56318 O 6077.73 3.72827 4.97879 0
M  V30 56319 C 6076.54 4.45085 6.88694 0
M  V30 56320 O 6076.15 5.7877 6.5624 0
M  V30 56321 C 6075.66 3.47817 6.12078 0
M  V30 56322 C 6076.37 3.39414 4.77697 0
M  V30 56323 N 6076.32 2.04615 4.15333 0
M  V30 56324 H 6079.16 3.41248 7.98759 0
M  V30 56325 H 6079.44 2.5837 6.41742 0
M  V30 56326 H 6078.57 5.02657 6.42673 0
M  V30 56327 P 6074.6 6.144 6.45285 0
M  V30 56328 O 6074.38 7.54673 6.86199 0
M  V30 56329 O 6073.81 5.12391 7.179 0
M  V30 56330 O 6074.35 5.99158 4.88404 0
M  V30 56331 C 6075.29 6.60234 3.96415 0
M  V30 56332 C 6074.56 7.08259 2.72856 0
M  V30 56333 O 6074.35 5.9427 1.83651 0
M  V30 56334 C 6073.16 7.64886 2.9555 0
M  V30 56335 O 6072.77 8.53963 1.90717 0
M  V30 56336 C 6072.28 6.4116 2.90739 0
M  V30 56337 C 6072.99 5.55375 1.86963 0
M  V30 56338 N 6072.94 4.09664 2.15742 0
M  V30 56339 H 6075.78 7.45574 4.45629 0
M  V30 56340 H 6076.06 5.86232 3.67314 0
M  V30 56341 H 6075.19 7.84412 2.24479 0
M  V30 56342 P 6071.22 8.7635 1.60911 0
M  V30 56343 O 6071 10.1388 1.11561 0
M  V30 56344 O 6070.43 8.36503 2.79617 0
M  V30 56345 O 6070.97 7.71806 0.42951 0
M  V30 56346 C 6071.91 7.67148 -0.673689 0
M  V30 56347 C 6071.18 7.33374 -1.95559 0
M  V30 56348 O 6070.97 5.88721 -2.00726 0
M  V30 56349 C 6069.78 7.92526 -2.10483 0
M  V30 56350 O 6069.39 8.02971 -3.47653 0
M  V30 56351 C 6068.9 6.89602 -1.41652 0
M  V30 56352 C 6069.61 5.59201 -1.75185 0
M  V30 56353 N 6069.56 4.58235 -0.662552 0
M  V30 56354 H 6072.4 8.65116 -0.777161 0
M  V30 56355 H 6072.68 6.90173 -0.474152 0
M  V30 56356 H 6071.81 7.66548 -2.79458 0
M  V30 56357 P 6067.84 8.03563 -3.84925 0
M  V30 56358 O 6067.62 8.85821 -5.0569 0
M  V30 56359 O 6067.05 8.41101 -2.65469 0
M  V30 56360 O 6067.59 6.4965 -4.18908 0
M  V30 56361 C 6068.53 5.81037 -5.05421 0
M  V30 56362 C 6067.8 4.78366 -5.89277 0
M  V30 56363 O 6067.59 3.58302 -5.08433 0
M  V30 56364 C 6066.4 5.17448 -6.36119 0
M  V30 56365 O 6066.01 4.45271 -7.53232 0
M  V30 56366 C 6065.52 4.74639 -5.19936 0
M  V30 56367 C 6066.23 3.49432 -4.70418 0
M  V30 56368 N 6066.18 3.31776 -3.22945 0
M  V30 56369 H 6069.02 6.54213 -5.71376 0
M  V30 56370 H 6069.3 5.30492 -4.44033 0
M  V30 56371 H 6068.43 4.55889 -6.76652 0
M  V30 56372 P 6064.46 4.23843 -7.83734 0
M  V30 56373 O 6064.24 4.19407 -9.29784 0
M  V30 56374 O 6063.67 5.24426 -7.09156 0
M  V30 56375 O 6064.21 2.7935 -7.20758 0
M  V30 56376 C 6065.15 1.7299 -7.50419 0
M  V30 56377 C 6064.42 0.406376 -7.57911 0
M  V30 56378 O 6064.21 -0.0897726 -6.21935 0
M  V30 56379 C 6063.02 0.447224 -8.1878 0
M  V30 56380 O 6062.63 -0.825065 -8.71101 0
M  V30 56381 C 6062.14 0.783801 -6.99623 0
M  V30 56382 C 6062.85 0.0619192 -5.85967 0
M  V30 56383 N 6062.8 0.7859 -4.56281 0
M  V30 56384 H 6065.64 1.93423 -8.4679 0
M  V30 56385 H 6065.92 1.68181 -6.71046 0
M  V30 56386 H 6065.05 -0.289041 -8.15388 0
M  V30 56387 P 6061.08 -1.17771 -8.83182 0
M  V30 56388 O 6060.86 -2.07206 -9.98732 0
M  V30 56389 O 6060.29 0.0743816 -8.81969 0
M  V30 56390 O 6060.83 -1.97652 -7.47304 0
M  V30 56391 C 6061.77 -3.01133 -7.08783 0
M  V30 56392 C 6061.04 -4.12613 -6.37049 0
M  V30 56393 O 6060.83 -3.72827 -4.97879 0
M  V30 56394 C 6059.64 -4.45085 -6.88694 0
M  V30 56395 O 6059.25 -5.7877 -6.5624 0
M  V30 56396 C 6058.76 -3.47817 -6.12078 0
M  V30 56397 C 6059.47 -3.39414 -4.77697 0
M  V30 56398 N 6059.42 -2.04199 -4.15538 0
M  V30 56399 H 6062.26 -3.41248 -7.98759 0
M  V30 56400 H 6062.54 -2.57728 -6.42 0
M  V30 56401 H 6061.67 -5.02657 -6.42673 0
M  V30 56402 H 6059.01 -4.11708 -4.08956 0
M  V30 56403 H 6058.73 -2.49626 -6.61679 0
M  V30 56404 H 6057.74 -3.8662 -6.00862 0
M  V30 56405 H 6059.58 -4.29991 -7.97006 0
M  V30 56406 P 6057.7 -6.144 -6.45285 0
M  V30 56407 O 6057.48 -7.54673 -6.86199 0
M  V30 56408 O 6056.91 -5.12391 -7.179 0
M  V30 56409 O 6057.45 -5.99158 -4.88404 0
M  V30 56410 C 6058.39 -6.60234 -3.96415 0
M  V30 56411 C 6057.66 -7.08259 -2.72856 0
M  V30 56412 O 6057.45 -5.9427 -1.83651 0
M  V30 56413 C 6056.26 -7.64886 -2.9555 0
M  V30 56414 O 6055.87 -8.53963 -1.90717 0
M  V30 56415 C 6055.38 -6.4116 -2.90739 0
M  V30 56416 C 6056.09 -5.55375 -1.86963 0
M  V30 56417 N 6056.04 -4.09448 -2.16152 0
M  V30 56418 C 6056.12 -3.46824 -3.37593 0
M  V30 56419 N 6056.05 -2.17422 -3.29777 0
M  V30 56420 C 6055.9 -1.93065 -1.94427 0
M  V30 56421 C 6055.77 -0.738053 -1.20141 0
M  V30 56422 N 6055.76 0.474256 -1.74676 0
M  V30 56423 N 6055.65 -0.850049 0.13045 0
M  V30 56424 C 6055.66 -2.06169 0.676992 0
M  V30 56425 N 6055.78 -3.23842 0.101312 0
M  V30 56426 C 6055.9 -3.09402 -1.23122 0
M  V30 56427 H 6058.88 -7.45574 -4.45629 0
M  V30 56428 H 6059.16 -5.85864 -3.679 0
M  V30 56429 H 6058.29 -7.84412 -2.24479 0
M  V30 56430 H 6055.63 -5.73457 -0.888562 0
M  V30 56431 H 6055.35 -5.90877 -3.88583 0
M  V30 56432 H 6054.36 -6.6596 -2.58858 0
M  V30 56433 H 6056.2 -8.16339 -3.92049 0
M  V30 56434 H 6056.24 -4.00505 -4.3174 0
M  V30 56435 H 6055.86 0.581337 -2.76658 0
M  V30 56436 H 6055.67 1.30811 -1.14888 0
M  V30 56437 H 6055.56 -2.08295 1.75542 0
M  V30 56438 P 6054.32 -8.7635 -1.60911 0
M  V30 56439 O 6054.1 -10.1388 -1.11561 0
M  V30 56440 O 6053.53 -8.36503 -2.79617 0
M  V30 56441 O 6054.07 -7.71806 -0.42951 0
M  V30 56442 C 6055.01 -7.67148 0.673689 0
M  V30 56443 C 6054.28 -7.33374 1.95559 0
M  V30 56444 O 6054.07 -5.88721 2.00726 0
M  V30 56445 C 6052.88 -7.92526 2.10483 0
M  V30 56446 O 6052.49 -8.02971 3.47653 0
M  V30 56447 C 6052 -6.89602 1.41652 0
M  V30 56448 C 6052.71 -5.59201 1.75185 0
M  V30 56449 N 6052.66 -4.58301 0.657969 0
M  V30 56450 H 6055.5 -8.65116 0.777161 0
M  V30 56451 H 6055.78 -6.9022 0.46725 0
M  V30 56452 H 6054.91 -7.66548 2.79458 0
M  V30 56453 H 6052.25 -5.16165 2.65183 0
M  V30 56454 H 6051.97 -7.06433 0.329384 0
M  V30 56455 H 6050.98 -6.90926 1.82021 0
M  V30 56456 H 6052.82 -8.90873 1.62657 0
M  V30 56457 P 6050.94 -8.03563 3.84925 0
M  V30 56458 O 6050.72 -8.85821 5.0569 0
M  V30 56459 O 6050.15 -8.41101 2.65469 0
M  V30 56460 O 6050.69 -6.4965 4.18908 0
M  V30 56461 C 6051.63 -5.81037 5.05421 0
M  V30 56462 C 6050.9 -4.78366 5.89277 0
M  V30 56463 O 6050.69 -3.58302 5.08433 0
M  V30 56464 C 6049.5 -5.17448 6.36119 0
M  V30 56465 O 6049.11 -4.45271 7.53232 0
M  V30 56466 C 6048.62 -4.74639 5.19936 0
M  V30 56467 C 6049.33 -3.49432 4.70418 0
M  V30 56468 N 6049.28 -3.32099 3.22613 0
M  V30 56469 H 6052.12 -6.54213 5.71376 0
M  V30 56470 H 6052.4 -5.30936 4.43503 0
M  V30 56471 H 6051.53 -4.55889 6.76652 0
M  V30 56472 H 6048.87 -2.61715 5.17932 0
M  V30 56473 H 6048.59 -5.52155 4.41878 0
M  V30 56474 H 6047.6 -4.51981 5.53374 0
M  V30 56475 H 6049.44 -6.25124 6.55234 0
M  V30 56476 P 6047.56 -4.23843 7.83734 0
M  V30 56477 O 6047.34 -4.19407 9.29784 0
M  V30 56478 O 6046.77 -5.24426 7.09156 0
M  V30 56479 O 6047.31 -2.7935 7.20758 0
M  V30 56480 C 6048.25 -1.72945 7.50224 0
M  V30 56481 C 6047.52 -0.406376 7.57911 0
M  V30 56482 O 6047.31 0.0897726 6.21935 0
M  V30 56483 C 6046.12 -0.438983 8.18724 0
M  V30 56484 O 6045.73 0.825065 8.71101 0
M  V30 56485 C 6045.24 -0.783689 6.99524 0
M  V30 56486 C 6045.95 -0.0619086 5.85867 0
M  V30 56487 N 6045.9 -0.78573 4.56183 0
M  V30 56488 C 6045.75 -0.0292889 3.41887 0
M  V30 56489 O 6045.66 1.18445 3.4419 0
M  V30 56490 N 6045.71 -0.744061 2.23964 0
M  V30 56491 C 6045.8 -2.10932 2.10362 0
M  V30 56492 C 6045.95 -2.8202 3.34994 0
M  V30 56493 C 6046 -2.15547 4.52261 0
M  V30 56494 H 6048.75 -1.93379 8.46595 0
M  V30 56495 H 6049.01 -1.68132 6.70852 0
M  V30 56496 H 6048.15 0.289041 8.15388 0
M  V30 56497 H 6045.49 0.926847 5.72749 0
M  V30 56498 H 6045.21 -1.86973 6.82036 0
M  V30 56499 H 6044.22 -0.403896 7.13257 0
M  V30 56500 H 6046.06 -1.20585 8.97435 0
M  V30 56501 H 6046.13 -2.71231 5.45042 0
M  V30 56502 P 6044.18 1.17771 8.83182 0
M  V30 56503 O 6043.96 2.07206 9.98732 0
M  V30 56504 O 6043.39 -0.0743816 8.81969 0
M  V30 56505 O 6043.93 1.97652 7.47304 0
M  V30 56506 C 6044.87 3.01133 7.08783 0
M  V30 56507 C 6044.14 4.12613 6.37049 0
M  V30 56508 O 6043.93 3.72827 4.97879 0
M  V30 56509 C 6042.74 4.45085 6.88694 0
M  V30 56510 O 6042.35 5.7877 6.5624 0
M  V30 56511 C 6041.86 3.47817 6.12078 0
M  V30 56512 C 6042.57 3.39414 4.77697 0
M  V30 56513 N 6042.52 2.04615 4.15333 0
M  V30 56514 H 6045.36 3.41248 7.98759 0
M  V30 56515 H 6045.64 2.5837 6.41742 0
M  V30 56516 H 6044.77 5.02657 6.42673 0
M  V30 56517 P 6040.8 6.144 6.45285 0
M  V30 56518 O 6040.58 7.54673 6.86199 0
M  V30 56519 O 6040.01 5.12391 7.179 0
M  V30 56520 O 6040.55 5.99158 4.88404 0
M  V30 56521 C 6041.49 6.60234 3.96415 0
M  V30 56522 C 6040.76 7.08259 2.72856 0
M  V30 56523 O 6040.55 5.9427 1.83651 0
M  V30 56524 C 6039.36 7.64886 2.9555 0
M  V30 56525 O 6038.97 8.53963 1.90717 0
M  V30 56526 C 6038.48 6.4116 2.90739 0
M  V30 56527 C 6039.19 5.55375 1.86963 0
M  V30 56528 N 6039.14 4.09664 2.15742 0
M  V30 56529 H 6041.98 7.45574 4.45629 0
M  V30 56530 H 6042.26 5.86232 3.67314 0
M  V30 56531 H 6041.39 7.84412 2.24479 0
M  V30 56532 P 6037.42 8.7635 1.60911 0
M  V30 56533 O 6037.2 10.1388 1.11561 0
M  V30 56534 O 6036.63 8.36503 2.79617 0
M  V30 56535 O 6037.17 7.71806 0.42951 0
M  V30 56536 C 6038.11 7.67148 -0.673689 0
M  V30 56537 C 6037.38 7.33374 -1.95559 0
M  V30 56538 O 6037.17 5.88721 -2.00726 0
M  V30 56539 C 6035.98 7.92526 -2.10483 0
M  V30 56540 O 6035.59 8.02971 -3.47653 0
M  V30 56541 C 6035.1 6.89602 -1.41652 0
M  V30 56542 C 6035.81 5.59201 -1.75185 0
M  V30 56543 N 6035.76 4.58235 -0.662552 0
M  V30 56544 H 6038.6 8.65116 -0.777161 0
M  V30 56545 H 6038.88 6.90173 -0.474152 0
M  V30 56546 H 6038.01 7.66548 -2.79458 0
M  V30 56547 P 6034.04 8.03563 -3.84925 0
M  V30 56548 O 6033.82 8.85821 -5.0569 0
M  V30 56549 O 6033.25 8.41101 -2.65469 0
M  V30 56550 O 6033.79 6.4965 -4.18908 0
M  V30 56551 C 6034.73 5.81037 -5.05421 0
M  V30 56552 C 6034 4.78366 -5.89277 0
M  V30 56553 O 6033.79 3.58302 -5.08433 0
M  V30 56554 C 6032.6 5.17448 -6.36119 0
M  V30 56555 O 6032.21 4.45271 -7.53232 0
M  V30 56556 C 6031.72 4.74639 -5.19936 0
M  V30 56557 C 6032.43 3.49432 -4.70418 0
M  V30 56558 N 6032.38 3.31776 -3.22945 0
M  V30 56559 H 6035.22 6.54213 -5.71376 0
M  V30 56560 H 6035.5 5.30492 -4.44033 0
M  V30 56561 H 6034.63 4.55889 -6.76652 0
M  V30 56562 P 6030.66 4.23843 -7.83734 0
M  V30 56563 O 6030.44 4.19407 -9.29784 0
M  V30 56564 O 6029.87 5.24426 -7.09156 0
M  V30 56565 O 6030.41 2.7935 -7.20758 0
M  V30 56566 C 6031.35 1.7299 -7.50419 0
M  V30 56567 C 6030.62 0.406376 -7.57911 0
M  V30 56568 O 6030.41 -0.0897726 -6.21935 0
M  V30 56569 C 6029.22 0.447224 -8.1878 0
M  V30 56570 O 6028.83 -0.825065 -8.71101 0
M  V30 56571 C 6028.34 0.783801 -6.99623 0
M  V30 56572 C 6029.05 0.0619192 -5.85967 0
M  V30 56573 N 6029 0.7859 -4.56281 0
M  V30 56574 C 6029.08 2.14308 -4.31736 0
M  V30 56575 N 6029 2.46106 -3.05116 0
M  V30 56576 C 6028.86 1.23422 -2.4014 0
M  V30 56577 C 6028.73 0.938381 -1.02409 0
M  V30 56578 N 6028.61 -0.444647 -0.805413 0
M  V30 56579 C 6028.61 -1.40829 -1.79435 0
M  V30 56580 N 6028.48 -2.67213 -1.38558 0
M  V30 56581 N 6028.74 -1.12947 -3.09005 0
M  V30 56582 C 6028.86 0.204887 -3.32369 0
M  V30 56583 H 6031.84 1.93423 -8.4679 0
M  V30 56584 H 6032.12 1.68181 -6.71046 0
M  V30 56585 H 6031.25 -0.289041 -8.15388 0
M  V30 56586 P 6027.28 -1.17771 -8.83182 0
M  V30 56587 O 6027.06 -2.07206 -9.98732 0
M  V30 56588 O 6026.49 0.0743816 -8.81969 0
M  V30 56589 O 6027.03 -1.97652 -7.47304 0
M  V30 56590 C 6027.97 -3.01133 -7.08783 0
M  V30 56591 C 6027.24 -4.12613 -6.37049 0
M  V30 56592 O 6027.03 -3.72827 -4.97879 0
M  V30 56593 C 6025.84 -4.45085 -6.88694 0
M  V30 56594 O 6025.45 -5.7877 -6.5624 0
M  V30 56595 C 6024.96 -3.47817 -6.12078 0
M  V30 56596 C 6025.67 -3.39414 -4.77697 0
M  V30 56597 N 6025.62 -2.04615 -4.15333 0
M  V30 56598 C 6025.7 -0.803897 -4.75249 0
M  V30 56599 N 6025.62 0.197615 -3.91502 0
M  V30 56600 C 6025.48 -0.413002 -2.66823 0
M  V30 56601 C 6025.35 0.157221 -1.38007 0
M  V30 56602 N 6025.23 -0.833136 -0.390236 0
M  V30 56603 C 6025.23 -2.19402 -0.623885 0
M  V30 56604 N 6025.1 -2.97622 0.449677 0
M  V30 56605 N 6025.36 -2.73005 -1.83601 0
M  V30 56606 C 6025.48 -1.78786 -2.80935 0
M  V30 56607 H 6028.46 -3.41248 -7.98759 0
M  V30 56608 H 6028.74 -2.5837 -6.41742 0
M  V30 56609 H 6027.87 -5.02657 -6.42673 0
M  V30 56610 P 6023.9 -6.144 -6.45285 0
M  V30 56611 O 6023.68 -7.54673 -6.86199 0
M  V30 56612 O 6023.11 -5.12391 -7.179 0
M  V30 56613 O 6023.65 -5.99158 -4.88404 0
M  V30 56614 C 6024.59 -6.60234 -3.96415 0
M  V30 56615 C 6023.86 -7.08259 -2.72856 0
M  V30 56616 O 6023.65 -5.9427 -1.83651 0
M  V30 56617 C 6022.46 -7.64886 -2.9555 0
M  V30 56618 O 6022.07 -8.53963 -1.90717 0
M  V30 56619 C 6021.58 -6.4116 -2.90739 0
M  V30 56620 C 6022.29 -5.55375 -1.86963 0
M  V30 56621 N 6022.24 -4.09448 -2.16152 0
M  V30 56622 C 6022.32 -3.46824 -3.37593 0
M  V30 56623 N 6022.25 -2.17422 -3.29777 0
M  V30 56624 C 6022.1 -1.93065 -1.94427 0
M  V30 56625 C 6021.97 -0.738053 -1.20141 0
M  V30 56626 N 6021.96 0.474256 -1.74676 0
M  V30 56627 N 6021.85 -0.850049 0.13045 0
M  V30 56628 C 6021.86 -2.06169 0.676992 0
M  V30 56629 N 6021.98 -3.23842 0.101312 0
M  V30 56630 C 6022.1 -3.09402 -1.23122 0
M  V30 56631 H 6025.08 -7.45574 -4.45629 0
M  V30 56632 H 6025.36 -5.85864 -3.679 0
M  V30 56633 H 6024.49 -7.84412 -2.24479 0
M  V30 56634 H 6021.83 -5.73457 -0.888562 0
M  V30 56635 H 6021.55 -5.90877 -3.88583 0
M  V30 56636 H 6020.56 -6.6596 -2.58858 0
M  V30 56637 H 6022.4 -8.16339 -3.92049 0
M  V30 56638 H 6022.44 -4.00505 -4.3174 0
M  V30 56639 H 6022.06 0.581337 -2.76658 0
M  V30 56640 H 6021.87 1.30811 -1.14888 0
M  V30 56641 H 6021.76 -2.08295 1.75542 0
M  V30 56642 P 6020.52 -8.7635 -1.60911 0
M  V30 56643 O 6020.3 -10.1388 -1.11561 0
M  V30 56644 O 6019.73 -8.36503 -2.79617 0
M  V30 56645 O 6020.27 -7.71806 -0.42951 0
M  V30 56646 C 6021.21 -7.67148 0.673689 0
M  V30 56647 C 6020.48 -7.33374 1.95559 0
M  V30 56648 O 6020.27 -5.88721 2.00726 0
M  V30 56649 C 6019.08 -7.92526 2.10483 0
M  V30 56650 O 6018.69 -8.02971 3.47653 0
M  V30 56651 C 6018.2 -6.89602 1.41652 0
M  V30 56652 C 6018.91 -5.59201 1.75185 0
M  V30 56653 N 6018.86 -4.58235 0.662552 0
M  V30 56654 H 6021.7 -8.65116 0.777161 0
M  V30 56655 H 6021.98 -6.90173 0.474152 0
M  V30 56656 H 6021.11 -7.66548 2.79458 0
M  V30 56657 P 6017.14 -8.03563 3.84925 0
M  V30 56658 O 6016.92 -8.85821 5.0569 0
M  V30 56659 O 6016.35 -8.41101 2.65469 0
M  V30 56660 O 6016.89 -6.4965 4.18908 0
M  V30 56661 C 6017.83 -5.80886 5.05289 0
M  V30 56662 C 6017.1 -4.78366 5.89277 0
M  V30 56663 O 6016.89 -3.58302 5.08433 0
M  V30 56664 C 6015.7 -5.16748 6.36559 0
M  V30 56665 O 6015.31 -4.45271 7.53232 0
M  V30 56666 C 6014.82 -4.74572 5.19863 0
M  V30 56667 C 6015.53 -3.49373 4.70338 0
M  V30 56668 N 6015.48 -3.31704 3.22876 0
M  V30 56669 C 6015.33 -2.03326 2.74871 0
M  V30 56670 O 6015.24 -1.06486 3.48076 0
M  V30 56671 N 6015.29 -1.91838 1.37456 0
M  V30 56672 C 6015.38 -2.94295 0.462035 0
M  V30 56673 C 6015.53 -4.25064 1.05249 0
M  V30 56674 C 6015.58 -4.40214 2.39192 0
M  V30 56675 H 6018.33 -6.54063 5.71245 0
M  V30 56676 H 6018.59 -5.30339 4.43905 0
M  V30 56677 H 6017.73 -4.55889 6.76652 0
M  V30 56678 H 6015.07 -2.6167 5.17842 0
M  V30 56679 H 6014.79 -5.52155 4.41878 0
M  V30 56680 H 6013.8 -4.51918 5.53297 0
M  V30 56681 H 6015.64 -6.25055 6.55162 0
M  V30 56682 H 6015.71 -5.39798 2.81523 0
M  V30 56683 P 6013.76 -4.23843 7.83734 0
M  V30 56684 O 6013.54 -4.19407 9.29784 0
M  V30 56685 O 6012.97 -5.24426 7.09156 0
M  V30 56686 O 6013.51 -2.7935 7.20758 0
M  V30 56687 C 6014.45 -1.7299 7.50419 0
M  V30 56688 C 6013.72 -0.406376 7.57911 0
M  V30 56689 O 6013.51 0.0897726 6.21935 0
M  V30 56690 C 6012.32 -0.447224 8.1878 0
M  V30 56691 O 6011.93 0.825065 8.71101 0
M  V30 56692 C 6011.44 -0.783801 6.99623 0
M  V30 56693 C 6012.15 -0.0619192 5.85967 0
M  V30 56694 N 6012.1 -0.7859 4.56281 0
M  V30 56695 C 6012.18 -2.14308 4.31736 0
M  V30 56696 N 6012.1 -2.46106 3.05116 0
M  V30 56697 C 6011.96 -1.23422 2.4014 0
M  V30 56698 C 6011.83 -0.938381 1.02409 0
M  V30 56699 O 6011.81 -1.70876 0.0650402 0
M  V30 56700 N 6011.71 0.444647 0.805413 0
M  V30 56701 C 6011.71 1.40829 1.79435 0
M  V30 56702 N 6011.58 2.67213 1.38558 0
M  V30 56703 N 6011.84 1.12947 3.09005 0
M  V30 56704 C 6011.96 -0.204887 3.32369 0
M  V30 56705 H 6014.94 -1.93423 8.4679 0
M  V30 56706 H 6015.22 -1.68181 6.71046 0
M  V30 56707 H 6014.35 0.289041 8.15388 0
M  V30 56708 H 6011.69 0.927166 5.72947 0
M  V30 56709 H 6011.41 -1.87 6.82132 0
M  V30 56710 H 6010.42 -0.404009 7.13457 0
M  V30 56711 H 6012.26 -1.20612 8.97633 0
M  V30 56712 H 6012.3 -2.88284 5.10874 0
M  V30 56713 H 6011.62 0.755087 -0.140242 0
M  V30 56714 H 6011.59 3.43967 2.0729 0
M  V30 56715 H 6011.48 2.88096 0.380644 0
M  V30 56716 P 6010.38 1.17771 8.83182 0
M  V30 56717 O 6010.16 2.07206 9.98732 0
M  V30 56718 O 6009.59 -0.0743816 8.81969 0
M  V30 56719 O 6010.13 1.97678 7.474 0
M  V30 56720 C 6011.07 3.01133 7.08783 0
M  V30 56721 C 6010.34 4.1203 6.37546 0
M  V30 56722 O 6010.13 3.72887 4.9796 0
M  V30 56723 C 6008.94 4.45085 6.88694 0
M  V30 56724 O 6008.55 5.78836 6.56315 0
M  V30 56725 C 6008.06 3.47817 6.12078 0
M  V30 56726 C 6008.77 3.39414 4.77697 0
M  V30 56727 N 6008.72 2.04615 4.15333 0
M  V30 56728 C 6008.57 1.96929 2.77162 0
M  V30 56729 O 6008.48 3.02017 2.12006 0
M  V30 56730 N 6008.52 0.55485 2.24237 0
M  V30 56731 C 6008.62 -0.367808 2.9169 0
M  V30 56732 N 6008.57 -1.53426 2.29427 0
M  V30 56733 C 6008.77 -0.319148 4.33828 0
M  V30 56734 C 6008.82 0.920672 4.90433 0
M  V30 56735 H 6011.56 3.41209 7.98667 0
M  V30 56736 H 6011.83 2.5837 6.41742 0
M  V30 56737 H 6010.97 5.02718 6.42752 0
M  V30 56738 H 6008.31 4.11779 4.09026 0
M  V30 56739 H 6008.03 2.49661 6.61772 0
M  V30 56740 H 6007.04 3.86674 6.00946 0
M  V30 56741 H 6008.88 4.29991 7.97006 0
M  V30 56742 H 6008.95 1.00589 5.98303 0
M  V30 56743 H 6008.85 -1.22639 4.93799 0
M  V30 56744 H 6008.46 -1.56819 1.27167 0
M  V30 56745 H 6008.65 -2.41062 2.83063 0
M  V30 56746 P 6007 6.144 6.45285 0
M  V30 56747 O 6006.78 7.54673 6.86199 0
M  V30 56748 O 6006.21 5.12391 7.179 0
M  V30 56749 O 6006.75 5.99158 4.88404 0
M  V30 56750 C 6007.69 6.60234 3.96415 0
M  V30 56751 C 6006.96 7.08259 2.72856 0
M  V30 56752 O 6006.75 5.9427 1.83651 0
M  V30 56753 C 6005.56 7.64886 2.9555 0
M  V30 56754 O 6005.17 8.53963 1.90717 0
M  V30 56755 C 6004.68 6.4116 2.90739 0
M  V30 56756 C 6005.39 5.55375 1.86963 0
M  V30 56757 N 6005.34 4.09664 2.15742 0
M  V30 56758 H 6008.18 7.45574 4.45629 0
M  V30 56759 H 6008.46 5.86232 3.67314 0
M  V30 56760 H 6007.59 7.84412 2.24479 0
M  V30 56761 P 6003.62 8.7635 1.60911 0
M  V30 56762 O 6003.4 10.1388 1.11561 0
M  V30 56763 O 6002.83 8.36503 2.79617 0
M  V30 56764 O 6003.37 7.71806 0.42951 0
M  V30 56765 C 6004.31 7.67148 -0.673689 0
M  V30 56766 C 6003.58 7.33374 -1.95559 0
M  V30 56767 O 6003.37 5.88721 -2.00726 0
M  V30 56768 C 6002.18 7.92526 -2.10483 0
M  V30 56769 O 6001.79 8.02971 -3.47653 0
M  V30 56770 C 6001.3 6.89602 -1.41652 0
M  V30 56771 C 6002.01 5.59201 -1.75185 0
M  V30 56772 N 6001.96 4.58301 -0.657969 0
M  V30 56773 H 6004.8 8.65116 -0.777161 0
M  V30 56774 H 6005.08 6.9022 -0.46725 0
M  V30 56775 H 6004.21 7.66548 -2.79458 0
M  V30 56776 H 6001.55 5.16165 -2.65183 0
M  V30 56777 H 6001.27 7.06433 -0.329384 0
M  V30 56778 H 6000.28 6.90926 -1.82021 0
M  V30 56779 H 6002.12 8.90873 -1.62657 0
M  V30 56780 P 6000.24 8.03563 -3.84925 0
M  V30 56781 O 6000.02 8.85821 -5.0569 0
M  V30 56782 O 5999.45 8.41101 -2.65469 0
M  V30 56783 O 5999.99 6.4965 -4.18908 0
M  V30 56784 C 6000.93 5.81037 -5.05421 0
M  V30 56785 C 6000.2 4.78366 -5.89277 0
M  V30 56786 O 5999.99 3.58302 -5.08433 0
M  V30 56787 C 5998.8 5.17448 -6.36119 0
M  V30 56788 O 5998.41 4.45271 -7.53232 0
M  V30 56789 C 5997.92 4.74639 -5.19936 0
M  V30 56790 C 5998.63 3.49432 -4.70418 0
M  V30 56791 N 5998.58 3.31776 -3.22945 0
M  V30 56792 H 6001.42 6.54213 -5.71376 0
M  V30 56793 H 6001.7 5.30492 -4.44033 0
M  V30 56794 H 6000.83 4.55889 -6.76652 0
M  V30 56795 P 5996.86 4.23843 -7.83734 0
M  V30 56796 O 5996.64 4.19407 -9.29784 0
M  V30 56797 O 5996.07 5.24426 -7.09156 0
M  V30 56798 O 5996.61 2.7935 -7.20758 0
M  V30 56799 C 5997.55 1.72945 -7.50224 0
M  V30 56800 C 5996.82 0.406376 -7.57911 0
M  V30 56801 O 5996.61 -0.0897726 -6.21935 0
M  V30 56802 C 5995.42 0.438983 -8.18724 0
M  V30 56803 O 5995.03 -0.825065 -8.71101 0
M  V30 56804 C 5994.54 0.783689 -6.99524 0
M  V30 56805 C 5995.25 0.0619086 -5.85867 0
M  V30 56806 N 5995.2 0.78573 -4.56183 0
M  V30 56807 C 5995.05 0.0292889 -3.41887 0
M  V30 56808 O 5994.96 -1.18445 -3.4419 0
M  V30 56809 N 5995.01 0.744061 -2.23964 0
M  V30 56810 C 5995.1 2.10932 -2.10362 0
M  V30 56811 O 5995.05 2.64117 -0.98825 0
M  V30 56812 C 5995.25 2.8202 -3.34994 0
M  V30 56813 C 5995.36 4.31095 -3.25037 0
M  V30 56814 C 5995.3 2.15547 -4.52261 0
M  V30 56815 H 5998.05 1.93379 -8.46595 0
M  V30 56816 H 5998.31 1.68132 -6.70852 0
M  V30 56817 H 5997.45 -0.289041 -8.15388 0
M  V30 56818 H 5994.79 -0.926847 -5.72749 0
M  V30 56819 H 5994.51 1.86973 -6.82036 0
M  V30 56820 H 5993.52 0.403896 -7.13257 0
M  V30 56821 H 5995.36 1.20585 -8.97435 0
M  V30 56822 H 5995.43 2.71231 -5.45042 0
M  V30 56823 H 5994.4 4.76966 -3.49992 0
M  V30 56824 H 5996.13 4.67047 -3.95024 0
M  V30 56825 H 5995.65 4.58996 -2.22312 0
M  V30 56826 H 5994.91 0.214893 -1.39758 0
M  V30 56827 P 5993.48 -1.17771 -8.83182 0
M  V30 56828 O 5993.26 -2.07206 -9.98732 0
M  V30 56829 O 5992.69 0.0743816 -8.81969 0
M  V30 56830 O 5993.23 -1.97652 -7.47304 0
M  V30 56831 C 5994.17 -3.01133 -7.08783 0
M  V30 56832 C 5993.44 -4.12613 -6.37049 0
M  V30 56833 O 5993.23 -3.72827 -4.97879 0
M  V30 56834 C 5992.04 -4.45085 -6.88694 0
M  V30 56835 O 5991.65 -5.7877 -6.5624 0
M  V30 56836 C 5991.16 -3.47817 -6.12078 0
M  V30 56837 C 5991.87 -3.39414 -4.77697 0
M  V30 56838 N 5991.82 -2.04199 -4.15538 0
M  V30 56839 H 5994.66 -3.41248 -7.98759 0
M  V30 56840 H 5994.94 -2.57728 -6.42 0
M  V30 56841 H 5994.07 -5.02657 -6.42673 0
M  V30 56842 H 5991.41 -4.11708 -4.08956 0
M  V30 56843 H 5991.13 -2.49626 -6.61679 0
M  V30 56844 H 5990.14 -3.8662 -6.00862 0
M  V30 56845 H 5991.98 -4.29991 -7.97006 0
M  V30 56846 P 5990.1 -6.144 -6.45285 0
M  V30 56847 O 5989.88 -7.54673 -6.86199 0
M  V30 56848 O 5989.31 -5.12391 -7.179 0
M  V30 56849 O 5989.85 -5.99158 -4.88404 0
M  V30 56850 C 5990.79 -6.60234 -3.96415 0
M  V30 56851 C 5990.06 -7.08259 -2.72856 0
M  V30 56852 O 5989.85 -5.9427 -1.83651 0
M  V30 56853 C 5988.66 -7.64886 -2.9555 0
M  V30 56854 O 5988.27 -8.53963 -1.90717 0
M  V30 56855 C 5987.78 -6.4116 -2.90739 0
M  V30 56856 C 5988.49 -5.55375 -1.86963 0
M  V30 56857 N 5988.44 -4.09664 -2.15742 0
M  V30 56858 H 5991.28 -7.45574 -4.45629 0
M  V30 56859 H 5991.56 -5.86232 -3.67314 0
M  V30 56860 H 5990.69 -7.84412 -2.24479 0
M  V30 56861 P 5986.72 -8.7635 -1.60911 0
M  V30 56862 O 5986.5 -10.1388 -1.11561 0
M  V30 56863 O 5985.93 -8.36503 -2.79617 0
M  V30 56864 O 5986.47 -7.71806 -0.42951 0
M  V30 56865 C 5987.41 -7.67148 0.673689 0
M  V30 56866 C 5986.68 -7.33374 1.95559 0
M  V30 56867 O 5986.47 -5.88721 2.00726 0
M  V30 56868 C 5985.28 -7.92526 2.10483 0
M  V30 56869 O 5984.89 -8.02971 3.47653 0
M  V30 56870 C 5984.4 -6.89602 1.41652 0
M  V30 56871 C 5985.11 -5.59201 1.75185 0
M  V30 56872 N 5985.06 -4.58235 0.662552 0
M  V30 56873 H 5987.9 -8.65116 0.777161 0
M  V30 56874 H 5988.18 -6.90173 0.474152 0
M  V30 56875 H 5987.31 -7.66548 2.79458 0
M  V30 56876 P 5983.34 -8.03563 3.84925 0
M  V30 56877 O 5983.12 -8.85821 5.0569 0
M  V30 56878 O 5982.55 -8.41101 2.65469 0
M  V30 56879 O 5983.09 -6.4965 4.18908 0
M  V30 56880 C 5984.03 -5.81037 5.05421 0
M  V30 56881 C 5983.3 -4.78366 5.89277 0
M  V30 56882 O 5983.09 -3.58302 5.08433 0
M  V30 56883 C 5981.9 -5.17448 6.36119 0
M  V30 56884 O 5981.51 -4.45271 7.53232 0
M  V30 56885 C 5981.02 -4.74639 5.19936 0
M  V30 56886 C 5981.73 -3.49432 4.70418 0
M  V30 56887 N 5981.68 -3.31776 3.22945 0
M  V30 56888 H 5984.52 -6.54213 5.71376 0
M  V30 56889 H 5984.8 -5.30492 4.44033 0
M  V30 56890 H 5983.93 -4.55889 6.76652 0
M  V30 56891 P 5979.96 -4.23843 7.83734 0
M  V30 56892 O 5979.74 -4.19407 9.29784 0
M  V30 56893 O 5979.17 -5.24426 7.09156 0
M  V30 56894 O 5979.71 -2.7935 7.20758 0
M  V30 56895 C 5980.65 -1.7299 7.50419 0
M  V30 56896 C 5979.92 -0.406376 7.57911 0
M  V30 56897 O 5979.71 0.0897726 6.21935 0
M  V30 56898 C 5978.52 -0.447224 8.1878 0
M  V30 56899 O 5978.13 0.825065 8.71101 0
M  V30 56900 C 5977.64 -0.783801 6.99623 0
M  V30 56901 C 5978.35 -0.0619192 5.85967 0
M  V30 56902 N 5978.3 -0.7859 4.56281 0
M  V30 56903 H 5981.14 -1.93423 8.4679 0
M  V30 56904 H 5981.42 -1.68181 6.71046 0
M  V30 56905 H 5980.55 0.289041 8.15388 0
M  V30 56906 P 5976.58 1.17771 8.83182 0
M  V30 56907 O 5976.36 2.07206 9.98732 0
M  V30 56908 O 5975.79 -0.0743816 8.81969 0
M  V30 56909 O 5976.33 1.97652 7.47304 0
M  V30 56910 C 5977.27 3.01133 7.08783 0
M  V30 56911 C 5976.54 4.12613 6.37049 0
M  V30 56912 O 5976.33 3.72827 4.97879 0
M  V30 56913 C 5975.14 4.45085 6.88694 0
M  V30 56914 O 5974.75 5.7877 6.5624 0
M  V30 56915 C 5974.26 3.47817 6.12078 0
M  V30 56916 C 5974.97 3.39414 4.77697 0
M  V30 56917 N 5974.92 2.04199 4.15538 0
M  V30 56918 H 5977.76 3.41248 7.98759 0
M  V30 56919 H 5978.04 2.57728 6.42 0
M  V30 56920 H 5977.17 5.02657 6.42673 0
M  V30 56921 H 5974.51 4.11708 4.08956 0
M  V30 56922 H 5974.23 2.49626 6.61679 0
M  V30 56923 H 5973.24 3.8662 6.00862 0
M  V30 56924 H 5975.08 4.29991 7.97006 0
M  V30 56925 P 5973.2 6.144 6.45285 0
M  V30 56926 O 5972.98 7.54673 6.86199 0
M  V30 56927 O 5972.41 5.12391 7.179 0
M  V30 56928 O 5972.95 5.99158 4.88404 0
M  V30 56929 C 5973.89 6.60234 3.96415 0
M  V30 56930 C 5973.16 7.08259 2.72856 0
M  V30 56931 O 5972.95 5.9427 1.83651 0
M  V30 56932 C 5971.76 7.64886 2.9555 0
M  V30 56933 O 5971.37 8.53963 1.90717 0
M  V30 56934 C 5970.88 6.4116 2.90739 0
M  V30 56935 C 5971.59 5.55375 1.86963 0
M  V30 56936 N 5971.54 4.09664 2.15742 0
M  V30 56937 H 5974.38 7.45574 4.45629 0
M  V30 56938 H 5974.66 5.86232 3.67314 0
M  V30 56939 H 5973.79 7.84412 2.24479 0
M  V30 56940 P 5969.82 8.7635 1.60911 0
M  V30 56941 O 5969.6 10.1388 1.11561 0
M  V30 56942 O 5969.03 8.36503 2.79617 0
M  V30 56943 O 5969.57 7.71806 0.42951 0
M  V30 56944 C 5970.51 7.67148 -0.673689 0
M  V30 56945 C 5969.78 7.33374 -1.95559 0
M  V30 56946 O 5969.57 5.88721 -2.00726 0
M  V30 56947 C 5968.38 7.92526 -2.10483 0
M  V30 56948 O 5967.99 8.02971 -3.47653 0
M  V30 56949 C 5967.5 6.89602 -1.41652 0
M  V30 56950 C 5968.21 5.59201 -1.75185 0
M  V30 56951 N 5968.16 4.58301 -0.657969 0
M  V30 56952 H 5971 8.65116 -0.777161 0
M  V30 56953 H 5971.28 6.9022 -0.46725 0
M  V30 56954 H 5970.41 7.66548 -2.79458 0
M  V30 56955 H 5967.75 5.16165 -2.65183 0
M  V30 56956 H 5967.47 7.06433 -0.329384 0
M  V30 56957 H 5966.48 6.90926 -1.82021 0
M  V30 56958 H 5968.32 8.90873 -1.62657 0
M  V30 56959 P 5966.44 8.03563 -3.84925 0
M  V30 56960 O 5966.22 8.85821 -5.0569 0
M  V30 56961 O 5965.65 8.41101 -2.65469 0
M  V30 56962 O 5966.19 6.4965 -4.18908 0
M  V30 56963 C 5967.13 5.81037 -5.05421 0
M  V30 56964 C 5966.4 4.78366 -5.89277 0
M  V30 56965 O 5966.19 3.58302 -5.08433 0
M  V30 56966 C 5965 5.17448 -6.36119 0
M  V30 56967 O 5964.61 4.45271 -7.53232 0
M  V30 56968 C 5964.12 4.74639 -5.19936 0
M  V30 56969 C 5964.83 3.49432 -4.70418 0
M  V30 56970 N 5964.78 3.32099 -3.22613 0
M  V30 56971 H 5967.62 6.54213 -5.71376 0
M  V30 56972 H 5967.9 5.30936 -4.43503 0
M  V30 56973 H 5967.03 4.55889 -6.76652 0
M  V30 56974 H 5964.37 2.61715 -5.17932 0
M  V30 56975 H 5964.09 5.52155 -4.41878 0
M  V30 56976 H 5963.1 4.51981 -5.53374 0
M  V30 56977 H 5964.94 6.25124 -6.55234 0
M  V30 56978 P 5963.06 4.23843 -7.83734 0
M  V30 56979 O 5962.84 4.19407 -9.29784 0
M  V30 56980 O 5962.27 5.24426 -7.09156 0
M  V30 56981 O 5962.81 2.79386 -7.20852 0
M  V30 56982 C 5963.75 1.7299 -7.50419 0
M  V30 56983 C 5963.02 0.41401 -7.5797 0
M  V30 56984 O 5962.81 -0.089787 -6.22035 0
M  V30 56985 C 5961.62 0.447224 -8.1878 0
M  V30 56986 O 5961.23 -0.825159 -8.71201 0
M  V30 56987 C 5960.74 0.783801 -6.99623 0
M  V30 56988 C 5961.45 0.0619192 -5.85967 0
M  V30 56989 N 5961.4 0.7859 -4.56281 0
M  V30 56990 C 5961.25 0.0359258 -3.39981 0
M  V30 56991 O 5961.16 -1.19723 -3.49038 0
M  V30 56992 N 5961.2 0.869151 -2.14025 0
M  V30 56993 C 5961.3 2.01207 -2.14363 0
M  V30 56994 N 5961.25 2.58978 -0.954287 0
M  V30 56995 C 5961.45 2.80817 -3.32215 0
M  V30 56996 C 5961.5 2.13785 -4.50884 0
M  V30 56997 H 5964.24 1.93401 -8.46693 0
M  V30 56998 H 5964.51 1.68181 -6.71046 0
M  V30 56999 H 5963.65 -0.289076 -8.15488 0
M  V30 57000 H 5960.99 -0.927166 -5.72947 0
M  V30 57001 H 5960.71 1.87 -6.82132 0
M  V30 57002 H 5959.72 0.404009 -7.13457 0
M  V30 57003 H 5961.56 1.20599 -8.97534 0
M  V30 57004 H 5961.63 2.70295 -5.43162 0
M  V30 57005 H 5961.53 3.89465 -3.27406 0
M  V30 57006 H 5961.14 2.01616 -0.107046 0
M  V30 57007 H 5961.33 3.61403 -0.873101 0
M  V30 57008 P 5959.68 -1.17771 -8.83182 0
M  V30 57009 O 5959.46 -2.07206 -9.98732 0
M  V30 57010 O 5958.89 0.0743816 -8.81969 0
M  V30 57011 O 5959.43 -1.97652 -7.47304 0
M  V30 57012 C 5960.37 -3.01133 -7.08783 0
M  V30 57013 C 5959.64 -4.12613 -6.37049 0
M  V30 57014 O 5959.43 -3.72827 -4.97879 0
M  V30 57015 C 5958.24 -4.45085 -6.88694 0
M  V30 57016 O 5957.85 -5.7877 -6.5624 0
M  V30 57017 C 5957.36 -3.47817 -6.12078 0
M  V30 57018 C 5958.07 -3.39414 -4.77697 0
M  V30 57019 N 5958.02 -2.04615 -4.15333 0
M  V30 57020 H 5960.86 -3.41248 -7.98759 0
M  V30 57021 H 5961.14 -2.5837 -6.41742 0
M  V30 57022 H 5960.27 -5.02657 -6.42673 0
M  V30 57023 P 5956.3 -6.144 -6.45285 0
M  V30 57024 O 5956.08 -7.54673 -6.86199 0
M  V30 57025 O 5955.51 -5.12391 -7.179 0
M  V30 57026 O 5956.05 -5.99158 -4.88404 0
M  V30 57027 C 5956.99 -6.60234 -3.96415 0
M  V30 57028 C 5956.26 -7.08259 -2.72856 0
M  V30 57029 O 5956.05 -5.9427 -1.83651 0
M  V30 57030 C 5954.86 -7.64886 -2.9555 0
M  V30 57031 O 5954.47 -8.53963 -1.90717 0
M  V30 57032 C 5953.98 -6.4116 -2.90739 0
M  V30 57033 C 5954.69 -5.55375 -1.86963 0
M  V30 57034 N 5954.64 -4.09664 -2.15742 0
M  V30 57035 H 5957.48 -7.45574 -4.45629 0
M  V30 57036 H 5957.76 -5.86232 -3.67314 0
M  V30 57037 H 5956.89 -7.84412 -2.24479 0
M  V30 57038 P 5952.92 -8.7635 -1.60911 0
M  V30 57039 O 5952.7 -10.1388 -1.11561 0
M  V30 57040 O 5952.13 -8.36503 -2.79617 0
M  V30 57041 O 5952.67 -7.71806 -0.42951 0
M  V30 57042 C 5953.61 -7.67148 0.673689 0
M  V30 57043 C 5952.88 -7.33374 1.95559 0
M  V30 57044 O 5952.67 -5.88721 2.00726 0
M  V30 57045 C 5951.48 -7.92526 2.10483 0
M  V30 57046 O 5951.09 -8.02971 3.47653 0
M  V30 57047 C 5950.6 -6.89602 1.41652 0
M  V30 57048 C 5951.31 -5.59201 1.75185 0
M  V30 57049 N 5951.26 -4.58235 0.662552 0
M  V30 57050 H 5954.1 -8.65116 0.777161 0
M  V30 57051 H 5954.38 -6.90173 0.474152 0
M  V30 57052 H 5953.51 -7.66548 2.79458 0
M  V30 57053 P 5949.54 -8.03563 3.84925 0
M  V30 57054 O 5949.32 -8.85821 5.0569 0
M  V30 57055 O 5948.75 -8.41101 2.65469 0
M  V30 57056 O 5949.29 -6.4965 4.18908 0
M  V30 57057 C 5950.23 -5.81037 5.05421 0
M  V30 57058 C 5949.5 -4.78366 5.89277 0
M  V30 57059 O 5949.29 -3.58302 5.08433 0
M  V30 57060 C 5948.1 -5.17448 6.36119 0
M  V30 57061 O 5947.71 -4.45271 7.53232 0
M  V30 57062 C 5947.22 -4.74639 5.19936 0
M  V30 57063 C 5947.93 -3.49432 4.70418 0
M  V30 57064 N 5947.88 -3.32099 3.22613 0
M  V30 57065 H 5950.72 -6.54213 5.71376 0
M  V30 57066 H 5951 -5.30936 4.43503 0
M  V30 57067 H 5950.13 -4.55889 6.76652 0
M  V30 57068 H 5947.47 -2.61715 5.17932 0
M  V30 57069 H 5947.19 -5.52155 4.41878 0
M  V30 57070 H 5946.2 -4.51981 5.53374 0
M  V30 57071 H 5948.04 -6.25124 6.55234 0
M  V30 57072 P 5946.16 -4.23843 7.83734 0
M  V30 57073 O 5945.94 -4.19407 9.29784 0
M  V30 57074 O 5945.37 -5.24426 7.09156 0
M  V30 57075 O 5945.91 -2.7935 7.20758 0
M  V30 57076 C 5946.85 -1.7299 7.50419 0
M  V30 57077 C 5946.12 -0.406376 7.57911 0
M  V30 57078 O 5945.91 0.0897726 6.21935 0
M  V30 57079 C 5944.72 -0.447224 8.1878 0
M  V30 57080 O 5944.33 0.825065 8.71101 0
M  V30 57081 C 5943.84 -0.783801 6.99623 0
M  V30 57082 C 5944.55 -0.0619192 5.85967 0
M  V30 57083 N 5944.5 -0.7859 4.56281 0
M  V30 57084 H 5947.34 -1.93423 8.4679 0
M  V30 57085 H 5947.62 -1.68181 6.71046 0
M  V30 57086 H 5946.75 0.289041 8.15388 0
M  V30 57087 P 5942.78 1.17771 8.83182 0
M  V30 57088 O 5942.56 2.07206 9.98732 0
M  V30 57089 O 5941.99 -0.0743816 8.81969 0
M  V30 57090 O 5942.53 1.97652 7.47304 0
M  V30 57091 C 5943.47 3.01133 7.08783 0
M  V30 57092 C 5942.74 4.12613 6.37049 0
M  V30 57093 O 5942.53 3.72827 4.97879 0
M  V30 57094 C 5941.34 4.45085 6.88694 0
M  V30 57095 O 5940.95 5.7877 6.5624 0
M  V30 57096 C 5940.46 3.47817 6.12078 0
M  V30 57097 C 5941.17 3.39414 4.77697 0
M  V30 57098 N 5941.12 2.04615 4.15333 0
M  V30 57099 H 5943.96 3.41248 7.98759 0
M  V30 57100 H 5944.24 2.5837 6.41742 0
M  V30 57101 H 5943.37 5.02657 6.42673 0
M  V30 57102 P 5939.4 6.144 6.45285 0
M  V30 57103 O 5939.18 7.54673 6.86199 0
M  V30 57104 O 5938.61 5.12391 7.179 0
M  V30 57105 O 5939.15 5.99236 4.88467 0
M  V30 57106 C 5940.09 6.60234 3.96415 0
M  V30 57107 C 5939.36 7.08079 2.736 0
M  V30 57108 O 5939.15 5.94365 1.8368 0
M  V30 57109 C 5937.96 7.64886 2.9555 0
M  V30 57110 O 5937.57 8.5406 1.90739 0
M  V30 57111 C 5937.08 6.4116 2.90739 0
M  V30 57112 C 5937.79 5.55375 1.86963 0
M  V30 57113 N 5937.74 4.09664 2.15742 0
M  V30 57114 C 5937.59 3.22231 1.08477 0
M  V30 57115 O 5937.5 3.68951 -0.0600489 0
M  V30 57116 N 5937.54 1.76692 1.48799 0
M  V30 57117 C 5937.64 1.41695 2.57602 0
M  V30 57118 N 5937.59 0.107296 2.75791 0
M  V30 57119 C 5937.79 2.29178 3.69733 0
M  V30 57120 C 5937.84 3.62753 3.42653 0
M  V30 57121 H 5940.58 7.45488 4.45578 0
M  V30 57122 H 5940.85 5.86232 3.67314 0
M  V30 57123 H 5939.99 7.84508 2.24507 0
M  V30 57124 H 5937.33 5.73556 0.888715 0
M  V30 57125 H 5937.05 5.9096 3.88638 0
M  V30 57126 H 5936.06 6.66053 2.58894 0
M  V30 57127 H 5937.9 8.16339 3.92049 0
M  V30 57128 H 5937.97 4.33052 4.24913 0
M  V30 57129 H 5937.87 1.9103 4.71577 0
M  V30 57130 H 5937.48 -0.521221 1.95056 0
M  V30 57131 H 5937.67 -0.286429 3.70695 0
M  V30 57132 P 5936.02 8.7635 1.60911 0
M  V30 57133 O 5935.8 10.1388 1.11561 0
M  V30 57134 O 5935.23 8.36503 2.79617 0
M  V30 57135 O 5935.77 7.71806 0.42951 0
M  V30 57136 C 5936.71 7.67148 -0.673689 0
M  V30 57137 C 5935.98 7.33374 -1.95559 0
M  V30 57138 O 5935.77 5.88721 -2.00726 0
M  V30 57139 C 5934.58 7.92526 -2.10483 0
M  V30 57140 O 5934.19 8.02971 -3.47653 0
M  V30 57141 C 5933.7 6.89602 -1.41652 0
M  V30 57142 C 5934.41 5.59201 -1.75185 0
M  V30 57143 N 5934.36 4.58235 -0.662552 0
M  V30 57144 H 5937.2 8.65116 -0.777161 0
M  V30 57145 H 5937.48 6.90173 -0.474152 0
M  V30 57146 H 5936.61 7.66548 -2.79458 0
M  V30 57147 P 5932.64 8.03563 -3.84925 0
M  V30 57148 O 5932.42 8.85821 -5.0569 0
M  V30 57149 O 5931.85 8.41101 -2.65469 0
M  V30 57150 O 5932.39 6.4965 -4.18908 0
M  V30 57151 C 5933.33 5.81037 -5.05421 0
M  V30 57152 C 5932.6 4.78366 -5.89277 0
M  V30 57153 O 5932.39 3.58302 -5.08433 0
M  V30 57154 C 5931.2 5.17448 -6.36119 0
M  V30 57155 O 5930.81 4.45271 -7.53232 0
M  V30 57156 C 5930.32 4.74639 -5.19936 0
M  V30 57157 C 5931.03 3.49432 -4.70418 0
M  V30 57158 N 5930.98 3.32099 -3.22613 0
M  V30 57159 H 5933.82 6.54213 -5.71376 0
M  V30 57160 H 5934.1 5.30936 -4.43503 0
M  V30 57161 H 5933.23 4.55889 -6.76652 0
M  V30 57162 H 5930.57 2.61715 -5.17932 0
M  V30 57163 H 5930.29 5.52155 -4.41878 0
M  V30 57164 H 5929.3 4.51981 -5.53374 0
M  V30 57165 H 5931.14 6.25124 -6.55234 0
M  V30 57166 P 5929.26 4.23843 -7.83734 0
M  V30 57167 O 5929.04 4.19407 -9.29784 0
M  V30 57168 O 5928.47 5.24426 -7.09156 0
M  V30 57169 O 5929.01 2.7935 -7.20758 0
M  V30 57170 C 5929.95 1.7299 -7.50419 0
M  V30 57171 C 5929.22 0.406376 -7.57911 0
M  V30 57172 O 5929.01 -0.0897726 -6.21935 0
M  V30 57173 C 5927.82 0.447224 -8.1878 0
M  V30 57174 O 5927.43 -0.825065 -8.71101 0
M  V30 57175 C 5926.94 0.783801 -6.99623 0
M  V30 57176 C 5927.65 0.0619192 -5.85967 0
M  V30 57177 N 5927.6 0.7859 -4.56281 0
M  V30 57178 H 5930.44 1.93423 -8.4679 0
M  V30 57179 H 5930.72 1.68181 -6.71046 0
M  V30 57180 H 5929.85 -0.289041 -8.15388 0
M  V30 57181 P 5925.88 -1.17771 -8.83182 0
M  V30 57182 O 5925.66 -2.07206 -9.98732 0
M  V30 57183 O 5925.09 0.0743816 -8.81969 0
M  V30 57184 O 5925.63 -1.97652 -7.47304 0
M  V30 57185 C 5926.57 -3.01133 -7.08783 0
M  V30 57186 C 5925.84 -4.12613 -6.37049 0
M  V30 57187 O 5925.63 -3.72827 -4.97879 0
M  V30 57188 C 5924.44 -4.45085 -6.88694 0
M  V30 57189 O 5924.05 -5.7877 -6.5624 0
M  V30 57190 C 5923.56 -3.47817 -6.12078 0
M  V30 57191 C 5924.27 -3.39414 -4.77697 0
M  V30 57192 N 5924.22 -2.04615 -4.15333 0
M  V30 57193 H 5927.06 -3.41248 -7.98759 0
M  V30 57194 H 5927.34 -2.5837 -6.41742 0
M  V30 57195 H 5926.47 -5.02657 -6.42673 0
M  V30 57196 P 5922.5 -6.144 -6.45285 0
M  V30 57197 O 5922.28 -7.54673 -6.86199 0
M  V30 57198 O 5921.71 -5.12391 -7.179 0
M  V30 57199 O 5922.25 -5.99158 -4.88404 0
M  V30 57200 C 5923.19 -6.60234 -3.96415 0
M  V30 57201 C 5922.46 -7.08259 -2.72856 0
M  V30 57202 O 5922.25 -5.9427 -1.83651 0
M  V30 57203 C 5921.06 -7.64886 -2.9555 0
M  V30 57204 O 5920.67 -8.53963 -1.90717 0
M  V30 57205 C 5920.18 -6.4116 -2.90739 0
M  V30 57206 C 5920.89 -5.55375 -1.86963 0
M  V30 57207 N 5920.84 -4.09664 -2.15742 0
M  V30 57208 H 5923.68 -7.45574 -4.45629 0
M  V30 57209 H 5923.96 -5.86232 -3.67314 0
M  V30 57210 H 5923.09 -7.84412 -2.24479 0
M  V30 57211 P 5919.12 -8.7635 -1.60911 0
M  V30 57212 O 5918.9 -10.1388 -1.11561 0
M  V30 57213 O 5918.33 -8.36503 -2.79617 0
M  V30 57214 O 5918.87 -7.71906 -0.429565 0
M  V30 57215 C 5919.81 -7.67148 0.673689 0
M  V30 57216 C 5919.08 -7.33666 1.94851 0
M  V30 57217 O 5918.87 -5.88816 2.00759 0
M  V30 57218 C 5917.68 -7.92526 2.10483 0
M  V30 57219 O 5917.29 -8.03063 3.47693 0
M  V30 57220 C 5916.8 -6.89602 1.41652 0
M  V30 57221 C 5917.51 -5.59201 1.75185 0
M  V30 57222 N 5917.46 -4.58235 0.662552 0
M  V30 57223 C 5917.31 -3.24451 1.01643 0
M  V30 57224 O 5917.22 -2.94958 2.21722 0
M  V30 57225 N 5917.26 -2.30408 -0.165238 0
M  V30 57226 C 5917.36 -2.66048 -1.25118 0
M  V30 57227 N 5917.31 -1.70787 -2.16813 0
M  V30 57228 C 5917.51 -4.02732 -1.64413 0
M  V30 57229 C 5917.56 -4.9488 -0.63991 0
M  V30 57230 H 5920.3 -8.65017 0.777072 0
M  V30 57231 H 5920.57 -6.90173 0.474152 0
M  V30 57232 H 5919.71 -7.66642 2.79492 0
M  V30 57233 H 5917.05 -5.16254 2.65229 0
M  V30 57234 H 5916.77 -7.06532 0.329431 0
M  V30 57235 H 5915.78 -6.91023 1.82047 0
M  V30 57236 H 5917.62 -8.90873 1.62657 0
M  V30 57237 H 5917.69 -6.00104 -0.892197 0
M  V30 57238 H 5917.59 -4.31733 -2.69229 0
M  V30 57239 H 5917.2 -0.724835 -1.8844 0
M  V30 57240 H 5917.39 -1.94716 -3.16734 0
M  V30 57241 P 5915.75 -8.03563 3.84925 0
M  V30 57242 O 5915.53 -8.85821 5.0569 0
M  V30 57243 O 5914.96 -8.41101 2.65469 0
M  V30 57244 O 5915.5 -6.4965 4.18908 0
M  V30 57245 C 5916.44 -5.80886 5.05289 0
M  V30 57246 C 5915.71 -4.78366 5.89277 0
M  V30 57247 O 5915.5 -3.58302 5.08433 0
M  V30 57248 C 5914.31 -5.16748 6.36559 0
M  V30 57249 O 5913.92 -4.45271 7.53232 0
M  V30 57250 C 5913.43 -4.74572 5.19863 0
M  V30 57251 C 5914.14 -3.49373 4.70338 0
M  V30 57252 N 5914.09 -3.31704 3.22876 0
M  V30 57253 C 5913.94 -2.03326 2.74871 0
M  V30 57254 O 5913.85 -1.06486 3.48076 0
M  V30 57255 N 5913.9 -1.91838 1.37456 0
M  V30 57256 C 5913.99 -2.94295 0.462035 0
M  V30 57257 O 5913.94 -2.71763 -0.752928 0
M  V30 57258 C 5914.14 -4.25064 1.05249 0
M  V30 57259 C 5914.25 -5.39815 0.095697 0
M  V30 57260 C 5914.19 -4.40214 2.39192 0
M  V30 57261 H 5916.93 -6.54063 5.71245 0
M  V30 57262 H 5917.2 -5.30339 4.43905 0
M  V30 57263 H 5916.33 -4.55889 6.76652 0
M  V30 57264 H 5913.67 -2.6167 5.17842 0
M  V30 57265 H 5913.39 -5.52155 4.41878 0
M  V30 57266 H 5912.4 -4.51918 5.53297 0
M  V30 57267 H 5914.24 -6.25055 6.55162 0
M  V30 57268 H 5914.31 -5.39798 2.81523 0
M  V30 57269 H 5913.28 -5.91593 0.0279582 0
M  V30 57270 H 5915.01 -6.10038 0.450573 0
M  V30 57271 H 5914.53 -5.02007 -0.89937 0
M  V30 57272 H 5913.79 -0.995326 1.00435 0
M  V30 57273 P 5912.37 -4.23843 7.83734 0
M  V30 57274 O 5912.15 -4.19407 9.29784 0
M  V30 57275 O 5911.58 -5.24426 7.09156 0
M  V30 57276 O 5912.12 -2.7935 7.20758 0
M  V30 57277 C 5913.06 -1.7299 7.50419 0
M  V30 57278 C 5912.33 -0.406376 7.57911 0
M  V30 57279 O 5912.12 0.0897726 6.21935 0
M  V30 57280 C 5910.93 -0.447224 8.1878 0
M  V30 57281 O 5910.54 0.825065 8.71101 0
M  V30 57282 C 5910.05 -0.783801 6.99623 0
M  V30 57283 C 5910.76 -0.0619192 5.85967 0
M  V30 57284 N 5910.71 -0.790462 4.56202 0
M  V30 57285 H 5913.54 -1.93423 8.4679 0
M  V30 57286 H 5913.82 -1.68852 6.70877 0
M  V30 57287 H 5912.95 0.289041 8.15388 0
M  V30 57288 H 5910.29 0.927006 5.72848 0
M  V30 57289 H 5910.01 -1.86973 6.82036 0
M  V30 57290 H 5909.02 -0.403953 7.13357 0
M  V30 57291 H 5910.86 -1.20599 8.97534 0
M  V30 57292 P 5908.99 1.17771 8.83182 0
M  V30 57293 O 5908.77 2.07206 9.98732 0
M  V30 57294 O 5908.2 -0.0743816 8.81969 0
M  V30 57295 O 5908.74 1.97652 7.47304 0
M  V30 57296 C 5909.68 3.01133 7.08783 0
M  V30 57297 C 5908.95 4.12613 6.37049 0
M  V30 57298 O 5908.74 3.72827 4.97879 0
M  V30 57299 C 5907.55 4.45085 6.88694 0
M  V30 57300 O 5907.16 5.7877 6.5624 0
M  V30 57301 C 5906.67 3.47817 6.12078 0
M  V30 57302 C 5907.38 3.39414 4.77697 0
M  V30 57303 N 5907.33 2.04199 4.15538 0
M  V30 57304 C 5907.41 0.821545 4.76977 0
M  V30 57305 N 5907.34 -0.1794 3.94592 0
M  V30 57306 C 5907.19 0.419121 2.70776 0
M  V30 57307 C 5907.06 -0.109072 1.40577 0
M  V30 57308 N 5907.05 -1.4104 1.1344 0
M  V30 57309 N 5906.94 0.764381 0.39411 0
M  V30 57310 C 5906.95 2.06587 0.664135 0
M  V30 57311 N 5907.07 2.67948 1.82153 0
M  V30 57312 C 5907.19 1.77942 2.8147 0
M  V30 57313 H 5910.16 3.41248 7.98759 0
M  V30 57314 H 5910.44 2.57728 6.42 0
M  V30 57315 H 5909.57 5.02657 6.42673 0
M  V30 57316 H 5906.91 4.11708 4.08956 0
M  V30 57317 H 5906.63 2.49626 6.61679 0
M  V30 57318 H 5905.64 3.8662 6.00862 0
M  V30 57319 H 5907.48 4.29991 7.97006 0
M  V30 57320 H 5907.52 0.702451 5.84696 0
M  V30 57321 H 5907.14 -2.09647 1.89651 0
M  V30 57322 H 5906.95 -1.73358 0.160575 0
M  V30 57323 H 5906.84 2.71695 -0.195838 0
M  V30 57324 P 5905.61 6.144 6.45285 0
M  V30 57325 O 5905.39 7.54673 6.86199 0
M  V30 57326 O 5904.82 5.12391 7.179 0
M  V30 57327 O 5905.36 5.99158 4.88404 0
M  V30 57328 C 5906.3 6.60234 3.96415 0
M  V30 57329 C 5905.57 7.08259 2.72856 0
M  V30 57330 O 5905.36 5.9427 1.83651 0
M  V30 57331 C 5904.17 7.64886 2.9555 0
M  V30 57332 O 5903.78 8.53963 1.90717 0
M  V30 57333 C 5903.29 6.4116 2.90739 0
M  V30 57334 C 5904 5.55375 1.86963 0
M  V30 57335 N 5903.95 4.09448 2.16152 0
M  V30 57336 H 5906.78 7.45574 4.45629 0
M  V30 57337 H 5907.06 5.85864 3.679 0
M  V30 57338 H 5906.19 7.84412 2.24479 0
M  V30 57339 H 5903.53 5.73457 0.888562 0
M  V30 57340 H 5903.25 5.90877 3.88583 0
M  V30 57341 H 5902.26 6.6596 2.58858 0
M  V30 57342 H 5904.1 8.16339 3.92049 0
M  V30 57343 P 5902.23 8.7635 1.60911 0
M  V30 57344 O 5902.01 10.1388 1.11561 0
M  V30 57345 O 5901.44 8.36503 2.79617 0
M  V30 57346 O 5901.98 7.71806 0.42951 0
M  V30 57347 C 5902.92 7.67148 -0.673689 0
M  V30 57348 C 5902.19 7.33374 -1.95559 0
M  V30 57349 O 5901.98 5.88721 -2.00726 0
M  V30 57350 C 5900.79 7.92526 -2.10483 0
M  V30 57351 O 5900.4 8.02971 -3.47653 0
M  V30 57352 C 5899.91 6.89602 -1.41652 0
M  V30 57353 C 5900.62 5.59201 -1.75185 0
M  V30 57354 N 5900.57 4.58235 -0.662552 0
M  V30 57355 H 5903.4 8.65116 -0.777161 0
M  V30 57356 H 5903.68 6.90173 -0.474152 0
M  V30 57357 H 5902.81 7.66548 -2.79458 0
M  V30 57358 P 5898.85 8.03563 -3.84925 0
M  V30 57359 O 5898.63 8.85821 -5.0569 0
M  V30 57360 O 5898.06 8.41101 -2.65469 0
M  V30 57361 O 5898.6 6.4965 -4.18908 0
M  V30 57362 C 5899.54 5.81037 -5.05421 0
M  V30 57363 C 5898.81 4.78366 -5.89277 0
M  V30 57364 O 5898.6 3.58302 -5.08433 0
M  V30 57365 C 5897.41 5.17448 -6.36119 0
M  V30 57366 O 5897.02 4.45271 -7.53232 0
M  V30 57367 C 5896.53 4.74639 -5.19936 0
M  V30 57368 C 5897.24 3.49432 -4.70418 0
M  V30 57369 N 5897.19 3.32099 -3.22613 0
M  V30 57370 H 5900.02 6.54213 -5.71376 0
M  V30 57371 H 5900.3 5.30936 -4.43503 0
M  V30 57372 H 5899.43 4.55889 -6.76652 0
M  V30 57373 H 5896.77 2.61715 -5.17932 0
M  V30 57374 H 5896.49 5.52155 -4.41878 0
M  V30 57375 H 5895.5 4.51981 -5.53374 0
M  V30 57376 H 5897.34 6.25124 -6.55234 0
M  V30 57377 P 5895.47 4.23843 -7.83734 0
M  V30 57378 O 5895.25 4.19407 -9.29784 0
M  V30 57379 O 5894.68 5.24426 -7.09156 0
M  V30 57380 O 5895.22 2.7935 -7.20758 0
M  V30 57381 C 5896.16 1.7299 -7.50419 0
M  V30 57382 C 5895.43 0.406376 -7.57911 0
M  V30 57383 O 5895.22 -0.0897726 -6.21935 0
M  V30 57384 C 5894.03 0.447224 -8.1878 0
M  V30 57385 O 5893.64 -0.825065 -8.71101 0
M  V30 57386 C 5893.15 0.783801 -6.99623 0
M  V30 57387 C 5893.86 0.0619192 -5.85967 0
M  V30 57388 N 5893.81 0.7859 -4.56281 0
M  V30 57389 H 5896.64 1.93423 -8.4679 0
M  V30 57390 H 5896.92 1.68181 -6.71046 0
M  V30 57391 H 5896.05 -0.289041 -8.15388 0
M  V30 57392 P 5892.09 -1.17771 -8.83182 0
M  V30 57393 O 5891.87 -2.07206 -9.98732 0
M  V30 57394 O 5891.3 0.0743816 -8.81969 0
M  V30 57395 O 5891.84 -1.97652 -7.47304 0
M  V30 57396 C 5892.78 -3.01133 -7.08783 0
M  V30 57397 C 5892.05 -4.12613 -6.37049 0
M  V30 57398 O 5891.84 -3.72827 -4.97879 0
M  V30 57399 C 5890.65 -4.45085 -6.88694 0
M  V30 57400 O 5890.26 -5.7877 -6.5624 0
M  V30 57401 C 5889.77 -3.47817 -6.12078 0
M  V30 57402 C 5890.48 -3.39414 -4.77697 0
M  V30 57403 N 5890.43 -2.04615 -4.15333 0
M  V30 57404 H 5893.26 -3.41248 -7.98759 0
M  V30 57405 H 5893.54 -2.5837 -6.41742 0
M  V30 57406 H 5892.67 -5.02657 -6.42673 0
M  V30 57407 P 5888.71 -6.144 -6.45285 0
M  V30 57408 O 5888.49 -7.54673 -6.86199 0
M  V30 57409 O 5887.92 -5.12391 -7.179 0
M  V30 57410 O 5888.46 -5.99158 -4.88404 0
M  V30 57411 C 5889.4 -6.60234 -3.96415 0
M  V30 57412 C 5888.67 -7.08259 -2.72856 0
M  V30 57413 O 5888.46 -5.9427 -1.83651 0
M  V30 57414 C 5887.27 -7.64886 -2.9555 0
M  V30 57415 O 5886.88 -8.53963 -1.90717 0
M  V30 57416 C 5886.39 -6.4116 -2.90739 0
M  V30 57417 C 5887.1 -5.55375 -1.86963 0
M  V30 57418 N 5887.05 -4.09664 -2.15742 0
M  V30 57419 H 5889.88 -7.45574 -4.45629 0
M  V30 57420 H 5890.16 -5.86232 -3.67314 0
M  V30 57421 H 5889.29 -7.84412 -2.24479 0
M  V30 57422 P 5885.33 -8.7635 -1.60911 0
M  V30 57423 O 5885.11 -10.1388 -1.11561 0
M  V30 57424 O 5884.54 -8.36503 -2.79617 0
M  V30 57425 O 5885.08 -7.71806 -0.42951 0
M  V30 57426 C 5886.02 -7.67148 0.673689 0
M  V30 57427 C 5885.29 -7.33374 1.95559 0
M  V30 57428 O 5885.08 -5.88721 2.00726 0
M  V30 57429 C 5883.89 -7.92526 2.10483 0
M  V30 57430 O 5883.5 -8.02971 3.47653 0
M  V30 57431 C 5883.01 -6.89602 1.41652 0
M  V30 57432 C 5883.72 -5.59201 1.75185 0
M  V30 57433 N 5883.67 -4.58301 0.657969 0
M  V30 57434 H 5886.5 -8.65116 0.777161 0
M  V30 57435 H 5886.78 -6.9022 0.46725 0
M  V30 57436 H 5885.91 -7.66548 2.79458 0
M  V30 57437 H 5883.25 -5.16165 2.65183 0
M  V30 57438 H 5882.97 -7.06433 0.329384 0
M  V30 57439 H 5881.98 -6.90926 1.82021 0
M  V30 57440 H 5883.82 -8.90873 1.62657 0
M  V30 57441 P 5881.95 -8.03563 3.84925 0
M  V30 57442 O 5881.73 -8.85821 5.0569 0
M  V30 57443 O 5881.16 -8.41101 2.65469 0
M  V30 57444 O 5881.7 -6.4965 4.18908 0
M  V30 57445 C 5882.64 -5.81037 5.05421 0
M  V30 57446 C 5881.91 -4.78366 5.89277 0
M  V30 57447 O 5881.7 -3.58302 5.08433 0
M  V30 57448 C 5880.51 -5.17448 6.36119 0
M  V30 57449 O 5880.12 -4.45271 7.53232 0
M  V30 57450 C 5879.63 -4.74639 5.19936 0
M  V30 57451 C 5880.34 -3.49432 4.70418 0
M  V30 57452 N 5880.29 -3.32099 3.22613 0
M  V30 57453 C 5880.37 -4.28245 2.25527 0
M  V30 57454 N 5880.3 -3.80823 1.04874 0
M  V30 57455 C 5880.15 -2.44571 1.23535 0
M  V30 57456 C 5880.02 -1.37068 0.330675 0
M  V30 57457 N 5880.01 -1.51472 -0.990824 0
M  V30 57458 N 5879.9 -0.138614 0.848756 0
M  V30 57459 C 5879.91 0.00675923 2.16999 0
M  V30 57460 N 5880.03 -0.904372 3.11122 0
M  V30 57461 C 5880.15 -2.12707 2.56212 0
M  V30 57462 H 5883.12 -6.54213 5.71376 0
M  V30 57463 H 5883.4 -5.30936 4.43503 0
M  V30 57464 H 5882.53 -4.55889 6.76652 0
M  V30 57465 H 5879.87 -2.61715 5.17932 0
M  V30 57466 H 5879.59 -5.52155 4.41878 0
M  V30 57467 H 5878.6 -4.51981 5.53374 0
M  V30 57468 H 5880.44 -6.25124 6.55234 0
M  V30 57469 H 5880.48 -5.34372 2.47488 0
M  V30 57470 H 5880.1 -2.45153 -1.4078 0
M  V30 57471 H 5879.91 -0.688422 -1.59911 0
M  V30 57472 H 5879.8 1.02584 2.52346 0
M  V30 57473 P 5878.57 -4.23843 7.83734 0
M  V30 57474 O 5878.35 -4.19407 9.29784 0
M  V30 57475 O 5877.78 -5.24426 7.09156 0
M  V30 57476 O 5878.32 -2.7935 7.20758 0
M  V30 57477 C 5879.26 -1.7299 7.50419 0
M  V30 57478 C 5878.53 -0.406376 7.57911 0
M  V30 57479 O 5878.32 0.0897726 6.21935 0
M  V30 57480 C 5877.13 -0.447224 8.1878 0
M  V30 57481 O 5876.74 0.825065 8.71101 0
M  V30 57482 C 5876.25 -0.783801 6.99623 0
M  V30 57483 C 5876.96 -0.0619192 5.85967 0
M  V30 57484 N 5876.91 -0.790462 4.56202 0
M  V30 57485 H 5879.74 -1.93423 8.4679 0
M  V30 57486 H 5880.02 -1.68852 6.70877 0
M  V30 57487 H 5879.15 0.289041 8.15388 0
M  V30 57488 H 5876.49 0.927006 5.72848 0
M  V30 57489 H 5876.21 -1.86973 6.82036 0
M  V30 57490 H 5875.22 -0.403953 7.13357 0
M  V30 57491 H 5877.06 -1.20599 8.97534 0
M  V30 57492 P 5875.19 1.17771 8.83182 0
M  V30 57493 O 5874.97 2.07206 9.98732 0
M  V30 57494 O 5874.4 -0.0743816 8.81969 0
M  V30 57495 O 5874.94 1.97652 7.47304 0
M  V30 57496 C 5875.88 3.01133 7.08783 0
M  V30 57497 C 5875.15 4.12613 6.37049 0
M  V30 57498 O 5874.94 3.72827 4.97879 0
M  V30 57499 C 5873.75 4.45085 6.88694 0
M  V30 57500 O 5873.36 5.7877 6.5624 0
M  V30 57501 C 5872.87 3.47817 6.12078 0
M  V30 57502 C 5873.58 3.39414 4.77697 0
M  V30 57503 N 5873.53 2.04615 4.15333 0
M  V30 57504 H 5876.36 3.41248 7.98759 0
M  V30 57505 H 5876.64 2.5837 6.41742 0
M  V30 57506 H 5875.77 5.02657 6.42673 0
M  V30 57507 P 5871.81 6.144 6.45285 0
M  V30 57508 O 5871.59 7.54673 6.86199 0
M  V30 57509 O 5871.02 5.12391 7.179 0
M  V30 57510 O 5871.56 5.99158 4.88404 0
M  V30 57511 C 5872.5 6.60234 3.96415 0
M  V30 57512 C 5871.77 7.08259 2.72856 0
M  V30 57513 O 5871.56 5.9427 1.83651 0
M  V30 57514 C 5870.37 7.64886 2.9555 0
M  V30 57515 O 5869.98 8.53963 1.90717 0
M  V30 57516 C 5869.49 6.4116 2.90739 0
M  V30 57517 C 5870.2 5.55375 1.86963 0
M  V30 57518 N 5870.15 4.09664 2.15742 0
M  V30 57519 H 5872.98 7.45574 4.45629 0
M  V30 57520 H 5873.26 5.86232 3.67314 0
M  V30 57521 H 5872.39 7.84412 2.24479 0
M  V30 57522 P 5868.43 8.7635 1.60911 0
M  V30 57523 O 5868.21 10.1388 1.11561 0
M  V30 57524 O 5867.64 8.36503 2.79617 0
M  V30 57525 O 5868.18 7.71906 0.429565 0
M  V30 57526 C 5869.12 7.67148 -0.673689 0
M  V30 57527 C 5868.39 7.33666 -1.94851 0
M  V30 57528 O 5868.18 5.88816 -2.00759 0
M  V30 57529 C 5866.99 7.92526 -2.10483 0
M  V30 57530 O 5866.6 8.03063 -3.47693 0
M  V30 57531 C 5866.11 6.89602 -1.41652 0
M  V30 57532 C 5866.82 5.59201 -1.75185 0
M  V30 57533 N 5866.77 4.58235 -0.662552 0
M  V30 57534 C 5866.62 3.24451 -1.01643 0
M  V30 57535 O 5866.53 2.94958 -2.21722 0
M  V30 57536 N 5866.57 2.30408 0.165238 0
M  V30 57537 C 5866.67 2.66048 1.25118 0
M  V30 57538 N 5866.62 1.70787 2.16813 0
M  V30 57539 C 5866.82 4.02732 1.64413 0
M  V30 57540 C 5866.87 4.9488 0.63991 0
M  V30 57541 H 5869.61 8.65017 -0.777072 0
M  V30 57542 H 5869.88 6.90173 -0.474152 0
M  V30 57543 H 5869.01 7.66642 -2.79492 0
M  V30 57544 H 5866.35 5.16254 -2.65229 0
M  V30 57545 H 5866.07 7.06532 -0.329431 0
M  V30 57546 H 5865.08 6.91023 -1.82047 0
M  V30 57547 H 5866.92 8.90873 -1.62657 0
M  V30 57548 H 5866.99 6.00104 0.892197 0
M  V30 57549 H 5866.89 4.31733 2.69229 0
M  V30 57550 H 5866.5 0.724835 1.8844 0
M  V30 57551 H 5866.69 1.94716 3.16734 0
M  V30 57552 P 5865.05 8.03563 -3.84925 0
M  V30 57553 O 5864.83 8.85821 -5.0569 0
M  V30 57554 O 5864.26 8.41101 -2.65469 0
M  V30 57555 O 5864.8 6.4965 -4.18908 0
M  V30 57556 C 5865.74 5.81037 -5.05421 0
M  V30 57557 C 5865.01 4.78366 -5.89277 0
M  V30 57558 O 5864.8 3.58302 -5.08433 0
M  V30 57559 C 5863.61 5.17448 -6.36119 0
M  V30 57560 O 5863.22 4.45271 -7.53232 0
M  V30 57561 C 5862.73 4.74639 -5.19936 0
M  V30 57562 C 5863.44 3.49432 -4.70418 0
M  V30 57563 N 5863.39 3.32099 -3.22613 0
M  V30 57564 C 5863.47 4.28245 -2.25527 0
M  V30 57565 N 5863.4 3.80823 -1.04874 0
M  V30 57566 C 5863.25 2.44571 -1.23535 0
M  V30 57567 C 5863.12 1.37068 -0.330675 0
M  V30 57568 N 5863.11 1.51472 0.990824 0
M  V30 57569 N 5863 0.138614 -0.848756 0
M  V30 57570 C 5863.01 -0.00675923 -2.16999 0
M  V30 57571 N 5863.13 0.904372 -3.11122 0
M  V30 57572 C 5863.25 2.12707 -2.56212 0
M  V30 57573 H 5866.22 6.54213 -5.71376 0
M  V30 57574 H 5866.5 5.30936 -4.43503 0
M  V30 57575 H 5865.63 4.55889 -6.76652 0
M  V30 57576 H 5862.97 2.61715 -5.17932 0
M  V30 57577 H 5862.69 5.52155 -4.41878 0
M  V30 57578 H 5861.7 4.51981 -5.53374 0
M  V30 57579 H 5863.54 6.25124 -6.55234 0
M  V30 57580 H 5863.58 5.34372 -2.47488 0
M  V30 57581 H 5863.2 2.45153 1.4078 0
M  V30 57582 H 5863.01 0.688422 1.59911 0
M  V30 57583 H 5862.9 -1.02584 -2.52346 0
M  V30 57584 P 5861.67 4.23843 -7.83734 0
M  V30 57585 O 5861.45 4.19407 -9.29784 0
M  V30 57586 O 5860.88 5.24426 -7.09156 0
M  V30 57587 O 5861.42 2.7935 -7.20758 0
M  V30 57588 C 5862.36 1.7299 -7.50419 0
M  V30 57589 C 5861.63 0.406376 -7.57911 0
M  V30 57590 O 5861.42 -0.0897726 -6.21935 0
M  V30 57591 C 5860.23 0.447224 -8.1878 0
M  V30 57592 O 5859.84 -0.825065 -8.71101 0
M  V30 57593 C 5859.35 0.783801 -6.99623 0
M  V30 57594 C 5860.06 0.0619192 -5.85967 0
M  V30 57595 N 5860.01 0.790462 -4.56202 0
M  V30 57596 H 5862.84 1.93423 -8.4679 0
M  V30 57597 H 5863.12 1.68852 -6.70877 0
M  V30 57598 H 5862.25 -0.289041 -8.15388 0
M  V30 57599 H 5859.59 -0.927006 -5.72848 0
M  V30 57600 H 5859.31 1.86973 -6.82036 0
M  V30 57601 H 5858.32 0.403953 -7.13357 0
M  V30 57602 H 5860.16 1.20599 -8.97534 0
M  V30 57603 P 5858.29 -1.17771 -8.83182 0
M  V30 57604 O 5858.07 -2.07206 -9.98732 0
M  V30 57605 O 5857.5 0.0743816 -8.81969 0
M  V30 57606 O 5858.04 -1.97652 -7.47304 0
M  V30 57607 C 5858.98 -3.01133 -7.08783 0
M  V30 57608 C 5858.25 -4.12613 -6.37049 0
M  V30 57609 O 5858.04 -3.72827 -4.97879 0
M  V30 57610 C 5856.85 -4.45085 -6.88694 0
M  V30 57611 O 5856.46 -5.7877 -6.5624 0
M  V30 57612 C 5855.97 -3.47817 -6.12078 0
M  V30 57613 C 5856.68 -3.39414 -4.77697 0
M  V30 57614 N 5856.63 -2.04615 -4.15333 0
M  V30 57615 C 5856.71 -0.803897 -4.75249 0
M  V30 57616 N 5856.63 0.197615 -3.91502 0
M  V30 57617 C 5856.49 -0.413002 -2.66823 0
M  V30 57618 C 5856.36 0.157221 -1.38007 0
M  V30 57619 N 5856.24 -0.833136 -0.390236 0
M  V30 57620 C 5856.24 -2.19402 -0.623885 0
M  V30 57621 N 5856.11 -2.97622 0.449677 0
M  V30 57622 N 5856.37 -2.73005 -1.83601 0
M  V30 57623 C 5856.49 -1.78786 -2.80935 0
M  V30 57624 H 5859.46 -3.41248 -7.98759 0
M  V30 57625 H 5859.74 -2.5837 -6.41742 0
M  V30 57626 H 5858.87 -5.02657 -6.42673 0
M  V30 57627 P 5854.91 -6.144 -6.45285 0
M  V30 57628 O 5854.69 -7.54673 -6.86199 0
M  V30 57629 O 5854.12 -5.12391 -7.179 0
M  V30 57630 O 5854.66 -5.99158 -4.88404 0
M  V30 57631 C 5855.6 -6.60234 -3.96415 0
M  V30 57632 C 5854.87 -7.08259 -2.72856 0
M  V30 57633 O 5854.66 -5.9427 -1.83651 0
M  V30 57634 C 5853.47 -7.64886 -2.9555 0
M  V30 57635 O 5853.08 -8.53963 -1.90717 0
M  V30 57636 C 5852.59 -6.4116 -2.90739 0
M  V30 57637 C 5853.3 -5.55375 -1.86963 0
M  V30 57638 N 5853.25 -4.09664 -2.15742 0
M  V30 57639 H 5856.08 -7.45574 -4.45629 0
M  V30 57640 H 5856.36 -5.86232 -3.67314 0
M  V30 57641 H 5855.49 -7.84412 -2.24479 0
M  V30 57642 P 5851.53 -8.7635 -1.60911 0
M  V30 57643 O 5851.31 -10.1388 -1.11561 0
M  V30 57644 O 5850.74 -8.36503 -2.79617 0
M  V30 57645 O 5851.28 -7.71806 -0.42951 0
M  V30 57646 C 5852.22 -7.67148 0.673689 0
M  V30 57647 C 5851.49 -7.33374 1.95559 0
M  V30 57648 O 5851.28 -5.88721 2.00726 0
M  V30 57649 C 5850.09 -7.92526 2.10483 0
M  V30 57650 O 5849.7 -8.02971 3.47653 0
M  V30 57651 C 5849.21 -6.89602 1.41652 0
M  V30 57652 C 5849.92 -5.59201 1.75185 0
M  V30 57653 N 5849.87 -4.58235 0.662552 0
M  V30 57654 H 5852.7 -8.65116 0.777161 0
M  V30 57655 H 5852.98 -6.90173 0.474152 0
M  V30 57656 H 5852.11 -7.66548 2.79458 0
M  V30 57657 P 5848.15 -8.03563 3.84925 0
M  V30 57658 O 5847.93 -8.85821 5.0569 0
M  V30 57659 O 5847.36 -8.41101 2.65469 0
M  V30 57660 O 5847.9 -6.4965 4.18908 0
M  V30 57661 C 5848.84 -5.81037 5.05421 0
M  V30 57662 C 5848.11 -4.78366 5.89277 0
M  V30 57663 O 5847.9 -3.58302 5.08433 0
M  V30 57664 C 5846.71 -5.17448 6.36119 0
M  V30 57665 O 5846.32 -4.45271 7.53232 0
M  V30 57666 C 5845.83 -4.74639 5.19936 0
M  V30 57667 C 5846.54 -3.49432 4.70418 0
M  V30 57668 N 5846.49 -3.31776 3.22945 0
M  V30 57669 H 5849.32 -6.54213 5.71376 0
M  V30 57670 H 5849.6 -5.30492 4.44033 0
M  V30 57671 H 5848.73 -4.55889 6.76652 0
M  V30 57672 P 5844.77 -4.23843 7.83734 0
M  V30 57673 O 5844.55 -4.19407 9.29784 0
M  V30 57674 O 5843.98 -5.24426 7.09156 0
M  V30 57675 O 5844.52 -2.7935 7.20758 0
M  V30 57676 C 5845.46 -1.7299 7.50419 0
M  V30 57677 C 5844.73 -0.406376 7.57911 0
M  V30 57678 O 5844.52 0.0897726 6.21935 0
M  V30 57679 C 5843.33 -0.447224 8.1878 0
M  V30 57680 O 5842.94 0.825065 8.71101 0
M  V30 57681 C 5842.45 -0.783801 6.99623 0
M  V30 57682 C 5843.16 -0.0619192 5.85967 0
M  V30 57683 N 5843.11 -0.7859 4.56281 0
M  V30 57684 H 5845.94 -1.93423 8.4679 0
M  V30 57685 H 5846.22 -1.68181 6.71046 0
M  V30 57686 H 5845.35 0.289041 8.15388 0
M  V30 57687 P 5841.39 1.17771 8.83182 0
M  V30 57688 O 5841.17 2.07206 9.98732 0
M  V30 57689 O 5840.6 -0.0743816 8.81969 0
M  V30 57690 O 5841.14 1.97652 7.47304 0
M  V30 57691 C 5842.08 3.01055 7.08599 0
M  V30 57692 C 5841.35 4.12613 6.37049 0
M  V30 57693 O 5841.14 3.72827 4.97879 0
M  V30 57694 C 5839.95 4.45719 6.88164 0
M  V30 57695 O 5839.56 5.7877 6.5624 0
M  V30 57696 C 5839.07 3.47768 6.11991 0
M  V30 57697 C 5839.78 3.39356 4.77615 0
M  V30 57698 N 5839.73 2.04571 4.15244 0
M  V30 57699 C 5839.58 1.98587 2.78314 0
M  V30 57700 O 5839.49 2.98134 2.08835 0
M  V30 57701 N 5839.54 0.714467 2.24925 0
M  V30 57702 C 5839.63 -0.470001 2.94169 0
M  V30 57703 C 5839.78 -0.312541 4.36783 0
M  V30 57704 C 5839.83 0.914512 4.92583 0
M  V30 57705 H 5842.57 3.41169 7.98575 0
M  V30 57706 H 5842.84 2.58295 6.41556 0
M  V30 57707 H 5841.97 5.02657 6.42673 0
M  V30 57708 H 5839.31 4.11637 4.08885 0
M  V30 57709 H 5839.03 2.49626 6.61679 0
M  V30 57710 H 5838.04 3.86566 6.00778 0
M  V30 57711 H 5839.88 4.29943 7.96918 0
M  V30 57712 H 5839.95 1.00937 6.00374 0
M  V30 57713 P 5838.01 6.144 6.45285 0
M  V30 57714 O 5837.79 7.54673 6.86199 0
M  V30 57715 O 5837.22 5.12391 7.179 0
M  V30 57716 O 5837.76 5.99158 4.88404 0
M  V30 57717 C 5838.7 6.60234 3.96415 0
M  V30 57718 C 5837.97 7.08259 2.72856 0
M  V30 57719 O 5837.76 5.9427 1.83651 0
M  V30 57720 C 5836.57 7.64886 2.9555 0
M  V30 57721 O 5836.18 8.53963 1.90717 0
M  V30 57722 C 5835.69 6.4116 2.90739 0
M  V30 57723 C 5836.4 5.55375 1.86963 0
M  V30 57724 N 5836.35 4.09664 2.15742 0
M  V30 57725 H 5839.18 7.45574 4.45629 0
M  V30 57726 H 5839.46 5.86232 3.67314 0
M  V30 57727 H 5838.59 7.84412 2.24479 0
M  V30 57728 P 5834.63 8.7635 1.60911 0
M  V30 57729 O 5834.41 10.1388 1.11561 0
M  V30 57730 O 5833.84 8.36503 2.79617 0
M  V30 57731 O 5834.38 7.71806 0.42951 0
M  V30 57732 C 5835.32 7.67148 -0.673689 0
M  V30 57733 C 5834.59 7.33374 -1.95559 0
M  V30 57734 O 5834.38 5.88721 -2.00726 0
M  V30 57735 C 5833.19 7.92526 -2.10483 0
M  V30 57736 O 5832.8 8.02971 -3.47653 0
M  V30 57737 C 5832.31 6.89602 -1.41652 0
M  V30 57738 C 5833.02 5.59201 -1.75185 0
M  V30 57739 N 5832.97 4.58235 -0.662552 0
M  V30 57740 H 5835.8 8.65116 -0.777161 0
M  V30 57741 H 5836.08 6.90173 -0.474152 0
M  V30 57742 H 5835.21 7.66548 -2.79458 0
M  V30 57743 P 5831.25 8.03563 -3.84925 0
M  V30 57744 O 5831.03 8.85821 -5.0569 0
M  V30 57745 O 5830.46 8.41101 -2.65469 0
M  V30 57746 O 5831 6.4965 -4.18908 0
M  V30 57747 C 5831.94 5.81037 -5.05421 0
M  V30 57748 C 5831.21 4.78366 -5.89277 0
M  V30 57749 O 5831 3.58302 -5.08433 0
M  V30 57750 C 5829.81 5.17448 -6.36119 0
M  V30 57751 O 5829.42 4.45271 -7.53232 0
M  V30 57752 C 5828.93 4.74639 -5.19936 0
M  V30 57753 C 5829.64 3.49432 -4.70418 0
M  V30 57754 N 5829.59 3.31776 -3.22945 0
M  V30 57755 C 5829.67 4.27147 -2.23315 0
M  V30 57756 N 5829.59 3.78447 -1.02186 0
M  V30 57757 C 5829.45 2.41001 -1.21732 0
M  V30 57758 C 5829.32 1.36111 -0.27694 0
M  V30 57759 N 5829.2 0.113683 -0.912949 0
M  V30 57760 C 5829.2 -0.0846396 -2.27943 0
M  V30 57761 N 5829.07 -1.34737 -2.6916 0
M  V30 57762 N 5829.33 0.902521 -3.16379 0
M  V30 57763 C 5829.45 2.11937 -2.56849 0
M  V30 57764 H 5832.42 6.54213 -5.71376 0
M  V30 57765 H 5832.7 5.30492 -4.44033 0
M  V30 57766 H 5831.83 4.55889 -6.76652 0
M  V30 57767 P 5827.87 4.23843 -7.83734 0
M  V30 57768 O 5827.65 4.19407 -9.29784 0
M  V30 57769 O 5827.08 5.24426 -7.09156 0
M  V30 57770 O 5827.62 2.7935 -7.20758 0
M  V30 57771 C 5828.56 1.7299 -7.50419 0
M  V30 57772 C 5827.83 0.406376 -7.57911 0
M  V30 57773 O 5827.62 -0.0897726 -6.21935 0
M  V30 57774 C 5826.43 0.447224 -8.1878 0
M  V30 57775 O 5826.04 -0.825065 -8.71101 0
M  V30 57776 C 5825.55 0.783801 -6.99623 0
M  V30 57777 C 5826.26 0.0619192 -5.85967 0
M  V30 57778 N 5826.21 0.790462 -4.56202 0
M  V30 57779 H 5829.04 1.93423 -8.4679 0
M  V30 57780 H 5829.32 1.68852 -6.70877 0
M  V30 57781 H 5828.45 -0.289041 -8.15388 0
M  V30 57782 H 5825.79 -0.927006 -5.72848 0
M  V30 57783 H 5825.51 1.86973 -6.82036 0
M  V30 57784 H 5824.52 0.403953 -7.13357 0
M  V30 57785 H 5826.36 1.20599 -8.97534 0
M  V30 57786 P 5824.49 -1.17771 -8.83182 0
M  V30 57787 O 5824.27 -2.07206 -9.98732 0
M  V30 57788 O 5823.7 0.0743816 -8.81969 0
M  V30 57789 O 5824.24 -1.97652 -7.47304 0
M  V30 57790 C 5825.18 -3.01133 -7.08783 0
M  V30 57791 C 5824.45 -4.12613 -6.37049 0
M  V30 57792 O 5824.24 -3.72827 -4.97879 0
M  V30 57793 C 5823.05 -4.45085 -6.88694 0
M  V30 57794 O 5822.66 -5.7877 -6.5624 0
M  V30 57795 C 5822.17 -3.47817 -6.12078 0
M  V30 57796 C 5822.88 -3.39414 -4.77697 0
M  V30 57797 N 5822.83 -2.04199 -4.15538 0
M  V30 57798 C 5822.91 -0.821545 -4.76977 0
M  V30 57799 N 5822.84 0.1794 -3.94592 0
M  V30 57800 C 5822.69 -0.419121 -2.70776 0
M  V30 57801 C 5822.56 0.109072 -1.40577 0
M  V30 57802 N 5822.55 1.4104 -1.1344 0
M  V30 57803 N 5822.44 -0.764381 -0.39411 0
M  V30 57804 C 5822.45 -2.06587 -0.664135 0
M  V30 57805 N 5822.57 -2.67948 -1.82153 0
M  V30 57806 C 5822.69 -1.77942 -2.8147 0
M  V30 57807 H 5825.66 -3.41248 -7.98759 0
M  V30 57808 H 5825.94 -2.57728 -6.42 0
M  V30 57809 H 5825.07 -5.02657 -6.42673 0
M  V30 57810 H 5822.41 -4.11708 -4.08956 0
M  V30 57811 H 5822.13 -2.49626 -6.61679 0
M  V30 57812 H 5821.14 -3.8662 -6.00862 0
M  V30 57813 H 5822.98 -4.29991 -7.97006 0
M  V30 57814 H 5823.02 -0.702451 -5.84696 0
M  V30 57815 H 5822.64 2.09647 -1.89651 0
M  V30 57816 H 5822.45 1.73358 -0.160575 0
M  V30 57817 H 5822.34 -2.71695 0.195838 0
M  V30 57818 P 5821.11 -6.144 -6.45285 0
M  V30 57819 O 5820.89 -7.54673 -6.86199 0
M  V30 57820 O 5820.32 -5.12391 -7.179 0
M  V30 57821 O 5820.86 -5.99158 -4.88404 0
M  V30 57822 C 5821.8 -6.60234 -3.96415 0
M  V30 57823 C 5821.07 -7.08259 -2.72856 0
M  V30 57824 O 5820.86 -5.9427 -1.83651 0
M  V30 57825 C 5819.67 -7.64886 -2.9555 0
M  V30 57826 O 5819.28 -8.53963 -1.90717 0
M  V30 57827 C 5818.79 -6.4116 -2.90739 0
M  V30 57828 C 5819.5 -5.55375 -1.86963 0
M  V30 57829 N 5819.45 -4.09664 -2.15742 0
M  V30 57830 C 5819.53 -3.44381 -3.37233 0
M  V30 57831 N 5819.45 -2.14131 -3.28347 0
M  V30 57832 C 5819.31 -1.90247 -1.91588 0
M  V30 57833 C 5819.18 -0.683992 -1.20892 0
M  V30 57834 N 5819.06 -0.903396 0.173998 0
M  V30 57835 C 5819.06 -2.14171 0.784879 0
M  V30 57836 N 5818.93 -2.1435 2.11317 0
M  V30 57837 N 5819.19 -3.28784 0.119316 0
M  V30 57838 C 5819.31 -3.0977 -1.22194 0
M  V30 57839 H 5822.28 -7.45574 -4.45629 0
M  V30 57840 H 5822.56 -5.86232 -3.67314 0
M  V30 57841 H 5821.69 -7.84412 -2.24479 0
M  V30 57842 P 5817.73 -8.7635 -1.60911 0
M  V30 57843 O 5817.51 -10.1388 -1.11561 0
M  V30 57844 O 5816.94 -8.36503 -2.79617 0
M  V30 57845 O 5817.48 -7.71806 -0.42951 0
M  V30 57846 C 5818.42 -7.67148 0.673689 0
M  V30 57847 C 5817.69 -7.33374 1.95559 0
M  V30 57848 O 5817.48 -5.88721 2.00726 0
M  V30 57849 C 5816.29 -7.92526 2.10483 0
M  V30 57850 O 5815.9 -8.02971 3.47653 0
M  V30 57851 C 5815.41 -6.89602 1.41652 0
M  V30 57852 C 5816.12 -5.59201 1.75185 0
M  V30 57853 N 5816.07 -4.58235 0.662552 0
M  V30 57854 H 5818.9 -8.65116 0.777161 0
M  V30 57855 H 5819.18 -6.90173 0.474152 0
M  V30 57856 H 5818.31 -7.66548 2.79458 0
M  V30 57857 P 5814.35 -8.03563 3.84925 0
M  V30 57858 O 5814.13 -8.85821 5.0569 0
M  V30 57859 O 5813.56 -8.41101 2.65469 0
M  V30 57860 O 5814.1 -6.4965 4.18908 0
M  V30 57861 C 5815.04 -5.81037 5.05421 0
M  V30 57862 C 5814.31 -4.78366 5.89277 0
M  V30 57863 O 5814.1 -3.58302 5.08433 0
M  V30 57864 C 5812.91 -5.17448 6.36119 0
M  V30 57865 O 5812.52 -4.45271 7.53232 0
M  V30 57866 C 5812.03 -4.74639 5.19936 0
M  V30 57867 C 5812.74 -3.49432 4.70418 0
M  V30 57868 N 5812.69 -3.31776 3.22945 0
M  V30 57869 H 5815.52 -6.54213 5.71376 0
M  V30 57870 H 5815.8 -5.30492 4.44033 0
M  V30 57871 H 5814.93 -4.55889 6.76652 0
M  V30 57872 P 5810.97 -4.23843 7.83734 0
M  V30 57873 O 5810.75 -4.19407 9.29784 0
M  V30 57874 O 5810.18 -5.24426 7.09156 0
M  V30 57875 O 5810.72 -2.7935 7.20758 0
M  V30 57876 C 5811.66 -1.7299 7.50419 0
M  V30 57877 C 5810.93 -0.406376 7.57911 0
M  V30 57878 O 5810.72 0.0897726 6.21935 0
M  V30 57879 C 5809.53 -0.447224 8.1878 0
M  V30 57880 O 5809.14 0.825065 8.71101 0
M  V30 57881 C 5808.65 -0.783801 6.99623 0
M  V30 57882 C 5809.36 -0.0619192 5.85967 0
M  V30 57883 N 5809.31 -0.7859 4.56281 0
M  V30 57884 H 5812.14 -1.93423 8.4679 0
M  V30 57885 H 5812.42 -1.68181 6.71046 0
M  V30 57886 H 5811.55 0.289041 8.15388 0
M  V30 57887 P 5807.59 1.17771 8.83182 0
M  V30 57888 O 5807.37 2.07206 9.98732 0
M  V30 57889 O 5806.8 -0.0743816 8.81969 0
M  V30 57890 O 5807.34 1.97652 7.47304 0
M  V30 57891 C 5808.28 3.01133 7.08783 0
M  V30 57892 C 5807.55 4.12613 6.37049 0
M  V30 57893 O 5807.34 3.72827 4.97879 0
M  V30 57894 C 5806.15 4.45085 6.88694 0
M  V30 57895 O 5805.76 5.7877 6.5624 0
M  V30 57896 C 5805.27 3.47817 6.12078 0
M  V30 57897 C 5805.98 3.39414 4.77697 0
M  V30 57898 N 5805.93 2.04615 4.15333 0
M  V30 57899 H 5808.76 3.41248 7.98759 0
M  V30 57900 H 5809.04 2.5837 6.41742 0
M  V30 57901 H 5808.17 5.02657 6.42673 0
M  V30 57902 P 5804.21 6.144 6.45285 0
M  V30 57903 O 5803.99 7.54673 6.86199 0
M  V30 57904 O 5803.42 5.12391 7.179 0
M  V30 57905 O 5803.96 5.99158 4.88404 0
M  V30 57906 C 5804.9 6.60234 3.96415 0
M  V30 57907 C 5804.17 7.08259 2.72856 0
M  V30 57908 O 5803.96 5.9427 1.83651 0
M  V30 57909 C 5802.77 7.64886 2.9555 0
M  V30 57910 O 5802.38 8.53963 1.90717 0
M  V30 57911 C 5801.89 6.4116 2.90739 0
M  V30 57912 C 5802.6 5.55375 1.86963 0
M  V30 57913 N 5802.55 4.09448 2.16152 0
M  V30 57914 C 5802.63 3.46824 3.37593 0
M  V30 57915 N 5802.56 2.17422 3.29777 0
M  V30 57916 C 5802.41 1.93065 1.94427 0
M  V30 57917 C 5802.28 0.738053 1.20141 0
M  V30 57918 N 5802.27 -0.474256 1.74676 0
M  V30 57919 N 5802.16 0.850049 -0.13045 0
M  V30 57920 C 5802.17 2.06169 -0.676992 0
M  V30 57921 N 5802.29 3.23842 -0.101312 0
M  V30 57922 C 5802.41 3.09402 1.23122 0
M  V30 57923 H 5805.38 7.45574 4.45629 0
M  V30 57924 H 5805.66 5.85864 3.679 0
M  V30 57925 H 5804.79 7.84412 2.24479 0
M  V30 57926 H 5802.13 5.73457 0.888562 0
M  V30 57927 H 5801.85 5.90877 3.88583 0
M  V30 57928 H 5800.86 6.6596 2.58858 0
M  V30 57929 H 5802.7 8.16339 3.92049 0
M  V30 57930 H 5802.74 4.00505 4.3174 0
M  V30 57931 H 5802.36 -0.581337 2.76658 0
M  V30 57932 H 5802.17 -1.30811 1.14888 0
M  V30 57933 H 5802.06 2.08295 -1.75542 0
M  V30 57934 P 5800.83 8.7635 1.60911 0
M  V30 57935 O 5800.61 10.1388 1.11561 0
M  V30 57936 O 5800.04 8.36503 2.79617 0
M  V30 57937 O 5800.58 7.71806 0.42951 0
M  V30 57938 C 5801.52 7.67148 -0.673689 0
M  V30 57939 C 5800.79 7.33374 -1.95559 0
M  V30 57940 O 5800.58 5.88721 -2.00726 0
M  V30 57941 C 5799.39 7.92526 -2.10483 0
M  V30 57942 O 5799 8.02971 -3.47653 0
M  V30 57943 C 5798.51 6.89602 -1.41652 0
M  V30 57944 C 5799.22 5.59201 -1.75185 0
M  V30 57945 N 5799.17 4.58235 -0.662552 0
M  V30 57946 H 5802 8.65116 -0.777161 0
M  V30 57947 H 5802.28 6.90173 -0.474152 0
M  V30 57948 H 5801.41 7.66548 -2.79458 0
M  V30 57949 P 5797.45 8.03563 -3.84925 0
M  V30 57950 O 5797.23 8.85821 -5.0569 0
M  V30 57951 O 5796.66 8.41101 -2.65469 0
M  V30 57952 O 5797.2 6.4965 -4.18908 0
M  V30 57953 C 5798.14 5.81037 -5.05421 0
M  V30 57954 C 5797.41 4.78366 -5.89277 0
M  V30 57955 O 5797.2 3.58302 -5.08433 0
M  V30 57956 C 5796.01 5.17448 -6.36119 0
M  V30 57957 O 5795.62 4.45271 -7.53232 0
M  V30 57958 C 5795.13 4.74639 -5.19936 0
M  V30 57959 C 5795.84 3.49432 -4.70418 0
M  V30 57960 N 5795.79 3.31776 -3.22945 0
M  V30 57961 H 5798.62 6.54213 -5.71376 0
M  V30 57962 H 5798.9 5.30492 -4.44033 0
M  V30 57963 H 5798.03 4.55889 -6.76652 0
M  V30 57964 P 5794.07 4.23843 -7.83734 0
M  V30 57965 O 5793.85 4.19407 -9.29784 0
M  V30 57966 O 5793.28 5.24426 -7.09156 0
M  V30 57967 O 5793.82 2.7935 -7.20758 0
M  V30 57968 C 5794.76 1.7299 -7.50419 0
M  V30 57969 C 5794.03 0.406376 -7.57911 0
M  V30 57970 O 5793.82 -0.0897726 -6.21935 0
M  V30 57971 C 5792.63 0.447224 -8.1878 0
M  V30 57972 O 5792.24 -0.825065 -8.71101 0
M  V30 57973 C 5791.75 0.783801 -6.99623 0
M  V30 57974 C 5792.46 0.0619192 -5.85967 0
M  V30 57975 N 5792.41 0.7859 -4.56281 0
M  V30 57976 C 5792.49 2.14308 -4.31736 0
M  V30 57977 N 5792.41 2.46106 -3.05116 0
M  V30 57978 C 5792.27 1.23422 -2.4014 0
M  V30 57979 C 5792.14 0.938381 -1.02409 0
M  V30 57980 O 5792.12 1.70876 -0.0650402 0
M  V30 57981 N 5792.02 -0.444647 -0.805413 0
M  V30 57982 C 5792.02 -1.40829 -1.79435 0
M  V30 57983 N 5791.89 -2.67213 -1.38558 0
M  V30 57984 N 5792.15 -1.12947 -3.09005 0
M  V30 57985 C 5792.27 0.204887 -3.32369 0
M  V30 57986 H 5795.24 1.93423 -8.4679 0
M  V30 57987 H 5795.52 1.68181 -6.71046 0
M  V30 57988 H 5794.65 -0.289041 -8.15388 0
M  V30 57989 H 5791.99 -0.927166 -5.72947 0
M  V30 57990 H 5791.71 1.87 -6.82132 0
M  V30 57991 H 5790.72 0.404009 -7.13457 0
M  V30 57992 H 5792.56 1.20612 -8.97633 0
M  V30 57993 H 5792.61 2.88284 -5.10874 0
M  V30 57994 H 5791.92 -0.755087 0.140242 0
M  V30 57995 H 5791.89 -3.43967 -2.0729 0
M  V30 57996 H 5791.79 -2.88096 -0.380644 0
M  V30 57997 P 5790.69 -1.17771 -8.83182 0
M  V30 57998 O 5790.47 -2.07206 -9.98732 0
M  V30 57999 O 5789.9 0.0743816 -8.81969 0
M  V30 58000 O 5790.44 -1.97652 -7.47304 0
M  V30 58001 C 5791.38 -3.01133 -7.08783 0
M  V30 58002 C 5790.65 -4.12613 -6.37049 0
M  V30 58003 O 5790.44 -3.72827 -4.97879 0
M  V30 58004 C 5789.25 -4.45085 -6.88694 0
M  V30 58005 O 5788.86 -5.7877 -6.5624 0
M  V30 58006 C 5788.37 -3.47817 -6.12078 0
M  V30 58007 C 5789.08 -3.39414 -4.77697 0
M  V30 58008 N 5789.03 -2.04615 -4.15333 0
M  V30 58009 H 5791.86 -3.41248 -7.98759 0
M  V30 58010 H 5792.14 -2.5837 -6.41742 0
M  V30 58011 H 5791.27 -5.02657 -6.42673 0
M  V30 58012 P 5787.31 -6.144 -6.45285 0
M  V30 58013 O 5787.09 -7.54673 -6.86199 0
M  V30 58014 O 5786.52 -5.12391 -7.179 0
M  V30 58015 O 5787.06 -5.99158 -4.88404 0
M  V30 58016 C 5788 -6.60234 -3.96415 0
M  V30 58017 C 5787.27 -7.08259 -2.72856 0
M  V30 58018 O 5787.06 -5.9427 -1.83651 0
M  V30 58019 C 5785.87 -7.64886 -2.9555 0
M  V30 58020 O 5785.48 -8.53963 -1.90717 0
M  V30 58021 C 5784.99 -6.4116 -2.90739 0
M  V30 58022 C 5785.7 -5.55375 -1.86963 0
M  V30 58023 N 5785.65 -4.09664 -2.15742 0
M  V30 58024 C 5785.73 -3.44381 -3.37233 0
M  V30 58025 N 5785.65 -2.14131 -3.28347 0
M  V30 58026 C 5785.51 -1.90247 -1.91588 0
M  V30 58027 C 5785.38 -0.683992 -1.20892 0
M  V30 58028 N 5785.26 -0.903396 0.173998 0
M  V30 58029 C 5785.26 -2.14171 0.784879 0
M  V30 58030 N 5785.13 -2.1435 2.11317 0
M  V30 58031 N 5785.39 -3.28784 0.119316 0
M  V30 58032 C 5785.51 -3.0977 -1.22194 0
M  V30 58033 H 5788.48 -7.45574 -4.45629 0
M  V30 58034 H 5788.76 -5.86232 -3.67314 0
M  V30 58035 H 5787.89 -7.84412 -2.24479 0
M  V30 58036 P 5783.93 -8.7635 -1.60911 0
M  V30 58037 O 5783.71 -10.1388 -1.11561 0
M  V30 58038 O 5783.14 -8.36503 -2.79617 0
M  V30 58039 O 5783.68 -7.71806 -0.42951 0
M  V30 58040 C 5784.62 -7.66948 0.673514 0
M  V30 58041 C 5783.89 -7.33374 1.95559 0
M  V30 58042 O 5783.68 -5.88721 2.00726 0
M  V30 58043 C 5782.49 -7.92218 2.1125 0
M  V30 58044 O 5782.1 -8.02971 3.47653 0
M  V30 58045 C 5781.61 -6.89504 1.41631 0
M  V30 58046 C 5782.32 -5.59106 1.75155 0
M  V30 58047 N 5782.27 -4.58136 0.662409 0
M  V30 58048 C 5782.12 -3.26059 1.02863 0
M  V30 58049 O 5782.03 -2.90743 2.19009 0
M  V30 58050 N 5782.08 -2.35995 -0.0155585 0
M  V30 58051 C 5782.17 -2.65248 -1.35603 0
M  V30 58052 O 5782.12 -1.75605 -2.20651 0
M  V30 58053 C 5782.32 -4.05747 -1.64698 0
M  V30 58054 C 5782.43 -4.42345 -3.09553 0
M  V30 58055 C 5782.37 -4.96734 -0.652411 0
M  V30 58056 H 5785.11 -8.64917 0.776982 0
M  V30 58057 H 5785.38 -6.89974 0.474015 0
M  V30 58058 H 5784.51 -7.66548 2.79458 0
M  V30 58059 H 5781.85 -5.16076 2.65138 0
M  V30 58060 H 5781.57 -7.06433 0.329384 0
M  V30 58061 H 5780.58 -6.90829 1.81996 0
M  V30 58062 H 5782.42 -8.90774 1.62639 0
M  V30 58063 H 5782.49 -6.02181 -0.895285 0
M  V30 58064 H 5781.46 -4.80252 -3.45468 0
M  V30 58065 H 5783.19 -5.20015 -3.22119 0
M  V30 58066 H 5782.71 -3.53269 -3.67833 0
M  V30 58067 H 5781.97 -1.39558 0.227499 0
M  V30 58068 P 5780.55 -8.03563 3.84925 0
M  V30 58069 O 5780.33 -8.85821 5.0569 0
M  V30 58070 O 5779.76 -8.41101 2.65469 0
M  V30 58071 O 5780.3 -6.4965 4.18908 0
M  V30 58072 C 5781.24 -5.81037 5.05421 0
M  V30 58073 C 5780.51 -4.78366 5.89277 0
M  V30 58074 O 5780.3 -3.58302 5.08433 0
M  V30 58075 C 5779.11 -5.17448 6.36119 0
M  V30 58076 O 5778.72 -4.45271 7.53232 0
M  V30 58077 C 5778.23 -4.74639 5.19936 0
M  V30 58078 C 5778.94 -3.49432 4.70418 0
M  V30 58079 N 5778.89 -3.31776 3.22945 0
M  V30 58080 H 5781.72 -6.54213 5.71376 0
M  V30 58081 H 5782 -5.30492 4.44033 0
M  V30 58082 H 5781.13 -4.55889 6.76652 0
M  V30 58083 P 5777.17 -4.23843 7.83734 0
M  V30 58084 O 5776.95 -4.19407 9.29784 0
M  V30 58085 O 5776.38 -5.24426 7.09156 0
M  V30 58086 O 5776.92 -2.79386 7.20852 0
M  V30 58087 C 5777.86 -1.7299 7.50419 0
M  V30 58088 C 5777.13 -0.41401 7.5797 0
M  V30 58089 O 5776.92 0.089787 6.22035 0
M  V30 58090 C 5775.73 -0.447224 8.1878 0
M  V30 58091 O 5775.34 0.825159 8.71201 0
M  V30 58092 C 5774.85 -0.783801 6.99623 0
M  V30 58093 C 5775.56 -0.0619192 5.85967 0
M  V30 58094 N 5775.51 -0.7859 4.56281 0
M  V30 58095 C 5775.36 -0.0359258 3.39981 0
M  V30 58096 O 5775.27 1.19723 3.49038 0
M  V30 58097 N 5775.31 -0.869151 2.14025 0
M  V30 58098 C 5775.41 -2.01207 2.14363 0
M  V30 58099 N 5775.36 -2.58978 0.954287 0
M  V30 58100 C 5775.56 -2.80817 3.32215 0
M  V30 58101 C 5775.61 -2.13785 4.50884 0
M  V30 58102 H 5778.35 -1.93401 8.46693 0
M  V30 58103 H 5778.62 -1.68181 6.71046 0
M  V30 58104 H 5777.75 0.289076 8.15488 0
M  V30 58105 H 5775.09 0.927166 5.72947 0
M  V30 58106 H 5774.81 -1.87 6.82132 0
M  V30 58107 H 5773.82 -0.404009 7.13457 0
M  V30 58108 H 5775.66 -1.20599 8.97534 0
M  V30 58109 H 5775.73 -2.70295 5.43162 0
M  V30 58110 H 5775.63 -3.89465 3.27406 0
M  V30 58111 H 5775.24 -2.01616 0.107046 0
M  V30 58112 H 5775.43 -3.61403 0.873101 0
M  V30 58113 P 5773.79 1.17771 8.83182 0
M  V30 58114 O 5773.57 2.07206 9.98732 0
M  V30 58115 O 5773 -0.0743816 8.81969 0
M  V30 58116 O 5773.54 1.97652 7.47304 0
M  V30 58117 C 5774.48 3.01133 7.08783 0
M  V30 58118 C 5773.75 4.12613 6.37049 0
M  V30 58119 O 5773.54 3.72827 4.97879 0
M  V30 58120 C 5772.35 4.45085 6.88694 0
M  V30 58121 O 5771.96 5.7877 6.5624 0
M  V30 58122 C 5771.47 3.47817 6.12078 0
M  V30 58123 C 5772.18 3.39414 4.77697 0
M  V30 58124 N 5772.13 2.04615 4.15333 0
M  V30 58125 H 5774.96 3.41248 7.98759 0
M  V30 58126 H 5775.24 2.5837 6.41742 0
M  V30 58127 H 5774.37 5.02657 6.42673 0
M  V30 58128 P 5770.41 6.144 6.45285 0
M  V30 58129 O 5770.19 7.54673 6.86199 0
M  V30 58130 O 5769.62 5.12391 7.179 0
M  V30 58131 O 5770.16 5.99158 4.88404 0
M  V30 58132 C 5771.1 6.60234 3.96415 0
M  V30 58133 C 5770.37 7.08259 2.72856 0
M  V30 58134 O 5770.16 5.9427 1.83651 0
M  V30 58135 C 5768.97 7.64886 2.9555 0
M  V30 58136 O 5768.58 8.53963 1.90717 0
M  V30 58137 C 5768.09 6.4116 2.90739 0
M  V30 58138 C 5768.8 5.55375 1.86963 0
M  V30 58139 N 5768.75 4.09448 2.16152 0
M  V30 58140 H 5771.58 7.45574 4.45629 0
M  V30 58141 H 5771.86 5.85864 3.679 0
M  V30 58142 H 5770.99 7.84412 2.24479 0
M  V30 58143 H 5768.33 5.73457 0.888562 0
M  V30 58144 H 5768.05 5.90877 3.88583 0
M  V30 58145 H 5767.06 6.6596 2.58858 0
M  V30 58146 H 5768.9 8.16339 3.92049 0
M  V30 58147 P 5767.03 8.7635 1.60911 0
M  V30 58148 O 5766.81 10.1388 1.11561 0
M  V30 58149 O 5766.24 8.36503 2.79617 0
M  V30 58150 O 5766.78 7.71806 0.42951 0
M  V30 58151 C 5767.72 7.67148 -0.673689 0
M  V30 58152 C 5766.99 7.33374 -1.95559 0
M  V30 58153 O 5766.78 5.88721 -2.00726 0
M  V30 58154 C 5765.59 7.92526 -2.10483 0
M  V30 58155 O 5765.2 8.02971 -3.47653 0
M  V30 58156 C 5764.71 6.89602 -1.41652 0
M  V30 58157 C 5765.42 5.59201 -1.75185 0
M  V30 58158 N 5765.37 4.58235 -0.662552 0
M  V30 58159 C 5765.45 4.7683 0.704049 0
M  V30 58160 N 5765.37 3.66233 1.39775 0
M  V30 58161 C 5765.23 2.66526 0.431739 0
M  V30 58162 C 5765.1 1.26394 0.575992 0
M  V30 58163 O 5765.08 0.589894 1.60503 0
M  V30 58164 N 5764.98 0.62859 -0.67177 0
M  V30 58165 C 5764.98 1.27134 -1.89385 0
M  V30 58166 N 5764.85 0.492035 -2.96951 0
M  V30 58167 N 5765.11 2.58978 -2.02907 0
M  V30 58168 C 5765.23 3.22433 -0.832218 0
M  V30 58169 H 5768.2 8.65116 -0.777161 0
M  V30 58170 H 5768.48 6.90173 -0.474152 0
M  V30 58171 H 5767.61 7.66548 -2.79458 0
M  V30 58172 H 5764.95 5.16254 -2.65229 0
M  V30 58173 H 5764.67 7.06532 -0.329431 0
M  V30 58174 H 5763.68 6.91023 -1.82047 0
M  V30 58175 H 5765.52 8.90971 -1.62675 0
M  V30 58176 H 5765.57 5.74954 1.16305 0
M  V30 58177 H 5764.88 -0.366713 -0.674793 0
M  V30 58178 H 5764.85 0.908532 -3.91188 0
M  V30 58179 H 5764.75 -0.528253 -2.85758 0
M  V30 58180 P 5763.65 8.03563 -3.84925 0
M  V30 58181 O 5763.43 8.85821 -5.0569 0
M  V30 58182 O 5762.86 8.41101 -2.65469 0
M  V30 58183 O 5763.4 6.4965 -4.18908 0
M  V30 58184 C 5764.34 5.81037 -5.05421 0
M  V30 58185 C 5763.61 4.78366 -5.89277 0
M  V30 58186 O 5763.4 3.58302 -5.08433 0
M  V30 58187 C 5762.21 5.17448 -6.36119 0
M  V30 58188 O 5761.82 4.45271 -7.53232 0
M  V30 58189 C 5761.33 4.74639 -5.19936 0
M  V30 58190 C 5762.04 3.49432 -4.70418 0
M  V30 58191 N 5761.99 3.32099 -3.22613 0
M  V30 58192 H 5764.82 6.54213 -5.71376 0
M  V30 58193 H 5765.1 5.30936 -4.43503 0
M  V30 58194 H 5764.23 4.55889 -6.76652 0
M  V30 58195 H 5761.57 2.61715 -5.17932 0
M  V30 58196 H 5761.29 5.52155 -4.41878 0
M  V30 58197 H 5760.3 4.51981 -5.53374 0
M  V30 58198 H 5762.14 6.25124 -6.55234 0
M  V30 58199 P 5760.27 4.23843 -7.83734 0
M  V30 58200 O 5760.05 4.19407 -9.29784 0
M  V30 58201 O 5759.48 5.24426 -7.09156 0
M  V30 58202 O 5760.02 2.7935 -7.20758 0
M  V30 58203 C 5760.96 1.7299 -7.50419 0
M  V30 58204 C 5760.23 0.406376 -7.57911 0
M  V30 58205 O 5760.02 -0.0897726 -6.21935 0
M  V30 58206 C 5758.83 0.447224 -8.1878 0
M  V30 58207 O 5758.44 -0.825065 -8.71101 0
M  V30 58208 C 5757.95 0.783801 -6.99623 0
M  V30 58209 C 5758.66 0.0619192 -5.85967 0
M  V30 58210 N 5758.61 0.790462 -4.56202 0
M  V30 58211 C 5758.69 2.13895 -4.34171 0
M  V30 58212 N 5758.62 2.46449 -3.08687 0
M  V30 58213 C 5758.47 1.2525 -2.43697 0
M  V30 58214 C 5758.34 0.914535 -1.07318 0
M  V30 58215 N 5758.33 1.80782 -0.0887348 0
M  V30 58216 N 5758.22 -0.386745 -0.768133 0
M  V30 58217 C 5758.23 -1.28096 -1.75159 0
M  V30 58218 N 5758.35 -1.09708 -3.04861 0
M  V30 58219 C 5758.47 0.214857 -3.32306 0
M  V30 58220 H 5761.44 1.93423 -8.4679 0
M  V30 58221 H 5761.72 1.68852 -6.70877 0
M  V30 58222 H 5760.85 -0.289041 -8.15388 0
M  V30 58223 H 5758.19 -0.927006 -5.72848 0
M  V30 58224 H 5757.91 1.86973 -6.82036 0
M  V30 58225 H 5756.92 0.403953 -7.13357 0
M  V30 58226 H 5758.76 1.20599 -8.97534 0
M  V30 58227 H 5758.8 2.86846 -5.14318 0
M  V30 58228 H 5758.42 2.81082 -0.302037 0
M  V30 58229 H 5758.23 1.49688 0.889064 0
M  V30 58230 H 5758.12 -2.31317 -1.43855 0
M  V30 58231 P 5756.89 -1.17771 -8.83182 0
M  V30 58232 O 5756.67 -2.07206 -9.98732 0
M  V30 58233 O 5756.1 0.0743816 -8.81969 0
M  V30 58234 O 5756.64 -1.97652 -7.47304 0
M  V30 58235 C 5757.58 -3.01133 -7.08783 0
M  V30 58236 C 5756.85 -4.12613 -6.37049 0
M  V30 58237 O 5756.64 -3.72827 -4.97879 0
M  V30 58238 C 5755.45 -4.45085 -6.88694 0
M  V30 58239 O 5755.06 -5.7877 -6.5624 0
M  V30 58240 C 5754.57 -3.47817 -6.12078 0
M  V30 58241 C 5755.28 -3.39414 -4.77697 0
M  V30 58242 N 5755.23 -2.04199 -4.15538 0
M  V30 58243 H 5758.06 -3.41248 -7.98759 0
M  V30 58244 H 5758.34 -2.57728 -6.42 0
M  V30 58245 H 5757.47 -5.02657 -6.42673 0
M  V30 58246 H 5754.81 -4.11708 -4.08956 0
M  V30 58247 H 5754.53 -2.49626 -6.61679 0
M  V30 58248 H 5753.54 -3.8662 -6.00862 0
M  V30 58249 H 5755.38 -4.29991 -7.97006 0
M  V30 58250 P 5753.51 -6.144 -6.45285 0
M  V30 58251 O 5753.29 -7.54673 -6.86199 0
M  V30 58252 O 5752.72 -5.12391 -7.179 0
M  V30 58253 O 5753.26 -5.99158 -4.88404 0
M  V30 58254 C 5754.2 -6.60234 -3.96415 0
M  V30 58255 C 5753.47 -7.08259 -2.72856 0
M  V30 58256 O 5753.26 -5.9427 -1.83651 0
M  V30 58257 C 5752.07 -7.64886 -2.9555 0
M  V30 58258 O 5751.68 -8.53963 -1.90717 0
M  V30 58259 C 5751.19 -6.4116 -2.90739 0
M  V30 58260 C 5751.9 -5.55375 -1.86963 0
M  V30 58261 N 5751.85 -4.09664 -2.15742 0
M  V30 58262 H 5754.68 -7.45574 -4.45629 0
M  V30 58263 H 5754.96 -5.86232 -3.67314 0
M  V30 58264 H 5754.09 -7.84412 -2.24479 0
M  V30 58265 P 5750.13 -8.7635 -1.60911 0
M  V30 58266 O 5749.91 -10.1388 -1.11561 0
M  V30 58267 O 5749.34 -8.36503 -2.79617 0
M  V30 58268 O 5749.88 -7.71806 -0.42951 0
M  V30 58269 C 5750.82 -7.67148 0.673689 0
M  V30 58270 C 5750.09 -7.33374 1.95559 0
M  V30 58271 O 5749.88 -5.88721 2.00726 0
M  V30 58272 C 5748.69 -7.92526 2.10483 0
M  V30 58273 O 5748.3 -8.02971 3.47653 0
M  V30 58274 C 5747.81 -6.89602 1.41652 0
M  V30 58275 C 5748.52 -5.59201 1.75185 0
M  V30 58276 N 5748.47 -4.58235 0.662552 0
M  V30 58277 H 5751.3 -8.65116 0.777161 0
M  V30 58278 H 5751.58 -6.90173 0.474152 0
M  V30 58279 H 5750.71 -7.66548 2.79458 0
M  V30 58280 P 5746.75 -8.03563 3.84925 0
M  V30 58281 O 5746.53 -8.85821 5.0569 0
M  V30 58282 O 5745.96 -8.41101 2.65469 0
M  V30 58283 O 5746.5 -6.4965 4.18908 0
M  V30 58284 C 5747.44 -5.81037 5.05421 0
M  V30 58285 C 5746.71 -4.78366 5.89277 0
M  V30 58286 O 5746.5 -3.58302 5.08433 0
M  V30 58287 C 5745.31 -5.17448 6.36119 0
M  V30 58288 O 5744.92 -4.45271 7.53232 0
M  V30 58289 C 5744.43 -4.74639 5.19936 0
M  V30 58290 C 5745.14 -3.49432 4.70418 0
M  V30 58291 N 5745.09 -3.31776 3.22945 0
M  V30 58292 C 5745.17 -4.27147 2.23315 0
M  V30 58293 N 5745.09 -3.78447 1.02186 0
M  V30 58294 C 5744.95 -2.41001 1.21732 0
M  V30 58295 C 5744.82 -1.36111 0.27694 0
M  V30 58296 N 5744.7 -0.113683 0.912949 0
M  V30 58297 C 5744.7 0.0846396 2.27943 0
M  V30 58298 N 5744.57 1.34737 2.6916 0
M  V30 58299 N 5744.83 -0.902521 3.16379 0
M  V30 58300 C 5744.95 -2.11937 2.56849 0
M  V30 58301 H 5747.93 -6.54213 5.71376 0
M  V30 58302 H 5748.2 -5.30492 4.44033 0
M  V30 58303 H 5747.33 -4.55889 6.76652 0
M  V30 58304 P 5743.37 -4.23843 7.83734 0
M  V30 58305 O 5743.15 -4.19407 9.29784 0
M  V30 58306 O 5742.58 -5.24426 7.09156 0
M  V30 58307 O 5743.12 -2.7935 7.20758 0
M  V30 58308 C 5744.06 -1.7299 7.50419 0
M  V30 58309 C 5743.33 -0.406376 7.57911 0
M  V30 58310 O 5743.12 0.0897726 6.21935 0
M  V30 58311 C 5741.93 -0.447224 8.1878 0
M  V30 58312 O 5741.54 0.825065 8.71101 0
M  V30 58313 C 5741.05 -0.783801 6.99623 0
M  V30 58314 C 5741.76 -0.0619192 5.85967 0
M  V30 58315 N 5741.71 -0.7859 4.56281 0
M  V30 58316 H 5744.55 -1.93423 8.4679 0
M  V30 58317 H 5744.82 -1.68181 6.71046 0
M  V30 58318 H 5743.95 0.289041 8.15388 0
M  V30 58319 P 5739.99 1.17771 8.83182 0
M  V30 58320 O 5739.77 2.07206 9.98732 0
M  V30 58321 O 5739.2 -0.0743816 8.81969 0
M  V30 58322 O 5739.74 1.97652 7.47304 0
M  V30 58323 C 5740.68 3.01133 7.08783 0
M  V30 58324 C 5739.95 4.12613 6.37049 0
M  V30 58325 O 5739.74 3.72827 4.97879 0
M  V30 58326 C 5738.55 4.45085 6.88694 0
M  V30 58327 O 5738.16 5.7877 6.5624 0
M  V30 58328 C 5737.67 3.47817 6.12078 0
M  V30 58329 C 5738.38 3.39414 4.77697 0
M  V30 58330 N 5738.33 2.04615 4.15333 0
M  V30 58331 H 5741.17 3.41248 7.98759 0
M  V30 58332 H 5741.44 2.5837 6.41742 0
M  V30 58333 H 5740.57 5.02657 6.42673 0
M  V30 58334 P 5736.61 6.144 6.45285 0
M  V30 58335 O 5736.39 7.54673 6.86199 0
M  V30 58336 O 5735.82 5.12391 7.179 0
M  V30 58337 O 5736.36 5.99158 4.88404 0
M  V30 58338 C 5737.3 6.60234 3.96415 0
M  V30 58339 C 5736.57 7.08259 2.72856 0
M  V30 58340 O 5736.36 5.9427 1.83651 0
M  V30 58341 C 5735.17 7.64886 2.9555 0
M  V30 58342 O 5734.78 8.53963 1.90717 0
M  V30 58343 C 5734.29 6.4116 2.90739 0
M  V30 58344 C 5735 5.55375 1.86963 0
M  V30 58345 N 5734.95 4.09664 2.15742 0
M  V30 58346 H 5737.79 7.45574 4.45629 0
M  V30 58347 H 5738.06 5.86232 3.67314 0
M  V30 58348 H 5737.19 7.84412 2.24479 0
M  V30 58349 P 5733.23 8.7635 1.60911 0
M  V30 58350 O 5733.01 10.1388 1.11561 0
M  V30 58351 O 5732.44 8.36503 2.79617 0
M  V30 58352 O 5732.98 7.71806 0.42951 0
M  V30 58353 C 5733.92 7.67148 -0.673689 0
M  V30 58354 C 5733.19 7.33374 -1.95559 0
M  V30 58355 O 5732.98 5.88721 -2.00726 0
M  V30 58356 C 5731.79 7.92526 -2.10483 0
M  V30 58357 O 5731.4 8.02971 -3.47653 0
M  V30 58358 C 5730.91 6.89602 -1.41652 0
M  V30 58359 C 5731.62 5.59201 -1.75185 0
M  V30 58360 N 5731.57 4.58235 -0.662552 0
M  V30 58361 C 5731.65 4.7683 0.704049 0
M  V30 58362 N 5731.57 3.66233 1.39775 0
M  V30 58363 C 5731.43 2.66526 0.431739 0
M  V30 58364 C 5731.3 1.26394 0.575992 0
M  V30 58365 N 5731.18 0.62859 -0.67177 0
M  V30 58366 C 5731.18 1.27134 -1.89385 0
M  V30 58367 N 5731.05 0.492035 -2.96951 0
M  V30 58368 N 5731.31 2.58978 -2.02907 0
M  V30 58369 C 5731.43 3.22433 -0.832218 0
M  V30 58370 H 5734.41 8.65116 -0.777161 0
M  V30 58371 H 5734.68 6.90173 -0.474152 0
M  V30 58372 H 5733.81 7.66548 -2.79458 0
M  V30 58373 P 5729.85 8.03563 -3.84925 0
M  V30 58374 O 5729.63 8.85821 -5.0569 0
M  V30 58375 O 5729.06 8.41101 -2.65469 0
M  V30 58376 O 5729.6 6.4965 -4.18908 0
M  V30 58377 C 5730.54 5.81037 -5.05421 0
M  V30 58378 C 5729.81 4.78366 -5.89277 0
M  V30 58379 O 5729.6 3.58302 -5.08433 0
M  V30 58380 C 5728.41 5.17448 -6.36119 0
M  V30 58381 O 5728.02 4.45271 -7.53232 0
M  V30 58382 C 5727.53 4.74639 -5.19936 0
M  V30 58383 C 5728.24 3.49432 -4.70418 0
M  V30 58384 N 5728.19 3.32099 -3.22613 0
M  V30 58385 H 5731.03 6.54213 -5.71376 0
M  V30 58386 H 5731.3 5.30936 -4.43503 0
M  V30 58387 H 5730.43 4.55889 -6.76652 0
M  V30 58388 H 5727.77 2.61715 -5.17932 0
M  V30 58389 H 5727.49 5.52155 -4.41878 0
M  V30 58390 H 5726.5 4.51981 -5.53374 0
M  V30 58391 H 5728.34 6.25124 -6.55234 0
M  V30 58392 P 5726.47 4.23843 -7.83734 0
M  V30 58393 O 5726.25 4.19407 -9.29784 0
M  V30 58394 O 5725.68 5.24426 -7.09156 0
M  V30 58395 O 5726.22 2.7935 -7.20758 0
M  V30 58396 C 5727.16 1.7299 -7.50419 0
M  V30 58397 C 5726.43 0.406376 -7.57911 0
M  V30 58398 O 5726.22 -0.0897726 -6.21935 0
M  V30 58399 C 5725.03 0.447224 -8.1878 0
M  V30 58400 O 5724.64 -0.825065 -8.71101 0
M  V30 58401 C 5724.15 0.783801 -6.99623 0
M  V30 58402 C 5724.86 0.0619192 -5.85967 0
M  V30 58403 N 5724.81 0.7859 -4.56281 0
M  V30 58404 H 5727.65 1.93423 -8.4679 0
M  V30 58405 H 5727.92 1.68181 -6.71046 0
M  V30 58406 H 5727.05 -0.289041 -8.15388 0
M  V30 58407 P 5723.09 -1.17771 -8.83182 0
M  V30 58408 O 5722.87 -2.07206 -9.98732 0
M  V30 58409 O 5722.3 0.0743816 -8.81969 0
M  V30 58410 O 5722.84 -1.97652 -7.47304 0
M  V30 58411 C 5723.78 -3.01133 -7.08783 0
M  V30 58412 C 5723.05 -4.12613 -6.37049 0
M  V30 58413 O 5722.84 -3.72827 -4.97879 0
M  V30 58414 C 5721.65 -4.45085 -6.88694 0
M  V30 58415 O 5721.26 -5.7877 -6.5624 0
M  V30 58416 C 5720.77 -3.47817 -6.12078 0
M  V30 58417 C 5721.48 -3.39414 -4.77697 0
M  V30 58418 N 5721.43 -2.04199 -4.15538 0
M  V30 58419 H 5724.27 -3.41248 -7.98759 0
M  V30 58420 H 5724.54 -2.57728 -6.42 0
M  V30 58421 H 5723.67 -5.02657 -6.42673 0
M  V30 58422 H 5721.01 -4.11708 -4.08956 0
M  V30 58423 H 5720.73 -2.49626 -6.61679 0
M  V30 58424 H 5719.74 -3.8662 -6.00862 0
M  V30 58425 H 5721.58 -4.29991 -7.97006 0
M  V30 58426 P 5719.71 -6.144 -6.45285 0
M  V30 58427 O 5719.49 -7.54673 -6.86199 0
M  V30 58428 O 5718.92 -5.12391 -7.179 0
M  V30 58429 O 5719.46 -5.99158 -4.88404 0
M  V30 58430 C 5720.4 -6.60234 -3.96415 0
M  V30 58431 C 5719.67 -7.08259 -2.72856 0
M  V30 58432 O 5719.46 -5.9427 -1.83651 0
M  V30 58433 C 5718.27 -7.64886 -2.9555 0
M  V30 58434 O 5717.88 -8.53963 -1.90717 0
M  V30 58435 C 5717.39 -6.4116 -2.90739 0
M  V30 58436 C 5718.1 -5.55375 -1.86963 0
M  V30 58437 N 5718.05 -4.09664 -2.15742 0
M  V30 58438 H 5720.89 -7.45574 -4.45629 0
M  V30 58439 H 5721.16 -5.86232 -3.67314 0
M  V30 58440 H 5720.29 -7.84412 -2.24479 0
M  V30 58441 P 5716.33 -8.7635 -1.60911 0
M  V30 58442 O 5716.11 -10.1388 -1.11561 0
M  V30 58443 O 5715.54 -8.36503 -2.79617 0
M  V30 58444 O 5716.08 -7.71806 -0.42951 0
M  V30 58445 C 5717.02 -7.67148 0.673689 0
M  V30 58446 C 5716.29 -7.33374 1.95559 0
M  V30 58447 O 5716.08 -5.88721 2.00726 0
M  V30 58448 C 5714.89 -7.92526 2.10483 0
M  V30 58449 O 5714.5 -8.02971 3.47653 0
M  V30 58450 C 5714.01 -6.89602 1.41652 0
M  V30 58451 C 5714.72 -5.59201 1.75185 0
M  V30 58452 N 5714.67 -4.58235 0.662552 0
M  V30 58453 H 5717.51 -8.65116 0.777161 0
M  V30 58454 H 5717.78 -6.90173 0.474152 0
M  V30 58455 H 5716.91 -7.66548 2.79458 0
M  V30 58456 P 5712.95 -8.03563 3.84925 0
M  V30 58457 O 5712.73 -8.85821 5.0569 0
M  V30 58458 O 5712.16 -8.41101 2.65469 0
M  V30 58459 O 5712.7 -6.4965 4.18908 0
M  V30 58460 C 5713.64 -5.81037 5.05421 0
M  V30 58461 C 5712.91 -4.78366 5.89277 0
M  V30 58462 O 5712.7 -3.58302 5.08433 0
M  V30 58463 C 5711.51 -5.17448 6.36119 0
M  V30 58464 O 5711.12 -4.45271 7.53232 0
M  V30 58465 C 5710.63 -4.74639 5.19936 0
M  V30 58466 C 5711.34 -3.49432 4.70418 0
M  V30 58467 N 5711.29 -3.31776 3.22945 0
M  V30 58468 H 5714.13 -6.54213 5.71376 0
M  V30 58469 H 5714.4 -5.30492 4.44033 0
M  V30 58470 H 5713.53 -4.55889 6.76652 0
M  V30 58471 P 5709.57 -4.23843 7.83734 0
M  V30 58472 O 5709.35 -4.19407 9.29784 0
M  V30 58473 O 5708.78 -5.24426 7.09156 0
M  V30 58474 O 5709.32 -2.7935 7.20758 0
M  V30 58475 C 5710.26 -1.7299 7.50419 0
M  V30 58476 C 5709.53 -0.406376 7.57911 0
M  V30 58477 O 5709.32 0.0897726 6.21935 0
M  V30 58478 C 5708.13 -0.447224 8.1878 0
M  V30 58479 O 5707.74 0.825065 8.71101 0
M  V30 58480 C 5707.25 -0.783801 6.99623 0
M  V30 58481 C 5707.96 -0.0619192 5.85967 0
M  V30 58482 N 5707.91 -0.7859 4.56281 0
M  V30 58483 H 5710.75 -1.93423 8.4679 0
M  V30 58484 H 5711.02 -1.68181 6.71046 0
M  V30 58485 H 5710.15 0.289041 8.15388 0
M  V30 58486 P 5706.19 1.17771 8.83182 0
M  V30 58487 O 5705.97 2.07206 9.98732 0
M  V30 58488 O 5705.4 -0.0743816 8.81969 0
M  V30 58489 O 5705.94 1.97652 7.47304 0
M  V30 58490 C 5706.88 3.01133 7.08783 0
M  V30 58491 C 5706.15 4.12613 6.37049 0
M  V30 58492 O 5705.94 3.72827 4.97879 0
M  V30 58493 C 5704.75 4.45085 6.88694 0
M  V30 58494 O 5704.36 5.7877 6.5624 0
M  V30 58495 C 5703.87 3.47817 6.12078 0
M  V30 58496 C 5704.58 3.39414 4.77697 0
M  V30 58497 N 5704.53 2.04615 4.15333 0
M  V30 58498 H 5707.37 3.41248 7.98759 0
M  V30 58499 H 5707.64 2.5837 6.41742 0
M  V30 58500 H 5706.77 5.02657 6.42673 0
M  V30 58501 P 5702.81 6.144 6.45285 0
M  V30 58502 O 5702.59 7.54673 6.86199 0
M  V30 58503 O 5702.02 5.12391 7.179 0
M  V30 58504 O 5702.56 5.99158 4.88404 0
M  V30 58505 C 5703.5 6.60234 3.96415 0
M  V30 58506 C 5702.77 7.08259 2.72856 0
M  V30 58507 O 5702.56 5.9427 1.83651 0
M  V30 58508 C 5701.37 7.64886 2.9555 0
M  V30 58509 O 5700.98 8.53963 1.90717 0
M  V30 58510 C 5700.49 6.4116 2.90739 0
M  V30 58511 C 5701.2 5.55375 1.86963 0
M  V30 58512 N 5701.15 4.09664 2.15742 0
M  V30 58513 H 5703.99 7.45574 4.45629 0
M  V30 58514 H 5704.26 5.86232 3.67314 0
M  V30 58515 H 5703.39 7.84412 2.24479 0
M  V30 58516 P 5699.43 8.7635 1.60911 0
M  V30 58517 O 5699.21 10.1388 1.11561 0
M  V30 58518 O 5698.64 8.36503 2.79617 0
M  V30 58519 O 5699.18 7.71806 0.42951 0
M  V30 58520 C 5700.12 7.66948 -0.673514 0
M  V30 58521 C 5699.39 7.33374 -1.95559 0
M  V30 58522 O 5699.18 5.88721 -2.00726 0
M  V30 58523 C 5697.99 7.92218 -2.1125 0
M  V30 58524 O 5697.6 8.02971 -3.47653 0
M  V30 58525 C 5697.11 6.89504 -1.41631 0
M  V30 58526 C 5697.82 5.59106 -1.75155 0
M  V30 58527 N 5697.77 4.58136 -0.662409 0
M  V30 58528 C 5697.62 3.26059 -1.02863 0
M  V30 58529 O 5697.53 2.90743 -2.19009 0
M  V30 58530 N 5697.58 2.35995 0.0155585 0
M  V30 58531 C 5697.67 2.65248 1.35603 0
M  V30 58532 C 5697.82 4.05747 1.64698 0
M  V30 58533 C 5697.87 4.96734 0.652411 0
M  V30 58534 H 5700.61 8.64917 -0.776982 0
M  V30 58535 H 5700.88 6.89974 -0.474015 0
M  V30 58536 H 5700.01 7.66548 -2.79458 0
M  V30 58537 H 5697.35 5.16076 -2.65138 0
M  V30 58538 H 5697.08 7.06433 -0.329384 0
M  V30 58539 H 5696.08 6.90829 -1.81996 0
M  V30 58540 H 5697.92 8.90774 -1.62639 0
M  V30 58541 H 5697.99 6.02181 0.895285 0
M  V30 58542 P 5696.05 8.03563 -3.84925 0
M  V30 58543 O 5695.83 8.85821 -5.0569 0
M  V30 58544 O 5695.26 8.41101 -2.65469 0
M  V30 58545 O 5695.8 6.4965 -4.18908 0
M  V30 58546 C 5696.74 5.81037 -5.05421 0
M  V30 58547 C 5696.01 4.78366 -5.89277 0
M  V30 58548 O 5695.8 3.58302 -5.08433 0
M  V30 58549 C 5694.61 5.17448 -6.36119 0
M  V30 58550 O 5694.22 4.45271 -7.53232 0
M  V30 58551 C 5693.73 4.74639 -5.19936 0
M  V30 58552 C 5694.44 3.49432 -4.70418 0
M  V30 58553 N 5694.39 3.31776 -3.22945 0
M  V30 58554 H 5697.23 6.54213 -5.71376 0
M  V30 58555 H 5697.5 5.30492 -4.44033 0
M  V30 58556 H 5696.63 4.55889 -6.76652 0
M  V30 58557 P 5692.67 4.23843 -7.83734 0
M  V30 58558 O 5692.45 4.19407 -9.29784 0
M  V30 58559 O 5691.88 5.24426 -7.09156 0
M  V30 58560 O 5692.42 2.7935 -7.20758 0
M  V30 58561 C 5693.36 1.7299 -7.50419 0
M  V30 58562 C 5692.63 0.406376 -7.57911 0
M  V30 58563 O 5692.42 -0.0897726 -6.21935 0
M  V30 58564 C 5691.23 0.447224 -8.1878 0
M  V30 58565 O 5690.84 -0.825065 -8.71101 0
M  V30 58566 C 5690.35 0.783801 -6.99623 0
M  V30 58567 C 5691.06 0.0619192 -5.85967 0
M  V30 58568 N 5691.01 0.7859 -4.56281 0
M  V30 58569 H 5693.85 1.93423 -8.4679 0
M  V30 58570 H 5694.12 1.68181 -6.71046 0
M  V30 58571 H 5693.25 -0.289041 -8.15388 0
M  V30 58572 P 5689.29 -1.17771 -8.83182 0
M  V30 58573 O 5689.07 -2.07206 -9.98732 0
M  V30 58574 O 5688.5 0.0743816 -8.81969 0
M  V30 58575 O 5689.04 -1.97652 -7.47304 0
M  V30 58576 C 5689.98 -3.01133 -7.08783 0
M  V30 58577 C 5689.25 -4.12613 -6.37049 0
M  V30 58578 O 5689.04 -3.72827 -4.97879 0
M  V30 58579 C 5687.85 -4.45085 -6.88694 0
M  V30 58580 O 5687.46 -5.7877 -6.5624 0
M  V30 58581 C 5686.97 -3.47817 -6.12078 0
M  V30 58582 C 5687.68 -3.39414 -4.77697 0
M  V30 58583 N 5687.63 -2.04615 -4.15333 0
M  V30 58584 H 5690.47 -3.41248 -7.98759 0
M  V30 58585 H 5690.74 -2.5837 -6.41742 0
M  V30 58586 H 5689.87 -5.02657 -6.42673 0
M  V30 58587 P 5685.91 -6.144 -6.45285 0
M  V30 58588 O 5685.69 -7.54673 -6.86199 0
M  V30 58589 O 5685.12 -5.12391 -7.179 0
M  V30 58590 O 5685.66 -5.99158 -4.88404 0
M  V30 58591 C 5686.6 -6.60234 -3.96415 0
M  V30 58592 C 5685.87 -7.08259 -2.72856 0
M  V30 58593 O 5685.66 -5.9427 -1.83651 0
M  V30 58594 C 5684.47 -7.64886 -2.9555 0
M  V30 58595 O 5684.08 -8.53963 -1.90717 0
M  V30 58596 C 5683.59 -6.4116 -2.90739 0
M  V30 58597 C 5684.3 -5.55375 -1.86963 0
M  V30 58598 N 5684.25 -4.09664 -2.15742 0
M  V30 58599 H 5687.09 -7.45574 -4.45629 0
M  V30 58600 H 5687.36 -5.86232 -3.67314 0
M  V30 58601 H 5686.49 -7.84412 -2.24479 0
M  V30 58602 P 5682.53 -8.7635 -1.60911 0
M  V30 58603 O 5682.31 -10.1388 -1.11561 0
M  V30 58604 O 5681.74 -8.36503 -2.79617 0
M  V30 58605 O 5682.28 -7.71806 -0.42951 0
M  V30 58606 C 5683.22 -7.67148 0.673689 0
M  V30 58607 C 5682.49 -7.33374 1.95559 0
M  V30 58608 O 5682.28 -5.88721 2.00726 0
M  V30 58609 C 5681.09 -7.92526 2.10483 0
M  V30 58610 O 5680.7 -8.02971 3.47653 0
M  V30 58611 C 5680.21 -6.89602 1.41652 0
M  V30 58612 C 5680.92 -5.59201 1.75185 0
M  V30 58613 N 5680.87 -4.58235 0.662552 0
M  V30 58614 H 5683.71 -8.65116 0.777161 0
M  V30 58615 H 5683.98 -6.90173 0.474152 0
M  V30 58616 H 5683.11 -7.66548 2.79458 0
M  V30 58617 P 5679.15 -8.03563 3.84925 0
M  V30 58618 O 5678.93 -8.85821 5.0569 0
M  V30 58619 O 5678.36 -8.41101 2.65469 0
M  V30 58620 O 5678.9 -6.4965 4.18908 0
M  V30 58621 C 5679.84 -5.81037 5.05421 0
M  V30 58622 C 5679.11 -4.78366 5.89277 0
M  V30 58623 O 5678.9 -3.58302 5.08433 0
M  V30 58624 C 5677.71 -5.17448 6.36119 0
M  V30 58625 O 5677.32 -4.45271 7.53232 0
M  V30 58626 C 5676.83 -4.74639 5.19936 0
M  V30 58627 C 5677.54 -3.49432 4.70418 0
M  V30 58628 N 5677.49 -3.31776 3.22945 0
M  V30 58629 H 5680.33 -6.54213 5.71376 0
M  V30 58630 H 5680.6 -5.30492 4.44033 0
M  V30 58631 H 5679.73 -4.55889 6.76652 0
M  V30 58632 P 5675.77 -4.23843 7.83734 0
M  V30 58633 O 5675.55 -4.19407 9.29784 0
M  V30 58634 O 5674.98 -5.24426 7.09156 0
M  V30 58635 O 5675.52 -2.7935 7.20758 0
M  V30 58636 C 5676.46 -1.7299 7.50419 0
M  V30 58637 C 5675.73 -0.406376 7.57911 0
M  V30 58638 O 5675.52 0.0897726 6.21935 0
M  V30 58639 C 5674.33 -0.447224 8.1878 0
M  V30 58640 O 5673.94 0.825065 8.71101 0
M  V30 58641 C 5673.45 -0.783801 6.99623 0
M  V30 58642 C 5674.16 -0.0619192 5.85967 0
M  V30 58643 N 5674.11 -0.7859 4.56281 0
M  V30 58644 H 5676.95 -1.93423 8.4679 0
M  V30 58645 H 5677.22 -1.68181 6.71046 0
M  V30 58646 H 5676.35 0.289041 8.15388 0
M  V30 58647 P 5672.39 1.17771 8.83182 0
M  V30 58648 O 5672.17 2.07206 9.98732 0
M  V30 58649 O 5671.6 -0.0743816 8.81969 0
M  V30 58650 O 5672.14 1.97652 7.47304 0
M  V30 58651 C 5673.08 3.01055 7.08599 0
M  V30 58652 C 5672.35 4.12613 6.37049 0
M  V30 58653 O 5672.14 3.72827 4.97879 0
M  V30 58654 C 5670.95 4.45719 6.88164 0
M  V30 58655 O 5670.56 5.7877 6.5624 0
M  V30 58656 C 5670.07 3.47768 6.11991 0
M  V30 58657 C 5670.78 3.39356 4.77615 0
M  V30 58658 N 5670.73 2.04571 4.15244 0
M  V30 58659 C 5670.58 1.98587 2.78314 0
M  V30 58660 O 5670.49 2.98134 2.08835 0
M  V30 58661 N 5670.54 0.714467 2.24925 0
M  V30 58662 C 5670.63 -0.470001 2.94169 0
M  V30 58663 O 5670.58 -1.55587 2.35195 0
M  V30 58664 C 5670.78 -0.312541 4.36783 0
M  V30 58665 C 5670.89 -1.57711 5.16352 0
M  V30 58666 C 5670.83 0.914512 4.92583 0
M  V30 58667 H 5673.57 3.41169 7.98575 0
M  V30 58668 H 5673.84 2.58295 6.41556 0
M  V30 58669 H 5672.97 5.02657 6.42673 0
M  V30 58670 H 5670.31 4.11637 4.08885 0
M  V30 58671 H 5670.04 2.49626 6.61679 0
M  V30 58672 H 5669.04 3.86566 6.00778 0
M  V30 58673 H 5670.88 4.29943 7.96918 0
M  V30 58674 H 5670.95 1.00937 6.00374 0
M  V30 58675 H 5669.92 -1.80153 5.63503 0
M  V30 58676 H 5671.66 -1.4566 5.94104 0
M  V30 58677 H 5671.17 -2.40664 4.49645 0
M  V30 58678 H 5670.43 0.647622 1.25697 0
M  V30 58679 P 5669.01 6.144 6.45285 0
M  V30 58680 O 5668.79 7.54673 6.86199 0
M  V30 58681 O 5668.22 5.12391 7.179 0
M  V30 58682 O 5668.76 5.99158 4.88404 0
M  V30 58683 C 5669.7 6.60234 3.96415 0
M  V30 58684 C 5668.97 7.08259 2.72856 0
M  V30 58685 O 5668.76 5.9427 1.83651 0
M  V30 58686 C 5667.57 7.64886 2.9555 0
M  V30 58687 O 5667.18 8.53963 1.90717 0
M  V30 58688 C 5666.69 6.4116 2.90739 0
M  V30 58689 C 5667.4 5.55375 1.86963 0
M  V30 58690 N 5667.35 4.09448 2.16152 0
M  V30 58691 H 5670.19 7.45574 4.45629 0
M  V30 58692 H 5670.46 5.85864 3.679 0
M  V30 58693 H 5669.59 7.84412 2.24479 0
M  V30 58694 H 5666.93 5.73457 0.888562 0
M  V30 58695 H 5666.65 5.90877 3.88583 0
M  V30 58696 H 5665.66 6.6596 2.58858 0
M  V30 58697 H 5667.5 8.16339 3.92049 0
M  V30 58698 P 5665.63 8.7635 1.60911 0
M  V30 58699 O 5665.41 10.1388 1.11561 0
M  V30 58700 O 5664.84 8.36503 2.79617 0
M  V30 58701 O 5665.38 7.71806 0.42951 0
M  V30 58702 C 5666.32 7.67148 -0.673689 0
M  V30 58703 C 5665.59 7.33374 -1.95559 0
M  V30 58704 O 5665.38 5.88721 -2.00726 0
M  V30 58705 C 5664.19 7.92526 -2.10483 0
M  V30 58706 O 5663.8 8.02971 -3.47653 0
M  V30 58707 C 5663.31 6.89602 -1.41652 0
M  V30 58708 C 5664.02 5.59201 -1.75185 0
M  V30 58709 N 5663.97 4.58235 -0.662552 0
M  V30 58710 H 5666.81 8.65116 -0.777161 0
M  V30 58711 H 5667.08 6.90173 -0.474152 0
M  V30 58712 H 5666.21 7.66548 -2.79458 0
M  V30 58713 P 5662.25 8.03563 -3.84925 0
M  V30 58714 O 5662.03 8.85821 -5.0569 0
M  V30 58715 O 5661.46 8.41101 -2.65469 0
M  V30 58716 O 5662 6.4965 -4.18908 0
M  V30 58717 C 5662.94 5.81037 -5.05421 0
M  V30 58718 C 5662.21 4.78366 -5.89277 0
M  V30 58719 O 5662 3.58302 -5.08433 0
M  V30 58720 C 5660.81 5.17448 -6.36119 0
M  V30 58721 O 5660.42 4.45271 -7.53232 0
M  V30 58722 C 5659.93 4.74639 -5.19936 0
M  V30 58723 C 5660.64 3.49432 -4.70418 0
M  V30 58724 N 5660.59 3.31776 -3.22945 0
M  V30 58725 H 5663.43 6.54213 -5.71376 0
M  V30 58726 H 5663.7 5.30492 -4.44033 0
M  V30 58727 H 5662.83 4.55889 -6.76652 0
M  V30 58728 P 5658.87 4.23843 -7.83734 0
M  V30 58729 O 5658.65 4.19407 -9.29784 0
M  V30 58730 O 5658.08 5.24426 -7.09156 0
M  V30 58731 O 5658.62 2.7935 -7.20758 0
M  V30 58732 C 5659.56 1.7299 -7.50419 0
M  V30 58733 C 5658.83 0.406376 -7.57911 0
M  V30 58734 O 5658.62 -0.0897726 -6.21935 0
M  V30 58735 C 5657.43 0.447224 -8.1878 0
M  V30 58736 O 5657.04 -0.825065 -8.71101 0
M  V30 58737 C 5656.55 0.783801 -6.99623 0
M  V30 58738 C 5657.26 0.0619192 -5.85967 0
M  V30 58739 N 5657.21 0.7859 -4.56281 0
M  V30 58740 H 5660.05 1.93423 -8.4679 0
M  V30 58741 H 5660.32 1.68181 -6.71046 0
M  V30 58742 H 5659.45 -0.289041 -8.15388 0
M  V30 58743 P 5655.49 -1.17771 -8.83182 0
M  V30 58744 O 5655.27 -2.07206 -9.98732 0
M  V30 58745 O 5654.7 0.0743816 -8.81969 0
M  V30 58746 O 5655.24 -1.97652 -7.47304 0
M  V30 58747 C 5656.18 -3.01133 -7.08783 0
M  V30 58748 C 5655.45 -4.12613 -6.37049 0
M  V30 58749 O 5655.24 -3.72827 -4.97879 0
M  V30 58750 C 5654.05 -4.45085 -6.88694 0
M  V30 58751 O 5653.66 -5.7877 -6.5624 0
M  V30 58752 C 5653.17 -3.47817 -6.12078 0
M  V30 58753 C 5653.88 -3.39414 -4.77697 0
M  V30 58754 N 5653.83 -2.04615 -4.15333 0
M  V30 58755 H 5656.67 -3.41248 -7.98759 0
M  V30 58756 H 5656.94 -2.5837 -6.41742 0
M  V30 58757 H 5656.07 -5.02657 -6.42673 0
M  V30 58758 P 5652.11 -6.144 -6.45285 0
M  V30 58759 O 5651.89 -7.54673 -6.86199 0
M  V30 58760 O 5651.32 -5.12391 -7.179 0
M  V30 58761 O 5651.86 -5.99158 -4.88404 0
M  V30 58762 C 5652.8 -6.60234 -3.96415 0
M  V30 58763 C 5652.07 -7.08259 -2.72856 0
M  V30 58764 O 5651.86 -5.9427 -1.83651 0
M  V30 58765 C 5650.67 -7.64886 -2.9555 0
M  V30 58766 O 5650.28 -8.53963 -1.90717 0
M  V30 58767 C 5649.79 -6.4116 -2.90739 0
M  V30 58768 C 5650.5 -5.55375 -1.86963 0
M  V30 58769 N 5650.45 -4.09664 -2.15742 0
M  V30 58770 H 5653.29 -7.45574 -4.45629 0
M  V30 58771 H 5653.56 -5.86232 -3.67314 0
M  V30 58772 H 5652.69 -7.84412 -2.24479 0
M  V30 58773 P 5648.73 -8.7635 -1.60911 0
M  V30 58774 O 5648.51 -10.1388 -1.11561 0
M  V30 58775 O 5647.94 -8.36503 -2.79617 0
M  V30 58776 O 5648.48 -7.71806 -0.42951 0
M  V30 58777 C 5649.42 -7.67148 0.673689 0
M  V30 58778 C 5648.69 -7.33374 1.95559 0
M  V30 58779 O 5648.48 -5.88721 2.00726 0
M  V30 58780 C 5647.29 -7.92526 2.10483 0
M  V30 58781 O 5646.9 -8.02971 3.47653 0
M  V30 58782 C 5646.41 -6.89602 1.41652 0
M  V30 58783 C 5647.12 -5.59201 1.75185 0
M  V30 58784 N 5647.07 -4.58301 0.657969 0
M  V30 58785 H 5649.91 -8.65116 0.777161 0
M  V30 58786 H 5650.18 -6.9022 0.46725 0
M  V30 58787 H 5649.31 -7.66548 2.79458 0
M  V30 58788 H 5646.65 -5.16165 2.65183 0
M  V30 58789 H 5646.37 -7.06433 0.329384 0
M  V30 58790 H 5645.38 -6.90926 1.82021 0
M  V30 58791 H 5647.22 -8.90873 1.62657 0
M  V30 58792 P 5645.35 -8.03563 3.84925 0
M  V30 58793 O 5645.13 -8.85821 5.0569 0
M  V30 58794 O 5644.56 -8.41101 2.65469 0
M  V30 58795 O 5645.1 -6.4965 4.18908 0
M  V30 58796 C 5646.04 -5.81037 5.05421 0
M  V30 58797 C 5645.31 -4.78366 5.89277 0
M  V30 58798 O 5645.1 -3.58302 5.08433 0
M  V30 58799 C 5643.91 -5.17448 6.36119 0
M  V30 58800 O 5643.52 -4.45271 7.53232 0
M  V30 58801 C 5643.03 -4.74639 5.19936 0
M  V30 58802 C 5643.74 -3.49432 4.70418 0
M  V30 58803 N 5643.69 -3.32099 3.22613 0
M  V30 58804 C 5643.77 -4.28245 2.25527 0
M  V30 58805 N 5643.7 -3.80823 1.04874 0
M  V30 58806 C 5643.55 -2.44571 1.23535 0
M  V30 58807 C 5643.42 -1.37068 0.330675 0
M  V30 58808 N 5643.41 -1.51472 -0.990824 0
M  V30 58809 N 5643.3 -0.138614 0.848756 0
M  V30 58810 C 5643.31 0.00675923 2.16999 0
M  V30 58811 N 5643.43 -0.904372 3.11122 0
M  V30 58812 C 5643.55 -2.12707 2.56212 0
M  V30 58813 H 5646.53 -6.54213 5.71376 0
M  V30 58814 H 5646.8 -5.30936 4.43503 0
M  V30 58815 H 5645.93 -4.55889 6.76652 0
M  V30 58816 H 5643.27 -2.61715 5.17932 0
M  V30 58817 H 5642.99 -5.52155 4.41878 0
M  V30 58818 H 5642 -4.51981 5.53374 0
M  V30 58819 H 5643.84 -6.25124 6.55234 0
M  V30 58820 H 5643.88 -5.34372 2.47488 0
M  V30 58821 H 5643.5 -2.45153 -1.4078 0
M  V30 58822 H 5643.31 -0.688422 -1.59911 0
M  V30 58823 H 5643.2 1.02584 2.52346 0
M  V30 58824 P 5641.97 -4.23843 7.83734 0
M  V30 58825 O 5641.75 -4.19407 9.29784 0
M  V30 58826 O 5641.18 -5.24426 7.09156 0
M  V30 58827 O 5641.72 -2.7935 7.20758 0
M  V30 58828 C 5642.66 -1.7299 7.50419 0
M  V30 58829 C 5641.93 -0.406376 7.57911 0
M  V30 58830 O 5641.72 0.0897726 6.21935 0
M  V30 58831 C 5640.53 -0.447224 8.1878 0
M  V30 58832 O 5640.14 0.825065 8.71101 0
M  V30 58833 C 5639.65 -0.783801 6.99623 0
M  V30 58834 C 5640.36 -0.0619192 5.85967 0
M  V30 58835 N 5640.31 -0.7859 4.56281 0
M  V30 58836 H 5643.15 -1.93423 8.4679 0
M  V30 58837 H 5643.42 -1.68181 6.71046 0
M  V30 58838 H 5642.55 0.289041 8.15388 0
M  V30 58839 P 5638.59 1.17771 8.83182 0
M  V30 58840 O 5638.37 2.07206 9.98732 0
M  V30 58841 O 5637.8 -0.0743816 8.81969 0
M  V30 58842 O 5638.34 1.97652 7.47304 0
M  V30 58843 C 5639.28 3.01133 7.08783 0
M  V30 58844 C 5638.55 4.12613 6.37049 0
M  V30 58845 O 5638.34 3.72827 4.97879 0
M  V30 58846 C 5637.15 4.45085 6.88694 0
M  V30 58847 O 5636.76 5.7877 6.5624 0
M  V30 58848 C 5636.27 3.47817 6.12078 0
M  V30 58849 C 5636.98 3.39414 4.77697 0
M  V30 58850 N 5636.93 2.04615 4.15333 0
M  V30 58851 H 5639.77 3.41248 7.98759 0
M  V30 58852 H 5640.04 2.5837 6.41742 0
M  V30 58853 H 5639.17 5.02657 6.42673 0
M  V30 58854 P 5635.21 6.144 6.45285 0
M  V30 58855 O 5634.99 7.54673 6.86199 0
M  V30 58856 O 5634.42 5.12391 7.179 0
M  V30 58857 O 5634.96 5.99158 4.88404 0
M  V30 58858 C 5635.9 6.60234 3.96415 0
M  V30 58859 C 5635.17 7.08259 2.72856 0
M  V30 58860 O 5634.96 5.9427 1.83651 0
M  V30 58861 C 5633.77 7.64886 2.9555 0
M  V30 58862 O 5633.38 8.53963 1.90717 0
M  V30 58863 C 5632.89 6.4116 2.90739 0
M  V30 58864 C 5633.6 5.55375 1.86963 0
M  V30 58865 N 5633.55 4.09664 2.15742 0
M  V30 58866 H 5636.39 7.45574 4.45629 0
M  V30 58867 H 5636.66 5.86232 3.67314 0
M  V30 58868 H 5635.79 7.84412 2.24479 0
M  V30 58869 P 5631.83 8.7635 1.60911 0
M  V30 58870 O 5631.61 10.1388 1.11561 0
M  V30 58871 O 5631.04 8.36503 2.79617 0
M  V30 58872 O 5631.58 7.71806 0.42951 0
M  V30 58873 C 5632.52 7.67148 -0.673689 0
M  V30 58874 C 5631.79 7.33374 -1.95559 0
M  V30 58875 O 5631.58 5.88721 -2.00726 0
M  V30 58876 C 5630.39 7.92526 -2.10483 0
M  V30 58877 O 5630 8.02971 -3.47653 0
M  V30 58878 C 5629.51 6.89602 -1.41652 0
M  V30 58879 C 5630.22 5.59201 -1.75185 0
M  V30 58880 N 5630.17 4.58235 -0.662552 0
M  V30 58881 H 5633.01 8.65116 -0.777161 0
M  V30 58882 H 5633.28 6.90173 -0.474152 0
M  V30 58883 H 5632.41 7.66548 -2.79458 0
M  V30 58884 P 5628.45 8.03563 -3.84925 0
M  V30 58885 O 5628.23 8.85821 -5.0569 0
M  V30 58886 O 5627.66 8.41101 -2.65469 0
M  V30 58887 O 5628.2 6.4965 -4.18908 0
M  V30 58888 C 5629.14 5.81037 -5.05421 0
M  V30 58889 C 5628.41 4.78366 -5.89277 0
M  V30 58890 O 5628.2 3.58302 -5.08433 0
M  V30 58891 C 5627.01 5.17448 -6.36119 0
M  V30 58892 O 5626.62 4.45271 -7.53232 0
M  V30 58893 C 5626.13 4.74639 -5.19936 0
M  V30 58894 C 5626.84 3.49432 -4.70418 0
M  V30 58895 N 5626.79 3.31776 -3.22945 0
M  V30 58896 H 5629.63 6.54213 -5.71376 0
M  V30 58897 H 5629.9 5.30492 -4.44033 0
M  V30 58898 H 5629.03 4.55889 -6.76652 0
M  V30 58899 P 5625.07 4.23843 -7.83734 0
M  V30 58900 O 5624.85 4.19407 -9.29784 0
M  V30 58901 O 5624.28 5.24426 -7.09156 0
M  V30 58902 O 5624.82 2.7935 -7.20758 0
M  V30 58903 C 5625.76 1.7299 -7.50419 0
M  V30 58904 C 5625.03 0.406376 -7.57911 0
M  V30 58905 O 5624.82 -0.0897726 -6.21935 0
M  V30 58906 C 5623.63 0.447224 -8.1878 0
M  V30 58907 O 5623.24 -0.825065 -8.71101 0
M  V30 58908 C 5622.75 0.783801 -6.99623 0
M  V30 58909 C 5623.46 0.0619192 -5.85967 0
M  V30 58910 N 5623.41 0.790462 -4.56202 0
M  V30 58911 H 5626.25 1.93423 -8.4679 0
M  V30 58912 H 5626.52 1.68852 -6.70877 0
M  V30 58913 H 5625.65 -0.289041 -8.15388 0
M  V30 58914 H 5622.99 -0.927006 -5.72848 0
M  V30 58915 H 5622.71 1.86973 -6.82036 0
M  V30 58916 H 5621.72 0.403953 -7.13357 0
M  V30 58917 H 5623.56 1.20599 -8.97534 0
M  V30 58918 P 5621.69 -1.17771 -8.83182 0
M  V30 58919 O 5621.47 -2.07206 -9.98732 0
M  V30 58920 O 5620.9 0.0743816 -8.81969 0
M  V30 58921 O 5621.44 -1.97652 -7.47304 0
M  V30 58922 C 5622.38 -3.01133 -7.08783 0
M  V30 58923 C 5621.65 -4.12613 -6.37049 0
M  V30 58924 O 5621.44 -3.72827 -4.97879 0
M  V30 58925 C 5620.25 -4.45085 -6.88694 0
M  V30 58926 O 5619.86 -5.7877 -6.5624 0
M  V30 58927 C 5619.37 -3.47817 -6.12078 0
M  V30 58928 C 5620.08 -3.39414 -4.77697 0
M  V30 58929 N 5620.03 -2.04615 -4.15333 0
M  V30 58930 C 5620.11 -0.803897 -4.75249 0
M  V30 58931 N 5620.03 0.197615 -3.91502 0
M  V30 58932 C 5619.89 -0.413002 -2.66823 0
M  V30 58933 C 5619.76 0.157221 -1.38007 0
M  V30 58934 N 5619.64 -0.833136 -0.390236 0
M  V30 58935 C 5619.64 -2.19402 -0.623885 0
M  V30 58936 N 5619.51 -2.97622 0.449677 0
M  V30 58937 N 5619.77 -2.73005 -1.83601 0
M  V30 58938 C 5619.89 -1.78786 -2.80935 0
M  V30 58939 H 5622.87 -3.41248 -7.98759 0
M  V30 58940 H 5623.14 -2.5837 -6.41742 0
M  V30 58941 H 5622.27 -5.02657 -6.42673 0
M  V30 58942 P 5618.31 -6.144 -6.45285 0
M  V30 58943 O 5618.09 -7.54673 -6.86199 0
M  V30 58944 O 5617.52 -5.12391 -7.179 0
M  V30 58945 O 5618.06 -5.99158 -4.88404 0
M  V30 58946 C 5619 -6.60234 -3.96415 0
M  V30 58947 C 5618.27 -7.08259 -2.72856 0
M  V30 58948 O 5618.06 -5.9427 -1.83651 0
M  V30 58949 C 5616.87 -7.64886 -2.9555 0
M  V30 58950 O 5616.48 -8.53963 -1.90717 0
M  V30 58951 C 5615.99 -6.4116 -2.90739 0
M  V30 58952 C 5616.7 -5.55375 -1.86963 0
M  V30 58953 N 5616.65 -4.09664 -2.15742 0
M  V30 58954 H 5619.49 -7.45574 -4.45629 0
M  V30 58955 H 5619.76 -5.86232 -3.67314 0
M  V30 58956 H 5618.89 -7.84412 -2.24479 0
M  V30 58957 P 5614.93 -8.7635 -1.60911 0
M  V30 58958 O 5614.71 -10.1388 -1.11561 0
M  V30 58959 O 5614.14 -8.36503 -2.79617 0
M  V30 58960 O 5614.68 -7.71806 -0.42951 0
M  V30 58961 C 5615.62 -7.67148 0.673689 0
M  V30 58962 C 5614.89 -7.33374 1.95559 0
M  V30 58963 O 5614.68 -5.88721 2.00726 0
M  V30 58964 C 5613.49 -7.92526 2.10483 0
M  V30 58965 O 5613.1 -8.02971 3.47653 0
M  V30 58966 C 5612.61 -6.89602 1.41652 0
M  V30 58967 C 5613.32 -5.59201 1.75185 0
M  V30 58968 N 5613.27 -4.58301 0.657969 0
M  V30 58969 H 5616.11 -8.65116 0.777161 0
M  V30 58970 H 5616.38 -6.9022 0.46725 0
M  V30 58971 H 5615.51 -7.66548 2.79458 0
M  V30 58972 H 5612.85 -5.16165 2.65183 0
M  V30 58973 H 5612.57 -7.06433 0.329384 0
M  V30 58974 H 5611.58 -6.90926 1.82021 0
M  V30 58975 H 5613.42 -8.90873 1.62657 0
M  V30 58976 P 5611.55 -8.03563 3.84925 0
M  V30 58977 O 5611.33 -8.85821 5.0569 0
M  V30 58978 O 5610.76 -8.41101 2.65469 0
M  V30 58979 O 5611.3 -6.4965 4.18908 0
M  V30 58980 C 5612.24 -5.81037 5.05421 0
M  V30 58981 C 5611.51 -4.78366 5.89277 0
M  V30 58982 O 5611.3 -3.58302 5.08433 0
M  V30 58983 C 5610.11 -5.17448 6.36119 0
M  V30 58984 O 5609.72 -4.45271 7.53232 0
M  V30 58985 C 5609.23 -4.74639 5.19936 0
M  V30 58986 C 5609.94 -3.49432 4.70418 0
M  V30 58987 N 5609.89 -3.31776 3.22945 0
M  V30 58988 H 5612.73 -6.54213 5.71376 0
M  V30 58989 H 5613 -5.30492 4.44033 0
M  V30 58990 H 5612.13 -4.55889 6.76652 0
M  V30 58991 P 5608.17 -4.23843 7.83734 0
M  V30 58992 O 5607.95 -4.19407 9.29784 0
M  V30 58993 O 5607.38 -5.24426 7.09156 0
M  V30 58994 O 5607.92 -2.7935 7.20758 0
M  V30 58995 C 5608.86 -1.7299 7.50419 0
M  V30 58996 C 5608.13 -0.406376 7.57911 0
M  V30 58997 O 5607.92 0.0897726 6.21935 0
M  V30 58998 C 5606.73 -0.447224 8.1878 0
M  V30 58999 O 5606.34 0.825065 8.71101 0
M  V30 59000 C 5605.85 -0.783801 6.99623 0
M  V30 59001 C 5606.56 -0.0619192 5.85967 0
M  V30 59002 N 5606.51 -0.7859 4.56281 0
M  V30 59003 H 5609.35 -1.93423 8.4679 0
M  V30 59004 H 5609.62 -1.68181 6.71046 0
M  V30 59005 H 5608.75 0.289041 8.15388 0
M  V30 59006 P 5604.79 1.17771 8.83182 0
M  V30 59007 O 5604.57 2.07206 9.98732 0
M  V30 59008 O 5604 -0.0743816 8.81969 0
M  V30 59009 O 5604.54 1.97652 7.47304 0
M  V30 59010 C 5605.48 3.01133 7.08783 0
M  V30 59011 C 5604.75 4.12613 6.37049 0
M  V30 59012 O 5604.54 3.72827 4.97879 0
M  V30 59013 C 5603.35 4.45085 6.88694 0
M  V30 59014 O 5602.96 5.7877 6.5624 0
M  V30 59015 C 5602.47 3.47817 6.12078 0
M  V30 59016 C 5603.18 3.39414 4.77697 0
M  V30 59017 N 5603.13 2.04199 4.15538 0
M  V30 59018 C 5603.21 0.821545 4.76977 0
M  V30 59019 N 5603.14 -0.1794 3.94592 0
M  V30 59020 C 5602.99 0.419121 2.70776 0
M  V30 59021 C 5602.86 -0.109072 1.40577 0
M  V30 59022 N 5602.85 -1.4104 1.1344 0
M  V30 59023 N 5602.74 0.764381 0.39411 0
M  V30 59024 C 5602.75 2.06587 0.664135 0
M  V30 59025 N 5602.87 2.67948 1.82153 0
M  V30 59026 C 5602.99 1.77942 2.8147 0
M  V30 59027 H 5605.97 3.41248 7.98759 0
M  V30 59028 H 5606.24 2.57728 6.42 0
M  V30 59029 H 5605.37 5.02657 6.42673 0
M  V30 59030 H 5602.71 4.11708 4.08956 0
M  V30 59031 H 5602.43 2.49626 6.61679 0
M  V30 59032 H 5601.44 3.8662 6.00862 0
M  V30 59033 H 5603.28 4.29991 7.97006 0
M  V30 59034 H 5603.32 0.702451 5.84696 0
M  V30 59035 H 5602.94 -2.09647 1.89651 0
M  V30 59036 H 5602.75 -1.73358 0.160575 0
M  V30 59037 H 5602.64 2.71695 -0.195838 0
M  V30 59038 P 5601.41 6.144 6.45285 0
M  V30 59039 O 5601.19 7.54673 6.86199 0
M  V30 59040 O 5600.62 5.12391 7.179 0
M  V30 59041 O 5601.16 5.99158 4.88404 0
M  V30 59042 C 5602.1 6.60234 3.96415 0
M  V30 59043 C 5601.37 7.08259 2.72856 0
M  V30 59044 O 5601.16 5.9427 1.83651 0
M  V30 59045 C 5599.97 7.64886 2.9555 0
M  V30 59046 O 5599.58 8.53963 1.90717 0
M  V30 59047 C 5599.09 6.4116 2.90739 0
M  V30 59048 C 5599.8 5.55375 1.86963 0
M  V30 59049 N 5599.75 4.09664 2.15742 0
M  V30 59050 H 5602.59 7.45574 4.45629 0
M  V30 59051 H 5602.86 5.86232 3.67314 0
M  V30 59052 H 5601.99 7.84412 2.24479 0
M  V30 59053 P 5598.03 8.7635 1.60911 0
M  V30 59054 O 5597.81 10.1388 1.11561 0
M  V30 59055 O 5597.24 8.36503 2.79617 0
M  V30 59056 O 5597.78 7.71806 0.42951 0
M  V30 59057 C 5598.72 7.67148 -0.673689 0
M  V30 59058 C 5597.99 7.33374 -1.95559 0
M  V30 59059 O 5597.78 5.88721 -2.00726 0
M  V30 59060 C 5596.59 7.92526 -2.10483 0
M  V30 59061 O 5596.2 8.02971 -3.47653 0
M  V30 59062 C 5595.71 6.89602 -1.41652 0
M  V30 59063 C 5596.42 5.59201 -1.75185 0
M  V30 59064 N 5596.37 4.58235 -0.662552 0
M  V30 59065 H 5599.21 8.65116 -0.777161 0
M  V30 59066 H 5599.48 6.90173 -0.474152 0
M  V30 59067 H 5598.61 7.66548 -2.79458 0
M  V30 59068 P 5594.65 8.03563 -3.84925 0
M  V30 59069 O 5594.43 8.85821 -5.0569 0
M  V30 59070 O 5593.86 8.41101 -2.65469 0
M  V30 59071 O 5594.4 6.4965 -4.18908 0
M  V30 59072 C 5595.34 5.81037 -5.05421 0
M  V30 59073 C 5594.61 4.78366 -5.89277 0
M  V30 59074 O 5594.4 3.58302 -5.08433 0
M  V30 59075 C 5593.21 5.17448 -6.36119 0
M  V30 59076 O 5592.82 4.45271 -7.53232 0
M  V30 59077 C 5592.33 4.74639 -5.19936 0
M  V30 59078 C 5593.04 3.49432 -4.70418 0
M  V30 59079 N 5592.99 3.31776 -3.22945 0
M  V30 59080 H 5595.83 6.54213 -5.71376 0
M  V30 59081 H 5596.1 5.30492 -4.44033 0
M  V30 59082 H 5595.23 4.55889 -6.76652 0
M  V30 59083 P 5591.27 4.23843 -7.83734 0
M  V30 59084 O 5591.05 4.19407 -9.29784 0
M  V30 59085 O 5590.48 5.24426 -7.09156 0
M  V30 59086 O 5591.02 2.7935 -7.20758 0
M  V30 59087 C 5591.96 1.7299 -7.50419 0
M  V30 59088 C 5591.23 0.406376 -7.57911 0
M  V30 59089 O 5591.02 -0.0897726 -6.21935 0
M  V30 59090 C 5589.83 0.447224 -8.1878 0
M  V30 59091 O 5589.44 -0.825065 -8.71101 0
M  V30 59092 C 5588.95 0.783801 -6.99623 0
M  V30 59093 C 5589.66 0.0619192 -5.85967 0
M  V30 59094 N 5589.61 0.7859 -4.56281 0
M  V30 59095 H 5592.45 1.93423 -8.4679 0
M  V30 59096 H 5592.72 1.68181 -6.71046 0
M  V30 59097 H 5591.85 -0.289041 -8.15388 0
M  V30 59098 P 5587.89 -1.17771 -8.83182 0
M  V30 59099 O 5587.67 -2.07206 -9.98732 0
M  V30 59100 O 5587.1 0.0743816 -8.81969 0
M  V30 59101 O 5587.64 -1.97652 -7.47304 0
M  V30 59102 C 5588.58 -3.01133 -7.08783 0
M  V30 59103 C 5587.85 -4.12613 -6.37049 0
M  V30 59104 O 5587.64 -3.72827 -4.97879 0
M  V30 59105 C 5586.45 -4.45085 -6.88694 0
M  V30 59106 O 5586.06 -5.7877 -6.5624 0
M  V30 59107 C 5585.57 -3.47817 -6.12078 0
M  V30 59108 C 5586.28 -3.39414 -4.77697 0
M  V30 59109 N 5586.23 -2.04615 -4.15333 0
M  V30 59110 H 5589.07 -3.41248 -7.98759 0
M  V30 59111 H 5589.34 -2.5837 -6.41742 0
M  V30 59112 H 5588.47 -5.02657 -6.42673 0
M  V30 59113 P 5584.51 -6.144 -6.45285 0
M  V30 59114 O 5584.29 -7.54673 -6.86199 0
M  V30 59115 O 5583.72 -5.12391 -7.179 0
M  V30 59116 O 5584.26 -5.99158 -4.88404 0
M  V30 59117 C 5585.2 -6.60234 -3.96415 0
M  V30 59118 C 5584.47 -7.08259 -2.72856 0
M  V30 59119 O 5584.26 -5.9427 -1.83651 0
M  V30 59120 C 5583.07 -7.64886 -2.9555 0
M  V30 59121 O 5582.68 -8.53963 -1.90717 0
M  V30 59122 C 5582.19 -6.4116 -2.90739 0
M  V30 59123 C 5582.9 -5.55375 -1.86963 0
M  V30 59124 N 5582.85 -4.09448 -2.16152 0
M  V30 59125 C 5582.93 -3.46824 -3.37593 0
M  V30 59126 N 5582.86 -2.17422 -3.29777 0
M  V30 59127 C 5582.71 -1.93065 -1.94427 0
M  V30 59128 C 5582.58 -0.738053 -1.20141 0
M  V30 59129 N 5582.57 0.474256 -1.74676 0
M  V30 59130 N 5582.46 -0.850049 0.13045 0
M  V30 59131 C 5582.47 -2.06169 0.676992 0
M  V30 59132 N 5582.59 -3.23842 0.101312 0
M  V30 59133 C 5582.71 -3.09402 -1.23122 0
M  V30 59134 H 5585.69 -7.45574 -4.45629 0
M  V30 59135 H 5585.96 -5.85864 -3.679 0
M  V30 59136 H 5585.09 -7.84412 -2.24479 0
M  V30 59137 H 5582.43 -5.73457 -0.888562 0
M  V30 59138 H 5582.15 -5.90877 -3.88583 0
M  V30 59139 H 5581.16 -6.6596 -2.58858 0
M  V30 59140 H 5583 -8.16339 -3.92049 0
M  V30 59141 H 5583.04 -4.00505 -4.3174 0
M  V30 59142 H 5582.66 0.581337 -2.76658 0
M  V30 59143 H 5582.47 1.30811 -1.14888 0
M  V30 59144 H 5582.36 -2.08295 1.75542 0
M  V30 59145 P 5581.13 -8.7635 -1.60911 0
M  V30 59146 O 5580.91 -10.1388 -1.11561 0
M  V30 59147 O 5580.34 -8.36503 -2.79617 0
M  V30 59148 O 5580.88 -7.71806 -0.42951 0
M  V30 59149 C 5581.82 -7.67148 0.673689 0
M  V30 59150 C 5581.09 -7.33374 1.95559 0
M  V30 59151 O 5580.88 -5.88721 2.00726 0
M  V30 59152 C 5579.69 -7.92526 2.10483 0
M  V30 59153 O 5579.3 -8.02971 3.47653 0
M  V30 59154 C 5578.81 -6.89602 1.41652 0
M  V30 59155 C 5579.52 -5.59201 1.75185 0
M  V30 59156 N 5579.47 -4.58235 0.662552 0
M  V30 59157 H 5582.31 -8.65116 0.777161 0
M  V30 59158 H 5582.58 -6.90173 0.474152 0
M  V30 59159 H 5581.71 -7.66548 2.79458 0
M  V30 59160 P 5577.75 -8.03563 3.84925 0
M  V30 59161 O 5577.53 -8.85821 5.0569 0
M  V30 59162 O 5576.96 -8.41101 2.65469 0
M  V30 59163 O 5577.5 -6.4965 4.18908 0
M  V30 59164 C 5578.44 -5.81037 5.05421 0
M  V30 59165 C 5577.71 -4.78366 5.89277 0
M  V30 59166 O 5577.5 -3.58302 5.08433 0
M  V30 59167 C 5576.31 -5.17448 6.36119 0
M  V30 59168 O 5575.92 -4.45271 7.53232 0
M  V30 59169 C 5575.43 -4.74639 5.19936 0
M  V30 59170 C 5576.14 -3.49432 4.70418 0
M  V30 59171 N 5576.09 -3.31776 3.22945 0
M  V30 59172 H 5578.93 -6.54213 5.71376 0
M  V30 59173 H 5579.2 -5.30492 4.44033 0
M  V30 59174 H 5578.33 -4.55889 6.76652 0
M  V30 59175 P 5574.37 -4.23843 7.83734 0
M  V30 59176 O 5574.15 -4.19407 9.29784 0
M  V30 59177 O 5573.58 -5.24426 7.09156 0
M  V30 59178 O 5574.12 -2.7935 7.20758 0
M  V30 59179 C 5575.06 -1.7299 7.50419 0
M  V30 59180 C 5574.33 -0.406376 7.57911 0
M  V30 59181 O 5574.12 0.0897726 6.21935 0
M  V30 59182 C 5572.93 -0.447224 8.1878 0
M  V30 59183 O 5572.54 0.825065 8.71101 0
M  V30 59184 C 5572.05 -0.783801 6.99623 0
M  V30 59185 C 5572.76 -0.0619192 5.85967 0
M  V30 59186 N 5572.71 -0.7859 4.56281 0
M  V30 59187 H 5575.55 -1.93423 8.4679 0
M  V30 59188 H 5575.82 -1.68181 6.71046 0
M  V30 59189 H 5574.95 0.289041 8.15388 0
M  V30 59190 P 5570.99 1.17771 8.83182 0
M  V30 59191 O 5570.77 2.07206 9.98732 0
M  V30 59192 O 5570.2 -0.0743816 8.81969 0
M  V30 59193 O 5570.74 1.97652 7.47304 0
M  V30 59194 C 5571.68 3.01133 7.08783 0
M  V30 59195 C 5570.95 4.12613 6.37049 0
M  V30 59196 O 5570.74 3.72827 4.97879 0
M  V30 59197 C 5569.55 4.45085 6.88694 0
M  V30 59198 O 5569.16 5.7877 6.5624 0
M  V30 59199 C 5568.67 3.47817 6.12078 0
M  V30 59200 C 5569.38 3.39414 4.77697 0
M  V30 59201 N 5569.33 2.04199 4.15538 0
M  V30 59202 H 5572.17 3.41248 7.98759 0
M  V30 59203 H 5572.44 2.57728 6.42 0
M  V30 59204 H 5571.57 5.02657 6.42673 0
M  V30 59205 H 5568.92 4.11708 4.08956 0
M  V30 59206 H 5568.64 2.49626 6.61679 0
M  V30 59207 H 5567.64 3.8662 6.00862 0
M  V30 59208 H 5569.48 4.29991 7.97006 0
M  V30 59209 P 5567.61 6.144 6.45285 0
M  V30 59210 O 5567.39 7.54673 6.86199 0
M  V30 59211 O 5566.82 5.12391 7.179 0
M  V30 59212 O 5567.36 5.99158 4.88404 0
M  V30 59213 C 5568.3 6.60234 3.96415 0
M  V30 59214 C 5567.57 7.08259 2.72856 0
M  V30 59215 O 5567.36 5.9427 1.83651 0
M  V30 59216 C 5566.17 7.64886 2.9555 0
M  V30 59217 O 5565.78 8.53963 1.90717 0
M  V30 59218 C 5565.29 6.4116 2.90739 0
M  V30 59219 C 5566 5.55375 1.86963 0
M  V30 59220 N 5565.95 4.09664 2.15742 0
M  V30 59221 H 5568.79 7.45574 4.45629 0
M  V30 59222 H 5569.06 5.86232 3.67314 0
M  V30 59223 H 5568.19 7.84412 2.24479 0
M  V30 59224 P 5564.23 8.7635 1.60911 0
M  V30 59225 O 5564.01 10.1388 1.11561 0
M  V30 59226 O 5563.44 8.36503 2.79617 0
M  V30 59227 O 5563.98 7.71806 0.42951 0
M  V30 59228 C 5564.92 7.67148 -0.673689 0
M  V30 59229 C 5564.19 7.33374 -1.95559 0
M  V30 59230 O 5563.98 5.88721 -2.00726 0
M  V30 59231 C 5562.79 7.92526 -2.10483 0
M  V30 59232 O 5562.4 8.02971 -3.47653 0
M  V30 59233 C 5561.91 6.89602 -1.41652 0
M  V30 59234 C 5562.62 5.59201 -1.75185 0
M  V30 59235 N 5562.57 4.58301 -0.657969 0
M  V30 59236 C 5562.65 4.79019 0.692603 0
M  V30 59237 N 5562.58 3.69736 1.38998 0
M  V30 59238 C 5562.43 2.70474 0.438135 0
M  V30 59239 C 5562.3 1.30327 0.538142 0
M  V30 59240 N 5562.29 0.64304 1.69192 0
M  V30 59241 N 5562.18 0.611027 -0.605183 0
M  V30 59242 C 5562.19 1.27002 -1.75953 0
M  V30 59243 N 5562.31 2.56038 -1.98546 0
M  V30 59244 C 5562.43 3.22681 -0.822541 0
M  V30 59245 H 5565.41 8.65116 -0.777161 0
M  V30 59246 H 5565.68 6.9022 -0.46725 0
M  V30 59247 H 5564.81 7.66548 -2.79458 0
M  V30 59248 H 5562.16 5.16165 -2.65183 0
M  V30 59249 H 5561.88 7.06433 -0.329384 0
M  V30 59250 H 5560.88 6.90926 -1.82021 0
M  V30 59251 H 5562.72 8.90873 -1.62657 0
M  V30 59252 H 5562.76 5.77785 1.13874 0
M  V30 59253 H 5562.38 1.15585 2.57991 0
M  V30 59254 H 5562.19 -0.382989 1.69835 0
M  V30 59255 H 5562.08 0.653331 -2.64449 0
M  V30 59256 P 5560.85 8.03563 -3.84925 0
M  V30 59257 O 5560.63 8.85821 -5.0569 0
M  V30 59258 O 5560.06 8.41101 -2.65469 0
M  V30 59259 O 5560.6 6.4965 -4.18908 0
M  V30 59260 C 5561.54 5.81037 -5.05421 0
M  V30 59261 C 5560.81 4.78366 -5.89277 0
M  V30 59262 O 5560.6 3.58302 -5.08433 0
M  V30 59263 C 5559.41 5.17448 -6.36119 0
M  V30 59264 O 5559.02 4.45271 -7.53232 0
M  V30 59265 C 5558.53 4.74639 -5.19936 0
M  V30 59266 C 5559.24 3.49432 -4.70418 0
M  V30 59267 N 5559.19 3.31776 -3.22945 0
M  V30 59268 C 5559.27 4.27147 -2.23315 0
M  V30 59269 N 5559.19 3.78447 -1.02186 0
M  V30 59270 C 5559.05 2.41001 -1.21732 0
M  V30 59271 C 5558.92 1.36111 -0.27694 0
M  V30 59272 O 5558.9 1.42065 0.951767 0
M  V30 59273 N 5558.8 0.113683 -0.912949 0
M  V30 59274 C 5558.8 -0.0846396 -2.27943 0
M  V30 59275 N 5558.67 -1.34737 -2.6916 0
M  V30 59276 N 5558.93 0.902521 -3.16379 0
M  V30 59277 C 5559.05 2.11937 -2.56849 0
M  V30 59278 H 5562.03 6.54213 -5.71376 0
M  V30 59279 H 5562.3 5.30492 -4.44033 0
M  V30 59280 H 5561.43 4.55889 -6.76652 0
M  V30 59281 H 5558.78 2.6176 -5.18021 0
M  V30 59282 H 5558.5 5.52233 -4.41941 0
M  V30 59283 H 5557.5 4.52045 -5.53452 0
M  V30 59284 H 5559.34 6.25193 -6.55307 0
M  V30 59285 H 5559.39 5.3351 -2.43857 0
M  V30 59286 H 5558.71 -0.69331 -0.330371 0
M  V30 59287 H 5558.67 -1.56433 -3.6988 0
M  V30 59288 H 5558.57 -2.10701 -2.00133 0
M  V30 59289 P 5557.47 4.23843 -7.83734 0
M  V30 59290 O 5557.25 4.19407 -9.29784 0
M  V30 59291 O 5556.68 5.24426 -7.09156 0
M  V30 59292 O 5557.22 2.7935 -7.20758 0
M  V30 59293 C 5558.16 1.7299 -7.50419 0
M  V30 59294 C 5557.43 0.406376 -7.57911 0
M  V30 59295 O 5557.22 -0.0897726 -6.21935 0
M  V30 59296 C 5556.03 0.447224 -8.1878 0
M  V30 59297 O 5555.64 -0.825065 -8.71101 0
M  V30 59298 C 5555.15 0.783801 -6.99623 0
M  V30 59299 C 5555.86 0.0619192 -5.85967 0
M  V30 59300 N 5555.81 0.7859 -4.56281 0
M  V30 59301 H 5558.65 1.93423 -8.4679 0
M  V30 59302 H 5558.92 1.68181 -6.71046 0
M  V30 59303 H 5558.05 -0.289041 -8.15388 0
M  V30 59304 P 5554.09 -1.17771 -8.83182 0
M  V30 59305 O 5553.87 -2.07206 -9.98732 0
M  V30 59306 O 5553.3 0.0743816 -8.81969 0
M  V30 59307 O 5553.84 -1.97652 -7.47304 0
M  V30 59308 C 5554.78 -3.01133 -7.08783 0
M  V30 59309 C 5554.05 -4.12613 -6.37049 0
M  V30 59310 O 5553.84 -3.72827 -4.97879 0
M  V30 59311 C 5552.65 -4.45085 -6.88694 0
M  V30 59312 O 5552.26 -5.7877 -6.5624 0
M  V30 59313 C 5551.77 -3.47817 -6.12078 0
M  V30 59314 C 5552.48 -3.39414 -4.77697 0
M  V30 59315 N 5552.43 -2.04615 -4.15333 0
M  V30 59316 H 5555.27 -3.41248 -7.98759 0
M  V30 59317 H 5555.54 -2.5837 -6.41742 0
M  V30 59318 H 5554.67 -5.02657 -6.42673 0
M  V30 59319 P 5550.71 -6.144 -6.45285 0
M  V30 59320 O 5550.49 -7.54673 -6.86199 0
M  V30 59321 O 5549.92 -5.12391 -7.179 0
M  V30 59322 O 5550.46 -5.99158 -4.88404 0
M  V30 59323 C 5551.4 -6.60234 -3.96415 0
M  V30 59324 C 5550.67 -7.08259 -2.72856 0
M  V30 59325 O 5550.46 -5.9427 -1.83651 0
M  V30 59326 C 5549.27 -7.64886 -2.9555 0
M  V30 59327 O 5548.88 -8.53963 -1.90717 0
M  V30 59328 C 5548.39 -6.4116 -2.90739 0
M  V30 59329 C 5549.1 -5.55375 -1.86963 0
M  V30 59330 N 5549.05 -4.09664 -2.15742 0
M  V30 59331 H 5551.89 -7.45574 -4.45629 0
M  V30 59332 H 5552.16 -5.86232 -3.67314 0
M  V30 59333 H 5551.29 -7.84412 -2.24479 0
M  V30 59334 P 5547.33 -8.7635 -1.60911 0
M  V30 59335 O 5547.11 -10.1388 -1.11561 0
M  V30 59336 O 5546.54 -8.36503 -2.79617 0
M  V30 59337 O 5547.08 -7.71806 -0.42951 0
M  V30 59338 C 5548.02 -7.67148 0.673689 0
M  V30 59339 C 5547.29 -7.33374 1.95559 0
M  V30 59340 O 5547.08 -5.88721 2.00726 0
M  V30 59341 C 5545.89 -7.92526 2.10483 0
M  V30 59342 O 5545.5 -8.02971 3.47653 0
M  V30 59343 C 5545.01 -6.89602 1.41652 0
M  V30 59344 C 5545.72 -5.59201 1.75185 0
M  V30 59345 N 5545.67 -4.58235 0.662552 0
M  V30 59346 H 5548.51 -8.65116 0.777161 0
M  V30 59347 H 5548.78 -6.90173 0.474152 0
M  V30 59348 H 5547.91 -7.66548 2.79458 0
M  V30 59349 P 5543.95 -8.03563 3.84925 0
M  V30 59350 O 5543.73 -8.85821 5.0569 0
M  V30 59351 O 5543.16 -8.41101 2.65469 0
M  V30 59352 O 5543.7 -6.4965 4.18908 0
M  V30 59353 C 5544.64 -5.81037 5.05421 0
M  V30 59354 C 5543.91 -4.78366 5.89277 0
M  V30 59355 O 5543.7 -3.58302 5.08433 0
M  V30 59356 C 5542.51 -5.17448 6.36119 0
M  V30 59357 O 5542.12 -4.45271 7.53232 0
M  V30 59358 C 5541.63 -4.74639 5.19936 0
M  V30 59359 C 5542.34 -3.49432 4.70418 0
M  V30 59360 N 5542.29 -3.32099 3.22613 0
M  V30 59361 H 5545.13 -6.54213 5.71376 0
M  V30 59362 H 5545.4 -5.30936 4.43503 0
M  V30 59363 H 5544.53 -4.55889 6.76652 0
M  V30 59364 H 5541.88 -2.61715 5.17932 0
M  V30 59365 H 5541.6 -5.52155 4.41878 0
M  V30 59366 H 5540.6 -4.51981 5.53374 0
M  V30 59367 H 5542.44 -6.25124 6.55234 0
M  V30 59368 P 5540.57 -4.23843 7.83734 0
M  V30 59369 O 5540.35 -4.19407 9.29784 0
M  V30 59370 O 5539.78 -5.24426 7.09156 0
M  V30 59371 O 5540.32 -2.7935 7.20758 0
M  V30 59372 C 5541.26 -1.7299 7.50419 0
M  V30 59373 C 5540.53 -0.406376 7.57911 0
M  V30 59374 O 5540.32 0.0897726 6.21935 0
M  V30 59375 C 5539.13 -0.447224 8.1878 0
M  V30 59376 O 5538.74 0.825065 8.71101 0
M  V30 59377 C 5538.25 -0.783801 6.99623 0
M  V30 59378 C 5538.96 -0.0619192 5.85967 0
M  V30 59379 N 5538.91 -0.7859 4.56281 0
M  V30 59380 H 5541.75 -1.93423 8.4679 0
M  V30 59381 H 5542.02 -1.68181 6.71046 0
M  V30 59382 H 5541.15 0.289041 8.15388 0
M  V30 59383 P 5537.19 1.17771 8.83182 0
M  V30 59384 O 5536.97 2.07206 9.98732 0
M  V30 59385 O 5536.4 -0.0743816 8.81969 0
M  V30 59386 O 5536.94 1.97652 7.47304 0
M  V30 59387 C 5537.88 3.01133 7.08783 0
M  V30 59388 C 5537.15 4.12613 6.37049 0
M  V30 59389 O 5536.94 3.72827 4.97879 0
M  V30 59390 C 5535.75 4.45085 6.88694 0
M  V30 59391 O 5535.36 5.7877 6.5624 0
M  V30 59392 C 5534.87 3.47817 6.12078 0
M  V30 59393 C 5535.58 3.39414 4.77697 0
M  V30 59394 N 5535.53 2.04615 4.15333 0
M  V30 59395 C 5535.61 0.803897 4.75249 0
M  V30 59396 N 5535.53 -0.197615 3.91502 0
M  V30 59397 C 5535.39 0.413002 2.66823 0
M  V30 59398 C 5535.26 -0.157221 1.38007 0
M  V30 59399 O 5535.24 -1.34419 1.057 0
M  V30 59400 N 5535.14 0.833136 0.390236 0
M  V30 59401 C 5535.14 2.19402 0.623885 0
M  V30 59402 N 5535.01 2.97622 -0.449677 0
M  V30 59403 N 5535.27 2.73005 1.83601 0
M  V30 59404 C 5535.39 1.78786 2.80935 0
M  V30 59405 H 5538.37 3.41248 7.98759 0
M  V30 59406 H 5538.64 2.5837 6.41742 0
M  V30 59407 H 5537.77 5.02657 6.42673 0
M  V30 59408 H 5535.12 4.11779 4.09026 0
M  V30 59409 H 5534.84 2.49661 6.61772 0
M  V30 59410 H 5533.84 3.86674 6.00946 0
M  V30 59411 H 5535.68 4.30038 7.97094 0
M  V30 59412 H 5535.73 0.670579 5.82754 0
M  V30 59413 H 5535.05 0.528446 -0.557287 0
M  V30 59414 H 5535.01 4.00117 -0.344773 0
M  V30 59415 H 5534.91 2.55448 -1.38544 0
M  V30 59416 P 5533.81 6.144 6.45285 0
M  V30 59417 O 5533.59 7.54673 6.86199 0
M  V30 59418 O 5533.02 5.12391 7.179 0
M  V30 59419 O 5533.56 5.99158 4.88404 0
M  V30 59420 C 5534.5 6.60062 3.96313 0
M  V30 59421 C 5533.77 7.08259 2.72856 0
M  V30 59422 O 5533.56 5.9427 1.83651 0
M  V30 59423 C 5532.37 7.65087 2.94749 0
M  V30 59424 O 5531.98 8.53963 1.90717 0
M  V30 59425 C 5531.49 6.41069 2.90698 0
M  V30 59426 C 5532.2 5.5528 1.86931 0
M  V30 59427 N 5532.15 4.09575 2.15696 0
M  V30 59428 C 5532 3.24249 1.08435 0
M  V30 59429 O 5531.91 3.63946 -0.0628747 0
M  V30 59430 N 5531.96 1.90009 1.39973 0
M  V30 59431 C 5532.05 1.34884 2.65614 0
M  V30 59432 O 5532 0.123716 2.81728 0
M  V30 59433 C 5532.2 2.3145 3.71736 0
M  V30 59434 C 5532.31 1.75913 5.10438 0
M  V30 59435 C 5532.25 3.63518 3.44754 0
M  V30 59436 H 5534.99 7.45402 4.45526 0
M  V30 59437 H 5535.26 5.86062 3.67208 0
M  V30 59438 H 5534.39 7.84412 2.24479 0
M  V30 59439 H 5531.74 5.73358 0.888409 0
M  V30 59440 H 5531.46 5.90877 3.88583 0
M  V30 59441 H 5530.46 6.65867 2.58821 0
M  V30 59442 H 5532.3 8.16248 3.92006 0
M  V30 59443 H 5532.37 4.34551 4.26383 0
M  V30 59444 H 5531.34 1.85471 5.61775 0
M  V30 59445 H 5533.08 2.31364 5.66257 0
M  V30 59446 H 5532.59 0.695936 5.05229 0
M  V30 59447 H 5531.85 1.26277 0.63625 0
M  V30 59448 P 5530.43 8.7635 1.60911 0
M  V30 59449 O 5530.21 10.1388 1.11561 0
M  V30 59450 O 5529.64 8.36503 2.79617 0
M  V30 59451 O 5530.18 7.71806 0.42951 0
M  V30 59452 C 5531.12 7.67148 -0.673689 0
M  V30 59453 C 5530.39 7.33374 -1.95559 0
M  V30 59454 O 5530.18 5.88721 -2.00726 0
M  V30 59455 C 5528.99 7.92526 -2.10483 0
M  V30 59456 O 5528.6 8.02971 -3.47653 0
M  V30 59457 C 5528.11 6.89602 -1.41652 0
M  V30 59458 C 5528.82 5.59201 -1.75185 0
M  V30 59459 N 5528.77 4.58235 -0.662552 0
M  V30 59460 H 5531.61 8.65116 -0.777161 0
M  V30 59461 H 5531.88 6.90173 -0.474152 0
M  V30 59462 H 5531.01 7.66548 -2.79458 0
M  V30 59463 P 5527.05 8.03563 -3.84925 0
M  V30 59464 O 5526.83 8.85821 -5.0569 0
M  V30 59465 O 5526.26 8.41101 -2.65469 0
M  V30 59466 O 5526.8 6.4965 -4.18908 0
M  V30 59467 C 5527.74 5.81037 -5.05421 0
M  V30 59468 C 5527.01 4.78366 -5.89277 0
M  V30 59469 O 5526.8 3.58302 -5.08433 0
M  V30 59470 C 5525.61 5.17448 -6.36119 0
M  V30 59471 O 5525.22 4.45271 -7.53232 0
M  V30 59472 C 5524.73 4.74639 -5.19936 0
M  V30 59473 C 5525.44 3.49432 -4.70418 0
M  V30 59474 N 5525.39 3.31776 -3.22945 0
M  V30 59475 H 5528.23 6.54213 -5.71376 0
M  V30 59476 H 5528.5 5.30492 -4.44033 0
M  V30 59477 H 5527.63 4.55889 -6.76652 0
M  V30 59478 P 5523.67 4.23843 -7.83734 0
M  V30 59479 O 5523.45 4.19407 -9.29784 0
M  V30 59480 O 5522.88 5.24426 -7.09156 0
M  V30 59481 O 5523.42 2.7935 -7.20758 0
M  V30 59482 C 5524.36 1.7299 -7.50419 0
M  V30 59483 C 5523.63 0.406376 -7.57911 0
M  V30 59484 O 5523.42 -0.0897726 -6.21935 0
M  V30 59485 C 5522.23 0.447224 -8.1878 0
M  V30 59486 O 5521.84 -0.825065 -8.71101 0
M  V30 59487 C 5521.35 0.783801 -6.99623 0
M  V30 59488 C 5522.06 0.0619192 -5.85967 0
M  V30 59489 N 5522.01 0.790462 -4.56202 0
M  V30 59490 H 5524.85 1.93423 -8.4679 0
M  V30 59491 H 5525.12 1.68852 -6.70877 0
M  V30 59492 H 5524.25 -0.289041 -8.15388 0
M  V30 59493 H 5521.6 -0.927006 -5.72848 0
M  V30 59494 H 5521.32 1.86973 -6.82036 0
M  V30 59495 H 5520.32 0.403953 -7.13357 0
M  V30 59496 H 5522.16 1.20599 -8.97534 0
M  V30 59497 P 5520.29 -1.17771 -8.83182 0
M  V30 59498 O 5520.07 -2.07206 -9.98732 0
M  V30 59499 O 5519.5 0.0743816 -8.81969 0
M  V30 59500 O 5520.04 -1.97652 -7.47304 0
M  V30 59501 C 5520.98 -3.01133 -7.08783 0
M  V30 59502 C 5520.25 -4.12613 -6.37049 0
M  V30 59503 O 5520.04 -3.72827 -4.97879 0
M  V30 59504 C 5518.85 -4.45085 -6.88694 0
M  V30 59505 O 5518.46 -5.7877 -6.5624 0
M  V30 59506 C 5517.97 -3.47817 -6.12078 0
M  V30 59507 C 5518.68 -3.39414 -4.77697 0
M  V30 59508 N 5518.63 -2.04615 -4.15333 0
M  V30 59509 H 5521.47 -3.41248 -7.98759 0
M  V30 59510 H 5521.74 -2.5837 -6.41742 0
M  V30 59511 H 5520.87 -5.02657 -6.42673 0
M  V30 59512 P 5516.91 -6.144 -6.45285 0
M  V30 59513 O 5516.69 -7.54673 -6.86199 0
M  V30 59514 O 5516.12 -5.12391 -7.179 0
M  V30 59515 O 5516.66 -5.99158 -4.88404 0
M  V30 59516 C 5517.6 -6.60234 -3.96415 0
M  V30 59517 C 5516.87 -7.08259 -2.72856 0
M  V30 59518 O 5516.66 -5.9427 -1.83651 0
M  V30 59519 C 5515.47 -7.64886 -2.9555 0
M  V30 59520 O 5515.08 -8.53963 -1.90717 0
M  V30 59521 C 5514.59 -6.4116 -2.90739 0
M  V30 59522 C 5515.3 -5.55375 -1.86963 0
M  V30 59523 N 5515.25 -4.09664 -2.15742 0
M  V30 59524 H 5518.09 -7.45574 -4.45629 0
M  V30 59525 H 5518.36 -5.86232 -3.67314 0
M  V30 59526 H 5517.49 -7.84412 -2.24479 0
M  V30 59527 P 5513.53 -8.7635 -1.60911 0
M  V30 59528 O 5513.31 -10.1388 -1.11561 0
M  V30 59529 O 5512.74 -8.36503 -2.79617 0
M  V30 59530 O 5513.28 -7.71806 -0.42951 0
M  V30 59531 C 5514.22 -7.67148 0.673689 0
M  V30 59532 C 5513.49 -7.33374 1.95559 0
M  V30 59533 O 5513.28 -5.88721 2.00726 0
M  V30 59534 C 5512.09 -7.92526 2.10483 0
M  V30 59535 O 5511.7 -8.02971 3.47653 0
M  V30 59536 C 5511.21 -6.89602 1.41652 0
M  V30 59537 C 5511.92 -5.59201 1.75185 0
M  V30 59538 N 5511.87 -4.58235 0.662552 0
M  V30 59539 C 5511.95 -4.7683 -0.704049 0
M  V30 59540 N 5511.87 -3.66233 -1.39775 0
M  V30 59541 C 5511.73 -2.66526 -0.431739 0
M  V30 59542 C 5511.6 -1.26394 -0.575992 0
M  V30 59543 N 5511.48 -0.62859 0.67177 0
M  V30 59544 C 5511.48 -1.27134 1.89385 0
M  V30 59545 N 5511.35 -0.492035 2.96951 0
M  V30 59546 N 5511.61 -2.58978 2.02907 0
M  V30 59547 C 5511.73 -3.22433 0.832218 0
M  V30 59548 H 5514.71 -8.65116 0.777161 0
M  V30 59549 H 5514.98 -6.90173 0.474152 0
M  V30 59550 H 5514.11 -7.66548 2.79458 0
M  V30 59551 P 5510.15 -8.03563 3.84925 0
M  V30 59552 O 5509.93 -8.85821 5.0569 0
M  V30 59553 O 5509.36 -8.41101 2.65469 0
M  V30 59554 O 5509.9 -6.4965 4.18908 0
M  V30 59555 C 5510.84 -5.81037 5.05421 0
M  V30 59556 C 5510.11 -4.78366 5.89277 0
M  V30 59557 O 5509.9 -3.58302 5.08433 0
M  V30 59558 C 5508.71 -5.17448 6.36119 0
M  V30 59559 O 5508.32 -4.45271 7.53232 0
M  V30 59560 C 5507.83 -4.74639 5.19936 0
M  V30 59561 C 5508.54 -3.49432 4.70418 0
M  V30 59562 N 5508.49 -3.31776 3.22945 0
M  V30 59563 H 5511.33 -6.54213 5.71376 0
M  V30 59564 H 5511.6 -5.30492 4.44033 0
M  V30 59565 H 5510.73 -4.55889 6.76652 0
M  V30 59566 P 5506.77 -4.23843 7.83734 0
M  V30 59567 O 5506.55 -4.19407 9.29784 0
M  V30 59568 O 5505.98 -5.24426 7.09156 0
M  V30 59569 O 5506.52 -2.7935 7.20758 0
M  V30 59570 C 5507.46 -1.7299 7.50419 0
M  V30 59571 C 5506.73 -0.406376 7.57911 0
M  V30 59572 O 5506.52 0.0897726 6.21935 0
M  V30 59573 C 5505.33 -0.447224 8.1878 0
M  V30 59574 O 5504.94 0.825065 8.71101 0
M  V30 59575 C 5504.45 -0.783801 6.99623 0
M  V30 59576 C 5505.16 -0.0619192 5.85967 0
M  V30 59577 N 5505.11 -0.7859 4.56281 0
M  V30 59578 H 5507.95 -1.93423 8.4679 0
M  V30 59579 H 5508.22 -1.68181 6.71046 0
M  V30 59580 H 5507.35 0.289041 8.15388 0
M  V30 59581 P 5503.39 1.17771 8.83182 0
M  V30 59582 O 5503.17 2.07206 9.98732 0
M  V30 59583 O 5502.6 -0.0743816 8.81969 0
M  V30 59584 O 5503.14 1.97678 7.474 0
M  V30 59585 C 5504.08 3.01133 7.08783 0
M  V30 59586 C 5503.35 4.1203 6.37546 0
M  V30 59587 O 5503.14 3.72887 4.9796 0
M  V30 59588 C 5501.95 4.45085 6.88694 0
M  V30 59589 O 5501.56 5.78836 6.56315 0
M  V30 59590 C 5501.07 3.47817 6.12078 0
M  V30 59591 C 5501.78 3.39414 4.77697 0
M  V30 59592 N 5501.73 2.04615 4.15333 0
M  V30 59593 C 5501.58 1.96929 2.77162 0
M  V30 59594 O 5501.49 3.02017 2.12006 0
M  V30 59595 N 5501.53 0.55485 2.24237 0
M  V30 59596 C 5501.63 -0.367808 2.9169 0
M  V30 59597 N 5501.58 -1.53426 2.29427 0
M  V30 59598 C 5501.78 -0.319148 4.33828 0
M  V30 59599 C 5501.83 0.920672 4.90433 0
M  V30 59600 H 5504.57 3.41209 7.98667 0
M  V30 59601 H 5504.84 2.5837 6.41742 0
M  V30 59602 H 5503.97 5.02718 6.42752 0
M  V30 59603 H 5501.32 4.11779 4.09026 0
M  V30 59604 H 5501.04 2.49661 6.61772 0
M  V30 59605 H 5500.04 3.86674 6.00946 0
M  V30 59606 H 5501.88 4.29991 7.97006 0
M  V30 59607 H 5501.95 1.00589 5.98303 0
M  V30 59608 H 5501.85 -1.22639 4.93799 0
M  V30 59609 H 5501.46 -1.56819 1.27167 0
M  V30 59610 H 5501.66 -2.41062 2.83063 0
M  V30 59611 P 5500.01 6.144 6.45285 0
M  V30 59612 O 5499.79 7.54673 6.86199 0
M  V30 59613 O 5499.22 5.12391 7.179 0
M  V30 59614 O 5499.76 5.99236 4.88467 0
M  V30 59615 C 5500.7 6.60234 3.96415 0
M  V30 59616 C 5499.97 7.08079 2.736 0
M  V30 59617 O 5499.76 5.94365 1.8368 0
M  V30 59618 C 5498.57 7.64886 2.9555 0
M  V30 59619 O 5498.18 8.5406 1.90739 0
M  V30 59620 C 5497.69 6.4116 2.90739 0
M  V30 59621 C 5498.4 5.55375 1.86963 0
M  V30 59622 N 5498.35 4.09664 2.15742 0
M  V30 59623 C 5498.2 3.22231 1.08477 0
M  V30 59624 O 5498.11 3.68951 -0.0600489 0
M  V30 59625 N 5498.15 1.76692 1.48799 0
M  V30 59626 C 5498.25 1.41695 2.57602 0
M  V30 59627 N 5498.2 0.107296 2.75791 0
M  V30 59628 C 5498.4 2.29178 3.69733 0
M  V30 59629 C 5498.45 3.62753 3.42653 0
M  V30 59630 H 5501.19 7.45488 4.45578 0
M  V30 59631 H 5501.46 5.86232 3.67314 0
M  V30 59632 H 5500.59 7.84508 2.24507 0
M  V30 59633 H 5497.94 5.73556 0.888715 0
M  V30 59634 H 5497.66 5.9096 3.88638 0
M  V30 59635 H 5496.66 6.66053 2.58894 0
M  V30 59636 H 5498.5 8.16339 3.92049 0
M  V30 59637 H 5498.57 4.33052 4.24913 0
M  V30 59638 H 5498.47 1.9103 4.71577 0
M  V30 59639 H 5498.08 -0.521221 1.95056 0
M  V30 59640 H 5498.28 -0.286429 3.70695 0
M  V30 59641 P 5496.63 8.7635 1.60911 0
M  V30 59642 O 5496.41 10.1388 1.11561 0
M  V30 59643 O 5495.84 8.36503 2.79617 0
M  V30 59644 O 5496.38 7.71806 0.42951 0
M  V30 59645 C 5497.32 7.67148 -0.673689 0
M  V30 59646 C 5496.59 7.33374 -1.95559 0
M  V30 59647 O 5496.38 5.88721 -2.00726 0
M  V30 59648 C 5495.19 7.92526 -2.10483 0
M  V30 59649 O 5494.8 8.02971 -3.47653 0
M  V30 59650 C 5494.31 6.89602 -1.41652 0
M  V30 59651 C 5495.02 5.59201 -1.75185 0
M  V30 59652 N 5494.97 4.58301 -0.657969 0
M  V30 59653 H 5497.81 8.65116 -0.777161 0
M  V30 59654 H 5498.08 6.9022 -0.46725 0
M  V30 59655 H 5497.21 7.66548 -2.79458 0
M  V30 59656 H 5494.56 5.16165 -2.65183 0
M  V30 59657 H 5494.28 7.06433 -0.329384 0
M  V30 59658 H 5493.28 6.90926 -1.82021 0
M  V30 59659 H 5495.12 8.90873 -1.62657 0
M  V30 59660 P 5493.25 8.03563 -3.84925 0
M  V30 59661 O 5493.03 8.85821 -5.0569 0
M  V30 59662 O 5492.46 8.41101 -2.65469 0
M  V30 59663 O 5493 6.4965 -4.18908 0
M  V30 59664 C 5493.94 5.81037 -5.05421 0
M  V30 59665 C 5493.21 4.78366 -5.89277 0
M  V30 59666 O 5493 3.58302 -5.08433 0
M  V30 59667 C 5491.81 5.17448 -6.36119 0
M  V30 59668 O 5491.42 4.45271 -7.53232 0
M  V30 59669 C 5490.93 4.74639 -5.19936 0
M  V30 59670 C 5491.64 3.49432 -4.70418 0
M  V30 59671 N 5491.59 3.31776 -3.22945 0
M  V30 59672 H 5494.43 6.54213 -5.71376 0
M  V30 59673 H 5494.7 5.30492 -4.44033 0
M  V30 59674 H 5493.83 4.55889 -6.76652 0
M  V30 59675 P 5489.87 4.23843 -7.83734 0
M  V30 59676 O 5489.65 4.19407 -9.29784 0
M  V30 59677 O 5489.08 5.24426 -7.09156 0
M  V30 59678 O 5489.62 2.7935 -7.20758 0
M  V30 59679 C 5490.56 1.72945 -7.50224 0
M  V30 59680 C 5489.83 0.406376 -7.57911 0
M  V30 59681 O 5489.62 -0.0897726 -6.21935 0
M  V30 59682 C 5488.43 0.438983 -8.18724 0
M  V30 59683 O 5488.04 -0.825065 -8.71101 0
M  V30 59684 C 5487.55 0.783689 -6.99524 0
M  V30 59685 C 5488.26 0.0619086 -5.85867 0
M  V30 59686 N 5488.21 0.78573 -4.56183 0
M  V30 59687 C 5488.06 0.0292889 -3.41887 0
M  V30 59688 O 5487.97 -1.18445 -3.4419 0
M  V30 59689 N 5488.02 0.744061 -2.23964 0
M  V30 59690 C 5488.11 2.10932 -2.10362 0
M  V30 59691 C 5488.26 2.8202 -3.34994 0
M  V30 59692 C 5488.31 2.15547 -4.52261 0
M  V30 59693 H 5491.05 1.93379 -8.46595 0
M  V30 59694 H 5491.32 1.68132 -6.70852 0
M  V30 59695 H 5490.45 -0.289041 -8.15388 0
M  V30 59696 H 5487.8 -0.926847 -5.72749 0
M  V30 59697 H 5487.52 1.86973 -6.82036 0
M  V30 59698 H 5486.52 0.403896 -7.13257 0
M  V30 59699 H 5488.36 1.20585 -8.97435 0
M  V30 59700 H 5488.43 2.71231 -5.45042 0
M  V30 59701 P 5486.49 -1.17771 -8.83182 0
M  V30 59702 O 5486.27 -2.07206 -9.98732 0
M  V30 59703 O 5485.7 0.0743816 -8.81969 0
M  V30 59704 O 5486.24 -1.97652 -7.47304 0
M  V30 59705 C 5487.18 -3.01133 -7.08783 0
M  V30 59706 C 5486.45 -4.12613 -6.37049 0
M  V30 59707 O 5486.24 -3.72827 -4.97879 0
M  V30 59708 C 5485.05 -4.45085 -6.88694 0
M  V30 59709 O 5484.66 -5.7877 -6.5624 0
M  V30 59710 C 5484.17 -3.47817 -6.12078 0
M  V30 59711 C 5484.88 -3.39414 -4.77697 0
M  V30 59712 N 5484.83 -2.04199 -4.15538 0
M  V30 59713 C 5484.91 -0.821545 -4.76977 0
M  V30 59714 N 5484.84 0.1794 -3.94592 0
M  V30 59715 C 5484.69 -0.419121 -2.70776 0
M  V30 59716 C 5484.56 0.109072 -1.40577 0
M  V30 59717 N 5484.55 1.4104 -1.1344 0
M  V30 59718 N 5484.44 -0.764381 -0.39411 0
M  V30 59719 C 5484.45 -2.06587 -0.664135 0
M  V30 59720 N 5484.57 -2.67948 -1.82153 0
M  V30 59721 C 5484.69 -1.77942 -2.8147 0
M  V30 59722 H 5487.67 -3.41248 -7.98759 0
M  V30 59723 H 5487.94 -2.57728 -6.42 0
M  V30 59724 H 5487.07 -5.02657 -6.42673 0
M  V30 59725 H 5484.42 -4.11708 -4.08956 0
M  V30 59726 H 5484.14 -2.49626 -6.61679 0
M  V30 59727 H 5483.14 -3.8662 -6.00862 0
M  V30 59728 H 5484.98 -4.29991 -7.97006 0
M  V30 59729 H 5485.02 -0.702451 -5.84696 0
M  V30 59730 H 5484.64 2.09647 -1.89651 0
M  V30 59731 H 5484.45 1.73358 -0.160575 0
M  V30 59732 H 5484.34 -2.71695 0.195838 0
M  V30 59733 P 5483.11 -6.144 -6.45285 0
M  V30 59734 O 5482.89 -7.54673 -6.86199 0
M  V30 59735 O 5482.32 -5.12391 -7.179 0
M  V30 59736 O 5482.86 -5.99158 -4.88404 0
M  V30 59737 C 5483.8 -6.60234 -3.96415 0
M  V30 59738 C 5483.07 -7.08259 -2.72856 0
M  V30 59739 O 5482.86 -5.9427 -1.83651 0
M  V30 59740 C 5481.67 -7.64886 -2.9555 0
M  V30 59741 O 5481.28 -8.53963 -1.90717 0
M  V30 59742 C 5480.79 -6.4116 -2.90739 0
M  V30 59743 C 5481.5 -5.55375 -1.86963 0
M  V30 59744 N 5481.45 -4.09664 -2.15742 0
M  V30 59745 H 5484.29 -7.45574 -4.45629 0
M  V30 59746 H 5484.56 -5.86232 -3.67314 0
M  V30 59747 H 5483.69 -7.84412 -2.24479 0
M  V30 59748 P 5479.73 -8.7635 -1.60911 0
M  V30 59749 O 5479.51 -10.1388 -1.11561 0
M  V30 59750 O 5478.94 -8.36503 -2.79617 0
M  V30 59751 O 5479.48 -7.71806 -0.42951 0
M  V30 59752 C 5480.42 -7.67148 0.673689 0
M  V30 59753 C 5479.69 -7.33374 1.95559 0
M  V30 59754 O 5479.48 -5.88721 2.00726 0
M  V30 59755 C 5478.29 -7.92526 2.10483 0
M  V30 59756 O 5477.9 -8.02971 3.47653 0
M  V30 59757 C 5477.41 -6.89602 1.41652 0
M  V30 59758 C 5478.12 -5.59201 1.75185 0
M  V30 59759 N 5478.07 -4.58235 0.662552 0
M  V30 59760 H 5480.91 -8.65116 0.777161 0
M  V30 59761 H 5481.18 -6.90173 0.474152 0
M  V30 59762 H 5480.31 -7.66548 2.79458 0
M  V30 59763 P 5476.35 -8.03563 3.84925 0
M  V30 59764 O 5476.13 -8.85821 5.0569 0
M  V30 59765 O 5475.56 -8.41101 2.65469 0
M  V30 59766 O 5476.1 -6.4965 4.18908 0
M  V30 59767 C 5477.04 -5.81037 5.05421 0
M  V30 59768 C 5476.31 -4.78366 5.89277 0
M  V30 59769 O 5476.1 -3.58302 5.08433 0
M  V30 59770 C 5474.91 -5.17448 6.36119 0
M  V30 59771 O 5474.52 -4.45271 7.53232 0
M  V30 59772 C 5474.03 -4.74639 5.19936 0
M  V30 59773 C 5474.74 -3.49432 4.70418 0
M  V30 59774 N 5474.69 -3.31776 3.22945 0
M  V30 59775 H 5477.53 -6.54213 5.71376 0
M  V30 59776 H 5477.8 -5.30492 4.44033 0
M  V30 59777 H 5476.93 -4.55889 6.76652 0
M  V30 59778 P 5472.97 -4.23843 7.83734 0
M  V30 59779 O 5472.75 -4.19407 9.29784 0
M  V30 59780 O 5472.18 -5.24426 7.09156 0
M  V30 59781 O 5472.72 -2.7935 7.20758 0
M  V30 59782 C 5473.66 -1.7299 7.50419 0
M  V30 59783 C 5472.93 -0.406376 7.57911 0
M  V30 59784 O 5472.72 0.0897726 6.21935 0
M  V30 59785 C 5471.53 -0.447224 8.1878 0
M  V30 59786 O 5471.14 0.825065 8.71101 0
M  V30 59787 C 5470.65 -0.783801 6.99623 0
M  V30 59788 C 5471.36 -0.0619192 5.85967 0
M  V30 59789 N 5471.31 -0.790462 4.56202 0
M  V30 59790 C 5471.39 -2.13895 4.34171 0
M  V30 59791 N 5471.32 -2.46449 3.08687 0
M  V30 59792 C 5471.17 -1.2525 2.43697 0
M  V30 59793 C 5471.04 -0.914535 1.07318 0
M  V30 59794 N 5471.03 -1.80782 0.0887348 0
M  V30 59795 N 5470.92 0.386745 0.768133 0
M  V30 59796 C 5470.93 1.28096 1.75159 0
M  V30 59797 N 5471.05 1.09708 3.04861 0
M  V30 59798 C 5471.17 -0.214857 3.32306 0
M  V30 59799 H 5474.15 -1.93423 8.4679 0
M  V30 59800 H 5474.42 -1.68852 6.70877 0
M  V30 59801 H 5473.55 0.289041 8.15388 0
M  V30 59802 H 5470.9 0.927006 5.72848 0
M  V30 59803 H 5470.62 -1.86973 6.82036 0
M  V30 59804 H 5469.62 -0.403953 7.13357 0
M  V30 59805 H 5471.46 -1.20599 8.97534 0
M  V30 59806 H 5471.5 -2.86846 5.14318 0
M  V30 59807 H 5471.12 -2.81082 0.302037 0
M  V30 59808 H 5470.93 -1.49688 -0.889064 0
M  V30 59809 H 5470.82 2.31317 1.43855 0
M  V30 59810 P 5469.59 1.17771 8.83182 0
M  V30 59811 O 5469.37 2.07206 9.98732 0
M  V30 59812 O 5468.8 -0.0743816 8.81969 0
M  V30 59813 O 5469.34 1.97652 7.47304 0
M  V30 59814 C 5470.28 3.01133 7.08783 0
M  V30 59815 C 5469.55 4.12613 6.37049 0
M  V30 59816 O 5469.34 3.72827 4.97879 0
M  V30 59817 C 5468.15 4.45085 6.88694 0
M  V30 59818 O 5467.76 5.7877 6.5624 0
M  V30 59819 C 5467.27 3.47817 6.12078 0
M  V30 59820 C 5467.98 3.39414 4.77697 0
M  V30 59821 N 5467.93 2.04615 4.15333 0
M  V30 59822 H 5470.77 3.41248 7.98759 0
M  V30 59823 H 5471.04 2.5837 6.41742 0
M  V30 59824 H 5470.17 5.02657 6.42673 0
M  V30 59825 P 5466.21 6.144 6.45285 0
M  V30 59826 O 5465.99 7.54673 6.86199 0
M  V30 59827 O 5465.42 5.12391 7.179 0
M  V30 59828 O 5465.96 5.99158 4.88404 0
M  V30 59829 C 5466.9 6.60062 3.96313 0
M  V30 59830 C 5466.17 7.08259 2.72856 0
M  V30 59831 O 5465.96 5.9427 1.83651 0
M  V30 59832 C 5464.77 7.65087 2.94749 0
M  V30 59833 O 5464.38 8.53963 1.90717 0
M  V30 59834 C 5463.89 6.41069 2.90698 0
M  V30 59835 C 5464.6 5.5528 1.86931 0
M  V30 59836 N 5464.55 4.09575 2.15696 0
M  V30 59837 C 5464.4 3.24249 1.08435 0
M  V30 59838 O 5464.31 3.63946 -0.0628747 0
M  V30 59839 N 5464.36 1.90009 1.39973 0
M  V30 59840 C 5464.45 1.34884 2.65614 0
M  V30 59841 C 5464.6 2.3145 3.71736 0
M  V30 59842 C 5464.65 3.63518 3.44754 0
M  V30 59843 H 5467.39 7.45402 4.45526 0
M  V30 59844 H 5467.66 5.86062 3.67208 0
M  V30 59845 H 5466.79 7.84412 2.24479 0
M  V30 59846 H 5464.14 5.73358 0.888409 0
M  V30 59847 H 5463.86 5.90877 3.88583 0
M  V30 59848 H 5462.86 6.65867 2.58821 0
M  V30 59849 H 5464.7 8.16248 3.92006 0
M  V30 59850 H 5464.77 4.34551 4.26383 0
M  V30 59851 P 5462.83 8.7635 1.60911 0
M  V30 59852 O 5462.61 10.1388 1.11561 0
M  V30 59853 O 5462.04 8.36503 2.79617 0
M  V30 59854 O 5462.58 7.71906 0.429565 0
M  V30 59855 C 5463.52 7.67148 -0.673689 0
M  V30 59856 C 5462.79 7.33666 -1.94851 0
M  V30 59857 O 5462.58 5.88816 -2.00759 0
M  V30 59858 C 5461.39 7.92526 -2.10483 0
M  V30 59859 O 5461 8.03063 -3.47693 0
M  V30 59860 C 5460.51 6.89602 -1.41652 0
M  V30 59861 C 5461.22 5.59201 -1.75185 0
M  V30 59862 N 5461.17 4.58235 -0.662552 0
M  V30 59863 C 5461.02 3.24451 -1.01643 0
M  V30 59864 O 5460.93 2.94958 -2.21722 0
M  V30 59865 N 5460.97 2.30408 0.165238 0
M  V30 59866 C 5461.07 2.66048 1.25118 0
M  V30 59867 N 5461.02 1.70787 2.16813 0
M  V30 59868 C 5461.22 4.02732 1.64413 0
M  V30 59869 C 5461.27 4.9488 0.63991 0
M  V30 59870 H 5464.01 8.65017 -0.777072 0
M  V30 59871 H 5464.28 6.90173 -0.474152 0
M  V30 59872 H 5463.41 7.66642 -2.79492 0
M  V30 59873 H 5460.76 5.16254 -2.65229 0
M  V30 59874 H 5460.48 7.06532 -0.329431 0
M  V30 59875 H 5459.48 6.91023 -1.82047 0
M  V30 59876 H 5461.32 8.90873 -1.62657 0
M  V30 59877 H 5461.39 6.00104 0.892197 0
M  V30 59878 H 5461.29 4.31733 2.69229 0
M  V30 59879 H 5460.9 0.724835 1.8844 0
M  V30 59880 H 5461.1 1.94716 3.16734 0
M  V30 59881 P 5459.45 8.03563 -3.84925 0
M  V30 59882 O 5459.23 8.85821 -5.0569 0
M  V30 59883 O 5458.66 8.41101 -2.65469 0
M  V30 59884 O 5459.2 6.4965 -4.18908 0
M  V30 59885 C 5460.14 5.81037 -5.05421 0
M  V30 59886 C 5459.41 4.78366 -5.89277 0
M  V30 59887 O 5459.2 3.58302 -5.08433 0
M  V30 59888 C 5458.01 5.17448 -6.36119 0
M  V30 59889 O 5457.62 4.45271 -7.53232 0
M  V30 59890 C 5457.13 4.74639 -5.19936 0
M  V30 59891 C 5457.84 3.49432 -4.70418 0
M  V30 59892 N 5457.79 3.31776 -3.22945 0
M  V30 59893 H 5460.63 6.54213 -5.71376 0
M  V30 59894 H 5460.9 5.30492 -4.44033 0
M  V30 59895 H 5460.03 4.55889 -6.76652 0
M  V30 59896 P 5456.07 4.23843 -7.83734 0
M  V30 59897 O 5455.85 4.19407 -9.29784 0
M  V30 59898 O 5455.28 5.24426 -7.09156 0
M  V30 59899 O 5455.82 2.7935 -7.20758 0
M  V30 59900 C 5456.76 1.7299 -7.50419 0
M  V30 59901 C 5456.03 0.406376 -7.57911 0
M  V30 59902 O 5455.82 -0.0897726 -6.21935 0
M  V30 59903 C 5454.63 0.447224 -8.1878 0
M  V30 59904 O 5454.24 -0.825065 -8.71101 0
M  V30 59905 C 5453.75 0.783801 -6.99623 0
M  V30 59906 C 5454.46 0.0619192 -5.85967 0
M  V30 59907 N 5454.41 0.7859 -4.56281 0
M  V30 59908 H 5457.25 1.93423 -8.4679 0
M  V30 59909 H 5457.52 1.68181 -6.71046 0
M  V30 59910 H 5456.65 -0.289041 -8.15388 0
M  V30 59911 P 5452.69 -1.17771 -8.83182 0
M  V30 59912 O 5452.47 -2.07206 -9.98732 0
M  V30 59913 O 5451.9 0.0743816 -8.81969 0
M  V30 59914 O 5452.44 -1.97652 -7.47304 0
M  V30 59915 C 5453.38 -3.01133 -7.08783 0
M  V30 59916 C 5452.65 -4.12613 -6.37049 0
M  V30 59917 O 5452.44 -3.72827 -4.97879 0
M  V30 59918 C 5451.25 -4.45085 -6.88694 0
M  V30 59919 O 5450.86 -5.7877 -6.5624 0
M  V30 59920 C 5450.37 -3.47817 -6.12078 0
M  V30 59921 C 5451.08 -3.39414 -4.77697 0
M  V30 59922 N 5451.03 -2.04615 -4.15333 0
M  V30 59923 H 5453.87 -3.41248 -7.98759 0
M  V30 59924 H 5454.14 -2.5837 -6.41742 0
M  V30 59925 H 5453.27 -5.02657 -6.42673 0
M  V30 59926 P 5449.31 -6.144 -6.45285 0
M  V30 59927 O 5449.09 -7.54673 -6.86199 0
M  V30 59928 O 5448.52 -5.12391 -7.179 0
M  V30 59929 O 5449.06 -5.99158 -4.88404 0
M  V30 59930 C 5450 -6.60234 -3.96415 0
M  V30 59931 C 5449.27 -7.08259 -2.72856 0
M  V30 59932 O 5449.06 -5.9427 -1.83651 0
M  V30 59933 C 5447.87 -7.64886 -2.9555 0
M  V30 59934 O 5447.48 -8.53963 -1.90717 0
M  V30 59935 C 5446.99 -6.4116 -2.90739 0
M  V30 59936 C 5447.7 -5.55375 -1.86963 0
M  V30 59937 N 5447.65 -4.09664 -2.15742 0
M  V30 59938 H 5450.49 -7.45574 -4.45629 0
M  V30 59939 H 5450.76 -5.86232 -3.67314 0
M  V30 59940 H 5449.89 -7.84412 -2.24479 0
M  V30 59941 P 5445.93 -8.7635 -1.60911 0
M  V30 59942 O 5445.71 -10.1388 -1.11561 0
M  V30 59943 O 5445.14 -8.36503 -2.79617 0
M  V30 59944 O 5445.68 -7.71806 -0.42951 0
M  V30 59945 C 5446.62 -7.67148 0.673689 0
M  V30 59946 C 5445.89 -7.33374 1.95559 0
M  V30 59947 O 5445.68 -5.88721 2.00726 0
M  V30 59948 C 5444.49 -7.92526 2.10483 0
M  V30 59949 O 5444.1 -8.02971 3.47653 0
M  V30 59950 C 5443.61 -6.89602 1.41652 0
M  V30 59951 C 5444.32 -5.59201 1.75185 0
M  V30 59952 N 5444.27 -4.58301 0.657969 0
M  V30 59953 H 5447.11 -8.65116 0.777161 0
M  V30 59954 H 5447.38 -6.9022 0.46725 0
M  V30 59955 H 5446.51 -7.66548 2.79458 0
M  V30 59956 H 5443.86 -5.16165 2.65183 0
M  V30 59957 H 5443.58 -7.06433 0.329384 0
M  V30 59958 H 5442.58 -6.90926 1.82021 0
M  V30 59959 H 5444.42 -8.90873 1.62657 0
M  V30 59960 P 5442.55 -8.03563 3.84925 0
M  V30 59961 O 5442.33 -8.85821 5.0569 0
M  V30 59962 O 5441.76 -8.41101 2.65469 0
M  V30 59963 O 5442.3 -6.4965 4.18908 0
M  V30 59964 C 5443.24 -5.81037 5.05421 0
M  V30 59965 C 5442.51 -4.78366 5.89277 0
M  V30 59966 O 5442.3 -3.58302 5.08433 0
M  V30 59967 C 5441.11 -5.17448 6.36119 0
M  V30 59968 O 5440.72 -4.45271 7.53232 0
M  V30 59969 C 5440.23 -4.74639 5.19936 0
M  V30 59970 C 5440.94 -3.49432 4.70418 0
M  V30 59971 N 5440.89 -3.31776 3.22945 0
M  V30 59972 H 5443.73 -6.54213 5.71376 0
M  V30 59973 H 5444 -5.30492 4.44033 0
M  V30 59974 H 5443.13 -4.55889 6.76652 0
M  V30 59975 P 5439.17 -4.23843 7.83734 0
M  V30 59976 O 5438.95 -4.19407 9.29784 0
M  V30 59977 O 5438.38 -5.24426 7.09156 0
M  V30 59978 O 5438.92 -2.7935 7.20758 0
M  V30 59979 C 5439.86 -1.72945 7.50224 0
M  V30 59980 C 5439.13 -0.406376 7.57911 0
M  V30 59981 O 5438.92 0.0897726 6.21935 0
M  V30 59982 C 5437.73 -0.438983 8.18724 0
M  V30 59983 O 5437.34 0.825065 8.71101 0
M  V30 59984 C 5436.85 -0.783689 6.99524 0
M  V30 59985 C 5437.56 -0.0619086 5.85867 0
M  V30 59986 N 5437.51 -0.78573 4.56183 0
M  V30 59987 C 5437.36 -0.0292889 3.41887 0
M  V30 59988 O 5437.27 1.18445 3.4419 0
M  V30 59989 N 5437.32 -0.744061 2.23964 0
M  V30 59990 C 5437.41 -2.10932 2.10362 0
M  V30 59991 C 5437.56 -2.8202 3.34994 0
M  V30 59992 C 5437.61 -2.15547 4.52261 0
M  V30 59993 H 5440.35 -1.93379 8.46595 0
M  V30 59994 H 5440.62 -1.68132 6.70852 0
M  V30 59995 H 5439.75 0.289041 8.15388 0
M  V30 59996 H 5437.1 0.926847 5.72749 0
M  V30 59997 H 5436.82 -1.86973 6.82036 0
M  V30 59998 H 5435.82 -0.403896 7.13257 0
M  V30 59999 H 5437.66 -1.20585 8.97435 0
M  V30 60000 H 5437.73 -2.71231 5.45042 0
M  V30 60001 P 5435.79 1.17771 8.83182 0
M  V30 60002 O 5435.57 2.07206 9.98732 0
M  V30 60003 O 5435 -0.0743816 8.81969 0
M  V30 60004 O 5435.54 1.97652 7.47304 0
M  V30 60005 C 5436.48 3.01133 7.08783 0
M  V30 60006 C 5435.75 4.12613 6.37049 0
M  V30 60007 O 5435.54 3.72827 4.97879 0
M  V30 60008 C 5434.35 4.45085 6.88694 0
M  V30 60009 O 5433.96 5.7877 6.5624 0
M  V30 60010 C 5433.47 3.47817 6.12078 0
M  V30 60011 C 5434.18 3.39414 4.77697 0
M  V30 60012 N 5434.13 2.04615 4.15333 0
M  V30 60013 H 5436.97 3.41248 7.98759 0
M  V30 60014 H 5437.24 2.5837 6.41742 0
M  V30 60015 H 5436.37 5.02657 6.42673 0
M  V30 60016 P 5432.41 6.144 6.45285 0
M  V30 60017 O 5432.19 7.54673 6.86199 0
M  V30 60018 O 5431.62 5.12391 7.179 0
M  V30 60019 O 5432.16 5.99158 4.88404 0
M  V30 60020 C 5433.1 6.60234 3.96415 0
M  V30 60021 C 5432.37 7.08259 2.72856 0
M  V30 60022 O 5432.16 5.9427 1.83651 0
M  V30 60023 C 5430.97 7.64886 2.9555 0
M  V30 60024 O 5430.58 8.53963 1.90717 0
M  V30 60025 C 5430.09 6.4116 2.90739 0
M  V30 60026 C 5430.8 5.55375 1.86963 0
M  V30 60027 N 5430.75 4.09664 2.15742 0
M  V30 60028 H 5433.59 7.45574 4.45629 0
M  V30 60029 H 5433.86 5.86232 3.67314 0
M  V30 60030 H 5432.99 7.84412 2.24479 0
M  V30 60031 P 5429.03 8.7635 1.60911 0
M  V30 60032 O 5428.81 10.1388 1.11561 0
M  V30 60033 O 5428.24 8.36503 2.79617 0
M  V30 60034 O 5428.78 7.71806 0.42951 0
M  V30 60035 C 5429.72 7.67148 -0.673689 0
M  V30 60036 C 5428.99 7.33374 -1.95559 0
M  V30 60037 O 5428.78 5.88721 -2.00726 0
M  V30 60038 C 5427.59 7.92526 -2.10483 0
M  V30 60039 O 5427.2 8.02971 -3.47653 0
M  V30 60040 C 5426.71 6.89602 -1.41652 0
M  V30 60041 C 5427.42 5.59201 -1.75185 0
M  V30 60042 N 5427.37 4.58301 -0.657969 0
M  V30 60043 C 5427.45 4.79019 0.692603 0
M  V30 60044 N 5427.38 3.69736 1.38998 0
M  V30 60045 C 5427.23 2.70474 0.438135 0
M  V30 60046 C 5427.1 1.30327 0.538142 0
M  V30 60047 N 5427.09 0.64304 1.69192 0
M  V30 60048 N 5426.98 0.611027 -0.605183 0
M  V30 60049 C 5426.99 1.27002 -1.75953 0
M  V30 60050 N 5427.11 2.56038 -1.98546 0
M  V30 60051 C 5427.23 3.22681 -0.822541 0
M  V30 60052 H 5430.21 8.65116 -0.777161 0
M  V30 60053 H 5430.48 6.9022 -0.46725 0
M  V30 60054 H 5429.61 7.66548 -2.79458 0
M  V30 60055 H 5426.96 5.16165 -2.65183 0
M  V30 60056 H 5426.68 7.06433 -0.329384 0
M  V30 60057 H 5425.68 6.90926 -1.82021 0
M  V30 60058 H 5427.52 8.90873 -1.62657 0
M  V30 60059 H 5427.56 5.77785 1.13874 0
M  V30 60060 H 5427.18 1.15585 2.57991 0
M  V30 60061 H 5426.99 -0.382989 1.69835 0
M  V30 60062 H 5426.88 0.653331 -2.64449 0
M  V30 60063 P 5425.65 8.03563 -3.84925 0
M  V30 60064 O 5425.43 8.85821 -5.0569 0
M  V30 60065 O 5424.86 8.41101 -2.65469 0
M  V30 60066 O 5425.4 6.4965 -4.18908 0
M  V30 60067 C 5426.34 5.81037 -5.05421 0
M  V30 60068 C 5425.61 4.78366 -5.89277 0
M  V30 60069 O 5425.4 3.58302 -5.08433 0
M  V30 60070 C 5424.21 5.17448 -6.36119 0
M  V30 60071 O 5423.82 4.45271 -7.53232 0
M  V30 60072 C 5423.33 4.74639 -5.19936 0
M  V30 60073 C 5424.04 3.49432 -4.70418 0
M  V30 60074 N 5423.99 3.31776 -3.22945 0
M  V30 60075 H 5426.83 6.54213 -5.71376 0
M  V30 60076 H 5427.1 5.30492 -4.44033 0
M  V30 60077 H 5426.23 4.55889 -6.76652 0
M  V30 60078 P 5422.27 4.23843 -7.83734 0
M  V30 60079 O 5422.05 4.19407 -9.29784 0
M  V30 60080 O 5421.48 5.24426 -7.09156 0
M  V30 60081 O 5422.02 2.7935 -7.20758 0
M  V30 60082 C 5422.96 1.7299 -7.50419 0
M  V30 60083 C 5422.23 0.406376 -7.57911 0
M  V30 60084 O 5422.02 -0.0897726 -6.21935 0
M  V30 60085 C 5420.83 0.447224 -8.1878 0
M  V30 60086 O 5420.44 -0.825065 -8.71101 0
M  V30 60087 C 5419.95 0.783801 -6.99623 0
M  V30 60088 C 5420.66 0.0619192 -5.85967 0
M  V30 60089 N 5420.61 0.7859 -4.56281 0
M  V30 60090 H 5423.45 1.93423 -8.4679 0
M  V30 60091 H 5423.72 1.68181 -6.71046 0
M  V30 60092 H 5422.85 -0.289041 -8.15388 0
M  V30 60093 P 5418.89 -1.17771 -8.83182 0
M  V30 60094 O 5418.67 -2.07206 -9.98732 0
M  V30 60095 O 5418.1 0.0743816 -8.81969 0
M  V30 60096 O 5418.64 -1.97652 -7.47304 0
M  V30 60097 C 5419.58 -3.01133 -7.08783 0
M  V30 60098 C 5418.85 -4.12613 -6.37049 0
M  V30 60099 O 5418.64 -3.72827 -4.97879 0
M  V30 60100 C 5417.45 -4.45085 -6.88694 0
M  V30 60101 O 5417.06 -5.7877 -6.5624 0
M  V30 60102 C 5416.57 -3.47817 -6.12078 0
M  V30 60103 C 5417.28 -3.39414 -4.77697 0
M  V30 60104 N 5417.23 -2.04615 -4.15333 0
M  V30 60105 H 5420.07 -3.41248 -7.98759 0
M  V30 60106 H 5420.34 -2.5837 -6.41742 0
M  V30 60107 H 5419.47 -5.02657 -6.42673 0
M  V30 60108 P 5415.51 -6.144 -6.45285 0
M  V30 60109 O 5415.29 -7.54673 -6.86199 0
M  V30 60110 O 5414.72 -5.12391 -7.179 0
M  V30 60111 O 5415.26 -5.99158 -4.88404 0
M  V30 60112 C 5416.2 -6.60234 -3.96415 0
M  V30 60113 C 5415.47 -7.08259 -2.72856 0
M  V30 60114 O 5415.26 -5.9427 -1.83651 0
M  V30 60115 C 5414.07 -7.64886 -2.9555 0
M  V30 60116 O 5413.68 -8.53963 -1.90717 0
M  V30 60117 C 5413.19 -6.4116 -2.90739 0
M  V30 60118 C 5413.9 -5.55375 -1.86963 0
M  V30 60119 N 5413.85 -4.09664 -2.15742 0
M  V30 60120 H 5416.69 -7.45574 -4.45629 0
M  V30 60121 H 5416.96 -5.86232 -3.67314 0
M  V30 60122 H 5416.09 -7.84412 -2.24479 0
M  V30 60123 P 5412.13 -8.7635 -1.60911 0
M  V30 60124 O 5411.91 -10.1388 -1.11561 0
M  V30 60125 O 5411.34 -8.36503 -2.79617 0
M  V30 60126 O 5411.88 -7.71806 -0.42951 0
M  V30 60127 C 5412.82 -7.66948 0.673514 0
M  V30 60128 C 5412.09 -7.33374 1.95559 0
M  V30 60129 O 5411.88 -5.88721 2.00726 0
M  V30 60130 C 5410.69 -7.92218 2.1125 0
M  V30 60131 O 5410.3 -8.02971 3.47653 0
M  V30 60132 C 5409.81 -6.89504 1.41631 0
M  V30 60133 C 5410.52 -5.59106 1.75155 0
M  V30 60134 N 5410.47 -4.58136 0.662409 0
M  V30 60135 C 5410.32 -3.26059 1.02863 0
M  V30 60136 O 5410.23 -2.90743 2.19009 0
M  V30 60137 N 5410.28 -2.35995 -0.0155585 0
M  V30 60138 C 5410.37 -2.65248 -1.35603 0
M  V30 60139 O 5410.32 -1.75605 -2.20651 0
M  V30 60140 C 5410.52 -4.05747 -1.64698 0
M  V30 60141 C 5410.63 -4.42345 -3.09553 0
M  V30 60142 C 5410.57 -4.96734 -0.652411 0
M  V30 60143 H 5413.31 -8.64917 0.776982 0
M  V30 60144 H 5413.58 -6.89974 0.474015 0
M  V30 60145 H 5412.71 -7.66548 2.79458 0
M  V30 60146 H 5410.06 -5.16076 2.65138 0
M  V30 60147 H 5409.78 -7.06433 0.329384 0
M  V30 60148 H 5408.78 -6.90829 1.81996 0
M  V30 60149 H 5410.62 -8.90774 1.62639 0
M  V30 60150 H 5410.69 -6.02181 -0.895285 0
M  V30 60151 H 5409.66 -4.80252 -3.45468 0
M  V30 60152 H 5411.4 -5.20015 -3.22119 0
M  V30 60153 H 5410.91 -3.53269 -3.67833 0
M  V30 60154 H 5410.17 -1.39558 0.227499 0
M  V30 60155 P 5408.75 -8.03563 3.84925 0
M  V30 60156 O 5408.53 -8.85821 5.0569 0
M  V30 60157 O 5407.96 -8.41101 2.65469 0
M  V30 60158 O 5408.5 -6.4965 4.18908 0
M  V30 60159 C 5409.44 -5.81037 5.05421 0
M  V30 60160 C 5408.71 -4.78366 5.89277 0
M  V30 60161 O 5408.5 -3.58302 5.08433 0
M  V30 60162 C 5407.31 -5.17448 6.36119 0
M  V30 60163 O 5406.92 -4.45271 7.53232 0
M  V30 60164 C 5406.43 -4.74639 5.19936 0
M  V30 60165 C 5407.14 -3.49432 4.70418 0
M  V30 60166 N 5407.09 -3.31776 3.22945 0
M  V30 60167 H 5409.93 -6.54213 5.71376 0
M  V30 60168 H 5410.2 -5.30492 4.44033 0
M  V30 60169 H 5409.33 -4.55889 6.76652 0
M  V30 60170 P 5405.37 -4.23843 7.83734 0
M  V30 60171 O 5405.15 -4.19407 9.29784 0
M  V30 60172 O 5404.58 -5.24426 7.09156 0
M  V30 60173 O 5405.12 -2.7935 7.20758 0
M  V30 60174 C 5406.06 -1.7299 7.50419 0
M  V30 60175 C 5405.33 -0.406376 7.57911 0
M  V30 60176 O 5405.12 0.0897726 6.21935 0
M  V30 60177 C 5403.93 -0.447224 8.1878 0
M  V30 60178 O 5403.54 0.825065 8.71101 0
M  V30 60179 C 5403.05 -0.783801 6.99623 0
M  V30 60180 C 5403.76 -0.0619192 5.85967 0
M  V30 60181 N 5403.71 -0.7859 4.56281 0
M  V30 60182 H 5406.55 -1.93423 8.4679 0
M  V30 60183 H 5406.82 -1.68181 6.71046 0
M  V30 60184 H 5405.95 0.289041 8.15388 0
M  V30 60185 P 5401.99 1.17771 8.83182 0
M  V30 60186 O 5401.77 2.07206 9.98732 0
M  V30 60187 O 5401.2 -0.0743816 8.81969 0
M  V30 60188 O 5401.74 1.97652 7.47304 0
M  V30 60189 C 5402.68 3.01133 7.08783 0
M  V30 60190 C 5401.95 4.12613 6.37049 0
M  V30 60191 O 5401.74 3.72827 4.97879 0
M  V30 60192 C 5400.55 4.45085 6.88694 0
M  V30 60193 O 5400.16 5.7877 6.5624 0
M  V30 60194 C 5399.67 3.47817 6.12078 0
M  V30 60195 C 5400.38 3.39414 4.77697 0
M  V30 60196 N 5400.33 2.04199 4.15538 0
M  V30 60197 H 5403.17 3.41248 7.98759 0
M  V30 60198 H 5403.44 2.57728 6.42 0
M  V30 60199 H 5402.57 5.02657 6.42673 0
M  V30 60200 H 5399.92 4.11708 4.08956 0
M  V30 60201 H 5399.64 2.49626 6.61679 0
M  V30 60202 H 5398.65 3.8662 6.00862 0
M  V30 60203 H 5400.48 4.29991 7.97006 0
M  V30 60204 P 5398.61 6.144 6.45285 0
M  V30 60205 O 5398.39 7.54673 6.86199 0
M  V30 60206 O 5397.82 5.12391 7.179 0
M  V30 60207 O 5398.36 5.99158 4.88404 0
M  V30 60208 C 5399.3 6.60234 3.96415 0
M  V30 60209 C 5398.57 7.08259 2.72856 0
M  V30 60210 O 5398.36 5.9427 1.83651 0
M  V30 60211 C 5397.17 7.64886 2.9555 0
M  V30 60212 O 5396.78 8.53963 1.90717 0
M  V30 60213 C 5396.29 6.4116 2.90739 0
M  V30 60214 C 5397 5.55375 1.86963 0
M  V30 60215 N 5396.95 4.09664 2.15742 0
M  V30 60216 H 5399.79 7.45574 4.45629 0
M  V30 60217 H 5400.06 5.86232 3.67314 0
M  V30 60218 H 5399.19 7.84412 2.24479 0
M  V30 60219 P 5395.23 8.7635 1.60911 0
M  V30 60220 O 5395.01 10.1388 1.11561 0
M  V30 60221 O 5394.44 8.36503 2.79617 0
M  V30 60222 O 5394.98 7.71806 0.42951 0
M  V30 60223 C 5395.92 7.66948 -0.673514 0
M  V30 60224 C 5395.19 7.33374 -1.95559 0
M  V30 60225 O 5394.98 5.88721 -2.00726 0
M  V30 60226 C 5393.79 7.92218 -2.1125 0
M  V30 60227 O 5393.4 8.02971 -3.47653 0
M  V30 60228 C 5392.91 6.89504 -1.41631 0
M  V30 60229 C 5393.62 5.59106 -1.75155 0
M  V30 60230 N 5393.57 4.58136 -0.662409 0
M  V30 60231 C 5393.42 3.26059 -1.02863 0
M  V30 60232 O 5393.33 2.90743 -2.19009 0
M  V30 60233 N 5393.38 2.35995 0.0155585 0
M  V30 60234 C 5393.47 2.65248 1.35603 0
M  V30 60235 O 5393.42 1.75605 2.20651 0
M  V30 60236 C 5393.62 4.05747 1.64698 0
M  V30 60237 C 5393.73 4.42345 3.09553 0
M  V30 60238 C 5393.67 4.96734 0.652411 0
M  V30 60239 H 5396.41 8.64917 -0.776982 0
M  V30 60240 H 5396.68 6.89974 -0.474015 0
M  V30 60241 H 5395.81 7.66548 -2.79458 0
M  V30 60242 H 5393.16 5.16076 -2.65138 0
M  V30 60243 H 5392.88 7.06433 -0.329384 0
M  V30 60244 H 5391.89 6.90829 -1.81996 0
M  V30 60245 H 5393.72 8.90774 -1.62639 0
M  V30 60246 H 5393.79 6.02181 0.895285 0
M  V30 60247 H 5392.76 4.80252 3.45468 0
M  V30 60248 H 5394.5 5.20015 3.22119 0
M  V30 60249 H 5394.01 3.53269 3.67833 0
M  V30 60250 H 5393.27 1.39558 -0.227499 0
M  V30 60251 P 5391.85 8.03563 -3.84925 0
M  V30 60252 O 5391.63 8.85821 -5.0569 0
M  V30 60253 O 5391.06 8.41101 -2.65469 0
M  V30 60254 O 5391.6 6.4965 -4.18908 0
M  V30 60255 C 5392.54 5.81037 -5.05421 0
M  V30 60256 C 5391.81 4.78366 -5.89277 0
M  V30 60257 O 5391.6 3.58302 -5.08433 0
M  V30 60258 C 5390.41 5.17448 -6.36119 0
M  V30 60259 O 5390.02 4.45271 -7.53232 0
M  V30 60260 C 5389.53 4.74639 -5.19936 0
M  V30 60261 C 5390.24 3.49432 -4.70418 0
M  V30 60262 N 5390.19 3.31776 -3.22945 0
M  V30 60263 H 5393.03 6.54213 -5.71376 0
M  V30 60264 H 5393.3 5.30492 -4.44033 0
M  V30 60265 H 5392.43 4.55889 -6.76652 0
M  V30 60266 P 5388.47 4.23843 -7.83734 0
M  V30 60267 O 5388.25 4.19407 -9.29784 0
M  V30 60268 O 5387.68 5.24426 -7.09156 0
M  V30 60269 O 5388.22 2.7935 -7.20758 0
M  V30 60270 C 5389.16 1.7299 -7.50419 0
M  V30 60271 C 5388.43 0.406376 -7.57911 0
M  V30 60272 O 5388.22 -0.0897726 -6.21935 0
M  V30 60273 C 5387.03 0.447224 -8.1878 0
M  V30 60274 O 5386.64 -0.825065 -8.71101 0
M  V30 60275 C 5386.15 0.783801 -6.99623 0
M  V30 60276 C 5386.86 0.0619192 -5.85967 0
M  V30 60277 N 5386.81 0.7859 -4.56281 0
M  V30 60278 H 5389.65 1.93423 -8.4679 0
M  V30 60279 H 5389.92 1.68181 -6.71046 0
M  V30 60280 H 5389.05 -0.289041 -8.15388 0
M  V30 60281 P 5385.09 -1.17771 -8.83182 0
M  V30 60282 O 5384.87 -2.07206 -9.98732 0
M  V30 60283 O 5384.3 0.0743816 -8.81969 0
M  V30 60284 O 5384.84 -1.97652 -7.47304 0
M  V30 60285 C 5385.78 -3.01133 -7.08783 0
M  V30 60286 C 5385.05 -4.12613 -6.37049 0
M  V30 60287 O 5384.84 -3.72827 -4.97879 0
M  V30 60288 C 5383.65 -4.45085 -6.88694 0
M  V30 60289 O 5383.26 -5.7877 -6.5624 0
M  V30 60290 C 5382.77 -3.47817 -6.12078 0
M  V30 60291 C 5383.48 -3.39414 -4.77697 0
M  V30 60292 N 5383.43 -2.04615 -4.15333 0
M  V30 60293 C 5383.51 -0.803897 -4.75249 0
M  V30 60294 N 5383.43 0.197615 -3.91502 0
M  V30 60295 C 5383.29 -0.413002 -2.66823 0
M  V30 60296 C 5383.16 0.157221 -1.38007 0
M  V30 60297 N 5383.04 -0.833136 -0.390236 0
M  V30 60298 C 5383.04 -2.19402 -0.623885 0
M  V30 60299 N 5382.91 -2.97622 0.449677 0
M  V30 60300 N 5383.17 -2.73005 -1.83601 0
M  V30 60301 C 5383.29 -1.78786 -2.80935 0
M  V30 60302 H 5386.27 -3.41248 -7.98759 0
M  V30 60303 H 5386.54 -2.5837 -6.41742 0
M  V30 60304 H 5385.67 -5.02657 -6.42673 0
M  V30 60305 P 5381.71 -6.144 -6.45285 0
M  V30 60306 O 5381.49 -7.54673 -6.86199 0
M  V30 60307 O 5380.92 -5.12391 -7.179 0
M  V30 60308 O 5381.46 -5.99158 -4.88404 0
M  V30 60309 C 5382.4 -6.60062 -3.96313 0
M  V30 60310 C 5381.67 -7.08259 -2.72856 0
M  V30 60311 O 5381.46 -5.9427 -1.83651 0
M  V30 60312 C 5380.27 -7.65087 -2.94749 0
M  V30 60313 O 5379.88 -8.53963 -1.90717 0
M  V30 60314 C 5379.39 -6.41069 -2.90698 0
M  V30 60315 C 5380.1 -5.5528 -1.86931 0
M  V30 60316 N 5380.05 -4.09575 -2.15696 0
M  V30 60317 C 5379.9 -3.24249 -1.08435 0
M  V30 60318 O 5379.81 -3.63946 0.0628747 0
M  V30 60319 N 5379.86 -1.90009 -1.39973 0
M  V30 60320 C 5379.95 -1.34884 -2.65614 0
M  V30 60321 C 5380.1 -2.3145 -3.71736 0
M  V30 60322 C 5380.15 -3.63518 -3.44754 0
M  V30 60323 H 5382.89 -7.45402 -4.45526 0
M  V30 60324 H 5383.16 -5.86062 -3.67208 0
M  V30 60325 H 5382.29 -7.84412 -2.24479 0
M  V30 60326 H 5379.64 -5.73358 -0.888409 0
M  V30 60327 H 5379.36 -5.90877 -3.88583 0
M  V30 60328 H 5378.37 -6.65867 -2.58821 0
M  V30 60329 H 5380.2 -8.16248 -3.92006 0
M  V30 60330 H 5380.27 -4.34551 -4.26383 0
M  V30 60331 P 5378.33 -8.7635 -1.60911 0
M  V30 60332 O 5378.11 -10.1388 -1.11561 0
M  V30 60333 O 5377.54 -8.36503 -2.79617 0
M  V30 60334 O 5378.08 -7.71806 -0.42951 0
M  V30 60335 C 5379.02 -7.67148 0.673689 0
M  V30 60336 C 5378.29 -7.33374 1.95559 0
M  V30 60337 O 5378.08 -5.88721 2.00726 0
M  V30 60338 C 5376.89 -7.92526 2.10483 0
M  V30 60339 O 5376.5 -8.02971 3.47653 0
M  V30 60340 C 5376.01 -6.89602 1.41652 0
M  V30 60341 C 5376.72 -5.59201 1.75185 0
M  V30 60342 N 5376.67 -4.58235 0.662552 0
M  V30 60343 H 5379.51 -8.65116 0.777161 0
M  V30 60344 H 5379.78 -6.90173 0.474152 0
M  V30 60345 H 5378.91 -7.66548 2.79458 0
M  V30 60346 P 5374.95 -8.03563 3.84925 0
M  V30 60347 O 5374.73 -8.85821 5.0569 0
M  V30 60348 O 5374.16 -8.41101 2.65469 0
M  V30 60349 O 5374.7 -6.4965 4.18908 0
M  V30 60350 C 5375.64 -5.81037 5.05421 0
M  V30 60351 C 5374.91 -4.78366 5.89277 0
M  V30 60352 O 5374.7 -3.58302 5.08433 0
M  V30 60353 C 5373.51 -5.17448 6.36119 0
M  V30 60354 O 5373.12 -4.45271 7.53232 0
M  V30 60355 C 5372.63 -4.74639 5.19936 0
M  V30 60356 C 5373.34 -3.49432 4.70418 0
M  V30 60357 N 5373.29 -3.32099 3.22613 0
M  V30 60358 H 5376.13 -6.54213 5.71376 0
M  V30 60359 H 5376.4 -5.30936 4.43503 0
M  V30 60360 H 5375.53 -4.55889 6.76652 0
M  V30 60361 H 5372.88 -2.61715 5.17932 0
M  V30 60362 H 5372.6 -5.52155 4.41878 0
M  V30 60363 H 5371.61 -4.51981 5.53374 0
M  V30 60364 H 5373.44 -6.25124 6.55234 0
M  V30 60365 P 5371.57 -4.23843 7.83734 0
M  V30 60366 O 5371.35 -4.19407 9.29784 0
M  V30 60367 O 5370.78 -5.24426 7.09156 0
M  V30 60368 O 5371.32 -2.7935 7.20758 0
M  V30 60369 C 5372.26 -1.7299 7.50419 0
M  V30 60370 C 5371.53 -0.406376 7.57911 0
M  V30 60371 O 5371.32 0.0897726 6.21935 0
M  V30 60372 C 5370.13 -0.447224 8.1878 0
M  V30 60373 O 5369.74 0.825065 8.71101 0
M  V30 60374 C 5369.25 -0.783801 6.99623 0
M  V30 60375 C 5369.96 -0.0619192 5.85967 0
M  V30 60376 N 5369.91 -0.7859 4.56281 0
M  V30 60377 H 5372.75 -1.93423 8.4679 0
M  V30 60378 H 5373.02 -1.68181 6.71046 0
M  V30 60379 H 5372.15 0.289041 8.15388 0
M  V30 60380 P 5368.19 1.17771 8.83182 0
M  V30 60381 O 5367.97 2.07206 9.98732 0
M  V30 60382 O 5367.4 -0.0743816 8.81969 0
M  V30 60383 O 5367.94 1.97652 7.47304 0
M  V30 60384 C 5368.88 3.01133 7.08783 0
M  V30 60385 C 5368.15 4.12613 6.37049 0
M  V30 60386 O 5367.94 3.72827 4.97879 0
M  V30 60387 C 5366.75 4.45085 6.88694 0
M  V30 60388 O 5366.36 5.7877 6.5624 0
M  V30 60389 C 5365.87 3.47817 6.12078 0
M  V30 60390 C 5366.58 3.39414 4.77697 0
M  V30 60391 N 5366.53 2.04199 4.15538 0
M  V30 60392 H 5369.37 3.41248 7.98759 0
M  V30 60393 H 5369.64 2.57728 6.42 0
M  V30 60394 H 5368.77 5.02657 6.42673 0
M  V30 60395 H 5366.12 4.11708 4.08956 0
M  V30 60396 H 5365.84 2.49626 6.61679 0
M  V30 60397 H 5364.85 3.8662 6.00862 0
M  V30 60398 H 5366.68 4.29991 7.97006 0
M  V30 60399 P 5364.81 6.144 6.45285 0
M  V30 60400 O 5364.59 7.54673 6.86199 0
M  V30 60401 O 5364.02 5.12391 7.179 0
M  V30 60402 O 5364.56 5.99158 4.88404 0
M  V30 60403 C 5365.5 6.60234 3.96415 0
M  V30 60404 C 5364.77 7.08259 2.72856 0
M  V30 60405 O 5364.56 5.9427 1.83651 0
M  V30 60406 C 5363.37 7.64886 2.9555 0
M  V30 60407 O 5362.98 8.53963 1.90717 0
M  V30 60408 C 5362.49 6.4116 2.90739 0
M  V30 60409 C 5363.2 5.55375 1.86963 0
M  V30 60410 N 5363.15 4.09664 2.15742 0
M  V30 60411 H 5365.99 7.45574 4.45629 0
M  V30 60412 H 5366.26 5.86232 3.67314 0
M  V30 60413 H 5365.39 7.84412 2.24479 0
M  V30 60414 P 5361.43 8.7635 1.60911 0
M  V30 60415 O 5361.21 10.1388 1.11561 0
M  V30 60416 O 5360.64 8.36503 2.79617 0
M  V30 60417 O 5361.18 7.71906 0.429565 0
M  V30 60418 C 5362.12 7.67148 -0.673689 0
M  V30 60419 C 5361.39 7.33666 -1.94851 0
M  V30 60420 O 5361.18 5.88816 -2.00759 0
M  V30 60421 C 5359.99 7.92526 -2.10483 0
M  V30 60422 O 5359.6 8.03063 -3.47693 0
M  V30 60423 C 5359.11 6.89602 -1.41652 0
M  V30 60424 C 5359.82 5.59201 -1.75185 0
M  V30 60425 N 5359.77 4.58235 -0.662552 0
M  V30 60426 C 5359.62 3.24451 -1.01643 0
M  V30 60427 O 5359.53 2.94958 -2.21722 0
M  V30 60428 N 5359.57 2.30408 0.165238 0
M  V30 60429 C 5359.67 2.66048 1.25118 0
M  V30 60430 N 5359.62 1.70787 2.16813 0
M  V30 60431 C 5359.82 4.02732 1.64413 0
M  V30 60432 C 5359.87 4.9488 0.63991 0
M  V30 60433 H 5362.61 8.65017 -0.777072 0
M  V30 60434 H 5362.88 6.90173 -0.474152 0
M  V30 60435 H 5362.01 7.66642 -2.79492 0
M  V30 60436 H 5359.36 5.16254 -2.65229 0
M  V30 60437 H 5359.08 7.06532 -0.329431 0
M  V30 60438 H 5358.09 6.91023 -1.82047 0
M  V30 60439 H 5359.92 8.90873 -1.62657 0
M  V30 60440 H 5359.99 6.00104 0.892197 0
M  V30 60441 H 5359.89 4.31733 2.69229 0
M  V30 60442 H 5359.5 0.724835 1.8844 0
M  V30 60443 H 5359.7 1.94716 3.16734 0
M  V30 60444 P 5358.05 8.03563 -3.84925 0
M  V30 60445 O 5357.83 8.85821 -5.0569 0
M  V30 60446 O 5357.26 8.41101 -2.65469 0
M  V30 60447 O 5357.8 6.4965 -4.18908 0
M  V30 60448 C 5358.74 5.81037 -5.05421 0
M  V30 60449 C 5358.01 4.78366 -5.89277 0
M  V30 60450 O 5357.8 3.58302 -5.08433 0
M  V30 60451 C 5356.61 5.17448 -6.36119 0
M  V30 60452 O 5356.22 4.45271 -7.53232 0
M  V30 60453 C 5355.73 4.74639 -5.19936 0
M  V30 60454 C 5356.44 3.49432 -4.70418 0
M  V30 60455 N 5356.39 3.31776 -3.22945 0
M  V30 60456 H 5359.23 6.54213 -5.71376 0
M  V30 60457 H 5359.5 5.30492 -4.44033 0
M  V30 60458 H 5358.63 4.55889 -6.76652 0
M  V30 60459 P 5354.67 4.23843 -7.83734 0
M  V30 60460 O 5354.45 4.19407 -9.29784 0
M  V30 60461 O 5353.88 5.24426 -7.09156 0
M  V30 60462 O 5354.42 2.7935 -7.20758 0
M  V30 60463 C 5355.36 1.7299 -7.50419 0
M  V30 60464 C 5354.63 0.406376 -7.57911 0
M  V30 60465 O 5354.42 -0.0897726 -6.21935 0
M  V30 60466 C 5353.23 0.447224 -8.1878 0
M  V30 60467 O 5352.84 -0.825065 -8.71101 0
M  V30 60468 C 5352.35 0.783801 -6.99623 0
M  V30 60469 C 5353.06 0.0619192 -5.85967 0
M  V30 60470 N 5353.01 0.7859 -4.56281 0
M  V30 60471 H 5355.85 1.93423 -8.4679 0
M  V30 60472 H 5356.12 1.68181 -6.71046 0
M  V30 60473 H 5355.25 -0.289041 -8.15388 0
M  V30 60474 P 5351.29 -1.17771 -8.83182 0
M  V30 60475 O 5351.07 -2.07206 -9.98732 0
M  V30 60476 O 5350.5 0.0743816 -8.81969 0
M  V30 60477 O 5351.04 -1.97652 -7.47304 0
M  V30 60478 C 5351.98 -3.01133 -7.08783 0
M  V30 60479 C 5351.25 -4.12613 -6.37049 0
M  V30 60480 O 5351.04 -3.72827 -4.97879 0
M  V30 60481 C 5349.85 -4.45085 -6.88694 0
M  V30 60482 O 5349.46 -5.7877 -6.5624 0
M  V30 60483 C 5348.97 -3.47817 -6.12078 0
M  V30 60484 C 5349.68 -3.39414 -4.77697 0
M  V30 60485 N 5349.63 -2.04199 -4.15538 0
M  V30 60486 H 5352.47 -3.41248 -7.98759 0
M  V30 60487 H 5352.74 -2.57728 -6.42 0
M  V30 60488 H 5351.87 -5.02657 -6.42673 0
M  V30 60489 H 5349.22 -4.11708 -4.08956 0
M  V30 60490 H 5348.94 -2.49626 -6.61679 0
M  V30 60491 H 5347.95 -3.8662 -6.00862 0
M  V30 60492 H 5349.78 -4.29991 -7.97006 0
M  V30 60493 P 5347.91 -6.144 -6.45285 0
M  V30 60494 O 5347.69 -7.54673 -6.86199 0
M  V30 60495 O 5347.12 -5.12391 -7.179 0
M  V30 60496 O 5347.66 -5.99158 -4.88404 0
M  V30 60497 C 5348.6 -6.60234 -3.96415 0
M  V30 60498 C 5347.87 -7.08259 -2.72856 0
M  V30 60499 O 5347.66 -5.9427 -1.83651 0
M  V30 60500 C 5346.47 -7.64886 -2.9555 0
M  V30 60501 O 5346.08 -8.53963 -1.90717 0
M  V30 60502 C 5345.59 -6.4116 -2.90739 0
M  V30 60503 C 5346.3 -5.55375 -1.86963 0
M  V30 60504 N 5346.25 -4.09664 -2.15742 0
M  V30 60505 H 5349.09 -7.45574 -4.45629 0
M  V30 60506 H 5349.36 -5.86232 -3.67314 0
M  V30 60507 H 5348.49 -7.84412 -2.24479 0
M  V30 60508 P 5344.53 -8.7635 -1.60911 0
M  V30 60509 O 5344.31 -10.1388 -1.11561 0
M  V30 60510 O 5343.74 -8.36503 -2.79617 0
M  V30 60511 O 5344.28 -7.71806 -0.42951 0
M  V30 60512 C 5345.22 -7.67148 0.673689 0
M  V30 60513 C 5344.49 -7.33374 1.95559 0
M  V30 60514 O 5344.28 -5.88721 2.00726 0
M  V30 60515 C 5343.09 -7.92526 2.10483 0
M  V30 60516 O 5342.7 -8.02971 3.47653 0
M  V30 60517 C 5342.21 -6.89602 1.41652 0
M  V30 60518 C 5342.92 -5.59201 1.75185 0
M  V30 60519 N 5342.87 -4.58301 0.657969 0
M  V30 60520 H 5345.71 -8.65116 0.777161 0
M  V30 60521 H 5345.98 -6.9022 0.46725 0
M  V30 60522 H 5345.11 -7.66548 2.79458 0
M  V30 60523 H 5342.46 -5.16165 2.65183 0
M  V30 60524 H 5342.18 -7.06433 0.329384 0
M  V30 60525 H 5341.19 -6.90926 1.82021 0
M  V30 60526 H 5343.02 -8.90873 1.62657 0
M  V30 60527 P 5341.15 -8.03563 3.84925 0
M  V30 60528 O 5340.93 -8.85821 5.0569 0
M  V30 60529 O 5340.36 -8.41101 2.65469 0
M  V30 60530 O 5340.9 -6.4965 4.18908 0
M  V30 60531 C 5341.84 -5.81037 5.05421 0
M  V30 60532 C 5341.11 -4.78366 5.89277 0
M  V30 60533 O 5340.9 -3.58302 5.08433 0
M  V30 60534 C 5339.71 -5.17448 6.36119 0
M  V30 60535 O 5339.32 -4.45271 7.53232 0
M  V30 60536 C 5338.83 -4.74639 5.19936 0
M  V30 60537 C 5339.54 -3.49432 4.70418 0
M  V30 60538 N 5339.49 -3.31776 3.22945 0
M  V30 60539 H 5342.33 -6.54213 5.71376 0
M  V30 60540 H 5342.6 -5.30492 4.44033 0
M  V30 60541 H 5341.73 -4.55889 6.76652 0
M  V30 60542 P 5337.77 -4.23843 7.83734 0
M  V30 60543 O 5337.55 -4.19407 9.29784 0
M  V30 60544 O 5336.98 -5.24426 7.09156 0
M  V30 60545 O 5337.52 -2.7935 7.20758 0
M  V30 60546 C 5338.46 -1.72945 7.50224 0
M  V30 60547 C 5337.73 -0.406376 7.57911 0
M  V30 60548 O 5337.52 0.0897726 6.21935 0
M  V30 60549 C 5336.33 -0.438983 8.18724 0
M  V30 60550 O 5335.94 0.825065 8.71101 0
M  V30 60551 C 5335.45 -0.783689 6.99524 0
M  V30 60552 C 5336.16 -0.0619086 5.85867 0
M  V30 60553 N 5336.11 -0.78573 4.56183 0
M  V30 60554 C 5335.96 -0.0292889 3.41887 0
M  V30 60555 O 5335.87 1.18445 3.4419 0
M  V30 60556 N 5335.92 -0.744061 2.23964 0
M  V30 60557 C 5336.01 -2.10932 2.10362 0
M  V30 60558 C 5336.16 -2.8202 3.34994 0
M  V30 60559 C 5336.21 -2.15547 4.52261 0
M  V30 60560 H 5338.95 -1.93379 8.46595 0
M  V30 60561 H 5339.22 -1.68132 6.70852 0
M  V30 60562 H 5338.35 0.289041 8.15388 0
M  V30 60563 H 5335.7 0.926847 5.72749 0
M  V30 60564 H 5335.42 -1.86973 6.82036 0
M  V30 60565 H 5334.43 -0.403896 7.13257 0
M  V30 60566 H 5336.26 -1.20585 8.97435 0
M  V30 60567 H 5336.33 -2.71231 5.45042 0
M  V30 60568 P 5334.39 1.17771 8.83182 0
M  V30 60569 O 5334.17 2.07206 9.98732 0
M  V30 60570 O 5333.6 -0.0743816 8.81969 0
M  V30 60571 O 5334.14 1.97652 7.47304 0
M  V30 60572 C 5335.08 3.01133 7.08783 0
M  V30 60573 C 5334.35 4.12613 6.37049 0
M  V30 60574 O 5334.14 3.72827 4.97879 0
M  V30 60575 C 5332.95 4.45085 6.88694 0
M  V30 60576 O 5332.56 5.7877 6.5624 0
M  V30 60577 C 5332.07 3.47817 6.12078 0
M  V30 60578 C 5332.78 3.39414 4.77697 0
M  V30 60579 N 5332.73 2.04615 4.15333 0
M  V30 60580 H 5335.57 3.41248 7.98759 0
M  V30 60581 H 5335.84 2.5837 6.41742 0
M  V30 60582 H 5334.97 5.02657 6.42673 0
M  V30 60583 P 5331.01 6.144 6.45285 0
M  V30 60584 O 5330.79 7.54673 6.86199 0
M  V30 60585 O 5330.22 5.12391 7.179 0
M  V30 60586 O 5330.76 5.99158 4.88404 0
M  V30 60587 C 5331.7 6.60234 3.96415 0
M  V30 60588 C 5330.97 7.08259 2.72856 0
M  V30 60589 O 5330.76 5.9427 1.83651 0
M  V30 60590 C 5329.57 7.64886 2.9555 0
M  V30 60591 O 5329.18 8.53963 1.90717 0
M  V30 60592 C 5328.69 6.4116 2.90739 0
M  V30 60593 C 5329.4 5.55375 1.86963 0
M  V30 60594 N 5329.35 4.09448 2.16152 0
M  V30 60595 H 5332.19 7.45574 4.45629 0
M  V30 60596 H 5332.46 5.85864 3.679 0
M  V30 60597 H 5331.59 7.84412 2.24479 0
M  V30 60598 H 5328.94 5.73457 0.888562 0
M  V30 60599 H 5328.66 5.90877 3.88583 0
M  V30 60600 H 5327.67 6.6596 2.58858 0
M  V30 60601 H 5329.5 8.16339 3.92049 0
M  V30 60602 P 5327.63 8.7635 1.60911 0
M  V30 60603 O 5327.41 10.1388 1.11561 0
M  V30 60604 O 5326.84 8.36503 2.79617 0
M  V30 60605 O 5327.38 7.71806 0.42951 0
M  V30 60606 C 5328.32 7.67148 -0.673689 0
M  V30 60607 C 5327.59 7.33374 -1.95559 0
M  V30 60608 O 5327.38 5.88721 -2.00726 0
M  V30 60609 C 5326.19 7.92526 -2.10483 0
M  V30 60610 O 5325.8 8.02971 -3.47653 0
M  V30 60611 C 5325.31 6.89602 -1.41652 0
M  V30 60612 C 5326.02 5.59201 -1.75185 0
M  V30 60613 N 5325.97 4.58235 -0.662552 0
M  V30 60614 H 5328.81 8.65116 -0.777161 0
M  V30 60615 H 5329.08 6.90173 -0.474152 0
M  V30 60616 H 5328.21 7.66548 -2.79458 0
M  V30 60617 P 5324.25 8.03563 -3.84925 0
M  V30 60618 O 5324.03 8.85821 -5.0569 0
M  V30 60619 O 5323.46 8.41101 -2.65469 0
M  V30 60620 O 5324 6.4965 -4.18908 0
M  V30 60621 C 5324.94 5.81037 -5.05421 0
M  V30 60622 C 5324.21 4.78366 -5.89277 0
M  V30 60623 O 5324 3.58302 -5.08433 0
M  V30 60624 C 5322.81 5.17448 -6.36119 0
M  V30 60625 O 5322.42 4.45271 -7.53232 0
M  V30 60626 C 5321.93 4.74639 -5.19936 0
M  V30 60627 C 5322.64 3.49432 -4.70418 0
M  V30 60628 N 5322.59 3.31776 -3.22945 0
M  V30 60629 H 5325.43 6.54213 -5.71376 0
M  V30 60630 H 5325.7 5.30492 -4.44033 0
M  V30 60631 H 5324.83 4.55889 -6.76652 0
M  V30 60632 P 5320.87 4.23843 -7.83734 0
M  V30 60633 O 5320.65 4.19407 -9.29784 0
M  V30 60634 O 5320.08 5.24426 -7.09156 0
M  V30 60635 O 5320.62 2.7935 -7.20758 0
M  V30 60636 C 5321.56 1.7299 -7.50419 0
M  V30 60637 C 5320.83 0.406376 -7.57911 0
M  V30 60638 O 5320.62 -0.0897726 -6.21935 0
M  V30 60639 C 5319.43 0.447224 -8.1878 0
M  V30 60640 O 5319.04 -0.825065 -8.71101 0
M  V30 60641 C 5318.55 0.783801 -6.99623 0
M  V30 60642 C 5319.26 0.0619192 -5.85967 0
M  V30 60643 N 5319.21 0.7859 -4.56281 0
M  V30 60644 H 5322.05 1.93423 -8.4679 0
M  V30 60645 H 5322.32 1.68181 -6.71046 0
M  V30 60646 H 5321.45 -0.289041 -8.15388 0
M  V30 60647 P 5317.49 -1.17771 -8.83182 0
M  V30 60648 O 5317.27 -2.07206 -9.98732 0
M  V30 60649 O 5316.7 0.0743816 -8.81969 0
M  V30 60650 O 5317.24 -1.97652 -7.47304 0
M  V30 60651 C 5318.18 -3.01133 -7.08783 0
M  V30 60652 C 5317.45 -4.12613 -6.37049 0
M  V30 60653 O 5317.24 -3.72827 -4.97879 0
M  V30 60654 C 5316.05 -4.45085 -6.88694 0
M  V30 60655 O 5315.66 -5.7877 -6.5624 0
M  V30 60656 C 5315.17 -3.47817 -6.12078 0
M  V30 60657 C 5315.88 -3.39414 -4.77697 0
M  V30 60658 N 5315.83 -2.04199 -4.15538 0
M  V30 60659 H 5318.67 -3.41248 -7.98759 0
M  V30 60660 H 5318.94 -2.57728 -6.42 0
M  V30 60661 H 5318.07 -5.02657 -6.42673 0
M  V30 60662 H 5315.42 -4.11708 -4.08956 0
M  V30 60663 H 5315.14 -2.49626 -6.61679 0
M  V30 60664 H 5314.15 -3.8662 -6.00862 0
M  V30 60665 H 5315.98 -4.29991 -7.97006 0
M  V30 60666 P 5314.11 -6.144 -6.45285 0
M  V30 60667 O 5313.89 -7.54673 -6.86199 0
M  V30 60668 O 5313.32 -5.12391 -7.179 0
M  V30 60669 O 5313.86 -5.99158 -4.88404 0
M  V30 60670 C 5314.8 -6.60234 -3.96415 0
M  V30 60671 C 5314.07 -7.08259 -2.72856 0
M  V30 60672 O 5313.86 -5.9427 -1.83651 0
M  V30 60673 C 5312.67 -7.64886 -2.9555 0
M  V30 60674 O 5312.28 -8.53963 -1.90717 0
M  V30 60675 C 5311.79 -6.4116 -2.90739 0
M  V30 60676 C 5312.5 -5.55375 -1.86963 0
M  V30 60677 N 5312.45 -4.09448 -2.16152 0
M  V30 60678 C 5312.53 -3.46824 -3.37593 0
M  V30 60679 N 5312.46 -2.17422 -3.29777 0
M  V30 60680 C 5312.31 -1.93065 -1.94427 0
M  V30 60681 C 5312.18 -0.738053 -1.20141 0
M  V30 60682 N 5312.17 0.474256 -1.74676 0
M  V30 60683 N 5312.06 -0.850049 0.13045 0
M  V30 60684 C 5312.07 -2.06169 0.676992 0
M  V30 60685 N 5312.19 -3.23842 0.101312 0
M  V30 60686 C 5312.31 -3.09402 -1.23122 0
M  V30 60687 H 5315.29 -7.45574 -4.45629 0
M  V30 60688 H 5315.56 -5.85864 -3.679 0
M  V30 60689 H 5314.69 -7.84412 -2.24479 0
M  V30 60690 H 5312.04 -5.73457 -0.888562 0
M  V30 60691 H 5311.76 -5.90877 -3.88583 0
M  V30 60692 H 5310.77 -6.6596 -2.58858 0
M  V30 60693 H 5312.6 -8.16339 -3.92049 0
M  V30 60694 H 5312.64 -4.00505 -4.3174 0
M  V30 60695 H 5312.26 0.581337 -2.76658 0
M  V30 60696 H 5312.07 1.30811 -1.14888 0
M  V30 60697 H 5311.96 -2.08295 1.75542 0
M  V30 60698 P 5310.73 -8.7635 -1.60911 0
M  V30 60699 O 5310.51 -10.1388 -1.11561 0
M  V30 60700 O 5309.94 -8.36503 -2.79617 0
M  V30 60701 O 5310.48 -7.71806 -0.42951 0
M  V30 60702 C 5311.42 -7.67148 0.673689 0
M  V30 60703 C 5310.69 -7.33374 1.95559 0
M  V30 60704 O 5310.48 -5.88721 2.00726 0
M  V30 60705 C 5309.29 -7.92526 2.10483 0
M  V30 60706 O 5308.9 -8.02971 3.47653 0
M  V30 60707 C 5308.41 -6.89602 1.41652 0
M  V30 60708 C 5309.12 -5.59201 1.75185 0
M  V30 60709 N 5309.07 -4.58301 0.657969 0
M  V30 60710 H 5311.91 -8.65116 0.777161 0
M  V30 60711 H 5312.18 -6.9022 0.46725 0
M  V30 60712 H 5311.31 -7.66548 2.79458 0
M  V30 60713 H 5308.66 -5.16165 2.65183 0
M  V30 60714 H 5308.38 -7.06433 0.329384 0
M  V30 60715 H 5307.39 -6.90926 1.82021 0
M  V30 60716 H 5309.22 -8.90873 1.62657 0
M  V30 60717 P 5307.35 -8.03563 3.84925 0
M  V30 60718 O 5307.13 -8.85821 5.0569 0
M  V30 60719 O 5306.56 -8.41101 2.65469 0
M  V30 60720 O 5307.1 -6.4965 4.18908 0
M  V30 60721 C 5308.04 -5.81037 5.05421 0
M  V30 60722 C 5307.31 -4.78366 5.89277 0
M  V30 60723 O 5307.1 -3.58302 5.08433 0
M  V30 60724 C 5305.91 -5.17448 6.36119 0
M  V30 60725 O 5305.52 -4.45271 7.53232 0
M  V30 60726 C 5305.03 -4.74639 5.19936 0
M  V30 60727 C 5305.74 -3.49432 4.70418 0
M  V30 60728 N 5305.69 -3.32099 3.22613 0
M  V30 60729 H 5308.53 -6.54213 5.71376 0
M  V30 60730 H 5308.8 -5.30936 4.43503 0
M  V30 60731 H 5307.93 -4.55889 6.76652 0
M  V30 60732 H 5305.28 -2.61715 5.17932 0
M  V30 60733 H 5305 -5.52155 4.41878 0
M  V30 60734 H 5304.01 -4.51981 5.53374 0
M  V30 60735 H 5305.84 -6.25124 6.55234 0
M  V30 60736 P 5303.97 -4.23843 7.83734 0
M  V30 60737 O 5303.75 -4.19407 9.29784 0
M  V30 60738 O 5303.18 -5.24426 7.09156 0
M  V30 60739 O 5303.72 -2.7935 7.20758 0
M  V30 60740 C 5304.66 -1.72945 7.50224 0
M  V30 60741 C 5303.93 -0.406376 7.57911 0
M  V30 60742 O 5303.72 0.0897726 6.21935 0
M  V30 60743 C 5302.53 -0.438983 8.18724 0
M  V30 60744 O 5302.14 0.825065 8.71101 0
M  V30 60745 C 5301.65 -0.783689 6.99524 0
M  V30 60746 C 5302.36 -0.0619086 5.85867 0
M  V30 60747 N 5302.31 -0.78573 4.56183 0
M  V30 60748 C 5302.16 -0.0292889 3.41887 0
M  V30 60749 O 5302.07 1.18445 3.4419 0
M  V30 60750 N 5302.12 -0.744061 2.23964 0
M  V30 60751 C 5302.21 -2.10932 2.10362 0
M  V30 60752 C 5302.36 -2.8202 3.34994 0
M  V30 60753 C 5302.41 -2.15547 4.52261 0
M  V30 60754 H 5305.15 -1.93379 8.46595 0
M  V30 60755 H 5305.42 -1.68132 6.70852 0
M  V30 60756 H 5304.55 0.289041 8.15388 0
M  V30 60757 H 5301.9 0.926847 5.72749 0
M  V30 60758 H 5301.62 -1.86973 6.82036 0
M  V30 60759 H 5300.63 -0.403896 7.13257 0
M  V30 60760 H 5302.46 -1.20585 8.97435 0
M  V30 60761 H 5302.53 -2.71231 5.45042 0
M  V30 60762 P 5300.59 1.17771 8.83182 0
M  V30 60763 O 5300.37 2.07206 9.98732 0
M  V30 60764 O 5299.8 -0.0743816 8.81969 0
M  V30 60765 O 5300.34 1.97652 7.47304 0
M  V30 60766 C 5301.28 3.01133 7.08783 0
M  V30 60767 C 5300.55 4.12613 6.37049 0
M  V30 60768 O 5300.34 3.72827 4.97879 0
M  V30 60769 C 5299.15 4.45085 6.88694 0
M  V30 60770 O 5298.76 5.7877 6.5624 0
M  V30 60771 C 5298.27 3.47817 6.12078 0
M  V30 60772 C 5298.98 3.39414 4.77697 0
M  V30 60773 N 5298.93 2.04615 4.15333 0
M  V30 60774 H 5301.77 3.41248 7.98759 0
M  V30 60775 H 5302.04 2.5837 6.41742 0
M  V30 60776 H 5301.17 5.02657 6.42673 0
M  V30 60777 P 5297.21 6.144 6.45285 0
M  V30 60778 O 5296.99 7.54673 6.86199 0
M  V30 60779 O 5296.42 5.12391 7.179 0
M  V30 60780 O 5296.96 5.99158 4.88404 0
M  V30 60781 C 5297.9 6.60234 3.96415 0
M  V30 60782 C 5297.17 7.08259 2.72856 0
M  V30 60783 O 5296.96 5.9427 1.83651 0
M  V30 60784 C 5295.77 7.64886 2.9555 0
M  V30 60785 O 5295.38 8.53963 1.90717 0
M  V30 60786 C 5294.89 6.4116 2.90739 0
M  V30 60787 C 5295.6 5.55375 1.86963 0
M  V30 60788 N 5295.55 4.09448 2.16152 0
M  V30 60789 C 5295.63 3.46824 3.37593 0
M  V30 60790 N 5295.56 2.17422 3.29777 0
M  V30 60791 C 5295.41 1.93065 1.94427 0
M  V30 60792 C 5295.28 0.738053 1.20141 0
M  V30 60793 N 5295.27 -0.474256 1.74676 0
M  V30 60794 N 5295.16 0.850049 -0.13045 0
M  V30 60795 C 5295.17 2.06169 -0.676992 0
M  V30 60796 N 5295.29 3.23842 -0.101312 0
M  V30 60797 C 5295.41 3.09402 1.23122 0
M  V30 60798 H 5298.39 7.45574 4.45629 0
M  V30 60799 H 5298.66 5.85864 3.679 0
M  V30 60800 H 5297.79 7.84412 2.24479 0
M  V30 60801 H 5295.14 5.73457 0.888562 0
M  V30 60802 H 5294.86 5.90877 3.88583 0
M  V30 60803 H 5293.87 6.6596 2.58858 0
M  V30 60804 H 5295.7 8.16339 3.92049 0
M  V30 60805 H 5295.74 4.00505 4.3174 0
M  V30 60806 H 5295.36 -0.581337 2.76658 0
M  V30 60807 H 5295.17 -1.30811 1.14888 0
M  V30 60808 H 5295.06 2.08295 -1.75542 0
M  V30 60809 P 5293.83 8.7635 1.60911 0
M  V30 60810 O 5293.61 10.1388 1.11561 0
M  V30 60811 O 5293.04 8.36503 2.79617 0
M  V30 60812 O 5293.58 7.71806 0.42951 0
M  V30 60813 C 5294.52 7.67148 -0.673689 0
M  V30 60814 C 5293.79 7.33374 -1.95559 0
M  V30 60815 O 5293.58 5.88721 -2.00726 0
M  V30 60816 C 5292.39 7.92526 -2.10483 0
M  V30 60817 O 5292 8.02971 -3.47653 0
M  V30 60818 C 5291.51 6.89602 -1.41652 0
M  V30 60819 C 5292.22 5.59201 -1.75185 0
M  V30 60820 N 5292.17 4.58301 -0.657969 0
M  V30 60821 C 5292.25 4.79019 0.692603 0
M  V30 60822 N 5292.18 3.69736 1.38998 0
M  V30 60823 C 5292.03 2.70474 0.438135 0
M  V30 60824 C 5291.9 1.30327 0.538142 0
M  V30 60825 N 5291.89 0.64304 1.69192 0
M  V30 60826 N 5291.78 0.611027 -0.605183 0
M  V30 60827 C 5291.79 1.27002 -1.75953 0
M  V30 60828 N 5291.91 2.56038 -1.98546 0
M  V30 60829 C 5292.03 3.22681 -0.822541 0
M  V30 60830 H 5295.01 8.65116 -0.777161 0
M  V30 60831 H 5295.28 6.9022 -0.46725 0
M  V30 60832 H 5294.41 7.66548 -2.79458 0
M  V30 60833 H 5291.76 5.16165 -2.65183 0
M  V30 60834 H 5291.48 7.06433 -0.329384 0
M  V30 60835 H 5290.49 6.90926 -1.82021 0
M  V30 60836 H 5292.32 8.90873 -1.62657 0
M  V30 60837 H 5292.36 5.77785 1.13874 0
M  V30 60838 H 5291.98 1.15585 2.57991 0
M  V30 60839 H 5291.79 -0.382989 1.69835 0
M  V30 60840 H 5291.68 0.653331 -2.64449 0
M  V30 60841 P 5290.45 8.03563 -3.84925 0
M  V30 60842 O 5290.23 8.85821 -5.0569 0
M  V30 60843 O 5289.66 8.41101 -2.65469 0
M  V30 60844 O 5290.2 6.4965 -4.18908 0
M  V30 60845 C 5291.14 5.81037 -5.05421 0
M  V30 60846 C 5290.41 4.78366 -5.89277 0
M  V30 60847 O 5290.2 3.58302 -5.08433 0
M  V30 60848 C 5289.01 5.17448 -6.36119 0
M  V30 60849 O 5288.62 4.45271 -7.53232 0
M  V30 60850 C 5288.13 4.74639 -5.19936 0
M  V30 60851 C 5288.84 3.49432 -4.70418 0
M  V30 60852 N 5288.79 3.31776 -3.22945 0
M  V30 60853 H 5291.63 6.54213 -5.71376 0
M  V30 60854 H 5291.9 5.30492 -4.44033 0
M  V30 60855 H 5291.03 4.55889 -6.76652 0
M  V30 60856 P 5287.07 4.23843 -7.83734 0
M  V30 60857 O 5286.85 4.19407 -9.29784 0
M  V30 60858 O 5286.28 5.24426 -7.09156 0
M  V30 60859 O 5286.82 2.7935 -7.20758 0
M  V30 60860 C 5287.76 1.7299 -7.50419 0
M  V30 60861 C 5287.03 0.406376 -7.57911 0
M  V30 60862 O 5286.82 -0.0897726 -6.21935 0
M  V30 60863 C 5285.63 0.447224 -8.1878 0
M  V30 60864 O 5285.24 -0.825065 -8.71101 0
M  V30 60865 C 5284.75 0.783801 -6.99623 0
M  V30 60866 C 5285.46 0.0619192 -5.85967 0
M  V30 60867 N 5285.41 0.7859 -4.56281 0
M  V30 60868 H 5288.25 1.93423 -8.4679 0
M  V30 60869 H 5288.52 1.68181 -6.71046 0
M  V30 60870 H 5287.65 -0.289041 -8.15388 0
M  V30 60871 P 5283.69 -1.17771 -8.83182 0
M  V30 60872 O 5283.47 -2.07206 -9.98732 0
M  V30 60873 O 5282.9 0.0743816 -8.81969 0
M  V30 60874 O 5283.44 -1.97652 -7.47304 0
M  V30 60875 C 5284.38 -3.01133 -7.08783 0
M  V30 60876 C 5283.65 -4.12613 -6.37049 0
M  V30 60877 O 5283.44 -3.72827 -4.97879 0
M  V30 60878 C 5282.25 -4.45085 -6.88694 0
M  V30 60879 O 5281.86 -5.7877 -6.5624 0
M  V30 60880 C 5281.37 -3.47817 -6.12078 0
M  V30 60881 C 5282.08 -3.39414 -4.77697 0
M  V30 60882 N 5282.03 -2.04615 -4.15333 0
M  V30 60883 H 5284.87 -3.41248 -7.98759 0
M  V30 60884 H 5285.14 -2.5837 -6.41742 0
M  V30 60885 H 5284.27 -5.02657 -6.42673 0
M  V30 60886 P 5280.31 -6.144 -6.45285 0
M  V30 60887 O 5280.09 -7.54673 -6.86199 0
M  V30 60888 O 5279.52 -5.12391 -7.179 0
M  V30 60889 O 5280.06 -5.99158 -4.88404 0
M  V30 60890 C 5281 -6.60234 -3.96415 0
M  V30 60891 C 5280.27 -7.08259 -2.72856 0
M  V30 60892 O 5280.06 -5.9427 -1.83651 0
M  V30 60893 C 5278.87 -7.64886 -2.9555 0
M  V30 60894 O 5278.48 -8.53963 -1.90717 0
M  V30 60895 C 5277.99 -6.4116 -2.90739 0
M  V30 60896 C 5278.7 -5.55375 -1.86963 0
M  V30 60897 N 5278.65 -4.09664 -2.15742 0
M  V30 60898 H 5281.49 -7.45574 -4.45629 0
M  V30 60899 H 5281.76 -5.86232 -3.67314 0
M  V30 60900 H 5280.89 -7.84412 -2.24479 0
M  V30 60901 P 5276.93 -8.7635 -1.60911 0
M  V30 60902 O 5276.71 -10.1388 -1.11561 0
M  V30 60903 O 5276.14 -8.36503 -2.79617 0
M  V30 60904 O 5276.68 -7.71806 -0.42951 0
M  V30 60905 C 5277.62 -7.67148 0.673689 0
M  V30 60906 C 5276.89 -7.33374 1.95559 0
M  V30 60907 O 5276.68 -5.88721 2.00726 0
M  V30 60908 C 5275.49 -7.92526 2.10483 0
M  V30 60909 O 5275.1 -8.02971 3.47653 0
M  V30 60910 C 5274.61 -6.89602 1.41652 0
M  V30 60911 C 5275.32 -5.59201 1.75185 0
M  V30 60912 N 5275.27 -4.58235 0.662552 0
M  V30 60913 H 5278.11 -8.65116 0.777161 0
M  V30 60914 H 5278.38 -6.90173 0.474152 0
M  V30 60915 H 5277.51 -7.66548 2.79458 0
M  V30 60916 P 5273.55 -8.03563 3.84925 0
M  V30 60917 O 5273.33 -8.85821 5.0569 0
M  V30 60918 O 5272.76 -8.41101 2.65469 0
M  V30 60919 O 5273.3 -6.4965 4.18908 0
M  V30 60920 C 5274.24 -5.80886 5.05289 0
M  V30 60921 C 5273.51 -4.78366 5.89277 0
M  V30 60922 O 5273.3 -3.58302 5.08433 0
M  V30 60923 C 5272.11 -5.16748 6.36559 0
M  V30 60924 O 5271.72 -4.45271 7.53232 0
M  V30 60925 C 5271.23 -4.74572 5.19863 0
M  V30 60926 C 5271.94 -3.49373 4.70338 0
M  V30 60927 N 5271.89 -3.31704 3.22876 0
M  V30 60928 C 5271.74 -2.03326 2.74871 0
M  V30 60929 O 5271.65 -1.06486 3.48076 0
M  V30 60930 N 5271.7 -1.91838 1.37456 0
M  V30 60931 C 5271.79 -2.94295 0.462035 0
M  V30 60932 O 5271.74 -2.71763 -0.752928 0
M  V30 60933 C 5271.94 -4.25064 1.05249 0
M  V30 60934 C 5272.05 -5.39815 0.095697 0
M  V30 60935 C 5271.99 -4.40214 2.39192 0
M  V30 60936 H 5274.73 -6.54063 5.71245 0
M  V30 60937 H 5275 -5.30339 4.43905 0
M  V30 60938 H 5274.13 -4.55889 6.76652 0
M  V30 60939 H 5271.48 -2.6167 5.17842 0
M  V30 60940 H 5271.2 -5.52155 4.41878 0
M  V30 60941 H 5270.21 -4.51918 5.53297 0
M  V30 60942 H 5272.04 -6.25055 6.55162 0
M  V30 60943 H 5272.11 -5.39798 2.81523 0
M  V30 60944 H 5271.08 -5.91593 0.0279582 0
M  V30 60945 H 5272.82 -6.10038 0.450573 0
M  V30 60946 H 5272.33 -5.02007 -0.89937 0
M  V30 60947 H 5271.59 -0.995326 1.00435 0
M  V30 60948 P 5270.17 -4.23843 7.83734 0
M  V30 60949 O 5269.95 -4.19407 9.29784 0
M  V30 60950 O 5269.38 -5.24426 7.09156 0
M  V30 60951 O 5269.92 -2.7935 7.20758 0
M  V30 60952 C 5270.86 -1.7299 7.50419 0
M  V30 60953 C 5270.13 -0.406376 7.57911 0
M  V30 60954 O 5269.92 0.0897726 6.21935 0
M  V30 60955 C 5268.73 -0.447224 8.1878 0
M  V30 60956 O 5268.34 0.825065 8.71101 0
M  V30 60957 C 5267.85 -0.783801 6.99623 0
M  V30 60958 C 5268.56 -0.0619192 5.85967 0
M  V30 60959 N 5268.51 -0.7859 4.56281 0
M  V30 60960 H 5271.35 -1.93423 8.4679 0
M  V30 60961 H 5271.62 -1.68181 6.71046 0
M  V30 60962 H 5270.75 0.289041 8.15388 0
M  V30 60963 P 5266.79 1.17771 8.83182 0
M  V30 60964 O 5266.57 2.07206 9.98732 0
M  V30 60965 O 5266 -0.0743816 8.81969 0
M  V30 60966 O 5266.54 1.97652 7.47304 0
M  V30 60967 C 5267.48 3.01133 7.08783 0
M  V30 60968 C 5266.75 4.12613 6.37049 0
M  V30 60969 O 5266.54 3.72827 4.97879 0
M  V30 60970 C 5265.35 4.45085 6.88694 0
M  V30 60971 O 5264.96 5.7877 6.5624 0
M  V30 60972 C 5264.47 3.47817 6.12078 0
M  V30 60973 C 5265.18 3.39414 4.77697 0
M  V30 60974 N 5265.13 2.04615 4.15333 0
M  V30 60975 H 5267.97 3.41248 7.98759 0
M  V30 60976 H 5268.24 2.5837 6.41742 0
M  V30 60977 H 5267.37 5.02657 6.42673 0
M  V30 60978 P 5263.41 6.144 6.45285 0
M  V30 60979 O 5263.19 7.54673 6.86199 0
M  V30 60980 O 5262.62 5.12391 7.179 0
M  V30 60981 O 5263.16 5.99158 4.88404 0
M  V30 60982 C 5264.1 6.60234 3.96415 0
M  V30 60983 C 5263.37 7.08259 2.72856 0
M  V30 60984 O 5263.16 5.9427 1.83651 0
M  V30 60985 C 5261.97 7.64886 2.9555 0
M  V30 60986 O 5261.58 8.53963 1.90717 0
M  V30 60987 C 5261.09 6.4116 2.90739 0
M  V30 60988 C 5261.8 5.55375 1.86963 0
M  V30 60989 N 5261.75 4.09664 2.15742 0
M  V30 60990 H 5264.59 7.45574 4.45629 0
M  V30 60991 H 5264.86 5.86232 3.67314 0
M  V30 60992 H 5263.99 7.84412 2.24479 0
M  V30 60993 P 5260.03 8.7635 1.60911 0
M  V30 60994 O 5259.81 10.1388 1.11561 0
M  V30 60995 O 5259.24 8.36503 2.79617 0
M  V30 60996 O 5259.78 7.71906 0.429565 0
M  V30 60997 C 5260.72 7.67148 -0.673689 0
M  V30 60998 C 5259.99 7.33666 -1.94851 0
M  V30 60999 O 5259.78 5.88816 -2.00759 0
M  V30 61000 C 5258.59 7.92526 -2.10483 0
M  V30 61001 O 5258.2 8.03063 -3.47693 0
M  V30 61002 C 5257.71 6.89602 -1.41652 0
M  V30 61003 C 5258.42 5.59201 -1.75185 0
M  V30 61004 N 5258.37 4.58235 -0.662552 0
M  V30 61005 C 5258.22 3.24451 -1.01643 0
M  V30 61006 O 5258.13 2.94958 -2.21722 0
M  V30 61007 N 5258.17 2.30408 0.165238 0
M  V30 61008 C 5258.27 2.66048 1.25118 0
M  V30 61009 N 5258.22 1.70787 2.16813 0
M  V30 61010 C 5258.42 4.02732 1.64413 0
M  V30 61011 C 5258.47 4.9488 0.63991 0
M  V30 61012 H 5261.21 8.65017 -0.777072 0
M  V30 61013 H 5261.48 6.90173 -0.474152 0
M  V30 61014 H 5260.61 7.66642 -2.79492 0
M  V30 61015 H 5257.96 5.16254 -2.65229 0
M  V30 61016 H 5257.68 7.06532 -0.329431 0
M  V30 61017 H 5256.69 6.91023 -1.82047 0
M  V30 61018 H 5258.52 8.90873 -1.62657 0
M  V30 61019 H 5258.59 6.00104 0.892197 0
M  V30 61020 H 5258.49 4.31733 2.69229 0
M  V30 61021 H 5258.1 0.724835 1.8844 0
M  V30 61022 H 5258.3 1.94716 3.16734 0
M  V30 61023 P 5256.65 8.03563 -3.84925 0
M  V30 61024 O 5256.43 8.85821 -5.0569 0
M  V30 61025 O 5255.86 8.41101 -2.65469 0
M  V30 61026 O 5256.4 6.4965 -4.18908 0
M  V30 61027 C 5257.34 5.81037 -5.05421 0
M  V30 61028 C 5256.61 4.78366 -5.89277 0
M  V30 61029 O 5256.4 3.58302 -5.08433 0
M  V30 61030 C 5255.21 5.17448 -6.36119 0
M  V30 61031 O 5254.82 4.45271 -7.53232 0
M  V30 61032 C 5254.33 4.74639 -5.19936 0
M  V30 61033 C 5255.04 3.49432 -4.70418 0
M  V30 61034 N 5254.99 3.31776 -3.22945 0
M  V30 61035 H 5257.83 6.54213 -5.71376 0
M  V30 61036 H 5258.1 5.30492 -4.44033 0
M  V30 61037 H 5257.23 4.55889 -6.76652 0
M  V30 61038 P 5253.27 4.23843 -7.83734 0
M  V30 61039 O 5253.05 4.19407 -9.29784 0
M  V30 61040 O 5252.48 5.24426 -7.09156 0
M  V30 61041 O 5253.02 2.7935 -7.20758 0
M  V30 61042 C 5253.96 1.7299 -7.50419 0
M  V30 61043 C 5253.23 0.406376 -7.57911 0
M  V30 61044 O 5253.02 -0.0897726 -6.21935 0
M  V30 61045 C 5251.83 0.447224 -8.1878 0
M  V30 61046 O 5251.44 -0.825065 -8.71101 0
M  V30 61047 C 5250.95 0.783801 -6.99623 0
M  V30 61048 C 5251.66 0.0619192 -5.85967 0
M  V30 61049 N 5251.61 0.790462 -4.56202 0
M  V30 61050 H 5254.45 1.93423 -8.4679 0
M  V30 61051 H 5254.72 1.68852 -6.70877 0
M  V30 61052 H 5253.85 -0.289041 -8.15388 0
M  V30 61053 H 5251.2 -0.927006 -5.72848 0
M  V30 61054 H 5250.92 1.86973 -6.82036 0
M  V30 61055 H 5249.93 0.403953 -7.13357 0
M  V30 61056 H 5251.76 1.20599 -8.97534 0
M  V30 61057 P 5249.89 -1.17771 -8.83182 0
M  V30 61058 O 5249.67 -2.07206 -9.98732 0
M  V30 61059 O 5249.1 0.0743816 -8.81969 0
M  V30 61060 O 5249.64 -1.97652 -7.47304 0
M  V30 61061 C 5250.58 -3.01133 -7.08783 0
M  V30 61062 C 5249.85 -4.12613 -6.37049 0
M  V30 61063 O 5249.64 -3.72827 -4.97879 0
M  V30 61064 C 5248.45 -4.45085 -6.88694 0
M  V30 61065 O 5248.06 -5.7877 -6.5624 0
M  V30 61066 C 5247.57 -3.47817 -6.12078 0
M  V30 61067 C 5248.28 -3.39414 -4.77697 0
M  V30 61068 N 5248.23 -2.04199 -4.15538 0
M  V30 61069 C 5248.31 -0.821545 -4.76977 0
M  V30 61070 N 5248.24 0.1794 -3.94592 0
M  V30 61071 C 5248.09 -0.419121 -2.70776 0
M  V30 61072 C 5247.96 0.109072 -1.40577 0
M  V30 61073 N 5247.95 1.4104 -1.1344 0
M  V30 61074 N 5247.84 -0.764381 -0.39411 0
M  V30 61075 C 5247.85 -2.06587 -0.664135 0
M  V30 61076 N 5247.97 -2.67948 -1.82153 0
M  V30 61077 C 5248.09 -1.77942 -2.8147 0
M  V30 61078 H 5251.07 -3.41248 -7.98759 0
M  V30 61079 H 5251.34 -2.57728 -6.42 0
M  V30 61080 H 5250.47 -5.02657 -6.42673 0
M  V30 61081 H 5247.82 -4.11708 -4.08956 0
M  V30 61082 H 5247.54 -2.49626 -6.61679 0
M  V30 61083 H 5246.55 -3.8662 -6.00862 0
M  V30 61084 H 5248.38 -4.29991 -7.97006 0
M  V30 61085 H 5248.42 -0.702451 -5.84696 0
M  V30 61086 H 5248.04 2.09647 -1.89651 0
M  V30 61087 H 5247.85 1.73358 -0.160575 0
M  V30 61088 H 5247.74 -2.71695 0.195838 0
M  V30 61089 P 5246.51 -6.144 -6.45285 0
M  V30 61090 O 5246.29 -7.54673 -6.86199 0
M  V30 61091 O 5245.72 -5.12391 -7.179 0
M  V30 61092 O 5246.26 -5.99158 -4.88404 0
M  V30 61093 C 5247.2 -6.60234 -3.96415 0
M  V30 61094 C 5246.47 -7.08259 -2.72856 0
M  V30 61095 O 5246.26 -5.9427 -1.83651 0
M  V30 61096 C 5245.07 -7.64886 -2.9555 0
M  V30 61097 O 5244.68 -8.53963 -1.90717 0
M  V30 61098 C 5244.19 -6.4116 -2.90739 0
M  V30 61099 C 5244.9 -5.55375 -1.86963 0
M  V30 61100 N 5244.85 -4.09448 -2.16152 0
M  V30 61101 H 5247.69 -7.45574 -4.45629 0
M  V30 61102 H 5247.96 -5.85864 -3.679 0
M  V30 61103 H 5247.09 -7.84412 -2.24479 0
M  V30 61104 H 5244.44 -5.73457 -0.888562 0
M  V30 61105 H 5244.16 -5.90877 -3.88583 0
M  V30 61106 H 5243.17 -6.6596 -2.58858 0
M  V30 61107 H 5245 -8.16339 -3.92049 0
M  V30 61108 P 5243.13 -8.7635 -1.60911 0
M  V30 61109 O 5242.91 -10.1388 -1.11561 0
M  V30 61110 O 5242.34 -8.36503 -2.79617 0
M  V30 61111 O 5242.88 -7.71906 -0.429565 0
M  V30 61112 C 5243.82 -7.67148 0.673689 0
M  V30 61113 C 5243.09 -7.33666 1.94851 0
M  V30 61114 O 5242.88 -5.88816 2.00759 0
M  V30 61115 C 5241.69 -7.92526 2.10483 0
M  V30 61116 O 5241.3 -8.03063 3.47693 0
M  V30 61117 C 5240.81 -6.89602 1.41652 0
M  V30 61118 C 5241.52 -5.59201 1.75185 0
M  V30 61119 N 5241.47 -4.58235 0.662552 0
M  V30 61120 C 5241.32 -3.24451 1.01643 0
M  V30 61121 O 5241.23 -2.94958 2.21722 0
M  V30 61122 N 5241.27 -2.30408 -0.165238 0
M  V30 61123 C 5241.37 -2.66048 -1.25118 0
M  V30 61124 N 5241.32 -1.70787 -2.16813 0
M  V30 61125 C 5241.52 -4.02732 -1.64413 0
M  V30 61126 C 5241.57 -4.9488 -0.63991 0
M  V30 61127 H 5244.31 -8.65017 0.777072 0
M  V30 61128 H 5244.58 -6.90173 0.474152 0
M  V30 61129 H 5243.71 -7.66642 2.79492 0
M  V30 61130 H 5241.06 -5.16254 2.65229 0
M  V30 61131 H 5240.78 -7.06532 0.329431 0
M  V30 61132 H 5239.79 -6.91023 1.82047 0
M  V30 61133 H 5241.62 -8.90873 1.62657 0
M  V30 61134 H 5241.69 -6.00104 -0.892197 0
M  V30 61135 H 5241.59 -4.31733 -2.69229 0
M  V30 61136 H 5241.2 -0.724835 -1.8844 0
M  V30 61137 H 5241.4 -1.94716 -3.16734 0
M  V30 61138 P 5239.75 -8.03563 3.84925 0
M  V30 61139 O 5239.53 -8.85821 5.0569 0
M  V30 61140 O 5238.96 -8.41101 2.65469 0
M  V30 61141 O 5239.5 -6.4965 4.18908 0
M  V30 61142 C 5240.44 -5.81037 5.05421 0
M  V30 61143 C 5239.71 -4.78366 5.89277 0
M  V30 61144 O 5239.5 -3.58302 5.08433 0
M  V30 61145 C 5238.31 -5.17448 6.36119 0
M  V30 61146 O 5237.92 -4.45271 7.53232 0
M  V30 61147 C 5237.43 -4.74639 5.19936 0
M  V30 61148 C 5238.14 -3.49432 4.70418 0
M  V30 61149 N 5238.09 -3.31776 3.22945 0
M  V30 61150 H 5240.93 -6.54213 5.71376 0
M  V30 61151 H 5241.2 -5.30492 4.44033 0
M  V30 61152 H 5240.33 -4.55889 6.76652 0
M  V30 61153 P 5236.37 -4.23843 7.83734 0
M  V30 61154 O 5236.15 -4.19407 9.29784 0
M  V30 61155 O 5235.58 -5.24426 7.09156 0
M  V30 61156 O 5236.12 -2.7935 7.20758 0
M  V30 61157 C 5237.06 -1.7299 7.50419 0
M  V30 61158 C 5236.33 -0.406376 7.57911 0
M  V30 61159 O 5236.12 0.0897726 6.21935 0
M  V30 61160 C 5234.93 -0.447224 8.1878 0
M  V30 61161 O 5234.54 0.825065 8.71101 0
M  V30 61162 C 5234.05 -0.783801 6.99623 0
M  V30 61163 C 5234.76 -0.0619192 5.85967 0
M  V30 61164 N 5234.71 -0.7859 4.56281 0
M  V30 61165 H 5237.55 -1.93423 8.4679 0
M  V30 61166 H 5237.82 -1.68181 6.71046 0
M  V30 61167 H 5236.95 0.289041 8.15388 0
M  V30 61168 P 5232.99 1.17771 8.83182 0
M  V30 61169 O 5232.77 2.07206 9.98732 0
M  V30 61170 O 5232.2 -0.0743816 8.81969 0
M  V30 61171 O 5232.74 1.97652 7.47304 0
M  V30 61172 C 5233.68 3.01133 7.08783 0
M  V30 61173 C 5232.95 4.12613 6.37049 0
M  V30 61174 O 5232.74 3.72827 4.97879 0
M  V30 61175 C 5231.55 4.45085 6.88694 0
M  V30 61176 O 5231.16 5.7877 6.5624 0
M  V30 61177 C 5230.67 3.47817 6.12078 0
M  V30 61178 C 5231.38 3.39414 4.77697 0
M  V30 61179 N 5231.33 2.04615 4.15333 0
M  V30 61180 H 5234.17 3.41248 7.98759 0
M  V30 61181 H 5234.44 2.5837 6.41742 0
M  V30 61182 H 5233.57 5.02657 6.42673 0
M  V30 61183 P 5229.61 6.144 6.45285 0
M  V30 61184 O 5229.39 7.54673 6.86199 0
M  V30 61185 O 5228.82 5.12391 7.179 0
M  V30 61186 O 5229.36 5.99158 4.88404 0
M  V30 61187 C 5230.3 6.60234 3.96415 0
M  V30 61188 C 5229.57 7.08259 2.72856 0
M  V30 61189 O 5229.36 5.9427 1.83651 0
M  V30 61190 C 5228.17 7.64886 2.9555 0
M  V30 61191 O 5227.78 8.53963 1.90717 0
M  V30 61192 C 5227.29 6.4116 2.90739 0
M  V30 61193 C 5228 5.55375 1.86963 0
M  V30 61194 N 5227.95 4.09448 2.16152 0
M  V30 61195 H 5230.79 7.45574 4.45629 0
M  V30 61196 H 5231.06 5.85864 3.679 0
M  V30 61197 H 5230.19 7.84412 2.24479 0
M  V30 61198 H 5227.54 5.73457 0.888562 0
M  V30 61199 H 5227.26 5.90877 3.88583 0
M  V30 61200 H 5226.27 6.6596 2.58858 0
M  V30 61201 H 5228.1 8.16339 3.92049 0
M  V30 61202 P 5226.23 8.7635 1.60911 0
M  V30 61203 O 5226.01 10.1388 1.11561 0
M  V30 61204 O 5225.44 8.36503 2.79617 0
M  V30 61205 O 5225.98 7.71906 0.429565 0
M  V30 61206 C 5226.92 7.67148 -0.673689 0
M  V30 61207 C 5226.19 7.33666 -1.94851 0
M  V30 61208 O 5225.98 5.88816 -2.00759 0
M  V30 61209 C 5224.79 7.92526 -2.10483 0
M  V30 61210 O 5224.4 8.03063 -3.47693 0
M  V30 61211 C 5223.91 6.89602 -1.41652 0
M  V30 61212 C 5224.62 5.59201 -1.75185 0
M  V30 61213 N 5224.57 4.58235 -0.662552 0
M  V30 61214 C 5224.42 3.24451 -1.01643 0
M  V30 61215 O 5224.33 2.94958 -2.21722 0
M  V30 61216 N 5224.37 2.30408 0.165238 0
M  V30 61217 C 5224.47 2.66048 1.25118 0
M  V30 61218 N 5224.42 1.70787 2.16813 0
M  V30 61219 C 5224.62 4.02732 1.64413 0
M  V30 61220 C 5224.67 4.9488 0.63991 0
M  V30 61221 H 5227.41 8.65017 -0.777072 0
M  V30 61222 H 5227.68 6.90173 -0.474152 0
M  V30 61223 H 5226.81 7.66642 -2.79492 0
M  V30 61224 H 5224.16 5.16254 -2.65229 0
M  V30 61225 H 5223.88 7.06532 -0.329431 0
M  V30 61226 H 5222.89 6.91023 -1.82047 0
M  V30 61227 H 5224.72 8.90873 -1.62657 0
M  V30 61228 H 5224.79 6.00104 0.892197 0
M  V30 61229 H 5224.69 4.31733 2.69229 0
M  V30 61230 H 5224.3 0.724835 1.8844 0
M  V30 61231 H 5224.5 1.94716 3.16734 0
M  V30 61232 P 5222.85 8.03563 -3.84925 0
M  V30 61233 O 5222.63 8.85821 -5.0569 0
M  V30 61234 O 5222.06 8.41101 -2.65469 0
M  V30 61235 O 5222.6 6.4965 -4.18908 0
M  V30 61236 C 5223.54 5.81037 -5.05421 0
M  V30 61237 C 5222.81 4.78366 -5.89277 0
M  V30 61238 O 5222.6 3.58302 -5.08433 0
M  V30 61239 C 5221.41 5.17448 -6.36119 0
M  V30 61240 O 5221.02 4.45271 -7.53232 0
M  V30 61241 C 5220.53 4.74639 -5.19936 0
M  V30 61242 C 5221.24 3.49432 -4.70418 0
M  V30 61243 N 5221.19 3.31776 -3.22945 0
M  V30 61244 H 5224.03 6.54213 -5.71376 0
M  V30 61245 H 5224.3 5.30492 -4.44033 0
M  V30 61246 H 5223.43 4.55889 -6.76652 0
M  V30 61247 P 5219.47 4.23843 -7.83734 0
M  V30 61248 O 5219.25 4.19407 -9.29784 0
M  V30 61249 O 5218.68 5.24426 -7.09156 0
M  V30 61250 O 5219.22 2.7935 -7.20758 0
M  V30 61251 C 5220.16 1.7299 -7.50419 0
M  V30 61252 C 5219.43 0.406376 -7.57911 0
M  V30 61253 O 5219.22 -0.0897726 -6.21935 0
M  V30 61254 C 5218.03 0.447224 -8.1878 0
M  V30 61255 O 5217.64 -0.825065 -8.71101 0
M  V30 61256 C 5217.15 0.783801 -6.99623 0
M  V30 61257 C 5217.86 0.0619192 -5.85967 0
M  V30 61258 N 5217.81 0.7859 -4.56281 0
M  V30 61259 H 5220.65 1.93423 -8.4679 0
M  V30 61260 H 5220.92 1.68181 -6.71046 0
M  V30 61261 H 5220.05 -0.289041 -8.15388 0
M  V30 61262 P 5216.09 -1.17771 -8.83182 0
M  V30 61263 O 5215.87 -2.07206 -9.98732 0
M  V30 61264 O 5215.3 0.0743816 -8.81969 0
M  V30 61265 O 5215.84 -1.97652 -7.47304 0
M  V30 61266 C 5216.78 -3.01133 -7.08783 0
M  V30 61267 C 5216.05 -4.12613 -6.37049 0
M  V30 61268 O 5215.84 -3.72827 -4.97879 0
M  V30 61269 C 5214.65 -4.45085 -6.88694 0
M  V30 61270 O 5214.26 -5.7877 -6.5624 0
M  V30 61271 C 5213.77 -3.47817 -6.12078 0
M  V30 61272 C 5214.48 -3.39414 -4.77697 0
M  V30 61273 N 5214.43 -2.04615 -4.15333 0
M  V30 61274 H 5217.27 -3.41248 -7.98759 0
M  V30 61275 H 5217.54 -2.5837 -6.41742 0
M  V30 61276 H 5216.67 -5.02657 -6.42673 0
M  V30 61277 P 5212.71 -6.144 -6.45285 0
M  V30 61278 O 5212.49 -7.54673 -6.86199 0
M  V30 61279 O 5211.92 -5.12391 -7.179 0
M  V30 61280 O 5212.46 -5.99158 -4.88404 0
M  V30 61281 C 5213.4 -6.60234 -3.96415 0
M  V30 61282 C 5212.67 -7.08259 -2.72856 0
M  V30 61283 O 5212.46 -5.9427 -1.83651 0
M  V30 61284 C 5211.27 -7.64886 -2.9555 0
M  V30 61285 O 5210.88 -8.53963 -1.90717 0
M  V30 61286 C 5210.39 -6.4116 -2.90739 0
M  V30 61287 C 5211.1 -5.55375 -1.86963 0
M  V30 61288 N 5211.05 -4.09664 -2.15742 0
M  V30 61289 H 5213.89 -7.45574 -4.45629 0
M  V30 61290 H 5214.16 -5.86232 -3.67314 0
M  V30 61291 H 5213.29 -7.84412 -2.24479 0
M  V30 61292 P 5209.33 -8.7635 -1.60911 0
M  V30 61293 O 5209.11 -10.1388 -1.11561 0
M  V30 61294 O 5208.54 -8.36503 -2.79617 0
M  V30 61295 O 5209.08 -7.71806 -0.42951 0
M  V30 61296 C 5210.02 -7.67148 0.673689 0
M  V30 61297 C 5209.29 -7.33374 1.95559 0
M  V30 61298 O 5209.08 -5.88721 2.00726 0
M  V30 61299 C 5207.89 -7.92526 2.10483 0
M  V30 61300 O 5207.5 -8.02971 3.47653 0
M  V30 61301 C 5207.01 -6.89602 1.41652 0
M  V30 61302 C 5207.72 -5.59201 1.75185 0
M  V30 61303 N 5207.67 -4.58235 0.662552 0
M  V30 61304 H 5210.51 -8.65116 0.777161 0
M  V30 61305 H 5210.78 -6.90173 0.474152 0
M  V30 61306 H 5209.91 -7.66548 2.79458 0
M  V30 61307 P 5205.95 -8.03563 3.84925 0
M  V30 61308 O 5205.73 -8.85821 5.0569 0
M  V30 61309 O 5205.16 -8.41101 2.65469 0
M  V30 61310 O 5205.7 -6.4965 4.18908 0
M  V30 61311 C 5206.64 -5.81037 5.05421 0
M  V30 61312 C 5205.91 -4.78366 5.89277 0
M  V30 61313 O 5205.7 -3.58302 5.08433 0
M  V30 61314 C 5204.51 -5.17448 6.36119 0
M  V30 61315 O 5204.12 -4.45271 7.53232 0
M  V30 61316 C 5203.63 -4.74639 5.19936 0
M  V30 61317 C 5204.34 -3.49432 4.70418 0
M  V30 61318 N 5204.29 -3.31776 3.22945 0
M  V30 61319 H 5207.13 -6.54213 5.71376 0
M  V30 61320 H 5207.4 -5.30492 4.44033 0
M  V30 61321 H 5206.53 -4.55889 6.76652 0
M  V30 61322 P 5202.57 -4.23843 7.83734 0
M  V30 61323 O 5202.35 -4.19407 9.29784 0
M  V30 61324 O 5201.78 -5.24426 7.09156 0
M  V30 61325 O 5202.32 -2.7935 7.20758 0
M  V30 61326 C 5203.26 -1.7299 7.50419 0
M  V30 61327 C 5202.53 -0.406376 7.57911 0
M  V30 61328 O 5202.32 0.0897726 6.21935 0
M  V30 61329 C 5201.13 -0.447224 8.1878 0
M  V30 61330 O 5200.74 0.825065 8.71101 0
M  V30 61331 C 5200.25 -0.783801 6.99623 0
M  V30 61332 C 5200.96 -0.0619192 5.85967 0
M  V30 61333 N 5200.91 -0.7859 4.56281 0
M  V30 61334 H 5203.75 -1.93423 8.4679 0
M  V30 61335 H 5204.02 -1.68181 6.71046 0
M  V30 61336 H 5203.15 0.289041 8.15388 0
M  V30 61337 P 5199.19 1.17771 8.83182 0
M  V30 61338 O 5198.97 2.07206 9.98732 0
M  V30 61339 O 5198.4 -0.0743816 8.81969 0
M  V30 61340 O 5198.94 1.97652 7.47304 0
M  V30 61341 C 5199.88 3.01133 7.08783 0
M  V30 61342 C 5199.15 4.12613 6.37049 0
M  V30 61343 O 5198.94 3.72827 4.97879 0
M  V30 61344 C 5197.75 4.45085 6.88694 0
M  V30 61345 O 5197.36 5.7877 6.5624 0
M  V30 61346 C 5196.87 3.47817 6.12078 0
M  V30 61347 C 5197.58 3.39414 4.77697 0
M  V30 61348 N 5197.53 2.04199 4.15538 0
M  V30 61349 H 5200.37 3.41248 7.98759 0
M  V30 61350 H 5200.64 2.57728 6.42 0
M  V30 61351 H 5199.77 5.02657 6.42673 0
M  V30 61352 H 5197.12 4.11708 4.08956 0
M  V30 61353 H 5196.84 2.49626 6.61679 0
M  V30 61354 H 5195.85 3.8662 6.00862 0
M  V30 61355 H 5197.68 4.29991 7.97006 0
M  V30 61356 P 5195.81 6.144 6.45285 0
M  V30 61357 O 5195.59 7.54673 6.86199 0
M  V30 61358 O 5195.02 5.12391 7.179 0
M  V30 61359 O 5195.56 5.99158 4.88404 0
M  V30 61360 C 5196.5 6.60234 3.96415 0
M  V30 61361 C 5195.77 7.08259 2.72856 0
M  V30 61362 O 5195.56 5.9427 1.83651 0
M  V30 61363 C 5194.37 7.64886 2.9555 0
M  V30 61364 O 5193.98 8.53963 1.90717 0
M  V30 61365 C 5193.49 6.4116 2.90739 0
M  V30 61366 C 5194.2 5.55375 1.86963 0
M  V30 61367 N 5194.15 4.09448 2.16152 0
M  V30 61368 H 5196.99 7.45574 4.45629 0
M  V30 61369 H 5197.26 5.85864 3.679 0
M  V30 61370 H 5196.39 7.84412 2.24479 0
M  V30 61371 H 5193.74 5.73457 0.888562 0
M  V30 61372 H 5193.46 5.90877 3.88583 0
M  V30 61373 H 5192.47 6.6596 2.58858 0
M  V30 61374 H 5194.3 8.16339 3.92049 0
M  V30 61375 P 5192.43 8.7635 1.60911 0
M  V30 61376 O 5192.21 10.1388 1.11561 0
M  V30 61377 O 5191.64 8.36503 2.79617 0
M  V30 61378 O 5192.18 7.71806 0.42951 0
M  V30 61379 C 5193.12 7.67148 -0.673689 0
M  V30 61380 C 5192.39 7.33374 -1.95559 0
M  V30 61381 O 5192.18 5.88721 -2.00726 0
M  V30 61382 C 5190.99 7.92526 -2.10483 0
M  V30 61383 O 5190.6 8.02971 -3.47653 0
M  V30 61384 C 5190.11 6.89602 -1.41652 0
M  V30 61385 C 5190.82 5.59201 -1.75185 0
M  V30 61386 N 5190.77 4.58235 -0.662552 0
M  V30 61387 C 5190.85 4.7683 0.704049 0
M  V30 61388 N 5190.77 3.66233 1.39775 0
M  V30 61389 C 5190.63 2.66526 0.431739 0
M  V30 61390 C 5190.5 1.26394 0.575992 0
M  V30 61391 N 5190.38 0.62859 -0.67177 0
M  V30 61392 C 5190.38 1.27134 -1.89385 0
M  V30 61393 N 5190.25 0.492035 -2.96951 0
M  V30 61394 N 5190.51 2.58978 -2.02907 0
M  V30 61395 C 5190.63 3.22433 -0.832218 0
M  V30 61396 H 5193.61 8.65116 -0.777161 0
M  V30 61397 H 5193.88 6.90173 -0.474152 0
M  V30 61398 H 5193.01 7.66548 -2.79458 0
M  V30 61399 P 5189.05 8.03563 -3.84925 0
M  V30 61400 O 5188.83 8.85821 -5.0569 0
M  V30 61401 O 5188.26 8.41101 -2.65469 0
M  V30 61402 O 5188.8 6.4965 -4.18908 0
M  V30 61403 C 5189.74 5.81037 -5.05421 0
M  V30 61404 C 5189.01 4.78366 -5.89277 0
M  V30 61405 O 5188.8 3.58302 -5.08433 0
M  V30 61406 C 5187.61 5.17448 -6.36119 0
M  V30 61407 O 5187.22 4.45271 -7.53232 0
M  V30 61408 C 5186.73 4.74639 -5.19936 0
M  V30 61409 C 5187.44 3.49432 -4.70418 0
M  V30 61410 N 5187.39 3.31776 -3.22945 0
M  V30 61411 C 5187.47 4.27147 -2.23315 0
M  V30 61412 N 5187.39 3.78447 -1.02186 0
M  V30 61413 C 5187.25 2.41001 -1.21732 0
M  V30 61414 C 5187.12 1.36111 -0.27694 0
M  V30 61415 N 5187 0.113683 -0.912949 0
M  V30 61416 C 5187 -0.0846396 -2.27943 0
M  V30 61417 N 5186.87 -1.34737 -2.6916 0
M  V30 61418 N 5187.13 0.902521 -3.16379 0
M  V30 61419 C 5187.25 2.11937 -2.56849 0
M  V30 61420 H 5190.23 6.54213 -5.71376 0
M  V30 61421 H 5190.5 5.30492 -4.44033 0
M  V30 61422 H 5189.63 4.55889 -6.76652 0
M  V30 61423 P 5185.67 4.23843 -7.83734 0
M  V30 61424 O 5185.45 4.19407 -9.29784 0
M  V30 61425 O 5184.88 5.24426 -7.09156 0
M  V30 61426 O 5185.42 2.7935 -7.20758 0
M  V30 61427 C 5186.36 1.7299 -7.50419 0
M  V30 61428 C 5185.63 0.406376 -7.57911 0
M  V30 61429 O 5185.42 -0.0897726 -6.21935 0
M  V30 61430 C 5184.23 0.447224 -8.1878 0
M  V30 61431 O 5183.84 -0.825065 -8.71101 0
M  V30 61432 C 5183.35 0.783801 -6.99623 0
M  V30 61433 C 5184.06 0.0619192 -5.85967 0
M  V30 61434 N 5184.01 0.7859 -4.56281 0
M  V30 61435 H 5186.85 1.93423 -8.4679 0
M  V30 61436 H 5187.12 1.68181 -6.71046 0
M  V30 61437 H 5186.25 -0.289041 -8.15388 0
M  V30 61438 P 5182.29 -1.17771 -8.83182 0
M  V30 61439 O 5182.07 -2.07206 -9.98732 0
M  V30 61440 O 5181.5 0.0743816 -8.81969 0
M  V30 61441 O 5182.04 -1.97652 -7.47304 0
M  V30 61442 C 5182.98 -3.01133 -7.08783 0
M  V30 61443 C 5182.25 -4.12613 -6.37049 0
M  V30 61444 O 5182.04 -3.72827 -4.97879 0
M  V30 61445 C 5180.85 -4.45085 -6.88694 0
M  V30 61446 O 5180.46 -5.7877 -6.5624 0
M  V30 61447 C 5179.97 -3.47817 -6.12078 0
M  V30 61448 C 5180.68 -3.39414 -4.77697 0
M  V30 61449 N 5180.63 -2.04199 -4.15538 0
M  V30 61450 H 5183.47 -3.41248 -7.98759 0
M  V30 61451 H 5183.74 -2.57728 -6.42 0
M  V30 61452 H 5182.87 -5.02657 -6.42673 0
M  V30 61453 H 5180.22 -4.11708 -4.08956 0
M  V30 61454 H 5179.94 -2.49626 -6.61679 0
M  V30 61455 H 5178.95 -3.8662 -6.00862 0
M  V30 61456 H 5180.78 -4.29991 -7.97006 0
M  V30 61457 P 5178.91 -6.144 -6.45285 0
M  V30 61458 O 5178.69 -7.54673 -6.86199 0
M  V30 61459 O 5178.12 -5.12391 -7.179 0
M  V30 61460 O 5178.66 -5.99158 -4.88404 0
M  V30 61461 C 5179.6 -6.60234 -3.96415 0
M  V30 61462 C 5178.87 -7.08259 -2.72856 0
M  V30 61463 O 5178.66 -5.9427 -1.83651 0
M  V30 61464 C 5177.47 -7.64886 -2.9555 0
M  V30 61465 O 5177.08 -8.53963 -1.90717 0
M  V30 61466 C 5176.59 -6.4116 -2.90739 0
M  V30 61467 C 5177.3 -5.55375 -1.86963 0
M  V30 61468 N 5177.25 -4.09664 -2.15742 0
M  V30 61469 H 5180.09 -7.45574 -4.45629 0
M  V30 61470 H 5180.36 -5.86232 -3.67314 0
M  V30 61471 H 5179.49 -7.84412 -2.24479 0
M  V30 61472 P 5175.53 -8.7635 -1.60911 0
M  V30 61473 O 5175.31 -10.1388 -1.11561 0
M  V30 61474 O 5174.74 -8.36503 -2.79617 0
M  V30 61475 O 5175.28 -7.71806 -0.42951 0
M  V30 61476 C 5176.22 -7.66948 0.673514 0
M  V30 61477 C 5175.49 -7.33374 1.95559 0
M  V30 61478 O 5175.28 -5.88721 2.00726 0
M  V30 61479 C 5174.09 -7.92218 2.1125 0
M  V30 61480 O 5173.7 -8.02971 3.47653 0
M  V30 61481 C 5173.21 -6.89504 1.41631 0
M  V30 61482 C 5173.92 -5.59106 1.75155 0
M  V30 61483 N 5173.87 -4.58136 0.662409 0
M  V30 61484 C 5173.72 -3.26059 1.02863 0
M  V30 61485 O 5173.63 -2.90743 2.19009 0
M  V30 61486 N 5173.68 -2.35995 -0.0155585 0
M  V30 61487 C 5173.77 -2.65248 -1.35603 0
M  V30 61488 O 5173.72 -1.75605 -2.20651 0
M  V30 61489 C 5173.92 -4.05747 -1.64698 0
M  V30 61490 C 5174.03 -4.42345 -3.09553 0
M  V30 61491 C 5173.97 -4.96734 -0.652411 0
M  V30 61492 H 5176.71 -8.64917 0.776982 0
M  V30 61493 H 5176.98 -6.89974 0.474015 0
M  V30 61494 H 5176.11 -7.66548 2.79458 0
M  V30 61495 H 5173.46 -5.16076 2.65138 0
M  V30 61496 H 5173.18 -7.06433 0.329384 0
M  V30 61497 H 5172.19 -6.90829 1.81996 0
M  V30 61498 H 5174.02 -8.90774 1.62639 0
M  V30 61499 H 5174.09 -6.02181 -0.895285 0
M  V30 61500 H 5173.06 -4.80252 -3.45468 0
M  V30 61501 H 5174.8 -5.20015 -3.22119 0
M  V30 61502 H 5174.31 -3.53269 -3.67833 0
M  V30 61503 H 5173.57 -1.39558 0.227499 0
M  V30 61504 P 5172.15 -8.03563 3.84925 0
M  V30 61505 O 5171.93 -8.85821 5.0569 0
M  V30 61506 O 5171.36 -8.41101 2.65469 0
M  V30 61507 O 5171.9 -6.4965 4.18908 0
M  V30 61508 C 5172.84 -5.81037 5.05421 0
M  V30 61509 C 5172.11 -4.78366 5.89277 0
M  V30 61510 O 5171.9 -3.58302 5.08433 0
M  V30 61511 C 5170.71 -5.17448 6.36119 0
M  V30 61512 O 5170.32 -4.45271 7.53232 0
M  V30 61513 C 5169.83 -4.74639 5.19936 0
M  V30 61514 C 5170.54 -3.49432 4.70418 0
M  V30 61515 N 5170.49 -3.31776 3.22945 0
M  V30 61516 H 5173.33 -6.54213 5.71376 0
M  V30 61517 H 5173.6 -5.30492 4.44033 0
M  V30 61518 H 5172.73 -4.55889 6.76652 0
M  V30 61519 P 5168.77 -4.23843 7.83734 0
M  V30 61520 O 5168.55 -4.19407 9.29784 0
M  V30 61521 O 5167.98 -5.24426 7.09156 0
M  V30 61522 O 5168.52 -2.7935 7.20758 0
M  V30 61523 C 5169.46 -1.7299 7.50419 0
M  V30 61524 C 5168.73 -0.406376 7.57911 0
M  V30 61525 O 5168.52 0.0897726 6.21935 0
M  V30 61526 C 5167.33 -0.447224 8.1878 0
M  V30 61527 O 5166.94 0.825065 8.71101 0
M  V30 61528 C 5166.45 -0.783801 6.99623 0
M  V30 61529 C 5167.16 -0.0619192 5.85967 0
M  V30 61530 N 5167.11 -0.7859 4.56281 0
M  V30 61531 H 5169.95 -1.93423 8.4679 0
M  V30 61532 H 5170.22 -1.68181 6.71046 0
M  V30 61533 H 5169.35 0.289041 8.15388 0
M  V30 61534 P 5165.39 1.17771 8.83182 0
M  V30 61535 O 5165.17 2.07206 9.98732 0
M  V30 61536 O 5164.6 -0.0743816 8.81969 0
M  V30 61537 O 5165.14 1.97652 7.47304 0
M  V30 61538 C 5166.08 3.01133 7.08783 0
M  V30 61539 C 5165.35 4.12613 6.37049 0
M  V30 61540 O 5165.14 3.72827 4.97879 0
M  V30 61541 C 5163.95 4.45085 6.88694 0
M  V30 61542 O 5163.56 5.7877 6.5624 0
M  V30 61543 C 5163.07 3.47817 6.12078 0
M  V30 61544 C 5163.78 3.39414 4.77697 0
M  V30 61545 N 5163.73 2.04615 4.15333 0
M  V30 61546 H 5166.57 3.41248 7.98759 0
M  V30 61547 H 5166.84 2.5837 6.41742 0
M  V30 61548 H 5165.97 5.02657 6.42673 0
M  V30 61549 P 5162.01 6.144 6.45285 0
M  V30 61550 O 5161.79 7.54673 6.86199 0
M  V30 61551 O 5161.22 5.12391 7.179 0
M  V30 61552 O 5161.76 5.99158 4.88404 0
M  V30 61553 C 5162.7 6.60234 3.96415 0
M  V30 61554 C 5161.97 7.08259 2.72856 0
M  V30 61555 O 5161.76 5.9427 1.83651 0
M  V30 61556 C 5160.57 7.64886 2.9555 0
M  V30 61557 O 5160.18 8.53963 1.90717 0
M  V30 61558 C 5159.69 6.4116 2.90739 0
M  V30 61559 C 5160.4 5.55375 1.86963 0
M  V30 61560 N 5160.35 4.09664 2.15742 0
M  V30 61561 H 5163.19 7.45574 4.45629 0
M  V30 61562 H 5163.46 5.86232 3.67314 0
M  V30 61563 H 5162.59 7.84412 2.24479 0
M  V30 61564 P 5158.63 8.7635 1.60911 0
M  V30 61565 O 5158.41 10.1388 1.11561 0
M  V30 61566 O 5157.84 8.36503 2.79617 0
M  V30 61567 O 5158.38 7.71806 0.42951 0
M  V30 61568 C 5159.32 7.67148 -0.673689 0
M  V30 61569 C 5158.59 7.33374 -1.95559 0
M  V30 61570 O 5158.38 5.88721 -2.00726 0
M  V30 61571 C 5157.19 7.92526 -2.10483 0
M  V30 61572 O 5156.8 8.02971 -3.47653 0
M  V30 61573 C 5156.31 6.89602 -1.41652 0
M  V30 61574 C 5157.02 5.59201 -1.75185 0
M  V30 61575 N 5156.97 4.58235 -0.662552 0
M  V30 61576 C 5157.05 4.7683 0.704049 0
M  V30 61577 N 5156.97 3.66233 1.39775 0
M  V30 61578 C 5156.83 2.66526 0.431739 0
M  V30 61579 C 5156.7 1.26394 0.575992 0
M  V30 61580 N 5156.58 0.62859 -0.67177 0
M  V30 61581 C 5156.58 1.27134 -1.89385 0
M  V30 61582 N 5156.45 0.492035 -2.96951 0
M  V30 61583 N 5156.71 2.58978 -2.02907 0
M  V30 61584 C 5156.83 3.22433 -0.832218 0
M  V30 61585 H 5159.81 8.65116 -0.777161 0
M  V30 61586 H 5160.08 6.90173 -0.474152 0
M  V30 61587 H 5159.21 7.66548 -2.79458 0
M  V30 61588 P 5155.25 8.03563 -3.84925 0
M  V30 61589 O 5155.03 8.85821 -5.0569 0
M  V30 61590 O 5154.46 8.41101 -2.65469 0
M  V30 61591 O 5155 6.4965 -4.18908 0
M  V30 61592 C 5155.94 5.81037 -5.05421 0
M  V30 61593 C 5155.21 4.78366 -5.89277 0
M  V30 61594 O 5155 3.58302 -5.08433 0
M  V30 61595 C 5153.81 5.17448 -6.36119 0
M  V30 61596 O 5153.42 4.45271 -7.53232 0
M  V30 61597 C 5152.93 4.74639 -5.19936 0
M  V30 61598 C 5153.64 3.49432 -4.70418 0
M  V30 61599 N 5153.59 3.32099 -3.22613 0
M  V30 61600 C 5153.67 4.28245 -2.25527 0
M  V30 61601 N 5153.6 3.80823 -1.04874 0
M  V30 61602 C 5153.45 2.44571 -1.23535 0
M  V30 61603 C 5153.32 1.37068 -0.330675 0
M  V30 61604 N 5153.31 1.51472 0.990824 0
M  V30 61605 N 5153.2 0.138614 -0.848756 0
M  V30 61606 C 5153.21 -0.00675923 -2.16999 0
M  V30 61607 N 5153.33 0.904372 -3.11122 0
M  V30 61608 C 5153.45 2.12707 -2.56212 0
M  V30 61609 H 5156.43 6.54213 -5.71376 0
M  V30 61610 H 5156.7 5.30936 -4.43503 0
M  V30 61611 H 5155.83 4.55889 -6.76652 0
M  V30 61612 H 5153.18 2.61715 -5.17932 0
M  V30 61613 H 5152.9 5.52155 -4.41878 0
M  V30 61614 H 5151.91 4.51981 -5.53374 0
M  V30 61615 H 5153.74 6.25124 -6.55234 0
M  V30 61616 H 5153.78 5.34372 -2.47488 0
M  V30 61617 H 5153.4 2.45153 1.4078 0
M  V30 61618 H 5153.21 0.688422 1.59911 0
M  V30 61619 H 5153.1 -1.02584 -2.52346 0
M  V30 61620 P 5151.87 4.23843 -7.83734 0
M  V30 61621 O 5151.65 4.19407 -9.29784 0
M  V30 61622 O 5151.08 5.24426 -7.09156 0
M  V30 61623 O 5151.62 2.7935 -7.20758 0
M  V30 61624 C 5152.56 1.7299 -7.50419 0
M  V30 61625 C 5151.83 0.406376 -7.57911 0
M  V30 61626 O 5151.62 -0.0897726 -6.21935 0
M  V30 61627 C 5150.43 0.447224 -8.1878 0
M  V30 61628 O 5150.04 -0.825065 -8.71101 0
M  V30 61629 C 5149.55 0.783801 -6.99623 0
M  V30 61630 C 5150.26 0.0619192 -5.85967 0
M  V30 61631 N 5150.21 0.790462 -4.56202 0
M  V30 61632 H 5153.05 1.93423 -8.4679 0
M  V30 61633 H 5153.32 1.68852 -6.70877 0
M  V30 61634 H 5152.45 -0.289041 -8.15388 0
M  V30 61635 H 5149.8 -0.927006 -5.72848 0
M  V30 61636 H 5149.52 1.86973 -6.82036 0
M  V30 61637 H 5148.53 0.403953 -7.13357 0
M  V30 61638 H 5150.36 1.20599 -8.97534 0
M  V30 61639 P 5148.49 -1.17771 -8.83182 0
M  V30 61640 O 5148.27 -2.07206 -9.98732 0
M  V30 61641 O 5147.7 0.0743816 -8.81969 0
M  V30 61642 O 5148.24 -1.97652 -7.47304 0
M  V30 61643 C 5149.18 -3.01133 -7.08783 0
M  V30 61644 C 5148.45 -4.12613 -6.37049 0
M  V30 61645 O 5148.24 -3.72827 -4.97879 0
M  V30 61646 C 5147.05 -4.45085 -6.88694 0
M  V30 61647 O 5146.66 -5.7877 -6.5624 0
M  V30 61648 C 5146.17 -3.47817 -6.12078 0
M  V30 61649 C 5146.88 -3.39414 -4.77697 0
M  V30 61650 N 5146.83 -2.04615 -4.15333 0
M  V30 61651 H 5149.67 -3.41248 -7.98759 0
M  V30 61652 H 5149.94 -2.5837 -6.41742 0
M  V30 61653 H 5149.07 -5.02657 -6.42673 0
M  V30 61654 P 5145.11 -6.144 -6.45285 0
M  V30 61655 O 5144.89 -7.54673 -6.86199 0
M  V30 61656 O 5144.32 -5.12391 -7.179 0
M  V30 61657 O 5144.86 -5.99158 -4.88404 0
M  V30 61658 C 5145.8 -6.60234 -3.96415 0
M  V30 61659 C 5145.07 -7.08259 -2.72856 0
M  V30 61660 O 5144.86 -5.9427 -1.83651 0
M  V30 61661 C 5143.67 -7.64886 -2.9555 0
M  V30 61662 O 5143.28 -8.53963 -1.90717 0
M  V30 61663 C 5142.79 -6.4116 -2.90739 0
M  V30 61664 C 5143.5 -5.55375 -1.86963 0
M  V30 61665 N 5143.45 -4.09664 -2.15742 0
M  V30 61666 H 5146.29 -7.45574 -4.45629 0
M  V30 61667 H 5146.56 -5.86232 -3.67314 0
M  V30 61668 H 5145.69 -7.84412 -2.24479 0
M  V30 61669 P 5141.73 -8.7635 -1.60911 0
M  V30 61670 O 5141.51 -10.1388 -1.11561 0
M  V30 61671 O 5140.94 -8.36503 -2.79617 0
M  V30 61672 O 5141.48 -7.71806 -0.42951 0
M  V30 61673 C 5142.42 -7.67148 0.673689 0
M  V30 61674 C 5141.69 -7.33374 1.95559 0
M  V30 61675 O 5141.48 -5.88721 2.00726 0
M  V30 61676 C 5140.29 -7.92526 2.10483 0
M  V30 61677 O 5139.9 -8.02971 3.47653 0
M  V30 61678 C 5139.41 -6.89602 1.41652 0
M  V30 61679 C 5140.12 -5.59201 1.75185 0
M  V30 61680 N 5140.07 -4.58235 0.662552 0
M  V30 61681 H 5142.91 -8.65116 0.777161 0
M  V30 61682 H 5143.18 -6.90173 0.474152 0
M  V30 61683 H 5142.31 -7.66548 2.79458 0
M  V30 61684 P 5138.35 -8.03563 3.84925 0
M  V30 61685 O 5138.13 -8.85821 5.0569 0
M  V30 61686 O 5137.56 -8.41101 2.65469 0
M  V30 61687 O 5138.1 -6.4965 4.18908 0
M  V30 61688 C 5139.04 -5.81037 5.05421 0
M  V30 61689 C 5138.31 -4.78366 5.89277 0
M  V30 61690 O 5138.1 -3.58302 5.08433 0
M  V30 61691 C 5136.91 -5.17448 6.36119 0
M  V30 61692 O 5136.52 -4.45271 7.53232 0
M  V30 61693 C 5136.03 -4.74639 5.19936 0
M  V30 61694 C 5136.74 -3.49432 4.70418 0
M  V30 61695 N 5136.69 -3.31776 3.22945 0
M  V30 61696 H 5139.53 -6.54213 5.71376 0
M  V30 61697 H 5139.8 -5.30492 4.44033 0
M  V30 61698 H 5138.93 -4.55889 6.76652 0
M  V30 61699 P 5134.97 -4.23843 7.83734 0
M  V30 61700 O 5134.75 -4.19407 9.29784 0
M  V30 61701 O 5134.18 -5.24426 7.09156 0
M  V30 61702 O 5134.72 -2.7935 7.20758 0
M  V30 61703 C 5135.66 -1.7299 7.50419 0
M  V30 61704 C 5134.93 -0.406376 7.57911 0
M  V30 61705 O 5134.72 0.0897726 6.21935 0
M  V30 61706 C 5133.53 -0.447224 8.1878 0
M  V30 61707 O 5133.14 0.825065 8.71101 0
M  V30 61708 C 5132.65 -0.783801 6.99623 0
M  V30 61709 C 5133.36 -0.0619192 5.85967 0
M  V30 61710 N 5133.31 -0.790462 4.56202 0
M  V30 61711 H 5136.15 -1.93423 8.4679 0
M  V30 61712 H 5136.42 -1.68852 6.70877 0
M  V30 61713 H 5135.55 0.289041 8.15388 0
M  V30 61714 H 5132.9 0.927006 5.72848 0
M  V30 61715 H 5132.62 -1.86973 6.82036 0
M  V30 61716 H 5131.63 -0.403953 7.13357 0
M  V30 61717 H 5133.46 -1.20599 8.97534 0
M  V30 61718 P 5131.59 1.17771 8.83182 0
M  V30 61719 O 5131.37 2.07206 9.98732 0
M  V30 61720 O 5130.8 -0.0743816 8.81969 0
M  V30 61721 O 5131.34 1.97652 7.47304 0
M  V30 61722 C 5132.28 3.01133 7.08783 0
M  V30 61723 C 5131.55 4.12613 6.37049 0
M  V30 61724 O 5131.34 3.72827 4.97879 0
M  V30 61725 C 5130.15 4.45085 6.88694 0
M  V30 61726 O 5129.76 5.7877 6.5624 0
M  V30 61727 C 5129.27 3.47817 6.12078 0
M  V30 61728 C 5129.98 3.39414 4.77697 0
M  V30 61729 N 5129.93 2.04615 4.15333 0
M  V30 61730 H 5132.77 3.41248 7.98759 0
M  V30 61731 H 5133.04 2.5837 6.41742 0
M  V30 61732 H 5132.17 5.02657 6.42673 0
M  V30 61733 P 5128.21 6.144 6.45285 0
M  V30 61734 O 5127.99 7.54673 6.86199 0
M  V30 61735 O 5127.42 5.12391 7.179 0
M  V30 61736 O 5127.96 5.99158 4.88404 0
M  V30 61737 C 5128.9 6.60234 3.96415 0
M  V30 61738 C 5128.17 7.08259 2.72856 0
M  V30 61739 O 5127.96 5.9427 1.83651 0
M  V30 61740 C 5126.77 7.64886 2.9555 0
M  V30 61741 O 5126.38 8.53963 1.90717 0
M  V30 61742 C 5125.89 6.4116 2.90739 0
M  V30 61743 C 5126.6 5.55375 1.86963 0
M  V30 61744 N 5126.55 4.09664 2.15742 0
M  V30 61745 H 5129.39 7.45574 4.45629 0
M  V30 61746 H 5129.66 5.86232 3.67314 0
M  V30 61747 H 5128.79 7.84412 2.24479 0
M  V30 61748 P 5124.83 8.7635 1.60911 0
M  V30 61749 O 5124.61 10.1388 1.11561 0
M  V30 61750 O 5124.04 8.36503 2.79617 0
M  V30 61751 O 5124.58 7.71806 0.42951 0
M  V30 61752 C 5125.52 7.67148 -0.673689 0
M  V30 61753 C 5124.79 7.33374 -1.95559 0
M  V30 61754 O 5124.58 5.88721 -2.00726 0
M  V30 61755 C 5123.39 7.92526 -2.10483 0
M  V30 61756 O 5123 8.02971 -3.47653 0
M  V30 61757 C 5122.51 6.89602 -1.41652 0
M  V30 61758 C 5123.22 5.59201 -1.75185 0
M  V30 61759 N 5123.17 4.58235 -0.662552 0
M  V30 61760 H 5126.01 8.65116 -0.777161 0
M  V30 61761 H 5126.28 6.90173 -0.474152 0
M  V30 61762 H 5125.41 7.66548 -2.79458 0
M  V30 61763 P 5121.45 8.03563 -3.84925 0
M  V30 61764 O 5121.23 8.85821 -5.0569 0
M  V30 61765 O 5120.66 8.41101 -2.65469 0
M  V30 61766 O 5121.2 6.4965 -4.18908 0
M  V30 61767 C 5122.14 5.80886 -5.05289 0
M  V30 61768 C 5121.41 4.78366 -5.89277 0
M  V30 61769 O 5121.2 3.58302 -5.08433 0
M  V30 61770 C 5120.01 5.16748 -6.36559 0
M  V30 61771 O 5119.62 4.45271 -7.53232 0
M  V30 61772 C 5119.13 4.74572 -5.19863 0
M  V30 61773 C 5119.84 3.49373 -4.70338 0
M  V30 61774 N 5119.79 3.31704 -3.22876 0
M  V30 61775 C 5119.64 2.03326 -2.74871 0
M  V30 61776 O 5119.55 1.06486 -3.48076 0
M  V30 61777 N 5119.6 1.91838 -1.37456 0
M  V30 61778 C 5119.69 2.94295 -0.462035 0
M  V30 61779 O 5119.64 2.71763 0.752928 0
M  V30 61780 C 5119.84 4.25064 -1.05249 0
M  V30 61781 C 5119.95 5.39815 -0.095697 0
M  V30 61782 C 5119.89 4.40214 -2.39192 0
M  V30 61783 H 5122.63 6.54063 -5.71245 0
M  V30 61784 H 5122.9 5.30339 -4.43905 0
M  V30 61785 H 5122.03 4.55889 -6.76652 0
M  V30 61786 H 5119.38 2.6167 -5.17842 0
M  V30 61787 H 5119.1 5.52155 -4.41878 0
M  V30 61788 H 5118.11 4.51918 -5.53297 0
M  V30 61789 H 5119.94 6.25055 -6.55162 0
M  V30 61790 H 5120.01 5.39798 -2.81523 0
M  V30 61791 H 5118.98 5.91593 -0.0279582 0
M  V30 61792 H 5120.72 6.10038 -0.450573 0
M  V30 61793 H 5120.23 5.02007 0.89937 0
M  V30 61794 H 5119.49 0.995326 -1.00435 0
M  V30 61795 P 5118.07 4.23843 -7.83734 0
M  V30 61796 O 5117.85 4.19407 -9.29784 0
M  V30 61797 O 5117.28 5.24426 -7.09156 0
M  V30 61798 O 5117.82 2.7935 -7.20758 0
M  V30 61799 C 5118.76 1.7299 -7.50419 0
M  V30 61800 C 5118.03 0.406376 -7.57911 0
M  V30 61801 O 5117.82 -0.0897726 -6.21935 0
M  V30 61802 C 5116.63 0.447224 -8.1878 0
M  V30 61803 O 5116.24 -0.825065 -8.71101 0
M  V30 61804 C 5115.75 0.783801 -6.99623 0
M  V30 61805 C 5116.46 0.0619192 -5.85967 0
M  V30 61806 N 5116.41 0.7859 -4.56281 0
M  V30 61807 H 5119.25 1.93423 -8.4679 0
M  V30 61808 H 5119.52 1.68181 -6.71046 0
M  V30 61809 H 5118.65 -0.289041 -8.15388 0
M  V30 61810 P 5114.69 -1.17771 -8.83182 0
M  V30 61811 O 5114.47 -2.07206 -9.98732 0
M  V30 61812 O 5113.9 0.0743816 -8.81969 0
M  V30 61813 O 5114.44 -1.97652 -7.47304 0
M  V30 61814 C 5115.38 -3.01133 -7.08783 0
M  V30 61815 C 5114.65 -4.12613 -6.37049 0
M  V30 61816 O 5114.44 -3.72827 -4.97879 0
M  V30 61817 C 5113.25 -4.45085 -6.88694 0
M  V30 61818 O 5112.86 -5.7877 -6.5624 0
M  V30 61819 C 5112.37 -3.47817 -6.12078 0
M  V30 61820 C 5113.08 -3.39414 -4.77697 0
M  V30 61821 N 5113.03 -2.04199 -4.15538 0
M  V30 61822 H 5115.87 -3.41248 -7.98759 0
M  V30 61823 H 5116.14 -2.57728 -6.42 0
M  V30 61824 H 5115.27 -5.02657 -6.42673 0
M  V30 61825 H 5112.62 -4.11708 -4.08956 0
M  V30 61826 H 5112.34 -2.49626 -6.61679 0
M  V30 61827 H 5111.35 -3.8662 -6.00862 0
M  V30 61828 H 5113.18 -4.29991 -7.97006 0
M  V30 61829 P 5111.31 -6.144 -6.45285 0
M  V30 61830 O 5111.09 -7.54673 -6.86199 0
M  V30 61831 O 5110.52 -5.12391 -7.179 0
M  V30 61832 O 5111.06 -5.99158 -4.88404 0
M  V30 61833 C 5112 -6.60234 -3.96415 0
M  V30 61834 C 5111.27 -7.08259 -2.72856 0
M  V30 61835 O 5111.06 -5.9427 -1.83651 0
M  V30 61836 C 5109.87 -7.64886 -2.9555 0
M  V30 61837 O 5109.48 -8.53963 -1.90717 0
M  V30 61838 C 5108.99 -6.4116 -2.90739 0
M  V30 61839 C 5109.7 -5.55375 -1.86963 0
M  V30 61840 N 5109.65 -4.09448 -2.16152 0
M  V30 61841 H 5112.49 -7.45574 -4.45629 0
M  V30 61842 H 5112.76 -5.85864 -3.679 0
M  V30 61843 H 5111.89 -7.84412 -2.24479 0
M  V30 61844 H 5109.24 -5.73457 -0.888562 0
M  V30 61845 H 5108.96 -5.90877 -3.88583 0
M  V30 61846 H 5107.97 -6.6596 -2.58858 0
M  V30 61847 H 5109.8 -8.16339 -3.92049 0
M  V30 61848 P 5107.93 -8.7635 -1.60911 0
M  V30 61849 O 5107.71 -10.1388 -1.11561 0
M  V30 61850 O 5107.14 -8.36503 -2.79617 0
M  V30 61851 O 5107.68 -7.71806 -0.42951 0
M  V30 61852 C 5108.62 -7.67148 0.673689 0
M  V30 61853 C 5107.89 -7.33374 1.95559 0
M  V30 61854 O 5107.68 -5.88721 2.00726 0
M  V30 61855 C 5106.49 -7.92526 2.10483 0
M  V30 61856 O 5106.1 -8.02971 3.47653 0
M  V30 61857 C 5105.61 -6.89602 1.41652 0
M  V30 61858 C 5106.32 -5.59201 1.75185 0
M  V30 61859 N 5106.27 -4.58235 0.662552 0
M  V30 61860 H 5109.11 -8.65116 0.777161 0
M  V30 61861 H 5109.38 -6.90173 0.474152 0
M  V30 61862 H 5108.51 -7.66548 2.79458 0
M  V30 61863 P 5104.55 -8.03563 3.84925 0
M  V30 61864 O 5104.33 -8.85821 5.0569 0
M  V30 61865 O 5103.76 -8.41101 2.65469 0
M  V30 61866 O 5104.3 -6.4965 4.18908 0
M  V30 61867 C 5105.24 -5.81037 5.05421 0
M  V30 61868 C 5104.51 -4.78366 5.89277 0
M  V30 61869 O 5104.3 -3.58302 5.08433 0
M  V30 61870 C 5103.11 -5.17448 6.36119 0
M  V30 61871 O 5102.72 -4.45271 7.53232 0
M  V30 61872 C 5102.23 -4.74639 5.19936 0
M  V30 61873 C 5102.94 -3.49432 4.70418 0
M  V30 61874 N 5102.89 -3.31776 3.22945 0
M  V30 61875 H 5105.73 -6.54213 5.71376 0
M  V30 61876 H 5106 -5.30492 4.44033 0
M  V30 61877 H 5105.13 -4.55889 6.76652 0
M  V30 61878 P 5101.17 -4.23843 7.83734 0
M  V30 61879 O 5100.95 -4.19407 9.29784 0
M  V30 61880 O 5100.38 -5.24426 7.09156 0
M  V30 61881 O 5100.92 -2.7935 7.20758 0
M  V30 61882 C 5101.86 -1.7299 7.50419 0
M  V30 61883 C 5101.13 -0.406376 7.57911 0
M  V30 61884 O 5100.92 0.0897726 6.21935 0
M  V30 61885 C 5099.73 -0.447224 8.1878 0
M  V30 61886 O 5099.34 0.825065 8.71101 0
M  V30 61887 C 5098.85 -0.783801 6.99623 0
M  V30 61888 C 5099.56 -0.0619192 5.85967 0
M  V30 61889 N 5099.51 -0.7859 4.56281 0
M  V30 61890 H 5102.35 -1.93423 8.4679 0
M  V30 61891 H 5102.62 -1.68181 6.71046 0
M  V30 61892 H 5101.75 0.289041 8.15388 0
M  V30 61893 P 5097.79 1.17771 8.83182 0
M  V30 61894 O 5097.57 2.07206 9.98732 0
M  V30 61895 O 5097 -0.0743816 8.81969 0
M  V30 61896 O 5097.54 1.97652 7.47304 0
M  V30 61897 C 5098.48 3.01133 7.08783 0
M  V30 61898 C 5097.75 4.12613 6.37049 0
M  V30 61899 O 5097.54 3.72827 4.97879 0
M  V30 61900 C 5096.35 4.45085 6.88694 0
M  V30 61901 O 5095.96 5.7877 6.5624 0
M  V30 61902 C 5095.47 3.47817 6.12078 0
M  V30 61903 C 5096.18 3.39414 4.77697 0
M  V30 61904 N 5096.13 2.04615 4.15333 0
M  V30 61905 H 5098.97 3.41248 7.98759 0
M  V30 61906 H 5099.24 2.5837 6.41742 0
M  V30 61907 H 5098.37 5.02657 6.42673 0
M  V30 61908 P 5094.41 6.144 6.45285 0
M  V30 61909 O 5094.19 7.54673 6.86199 0
M  V30 61910 O 5093.62 5.12391 7.179 0
M  V30 61911 O 5094.16 5.99158 4.88404 0
M  V30 61912 C 5095.1 6.60234 3.96415 0
M  V30 61913 C 5094.37 7.08259 2.72856 0
M  V30 61914 O 5094.16 5.9427 1.83651 0
M  V30 61915 C 5092.97 7.64886 2.9555 0
M  V30 61916 O 5092.58 8.53963 1.90717 0
M  V30 61917 C 5092.09 6.4116 2.90739 0
M  V30 61918 C 5092.8 5.55375 1.86963 0
M  V30 61919 N 5092.75 4.09664 2.15742 0
M  V30 61920 H 5095.59 7.45574 4.45629 0
M  V30 61921 H 5095.86 5.86232 3.67314 0
M  V30 61922 H 5094.99 7.84412 2.24479 0
M  V30 61923 P 5091.03 8.7635 1.60911 0
M  V30 61924 O 5090.81 10.1388 1.11561 0
M  V30 61925 O 5090.24 8.36503 2.79617 0
M  V30 61926 O 5090.78 7.71806 0.42951 0
M  V30 61927 C 5091.72 7.66948 -0.673514 0
M  V30 61928 C 5090.99 7.33374 -1.95559 0
M  V30 61929 O 5090.78 5.88721 -2.00726 0
M  V30 61930 C 5089.59 7.92218 -2.1125 0
M  V30 61931 O 5089.2 8.02971 -3.47653 0
M  V30 61932 C 5088.71 6.89504 -1.41631 0
M  V30 61933 C 5089.42 5.59106 -1.75155 0
M  V30 61934 N 5089.37 4.58136 -0.662409 0
M  V30 61935 C 5089.22 3.26059 -1.02863 0
M  V30 61936 O 5089.13 2.90743 -2.19009 0
M  V30 61937 N 5089.18 2.35995 0.0155585 0
M  V30 61938 C 5089.27 2.65248 1.35603 0
M  V30 61939 C 5089.42 4.05747 1.64698 0
M  V30 61940 C 5089.47 4.96734 0.652411 0
M  V30 61941 H 5092.21 8.64917 -0.776982 0
M  V30 61942 H 5092.48 6.89974 -0.474015 0
M  V30 61943 H 5091.61 7.66548 -2.79458 0
M  V30 61944 H 5088.96 5.16076 -2.65138 0
M  V30 61945 H 5088.68 7.06433 -0.329384 0
M  V30 61946 H 5087.69 6.90829 -1.81996 0
M  V30 61947 H 5089.52 8.90774 -1.62639 0
M  V30 61948 H 5089.59 6.02181 0.895285 0
M  V30 61949 P 5087.65 8.03563 -3.84925 0
M  V30 61950 O 5087.43 8.85821 -5.0569 0
M  V30 61951 O 5086.86 8.41101 -2.65469 0
M  V30 61952 O 5087.4 6.4965 -4.18908 0
M  V30 61953 C 5088.34 5.81037 -5.05421 0
M  V30 61954 C 5087.61 4.78366 -5.89277 0
M  V30 61955 O 5087.4 3.58302 -5.08433 0
M  V30 61956 C 5086.21 5.17448 -6.36119 0
M  V30 61957 O 5085.82 4.45271 -7.53232 0
M  V30 61958 C 5085.33 4.74639 -5.19936 0
M  V30 61959 C 5086.04 3.49432 -4.70418 0
M  V30 61960 N 5085.99 3.31776 -3.22945 0
M  V30 61961 C 5086.07 4.27147 -2.23315 0
M  V30 61962 N 5085.99 3.78447 -1.02186 0
M  V30 61963 C 5085.85 2.41001 -1.21732 0
M  V30 61964 C 5085.72 1.36111 -0.27694 0
M  V30 61965 N 5085.6 0.113683 -0.912949 0
M  V30 61966 C 5085.6 -0.0846396 -2.27943 0
M  V30 61967 N 5085.47 -1.34737 -2.6916 0
M  V30 61968 N 5085.73 0.902521 -3.16379 0
M  V30 61969 C 5085.85 2.11937 -2.56849 0
M  V30 61970 H 5088.83 6.54213 -5.71376 0
M  V30 61971 H 5089.1 5.30492 -4.44033 0
M  V30 61972 H 5088.23 4.55889 -6.76652 0
M  V30 61973 P 5084.27 4.23843 -7.83734 0
M  V30 61974 O 5084.05 4.19407 -9.29784 0
M  V30 61975 O 5083.48 5.24426 -7.09156 0
M  V30 61976 O 5084.02 2.7935 -7.20758 0
M  V30 61977 C 5084.96 1.7299 -7.50419 0
M  V30 61978 C 5084.23 0.406376 -7.57911 0
M  V30 61979 O 5084.02 -0.0897726 -6.21935 0
M  V30 61980 C 5082.83 0.447224 -8.1878 0
M  V30 61981 O 5082.44 -0.825065 -8.71101 0
M  V30 61982 C 5081.95 0.783801 -6.99623 0
M  V30 61983 C 5082.66 0.0619192 -5.85967 0
M  V30 61984 N 5082.61 0.790462 -4.56202 0
M  V30 61985 H 5085.45 1.93423 -8.4679 0
M  V30 61986 H 5085.72 1.68852 -6.70877 0
M  V30 61987 H 5084.85 -0.289041 -8.15388 0
M  V30 61988 H 5082.2 -0.927006 -5.72848 0
M  V30 61989 H 5081.92 1.86973 -6.82036 0
M  V30 61990 H 5080.93 0.403953 -7.13357 0
M  V30 61991 H 5082.76 1.20599 -8.97534 0
M  V30 61992 P 5080.89 -1.17771 -8.83182 0
M  V30 61993 O 5080.67 -2.07206 -9.98732 0
M  V30 61994 O 5080.1 0.0743816 -8.81969 0
M  V30 61995 O 5080.64 -1.97652 -7.47304 0
M  V30 61996 C 5081.58 -3.01133 -7.08783 0
M  V30 61997 C 5080.85 -4.12613 -6.37049 0
M  V30 61998 O 5080.64 -3.72827 -4.97879 0
M  V30 61999 C 5079.45 -4.45085 -6.88694 0
M  V30 62000 O 5079.06 -5.7877 -6.5624 0
M  V30 62001 C 5078.57 -3.47817 -6.12078 0
M  V30 62002 C 5079.28 -3.39414 -4.77697 0
M  V30 62003 N 5079.23 -2.04615 -4.15333 0
M  V30 62004 H 5082.07 -3.41248 -7.98759 0
M  V30 62005 H 5082.34 -2.5837 -6.41742 0
M  V30 62006 H 5081.47 -5.02657 -6.42673 0
M  V30 62007 P 5077.51 -6.144 -6.45285 0
M  V30 62008 O 5077.29 -7.54673 -6.86199 0
M  V30 62009 O 5076.72 -5.12391 -7.179 0
M  V30 62010 O 5077.26 -5.99158 -4.88404 0
M  V30 62011 C 5078.2 -6.60234 -3.96415 0
M  V30 62012 C 5077.47 -7.08259 -2.72856 0
M  V30 62013 O 5077.26 -5.9427 -1.83651 0
M  V30 62014 C 5076.07 -7.64886 -2.9555 0
M  V30 62015 O 5075.68 -8.53963 -1.90717 0
M  V30 62016 C 5075.19 -6.4116 -2.90739 0
M  V30 62017 C 5075.9 -5.55375 -1.86963 0
M  V30 62018 N 5075.85 -4.09448 -2.16152 0
M  V30 62019 H 5078.69 -7.45574 -4.45629 0
M  V30 62020 H 5078.96 -5.85864 -3.679 0
M  V30 62021 H 5078.09 -7.84412 -2.24479 0
M  V30 62022 H 5075.44 -5.73457 -0.888562 0
M  V30 62023 H 5075.16 -5.90877 -3.88583 0
M  V30 62024 H 5074.17 -6.6596 -2.58858 0
M  V30 62025 H 5076 -8.16339 -3.92049 0
M  V30 62026 P 5074.13 -8.7635 -1.60911 0
M  V30 62027 O 5073.91 -10.1388 -1.11561 0
M  V30 62028 O 5073.34 -8.36503 -2.79617 0
M  V30 62029 O 5073.88 -7.71806 -0.42951 0
M  V30 62030 C 5074.82 -7.67148 0.673689 0
M  V30 62031 C 5074.09 -7.33374 1.95559 0
M  V30 62032 O 5073.88 -5.88721 2.00726 0
M  V30 62033 C 5072.69 -7.92526 2.10483 0
M  V30 62034 O 5072.3 -8.02971 3.47653 0
M  V30 62035 C 5071.81 -6.89602 1.41652 0
M  V30 62036 C 5072.52 -5.59201 1.75185 0
M  V30 62037 N 5072.47 -4.58301 0.657969 0
M  V30 62038 H 5075.31 -8.65116 0.777161 0
M  V30 62039 H 5075.58 -6.9022 0.46725 0
M  V30 62040 H 5074.71 -7.66548 2.79458 0
M  V30 62041 H 5072.06 -5.16165 2.65183 0
M  V30 62042 H 5071.78 -7.06433 0.329384 0
M  V30 62043 H 5070.79 -6.90926 1.82021 0
M  V30 62044 H 5072.62 -8.90873 1.62657 0
M  V30 62045 P 5070.75 -8.03563 3.84925 0
M  V30 62046 O 5070.53 -8.85821 5.0569 0
M  V30 62047 O 5069.96 -8.41101 2.65469 0
M  V30 62048 O 5070.5 -6.4965 4.18908 0
M  V30 62049 C 5071.44 -5.81037 5.05421 0
M  V30 62050 C 5070.71 -4.78366 5.89277 0
M  V30 62051 O 5070.5 -3.58302 5.08433 0
M  V30 62052 C 5069.31 -5.17448 6.36119 0
M  V30 62053 O 5068.92 -4.45271 7.53232 0
M  V30 62054 C 5068.43 -4.74639 5.19936 0
M  V30 62055 C 5069.14 -3.49432 4.70418 0
M  V30 62056 N 5069.09 -3.32099 3.22613 0
M  V30 62057 H 5071.93 -6.54213 5.71376 0
M  V30 62058 H 5072.2 -5.30936 4.43503 0
M  V30 62059 H 5071.33 -4.55889 6.76652 0
M  V30 62060 H 5068.68 -2.61715 5.17932 0
M  V30 62061 H 5068.4 -5.52155 4.41878 0
M  V30 62062 H 5067.41 -4.51981 5.53374 0
M  V30 62063 H 5069.24 -6.25124 6.55234 0
M  V30 62064 P 5067.37 -4.23843 7.83734 0
M  V30 62065 O 5067.15 -4.19407 9.29784 0
M  V30 62066 O 5066.58 -5.24426 7.09156 0
M  V30 62067 O 5067.12 -2.7935 7.20758 0
M  V30 62068 C 5068.06 -1.7299 7.50419 0
M  V30 62069 C 5067.33 -0.406376 7.57911 0
M  V30 62070 O 5067.12 0.0897726 6.21935 0
M  V30 62071 C 5065.93 -0.447224 8.1878 0
M  V30 62072 O 5065.54 0.825065 8.71101 0
M  V30 62073 C 5065.05 -0.783801 6.99623 0
M  V30 62074 C 5065.76 -0.0619192 5.85967 0
M  V30 62075 N 5065.71 -0.7859 4.56281 0
M  V30 62076 H 5068.55 -1.93423 8.4679 0
M  V30 62077 H 5068.82 -1.68181 6.71046 0
M  V30 62078 H 5067.95 0.289041 8.15388 0
M  V30 62079 P 5063.99 1.17771 8.83182 0
M  V30 62080 O 5063.77 2.07206 9.98732 0
M  V30 62081 O 5063.2 -0.0743816 8.81969 0
M  V30 62082 O 5063.74 1.97652 7.47304 0
M  V30 62083 C 5064.68 3.01133 7.08783 0
M  V30 62084 C 5063.95 4.12613 6.37049 0
M  V30 62085 O 5063.74 3.72827 4.97879 0
M  V30 62086 C 5062.55 4.45085 6.88694 0
M  V30 62087 O 5062.16 5.7877 6.5624 0
M  V30 62088 C 5061.67 3.47817 6.12078 0
M  V30 62089 C 5062.38 3.39414 4.77697 0
M  V30 62090 N 5062.33 2.04199 4.15538 0
M  V30 62091 H 5065.17 3.41248 7.98759 0
M  V30 62092 H 5065.44 2.57728 6.42 0
M  V30 62093 H 5064.57 5.02657 6.42673 0
M  V30 62094 H 5061.92 4.11708 4.08956 0
M  V30 62095 H 5061.64 2.49626 6.61679 0
M  V30 62096 H 5060.65 3.8662 6.00862 0
M  V30 62097 H 5062.48 4.29991 7.97006 0
M  V30 62098 P 5060.61 6.144 6.45285 0
M  V30 62099 O 5060.39 7.54673 6.86199 0
M  V30 62100 O 5059.82 5.12391 7.179 0
M  V30 62101 O 5060.36 5.99158 4.88404 0
M  V30 62102 C 5061.3 6.60062 3.96313 0
M  V30 62103 C 5060.57 7.08259 2.72856 0
M  V30 62104 O 5060.36 5.9427 1.83651 0
M  V30 62105 C 5059.17 7.65087 2.94749 0
M  V30 62106 O 5058.78 8.53963 1.90717 0
M  V30 62107 C 5058.29 6.41069 2.90698 0
M  V30 62108 C 5059 5.5528 1.86931 0
M  V30 62109 N 5058.95 4.09575 2.15696 0
M  V30 62110 C 5058.8 3.24249 1.08435 0
M  V30 62111 O 5058.71 3.63946 -0.0628747 0
M  V30 62112 N 5058.76 1.90009 1.39973 0
M  V30 62113 C 5058.85 1.34884 2.65614 0
M  V30 62114 C 5059 2.3145 3.71736 0
M  V30 62115 C 5059.05 3.63518 3.44754 0
M  V30 62116 H 5061.79 7.45402 4.45526 0
M  V30 62117 H 5062.06 5.86062 3.67208 0
M  V30 62118 H 5061.19 7.84412 2.24479 0
M  V30 62119 H 5058.54 5.73358 0.888409 0
M  V30 62120 H 5058.26 5.90877 3.88583 0
M  V30 62121 H 5057.27 6.65867 2.58821 0
M  V30 62122 H 5059.1 8.16248 3.92006 0
M  V30 62123 H 5059.17 4.34551 4.26383 0
M  V30 62124 P 5057.23 8.7635 1.60911 0
M  V30 62125 O 5057.01 10.1388 1.11561 0
M  V30 62126 O 5056.44 8.36503 2.79617 0
M  V30 62127 O 5056.98 7.71806 0.42951 0
M  V30 62128 C 5057.92 7.67148 -0.673689 0
M  V30 62129 C 5057.19 7.33374 -1.95559 0
M  V30 62130 O 5056.98 5.88721 -2.00726 0
M  V30 62131 C 5055.79 7.92526 -2.10483 0
M  V30 62132 O 5055.4 8.02971 -3.47653 0
M  V30 62133 C 5054.91 6.89602 -1.41652 0
M  V30 62134 C 5055.62 5.59201 -1.75185 0
M  V30 62135 N 5055.57 4.58301 -0.657969 0
M  V30 62136 H 5058.41 8.65116 -0.777161 0
M  V30 62137 H 5058.68 6.9022 -0.46725 0
M  V30 62138 H 5057.81 7.66548 -2.79458 0
M  V30 62139 H 5055.16 5.16165 -2.65183 0
M  V30 62140 H 5054.88 7.06433 -0.329384 0
M  V30 62141 H 5053.89 6.90926 -1.82021 0
M  V30 62142 H 5055.72 8.90873 -1.62657 0
M  V30 62143 P 5053.85 8.03563 -3.84925 0
M  V30 62144 O 5053.63 8.85821 -5.0569 0
M  V30 62145 O 5053.06 8.41101 -2.65469 0
M  V30 62146 O 5053.6 6.4965 -4.18908 0
M  V30 62147 C 5054.54 5.81037 -5.05421 0
M  V30 62148 C 5053.81 4.78366 -5.89277 0
M  V30 62149 O 5053.6 3.58302 -5.08433 0
M  V30 62150 C 5052.41 5.17448 -6.36119 0
M  V30 62151 O 5052.02 4.45271 -7.53232 0
M  V30 62152 C 5051.53 4.74639 -5.19936 0
M  V30 62153 C 5052.24 3.49432 -4.70418 0
M  V30 62154 N 5052.19 3.31776 -3.22945 0
M  V30 62155 H 5055.03 6.54213 -5.71376 0
M  V30 62156 H 5055.3 5.30492 -4.44033 0
M  V30 62157 H 5054.43 4.55889 -6.76652 0
M  V30 62158 P 5050.47 4.23843 -7.83734 0
M  V30 62159 O 5050.25 4.19407 -9.29784 0
M  V30 62160 O 5049.68 5.24426 -7.09156 0
M  V30 62161 O 5050.22 2.7935 -7.20758 0
M  V30 62162 C 5051.16 1.7299 -7.50419 0
M  V30 62163 C 5050.43 0.406376 -7.57911 0
M  V30 62164 O 5050.22 -0.0897726 -6.21935 0
M  V30 62165 C 5049.03 0.447224 -8.1878 0
M  V30 62166 O 5048.64 -0.825065 -8.71101 0
M  V30 62167 C 5048.15 0.783801 -6.99623 0
M  V30 62168 C 5048.86 0.0619192 -5.85967 0
M  V30 62169 N 5048.81 0.7859 -4.56281 0
M  V30 62170 H 5051.65 1.93423 -8.4679 0
M  V30 62171 H 5051.92 1.68181 -6.71046 0
M  V30 62172 H 5051.05 -0.289041 -8.15388 0
M  V30 62173 P 5047.09 -1.17771 -8.83182 0
M  V30 62174 O 5046.87 -2.07206 -9.98732 0
M  V30 62175 O 5046.3 0.0743816 -8.81969 0
M  V30 62176 O 5046.84 -1.97652 -7.47304 0
M  V30 62177 C 5047.78 -3.01133 -7.08783 0
M  V30 62178 C 5047.05 -4.12613 -6.37049 0
M  V30 62179 O 5046.84 -3.72827 -4.97879 0
M  V30 62180 C 5045.65 -4.45085 -6.88694 0
M  V30 62181 O 5045.26 -5.7877 -6.5624 0
M  V30 62182 C 5044.77 -3.47817 -6.12078 0
M  V30 62183 C 5045.48 -3.39414 -4.77697 0
M  V30 62184 N 5045.43 -2.04615 -4.15333 0
M  V30 62185 H 5048.27 -3.41248 -7.98759 0
M  V30 62186 H 5048.54 -2.5837 -6.41742 0
M  V30 62187 H 5047.67 -5.02657 -6.42673 0
M  V30 62188 P 5043.71 -6.144 -6.45285 0
M  V30 62189 O 5043.49 -7.54673 -6.86199 0
M  V30 62190 O 5042.92 -5.12391 -7.179 0
M  V30 62191 O 5043.46 -5.99158 -4.88404 0
M  V30 62192 C 5044.4 -6.60062 -3.96313 0
M  V30 62193 C 5043.67 -7.08259 -2.72856 0
M  V30 62194 O 5043.46 -5.9427 -1.83651 0
M  V30 62195 C 5042.27 -7.65087 -2.94749 0
M  V30 62196 O 5041.88 -8.53963 -1.90717 0
M  V30 62197 C 5041.39 -6.41069 -2.90698 0
M  V30 62198 C 5042.1 -5.5528 -1.86931 0
M  V30 62199 N 5042.05 -4.09575 -2.15696 0
M  V30 62200 C 5041.9 -3.24249 -1.08435 0
M  V30 62201 O 5041.81 -3.63946 0.0628747 0
M  V30 62202 N 5041.86 -1.90009 -1.39973 0
M  V30 62203 C 5041.95 -1.34884 -2.65614 0
M  V30 62204 O 5041.9 -0.123716 -2.81728 0
M  V30 62205 C 5042.1 -2.3145 -3.71736 0
M  V30 62206 C 5042.21 -1.75913 -5.10438 0
M  V30 62207 C 5042.15 -3.63518 -3.44754 0
M  V30 62208 H 5044.89 -7.45402 -4.45526 0
M  V30 62209 H 5045.16 -5.86062 -3.67208 0
M  V30 62210 H 5044.29 -7.84412 -2.24479 0
M  V30 62211 H 5041.64 -5.73358 -0.888409 0
M  V30 62212 H 5041.36 -5.90877 -3.88583 0
M  V30 62213 H 5040.37 -6.65867 -2.58821 0
M  V30 62214 H 5042.2 -8.16248 -3.92006 0
M  V30 62215 H 5042.27 -4.34551 -4.26383 0
M  V30 62216 H 5041.24 -1.85471 -5.61775 0
M  V30 62217 H 5042.98 -2.31364 -5.66257 0
M  V30 62218 H 5042.49 -0.695936 -5.05229 0
M  V30 62219 H 5041.76 -1.26277 -0.63625 0
M  V30 62220 P 5040.33 -8.7635 -1.60911 0
M  V30 62221 O 5040.11 -10.1388 -1.11561 0
M  V30 62222 O 5039.54 -8.36503 -2.79617 0
M  V30 62223 O 5040.08 -7.71806 -0.42951 0
M  V30 62224 C 5041.02 -7.67148 0.673689 0
M  V30 62225 C 5040.29 -7.33374 1.95559 0
M  V30 62226 O 5040.08 -5.88721 2.00726 0
M  V30 62227 C 5038.89 -7.92526 2.10483 0
M  V30 62228 O 5038.5 -8.02971 3.47653 0
M  V30 62229 C 5038.01 -6.89602 1.41652 0
M  V30 62230 C 5038.72 -5.59201 1.75185 0
M  V30 62231 N 5038.67 -4.58235 0.662552 0
M  V30 62232 C 5038.75 -4.7683 -0.704049 0
M  V30 62233 N 5038.67 -3.66233 -1.39775 0
M  V30 62234 C 5038.53 -2.66526 -0.431739 0
M  V30 62235 C 5038.4 -1.26394 -0.575992 0
M  V30 62236 N 5038.28 -0.62859 0.67177 0
M  V30 62237 C 5038.28 -1.27134 1.89385 0
M  V30 62238 N 5038.15 -0.492035 2.96951 0
M  V30 62239 N 5038.41 -2.58978 2.02907 0
M  V30 62240 C 5038.53 -3.22433 0.832218 0
M  V30 62241 H 5041.51 -8.65116 0.777161 0
M  V30 62242 H 5041.78 -6.90173 0.474152 0
M  V30 62243 H 5040.91 -7.66548 2.79458 0
M  V30 62244 P 5036.95 -8.03563 3.84925 0
M  V30 62245 O 5036.73 -8.85821 5.0569 0
M  V30 62246 O 5036.16 -8.41101 2.65469 0
M  V30 62247 O 5036.7 -6.4965 4.18908 0
M  V30 62248 C 5037.64 -5.81037 5.05421 0
M  V30 62249 C 5036.91 -4.78366 5.89277 0
M  V30 62250 O 5036.7 -3.58302 5.08433 0
M  V30 62251 C 5035.51 -5.17448 6.36119 0
M  V30 62252 O 5035.12 -4.45271 7.53232 0
M  V30 62253 C 5034.63 -4.74639 5.19936 0
M  V30 62254 C 5035.34 -3.49432 4.70418 0
M  V30 62255 N 5035.29 -3.31776 3.22945 0
M  V30 62256 C 5035.37 -4.27147 2.23315 0
M  V30 62257 N 5035.29 -3.78447 1.02186 0
M  V30 62258 C 5035.15 -2.41001 1.21732 0
M  V30 62259 C 5035.02 -1.36111 0.27694 0
M  V30 62260 N 5034.9 -0.113683 0.912949 0
M  V30 62261 C 5034.9 0.0846396 2.27943 0
M  V30 62262 N 5034.77 1.34737 2.6916 0
M  V30 62263 N 5035.03 -0.902521 3.16379 0
M  V30 62264 C 5035.15 -2.11937 2.56849 0
M  V30 62265 H 5038.13 -6.54213 5.71376 0
M  V30 62266 H 5038.4 -5.30492 4.44033 0
M  V30 62267 H 5037.53 -4.55889 6.76652 0
M  V30 62268 P 5033.57 -4.23843 7.83734 0
M  V30 62269 O 5033.35 -4.19407 9.29784 0
M  V30 62270 O 5032.78 -5.24426 7.09156 0
M  V30 62271 O 5033.32 -2.7935 7.20758 0
M  V30 62272 C 5034.26 -1.7299 7.50419 0
M  V30 62273 C 5033.53 -0.406376 7.57911 0
M  V30 62274 O 5033.32 0.0897726 6.21935 0
M  V30 62275 C 5032.13 -0.447224 8.1878 0
M  V30 62276 O 5031.74 0.825065 8.71101 0
M  V30 62277 C 5031.25 -0.783801 6.99623 0
M  V30 62278 C 5031.96 -0.0619192 5.85967 0
M  V30 62279 N 5031.91 -0.7859 4.56281 0
M  V30 62280 H 5034.75 -1.93423 8.4679 0
M  V30 62281 H 5035.02 -1.68181 6.71046 0
M  V30 62282 H 5034.15 0.289041 8.15388 0
M  V30 62283 P 5030.19 1.17771 8.83182 0
M  V30 62284 O 5029.97 2.07206 9.98732 0
M  V30 62285 O 5029.4 -0.0743816 8.81969 0
M  V30 62286 O 5029.94 1.97652 7.47304 0
M  V30 62287 C 5030.88 3.01133 7.08783 0
M  V30 62288 C 5030.15 4.12613 6.37049 0
M  V30 62289 O 5029.94 3.72827 4.97879 0
M  V30 62290 C 5028.75 4.45085 6.88694 0
M  V30 62291 O 5028.36 5.7877 6.5624 0
M  V30 62292 C 5027.87 3.47817 6.12078 0
M  V30 62293 C 5028.58 3.39414 4.77697 0
M  V30 62294 N 5028.53 2.04615 4.15333 0
M  V30 62295 H 5031.37 3.41248 7.98759 0
M  V30 62296 H 5031.64 2.5837 6.41742 0
M  V30 62297 H 5030.77 5.02657 6.42673 0
M  V30 62298 P 5026.81 6.144 6.45285 0
M  V30 62299 O 5026.59 7.54673 6.86199 0
M  V30 62300 O 5026.02 5.12391 7.179 0
M  V30 62301 O 5026.56 5.99158 4.88404 0
M  V30 62302 C 5027.5 6.60234 3.96415 0
M  V30 62303 C 5026.77 7.08259 2.72856 0
M  V30 62304 O 5026.56 5.9427 1.83651 0
M  V30 62305 C 5025.37 7.64886 2.9555 0
M  V30 62306 O 5024.98 8.53963 1.90717 0
M  V30 62307 C 5024.49 6.4116 2.90739 0
M  V30 62308 C 5025.2 5.55375 1.86963 0
M  V30 62309 N 5025.15 4.09664 2.15742 0
M  V30 62310 C 5025.23 3.44381 3.37233 0
M  V30 62311 N 5025.15 2.14131 3.28347 0
M  V30 62312 C 5025.01 1.90247 1.91588 0
M  V30 62313 C 5024.88 0.683992 1.20892 0
M  V30 62314 N 5024.76 0.903396 -0.173998 0
M  V30 62315 C 5024.76 2.14171 -0.784879 0
M  V30 62316 N 5024.63 2.1435 -2.11317 0
M  V30 62317 N 5024.89 3.28784 -0.119316 0
M  V30 62318 C 5025.01 3.0977 1.22194 0
M  V30 62319 H 5027.99 7.45574 4.45629 0
M  V30 62320 H 5028.26 5.86232 3.67314 0
M  V30 62321 H 5027.39 7.84412 2.24479 0
M  V30 62322 P 5023.43 8.7635 1.60911 0
M  V30 62323 O 5023.21 10.1388 1.11561 0
M  V30 62324 O 5022.64 8.36503 2.79617 0
M  V30 62325 O 5023.18 7.71806 0.42951 0
M  V30 62326 C 5024.12 7.67148 -0.673689 0
M  V30 62327 C 5023.39 7.33374 -1.95559 0
M  V30 62328 O 5023.18 5.88721 -2.00726 0
M  V30 62329 C 5021.99 7.92526 -2.10483 0
M  V30 62330 O 5021.6 8.02971 -3.47653 0
M  V30 62331 C 5021.11 6.89602 -1.41652 0
M  V30 62332 C 5021.82 5.59201 -1.75185 0
M  V30 62333 N 5021.77 4.58301 -0.657969 0
M  V30 62334 C 5021.85 4.79019 0.692603 0
M  V30 62335 N 5021.78 3.69736 1.38998 0
M  V30 62336 C 5021.63 2.70474 0.438135 0
M  V30 62337 C 5021.5 1.30327 0.538142 0
M  V30 62338 N 5021.49 0.64304 1.69192 0
M  V30 62339 N 5021.38 0.611027 -0.605183 0
M  V30 62340 C 5021.39 1.27002 -1.75953 0
M  V30 62341 N 5021.51 2.56038 -1.98546 0
M  V30 62342 C 5021.63 3.22681 -0.822541 0
M  V30 62343 H 5024.61 8.65116 -0.777161 0
M  V30 62344 H 5024.88 6.9022 -0.46725 0
M  V30 62345 H 5024.01 7.66548 -2.79458 0
M  V30 62346 H 5021.36 5.16165 -2.65183 0
M  V30 62347 H 5021.08 7.06433 -0.329384 0
M  V30 62348 H 5020.09 6.90926 -1.82021 0
M  V30 62349 H 5021.92 8.90873 -1.62657 0
M  V30 62350 H 5021.96 5.77785 1.13874 0
M  V30 62351 H 5021.58 1.15585 2.57991 0
M  V30 62352 H 5021.39 -0.382989 1.69835 0
M  V30 62353 H 5021.28 0.653331 -2.64449 0
M  V30 62354 P 5020.05 8.03563 -3.84925 0
M  V30 62355 O 5019.83 8.85821 -5.0569 0
M  V30 62356 O 5019.26 8.41101 -2.65469 0
M  V30 62357 O 5019.8 6.4965 -4.18908 0
M  V30 62358 C 5020.74 5.81037 -5.05421 0
M  V30 62359 C 5020.01 4.78366 -5.89277 0
M  V30 62360 O 5019.8 3.58302 -5.08433 0
M  V30 62361 C 5018.61 5.17448 -6.36119 0
M  V30 62362 O 5018.22 4.45271 -7.53232 0
M  V30 62363 C 5017.73 4.74639 -5.19936 0
M  V30 62364 C 5018.44 3.49432 -4.70418 0
M  V30 62365 N 5018.39 3.31776 -3.22945 0
M  V30 62366 H 5021.23 6.54213 -5.71376 0
M  V30 62367 H 5021.5 5.30492 -4.44033 0
M  V30 62368 H 5020.63 4.55889 -6.76652 0
M  V30 62369 P 5016.67 4.23843 -7.83734 0
M  V30 62370 O 5016.45 4.19407 -9.29784 0
M  V30 62371 O 5015.88 5.24426 -7.09156 0
M  V30 62372 O 5016.42 2.7935 -7.20758 0
M  V30 62373 C 5017.36 1.7299 -7.50419 0
M  V30 62374 C 5016.63 0.406376 -7.57911 0
M  V30 62375 O 5016.42 -0.0897726 -6.21935 0
M  V30 62376 C 5015.23 0.447224 -8.1878 0
M  V30 62377 O 5014.84 -0.825065 -8.71101 0
M  V30 62378 C 5014.35 0.783801 -6.99623 0
M  V30 62379 C 5015.06 0.0619192 -5.85967 0
M  V30 62380 N 5015.01 0.790462 -4.56202 0
M  V30 62381 C 5015.09 2.13895 -4.34171 0
M  V30 62382 N 5015.02 2.46449 -3.08687 0
M  V30 62383 C 5014.87 1.2525 -2.43697 0
M  V30 62384 C 5014.74 0.914535 -1.07318 0
M  V30 62385 N 5014.73 1.80782 -0.0887348 0
M  V30 62386 N 5014.62 -0.386745 -0.768133 0
M  V30 62387 C 5014.63 -1.28096 -1.75159 0
M  V30 62388 N 5014.75 -1.09708 -3.04861 0
M  V30 62389 C 5014.87 0.214857 -3.32306 0
M  V30 62390 H 5017.85 1.93423 -8.4679 0
M  V30 62391 H 5018.12 1.68852 -6.70877 0
M  V30 62392 H 5017.25 -0.289041 -8.15388 0
M  V30 62393 H 5014.6 -0.927006 -5.72848 0
M  V30 62394 H 5014.32 1.86973 -6.82036 0
M  V30 62395 H 5013.33 0.403953 -7.13357 0
M  V30 62396 H 5015.16 1.20599 -8.97534 0
M  V30 62397 H 5015.2 2.86846 -5.14318 0
M  V30 62398 H 5014.82 2.81082 -0.302037 0
M  V30 62399 H 5014.63 1.49688 0.889064 0
M  V30 62400 H 5014.52 -2.31317 -1.43855 0
M  V30 62401 P 5013.29 -1.17771 -8.83182 0
M  V30 62402 O 5013.07 -2.07206 -9.98732 0
M  V30 62403 O 5012.5 0.0743816 -8.81969 0
M  V30 62404 O 5013.04 -1.97652 -7.47304 0
M  V30 62405 C 5013.98 -3.01133 -7.08783 0
M  V30 62406 C 5013.25 -4.12613 -6.37049 0
M  V30 62407 O 5013.04 -3.72827 -4.97879 0
M  V30 62408 C 5011.85 -4.45085 -6.88694 0
M  V30 62409 O 5011.46 -5.7877 -6.5624 0
M  V30 62410 C 5010.97 -3.47817 -6.12078 0
M  V30 62411 C 5011.68 -3.39414 -4.77697 0
M  V30 62412 N 5011.63 -2.04615 -4.15333 0
M  V30 62413 H 5014.47 -3.41248 -7.98759 0
M  V30 62414 H 5014.74 -2.5837 -6.41742 0
M  V30 62415 H 5013.87 -5.02657 -6.42673 0
M  V30 62416 P 5009.91 -6.144 -6.45285 0
M  V30 62417 O 5009.69 -7.54673 -6.86199 0
M  V30 62418 O 5009.12 -5.12391 -7.179 0
M  V30 62419 O 5009.66 -5.99158 -4.88404 0
M  V30 62420 C 5010.6 -6.60234 -3.96415 0
M  V30 62421 C 5009.87 -7.08259 -2.72856 0
M  V30 62422 O 5009.66 -5.9427 -1.83651 0
M  V30 62423 C 5008.47 -7.64886 -2.9555 0
M  V30 62424 O 5008.08 -8.53963 -1.90717 0
M  V30 62425 C 5007.59 -6.4116 -2.90739 0
M  V30 62426 C 5008.3 -5.55375 -1.86963 0
M  V30 62427 N 5008.25 -4.09448 -2.16152 0
M  V30 62428 H 5011.09 -7.45574 -4.45629 0
M  V30 62429 H 5011.36 -5.85864 -3.679 0
M  V30 62430 H 5010.49 -7.84412 -2.24479 0
M  V30 62431 H 5007.84 -5.73457 -0.888562 0
M  V30 62432 H 5007.56 -5.90877 -3.88583 0
M  V30 62433 H 5006.57 -6.6596 -2.58858 0
M  V30 62434 H 5008.4 -8.16339 -3.92049 0
M  V30 62435 P 5006.53 -8.7635 -1.60911 0
M  V30 62436 O 5006.31 -10.1388 -1.11561 0
M  V30 62437 O 5005.74 -8.36503 -2.79617 0
M  V30 62438 O 5006.28 -7.71806 -0.42951 0
M  V30 62439 C 5007.22 -7.67148 0.673689 0
M  V30 62440 C 5006.49 -7.33374 1.95559 0
M  V30 62441 O 5006.28 -5.88721 2.00726 0
M  V30 62442 C 5005.09 -7.92526 2.10483 0
M  V30 62443 O 5004.7 -8.02971 3.47653 0
M  V30 62444 C 5004.21 -6.89602 1.41652 0
M  V30 62445 C 5004.92 -5.59201 1.75185 0
M  V30 62446 N 5004.87 -4.58301 0.657969 0
M  V30 62447 C 5004.95 -4.79019 -0.692603 0
M  V30 62448 N 5004.88 -3.69736 -1.38998 0
M  V30 62449 C 5004.73 -2.70474 -0.438135 0
M  V30 62450 C 5004.6 -1.30327 -0.538142 0
M  V30 62451 N 5004.59 -0.64304 -1.69192 0
M  V30 62452 N 5004.48 -0.611027 0.605183 0
M  V30 62453 C 5004.49 -1.27002 1.75953 0
M  V30 62454 N 5004.61 -2.56038 1.98546 0
M  V30 62455 C 5004.73 -3.22681 0.822541 0
M  V30 62456 H 5007.71 -8.65116 0.777161 0
M  V30 62457 H 5007.98 -6.9022 0.46725 0
M  V30 62458 H 5007.11 -7.66548 2.79458 0
M  V30 62459 H 5004.46 -5.16165 2.65183 0
M  V30 62460 H 5004.18 -7.06433 0.329384 0
M  V30 62461 H 5003.19 -6.90926 1.82021 0
M  V30 62462 H 5005.02 -8.90873 1.62657 0
M  V30 62463 H 5005.06 -5.77785 -1.13874 0
M  V30 62464 H 5004.68 -1.15585 -2.57991 0
M  V30 62465 H 5004.49 0.382989 -1.69835 0
M  V30 62466 H 5004.38 -0.653331 2.64449 0
M  V30 62467 P 5003.15 -8.03563 3.84925 0
M  V30 62468 O 5002.93 -8.85821 5.0569 0
M  V30 62469 O 5002.36 -8.41101 2.65469 0
M  V30 62470 O 5002.9 -6.4965 4.18908 0
M  V30 62471 C 5003.84 -5.81037 5.05421 0
M  V30 62472 C 5003.11 -4.78366 5.89277 0
M  V30 62473 O 5002.9 -3.58302 5.08433 0
M  V30 62474 C 5001.71 -5.17448 6.36119 0
M  V30 62475 O 5001.32 -4.45271 7.53232 0
M  V30 62476 C 5000.83 -4.74639 5.19936 0
M  V30 62477 C 5001.54 -3.49432 4.70418 0
M  V30 62478 N 5001.49 -3.31776 3.22945 0
M  V30 62479 H 5004.33 -6.54213 5.71376 0
M  V30 62480 H 5004.6 -5.30492 4.44033 0
M  V30 62481 H 5003.73 -4.55889 6.76652 0
M  V30 62482 P 4999.77 -4.23843 7.83734 0
M  V30 62483 O 4999.55 -4.19407 9.29784 0
M  V30 62484 O 4998.98 -5.24426 7.09156 0
M  V30 62485 O 4999.52 -2.79386 7.20852 0
M  V30 62486 C 5000.46 -1.7299 7.50419 0
M  V30 62487 C 4999.73 -0.41401 7.5797 0
M  V30 62488 O 4999.52 0.089787 6.22035 0
M  V30 62489 C 4998.33 -0.447224 8.1878 0
M  V30 62490 O 4997.94 0.825159 8.71201 0
M  V30 62491 C 4997.45 -0.783801 6.99623 0
M  V30 62492 C 4998.16 -0.0619192 5.85967 0
M  V30 62493 N 4998.11 -0.7859 4.56281 0
M  V30 62494 C 4997.96 -0.0359258 3.39981 0
M  V30 62495 O 4997.87 1.19723 3.49038 0
M  V30 62496 N 4997.91 -0.869151 2.14025 0
M  V30 62497 C 4998.01 -2.01207 2.14363 0
M  V30 62498 N 4997.96 -2.58978 0.954287 0
M  V30 62499 C 4998.16 -2.80817 3.32215 0
M  V30 62500 C 4998.21 -2.13785 4.50884 0
M  V30 62501 H 5000.95 -1.93401 8.46693 0
M  V30 62502 H 5001.22 -1.68181 6.71046 0
M  V30 62503 H 5000.35 0.289076 8.15488 0
M  V30 62504 H 4997.7 0.927166 5.72947 0
M  V30 62505 H 4997.42 -1.87 6.82132 0
M  V30 62506 H 4996.43 -0.404009 7.13457 0
M  V30 62507 H 4998.26 -1.20599 8.97534 0
M  V30 62508 H 4998.33 -2.70295 5.43162 0
M  V30 62509 H 4998.23 -3.89465 3.27406 0
M  V30 62510 H 4997.84 -2.01616 0.107046 0
M  V30 62511 H 4998.04 -3.61403 0.873101 0
M  V30 62512 P 4996.39 1.17771 8.83182 0
M  V30 62513 O 4996.17 2.07206 9.98732 0
M  V30 62514 O 4995.6 -0.0743816 8.81969 0
M  V30 62515 O 4996.14 1.97652 7.47304 0
M  V30 62516 C 4997.08 3.01133 7.08783 0
M  V30 62517 C 4996.35 4.12613 6.37049 0
M  V30 62518 O 4996.14 3.72827 4.97879 0
M  V30 62519 C 4994.95 4.45085 6.88694 0
M  V30 62520 O 4994.56 5.7877 6.5624 0
M  V30 62521 C 4994.07 3.47817 6.12078 0
M  V30 62522 C 4994.78 3.39414 4.77697 0
M  V30 62523 N 4994.73 2.04615 4.15333 0
M  V30 62524 C 4994.81 0.803897 4.75249 0
M  V30 62525 N 4994.73 -0.197615 3.91502 0
M  V30 62526 C 4994.59 0.413002 2.66823 0
M  V30 62527 C 4994.46 -0.157221 1.38007 0
M  V30 62528 N 4994.34 0.833136 0.390236 0
M  V30 62529 C 4994.34 2.19402 0.623885 0
M  V30 62530 N 4994.21 2.97622 -0.449677 0
M  V30 62531 N 4994.47 2.73005 1.83601 0
M  V30 62532 C 4994.59 1.78786 2.80935 0
M  V30 62533 H 4997.57 3.41248 7.98759 0
M  V30 62534 H 4997.84 2.5837 6.41742 0
M  V30 62535 H 4996.97 5.02657 6.42673 0
M  V30 62536 P 4993.01 6.144 6.45285 0
M  V30 62537 O 4992.79 7.54673 6.86199 0
M  V30 62538 O 4992.22 5.12391 7.179 0
M  V30 62539 O 4992.76 5.99158 4.88404 0
M  V30 62540 C 4993.7 6.60234 3.96415 0
M  V30 62541 C 4992.97 7.08259 2.72856 0
M  V30 62542 O 4992.76 5.9427 1.83651 0
M  V30 62543 C 4991.57 7.64886 2.9555 0
M  V30 62544 O 4991.18 8.53963 1.90717 0
M  V30 62545 C 4990.69 6.4116 2.90739 0
M  V30 62546 C 4991.4 5.55375 1.86963 0
M  V30 62547 N 4991.35 4.09664 2.15742 0
M  V30 62548 H 4994.19 7.45574 4.45629 0
M  V30 62549 H 4994.46 5.86232 3.67314 0
M  V30 62550 H 4993.59 7.84412 2.24479 0
M  V30 62551 P 4989.63 8.7635 1.60911 0
M  V30 62552 O 4989.41 10.1388 1.11561 0
M  V30 62553 O 4988.84 8.36503 2.79617 0
M  V30 62554 O 4989.38 7.71806 0.42951 0
M  V30 62555 C 4990.32 7.67148 -0.673689 0
M  V30 62556 C 4989.59 7.33374 -1.95559 0
M  V30 62557 O 4989.38 5.88721 -2.00726 0
M  V30 62558 C 4988.19 7.92526 -2.10483 0
M  V30 62559 O 4987.8 8.02971 -3.47653 0
M  V30 62560 C 4987.31 6.89602 -1.41652 0
M  V30 62561 C 4988.02 5.59201 -1.75185 0
M  V30 62562 N 4987.97 4.58301 -0.657969 0
M  V30 62563 C 4988.05 4.79019 0.692603 0
M  V30 62564 N 4987.98 3.69736 1.38998 0
M  V30 62565 C 4987.83 2.70474 0.438135 0
M  V30 62566 C 4987.7 1.30327 0.538142 0
M  V30 62567 N 4987.69 0.64304 1.69192 0
M  V30 62568 N 4987.58 0.611027 -0.605183 0
M  V30 62569 C 4987.59 1.27002 -1.75953 0
M  V30 62570 N 4987.71 2.56038 -1.98546 0
M  V30 62571 C 4987.83 3.22681 -0.822541 0
M  V30 62572 H 4990.81 8.65116 -0.777161 0
M  V30 62573 H 4991.08 6.9022 -0.46725 0
M  V30 62574 H 4990.21 7.66548 -2.79458 0
M  V30 62575 H 4987.56 5.16165 -2.65183 0
M  V30 62576 H 4987.28 7.06433 -0.329384 0
M  V30 62577 H 4986.29 6.90926 -1.82021 0
M  V30 62578 H 4988.12 8.90873 -1.62657 0
M  V30 62579 H 4988.16 5.77785 1.13874 0
M  V30 62580 H 4987.78 1.15585 2.57991 0
M  V30 62581 H 4987.59 -0.382989 1.69835 0
M  V30 62582 H 4987.48 0.653331 -2.64449 0
M  V30 62583 P 4986.25 8.03563 -3.84925 0
M  V30 62584 O 4986.03 8.85821 -5.0569 0
M  V30 62585 O 4985.46 8.41101 -2.65469 0
M  V30 62586 O 4986 6.4965 -4.18908 0
M  V30 62587 C 4986.94 5.81037 -5.05421 0
M  V30 62588 C 4986.21 4.78366 -5.89277 0
M  V30 62589 O 4986 3.58302 -5.08433 0
M  V30 62590 C 4984.81 5.17448 -6.36119 0
M  V30 62591 O 4984.42 4.45271 -7.53232 0
M  V30 62592 C 4983.93 4.74639 -5.19936 0
M  V30 62593 C 4984.64 3.49432 -4.70418 0
M  V30 62594 N 4984.59 3.31776 -3.22945 0
M  V30 62595 H 4987.43 6.54213 -5.71376 0
M  V30 62596 H 4987.7 5.30492 -4.44033 0
M  V30 62597 H 4986.83 4.55889 -6.76652 0
M  V30 62598 P 4982.87 4.23843 -7.83734 0
M  V30 62599 O 4982.65 4.19407 -9.29784 0
M  V30 62600 O 4982.08 5.24426 -7.09156 0
M  V30 62601 O 4982.62 2.7935 -7.20758 0
M  V30 62602 C 4983.56 1.7299 -7.50419 0
M  V30 62603 C 4982.83 0.406376 -7.57911 0
M  V30 62604 O 4982.62 -0.0897726 -6.21935 0
M  V30 62605 C 4981.43 0.447224 -8.1878 0
M  V30 62606 O 4981.04 -0.825065 -8.71101 0
M  V30 62607 C 4980.55 0.783801 -6.99623 0
M  V30 62608 C 4981.26 0.0619192 -5.85967 0
M  V30 62609 N 4981.21 0.7859 -4.56281 0
M  V30 62610 H 4984.05 1.93423 -8.4679 0
M  V30 62611 H 4984.32 1.68181 -6.71046 0
M  V30 62612 H 4983.45 -0.289041 -8.15388 0
M  V30 62613 P 4979.49 -1.17771 -8.83182 0
M  V30 62614 O 4979.27 -2.07206 -9.98732 0
M  V30 62615 O 4978.7 0.0743816 -8.81969 0
M  V30 62616 O 4979.24 -1.97652 -7.47304 0
M  V30 62617 C 4980.18 -3.01133 -7.08783 0
M  V30 62618 C 4979.45 -4.12613 -6.37049 0
M  V30 62619 O 4979.24 -3.72827 -4.97879 0
M  V30 62620 C 4978.05 -4.45085 -6.88694 0
M  V30 62621 O 4977.66 -5.7877 -6.5624 0
M  V30 62622 C 4977.17 -3.47817 -6.12078 0
M  V30 62623 C 4977.88 -3.39414 -4.77697 0
M  V30 62624 N 4977.83 -2.04199 -4.15538 0
M  V30 62625 C 4977.91 -0.821545 -4.76977 0
M  V30 62626 N 4977.84 0.1794 -3.94592 0
M  V30 62627 C 4977.69 -0.419121 -2.70776 0
M  V30 62628 C 4977.56 0.109072 -1.40577 0
M  V30 62629 N 4977.55 1.4104 -1.1344 0
M  V30 62630 N 4977.44 -0.764381 -0.39411 0
M  V30 62631 C 4977.45 -2.06587 -0.664135 0
M  V30 62632 N 4977.57 -2.67948 -1.82153 0
M  V30 62633 C 4977.69 -1.77942 -2.8147 0
M  V30 62634 H 4980.67 -3.41248 -7.98759 0
M  V30 62635 H 4980.94 -2.57728 -6.42 0
M  V30 62636 H 4980.07 -5.02657 -6.42673 0
M  V30 62637 H 4977.42 -4.11708 -4.08956 0
M  V30 62638 H 4977.14 -2.49626 -6.61679 0
M  V30 62639 H 4976.15 -3.8662 -6.00862 0
M  V30 62640 H 4977.98 -4.29991 -7.97006 0
M  V30 62641 H 4978.02 -0.702451 -5.84696 0
M  V30 62642 H 4977.64 2.09647 -1.89651 0
M  V30 62643 H 4977.45 1.73358 -0.160575 0
M  V30 62644 H 4977.34 -2.71695 0.195838 0
M  V30 62645 P 4976.11 -6.144 -6.45285 0
M  V30 62646 O 4975.89 -7.54673 -6.86199 0
M  V30 62647 O 4975.32 -5.12391 -7.179 0
M  V30 62648 O 4975.86 -5.99158 -4.88404 0
M  V30 62649 C 4976.8 -6.60234 -3.96415 0
M  V30 62650 C 4976.07 -7.08259 -2.72856 0
M  V30 62651 O 4975.86 -5.9427 -1.83651 0
M  V30 62652 C 4974.67 -7.64886 -2.9555 0
M  V30 62653 O 4974.28 -8.53963 -1.90717 0
M  V30 62654 C 4973.79 -6.4116 -2.90739 0
M  V30 62655 C 4974.5 -5.55375 -1.86963 0
M  V30 62656 N 4974.45 -4.09448 -2.16152 0
M  V30 62657 H 4977.29 -7.45574 -4.45629 0
M  V30 62658 H 4977.56 -5.85864 -3.679 0
M  V30 62659 H 4976.69 -7.84412 -2.24479 0
M  V30 62660 H 4974.04 -5.73457 -0.888562 0
M  V30 62661 H 4973.76 -5.90877 -3.88583 0
M  V30 62662 H 4972.77 -6.6596 -2.58858 0
M  V30 62663 H 4974.6 -8.16339 -3.92049 0
M  V30 62664 P 4972.73 -8.7635 -1.60911 0
M  V30 62665 O 4972.51 -10.1388 -1.11561 0
M  V30 62666 O 4971.94 -8.36503 -2.79617 0
M  V30 62667 O 4972.48 -7.71806 -0.42951 0
M  V30 62668 C 4973.42 -7.66948 0.673514 0
M  V30 62669 C 4972.69 -7.33374 1.95559 0
M  V30 62670 O 4972.48 -5.88721 2.00726 0
M  V30 62671 C 4971.29 -7.92218 2.1125 0
M  V30 62672 O 4970.9 -8.02971 3.47653 0
M  V30 62673 C 4970.41 -6.89504 1.41631 0
M  V30 62674 C 4971.12 -5.59106 1.75155 0
M  V30 62675 N 4971.07 -4.58136 0.662409 0
M  V30 62676 C 4970.92 -3.26059 1.02863 0
M  V30 62677 O 4970.83 -2.90743 2.19009 0
M  V30 62678 N 4970.88 -2.35995 -0.0155585 0
M  V30 62679 C 4970.97 -2.65248 -1.35603 0
M  V30 62680 O 4970.92 -1.75605 -2.20651 0
M  V30 62681 C 4971.12 -4.05747 -1.64698 0
M  V30 62682 C 4971.23 -4.42345 -3.09553 0
M  V30 62683 C 4971.17 -4.96734 -0.652411 0
M  V30 62684 H 4973.91 -8.64917 0.776982 0
M  V30 62685 H 4974.18 -6.89974 0.474015 0
M  V30 62686 H 4973.31 -7.66548 2.79458 0
M  V30 62687 H 4970.66 -5.16076 2.65138 0
M  V30 62688 H 4970.38 -7.06433 0.329384 0
M  V30 62689 H 4969.39 -6.90829 1.81996 0
M  V30 62690 H 4971.22 -8.90774 1.62639 0
M  V30 62691 H 4971.29 -6.02181 -0.895285 0
M  V30 62692 H 4970.26 -4.80252 -3.45468 0
M  V30 62693 H 4972 -5.20015 -3.22119 0
M  V30 62694 H 4971.51 -3.53269 -3.67833 0
M  V30 62695 H 4970.78 -1.39558 0.227499 0
M  V30 62696 P 4969.35 -8.03563 3.84925 0
M  V30 62697 O 4969.13 -8.85821 5.0569 0
M  V30 62698 O 4968.56 -8.41101 2.65469 0
M  V30 62699 O 4969.1 -6.4965 4.18908 0
M  V30 62700 C 4970.04 -5.81037 5.05421 0
M  V30 62701 C 4969.31 -4.78366 5.89277 0
M  V30 62702 O 4969.1 -3.58302 5.08433 0
M  V30 62703 C 4967.91 -5.17448 6.36119 0
M  V30 62704 O 4967.52 -4.45271 7.53232 0
M  V30 62705 C 4967.03 -4.74639 5.19936 0
M  V30 62706 C 4967.74 -3.49432 4.70418 0
M  V30 62707 N 4967.69 -3.31776 3.22945 0
M  V30 62708 H 4970.53 -6.54213 5.71376 0
M  V30 62709 H 4970.8 -5.30492 4.44033 0
M  V30 62710 H 4969.93 -4.55889 6.76652 0
M  V30 62711 P 4965.97 -4.23843 7.83734 0
M  V30 62712 O 4965.75 -4.19407 9.29784 0
M  V30 62713 O 4965.18 -5.24426 7.09156 0
M  V30 62714 O 4965.72 -2.7935 7.20758 0
M  V30 62715 C 4966.66 -1.7299 7.50419 0
M  V30 62716 C 4965.93 -0.406376 7.57911 0
M  V30 62717 O 4965.72 0.0897726 6.21935 0
M  V30 62718 C 4964.53 -0.447224 8.1878 0
M  V30 62719 O 4964.14 0.825065 8.71101 0
M  V30 62720 C 4963.65 -0.783801 6.99623 0
M  V30 62721 C 4964.36 -0.0619192 5.85967 0
M  V30 62722 N 4964.31 -0.7859 4.56281 0
M  V30 62723 H 4967.15 -1.93423 8.4679 0
M  V30 62724 H 4967.42 -1.68181 6.71046 0
M  V30 62725 H 4966.55 0.289041 8.15388 0
M  V30 62726 P 4962.59 1.17771 8.83182 0
M  V30 62727 O 4962.37 2.07206 9.98732 0
M  V30 62728 O 4961.8 -0.0743816 8.81969 0
M  V30 62729 O 4962.34 1.97652 7.47304 0
M  V30 62730 C 4963.28 3.01133 7.08783 0
M  V30 62731 C 4962.55 4.12613 6.37049 0
M  V30 62732 O 4962.34 3.72827 4.97879 0
M  V30 62733 C 4961.15 4.45085 6.88694 0
M  V30 62734 O 4960.76 5.7877 6.5624 0
M  V30 62735 C 4960.27 3.47817 6.12078 0
M  V30 62736 C 4960.98 3.39414 4.77697 0
M  V30 62737 N 4960.93 2.04615 4.15333 0
M  V30 62738 H 4963.77 3.41248 7.98759 0
M  V30 62739 H 4964.04 2.5837 6.41742 0
M  V30 62740 H 4963.17 5.02657 6.42673 0
M  V30 62741 P 4959.21 6.144 6.45285 0
M  V30 62742 O 4958.99 7.54673 6.86199 0
M  V30 62743 O 4958.42 5.12391 7.179 0
M  V30 62744 O 4958.96 5.99158 4.88404 0
M  V30 62745 C 4959.9 6.60062 3.96313 0
M  V30 62746 C 4959.17 7.08259 2.72856 0
M  V30 62747 O 4958.96 5.9427 1.83651 0
M  V30 62748 C 4957.77 7.65087 2.94749 0
M  V30 62749 O 4957.38 8.53963 1.90717 0
M  V30 62750 C 4956.89 6.41069 2.90698 0
M  V30 62751 C 4957.6 5.5528 1.86931 0
M  V30 62752 N 4957.55 4.09575 2.15696 0
M  V30 62753 C 4957.4 3.24249 1.08435 0
M  V30 62754 O 4957.31 3.63946 -0.0628747 0
M  V30 62755 N 4957.36 1.90009 1.39973 0
M  V30 62756 C 4957.45 1.34884 2.65614 0
M  V30 62757 C 4957.6 2.3145 3.71736 0
M  V30 62758 C 4957.65 3.63518 3.44754 0
M  V30 62759 H 4960.39 7.45402 4.45526 0
M  V30 62760 H 4960.66 5.86062 3.67208 0
M  V30 62761 H 4959.79 7.84412 2.24479 0
M  V30 62762 H 4957.14 5.73358 0.888409 0
M  V30 62763 H 4956.86 5.90877 3.88583 0
M  V30 62764 H 4955.87 6.65867 2.58821 0
M  V30 62765 H 4957.7 8.16248 3.92006 0
M  V30 62766 H 4957.77 4.34551 4.26383 0
M  V30 62767 P 4955.83 8.7635 1.60911 0
M  V30 62768 O 4955.61 10.1388 1.11561 0
M  V30 62769 O 4955.04 8.36503 2.79617 0
M  V30 62770 O 4955.58 7.71806 0.42951 0
M  V30 62771 C 4956.52 7.67148 -0.673689 0
M  V30 62772 C 4955.79 7.33374 -1.95559 0
M  V30 62773 O 4955.58 5.88721 -2.00726 0
M  V30 62774 C 4954.39 7.92526 -2.10483 0
M  V30 62775 O 4954 8.02971 -3.47653 0
M  V30 62776 C 4953.51 6.89602 -1.41652 0
M  V30 62777 C 4954.22 5.59201 -1.75185 0
M  V30 62778 N 4954.17 4.58235 -0.662552 0
M  V30 62779 H 4957.01 8.65116 -0.777161 0
M  V30 62780 H 4957.28 6.90173 -0.474152 0
M  V30 62781 H 4956.41 7.66548 -2.79458 0
M  V30 62782 P 4952.45 8.03563 -3.84925 0
M  V30 62783 O 4952.23 8.85821 -5.0569 0
M  V30 62784 O 4951.66 8.41101 -2.65469 0
M  V30 62785 O 4952.2 6.4965 -4.18908 0
M  V30 62786 C 4953.14 5.81037 -5.05421 0
M  V30 62787 C 4952.41 4.78366 -5.89277 0
M  V30 62788 O 4952.2 3.58302 -5.08433 0
M  V30 62789 C 4951.01 5.17448 -6.36119 0
M  V30 62790 O 4950.62 4.45271 -7.53232 0
M  V30 62791 C 4950.13 4.74639 -5.19936 0
M  V30 62792 C 4950.84 3.49432 -4.70418 0
M  V30 62793 N 4950.79 3.32099 -3.22613 0
M  V30 62794 C 4950.87 4.28245 -2.25527 0
M  V30 62795 N 4950.8 3.80823 -1.04874 0
M  V30 62796 C 4950.65 2.44571 -1.23535 0
M  V30 62797 C 4950.52 1.37068 -0.330675 0
M  V30 62798 N 4950.51 1.51472 0.990824 0
M  V30 62799 N 4950.4 0.138614 -0.848756 0
M  V30 62800 C 4950.41 -0.00675923 -2.16999 0
M  V30 62801 N 4950.53 0.904372 -3.11122 0
M  V30 62802 C 4950.65 2.12707 -2.56212 0
M  V30 62803 H 4953.63 6.54213 -5.71376 0
M  V30 62804 H 4953.9 5.30936 -4.43503 0
M  V30 62805 H 4953.03 4.55889 -6.76652 0
M  V30 62806 H 4950.38 2.61715 -5.17932 0
M  V30 62807 H 4950.1 5.52155 -4.41878 0
M  V30 62808 H 4949.11 4.51981 -5.53374 0
M  V30 62809 H 4950.94 6.25124 -6.55234 0
M  V30 62810 H 4950.98 5.34372 -2.47488 0
M  V30 62811 H 4950.6 2.45153 1.4078 0
M  V30 62812 H 4950.41 0.688422 1.59911 0
M  V30 62813 H 4950.3 -1.02584 -2.52346 0
M  V30 62814 P 4949.07 4.23843 -7.83734 0
M  V30 62815 O 4948.85 4.19407 -9.29784 0
M  V30 62816 O 4948.28 5.24426 -7.09156 0
M  V30 62817 O 4948.82 2.7935 -7.20758 0
M  V30 62818 C 4949.76 1.7299 -7.50419 0
M  V30 62819 C 4949.03 0.406376 -7.57911 0
M  V30 62820 O 4948.82 -0.0897726 -6.21935 0
M  V30 62821 C 4947.63 0.447224 -8.1878 0
M  V30 62822 O 4947.24 -0.825065 -8.71101 0
M  V30 62823 C 4946.75 0.783801 -6.99623 0
M  V30 62824 C 4947.46 0.0619192 -5.85967 0
M  V30 62825 N 4947.41 0.7859 -4.56281 0
M  V30 62826 H 4950.25 1.93423 -8.4679 0
M  V30 62827 H 4950.52 1.68181 -6.71046 0
M  V30 62828 H 4949.65 -0.289041 -8.15388 0
M  V30 62829 P 4945.69 -1.17771 -8.83182 0
M  V30 62830 O 4945.47 -2.07206 -9.98732 0
M  V30 62831 O 4944.9 0.0743816 -8.81969 0
M  V30 62832 O 4945.44 -1.97652 -7.47304 0
M  V30 62833 C 4946.38 -3.01133 -7.08783 0
M  V30 62834 C 4945.65 -4.12613 -6.37049 0
M  V30 62835 O 4945.44 -3.72827 -4.97879 0
M  V30 62836 C 4944.25 -4.45085 -6.88694 0
M  V30 62837 O 4943.86 -5.7877 -6.5624 0
M  V30 62838 C 4943.37 -3.47817 -6.12078 0
M  V30 62839 C 4944.08 -3.39414 -4.77697 0
M  V30 62840 N 4944.03 -2.04199 -4.15538 0
M  V30 62841 H 4946.87 -3.41248 -7.98759 0
M  V30 62842 H 4947.14 -2.57728 -6.42 0
M  V30 62843 H 4946.27 -5.02657 -6.42673 0
M  V30 62844 H 4943.62 -4.11708 -4.08956 0
M  V30 62845 H 4943.34 -2.49626 -6.61679 0
M  V30 62846 H 4942.35 -3.8662 -6.00862 0
M  V30 62847 H 4944.18 -4.29991 -7.97006 0
M  V30 62848 P 4942.31 -6.144 -6.45285 0
M  V30 62849 O 4942.09 -7.54673 -6.86199 0
M  V30 62850 O 4941.52 -5.12391 -7.179 0
M  V30 62851 O 4942.06 -5.99158 -4.88404 0
M  V30 62852 C 4943 -6.60234 -3.96415 0
M  V30 62853 C 4942.27 -7.08259 -2.72856 0
M  V30 62854 O 4942.06 -5.9427 -1.83651 0
M  V30 62855 C 4940.87 -7.64886 -2.9555 0
M  V30 62856 O 4940.48 -8.53963 -1.90717 0
M  V30 62857 C 4939.99 -6.4116 -2.90739 0
M  V30 62858 C 4940.7 -5.55375 -1.86963 0
M  V30 62859 N 4940.65 -4.09448 -2.16152 0
M  V30 62860 C 4940.73 -3.46824 -3.37593 0
M  V30 62861 N 4940.66 -2.17422 -3.29777 0
M  V30 62862 C 4940.51 -1.93065 -1.94427 0
M  V30 62863 C 4940.38 -0.738053 -1.20141 0
M  V30 62864 N 4940.37 0.474256 -1.74676 0
M  V30 62865 N 4940.26 -0.850049 0.13045 0
M  V30 62866 C 4940.27 -2.06169 0.676992 0
M  V30 62867 N 4940.39 -3.23842 0.101312 0
M  V30 62868 C 4940.51 -3.09402 -1.23122 0
M  V30 62869 H 4943.49 -7.45574 -4.45629 0
M  V30 62870 H 4943.76 -5.85864 -3.679 0
M  V30 62871 H 4942.89 -7.84412 -2.24479 0
M  V30 62872 H 4940.24 -5.73457 -0.888562 0
M  V30 62873 H 4939.96 -5.90877 -3.88583 0
M  V30 62874 H 4938.97 -6.6596 -2.58858 0
M  V30 62875 H 4940.8 -8.16339 -3.92049 0
M  V30 62876 H 4940.84 -4.00505 -4.3174 0
M  V30 62877 H 4940.46 0.581337 -2.76658 0
M  V30 62878 H 4940.27 1.30811 -1.14888 0
M  V30 62879 H 4940.16 -2.08295 1.75542 0
M  V30 62880 P 4938.93 -8.7635 -1.60911 0
M  V30 62881 O 4938.71 -10.1388 -1.11561 0
M  V30 62882 O 4938.14 -8.36503 -2.79617 0
M  V30 62883 O 4938.68 -7.71806 -0.42951 0
M  V30 62884 C 4939.62 -7.67148 0.673689 0
M  V30 62885 C 4938.89 -7.33374 1.95559 0
M  V30 62886 O 4938.68 -5.88721 2.00726 0
M  V30 62887 C 4937.49 -7.92526 2.10483 0
M  V30 62888 O 4937.1 -8.02971 3.47653 0
M  V30 62889 C 4936.61 -6.89602 1.41652 0
M  V30 62890 C 4937.32 -5.59201 1.75185 0
M  V30 62891 N 4937.27 -4.58235 0.662552 0
M  V30 62892 H 4940.11 -8.65116 0.777161 0
M  V30 62893 H 4940.38 -6.90173 0.474152 0
M  V30 62894 H 4939.51 -7.66548 2.79458 0
M  V30 62895 P 4935.55 -8.03563 3.84925 0
M  V30 62896 O 4935.33 -8.85821 5.0569 0
M  V30 62897 O 4934.76 -8.41101 2.65469 0
M  V30 62898 O 4935.3 -6.4965 4.18908 0
M  V30 62899 C 4936.24 -5.81037 5.05421 0
M  V30 62900 C 4935.51 -4.78366 5.89277 0
M  V30 62901 O 4935.3 -3.58302 5.08433 0
M  V30 62902 C 4934.11 -5.17448 6.36119 0
M  V30 62903 O 4933.72 -4.45271 7.53232 0
M  V30 62904 C 4933.23 -4.74639 5.19936 0
M  V30 62905 C 4933.94 -3.49432 4.70418 0
M  V30 62906 N 4933.89 -3.32099 3.22613 0
M  V30 62907 C 4933.97 -4.28245 2.25527 0
M  V30 62908 N 4933.9 -3.80823 1.04874 0
M  V30 62909 C 4933.75 -2.44571 1.23535 0
M  V30 62910 C 4933.62 -1.37068 0.330675 0
M  V30 62911 N 4933.61 -1.51472 -0.990824 0
M  V30 62912 N 4933.5 -0.138614 0.848756 0
M  V30 62913 C 4933.51 0.00675923 2.16999 0
M  V30 62914 N 4933.63 -0.904372 3.11122 0
M  V30 62915 C 4933.75 -2.12707 2.56212 0
M  V30 62916 H 4936.73 -6.54213 5.71376 0
M  V30 62917 H 4937 -5.30936 4.43503 0
M  V30 62918 H 4936.13 -4.55889 6.76652 0
M  V30 62919 H 4933.48 -2.61715 5.17932 0
M  V30 62920 H 4933.2 -5.52155 4.41878 0
M  V30 62921 H 4932.21 -4.51981 5.53374 0
M  V30 62922 H 4934.04 -6.25124 6.55234 0
M  V30 62923 H 4934.08 -5.34372 2.47488 0
M  V30 62924 H 4933.7 -2.45153 -1.4078 0
M  V30 62925 H 4933.51 -0.688422 -1.59911 0
M  V30 62926 H 4933.4 1.02584 2.52346 0
M  V30 62927 P 4932.17 -4.23843 7.83734 0
M  V30 62928 O 4931.95 -4.19407 9.29784 0
M  V30 62929 O 4931.38 -5.24426 7.09156 0
M  V30 62930 O 4931.92 -2.7935 7.20758 0
M  V30 62931 C 4932.86 -1.72945 7.50224 0
M  V30 62932 C 4932.13 -0.406376 7.57911 0
M  V30 62933 O 4931.92 0.0897726 6.21935 0
M  V30 62934 C 4930.73 -0.438983 8.18724 0
M  V30 62935 O 4930.34 0.825065 8.71101 0
M  V30 62936 C 4929.85 -0.783689 6.99524 0
M  V30 62937 C 4930.56 -0.0619086 5.85867 0
M  V30 62938 N 4930.51 -0.78573 4.56183 0
M  V30 62939 C 4930.36 -0.0292889 3.41887 0
M  V30 62940 O 4930.27 1.18445 3.4419 0
M  V30 62941 N 4930.32 -0.744061 2.23964 0
M  V30 62942 C 4930.41 -2.10932 2.10362 0
M  V30 62943 O 4930.36 -2.64117 0.98825 0
M  V30 62944 C 4930.56 -2.8202 3.34994 0
M  V30 62945 C 4930.67 -4.31095 3.25037 0
M  V30 62946 C 4930.61 -2.15547 4.52261 0
M  V30 62947 H 4933.35 -1.93379 8.46595 0
M  V30 62948 H 4933.62 -1.68132 6.70852 0
M  V30 62949 H 4932.75 0.289041 8.15388 0
M  V30 62950 H 4930.1 0.926847 5.72749 0
M  V30 62951 H 4929.82 -1.86973 6.82036 0
M  V30 62952 H 4928.83 -0.403896 7.13257 0
M  V30 62953 H 4930.66 -1.20585 8.97435 0
M  V30 62954 H 4930.73 -2.71231 5.45042 0
M  V30 62955 H 4929.7 -4.76966 3.49992 0
M  V30 62956 H 4931.44 -4.67047 3.95024 0
M  V30 62957 H 4930.95 -4.58996 2.22312 0
M  V30 62958 H 4930.22 -0.214893 1.39758 0
M  V30 62959 P 4928.79 1.17771 8.83182 0
M  V30 62960 O 4928.57 2.07206 9.98732 0
M  V30 62961 O 4928 -0.0743816 8.81969 0
M  V30 62962 O 4928.54 1.97652 7.47304 0
M  V30 62963 C 4929.48 3.01133 7.08783 0
M  V30 62964 C 4928.75 4.12613 6.37049 0
M  V30 62965 O 4928.54 3.72827 4.97879 0
M  V30 62966 C 4927.35 4.45085 6.88694 0
M  V30 62967 O 4926.96 5.7877 6.5624 0
M  V30 62968 C 4926.47 3.47817 6.12078 0
M  V30 62969 C 4927.18 3.39414 4.77697 0
M  V30 62970 N 4927.13 2.04615 4.15333 0
M  V30 62971 H 4929.97 3.41248 7.98759 0
M  V30 62972 H 4930.24 2.5837 6.41742 0
M  V30 62973 H 4929.37 5.02657 6.42673 0
M  V30 62974 P 4925.41 6.144 6.45285 0
M  V30 62975 O 4925.19 7.54673 6.86199 0
M  V30 62976 O 4924.62 5.12391 7.179 0
M  V30 62977 O 4925.16 5.99158 4.88404 0
M  V30 62978 C 4926.1 6.60234 3.96415 0
M  V30 62979 C 4925.37 7.08259 2.72856 0
M  V30 62980 O 4925.16 5.9427 1.83651 0
M  V30 62981 C 4923.97 7.64886 2.9555 0
M  V30 62982 O 4923.58 8.53963 1.90717 0
M  V30 62983 C 4923.09 6.4116 2.90739 0
M  V30 62984 C 4923.8 5.55375 1.86963 0
M  V30 62985 N 4923.75 4.09664 2.15742 0
M  V30 62986 H 4926.59 7.45574 4.45629 0
M  V30 62987 H 4926.86 5.86232 3.67314 0
M  V30 62988 H 4925.99 7.84412 2.24479 0
M  V30 62989 P 4922.03 8.7635 1.60911 0
M  V30 62990 O 4921.81 10.1388 1.11561 0
M  V30 62991 O 4921.24 8.36503 2.79617 0
M  V30 62992 O 4921.78 7.71806 0.42951 0
M  V30 62993 C 4922.72 7.67148 -0.673689 0
M  V30 62994 C 4921.99 7.33374 -1.95559 0
M  V30 62995 O 4921.78 5.88721 -2.00726 0
M  V30 62996 C 4920.59 7.92526 -2.10483 0
M  V30 62997 O 4920.2 8.02971 -3.47653 0
M  V30 62998 C 4919.71 6.89602 -1.41652 0
M  V30 62999 C 4920.42 5.59201 -1.75185 0
M  V30 63000 N 4920.37 4.58235 -0.662552 0
M  V30 63001 H 4923.21 8.65116 -0.777161 0
M  V30 63002 H 4923.48 6.90173 -0.474152 0
M  V30 63003 H 4922.61 7.66548 -2.79458 0
M  V30 63004 P 4918.65 8.03563 -3.84925 0
M  V30 63005 O 4918.43 8.85821 -5.0569 0
M  V30 63006 O 4917.86 8.41101 -2.65469 0
M  V30 63007 O 4918.4 6.4965 -4.18908 0
M  V30 63008 C 4919.34 5.81037 -5.05421 0
M  V30 63009 C 4918.61 4.78366 -5.89277 0
M  V30 63010 O 4918.4 3.58302 -5.08433 0
M  V30 63011 C 4917.21 5.17448 -6.36119 0
M  V30 63012 O 4916.82 4.45271 -7.53232 0
M  V30 63013 C 4916.33 4.74639 -5.19936 0
M  V30 63014 C 4917.04 3.49432 -4.70418 0
M  V30 63015 N 4916.99 3.32099 -3.22613 0
M  V30 63016 C 4917.07 4.28245 -2.25527 0
M  V30 63017 N 4917 3.80823 -1.04874 0
M  V30 63018 C 4916.85 2.44571 -1.23535 0
M  V30 63019 C 4916.72 1.37068 -0.330675 0
M  V30 63020 N 4916.71 1.51472 0.990824 0
M  V30 63021 N 4916.6 0.138614 -0.848756 0
M  V30 63022 C 4916.61 -0.00675923 -2.16999 0
M  V30 63023 N 4916.73 0.904372 -3.11122 0
M  V30 63024 C 4916.85 2.12707 -2.56212 0
M  V30 63025 H 4919.83 6.54213 -5.71376 0
M  V30 63026 H 4920.1 5.30936 -4.43503 0
M  V30 63027 H 4919.23 4.55889 -6.76652 0
M  V30 63028 H 4916.58 2.61715 -5.17932 0
M  V30 63029 H 4916.3 5.52155 -4.41878 0
M  V30 63030 H 4915.31 4.51981 -5.53374 0
M  V30 63031 H 4917.14 6.25124 -6.55234 0
M  V30 63032 H 4917.18 5.34372 -2.47488 0
M  V30 63033 H 4916.8 2.45153 1.4078 0
M  V30 63034 H 4916.61 0.688422 1.59911 0
M  V30 63035 H 4916.5 -1.02584 -2.52346 0
M  V30 63036 P 4915.27 4.23843 -7.83734 0
M  V30 63037 O 4915.05 4.19407 -9.29784 0
M  V30 63038 O 4914.48 5.24426 -7.09156 0
M  V30 63039 O 4915.02 2.7935 -7.20758 0
M  V30 63040 C 4915.96 1.7299 -7.50419 0
M  V30 63041 C 4915.23 0.406376 -7.57911 0
M  V30 63042 O 4915.02 -0.0897726 -6.21935 0
M  V30 63043 C 4913.83 0.447224 -8.1878 0
M  V30 63044 O 4913.44 -0.825065 -8.71101 0
M  V30 63045 C 4912.95 0.783801 -6.99623 0
M  V30 63046 C 4913.66 0.0619192 -5.85967 0
M  V30 63047 N 4913.61 0.7859 -4.56281 0
M  V30 63048 H 4916.45 1.93423 -8.4679 0
M  V30 63049 H 4916.72 1.68181 -6.71046 0
M  V30 63050 H 4915.85 -0.289041 -8.15388 0
M  V30 63051 P 4911.89 -1.17771 -8.83182 0
M  V30 63052 O 4911.67 -2.07206 -9.98732 0
M  V30 63053 O 4911.1 0.0743816 -8.81969 0
M  V30 63054 O 4911.64 -1.97652 -7.47304 0
M  V30 63055 C 4912.58 -3.01133 -7.08783 0
M  V30 63056 C 4911.85 -4.12613 -6.37049 0
M  V30 63057 O 4911.64 -3.72827 -4.97879 0
M  V30 63058 C 4910.45 -4.45085 -6.88694 0
M  V30 63059 O 4910.06 -5.7877 -6.5624 0
M  V30 63060 C 4909.57 -3.47817 -6.12078 0
M  V30 63061 C 4910.28 -3.39414 -4.77697 0
M  V30 63062 N 4910.23 -2.04615 -4.15333 0
M  V30 63063 H 4913.07 -3.41248 -7.98759 0
M  V30 63064 H 4913.34 -2.5837 -6.41742 0
M  V30 63065 H 4912.47 -5.02657 -6.42673 0
M  V30 63066 P 4908.51 -6.144 -6.45285 0
M  V30 63067 O 4908.29 -7.54673 -6.86199 0
M  V30 63068 O 4907.72 -5.12391 -7.179 0
M  V30 63069 O 4908.26 -5.99158 -4.88404 0
M  V30 63070 C 4909.2 -6.60234 -3.96415 0
M  V30 63071 C 4908.47 -7.08259 -2.72856 0
M  V30 63072 O 4908.26 -5.9427 -1.83651 0
M  V30 63073 C 4907.07 -7.64886 -2.9555 0
M  V30 63074 O 4906.68 -8.53963 -1.90717 0
M  V30 63075 C 4906.19 -6.4116 -2.90739 0
M  V30 63076 C 4906.9 -5.55375 -1.86963 0
M  V30 63077 N 4906.85 -4.09664 -2.15742 0
M  V30 63078 H 4909.69 -7.45574 -4.45629 0
M  V30 63079 H 4909.96 -5.86232 -3.67314 0
M  V30 63080 H 4909.09 -7.84412 -2.24479 0
M  V30 63081 P 4905.13 -8.7635 -1.60911 0
M  V30 63082 O 4904.91 -10.1388 -1.11561 0
M  V30 63083 O 4904.34 -8.36503 -2.79617 0
M  V30 63084 O 4904.88 -7.71806 -0.42951 0
M  V30 63085 C 4905.82 -7.67148 0.673689 0
M  V30 63086 C 4905.09 -7.33374 1.95559 0
M  V30 63087 O 4904.88 -5.88721 2.00726 0
M  V30 63088 C 4903.69 -7.92526 2.10483 0
M  V30 63089 O 4903.3 -8.02971 3.47653 0
M  V30 63090 C 4902.81 -6.89602 1.41652 0
M  V30 63091 C 4903.52 -5.59201 1.75185 0
M  V30 63092 N 4903.47 -4.58301 0.657969 0
M  V30 63093 C 4903.55 -4.79019 -0.692603 0
M  V30 63094 N 4903.48 -3.69736 -1.38998 0
M  V30 63095 C 4903.33 -2.70474 -0.438135 0
M  V30 63096 C 4903.2 -1.30327 -0.538142 0
M  V30 63097 N 4903.19 -0.64304 -1.69192 0
M  V30 63098 N 4903.08 -0.611027 0.605183 0
M  V30 63099 C 4903.09 -1.27002 1.75953 0
M  V30 63100 N 4903.21 -2.56038 1.98546 0
M  V30 63101 C 4903.33 -3.22681 0.822541 0
M  V30 63102 H 4906.31 -8.65116 0.777161 0
M  V30 63103 H 4906.58 -6.9022 0.46725 0
M  V30 63104 H 4905.71 -7.66548 2.79458 0
M  V30 63105 H 4903.06 -5.16165 2.65183 0
M  V30 63106 H 4902.78 -7.06433 0.329384 0
M  V30 63107 H 4901.79 -6.90926 1.82021 0
M  V30 63108 H 4903.62 -8.90873 1.62657 0
M  V30 63109 H 4903.66 -5.77785 -1.13874 0
M  V30 63110 H 4903.28 -1.15585 -2.57991 0
M  V30 63111 H 4903.09 0.382989 -1.69835 0
M  V30 63112 H 4902.99 -0.653331 2.64449 0
M  V30 63113 P 4901.75 -8.03563 3.84925 0
M  V30 63114 O 4901.53 -8.85821 5.0569 0
M  V30 63115 O 4900.96 -8.41101 2.65469 0
M  V30 63116 O 4901.5 -6.4965 4.18908 0
M  V30 63117 C 4902.44 -5.81037 5.05421 0
M  V30 63118 C 4901.71 -4.78366 5.89277 0
M  V30 63119 O 4901.5 -3.58302 5.08433 0
M  V30 63120 C 4900.31 -5.17448 6.36119 0
M  V30 63121 O 4899.92 -4.45271 7.53232 0
M  V30 63122 C 4899.43 -4.74639 5.19936 0
M  V30 63123 C 4900.14 -3.49432 4.70418 0
M  V30 63124 N 4900.09 -3.32099 3.22613 0
M  V30 63125 H 4902.93 -6.54213 5.71376 0
M  V30 63126 H 4903.2 -5.30936 4.43503 0
M  V30 63127 H 4902.33 -4.55889 6.76652 0
M  V30 63128 H 4899.68 -2.61715 5.17932 0
M  V30 63129 H 4899.4 -5.52155 4.41878 0
M  V30 63130 H 4898.41 -4.51981 5.53374 0
M  V30 63131 H 4900.24 -6.25124 6.55234 0
M  V30 63132 P 4898.37 -4.23843 7.83734 0
M  V30 63133 O 4898.15 -4.19407 9.29784 0
M  V30 63134 O 4897.58 -5.24426 7.09156 0
M  V30 63135 O 4898.12 -2.7935 7.20758 0
M  V30 63136 C 4899.06 -1.7299 7.50419 0
M  V30 63137 C 4898.33 -0.406376 7.57911 0
M  V30 63138 O 4898.12 0.0897726 6.21935 0
M  V30 63139 C 4896.93 -0.447224 8.1878 0
M  V30 63140 O 4896.54 0.825065 8.71101 0
M  V30 63141 C 4896.05 -0.783801 6.99623 0
M  V30 63142 C 4896.76 -0.0619192 5.85967 0
M  V30 63143 N 4896.71 -0.790462 4.56202 0
M  V30 63144 H 4899.55 -1.93423 8.4679 0
M  V30 63145 H 4899.82 -1.68852 6.70877 0
M  V30 63146 H 4898.95 0.289041 8.15388 0
M  V30 63147 H 4896.3 0.927006 5.72848 0
M  V30 63148 H 4896.02 -1.86973 6.82036 0
M  V30 63149 H 4895.03 -0.403953 7.13357 0
M  V30 63150 H 4896.86 -1.20599 8.97534 0
M  V30 63151 P 4894.99 1.17771 8.83182 0
M  V30 63152 O 4894.77 2.07206 9.98732 0
M  V30 63153 O 4894.2 -0.0743816 8.81969 0
M  V30 63154 O 4894.74 1.97652 7.47304 0
M  V30 63155 C 4895.68 3.01055 7.08599 0
M  V30 63156 C 4894.95 4.12613 6.37049 0
M  V30 63157 O 4894.74 3.72827 4.97879 0
M  V30 63158 C 4893.55 4.45719 6.88164 0
M  V30 63159 O 4893.16 5.7877 6.5624 0
M  V30 63160 C 4892.67 3.47768 6.11991 0
M  V30 63161 C 4893.38 3.39356 4.77615 0
M  V30 63162 N 4893.33 2.04571 4.15244 0
M  V30 63163 C 4893.18 1.98587 2.78314 0
M  V30 63164 O 4893.09 2.98134 2.08835 0
M  V30 63165 N 4893.14 0.714467 2.24925 0
M  V30 63166 C 4893.23 -0.470001 2.94169 0
M  V30 63167 O 4893.18 -1.55587 2.35195 0
M  V30 63168 C 4893.38 -0.312541 4.36783 0
M  V30 63169 C 4893.49 -1.57711 5.16352 0
M  V30 63170 C 4893.43 0.914512 4.92583 0
M  V30 63171 H 4896.17 3.41169 7.98575 0
M  V30 63172 H 4896.44 2.58295 6.41556 0
M  V30 63173 H 4895.57 5.02657 6.42673 0
M  V30 63174 H 4892.92 4.11637 4.08885 0
M  V30 63175 H 4892.64 2.49626 6.61679 0
M  V30 63176 H 4891.65 3.86566 6.00778 0
M  V30 63177 H 4893.48 4.29943 7.96918 0
M  V30 63178 H 4893.55 1.00937 6.00374 0
M  V30 63179 H 4892.52 -1.80153 5.63503 0
M  V30 63180 H 4894.26 -1.4566 5.94104 0
M  V30 63181 H 4893.77 -2.40664 4.49645 0
M  V30 63182 H 4893.04 0.647622 1.25697 0
M  V30 63183 P 4891.61 6.144 6.45285 0
M  V30 63184 O 4891.39 7.54673 6.86199 0
M  V30 63185 O 4890.82 5.12391 7.179 0
M  V30 63186 O 4891.36 5.99158 4.88404 0
M  V30 63187 C 4892.3 6.60234 3.96415 0
M  V30 63188 C 4891.57 7.08259 2.72856 0
M  V30 63189 O 4891.36 5.9427 1.83651 0
M  V30 63190 C 4890.17 7.64886 2.9555 0
M  V30 63191 O 4889.78 8.53963 1.90717 0
M  V30 63192 C 4889.29 6.4116 2.90739 0
M  V30 63193 C 4890 5.55375 1.86963 0
M  V30 63194 N 4889.95 4.09664 2.15742 0
M  V30 63195 H 4892.79 7.45574 4.45629 0
M  V30 63196 H 4893.06 5.86232 3.67314 0
M  V30 63197 H 4892.19 7.84412 2.24479 0
M  V30 63198 P 4888.23 8.7635 1.60911 0
M  V30 63199 O 4888.01 10.1388 1.11561 0
M  V30 63200 O 4887.44 8.36503 2.79617 0
M  V30 63201 O 4887.98 7.71806 0.42951 0
M  V30 63202 C 4888.92 7.67148 -0.673689 0
M  V30 63203 C 4888.19 7.33374 -1.95559 0
M  V30 63204 O 4887.98 5.88721 -2.00726 0
M  V30 63205 C 4886.79 7.92526 -2.10483 0
M  V30 63206 O 4886.4 8.02971 -3.47653 0
M  V30 63207 C 4885.91 6.89602 -1.41652 0
M  V30 63208 C 4886.62 5.59201 -1.75185 0
M  V30 63209 N 4886.57 4.58301 -0.657969 0
M  V30 63210 H 4889.41 8.65116 -0.777161 0
M  V30 63211 H 4889.68 6.9022 -0.46725 0
M  V30 63212 H 4888.81 7.66548 -2.79458 0
M  V30 63213 H 4886.16 5.16165 -2.65183 0
M  V30 63214 H 4885.88 7.06433 -0.329384 0
M  V30 63215 H 4884.89 6.90926 -1.82021 0
M  V30 63216 H 4886.72 8.90873 -1.62657 0
M  V30 63217 P 4884.85 8.03563 -3.84925 0
M  V30 63218 O 4884.63 8.85821 -5.0569 0
M  V30 63219 O 4884.06 8.41101 -2.65469 0
M  V30 63220 O 4884.6 6.4965 -4.18908 0
M  V30 63221 C 4885.54 5.81037 -5.05421 0
M  V30 63222 C 4884.81 4.78366 -5.89277 0
M  V30 63223 O 4884.6 3.58302 -5.08433 0
M  V30 63224 C 4883.41 5.17448 -6.36119 0
M  V30 63225 O 4883.02 4.45271 -7.53232 0
M  V30 63226 C 4882.53 4.74639 -5.19936 0
M  V30 63227 C 4883.24 3.49432 -4.70418 0
M  V30 63228 N 4883.19 3.31776 -3.22945 0
M  V30 63229 H 4886.03 6.54213 -5.71376 0
M  V30 63230 H 4886.3 5.30492 -4.44033 0
M  V30 63231 H 4885.43 4.55889 -6.76652 0
M  V30 63232 P 4881.47 4.23843 -7.83734 0
M  V30 63233 O 4881.25 4.19407 -9.29784 0
M  V30 63234 O 4880.68 5.24426 -7.09156 0
M  V30 63235 O 4881.22 2.7935 -7.20758 0
M  V30 63236 C 4882.16 1.7299 -7.50419 0
M  V30 63237 C 4881.43 0.406376 -7.57911 0
M  V30 63238 O 4881.22 -0.0897726 -6.21935 0
M  V30 63239 C 4880.03 0.447224 -8.1878 0
M  V30 63240 O 4879.64 -0.825065 -8.71101 0
M  V30 63241 C 4879.15 0.783801 -6.99623 0
M  V30 63242 C 4879.86 0.0619192 -5.85967 0
M  V30 63243 N 4879.81 0.7859 -4.56281 0
M  V30 63244 H 4882.65 1.93423 -8.4679 0
M  V30 63245 H 4882.92 1.68181 -6.71046 0
M  V30 63246 H 4882.05 -0.289041 -8.15388 0
M  V30 63247 P 4878.09 -1.17771 -8.83182 0
M  V30 63248 O 4877.87 -2.07206 -9.98732 0
M  V30 63249 O 4877.3 0.0743816 -8.81969 0
M  V30 63250 O 4877.84 -1.97652 -7.47304 0
M  V30 63251 C 4878.78 -3.01055 -7.08599 0
M  V30 63252 C 4878.05 -4.12613 -6.37049 0
M  V30 63253 O 4877.84 -3.72827 -4.97879 0
M  V30 63254 C 4876.65 -4.45719 -6.88164 0
M  V30 63255 O 4876.26 -5.7877 -6.5624 0
M  V30 63256 C 4875.77 -3.47768 -6.11991 0
M  V30 63257 C 4876.48 -3.39356 -4.77615 0
M  V30 63258 N 4876.43 -2.04571 -4.15244 0
M  V30 63259 C 4876.28 -1.98587 -2.78314 0
M  V30 63260 O 4876.19 -2.98134 -2.08835 0
M  V30 63261 N 4876.24 -0.714467 -2.24925 0
M  V30 63262 C 4876.33 0.470001 -2.94169 0
M  V30 63263 O 4876.28 1.55587 -2.35195 0
M  V30 63264 C 4876.48 0.312541 -4.36783 0
M  V30 63265 C 4876.59 1.57711 -5.16352 0
M  V30 63266 C 4876.53 -0.914512 -4.92583 0
M  V30 63267 H 4879.27 -3.41169 -7.98575 0
M  V30 63268 H 4879.54 -2.58295 -6.41556 0
M  V30 63269 H 4878.67 -5.02657 -6.42673 0
M  V30 63270 H 4876.02 -4.11637 -4.08885 0
M  V30 63271 H 4875.74 -2.49626 -6.61679 0
M  V30 63272 H 4874.75 -3.86566 -6.00778 0
M  V30 63273 H 4876.58 -4.29943 -7.96918 0
M  V30 63274 H 4876.65 -1.00937 -6.00374 0
M  V30 63275 H 4875.62 1.80153 -5.63503 0
M  V30 63276 H 4877.36 1.4566 -5.94104 0
M  V30 63277 H 4876.87 2.40664 -4.49645 0
M  V30 63278 H 4876.14 -0.647622 -1.25697 0
M  V30 63279 P 4874.71 -6.144 -6.45285 0
M  V30 63280 O 4874.49 -7.54673 -6.86199 0
M  V30 63281 O 4873.92 -5.12391 -7.179 0
M  V30 63282 O 4874.46 -5.99158 -4.88404 0
M  V30 63283 C 4875.4 -6.60234 -3.96415 0
M  V30 63284 C 4874.67 -7.08259 -2.72856 0
M  V30 63285 O 4874.46 -5.9427 -1.83651 0
M  V30 63286 C 4873.27 -7.64886 -2.9555 0
M  V30 63287 O 4872.88 -8.53963 -1.90717 0
M  V30 63288 C 4872.39 -6.4116 -2.90739 0
M  V30 63289 C 4873.1 -5.55375 -1.86963 0
M  V30 63290 N 4873.05 -4.09448 -2.16152 0
M  V30 63291 H 4875.89 -7.45574 -4.45629 0
M  V30 63292 H 4876.16 -5.85864 -3.679 0
M  V30 63293 H 4875.29 -7.84412 -2.24479 0
M  V30 63294 H 4872.64 -5.73457 -0.888562 0
M  V30 63295 H 4872.36 -5.90877 -3.88583 0
M  V30 63296 H 4871.37 -6.6596 -2.58858 0
M  V30 63297 H 4873.2 -8.16339 -3.92049 0
M  V30 63298 P 4871.33 -8.7635 -1.60911 0
M  V30 63299 O 4871.11 -10.1388 -1.11561 0
M  V30 63300 O 4870.54 -8.36503 -2.79617 0
M  V30 63301 O 4871.08 -7.71806 -0.42951 0
M  V30 63302 C 4872.02 -7.67148 0.673689 0
M  V30 63303 C 4871.29 -7.33374 1.95559 0
M  V30 63304 O 4871.08 -5.88721 2.00726 0
M  V30 63305 C 4869.89 -7.92526 2.10483 0
M  V30 63306 O 4869.5 -8.02971 3.47653 0
M  V30 63307 C 4869.01 -6.89602 1.41652 0
M  V30 63308 C 4869.72 -5.59201 1.75185 0
M  V30 63309 N 4869.67 -4.58301 0.657969 0
M  V30 63310 H 4872.51 -8.65116 0.777161 0
M  V30 63311 H 4872.78 -6.9022 0.46725 0
M  V30 63312 H 4871.91 -7.66548 2.79458 0
M  V30 63313 H 4869.26 -5.16165 2.65183 0
M  V30 63314 H 4868.98 -7.06433 0.329384 0
M  V30 63315 H 4867.99 -6.90926 1.82021 0
M  V30 63316 H 4869.82 -8.90873 1.62657 0
M  V30 63317 P 4867.95 -8.03563 3.84925 0
M  V30 63318 O 4867.73 -8.85821 5.0569 0
M  V30 63319 O 4867.16 -8.41101 2.65469 0
M  V30 63320 O 4867.7 -6.4965 4.18908 0
M  V30 63321 C 4868.64 -5.81037 5.05421 0
M  V30 63322 C 4867.91 -4.78366 5.89277 0
M  V30 63323 O 4867.7 -3.58302 5.08433 0
M  V30 63324 C 4866.51 -5.17448 6.36119 0
M  V30 63325 O 4866.12 -4.45271 7.53232 0
M  V30 63326 C 4865.63 -4.74639 5.19936 0
M  V30 63327 C 4866.34 -3.49432 4.70418 0
M  V30 63328 N 4866.29 -3.31776 3.22945 0
M  V30 63329 H 4869.13 -6.54213 5.71376 0
M  V30 63330 H 4869.4 -5.30492 4.44033 0
M  V30 63331 H 4868.53 -4.55889 6.76652 0
M  V30 63332 P 4864.57 -4.23843 7.83734 0
M  V30 63333 O 4864.35 -4.19407 9.29784 0
M  V30 63334 O 4863.78 -5.24426 7.09156 0
M  V30 63335 O 4864.32 -2.7935 7.20758 0
M  V30 63336 C 4865.26 -1.7299 7.50419 0
M  V30 63337 C 4864.53 -0.406376 7.57911 0
M  V30 63338 O 4864.32 0.0897726 6.21935 0
M  V30 63339 C 4863.13 -0.447224 8.1878 0
M  V30 63340 O 4862.74 0.825065 8.71101 0
M  V30 63341 C 4862.25 -0.783801 6.99623 0
M  V30 63342 C 4862.96 -0.0619192 5.85967 0
M  V30 63343 N 4862.91 -0.7859 4.56281 0
M  V30 63344 H 4865.75 -1.93423 8.4679 0
M  V30 63345 H 4866.02 -1.68181 6.71046 0
M  V30 63346 H 4865.15 0.289041 8.15388 0
M  V30 63347 P 4861.19 1.17771 8.83182 0
M  V30 63348 O 4860.97 2.07206 9.98732 0
M  V30 63349 O 4860.4 -0.0743816 8.81969 0
M  V30 63350 O 4860.94 1.97652 7.47304 0
M  V30 63351 C 4861.88 3.01133 7.08783 0
M  V30 63352 C 4861.15 4.12613 6.37049 0
M  V30 63353 O 4860.94 3.72827 4.97879 0
M  V30 63354 C 4859.75 4.45085 6.88694 0
M  V30 63355 O 4859.36 5.7877 6.5624 0
M  V30 63356 C 4858.87 3.47817 6.12078 0
M  V30 63357 C 4859.58 3.39414 4.77697 0
M  V30 63358 N 4859.53 2.04615 4.15333 0
M  V30 63359 H 4862.37 3.41248 7.98759 0
M  V30 63360 H 4862.64 2.5837 6.41742 0
M  V30 63361 H 4861.77 5.02657 6.42673 0
M  V30 63362 P 4857.81 6.144 6.45285 0
M  V30 63363 O 4857.59 7.54673 6.86199 0
M  V30 63364 O 4857.02 5.12391 7.179 0
M  V30 63365 O 4857.56 5.99158 4.88404 0
M  V30 63366 C 4858.5 6.60234 3.96415 0
M  V30 63367 C 4857.77 7.08259 2.72856 0
M  V30 63368 O 4857.56 5.9427 1.83651 0
M  V30 63369 C 4856.37 7.64886 2.9555 0
M  V30 63370 O 4855.98 8.53963 1.90717 0
M  V30 63371 C 4855.49 6.4116 2.90739 0
M  V30 63372 C 4856.2 5.55375 1.86963 0
M  V30 63373 N 4856.15 4.09664 2.15742 0
M  V30 63374 H 4858.99 7.45574 4.45629 0
M  V30 63375 H 4859.26 5.86232 3.67314 0
M  V30 63376 H 4858.39 7.84412 2.24479 0
M  V30 63377 P 4854.43 8.7635 1.60911 0
M  V30 63378 O 4854.21 10.1388 1.11561 0
M  V30 63379 O 4853.64 8.36503 2.79617 0
M  V30 63380 O 4854.18 7.71806 0.42951 0
M  V30 63381 C 4855.12 7.67148 -0.673689 0
M  V30 63382 C 4854.39 7.33374 -1.95559 0
M  V30 63383 O 4854.18 5.88721 -2.00726 0
M  V30 63384 C 4852.99 7.92526 -2.10483 0
M  V30 63385 O 4852.6 8.02971 -3.47653 0
M  V30 63386 C 4852.11 6.89602 -1.41652 0
M  V30 63387 C 4852.82 5.59201 -1.75185 0
M  V30 63388 N 4852.77 4.58235 -0.662552 0
M  V30 63389 H 4855.61 8.65116 -0.777161 0
M  V30 63390 H 4855.88 6.90173 -0.474152 0
M  V30 63391 H 4855.01 7.66548 -2.79458 0
M  V30 63392 P 4851.05 8.03563 -3.84925 0
M  V30 63393 O 4850.83 8.85821 -5.0569 0
M  V30 63394 O 4850.26 8.41101 -2.65469 0
M  V30 63395 O 4850.8 6.4965 -4.18908 0
M  V30 63396 C 4851.74 5.81037 -5.05421 0
M  V30 63397 C 4851.01 4.78366 -5.89277 0
M  V30 63398 O 4850.8 3.58302 -5.08433 0
M  V30 63399 C 4849.61 5.17448 -6.36119 0
M  V30 63400 O 4849.22 4.45271 -7.53232 0
M  V30 63401 C 4848.73 4.74639 -5.19936 0
M  V30 63402 C 4849.44 3.49432 -4.70418 0
M  V30 63403 N 4849.39 3.31776 -3.22945 0
M  V30 63404 H 4852.23 6.54213 -5.71376 0
M  V30 63405 H 4852.5 5.30492 -4.44033 0
M  V30 63406 H 4851.63 4.55889 -6.76652 0
M  V30 63407 P 4847.67 4.23843 -7.83734 0
M  V30 63408 O 4847.45 4.19407 -9.29784 0
M  V30 63409 O 4846.88 5.24426 -7.09156 0
M  V30 63410 O 4847.42 2.7935 -7.20758 0
M  V30 63411 C 4848.36 1.7299 -7.50419 0
M  V30 63412 C 4847.63 0.406376 -7.57911 0
M  V30 63413 O 4847.42 -0.0897726 -6.21935 0
M  V30 63414 C 4846.23 0.447224 -8.1878 0
M  V30 63415 O 4845.84 -0.825065 -8.71101 0
M  V30 63416 C 4845.35 0.783801 -6.99623 0
M  V30 63417 C 4846.06 0.0619192 -5.85967 0
M  V30 63418 N 4846.01 0.790462 -4.56202 0
M  V30 63419 H 4848.85 1.93423 -8.4679 0
M  V30 63420 H 4849.12 1.68852 -6.70877 0
M  V30 63421 H 4848.25 -0.289041 -8.15388 0
M  V30 63422 H 4845.6 -0.927006 -5.72848 0
M  V30 63423 H 4845.32 1.86973 -6.82036 0
M  V30 63424 H 4844.33 0.403953 -7.13357 0
M  V30 63425 H 4846.16 1.20599 -8.97534 0
M  V30 63426 P 4844.29 -1.17771 -8.83182 0
M  V30 63427 O 4844.07 -2.07206 -9.98732 0
M  V30 63428 O 4843.5 0.0743816 -8.81969 0
M  V30 63429 O 4844.04 -1.97652 -7.47304 0
M  V30 63430 C 4844.98 -3.01133 -7.08783 0
M  V30 63431 C 4844.25 -4.12613 -6.37049 0
M  V30 63432 O 4844.04 -3.72827 -4.97879 0
M  V30 63433 C 4842.85 -4.45085 -6.88694 0
M  V30 63434 O 4842.46 -5.7877 -6.5624 0
M  V30 63435 C 4841.97 -3.47817 -6.12078 0
M  V30 63436 C 4842.68 -3.39414 -4.77697 0
M  V30 63437 N 4842.63 -2.04199 -4.15538 0
M  V30 63438 H 4845.47 -3.41248 -7.98759 0
M  V30 63439 H 4845.74 -2.57728 -6.42 0
M  V30 63440 H 4844.87 -5.02657 -6.42673 0
M  V30 63441 H 4842.22 -4.11708 -4.08956 0
M  V30 63442 H 4841.94 -2.49626 -6.61679 0
M  V30 63443 H 4840.95 -3.8662 -6.00862 0
M  V30 63444 H 4842.78 -4.29991 -7.97006 0
M  V30 63445 P 4840.91 -6.144 -6.45285 0
M  V30 63446 O 4840.69 -7.54673 -6.86199 0
M  V30 63447 O 4840.12 -5.12391 -7.179 0
M  V30 63448 O 4840.66 -5.99158 -4.88404 0
M  V30 63449 C 4841.6 -6.60234 -3.96415 0
M  V30 63450 C 4840.87 -7.08259 -2.72856 0
M  V30 63451 O 4840.66 -5.9427 -1.83651 0
M  V30 63452 C 4839.47 -7.64886 -2.9555 0
M  V30 63453 O 4839.08 -8.53963 -1.90717 0
M  V30 63454 C 4838.59 -6.4116 -2.90739 0
M  V30 63455 C 4839.3 -5.55375 -1.86963 0
M  V30 63456 N 4839.25 -4.09664 -2.15742 0
M  V30 63457 C 4839.33 -3.44381 -3.37233 0
M  V30 63458 N 4839.25 -2.14131 -3.28347 0
M  V30 63459 C 4839.11 -1.90247 -1.91588 0
M  V30 63460 C 4838.98 -0.683992 -1.20892 0
M  V30 63461 N 4838.86 -0.903396 0.173998 0
M  V30 63462 C 4838.86 -2.14171 0.784879 0
M  V30 63463 N 4838.73 -2.1435 2.11317 0
M  V30 63464 N 4838.99 -3.28784 0.119316 0
M  V30 63465 C 4839.11 -3.0977 -1.22194 0
M  V30 63466 H 4842.09 -7.45574 -4.45629 0
M  V30 63467 H 4842.36 -5.86232 -3.67314 0
M  V30 63468 H 4841.49 -7.84412 -2.24479 0
M  V30 63469 P 4837.53 -8.7635 -1.60911 0
M  V30 63470 O 4837.31 -10.1388 -1.11561 0
M  V30 63471 O 4836.74 -8.36503 -2.79617 0
M  V30 63472 O 4837.28 -7.71806 -0.42951 0
M  V30 63473 C 4838.22 -7.66948 0.673514 0
M  V30 63474 C 4837.49 -7.33374 1.95559 0
M  V30 63475 O 4837.28 -5.88721 2.00726 0
M  V30 63476 C 4836.09 -7.92218 2.1125 0
M  V30 63477 O 4835.7 -8.02971 3.47653 0
M  V30 63478 C 4835.21 -6.89504 1.41631 0
M  V30 63479 C 4835.92 -5.59106 1.75155 0
M  V30 63480 N 4835.87 -4.58136 0.662409 0
M  V30 63481 C 4835.72 -3.26059 1.02863 0
M  V30 63482 O 4835.63 -2.90743 2.19009 0
M  V30 63483 N 4835.68 -2.35995 -0.0155585 0
M  V30 63484 C 4835.77 -2.65248 -1.35603 0
M  V30 63485 O 4835.72 -1.75605 -2.20651 0
M  V30 63486 C 4835.92 -4.05747 -1.64698 0
M  V30 63487 C 4836.03 -4.42345 -3.09553 0
M  V30 63488 C 4835.97 -4.96734 -0.652411 0
M  V30 63489 H 4838.71 -8.64917 0.776982 0
M  V30 63490 H 4838.98 -6.89974 0.474015 0
M  V30 63491 H 4838.11 -7.66548 2.79458 0
M  V30 63492 H 4835.46 -5.16076 2.65138 0
M  V30 63493 H 4835.18 -7.06433 0.329384 0
M  V30 63494 H 4834.19 -6.90829 1.81996 0
M  V30 63495 H 4836.02 -8.90774 1.62639 0
M  V30 63496 H 4836.09 -6.02181 -0.895285 0
M  V30 63497 H 4835.06 -4.80252 -3.45468 0
M  V30 63498 H 4836.8 -5.20015 -3.22119 0
M  V30 63499 H 4836.31 -3.53269 -3.67833 0
M  V30 63500 H 4835.58 -1.39558 0.227499 0
M  V30 63501 P 4834.15 -8.03563 3.84925 0
M  V30 63502 O 4833.93 -8.85821 5.0569 0
M  V30 63503 O 4833.36 -8.41101 2.65469 0
M  V30 63504 O 4833.9 -6.4965 4.18908 0
M  V30 63505 C 4834.84 -5.81037 5.05421 0
M  V30 63506 C 4834.11 -4.78366 5.89277 0
M  V30 63507 O 4833.9 -3.58302 5.08433 0
M  V30 63508 C 4832.71 -5.17448 6.36119 0
M  V30 63509 O 4832.32 -4.45271 7.53232 0
M  V30 63510 C 4831.83 -4.74639 5.19936 0
M  V30 63511 C 4832.54 -3.49432 4.70418 0
M  V30 63512 N 4832.49 -3.31776 3.22945 0
M  V30 63513 H 4835.33 -6.54213 5.71376 0
M  V30 63514 H 4835.6 -5.30492 4.44033 0
M  V30 63515 H 4834.73 -4.55889 6.76652 0
M  V30 63516 P 4830.77 -4.23843 7.83734 0
M  V30 63517 O 4830.55 -4.19407 9.29784 0
M  V30 63518 O 4829.98 -5.24426 7.09156 0
M  V30 63519 O 4830.52 -2.7935 7.20758 0
M  V30 63520 C 4831.46 -1.7299 7.50419 0
M  V30 63521 C 4830.73 -0.406376 7.57911 0
M  V30 63522 O 4830.52 0.0897726 6.21935 0
M  V30 63523 C 4829.33 -0.447224 8.1878 0
M  V30 63524 O 4828.94 0.825065 8.71101 0
M  V30 63525 C 4828.45 -0.783801 6.99623 0
M  V30 63526 C 4829.16 -0.0619192 5.85967 0
M  V30 63527 N 4829.11 -0.7859 4.56281 0
M  V30 63528 H 4831.95 -1.93423 8.4679 0
M  V30 63529 H 4832.22 -1.68181 6.71046 0
M  V30 63530 H 4831.35 0.289041 8.15388 0
M  V30 63531 P 4827.39 1.17771 8.83182 0
M  V30 63532 O 4827.17 2.07206 9.98732 0
M  V30 63533 O 4826.6 -0.0743816 8.81969 0
M  V30 63534 O 4827.14 1.97652 7.47304 0
M  V30 63535 C 4828.08 3.01133 7.08783 0
M  V30 63536 C 4827.35 4.12613 6.37049 0
M  V30 63537 O 4827.14 3.72827 4.97879 0
M  V30 63538 C 4825.95 4.45085 6.88694 0
M  V30 63539 O 4825.56 5.7877 6.5624 0
M  V30 63540 C 4825.07 3.47817 6.12078 0
M  V30 63541 C 4825.78 3.39414 4.77697 0
M  V30 63542 N 4825.73 2.04615 4.15333 0
M  V30 63543 H 4828.57 3.41248 7.98759 0
M  V30 63544 H 4828.84 2.5837 6.41742 0
M  V30 63545 H 4827.97 5.02657 6.42673 0
M  V30 63546 P 4824.01 6.144 6.45285 0
M  V30 63547 O 4823.79 7.54673 6.86199 0
M  V30 63548 O 4823.22 5.12391 7.179 0
M  V30 63549 O 4823.76 5.99158 4.88404 0
M  V30 63550 C 4824.7 6.60062 3.96313 0
M  V30 63551 C 4823.97 7.08259 2.72856 0
M  V30 63552 O 4823.76 5.9427 1.83651 0
M  V30 63553 C 4822.57 7.65087 2.94749 0
M  V30 63554 O 4822.18 8.53963 1.90717 0
M  V30 63555 C 4821.69 6.41069 2.90698 0
M  V30 63556 C 4822.4 5.5528 1.86931 0
M  V30 63557 N 4822.35 4.09575 2.15696 0
M  V30 63558 C 4822.2 3.24249 1.08435 0
M  V30 63559 O 4822.11 3.63946 -0.0628747 0
M  V30 63560 N 4822.16 1.90009 1.39973 0
M  V30 63561 C 4822.25 1.34884 2.65614 0
M  V30 63562 C 4822.4 2.3145 3.71736 0
M  V30 63563 C 4822.45 3.63518 3.44754 0
M  V30 63564 H 4825.19 7.45402 4.45526 0
M  V30 63565 H 4825.46 5.86062 3.67208 0
M  V30 63566 H 4824.59 7.84412 2.24479 0
M  V30 63567 H 4821.94 5.73358 0.888409 0
M  V30 63568 H 4821.66 5.90877 3.88583 0
M  V30 63569 H 4820.67 6.65867 2.58821 0
M  V30 63570 H 4822.5 8.16248 3.92006 0
M  V30 63571 H 4822.57 4.34551 4.26383 0
M  V30 63572 P 4820.63 8.7635 1.60911 0
M  V30 63573 O 4820.41 10.1388 1.11561 0
M  V30 63574 O 4819.84 8.36503 2.79617 0
M  V30 63575 O 4820.38 7.71806 0.42951 0
M  V30 63576 C 4821.32 7.67148 -0.673689 0
M  V30 63577 C 4820.59 7.33374 -1.95559 0
M  V30 63578 O 4820.38 5.88721 -2.00726 0
M  V30 63579 C 4819.19 7.92526 -2.10483 0
M  V30 63580 O 4818.8 8.02971 -3.47653 0
M  V30 63581 C 4818.31 6.89602 -1.41652 0
M  V30 63582 C 4819.02 5.59201 -1.75185 0
M  V30 63583 N 4818.97 4.58301 -0.657969 0
M  V30 63584 H 4821.81 8.65116 -0.777161 0
M  V30 63585 H 4822.08 6.9022 -0.46725 0
M  V30 63586 H 4821.21 7.66548 -2.79458 0
M  V30 63587 H 4818.56 5.16165 -2.65183 0
M  V30 63588 H 4818.28 7.06433 -0.329384 0
M  V30 63589 H 4817.29 6.90926 -1.82021 0
M  V30 63590 H 4819.12 8.90873 -1.62657 0
M  V30 63591 P 4817.25 8.03563 -3.84925 0
M  V30 63592 O 4817.03 8.85821 -5.0569 0
M  V30 63593 O 4816.46 8.41101 -2.65469 0
M  V30 63594 O 4817 6.4965 -4.18908 0
M  V30 63595 C 4817.94 5.80886 -5.05289 0
M  V30 63596 C 4817.21 4.78366 -5.89277 0
M  V30 63597 O 4817 3.58302 -5.08433 0
M  V30 63598 C 4815.81 5.16748 -6.36559 0
M  V30 63599 O 4815.42 4.45271 -7.53232 0
M  V30 63600 C 4814.93 4.74572 -5.19863 0
M  V30 63601 C 4815.64 3.49373 -4.70338 0
M  V30 63602 N 4815.59 3.31704 -3.22876 0
M  V30 63603 C 4815.44 2.03326 -2.74871 0
M  V30 63604 O 4815.35 1.06486 -3.48076 0
M  V30 63605 N 4815.4 1.91838 -1.37456 0
M  V30 63606 C 4815.49 2.94295 -0.462035 0
M  V30 63607 C 4815.64 4.25064 -1.05249 0
M  V30 63608 C 4815.69 4.40214 -2.39192 0
M  V30 63609 H 4818.43 6.54063 -5.71245 0
M  V30 63610 H 4818.7 5.30339 -4.43905 0
M  V30 63611 H 4817.83 4.55889 -6.76652 0
M  V30 63612 H 4815.18 2.6167 -5.17842 0
M  V30 63613 H 4814.9 5.52155 -4.41878 0
M  V30 63614 H 4813.91 4.51918 -5.53297 0
M  V30 63615 H 4815.74 6.25055 -6.55162 0
M  V30 63616 H 4815.81 5.39798 -2.81523 0
M  V30 63617 P 4813.87 4.23843 -7.83734 0
M  V30 63618 O 4813.65 4.19407 -9.29784 0
M  V30 63619 O 4813.08 5.24426 -7.09156 0
M  V30 63620 O 4813.62 2.7935 -7.20758 0
M  V30 63621 C 4814.56 1.7299 -7.50419 0
M  V30 63622 C 4813.83 0.406376 -7.57911 0
M  V30 63623 O 4813.62 -0.0897726 -6.21935 0
M  V30 63624 C 4812.43 0.447224 -8.1878 0
M  V30 63625 O 4812.04 -0.825065 -8.71101 0
M  V30 63626 C 4811.55 0.783801 -6.99623 0
M  V30 63627 C 4812.26 0.0619192 -5.85967 0
M  V30 63628 N 4812.21 0.7859 -4.56281 0
M  V30 63629 H 4815.05 1.93423 -8.4679 0
M  V30 63630 H 4815.32 1.68181 -6.71046 0
M  V30 63631 H 4814.45 -0.289041 -8.15388 0
M  V30 63632 P 4810.49 -1.17771 -8.83182 0
M  V30 63633 O 4810.27 -2.07206 -9.98732 0
M  V30 63634 O 4809.7 0.0743816 -8.81969 0
M  V30 63635 O 4810.24 -1.97652 -7.47304 0
M  V30 63636 C 4811.18 -3.01055 -7.08599 0
M  V30 63637 C 4810.45 -4.12613 -6.37049 0
M  V30 63638 O 4810.24 -3.72827 -4.97879 0
M  V30 63639 C 4809.05 -4.45719 -6.88164 0
M  V30 63640 O 4808.66 -5.7877 -6.5624 0
M  V30 63641 C 4808.17 -3.47768 -6.11991 0
M  V30 63642 C 4808.88 -3.39356 -4.77615 0
M  V30 63643 N 4808.83 -2.04571 -4.15244 0
M  V30 63644 C 4808.68 -1.98587 -2.78314 0
M  V30 63645 O 4808.59 -2.98134 -2.08835 0
M  V30 63646 N 4808.64 -0.714467 -2.24925 0
M  V30 63647 C 4808.73 0.470001 -2.94169 0
M  V30 63648 O 4808.68 1.55587 -2.35195 0
M  V30 63649 C 4808.88 0.312541 -4.36783 0
M  V30 63650 C 4808.99 1.57711 -5.16352 0
M  V30 63651 C 4808.93 -0.914512 -4.92583 0
M  V30 63652 H 4811.67 -3.41169 -7.98575 0
M  V30 63653 H 4811.94 -2.58295 -6.41556 0
M  V30 63654 H 4811.07 -5.02657 -6.42673 0
M  V30 63655 H 4808.42 -4.11637 -4.08885 0
M  V30 63656 H 4808.14 -2.49626 -6.61679 0
M  V30 63657 H 4807.15 -3.86566 -6.00778 0
M  V30 63658 H 4808.98 -4.29943 -7.96918 0
M  V30 63659 H 4809.05 -1.00937 -6.00374 0
M  V30 63660 H 4808.02 1.80153 -5.63503 0
M  V30 63661 H 4809.76 1.4566 -5.94104 0
M  V30 63662 H 4809.27 2.40664 -4.49645 0
M  V30 63663 H 4808.54 -0.647622 -1.25697 0
M  V30 63664 P 4807.11 -6.144 -6.45285 0
M  V30 63665 O 4806.89 -7.54673 -6.86199 0
M  V30 63666 O 4806.32 -5.12391 -7.179 0
M  V30 63667 O 4806.86 -5.99158 -4.88404 0
M  V30 63668 C 4807.8 -6.60234 -3.96415 0
M  V30 63669 C 4807.07 -7.08259 -2.72856 0
M  V30 63670 O 4806.86 -5.9427 -1.83651 0
M  V30 63671 C 4805.67 -7.64886 -2.9555 0
M  V30 63672 O 4805.28 -8.53963 -1.90717 0
M  V30 63673 C 4804.79 -6.4116 -2.90739 0
M  V30 63674 C 4805.5 -5.55375 -1.86963 0
M  V30 63675 N 4805.45 -4.09448 -2.16152 0
M  V30 63676 H 4808.29 -7.45574 -4.45629 0
M  V30 63677 H 4808.56 -5.85864 -3.679 0
M  V30 63678 H 4807.69 -7.84412 -2.24479 0
M  V30 63679 H 4805.04 -5.73457 -0.888562 0
M  V30 63680 H 4804.76 -5.90877 -3.88583 0
M  V30 63681 H 4803.77 -6.6596 -2.58858 0
M  V30 63682 H 4805.6 -8.16339 -3.92049 0
M  V30 63683 P 4803.73 -8.7635 -1.60911 0
M  V30 63684 O 4803.51 -10.1388 -1.11561 0
M  V30 63685 O 4802.94 -8.36503 -2.79617 0
M  V30 63686 O 4803.48 -7.71806 -0.42951 0
M  V30 63687 C 4804.42 -7.67148 0.673689 0
M  V30 63688 C 4803.69 -7.33374 1.95559 0
M  V30 63689 O 4803.48 -5.88721 2.00726 0
M  V30 63690 C 4802.29 -7.92526 2.10483 0
M  V30 63691 O 4801.9 -8.02971 3.47653 0
M  V30 63692 C 4801.41 -6.89602 1.41652 0
M  V30 63693 C 4802.12 -5.59201 1.75185 0
M  V30 63694 N 4802.07 -4.58235 0.662552 0
M  V30 63695 H 4804.91 -8.65116 0.777161 0
M  V30 63696 H 4805.18 -6.90173 0.474152 0
M  V30 63697 H 4804.31 -7.66548 2.79458 0
M  V30 63698 P 4800.35 -8.03563 3.84925 0
M  V30 63699 O 4800.13 -8.85821 5.0569 0
M  V30 63700 O 4799.56 -8.41101 2.65469 0
M  V30 63701 O 4800.1 -6.4965 4.18908 0
M  V30 63702 C 4801.04 -5.81037 5.05421 0
M  V30 63703 C 4800.31 -4.78366 5.89277 0
M  V30 63704 O 4800.1 -3.58302 5.08433 0
M  V30 63705 C 4798.91 -5.17448 6.36119 0
M  V30 63706 O 4798.52 -4.45271 7.53232 0
M  V30 63707 C 4798.03 -4.74639 5.19936 0
M  V30 63708 C 4798.74 -3.49432 4.70418 0
M  V30 63709 N 4798.69 -3.31776 3.22945 0
M  V30 63710 H 4801.53 -6.54213 5.71376 0
M  V30 63711 H 4801.8 -5.30492 4.44033 0
M  V30 63712 H 4800.93 -4.55889 6.76652 0
M  V30 63713 P 4796.97 -4.23843 7.83734 0
M  V30 63714 O 4796.75 -4.19407 9.29784 0
M  V30 63715 O 4796.18 -5.24426 7.09156 0
M  V30 63716 O 4796.72 -2.7935 7.20758 0
M  V30 63717 C 4797.66 -1.7299 7.50419 0
M  V30 63718 C 4796.93 -0.406376 7.57911 0
M  V30 63719 O 4796.72 0.0897726 6.21935 0
M  V30 63720 C 4795.53 -0.447224 8.1878 0
M  V30 63721 O 4795.14 0.825065 8.71101 0
M  V30 63722 C 4794.65 -0.783801 6.99623 0
M  V30 63723 C 4795.36 -0.0619192 5.85967 0
M  V30 63724 N 4795.31 -0.790462 4.56202 0
M  V30 63725 H 4798.15 -1.93423 8.4679 0
M  V30 63726 H 4798.42 -1.68852 6.70877 0
M  V30 63727 H 4797.55 0.289041 8.15388 0
M  V30 63728 H 4794.9 0.927006 5.72848 0
M  V30 63729 H 4794.62 -1.86973 6.82036 0
M  V30 63730 H 4793.63 -0.403953 7.13357 0
M  V30 63731 H 4795.46 -1.20599 8.97534 0
M  V30 63732 P 4793.59 1.17771 8.83182 0
M  V30 63733 O 4793.37 2.07206 9.98732 0
M  V30 63734 O 4792.8 -0.0743816 8.81969 0
M  V30 63735 O 4793.34 1.97652 7.47304 0
M  V30 63736 C 4794.28 3.01133 7.08783 0
M  V30 63737 C 4793.55 4.12613 6.37049 0
M  V30 63738 O 4793.34 3.72827 4.97879 0
M  V30 63739 C 4792.15 4.45085 6.88694 0
M  V30 63740 O 4791.76 5.7877 6.5624 0
M  V30 63741 C 4791.27 3.47817 6.12078 0
M  V30 63742 C 4791.98 3.39414 4.77697 0
M  V30 63743 N 4791.93 2.04615 4.15333 0
M  V30 63744 H 4794.77 3.41248 7.98759 0
M  V30 63745 H 4795.04 2.5837 6.41742 0
M  V30 63746 H 4794.17 5.02657 6.42673 0
M  V30 63747 P 4790.21 6.144 6.45285 0
M  V30 63748 O 4789.99 7.54673 6.86199 0
M  V30 63749 O 4789.42 5.12391 7.179 0
M  V30 63750 O 4789.96 5.99158 4.88404 0
M  V30 63751 C 4790.9 6.60234 3.96415 0
M  V30 63752 C 4790.17 7.08259 2.72856 0
M  V30 63753 O 4789.96 5.9427 1.83651 0
M  V30 63754 C 4788.77 7.64886 2.9555 0
M  V30 63755 O 4788.38 8.53963 1.90717 0
M  V30 63756 C 4787.89 6.4116 2.90739 0
M  V30 63757 C 4788.6 5.55375 1.86963 0
M  V30 63758 N 4788.55 4.09664 2.15742 0
M  V30 63759 H 4791.39 7.45574 4.45629 0
M  V30 63760 H 4791.66 5.86232 3.67314 0
M  V30 63761 H 4790.79 7.84412 2.24479 0
M  V30 63762 P 4786.83 8.7635 1.60911 0
M  V30 63763 O 4786.61 10.1388 1.11561 0
M  V30 63764 O 4786.04 8.36503 2.79617 0
M  V30 63765 O 4786.58 7.71806 0.42951 0
M  V30 63766 C 4787.52 7.66948 -0.673514 0
M  V30 63767 C 4786.79 7.33374 -1.95559 0
M  V30 63768 O 4786.58 5.88721 -2.00726 0
M  V30 63769 C 4785.39 7.92218 -2.1125 0
M  V30 63770 O 4785 8.02971 -3.47653 0
M  V30 63771 C 4784.51 6.89504 -1.41631 0
M  V30 63772 C 4785.22 5.59106 -1.75155 0
M  V30 63773 N 4785.17 4.58136 -0.662409 0
M  V30 63774 C 4785.02 3.26059 -1.02863 0
M  V30 63775 O 4784.93 2.90743 -2.19009 0
M  V30 63776 N 4784.98 2.35995 0.0155585 0
M  V30 63777 C 4785.07 2.65248 1.35603 0
M  V30 63778 O 4785.02 1.75605 2.20651 0
M  V30 63779 C 4785.22 4.05747 1.64698 0
M  V30 63780 C 4785.33 4.42345 3.09553 0
M  V30 63781 C 4785.27 4.96734 0.652411 0
M  V30 63782 H 4788.01 8.64917 -0.776982 0
M  V30 63783 H 4788.28 6.89974 -0.474015 0
M  V30 63784 H 4787.41 7.66548 -2.79458 0
M  V30 63785 H 4784.76 5.16076 -2.65138 0
M  V30 63786 H 4784.48 7.06433 -0.329384 0
M  V30 63787 H 4783.49 6.90829 -1.81996 0
M  V30 63788 H 4785.32 8.90774 -1.62639 0
M  V30 63789 H 4785.39 6.02181 0.895285 0
M  V30 63790 H 4784.36 4.80252 3.45468 0
M  V30 63791 H 4786.1 5.20015 3.22119 0
M  V30 63792 H 4785.61 3.53269 3.67833 0
M  V30 63793 H 4784.88 1.39558 -0.227499 0
M  V30 63794 P 4783.45 8.03563 -3.84925 0
M  V30 63795 O 4783.23 8.85821 -5.0569 0
M  V30 63796 O 4782.66 8.41101 -2.65469 0
M  V30 63797 O 4783.2 6.49734 -4.18962 0
M  V30 63798 C 4784.14 5.81037 -5.05421 0
M  V30 63799 C 4783.41 4.79018 -5.88876 0
M  V30 63800 O 4783.2 3.58359 -5.08515 0
M  V30 63801 C 4782.01 5.17448 -6.36119 0
M  V30 63802 O 4781.62 4.45322 -7.53318 0
M  V30 63803 C 4781.13 4.74639 -5.19936 0
M  V30 63804 C 4781.84 3.49432 -4.70418 0
M  V30 63805 N 4781.79 3.31776 -3.22945 0
M  V30 63806 C 4781.64 2.02742 -2.72939 0
M  V30 63807 O 4781.55 1.08301 -3.52749 0
M  V30 63808 N 4781.59 1.96117 -1.22063 0
M  V30 63809 C 4781.69 2.8878 -0.551566 0
M  V30 63810 N 4781.64 2.65609 0.750198 0
M  V30 63811 C 4781.84 4.22457 -1.03707 0
M  V30 63812 C 4781.89 4.37979 -2.39113 0
M  V30 63813 H 4784.63 6.54138 -5.7131 0
M  V30 63814 H 4784.9 5.30492 -4.44033 0
M  V30 63815 H 4784.03 4.55945 -6.76735 0
M  V30 63816 H 4781.38 2.6176 -5.18021 0
M  V30 63817 H 4781.1 5.52233 -4.41941 0
M  V30 63818 H 4780.11 4.52045 -5.53452 0
M  V30 63819 H 4781.94 6.25124 -6.55234 0
M  V30 63820 H 4782.01 5.37936 -2.80552 0
M  V30 63821 H 4781.91 5.07528 -0.359553 0
M  V30 63822 H 4781.52 1.69403 1.09847 0
M  V30 63823 H 4781.72 3.43701 1.41792 0
M  V30 63824 P 4780.07 4.23843 -7.83734 0
M  V30 63825 O 4779.85 4.19407 -9.29784 0
M  V30 63826 O 4779.28 5.24426 -7.09156 0
M  V30 63827 O 4779.82 2.7935 -7.20758 0
M  V30 63828 C 4780.76 1.7299 -7.50419 0
M  V30 63829 C 4780.03 0.406376 -7.57911 0
M  V30 63830 O 4779.82 -0.0897726 -6.21935 0
M  V30 63831 C 4778.63 0.447224 -8.1878 0
M  V30 63832 O 4778.24 -0.825065 -8.71101 0
M  V30 63833 C 4777.75 0.783801 -6.99623 0
M  V30 63834 C 4778.46 0.0619192 -5.85967 0
M  V30 63835 N 4778.41 0.7859 -4.56281 0
M  V30 63836 H 4781.25 1.93423 -8.4679 0
M  V30 63837 H 4781.52 1.68181 -6.71046 0
M  V30 63838 H 4780.65 -0.289041 -8.15388 0
M  V30 63839 P 4776.69 -1.17771 -8.83182 0
M  V30 63840 O 4776.47 -2.07206 -9.98732 0
M  V30 63841 O 4775.9 0.0743816 -8.81969 0
M  V30 63842 O 4776.44 -1.97678 -7.474 0
M  V30 63843 C 4777.38 -3.01133 -7.08783 0
M  V30 63844 C 4776.65 -4.1203 -6.37546 0
M  V30 63845 O 4776.44 -3.72887 -4.9796 0
M  V30 63846 C 4775.25 -4.45085 -6.88694 0
M  V30 63847 O 4774.86 -5.78836 -6.56315 0
M  V30 63848 C 4774.37 -3.47817 -6.12078 0
M  V30 63849 C 4775.08 -3.39414 -4.77697 0
M  V30 63850 N 4775.03 -2.04615 -4.15333 0
M  V30 63851 C 4774.88 -1.96929 -2.77162 0
M  V30 63852 O 4774.79 -3.02017 -2.12006 0
M  V30 63853 N 4774.83 -0.55485 -2.24237 0
M  V30 63854 C 4774.93 0.367808 -2.9169 0
M  V30 63855 N 4774.88 1.53426 -2.29427 0
M  V30 63856 C 4775.08 0.319148 -4.33828 0
M  V30 63857 C 4775.13 -0.920672 -4.90433 0
M  V30 63858 H 4777.87 -3.41209 -7.98667 0
M  V30 63859 H 4778.14 -2.5837 -6.41742 0
M  V30 63860 H 4777.27 -5.02718 -6.42752 0
M  V30 63861 H 4774.62 -4.11779 -4.09026 0
M  V30 63862 H 4774.34 -2.49661 -6.61772 0
M  V30 63863 H 4773.35 -3.86674 -6.00946 0
M  V30 63864 H 4775.18 -4.29991 -7.97006 0
M  V30 63865 H 4775.25 -1.00589 -5.98303 0
M  V30 63866 H 4775.15 1.22639 -4.93799 0
M  V30 63867 H 4774.76 1.56819 -1.27167 0
M  V30 63868 H 4774.96 2.41062 -2.83063 0
M  V30 63869 P 4773.31 -6.144 -6.45285 0
M  V30 63870 O 4773.09 -7.54673 -6.86199 0
M  V30 63871 O 4772.52 -5.12391 -7.179 0
M  V30 63872 O 4773.06 -5.99158 -4.88404 0
M  V30 63873 C 4774 -6.60234 -3.96415 0
M  V30 63874 C 4773.27 -7.08259 -2.72856 0
M  V30 63875 O 4773.06 -5.9427 -1.83651 0
M  V30 63876 C 4771.87 -7.64886 -2.9555 0
M  V30 63877 O 4771.48 -8.53963 -1.90717 0
M  V30 63878 C 4770.99 -6.4116 -2.90739 0
M  V30 63879 C 4771.7 -5.55375 -1.86963 0
M  V30 63880 N 4771.65 -4.09448 -2.16152 0
M  V30 63881 H 4774.49 -7.45574 -4.45629 0
M  V30 63882 H 4774.76 -5.85864 -3.679 0
M  V30 63883 H 4773.89 -7.84412 -2.24479 0
M  V30 63884 H 4771.24 -5.73457 -0.888562 0
M  V30 63885 H 4770.96 -5.90877 -3.88583 0
M  V30 63886 H 4769.97 -6.6596 -2.58858 0
M  V30 63887 H 4771.8 -8.16339 -3.92049 0
M  V30 63888 P 4769.93 -8.7635 -1.60911 0
M  V30 63889 O 4769.71 -10.1388 -1.11561 0
M  V30 63890 O 4769.14 -8.36503 -2.79617 0
M  V30 63891 O 4769.68 -7.71806 -0.42951 0
M  V30 63892 C 4770.62 -7.67148 0.673689 0
M  V30 63893 C 4769.89 -7.33374 1.95559 0
M  V30 63894 O 4769.68 -5.88721 2.00726 0
M  V30 63895 C 4768.49 -7.92526 2.10483 0
M  V30 63896 O 4768.1 -8.02971 3.47653 0
M  V30 63897 C 4767.61 -6.89602 1.41652 0
M  V30 63898 C 4768.32 -5.59201 1.75185 0
M  V30 63899 N 4768.27 -4.58301 0.657969 0
M  V30 63900 H 4771.11 -8.65116 0.777161 0
M  V30 63901 H 4771.38 -6.9022 0.46725 0
M  V30 63902 H 4770.51 -7.66548 2.79458 0
M  V30 63903 H 4767.86 -5.16165 2.65183 0
M  V30 63904 H 4767.58 -7.06433 0.329384 0
M  V30 63905 H 4766.59 -6.90926 1.82021 0
M  V30 63906 H 4768.42 -8.90873 1.62657 0
M  V30 63907 P 4766.55 -8.03563 3.84925 0
M  V30 63908 O 4766.33 -8.85821 5.0569 0
M  V30 63909 O 4765.76 -8.41101 2.65469 0
M  V30 63910 O 4766.3 -6.4965 4.18908 0
M  V30 63911 C 4767.24 -5.80886 5.05289 0
M  V30 63912 C 4766.51 -4.78366 5.89277 0
M  V30 63913 O 4766.3 -3.58302 5.08433 0
M  V30 63914 C 4765.11 -5.16748 6.36559 0
M  V30 63915 O 4764.72 -4.45271 7.53232 0
M  V30 63916 C 4764.23 -4.74572 5.19863 0
M  V30 63917 C 4764.94 -3.49373 4.70338 0
M  V30 63918 N 4764.89 -3.31704 3.22876 0
M  V30 63919 C 4764.74 -2.03326 2.74871 0
M  V30 63920 O 4764.65 -1.06486 3.48076 0
M  V30 63921 N 4764.7 -1.91838 1.37456 0
M  V30 63922 C 4764.79 -2.94295 0.462035 0
M  V30 63923 O 4764.74 -2.71763 -0.752928 0
M  V30 63924 C 4764.94 -4.25064 1.05249 0
M  V30 63925 C 4765.05 -5.39815 0.095697 0
M  V30 63926 C 4764.99 -4.40214 2.39192 0
M  V30 63927 H 4767.73 -6.54063 5.71245 0
M  V30 63928 H 4768 -5.30339 4.43905 0
M  V30 63929 H 4767.13 -4.55889 6.76652 0
M  V30 63930 H 4764.48 -2.6167 5.17842 0
M  V30 63931 H 4764.2 -5.52155 4.41878 0
M  V30 63932 H 4763.21 -4.51918 5.53297 0
M  V30 63933 H 4765.04 -6.25055 6.55162 0
M  V30 63934 H 4765.11 -5.39798 2.81523 0
M  V30 63935 H 4764.08 -5.91593 0.0279582 0
M  V30 63936 H 4765.82 -6.10038 0.450573 0
M  V30 63937 H 4765.33 -5.02007 -0.89937 0
M  V30 63938 H 4764.6 -0.995326 1.00435 0
M  V30 63939 P 4763.17 -4.23843 7.83734 0
M  V30 63940 O 4762.95 -4.19407 9.29784 0
M  V30 63941 O 4762.38 -5.24426 7.09156 0
M  V30 63942 O 4762.92 -2.7935 7.20758 0
M  V30 63943 C 4763.86 -1.7299 7.50419 0
M  V30 63944 C 4763.13 -0.406376 7.57911 0
M  V30 63945 O 4762.92 0.0897726 6.21935 0
M  V30 63946 C 4761.73 -0.447224 8.1878 0
M  V30 63947 O 4761.34 0.825065 8.71101 0
M  V30 63948 C 4760.85 -0.783801 6.99623 0
M  V30 63949 C 4761.56 -0.0619192 5.85967 0
M  V30 63950 N 4761.51 -0.7859 4.56281 0
M  V30 63951 H 4764.35 -1.93423 8.4679 0
M  V30 63952 H 4764.62 -1.68181 6.71046 0
M  V30 63953 H 4763.75 0.289041 8.15388 0
M  V30 63954 P 4759.79 1.17771 8.83182 0
M  V30 63955 O 4759.57 2.07206 9.98732 0
M  V30 63956 O 4759 -0.0743816 8.81969 0
M  V30 63957 O 4759.54 1.97652 7.47304 0
M  V30 63958 C 4760.48 3.01133 7.08783 0
M  V30 63959 C 4759.75 4.12613 6.37049 0
M  V30 63960 O 4759.54 3.72827 4.97879 0
M  V30 63961 C 4758.35 4.45085 6.88694 0
M  V30 63962 O 4757.96 5.7877 6.5624 0
M  V30 63963 C 4757.47 3.47817 6.12078 0
M  V30 63964 C 4758.18 3.39414 4.77697 0
M  V30 63965 N 4758.13 2.04615 4.15333 0
M  V30 63966 C 4758.21 0.803897 4.75249 0
M  V30 63967 N 4758.13 -0.197615 3.91502 0
M  V30 63968 C 4757.99 0.413002 2.66823 0
M  V30 63969 C 4757.86 -0.157221 1.38007 0
M  V30 63970 N 4757.74 0.833136 0.390236 0
M  V30 63971 C 4757.74 2.19402 0.623885 0
M  V30 63972 N 4757.61 2.97622 -0.449677 0
M  V30 63973 N 4757.87 2.73005 1.83601 0
M  V30 63974 C 4757.99 1.78786 2.80935 0
M  V30 63975 H 4760.97 3.41248 7.98759 0
M  V30 63976 H 4761.24 2.5837 6.41742 0
M  V30 63977 H 4760.37 5.02657 6.42673 0
M  V30 63978 P 4756.41 6.144 6.45285 0
M  V30 63979 O 4756.19 7.54673 6.86199 0
M  V30 63980 O 4755.62 5.12391 7.179 0
M  V30 63981 O 4756.16 5.99158 4.88404 0
M  V30 63982 C 4757.1 6.60234 3.96415 0
M  V30 63983 C 4756.37 7.08259 2.72856 0
M  V30 63984 O 4756.16 5.9427 1.83651 0
M  V30 63985 C 4754.97 7.64886 2.9555 0
M  V30 63986 O 4754.58 8.53963 1.90717 0
M  V30 63987 C 4754.09 6.4116 2.90739 0
M  V30 63988 C 4754.8 5.55375 1.86963 0
M  V30 63989 N 4754.75 4.09664 2.15742 0
M  V30 63990 H 4757.59 7.45574 4.45629 0
M  V30 63991 H 4757.86 5.86232 3.67314 0
M  V30 63992 H 4756.99 7.84412 2.24479 0
M  V30 63993 P 4753.03 8.7635 1.60911 0
M  V30 63994 O 4752.81 10.1388 1.11561 0
M  V30 63995 O 4752.24 8.36503 2.79617 0
M  V30 63996 O 4752.78 7.71806 0.42951 0
M  V30 63997 C 4753.72 7.67148 -0.673689 0
M  V30 63998 C 4752.99 7.33374 -1.95559 0
M  V30 63999 O 4752.78 5.88721 -2.00726 0
M  V30 64000 C 4751.59 7.92526 -2.10483 0
M  V30 64001 O 4751.2 8.02971 -3.47653 0
M  V30 64002 C 4750.71 6.89602 -1.41652 0
M  V30 64003 C 4751.42 5.59201 -1.75185 0
M  V30 64004 N 4751.37 4.58235 -0.662552 0
M  V30 64005 H 4754.21 8.65116 -0.777161 0
M  V30 64006 H 4754.48 6.90173 -0.474152 0
M  V30 64007 H 4753.61 7.66548 -2.79458 0
M  V30 64008 P 4749.65 8.03563 -3.84925 0
M  V30 64009 O 4749.43 8.85821 -5.0569 0
M  V30 64010 O 4748.86 8.41101 -2.65469 0
M  V30 64011 O 4749.4 6.4965 -4.18908 0
M  V30 64012 C 4750.34 5.81037 -5.05421 0
M  V30 64013 C 4749.61 4.78366 -5.89277 0
M  V30 64014 O 4749.4 3.58302 -5.08433 0
M  V30 64015 C 4748.21 5.17448 -6.36119 0
M  V30 64016 O 4747.82 4.45271 -7.53232 0
M  V30 64017 C 4747.33 4.74639 -5.19936 0
M  V30 64018 C 4748.04 3.49432 -4.70418 0
M  V30 64019 N 4747.99 3.32099 -3.22613 0
M  V30 64020 C 4748.07 4.28245 -2.25527 0
M  V30 64021 N 4748 3.80823 -1.04874 0
M  V30 64022 C 4747.85 2.44571 -1.23535 0
M  V30 64023 C 4747.72 1.37068 -0.330675 0
M  V30 64024 N 4747.71 1.51472 0.990824 0
M  V30 64025 N 4747.6 0.138614 -0.848756 0
M  V30 64026 C 4747.61 -0.00675923 -2.16999 0
M  V30 64027 N 4747.73 0.904372 -3.11122 0
M  V30 64028 C 4747.85 2.12707 -2.56212 0
M  V30 64029 H 4750.83 6.54213 -5.71376 0
M  V30 64030 H 4751.1 5.30936 -4.43503 0
M  V30 64031 H 4750.23 4.55889 -6.76652 0
M  V30 64032 H 4747.58 2.61715 -5.17932 0
M  V30 64033 H 4747.3 5.52155 -4.41878 0
M  V30 64034 H 4746.31 4.51981 -5.53374 0
M  V30 64035 H 4748.14 6.25124 -6.55234 0
M  V30 64036 H 4748.18 5.34372 -2.47488 0
M  V30 64037 H 4747.8 2.45153 1.4078 0
M  V30 64038 H 4747.61 0.688422 1.59911 0
M  V30 64039 H 4747.51 -1.02584 -2.52346 0
M  V30 64040 P 4746.27 4.23843 -7.83734 0
M  V30 64041 O 4746.05 4.19407 -9.29784 0
M  V30 64042 O 4745.48 5.24426 -7.09156 0
M  V30 64043 O 4746.02 2.7935 -7.20758 0
M  V30 64044 C 4746.96 1.7299 -7.50419 0
M  V30 64045 C 4746.23 0.406376 -7.57911 0
M  V30 64046 O 4746.02 -0.0897726 -6.21935 0
M  V30 64047 C 4744.83 0.447224 -8.1878 0
M  V30 64048 O 4744.44 -0.825065 -8.71101 0
M  V30 64049 C 4743.95 0.783801 -6.99623 0
M  V30 64050 C 4744.66 0.0619192 -5.85967 0
M  V30 64051 N 4744.61 0.790462 -4.56202 0
M  V30 64052 H 4747.45 1.93423 -8.4679 0
M  V30 64053 H 4747.72 1.68852 -6.70877 0
M  V30 64054 H 4746.85 -0.289041 -8.15388 0
M  V30 64055 H 4744.2 -0.927006 -5.72848 0
M  V30 64056 H 4743.92 1.86973 -6.82036 0
M  V30 64057 H 4742.93 0.403953 -7.13357 0
M  V30 64058 H 4744.76 1.20599 -8.97534 0
M  V30 64059 P 4742.89 -1.17771 -8.83182 0
M  V30 64060 O 4742.67 -2.07206 -9.98732 0
M  V30 64061 O 4742.1 0.0743816 -8.81969 0
M  V30 64062 O 4742.64 -1.97652 -7.47304 0
M  V30 64063 C 4743.58 -3.01133 -7.08783 0
M  V30 64064 C 4742.85 -4.12613 -6.37049 0
M  V30 64065 O 4742.64 -3.72827 -4.97879 0
M  V30 64066 C 4741.45 -4.45085 -6.88694 0
M  V30 64067 O 4741.06 -5.7877 -6.5624 0
M  V30 64068 C 4740.57 -3.47817 -6.12078 0
M  V30 64069 C 4741.28 -3.39414 -4.77697 0
M  V30 64070 N 4741.23 -2.04199 -4.15538 0
M  V30 64071 H 4744.07 -3.41248 -7.98759 0
M  V30 64072 H 4744.34 -2.57728 -6.42 0
M  V30 64073 H 4743.47 -5.02657 -6.42673 0
M  V30 64074 H 4740.82 -4.11708 -4.08956 0
M  V30 64075 H 4740.54 -2.49626 -6.61679 0
M  V30 64076 H 4739.55 -3.8662 -6.00862 0
M  V30 64077 H 4741.38 -4.29991 -7.97006 0
M  V30 64078 P 4739.51 -6.144 -6.45285 0
M  V30 64079 O 4739.29 -7.54673 -6.86199 0
M  V30 64080 O 4738.72 -5.12391 -7.179 0
M  V30 64081 O 4739.26 -5.99158 -4.88404 0
M  V30 64082 C 4740.2 -6.60234 -3.96415 0
M  V30 64083 C 4739.47 -7.08259 -2.72856 0
M  V30 64084 O 4739.26 -5.9427 -1.83651 0
M  V30 64085 C 4738.07 -7.64886 -2.9555 0
M  V30 64086 O 4737.68 -8.53963 -1.90717 0
M  V30 64087 C 4737.19 -6.4116 -2.90739 0
M  V30 64088 C 4737.9 -5.55375 -1.86963 0
M  V30 64089 N 4737.85 -4.09448 -2.16152 0
M  V30 64090 H 4740.69 -7.45574 -4.45629 0
M  V30 64091 H 4740.96 -5.85864 -3.679 0
M  V30 64092 H 4740.09 -7.84412 -2.24479 0
M  V30 64093 H 4737.44 -5.73457 -0.888562 0
M  V30 64094 H 4737.16 -5.90877 -3.88583 0
M  V30 64095 H 4736.17 -6.6596 -2.58858 0
M  V30 64096 H 4738 -8.16339 -3.92049 0
M  V30 64097 P 4736.13 -8.7635 -1.60911 0
M  V30 64098 O 4735.91 -10.1388 -1.11561 0
M  V30 64099 O 4735.34 -8.36503 -2.79617 0
M  V30 64100 O 4735.88 -7.71806 -0.42951 0
M  V30 64101 C 4736.82 -7.66948 0.673514 0
M  V30 64102 C 4736.09 -7.33374 1.95559 0
M  V30 64103 O 4735.88 -5.88721 2.00726 0
M  V30 64104 C 4734.69 -7.92218 2.1125 0
M  V30 64105 O 4734.3 -8.02971 3.47653 0
M  V30 64106 C 4733.81 -6.89504 1.41631 0
M  V30 64107 C 4734.52 -5.59106 1.75155 0
M  V30 64108 N 4734.47 -4.58136 0.662409 0
M  V30 64109 C 4734.32 -3.26059 1.02863 0
M  V30 64110 O 4734.23 -2.90743 2.19009 0
M  V30 64111 N 4734.28 -2.35995 -0.0155585 0
M  V30 64112 C 4734.37 -2.65248 -1.35603 0
M  V30 64113 O 4734.32 -1.75605 -2.20651 0
M  V30 64114 C 4734.52 -4.05747 -1.64698 0
M  V30 64115 C 4734.63 -4.42345 -3.09553 0
M  V30 64116 C 4734.57 -4.96734 -0.652411 0
M  V30 64117 H 4737.31 -8.64917 0.776982 0
M  V30 64118 H 4737.58 -6.89974 0.474015 0
M  V30 64119 H 4736.72 -7.66548 2.79458 0
M  V30 64120 H 4734.06 -5.16076 2.65138 0
M  V30 64121 H 4733.78 -7.06433 0.329384 0
M  V30 64122 H 4732.79 -6.90829 1.81996 0
M  V30 64123 H 4734.62 -8.90774 1.62639 0
M  V30 64124 H 4734.69 -6.02181 -0.895285 0
M  V30 64125 H 4733.66 -4.80252 -3.45468 0
M  V30 64126 H 4735.4 -5.20015 -3.22119 0
M  V30 64127 H 4734.91 -3.53269 -3.67833 0
M  V30 64128 H 4734.18 -1.39558 0.227499 0
M  V30 64129 P 4732.75 -8.03563 3.84925 0
M  V30 64130 O 4732.53 -8.85821 5.0569 0
M  V30 64131 O 4731.96 -8.41101 2.65469 0
M  V30 64132 O 4732.5 -6.4965 4.18908 0
M  V30 64133 C 4733.44 -5.81037 5.05421 0
M  V30 64134 C 4732.71 -4.78366 5.89277 0
M  V30 64135 O 4732.5 -3.58302 5.08433 0
M  V30 64136 C 4731.31 -5.17448 6.36119 0
M  V30 64137 O 4730.92 -4.45271 7.53232 0
M  V30 64138 C 4730.43 -4.74639 5.19936 0
M  V30 64139 C 4731.14 -3.49432 4.70418 0
M  V30 64140 N 4731.09 -3.32099 3.22613 0
M  V30 64141 C 4731.17 -4.28245 2.25527 0
M  V30 64142 N 4731.1 -3.80823 1.04874 0
M  V30 64143 C 4730.95 -2.44571 1.23535 0
M  V30 64144 C 4730.82 -1.37068 0.330675 0
M  V30 64145 N 4730.81 -1.51472 -0.990824 0
M  V30 64146 N 4730.7 -0.138614 0.848756 0
M  V30 64147 C 4730.71 0.00675923 2.16999 0
M  V30 64148 N 4730.83 -0.904372 3.11122 0
M  V30 64149 C 4730.95 -2.12707 2.56212 0
M  V30 64150 H 4733.93 -6.54213 5.71376 0
M  V30 64151 H 4734.2 -5.30936 4.43503 0
M  V30 64152 H 4733.34 -4.55889 6.76652 0
M  V30 64153 H 4730.68 -2.61715 5.17932 0
M  V30 64154 H 4730.4 -5.52155 4.41878 0
M  V30 64155 H 4729.41 -4.51981 5.53374 0
M  V30 64156 H 4731.24 -6.25124 6.55234 0
M  V30 64157 H 4731.28 -5.34372 2.47488 0
M  V30 64158 H 4730.9 -2.45153 -1.4078 0
M  V30 64159 H 4730.71 -0.688422 -1.59911 0
M  V30 64160 H 4730.61 1.02584 2.52346 0
M  V30 64161 P 4729.37 -4.23843 7.83734 0
M  V30 64162 O 4729.15 -4.19407 9.29784 0
M  V30 64163 O 4728.58 -5.24426 7.09156 0
M  V30 64164 O 4729.12 -2.7935 7.20758 0
M  V30 64165 C 4730.06 -1.7299 7.50419 0
M  V30 64166 C 4729.33 -0.406376 7.57911 0
M  V30 64167 O 4729.12 0.0897726 6.21935 0
M  V30 64168 C 4727.93 -0.447224 8.1878 0
M  V30 64169 O 4727.54 0.825065 8.71101 0
M  V30 64170 C 4727.05 -0.783801 6.99623 0
M  V30 64171 C 4727.76 -0.0619192 5.85967 0
M  V30 64172 N 4727.71 -0.7859 4.56281 0
M  V30 64173 H 4730.55 -1.93423 8.4679 0
M  V30 64174 H 4730.82 -1.68181 6.71046 0
M  V30 64175 H 4729.96 0.289041 8.15388 0
M  V30 64176 P 4725.99 1.17771 8.83182 0
M  V30 64177 O 4725.77 2.07206 9.98732 0
M  V30 64178 O 4725.2 -0.0743816 8.81969 0
M  V30 64179 O 4725.74 1.97652 7.47304 0
M  V30 64180 C 4726.68 3.01133 7.08783 0
M  V30 64181 C 4725.95 4.12613 6.37049 0
M  V30 64182 O 4725.74 3.72827 4.97879 0
M  V30 64183 C 4724.55 4.45085 6.88694 0
M  V30 64184 O 4724.16 5.7877 6.5624 0
M  V30 64185 C 4723.67 3.47817 6.12078 0
M  V30 64186 C 4724.38 3.39414 4.77697 0
M  V30 64187 N 4724.33 2.04615 4.15333 0
M  V30 64188 H 4727.17 3.41248 7.98759 0
M  V30 64189 H 4727.44 2.5837 6.41742 0
M  V30 64190 H 4726.58 5.02657 6.42673 0
M  V30 64191 P 4722.61 6.144 6.45285 0
M  V30 64192 O 4722.39 7.54673 6.86199 0
M  V30 64193 O 4721.82 5.12391 7.179 0
M  V30 64194 O 4722.36 5.99158 4.88404 0
M  V30 64195 C 4723.3 6.60234 3.96415 0
M  V30 64196 C 4722.57 7.08259 2.72856 0
M  V30 64197 O 4722.36 5.9427 1.83651 0
M  V30 64198 C 4721.17 7.64886 2.9555 0
M  V30 64199 O 4720.78 8.53963 1.90717 0
M  V30 64200 C 4720.29 6.4116 2.90739 0
M  V30 64201 C 4721 5.55375 1.86963 0
M  V30 64202 N 4720.95 4.09664 2.15742 0
M  V30 64203 H 4723.79 7.45574 4.45629 0
M  V30 64204 H 4724.06 5.86232 3.67314 0
M  V30 64205 H 4723.2 7.84412 2.24479 0
M  V30 64206 P 4719.23 8.7635 1.60911 0
M  V30 64207 O 4719.01 10.1388 1.11561 0
M  V30 64208 O 4718.44 8.36503 2.79617 0
M  V30 64209 O 4718.98 7.71806 0.42951 0
M  V30 64210 C 4719.92 7.67148 -0.673689 0
M  V30 64211 C 4719.19 7.33374 -1.95559 0
M  V30 64212 O 4718.98 5.88721 -2.00726 0
M  V30 64213 C 4717.79 7.92526 -2.10483 0
M  V30 64214 O 4717.4 8.02971 -3.47653 0
M  V30 64215 C 4716.91 6.89602 -1.41652 0
M  V30 64216 C 4717.62 5.59201 -1.75185 0
M  V30 64217 N 4717.57 4.58235 -0.662552 0
M  V30 64218 C 4717.65 4.7683 0.704049 0
M  V30 64219 N 4717.57 3.66233 1.39775 0
M  V30 64220 C 4717.43 2.66526 0.431739 0
M  V30 64221 C 4717.3 1.26394 0.575992 0
M  V30 64222 N 4717.18 0.62859 -0.67177 0
M  V30 64223 C 4717.18 1.27134 -1.89385 0
M  V30 64224 N 4717.05 0.492035 -2.96951 0
M  V30 64225 N 4717.31 2.58978 -2.02907 0
M  V30 64226 C 4717.43 3.22433 -0.832218 0
M  V30 64227 H 4720.41 8.65116 -0.777161 0
M  V30 64228 H 4720.68 6.90173 -0.474152 0
M  V30 64229 H 4719.82 7.66548 -2.79458 0
M  V30 64230 P 4715.85 8.03563 -3.84925 0
M  V30 64231 O 4715.63 8.85821 -5.0569 0
M  V30 64232 O 4715.06 8.41101 -2.65469 0
M  V30 64233 O 4715.6 6.4965 -4.18908 0
M  V30 64234 C 4716.54 5.81037 -5.05421 0
M  V30 64235 C 4715.81 4.78366 -5.89277 0
M  V30 64236 O 4715.6 3.58302 -5.08433 0
M  V30 64237 C 4714.41 5.17448 -6.36119 0
M  V30 64238 O 4714.02 4.45271 -7.53232 0
M  V30 64239 C 4713.53 4.74639 -5.19936 0
M  V30 64240 C 4714.24 3.49432 -4.70418 0
M  V30 64241 N 4714.19 3.31776 -3.22945 0
M  V30 64242 H 4717.03 6.54213 -5.71376 0
M  V30 64243 H 4717.3 5.30492 -4.44033 0
M  V30 64244 H 4716.44 4.55889 -6.76652 0
M  V30 64245 P 4712.47 4.23843 -7.83734 0
M  V30 64246 O 4712.25 4.19407 -9.29784 0
M  V30 64247 O 4711.68 5.24426 -7.09156 0
M  V30 64248 O 4712.22 2.7935 -7.20758 0
M  V30 64249 C 4713.16 1.7299 -7.50419 0
M  V30 64250 C 4712.43 0.406376 -7.57911 0
M  V30 64251 O 4712.22 -0.0897726 -6.21935 0
M  V30 64252 C 4711.03 0.447224 -8.1878 0
M  V30 64253 O 4710.64 -0.825065 -8.71101 0
M  V30 64254 C 4710.15 0.783801 -6.99623 0
M  V30 64255 C 4710.86 0.0619192 -5.85967 0
M  V30 64256 N 4710.81 0.7859 -4.56281 0
M  V30 64257 H 4713.65 1.93423 -8.4679 0
M  V30 64258 H 4713.92 1.68181 -6.71046 0
M  V30 64259 H 4713.06 -0.289041 -8.15388 0
M  V30 64260 P 4709.09 -1.17771 -8.83182 0
M  V30 64261 O 4708.87 -2.07206 -9.98732 0
M  V30 64262 O 4708.3 0.0743816 -8.81969 0
M  V30 64263 O 4708.84 -1.97652 -7.47304 0
M  V30 64264 C 4709.78 -3.01133 -7.08783 0
M  V30 64265 C 4709.05 -4.12613 -6.37049 0
M  V30 64266 O 4708.84 -3.72827 -4.97879 0
M  V30 64267 C 4707.65 -4.45085 -6.88694 0
M  V30 64268 O 4707.26 -5.7877 -6.5624 0
M  V30 64269 C 4706.77 -3.47817 -6.12078 0
M  V30 64270 C 4707.48 -3.39414 -4.77697 0
M  V30 64271 N 4707.43 -2.04199 -4.15538 0
M  V30 64272 H 4710.27 -3.41248 -7.98759 0
M  V30 64273 H 4710.54 -2.57728 -6.42 0
M  V30 64274 H 4709.68 -5.02657 -6.42673 0
M  V30 64275 H 4707.02 -4.11708 -4.08956 0
M  V30 64276 H 4706.74 -2.49626 -6.61679 0
M  V30 64277 H 4705.75 -3.8662 -6.00862 0
M  V30 64278 H 4707.58 -4.29991 -7.97006 0
M  V30 64279 P 4705.71 -6.144 -6.45285 0
M  V30 64280 O 4705.49 -7.54673 -6.86199 0
M  V30 64281 O 4704.92 -5.12391 -7.179 0
M  V30 64282 O 4705.46 -5.99236 -4.88467 0
M  V30 64283 C 4706.4 -6.60234 -3.96415 0
M  V30 64284 C 4705.67 -7.08079 -2.736 0
M  V30 64285 O 4705.46 -5.94365 -1.8368 0
M  V30 64286 C 4704.27 -7.64886 -2.9555 0
M  V30 64287 O 4703.88 -8.5406 -1.90739 0
M  V30 64288 C 4703.39 -6.4116 -2.90739 0
M  V30 64289 C 4704.1 -5.55375 -1.86963 0
M  V30 64290 N 4704.05 -4.09664 -2.15742 0
M  V30 64291 C 4703.9 -3.22231 -1.08477 0
M  V30 64292 O 4703.81 -3.68951 0.0600489 0
M  V30 64293 N 4703.85 -1.76692 -1.48799 0
M  V30 64294 C 4703.95 -1.41695 -2.57602 0
M  V30 64295 N 4703.9 -0.107296 -2.75791 0
M  V30 64296 C 4704.1 -2.29178 -3.69733 0
M  V30 64297 C 4704.15 -3.62753 -3.42653 0
M  V30 64298 H 4706.89 -7.45488 -4.45578 0
M  V30 64299 H 4707.16 -5.86232 -3.67314 0
M  V30 64300 H 4706.3 -7.84508 -2.24507 0
M  V30 64301 H 4703.64 -5.73556 -0.888715 0
M  V30 64302 H 4703.36 -5.9096 -3.88638 0
M  V30 64303 H 4702.37 -6.66053 -2.58894 0
M  V30 64304 H 4704.2 -8.16339 -3.92049 0
M  V30 64305 H 4704.28 -4.33052 -4.24913 0
M  V30 64306 H 4704.17 -1.9103 -4.71577 0
M  V30 64307 H 4703.79 0.521221 -1.95056 0
M  V30 64308 H 4703.98 0.286429 -3.70695 0
M  V30 64309 P 4702.33 -8.7635 -1.60911 0
M  V30 64310 O 4702.11 -10.1388 -1.11561 0
M  V30 64311 O 4701.54 -8.36503 -2.79617 0
M  V30 64312 O 4702.08 -7.71806 -0.42951 0
M  V30 64313 C 4703.02 -7.67148 0.673689 0
M  V30 64314 C 4702.29 -7.33374 1.95559 0
M  V30 64315 O 4702.08 -5.88721 2.00726 0
M  V30 64316 C 4700.89 -7.92526 2.10483 0
M  V30 64317 O 4700.5 -8.02971 3.47653 0
M  V30 64318 C 4700.01 -6.89602 1.41652 0
M  V30 64319 C 4700.72 -5.59201 1.75185 0
M  V30 64320 N 4700.67 -4.58301 0.657969 0
M  V30 64321 H 4703.51 -8.65116 0.777161 0
M  V30 64322 H 4703.78 -6.9022 0.46725 0
M  V30 64323 H 4702.92 -7.66548 2.79458 0
M  V30 64324 H 4700.26 -5.16165 2.65183 0
M  V30 64325 H 4699.98 -7.06433 0.329384 0
M  V30 64326 H 4698.99 -6.90926 1.82021 0
M  V30 64327 H 4700.82 -8.90873 1.62657 0
M  V30 64328 P 4698.95 -8.03563 3.84925 0
M  V30 64329 O 4698.73 -8.85821 5.0569 0
M  V30 64330 O 4698.16 -8.41101 2.65469 0
M  V30 64331 O 4698.7 -6.4965 4.18908 0
M  V30 64332 C 4699.64 -5.81037 5.05421 0
M  V30 64333 C 4698.91 -4.78366 5.89277 0
M  V30 64334 O 4698.7 -3.58302 5.08433 0
M  V30 64335 C 4697.51 -5.17448 6.36119 0
M  V30 64336 O 4697.12 -4.45271 7.53232 0
M  V30 64337 C 4696.63 -4.74639 5.19936 0
M  V30 64338 C 4697.34 -3.49432 4.70418 0
M  V30 64339 N 4697.29 -3.31776 3.22945 0
M  V30 64340 H 4700.13 -6.54213 5.71376 0
M  V30 64341 H 4700.4 -5.30492 4.44033 0
M  V30 64342 H 4699.54 -4.55889 6.76652 0
M  V30 64343 P 4695.57 -4.23843 7.83734 0
M  V30 64344 O 4695.35 -4.19407 9.29784 0
M  V30 64345 O 4694.78 -5.24426 7.09156 0
M  V30 64346 O 4695.32 -2.7935 7.20758 0
M  V30 64347 C 4696.26 -1.7299 7.50419 0
M  V30 64348 C 4695.53 -0.406376 7.57911 0
M  V30 64349 O 4695.32 0.0897726 6.21935 0
M  V30 64350 C 4694.13 -0.447224 8.1878 0
M  V30 64351 O 4693.74 0.825065 8.71101 0
M  V30 64352 C 4693.25 -0.783801 6.99623 0
M  V30 64353 C 4693.96 -0.0619192 5.85967 0
M  V30 64354 N 4693.91 -0.790462 4.56202 0
M  V30 64355 C 4693.99 -2.13895 4.34171 0
M  V30 64356 N 4693.92 -2.46449 3.08687 0
M  V30 64357 C 4693.77 -1.2525 2.43697 0
M  V30 64358 C 4693.64 -0.914535 1.07318 0
M  V30 64359 N 4693.63 -1.80782 0.0887348 0
M  V30 64360 N 4693.52 0.386745 0.768133 0
M  V30 64361 C 4693.53 1.28096 1.75159 0
M  V30 64362 N 4693.65 1.09708 3.04861 0
M  V30 64363 C 4693.77 -0.214857 3.32306 0
M  V30 64364 H 4696.75 -1.93423 8.4679 0
M  V30 64365 H 4697.02 -1.68852 6.70877 0
M  V30 64366 H 4696.16 0.289041 8.15388 0
M  V30 64367 H 4693.5 0.927006 5.72848 0
M  V30 64368 H 4693.22 -1.86973 6.82036 0
M  V30 64369 H 4692.23 -0.403953 7.13357 0
M  V30 64370 H 4694.06 -1.20599 8.97534 0
M  V30 64371 H 4694.1 -2.86846 5.14318 0
M  V30 64372 H 4693.72 -2.81082 0.302037 0
M  V30 64373 H 4693.53 -1.49688 -0.889064 0
M  V30 64374 H 4693.43 2.31317 1.43855 0
M  V30 64375 P 4692.19 1.17771 8.83182 0
M  V30 64376 O 4691.97 2.07206 9.98732 0
M  V30 64377 O 4691.4 -0.0743816 8.81969 0
M  V30 64378 O 4691.94 1.97652 7.47304 0
M  V30 64379 C 4692.88 3.01133 7.08783 0
M  V30 64380 C 4692.15 4.12613 6.37049 0
M  V30 64381 O 4691.94 3.72827 4.97879 0
M  V30 64382 C 4690.75 4.45085 6.88694 0
M  V30 64383 O 4690.36 5.7877 6.5624 0
M  V30 64384 C 4689.87 3.47817 6.12078 0
M  V30 64385 C 4690.58 3.39414 4.77697 0
M  V30 64386 N 4690.53 2.04615 4.15333 0
M  V30 64387 H 4693.37 3.41248 7.98759 0
M  V30 64388 H 4693.64 2.5837 6.41742 0
M  V30 64389 H 4692.78 5.02657 6.42673 0
M  V30 64390 P 4688.81 6.144 6.45285 0
M  V30 64391 O 4688.59 7.54673 6.86199 0
M  V30 64392 O 4688.02 5.12391 7.179 0
M  V30 64393 O 4688.56 5.99158 4.88404 0
M  V30 64394 C 4689.5 6.60234 3.96415 0
M  V30 64395 C 4688.77 7.08259 2.72856 0
M  V30 64396 O 4688.56 5.9427 1.83651 0
M  V30 64397 C 4687.37 7.64886 2.9555 0
M  V30 64398 O 4686.98 8.53963 1.90717 0
M  V30 64399 C 4686.49 6.4116 2.90739 0
M  V30 64400 C 4687.2 5.55375 1.86963 0
M  V30 64401 N 4687.15 4.09448 2.16152 0
M  V30 64402 H 4689.99 7.45574 4.45629 0
M  V30 64403 H 4690.26 5.85864 3.679 0
M  V30 64404 H 4689.4 7.84412 2.24479 0
M  V30 64405 H 4686.74 5.73457 0.888562 0
M  V30 64406 H 4686.46 5.90877 3.88583 0
M  V30 64407 H 4685.47 6.6596 2.58858 0
M  V30 64408 H 4687.3 8.16339 3.92049 0
M  V30 64409 P 4685.43 8.7635 1.60911 0
M  V30 64410 O 4685.21 10.1388 1.11561 0
M  V30 64411 O 4684.64 8.36503 2.79617 0
M  V30 64412 O 4685.18 7.71806 0.42951 0
M  V30 64413 C 4686.12 7.67148 -0.673689 0
M  V30 64414 C 4685.39 7.33374 -1.95559 0
M  V30 64415 O 4685.18 5.88721 -2.00726 0
M  V30 64416 C 4683.99 7.92526 -2.10483 0
M  V30 64417 O 4683.6 8.02971 -3.47653 0
M  V30 64418 C 4683.11 6.89602 -1.41652 0
M  V30 64419 C 4683.82 5.59201 -1.75185 0
M  V30 64420 N 4683.77 4.58235 -0.662552 0
M  V30 64421 H 4686.61 8.65116 -0.777161 0
M  V30 64422 H 4686.88 6.90173 -0.474152 0
M  V30 64423 H 4686.02 7.66548 -2.79458 0
M  V30 64424 P 4682.05 8.03563 -3.84925 0
M  V30 64425 O 4681.83 8.85821 -5.0569 0
M  V30 64426 O 4681.26 8.41101 -2.65469 0
M  V30 64427 O 4681.8 6.4965 -4.18908 0
M  V30 64428 C 4682.74 5.81037 -5.05421 0
M  V30 64429 C 4682.01 4.78366 -5.89277 0
M  V30 64430 O 4681.8 3.58302 -5.08433 0
M  V30 64431 C 4680.61 5.17448 -6.36119 0
M  V30 64432 O 4680.22 4.45271 -7.53232 0
M  V30 64433 C 4679.73 4.74639 -5.19936 0
M  V30 64434 C 4680.44 3.49432 -4.70418 0
M  V30 64435 N 4680.39 3.31776 -3.22945 0
M  V30 64436 H 4683.23 6.54213 -5.71376 0
M  V30 64437 H 4683.5 5.30492 -4.44033 0
M  V30 64438 H 4682.64 4.55889 -6.76652 0
M  V30 64439 P 4678.67 4.23843 -7.83734 0
M  V30 64440 O 4678.45 4.19407 -9.29784 0
M  V30 64441 O 4677.88 5.24426 -7.09156 0
M  V30 64442 O 4678.42 2.7935 -7.20758 0
M  V30 64443 C 4679.36 1.7299 -7.50419 0
M  V30 64444 C 4678.63 0.406376 -7.57911 0
M  V30 64445 O 4678.42 -0.0897726 -6.21935 0
M  V30 64446 C 4677.23 0.447224 -8.1878 0
M  V30 64447 O 4676.84 -0.825065 -8.71101 0
M  V30 64448 C 4676.35 0.783801 -6.99623 0
M  V30 64449 C 4677.06 0.0619192 -5.85967 0
M  V30 64450 N 4677.01 0.790462 -4.56202 0
M  V30 64451 C 4677.09 2.13895 -4.34171 0
M  V30 64452 N 4677.02 2.46449 -3.08687 0
M  V30 64453 C 4676.87 1.2525 -2.43697 0
M  V30 64454 C 4676.74 0.914535 -1.07318 0
M  V30 64455 N 4676.73 1.80782 -0.0887348 0
M  V30 64456 N 4676.62 -0.386745 -0.768133 0
M  V30 64457 C 4676.63 -1.28096 -1.75159 0
M  V30 64458 N 4676.75 -1.09708 -3.04861 0
M  V30 64459 C 4676.87 0.214857 -3.32306 0
M  V30 64460 H 4679.85 1.93423 -8.4679 0
M  V30 64461 H 4680.12 1.68852 -6.70877 0
M  V30 64462 H 4679.26 -0.289041 -8.15388 0
M  V30 64463 H 4676.6 -0.927006 -5.72848 0
M  V30 64464 H 4676.32 1.86973 -6.82036 0
M  V30 64465 H 4675.33 0.403953 -7.13357 0
M  V30 64466 H 4677.16 1.20599 -8.97534 0
M  V30 64467 H 4677.2 2.86846 -5.14318 0
M  V30 64468 H 4676.82 2.81082 -0.302037 0
M  V30 64469 H 4676.63 1.49688 0.889064 0
M  V30 64470 H 4676.53 -2.31317 -1.43855 0
M  V30 64471 P 4675.29 -1.17771 -8.83182 0
M  V30 64472 O 4675.07 -2.07206 -9.98732 0
M  V30 64473 O 4674.5 0.0743816 -8.81969 0
M  V30 64474 O 4675.04 -1.97652 -7.47304 0
M  V30 64475 C 4675.98 -3.01133 -7.08783 0
M  V30 64476 C 4675.25 -4.12613 -6.37049 0
M  V30 64477 O 4675.04 -3.72827 -4.97879 0
M  V30 64478 C 4673.85 -4.45085 -6.88694 0
M  V30 64479 O 4673.46 -5.7877 -6.5624 0
M  V30 64480 C 4672.97 -3.47817 -6.12078 0
M  V30 64481 C 4673.68 -3.39414 -4.77697 0
M  V30 64482 N 4673.63 -2.04199 -4.15538 0
M  V30 64483 H 4676.47 -3.41248 -7.98759 0
M  V30 64484 H 4676.74 -2.57728 -6.42 0
M  V30 64485 H 4675.88 -5.02657 -6.42673 0
M  V30 64486 H 4673.22 -4.11708 -4.08956 0
M  V30 64487 H 4672.94 -2.49626 -6.61679 0
M  V30 64488 H 4671.95 -3.8662 -6.00862 0
M  V30 64489 H 4673.78 -4.29991 -7.97006 0
M  V30 64490 P 4671.91 -6.144 -6.45285 0
M  V30 64491 O 4671.69 -7.54673 -6.86199 0
M  V30 64492 O 4671.12 -5.12391 -7.179 0
M  V30 64493 O 4671.66 -5.99236 -4.88467 0
M  V30 64494 C 4672.6 -6.60234 -3.96415 0
M  V30 64495 C 4671.87 -7.08079 -2.736 0
M  V30 64496 O 4671.66 -5.94365 -1.8368 0
M  V30 64497 C 4670.47 -7.64886 -2.9555 0
M  V30 64498 O 4670.08 -8.5406 -1.90739 0
M  V30 64499 C 4669.59 -6.4116 -2.90739 0
M  V30 64500 C 4670.3 -5.55375 -1.86963 0
M  V30 64501 N 4670.25 -4.09664 -2.15742 0
M  V30 64502 C 4670.1 -3.22231 -1.08477 0
M  V30 64503 O 4670.01 -3.68951 0.0600489 0
M  V30 64504 N 4670.05 -1.76692 -1.48799 0
M  V30 64505 C 4670.15 -1.41695 -2.57602 0
M  V30 64506 N 4670.1 -0.107296 -2.75791 0
M  V30 64507 C 4670.3 -2.29178 -3.69733 0
M  V30 64508 C 4670.35 -3.62753 -3.42653 0
M  V30 64509 H 4673.09 -7.45488 -4.45578 0
M  V30 64510 H 4673.36 -5.86232 -3.67314 0
M  V30 64511 H 4672.5 -7.84508 -2.24507 0
M  V30 64512 H 4669.84 -5.73556 -0.888715 0
M  V30 64513 H 4669.56 -5.9096 -3.88638 0
M  V30 64514 H 4668.57 -6.66053 -2.58894 0
M  V30 64515 H 4670.4 -8.16339 -3.92049 0
M  V30 64516 H 4670.48 -4.33052 -4.24913 0
M  V30 64517 H 4670.37 -1.9103 -4.71577 0
M  V30 64518 H 4669.99 0.521221 -1.95056 0
M  V30 64519 H 4670.18 0.286429 -3.70695 0
M  V30 64520 P 4668.53 -8.7635 -1.60911 0
M  V30 64521 O 4668.31 -10.1388 -1.11561 0
M  V30 64522 O 4667.74 -8.36503 -2.79617 0
M  V30 64523 O 4668.28 -7.71806 -0.42951 0
M  V30 64524 C 4669.22 -7.66948 0.673514 0
M  V30 64525 C 4668.49 -7.33374 1.95559 0
M  V30 64526 O 4668.28 -5.88721 2.00726 0
M  V30 64527 C 4667.09 -7.92218 2.1125 0
M  V30 64528 O 4666.7 -8.02971 3.47653 0
M  V30 64529 C 4666.21 -6.89504 1.41631 0
M  V30 64530 C 4666.92 -5.59106 1.75155 0
M  V30 64531 N 4666.87 -4.58136 0.662409 0
M  V30 64532 C 4666.72 -3.26059 1.02863 0
M  V30 64533 O 4666.63 -2.90743 2.19009 0
M  V30 64534 N 4666.68 -2.35995 -0.0155585 0
M  V30 64535 C 4666.77 -2.65248 -1.35603 0
M  V30 64536 O 4666.72 -1.75605 -2.20651 0
M  V30 64537 C 4666.92 -4.05747 -1.64698 0
M  V30 64538 C 4667.03 -4.42345 -3.09553 0
M  V30 64539 C 4666.97 -4.96734 -0.652411 0
M  V30 64540 H 4669.71 -8.64917 0.776982 0
M  V30 64541 H 4669.98 -6.89974 0.474015 0
M  V30 64542 H 4669.12 -7.66548 2.79458 0
M  V30 64543 H 4666.46 -5.16076 2.65138 0
M  V30 64544 H 4666.18 -7.06433 0.329384 0
M  V30 64545 H 4665.19 -6.90829 1.81996 0
M  V30 64546 H 4667.02 -8.90774 1.62639 0
M  V30 64547 H 4667.09 -6.02181 -0.895285 0
M  V30 64548 H 4666.06 -4.80252 -3.45468 0
M  V30 64549 H 4667.8 -5.20015 -3.22119 0
M  V30 64550 H 4667.31 -3.53269 -3.67833 0
M  V30 64551 H 4666.58 -1.39558 0.227499 0
M  V30 64552 P 4665.15 -8.03563 3.84925 0
M  V30 64553 O 4664.93 -8.85821 5.0569 0
M  V30 64554 O 4664.36 -8.41101 2.65469 0
M  V30 64555 O 4664.9 -6.4965 4.18908 0
M  V30 64556 C 4665.84 -5.81037 5.05421 0
M  V30 64557 C 4665.11 -4.78366 5.89277 0
M  V30 64558 O 4664.9 -3.58302 5.08433 0
M  V30 64559 C 4663.71 -5.17448 6.36119 0
M  V30 64560 O 4663.32 -4.45271 7.53232 0
M  V30 64561 C 4662.83 -4.74639 5.19936 0
M  V30 64562 C 4663.54 -3.49432 4.70418 0
M  V30 64563 N 4663.49 -3.31776 3.22945 0
M  V30 64564 H 4666.33 -6.54213 5.71376 0
M  V30 64565 H 4666.6 -5.30492 4.44033 0
M  V30 64566 H 4665.74 -4.55889 6.76652 0
M  V30 64567 P 4661.77 -4.23843 7.83734 0
M  V30 64568 O 4661.55 -4.19407 9.29784 0
M  V30 64569 O 4660.98 -5.24426 7.09156 0
M  V30 64570 O 4661.52 -2.7935 7.20758 0
M  V30 64571 C 4662.46 -1.7299 7.50419 0
M  V30 64572 C 4661.73 -0.406376 7.57911 0
M  V30 64573 O 4661.52 0.0897726 6.21935 0
M  V30 64574 C 4660.33 -0.447224 8.1878 0
M  V30 64575 O 4659.94 0.825065 8.71101 0
M  V30 64576 C 4659.45 -0.783801 6.99623 0
M  V30 64577 C 4660.16 -0.0619192 5.85967 0
M  V30 64578 N 4660.11 -0.7859 4.56281 0
M  V30 64579 H 4662.95 -1.93423 8.4679 0
M  V30 64580 H 4663.22 -1.68181 6.71046 0
M  V30 64581 H 4662.36 0.289041 8.15388 0
M  V30 64582 P 4658.39 1.17771 8.83182 0
M  V30 64583 O 4658.17 2.07206 9.98732 0
M  V30 64584 O 4657.6 -0.0743816 8.81969 0
M  V30 64585 O 4658.14 1.97652 7.47304 0
M  V30 64586 C 4659.08 3.01055 7.08599 0
M  V30 64587 C 4658.35 4.12613 6.37049 0
M  V30 64588 O 4658.14 3.72827 4.97879 0
M  V30 64589 C 4656.95 4.45719 6.88164 0
M  V30 64590 O 4656.56 5.7877 6.5624 0
M  V30 64591 C 4656.07 3.47768 6.11991 0
M  V30 64592 C 4656.78 3.39356 4.77615 0
M  V30 64593 N 4656.73 2.04571 4.15244 0
M  V30 64594 C 4656.58 1.98587 2.78314 0
M  V30 64595 O 4656.49 2.98134 2.08835 0
M  V30 64596 N 4656.54 0.714467 2.24925 0
M  V30 64597 C 4656.63 -0.470001 2.94169 0
M  V30 64598 O 4656.58 -1.55587 2.35195 0
M  V30 64599 C 4656.78 -0.312541 4.36783 0
M  V30 64600 C 4656.89 -1.57711 5.16352 0
M  V30 64601 C 4656.83 0.914512 4.92583 0
M  V30 64602 H 4659.57 3.41169 7.98575 0
M  V30 64603 H 4659.84 2.58295 6.41556 0
M  V30 64604 H 4658.98 5.02657 6.42673 0
M  V30 64605 H 4656.32 4.11637 4.08885 0
M  V30 64606 H 4656.04 2.49626 6.61679 0
M  V30 64607 H 4655.05 3.86566 6.00778 0
M  V30 64608 H 4656.88 4.29943 7.96918 0
M  V30 64609 H 4656.95 1.00937 6.00374 0
M  V30 64610 H 4655.92 -1.80153 5.63503 0
M  V30 64611 H 4657.66 -1.4566 5.94104 0
M  V30 64612 H 4657.17 -2.40664 4.49645 0
M  V30 64613 H 4656.44 0.647622 1.25697 0
M  V30 64614 P 4655.01 6.144 6.45285 0
M  V30 64615 O 4654.79 7.54673 6.86199 0
M  V30 64616 O 4654.22 5.12391 7.179 0
M  V30 64617 O 4654.76 5.99158 4.88404 0
M  V30 64618 C 4655.7 6.60234 3.96415 0
M  V30 64619 C 4654.97 7.08259 2.72856 0
M  V30 64620 O 4654.76 5.9427 1.83651 0
M  V30 64621 C 4653.57 7.64886 2.9555 0
M  V30 64622 O 4653.18 8.53963 1.90717 0
M  V30 64623 C 4652.69 6.4116 2.90739 0
M  V30 64624 C 4653.4 5.55375 1.86963 0
M  V30 64625 N 4653.35 4.09664 2.15742 0
M  V30 64626 H 4656.19 7.45574 4.45629 0
M  V30 64627 H 4656.46 5.86232 3.67314 0
M  V30 64628 H 4655.6 7.84412 2.24479 0
M  V30 64629 P 4651.63 8.7635 1.60911 0
M  V30 64630 O 4651.41 10.1388 1.11561 0
M  V30 64631 O 4650.84 8.36503 2.79617 0
M  V30 64632 O 4651.38 7.71806 0.42951 0
M  V30 64633 C 4652.32 7.67148 -0.673689 0
M  V30 64634 C 4651.59 7.33374 -1.95559 0
M  V30 64635 O 4651.38 5.88721 -2.00726 0
M  V30 64636 C 4650.19 7.92526 -2.10483 0
M  V30 64637 O 4649.8 8.02971 -3.47653 0
M  V30 64638 C 4649.31 6.89602 -1.41652 0
M  V30 64639 C 4650.02 5.59201 -1.75185 0
M  V30 64640 N 4649.97 4.58235 -0.662552 0
M  V30 64641 H 4652.81 8.65116 -0.777161 0
M  V30 64642 H 4653.08 6.90173 -0.474152 0
M  V30 64643 H 4652.22 7.66548 -2.79458 0
M  V30 64644 P 4648.25 8.03563 -3.84925 0
M  V30 64645 O 4648.03 8.85821 -5.0569 0
M  V30 64646 O 4647.46 8.41101 -2.65469 0
M  V30 64647 O 4648 6.4965 -4.18908 0
M  V30 64648 C 4648.94 5.81037 -5.05421 0
M  V30 64649 C 4648.21 4.78366 -5.89277 0
M  V30 64650 O 4648 3.58302 -5.08433 0
M  V30 64651 C 4646.81 5.17448 -6.36119 0
M  V30 64652 O 4646.42 4.45271 -7.53232 0
M  V30 64653 C 4645.93 4.74639 -5.19936 0
M  V30 64654 C 4646.64 3.49432 -4.70418 0
M  V30 64655 N 4646.59 3.32099 -3.22613 0
M  V30 64656 C 4646.67 4.28245 -2.25527 0
M  V30 64657 N 4646.6 3.80823 -1.04874 0
M  V30 64658 C 4646.45 2.44571 -1.23535 0
M  V30 64659 C 4646.32 1.37068 -0.330675 0
M  V30 64660 N 4646.31 1.51472 0.990824 0
M  V30 64661 N 4646.2 0.138614 -0.848756 0
M  V30 64662 C 4646.21 -0.00675923 -2.16999 0
M  V30 64663 N 4646.33 0.904372 -3.11122 0
M  V30 64664 C 4646.45 2.12707 -2.56212 0
M  V30 64665 H 4649.43 6.54213 -5.71376 0
M  V30 64666 H 4649.7 5.30936 -4.43503 0
M  V30 64667 H 4648.84 4.55889 -6.76652 0
M  V30 64668 H 4646.18 2.61715 -5.17932 0
M  V30 64669 H 4645.9 5.52155 -4.41878 0
M  V30 64670 H 4644.91 4.51981 -5.53374 0
M  V30 64671 H 4646.74 6.25124 -6.55234 0
M  V30 64672 H 4646.78 5.34372 -2.47488 0
M  V30 64673 H 4646.4 2.45153 1.4078 0
M  V30 64674 H 4646.21 0.688422 1.59911 0
M  V30 64675 H 4646.11 -1.02584 -2.52346 0
M  V30 64676 P 4644.87 4.23843 -7.83734 0
M  V30 64677 O 4644.65 4.19407 -9.29784 0
M  V30 64678 O 4644.08 5.24426 -7.09156 0
M  V30 64679 O 4644.62 2.7935 -7.20758 0
M  V30 64680 C 4645.56 1.7299 -7.50419 0
M  V30 64681 C 4644.83 0.406376 -7.57911 0
M  V30 64682 O 4644.62 -0.0897726 -6.21935 0
M  V30 64683 C 4643.43 0.447224 -8.1878 0
M  V30 64684 O 4643.04 -0.825065 -8.71101 0
M  V30 64685 C 4642.55 0.783801 -6.99623 0
M  V30 64686 C 4643.26 0.0619192 -5.85967 0
M  V30 64687 N 4643.21 0.7859 -4.56281 0
M  V30 64688 H 4646.05 1.93423 -8.4679 0
M  V30 64689 H 4646.32 1.68181 -6.71046 0
M  V30 64690 H 4645.46 -0.289041 -8.15388 0
M  V30 64691 P 4641.49 -1.17771 -8.83182 0
M  V30 64692 O 4641.27 -2.07206 -9.98732 0
M  V30 64693 O 4640.7 0.0743816 -8.81969 0
M  V30 64694 O 4641.24 -1.97652 -7.47304 0
M  V30 64695 C 4642.18 -3.01133 -7.08783 0
M  V30 64696 C 4641.45 -4.12613 -6.37049 0
M  V30 64697 O 4641.24 -3.72827 -4.97879 0
M  V30 64698 C 4640.05 -4.45085 -6.88694 0
M  V30 64699 O 4639.66 -5.7877 -6.5624 0
M  V30 64700 C 4639.17 -3.47817 -6.12078 0
M  V30 64701 C 4639.88 -3.39414 -4.77697 0
M  V30 64702 N 4639.83 -2.04615 -4.15333 0
M  V30 64703 H 4642.67 -3.41248 -7.98759 0
M  V30 64704 H 4642.94 -2.5837 -6.41742 0
M  V30 64705 H 4642.08 -5.02657 -6.42673 0
M  V30 64706 P 4638.11 -6.144 -6.45285 0
M  V30 64707 O 4637.89 -7.54673 -6.86199 0
M  V30 64708 O 4637.32 -5.12391 -7.179 0
M  V30 64709 O 4637.86 -5.99158 -4.88404 0
M  V30 64710 C 4638.8 -6.60062 -3.96313 0
M  V30 64711 C 4638.07 -7.08259 -2.72856 0
M  V30 64712 O 4637.86 -5.9427 -1.83651 0
M  V30 64713 C 4636.67 -7.65087 -2.94749 0
M  V30 64714 O 4636.28 -8.53963 -1.90717 0
M  V30 64715 C 4635.79 -6.41069 -2.90698 0
M  V30 64716 C 4636.5 -5.5528 -1.86931 0
M  V30 64717 N 4636.45 -4.09575 -2.15696 0
M  V30 64718 C 4636.3 -3.24249 -1.08435 0
M  V30 64719 O 4636.21 -3.63946 0.0628747 0
M  V30 64720 N 4636.26 -1.90009 -1.39973 0
M  V30 64721 C 4636.35 -1.34884 -2.65614 0
M  V30 64722 C 4636.5 -2.3145 -3.71736 0
M  V30 64723 C 4636.55 -3.63518 -3.44754 0
M  V30 64724 H 4639.29 -7.45402 -4.45526 0
M  V30 64725 H 4639.56 -5.86062 -3.67208 0
M  V30 64726 H 4638.7 -7.84412 -2.24479 0
M  V30 64727 H 4636.04 -5.73358 -0.888409 0
M  V30 64728 H 4635.76 -5.90877 -3.88583 0
M  V30 64729 H 4634.77 -6.65867 -2.58821 0
M  V30 64730 H 4636.6 -8.16248 -3.92006 0
M  V30 64731 H 4636.67 -4.34551 -4.26383 0
M  V30 64732 P 4634.73 -8.7635 -1.60911 0
M  V30 64733 O 4634.51 -10.1388 -1.11561 0
M  V30 64734 O 4633.94 -8.36503 -2.79617 0
M  V30 64735 O 4634.48 -7.71806 -0.42951 0
M  V30 64736 C 4635.42 -7.67148 0.673689 0
M  V30 64737 C 4634.69 -7.33374 1.95559 0
M  V30 64738 O 4634.48 -5.88721 2.00726 0
M  V30 64739 C 4633.29 -7.92526 2.10483 0
M  V30 64740 O 4632.9 -8.02971 3.47653 0
M  V30 64741 C 4632.41 -6.89602 1.41652 0
M  V30 64742 C 4633.12 -5.59201 1.75185 0
M  V30 64743 N 4633.07 -4.58235 0.662552 0
M  V30 64744 H 4635.91 -8.65116 0.777161 0
M  V30 64745 H 4636.18 -6.90173 0.474152 0
M  V30 64746 H 4635.32 -7.66548 2.79458 0
M  V30 64747 P 4631.35 -8.03563 3.84925 0
M  V30 64748 O 4631.13 -8.85821 5.0569 0
M  V30 64749 O 4630.56 -8.41101 2.65469 0
M  V30 64750 O 4631.1 -6.4965 4.18908 0
M  V30 64751 C 4632.04 -5.81037 5.05421 0
M  V30 64752 C 4631.31 -4.78366 5.89277 0
M  V30 64753 O 4631.1 -3.58302 5.08433 0
M  V30 64754 C 4629.91 -5.17448 6.36119 0
M  V30 64755 O 4629.52 -4.45271 7.53232 0
M  V30 64756 C 4629.03 -4.74639 5.19936 0
M  V30 64757 C 4629.74 -3.49432 4.70418 0
M  V30 64758 N 4629.69 -3.31776 3.22945 0
M  V30 64759 C 4629.77 -4.27147 2.23315 0
M  V30 64760 N 4629.69 -3.78447 1.02186 0
M  V30 64761 C 4629.55 -2.41001 1.21732 0
M  V30 64762 C 4629.42 -1.36111 0.27694 0
M  V30 64763 O 4629.4 -1.42065 -0.951767 0
M  V30 64764 N 4629.3 -0.113683 0.912949 0
M  V30 64765 C 4629.3 0.0846396 2.27943 0
M  V30 64766 N 4629.17 1.34737 2.6916 0
M  V30 64767 N 4629.43 -0.902521 3.16379 0
M  V30 64768 C 4629.55 -2.11937 2.56849 0
M  V30 64769 H 4632.53 -6.54213 5.71376 0
M  V30 64770 H 4632.8 -5.30492 4.44033 0
M  V30 64771 H 4631.94 -4.55889 6.76652 0
M  V30 64772 H 4629.28 -2.6176 5.18021 0
M  V30 64773 H 4629 -5.52233 4.41941 0
M  V30 64774 H 4628.01 -4.52045 5.53452 0
M  V30 64775 H 4629.84 -6.25193 6.55307 0
M  V30 64776 H 4629.89 -5.3351 2.43857 0
M  V30 64777 H 4629.21 0.69331 0.330371 0
M  V30 64778 H 4629.17 1.56433 3.6988 0
M  V30 64779 H 4629.07 2.10701 2.00133 0
M  V30 64780 P 4627.97 -4.23843 7.83734 0
M  V30 64781 O 4627.75 -4.19407 9.29784 0
M  V30 64782 O 4627.18 -5.24426 7.09156 0
M  V30 64783 O 4627.72 -2.7935 7.20758 0
M  V30 64784 C 4628.66 -1.7299 7.50419 0
M  V30 64785 C 4627.93 -0.406376 7.57911 0
M  V30 64786 O 4627.72 0.0897726 6.21935 0
M  V30 64787 C 4626.53 -0.447224 8.1878 0
M  V30 64788 O 4626.14 0.825065 8.71101 0
M  V30 64789 C 4625.65 -0.783801 6.99623 0
M  V30 64790 C 4626.36 -0.0619192 5.85967 0
M  V30 64791 N 4626.31 -0.7859 4.56281 0
M  V30 64792 H 4629.15 -1.93423 8.4679 0
M  V30 64793 H 4629.42 -1.68181 6.71046 0
M  V30 64794 H 4628.56 0.289041 8.15388 0
M  V30 64795 P 4624.59 1.17771 8.83182 0
M  V30 64796 O 4624.37 2.07206 9.98732 0
M  V30 64797 O 4623.8 -0.0743816 8.81969 0
M  V30 64798 O 4624.34 1.97652 7.47304 0
M  V30 64799 C 4625.28 3.01133 7.08783 0
M  V30 64800 C 4624.55 4.12613 6.37049 0
M  V30 64801 O 4624.34 3.72827 4.97879 0
M  V30 64802 C 4623.15 4.45085 6.88694 0
M  V30 64803 O 4622.76 5.7877 6.5624 0
M  V30 64804 C 4622.27 3.47817 6.12078 0
M  V30 64805 C 4622.98 3.39414 4.77697 0
M  V30 64806 N 4622.93 2.04615 4.15333 0
M  V30 64807 C 4623.01 0.803897 4.75249 0
M  V30 64808 N 4622.93 -0.197615 3.91502 0
M  V30 64809 C 4622.79 0.413002 2.66823 0
M  V30 64810 C 4622.66 -0.157221 1.38007 0
M  V30 64811 O 4622.64 -1.34419 1.057 0
M  V30 64812 N 4622.54 0.833136 0.390236 0
M  V30 64813 C 4622.54 2.19402 0.623885 0
M  V30 64814 N 4622.41 2.97622 -0.449677 0
M  V30 64815 N 4622.67 2.73005 1.83601 0
M  V30 64816 C 4622.79 1.78786 2.80935 0
M  V30 64817 H 4625.77 3.41248 7.98759 0
M  V30 64818 H 4626.04 2.5837 6.41742 0
M  V30 64819 H 4625.18 5.02657 6.42673 0
M  V30 64820 H 4622.52 4.11779 4.09026 0
M  V30 64821 H 4622.24 2.49661 6.61772 0
M  V30 64822 H 4621.25 3.86674 6.00946 0
M  V30 64823 H 4623.08 4.30038 7.97094 0
M  V30 64824 H 4623.13 0.670579 5.82754 0
M  V30 64825 H 4622.45 0.528446 -0.557287 0
M  V30 64826 H 4622.41 4.00117 -0.344773 0
M  V30 64827 H 4622.31 2.55448 -1.38544 0
M  V30 64828 P 4621.21 6.144 6.45285 0
M  V30 64829 O 4620.99 7.54673 6.86199 0
M  V30 64830 O 4620.42 5.12391 7.179 0
M  V30 64831 O 4620.96 5.99236 4.88467 0
M  V30 64832 C 4621.9 6.60234 3.96415 0
M  V30 64833 C 4621.17 7.08079 2.736 0
M  V30 64834 O 4620.96 5.94365 1.8368 0
M  V30 64835 C 4619.77 7.64886 2.9555 0
M  V30 64836 O 4619.38 8.5406 1.90739 0
M  V30 64837 C 4618.89 6.4116 2.90739 0
M  V30 64838 C 4619.6 5.55375 1.86963 0
M  V30 64839 N 4619.55 4.09664 2.15742 0
M  V30 64840 C 4619.4 3.22231 1.08477 0
M  V30 64841 O 4619.31 3.68951 -0.0600489 0
M  V30 64842 N 4619.35 1.76692 1.48799 0
M  V30 64843 C 4619.45 1.41695 2.57602 0
M  V30 64844 N 4619.4 0.107296 2.75791 0
M  V30 64845 C 4619.6 2.29178 3.69733 0
M  V30 64846 C 4619.65 3.62753 3.42653 0
M  V30 64847 H 4622.39 7.45488 4.45578 0
M  V30 64848 H 4622.66 5.86232 3.67314 0
M  V30 64849 H 4621.8 7.84508 2.24507 0
M  V30 64850 H 4619.14 5.73556 0.888715 0
M  V30 64851 H 4618.86 5.9096 3.88638 0
M  V30 64852 H 4617.87 6.66053 2.58894 0
M  V30 64853 H 4619.7 8.16339 3.92049 0
M  V30 64854 H 4619.78 4.33052 4.24913 0
M  V30 64855 H 4619.67 1.9103 4.71577 0
M  V30 64856 H 4619.29 -0.521221 1.95056 0
M  V30 64857 H 4619.48 -0.286429 3.70695 0
M  V30 64858 P 4617.83 8.7635 1.60911 0
M  V30 64859 O 4617.61 10.1388 1.11561 0
M  V30 64860 O 4617.04 8.36503 2.79617 0
M  V30 64861 O 4617.58 7.71806 0.42951 0
M  V30 64862 C 4618.52 7.67148 -0.673689 0
M  V30 64863 C 4617.79 7.33374 -1.95559 0
M  V30 64864 O 4617.58 5.88721 -2.00726 0
M  V30 64865 C 4616.39 7.92526 -2.10483 0
M  V30 64866 O 4616 8.02971 -3.47653 0
M  V30 64867 C 4615.51 6.89602 -1.41652 0
M  V30 64868 C 4616.22 5.59201 -1.75185 0
M  V30 64869 N 4616.17 4.58235 -0.662552 0
M  V30 64870 H 4619.01 8.65116 -0.777161 0
M  V30 64871 H 4619.28 6.90173 -0.474152 0
M  V30 64872 H 4618.42 7.66548 -2.79458 0
M  V30 64873 P 4614.45 8.03563 -3.84925 0
M  V30 64874 O 4614.23 8.85821 -5.0569 0
M  V30 64875 O 4613.66 8.41101 -2.65469 0
M  V30 64876 O 4614.2 6.4965 -4.18908 0
M  V30 64877 C 4615.14 5.81037 -5.05421 0
M  V30 64878 C 4614.41 4.78366 -5.89277 0
M  V30 64879 O 4614.2 3.58302 -5.08433 0
M  V30 64880 C 4613.01 5.17448 -6.36119 0
M  V30 64881 O 4612.62 4.45271 -7.53232 0
M  V30 64882 C 4612.13 4.74639 -5.19936 0
M  V30 64883 C 4612.84 3.49432 -4.70418 0
M  V30 64884 N 4612.79 3.31776 -3.22945 0
M  V30 64885 H 4615.63 6.54213 -5.71376 0
M  V30 64886 H 4615.9 5.30492 -4.44033 0
M  V30 64887 H 4615.04 4.55889 -6.76652 0
M  V30 64888 P 4611.07 4.23843 -7.83734 0
M  V30 64889 O 4610.85 4.19407 -9.29784 0
M  V30 64890 O 4610.28 5.24426 -7.09156 0
M  V30 64891 O 4610.82 2.7935 -7.20758 0
M  V30 64892 C 4611.76 1.7299 -7.50419 0
M  V30 64893 C 4611.03 0.406376 -7.57911 0
M  V30 64894 O 4610.82 -0.0897726 -6.21935 0
M  V30 64895 C 4609.63 0.447224 -8.1878 0
M  V30 64896 O 4609.24 -0.825065 -8.71101 0
M  V30 64897 C 4608.75 0.783801 -6.99623 0
M  V30 64898 C 4609.46 0.0619192 -5.85967 0
M  V30 64899 N 4609.41 0.790462 -4.56202 0
M  V30 64900 H 4612.25 1.93423 -8.4679 0
M  V30 64901 H 4612.52 1.68852 -6.70877 0
M  V30 64902 H 4611.66 -0.289041 -8.15388 0
M  V30 64903 H 4609 -0.927006 -5.72848 0
M  V30 64904 H 4608.72 1.86973 -6.82036 0
M  V30 64905 H 4607.73 0.403953 -7.13357 0
M  V30 64906 H 4609.56 1.20599 -8.97534 0
M  V30 64907 P 4607.69 -1.17771 -8.83182 0
M  V30 64908 O 4607.47 -2.07206 -9.98732 0
M  V30 64909 O 4606.9 0.0743816 -8.81969 0
M  V30 64910 O 4607.44 -1.97652 -7.47304 0
M  V30 64911 C 4608.38 -3.01133 -7.08783 0
M  V30 64912 C 4607.65 -4.12613 -6.37049 0
M  V30 64913 O 4607.44 -3.72827 -4.97879 0
M  V30 64914 C 4606.25 -4.45085 -6.88694 0
M  V30 64915 O 4605.86 -5.7877 -6.5624 0
M  V30 64916 C 4605.37 -3.47817 -6.12078 0
M  V30 64917 C 4606.08 -3.39414 -4.77697 0
M  V30 64918 N 4606.03 -2.04615 -4.15333 0
M  V30 64919 H 4608.87 -3.41248 -7.98759 0
M  V30 64920 H 4609.14 -2.5837 -6.41742 0
M  V30 64921 H 4608.28 -5.02657 -6.42673 0
M  V30 64922 P 4604.31 -6.144 -6.45285 0
M  V30 64923 O 4604.09 -7.54673 -6.86199 0
M  V30 64924 O 4603.52 -5.12391 -7.179 0
M  V30 64925 O 4604.06 -5.99158 -4.88404 0
M  V30 64926 C 4605 -6.60062 -3.96313 0
M  V30 64927 C 4604.27 -7.08259 -2.72856 0
M  V30 64928 O 4604.06 -5.9427 -1.83651 0
M  V30 64929 C 4602.87 -7.65087 -2.94749 0
M  V30 64930 O 4602.48 -8.53963 -1.90717 0
M  V30 64931 C 4601.99 -6.41069 -2.90698 0
M  V30 64932 C 4602.7 -5.5528 -1.86931 0
M  V30 64933 N 4602.65 -4.09575 -2.15696 0
M  V30 64934 C 4602.5 -3.24249 -1.08435 0
M  V30 64935 O 4602.41 -3.63946 0.0628747 0
M  V30 64936 N 4602.46 -1.90009 -1.39973 0
M  V30 64937 C 4602.55 -1.34884 -2.65614 0
M  V30 64938 O 4602.5 -0.123716 -2.81728 0
M  V30 64939 C 4602.7 -2.3145 -3.71736 0
M  V30 64940 C 4602.81 -1.75913 -5.10438 0
M  V30 64941 C 4602.75 -3.63518 -3.44754 0
M  V30 64942 H 4605.49 -7.45402 -4.45526 0
M  V30 64943 H 4605.76 -5.86062 -3.67208 0
M  V30 64944 H 4604.9 -7.84412 -2.24479 0
M  V30 64945 H 4602.24 -5.73358 -0.888409 0
M  V30 64946 H 4601.96 -5.90877 -3.88583 0
M  V30 64947 H 4600.97 -6.65867 -2.58821 0
M  V30 64948 H 4602.8 -8.16248 -3.92006 0
M  V30 64949 H 4602.87 -4.34551 -4.26383 0
M  V30 64950 H 4601.84 -1.85471 -5.61775 0
M  V30 64951 H 4603.58 -2.31364 -5.66257 0
M  V30 64952 H 4603.09 -0.695936 -5.05229 0
M  V30 64953 H 4602.36 -1.26277 -0.63625 0
M  V30 64954 P 4600.93 -8.7635 -1.60911 0
M  V30 64955 O 4600.71 -10.1388 -1.11561 0
M  V30 64956 O 4600.14 -8.36503 -2.79617 0
M  V30 64957 O 4600.68 -7.71806 -0.42951 0
M  V30 64958 C 4601.62 -7.67148 0.673689 0
M  V30 64959 C 4600.89 -7.33374 1.95559 0
M  V30 64960 O 4600.68 -5.88721 2.00726 0
M  V30 64961 C 4599.49 -7.92526 2.10483 0
M  V30 64962 O 4599.1 -8.02971 3.47653 0
M  V30 64963 C 4598.61 -6.89602 1.41652 0
M  V30 64964 C 4599.32 -5.59201 1.75185 0
M  V30 64965 N 4599.27 -4.58235 0.662552 0
M  V30 64966 H 4602.11 -8.65116 0.777161 0
M  V30 64967 H 4602.38 -6.90173 0.474152 0
M  V30 64968 H 4601.52 -7.66548 2.79458 0
M  V30 64969 P 4597.55 -8.03563 3.84925 0
M  V30 64970 O 4597.33 -8.85821 5.0569 0
M  V30 64971 O 4596.76 -8.41101 2.65469 0
M  V30 64972 O 4597.3 -6.4965 4.18908 0
M  V30 64973 C 4598.24 -5.81037 5.05421 0
M  V30 64974 C 4597.51 -4.78366 5.89277 0
M  V30 64975 O 4597.3 -3.58302 5.08433 0
M  V30 64976 C 4596.11 -5.17448 6.36119 0
M  V30 64977 O 4595.72 -4.45271 7.53232 0
M  V30 64978 C 4595.23 -4.74639 5.19936 0
M  V30 64979 C 4595.94 -3.49432 4.70418 0
M  V30 64980 N 4595.89 -3.31776 3.22945 0
M  V30 64981 H 4598.73 -6.54213 5.71376 0
M  V30 64982 H 4599 -5.30492 4.44033 0
M  V30 64983 H 4598.14 -4.55889 6.76652 0
M  V30 64984 P 4594.17 -4.23843 7.83734 0
M  V30 64985 O 4593.95 -4.19407 9.29784 0
M  V30 64986 O 4593.38 -5.24426 7.09156 0
M  V30 64987 O 4593.92 -2.7935 7.20758 0
M  V30 64988 C 4594.86 -1.7299 7.50419 0
M  V30 64989 C 4594.13 -0.406376 7.57911 0
M  V30 64990 O 4593.92 0.0897726 6.21935 0
M  V30 64991 C 4592.73 -0.447224 8.1878 0
M  V30 64992 O 4592.34 0.825065 8.71101 0
M  V30 64993 C 4591.85 -0.783801 6.99623 0
M  V30 64994 C 4592.56 -0.0619192 5.85967 0
M  V30 64995 N 4592.51 -0.7859 4.56281 0
M  V30 64996 H 4595.35 -1.93423 8.4679 0
M  V30 64997 H 4595.62 -1.68181 6.71046 0
M  V30 64998 H 4594.76 0.289041 8.15388 0
M  V30 64999 P 4590.79 1.17771 8.83182 0
M  V30 65000 O 4590.57 2.07206 9.98732 0
M  V30 65001 O 4590 -0.0743816 8.81969 0
M  V30 65002 O 4590.54 1.97652 7.47304 0
M  V30 65003 C 4591.48 3.01133 7.08783 0
M  V30 65004 C 4590.75 4.12613 6.37049 0
M  V30 65005 O 4590.54 3.72827 4.97879 0
M  V30 65006 C 4589.35 4.45085 6.88694 0
M  V30 65007 O 4588.96 5.7877 6.5624 0
M  V30 65008 C 4588.47 3.47817 6.12078 0
M  V30 65009 C 4589.18 3.39414 4.77697 0
M  V30 65010 N 4589.13 2.04615 4.15333 0
M  V30 65011 H 4591.97 3.41248 7.98759 0
M  V30 65012 H 4592.24 2.5837 6.41742 0
M  V30 65013 H 4591.38 5.02657 6.42673 0
M  V30 65014 P 4587.41 6.144 6.45285 0
M  V30 65015 O 4587.19 7.54673 6.86199 0
M  V30 65016 O 4586.62 5.12391 7.179 0
M  V30 65017 O 4587.16 5.99158 4.88404 0
M  V30 65018 C 4588.1 6.60062 3.96313 0
M  V30 65019 C 4587.37 7.08259 2.72856 0
M  V30 65020 O 4587.16 5.9427 1.83651 0
M  V30 65021 C 4585.97 7.65087 2.94749 0
M  V30 65022 O 4585.58 8.53963 1.90717 0
M  V30 65023 C 4585.09 6.41069 2.90698 0
M  V30 65024 C 4585.8 5.5528 1.86931 0
M  V30 65025 N 4585.75 4.09575 2.15696 0
M  V30 65026 C 4585.6 3.24249 1.08435 0
M  V30 65027 O 4585.51 3.63946 -0.0628747 0
M  V30 65028 N 4585.56 1.90009 1.39973 0
M  V30 65029 C 4585.65 1.34884 2.65614 0
M  V30 65030 O 4585.6 0.123716 2.81728 0
M  V30 65031 C 4585.8 2.3145 3.71736 0
M  V30 65032 C 4585.91 1.75913 5.10438 0
M  V30 65033 C 4585.85 3.63518 3.44754 0
M  V30 65034 H 4588.59 7.45402 4.45526 0
M  V30 65035 H 4588.86 5.86062 3.67208 0
M  V30 65036 H 4588 7.84412 2.24479 0
M  V30 65037 H 4585.34 5.73358 0.888409 0
M  V30 65038 H 4585.06 5.90877 3.88583 0
M  V30 65039 H 4584.07 6.65867 2.58821 0
M  V30 65040 H 4585.9 8.16248 3.92006 0
M  V30 65041 H 4585.97 4.34551 4.26383 0
M  V30 65042 H 4584.94 1.85471 5.61775 0
M  V30 65043 H 4586.68 2.31364 5.66257 0
M  V30 65044 H 4586.19 0.695936 5.05229 0
M  V30 65045 H 4585.46 1.26277 0.63625 0
M  V30 65046 P 4584.03 8.7635 1.60911 0
M  V30 65047 O 4583.81 10.1388 1.11561 0
M  V30 65048 O 4583.24 8.36503 2.79617 0
M  V30 65049 O 4583.78 7.71806 0.42951 0
M  V30 65050 C 4584.72 7.67148 -0.673689 0
M  V30 65051 C 4583.99 7.33374 -1.95559 0
M  V30 65052 O 4583.78 5.88721 -2.00726 0
M  V30 65053 C 4582.59 7.92526 -2.10483 0
M  V30 65054 O 4582.2 8.02971 -3.47653 0
M  V30 65055 C 4581.71 6.89602 -1.41652 0
M  V30 65056 C 4582.42 5.59201 -1.75185 0
M  V30 65057 N 4582.37 4.58301 -0.657969 0
M  V30 65058 H 4585.21 8.65116 -0.777161 0
M  V30 65059 H 4585.48 6.9022 -0.46725 0
M  V30 65060 H 4584.62 7.66548 -2.79458 0
M  V30 65061 H 4581.96 5.16165 -2.65183 0
M  V30 65062 H 4581.68 7.06433 -0.329384 0
M  V30 65063 H 4580.69 6.90926 -1.82021 0
M  V30 65064 H 4582.52 8.90873 -1.62657 0
M  V30 65065 P 4580.65 8.03563 -3.84925 0
M  V30 65066 O 4580.43 8.85821 -5.0569 0
M  V30 65067 O 4579.86 8.41101 -2.65469 0
M  V30 65068 O 4580.4 6.4965 -4.18908 0
M  V30 65069 C 4581.34 5.80886 -5.05289 0
M  V30 65070 C 4580.61 4.78366 -5.89277 0
M  V30 65071 O 4580.4 3.58302 -5.08433 0
M  V30 65072 C 4579.21 5.16748 -6.36559 0
M  V30 65073 O 4578.82 4.45271 -7.53232 0
M  V30 65074 C 4578.33 4.74572 -5.19863 0
M  V30 65075 C 4579.04 3.49373 -4.70338 0
M  V30 65076 N 4578.99 3.31704 -3.22876 0
M  V30 65077 C 4578.84 2.03326 -2.74871 0
M  V30 65078 O 4578.75 1.06486 -3.48076 0
M  V30 65079 N 4578.8 1.91838 -1.37456 0
M  V30 65080 C 4578.89 2.94295 -0.462035 0
M  V30 65081 O 4578.84 2.71763 0.752928 0
M  V30 65082 C 4579.04 4.25064 -1.05249 0
M  V30 65083 C 4579.15 5.39815 -0.095697 0
M  V30 65084 C 4579.09 4.40214 -2.39192 0
M  V30 65085 H 4581.83 6.54063 -5.71245 0
M  V30 65086 H 4582.1 5.30339 -4.43905 0
M  V30 65087 H 4581.24 4.55889 -6.76652 0
M  V30 65088 H 4578.58 2.6167 -5.17842 0
M  V30 65089 H 4578.3 5.52155 -4.41878 0
M  V30 65090 H 4577.31 4.51918 -5.53297 0
M  V30 65091 H 4579.14 6.25055 -6.55162 0
M  V30 65092 H 4579.21 5.39798 -2.81523 0
M  V30 65093 H 4578.18 5.91593 -0.0279582 0
M  V30 65094 H 4579.92 6.10038 -0.450573 0
M  V30 65095 H 4579.43 5.02007 0.89937 0
M  V30 65096 H 4578.7 0.995326 -1.00435 0
M  V30 65097 P 4577.27 4.23843 -7.83734 0
M  V30 65098 O 4577.05 4.19407 -9.29784 0
M  V30 65099 O 4576.48 5.24426 -7.09156 0
M  V30 65100 O 4577.02 2.7935 -7.20758 0
M  V30 65101 C 4577.96 1.7299 -7.50419 0
M  V30 65102 C 4577.23 0.406376 -7.57911 0
M  V30 65103 O 4577.02 -0.0897726 -6.21935 0
M  V30 65104 C 4575.83 0.447224 -8.1878 0
M  V30 65105 O 4575.44 -0.825065 -8.71101 0
M  V30 65106 C 4574.95 0.783801 -6.99623 0
M  V30 65107 C 4575.66 0.0619192 -5.85967 0
M  V30 65108 N 4575.61 0.7859 -4.56281 0
M  V30 65109 H 4578.45 1.93423 -8.4679 0
M  V30 65110 H 4578.72 1.68181 -6.71046 0
M  V30 65111 H 4577.86 -0.289041 -8.15388 0
M  V30 65112 P 4573.89 -1.17771 -8.83182 0
M  V30 65113 O 4573.67 -2.07206 -9.98732 0
M  V30 65114 O 4573.1 0.0743816 -8.81969 0
M  V30 65115 O 4573.64 -1.97652 -7.47304 0
M  V30 65116 C 4574.58 -3.01133 -7.08783 0
M  V30 65117 C 4573.85 -4.12613 -6.37049 0
M  V30 65118 O 4573.64 -3.72827 -4.97879 0
M  V30 65119 C 4572.45 -4.45085 -6.88694 0
M  V30 65120 O 4572.06 -5.7877 -6.5624 0
M  V30 65121 C 4571.57 -3.47817 -6.12078 0
M  V30 65122 C 4572.28 -3.39414 -4.77697 0
M  V30 65123 N 4572.23 -2.04615 -4.15333 0
M  V30 65124 C 4572.31 -0.803897 -4.75249 0
M  V30 65125 N 4572.23 0.197615 -3.91502 0
M  V30 65126 C 4572.09 -0.413002 -2.66823 0
M  V30 65127 C 4571.96 0.157221 -1.38007 0
M  V30 65128 N 4571.84 -0.833136 -0.390236 0
M  V30 65129 C 4571.84 -2.19402 -0.623885 0
M  V30 65130 N 4571.71 -2.97622 0.449677 0
M  V30 65131 N 4571.97 -2.73005 -1.83601 0
M  V30 65132 C 4572.09 -1.78786 -2.80935 0
M  V30 65133 H 4575.07 -3.41248 -7.98759 0
M  V30 65134 H 4575.34 -2.5837 -6.41742 0
M  V30 65135 H 4574.48 -5.02657 -6.42673 0
M  V30 65136 P 4570.51 -6.144 -6.45285 0
M  V30 65137 O 4570.29 -7.54673 -6.86199 0
M  V30 65138 O 4569.72 -5.12391 -7.179 0
M  V30 65139 O 4570.26 -5.99158 -4.88404 0
M  V30 65140 C 4571.2 -6.60234 -3.96415 0
M  V30 65141 C 4570.47 -7.08259 -2.72856 0
M  V30 65142 O 4570.26 -5.9427 -1.83651 0
M  V30 65143 C 4569.07 -7.64886 -2.9555 0
M  V30 65144 O 4568.68 -8.53963 -1.90717 0
M  V30 65145 C 4568.19 -6.4116 -2.90739 0
M  V30 65146 C 4568.9 -5.55375 -1.86963 0
M  V30 65147 N 4568.85 -4.09664 -2.15742 0
M  V30 65148 H 4571.69 -7.45574 -4.45629 0
M  V30 65149 H 4571.96 -5.86232 -3.67314 0
M  V30 65150 H 4571.1 -7.84412 -2.24479 0
M  V30 65151 P 4567.13 -8.7635 -1.60911 0
M  V30 65152 O 4566.91 -10.1388 -1.11561 0
M  V30 65153 O 4566.34 -8.36503 -2.79617 0
M  V30 65154 O 4566.88 -7.71806 -0.42951 0
M  V30 65155 C 4567.82 -7.67148 0.673689 0
M  V30 65156 C 4567.09 -7.33374 1.95559 0
M  V30 65157 O 4566.88 -5.88721 2.00726 0
M  V30 65158 C 4565.69 -7.92526 2.10483 0
M  V30 65159 O 4565.3 -8.02971 3.47653 0
M  V30 65160 C 4564.81 -6.89602 1.41652 0
M  V30 65161 C 4565.52 -5.59201 1.75185 0
M  V30 65162 N 4565.47 -4.58235 0.662552 0
M  V30 65163 H 4568.31 -8.65116 0.777161 0
M  V30 65164 H 4568.58 -6.90173 0.474152 0
M  V30 65165 H 4567.72 -7.66548 2.79458 0
M  V30 65166 P 4563.75 -8.03563 3.84925 0
M  V30 65167 O 4563.53 -8.85821 5.0569 0
M  V30 65168 O 4562.96 -8.41101 2.65469 0
M  V30 65169 O 4563.5 -6.4965 4.18908 0
M  V30 65170 C 4564.44 -5.81037 5.05421 0
M  V30 65171 C 4563.71 -4.78366 5.89277 0
M  V30 65172 O 4563.5 -3.58302 5.08433 0
M  V30 65173 C 4562.31 -5.17448 6.36119 0
M  V30 65174 O 4561.92 -4.45271 7.53232 0
M  V30 65175 C 4561.43 -4.74639 5.19936 0
M  V30 65176 C 4562.14 -3.49432 4.70418 0
M  V30 65177 N 4562.09 -3.31776 3.22945 0
M  V30 65178 H 4564.93 -6.54213 5.71376 0
M  V30 65179 H 4565.2 -5.30492 4.44033 0
M  V30 65180 H 4564.34 -4.55889 6.76652 0
M  V30 65181 P 4560.37 -4.23843 7.83734 0
M  V30 65182 O 4560.15 -4.19407 9.29784 0
M  V30 65183 O 4559.58 -5.24426 7.09156 0
M  V30 65184 O 4560.12 -2.7935 7.20758 0
M  V30 65185 C 4561.06 -1.7299 7.50419 0
M  V30 65186 C 4560.33 -0.406376 7.57911 0
M  V30 65187 O 4560.12 0.0897726 6.21935 0
M  V30 65188 C 4558.93 -0.447224 8.1878 0
M  V30 65189 O 4558.54 0.825065 8.71101 0
M  V30 65190 C 4558.05 -0.783801 6.99623 0
M  V30 65191 C 4558.76 -0.0619192 5.85967 0
M  V30 65192 N 4558.71 -0.790462 4.56202 0
M  V30 65193 H 4561.55 -1.93423 8.4679 0
M  V30 65194 H 4561.82 -1.68852 6.70877 0
M  V30 65195 H 4560.96 0.289041 8.15388 0
M  V30 65196 H 4558.3 0.927006 5.72848 0
M  V30 65197 H 4558.02 -1.86973 6.82036 0
M  V30 65198 H 4557.03 -0.403953 7.13357 0
M  V30 65199 H 4558.86 -1.20599 8.97534 0
M  V30 65200 P 4556.99 1.17771 8.83182 0
M  V30 65201 O 4556.77 2.07206 9.98732 0
M  V30 65202 O 4556.2 -0.0743816 8.81969 0
M  V30 65203 O 4556.74 1.97652 7.47304 0
M  V30 65204 C 4557.68 3.01133 7.08783 0
M  V30 65205 C 4556.95 4.12613 6.37049 0
M  V30 65206 O 4556.74 3.72827 4.97879 0
M  V30 65207 C 4555.55 4.45085 6.88694 0
M  V30 65208 O 4555.16 5.7877 6.5624 0
M  V30 65209 C 4554.67 3.47817 6.12078 0
M  V30 65210 C 4555.38 3.39414 4.77697 0
M  V30 65211 N 4555.33 2.04615 4.15333 0
M  V30 65212 H 4558.17 3.41248 7.98759 0
M  V30 65213 H 4558.44 2.5837 6.41742 0
M  V30 65214 H 4557.58 5.02657 6.42673 0
M  V30 65215 P 4553.61 6.144 6.45285 0
M  V30 65216 O 4553.39 7.54673 6.86199 0
M  V30 65217 O 4552.82 5.12391 7.179 0
M  V30 65218 O 4553.36 5.99158 4.88404 0
M  V30 65219 C 4554.3 6.60234 3.96415 0
M  V30 65220 C 4553.57 7.08259 2.72856 0
M  V30 65221 O 4553.36 5.9427 1.83651 0
M  V30 65222 C 4552.17 7.64886 2.9555 0
M  V30 65223 O 4551.78 8.53963 1.90717 0
M  V30 65224 C 4551.29 6.4116 2.90739 0
M  V30 65225 C 4552 5.55375 1.86963 0
M  V30 65226 N 4551.95 4.09664 2.15742 0
M  V30 65227 H 4554.79 7.45574 4.45629 0
M  V30 65228 H 4555.06 5.86232 3.67314 0
M  V30 65229 H 4554.2 7.84412 2.24479 0
M  V30 65230 P 4550.23 8.7635 1.60911 0
M  V30 65231 O 4550.01 10.1388 1.11561 0
M  V30 65232 O 4549.44 8.36503 2.79617 0
M  V30 65233 O 4549.98 7.71806 0.42951 0
M  V30 65234 C 4550.92 7.67148 -0.673689 0
M  V30 65235 C 4550.19 7.33374 -1.95559 0
M  V30 65236 O 4549.98 5.88721 -2.00726 0
M  V30 65237 C 4548.79 7.92526 -2.10483 0
M  V30 65238 O 4548.4 8.02971 -3.47653 0
M  V30 65239 C 4547.91 6.89602 -1.41652 0
M  V30 65240 C 4548.62 5.59201 -1.75185 0
M  V30 65241 N 4548.57 4.58235 -0.662552 0
M  V30 65242 H 4551.41 8.65116 -0.777161 0
M  V30 65243 H 4551.68 6.90173 -0.474152 0
M  V30 65244 H 4550.82 7.66548 -2.79458 0
M  V30 65245 P 4546.85 8.03563 -3.84925 0
M  V30 65246 O 4546.63 8.85821 -5.0569 0
M  V30 65247 O 4546.06 8.41101 -2.65469 0
M  V30 65248 O 4546.6 6.4965 -4.18908 0
M  V30 65249 C 4547.54 5.81037 -5.05421 0
M  V30 65250 C 4546.81 4.78366 -5.89277 0
M  V30 65251 O 4546.6 3.58302 -5.08433 0
M  V30 65252 C 4545.41 5.17448 -6.36119 0
M  V30 65253 O 4545.02 4.45271 -7.53232 0
M  V30 65254 C 4544.53 4.74639 -5.19936 0
M  V30 65255 C 4545.24 3.49432 -4.70418 0
M  V30 65256 N 4545.19 3.32099 -3.22613 0
M  V30 65257 H 4548.03 6.54213 -5.71376 0
M  V30 65258 H 4548.3 5.30936 -4.43503 0
M  V30 65259 H 4547.44 4.55889 -6.76652 0
M  V30 65260 H 4544.78 2.61715 -5.17932 0
M  V30 65261 H 4544.5 5.52155 -4.41878 0
M  V30 65262 H 4543.51 4.51981 -5.53374 0
M  V30 65263 H 4545.34 6.25124 -6.55234 0
M  V30 65264 P 4543.47 4.23843 -7.83734 0
M  V30 65265 O 4543.25 4.19407 -9.29784 0
M  V30 65266 O 4542.68 5.24426 -7.09156 0
M  V30 65267 O 4543.22 2.7935 -7.20758 0
M  V30 65268 C 4544.16 1.7299 -7.50419 0
M  V30 65269 C 4543.43 0.406376 -7.57911 0
M  V30 65270 O 4543.22 -0.0897726 -6.21935 0
M  V30 65271 C 4542.03 0.447224 -8.1878 0
M  V30 65272 O 4541.64 -0.825065 -8.71101 0
M  V30 65273 C 4541.15 0.783801 -6.99623 0
M  V30 65274 C 4541.86 0.0619192 -5.85967 0
M  V30 65275 N 4541.81 0.790462 -4.56202 0
M  V30 65276 C 4541.89 2.13895 -4.34171 0
M  V30 65277 N 4541.82 2.46449 -3.08687 0
M  V30 65278 C 4541.67 1.2525 -2.43697 0
M  V30 65279 C 4541.54 0.914535 -1.07318 0
M  V30 65280 N 4541.53 1.80782 -0.0887348 0
M  V30 65281 N 4541.42 -0.386745 -0.768133 0
M  V30 65282 C 4541.43 -1.28096 -1.75159 0
M  V30 65283 N 4541.55 -1.09708 -3.04861 0
M  V30 65284 C 4541.67 0.214857 -3.32306 0
M  V30 65285 H 4544.65 1.93423 -8.4679 0
M  V30 65286 H 4544.92 1.68852 -6.70877 0
M  V30 65287 H 4544.06 -0.289041 -8.15388 0
M  V30 65288 H 4541.4 -0.927006 -5.72848 0
M  V30 65289 H 4541.12 1.86973 -6.82036 0
M  V30 65290 H 4540.13 0.403953 -7.13357 0
M  V30 65291 H 4541.96 1.20599 -8.97534 0
M  V30 65292 H 4542.01 2.86846 -5.14318 0
M  V30 65293 H 4541.62 2.81082 -0.302037 0
M  V30 65294 H 4541.44 1.49688 0.889064 0
M  V30 65295 H 4541.33 -2.31317 -1.43855 0
M  V30 65296 P 4540.09 -1.17771 -8.83182 0
M  V30 65297 O 4539.87 -2.07206 -9.98732 0
M  V30 65298 O 4539.3 0.0743816 -8.81969 0
M  V30 65299 O 4539.84 -1.97652 -7.47304 0
M  V30 65300 C 4540.78 -3.01133 -7.08783 0
M  V30 65301 C 4540.05 -4.12613 -6.37049 0
M  V30 65302 O 4539.84 -3.72827 -4.97879 0
M  V30 65303 C 4538.65 -4.45085 -6.88694 0
M  V30 65304 O 4538.26 -5.7877 -6.5624 0
M  V30 65305 C 4537.77 -3.47817 -6.12078 0
M  V30 65306 C 4538.48 -3.39414 -4.77697 0
M  V30 65307 N 4538.43 -2.04199 -4.15538 0
M  V30 65308 H 4541.27 -3.41248 -7.98759 0
M  V30 65309 H 4541.54 -2.57728 -6.42 0
M  V30 65310 H 4540.68 -5.02657 -6.42673 0
M  V30 65311 H 4538.02 -4.11708 -4.08956 0
M  V30 65312 H 4537.74 -2.49626 -6.61679 0
M  V30 65313 H 4536.75 -3.8662 -6.00862 0
M  V30 65314 H 4538.58 -4.29991 -7.97006 0
M  V30 65315 P 4536.71 -6.144 -6.45285 0
M  V30 65316 O 4536.49 -7.54673 -6.86199 0
M  V30 65317 O 4535.92 -5.12391 -7.179 0
M  V30 65318 O 4536.46 -5.99158 -4.88404 0
M  V30 65319 C 4537.4 -6.60234 -3.96415 0
M  V30 65320 C 4536.67 -7.08259 -2.72856 0
M  V30 65321 O 4536.46 -5.9427 -1.83651 0
M  V30 65322 C 4535.27 -7.64886 -2.9555 0
M  V30 65323 O 4534.88 -8.53963 -1.90717 0
M  V30 65324 C 4534.39 -6.4116 -2.90739 0
M  V30 65325 C 4535.1 -5.55375 -1.86963 0
M  V30 65326 N 4535.05 -4.09664 -2.15742 0
M  V30 65327 H 4537.89 -7.45574 -4.45629 0
M  V30 65328 H 4538.16 -5.86232 -3.67314 0
M  V30 65329 H 4537.3 -7.84412 -2.24479 0
M  V30 65330 P 4533.33 -8.7635 -1.60911 0
M  V30 65331 O 4533.11 -10.1388 -1.11561 0
M  V30 65332 O 4532.54 -8.36503 -2.79617 0
M  V30 65333 O 4533.08 -7.71806 -0.42951 0
M  V30 65334 C 4534.02 -7.66948 0.673514 0
M  V30 65335 C 4533.29 -7.33374 1.95559 0
M  V30 65336 O 4533.08 -5.88721 2.00726 0
M  V30 65337 C 4531.89 -7.92218 2.1125 0
M  V30 65338 O 4531.5 -8.02971 3.47653 0
M  V30 65339 C 4531.01 -6.89504 1.41631 0
M  V30 65340 C 4531.72 -5.59106 1.75155 0
M  V30 65341 N 4531.67 -4.58136 0.662409 0
M  V30 65342 C 4531.52 -3.26059 1.02863 0
M  V30 65343 O 4531.43 -2.90743 2.19009 0
M  V30 65344 N 4531.48 -2.35995 -0.0155585 0
M  V30 65345 C 4531.57 -2.65248 -1.35603 0
M  V30 65346 O 4531.52 -1.75605 -2.20651 0
M  V30 65347 C 4531.72 -4.05747 -1.64698 0
M  V30 65348 C 4531.83 -4.42345 -3.09553 0
M  V30 65349 C 4531.77 -4.96734 -0.652411 0
M  V30 65350 H 4534.51 -8.64917 0.776982 0
M  V30 65351 H 4534.78 -6.89974 0.474015 0
M  V30 65352 H 4533.92 -7.66548 2.79458 0
M  V30 65353 H 4531.26 -5.16076 2.65138 0
M  V30 65354 H 4530.98 -7.06433 0.329384 0
M  V30 65355 H 4529.99 -6.90829 1.81996 0
M  V30 65356 H 4531.82 -8.90774 1.62639 0
M  V30 65357 H 4531.9 -6.02181 -0.895285 0
M  V30 65358 H 4530.87 -4.80252 -3.45468 0
M  V30 65359 H 4532.6 -5.20015 -3.22119 0
M  V30 65360 H 4532.11 -3.53269 -3.67833 0
M  V30 65361 H 4531.38 -1.39558 0.227499 0
M  V30 65362 P 4529.95 -8.03563 3.84925 0
M  V30 65363 O 4529.73 -8.85821 5.0569 0
M  V30 65364 O 4529.16 -8.41101 2.65469 0
M  V30 65365 O 4529.7 -6.4965 4.18908 0
M  V30 65366 C 4530.64 -5.81037 5.05421 0
M  V30 65367 C 4529.91 -4.78366 5.89277 0
M  V30 65368 O 4529.7 -3.58302 5.08433 0
M  V30 65369 C 4528.51 -5.17448 6.36119 0
M  V30 65370 O 4528.12 -4.45271 7.53232 0
M  V30 65371 C 4527.63 -4.74639 5.19936 0
M  V30 65372 C 4528.34 -3.49432 4.70418 0
M  V30 65373 N 4528.29 -3.31776 3.22945 0
M  V30 65374 H 4531.13 -6.54213 5.71376 0
M  V30 65375 H 4531.4 -5.30492 4.44033 0
M  V30 65376 H 4530.54 -4.55889 6.76652 0
M  V30 65377 P 4526.57 -4.23843 7.83734 0
M  V30 65378 O 4526.35 -4.19407 9.29784 0
M  V30 65379 O 4525.78 -5.24426 7.09156 0
M  V30 65380 O 4526.32 -2.7935 7.20758 0
M  V30 65381 C 4527.26 -1.72945 7.50224 0
M  V30 65382 C 4526.53 -0.406376 7.57911 0
M  V30 65383 O 4526.32 0.0897726 6.21935 0
M  V30 65384 C 4525.13 -0.438983 8.18724 0
M  V30 65385 O 4524.74 0.825065 8.71101 0
M  V30 65386 C 4524.25 -0.783689 6.99524 0
M  V30 65387 C 4524.96 -0.0619086 5.85867 0
M  V30 65388 N 4524.91 -0.78573 4.56183 0
M  V30 65389 C 4524.76 -0.0292889 3.41887 0
M  V30 65390 O 4524.67 1.18445 3.4419 0
M  V30 65391 N 4524.72 -0.744061 2.23964 0
M  V30 65392 C 4524.81 -2.10932 2.10362 0
M  V30 65393 O 4524.76 -2.64117 0.98825 0
M  V30 65394 C 4524.96 -2.8202 3.34994 0
M  V30 65395 C 4525.07 -4.31095 3.25037 0
M  V30 65396 C 4525.01 -2.15547 4.52261 0
M  V30 65397 H 4527.75 -1.93379 8.46595 0
M  V30 65398 H 4528.02 -1.68132 6.70852 0
M  V30 65399 H 4527.16 0.289041 8.15388 0
M  V30 65400 H 4524.5 0.926847 5.72749 0
M  V30 65401 H 4524.22 -1.86973 6.82036 0
M  V30 65402 H 4523.23 -0.403896 7.13257 0
M  V30 65403 H 4525.06 -1.20585 8.97435 0
M  V30 65404 H 4525.14 -2.71231 5.45042 0
M  V30 65405 H 4524.11 -4.76966 3.49992 0
M  V30 65406 H 4525.84 -4.67047 3.95024 0
M  V30 65407 H 4525.35 -4.58996 2.22312 0
M  V30 65408 H 4524.62 -0.214893 1.39758 0
M  V30 65409 P 4523.19 1.17771 8.83182 0
M  V30 65410 O 4522.97 2.07206 9.98732 0
M  V30 65411 O 4522.4 -0.0743816 8.81969 0
M  V30 65412 O 4522.94 1.97678 7.474 0
M  V30 65413 C 4523.88 3.01133 7.08783 0
M  V30 65414 C 4523.15 4.1203 6.37546 0
M  V30 65415 O 4522.94 3.72887 4.9796 0
M  V30 65416 C 4521.75 4.45085 6.88694 0
M  V30 65417 O 4521.36 5.78836 6.56315 0
M  V30 65418 C 4520.87 3.47817 6.12078 0
M  V30 65419 C 4521.58 3.39414 4.77697 0
M  V30 65420 N 4521.53 2.04615 4.15333 0
M  V30 65421 C 4521.38 1.96929 2.77162 0
M  V30 65422 O 4521.29 3.02017 2.12006 0
M  V30 65423 N 4521.33 0.55485 2.24237 0
M  V30 65424 C 4521.43 -0.367808 2.9169 0
M  V30 65425 N 4521.38 -1.53426 2.29427 0
M  V30 65426 C 4521.58 -0.319148 4.33828 0
M  V30 65427 C 4521.63 0.920672 4.90433 0
M  V30 65428 H 4524.37 3.41209 7.98667 0
M  V30 65429 H 4524.64 2.5837 6.41742 0
M  V30 65430 H 4523.78 5.02718 6.42752 0
M  V30 65431 H 4521.12 4.11779 4.09026 0
M  V30 65432 H 4520.84 2.49661 6.61772 0
M  V30 65433 H 4519.85 3.86674 6.00946 0
M  V30 65434 H 4521.68 4.29991 7.97006 0
M  V30 65435 H 4521.76 1.00589 5.98303 0
M  V30 65436 H 4521.65 -1.22639 4.93799 0
M  V30 65437 H 4521.27 -1.56819 1.27167 0
M  V30 65438 H 4521.46 -2.41062 2.83063 0
M  V30 65439 P 4519.81 6.144 6.45285 0
M  V30 65440 O 4519.59 7.54673 6.86199 0
M  V30 65441 O 4519.02 5.12391 7.179 0
M  V30 65442 O 4519.56 5.99158 4.88404 0
M  V30 65443 C 4520.5 6.60234 3.96415 0
M  V30 65444 C 4519.77 7.08259 2.72856 0
M  V30 65445 O 4519.56 5.9427 1.83651 0
M  V30 65446 C 4518.37 7.64886 2.9555 0
M  V30 65447 O 4517.98 8.53963 1.90717 0
M  V30 65448 C 4517.49 6.4116 2.90739 0
M  V30 65449 C 4518.2 5.55375 1.86963 0
M  V30 65450 N 4518.15 4.09448 2.16152 0
M  V30 65451 H 4520.99 7.45574 4.45629 0
M  V30 65452 H 4521.26 5.85864 3.679 0
M  V30 65453 H 4520.4 7.84412 2.24479 0
M  V30 65454 H 4517.74 5.73457 0.888562 0
M  V30 65455 H 4517.46 5.90877 3.88583 0
M  V30 65456 H 4516.47 6.6596 2.58858 0
M  V30 65457 H 4518.3 8.16339 3.92049 0
M  V30 65458 P 4516.43 8.7635 1.60911 0
M  V30 65459 O 4516.21 10.1388 1.11561 0
M  V30 65460 O 4515.64 8.36503 2.79617 0
M  V30 65461 O 4516.18 7.71806 0.42951 0
M  V30 65462 C 4517.12 7.67148 -0.673689 0
M  V30 65463 C 4516.39 7.33374 -1.95559 0
M  V30 65464 O 4516.18 5.88721 -2.00726 0
M  V30 65465 C 4514.99 7.92526 -2.10483 0
M  V30 65466 O 4514.6 8.02971 -3.47653 0
M  V30 65467 C 4514.11 6.89602 -1.41652 0
M  V30 65468 C 4514.82 5.59201 -1.75185 0
M  V30 65469 N 4514.77 4.58235 -0.662552 0
M  V30 65470 H 4517.61 8.65116 -0.777161 0
M  V30 65471 H 4517.88 6.90173 -0.474152 0
M  V30 65472 H 4517.02 7.66548 -2.79458 0
M  V30 65473 P 4513.05 8.03563 -3.84925 0
M  V30 65474 O 4512.83 8.85821 -5.0569 0
M  V30 65475 O 4512.26 8.41101 -2.65469 0
M  V30 65476 O 4512.8 6.4965 -4.18908 0
M  V30 65477 C 4513.74 5.81037 -5.05421 0
M  V30 65478 C 4513.01 4.78366 -5.89277 0
M  V30 65479 O 4512.8 3.58302 -5.08433 0
M  V30 65480 C 4511.61 5.17448 -6.36119 0
M  V30 65481 O 4511.22 4.45271 -7.53232 0
M  V30 65482 C 4510.73 4.74639 -5.19936 0
M  V30 65483 C 4511.44 3.49432 -4.70418 0
M  V30 65484 N 4511.39 3.31776 -3.22945 0
M  V30 65485 H 4514.23 6.54213 -5.71376 0
M  V30 65486 H 4514.5 5.30492 -4.44033 0
M  V30 65487 H 4513.64 4.55889 -6.76652 0
M  V30 65488 P 4509.67 4.23843 -7.83734 0
M  V30 65489 O 4509.45 4.19407 -9.29784 0
M  V30 65490 O 4508.88 5.24426 -7.09156 0
M  V30 65491 O 4509.42 2.7935 -7.20758 0
M  V30 65492 C 4510.36 1.7299 -7.50419 0
M  V30 65493 C 4509.63 0.406376 -7.57911 0
M  V30 65494 O 4509.42 -0.0897726 -6.21935 0
M  V30 65495 C 4508.23 0.447224 -8.1878 0
M  V30 65496 O 4507.84 -0.825065 -8.71101 0
M  V30 65497 C 4507.35 0.783801 -6.99623 0
M  V30 65498 C 4508.06 0.0619192 -5.85967 0
M  V30 65499 N 4508.01 0.7859 -4.56281 0
M  V30 65500 H 4510.85 1.93423 -8.4679 0
M  V30 65501 H 4511.12 1.68181 -6.71046 0
M  V30 65502 H 4510.26 -0.289041 -8.15388 0
M  V30 65503 P 4506.29 -1.17771 -8.83182 0
M  V30 65504 O 4506.07 -2.07206 -9.98732 0
M  V30 65505 O 4505.5 0.0743816 -8.81969 0
M  V30 65506 O 4506.04 -1.97652 -7.47304 0
M  V30 65507 C 4506.98 -3.01133 -7.08783 0
M  V30 65508 C 4506.25 -4.12613 -6.37049 0
M  V30 65509 O 4506.04 -3.72827 -4.97879 0
M  V30 65510 C 4504.85 -4.45085 -6.88694 0
M  V30 65511 O 4504.46 -5.7877 -6.5624 0
M  V30 65512 C 4503.97 -3.47817 -6.12078 0
M  V30 65513 C 4504.68 -3.39414 -4.77697 0
M  V30 65514 N 4504.63 -2.04615 -4.15333 0
M  V30 65515 H 4507.47 -3.41248 -7.98759 0
M  V30 65516 H 4507.74 -2.5837 -6.41742 0
M  V30 65517 H 4506.88 -5.02657 -6.42673 0
M  V30 65518 P 4502.91 -6.144 -6.45285 0
M  V30 65519 O 4502.69 -7.54673 -6.86199 0
M  V30 65520 O 4502.12 -5.12391 -7.179 0
M  V30 65521 O 4502.66 -5.99158 -4.88404 0
M  V30 65522 C 4503.6 -6.60234 -3.96415 0
M  V30 65523 C 4502.87 -7.08259 -2.72856 0
M  V30 65524 O 4502.66 -5.9427 -1.83651 0
M  V30 65525 C 4501.47 -7.64886 -2.9555 0
M  V30 65526 O 4501.08 -8.53963 -1.90717 0
M  V30 65527 C 4500.59 -6.4116 -2.90739 0
M  V30 65528 C 4501.3 -5.55375 -1.86963 0
M  V30 65529 N 4501.25 -4.09448 -2.16152 0
M  V30 65530 C 4501.33 -3.46824 -3.37593 0
M  V30 65531 N 4501.26 -2.17422 -3.29777 0
M  V30 65532 C 4501.11 -1.93065 -1.94427 0
M  V30 65533 C 4500.98 -0.738053 -1.20141 0
M  V30 65534 N 4500.97 0.474256 -1.74676 0
M  V30 65535 N 4500.86 -0.850049 0.13045 0
M  V30 65536 C 4500.87 -2.06169 0.676992 0
M  V30 65537 N 4500.99 -3.23842 0.101312 0
M  V30 65538 C 4501.11 -3.09402 -1.23122 0
M  V30 65539 H 4504.09 -7.45574 -4.45629 0
M  V30 65540 H 4504.36 -5.85864 -3.679 0
M  V30 65541 H 4503.5 -7.84412 -2.24479 0
M  V30 65542 H 4500.84 -5.73457 -0.888562 0
M  V30 65543 H 4500.56 -5.90877 -3.88583 0
M  V30 65544 H 4499.57 -6.6596 -2.58858 0
M  V30 65545 H 4501.4 -8.16339 -3.92049 0
M  V30 65546 H 4501.45 -4.00505 -4.3174 0
M  V30 65547 H 4501.06 0.581337 -2.76658 0
M  V30 65548 H 4500.88 1.30811 -1.14888 0
M  V30 65549 H 4500.77 -2.08295 1.75542 0
M  V30 65550 P 4499.53 -8.7635 -1.60911 0
M  V30 65551 O 4499.31 -10.1388 -1.11561 0
M  V30 65552 O 4498.74 -8.36503 -2.79617 0
M  V30 65553 O 4499.28 -7.71806 -0.42951 0
M  V30 65554 C 4500.22 -7.67148 0.673689 0
M  V30 65555 C 4499.49 -7.33374 1.95559 0
M  V30 65556 O 4499.28 -5.88721 2.00726 0
M  V30 65557 C 4498.09 -7.92526 2.10483 0
M  V30 65558 O 4497.7 -8.02971 3.47653 0
M  V30 65559 C 4497.21 -6.89602 1.41652 0
M  V30 65560 C 4497.92 -5.59201 1.75185 0
M  V30 65561 N 4497.87 -4.58235 0.662552 0
M  V30 65562 H 4500.71 -8.65116 0.777161 0
M  V30 65563 H 4500.98 -6.90173 0.474152 0
M  V30 65564 H 4500.12 -7.66548 2.79458 0
M  V30 65565 P 4496.15 -8.03563 3.84925 0
M  V30 65566 O 4495.93 -8.85821 5.0569 0
M  V30 65567 O 4495.36 -8.41101 2.65469 0
M  V30 65568 O 4495.9 -6.4965 4.18908 0
M  V30 65569 C 4496.84 -5.81037 5.05421 0
M  V30 65570 C 4496.11 -4.78366 5.89277 0
M  V30 65571 O 4495.9 -3.58302 5.08433 0
M  V30 65572 C 4494.71 -5.17448 6.36119 0
M  V30 65573 O 4494.32 -4.45271 7.53232 0
M  V30 65574 C 4493.83 -4.74639 5.19936 0
M  V30 65575 C 4494.54 -3.49432 4.70418 0
M  V30 65576 N 4494.49 -3.31776 3.22945 0
M  V30 65577 H 4497.33 -6.54213 5.71376 0
M  V30 65578 H 4497.6 -5.30492 4.44033 0
M  V30 65579 H 4496.74 -4.55889 6.76652 0
M  V30 65580 P 4492.77 -4.23843 7.83734 0
M  V30 65581 O 4492.55 -4.19407 9.29784 0
M  V30 65582 O 4491.98 -5.24426 7.09156 0
M  V30 65583 O 4492.52 -2.7935 7.20758 0
M  V30 65584 C 4493.46 -1.7299 7.50419 0
M  V30 65585 C 4492.73 -0.406376 7.57911 0
M  V30 65586 O 4492.52 0.0897726 6.21935 0
M  V30 65587 C 4491.33 -0.447224 8.1878 0
M  V30 65588 O 4490.94 0.825065 8.71101 0
M  V30 65589 C 4490.45 -0.783801 6.99623 0
M  V30 65590 C 4491.16 -0.0619192 5.85967 0
M  V30 65591 N 4491.11 -0.7859 4.56281 0
M  V30 65592 C 4491.19 -2.14308 4.31736 0
M  V30 65593 N 4491.11 -2.46106 3.05116 0
M  V30 65594 C 4490.97 -1.23422 2.4014 0
M  V30 65595 C 4490.84 -0.938381 1.02409 0
M  V30 65596 O 4490.82 -1.70876 0.0650402 0
M  V30 65597 N 4490.72 0.444647 0.805413 0
M  V30 65598 C 4490.72 1.40829 1.79435 0
M  V30 65599 N 4490.59 2.67213 1.38558 0
M  V30 65600 N 4490.85 1.12947 3.09005 0
M  V30 65601 C 4490.97 -0.204887 3.32369 0
M  V30 65602 H 4493.95 -1.93423 8.4679 0
M  V30 65603 H 4494.22 -1.68181 6.71046 0
M  V30 65604 H 4493.36 0.289041 8.15388 0
M  V30 65605 H 4490.7 0.927166 5.72947 0
M  V30 65606 H 4490.42 -1.87 6.82132 0
M  V30 65607 H 4489.43 -0.404009 7.13457 0
M  V30 65608 H 4491.26 -1.20612 8.97633 0
M  V30 65609 H 4491.31 -2.88284 5.10874 0
M  V30 65610 H 4490.63 0.755087 -0.140242 0
M  V30 65611 H 4490.59 3.43967 2.0729 0
M  V30 65612 H 4490.49 2.88096 0.380644 0
M  V30 65613 P 4489.39 1.17771 8.83182 0
M  V30 65614 O 4489.17 2.07206 9.98732 0
M  V30 65615 O 4488.6 -0.0743816 8.81969 0
M  V30 65616 O 4489.14 1.97652 7.47304 0
M  V30 65617 C 4490.08 3.01133 7.08783 0
M  V30 65618 C 4489.35 4.12613 6.37049 0
M  V30 65619 O 4489.14 3.72827 4.97879 0
M  V30 65620 C 4487.95 4.45085 6.88694 0
M  V30 65621 O 4487.56 5.7877 6.5624 0
M  V30 65622 C 4487.07 3.47817 6.12078 0
M  V30 65623 C 4487.78 3.39414 4.77697 0
M  V30 65624 N 4487.73 2.04199 4.15538 0
M  V30 65625 H 4490.57 3.41248 7.98759 0
M  V30 65626 H 4490.84 2.57728 6.42 0
M  V30 65627 H 4489.98 5.02657 6.42673 0
M  V30 65628 H 4487.32 4.11708 4.08956 0
M  V30 65629 H 4487.04 2.49626 6.61679 0
M  V30 65630 H 4486.05 3.8662 6.00862 0
M  V30 65631 H 4487.88 4.29991 7.97006 0
M  V30 65632 P 4486.01 6.144 6.45285 0
M  V30 65633 O 4485.79 7.54673 6.86199 0
M  V30 65634 O 4485.22 5.12391 7.179 0
M  V30 65635 O 4485.76 5.99158 4.88404 0
M  V30 65636 C 4486.7 6.60234 3.96415 0
M  V30 65637 C 4485.97 7.08259 2.72856 0
M  V30 65638 O 4485.76 5.9427 1.83651 0
M  V30 65639 C 4484.57 7.64886 2.9555 0
M  V30 65640 O 4484.18 8.53963 1.90717 0
M  V30 65641 C 4483.69 6.4116 2.90739 0
M  V30 65642 C 4484.4 5.55375 1.86963 0
M  V30 65643 N 4484.35 4.09664 2.15742 0
M  V30 65644 C 4484.43 3.44381 3.37233 0
M  V30 65645 N 4484.35 2.14131 3.28347 0
M  V30 65646 C 4484.21 1.90247 1.91588 0
M  V30 65647 C 4484.08 0.683992 1.20892 0
M  V30 65648 O 4484.06 -0.46618 1.64523 0
M  V30 65649 N 4483.96 0.903396 -0.173998 0
M  V30 65650 C 4483.96 2.14171 -0.784879 0
M  V30 65651 N 4483.83 2.1435 -2.11317 0
M  V30 65652 N 4484.09 3.28784 -0.119316 0
M  V30 65653 C 4484.21 3.0977 1.22194 0
M  V30 65654 H 4487.19 7.45574 4.45629 0
M  V30 65655 H 4487.46 5.86232 3.67314 0
M  V30 65656 H 4486.6 7.84412 2.24479 0
M  V30 65657 H 4483.94 5.73556 0.888715 0
M  V30 65658 H 4483.66 5.9096 3.88638 0
M  V30 65659 H 4482.67 6.66053 2.58894 0
M  V30 65660 H 4484.5 8.16429 3.92093 0
M  V30 65661 H 4484.55 3.96785 4.32043 0
M  V30 65662 H 4483.87 0.0999567 -0.761467 0
M  V30 65663 H 4483.83 3.03436 -2.63076 0
M  V30 65664 H 4483.73 1.25228 -2.62233 0
M  V30 65665 P 4482.63 8.7635 1.60911 0
M  V30 65666 O 4482.41 10.1388 1.11561 0
M  V30 65667 O 4481.84 8.36503 2.79617 0
M  V30 65668 O 4482.38 7.71806 0.42951 0
M  V30 65669 C 4483.32 7.67148 -0.673689 0
M  V30 65670 C 4482.59 7.33374 -1.95559 0
M  V30 65671 O 4482.38 5.88721 -2.00726 0
M  V30 65672 C 4481.19 7.92526 -2.10483 0
M  V30 65673 O 4480.8 8.02971 -3.47653 0
M  V30 65674 C 4480.31 6.89602 -1.41652 0
M  V30 65675 C 4481.02 5.59201 -1.75185 0
M  V30 65676 N 4480.97 4.58235 -0.662552 0
M  V30 65677 H 4483.81 8.65116 -0.777161 0
M  V30 65678 H 4484.08 6.90173 -0.474152 0
M  V30 65679 H 4483.22 7.66548 -2.79458 0
M  V30 65680 P 4479.25 8.03563 -3.84925 0
M  V30 65681 O 4479.03 8.85821 -5.0569 0
M  V30 65682 O 4478.46 8.41101 -2.65469 0
M  V30 65683 O 4479 6.4965 -4.18908 0
M  V30 65684 C 4479.94 5.81037 -5.05421 0
M  V30 65685 C 4479.21 4.78366 -5.89277 0
M  V30 65686 O 4479 3.58302 -5.08433 0
M  V30 65687 C 4477.81 5.17448 -6.36119 0
M  V30 65688 O 4477.42 4.45271 -7.53232 0
M  V30 65689 C 4476.93 4.74639 -5.19936 0
M  V30 65690 C 4477.64 3.49432 -4.70418 0
M  V30 65691 N 4477.59 3.31776 -3.22945 0
M  V30 65692 H 4480.43 6.54213 -5.71376 0
M  V30 65693 H 4480.7 5.30492 -4.44033 0
M  V30 65694 H 4479.84 4.55889 -6.76652 0
M  V30 65695 P 4475.87 4.23843 -7.83734 0
M  V30 65696 O 4475.65 4.19407 -9.29784 0
M  V30 65697 O 4475.08 5.24426 -7.09156 0
M  V30 65698 O 4475.62 2.7935 -7.20758 0
M  V30 65699 C 4476.56 1.72945 -7.50224 0
M  V30 65700 C 4475.83 0.406376 -7.57911 0
M  V30 65701 O 4475.62 -0.0897726 -6.21935 0
M  V30 65702 C 4474.43 0.438983 -8.18724 0
M  V30 65703 O 4474.04 -0.825065 -8.71101 0
M  V30 65704 C 4473.55 0.783689 -6.99524 0
M  V30 65705 C 4474.26 0.0619086 -5.85867 0
M  V30 65706 N 4474.21 0.78573 -4.56183 0
M  V30 65707 C 4474.06 0.0292889 -3.41887 0
M  V30 65708 O 4473.97 -1.18445 -3.4419 0
M  V30 65709 N 4474.02 0.744061 -2.23964 0
M  V30 65710 C 4474.11 2.10932 -2.10362 0
M  V30 65711 C 4474.26 2.8202 -3.34994 0
M  V30 65712 C 4474.31 2.15547 -4.52261 0
M  V30 65713 H 4477.05 1.93379 -8.46595 0
M  V30 65714 H 4477.32 1.68132 -6.70852 0
M  V30 65715 H 4476.46 -0.289041 -8.15388 0
M  V30 65716 H 4473.8 -0.926847 -5.72749 0
M  V30 65717 H 4473.52 1.86973 -6.82036 0
M  V30 65718 H 4472.53 0.403896 -7.13257 0
M  V30 65719 H 4474.36 1.20585 -8.97435 0
M  V30 65720 H 4474.44 2.71231 -5.45042 0
M  V30 65721 P 4472.49 -1.17771 -8.83182 0
M  V30 65722 O 4472.27 -2.07206 -9.98732 0
M  V30 65723 O 4471.7 0.0743816 -8.81969 0
M  V30 65724 O 4472.24 -1.97652 -7.47304 0
M  V30 65725 C 4473.18 -3.01133 -7.08783 0
M  V30 65726 C 4472.45 -4.12613 -6.37049 0
M  V30 65727 O 4472.24 -3.72827 -4.97879 0
M  V30 65728 C 4471.05 -4.45085 -6.88694 0
M  V30 65729 O 4470.66 -5.7877 -6.5624 0
M  V30 65730 C 4470.17 -3.47817 -6.12078 0
M  V30 65731 C 4470.88 -3.39414 -4.77697 0
M  V30 65732 N 4470.83 -2.04199 -4.15538 0
M  V30 65733 H 4473.67 -3.41248 -7.98759 0
M  V30 65734 H 4473.94 -2.57728 -6.42 0
M  V30 65735 H 4473.08 -5.02657 -6.42673 0
M  V30 65736 H 4470.42 -4.11708 -4.08956 0
M  V30 65737 H 4470.14 -2.49626 -6.61679 0
M  V30 65738 H 4469.15 -3.8662 -6.00862 0
M  V30 65739 H 4470.98 -4.29991 -7.97006 0
M  V30 65740 P 4469.11 -6.144 -6.45285 0
M  V30 65741 O 4468.89 -7.54673 -6.86199 0
M  V30 65742 O 4468.32 -5.12391 -7.179 0
M  V30 65743 O 4468.86 -5.99158 -4.88404 0
M  V30 65744 C 4469.8 -6.60234 -3.96415 0
M  V30 65745 C 4469.07 -7.08259 -2.72856 0
M  V30 65746 O 4468.86 -5.9427 -1.83651 0
M  V30 65747 C 4467.67 -7.64886 -2.9555 0
M  V30 65748 O 4467.28 -8.53963 -1.90717 0
M  V30 65749 C 4466.79 -6.4116 -2.90739 0
M  V30 65750 C 4467.5 -5.55375 -1.86963 0
M  V30 65751 N 4467.45 -4.09664 -2.15742 0
M  V30 65752 H 4470.29 -7.45574 -4.45629 0
M  V30 65753 H 4470.56 -5.86232 -3.67314 0
M  V30 65754 H 4469.7 -7.84412 -2.24479 0
M  V30 65755 P 4465.73 -8.7635 -1.60911 0
M  V30 65756 O 4465.51 -10.1388 -1.11561 0
M  V30 65757 O 4464.94 -8.36503 -2.79617 0
M  V30 65758 O 4465.48 -7.71806 -0.42951 0
M  V30 65759 C 4466.42 -7.67148 0.673689 0
M  V30 65760 C 4465.69 -7.33374 1.95559 0
M  V30 65761 O 4465.48 -5.88721 2.00726 0
M  V30 65762 C 4464.29 -7.92526 2.10483 0
M  V30 65763 O 4463.9 -8.02971 3.47653 0
M  V30 65764 C 4463.41 -6.89602 1.41652 0
M  V30 65765 C 4464.12 -5.59201 1.75185 0
M  V30 65766 N 4464.07 -4.58235 0.662552 0
M  V30 65767 H 4466.91 -8.65116 0.777161 0
M  V30 65768 H 4467.18 -6.90173 0.474152 0
M  V30 65769 H 4466.32 -7.66548 2.79458 0
M  V30 65770 P 4462.35 -8.03563 3.84925 0
M  V30 65771 O 4462.13 -8.85821 5.0569 0
M  V30 65772 O 4461.56 -8.41101 2.65469 0
M  V30 65773 O 4462.1 -6.4965 4.18908 0
M  V30 65774 C 4463.04 -5.81037 5.05421 0
M  V30 65775 C 4462.31 -4.78366 5.89277 0
M  V30 65776 O 4462.1 -3.58302 5.08433 0
M  V30 65777 C 4460.91 -5.17448 6.36119 0
M  V30 65778 O 4460.52 -4.45271 7.53232 0
M  V30 65779 C 4460.03 -4.74639 5.19936 0
M  V30 65780 C 4460.74 -3.49432 4.70418 0
M  V30 65781 N 4460.69 -3.31776 3.22945 0
M  V30 65782 H 4463.53 -6.54213 5.71376 0
M  V30 65783 H 4463.8 -5.30492 4.44033 0
M  V30 65784 H 4462.94 -4.55889 6.76652 0
M  V30 65785 P 4458.97 -4.23843 7.83734 0
M  V30 65786 O 4458.75 -4.19407 9.29784 0
M  V30 65787 O 4458.18 -5.24426 7.09156 0
M  V30 65788 O 4458.72 -2.7935 7.20758 0
M  V30 65789 C 4459.66 -1.7299 7.50419 0
M  V30 65790 C 4458.93 -0.406376 7.57911 0
M  V30 65791 O 4458.72 0.0897726 6.21935 0
M  V30 65792 C 4457.53 -0.447224 8.1878 0
M  V30 65793 O 4457.14 0.825065 8.71101 0
M  V30 65794 C 4456.65 -0.783801 6.99623 0
M  V30 65795 C 4457.36 -0.0619192 5.85967 0
M  V30 65796 N 4457.31 -0.7859 4.56281 0
M  V30 65797 H 4460.15 -1.93423 8.4679 0
M  V30 65798 H 4460.42 -1.68181 6.71046 0
M  V30 65799 H 4459.56 0.289041 8.15388 0
M  V30 65800 P 4455.59 1.17771 8.83182 0
M  V30 65801 O 4455.37 2.07206 9.98732 0
M  V30 65802 O 4454.8 -0.0743816 8.81969 0
M  V30 65803 O 4455.34 1.97652 7.47304 0
M  V30 65804 C 4456.28 3.01133 7.08783 0
M  V30 65805 C 4455.55 4.12613 6.37049 0
M  V30 65806 O 4455.34 3.72827 4.97879 0
M  V30 65807 C 4454.15 4.45085 6.88694 0
M  V30 65808 O 4453.76 5.7877 6.5624 0
M  V30 65809 C 4453.27 3.47817 6.12078 0
M  V30 65810 C 4453.98 3.39414 4.77697 0
M  V30 65811 N 4453.93 2.04199 4.15538 0
M  V30 65812 C 4454.01 0.821545 4.76977 0
M  V30 65813 N 4453.94 -0.1794 3.94592 0
M  V30 65814 C 4453.79 0.419121 2.70776 0
M  V30 65815 C 4453.66 -0.109072 1.40577 0
M  V30 65816 N 4453.65 -1.4104 1.1344 0
M  V30 65817 N 4453.54 0.764381 0.39411 0
M  V30 65818 C 4453.55 2.06587 0.664135 0
M  V30 65819 N 4453.67 2.67948 1.82153 0
M  V30 65820 C 4453.79 1.77942 2.8147 0
M  V30 65821 H 4456.77 3.41248 7.98759 0
M  V30 65822 H 4457.04 2.57728 6.42 0
M  V30 65823 H 4456.18 5.02657 6.42673 0
M  V30 65824 H 4453.52 4.11708 4.08956 0
M  V30 65825 H 4453.24 2.49626 6.61679 0
M  V30 65826 H 4452.25 3.8662 6.00862 0
M  V30 65827 H 4454.08 4.29991 7.97006 0
M  V30 65828 H 4454.13 0.702451 5.84696 0
M  V30 65829 H 4453.74 -2.09647 1.89651 0
M  V30 65830 H 4453.56 -1.73358 0.160575 0
M  V30 65831 H 4453.45 2.71695 -0.195838 0
M  V30 65832 P 4452.21 6.144 6.45285 0
M  V30 65833 O 4451.99 7.54673 6.86199 0
M  V30 65834 O 4451.42 5.12391 7.179 0
M  V30 65835 O 4451.96 5.99158 4.88404 0
M  V30 65836 C 4452.9 6.60062 3.96313 0
M  V30 65837 C 4452.17 7.08259 2.72856 0
M  V30 65838 O 4451.96 5.9427 1.83651 0
M  V30 65839 C 4450.77 7.65087 2.94749 0
M  V30 65840 O 4450.38 8.53963 1.90717 0
M  V30 65841 C 4449.89 6.41069 2.90698 0
M  V30 65842 C 4450.6 5.5528 1.86931 0
M  V30 65843 N 4450.55 4.09575 2.15696 0
M  V30 65844 C 4450.4 3.24249 1.08435 0
M  V30 65845 O 4450.31 3.63946 -0.0628747 0
M  V30 65846 N 4450.36 1.90009 1.39973 0
M  V30 65847 C 4450.45 1.34884 2.65614 0
M  V30 65848 O 4450.4 0.123716 2.81728 0
M  V30 65849 C 4450.6 2.3145 3.71736 0
M  V30 65850 C 4450.71 1.75913 5.10438 0
M  V30 65851 C 4450.65 3.63518 3.44754 0
M  V30 65852 H 4453.39 7.45402 4.45526 0
M  V30 65853 H 4453.66 5.86062 3.67208 0
M  V30 65854 H 4452.8 7.84412 2.24479 0
M  V30 65855 H 4450.14 5.73358 0.888409 0
M  V30 65856 H 4449.86 5.90877 3.88583 0
M  V30 65857 H 4448.87 6.65867 2.58821 0
M  V30 65858 H 4450.7 8.16248 3.92006 0
M  V30 65859 H 4450.78 4.34551 4.26383 0
M  V30 65860 H 4449.75 1.85471 5.61775 0
M  V30 65861 H 4451.48 2.31364 5.66257 0
M  V30 65862 H 4450.99 0.695936 5.05229 0
M  V30 65863 H 4450.26 1.26277 0.63625 0
M  V30 65864 P 4448.83 8.7635 1.60911 0
M  V30 65865 O 4448.61 10.1388 1.11561 0
M  V30 65866 O 4448.04 8.36503 2.79617 0
M  V30 65867 O 4448.58 7.71806 0.42951 0
M  V30 65868 C 4449.52 7.67148 -0.673689 0
M  V30 65869 C 4448.79 7.33374 -1.95559 0
M  V30 65870 O 4448.58 5.88721 -2.00726 0
M  V30 65871 C 4447.39 7.92526 -2.10483 0
M  V30 65872 O 4447 8.02971 -3.47653 0
M  V30 65873 C 4446.51 6.89602 -1.41652 0
M  V30 65874 C 4447.22 5.59201 -1.75185 0
M  V30 65875 N 4447.17 4.58301 -0.657969 0
M  V30 65876 C 4447.25 4.79019 0.692603 0
M  V30 65877 N 4447.18 3.69736 1.38998 0
M  V30 65878 C 4447.03 2.70474 0.438135 0
M  V30 65879 C 4446.9 1.30327 0.538142 0
M  V30 65880 N 4446.89 0.64304 1.69192 0
M  V30 65881 N 4446.78 0.611027 -0.605183 0
M  V30 65882 C 4446.79 1.27002 -1.75953 0
M  V30 65883 N 4446.91 2.56038 -1.98546 0
M  V30 65884 C 4447.03 3.22681 -0.822541 0
M  V30 65885 H 4450.01 8.65116 -0.777161 0
M  V30 65886 H 4450.28 6.9022 -0.46725 0
M  V30 65887 H 4449.42 7.66548 -2.79458 0
M  V30 65888 H 4446.76 5.16165 -2.65183 0
M  V30 65889 H 4446.48 7.06433 -0.329384 0
M  V30 65890 H 4445.49 6.90926 -1.82021 0
M  V30 65891 H 4447.32 8.90873 -1.62657 0
M  V30 65892 H 4447.37 5.77785 1.13874 0
M  V30 65893 H 4446.98 1.15585 2.57991 0
M  V30 65894 H 4446.8 -0.382989 1.69835 0
M  V30 65895 H 4446.69 0.653331 -2.64449 0
M  V30 65896 P 4445.45 8.03563 -3.84925 0
M  V30 65897 O 4445.23 8.85821 -5.0569 0
M  V30 65898 O 4444.66 8.41101 -2.65469 0
M  V30 65899 O 4445.2 6.4965 -4.18908 0
M  V30 65900 C 4446.14 5.81037 -5.05421 0
M  V30 65901 C 4445.41 4.78366 -5.89277 0
M  V30 65902 O 4445.2 3.58302 -5.08433 0
M  V30 65903 C 4444.01 5.17448 -6.36119 0
M  V30 65904 O 4443.62 4.45271 -7.53232 0
M  V30 65905 C 4443.13 4.74639 -5.19936 0
M  V30 65906 C 4443.84 3.49432 -4.70418 0
M  V30 65907 N 4443.79 3.31776 -3.22945 0
M  V30 65908 H 4446.63 6.54213 -5.71376 0
M  V30 65909 H 4446.9 5.30492 -4.44033 0
M  V30 65910 H 4446.04 4.55889 -6.76652 0
M  V30 65911 P 4442.07 4.23843 -7.83734 0
M  V30 65912 O 4441.85 4.19407 -9.29784 0
M  V30 65913 O 4441.28 5.24426 -7.09156 0
M  V30 65914 O 4441.82 2.7935 -7.20758 0
M  V30 65915 C 4442.76 1.7299 -7.50419 0
M  V30 65916 C 4442.03 0.406376 -7.57911 0
M  V30 65917 O 4441.82 -0.0897726 -6.21935 0
M  V30 65918 C 4440.63 0.447224 -8.1878 0
M  V30 65919 O 4440.24 -0.825065 -8.71101 0
M  V30 65920 C 4439.75 0.783801 -6.99623 0
M  V30 65921 C 4440.46 0.0619192 -5.85967 0
M  V30 65922 N 4440.41 0.7859 -4.56281 0
M  V30 65923 H 4443.25 1.93423 -8.4679 0
M  V30 65924 H 4443.52 1.68181 -6.71046 0
M  V30 65925 H 4442.66 -0.289041 -8.15388 0
M  V30 65926 P 4438.69 -1.17771 -8.83182 0
M  V30 65927 O 4438.47 -2.07206 -9.98732 0
M  V30 65928 O 4437.9 0.0743816 -8.81969 0
M  V30 65929 O 4438.44 -1.97652 -7.47304 0
M  V30 65930 C 4439.38 -3.01133 -7.08783 0
M  V30 65931 C 4438.65 -4.12613 -6.37049 0
M  V30 65932 O 4438.44 -3.72827 -4.97879 0
M  V30 65933 C 4437.25 -4.45085 -6.88694 0
M  V30 65934 O 4436.86 -5.7877 -6.5624 0
M  V30 65935 C 4436.37 -3.47817 -6.12078 0
M  V30 65936 C 4437.08 -3.39414 -4.77697 0
M  V30 65937 N 4437.03 -2.04615 -4.15333 0
M  V30 65938 H 4439.87 -3.41248 -7.98759 0
M  V30 65939 H 4440.14 -2.5837 -6.41742 0
M  V30 65940 H 4439.28 -5.02657 -6.42673 0
M  V30 65941 P 4435.31 -6.144 -6.45285 0
M  V30 65942 O 4435.09 -7.54673 -6.86199 0
M  V30 65943 O 4434.52 -5.12391 -7.179 0
M  V30 65944 O 4435.06 -5.99158 -4.88404 0
M  V30 65945 C 4436 -6.60234 -3.96415 0
M  V30 65946 C 4435.27 -7.08259 -2.72856 0
M  V30 65947 O 4435.06 -5.9427 -1.83651 0
M  V30 65948 C 4433.87 -7.64886 -2.9555 0
M  V30 65949 O 4433.48 -8.53963 -1.90717 0
M  V30 65950 C 4432.99 -6.4116 -2.90739 0
M  V30 65951 C 4433.7 -5.55375 -1.86963 0
M  V30 65952 N 4433.65 -4.09664 -2.15742 0
M  V30 65953 H 4436.49 -7.45574 -4.45629 0
M  V30 65954 H 4436.76 -5.86232 -3.67314 0
M  V30 65955 H 4435.9 -7.84412 -2.24479 0
M  V30 65956 P 4431.93 -8.7635 -1.60911 0
M  V30 65957 O 4431.71 -10.1388 -1.11561 0
M  V30 65958 O 4431.14 -8.36503 -2.79617 0
M  V30 65959 O 4431.68 -7.71806 -0.42951 0
M  V30 65960 C 4432.62 -7.66948 0.673514 0
M  V30 65961 C 4431.89 -7.33374 1.95559 0
M  V30 65962 O 4431.68 -5.88721 2.00726 0
M  V30 65963 C 4430.49 -7.92218 2.1125 0
M  V30 65964 O 4430.1 -8.02971 3.47653 0
M  V30 65965 C 4429.61 -6.89504 1.41631 0
M  V30 65966 C 4430.32 -5.59106 1.75155 0
M  V30 65967 N 4430.27 -4.58136 0.662409 0
M  V30 65968 C 4430.12 -3.26059 1.02863 0
M  V30 65969 O 4430.03 -2.90743 2.19009 0
M  V30 65970 N 4430.08 -2.35995 -0.0155585 0
M  V30 65971 C 4430.17 -2.65248 -1.35603 0
M  V30 65972 C 4430.32 -4.05747 -1.64698 0
M  V30 65973 C 4430.37 -4.96734 -0.652411 0
M  V30 65974 H 4433.11 -8.64917 0.776982 0
M  V30 65975 H 4433.38 -6.89974 0.474015 0
M  V30 65976 H 4432.52 -7.66548 2.79458 0
M  V30 65977 H 4429.86 -5.16076 2.65138 0
M  V30 65978 H 4429.58 -7.06433 0.329384 0
M  V30 65979 H 4428.59 -6.90829 1.81996 0
M  V30 65980 H 4430.42 -8.90774 1.62639 0
M  V30 65981 H 4430.5 -6.02181 -0.895285 0
M  V30 65982 P 4428.55 -8.03563 3.84925 0
M  V30 65983 O 4428.33 -8.85821 5.0569 0
M  V30 65984 O 4427.76 -8.41101 2.65469 0
M  V30 65985 O 4428.3 -6.4965 4.18908 0
M  V30 65986 C 4429.24 -5.81037 5.05421 0
M  V30 65987 C 4428.51 -4.78366 5.89277 0
M  V30 65988 O 4428.3 -3.58302 5.08433 0
M  V30 65989 C 4427.11 -5.17448 6.36119 0
M  V30 65990 O 4426.72 -4.45271 7.53232 0
M  V30 65991 C 4426.23 -4.74639 5.19936 0
M  V30 65992 C 4426.94 -3.49432 4.70418 0
M  V30 65993 N 4426.89 -3.31776 3.22945 0
M  V30 65994 H 4429.73 -6.54213 5.71376 0
M  V30 65995 H 4430 -5.30492 4.44033 0
M  V30 65996 H 4429.14 -4.55889 6.76652 0
M  V30 65997 P 4425.17 -4.23843 7.83734 0
M  V30 65998 O 4424.95 -4.19407 9.29784 0
M  V30 65999 O 4424.38 -5.24426 7.09156 0
M  V30 66000 O 4424.92 -2.7935 7.20758 0
M  V30 66001 C 4425.86 -1.7299 7.50419 0
M  V30 66002 C 4425.13 -0.406376 7.57911 0
M  V30 66003 O 4424.92 0.0897726 6.21935 0
M  V30 66004 C 4423.73 -0.447224 8.1878 0
M  V30 66005 O 4423.34 0.825065 8.71101 0
M  V30 66006 C 4422.85 -0.783801 6.99623 0
M  V30 66007 C 4423.56 -0.0619192 5.85967 0
M  V30 66008 N 4423.51 -0.7859 4.56281 0
M  V30 66009 H 4426.35 -1.93423 8.4679 0
M  V30 66010 H 4426.62 -1.68181 6.71046 0
M  V30 66011 H 4425.76 0.289041 8.15388 0
M  V30 66012 P 4421.79 1.17771 8.83182 0
M  V30 66013 O 4421.57 2.07206 9.98732 0
M  V30 66014 O 4421 -0.0743816 8.81969 0
M  V30 66015 O 4421.54 1.97652 7.47304 0
M  V30 66016 C 4422.48 3.01133 7.08783 0
M  V30 66017 C 4421.75 4.12613 6.37049 0
M  V30 66018 O 4421.54 3.72827 4.97879 0
M  V30 66019 C 4420.35 4.45085 6.88694 0
M  V30 66020 O 4419.96 5.7877 6.5624 0
M  V30 66021 C 4419.47 3.47817 6.12078 0
M  V30 66022 C 4420.18 3.39414 4.77697 0
M  V30 66023 N 4420.13 2.04199 4.15538 0
M  V30 66024 C 4420.21 0.821545 4.76977 0
M  V30 66025 N 4420.14 -0.1794 3.94592 0
M  V30 66026 C 4419.99 0.419121 2.70776 0
M  V30 66027 C 4419.86 -0.109072 1.40577 0
M  V30 66028 N 4419.85 -1.4104 1.1344 0
M  V30 66029 N 4419.74 0.764381 0.39411 0
M  V30 66030 C 4419.75 2.06587 0.664135 0
M  V30 66031 N 4419.87 2.67948 1.82153 0
M  V30 66032 C 4419.99 1.77942 2.8147 0
M  V30 66033 H 4422.97 3.41248 7.98759 0
M  V30 66034 H 4423.24 2.57728 6.42 0
M  V30 66035 H 4422.38 5.02657 6.42673 0
M  V30 66036 H 4419.72 4.11708 4.08956 0
M  V30 66037 H 4419.44 2.49626 6.61679 0
M  V30 66038 H 4418.45 3.8662 6.00862 0
M  V30 66039 H 4420.28 4.29991 7.97006 0
M  V30 66040 H 4420.33 0.702451 5.84696 0
M  V30 66041 H 4419.94 -2.09647 1.89651 0
M  V30 66042 H 4419.76 -1.73358 0.160575 0
M  V30 66043 H 4419.65 2.71695 -0.195838 0
M  V30 66044 P 4418.41 6.144 6.45285 0
M  V30 66045 O 4418.19 7.54673 6.86199 0
M  V30 66046 O 4417.62 5.12391 7.179 0
M  V30 66047 O 4418.16 5.99158 4.88404 0
M  V30 66048 C 4419.1 6.60234 3.96415 0
M  V30 66049 C 4418.37 7.08259 2.72856 0
M  V30 66050 O 4418.16 5.9427 1.83651 0
M  V30 66051 C 4416.97 7.64886 2.9555 0
M  V30 66052 O 4416.58 8.53963 1.90717 0
M  V30 66053 C 4416.09 6.4116 2.90739 0
M  V30 66054 C 4416.8 5.55375 1.86963 0
M  V30 66055 N 4416.75 4.09664 2.15742 0
M  V30 66056 H 4419.59 7.45574 4.45629 0
M  V30 66057 H 4419.86 5.86232 3.67314 0
M  V30 66058 H 4419 7.84412 2.24479 0
M  V30 66059 P 4415.03 8.7635 1.60911 0
M  V30 66060 O 4414.81 10.1388 1.11561 0
M  V30 66061 O 4414.24 8.36503 2.79617 0
M  V30 66062 O 4414.78 7.71806 0.42951 0
M  V30 66063 C 4415.72 7.67148 -0.673689 0
M  V30 66064 C 4414.99 7.33374 -1.95559 0
M  V30 66065 O 4414.78 5.88721 -2.00726 0
M  V30 66066 C 4413.59 7.92526 -2.10483 0
M  V30 66067 O 4413.2 8.02971 -3.47653 0
M  V30 66068 C 4412.71 6.89602 -1.41652 0
M  V30 66069 C 4413.42 5.59201 -1.75185 0
M  V30 66070 N 4413.37 4.58301 -0.657969 0
M  V30 66071 H 4416.21 8.65116 -0.777161 0
M  V30 66072 H 4416.48 6.9022 -0.46725 0
M  V30 66073 H 4415.62 7.66548 -2.79458 0
M  V30 66074 H 4412.96 5.16165 -2.65183 0
M  V30 66075 H 4412.68 7.06433 -0.329384 0
M  V30 66076 H 4411.69 6.90926 -1.82021 0
M  V30 66077 H 4413.52 8.90873 -1.62657 0
M  V30 66078 P 4411.65 8.03563 -3.84925 0
M  V30 66079 O 4411.43 8.85821 -5.0569 0
M  V30 66080 O 4410.86 8.41101 -2.65469 0
M  V30 66081 O 4411.4 6.4965 -4.18908 0
M  V30 66082 C 4412.34 5.81037 -5.05421 0
M  V30 66083 C 4411.61 4.78366 -5.89277 0
M  V30 66084 O 4411.4 3.58302 -5.08433 0
M  V30 66085 C 4410.21 5.17448 -6.36119 0
M  V30 66086 O 4409.82 4.45271 -7.53232 0
M  V30 66087 C 4409.33 4.74639 -5.19936 0
M  V30 66088 C 4410.04 3.49432 -4.70418 0
M  V30 66089 N 4409.99 3.31776 -3.22945 0
M  V30 66090 H 4412.83 6.54213 -5.71376 0
M  V30 66091 H 4413.1 5.30492 -4.44033 0
M  V30 66092 H 4412.24 4.55889 -6.76652 0
M  V30 66093 P 4408.27 4.23843 -7.83734 0
M  V30 66094 O 4408.05 4.19407 -9.29784 0
M  V30 66095 O 4407.48 5.24426 -7.09156 0
M  V30 66096 O 4408.02 2.7935 -7.20758 0
M  V30 66097 C 4408.96 1.7299 -7.50419 0
M  V30 66098 C 4408.23 0.406376 -7.57911 0
M  V30 66099 O 4408.02 -0.0897726 -6.21935 0
M  V30 66100 C 4406.83 0.447224 -8.1878 0
M  V30 66101 O 4406.44 -0.825065 -8.71101 0
M  V30 66102 C 4405.95 0.783801 -6.99623 0
M  V30 66103 C 4406.66 0.0619192 -5.85967 0
M  V30 66104 N 4406.61 0.7859 -4.56281 0
M  V30 66105 H 4409.45 1.93423 -8.4679 0
M  V30 66106 H 4409.72 1.68181 -6.71046 0
M  V30 66107 H 4408.86 -0.289041 -8.15388 0
M  V30 66108 P 4404.89 -1.17771 -8.83182 0
M  V30 66109 O 4404.67 -2.07206 -9.98732 0
M  V30 66110 O 4404.1 0.0743816 -8.81969 0
M  V30 66111 O 4404.64 -1.97652 -7.47304 0
M  V30 66112 C 4405.58 -3.01133 -7.08783 0
M  V30 66113 C 4404.85 -4.12613 -6.37049 0
M  V30 66114 O 4404.64 -3.72827 -4.97879 0
M  V30 66115 C 4403.45 -4.45085 -6.88694 0
M  V30 66116 O 4403.06 -5.7877 -6.5624 0
M  V30 66117 C 4402.57 -3.47817 -6.12078 0
M  V30 66118 C 4403.28 -3.39414 -4.77697 0
M  V30 66119 N 4403.23 -2.04199 -4.15538 0
M  V30 66120 H 4406.07 -3.41248 -7.98759 0
M  V30 66121 H 4406.34 -2.57728 -6.42 0
M  V30 66122 H 4405.48 -5.02657 -6.42673 0
M  V30 66123 H 4402.82 -4.11708 -4.08956 0
M  V30 66124 H 4402.54 -2.49626 -6.61679 0
M  V30 66125 H 4401.55 -3.8662 -6.00862 0
M  V30 66126 H 4403.38 -4.29991 -7.97006 0
M  V30 66127 P 4401.51 -6.144 -6.45285 0
M  V30 66128 O 4401.29 -7.54673 -6.86199 0
M  V30 66129 O 4400.72 -5.12391 -7.179 0
M  V30 66130 O 4401.26 -5.99158 -4.88404 0
M  V30 66131 C 4402.2 -6.60234 -3.96415 0
M  V30 66132 C 4401.47 -7.08259 -2.72856 0
M  V30 66133 O 4401.26 -5.9427 -1.83651 0
M  V30 66134 C 4400.07 -7.64886 -2.9555 0
M  V30 66135 O 4399.68 -8.53963 -1.90717 0
M  V30 66136 C 4399.19 -6.4116 -2.90739 0
M  V30 66137 C 4399.9 -5.55375 -1.86963 0
M  V30 66138 N 4399.85 -4.09664 -2.15742 0
M  V30 66139 C 4399.93 -3.44381 -3.37233 0
M  V30 66140 N 4399.85 -2.14131 -3.28347 0
M  V30 66141 C 4399.71 -1.90247 -1.91588 0
M  V30 66142 C 4399.58 -0.683992 -1.20892 0
M  V30 66143 N 4399.46 -0.903396 0.173998 0
M  V30 66144 C 4399.46 -2.14171 0.784879 0
M  V30 66145 N 4399.33 -2.1435 2.11317 0
M  V30 66146 N 4399.59 -3.28784 0.119316 0
M  V30 66147 C 4399.71 -3.0977 -1.22194 0
M  V30 66148 H 4402.69 -7.45574 -4.45629 0
M  V30 66149 H 4402.96 -5.86232 -3.67314 0
M  V30 66150 H 4402.1 -7.84412 -2.24479 0
M  V30 66151 P 4398.13 -8.7635 -1.60911 0
M  V30 66152 O 4397.91 -10.1388 -1.11561 0
M  V30 66153 O 4397.34 -8.36503 -2.79617 0
M  V30 66154 O 4397.88 -7.71806 -0.42951 0
M  V30 66155 C 4398.82 -7.67148 0.673689 0
M  V30 66156 C 4398.09 -7.33374 1.95559 0
M  V30 66157 O 4397.88 -5.88721 2.00726 0
M  V30 66158 C 4396.69 -7.92526 2.10483 0
M  V30 66159 O 4396.3 -8.02971 3.47653 0
M  V30 66160 C 4395.81 -6.89602 1.41652 0
M  V30 66161 C 4396.52 -5.59201 1.75185 0
M  V30 66162 N 4396.47 -4.58235 0.662552 0
M  V30 66163 C 4396.55 -4.7683 -0.704049 0
M  V30 66164 N 4396.47 -3.66233 -1.39775 0
M  V30 66165 C 4396.33 -2.66526 -0.431739 0
M  V30 66166 C 4396.2 -1.26394 -0.575992 0
M  V30 66167 N 4396.08 -0.62859 0.67177 0
M  V30 66168 C 4396.08 -1.27134 1.89385 0
M  V30 66169 N 4395.95 -0.492035 2.96951 0
M  V30 66170 N 4396.21 -2.58978 2.02907 0
M  V30 66171 C 4396.33 -3.22433 0.832218 0
M  V30 66172 H 4399.31 -8.65116 0.777161 0
M  V30 66173 H 4399.59 -6.90173 0.474152 0
M  V30 66174 H 4398.72 -7.66548 2.79458 0
M  V30 66175 P 4394.75 -8.03563 3.84925 0
M  V30 66176 O 4394.53 -8.85821 5.0569 0
M  V30 66177 O 4393.96 -8.41101 2.65469 0
M  V30 66178 O 4394.5 -6.4965 4.18908 0
M  V30 66179 C 4395.44 -5.81037 5.05421 0
M  V30 66180 C 4394.71 -4.78366 5.89277 0
M  V30 66181 O 4394.5 -3.58302 5.08433 0
M  V30 66182 C 4393.31 -5.17448 6.36119 0
M  V30 66183 O 4392.92 -4.45271 7.53232 0
M  V30 66184 C 4392.43 -4.74639 5.19936 0
M  V30 66185 C 4393.14 -3.49432 4.70418 0
M  V30 66186 N 4393.09 -3.31776 3.22945 0
M  V30 66187 H 4395.93 -6.54213 5.71376 0
M  V30 66188 H 4396.21 -5.30492 4.44033 0
M  V30 66189 H 4395.34 -4.55889 6.76652 0
M  V30 66190 P 4391.37 -4.23843 7.83734 0
M  V30 66191 O 4391.15 -4.19407 9.29784 0
M  V30 66192 O 4390.58 -5.24426 7.09156 0
M  V30 66193 O 4391.12 -2.7935 7.20758 0
M  V30 66194 C 4392.06 -1.7299 7.50419 0
M  V30 66195 C 4391.33 -0.406376 7.57911 0
M  V30 66196 O 4391.12 0.0897726 6.21935 0
M  V30 66197 C 4389.93 -0.447224 8.1878 0
M  V30 66198 O 4389.54 0.825065 8.71101 0
M  V30 66199 C 4389.05 -0.783801 6.99623 0
M  V30 66200 C 4389.76 -0.0619192 5.85967 0
M  V30 66201 N 4389.71 -0.7859 4.56281 0
M  V30 66202 H 4392.55 -1.93423 8.4679 0
M  V30 66203 H 4392.83 -1.68181 6.71046 0
M  V30 66204 H 4391.96 0.289041 8.15388 0
M  V30 66205 P 4387.99 1.17771 8.83182 0
M  V30 66206 O 4387.77 2.07206 9.98732 0
M  V30 66207 O 4387.2 -0.0743816 8.81969 0
M  V30 66208 O 4387.74 1.97652 7.47304 0
M  V30 66209 C 4388.68 3.01133 7.08783 0
M  V30 66210 C 4387.95 4.12613 6.37049 0
M  V30 66211 O 4387.74 3.72827 4.97879 0
M  V30 66212 C 4386.55 4.45085 6.88694 0
M  V30 66213 O 4386.16 5.7877 6.5624 0
M  V30 66214 C 4385.67 3.47817 6.12078 0
M  V30 66215 C 4386.38 3.39414 4.77697 0
M  V30 66216 N 4386.33 2.04615 4.15333 0
M  V30 66217 H 4389.17 3.41248 7.98759 0
M  V30 66218 H 4389.45 2.5837 6.41742 0
M  V30 66219 H 4388.58 5.02657 6.42673 0
M  V30 66220 P 4384.61 6.144 6.45285 0
M  V30 66221 O 4384.39 7.54673 6.86199 0
M  V30 66222 O 4383.82 5.12391 7.179 0
M  V30 66223 O 4384.36 5.99158 4.88404 0
M  V30 66224 C 4385.3 6.60234 3.96415 0
M  V30 66225 C 4384.57 7.08259 2.72856 0
M  V30 66226 O 4384.36 5.9427 1.83651 0
M  V30 66227 C 4383.17 7.64886 2.9555 0
M  V30 66228 O 4382.78 8.53963 1.90717 0
M  V30 66229 C 4382.29 6.4116 2.90739 0
M  V30 66230 C 4383 5.55375 1.86963 0
M  V30 66231 N 4382.95 4.09664 2.15742 0
M  V30 66232 C 4383.03 3.44381 3.37233 0
M  V30 66233 N 4382.95 2.14131 3.28347 0
M  V30 66234 C 4382.81 1.90247 1.91588 0
M  V30 66235 C 4382.68 0.683992 1.20892 0
M  V30 66236 N 4382.56 0.903396 -0.173998 0
M  V30 66237 C 4382.56 2.14171 -0.784879 0
M  V30 66238 N 4382.43 2.1435 -2.11317 0
M  V30 66239 N 4382.69 3.28784 -0.119316 0
M  V30 66240 C 4382.81 3.0977 1.22194 0
M  V30 66241 H 4385.79 7.45574 4.45629 0
M  V30 66242 H 4386.07 5.86232 3.67314 0
M  V30 66243 H 4385.2 7.84412 2.24479 0
M  V30 66244 P 4381.23 8.7635 1.60911 0
M  V30 66245 O 4381.01 10.1388 1.11561 0
M  V30 66246 O 4380.44 8.36503 2.79617 0
M  V30 66247 O 4380.98 7.71906 0.429565 0
M  V30 66248 C 4381.92 7.67148 -0.673689 0
M  V30 66249 C 4381.19 7.33666 -1.94851 0
M  V30 66250 O 4380.98 5.88816 -2.00759 0
M  V30 66251 C 4379.79 7.92526 -2.10483 0
M  V30 66252 O 4379.4 8.03063 -3.47693 0
M  V30 66253 C 4378.91 6.89602 -1.41652 0
M  V30 66254 C 4379.62 5.59201 -1.75185 0
M  V30 66255 N 4379.57 4.58235 -0.662552 0
M  V30 66256 C 4379.42 3.24451 -1.01643 0
M  V30 66257 O 4379.33 2.94958 -2.21722 0
M  V30 66258 N 4379.37 2.30408 0.165238 0
M  V30 66259 C 4379.47 2.66048 1.25118 0
M  V30 66260 N 4379.42 1.70787 2.16813 0
M  V30 66261 C 4379.62 4.02732 1.64413 0
M  V30 66262 C 4379.67 4.9488 0.63991 0
M  V30 66263 H 4382.41 8.65017 -0.777072 0
M  V30 66264 H 4382.68 6.90173 -0.474152 0
M  V30 66265 H 4381.82 7.66642 -2.79492 0
M  V30 66266 H 4379.16 5.16254 -2.65229 0
M  V30 66267 H 4378.88 7.06532 -0.329431 0
M  V30 66268 H 4377.89 6.91023 -1.82047 0
M  V30 66269 H 4379.73 8.90873 -1.62657 0
M  V30 66270 H 4379.8 6.00104 0.892197 0
M  V30 66271 H 4379.7 4.31733 2.69229 0
M  V30 66272 H 4379.31 0.724835 1.8844 0
M  V30 66273 H 4379.5 1.94716 3.16734 0
M  V30 66274 P 4377.85 8.03563 -3.84925 0
M  V30 66275 O 4377.63 8.85821 -5.0569 0
M  V30 66276 O 4377.06 8.41101 -2.65469 0
M  V30 66277 O 4377.6 6.4965 -4.18908 0
M  V30 66278 C 4378.54 5.81037 -5.05421 0
M  V30 66279 C 4377.81 4.78366 -5.89277 0
M  V30 66280 O 4377.6 3.58302 -5.08433 0
M  V30 66281 C 4376.41 5.17448 -6.36119 0
M  V30 66282 O 4376.02 4.45271 -7.53232 0
M  V30 66283 C 4375.53 4.74639 -5.19936 0
M  V30 66284 C 4376.24 3.49432 -4.70418 0
M  V30 66285 N 4376.19 3.31776 -3.22945 0
M  V30 66286 H 4379.03 6.54213 -5.71376 0
M  V30 66287 H 4379.31 5.30492 -4.44033 0
M  V30 66288 H 4378.44 4.55889 -6.76652 0
M  V30 66289 P 4374.47 4.23843 -7.83734 0
M  V30 66290 O 4374.25 4.19407 -9.29784 0
M  V30 66291 O 4373.68 5.24426 -7.09156 0
M  V30 66292 O 4374.22 2.7935 -7.20758 0
M  V30 66293 C 4375.16 1.7299 -7.50419 0
M  V30 66294 C 4374.43 0.406376 -7.57911 0
M  V30 66295 O 4374.22 -0.0897726 -6.21935 0
M  V30 66296 C 4373.03 0.447224 -8.1878 0
M  V30 66297 O 4372.64 -0.825065 -8.71101 0
M  V30 66298 C 4372.15 0.783801 -6.99623 0
M  V30 66299 C 4372.86 0.0619192 -5.85967 0
M  V30 66300 N 4372.81 0.7859 -4.56281 0
M  V30 66301 H 4375.65 1.93423 -8.4679 0
M  V30 66302 H 4375.93 1.68181 -6.71046 0
M  V30 66303 H 4375.06 -0.289041 -8.15388 0
M  V30 66304 P 4371.09 -1.17771 -8.83182 0
M  V30 66305 O 4370.87 -2.07206 -9.98732 0
M  V30 66306 O 4370.3 0.0743816 -8.81969 0
M  V30 66307 O 4370.84 -1.97652 -7.47304 0
M  V30 66308 C 4371.78 -3.01133 -7.08783 0
M  V30 66309 C 4371.05 -4.12613 -6.37049 0
M  V30 66310 O 4370.84 -3.72827 -4.97879 0
M  V30 66311 C 4369.65 -4.45085 -6.88694 0
M  V30 66312 O 4369.26 -5.7877 -6.5624 0
M  V30 66313 C 4368.77 -3.47817 -6.12078 0
M  V30 66314 C 4369.48 -3.39414 -4.77697 0
M  V30 66315 N 4369.43 -2.04199 -4.15538 0
M  V30 66316 H 4372.27 -3.41248 -7.98759 0
M  V30 66317 H 4372.55 -2.57728 -6.42 0
M  V30 66318 H 4371.68 -5.02657 -6.42673 0
M  V30 66319 H 4369.02 -4.11708 -4.08956 0
M  V30 66320 H 4368.74 -2.49626 -6.61679 0
M  V30 66321 H 4367.75 -3.8662 -6.00862 0
M  V30 66322 H 4369.59 -4.29991 -7.97006 0
M  V30 66323 P 4367.71 -6.144 -6.45285 0
M  V30 66324 O 4367.49 -7.54673 -6.86199 0
M  V30 66325 O 4366.92 -5.12391 -7.179 0
M  V30 66326 O 4367.46 -5.99158 -4.88404 0
M  V30 66327 C 4368.4 -6.60234 -3.96415 0
M  V30 66328 C 4367.67 -7.08259 -2.72856 0
M  V30 66329 O 4367.46 -5.9427 -1.83651 0
M  V30 66330 C 4366.27 -7.64886 -2.9555 0
M  V30 66331 O 4365.88 -8.53963 -1.90717 0
M  V30 66332 C 4365.39 -6.4116 -2.90739 0
M  V30 66333 C 4366.1 -5.55375 -1.86963 0
M  V30 66334 N 4366.05 -4.09664 -2.15742 0
M  V30 66335 H 4368.89 -7.45574 -4.45629 0
M  V30 66336 H 4369.17 -5.86232 -3.67314 0
M  V30 66337 H 4368.3 -7.84412 -2.24479 0
M  V30 66338 P 4364.33 -8.7635 -1.60911 0
M  V30 66339 O 4364.11 -10.1388 -1.11561 0
M  V30 66340 O 4363.54 -8.36503 -2.79617 0
M  V30 66341 O 4364.08 -7.71806 -0.42951 0
M  V30 66342 C 4365.02 -7.67148 0.673689 0
M  V30 66343 C 4364.29 -7.33374 1.95559 0
M  V30 66344 O 4364.08 -5.88721 2.00726 0
M  V30 66345 C 4362.89 -7.92526 2.10483 0
M  V30 66346 O 4362.5 -8.02971 3.47653 0
M  V30 66347 C 4362.01 -6.89602 1.41652 0
M  V30 66348 C 4362.72 -5.59201 1.75185 0
M  V30 66349 N 4362.67 -4.58235 0.662552 0
M  V30 66350 H 4365.51 -8.65116 0.777161 0
M  V30 66351 H 4365.79 -6.90173 0.474152 0
M  V30 66352 H 4364.92 -7.66548 2.79458 0
M  V30 66353 P 4360.95 -8.03563 3.84925 0
M  V30 66354 O 4360.73 -8.85821 5.0569 0
M  V30 66355 O 4360.16 -8.41101 2.65469 0
M  V30 66356 O 4360.7 -6.4965 4.18908 0
M  V30 66357 C 4361.64 -5.81037 5.05421 0
M  V30 66358 C 4360.91 -4.78366 5.89277 0
M  V30 66359 O 4360.7 -3.58302 5.08433 0
M  V30 66360 C 4359.51 -5.17448 6.36119 0
M  V30 66361 O 4359.12 -4.45271 7.53232 0
M  V30 66362 C 4358.63 -4.74639 5.19936 0
M  V30 66363 C 4359.34 -3.49432 4.70418 0
M  V30 66364 N 4359.29 -3.32099 3.22613 0
M  V30 66365 C 4359.37 -4.28245 2.25527 0
M  V30 66366 N 4359.3 -3.80823 1.04874 0
M  V30 66367 C 4359.15 -2.44571 1.23535 0
M  V30 66368 C 4359.02 -1.37068 0.330675 0
M  V30 66369 N 4359.01 -1.51472 -0.990824 0
M  V30 66370 N 4358.9 -0.138614 0.848756 0
M  V30 66371 C 4358.91 0.00675923 2.16999 0
M  V30 66372 N 4359.03 -0.904372 3.11122 0
M  V30 66373 C 4359.15 -2.12707 2.56212 0
M  V30 66374 H 4362.13 -6.54213 5.71376 0
M  V30 66375 H 4362.41 -5.30936 4.43503 0
M  V30 66376 H 4361.54 -4.55889 6.76652 0
M  V30 66377 H 4358.88 -2.61715 5.17932 0
M  V30 66378 H 4358.6 -5.52155 4.41878 0
M  V30 66379 H 4357.61 -4.51981 5.53374 0
M  V30 66380 H 4359.45 -6.25124 6.55234 0
M  V30 66381 H 4359.49 -5.34372 2.47488 0
M  V30 66382 H 4359.11 -2.45153 -1.4078 0
M  V30 66383 H 4358.92 -0.688422 -1.59911 0
M  V30 66384 H 4358.81 1.02584 2.52346 0
M  V30 66385 P 4357.57 -4.23843 7.83734 0
M  V30 66386 O 4357.35 -4.19407 9.29784 0
M  V30 66387 O 4356.78 -5.24426 7.09156 0
M  V30 66388 O 4357.32 -2.7935 7.20758 0
M  V30 66389 C 4358.26 -1.7299 7.50419 0
M  V30 66390 C 4357.53 -0.406376 7.57911 0
M  V30 66391 O 4357.32 0.0897726 6.21935 0
M  V30 66392 C 4356.13 -0.447224 8.1878 0
M  V30 66393 O 4355.74 0.825065 8.71101 0
M  V30 66394 C 4355.25 -0.783801 6.99623 0
M  V30 66395 C 4355.96 -0.0619192 5.85967 0
M  V30 66396 N 4355.91 -0.7859 4.56281 0
M  V30 66397 H 4358.75 -1.93423 8.4679 0
M  V30 66398 H 4359.03 -1.68181 6.71046 0
M  V30 66399 H 4358.16 0.289041 8.15388 0
M  V30 66400 P 4354.19 1.17771 8.83182 0
M  V30 66401 O 4353.97 2.07206 9.98732 0
M  V30 66402 O 4353.4 -0.0743816 8.81969 0
M  V30 66403 O 4353.94 1.97652 7.47304 0
M  V30 66404 C 4354.88 3.01133 7.08783 0
M  V30 66405 C 4354.15 4.12613 6.37049 0
M  V30 66406 O 4353.94 3.72827 4.97879 0
M  V30 66407 C 4352.75 4.45085 6.88694 0
M  V30 66408 O 4352.36 5.7877 6.5624 0
M  V30 66409 C 4351.87 3.47817 6.12078 0
M  V30 66410 C 4352.58 3.39414 4.77697 0
M  V30 66411 N 4352.53 2.04615 4.15333 0
M  V30 66412 C 4352.61 0.803897 4.75249 0
M  V30 66413 N 4352.53 -0.197615 3.91502 0
M  V30 66414 C 4352.39 0.413002 2.66823 0
M  V30 66415 C 4352.26 -0.157221 1.38007 0
M  V30 66416 N 4352.14 0.833136 0.390236 0
M  V30 66417 C 4352.14 2.19402 0.623885 0
M  V30 66418 N 4352.01 2.97622 -0.449677 0
M  V30 66419 N 4352.27 2.73005 1.83601 0
M  V30 66420 C 4352.39 1.78786 2.80935 0
M  V30 66421 H 4355.37 3.41248 7.98759 0
M  V30 66422 H 4355.65 2.5837 6.41742 0
M  V30 66423 H 4354.78 5.02657 6.42673 0
M  V30 66424 P 4350.81 6.144 6.45285 0
M  V30 66425 O 4350.59 7.54673 6.86199 0
M  V30 66426 O 4350.02 5.12391 7.179 0
M  V30 66427 O 4350.56 5.99158 4.88404 0
M  V30 66428 C 4351.5 6.60234 3.96415 0
M  V30 66429 C 4350.77 7.08259 2.72856 0
M  V30 66430 O 4350.56 5.9427 1.83651 0
M  V30 66431 C 4349.37 7.64886 2.9555 0
M  V30 66432 O 4348.98 8.53963 1.90717 0
M  V30 66433 C 4348.49 6.4116 2.90739 0
M  V30 66434 C 4349.2 5.55375 1.86963 0
M  V30 66435 N 4349.15 4.09664 2.15742 0
M  V30 66436 H 4351.99 7.45574 4.45629 0
M  V30 66437 H 4352.27 5.86232 3.67314 0
M  V30 66438 H 4351.4 7.84412 2.24479 0
M  V30 66439 P 4347.43 8.7635 1.60911 0
M  V30 66440 O 4347.21 10.1388 1.11561 0
M  V30 66441 O 4346.64 8.36503 2.79617 0
M  V30 66442 O 4347.18 7.71806 0.42951 0
M  V30 66443 C 4348.12 7.66948 -0.673514 0
M  V30 66444 C 4347.39 7.33374 -1.95559 0
M  V30 66445 O 4347.18 5.88721 -2.00726 0
M  V30 66446 C 4345.99 7.92218 -2.1125 0
M  V30 66447 O 4345.6 8.02971 -3.47653 0
M  V30 66448 C 4345.11 6.89504 -1.41631 0
M  V30 66449 C 4345.82 5.59106 -1.75155 0
M  V30 66450 N 4345.77 4.58136 -0.662409 0
M  V30 66451 C 4345.62 3.26059 -1.02863 0
M  V30 66452 O 4345.53 2.90743 -2.19009 0
M  V30 66453 N 4345.58 2.35995 0.0155585 0
M  V30 66454 C 4345.67 2.65248 1.35603 0
M  V30 66455 C 4345.82 4.05747 1.64698 0
M  V30 66456 C 4345.87 4.96734 0.652411 0
M  V30 66457 H 4348.62 8.64917 -0.776982 0
M  V30 66458 H 4348.88 6.89974 -0.474015 0
M  V30 66459 H 4348.02 7.66548 -2.79458 0
M  V30 66460 H 4345.36 5.16076 -2.65138 0
M  V30 66461 H 4345.08 7.06433 -0.329384 0
M  V30 66462 H 4344.09 6.90829 -1.81996 0
M  V30 66463 H 4345.93 8.90774 -1.62639 0
M  V30 66464 H 4346 6.02181 0.895285 0
M  V30 66465 P 4344.05 8.03563 -3.84925 0
M  V30 66466 O 4343.83 8.85821 -5.0569 0
M  V30 66467 O 4343.26 8.41101 -2.65469 0
M  V30 66468 O 4343.8 6.4965 -4.18908 0
M  V30 66469 C 4344.74 5.81037 -5.05421 0
M  V30 66470 C 4344.01 4.78366 -5.89277 0
M  V30 66471 O 4343.8 3.58302 -5.08433 0
M  V30 66472 C 4342.61 5.17448 -6.36119 0
M  V30 66473 O 4342.22 4.45271 -7.53232 0
M  V30 66474 C 4341.73 4.74639 -5.19936 0
M  V30 66475 C 4342.44 3.49432 -4.70418 0
M  V30 66476 N 4342.39 3.32099 -3.22613 0
M  V30 66477 H 4345.23 6.54213 -5.71376 0
M  V30 66478 H 4345.51 5.30936 -4.43503 0
M  V30 66479 H 4344.64 4.55889 -6.76652 0
M  V30 66480 H 4341.98 2.61715 -5.17932 0
M  V30 66481 H 4341.7 5.52155 -4.41878 0
M  V30 66482 H 4340.71 4.51981 -5.53374 0
M  V30 66483 H 4342.55 6.25124 -6.55234 0
M  V30 66484 P 4340.67 4.23843 -7.83734 0
M  V30 66485 O 4340.45 4.19407 -9.29784 0
M  V30 66486 O 4339.88 5.24426 -7.09156 0
M  V30 66487 O 4340.42 2.7935 -7.20758 0
M  V30 66488 C 4341.36 1.7299 -7.50419 0
M  V30 66489 C 4340.63 0.406376 -7.57911 0
M  V30 66490 O 4340.42 -0.0897726 -6.21935 0
M  V30 66491 C 4339.23 0.447224 -8.1878 0
M  V30 66492 O 4338.84 -0.825065 -8.71101 0
M  V30 66493 C 4338.35 0.783801 -6.99623 0
M  V30 66494 C 4339.06 0.0619192 -5.85967 0
M  V30 66495 N 4339.01 0.7859 -4.56281 0
M  V30 66496 H 4341.85 1.93423 -8.4679 0
M  V30 66497 H 4342.13 1.68181 -6.71046 0
M  V30 66498 H 4341.26 -0.289041 -8.15388 0
M  V30 66499 P 4337.29 -1.17771 -8.83182 0
M  V30 66500 O 4337.07 -2.07206 -9.98732 0
M  V30 66501 O 4336.5 0.0743816 -8.81969 0
M  V30 66502 O 4337.04 -1.97652 -7.47304 0
M  V30 66503 C 4337.98 -3.01133 -7.08783 0
M  V30 66504 C 4337.25 -4.12613 -6.37049 0
M  V30 66505 O 4337.04 -3.72827 -4.97879 0
M  V30 66506 C 4335.85 -4.45085 -6.88694 0
M  V30 66507 O 4335.46 -5.7877 -6.5624 0
M  V30 66508 C 4334.97 -3.47817 -6.12078 0
M  V30 66509 C 4335.68 -3.39414 -4.77697 0
M  V30 66510 N 4335.63 -2.04615 -4.15333 0
M  V30 66511 H 4338.47 -3.41248 -7.98759 0
M  V30 66512 H 4338.75 -2.5837 -6.41742 0
M  V30 66513 H 4337.88 -5.02657 -6.42673 0
M  V30 66514 P 4333.91 -6.144 -6.45285 0
M  V30 66515 O 4333.69 -7.54673 -6.86199 0
M  V30 66516 O 4333.12 -5.12391 -7.179 0
M  V30 66517 O 4333.66 -5.99158 -4.88404 0
M  V30 66518 C 4334.6 -6.60234 -3.96415 0
M  V30 66519 C 4333.87 -7.08259 -2.72856 0
M  V30 66520 O 4333.66 -5.9427 -1.83651 0
M  V30 66521 C 4332.47 -7.64886 -2.9555 0
M  V30 66522 O 4332.08 -8.53963 -1.90717 0
M  V30 66523 C 4331.59 -6.4116 -2.90739 0
M  V30 66524 C 4332.3 -5.55375 -1.86963 0
M  V30 66525 N 4332.25 -4.09664 -2.15742 0
M  V30 66526 H 4335.09 -7.45574 -4.45629 0
M  V30 66527 H 4335.37 -5.86232 -3.67314 0
M  V30 66528 H 4334.5 -7.84412 -2.24479 0
M  V30 66529 P 4330.53 -8.7635 -1.60911 0
M  V30 66530 O 4330.31 -10.1388 -1.11561 0
M  V30 66531 O 4329.74 -8.36503 -2.79617 0
M  V30 66532 O 4330.28 -7.71806 -0.42951 0
M  V30 66533 C 4331.22 -7.67148 0.673689 0
M  V30 66534 C 4330.49 -7.33374 1.95559 0
M  V30 66535 O 4330.28 -5.88721 2.00726 0
M  V30 66536 C 4329.09 -7.92526 2.10483 0
M  V30 66537 O 4328.7 -8.02971 3.47653 0
M  V30 66538 C 4328.21 -6.89602 1.41652 0
M  V30 66539 C 4328.92 -5.59201 1.75185 0
M  V30 66540 N 4328.87 -4.58235 0.662552 0
M  V30 66541 C 4328.95 -4.7683 -0.704049 0
M  V30 66542 N 4328.87 -3.66233 -1.39775 0
M  V30 66543 C 4328.73 -2.66526 -0.431739 0
M  V30 66544 C 4328.6 -1.26394 -0.575992 0
M  V30 66545 N 4328.48 -0.62859 0.67177 0
M  V30 66546 C 4328.48 -1.27134 1.89385 0
M  V30 66547 N 4328.35 -0.492035 2.96951 0
M  V30 66548 N 4328.61 -2.58978 2.02907 0
M  V30 66549 C 4328.73 -3.22433 0.832218 0
M  V30 66550 H 4331.71 -8.65116 0.777161 0
M  V30 66551 H 4331.99 -6.90173 0.474152 0
M  V30 66552 H 4331.12 -7.66548 2.79458 0
M  V30 66553 P 4327.15 -8.03563 3.84925 0
M  V30 66554 O 4326.93 -8.85821 5.0569 0
M  V30 66555 O 4326.36 -8.41101 2.65469 0
M  V30 66556 O 4326.9 -6.4965 4.18908 0
M  V30 66557 C 4327.84 -5.81037 5.05421 0
M  V30 66558 C 4327.11 -4.78366 5.89277 0
M  V30 66559 O 4326.9 -3.58302 5.08433 0
M  V30 66560 C 4325.71 -5.17448 6.36119 0
M  V30 66561 O 4325.32 -4.45271 7.53232 0
M  V30 66562 C 4324.83 -4.74639 5.19936 0
M  V30 66563 C 4325.54 -3.49432 4.70418 0
M  V30 66564 N 4325.49 -3.31776 3.22945 0
M  V30 66565 H 4328.33 -6.54213 5.71376 0
M  V30 66566 H 4328.61 -5.30492 4.44033 0
M  V30 66567 H 4327.74 -4.55889 6.76652 0
M  V30 66568 P 4323.77 -4.23843 7.83734 0
M  V30 66569 O 4323.55 -4.19407 9.29784 0
M  V30 66570 O 4322.98 -5.24426 7.09156 0
M  V30 66571 O 4323.52 -2.7935 7.20758 0
M  V30 66572 C 4324.46 -1.7299 7.50419 0
M  V30 66573 C 4323.73 -0.406376 7.57911 0
M  V30 66574 O 4323.52 0.0897726 6.21935 0
M  V30 66575 C 4322.33 -0.447224 8.1878 0
M  V30 66576 O 4321.94 0.825065 8.71101 0
M  V30 66577 C 4321.45 -0.783801 6.99623 0
M  V30 66578 C 4322.16 -0.0619192 5.85967 0
M  V30 66579 N 4322.11 -0.790462 4.56202 0
M  V30 66580 H 4324.95 -1.93423 8.4679 0
M  V30 66581 H 4325.23 -1.68852 6.70877 0
M  V30 66582 H 4324.36 0.289041 8.15388 0
M  V30 66583 H 4321.7 0.927006 5.72848 0
M  V30 66584 H 4321.42 -1.86973 6.82036 0
M  V30 66585 H 4320.43 -0.403953 7.13357 0
M  V30 66586 H 4322.27 -1.20599 8.97534 0
M  V30 66587 P 4320.39 1.17771 8.83182 0
M  V30 66588 O 4320.17 2.07206 9.98732 0
M  V30 66589 O 4319.6 -0.0743816 8.81969 0
M  V30 66590 O 4320.14 1.97652 7.47304 0
M  V30 66591 C 4321.08 3.01133 7.08783 0
M  V30 66592 C 4320.35 4.12613 6.37049 0
M  V30 66593 O 4320.14 3.72827 4.97879 0
M  V30 66594 C 4318.95 4.45085 6.88694 0
M  V30 66595 O 4318.56 5.7877 6.5624 0
M  V30 66596 C 4318.07 3.47817 6.12078 0
M  V30 66597 C 4318.78 3.39414 4.77697 0
M  V30 66598 N 4318.73 2.04615 4.15333 0
M  V30 66599 H 4321.57 3.41248 7.98759 0
M  V30 66600 H 4321.85 2.5837 6.41742 0
M  V30 66601 H 4320.98 5.02657 6.42673 0
M  V30 66602 P 4317.01 6.144 6.45285 0
M  V30 66603 O 4316.79 7.54673 6.86199 0
M  V30 66604 O 4316.22 5.12391 7.179 0
M  V30 66605 O 4316.76 5.99158 4.88404 0
M  V30 66606 C 4317.7 6.60234 3.96415 0
M  V30 66607 C 4316.97 7.08259 2.72856 0
M  V30 66608 O 4316.76 5.9427 1.83651 0
M  V30 66609 C 4315.57 7.64886 2.9555 0
M  V30 66610 O 4315.18 8.53963 1.90717 0
M  V30 66611 C 4314.69 6.4116 2.90739 0
M  V30 66612 C 4315.4 5.55375 1.86963 0
M  V30 66613 N 4315.35 4.09448 2.16152 0
M  V30 66614 H 4318.19 7.45574 4.45629 0
M  V30 66615 H 4318.47 5.85864 3.679 0
M  V30 66616 H 4317.6 7.84412 2.24479 0
M  V30 66617 H 4314.94 5.73457 0.888562 0
M  V30 66618 H 4314.66 5.90877 3.88583 0
M  V30 66619 H 4313.67 6.6596 2.58858 0
M  V30 66620 H 4315.51 8.16339 3.92049 0
M  V30 66621 P 4313.63 8.7635 1.60911 0
M  V30 66622 O 4313.41 10.1388 1.11561 0
M  V30 66623 O 4312.84 8.36503 2.79617 0
M  V30 66624 O 4313.38 7.71806 0.42951 0
M  V30 66625 C 4314.32 7.67148 -0.673689 0
M  V30 66626 C 4313.59 7.33374 -1.95559 0
M  V30 66627 O 4313.38 5.88721 -2.00726 0
M  V30 66628 C 4312.19 7.92526 -2.10483 0
M  V30 66629 O 4311.8 8.02971 -3.47653 0
M  V30 66630 C 4311.31 6.89602 -1.41652 0
M  V30 66631 C 4312.02 5.59201 -1.75185 0
M  V30 66632 N 4311.97 4.58235 -0.662552 0
M  V30 66633 H 4314.81 8.65116 -0.777161 0
M  V30 66634 H 4315.09 6.90173 -0.474152 0
M  V30 66635 H 4314.22 7.66548 -2.79458 0
M  V30 66636 P 4310.25 8.03563 -3.84925 0
M  V30 66637 O 4310.03 8.85821 -5.0569 0
M  V30 66638 O 4309.46 8.41101 -2.65469 0
M  V30 66639 O 4310 6.4965 -4.18908 0
M  V30 66640 C 4310.94 5.81037 -5.05421 0
M  V30 66641 C 4310.21 4.78366 -5.89277 0
M  V30 66642 O 4310 3.58302 -5.08433 0
M  V30 66643 C 4308.81 5.17448 -6.36119 0
M  V30 66644 O 4308.42 4.45271 -7.53232 0
M  V30 66645 C 4307.93 4.74639 -5.19936 0
M  V30 66646 C 4308.64 3.49432 -4.70418 0
M  V30 66647 N 4308.59 3.31776 -3.22945 0
M  V30 66648 H 4311.43 6.54213 -5.71376 0
M  V30 66649 H 4311.71 5.30492 -4.44033 0
M  V30 66650 H 4310.84 4.55889 -6.76652 0
M  V30 66651 P 4306.87 4.23843 -7.83734 0
M  V30 66652 O 4306.65 4.19407 -9.29784 0
M  V30 66653 O 4306.08 5.24426 -7.09156 0
M  V30 66654 O 4306.62 2.7935 -7.20758 0
M  V30 66655 C 4307.56 1.7299 -7.50419 0
M  V30 66656 C 4306.83 0.406376 -7.57911 0
M  V30 66657 O 4306.62 -0.0897726 -6.21935 0
M  V30 66658 C 4305.43 0.447224 -8.1878 0
M  V30 66659 O 4305.04 -0.825065 -8.71101 0
M  V30 66660 C 4304.55 0.783801 -6.99623 0
M  V30 66661 C 4305.26 0.0619192 -5.85967 0
M  V30 66662 N 4305.21 0.790462 -4.56202 0
M  V30 66663 C 4305.29 2.13895 -4.34171 0
M  V30 66664 N 4305.22 2.46449 -3.08687 0
M  V30 66665 C 4305.07 1.2525 -2.43697 0
M  V30 66666 C 4304.94 0.914535 -1.07318 0
M  V30 66667 N 4304.93 1.80782 -0.0887348 0
M  V30 66668 N 4304.82 -0.386745 -0.768133 0
M  V30 66669 C 4304.83 -1.28096 -1.75159 0
M  V30 66670 N 4304.95 -1.09708 -3.04861 0
M  V30 66671 C 4305.07 0.214857 -3.32306 0
M  V30 66672 H 4308.05 1.93423 -8.4679 0
M  V30 66673 H 4308.33 1.68852 -6.70877 0
M  V30 66674 H 4307.46 -0.289041 -8.15388 0
M  V30 66675 H 4304.8 -0.927006 -5.72848 0
M  V30 66676 H 4304.52 1.86973 -6.82036 0
M  V30 66677 H 4303.53 0.403953 -7.13357 0
M  V30 66678 H 4305.37 1.20599 -8.97534 0
M  V30 66679 H 4305.41 2.86846 -5.14318 0
M  V30 66680 H 4305.03 2.81082 -0.302037 0
M  V30 66681 H 4304.84 1.49688 0.889064 0
M  V30 66682 H 4304.73 -2.31317 -1.43855 0
M  V30 66683 P 4303.49 -1.17771 -8.83182 0
M  V30 66684 O 4303.27 -2.07206 -9.98732 0
M  V30 66685 O 4302.7 0.0743816 -8.81969 0
M  V30 66686 O 4303.24 -1.97652 -7.47304 0
M  V30 66687 C 4304.18 -3.01133 -7.08783 0
M  V30 66688 C 4303.45 -4.12613 -6.37049 0
M  V30 66689 O 4303.24 -3.72827 -4.97879 0
M  V30 66690 C 4302.05 -4.45085 -6.88694 0
M  V30 66691 O 4301.66 -5.7877 -6.5624 0
M  V30 66692 C 4301.17 -3.47817 -6.12078 0
M  V30 66693 C 4301.88 -3.39414 -4.77697 0
M  V30 66694 N 4301.83 -2.04199 -4.15538 0
M  V30 66695 H 4304.67 -3.41248 -7.98759 0
M  V30 66696 H 4304.95 -2.57728 -6.42 0
M  V30 66697 H 4304.08 -5.02657 -6.42673 0
M  V30 66698 H 4301.42 -4.11708 -4.08956 0
M  V30 66699 H 4301.14 -2.49626 -6.61679 0
M  V30 66700 H 4300.15 -3.8662 -6.00862 0
M  V30 66701 H 4301.99 -4.29991 -7.97006 0
M  V30 66702 P 4300.11 -6.144 -6.45285 0
M  V30 66703 O 4299.89 -7.54673 -6.86199 0
M  V30 66704 O 4299.32 -5.12391 -7.179 0
M  V30 66705 O 4299.86 -5.99158 -4.88404 0
M  V30 66706 C 4300.8 -6.60234 -3.96415 0
M  V30 66707 C 4300.07 -7.08259 -2.72856 0
M  V30 66708 O 4299.86 -5.9427 -1.83651 0
M  V30 66709 C 4298.67 -7.64886 -2.9555 0
M  V30 66710 O 4298.28 -8.53963 -1.90717 0
M  V30 66711 C 4297.79 -6.4116 -2.90739 0
M  V30 66712 C 4298.5 -5.55375 -1.86963 0
M  V30 66713 N 4298.45 -4.09664 -2.15742 0
M  V30 66714 H 4301.29 -7.45574 -4.45629 0
M  V30 66715 H 4301.57 -5.86232 -3.67314 0
M  V30 66716 H 4300.7 -7.84412 -2.24479 0
M  V30 66717 P 4296.73 -8.7635 -1.60911 0
M  V30 66718 O 4296.51 -10.1388 -1.11561 0
M  V30 66719 O 4295.94 -8.36503 -2.79617 0
M  V30 66720 O 4296.48 -7.71806 -0.42951 0
M  V30 66721 C 4297.42 -7.66948 0.673514 0
M  V30 66722 C 4296.69 -7.33374 1.95559 0
M  V30 66723 O 4296.48 -5.88721 2.00726 0
M  V30 66724 C 4295.29 -7.92218 2.1125 0
M  V30 66725 O 4294.9 -8.02971 3.47653 0
M  V30 66726 C 4294.41 -6.89504 1.41631 0
M  V30 66727 C 4295.12 -5.59106 1.75155 0
M  V30 66728 N 4295.07 -4.58136 0.662409 0
M  V30 66729 C 4294.92 -3.26059 1.02863 0
M  V30 66730 O 4294.83 -2.90743 2.19009 0
M  V30 66731 N 4294.88 -2.35995 -0.0155585 0
M  V30 66732 C 4294.97 -2.65248 -1.35603 0
M  V30 66733 C 4295.12 -4.05747 -1.64698 0
M  V30 66734 C 4295.17 -4.96734 -0.652411 0
M  V30 66735 H 4297.92 -8.64917 0.776982 0
M  V30 66736 H 4298.18 -6.89974 0.474015 0
M  V30 66737 H 4297.32 -7.66548 2.79458 0
M  V30 66738 H 4294.66 -5.16076 2.65138 0
M  V30 66739 H 4294.38 -7.06433 0.329384 0
M  V30 66740 H 4293.39 -6.90829 1.81996 0
M  V30 66741 H 4295.23 -8.90774 1.62639 0
M  V30 66742 H 4295.3 -6.02181 -0.895285 0
M  V30 66743 P 4293.35 -8.03563 3.84925 0
M  V30 66744 O 4293.13 -8.85821 5.0569 0
M  V30 66745 O 4292.56 -8.41101 2.65469 0
M  V30 66746 O 4293.1 -6.4965 4.18908 0
M  V30 66747 C 4294.04 -5.81037 5.05421 0
M  V30 66748 C 4293.31 -4.78366 5.89277 0
M  V30 66749 O 4293.1 -3.58302 5.08433 0
M  V30 66750 C 4291.91 -5.17448 6.36119 0
M  V30 66751 O 4291.52 -4.45271 7.53232 0
M  V30 66752 C 4291.03 -4.74639 5.19936 0
M  V30 66753 C 4291.74 -3.49432 4.70418 0
M  V30 66754 N 4291.69 -3.31776 3.22945 0
M  V30 66755 H 4294.53 -6.54213 5.71376 0
M  V30 66756 H 4294.81 -5.30492 4.44033 0
M  V30 66757 H 4293.94 -4.55889 6.76652 0
M  V30 66758 P 4289.97 -4.23843 7.83734 0
M  V30 66759 O 4289.75 -4.19407 9.29784 0
M  V30 66760 O 4289.18 -5.24426 7.09156 0
M  V30 66761 O 4289.72 -2.7935 7.20758 0
M  V30 66762 C 4290.66 -1.7299 7.50419 0
M  V30 66763 C 4289.93 -0.406376 7.57911 0
M  V30 66764 O 4289.72 0.0897726 6.21935 0
M  V30 66765 C 4288.53 -0.447224 8.1878 0
M  V30 66766 O 4288.14 0.825065 8.71101 0
M  V30 66767 C 4287.65 -0.783801 6.99623 0
M  V30 66768 C 4288.36 -0.0619192 5.85967 0
M  V30 66769 N 4288.31 -0.7859 4.56281 0
M  V30 66770 H 4291.15 -1.93423 8.4679 0
M  V30 66771 H 4291.43 -1.68181 6.71046 0
M  V30 66772 H 4290.56 0.289041 8.15388 0
M  V30 66773 P 4286.59 1.17771 8.83182 0
M  V30 66774 O 4286.37 2.07206 9.98732 0
M  V30 66775 O 4285.8 -0.0743816 8.81969 0
M  V30 66776 O 4286.34 1.97652 7.47304 0
M  V30 66777 C 4287.28 3.01133 7.08783 0
M  V30 66778 C 4286.55 4.12613 6.37049 0
M  V30 66779 O 4286.34 3.72827 4.97879 0
M  V30 66780 C 4285.15 4.45085 6.88694 0
M  V30 66781 O 4284.76 5.7877 6.5624 0
M  V30 66782 C 4284.27 3.47817 6.12078 0
M  V30 66783 C 4284.98 3.39414 4.77697 0
M  V30 66784 N 4284.93 2.04615 4.15333 0
M  V30 66785 H 4287.77 3.41248 7.98759 0
M  V30 66786 H 4288.05 2.5837 6.41742 0
M  V30 66787 H 4287.18 5.02657 6.42673 0
M  V30 66788 P 4283.21 6.144 6.45285 0
M  V30 66789 O 4282.99 7.54673 6.86199 0
M  V30 66790 O 4282.42 5.12391 7.179 0
M  V30 66791 O 4282.96 5.99158 4.88404 0
M  V30 66792 C 4283.9 6.60234 3.96415 0
M  V30 66793 C 4283.17 7.08259 2.72856 0
M  V30 66794 O 4282.96 5.9427 1.83651 0
M  V30 66795 C 4281.77 7.64886 2.9555 0
M  V30 66796 O 4281.38 8.53963 1.90717 0
M  V30 66797 C 4280.89 6.4116 2.90739 0
M  V30 66798 C 4281.6 5.55375 1.86963 0
M  V30 66799 N 4281.55 4.09448 2.16152 0
M  V30 66800 H 4284.39 7.45574 4.45629 0
M  V30 66801 H 4284.67 5.85864 3.679 0
M  V30 66802 H 4283.8 7.84412 2.24479 0
M  V30 66803 H 4281.14 5.73457 0.888562 0
M  V30 66804 H 4280.86 5.90877 3.88583 0
M  V30 66805 H 4279.87 6.6596 2.58858 0
M  V30 66806 H 4281.71 8.16339 3.92049 0
M  V30 66807 P 4279.83 8.7635 1.60911 0
M  V30 66808 O 4279.61 10.1388 1.11561 0
M  V30 66809 O 4279.04 8.36503 2.79617 0
M  V30 66810 O 4279.58 7.71806 0.42951 0
M  V30 66811 C 4280.52 7.67148 -0.673689 0
M  V30 66812 C 4279.79 7.33374 -1.95559 0
M  V30 66813 O 4279.58 5.88721 -2.00726 0
M  V30 66814 C 4278.39 7.92526 -2.10483 0
M  V30 66815 O 4278 8.02971 -3.47653 0
M  V30 66816 C 4277.51 6.89602 -1.41652 0
M  V30 66817 C 4278.22 5.59201 -1.75185 0
M  V30 66818 N 4278.17 4.58235 -0.662552 0
M  V30 66819 H 4281.01 8.65116 -0.777161 0
M  V30 66820 H 4281.29 6.90173 -0.474152 0
M  V30 66821 H 4280.42 7.66548 -2.79458 0
M  V30 66822 P 4276.45 8.03563 -3.84925 0
M  V30 66823 O 4276.23 8.85821 -5.0569 0
M  V30 66824 O 4275.66 8.41101 -2.65469 0
M  V30 66825 O 4276.2 6.4965 -4.18908 0
M  V30 66826 C 4277.14 5.81037 -5.05421 0
M  V30 66827 C 4276.41 4.78366 -5.89277 0
M  V30 66828 O 4276.2 3.58302 -5.08433 0
M  V30 66829 C 4275.01 5.17448 -6.36119 0
M  V30 66830 O 4274.62 4.45271 -7.53232 0
M  V30 66831 C 4274.13 4.74639 -5.19936 0
M  V30 66832 C 4274.84 3.49432 -4.70418 0
M  V30 66833 N 4274.79 3.31776 -3.22945 0
M  V30 66834 H 4277.63 6.54213 -5.71376 0
M  V30 66835 H 4277.91 5.30492 -4.44033 0
M  V30 66836 H 4277.04 4.55889 -6.76652 0
M  V30 66837 P 4273.07 4.23843 -7.83734 0
M  V30 66838 O 4272.85 4.19407 -9.29784 0
M  V30 66839 O 4272.28 5.24426 -7.09156 0
M  V30 66840 O 4272.82 2.7935 -7.20758 0
M  V30 66841 C 4273.76 1.72945 -7.50224 0
M  V30 66842 C 4273.03 0.406376 -7.57911 0
M  V30 66843 O 4272.82 -0.0897726 -6.21935 0
M  V30 66844 C 4271.63 0.438983 -8.18724 0
M  V30 66845 O 4271.24 -0.825065 -8.71101 0
M  V30 66846 C 4270.75 0.783689 -6.99524 0
M  V30 66847 C 4271.46 0.0619086 -5.85867 0
M  V30 66848 N 4271.41 0.78573 -4.56183 0
M  V30 66849 C 4271.26 0.0292889 -3.41887 0
M  V30 66850 O 4271.17 -1.18445 -3.4419 0
M  V30 66851 N 4271.22 0.744061 -2.23964 0
M  V30 66852 C 4271.31 2.10932 -2.10362 0
M  V30 66853 C 4271.46 2.8202 -3.34994 0
M  V30 66854 C 4271.51 2.15547 -4.52261 0
M  V30 66855 H 4274.26 1.93379 -8.46595 0
M  V30 66856 H 4274.52 1.68132 -6.70852 0
M  V30 66857 H 4273.66 -0.289041 -8.15388 0
M  V30 66858 H 4271 -0.926847 -5.72749 0
M  V30 66859 H 4270.72 1.86973 -6.82036 0
M  V30 66860 H 4269.73 0.403896 -7.13257 0
M  V30 66861 H 4271.57 1.20585 -8.97435 0
M  V30 66862 H 4271.64 2.71231 -5.45042 0
M  V30 66863 P 4269.69 -1.17771 -8.83182 0
M  V30 66864 O 4269.47 -2.07206 -9.98732 0
M  V30 66865 O 4268.9 0.0743816 -8.81969 0
M  V30 66866 O 4269.44 -1.97652 -7.47304 0
M  V30 66867 C 4270.38 -3.01133 -7.08783 0
M  V30 66868 C 4269.65 -4.12613 -6.37049 0
M  V30 66869 O 4269.44 -3.72827 -4.97879 0
M  V30 66870 C 4268.25 -4.45085 -6.88694 0
M  V30 66871 O 4267.86 -5.7877 -6.5624 0
M  V30 66872 C 4267.37 -3.47817 -6.12078 0
M  V30 66873 C 4268.08 -3.39414 -4.77697 0
M  V30 66874 N 4268.03 -2.04615 -4.15333 0
M  V30 66875 H 4270.87 -3.41248 -7.98759 0
M  V30 66876 H 4271.15 -2.5837 -6.41742 0
M  V30 66877 H 4270.28 -5.02657 -6.42673 0
M  V30 66878 P 4266.31 -6.144 -6.45285 0
M  V30 66879 O 4266.09 -7.54673 -6.86199 0
M  V30 66880 O 4265.52 -5.12391 -7.179 0
M  V30 66881 O 4266.06 -5.99158 -4.88404 0
M  V30 66882 C 4267 -6.60234 -3.96415 0
M  V30 66883 C 4266.27 -7.08259 -2.72856 0
M  V30 66884 O 4266.06 -5.9427 -1.83651 0
M  V30 66885 C 4264.87 -7.64886 -2.9555 0
M  V30 66886 O 4264.48 -8.53963 -1.90717 0
M  V30 66887 C 4263.99 -6.4116 -2.90739 0
M  V30 66888 C 4264.7 -5.55375 -1.86963 0
M  V30 66889 N 4264.65 -4.09664 -2.15742 0
M  V30 66890 C 4264.73 -3.44381 -3.37233 0
M  V30 66891 N 4264.65 -2.14131 -3.28347 0
M  V30 66892 C 4264.51 -1.90247 -1.91588 0
M  V30 66893 C 4264.38 -0.683992 -1.20892 0
M  V30 66894 N 4264.26 -0.903396 0.173998 0
M  V30 66895 C 4264.26 -2.14171 0.784879 0
M  V30 66896 N 4264.13 -2.1435 2.11317 0
M  V30 66897 N 4264.39 -3.28784 0.119316 0
M  V30 66898 C 4264.51 -3.0977 -1.22194 0
M  V30 66899 H 4267.49 -7.45574 -4.45629 0
M  V30 66900 H 4267.77 -5.86232 -3.67314 0
M  V30 66901 H 4266.9 -7.84412 -2.24479 0
M  V30 66902 P 4262.93 -8.7635 -1.60911 0
M  V30 66903 O 4262.71 -10.1388 -1.11561 0
M  V30 66904 O 4262.14 -8.36503 -2.79617 0
M  V30 66905 O 4262.68 -7.71806 -0.42951 0
M  V30 66906 C 4263.62 -7.67148 0.673689 0
M  V30 66907 C 4262.89 -7.33374 1.95559 0
M  V30 66908 O 4262.68 -5.88721 2.00726 0
M  V30 66909 C 4261.49 -7.92526 2.10483 0
M  V30 66910 O 4261.1 -8.02971 3.47653 0
M  V30 66911 C 4260.61 -6.89602 1.41652 0
M  V30 66912 C 4261.32 -5.59201 1.75185 0
M  V30 66913 N 4261.27 -4.58301 0.657969 0
M  V30 66914 H 4264.11 -8.65116 0.777161 0
M  V30 66915 H 4264.39 -6.9022 0.46725 0
M  V30 66916 H 4263.52 -7.66548 2.79458 0
M  V30 66917 H 4260.86 -5.16165 2.65183 0
M  V30 66918 H 4260.58 -7.06433 0.329384 0
M  V30 66919 H 4259.59 -6.90926 1.82021 0
M  V30 66920 H 4261.43 -8.90873 1.62657 0
M  V30 66921 P 4259.55 -8.03563 3.84925 0
M  V30 66922 O 4259.33 -8.85821 5.0569 0
M  V30 66923 O 4258.76 -8.41101 2.65469 0
M  V30 66924 O 4259.3 -6.4965 4.18908 0
M  V30 66925 C 4260.24 -5.81037 5.05421 0
M  V30 66926 C 4259.51 -4.78366 5.89277 0
M  V30 66927 O 4259.3 -3.58302 5.08433 0
M  V30 66928 C 4258.11 -5.17448 6.36119 0
M  V30 66929 O 4257.72 -4.45271 7.53232 0
M  V30 66930 C 4257.23 -4.74639 5.19936 0
M  V30 66931 C 4257.94 -3.49432 4.70418 0
M  V30 66932 N 4257.89 -3.31776 3.22945 0
M  V30 66933 H 4260.73 -6.54213 5.71376 0
M  V30 66934 H 4261.01 -5.30492 4.44033 0
M  V30 66935 H 4260.14 -4.55889 6.76652 0
M  V30 66936 P 4256.17 -4.23843 7.83734 0
M  V30 66937 O 4255.95 -4.19407 9.29784 0
M  V30 66938 O 4255.38 -5.24426 7.09156 0
M  V30 66939 O 4255.92 -2.7935 7.20758 0
M  V30 66940 C 4256.86 -1.7299 7.50419 0
M  V30 66941 C 4256.13 -0.406376 7.57911 0
M  V30 66942 O 4255.92 0.0897726 6.21935 0
M  V30 66943 C 4254.73 -0.447224 8.1878 0
M  V30 66944 O 4254.34 0.825065 8.71101 0
M  V30 66945 C 4253.85 -0.783801 6.99623 0
M  V30 66946 C 4254.56 -0.0619192 5.85967 0
M  V30 66947 N 4254.51 -0.790462 4.56202 0
M  V30 66948 H 4257.35 -1.93423 8.4679 0
M  V30 66949 H 4257.63 -1.68852 6.70877 0
M  V30 66950 H 4256.76 0.289041 8.15388 0
M  V30 66951 H 4254.1 0.927006 5.72848 0
M  V30 66952 H 4253.82 -1.86973 6.82036 0
M  V30 66953 H 4252.83 -0.403953 7.13357 0
M  V30 66954 H 4254.67 -1.20599 8.97534 0
M  V30 66955 P 4252.79 1.17771 8.83182 0
M  V30 66956 O 4252.57 2.07206 9.98732 0
M  V30 66957 O 4252 -0.0743816 8.81969 0
M  V30 66958 O 4252.54 1.97652 7.47304 0
M  V30 66959 C 4253.48 3.01133 7.08783 0
M  V30 66960 C 4252.75 4.12613 6.37049 0
M  V30 66961 O 4252.54 3.72827 4.97879 0
M  V30 66962 C 4251.35 4.45085 6.88694 0
M  V30 66963 O 4250.96 5.7877 6.5624 0
M  V30 66964 C 4250.47 3.47817 6.12078 0
M  V30 66965 C 4251.18 3.39414 4.77697 0
M  V30 66966 N 4251.13 2.04615 4.15333 0
M  V30 66967 H 4253.97 3.41248 7.98759 0
M  V30 66968 H 4254.25 2.5837 6.41742 0
M  V30 66969 H 4253.38 5.02657 6.42673 0
M  V30 66970 P 4249.41 6.144 6.45285 0
M  V30 66971 O 4249.19 7.54673 6.86199 0
M  V30 66972 O 4248.62 5.12391 7.179 0
M  V30 66973 O 4249.16 5.99158 4.88404 0
M  V30 66974 C 4250.1 6.60234 3.96415 0
M  V30 66975 C 4249.37 7.08259 2.72856 0
M  V30 66976 O 4249.16 5.9427 1.83651 0
M  V30 66977 C 4247.97 7.64886 2.9555 0
M  V30 66978 O 4247.58 8.53963 1.90717 0
M  V30 66979 C 4247.09 6.4116 2.90739 0
M  V30 66980 C 4247.8 5.55375 1.86963 0
M  V30 66981 N 4247.75 4.09664 2.15742 0
M  V30 66982 H 4250.59 7.45574 4.45629 0
M  V30 66983 H 4250.87 5.86232 3.67314 0
M  V30 66984 H 4250 7.84412 2.24479 0
M  V30 66985 P 4246.03 8.7635 1.60911 0
M  V30 66986 O 4245.81 10.1388 1.11561 0
M  V30 66987 O 4245.24 8.36503 2.79617 0
M  V30 66988 O 4245.78 7.71806 0.42951 0
M  V30 66989 C 4246.72 7.67148 -0.673689 0
M  V30 66990 C 4245.99 7.33374 -1.95559 0
M  V30 66991 O 4245.78 5.88721 -2.00726 0
M  V30 66992 C 4244.59 7.92526 -2.10483 0
M  V30 66993 O 4244.2 8.02971 -3.47653 0
M  V30 66994 C 4243.71 6.89602 -1.41652 0
M  V30 66995 C 4244.42 5.59201 -1.75185 0
M  V30 66996 N 4244.37 4.58235 -0.662552 0
M  V30 66997 H 4247.21 8.65116 -0.777161 0
M  V30 66998 H 4247.49 6.90173 -0.474152 0
M  V30 66999 H 4246.62 7.66548 -2.79458 0
M  V30 67000 P 4242.65 8.03563 -3.84925 0
M  V30 67001 O 4242.43 8.85821 -5.0569 0
M  V30 67002 O 4241.86 8.41101 -2.65469 0
M  V30 67003 O 4242.4 6.4965 -4.18908 0
M  V30 67004 C 4243.34 5.81037 -5.05421 0
M  V30 67005 C 4242.61 4.78366 -5.89277 0
M  V30 67006 O 4242.4 3.58302 -5.08433 0
M  V30 67007 C 4241.21 5.17448 -6.36119 0
M  V30 67008 O 4240.82 4.45271 -7.53232 0
M  V30 67009 C 4240.33 4.74639 -5.19936 0
M  V30 67010 C 4241.04 3.49432 -4.70418 0
M  V30 67011 N 4240.99 3.32099 -3.22613 0
M  V30 67012 H 4243.83 6.54213 -5.71376 0
M  V30 67013 H 4244.11 5.30936 -4.43503 0
M  V30 67014 H 4243.24 4.55889 -6.76652 0
M  V30 67015 H 4240.58 2.61715 -5.17932 0
M  V30 67016 H 4240.3 5.52155 -4.41878 0
M  V30 67017 H 4239.31 4.51981 -5.53374 0
M  V30 67018 H 4241.15 6.25124 -6.55234 0
M  V30 67019 P 4239.27 4.23843 -7.83734 0
M  V30 67020 O 4239.05 4.19407 -9.29784 0
M  V30 67021 O 4238.48 5.24426 -7.09156 0
M  V30 67022 O 4239.02 2.7935 -7.20758 0
M  V30 67023 C 4239.96 1.7299 -7.50419 0
M  V30 67024 C 4239.23 0.406376 -7.57911 0
M  V30 67025 O 4239.02 -0.0897726 -6.21935 0
M  V30 67026 C 4237.83 0.447224 -8.1878 0
M  V30 67027 O 4237.44 -0.825065 -8.71101 0
M  V30 67028 C 4236.95 0.783801 -6.99623 0
M  V30 67029 C 4237.66 0.0619192 -5.85967 0
M  V30 67030 N 4237.61 0.7859 -4.56281 0
M  V30 67031 H 4240.45 1.93423 -8.4679 0
M  V30 67032 H 4240.73 1.68181 -6.71046 0
M  V30 67033 H 4239.86 -0.289041 -8.15388 0
M  V30 67034 P 4235.89 -1.17771 -8.83182 0
M  V30 67035 O 4235.67 -2.07206 -9.98732 0
M  V30 67036 O 4235.1 0.0743816 -8.81969 0
M  V30 67037 O 4235.64 -1.97652 -7.47304 0
M  V30 67038 C 4236.58 -3.01133 -7.08783 0
M  V30 67039 C 4235.85 -4.12613 -6.37049 0
M  V30 67040 O 4235.64 -3.72827 -4.97879 0
M  V30 67041 C 4234.45 -4.45085 -6.88694 0
M  V30 67042 O 4234.06 -5.7877 -6.5624 0
M  V30 67043 C 4233.57 -3.47817 -6.12078 0
M  V30 67044 C 4234.28 -3.39414 -4.77697 0
M  V30 67045 N 4234.23 -2.04199 -4.15538 0
M  V30 67046 H 4237.07 -3.41248 -7.98759 0
M  V30 67047 H 4237.35 -2.57728 -6.42 0
M  V30 67048 H 4236.48 -5.02657 -6.42673 0
M  V30 67049 H 4233.82 -4.11708 -4.08956 0
M  V30 67050 H 4233.54 -2.49626 -6.61679 0
M  V30 67051 H 4232.55 -3.8662 -6.00862 0
M  V30 67052 H 4234.39 -4.29991 -7.97006 0
M  V30 67053 P 4232.51 -6.144 -6.45285 0
M  V30 67054 O 4232.29 -7.54673 -6.86199 0
M  V30 67055 O 4231.72 -5.12391 -7.179 0
M  V30 67056 O 4232.26 -5.99158 -4.88404 0
M  V30 67057 C 4233.2 -6.60234 -3.96415 0
M  V30 67058 C 4232.47 -7.08259 -2.72856 0
M  V30 67059 O 4232.26 -5.9427 -1.83651 0
M  V30 67060 C 4231.07 -7.64886 -2.9555 0
M  V30 67061 O 4230.68 -8.53963 -1.90717 0
M  V30 67062 C 4230.19 -6.4116 -2.90739 0
M  V30 67063 C 4230.9 -5.55375 -1.86963 0
M  V30 67064 N 4230.85 -4.09664 -2.15742 0
M  V30 67065 H 4233.69 -7.45574 -4.45629 0
M  V30 67066 H 4233.97 -5.86232 -3.67314 0
M  V30 67067 H 4233.1 -7.84412 -2.24479 0
M  V30 67068 P 4229.14 -8.7635 -1.60911 0
M  V30 67069 O 4228.92 -10.1388 -1.11561 0
M  V30 67070 O 4228.35 -8.36503 -2.79617 0
M  V30 67071 O 4228.89 -7.71806 -0.42951 0
M  V30 67072 C 4229.83 -7.67148 0.673689 0
M  V30 67073 C 4229.1 -7.33374 1.95559 0
M  V30 67074 O 4228.89 -5.88721 2.00726 0
M  V30 67075 C 4227.7 -7.92526 2.10483 0
M  V30 67076 O 4227.31 -8.02971 3.47653 0
M  V30 67077 C 4226.82 -6.89602 1.41652 0
M  V30 67078 C 4227.53 -5.59201 1.75185 0
M  V30 67079 N 4227.48 -4.58235 0.662552 0
M  V30 67080 H 4230.31 -8.65116 0.777161 0
M  V30 67081 H 4230.59 -6.90173 0.474152 0
M  V30 67082 H 4229.72 -7.66548 2.79458 0
M  V30 67083 P 4225.76 -8.03563 3.84925 0
M  V30 67084 O 4225.54 -8.85821 5.0569 0
M  V30 67085 O 4224.97 -8.41101 2.65469 0
M  V30 67086 O 4225.51 -6.4965 4.18908 0
M  V30 67087 C 4226.45 -5.81037 5.05421 0
M  V30 67088 C 4225.72 -4.78366 5.89277 0
M  V30 67089 O 4225.51 -3.58302 5.08433 0
M  V30 67090 C 4224.32 -5.17448 6.36119 0
M  V30 67091 O 4223.93 -4.45271 7.53232 0
M  V30 67092 C 4223.44 -4.74639 5.19936 0
M  V30 67093 C 4224.15 -3.49432 4.70418 0
M  V30 67094 N 4224.1 -3.31776 3.22945 0
M  V30 67095 H 4226.93 -6.54213 5.71376 0
M  V30 67096 H 4227.21 -5.30492 4.44033 0
M  V30 67097 H 4226.34 -4.55889 6.76652 0
M  V30 67098 P 4222.38 -4.23843 7.83734 0
M  V30 67099 O 4222.16 -4.19407 9.29784 0
M  V30 67100 O 4221.59 -5.24426 7.09156 0
M  V30 67101 O 4222.13 -2.7935 7.20758 0
M  V30 67102 C 4223.07 -1.7299 7.50419 0
M  V30 67103 C 4222.34 -0.406376 7.57911 0
M  V30 67104 O 4222.13 0.0897726 6.21935 0
M  V30 67105 C 4220.94 -0.447224 8.1878 0
M  V30 67106 O 4220.55 0.825065 8.71101 0
M  V30 67107 C 4220.06 -0.783801 6.99623 0
M  V30 67108 C 4220.77 -0.0619192 5.85967 0
M  V30 67109 N 4220.72 -0.7859 4.56281 0
M  V30 67110 H 4223.55 -1.93423 8.4679 0
M  V30 67111 H 4223.83 -1.68181 6.71046 0
M  V30 67112 H 4222.96 0.289041 8.15388 0
M  V30 67113 P 4219 1.17771 8.83182 0
M  V30 67114 O 4218.78 2.07206 9.98732 0
M  V30 67115 O 4218.21 -0.0743816 8.81969 0
M  V30 67116 O 4218.75 1.97678 7.474 0
M  V30 67117 C 4219.69 3.01133 7.08783 0
M  V30 67118 C 4218.96 4.1203 6.37546 0
M  V30 67119 O 4218.75 3.72887 4.9796 0
M  V30 67120 C 4217.56 4.45085 6.88694 0
M  V30 67121 O 4217.17 5.78836 6.56315 0
M  V30 67122 C 4216.68 3.47817 6.12078 0
M  V30 67123 C 4217.39 3.39414 4.77697 0
M  V30 67124 N 4217.34 2.04615 4.15333 0
M  V30 67125 C 4217.19 1.96929 2.77162 0
M  V30 67126 O 4217.1 3.02017 2.12006 0
M  V30 67127 N 4217.14 0.55485 2.24237 0
M  V30 67128 C 4217.24 -0.367808 2.9169 0
M  V30 67129 N 4217.19 -1.53426 2.29427 0
M  V30 67130 C 4217.39 -0.319148 4.33828 0
M  V30 67131 C 4217.44 0.920672 4.90433 0
M  V30 67132 H 4220.18 3.41209 7.98667 0
M  V30 67133 H 4220.45 2.5837 6.41742 0
M  V30 67134 H 4219.58 5.02718 6.42752 0
M  V30 67135 H 4216.92 4.11779 4.09026 0
M  V30 67136 H 4216.64 2.49661 6.61772 0
M  V30 67137 H 4215.65 3.86674 6.00946 0
M  V30 67138 H 4217.49 4.29991 7.97006 0
M  V30 67139 H 4217.56 1.00589 5.98303 0
M  V30 67140 H 4217.46 -1.22639 4.93799 0
M  V30 67141 H 4217.07 -1.56819 1.27167 0
M  V30 67142 H 4217.26 -2.41062 2.83063 0
M  V30 67143 P 4215.62 6.144 6.45285 0
M  V30 67144 O 4215.4 7.54673 6.86199 0
M  V30 67145 O 4214.83 5.12391 7.179 0
M  V30 67146 O 4215.37 5.99158 4.88404 0
M  V30 67147 C 4216.31 6.60234 3.96415 0
M  V30 67148 C 4215.58 7.08259 2.72856 0
M  V30 67149 O 4215.37 5.9427 1.83651 0
M  V30 67150 C 4214.18 7.64886 2.9555 0
M  V30 67151 O 4213.79 8.53963 1.90717 0
M  V30 67152 C 4213.3 6.4116 2.90739 0
M  V30 67153 C 4214.01 5.55375 1.86963 0
M  V30 67154 N 4213.96 4.09664 2.15742 0
M  V30 67155 H 4216.79 7.45574 4.45629 0
M  V30 67156 H 4217.07 5.86232 3.67314 0
M  V30 67157 H 4216.2 7.84412 2.24479 0
M  V30 67158 P 4212.24 8.7635 1.60911 0
M  V30 67159 O 4212.02 10.1388 1.11561 0
M  V30 67160 O 4211.45 8.36503 2.79617 0
M  V30 67161 O 4211.99 7.71806 0.42951 0
M  V30 67162 C 4212.93 7.67148 -0.673689 0
M  V30 67163 C 4212.2 7.33374 -1.95559 0
M  V30 67164 O 4211.99 5.88721 -2.00726 0
M  V30 67165 C 4210.8 7.92526 -2.10483 0
M  V30 67166 O 4210.41 8.02971 -3.47653 0
M  V30 67167 C 4209.92 6.89602 -1.41652 0
M  V30 67168 C 4210.63 5.59201 -1.75185 0
M  V30 67169 N 4210.58 4.58235 -0.662552 0
M  V30 67170 H 4213.41 8.65116 -0.777161 0
M  V30 67171 H 4213.69 6.90173 -0.474152 0
M  V30 67172 H 4212.82 7.66548 -2.79458 0
M  V30 67173 P 4208.86 8.03563 -3.84925 0
M  V30 67174 O 4208.64 8.85821 -5.0569 0
M  V30 67175 O 4208.07 8.41101 -2.65469 0
M  V30 67176 O 4208.61 6.4965 -4.18908 0
M  V30 67177 C 4209.55 5.81037 -5.05421 0
M  V30 67178 C 4208.82 4.78366 -5.89277 0
M  V30 67179 O 4208.61 3.58302 -5.08433 0
M  V30 67180 C 4207.42 5.17448 -6.36119 0
M  V30 67181 O 4207.03 4.45271 -7.53232 0
M  V30 67182 C 4206.54 4.74639 -5.19936 0
M  V30 67183 C 4207.25 3.49432 -4.70418 0
M  V30 67184 N 4207.2 3.32099 -3.22613 0
M  V30 67185 H 4210.03 6.54213 -5.71376 0
M  V30 67186 H 4210.31 5.30936 -4.43503 0
M  V30 67187 H 4209.44 4.55889 -6.76652 0
M  V30 67188 H 4206.78 2.61715 -5.17932 0
M  V30 67189 H 4206.5 5.52155 -4.41878 0
M  V30 67190 H 4205.51 4.51981 -5.53374 0
M  V30 67191 H 4207.35 6.25124 -6.55234 0
M  V30 67192 P 4205.48 4.23843 -7.83734 0
M  V30 67193 O 4205.26 4.19407 -9.29784 0
M  V30 67194 O 4204.69 5.24426 -7.09156 0
M  V30 67195 O 4205.23 2.7935 -7.20758 0
M  V30 67196 C 4206.17 1.7299 -7.50419 0
M  V30 67197 C 4205.44 0.406376 -7.57911 0
M  V30 67198 O 4205.23 -0.0897726 -6.21935 0
M  V30 67199 C 4204.04 0.447224 -8.1878 0
M  V30 67200 O 4203.65 -0.825065 -8.71101 0
M  V30 67201 C 4203.16 0.783801 -6.99623 0
M  V30 67202 C 4203.87 0.0619192 -5.85967 0
M  V30 67203 N 4203.82 0.7859 -4.56281 0
M  V30 67204 H 4206.65 1.93423 -8.4679 0
M  V30 67205 H 4206.93 1.68181 -6.71046 0
M  V30 67206 H 4206.06 -0.289041 -8.15388 0
M  V30 67207 P 4202.1 -1.17771 -8.83182 0
M  V30 67208 O 4201.88 -2.07206 -9.98732 0
M  V30 67209 O 4201.31 0.0743816 -8.81969 0
M  V30 67210 O 4201.85 -1.97652 -7.47304 0
M  V30 67211 C 4202.79 -3.01133 -7.08783 0
M  V30 67212 C 4202.06 -4.12613 -6.37049 0
M  V30 67213 O 4201.85 -3.72827 -4.97879 0
M  V30 67214 C 4200.66 -4.45085 -6.88694 0
M  V30 67215 O 4200.27 -5.7877 -6.5624 0
M  V30 67216 C 4199.78 -3.47817 -6.12078 0
M  V30 67217 C 4200.49 -3.39414 -4.77697 0
M  V30 67218 N 4200.44 -2.04199 -4.15538 0
M  V30 67219 H 4203.27 -3.41248 -7.98759 0
M  V30 67220 H 4203.55 -2.57728 -6.42 0
M  V30 67221 H 4202.68 -5.02657 -6.42673 0
M  V30 67222 H 4200.02 -4.11708 -4.08956 0
M  V30 67223 H 4199.74 -2.49626 -6.61679 0
M  V30 67224 H 4198.75 -3.8662 -6.00862 0
M  V30 67225 H 4200.59 -4.29991 -7.97006 0
M  V30 67226 P 4198.72 -6.144 -6.45285 0
M  V30 67227 O 4198.5 -7.54673 -6.86199 0
M  V30 67228 O 4197.93 -5.12391 -7.179 0
M  V30 67229 O 4198.47 -5.99158 -4.88404 0
M  V30 67230 C 4199.41 -6.60234 -3.96415 0
M  V30 67231 C 4198.68 -7.08259 -2.72856 0
M  V30 67232 O 4198.47 -5.9427 -1.83651 0
M  V30 67233 C 4197.28 -7.64886 -2.9555 0
M  V30 67234 O 4196.89 -8.53963 -1.90717 0
M  V30 67235 C 4196.4 -6.4116 -2.90739 0
M  V30 67236 C 4197.11 -5.55375 -1.86963 0
M  V30 67237 N 4197.06 -4.09664 -2.15742 0
M  V30 67238 H 4199.89 -7.45574 -4.45629 0
M  V30 67239 H 4200.17 -5.86232 -3.67314 0
M  V30 67240 H 4199.3 -7.84412 -2.24479 0
M  V30 67241 P 4195.34 -8.7635 -1.60911 0
M  V30 67242 O 4195.12 -10.1388 -1.11561 0
M  V30 67243 O 4194.55 -8.36503 -2.79617 0
M  V30 67244 O 4195.09 -7.71806 -0.42951 0
M  V30 67245 C 4196.03 -7.66948 0.673514 0
M  V30 67246 C 4195.3 -7.33374 1.95559 0
M  V30 67247 O 4195.09 -5.88721 2.00726 0
M  V30 67248 C 4193.9 -7.92218 2.1125 0
M  V30 67249 O 4193.51 -8.02971 3.47653 0
M  V30 67250 C 4193.02 -6.89504 1.41631 0
M  V30 67251 C 4193.73 -5.59106 1.75155 0
M  V30 67252 N 4193.68 -4.58136 0.662409 0
M  V30 67253 C 4193.53 -3.26059 1.02863 0
M  V30 67254 O 4193.44 -2.90743 2.19009 0
M  V30 67255 N 4193.49 -2.35995 -0.0155585 0
M  V30 67256 C 4193.58 -2.65248 -1.35603 0
M  V30 67257 O 4193.53 -1.75605 -2.20651 0
M  V30 67258 C 4193.73 -4.05747 -1.64698 0
M  V30 67259 C 4193.84 -4.42345 -3.09553 0
M  V30 67260 C 4193.78 -4.96734 -0.652411 0
M  V30 67261 H 4196.52 -8.64917 0.776982 0
M  V30 67262 H 4196.79 -6.89974 0.474015 0
M  V30 67263 H 4195.92 -7.66548 2.79458 0
M  V30 67264 H 4193.26 -5.16076 2.65138 0
M  V30 67265 H 4192.98 -7.06433 0.329384 0
M  V30 67266 H 4191.99 -6.90829 1.81996 0
M  V30 67267 H 4193.83 -8.90774 1.62639 0
M  V30 67268 H 4193.9 -6.02181 -0.895285 0
M  V30 67269 H 4192.87 -4.80252 -3.45468 0
M  V30 67270 H 4194.6 -5.20015 -3.22119 0
M  V30 67271 H 4194.12 -3.53269 -3.67833 0
M  V30 67272 H 4193.38 -1.39558 0.227499 0
M  V30 67273 P 4191.96 -8.03563 3.84925 0
M  V30 67274 O 4191.74 -8.85821 5.0569 0
M  V30 67275 O 4191.17 -8.41101 2.65469 0
M  V30 67276 O 4191.71 -6.4965 4.18908 0
M  V30 67277 C 4192.65 -5.81037 5.05421 0
M  V30 67278 C 4191.92 -4.78366 5.89277 0
M  V30 67279 O 4191.71 -3.58302 5.08433 0
M  V30 67280 C 4190.52 -5.17448 6.36119 0
M  V30 67281 O 4190.13 -4.45271 7.53232 0
M  V30 67282 C 4189.64 -4.74639 5.19936 0
M  V30 67283 C 4190.35 -3.49432 4.70418 0
M  V30 67284 N 4190.3 -3.31776 3.22945 0
M  V30 67285 H 4193.13 -6.54213 5.71376 0
M  V30 67286 H 4193.41 -5.30492 4.44033 0
M  V30 67287 H 4192.54 -4.55889 6.76652 0
M  V30 67288 P 4188.58 -4.23843 7.83734 0
M  V30 67289 O 4188.36 -4.19407 9.29784 0
M  V30 67290 O 4187.79 -5.24426 7.09156 0
M  V30 67291 O 4188.33 -2.7935 7.20758 0
M  V30 67292 C 4189.27 -1.7299 7.50419 0
M  V30 67293 C 4188.54 -0.406376 7.57911 0
M  V30 67294 O 4188.33 0.0897726 6.21935 0
M  V30 67295 C 4187.14 -0.447224 8.1878 0
M  V30 67296 O 4186.75 0.825065 8.71101 0
M  V30 67297 C 4186.26 -0.783801 6.99623 0
M  V30 67298 C 4186.97 -0.0619192 5.85967 0
M  V30 67299 N 4186.92 -0.7859 4.56281 0
M  V30 67300 C 4187 -2.14308 4.31736 0
M  V30 67301 N 4186.92 -2.46106 3.05116 0
M  V30 67302 C 4186.78 -1.23422 2.4014 0
M  V30 67303 C 4186.65 -0.938381 1.02409 0
M  V30 67304 N 4186.53 0.444647 0.805413 0
M  V30 67305 C 4186.53 1.40829 1.79435 0
M  V30 67306 N 4186.4 2.67213 1.38558 0
M  V30 67307 N 4186.66 1.12947 3.09005 0
M  V30 67308 C 4186.78 -0.204887 3.32369 0
M  V30 67309 H 4189.75 -1.93423 8.4679 0
M  V30 67310 H 4190.03 -1.68181 6.71046 0
M  V30 67311 H 4189.16 0.289041 8.15388 0
M  V30 67312 P 4185.2 1.17771 8.83182 0
M  V30 67313 O 4184.98 2.07206 9.98732 0
M  V30 67314 O 4184.41 -0.0743816 8.81969 0
M  V30 67315 O 4184.95 1.97652 7.47304 0
M  V30 67316 C 4185.89 3.01133 7.08783 0
M  V30 67317 C 4185.16 4.12613 6.37049 0
M  V30 67318 O 4184.95 3.72827 4.97879 0
M  V30 67319 C 4183.76 4.45085 6.88694 0
M  V30 67320 O 4183.37 5.7877 6.5624 0
M  V30 67321 C 4182.88 3.47817 6.12078 0
M  V30 67322 C 4183.59 3.39414 4.77697 0
M  V30 67323 N 4183.54 2.04615 4.15333 0
M  V30 67324 H 4186.37 3.41248 7.98759 0
M  V30 67325 H 4186.65 2.5837 6.41742 0
M  V30 67326 H 4185.78 5.02657 6.42673 0
M  V30 67327 P 4181.82 6.144 6.45285 0
M  V30 67328 O 4181.6 7.54673 6.86199 0
M  V30 67329 O 4181.03 5.12391 7.179 0
M  V30 67330 O 4181.57 5.99158 4.88404 0
M  V30 67331 C 4182.51 6.60234 3.96415 0
M  V30 67332 C 4181.78 7.08259 2.72856 0
M  V30 67333 O 4181.57 5.9427 1.83651 0
M  V30 67334 C 4180.38 7.64886 2.9555 0
M  V30 67335 O 4179.99 8.53963 1.90717 0
M  V30 67336 C 4179.5 6.4116 2.90739 0
M  V30 67337 C 4180.21 5.55375 1.86963 0
M  V30 67338 N 4180.16 4.09664 2.15742 0
M  V30 67339 H 4182.99 7.45574 4.45629 0
M  V30 67340 H 4183.27 5.86232 3.67314 0
M  V30 67341 H 4182.4 7.84412 2.24479 0
M  V30 67342 P 4178.44 8.7635 1.60911 0
M  V30 67343 O 4178.22 10.1388 1.11561 0
M  V30 67344 O 4177.65 8.36503 2.79617 0
M  V30 67345 O 4178.19 7.71806 0.42951 0
M  V30 67346 C 4179.13 7.66948 -0.673514 0
M  V30 67347 C 4178.4 7.33374 -1.95559 0
M  V30 67348 O 4178.19 5.88721 -2.00726 0
M  V30 67349 C 4177 7.92218 -2.1125 0
M  V30 67350 O 4176.61 8.02971 -3.47653 0
M  V30 67351 C 4176.12 6.89504 -1.41631 0
M  V30 67352 C 4176.83 5.59106 -1.75155 0
M  V30 67353 N 4176.78 4.58136 -0.662409 0
M  V30 67354 C 4176.63 3.26059 -1.02863 0
M  V30 67355 O 4176.54 2.90743 -2.19009 0
M  V30 67356 N 4176.59 2.35995 0.0155585 0
M  V30 67357 C 4176.68 2.65248 1.35603 0
M  V30 67358 C 4176.83 4.05747 1.64698 0
M  V30 67359 C 4176.88 4.96734 0.652411 0
M  V30 67360 H 4179.62 8.64917 -0.776982 0
M  V30 67361 H 4179.89 6.89974 -0.474015 0
M  V30 67362 H 4179.02 7.66548 -2.79458 0
M  V30 67363 H 4176.36 5.16076 -2.65138 0
M  V30 67364 H 4176.08 7.06433 -0.329384 0
M  V30 67365 H 4175.09 6.90829 -1.81996 0
M  V30 67366 H 4176.93 8.90774 -1.62639 0
M  V30 67367 H 4177 6.02181 0.895285 0
M  V30 67368 P 4175.06 8.03563 -3.84925 0
M  V30 67369 O 4174.84 8.85821 -5.0569 0
M  V30 67370 O 4174.27 8.41101 -2.65469 0
M  V30 67371 O 4174.81 6.4965 -4.18908 0
M  V30 67372 C 4175.75 5.81037 -5.05421 0
M  V30 67373 C 4175.02 4.78366 -5.89277 0
M  V30 67374 O 4174.81 3.58302 -5.08433 0
M  V30 67375 C 4173.62 5.17448 -6.36119 0
M  V30 67376 O 4173.23 4.45271 -7.53232 0
M  V30 67377 C 4172.74 4.74639 -5.19936 0
M  V30 67378 C 4173.45 3.49432 -4.70418 0
M  V30 67379 N 4173.4 3.32099 -3.22613 0
M  V30 67380 H 4176.23 6.54213 -5.71376 0
M  V30 67381 H 4176.51 5.30936 -4.43503 0
M  V30 67382 H 4175.64 4.55889 -6.76652 0
M  V30 67383 H 4172.98 2.61715 -5.17932 0
M  V30 67384 H 4172.7 5.52155 -4.41878 0
M  V30 67385 H 4171.71 4.51981 -5.53374 0
M  V30 67386 H 4173.55 6.25124 -6.55234 0
M  V30 67387 P 4171.68 4.23843 -7.83734 0
M  V30 67388 O 4171.46 4.19407 -9.29784 0
M  V30 67389 O 4170.89 5.24426 -7.09156 0
M  V30 67390 O 4171.43 2.7935 -7.20758 0
M  V30 67391 C 4172.37 1.7299 -7.50419 0
M  V30 67392 C 4171.64 0.406376 -7.57911 0
M  V30 67393 O 4171.43 -0.0897726 -6.21935 0
M  V30 67394 C 4170.24 0.447224 -8.1878 0
M  V30 67395 O 4169.85 -0.825065 -8.71101 0
M  V30 67396 C 4169.36 0.783801 -6.99623 0
M  V30 67397 C 4170.07 0.0619192 -5.85967 0
M  V30 67398 N 4170.02 0.7859 -4.56281 0
M  V30 67399 H 4172.85 1.93423 -8.4679 0
M  V30 67400 H 4173.13 1.68181 -6.71046 0
M  V30 67401 H 4172.26 -0.289041 -8.15388 0
M  V30 67402 P 4168.3 -1.17771 -8.83182 0
M  V30 67403 O 4168.08 -2.07206 -9.98732 0
M  V30 67404 O 4167.51 0.0743816 -8.81969 0
M  V30 67405 O 4168.05 -1.97652 -7.47304 0
M  V30 67406 C 4168.99 -3.01133 -7.08783 0
M  V30 67407 C 4168.26 -4.12613 -6.37049 0
M  V30 67408 O 4168.05 -3.72827 -4.97879 0
M  V30 67409 C 4166.86 -4.45085 -6.88694 0
M  V30 67410 O 4166.47 -5.7877 -6.5624 0
M  V30 67411 C 4165.98 -3.47817 -6.12078 0
M  V30 67412 C 4166.69 -3.39414 -4.77697 0
M  V30 67413 N 4166.64 -2.04615 -4.15333 0
M  V30 67414 H 4169.47 -3.41248 -7.98759 0
M  V30 67415 H 4169.75 -2.5837 -6.41742 0
M  V30 67416 H 4168.88 -5.02657 -6.42673 0
M  V30 67417 P 4164.92 -6.144 -6.45285 0
M  V30 67418 O 4164.7 -7.54673 -6.86199 0
M  V30 67419 O 4164.13 -5.12391 -7.179 0
M  V30 67420 O 4164.67 -5.99158 -4.88404 0
M  V30 67421 C 4165.61 -6.60234 -3.96415 0
M  V30 67422 C 4164.88 -7.08259 -2.72856 0
M  V30 67423 O 4164.67 -5.9427 -1.83651 0
M  V30 67424 C 4163.48 -7.64886 -2.9555 0
M  V30 67425 O 4163.09 -8.53963 -1.90717 0
M  V30 67426 C 4162.6 -6.4116 -2.90739 0
M  V30 67427 C 4163.31 -5.55375 -1.86963 0
M  V30 67428 N 4163.26 -4.09448 -2.16152 0
M  V30 67429 H 4166.09 -7.45574 -4.45629 0
M  V30 67430 H 4166.37 -5.85864 -3.679 0
M  V30 67431 H 4165.5 -7.84412 -2.24479 0
M  V30 67432 H 4162.84 -5.73457 -0.888562 0
M  V30 67433 H 4162.56 -5.90877 -3.88583 0
M  V30 67434 H 4161.57 -6.6596 -2.58858 0
M  V30 67435 H 4163.41 -8.16339 -3.92049 0
M  V30 67436 P 4161.54 -8.7635 -1.60911 0
M  V30 67437 O 4161.32 -10.1388 -1.11561 0
M  V30 67438 O 4160.75 -8.36503 -2.79617 0
M  V30 67439 O 4161.29 -7.71806 -0.42951 0
M  V30 67440 C 4162.23 -7.67148 0.673689 0
M  V30 67441 C 4161.5 -7.33374 1.95559 0
M  V30 67442 O 4161.29 -5.88721 2.00726 0
M  V30 67443 C 4160.1 -7.92526 2.10483 0
M  V30 67444 O 4159.71 -8.02971 3.47653 0
M  V30 67445 C 4159.22 -6.89602 1.41652 0
M  V30 67446 C 4159.93 -5.59201 1.75185 0
M  V30 67447 N 4159.88 -4.58235 0.662552 0
M  V30 67448 H 4162.71 -8.65116 0.777161 0
M  V30 67449 H 4162.99 -6.90173 0.474152 0
M  V30 67450 H 4162.12 -7.66548 2.79458 0
M  V30 67451 P 4158.16 -8.03563 3.84925 0
M  V30 67452 O 4157.94 -8.85821 5.0569 0
M  V30 67453 O 4157.37 -8.41101 2.65469 0
M  V30 67454 O 4157.91 -6.4965 4.18908 0
M  V30 67455 C 4158.85 -5.81037 5.05421 0
M  V30 67456 C 4158.12 -4.78366 5.89277 0
M  V30 67457 O 4157.91 -3.58302 5.08433 0
M  V30 67458 C 4156.72 -5.17448 6.36119 0
M  V30 67459 O 4156.33 -4.45271 7.53232 0
M  V30 67460 C 4155.84 -4.74639 5.19936 0
M  V30 67461 C 4156.55 -3.49432 4.70418 0
M  V30 67462 N 4156.5 -3.32099 3.22613 0
M  V30 67463 C 4156.58 -4.28245 2.25527 0
M  V30 67464 N 4156.51 -3.80823 1.04874 0
M  V30 67465 C 4156.36 -2.44571 1.23535 0
M  V30 67466 C 4156.23 -1.37068 0.330675 0
M  V30 67467 N 4156.22 -1.51472 -0.990824 0
M  V30 67468 N 4156.11 -0.138614 0.848756 0
M  V30 67469 C 4156.12 0.00675923 2.16999 0
M  V30 67470 N 4156.24 -0.904372 3.11122 0
M  V30 67471 C 4156.36 -2.12707 2.56212 0
M  V30 67472 H 4159.33 -6.54213 5.71376 0
M  V30 67473 H 4159.61 -5.30936 4.43503 0
M  V30 67474 H 4158.74 -4.55889 6.76652 0
M  V30 67475 H 4156.08 -2.61715 5.17932 0
M  V30 67476 H 4155.8 -5.52155 4.41878 0
M  V30 67477 H 4154.81 -4.51981 5.53374 0
M  V30 67478 H 4156.65 -6.25124 6.55234 0
M  V30 67479 H 4156.69 -5.34372 2.47488 0
M  V30 67480 H 4156.31 -2.45153 -1.4078 0
M  V30 67481 H 4156.12 -0.688422 -1.59911 0
M  V30 67482 H 4156.01 1.02584 2.52346 0
M  V30 67483 P 4154.78 -4.23843 7.83734 0
M  V30 67484 O 4154.56 -4.19407 9.29784 0
M  V30 67485 O 4153.99 -5.24426 7.09156 0
M  V30 67486 O 4154.53 -2.7935 7.20758 0
M  V30 67487 C 4155.47 -1.7299 7.50419 0
M  V30 67488 C 4154.74 -0.406376 7.57911 0
M  V30 67489 O 4154.53 0.0897726 6.21935 0
M  V30 67490 C 4153.34 -0.447224 8.1878 0
M  V30 67491 O 4152.95 0.825065 8.71101 0
M  V30 67492 C 4152.46 -0.783801 6.99623 0
M  V30 67493 C 4153.17 -0.0619192 5.85967 0
M  V30 67494 N 4153.12 -0.7859 4.56281 0
M  V30 67495 H 4155.95 -1.93423 8.4679 0
M  V30 67496 H 4156.23 -1.68181 6.71046 0
M  V30 67497 H 4155.36 0.289041 8.15388 0
M  V30 67498 P 4151.4 1.17771 8.83182 0
M  V30 67499 O 4151.18 2.07206 9.98732 0
M  V30 67500 O 4150.61 -0.0743816 8.81969 0
M  V30 67501 O 4151.15 1.97652 7.47304 0
M  V30 67502 C 4152.09 3.01133 7.08783 0
M  V30 67503 C 4151.36 4.12613 6.37049 0
M  V30 67504 O 4151.15 3.72827 4.97879 0
M  V30 67505 C 4149.96 4.45085 6.88694 0
M  V30 67506 O 4149.57 5.7877 6.5624 0
M  V30 67507 C 4149.08 3.47817 6.12078 0
M  V30 67508 C 4149.79 3.39414 4.77697 0
M  V30 67509 N 4149.74 2.04615 4.15333 0
M  V30 67510 H 4152.57 3.41248 7.98759 0
M  V30 67511 H 4152.85 2.5837 6.41742 0
M  V30 67512 H 4151.98 5.02657 6.42673 0
M  V30 67513 P 4148.02 6.144 6.45285 0
M  V30 67514 O 4147.8 7.54673 6.86199 0
M  V30 67515 O 4147.23 5.12391 7.179 0
M  V30 67516 O 4147.77 5.99158 4.88404 0
M  V30 67517 C 4148.71 6.60234 3.96415 0
M  V30 67518 C 4147.98 7.08259 2.72856 0
M  V30 67519 O 4147.77 5.9427 1.83651 0
M  V30 67520 C 4146.58 7.64886 2.9555 0
M  V30 67521 O 4146.19 8.53963 1.90717 0
M  V30 67522 C 4145.7 6.4116 2.90739 0
M  V30 67523 C 4146.41 5.55375 1.86963 0
M  V30 67524 N 4146.36 4.09448 2.16152 0
M  V30 67525 C 4146.44 3.46824 3.37593 0
M  V30 67526 N 4146.37 2.17422 3.29777 0
M  V30 67527 C 4146.22 1.93065 1.94427 0
M  V30 67528 C 4146.09 0.738053 1.20141 0
M  V30 67529 N 4146.08 -0.474256 1.74676 0
M  V30 67530 N 4145.97 0.850049 -0.13045 0
M  V30 67531 C 4145.98 2.06169 -0.676992 0
M  V30 67532 N 4146.1 3.23842 -0.101312 0
M  V30 67533 C 4146.22 3.09402 1.23122 0
M  V30 67534 H 4149.19 7.45574 4.45629 0
M  V30 67535 H 4149.47 5.85864 3.679 0
M  V30 67536 H 4148.6 7.84412 2.24479 0
M  V30 67537 H 4145.94 5.73457 0.888562 0
M  V30 67538 H 4145.66 5.90877 3.88583 0
M  V30 67539 H 4144.67 6.6596 2.58858 0
M  V30 67540 H 4146.51 8.16339 3.92049 0
M  V30 67541 H 4146.55 4.00505 4.3174 0
M  V30 67542 H 4146.17 -0.581337 2.76658 0
M  V30 67543 H 4145.98 -1.30811 1.14888 0
M  V30 67544 H 4145.87 2.08295 -1.75542 0
M  V30 67545 P 4144.64 8.7635 1.60911 0
M  V30 67546 O 4144.42 10.1388 1.11561 0
M  V30 67547 O 4143.85 8.36503 2.79617 0
M  V30 67548 O 4144.39 7.71806 0.42951 0
M  V30 67549 C 4145.33 7.67148 -0.673689 0
M  V30 67550 C 4144.6 7.33374 -1.95559 0
M  V30 67551 O 4144.39 5.88721 -2.00726 0
M  V30 67552 C 4143.2 7.92526 -2.10483 0
M  V30 67553 O 4142.81 8.02971 -3.47653 0
M  V30 67554 C 4142.32 6.89602 -1.41652 0
M  V30 67555 C 4143.03 5.59201 -1.75185 0
M  V30 67556 N 4142.98 4.58235 -0.662552 0
M  V30 67557 H 4145.81 8.65116 -0.777161 0
M  V30 67558 H 4146.09 6.90173 -0.474152 0
M  V30 67559 H 4145.22 7.66548 -2.79458 0
M  V30 67560 P 4141.26 8.03563 -3.84925 0
M  V30 67561 O 4141.04 8.85821 -5.0569 0
M  V30 67562 O 4140.47 8.41101 -2.65469 0
M  V30 67563 O 4141.01 6.4965 -4.18908 0
M  V30 67564 C 4141.95 5.81037 -5.05421 0
M  V30 67565 C 4141.22 4.78366 -5.89277 0
M  V30 67566 O 4141.01 3.58302 -5.08433 0
M  V30 67567 C 4139.82 5.17448 -6.36119 0
M  V30 67568 O 4139.43 4.45271 -7.53232 0
M  V30 67569 C 4138.94 4.74639 -5.19936 0
M  V30 67570 C 4139.65 3.49432 -4.70418 0
M  V30 67571 N 4139.6 3.32099 -3.22613 0
M  V30 67572 H 4142.43 6.54213 -5.71376 0
M  V30 67573 H 4142.71 5.30936 -4.43503 0
M  V30 67574 H 4141.84 4.55889 -6.76652 0
M  V30 67575 H 4139.18 2.61715 -5.17932 0
M  V30 67576 H 4138.9 5.52155 -4.41878 0
M  V30 67577 H 4137.91 4.51981 -5.53374 0
M  V30 67578 H 4139.75 6.25124 -6.55234 0
M  V30 67579 P 4137.88 4.23843 -7.83734 0
M  V30 67580 O 4137.66 4.19407 -9.29784 0
M  V30 67581 O 4137.09 5.24426 -7.09156 0
M  V30 67582 O 4137.63 2.7935 -7.20758 0
M  V30 67583 C 4138.57 1.7299 -7.50419 0
M  V30 67584 C 4137.84 0.406376 -7.57911 0
M  V30 67585 O 4137.63 -0.0897726 -6.21935 0
M  V30 67586 C 4136.44 0.447224 -8.1878 0
M  V30 67587 O 4136.05 -0.825065 -8.71101 0
M  V30 67588 C 4135.56 0.783801 -6.99623 0
M  V30 67589 C 4136.27 0.0619192 -5.85967 0
M  V30 67590 N 4136.22 0.7859 -4.56281 0
M  V30 67591 H 4139.05 1.93423 -8.4679 0
M  V30 67592 H 4139.33 1.68181 -6.71046 0
M  V30 67593 H 4138.46 -0.289041 -8.15388 0
M  V30 67594 P 4134.5 -1.17771 -8.83182 0
M  V30 67595 O 4134.28 -2.07206 -9.98732 0
M  V30 67596 O 4133.71 0.0743816 -8.81969 0
M  V30 67597 O 4134.25 -1.97652 -7.47304 0
M  V30 67598 C 4135.19 -3.01133 -7.08783 0
M  V30 67599 C 4134.46 -4.12613 -6.37049 0
M  V30 67600 O 4134.25 -3.72827 -4.97879 0
M  V30 67601 C 4133.06 -4.45085 -6.88694 0
M  V30 67602 O 4132.67 -5.7877 -6.5624 0
M  V30 67603 C 4132.18 -3.47817 -6.12078 0
M  V30 67604 C 4132.89 -3.39414 -4.77697 0
M  V30 67605 N 4132.84 -2.04615 -4.15333 0
M  V30 67606 H 4135.67 -3.41248 -7.98759 0
M  V30 67607 H 4135.95 -2.5837 -6.41742 0
M  V30 67608 H 4135.08 -5.02657 -6.42673 0
M  V30 67609 P 4131.12 -6.144 -6.45285 0
M  V30 67610 O 4130.9 -7.54673 -6.86199 0
M  V30 67611 O 4130.33 -5.12391 -7.179 0
M  V30 67612 O 4130.87 -5.99158 -4.88404 0
M  V30 67613 C 4131.81 -6.60234 -3.96415 0
M  V30 67614 C 4131.08 -7.08259 -2.72856 0
M  V30 67615 O 4130.87 -5.9427 -1.83651 0
M  V30 67616 C 4129.68 -7.64886 -2.9555 0
M  V30 67617 O 4129.29 -8.53963 -1.90717 0
M  V30 67618 C 4128.8 -6.4116 -2.90739 0
M  V30 67619 C 4129.51 -5.55375 -1.86963 0
M  V30 67620 N 4129.46 -4.09664 -2.15742 0
M  V30 67621 H 4132.29 -7.45574 -4.45629 0
M  V30 67622 H 4132.57 -5.86232 -3.67314 0
M  V30 67623 H 4131.7 -7.84412 -2.24479 0
M  V30 67624 P 4127.74 -8.7635 -1.60911 0
M  V30 67625 O 4127.52 -10.1388 -1.11561 0
M  V30 67626 O 4126.95 -8.36503 -2.79617 0
M  V30 67627 O 4127.49 -7.71806 -0.42951 0
M  V30 67628 C 4128.43 -7.67148 0.673689 0
M  V30 67629 C 4127.7 -7.33374 1.95559 0
M  V30 67630 O 4127.49 -5.88721 2.00726 0
M  V30 67631 C 4126.3 -7.92526 2.10483 0
M  V30 67632 O 4125.91 -8.02971 3.47653 0
M  V30 67633 C 4125.42 -6.89602 1.41652 0
M  V30 67634 C 4126.13 -5.59201 1.75185 0
M  V30 67635 N 4126.08 -4.58301 0.657969 0
M  V30 67636 H 4128.91 -8.65116 0.777161 0
M  V30 67637 H 4129.19 -6.9022 0.46725 0
M  V30 67638 H 4128.32 -7.66548 2.79458 0
M  V30 67639 H 4125.66 -5.16165 2.65183 0
M  V30 67640 H 4125.38 -7.06433 0.329384 0
M  V30 67641 H 4124.39 -6.90926 1.82021 0
M  V30 67642 H 4126.23 -8.90873 1.62657 0
M  V30 67643 P 4124.36 -8.03563 3.84925 0
M  V30 67644 O 4124.14 -8.85821 5.0569 0
M  V30 67645 O 4123.57 -8.41101 2.65469 0
M  V30 67646 O 4124.11 -6.4965 4.18908 0
M  V30 67647 C 4125.05 -5.81037 5.05421 0
M  V30 67648 C 4124.32 -4.78366 5.89277 0
M  V30 67649 O 4124.11 -3.58302 5.08433 0
M  V30 67650 C 4122.92 -5.17448 6.36119 0
M  V30 67651 O 4122.53 -4.45271 7.53232 0
M  V30 67652 C 4122.04 -4.74639 5.19936 0
M  V30 67653 C 4122.75 -3.49432 4.70418 0
M  V30 67654 N 4122.7 -3.32099 3.22613 0
M  V30 67655 H 4125.53 -6.54213 5.71376 0
M  V30 67656 H 4125.81 -5.30936 4.43503 0
M  V30 67657 H 4124.94 -4.55889 6.76652 0
M  V30 67658 H 4122.28 -2.61715 5.17932 0
M  V30 67659 H 4122 -5.52155 4.41878 0
M  V30 67660 H 4121.01 -4.51981 5.53374 0
M  V30 67661 H 4122.85 -6.25124 6.55234 0
M  V30 67662 P 4120.98 -4.23843 7.83734 0
M  V30 67663 O 4120.76 -4.19407 9.29784 0
M  V30 67664 O 4120.19 -5.24426 7.09156 0
M  V30 67665 O 4120.73 -2.7935 7.20758 0
M  V30 67666 C 4121.67 -1.7299 7.50419 0
M  V30 67667 C 4120.94 -0.406376 7.57911 0
M  V30 67668 O 4120.73 0.0897726 6.21935 0
M  V30 67669 C 4119.54 -0.447224 8.1878 0
M  V30 67670 O 4119.15 0.825065 8.71101 0
M  V30 67671 C 4118.66 -0.783801 6.99623 0
M  V30 67672 C 4119.37 -0.0619192 5.85967 0
M  V30 67673 N 4119.32 -0.7859 4.56281 0
M  V30 67674 H 4122.15 -1.93423 8.4679 0
M  V30 67675 H 4122.43 -1.68181 6.71046 0
M  V30 67676 H 4121.56 0.289041 8.15388 0
M  V30 67677 P 4117.6 1.17771 8.83182 0
M  V30 67678 O 4117.38 2.07206 9.98732 0
M  V30 67679 O 4116.81 -0.0743816 8.81969 0
M  V30 67680 O 4117.35 1.97652 7.47304 0
M  V30 67681 C 4118.29 3.01133 7.08783 0
M  V30 67682 C 4117.56 4.12613 6.37049 0
M  V30 67683 O 4117.35 3.72827 4.97879 0
M  V30 67684 C 4116.16 4.45085 6.88694 0
M  V30 67685 O 4115.77 5.7877 6.5624 0
M  V30 67686 C 4115.28 3.47817 6.12078 0
M  V30 67687 C 4115.99 3.39414 4.77697 0
M  V30 67688 N 4115.94 2.04615 4.15333 0
M  V30 67689 H 4118.77 3.41248 7.98759 0
M  V30 67690 H 4119.05 2.5837 6.41742 0
M  V30 67691 H 4118.18 5.02657 6.42673 0
M  V30 67692 P 4114.22 6.144 6.45285 0
M  V30 67693 O 4114 7.54673 6.86199 0
M  V30 67694 O 4113.43 5.12391 7.179 0
M  V30 67695 O 4113.97 5.99158 4.88404 0
M  V30 67696 C 4114.91 6.60234 3.96415 0
M  V30 67697 C 4114.18 7.08259 2.72856 0
M  V30 67698 O 4113.97 5.9427 1.83651 0
M  V30 67699 C 4112.78 7.64886 2.9555 0
M  V30 67700 O 4112.39 8.53963 1.90717 0
M  V30 67701 C 4111.9 6.4116 2.90739 0
M  V30 67702 C 4112.61 5.55375 1.86963 0
M  V30 67703 N 4112.56 4.09664 2.15742 0
M  V30 67704 H 4115.39 7.45574 4.45629 0
M  V30 67705 H 4115.67 5.86232 3.67314 0
M  V30 67706 H 4114.8 7.84412 2.24479 0
M  V30 67707 P 4110.84 8.7635 1.60911 0
M  V30 67708 O 4110.62 10.1388 1.11561 0
M  V30 67709 O 4110.05 8.36503 2.79617 0
M  V30 67710 O 4110.59 7.71806 0.42951 0
M  V30 67711 C 4111.53 7.67148 -0.673689 0
M  V30 67712 C 4110.8 7.33374 -1.95559 0
M  V30 67713 O 4110.59 5.88721 -2.00726 0
M  V30 67714 C 4109.4 7.92526 -2.10483 0
M  V30 67715 O 4109.01 8.02971 -3.47653 0
M  V30 67716 C 4108.52 6.89602 -1.41652 0
M  V30 67717 C 4109.23 5.59201 -1.75185 0
M  V30 67718 N 4109.18 4.58235 -0.662552 0
M  V30 67719 H 4112.01 8.65116 -0.777161 0
M  V30 67720 H 4112.29 6.90173 -0.474152 0
M  V30 67721 H 4111.42 7.66548 -2.79458 0
M  V30 67722 P 4107.46 8.03563 -3.84925 0
M  V30 67723 O 4107.24 8.85821 -5.0569 0
M  V30 67724 O 4106.67 8.41101 -2.65469 0
M  V30 67725 O 4107.21 6.4965 -4.18908 0
M  V30 67726 C 4108.15 5.81037 -5.05421 0
M  V30 67727 C 4107.42 4.78366 -5.89277 0
M  V30 67728 O 4107.21 3.58302 -5.08433 0
M  V30 67729 C 4106.02 5.17448 -6.36119 0
M  V30 67730 O 4105.63 4.45271 -7.53232 0
M  V30 67731 C 4105.14 4.74639 -5.19936 0
M  V30 67732 C 4105.85 3.49432 -4.70418 0
M  V30 67733 N 4105.8 3.32099 -3.22613 0
M  V30 67734 H 4108.63 6.54213 -5.71376 0
M  V30 67735 H 4108.91 5.30936 -4.43503 0
M  V30 67736 H 4108.04 4.55889 -6.76652 0
M  V30 67737 H 4105.38 2.61715 -5.17932 0
M  V30 67738 H 4105.1 5.52155 -4.41878 0
M  V30 67739 H 4104.11 4.51981 -5.53374 0
M  V30 67740 H 4105.95 6.25124 -6.55234 0
M  V30 67741 P 4104.08 4.23843 -7.83734 0
M  V30 67742 O 4103.86 4.19407 -9.29784 0
M  V30 67743 O 4103.29 5.24426 -7.09156 0
M  V30 67744 O 4103.83 2.7935 -7.20758 0
M  V30 67745 C 4104.77 1.7299 -7.50419 0
M  V30 67746 C 4104.04 0.406376 -7.57911 0
M  V30 67747 O 4103.83 -0.0897726 -6.21935 0
M  V30 67748 C 4102.64 0.447224 -8.1878 0
M  V30 67749 O 4102.25 -0.825065 -8.71101 0
M  V30 67750 C 4101.76 0.783801 -6.99623 0
M  V30 67751 C 4102.47 0.0619192 -5.85967 0
M  V30 67752 N 4102.42 0.790462 -4.56202 0
M  V30 67753 H 4105.25 1.93423 -8.4679 0
M  V30 67754 H 4105.53 1.68852 -6.70877 0
M  V30 67755 H 4104.66 -0.289041 -8.15388 0
M  V30 67756 H 4102 -0.927006 -5.72848 0
M  V30 67757 H 4101.72 1.86973 -6.82036 0
M  V30 67758 H 4100.73 0.403953 -7.13357 0
M  V30 67759 H 4102.57 1.20599 -8.97534 0
M  V30 67760 P 4100.7 -1.17771 -8.83182 0
M  V30 67761 O 4100.48 -2.07206 -9.98732 0
M  V30 67762 O 4099.91 0.0743816 -8.81969 0
M  V30 67763 O 4100.45 -1.97652 -7.47304 0
M  V30 67764 C 4101.39 -3.01133 -7.08783 0
M  V30 67765 C 4100.66 -4.12613 -6.37049 0
M  V30 67766 O 4100.45 -3.72827 -4.97879 0
M  V30 67767 C 4099.26 -4.45085 -6.88694 0
M  V30 67768 O 4098.87 -5.7877 -6.5624 0
M  V30 67769 C 4098.38 -3.47817 -6.12078 0
M  V30 67770 C 4099.09 -3.39414 -4.77697 0
M  V30 67771 N 4099.04 -2.04199 -4.15538 0
M  V30 67772 H 4101.87 -3.41248 -7.98759 0
M  V30 67773 H 4102.15 -2.57728 -6.42 0
M  V30 67774 H 4101.28 -5.02657 -6.42673 0
M  V30 67775 H 4098.62 -4.11708 -4.08956 0
M  V30 67776 H 4098.34 -2.49626 -6.61679 0
M  V30 67777 H 4097.35 -3.8662 -6.00862 0
M  V30 67778 H 4099.19 -4.29991 -7.97006 0
M  V30 67779 P 4097.32 -6.144 -6.45285 0
M  V30 67780 O 4097.1 -7.54673 -6.86199 0
M  V30 67781 O 4096.53 -5.12391 -7.179 0
M  V30 67782 O 4097.07 -5.99158 -4.88404 0
M  V30 67783 C 4098.01 -6.60062 -3.96313 0
M  V30 67784 C 4097.28 -7.08259 -2.72856 0
M  V30 67785 O 4097.07 -5.9427 -1.83651 0
M  V30 67786 C 4095.88 -7.65087 -2.94749 0
M  V30 67787 O 4095.49 -8.53963 -1.90717 0
M  V30 67788 C 4095 -6.41069 -2.90698 0
M  V30 67789 C 4095.71 -5.5528 -1.86931 0
M  V30 67790 N 4095.66 -4.09575 -2.15696 0
M  V30 67791 C 4095.51 -3.24249 -1.08435 0
M  V30 67792 O 4095.42 -3.63946 0.0628747 0
M  V30 67793 N 4095.47 -1.90009 -1.39973 0
M  V30 67794 C 4095.56 -1.34884 -2.65614 0
M  V30 67795 C 4095.71 -2.3145 -3.71736 0
M  V30 67796 C 4095.76 -3.63518 -3.44754 0
M  V30 67797 H 4098.5 -7.45402 -4.45526 0
M  V30 67798 H 4098.77 -5.86062 -3.67208 0
M  V30 67799 H 4097.9 -7.84412 -2.24479 0
M  V30 67800 H 4095.24 -5.73358 -0.888409 0
M  V30 67801 H 4094.96 -5.90877 -3.88583 0
M  V30 67802 H 4093.97 -6.65867 -2.58821 0
M  V30 67803 H 4095.81 -8.16248 -3.92006 0
M  V30 67804 H 4095.88 -4.34551 -4.26383 0
M  V30 67805 P 4093.94 -8.7635 -1.60911 0
M  V30 67806 O 4093.72 -10.1388 -1.11561 0
M  V30 67807 O 4093.15 -8.36503 -2.79617 0
M  V30 67808 O 4093.69 -7.71806 -0.42951 0
M  V30 67809 C 4094.63 -7.67148 0.673689 0
M  V30 67810 C 4093.9 -7.33374 1.95559 0
M  V30 67811 O 4093.69 -5.88721 2.00726 0
M  V30 67812 C 4092.5 -7.92526 2.10483 0
M  V30 67813 O 4092.11 -8.02971 3.47653 0
M  V30 67814 C 4091.62 -6.89602 1.41652 0
M  V30 67815 C 4092.33 -5.59201 1.75185 0
M  V30 67816 N 4092.28 -4.58235 0.662552 0
M  V30 67817 H 4095.11 -8.65116 0.777161 0
M  V30 67818 H 4095.39 -6.90173 0.474152 0
M  V30 67819 H 4094.52 -7.66548 2.79458 0
M  V30 67820 P 4090.56 -8.03563 3.84925 0
M  V30 67821 O 4090.34 -8.85821 5.0569 0
M  V30 67822 O 4089.77 -8.41101 2.65469 0
M  V30 67823 O 4090.31 -6.4965 4.18908 0
M  V30 67824 C 4091.25 -5.81037 5.05421 0
M  V30 67825 C 4090.52 -4.78366 5.89277 0
M  V30 67826 O 4090.31 -3.58302 5.08433 0
M  V30 67827 C 4089.12 -5.17448 6.36119 0
M  V30 67828 O 4088.73 -4.45271 7.53232 0
M  V30 67829 C 4088.24 -4.74639 5.19936 0
M  V30 67830 C 4088.95 -3.49432 4.70418 0
M  V30 67831 N 4088.9 -3.31776 3.22945 0
M  V30 67832 H 4091.73 -6.54213 5.71376 0
M  V30 67833 H 4092.01 -5.30492 4.44033 0
M  V30 67834 H 4091.14 -4.55889 6.76652 0
M  V30 67835 P 4087.18 -4.23843 7.83734 0
M  V30 67836 O 4086.96 -4.19407 9.29784 0
M  V30 67837 O 4086.39 -5.24426 7.09156 0
M  V30 67838 O 4086.93 -2.7935 7.20758 0
M  V30 67839 C 4087.87 -1.7299 7.50419 0
M  V30 67840 C 4087.14 -0.406376 7.57911 0
M  V30 67841 O 4086.93 0.0897726 6.21935 0
M  V30 67842 C 4085.74 -0.447224 8.1878 0
M  V30 67843 O 4085.35 0.825065 8.71101 0
M  V30 67844 C 4084.86 -0.783801 6.99623 0
M  V30 67845 C 4085.57 -0.0619192 5.85967 0
M  V30 67846 N 4085.52 -0.7859 4.56281 0
M  V30 67847 H 4088.35 -1.93423 8.4679 0
M  V30 67848 H 4088.63 -1.68181 6.71046 0
M  V30 67849 H 4087.76 0.289041 8.15388 0
M  V30 67850 P 4083.8 1.17771 8.83182 0
M  V30 67851 O 4083.58 2.07206 9.98732 0
M  V30 67852 O 4083.01 -0.0743816 8.81969 0
M  V30 67853 O 4083.55 1.97652 7.47304 0
M  V30 67854 C 4084.49 3.01133 7.08783 0
M  V30 67855 C 4083.76 4.12613 6.37049 0
M  V30 67856 O 4083.55 3.72827 4.97879 0
M  V30 67857 C 4082.36 4.45085 6.88694 0
M  V30 67858 O 4081.97 5.7877 6.5624 0
M  V30 67859 C 4081.48 3.47817 6.12078 0
M  V30 67860 C 4082.19 3.39414 4.77697 0
M  V30 67861 N 4082.14 2.04615 4.15333 0
M  V30 67862 H 4084.97 3.41248 7.98759 0
M  V30 67863 H 4085.25 2.5837 6.41742 0
M  V30 67864 H 4084.38 5.02657 6.42673 0
M  V30 67865 P 4080.42 6.144 6.45285 0
M  V30 67866 O 4080.2 7.54673 6.86199 0
M  V30 67867 O 4079.63 5.12391 7.179 0
M  V30 67868 O 4080.17 5.99158 4.88404 0
M  V30 67869 C 4081.11 6.60234 3.96415 0
M  V30 67870 C 4080.38 7.08259 2.72856 0
M  V30 67871 O 4080.17 5.9427 1.83651 0
M  V30 67872 C 4078.98 7.64886 2.9555 0
M  V30 67873 O 4078.59 8.53963 1.90717 0
M  V30 67874 C 4078.1 6.4116 2.90739 0
M  V30 67875 C 4078.81 5.55375 1.86963 0
M  V30 67876 N 4078.76 4.09664 2.15742 0
M  V30 67877 H 4081.59 7.45574 4.45629 0
M  V30 67878 H 4081.87 5.86232 3.67314 0
M  V30 67879 H 4081 7.84412 2.24479 0
M  V30 67880 P 4077.04 8.7635 1.60911 0
M  V30 67881 O 4076.82 10.1388 1.11561 0
M  V30 67882 O 4076.25 8.36503 2.79617 0
M  V30 67883 O 4076.79 7.71806 0.42951 0
M  V30 67884 C 4077.73 7.67148 -0.673689 0
M  V30 67885 C 4077 7.33374 -1.95559 0
M  V30 67886 O 4076.79 5.88721 -2.00726 0
M  V30 67887 C 4075.6 7.92526 -2.10483 0
M  V30 67888 O 4075.21 8.02971 -3.47653 0
M  V30 67889 C 4074.72 6.89602 -1.41652 0
M  V30 67890 C 4075.43 5.59201 -1.75185 0
M  V30 67891 N 4075.38 4.58235 -0.662552 0
M  V30 67892 H 4078.21 8.65116 -0.777161 0
M  V30 67893 H 4078.49 6.90173 -0.474152 0
M  V30 67894 H 4077.62 7.66548 -2.79458 0
M  V30 67895 P 4073.66 8.03563 -3.84925 0
M  V30 67896 O 4073.44 8.85821 -5.0569 0
M  V30 67897 O 4072.87 8.41101 -2.65469 0
M  V30 67898 O 4073.41 6.4965 -4.18908 0
M  V30 67899 C 4074.35 5.81037 -5.05421 0
M  V30 67900 C 4073.62 4.78366 -5.89277 0
M  V30 67901 O 4073.41 3.58302 -5.08433 0
M  V30 67902 C 4072.22 5.17448 -6.36119 0
M  V30 67903 O 4071.83 4.45271 -7.53232 0
M  V30 67904 C 4071.34 4.74639 -5.19936 0
M  V30 67905 C 4072.05 3.49432 -4.70418 0
M  V30 67906 N 4072 3.31776 -3.22945 0
M  V30 67907 H 4074.83 6.54213 -5.71376 0
M  V30 67908 H 4075.11 5.30492 -4.44033 0
M  V30 67909 H 4074.24 4.55889 -6.76652 0
M  V30 67910 P 4070.28 4.23843 -7.83734 0
M  V30 67911 O 4070.06 4.19407 -9.29784 0
M  V30 67912 O 4069.49 5.24426 -7.09156 0
M  V30 67913 O 4070.03 2.7935 -7.20758 0
M  V30 67914 C 4070.97 1.7299 -7.50419 0
M  V30 67915 C 4070.24 0.406376 -7.57911 0
M  V30 67916 O 4070.03 -0.0897726 -6.21935 0
M  V30 67917 C 4068.84 0.447224 -8.1878 0
M  V30 67918 O 4068.45 -0.825065 -8.71101 0
M  V30 67919 C 4067.96 0.783801 -6.99623 0
M  V30 67920 C 4068.67 0.0619192 -5.85967 0
M  V30 67921 N 4068.62 0.7859 -4.56281 0
M  V30 67922 H 4071.45 1.93423 -8.4679 0
M  V30 67923 H 4071.73 1.68181 -6.71046 0
M  V30 67924 H 4070.86 -0.289041 -8.15388 0
M  V30 67925 P 4066.9 -1.17771 -8.83182 0
M  V30 67926 O 4066.68 -2.07206 -9.98732 0
M  V30 67927 O 4066.11 0.0743816 -8.81969 0
M  V30 67928 O 4066.65 -1.97652 -7.47304 0
M  V30 67929 C 4067.59 -3.01133 -7.08783 0
M  V30 67930 C 4066.86 -4.12613 -6.37049 0
M  V30 67931 O 4066.65 -3.72827 -4.97879 0
M  V30 67932 C 4065.46 -4.45085 -6.88694 0
M  V30 67933 O 4065.07 -5.7877 -6.5624 0
M  V30 67934 C 4064.58 -3.47817 -6.12078 0
M  V30 67935 C 4065.29 -3.39414 -4.77697 0
M  V30 67936 N 4065.24 -2.04199 -4.15538 0
M  V30 67937 H 4068.07 -3.41248 -7.98759 0
M  V30 67938 H 4068.35 -2.57728 -6.42 0
M  V30 67939 H 4067.48 -5.02657 -6.42673 0
M  V30 67940 H 4064.82 -4.11708 -4.08956 0
M  V30 67941 H 4064.54 -2.49626 -6.61679 0
M  V30 67942 H 4063.55 -3.8662 -6.00862 0
M  V30 67943 H 4065.39 -4.29991 -7.97006 0
M  V30 67944 P 4063.52 -6.144 -6.45285 0
M  V30 67945 O 4063.3 -7.54673 -6.86199 0
M  V30 67946 O 4062.73 -5.12391 -7.179 0
M  V30 67947 O 4063.27 -5.99158 -4.88404 0
M  V30 67948 C 4064.21 -6.60234 -3.96415 0
M  V30 67949 C 4063.48 -7.08259 -2.72856 0
M  V30 67950 O 4063.27 -5.9427 -1.83651 0
M  V30 67951 C 4062.08 -7.64886 -2.9555 0
M  V30 67952 O 4061.69 -8.53963 -1.90717 0
M  V30 67953 C 4061.2 -6.4116 -2.90739 0
M  V30 67954 C 4061.91 -5.55375 -1.86963 0
M  V30 67955 N 4061.86 -4.09448 -2.16152 0
M  V30 67956 H 4064.69 -7.45574 -4.45629 0
M  V30 67957 H 4064.97 -5.85864 -3.679 0
M  V30 67958 H 4064.1 -7.84412 -2.24479 0
M  V30 67959 H 4061.44 -5.73457 -0.888562 0
M  V30 67960 H 4061.16 -5.90877 -3.88583 0
M  V30 67961 H 4060.17 -6.6596 -2.58858 0
M  V30 67962 H 4062.01 -8.16339 -3.92049 0
M  V30 67963 P 4060.14 -8.7635 -1.60911 0
M  V30 67964 O 4059.92 -10.1388 -1.11561 0
M  V30 67965 O 4059.35 -8.36503 -2.79617 0
M  V30 67966 O 4059.89 -7.71906 -0.429565 0
M  V30 67967 C 4060.83 -7.67148 0.673689 0
M  V30 67968 C 4060.1 -7.33666 1.94851 0
M  V30 67969 O 4059.89 -5.88816 2.00759 0
M  V30 67970 C 4058.7 -7.92526 2.10483 0
M  V30 67971 O 4058.31 -8.03063 3.47693 0
M  V30 67972 C 4057.82 -6.89602 1.41652 0
M  V30 67973 C 4058.53 -5.59201 1.75185 0
M  V30 67974 N 4058.48 -4.58235 0.662552 0
M  V30 67975 C 4058.33 -3.24451 1.01643 0
M  V30 67976 O 4058.24 -2.94958 2.21722 0
M  V30 67977 N 4058.28 -2.30408 -0.165238 0
M  V30 67978 C 4058.38 -2.66048 -1.25118 0
M  V30 67979 N 4058.33 -1.70787 -2.16813 0
M  V30 67980 C 4058.53 -4.02732 -1.64413 0
M  V30 67981 C 4058.58 -4.9488 -0.63991 0
M  V30 67982 H 4061.32 -8.65017 0.777072 0
M  V30 67983 H 4061.59 -6.90173 0.474152 0
M  V30 67984 H 4060.72 -7.66642 2.79492 0
M  V30 67985 H 4058.06 -5.16254 2.65229 0
M  V30 67986 H 4057.78 -7.06532 0.329431 0
M  V30 67987 H 4056.79 -6.91023 1.82047 0
M  V30 67988 H 4058.63 -8.90873 1.62657 0
M  V30 67989 H 4058.7 -6.00104 -0.892197 0
M  V30 67990 H 4058.6 -4.31733 -2.69229 0
M  V30 67991 H 4058.21 -0.724835 -1.8844 0
M  V30 67992 H 4058.41 -1.94716 -3.16734 0
M  V30 67993 P 4056.76 -8.03563 3.84925 0
M  V30 67994 O 4056.54 -8.85821 5.0569 0
M  V30 67995 O 4055.97 -8.41101 2.65469 0
M  V30 67996 O 4056.51 -6.4965 4.18908 0
M  V30 67997 C 4057.45 -5.81037 5.05421 0
M  V30 67998 C 4056.72 -4.78366 5.89277 0
M  V30 67999 O 4056.51 -3.58302 5.08433 0
M  V30 68000 C 4055.32 -5.17448 6.36119 0
M  V30 68001 O 4054.93 -4.45271 7.53232 0
M  V30 68002 C 4054.44 -4.74639 5.19936 0
M  V30 68003 C 4055.15 -3.49432 4.70418 0
M  V30 68004 N 4055.1 -3.31776 3.22945 0
M  V30 68005 H 4057.94 -6.54213 5.71376 0
M  V30 68006 H 4058.21 -5.30492 4.44033 0
M  V30 68007 H 4057.34 -4.55889 6.76652 0
M  V30 68008 P 4053.38 -4.23843 7.83734 0
M  V30 68009 O 4053.16 -4.19407 9.29784 0
M  V30 68010 O 4052.59 -5.24426 7.09156 0
M  V30 68011 O 4053.13 -2.7935 7.20758 0
M  V30 68012 C 4054.07 -1.72945 7.50224 0
M  V30 68013 C 4053.34 -0.406376 7.57911 0
M  V30 68014 O 4053.13 0.0897726 6.21935 0
M  V30 68015 C 4051.94 -0.438983 8.18724 0
M  V30 68016 O 4051.55 0.825065 8.71101 0
M  V30 68017 C 4051.06 -0.783689 6.99524 0
M  V30 68018 C 4051.77 -0.0619086 5.85867 0
M  V30 68019 N 4051.72 -0.78573 4.56183 0
M  V30 68020 C 4051.57 -0.0292889 3.41887 0
M  V30 68021 O 4051.48 1.18445 3.4419 0
M  V30 68022 N 4051.53 -0.744061 2.23964 0
M  V30 68023 C 4051.62 -2.10932 2.10362 0
M  V30 68024 O 4051.57 -2.64117 0.98825 0
M  V30 68025 C 4051.77 -2.8202 3.34994 0
M  V30 68026 C 4051.88 -4.31095 3.25037 0
M  V30 68027 C 4051.82 -2.15547 4.52261 0
M  V30 68028 H 4054.56 -1.93379 8.46595 0
M  V30 68029 H 4054.83 -1.68132 6.70852 0
M  V30 68030 H 4053.96 0.289041 8.15388 0
M  V30 68031 H 4051.3 0.926847 5.72749 0
M  V30 68032 H 4051.03 -1.86973 6.82036 0
M  V30 68033 H 4050.03 -0.403896 7.13257 0
M  V30 68034 H 4051.87 -1.20585 8.97435 0
M  V30 68035 H 4051.94 -2.71231 5.45042 0
M  V30 68036 H 4050.91 -4.76966 3.49992 0
M  V30 68037 H 4052.65 -4.67047 3.95024 0
M  V30 68038 H 4052.16 -4.58996 2.22312 0
M  V30 68039 H 4051.42 -0.214893 1.39758 0
M  V30 68040 P 4050 1.17771 8.83182 0
M  V30 68041 O 4049.78 2.07206 9.98732 0
M  V30 68042 O 4049.21 -0.0743816 8.81969 0
M  V30 68043 O 4049.75 1.97652 7.47304 0
M  V30 68044 C 4050.69 3.01133 7.08783 0
M  V30 68045 C 4049.96 4.12613 6.37049 0
M  V30 68046 O 4049.75 3.72827 4.97879 0
M  V30 68047 C 4048.56 4.45085 6.88694 0
M  V30 68048 O 4048.17 5.7877 6.5624 0
M  V30 68049 C 4047.68 3.47817 6.12078 0
M  V30 68050 C 4048.39 3.39414 4.77697 0
M  V30 68051 N 4048.34 2.04615 4.15333 0
M  V30 68052 C 4048.42 0.803897 4.75249 0
M  V30 68053 N 4048.34 -0.197615 3.91502 0
M  V30 68054 C 4048.2 0.413002 2.66823 0
M  V30 68055 C 4048.07 -0.157221 1.38007 0
M  V30 68056 N 4047.95 0.833136 0.390236 0
M  V30 68057 C 4047.95 2.19402 0.623885 0
M  V30 68058 N 4047.82 2.97622 -0.449677 0
M  V30 68059 N 4048.08 2.73005 1.83601 0
M  V30 68060 C 4048.2 1.78786 2.80935 0
M  V30 68061 H 4051.18 3.41248 7.98759 0
M  V30 68062 H 4051.45 2.5837 6.41742 0
M  V30 68063 H 4050.58 5.02657 6.42673 0
M  V30 68064 P 4046.62 6.144 6.45285 0
M  V30 68065 O 4046.4 7.54673 6.86199 0
M  V30 68066 O 4045.83 5.12391 7.179 0
M  V30 68067 O 4046.37 5.99158 4.88404 0
M  V30 68068 C 4047.31 6.60234 3.96415 0
M  V30 68069 C 4046.58 7.08259 2.72856 0
M  V30 68070 O 4046.37 5.9427 1.83651 0
M  V30 68071 C 4045.18 7.64886 2.9555 0
M  V30 68072 O 4044.79 8.53963 1.90717 0
M  V30 68073 C 4044.3 6.4116 2.90739 0
M  V30 68074 C 4045.01 5.55375 1.86963 0
M  V30 68075 N 4044.96 4.09664 2.15742 0
M  V30 68076 C 4045.04 3.44381 3.37233 0
M  V30 68077 N 4044.96 2.14131 3.28347 0
M  V30 68078 C 4044.82 1.90247 1.91588 0
M  V30 68079 C 4044.69 0.683992 1.20892 0
M  V30 68080 N 4044.57 0.903396 -0.173998 0
M  V30 68081 C 4044.57 2.14171 -0.784879 0
M  V30 68082 N 4044.44 2.1435 -2.11317 0
M  V30 68083 N 4044.7 3.28784 -0.119316 0
M  V30 68084 C 4044.82 3.0977 1.22194 0
M  V30 68085 H 4047.8 7.45574 4.45629 0
M  V30 68086 H 4048.07 5.86232 3.67314 0
M  V30 68087 H 4047.2 7.84412 2.24479 0
M  V30 68088 P 4043.24 8.7635 1.60911 0
M  V30 68089 O 4043.02 10.1388 1.11561 0
M  V30 68090 O 4042.45 8.36503 2.79617 0
M  V30 68091 O 4042.99 7.71906 0.429565 0
M  V30 68092 C 4043.93 7.67148 -0.673689 0
M  V30 68093 C 4043.2 7.33666 -1.94851 0
M  V30 68094 O 4042.99 5.88816 -2.00759 0
M  V30 68095 C 4041.8 7.92526 -2.10483 0
M  V30 68096 O 4041.41 8.03063 -3.47693 0
M  V30 68097 C 4040.92 6.89602 -1.41652 0
M  V30 68098 C 4041.63 5.59201 -1.75185 0
M  V30 68099 N 4041.58 4.58235 -0.662552 0
M  V30 68100 C 4041.43 3.24451 -1.01643 0
M  V30 68101 O 4041.34 2.94958 -2.21722 0
M  V30 68102 N 4041.38 2.30408 0.165238 0
M  V30 68103 C 4041.48 2.66048 1.25118 0
M  V30 68104 N 4041.43 1.70787 2.16813 0
M  V30 68105 C 4041.63 4.02732 1.64413 0
M  V30 68106 C 4041.68 4.9488 0.63991 0
M  V30 68107 H 4044.42 8.65017 -0.777072 0
M  V30 68108 H 4044.69 6.90173 -0.474152 0
M  V30 68109 H 4043.82 7.66642 -2.79492 0
M  V30 68110 H 4041.16 5.16254 -2.65229 0
M  V30 68111 H 4040.88 7.06532 -0.329431 0
M  V30 68112 H 4039.89 6.91023 -1.82047 0
M  V30 68113 H 4041.73 8.90873 -1.62657 0
M  V30 68114 H 4041.8 6.00104 0.892197 0
M  V30 68115 H 4041.7 4.31733 2.69229 0
M  V30 68116 H 4041.31 0.724835 1.8844 0
M  V30 68117 H 4041.51 1.94716 3.16734 0
M  V30 68118 P 4039.86 8.03563 -3.84925 0
M  V30 68119 O 4039.64 8.85821 -5.0569 0
M  V30 68120 O 4039.07 8.41101 -2.65469 0
M  V30 68121 O 4039.61 6.4965 -4.18908 0
M  V30 68122 C 4040.55 5.81037 -5.05421 0
M  V30 68123 C 4039.82 4.78366 -5.89277 0
M  V30 68124 O 4039.61 3.58302 -5.08433 0
M  V30 68125 C 4038.42 5.17448 -6.36119 0
M  V30 68126 O 4038.03 4.45271 -7.53232 0
M  V30 68127 C 4037.54 4.74639 -5.19936 0
M  V30 68128 C 4038.25 3.49432 -4.70418 0
M  V30 68129 N 4038.2 3.31776 -3.22945 0
M  V30 68130 H 4041.04 6.54213 -5.71376 0
M  V30 68131 H 4041.31 5.30492 -4.44033 0
M  V30 68132 H 4040.44 4.55889 -6.76652 0
M  V30 68133 P 4036.48 4.23843 -7.83734 0
M  V30 68134 O 4036.26 4.19407 -9.29784 0
M  V30 68135 O 4035.69 5.24426 -7.09156 0
M  V30 68136 O 4036.23 2.7935 -7.20758 0
M  V30 68137 C 4037.17 1.7299 -7.50419 0
M  V30 68138 C 4036.44 0.406376 -7.57911 0
M  V30 68139 O 4036.23 -0.0897726 -6.21935 0
M  V30 68140 C 4035.04 0.447224 -8.1878 0
M  V30 68141 O 4034.65 -0.825065 -8.71101 0
M  V30 68142 C 4034.16 0.783801 -6.99623 0
M  V30 68143 C 4034.87 0.0619192 -5.85967 0
M  V30 68144 N 4034.82 0.7859 -4.56281 0
M  V30 68145 H 4037.66 1.93423 -8.4679 0
M  V30 68146 H 4037.93 1.68181 -6.71046 0
M  V30 68147 H 4037.06 -0.289041 -8.15388 0
M  V30 68148 P 4033.1 -1.17771 -8.83182 0
M  V30 68149 O 4032.88 -2.07206 -9.98732 0
M  V30 68150 O 4032.31 0.0743816 -8.81969 0
M  V30 68151 O 4032.85 -1.97652 -7.47304 0
M  V30 68152 C 4033.79 -3.01133 -7.08783 0
M  V30 68153 C 4033.06 -4.12613 -6.37049 0
M  V30 68154 O 4032.85 -3.72827 -4.97879 0
M  V30 68155 C 4031.66 -4.45085 -6.88694 0
M  V30 68156 O 4031.27 -5.7877 -6.5624 0
M  V30 68157 C 4030.78 -3.47817 -6.12078 0
M  V30 68158 C 4031.49 -3.39414 -4.77697 0
M  V30 68159 N 4031.44 -2.04615 -4.15333 0
M  V30 68160 H 4034.28 -3.41248 -7.98759 0
M  V30 68161 H 4034.55 -2.5837 -6.41742 0
M  V30 68162 H 4033.68 -5.02657 -6.42673 0
M  V30 68163 P 4029.72 -6.144 -6.45285 0
M  V30 68164 O 4029.5 -7.54673 -6.86199 0
M  V30 68165 O 4028.93 -5.12391 -7.179 0
M  V30 68166 O 4029.47 -5.99158 -4.88404 0
M  V30 68167 C 4030.41 -6.60234 -3.96415 0
M  V30 68168 C 4029.68 -7.08259 -2.72856 0
M  V30 68169 O 4029.47 -5.9427 -1.83651 0
M  V30 68170 C 4028.28 -7.64886 -2.9555 0
M  V30 68171 O 4027.89 -8.53963 -1.90717 0
M  V30 68172 C 4027.4 -6.4116 -2.90739 0
M  V30 68173 C 4028.11 -5.55375 -1.86963 0
M  V30 68174 N 4028.06 -4.09448 -2.16152 0
M  V30 68175 H 4030.9 -7.45574 -4.45629 0
M  V30 68176 H 4031.17 -5.85864 -3.679 0
M  V30 68177 H 4030.3 -7.84412 -2.24479 0
M  V30 68178 H 4027.64 -5.73457 -0.888562 0
M  V30 68179 H 4027.36 -5.90877 -3.88583 0
M  V30 68180 H 4026.37 -6.6596 -2.58858 0
M  V30 68181 H 4028.21 -8.16339 -3.92049 0
M  V30 68182 P 4026.34 -8.7635 -1.60911 0
M  V30 68183 O 4026.12 -10.1388 -1.11561 0
M  V30 68184 O 4025.55 -8.36503 -2.79617 0
M  V30 68185 O 4026.09 -7.71806 -0.42951 0
M  V30 68186 C 4027.03 -7.66948 0.673514 0
M  V30 68187 C 4026.3 -7.33374 1.95559 0
M  V30 68188 O 4026.09 -5.88721 2.00726 0
M  V30 68189 C 4024.9 -7.92218 2.1125 0
M  V30 68190 O 4024.51 -8.02971 3.47653 0
M  V30 68191 C 4024.02 -6.89504 1.41631 0
M  V30 68192 C 4024.73 -5.59106 1.75155 0
M  V30 68193 N 4024.68 -4.58136 0.662409 0
M  V30 68194 C 4024.53 -3.26059 1.02863 0
M  V30 68195 O 4024.44 -2.90743 2.19009 0
M  V30 68196 N 4024.49 -2.35995 -0.0155585 0
M  V30 68197 C 4024.58 -2.65248 -1.35603 0
M  V30 68198 O 4024.53 -1.75605 -2.20651 0
M  V30 68199 C 4024.73 -4.05747 -1.64698 0
M  V30 68200 C 4024.84 -4.42345 -3.09553 0
M  V30 68201 C 4024.78 -4.96734 -0.652411 0
M  V30 68202 H 4027.52 -8.64917 0.776982 0
M  V30 68203 H 4027.79 -6.89974 0.474015 0
M  V30 68204 H 4026.92 -7.66548 2.79458 0
M  V30 68205 H 4024.26 -5.16076 2.65138 0
M  V30 68206 H 4023.99 -7.06433 0.329384 0
M  V30 68207 H 4022.99 -6.90829 1.81996 0
M  V30 68208 H 4024.83 -8.90774 1.62639 0
M  V30 68209 H 4024.9 -6.02181 -0.895285 0
M  V30 68210 H 4023.87 -4.80252 -3.45468 0
M  V30 68211 H 4025.61 -5.20015 -3.22119 0
M  V30 68212 H 4025.12 -3.53269 -3.67833 0
M  V30 68213 H 4024.38 -1.39558 0.227499 0
M  V30 68214 P 4022.96 -8.03563 3.84925 0
M  V30 68215 O 4022.74 -8.85821 5.0569 0
M  V30 68216 O 4022.17 -8.41101 2.65469 0
M  V30 68217 O 4022.71 -6.4965 4.18908 0
M  V30 68218 C 4023.65 -5.81037 5.05421 0
M  V30 68219 C 4022.92 -4.78366 5.89277 0
M  V30 68220 O 4022.71 -3.58302 5.08433 0
M  V30 68221 C 4021.52 -5.17448 6.36119 0
M  V30 68222 O 4021.13 -4.45271 7.53232 0
M  V30 68223 C 4020.64 -4.74639 5.19936 0
M  V30 68224 C 4021.35 -3.49432 4.70418 0
M  V30 68225 N 4021.3 -3.32099 3.22613 0
M  V30 68226 C 4021.38 -4.28245 2.25527 0
M  V30 68227 N 4021.31 -3.80823 1.04874 0
M  V30 68228 C 4021.16 -2.44571 1.23535 0
M  V30 68229 C 4021.03 -1.37068 0.330675 0
M  V30 68230 N 4021.02 -1.51472 -0.990824 0
M  V30 68231 N 4020.91 -0.138614 0.848756 0
M  V30 68232 C 4020.92 0.00675923 2.16999 0
M  V30 68233 N 4021.04 -0.904372 3.11122 0
M  V30 68234 C 4021.16 -2.12707 2.56212 0
M  V30 68235 H 4024.14 -6.54213 5.71376 0
M  V30 68236 H 4024.41 -5.30936 4.43503 0
M  V30 68237 H 4023.54 -4.55889 6.76652 0
M  V30 68238 H 4020.88 -2.61715 5.17932 0
M  V30 68239 H 4020.6 -5.52155 4.41878 0
M  V30 68240 H 4019.61 -4.51981 5.53374 0
M  V30 68241 H 4021.45 -6.25124 6.55234 0
M  V30 68242 H 4021.49 -5.34372 2.47488 0
M  V30 68243 H 4021.11 -2.45153 -1.4078 0
M  V30 68244 H 4020.92 -0.688422 -1.59911 0
M  V30 68245 H 4020.81 1.02584 2.52346 0
M  V30 68246 P 4019.58 -4.23843 7.83734 0
M  V30 68247 O 4019.36 -4.19407 9.29784 0
M  V30 68248 O 4018.79 -5.24426 7.09156 0
M  V30 68249 O 4019.33 -2.7935 7.20758 0
M  V30 68250 C 4020.27 -1.7299 7.50419 0
M  V30 68251 C 4019.54 -0.406376 7.57911 0
M  V30 68252 O 4019.33 0.0897726 6.21935 0
M  V30 68253 C 4018.14 -0.447224 8.1878 0
M  V30 68254 O 4017.75 0.825065 8.71101 0
M  V30 68255 C 4017.26 -0.783801 6.99623 0
M  V30 68256 C 4017.97 -0.0619192 5.85967 0
M  V30 68257 N 4017.92 -0.7859 4.56281 0
M  V30 68258 C 4018 -2.14308 4.31736 0
M  V30 68259 N 4017.92 -2.46106 3.05116 0
M  V30 68260 C 4017.78 -1.23422 2.4014 0
M  V30 68261 C 4017.65 -0.938381 1.02409 0
M  V30 68262 N 4017.53 0.444647 0.805413 0
M  V30 68263 C 4017.53 1.40829 1.79435 0
M  V30 68264 N 4017.4 2.67213 1.38558 0
M  V30 68265 N 4017.66 1.12947 3.09005 0
M  V30 68266 C 4017.78 -0.204887 3.32369 0
M  V30 68267 H 4020.76 -1.93423 8.4679 0
M  V30 68268 H 4021.03 -1.68181 6.71046 0
M  V30 68269 H 4020.16 0.289041 8.15388 0
M  V30 68270 P 4016.2 1.17771 8.83182 0
M  V30 68271 O 4015.98 2.07206 9.98732 0
M  V30 68272 O 4015.41 -0.0743816 8.81969 0
M  V30 68273 O 4015.95 1.97652 7.47304 0
M  V30 68274 C 4016.89 3.01133 7.08783 0
M  V30 68275 C 4016.16 4.12613 6.37049 0
M  V30 68276 O 4015.95 3.72827 4.97879 0
M  V30 68277 C 4014.76 4.45085 6.88694 0
M  V30 68278 O 4014.37 5.7877 6.5624 0
M  V30 68279 C 4013.88 3.47817 6.12078 0
M  V30 68280 C 4014.59 3.39414 4.77697 0
M  V30 68281 N 4014.54 2.04615 4.15333 0
M  V30 68282 C 4014.62 0.803897 4.75249 0
M  V30 68283 N 4014.54 -0.197615 3.91502 0
M  V30 68284 C 4014.4 0.413002 2.66823 0
M  V30 68285 C 4014.27 -0.157221 1.38007 0
M  V30 68286 O 4014.25 -1.34419 1.057 0
M  V30 68287 N 4014.15 0.833136 0.390236 0
M  V30 68288 C 4014.15 2.19402 0.623885 0
M  V30 68289 N 4014.02 2.97622 -0.449677 0
M  V30 68290 N 4014.28 2.73005 1.83601 0
M  V30 68291 C 4014.4 1.78786 2.80935 0
M  V30 68292 H 4017.38 3.41248 7.98759 0
M  V30 68293 H 4017.65 2.5837 6.41742 0
M  V30 68294 H 4016.78 5.02657 6.42673 0
M  V30 68295 H 4014.12 4.11779 4.09026 0
M  V30 68296 H 4013.84 2.49661 6.61772 0
M  V30 68297 H 4012.85 3.86674 6.00946 0
M  V30 68298 H 4014.69 4.30038 7.97094 0
M  V30 68299 H 4014.74 0.670579 5.82754 0
M  V30 68300 H 4014.05 0.528446 -0.557287 0
M  V30 68301 H 4014.02 4.00117 -0.344773 0
M  V30 68302 H 4013.92 2.55448 -1.38544 0
M  V30 68303 P 4012.82 6.144 6.45285 0
M  V30 68304 O 4012.6 7.54673 6.86199 0
M  V30 68305 O 4012.03 5.12391 7.179 0
M  V30 68306 O 4012.57 5.99158 4.88404 0
M  V30 68307 C 4013.51 6.60234 3.96415 0
M  V30 68308 C 4012.78 7.08259 2.72856 0
M  V30 68309 O 4012.57 5.9427 1.83651 0
M  V30 68310 C 4011.38 7.64886 2.9555 0
M  V30 68311 O 4010.99 8.53963 1.90717 0
M  V30 68312 C 4010.5 6.4116 2.90739 0
M  V30 68313 C 4011.21 5.55375 1.86963 0
M  V30 68314 N 4011.16 4.09664 2.15742 0
M  V30 68315 H 4014 7.45574 4.45629 0
M  V30 68316 H 4014.27 5.86232 3.67314 0
M  V30 68317 H 4013.4 7.84412 2.24479 0
M  V30 68318 P 4009.44 8.7635 1.60911 0
M  V30 68319 O 4009.22 10.1388 1.11561 0
M  V30 68320 O 4008.65 8.36503 2.79617 0
M  V30 68321 O 4009.19 7.71806 0.42951 0
M  V30 68322 C 4010.13 7.66948 -0.673514 0
M  V30 68323 C 4009.4 7.33374 -1.95559 0
M  V30 68324 O 4009.19 5.88721 -2.00726 0
M  V30 68325 C 4008 7.92218 -2.1125 0
M  V30 68326 O 4007.61 8.02971 -3.47653 0
M  V30 68327 C 4007.12 6.89504 -1.41631 0
M  V30 68328 C 4007.83 5.59106 -1.75155 0
M  V30 68329 N 4007.78 4.58136 -0.662409 0
M  V30 68330 C 4007.63 3.26059 -1.02863 0
M  V30 68331 O 4007.54 2.90743 -2.19009 0
M  V30 68332 N 4007.59 2.35995 0.0155585 0
M  V30 68333 C 4007.68 2.65248 1.35603 0
M  V30 68334 O 4007.63 1.75605 2.20651 0
M  V30 68335 C 4007.83 4.05747 1.64698 0
M  V30 68336 C 4007.94 4.42345 3.09553 0
M  V30 68337 C 4007.88 4.96734 0.652411 0
M  V30 68338 H 4010.62 8.64917 -0.776982 0
M  V30 68339 H 4010.89 6.89974 -0.474015 0
M  V30 68340 H 4010.02 7.66548 -2.79458 0
M  V30 68341 H 4007.36 5.16076 -2.65138 0
M  V30 68342 H 4007.09 7.06433 -0.329384 0
M  V30 68343 H 4006.09 6.90829 -1.81996 0
M  V30 68344 H 4007.93 8.90774 -1.62639 0
M  V30 68345 H 4008 6.02181 0.895285 0
M  V30 68346 H 4006.97 4.80252 3.45468 0
M  V30 68347 H 4008.71 5.20015 3.22119 0
M  V30 68348 H 4008.22 3.53269 3.67833 0
M  V30 68349 H 4007.48 1.39558 -0.227499 0
M  V30 68350 P 4006.06 8.03563 -3.84925 0
M  V30 68351 O 4005.84 8.85821 -5.0569 0
M  V30 68352 O 4005.27 8.41101 -2.65469 0
M  V30 68353 O 4005.81 6.4965 -4.18908 0
M  V30 68354 C 4006.75 5.81037 -5.05421 0
M  V30 68355 C 4006.02 4.78366 -5.89277 0
M  V30 68356 O 4005.81 3.58302 -5.08433 0
M  V30 68357 C 4004.62 5.17448 -6.36119 0
M  V30 68358 O 4004.23 4.45271 -7.53232 0
M  V30 68359 C 4003.74 4.74639 -5.19936 0
M  V30 68360 C 4004.45 3.49432 -4.70418 0
M  V30 68361 N 4004.4 3.32099 -3.22613 0
M  V30 68362 H 4007.24 6.54213 -5.71376 0
M  V30 68363 H 4007.51 5.30936 -4.43503 0
M  V30 68364 H 4006.64 4.55889 -6.76652 0
M  V30 68365 H 4003.98 2.61715 -5.17932 0
M  V30 68366 H 4003.7 5.52155 -4.41878 0
M  V30 68367 H 4002.71 4.51981 -5.53374 0
M  V30 68368 H 4004.55 6.25124 -6.55234 0
M  V30 68369 P 4002.68 4.23843 -7.83734 0
M  V30 68370 O 4002.46 4.19407 -9.29784 0
M  V30 68371 O 4001.89 5.24426 -7.09156 0
M  V30 68372 O 4002.43 2.7935 -7.20758 0
M  V30 68373 C 4003.37 1.7299 -7.50419 0
M  V30 68374 C 4002.64 0.406376 -7.57911 0
M  V30 68375 O 4002.43 -0.0897726 -6.21935 0
M  V30 68376 C 4001.24 0.447224 -8.1878 0
M  V30 68377 O 4000.85 -0.825065 -8.71101 0
M  V30 68378 C 4000.36 0.783801 -6.99623 0
M  V30 68379 C 4001.07 0.0619192 -5.85967 0
M  V30 68380 N 4001.02 0.7859 -4.56281 0
M  V30 68381 H 4003.86 1.93423 -8.4679 0
M  V30 68382 H 4004.13 1.68181 -6.71046 0
M  V30 68383 H 4003.26 -0.289041 -8.15388 0
M  V30 68384 P 3999.3 -1.17771 -8.83182 0
M  V30 68385 O 3999.08 -2.07206 -9.98732 0
M  V30 68386 O 3998.51 0.0743816 -8.81969 0
M  V30 68387 O 3999.05 -1.97652 -7.47304 0
M  V30 68388 C 3999.99 -3.01133 -7.08783 0
M  V30 68389 C 3999.26 -4.12613 -6.37049 0
M  V30 68390 O 3999.05 -3.72827 -4.97879 0
M  V30 68391 C 3997.86 -4.45085 -6.88694 0
M  V30 68392 O 3997.47 -5.7877 -6.5624 0
M  V30 68393 C 3996.98 -3.47817 -6.12078 0
M  V30 68394 C 3997.69 -3.39414 -4.77697 0
M  V30 68395 N 3997.64 -2.04615 -4.15333 0
M  V30 68396 H 4000.48 -3.41248 -7.98759 0
M  V30 68397 H 4000.75 -2.5837 -6.41742 0
M  V30 68398 H 3999.88 -5.02657 -6.42673 0
M  V30 68399 P 3995.92 -6.144 -6.45285 0
M  V30 68400 O 3995.7 -7.54673 -6.86199 0
M  V30 68401 O 3995.13 -5.12391 -7.179 0
M  V30 68402 O 3995.67 -5.99158 -4.88404 0
M  V30 68403 C 3996.61 -6.60062 -3.96313 0
M  V30 68404 C 3995.88 -7.08259 -2.72856 0
M  V30 68405 O 3995.67 -5.9427 -1.83651 0
M  V30 68406 C 3994.48 -7.65087 -2.94749 0
M  V30 68407 O 3994.09 -8.53963 -1.90717 0
M  V30 68408 C 3993.6 -6.41069 -2.90698 0
M  V30 68409 C 3994.31 -5.5528 -1.86931 0
M  V30 68410 N 3994.26 -4.09575 -2.15696 0
M  V30 68411 C 3994.11 -3.24249 -1.08435 0
M  V30 68412 O 3994.02 -3.63946 0.0628747 0
M  V30 68413 N 3994.07 -1.90009 -1.39973 0
M  V30 68414 C 3994.16 -1.34884 -2.65614 0
M  V30 68415 C 3994.31 -2.3145 -3.71736 0
M  V30 68416 C 3994.36 -3.63518 -3.44754 0
M  V30 68417 H 3997.1 -7.45402 -4.45526 0
M  V30 68418 H 3997.37 -5.86062 -3.67208 0
M  V30 68419 H 3996.5 -7.84412 -2.24479 0
M  V30 68420 H 3993.84 -5.73358 -0.888409 0
M  V30 68421 H 3993.57 -5.90877 -3.88583 0
M  V30 68422 H 3992.57 -6.65867 -2.58821 0
M  V30 68423 H 3994.41 -8.16248 -3.92006 0
M  V30 68424 H 3994.48 -4.34551 -4.26383 0
M  V30 68425 P 3992.54 -8.7635 -1.60911 0
M  V30 68426 O 3992.32 -10.1388 -1.11561 0
M  V30 68427 O 3991.75 -8.36503 -2.79617 0
M  V30 68428 O 3992.29 -7.71806 -0.42951 0
M  V30 68429 C 3993.23 -7.67148 0.673689 0
M  V30 68430 C 3992.5 -7.33374 1.95559 0
M  V30 68431 O 3992.29 -5.88721 2.00726 0
M  V30 68432 C 3991.1 -7.92526 2.10483 0
M  V30 68433 O 3990.71 -8.02971 3.47653 0
M  V30 68434 C 3990.22 -6.89602 1.41652 0
M  V30 68435 C 3990.93 -5.59201 1.75185 0
M  V30 68436 N 3990.88 -4.58235 0.662552 0
M  V30 68437 H 3993.72 -8.65116 0.777161 0
M  V30 68438 H 3993.99 -6.90173 0.474152 0
M  V30 68439 H 3993.12 -7.66548 2.79458 0
M  V30 68440 P 3989.16 -8.03563 3.84925 0
M  V30 68441 O 3988.94 -8.85821 5.0569 0
M  V30 68442 O 3988.37 -8.41101 2.65469 0
M  V30 68443 O 3988.91 -6.4965 4.18908 0
M  V30 68444 C 3989.85 -5.80886 5.05289 0
M  V30 68445 C 3989.12 -4.78366 5.89277 0
M  V30 68446 O 3988.91 -3.58302 5.08433 0
M  V30 68447 C 3987.72 -5.16748 6.36559 0
M  V30 68448 O 3987.33 -4.45271 7.53232 0
M  V30 68449 C 3986.84 -4.74572 5.19863 0
M  V30 68450 C 3987.55 -3.49373 4.70338 0
M  V30 68451 N 3987.5 -3.31704 3.22876 0
M  V30 68452 C 3987.35 -2.03326 2.74871 0
M  V30 68453 O 3987.26 -1.06486 3.48076 0
M  V30 68454 N 3987.31 -1.91838 1.37456 0
M  V30 68455 C 3987.4 -2.94295 0.462035 0
M  V30 68456 O 3987.35 -2.71763 -0.752928 0
M  V30 68457 C 3987.55 -4.25064 1.05249 0
M  V30 68458 C 3987.66 -5.39815 0.095697 0
M  V30 68459 C 3987.6 -4.40214 2.39192 0
M  V30 68460 H 3990.34 -6.54063 5.71245 0
M  V30 68461 H 3990.61 -5.30339 4.43905 0
M  V30 68462 H 3989.74 -4.55889 6.76652 0
M  V30 68463 H 3987.08 -2.6167 5.17842 0
M  V30 68464 H 3986.81 -5.52155 4.41878 0
M  V30 68465 H 3985.81 -4.51918 5.53297 0
M  V30 68466 H 3987.65 -6.25055 6.55162 0
M  V30 68467 H 3987.72 -5.39798 2.81523 0
M  V30 68468 H 3986.69 -5.91593 0.0279582 0
M  V30 68469 H 3988.43 -6.10038 0.450573 0
M  V30 68470 H 3987.94 -5.02007 -0.89937 0
M  V30 68471 H 3987.2 -0.995326 1.00435 0
M  V30 68472 P 3985.78 -4.23843 7.83734 0
M  V30 68473 O 3985.56 -4.19407 9.29784 0
M  V30 68474 O 3984.99 -5.24426 7.09156 0
M  V30 68475 O 3985.53 -2.7935 7.20758 0
M  V30 68476 C 3986.47 -1.7299 7.50419 0
M  V30 68477 C 3985.74 -0.406376 7.57911 0
M  V30 68478 O 3985.53 0.0897726 6.21935 0
M  V30 68479 C 3984.34 -0.447224 8.1878 0
M  V30 68480 O 3983.95 0.825065 8.71101 0
M  V30 68481 C 3983.46 -0.783801 6.99623 0
M  V30 68482 C 3984.17 -0.0619192 5.85967 0
M  V30 68483 N 3984.12 -0.790462 4.56202 0
M  V30 68484 H 3986.96 -1.93423 8.4679 0
M  V30 68485 H 3987.23 -1.68852 6.70877 0
M  V30 68486 H 3986.36 0.289041 8.15388 0
M  V30 68487 H 3983.7 0.927006 5.72848 0
M  V30 68488 H 3983.42 -1.86973 6.82036 0
M  V30 68489 H 3982.43 -0.403953 7.13357 0
M  V30 68490 H 3984.27 -1.20599 8.97534 0
M  V30 68491 P 3982.4 1.17771 8.83182 0
M  V30 68492 O 3982.18 2.07206 9.98732 0
M  V30 68493 O 3981.61 -0.0743816 8.81969 0
M  V30 68494 O 3982.15 1.97652 7.47304 0
M  V30 68495 C 3983.09 3.01133 7.08783 0
M  V30 68496 C 3982.36 4.12613 6.37049 0
M  V30 68497 O 3982.15 3.72827 4.97879 0
M  V30 68498 C 3980.96 4.45085 6.88694 0
M  V30 68499 O 3980.57 5.7877 6.5624 0
M  V30 68500 C 3980.08 3.47817 6.12078 0
M  V30 68501 C 3980.79 3.39414 4.77697 0
M  V30 68502 N 3980.74 2.04615 4.15333 0
M  V30 68503 H 3983.58 3.41248 7.98759 0
M  V30 68504 H 3983.85 2.5837 6.41742 0
M  V30 68505 H 3982.98 5.02657 6.42673 0
M  V30 68506 P 3979.02 6.144 6.45285 0
M  V30 68507 O 3978.8 7.54673 6.86199 0
M  V30 68508 O 3978.23 5.12391 7.179 0
M  V30 68509 O 3978.77 5.99158 4.88404 0
M  V30 68510 C 3979.71 6.60234 3.96415 0
M  V30 68511 C 3978.98 7.08259 2.72856 0
M  V30 68512 O 3978.77 5.9427 1.83651 0
M  V30 68513 C 3977.58 7.64886 2.9555 0
M  V30 68514 O 3977.19 8.53963 1.90717 0
M  V30 68515 C 3976.7 6.4116 2.90739 0
M  V30 68516 C 3977.41 5.55375 1.86963 0
M  V30 68517 N 3977.36 4.09448 2.16152 0
M  V30 68518 C 3977.44 3.46824 3.37593 0
M  V30 68519 N 3977.37 2.17422 3.29777 0
M  V30 68520 C 3977.22 1.93065 1.94427 0
M  V30 68521 C 3977.09 0.738053 1.20141 0
M  V30 68522 N 3977.08 -0.474256 1.74676 0
M  V30 68523 N 3976.97 0.850049 -0.13045 0
M  V30 68524 C 3976.98 2.06169 -0.676992 0
M  V30 68525 N 3977.1 3.23842 -0.101312 0
M  V30 68526 C 3977.22 3.09402 1.23122 0
M  V30 68527 H 3980.2 7.45574 4.45629 0
M  V30 68528 H 3980.47 5.85864 3.679 0
M  V30 68529 H 3979.6 7.84412 2.24479 0
M  V30 68530 H 3976.94 5.73457 0.888562 0
M  V30 68531 H 3976.66 5.90877 3.88583 0
M  V30 68532 H 3975.67 6.6596 2.58858 0
M  V30 68533 H 3977.51 8.16339 3.92049 0
M  V30 68534 H 3977.55 4.00505 4.3174 0
M  V30 68535 H 3977.17 -0.581337 2.76658 0
M  V30 68536 H 3976.98 -1.30811 1.14888 0
M  V30 68537 H 3976.87 2.08295 -1.75542 0
M  V30 68538 P 3975.64 8.7635 1.60911 0
M  V30 68539 O 3975.42 10.1388 1.11561 0
M  V30 68540 O 3974.85 8.36503 2.79617 0
M  V30 68541 O 3975.39 7.71806 0.42951 0
M  V30 68542 C 3976.33 7.67148 -0.673689 0
M  V30 68543 C 3975.6 7.33374 -1.95559 0
M  V30 68544 O 3975.39 5.88721 -2.00726 0
M  V30 68545 C 3974.2 7.92526 -2.10483 0
M  V30 68546 O 3973.81 8.02971 -3.47653 0
M  V30 68547 C 3973.32 6.89602 -1.41652 0
M  V30 68548 C 3974.03 5.59201 -1.75185 0
M  V30 68549 N 3973.98 4.58235 -0.662552 0
M  V30 68550 H 3976.82 8.65116 -0.777161 0
M  V30 68551 H 3977.09 6.90173 -0.474152 0
M  V30 68552 H 3976.22 7.66548 -2.79458 0
M  V30 68553 P 3972.26 8.03563 -3.84925 0
M  V30 68554 O 3972.04 8.85821 -5.0569 0
M  V30 68555 O 3971.47 8.41101 -2.65469 0
M  V30 68556 O 3972.01 6.4965 -4.18908 0
M  V30 68557 C 3972.95 5.81037 -5.05421 0
M  V30 68558 C 3972.22 4.78366 -5.89277 0
M  V30 68559 O 3972.01 3.58302 -5.08433 0
M  V30 68560 C 3970.82 5.17448 -6.36119 0
M  V30 68561 O 3970.43 4.45271 -7.53232 0
M  V30 68562 C 3969.94 4.74639 -5.19936 0
M  V30 68563 C 3970.65 3.49432 -4.70418 0
M  V30 68564 N 3970.6 3.31776 -3.22945 0
M  V30 68565 H 3973.44 6.54213 -5.71376 0
M  V30 68566 H 3973.71 5.30492 -4.44033 0
M  V30 68567 H 3972.84 4.55889 -6.76652 0
M  V30 68568 P 3968.88 4.23843 -7.83734 0
M  V30 68569 O 3968.66 4.19407 -9.29784 0
M  V30 68570 O 3968.09 5.24426 -7.09156 0
M  V30 68571 O 3968.63 2.7935 -7.20758 0
M  V30 68572 C 3969.57 1.7299 -7.50419 0
M  V30 68573 C 3968.84 0.406376 -7.57911 0
M  V30 68574 O 3968.63 -0.0897726 -6.21935 0
M  V30 68575 C 3967.44 0.447224 -8.1878 0
M  V30 68576 O 3967.05 -0.825065 -8.71101 0
M  V30 68577 C 3966.56 0.783801 -6.99623 0
M  V30 68578 C 3967.27 0.0619192 -5.85967 0
M  V30 68579 N 3967.22 0.7859 -4.56281 0
M  V30 68580 H 3970.06 1.93423 -8.4679 0
M  V30 68581 H 3970.33 1.68181 -6.71046 0
M  V30 68582 H 3969.46 -0.289041 -8.15388 0
M  V30 68583 P 3965.5 -1.17771 -8.83182 0
M  V30 68584 O 3965.28 -2.07206 -9.98732 0
M  V30 68585 O 3964.71 0.0743816 -8.81969 0
M  V30 68586 O 3965.25 -1.97652 -7.47304 0
M  V30 68587 C 3966.19 -3.01133 -7.08783 0
M  V30 68588 C 3965.46 -4.12613 -6.37049 0
M  V30 68589 O 3965.25 -3.72827 -4.97879 0
M  V30 68590 C 3964.06 -4.45085 -6.88694 0
M  V30 68591 O 3963.67 -5.7877 -6.5624 0
M  V30 68592 C 3963.18 -3.47817 -6.12078 0
M  V30 68593 C 3963.89 -3.39414 -4.77697 0
M  V30 68594 N 3963.84 -2.04615 -4.15333 0
M  V30 68595 H 3966.68 -3.41248 -7.98759 0
M  V30 68596 H 3966.95 -2.5837 -6.41742 0
M  V30 68597 H 3966.08 -5.02657 -6.42673 0
M  V30 68598 P 3962.12 -6.144 -6.45285 0
M  V30 68599 O 3961.9 -7.54673 -6.86199 0
M  V30 68600 O 3961.33 -5.12391 -7.179 0
M  V30 68601 O 3961.87 -5.99158 -4.88404 0
M  V30 68602 C 3962.81 -6.60234 -3.96415 0
M  V30 68603 C 3962.08 -7.08259 -2.72856 0
M  V30 68604 O 3961.87 -5.9427 -1.83651 0
M  V30 68605 C 3960.68 -7.64886 -2.9555 0
M  V30 68606 O 3960.29 -8.53963 -1.90717 0
M  V30 68607 C 3959.8 -6.4116 -2.90739 0
M  V30 68608 C 3960.51 -5.55375 -1.86963 0
M  V30 68609 N 3960.46 -4.09664 -2.15742 0
M  V30 68610 H 3963.3 -7.45574 -4.45629 0
M  V30 68611 H 3963.57 -5.86232 -3.67314 0
M  V30 68612 H 3962.7 -7.84412 -2.24479 0
M  V30 68613 P 3958.74 -8.7635 -1.60911 0
M  V30 68614 O 3958.52 -10.1388 -1.11561 0
M  V30 68615 O 3957.95 -8.36503 -2.79617 0
M  V30 68616 O 3958.49 -7.71806 -0.42951 0
M  V30 68617 C 3959.43 -7.67148 0.673689 0
M  V30 68618 C 3958.7 -7.33374 1.95559 0
M  V30 68619 O 3958.49 -5.88721 2.00726 0
M  V30 68620 C 3957.3 -7.92526 2.10483 0
M  V30 68621 O 3956.91 -8.02971 3.47653 0
M  V30 68622 C 3956.42 -6.89602 1.41652 0
M  V30 68623 C 3957.13 -5.59201 1.75185 0
M  V30 68624 N 3957.08 -4.58235 0.662552 0
M  V30 68625 H 3959.92 -8.65116 0.777161 0
M  V30 68626 H 3960.19 -6.90173 0.474152 0
M  V30 68627 H 3959.32 -7.66548 2.79458 0
M  V30 68628 P 3955.36 -8.03563 3.84925 0
M  V30 68629 O 3955.14 -8.85821 5.0569 0
M  V30 68630 O 3954.57 -8.41101 2.65469 0
M  V30 68631 O 3955.11 -6.4965 4.18908 0
M  V30 68632 C 3956.05 -5.81037 5.05421 0
M  V30 68633 C 3955.32 -4.78366 5.89277 0
M  V30 68634 O 3955.11 -3.58302 5.08433 0
M  V30 68635 C 3953.92 -5.17448 6.36119 0
M  V30 68636 O 3953.53 -4.45271 7.53232 0
M  V30 68637 C 3953.04 -4.74639 5.19936 0
M  V30 68638 C 3953.75 -3.49432 4.70418 0
M  V30 68639 N 3953.7 -3.32099 3.22613 0
M  V30 68640 H 3956.54 -6.54213 5.71376 0
M  V30 68641 H 3956.81 -5.30936 4.43503 0
M  V30 68642 H 3955.94 -4.55889 6.76652 0
M  V30 68643 H 3953.28 -2.61715 5.17932 0
M  V30 68644 H 3953 -5.52155 4.41878 0
M  V30 68645 H 3952.01 -4.51981 5.53374 0
M  V30 68646 H 3953.85 -6.25124 6.55234 0
M  V30 68647 P 3951.98 -4.23843 7.83734 0
M  V30 68648 O 3951.76 -4.19407 9.29784 0
M  V30 68649 O 3951.19 -5.24426 7.09156 0
M  V30 68650 O 3951.73 -2.7935 7.20758 0
M  V30 68651 C 3952.67 -1.7299 7.50419 0
M  V30 68652 C 3951.94 -0.406376 7.57911 0
M  V30 68653 O 3951.73 0.0897726 6.21935 0
M  V30 68654 C 3950.54 -0.447224 8.1878 0
M  V30 68655 O 3950.15 0.825065 8.71101 0
M  V30 68656 C 3949.66 -0.783801 6.99623 0
M  V30 68657 C 3950.37 -0.0619192 5.85967 0
M  V30 68658 N 3950.32 -0.7859 4.56281 0
M  V30 68659 H 3953.16 -1.93423 8.4679 0
M  V30 68660 H 3953.43 -1.68181 6.71046 0
M  V30 68661 H 3952.56 0.289041 8.15388 0
M  V30 68662 P 3948.6 1.17771 8.83182 0
M  V30 68663 O 3948.38 2.07206 9.98732 0
M  V30 68664 O 3947.81 -0.0743816 8.81969 0
M  V30 68665 O 3948.35 1.97652 7.47304 0
M  V30 68666 C 3949.29 3.01133 7.08783 0
M  V30 68667 C 3948.56 4.12613 6.37049 0
M  V30 68668 O 3948.35 3.72827 4.97879 0
M  V30 68669 C 3947.16 4.45085 6.88694 0
M  V30 68670 O 3946.77 5.7877 6.5624 0
M  V30 68671 C 3946.28 3.47817 6.12078 0
M  V30 68672 C 3946.99 3.39414 4.77697 0
M  V30 68673 N 3946.94 2.04199 4.15538 0
M  V30 68674 H 3949.78 3.41248 7.98759 0
M  V30 68675 H 3950.05 2.57728 6.42 0
M  V30 68676 H 3949.18 5.02657 6.42673 0
M  V30 68677 H 3946.52 4.11708 4.08956 0
M  V30 68678 H 3946.24 2.49626 6.61679 0
M  V30 68679 H 3945.25 3.8662 6.00862 0
M  V30 68680 H 3947.09 4.29991 7.97006 0
M  V30 68681 P 3945.22 6.144 6.45285 0
M  V30 68682 O 3945 7.54673 6.86199 0
M  V30 68683 O 3944.43 5.12391 7.179 0
M  V30 68684 O 3944.97 5.99158 4.88404 0
M  V30 68685 C 3945.91 6.60234 3.96415 0
M  V30 68686 C 3945.18 7.08259 2.72856 0
M  V30 68687 O 3944.97 5.9427 1.83651 0
M  V30 68688 C 3943.78 7.64886 2.9555 0
M  V30 68689 O 3943.39 8.53963 1.90717 0
M  V30 68690 C 3942.9 6.4116 2.90739 0
M  V30 68691 C 3943.61 5.55375 1.86963 0
M  V30 68692 N 3943.56 4.09664 2.15742 0
M  V30 68693 H 3946.4 7.45574 4.45629 0
M  V30 68694 H 3946.67 5.86232 3.67314 0
M  V30 68695 H 3945.8 7.84412 2.24479 0
M  V30 68696 P 3941.84 8.7635 1.60911 0
M  V30 68697 O 3941.62 10.1388 1.11561 0
M  V30 68698 O 3941.05 8.36503 2.79617 0
M  V30 68699 O 3941.59 7.71806 0.42951 0
M  V30 68700 C 3942.53 7.67148 -0.673689 0
M  V30 68701 C 3941.8 7.33374 -1.95559 0
M  V30 68702 O 3941.59 5.88721 -2.00726 0
M  V30 68703 C 3940.4 7.92526 -2.10483 0
M  V30 68704 O 3940.01 8.02971 -3.47653 0
M  V30 68705 C 3939.52 6.89602 -1.41652 0
M  V30 68706 C 3940.23 5.59201 -1.75185 0
M  V30 68707 N 3940.18 4.58235 -0.662552 0
M  V30 68708 H 3943.02 8.65116 -0.777161 0
M  V30 68709 H 3943.29 6.90173 -0.474152 0
M  V30 68710 H 3942.42 7.66548 -2.79458 0
M  V30 68711 P 3938.46 8.03563 -3.84925 0
M  V30 68712 O 3938.24 8.85821 -5.0569 0
M  V30 68713 O 3937.67 8.41101 -2.65469 0
M  V30 68714 O 3938.21 6.4965 -4.18908 0
M  V30 68715 C 3939.15 5.81037 -5.05421 0
M  V30 68716 C 3938.42 4.78366 -5.89277 0
M  V30 68717 O 3938.21 3.58302 -5.08433 0
M  V30 68718 C 3937.02 5.17448 -6.36119 0
M  V30 68719 O 3936.63 4.45271 -7.53232 0
M  V30 68720 C 3936.14 4.74639 -5.19936 0
M  V30 68721 C 3936.85 3.49432 -4.70418 0
M  V30 68722 N 3936.8 3.31776 -3.22945 0
M  V30 68723 H 3939.64 6.54213 -5.71376 0
M  V30 68724 H 3939.91 5.30492 -4.44033 0
M  V30 68725 H 3939.04 4.55889 -6.76652 0
M  V30 68726 P 3935.08 4.23843 -7.83734 0
M  V30 68727 O 3934.86 4.19407 -9.29784 0
M  V30 68728 O 3934.29 5.24426 -7.09156 0
M  V30 68729 O 3934.83 2.7935 -7.20758 0
M  V30 68730 C 3935.77 1.7299 -7.50419 0
M  V30 68731 C 3935.04 0.406376 -7.57911 0
M  V30 68732 O 3934.83 -0.0897726 -6.21935 0
M  V30 68733 C 3933.64 0.447224 -8.1878 0
M  V30 68734 O 3933.25 -0.825065 -8.71101 0
M  V30 68735 C 3932.76 0.783801 -6.99623 0
M  V30 68736 C 3933.47 0.0619192 -5.85967 0
M  V30 68737 N 3933.42 0.7859 -4.56281 0
M  V30 68738 H 3936.26 1.93423 -8.4679 0
M  V30 68739 H 3936.53 1.68181 -6.71046 0
M  V30 68740 H 3935.66 -0.289041 -8.15388 0
M  V30 68741 P 3931.7 -1.17771 -8.83182 0
M  V30 68742 O 3931.48 -2.07206 -9.98732 0
M  V30 68743 O 3930.91 0.0743816 -8.81969 0
M  V30 68744 O 3931.45 -1.97652 -7.47304 0
M  V30 68745 C 3932.39 -3.01133 -7.08783 0
M  V30 68746 C 3931.66 -4.12613 -6.37049 0
M  V30 68747 O 3931.45 -3.72827 -4.97879 0
M  V30 68748 C 3930.26 -4.45085 -6.88694 0
M  V30 68749 O 3929.87 -5.7877 -6.5624 0
M  V30 68750 C 3929.38 -3.47817 -6.12078 0
M  V30 68751 C 3930.09 -3.39414 -4.77697 0
M  V30 68752 N 3930.04 -2.04199 -4.15538 0
M  V30 68753 H 3932.88 -3.41248 -7.98759 0
M  V30 68754 H 3933.15 -2.57728 -6.42 0
M  V30 68755 H 3932.28 -5.02657 -6.42673 0
M  V30 68756 H 3929.62 -4.11708 -4.08956 0
M  V30 68757 H 3929.34 -2.49626 -6.61679 0
M  V30 68758 H 3928.35 -3.8662 -6.00862 0
M  V30 68759 H 3930.19 -4.29991 -7.97006 0
M  V30 68760 P 3928.32 -6.144 -6.45285 0
M  V30 68761 O 3928.1 -7.54673 -6.86199 0
M  V30 68762 O 3927.53 -5.12391 -7.179 0
M  V30 68763 O 3928.07 -5.99158 -4.88404 0
M  V30 68764 C 3929.01 -6.60234 -3.96415 0
M  V30 68765 C 3928.28 -7.08259 -2.72856 0
M  V30 68766 O 3928.07 -5.9427 -1.83651 0
M  V30 68767 C 3926.88 -7.64886 -2.9555 0
M  V30 68768 O 3926.49 -8.53963 -1.90717 0
M  V30 68769 C 3926 -6.4116 -2.90739 0
M  V30 68770 C 3926.71 -5.55375 -1.86963 0
M  V30 68771 N 3926.66 -4.09664 -2.15742 0
M  V30 68772 H 3929.5 -7.45574 -4.45629 0
M  V30 68773 H 3929.77 -5.86232 -3.67314 0
M  V30 68774 H 3928.9 -7.84412 -2.24479 0
M  V30 68775 P 3924.94 -8.7635 -1.60911 0
M  V30 68776 O 3924.72 -10.1388 -1.11561 0
M  V30 68777 O 3924.15 -8.36503 -2.79617 0
M  V30 68778 O 3924.69 -7.71906 -0.429565 0
M  V30 68779 C 3925.63 -7.67148 0.673689 0
M  V30 68780 C 3924.9 -7.33666 1.94851 0
M  V30 68781 O 3924.69 -5.88816 2.00759 0
M  V30 68782 C 3923.5 -7.92526 2.10483 0
M  V30 68783 O 3923.11 -8.03063 3.47693 0
M  V30 68784 C 3922.62 -6.89602 1.41652 0
M  V30 68785 C 3923.33 -5.59201 1.75185 0
M  V30 68786 N 3923.28 -4.58235 0.662552 0
M  V30 68787 C 3923.13 -3.24451 1.01643 0
M  V30 68788 O 3923.04 -2.94958 2.21722 0
M  V30 68789 N 3923.08 -2.30408 -0.165238 0
M  V30 68790 C 3923.18 -2.66048 -1.25118 0
M  V30 68791 N 3923.13 -1.70787 -2.16813 0
M  V30 68792 C 3923.33 -4.02732 -1.64413 0
M  V30 68793 C 3923.38 -4.9488 -0.63991 0
M  V30 68794 H 3926.12 -8.65017 0.777072 0
M  V30 68795 H 3926.39 -6.90173 0.474152 0
M  V30 68796 H 3925.52 -7.66642 2.79492 0
M  V30 68797 H 3922.86 -5.16254 2.65229 0
M  V30 68798 H 3922.58 -7.06532 0.329431 0
M  V30 68799 H 3921.59 -6.91023 1.82047 0
M  V30 68800 H 3923.43 -8.90873 1.62657 0
M  V30 68801 H 3923.5 -6.00104 -0.892197 0
M  V30 68802 H 3923.4 -4.31733 -2.69229 0
M  V30 68803 H 3923.01 -0.724835 -1.8844 0
M  V30 68804 H 3923.21 -1.94716 -3.16734 0
M  V30 68805 P 3921.56 -8.03563 3.84925 0
M  V30 68806 O 3921.34 -8.85821 5.0569 0
M  V30 68807 O 3920.77 -8.41101 2.65469 0
M  V30 68808 O 3921.31 -6.4965 4.18908 0
M  V30 68809 C 3922.25 -5.81037 5.05421 0
M  V30 68810 C 3921.52 -4.78366 5.89277 0
M  V30 68811 O 3921.31 -3.58302 5.08433 0
M  V30 68812 C 3920.12 -5.17448 6.36119 0
M  V30 68813 O 3919.73 -4.45271 7.53232 0
M  V30 68814 C 3919.24 -4.74639 5.19936 0
M  V30 68815 C 3919.95 -3.49432 4.70418 0
M  V30 68816 N 3919.9 -3.31776 3.22945 0
M  V30 68817 H 3922.74 -6.54213 5.71376 0
M  V30 68818 H 3923.01 -5.30492 4.44033 0
M  V30 68819 H 3922.14 -4.55889 6.76652 0
M  V30 68820 P 3918.18 -4.23843 7.83734 0
M  V30 68821 O 3917.96 -4.19407 9.29784 0
M  V30 68822 O 3917.39 -5.24426 7.09156 0
M  V30 68823 O 3917.93 -2.7935 7.20758 0
M  V30 68824 C 3918.87 -1.7299 7.50419 0
M  V30 68825 C 3918.14 -0.406376 7.57911 0
M  V30 68826 O 3917.93 0.0897726 6.21935 0
M  V30 68827 C 3916.74 -0.447224 8.1878 0
M  V30 68828 O 3916.35 0.825065 8.71101 0
M  V30 68829 C 3915.86 -0.783801 6.99623 0
M  V30 68830 C 3916.57 -0.0619192 5.85967 0
M  V30 68831 N 3916.52 -0.7859 4.56281 0
M  V30 68832 H 3919.36 -1.93423 8.4679 0
M  V30 68833 H 3919.63 -1.68181 6.71046 0
M  V30 68834 H 3918.76 0.289041 8.15388 0
M  V30 68835 P 3914.8 1.17771 8.83182 0
M  V30 68836 O 3914.58 2.07206 9.98732 0
M  V30 68837 O 3914.01 -0.0743816 8.81969 0
M  V30 68838 O 3914.55 1.97652 7.47304 0
M  V30 68839 C 3915.49 3.01133 7.08783 0
M  V30 68840 C 3914.76 4.12613 6.37049 0
M  V30 68841 O 3914.55 3.72827 4.97879 0
M  V30 68842 C 3913.36 4.45085 6.88694 0
M  V30 68843 O 3912.97 5.7877 6.5624 0
M  V30 68844 C 3912.48 3.47817 6.12078 0
M  V30 68845 C 3913.19 3.39414 4.77697 0
M  V30 68846 N 3913.14 2.04199 4.15538 0
M  V30 68847 C 3913.22 0.821545 4.76977 0
M  V30 68848 N 3913.15 -0.1794 3.94592 0
M  V30 68849 C 3913 0.419121 2.70776 0
M  V30 68850 C 3912.87 -0.109072 1.40577 0
M  V30 68851 N 3912.86 -1.4104 1.1344 0
M  V30 68852 N 3912.75 0.764381 0.39411 0
M  V30 68853 C 3912.76 2.06587 0.664135 0
M  V30 68854 N 3912.88 2.67948 1.82153 0
M  V30 68855 C 3913 1.77942 2.8147 0
M  V30 68856 H 3915.98 3.41248 7.98759 0
M  V30 68857 H 3916.25 2.57728 6.42 0
M  V30 68858 H 3915.38 5.02657 6.42673 0
M  V30 68859 H 3912.72 4.11708 4.08956 0
M  V30 68860 H 3912.44 2.49626 6.61679 0
M  V30 68861 H 3911.45 3.8662 6.00862 0
M  V30 68862 H 3913.29 4.29991 7.97006 0
M  V30 68863 H 3913.33 0.702451 5.84696 0
M  V30 68864 H 3912.95 -2.09647 1.89651 0
M  V30 68865 H 3912.76 -1.73358 0.160575 0
M  V30 68866 H 3912.65 2.71695 -0.195838 0
M  V30 68867 P 3911.42 6.144 6.45285 0
M  V30 68868 O 3911.2 7.54673 6.86199 0
M  V30 68869 O 3910.63 5.12391 7.179 0
M  V30 68870 O 3911.17 5.99158 4.88404 0
M  V30 68871 C 3912.11 6.60234 3.96415 0
M  V30 68872 C 3911.38 7.08259 2.72856 0
M  V30 68873 O 3911.17 5.9427 1.83651 0
M  V30 68874 C 3909.98 7.64886 2.9555 0
M  V30 68875 O 3909.59 8.53963 1.90717 0
M  V30 68876 C 3909.1 6.4116 2.90739 0
M  V30 68877 C 3909.81 5.55375 1.86963 0
M  V30 68878 N 3909.76 4.09664 2.15742 0
M  V30 68879 H 3912.6 7.45574 4.45629 0
M  V30 68880 H 3912.87 5.86232 3.67314 0
M  V30 68881 H 3912 7.84412 2.24479 0
M  V30 68882 P 3908.04 8.7635 1.60911 0
M  V30 68883 O 3907.82 10.1388 1.11561 0
M  V30 68884 O 3907.25 8.36503 2.79617 0
M  V30 68885 O 3907.79 7.71806 0.42951 0
M  V30 68886 C 3908.73 7.67148 -0.673689 0
M  V30 68887 C 3908 7.33374 -1.95559 0
M  V30 68888 O 3907.79 5.88721 -2.00726 0
M  V30 68889 C 3906.6 7.92526 -2.10483 0
M  V30 68890 O 3906.21 8.02971 -3.47653 0
M  V30 68891 C 3905.72 6.89602 -1.41652 0
M  V30 68892 C 3906.43 5.59201 -1.75185 0
M  V30 68893 N 3906.38 4.58235 -0.662552 0
M  V30 68894 H 3909.22 8.65116 -0.777161 0
M  V30 68895 H 3909.49 6.90173 -0.474152 0
M  V30 68896 H 3908.62 7.66548 -2.79458 0
M  V30 68897 P 3904.66 8.03563 -3.84925 0
M  V30 68898 O 3904.44 8.85821 -5.0569 0
M  V30 68899 O 3903.87 8.41101 -2.65469 0
M  V30 68900 O 3904.41 6.4965 -4.18908 0
M  V30 68901 C 3905.35 5.81037 -5.05421 0
M  V30 68902 C 3904.62 4.78366 -5.89277 0
M  V30 68903 O 3904.41 3.58302 -5.08433 0
M  V30 68904 C 3903.22 5.17448 -6.36119 0
M  V30 68905 O 3902.83 4.45271 -7.53232 0
M  V30 68906 C 3902.34 4.74639 -5.19936 0
M  V30 68907 C 3903.05 3.49432 -4.70418 0
M  V30 68908 N 3903 3.31776 -3.22945 0
M  V30 68909 H 3905.84 6.54213 -5.71376 0
M  V30 68910 H 3906.11 5.30492 -4.44033 0
M  V30 68911 H 3905.24 4.55889 -6.76652 0
M  V30 68912 P 3901.28 4.23843 -7.83734 0
M  V30 68913 O 3901.06 4.19407 -9.29784 0
M  V30 68914 O 3900.49 5.24426 -7.09156 0
M  V30 68915 O 3901.03 2.7935 -7.20758 0
M  V30 68916 C 3901.97 1.7299 -7.50419 0
M  V30 68917 C 3901.24 0.406376 -7.57911 0
M  V30 68918 O 3901.03 -0.0897726 -6.21935 0
M  V30 68919 C 3899.84 0.447224 -8.1878 0
M  V30 68920 O 3899.45 -0.825065 -8.71101 0
M  V30 68921 C 3898.96 0.783801 -6.99623 0
M  V30 68922 C 3899.67 0.0619192 -5.85967 0
M  V30 68923 N 3899.62 0.7859 -4.56281 0
M  V30 68924 H 3902.46 1.93423 -8.4679 0
M  V30 68925 H 3902.73 1.68181 -6.71046 0
M  V30 68926 H 3901.86 -0.289041 -8.15388 0
M  V30 68927 P 3897.9 -1.17771 -8.83182 0
M  V30 68928 O 3897.68 -2.07206 -9.98732 0
M  V30 68929 O 3897.11 0.0743816 -8.81969 0
M  V30 68930 O 3897.65 -1.97652 -7.47304 0
M  V30 68931 C 3898.59 -3.01133 -7.08783 0
M  V30 68932 C 3897.86 -4.12613 -6.37049 0
M  V30 68933 O 3897.65 -3.72827 -4.97879 0
M  V30 68934 C 3896.46 -4.45085 -6.88694 0
M  V30 68935 O 3896.07 -5.7877 -6.5624 0
M  V30 68936 C 3895.58 -3.47817 -6.12078 0
M  V30 68937 C 3896.29 -3.39414 -4.77697 0
M  V30 68938 N 3896.24 -2.04615 -4.15333 0
M  V30 68939 H 3899.08 -3.41248 -7.98759 0
M  V30 68940 H 3899.35 -2.5837 -6.41742 0
M  V30 68941 H 3898.48 -5.02657 -6.42673 0
M  V30 68942 P 3894.52 -6.144 -6.45285 0
M  V30 68943 O 3894.3 -7.54673 -6.86199 0
M  V30 68944 O 3893.73 -5.12391 -7.179 0
M  V30 68945 O 3894.27 -5.99158 -4.88404 0
M  V30 68946 C 3895.21 -6.60234 -3.96415 0
M  V30 68947 C 3894.48 -7.08259 -2.72856 0
M  V30 68948 O 3894.27 -5.9427 -1.83651 0
M  V30 68949 C 3893.08 -7.64886 -2.9555 0
M  V30 68950 O 3892.69 -8.53963 -1.90717 0
M  V30 68951 C 3892.2 -6.4116 -2.90739 0
M  V30 68952 C 3892.91 -5.55375 -1.86963 0
M  V30 68953 N 3892.86 -4.09664 -2.15742 0
M  V30 68954 H 3895.7 -7.45574 -4.45629 0
M  V30 68955 H 3895.97 -5.86232 -3.67314 0
M  V30 68956 H 3895.1 -7.84412 -2.24479 0
M  V30 68957 P 3891.14 -8.7635 -1.60911 0
M  V30 68958 O 3890.92 -10.1388 -1.11561 0
M  V30 68959 O 3890.35 -8.36503 -2.79617 0
M  V30 68960 O 3890.89 -7.71806 -0.42951 0
M  V30 68961 C 3891.83 -7.67148 0.673689 0
M  V30 68962 C 3891.1 -7.33374 1.95559 0
M  V30 68963 O 3890.89 -5.88721 2.00726 0
M  V30 68964 C 3889.7 -7.92526 2.10483 0
M  V30 68965 O 3889.31 -8.02971 3.47653 0
M  V30 68966 C 3888.82 -6.89602 1.41652 0
M  V30 68967 C 3889.53 -5.59201 1.75185 0
M  V30 68968 N 3889.48 -4.58235 0.662552 0
M  V30 68969 H 3892.32 -8.65116 0.777161 0
M  V30 68970 H 3892.59 -6.90173 0.474152 0
M  V30 68971 H 3891.72 -7.66548 2.79458 0
M  V30 68972 P 3887.76 -8.03563 3.84925 0
M  V30 68973 O 3887.54 -8.85821 5.0569 0
M  V30 68974 O 3886.97 -8.41101 2.65469 0
M  V30 68975 O 3887.51 -6.4965 4.18908 0
M  V30 68976 C 3888.45 -5.81037 5.05421 0
M  V30 68977 C 3887.72 -4.78366 5.89277 0
M  V30 68978 O 3887.51 -3.58302 5.08433 0
M  V30 68979 C 3886.32 -5.17448 6.36119 0
M  V30 68980 O 3885.93 -4.45271 7.53232 0
M  V30 68981 C 3885.44 -4.74639 5.19936 0
M  V30 68982 C 3886.15 -3.49432 4.70418 0
M  V30 68983 N 3886.1 -3.31776 3.22945 0
M  V30 68984 H 3888.94 -6.54213 5.71376 0
M  V30 68985 H 3889.21 -5.30492 4.44033 0
M  V30 68986 H 3888.34 -4.55889 6.76652 0
M  V30 68987 P 3884.38 -4.23843 7.83734 0
M  V30 68988 O 3884.16 -4.19407 9.29784 0
M  V30 68989 O 3883.59 -5.24426 7.09156 0
M  V30 68990 O 3884.13 -2.7935 7.20758 0
M  V30 68991 C 3885.07 -1.7299 7.50419 0
M  V30 68992 C 3884.34 -0.406376 7.57911 0
M  V30 68993 O 3884.13 0.0897726 6.21935 0
M  V30 68994 C 3882.94 -0.447224 8.1878 0
M  V30 68995 O 3882.55 0.825065 8.71101 0
M  V30 68996 C 3882.06 -0.783801 6.99623 0
M  V30 68997 C 3882.77 -0.0619192 5.85967 0
M  V30 68998 N 3882.72 -0.7859 4.56281 0
M  V30 68999 H 3885.56 -1.93423 8.4679 0
M  V30 69000 H 3885.83 -1.68181 6.71046 0
M  V30 69001 H 3884.96 0.289041 8.15388 0
M  V30 69002 P 3881 1.17771 8.83182 0
M  V30 69003 O 3880.78 2.07206 9.98732 0
M  V30 69004 O 3880.21 -0.0743816 8.81969 0
M  V30 69005 O 3880.75 1.97652 7.47304 0
M  V30 69006 C 3881.69 3.01133 7.08783 0
M  V30 69007 C 3880.96 4.12613 6.37049 0
M  V30 69008 O 3880.75 3.72827 4.97879 0
M  V30 69009 C 3879.56 4.45085 6.88694 0
M  V30 69010 O 3879.17 5.7877 6.5624 0
M  V30 69011 C 3878.68 3.47817 6.12078 0
M  V30 69012 C 3879.39 3.39414 4.77697 0
M  V30 69013 N 3879.34 2.04199 4.15538 0
M  V30 69014 H 3882.18 3.41248 7.98759 0
M  V30 69015 H 3882.45 2.57728 6.42 0
M  V30 69016 H 3881.58 5.02657 6.42673 0
M  V30 69017 H 3878.93 4.11708 4.08956 0
M  V30 69018 H 3878.65 2.49626 6.61679 0
M  V30 69019 H 3877.65 3.8662 6.00862 0
M  V30 69020 H 3879.49 4.29991 7.97006 0
M  V30 69021 P 3877.62 6.144 6.45285 0
M  V30 69022 O 3877.4 7.54673 6.86199 0
M  V30 69023 O 3876.83 5.12391 7.179 0
M  V30 69024 O 3877.37 5.99158 4.88404 0
M  V30 69025 C 3878.31 6.60234 3.96415 0
M  V30 69026 C 3877.58 7.08259 2.72856 0
M  V30 69027 O 3877.37 5.9427 1.83651 0
M  V30 69028 C 3876.18 7.64886 2.9555 0
M  V30 69029 O 3875.79 8.53963 1.90717 0
M  V30 69030 C 3875.3 6.4116 2.90739 0
M  V30 69031 C 3876.01 5.55375 1.86963 0
M  V30 69032 N 3875.96 4.09448 2.16152 0
M  V30 69033 C 3876.04 3.46824 3.37593 0
M  V30 69034 N 3875.97 2.17422 3.29777 0
M  V30 69035 C 3875.82 1.93065 1.94427 0
M  V30 69036 C 3875.69 0.738053 1.20141 0
M  V30 69037 N 3875.68 -0.474256 1.74676 0
M  V30 69038 N 3875.57 0.850049 -0.13045 0
M  V30 69039 C 3875.58 2.06169 -0.676992 0
M  V30 69040 N 3875.7 3.23842 -0.101312 0
M  V30 69041 C 3875.82 3.09402 1.23122 0
M  V30 69042 H 3878.8 7.45574 4.45629 0
M  V30 69043 H 3879.07 5.85864 3.679 0
M  V30 69044 H 3878.2 7.84412 2.24479 0
M  V30 69045 H 3875.55 5.73457 0.888562 0
M  V30 69046 H 3875.27 5.90877 3.88583 0
M  V30 69047 H 3874.27 6.6596 2.58858 0
M  V30 69048 H 3876.11 8.16339 3.92049 0
M  V30 69049 H 3876.15 4.00505 4.3174 0
M  V30 69050 H 3875.77 -0.581337 2.76658 0
M  V30 69051 H 3875.58 -1.30811 1.14888 0
M  V30 69052 H 3875.47 2.08295 -1.75542 0
M  V30 69053 P 3874.24 8.7635 1.60911 0
M  V30 69054 O 3874.02 10.1388 1.11561 0
M  V30 69055 O 3873.45 8.36503 2.79617 0
M  V30 69056 O 3873.99 7.71806 0.42951 0
M  V30 69057 C 3874.93 7.67148 -0.673689 0
M  V30 69058 C 3874.2 7.33374 -1.95559 0
M  V30 69059 O 3873.99 5.88721 -2.00726 0
M  V30 69060 C 3872.8 7.92526 -2.10483 0
M  V30 69061 O 3872.41 8.02971 -3.47653 0
M  V30 69062 C 3871.92 6.89602 -1.41652 0
M  V30 69063 C 3872.63 5.59201 -1.75185 0
M  V30 69064 N 3872.58 4.58301 -0.657969 0
M  V30 69065 C 3872.66 4.79019 0.692603 0
M  V30 69066 N 3872.59 3.69736 1.38998 0
M  V30 69067 C 3872.44 2.70474 0.438135 0
M  V30 69068 C 3872.31 1.30327 0.538142 0
M  V30 69069 N 3872.3 0.64304 1.69192 0
M  V30 69070 N 3872.19 0.611027 -0.605183 0
M  V30 69071 C 3872.2 1.27002 -1.75953 0
M  V30 69072 N 3872.32 2.56038 -1.98546 0
M  V30 69073 C 3872.44 3.22681 -0.822541 0
M  V30 69074 H 3875.42 8.65116 -0.777161 0
M  V30 69075 H 3875.69 6.9022 -0.46725 0
M  V30 69076 H 3874.82 7.66548 -2.79458 0
M  V30 69077 H 3872.17 5.16165 -2.65183 0
M  V30 69078 H 3871.89 7.06433 -0.329384 0
M  V30 69079 H 3870.89 6.90926 -1.82021 0
M  V30 69080 H 3872.73 8.90873 -1.62657 0
M  V30 69081 H 3872.77 5.77785 1.13874 0
M  V30 69082 H 3872.39 1.15585 2.57991 0
M  V30 69083 H 3872.2 -0.382989 1.69835 0
M  V30 69084 H 3872.09 0.653331 -2.64449 0
M  V30 69085 P 3870.86 8.03563 -3.84925 0
M  V30 69086 O 3870.64 8.85821 -5.0569 0
M  V30 69087 O 3870.07 8.41101 -2.65469 0
M  V30 69088 O 3870.61 6.4965 -4.18908 0
M  V30 69089 C 3871.55 5.81037 -5.05421 0
M  V30 69090 C 3870.82 4.78366 -5.89277 0
M  V30 69091 O 3870.61 3.58302 -5.08433 0
M  V30 69092 C 3869.42 5.17448 -6.36119 0
M  V30 69093 O 3869.03 4.45271 -7.53232 0
M  V30 69094 C 3868.54 4.74639 -5.19936 0
M  V30 69095 C 3869.25 3.49432 -4.70418 0
M  V30 69096 N 3869.2 3.32099 -3.22613 0
M  V30 69097 H 3872.04 6.54213 -5.71376 0
M  V30 69098 H 3872.31 5.30936 -4.43503 0
M  V30 69099 H 3871.44 4.55889 -6.76652 0
M  V30 69100 H 3868.79 2.61715 -5.17932 0
M  V30 69101 H 3868.51 5.52155 -4.41878 0
M  V30 69102 H 3867.51 4.51981 -5.53374 0
M  V30 69103 H 3869.35 6.25124 -6.55234 0
M  V30 69104 P 3867.48 4.23843 -7.83734 0
M  V30 69105 O 3867.26 4.19407 -9.29784 0
M  V30 69106 O 3866.69 5.24426 -7.09156 0
M  V30 69107 O 3867.23 2.7935 -7.20758 0
M  V30 69108 C 3868.17 1.7299 -7.50419 0
M  V30 69109 C 3867.44 0.406376 -7.57911 0
M  V30 69110 O 3867.23 -0.0897726 -6.21935 0
M  V30 69111 C 3866.04 0.447224 -8.1878 0
M  V30 69112 O 3865.65 -0.825065 -8.71101 0
M  V30 69113 C 3865.16 0.783801 -6.99623 0
M  V30 69114 C 3865.87 0.0619192 -5.85967 0
M  V30 69115 N 3865.82 0.790462 -4.56202 0
M  V30 69116 H 3868.66 1.93423 -8.4679 0
M  V30 69117 H 3868.93 1.68852 -6.70877 0
M  V30 69118 H 3868.06 -0.289041 -8.15388 0
M  V30 69119 H 3865.41 -0.927006 -5.72848 0
M  V30 69120 H 3865.13 1.86973 -6.82036 0
M  V30 69121 H 3864.13 0.403953 -7.13357 0
M  V30 69122 H 3865.97 1.20599 -8.97534 0
M  V30 69123 P 3864.1 -1.17771 -8.83182 0
M  V30 69124 O 3863.88 -2.07206 -9.98732 0
M  V30 69125 O 3863.31 0.0743816 -8.81969 0
M  V30 69126 O 3863.85 -1.97652 -7.47304 0
M  V30 69127 C 3864.79 -3.01133 -7.08783 0
M  V30 69128 C 3864.06 -4.12613 -6.37049 0
M  V30 69129 O 3863.85 -3.72827 -4.97879 0
M  V30 69130 C 3862.66 -4.45085 -6.88694 0
M  V30 69131 O 3862.27 -5.7877 -6.5624 0
M  V30 69132 C 3861.78 -3.47817 -6.12078 0
M  V30 69133 C 3862.49 -3.39414 -4.77697 0
M  V30 69134 N 3862.44 -2.04615 -4.15333 0
M  V30 69135 H 3865.28 -3.41248 -7.98759 0
M  V30 69136 H 3865.55 -2.5837 -6.41742 0
M  V30 69137 H 3864.68 -5.02657 -6.42673 0
M  V30 69138 P 3860.72 -6.144 -6.45285 0
M  V30 69139 O 3860.5 -7.54673 -6.86199 0
M  V30 69140 O 3859.93 -5.12391 -7.179 0
M  V30 69141 O 3860.47 -5.99158 -4.88404 0
M  V30 69142 C 3861.41 -6.60234 -3.96415 0
M  V30 69143 C 3860.68 -7.08259 -2.72856 0
M  V30 69144 O 3860.47 -5.9427 -1.83651 0
M  V30 69145 C 3859.28 -7.64886 -2.9555 0
M  V30 69146 O 3858.89 -8.53963 -1.90717 0
M  V30 69147 C 3858.4 -6.4116 -2.90739 0
M  V30 69148 C 3859.11 -5.55375 -1.86963 0
M  V30 69149 N 3859.06 -4.09664 -2.15742 0
M  V30 69150 H 3861.9 -7.45574 -4.45629 0
M  V30 69151 H 3862.17 -5.86232 -3.67314 0
M  V30 69152 H 3861.3 -7.84412 -2.24479 0
M  V30 69153 P 3857.34 -8.7635 -1.60911 0
M  V30 69154 O 3857.12 -10.1388 -1.11561 0
M  V30 69155 O 3856.55 -8.36503 -2.79617 0
M  V30 69156 O 3857.09 -7.71806 -0.42951 0
M  V30 69157 C 3858.03 -7.67148 0.673689 0
M  V30 69158 C 3857.3 -7.33374 1.95559 0
M  V30 69159 O 3857.09 -5.88721 2.00726 0
M  V30 69160 C 3855.9 -7.92526 2.10483 0
M  V30 69161 O 3855.51 -8.02971 3.47653 0
M  V30 69162 C 3855.02 -6.89602 1.41652 0
M  V30 69163 C 3855.73 -5.59201 1.75185 0
M  V30 69164 N 3855.68 -4.58301 0.657969 0
M  V30 69165 H 3858.52 -8.65116 0.777161 0
M  V30 69166 H 3858.79 -6.9022 0.46725 0
M  V30 69167 H 3857.92 -7.66548 2.79458 0
M  V30 69168 H 3855.27 -5.16165 2.65183 0
M  V30 69169 H 3854.99 -7.06433 0.329384 0
M  V30 69170 H 3853.99 -6.90926 1.82021 0
M  V30 69171 H 3855.83 -8.90873 1.62657 0
M  V30 69172 P 3853.96 -8.03563 3.84925 0
M  V30 69173 O 3853.74 -8.85821 5.0569 0
M  V30 69174 O 3853.17 -8.41101 2.65469 0
M  V30 69175 O 3853.71 -6.4965 4.18908 0
M  V30 69176 C 3854.65 -5.80886 5.05289 0
M  V30 69177 C 3853.92 -4.78366 5.89277 0
M  V30 69178 O 3853.71 -3.58302 5.08433 0
M  V30 69179 C 3852.52 -5.16748 6.36559 0
M  V30 69180 O 3852.13 -4.45271 7.53232 0
M  V30 69181 C 3851.64 -4.74572 5.19863 0
M  V30 69182 C 3852.35 -3.49373 4.70338 0
M  V30 69183 N 3852.3 -3.31704 3.22876 0
M  V30 69184 C 3852.15 -2.03326 2.74871 0
M  V30 69185 O 3852.06 -1.06486 3.48076 0
M  V30 69186 N 3852.11 -1.91838 1.37456 0
M  V30 69187 C 3852.2 -2.94295 0.462035 0
M  V30 69188 O 3852.15 -2.71763 -0.752928 0
M  V30 69189 C 3852.35 -4.25064 1.05249 0
M  V30 69190 C 3852.46 -5.39815 0.095697 0
M  V30 69191 C 3852.4 -4.40214 2.39192 0
M  V30 69192 H 3855.14 -6.54063 5.71245 0
M  V30 69193 H 3855.41 -5.30339 4.43905 0
M  V30 69194 H 3854.54 -4.55889 6.76652 0
M  V30 69195 H 3851.89 -2.6167 5.17842 0
M  V30 69196 H 3851.61 -5.52155 4.41878 0
M  V30 69197 H 3850.61 -4.51918 5.53297 0
M  V30 69198 H 3852.45 -6.25055 6.55162 0
M  V30 69199 H 3852.52 -5.39798 2.81523 0
M  V30 69200 H 3851.49 -5.91593 0.0279582 0
M  V30 69201 H 3853.23 -6.10038 0.450573 0
M  V30 69202 H 3852.74 -5.02007 -0.89937 0
M  V30 69203 H 3852 -0.995326 1.00435 0
M  V30 69204 P 3850.58 -4.23843 7.83734 0
M  V30 69205 O 3850.36 -4.19407 9.29784 0
M  V30 69206 O 3849.79 -5.24426 7.09156 0
M  V30 69207 O 3850.33 -2.7935 7.20758 0
M  V30 69208 C 3851.27 -1.7299 7.50419 0
M  V30 69209 C 3850.54 -0.406376 7.57911 0
M  V30 69210 O 3850.33 0.0897726 6.21935 0
M  V30 69211 C 3849.14 -0.447224 8.1878 0
M  V30 69212 O 3848.75 0.825065 8.71101 0
M  V30 69213 C 3848.26 -0.783801 6.99623 0
M  V30 69214 C 3848.97 -0.0619192 5.85967 0
M  V30 69215 N 3848.92 -0.7859 4.56281 0
M  V30 69216 C 3849 -2.14308 4.31736 0
M  V30 69217 N 3848.92 -2.46106 3.05116 0
M  V30 69218 C 3848.78 -1.23422 2.4014 0
M  V30 69219 C 3848.65 -0.938381 1.02409 0
M  V30 69220 N 3848.53 0.444647 0.805413 0
M  V30 69221 C 3848.53 1.40829 1.79435 0
M  V30 69222 N 3848.4 2.67213 1.38558 0
M  V30 69223 N 3848.66 1.12947 3.09005 0
M  V30 69224 C 3848.78 -0.204887 3.32369 0
M  V30 69225 H 3851.76 -1.93423 8.4679 0
M  V30 69226 H 3852.03 -1.68181 6.71046 0
M  V30 69227 H 3851.16 0.289041 8.15388 0
M  V30 69228 P 3847.2 1.17771 8.83182 0
M  V30 69229 O 3846.98 2.07206 9.98732 0
M  V30 69230 O 3846.41 -0.0743816 8.81969 0
M  V30 69231 O 3846.95 1.97652 7.47304 0
M  V30 69232 C 3847.89 3.01133 7.08783 0
M  V30 69233 C 3847.16 4.12613 6.37049 0
M  V30 69234 O 3846.95 3.72827 4.97879 0
M  V30 69235 C 3845.76 4.45085 6.88694 0
M  V30 69236 O 3845.37 5.7877 6.5624 0
M  V30 69237 C 3844.88 3.47817 6.12078 0
M  V30 69238 C 3845.59 3.39414 4.77697 0
M  V30 69239 N 3845.54 2.04615 4.15333 0
M  V30 69240 H 3848.38 3.41248 7.98759 0
M  V30 69241 H 3848.65 2.5837 6.41742 0
M  V30 69242 H 3847.78 5.02657 6.42673 0
M  V30 69243 P 3843.82 6.144 6.45285 0
M  V30 69244 O 3843.6 7.54673 6.86199 0
M  V30 69245 O 3843.03 5.12391 7.179 0
M  V30 69246 O 3843.57 5.99236 4.88467 0
M  V30 69247 C 3844.51 6.60234 3.96415 0
M  V30 69248 C 3843.78 7.08079 2.736 0
M  V30 69249 O 3843.57 5.94365 1.8368 0
M  V30 69250 C 3842.38 7.64886 2.9555 0
M  V30 69251 O 3841.99 8.5406 1.90739 0
M  V30 69252 C 3841.5 6.4116 2.90739 0
M  V30 69253 C 3842.21 5.55375 1.86963 0
M  V30 69254 N 3842.16 4.09664 2.15742 0
M  V30 69255 C 3842.01 3.22231 1.08477 0
M  V30 69256 O 3841.92 3.68951 -0.0600489 0
M  V30 69257 N 3841.96 1.76692 1.48799 0
M  V30 69258 C 3842.06 1.41695 2.57602 0
M  V30 69259 N 3842.01 0.107296 2.75791 0
M  V30 69260 C 3842.21 2.29178 3.69733 0
M  V30 69261 C 3842.26 3.62753 3.42653 0
M  V30 69262 H 3845 7.45488 4.45578 0
M  V30 69263 H 3845.27 5.86232 3.67314 0
M  V30 69264 H 3844.4 7.84508 2.24507 0
M  V30 69265 H 3841.75 5.73556 0.888715 0
M  V30 69266 H 3841.47 5.9096 3.88638 0
M  V30 69267 H 3840.47 6.66053 2.58894 0
M  V30 69268 H 3842.31 8.16339 3.92049 0
M  V30 69269 H 3842.38 4.33052 4.24913 0
M  V30 69270 H 3842.28 1.9103 4.71577 0
M  V30 69271 H 3841.89 -0.521221 1.95056 0
M  V30 69272 H 3842.09 -0.286429 3.70695 0
M  V30 69273 P 3840.44 8.7635 1.60911 0
M  V30 69274 O 3840.22 10.1388 1.11561 0
M  V30 69275 O 3839.65 8.36503 2.79617 0
M  V30 69276 O 3840.19 7.71806 0.42951 0
M  V30 69277 C 3841.13 7.67148 -0.673689 0
M  V30 69278 C 3840.4 7.33374 -1.95559 0
M  V30 69279 O 3840.19 5.88721 -2.00726 0
M  V30 69280 C 3839 7.92526 -2.10483 0
M  V30 69281 O 3838.61 8.02971 -3.47653 0
M  V30 69282 C 3838.12 6.89602 -1.41652 0
M  V30 69283 C 3838.83 5.59201 -1.75185 0
M  V30 69284 N 3838.78 4.58235 -0.662552 0
M  V30 69285 H 3841.62 8.65116 -0.777161 0
M  V30 69286 H 3841.89 6.90173 -0.474152 0
M  V30 69287 H 3841.02 7.66548 -2.79458 0
M  V30 69288 P 3837.06 8.03563 -3.84925 0
M  V30 69289 O 3836.84 8.85821 -5.0569 0
M  V30 69290 O 3836.27 8.41101 -2.65469 0
M  V30 69291 O 3836.81 6.49734 -4.18962 0
M  V30 69292 C 3837.75 5.81037 -5.05421 0
M  V30 69293 C 3837.02 4.79018 -5.88876 0
M  V30 69294 O 3836.81 3.58359 -5.08515 0
M  V30 69295 C 3835.62 5.17448 -6.36119 0
M  V30 69296 O 3835.23 4.45322 -7.53318 0
M  V30 69297 C 3834.74 4.74639 -5.19936 0
M  V30 69298 C 3835.45 3.49432 -4.70418 0
M  V30 69299 N 3835.4 3.31776 -3.22945 0
M  V30 69300 C 3835.25 2.02742 -2.72939 0
M  V30 69301 O 3835.16 1.08301 -3.52749 0
M  V30 69302 N 3835.2 1.96117 -1.22063 0
M  V30 69303 C 3835.3 2.8878 -0.551566 0
M  V30 69304 N 3835.25 2.65609 0.750198 0
M  V30 69305 C 3835.45 4.22457 -1.03707 0
M  V30 69306 C 3835.5 4.37979 -2.39113 0
M  V30 69307 H 3838.24 6.54138 -5.7131 0
M  V30 69308 H 3838.51 5.30492 -4.44033 0
M  V30 69309 H 3837.64 4.55945 -6.76735 0
M  V30 69310 H 3834.99 2.6176 -5.18021 0
M  V30 69311 H 3834.71 5.52233 -4.41941 0
M  V30 69312 H 3833.71 4.52045 -5.53452 0
M  V30 69313 H 3835.55 6.25124 -6.55234 0
M  V30 69314 H 3835.62 5.37936 -2.80552 0
M  V30 69315 H 3835.52 5.07528 -0.359553 0
M  V30 69316 H 3835.13 1.69403 1.09847 0
M  V30 69317 H 3835.33 3.43701 1.41792 0
M  V30 69318 P 3833.68 4.23843 -7.83734 0
M  V30 69319 O 3833.46 4.19407 -9.29784 0
M  V30 69320 O 3832.89 5.24426 -7.09156 0
M  V30 69321 O 3833.43 2.7935 -7.20758 0
M  V30 69322 C 3834.37 1.7299 -7.50419 0
M  V30 69323 C 3833.64 0.406376 -7.57911 0
M  V30 69324 O 3833.43 -0.0897726 -6.21935 0
M  V30 69325 C 3832.24 0.447224 -8.1878 0
M  V30 69326 O 3831.85 -0.825065 -8.71101 0
M  V30 69327 C 3831.36 0.783801 -6.99623 0
M  V30 69328 C 3832.07 0.0619192 -5.85967 0
M  V30 69329 N 3832.02 0.790462 -4.56202 0
M  V30 69330 H 3834.86 1.93423 -8.4679 0
M  V30 69331 H 3835.13 1.68852 -6.70877 0
M  V30 69332 H 3834.26 -0.289041 -8.15388 0
M  V30 69333 H 3831.61 -0.927006 -5.72848 0
M  V30 69334 H 3831.33 1.86973 -6.82036 0
M  V30 69335 H 3830.33 0.403953 -7.13357 0
M  V30 69336 H 3832.17 1.20599 -8.97534 0
M  V30 69337 P 3830.3 -1.17771 -8.83182 0
M  V30 69338 O 3830.08 -2.07206 -9.98732 0
M  V30 69339 O 3829.51 0.0743816 -8.81969 0
M  V30 69340 O 3830.05 -1.97652 -7.47304 0
M  V30 69341 C 3830.99 -3.01133 -7.08783 0
M  V30 69342 C 3830.26 -4.12613 -6.37049 0
M  V30 69343 O 3830.05 -3.72827 -4.97879 0
M  V30 69344 C 3828.86 -4.45085 -6.88694 0
M  V30 69345 O 3828.47 -5.7877 -6.5624 0
M  V30 69346 C 3827.98 -3.47817 -6.12078 0
M  V30 69347 C 3828.69 -3.39414 -4.77697 0
M  V30 69348 N 3828.64 -2.04199 -4.15538 0
M  V30 69349 H 3831.48 -3.41248 -7.98759 0
M  V30 69350 H 3831.75 -2.57728 -6.42 0
M  V30 69351 H 3830.88 -5.02657 -6.42673 0
M  V30 69352 H 3828.23 -4.11708 -4.08956 0
M  V30 69353 H 3827.95 -2.49626 -6.61679 0
M  V30 69354 H 3826.95 -3.8662 -6.00862 0
M  V30 69355 H 3828.79 -4.29991 -7.97006 0
M  V30 69356 P 3826.92 -6.144 -6.45285 0
M  V30 69357 O 3826.7 -7.54673 -6.86199 0
M  V30 69358 O 3826.13 -5.12391 -7.179 0
M  V30 69359 O 3826.67 -5.99158 -4.88404 0
M  V30 69360 C 3827.61 -6.60234 -3.96415 0
M  V30 69361 C 3826.88 -7.08259 -2.72856 0
M  V30 69362 O 3826.67 -5.9427 -1.83651 0
M  V30 69363 C 3825.48 -7.64886 -2.9555 0
M  V30 69364 O 3825.09 -8.53963 -1.90717 0
M  V30 69365 C 3824.6 -6.4116 -2.90739 0
M  V30 69366 C 3825.31 -5.55375 -1.86963 0
M  V30 69367 N 3825.26 -4.09448 -2.16152 0
M  V30 69368 C 3825.34 -3.46824 -3.37593 0
M  V30 69369 N 3825.27 -2.17422 -3.29777 0
M  V30 69370 C 3825.12 -1.93065 -1.94427 0
M  V30 69371 C 3824.99 -0.738053 -1.20141 0
M  V30 69372 N 3824.98 0.474256 -1.74676 0
M  V30 69373 N 3824.87 -0.850049 0.13045 0
M  V30 69374 C 3824.88 -2.06169 0.676992 0
M  V30 69375 N 3825 -3.23842 0.101312 0
M  V30 69376 C 3825.12 -3.09402 -1.23122 0
M  V30 69377 H 3828.1 -7.45574 -4.45629 0
M  V30 69378 H 3828.37 -5.85864 -3.679 0
M  V30 69379 H 3827.5 -7.84412 -2.24479 0
M  V30 69380 H 3824.85 -5.73457 -0.888562 0
M  V30 69381 H 3824.57 -5.90877 -3.88583 0
M  V30 69382 H 3823.57 -6.6596 -2.58858 0
M  V30 69383 H 3825.41 -8.16339 -3.92049 0
M  V30 69384 H 3825.45 -4.00505 -4.3174 0
M  V30 69385 H 3825.07 0.581337 -2.76658 0
M  V30 69386 H 3824.88 1.30811 -1.14888 0
M  V30 69387 H 3824.77 -2.08295 1.75542 0
M  V30 69388 P 3823.54 -8.7635 -1.60911 0
M  V30 69389 O 3823.32 -10.1388 -1.11561 0
M  V30 69390 O 3822.75 -8.36503 -2.79617 0
M  V30 69391 O 3823.29 -7.71806 -0.42951 0
M  V30 69392 C 3824.23 -7.67148 0.673689 0
M  V30 69393 C 3823.5 -7.33374 1.95559 0
M  V30 69394 O 3823.29 -5.88721 2.00726 0
M  V30 69395 C 3822.1 -7.92526 2.10483 0
M  V30 69396 O 3821.71 -8.02971 3.47653 0
M  V30 69397 C 3821.22 -6.89602 1.41652 0
M  V30 69398 C 3821.93 -5.59201 1.75185 0
M  V30 69399 N 3821.88 -4.58235 0.662552 0
M  V30 69400 H 3824.72 -8.65116 0.777161 0
M  V30 69401 H 3824.99 -6.90173 0.474152 0
M  V30 69402 H 3824.12 -7.66548 2.79458 0
M  V30 69403 P 3820.16 -8.03563 3.84925 0
M  V30 69404 O 3819.94 -8.85821 5.0569 0
M  V30 69405 O 3819.37 -8.41101 2.65469 0
M  V30 69406 O 3819.91 -6.4965 4.18908 0
M  V30 69407 C 3820.85 -5.80886 5.05289 0
M  V30 69408 C 3820.12 -4.78366 5.89277 0
M  V30 69409 O 3819.91 -3.58302 5.08433 0
M  V30 69410 C 3818.72 -5.16748 6.36559 0
M  V30 69411 O 3818.33 -4.45271 7.53232 0
M  V30 69412 C 3817.84 -4.74572 5.19863 0
M  V30 69413 C 3818.55 -3.49373 4.70338 0
M  V30 69414 N 3818.5 -3.31704 3.22876 0
M  V30 69415 C 3818.35 -2.03326 2.74871 0
M  V30 69416 O 3818.26 -1.06486 3.48076 0
M  V30 69417 N 3818.31 -1.91838 1.37456 0
M  V30 69418 C 3818.4 -2.94295 0.462035 0
M  V30 69419 O 3818.35 -2.71763 -0.752928 0
M  V30 69420 C 3818.55 -4.25064 1.05249 0
M  V30 69421 C 3818.66 -5.39815 0.095697 0
M  V30 69422 C 3818.6 -4.40214 2.39192 0
M  V30 69423 H 3821.34 -6.54063 5.71245 0
M  V30 69424 H 3821.61 -5.30339 4.43905 0
M  V30 69425 H 3820.74 -4.55889 6.76652 0
M  V30 69426 H 3818.09 -2.6167 5.17842 0
M  V30 69427 H 3817.81 -5.52155 4.41878 0
M  V30 69428 H 3816.81 -4.51918 5.53297 0
M  V30 69429 H 3818.65 -6.25055 6.55162 0
M  V30 69430 H 3818.72 -5.39798 2.81523 0
M  V30 69431 H 3817.69 -5.91593 0.0279582 0
M  V30 69432 H 3819.43 -6.10038 0.450573 0
M  V30 69433 H 3818.94 -5.02007 -0.89937 0
M  V30 69434 H 3818.2 -0.995326 1.00435 0
M  V30 69435 P 3816.78 -4.23843 7.83734 0
M  V30 69436 O 3816.56 -4.19407 9.29784 0
M  V30 69437 O 3815.99 -5.24426 7.09156 0
M  V30 69438 O 3816.53 -2.7935 7.20758 0
M  V30 69439 C 3817.47 -1.72945 7.50224 0
M  V30 69440 C 3816.74 -0.406376 7.57911 0
M  V30 69441 O 3816.53 0.0897726 6.21935 0
M  V30 69442 C 3815.34 -0.438983 8.18724 0
M  V30 69443 O 3814.95 0.825065 8.71101 0
M  V30 69444 C 3814.46 -0.783689 6.99524 0
M  V30 69445 C 3815.17 -0.0619086 5.85867 0
M  V30 69446 N 3815.12 -0.78573 4.56183 0
M  V30 69447 C 3814.97 -0.0292889 3.41887 0
M  V30 69448 O 3814.88 1.18445 3.4419 0
M  V30 69449 N 3814.93 -0.744061 2.23964 0
M  V30 69450 C 3815.02 -2.10932 2.10362 0
M  V30 69451 C 3815.17 -2.8202 3.34994 0
M  V30 69452 C 3815.22 -2.15547 4.52261 0
M  V30 69453 H 3817.96 -1.93379 8.46595 0
M  V30 69454 H 3818.23 -1.68132 6.70852 0
M  V30 69455 H 3817.36 0.289041 8.15388 0
M  V30 69456 H 3814.71 0.926847 5.72749 0
M  V30 69457 H 3814.43 -1.86973 6.82036 0
M  V30 69458 H 3813.43 -0.403896 7.13257 0
M  V30 69459 H 3815.27 -1.20585 8.97435 0
M  V30 69460 H 3815.34 -2.71231 5.45042 0
M  V30 69461 P 3813.4 1.17771 8.83182 0
M  V30 69462 O 3813.18 2.07206 9.98732 0
M  V30 69463 O 3812.61 -0.0743816 8.81969 0
M  V30 69464 O 3813.15 1.97652 7.47304 0
M  V30 69465 C 3814.09 3.01133 7.08783 0
M  V30 69466 C 3813.36 4.12613 6.37049 0
M  V30 69467 O 3813.15 3.72827 4.97879 0
M  V30 69468 C 3811.96 4.45085 6.88694 0
M  V30 69469 O 3811.57 5.7877 6.5624 0
M  V30 69470 C 3811.08 3.47817 6.12078 0
M  V30 69471 C 3811.79 3.39414 4.77697 0
M  V30 69472 N 3811.74 2.04615 4.15333 0
M  V30 69473 H 3814.58 3.41248 7.98759 0
M  V30 69474 H 3814.85 2.5837 6.41742 0
M  V30 69475 H 3813.98 5.02657 6.42673 0
M  V30 69476 P 3810.02 6.144 6.45285 0
M  V30 69477 O 3809.8 7.54673 6.86199 0
M  V30 69478 O 3809.23 5.12391 7.179 0
M  V30 69479 O 3809.77 5.99158 4.88404 0
M  V30 69480 C 3810.71 6.60234 3.96415 0
M  V30 69481 C 3809.98 7.08259 2.72856 0
M  V30 69482 O 3809.77 5.9427 1.83651 0
M  V30 69483 C 3808.58 7.64886 2.9555 0
M  V30 69484 O 3808.19 8.53963 1.90717 0
M  V30 69485 C 3807.7 6.4116 2.90739 0
M  V30 69486 C 3808.41 5.55375 1.86963 0
M  V30 69487 N 3808.36 4.09664 2.15742 0
M  V30 69488 H 3811.2 7.45574 4.45629 0
M  V30 69489 H 3811.47 5.86232 3.67314 0
M  V30 69490 H 3810.6 7.84412 2.24479 0
M  V30 69491 P 3806.64 8.7635 1.60911 0
M  V30 69492 O 3806.42 10.1388 1.11561 0
M  V30 69493 O 3805.85 8.36503 2.79617 0
M  V30 69494 O 3806.39 7.71806 0.42951 0
M  V30 69495 C 3807.33 7.67148 -0.673689 0
M  V30 69496 C 3806.6 7.33374 -1.95559 0
M  V30 69497 O 3806.39 5.88721 -2.00726 0
M  V30 69498 C 3805.2 7.92526 -2.10483 0
M  V30 69499 O 3804.81 8.02971 -3.47653 0
M  V30 69500 C 3804.32 6.89602 -1.41652 0
M  V30 69501 C 3805.03 5.59201 -1.75185 0
M  V30 69502 N 3804.98 4.58235 -0.662552 0
M  V30 69503 H 3807.82 8.65116 -0.777161 0
M  V30 69504 H 3808.09 6.90173 -0.474152 0
M  V30 69505 H 3807.22 7.66548 -2.79458 0
M  V30 69506 P 3803.26 8.03563 -3.84925 0
M  V30 69507 O 3803.04 8.85821 -5.0569 0
M  V30 69508 O 3802.47 8.41101 -2.65469 0
M  V30 69509 O 3803.01 6.4965 -4.18908 0
M  V30 69510 C 3803.95 5.80886 -5.05289 0
M  V30 69511 C 3803.22 4.78366 -5.89277 0
M  V30 69512 O 3803.01 3.58302 -5.08433 0
M  V30 69513 C 3801.82 5.16748 -6.36559 0
M  V30 69514 O 3801.43 4.45271 -7.53232 0
M  V30 69515 C 3800.94 4.74572 -5.19863 0
M  V30 69516 C 3801.65 3.49373 -4.70338 0
M  V30 69517 N 3801.6 3.31704 -3.22876 0
M  V30 69518 C 3801.45 2.03326 -2.74871 0
M  V30 69519 O 3801.36 1.06486 -3.48076 0
M  V30 69520 N 3801.41 1.91838 -1.37456 0
M  V30 69521 C 3801.5 2.94295 -0.462035 0
M  V30 69522 O 3801.45 2.71763 0.752928 0
M  V30 69523 C 3801.65 4.25064 -1.05249 0
M  V30 69524 C 3801.76 5.39815 -0.095697 0
M  V30 69525 C 3801.7 4.40214 -2.39192 0
M  V30 69526 H 3804.44 6.54063 -5.71245 0
M  V30 69527 H 3804.71 5.30339 -4.43905 0
M  V30 69528 H 3803.84 4.55889 -6.76652 0
M  V30 69529 H 3801.19 2.6167 -5.17842 0
M  V30 69530 H 3800.91 5.52155 -4.41878 0
M  V30 69531 H 3799.91 4.51918 -5.53297 0
M  V30 69532 H 3801.75 6.25055 -6.55162 0
M  V30 69533 H 3801.82 5.39798 -2.81523 0
M  V30 69534 H 3800.79 5.91593 -0.0279582 0
M  V30 69535 H 3802.53 6.10038 -0.450573 0
M  V30 69536 H 3802.04 5.02007 0.89937 0
M  V30 69537 H 3801.3 0.995326 -1.00435 0
M  V30 69538 P 3799.88 4.23843 -7.83734 0
M  V30 69539 O 3799.66 4.19407 -9.29784 0
M  V30 69540 O 3799.09 5.24426 -7.09156 0
M  V30 69541 O 3799.63 2.7935 -7.20758 0
M  V30 69542 C 3800.57 1.7299 -7.50419 0
M  V30 69543 C 3799.84 0.406376 -7.57911 0
M  V30 69544 O 3799.63 -0.0897726 -6.21935 0
M  V30 69545 C 3798.44 0.447224 -8.1878 0
M  V30 69546 O 3798.05 -0.825065 -8.71101 0
M  V30 69547 C 3797.56 0.783801 -6.99623 0
M  V30 69548 C 3798.27 0.0619192 -5.85967 0
M  V30 69549 N 3798.22 0.7859 -4.56281 0
M  V30 69550 H 3801.06 1.93423 -8.4679 0
M  V30 69551 H 3801.33 1.68181 -6.71046 0
M  V30 69552 H 3800.46 -0.289041 -8.15388 0
M  V30 69553 P 3796.5 -1.17771 -8.83182 0
M  V30 69554 O 3796.28 -2.07206 -9.98732 0
M  V30 69555 O 3795.71 0.0743816 -8.81969 0
M  V30 69556 O 3796.25 -1.97652 -7.47304 0
M  V30 69557 C 3797.19 -3.01133 -7.08783 0
M  V30 69558 C 3796.46 -4.12613 -6.37049 0
M  V30 69559 O 3796.25 -3.72827 -4.97879 0
M  V30 69560 C 3795.06 -4.45085 -6.88694 0
M  V30 69561 O 3794.67 -5.7877 -6.5624 0
M  V30 69562 C 3794.18 -3.47817 -6.12078 0
M  V30 69563 C 3794.89 -3.39414 -4.77697 0
M  V30 69564 N 3794.84 -2.04615 -4.15333 0
M  V30 69565 H 3797.68 -3.41248 -7.98759 0
M  V30 69566 H 3797.95 -2.5837 -6.41742 0
M  V30 69567 H 3797.08 -5.02657 -6.42673 0
M  V30 69568 P 3793.12 -6.144 -6.45285 0
M  V30 69569 O 3792.9 -7.54673 -6.86199 0
M  V30 69570 O 3792.33 -5.12391 -7.179 0
M  V30 69571 O 3792.87 -5.99158 -4.88404 0
M  V30 69572 C 3793.81 -6.60234 -3.96415 0
M  V30 69573 C 3793.08 -7.08259 -2.72856 0
M  V30 69574 O 3792.87 -5.9427 -1.83651 0
M  V30 69575 C 3791.68 -7.64886 -2.9555 0
M  V30 69576 O 3791.29 -8.53963 -1.90717 0
M  V30 69577 C 3790.8 -6.4116 -2.90739 0
M  V30 69578 C 3791.51 -5.55375 -1.86963 0
M  V30 69579 N 3791.46 -4.09664 -2.15742 0
M  V30 69580 C 3791.54 -3.44381 -3.37233 0
M  V30 69581 N 3791.46 -2.14131 -3.28347 0
M  V30 69582 C 3791.32 -1.90247 -1.91588 0
M  V30 69583 C 3791.19 -0.683992 -1.20892 0
M  V30 69584 O 3791.17 0.46618 -1.64523 0
M  V30 69585 N 3791.07 -0.903396 0.173998 0
M  V30 69586 C 3791.07 -2.14171 0.784879 0
M  V30 69587 N 3790.94 -2.1435 2.11317 0
M  V30 69588 N 3791.2 -3.28784 0.119316 0
M  V30 69589 C 3791.32 -3.0977 -1.22194 0
M  V30 69590 H 3794.3 -7.45574 -4.45629 0
M  V30 69591 H 3794.57 -5.86232 -3.67314 0
M  V30 69592 H 3793.7 -7.84412 -2.24479 0
M  V30 69593 H 3791.05 -5.73556 -0.888715 0
M  V30 69594 H 3790.77 -5.9096 -3.88638 0
M  V30 69595 H 3789.77 -6.66053 -2.58894 0
M  V30 69596 H 3791.61 -8.16429 -3.92093 0
M  V30 69597 H 3791.66 -3.96785 -4.32043 0
M  V30 69598 H 3790.98 -0.0999567 0.761467 0
M  V30 69599 H 3790.94 -3.03436 2.63076 0
M  V30 69600 H 3790.84 -1.25228 2.62233 0
M  V30 69601 P 3789.74 -8.7635 -1.60911 0
M  V30 69602 O 3789.52 -10.1388 -1.11561 0
M  V30 69603 O 3788.95 -8.36503 -2.79617 0
M  V30 69604 O 3789.49 -7.71806 -0.42951 0
M  V30 69605 C 3790.43 -7.66948 0.673514 0
M  V30 69606 C 3789.7 -7.33374 1.95559 0
M  V30 69607 O 3789.49 -5.88721 2.00726 0
M  V30 69608 C 3788.3 -7.92218 2.1125 0
M  V30 69609 O 3787.91 -8.02971 3.47653 0
M  V30 69610 C 3787.42 -6.89504 1.41631 0
M  V30 69611 C 3788.13 -5.59106 1.75155 0
M  V30 69612 N 3788.08 -4.58136 0.662409 0
M  V30 69613 C 3787.93 -3.26059 1.02863 0
M  V30 69614 O 3787.84 -2.90743 2.19009 0
M  V30 69615 N 3787.89 -2.35995 -0.0155585 0
M  V30 69616 C 3787.98 -2.65248 -1.35603 0
M  V30 69617 C 3788.13 -4.05747 -1.64698 0
M  V30 69618 C 3788.18 -4.96734 -0.652411 0
M  V30 69619 H 3790.92 -8.64917 0.776982 0
M  V30 69620 H 3791.19 -6.89974 0.474015 0
M  V30 69621 H 3790.32 -7.66548 2.79458 0
M  V30 69622 H 3787.67 -5.16076 2.65138 0
M  V30 69623 H 3787.39 -7.06433 0.329384 0
M  V30 69624 H 3786.39 -6.90829 1.81996 0
M  V30 69625 H 3788.23 -8.90774 1.62639 0
M  V30 69626 H 3788.3 -6.02181 -0.895285 0
M  V30 69627 P 3786.36 -8.03563 3.84925 0
M  V30 69628 O 3786.14 -8.85821 5.0569 0
M  V30 69629 O 3785.57 -8.41101 2.65469 0
M  V30 69630 O 3786.11 -6.4965 4.18908 0
M  V30 69631 C 3787.05 -5.81037 5.05421 0
M  V30 69632 C 3786.32 -4.78366 5.89277 0
M  V30 69633 O 3786.11 -3.58302 5.08433 0
M  V30 69634 C 3784.92 -5.17448 6.36119 0
M  V30 69635 O 3784.53 -4.45271 7.53232 0
M  V30 69636 C 3784.04 -4.74639 5.19936 0
M  V30 69637 C 3784.75 -3.49432 4.70418 0
M  V30 69638 N 3784.7 -3.31776 3.22945 0
M  V30 69639 H 3787.54 -6.54213 5.71376 0
M  V30 69640 H 3787.81 -5.30492 4.44033 0
M  V30 69641 H 3786.94 -4.55889 6.76652 0
M  V30 69642 P 3782.98 -4.23843 7.83734 0
M  V30 69643 O 3782.76 -4.19407 9.29784 0
M  V30 69644 O 3782.19 -5.24426 7.09156 0
M  V30 69645 O 3782.73 -2.7935 7.20758 0
M  V30 69646 C 3783.67 -1.7299 7.50419 0
M  V30 69647 C 3782.94 -0.406376 7.57911 0
M  V30 69648 O 3782.73 0.0897726 6.21935 0
M  V30 69649 C 3781.54 -0.447224 8.1878 0
M  V30 69650 O 3781.15 0.825065 8.71101 0
M  V30 69651 C 3780.66 -0.783801 6.99623 0
M  V30 69652 C 3781.37 -0.0619192 5.85967 0
M  V30 69653 N 3781.32 -0.790462 4.56202 0
M  V30 69654 H 3784.16 -1.93423 8.4679 0
M  V30 69655 H 3784.43 -1.68852 6.70877 0
M  V30 69656 H 3783.56 0.289041 8.15388 0
M  V30 69657 H 3780.91 0.927006 5.72848 0
M  V30 69658 H 3780.63 -1.86973 6.82036 0
M  V30 69659 H 3779.63 -0.403953 7.13357 0
M  V30 69660 H 3781.47 -1.20599 8.97534 0
M  V30 69661 P 3779.6 1.17771 8.83182 0
M  V30 69662 O 3779.38 2.07206 9.98732 0
M  V30 69663 O 3778.81 -0.0743816 8.81969 0
M  V30 69664 O 3779.35 1.97652 7.47304 0
M  V30 69665 C 3780.29 3.01133 7.08783 0
M  V30 69666 C 3779.56 4.12613 6.37049 0
M  V30 69667 O 3779.35 3.72827 4.97879 0
M  V30 69668 C 3778.16 4.45085 6.88694 0
M  V30 69669 O 3777.77 5.7877 6.5624 0
M  V30 69670 C 3777.28 3.47817 6.12078 0
M  V30 69671 C 3777.99 3.39414 4.77697 0
M  V30 69672 N 3777.94 2.04615 4.15333 0
M  V30 69673 H 3780.78 3.41248 7.98759 0
M  V30 69674 H 3781.05 2.5837 6.41742 0
M  V30 69675 H 3780.18 5.02657 6.42673 0
M  V30 69676 P 3776.22 6.144 6.45285 0
M  V30 69677 O 3776 7.54673 6.86199 0
M  V30 69678 O 3775.43 5.12391 7.179 0
M  V30 69679 O 3775.97 5.99236 4.88467 0
M  V30 69680 C 3776.91 6.60234 3.96415 0
M  V30 69681 C 3776.18 7.08079 2.736 0
M  V30 69682 O 3775.97 5.94365 1.8368 0
M  V30 69683 C 3774.78 7.64886 2.9555 0
M  V30 69684 O 3774.39 8.5406 1.90739 0
M  V30 69685 C 3773.9 6.4116 2.90739 0
M  V30 69686 C 3774.61 5.55375 1.86963 0
M  V30 69687 N 3774.56 4.09664 2.15742 0
M  V30 69688 C 3774.41 3.22231 1.08477 0
M  V30 69689 O 3774.32 3.68951 -0.0600489 0
M  V30 69690 N 3774.36 1.76692 1.48799 0
M  V30 69691 C 3774.46 1.41695 2.57602 0
M  V30 69692 N 3774.41 0.107296 2.75791 0
M  V30 69693 C 3774.61 2.29178 3.69733 0
M  V30 69694 C 3774.66 3.62753 3.42653 0
M  V30 69695 H 3777.4 7.45488 4.45578 0
M  V30 69696 H 3777.67 5.86232 3.67314 0
M  V30 69697 H 3776.8 7.84508 2.24507 0
M  V30 69698 H 3774.15 5.73556 0.888715 0
M  V30 69699 H 3773.87 5.9096 3.88638 0
M  V30 69700 H 3772.87 6.66053 2.58894 0
M  V30 69701 H 3774.71 8.16339 3.92049 0
M  V30 69702 H 3774.78 4.33052 4.24913 0
M  V30 69703 H 3774.68 1.9103 4.71577 0
M  V30 69704 H 3774.29 -0.521221 1.95056 0
M  V30 69705 H 3774.49 -0.286429 3.70695 0
M  V30 69706 P 3772.84 8.7635 1.60911 0
M  V30 69707 O 3772.62 10.1388 1.11561 0
M  V30 69708 O 3772.05 8.36503 2.79617 0
M  V30 69709 O 3772.59 7.71806 0.42951 0
M  V30 69710 C 3773.53 7.67148 -0.673689 0
M  V30 69711 C 3772.8 7.33374 -1.95559 0
M  V30 69712 O 3772.59 5.88721 -2.00726 0
M  V30 69713 C 3771.4 7.92526 -2.10483 0
M  V30 69714 O 3771.01 8.02971 -3.47653 0
M  V30 69715 C 3770.52 6.89602 -1.41652 0
M  V30 69716 C 3771.23 5.59201 -1.75185 0
M  V30 69717 N 3771.18 4.58235 -0.662552 0
M  V30 69718 H 3774.02 8.65116 -0.777161 0
M  V30 69719 H 3774.29 6.90173 -0.474152 0
M  V30 69720 H 3773.42 7.66548 -2.79458 0
M  V30 69721 P 3769.46 8.03563 -3.84925 0
M  V30 69722 O 3769.24 8.85821 -5.0569 0
M  V30 69723 O 3768.67 8.41101 -2.65469 0
M  V30 69724 O 3769.21 6.4965 -4.18908 0
M  V30 69725 C 3770.15 5.81037 -5.05421 0
M  V30 69726 C 3769.42 4.78366 -5.89277 0
M  V30 69727 O 3769.21 3.58302 -5.08433 0
M  V30 69728 C 3768.02 5.17448 -6.36119 0
M  V30 69729 O 3767.63 4.45271 -7.53232 0
M  V30 69730 C 3767.14 4.74639 -5.19936 0
M  V30 69731 C 3767.85 3.49432 -4.70418 0
M  V30 69732 N 3767.8 3.31776 -3.22945 0
M  V30 69733 H 3770.64 6.54213 -5.71376 0
M  V30 69734 H 3770.91 5.30492 -4.44033 0
M  V30 69735 H 3770.04 4.55889 -6.76652 0
M  V30 69736 P 3766.08 4.23843 -7.83734 0
M  V30 69737 O 3765.86 4.19407 -9.29784 0
M  V30 69738 O 3765.29 5.24426 -7.09156 0
M  V30 69739 O 3765.83 2.7935 -7.20758 0
M  V30 69740 C 3766.77 1.7299 -7.50419 0
M  V30 69741 C 3766.04 0.406376 -7.57911 0
M  V30 69742 O 3765.83 -0.0897726 -6.21935 0
M  V30 69743 C 3764.64 0.447224 -8.1878 0
M  V30 69744 O 3764.25 -0.825065 -8.71101 0
M  V30 69745 C 3763.76 0.783801 -6.99623 0
M  V30 69746 C 3764.47 0.0619192 -5.85967 0
M  V30 69747 N 3764.42 0.7859 -4.56281 0
M  V30 69748 H 3767.26 1.93423 -8.4679 0
M  V30 69749 H 3767.53 1.68181 -6.71046 0
M  V30 69750 H 3766.66 -0.289041 -8.15388 0
M  V30 69751 P 3762.7 -1.17771 -8.83182 0
M  V30 69752 O 3762.48 -2.07206 -9.98732 0
M  V30 69753 O 3761.91 0.0743816 -8.81969 0
M  V30 69754 O 3762.45 -1.97652 -7.47304 0
M  V30 69755 C 3763.39 -3.01133 -7.08783 0
M  V30 69756 C 3762.66 -4.12613 -6.37049 0
M  V30 69757 O 3762.45 -3.72827 -4.97879 0
M  V30 69758 C 3761.26 -4.45085 -6.88694 0
M  V30 69759 O 3760.87 -5.7877 -6.5624 0
M  V30 69760 C 3760.38 -3.47817 -6.12078 0
M  V30 69761 C 3761.09 -3.39414 -4.77697 0
M  V30 69762 N 3761.04 -2.04615 -4.15333 0
M  V30 69763 H 3763.88 -3.41248 -7.98759 0
M  V30 69764 H 3764.15 -2.5837 -6.41742 0
M  V30 69765 H 3763.28 -5.02657 -6.42673 0
M  V30 69766 P 3759.32 -6.144 -6.45285 0
M  V30 69767 O 3759.1 -7.54673 -6.86199 0
M  V30 69768 O 3758.53 -5.12391 -7.179 0
M  V30 69769 O 3759.07 -5.99158 -4.88404 0
M  V30 69770 C 3760.01 -6.60234 -3.96415 0
M  V30 69771 C 3759.28 -7.08259 -2.72856 0
M  V30 69772 O 3759.07 -5.9427 -1.83651 0
M  V30 69773 C 3757.88 -7.64886 -2.9555 0
M  V30 69774 O 3757.49 -8.53963 -1.90717 0
M  V30 69775 C 3757 -6.4116 -2.90739 0
M  V30 69776 C 3757.71 -5.55375 -1.86963 0
M  V30 69777 N 3757.66 -4.09448 -2.16152 0
M  V30 69778 H 3760.5 -7.45574 -4.45629 0
M  V30 69779 H 3760.77 -5.85864 -3.679 0
M  V30 69780 H 3759.9 -7.84412 -2.24479 0
M  V30 69781 H 3757.25 -5.73457 -0.888562 0
M  V30 69782 H 3756.97 -5.90877 -3.88583 0
M  V30 69783 H 3755.97 -6.6596 -2.58858 0
M  V30 69784 H 3757.81 -8.16339 -3.92049 0
M  V30 69785 P 3755.94 -8.7635 -1.60911 0
M  V30 69786 O 3755.72 -10.1388 -1.11561 0
M  V30 69787 O 3755.15 -8.36503 -2.79617 0
M  V30 69788 O 3755.69 -7.71806 -0.42951 0
M  V30 69789 C 3756.63 -7.67148 0.673689 0
M  V30 69790 C 3755.9 -7.33374 1.95559 0
M  V30 69791 O 3755.69 -5.88721 2.00726 0
M  V30 69792 C 3754.5 -7.92526 2.10483 0
M  V30 69793 O 3754.11 -8.02971 3.47653 0
M  V30 69794 C 3753.62 -6.89602 1.41652 0
M  V30 69795 C 3754.33 -5.59201 1.75185 0
M  V30 69796 N 3754.28 -4.58235 0.662552 0
M  V30 69797 H 3757.12 -8.65116 0.777161 0
M  V30 69798 H 3757.39 -6.90173 0.474152 0
M  V30 69799 H 3756.52 -7.66548 2.79458 0
M  V30 69800 P 3752.56 -8.03563 3.84925 0
M  V30 69801 O 3752.34 -8.85821 5.0569 0
M  V30 69802 O 3751.77 -8.41101 2.65469 0
M  V30 69803 O 3752.31 -6.4965 4.18908 0
M  V30 69804 C 3753.25 -5.81037 5.05421 0
M  V30 69805 C 3752.52 -4.78366 5.89277 0
M  V30 69806 O 3752.31 -3.58302 5.08433 0
M  V30 69807 C 3751.12 -5.17448 6.36119 0
M  V30 69808 O 3750.73 -4.45271 7.53232 0
M  V30 69809 C 3750.24 -4.74639 5.19936 0
M  V30 69810 C 3750.95 -3.49432 4.70418 0
M  V30 69811 N 3750.9 -3.31776 3.22945 0
M  V30 69812 H 3753.74 -6.54213 5.71376 0
M  V30 69813 H 3754.01 -5.30492 4.44033 0
M  V30 69814 H 3753.14 -4.55889 6.76652 0
M  V30 69815 P 3749.18 -4.23843 7.83734 0
M  V30 69816 O 3748.96 -4.19407 9.29784 0
M  V30 69817 O 3748.39 -5.24426 7.09156 0
M  V30 69818 O 3748.93 -2.7935 7.20758 0
M  V30 69819 C 3749.87 -1.7299 7.50419 0
M  V30 69820 C 3749.14 -0.406376 7.57911 0
M  V30 69821 O 3748.93 0.0897726 6.21935 0
M  V30 69822 C 3747.74 -0.447224 8.1878 0
M  V30 69823 O 3747.35 0.825065 8.71101 0
M  V30 69824 C 3746.86 -0.783801 6.99623 0
M  V30 69825 C 3747.57 -0.0619192 5.85967 0
M  V30 69826 N 3747.52 -0.790462 4.56202 0
M  V30 69827 H 3750.36 -1.93423 8.4679 0
M  V30 69828 H 3750.63 -1.68852 6.70877 0
M  V30 69829 H 3749.76 0.289041 8.15388 0
M  V30 69830 H 3747.11 0.927006 5.72848 0
M  V30 69831 H 3746.83 -1.86973 6.82036 0
M  V30 69832 H 3745.83 -0.403953 7.13357 0
M  V30 69833 H 3747.67 -1.20599 8.97534 0
M  V30 69834 P 3745.8 1.17771 8.83182 0
M  V30 69835 O 3745.58 2.07206 9.98732 0
M  V30 69836 O 3745.01 -0.0743816 8.81969 0
M  V30 69837 O 3745.55 1.97652 7.47304 0
M  V30 69838 C 3746.49 3.01133 7.08783 0
M  V30 69839 C 3745.76 4.12613 6.37049 0
M  V30 69840 O 3745.55 3.72827 4.97879 0
M  V30 69841 C 3744.36 4.45085 6.88694 0
M  V30 69842 O 3743.97 5.7877 6.5624 0
M  V30 69843 C 3743.48 3.47817 6.12078 0
M  V30 69844 C 3744.19 3.39414 4.77697 0
M  V30 69845 N 3744.14 2.04615 4.15333 0
M  V30 69846 H 3746.98 3.41248 7.98759 0
M  V30 69847 H 3747.25 2.5837 6.41742 0
M  V30 69848 H 3746.38 5.02657 6.42673 0
M  V30 69849 P 3742.42 6.144 6.45285 0
M  V30 69850 O 3742.2 7.54673 6.86199 0
M  V30 69851 O 3741.63 5.12391 7.179 0
M  V30 69852 O 3742.17 5.99158 4.88404 0
M  V30 69853 C 3743.11 6.60234 3.96415 0
M  V30 69854 C 3742.38 7.08259 2.72856 0
M  V30 69855 O 3742.17 5.9427 1.83651 0
M  V30 69856 C 3740.98 7.64886 2.9555 0
M  V30 69857 O 3740.59 8.53963 1.90717 0
M  V30 69858 C 3740.1 6.4116 2.90739 0
M  V30 69859 C 3740.81 5.55375 1.86963 0
M  V30 69860 N 3740.76 4.09448 2.16152 0
M  V30 69861 C 3740.84 3.46824 3.37593 0
M  V30 69862 N 3740.77 2.17422 3.29777 0
M  V30 69863 C 3740.62 1.93065 1.94427 0
M  V30 69864 C 3740.49 0.738053 1.20141 0
M  V30 69865 N 3740.48 -0.474256 1.74676 0
M  V30 69866 N 3740.37 0.850049 -0.13045 0
M  V30 69867 C 3740.38 2.06169 -0.676992 0
M  V30 69868 N 3740.5 3.23842 -0.101312 0
M  V30 69869 C 3740.62 3.09402 1.23122 0
M  V30 69870 H 3743.6 7.45574 4.45629 0
M  V30 69871 H 3743.87 5.85864 3.679 0
M  V30 69872 H 3743 7.84412 2.24479 0
M  V30 69873 H 3740.35 5.73457 0.888562 0
M  V30 69874 H 3740.07 5.90877 3.88583 0
M  V30 69875 H 3739.07 6.6596 2.58858 0
M  V30 69876 H 3740.91 8.16339 3.92049 0
M  V30 69877 H 3740.95 4.00505 4.3174 0
M  V30 69878 H 3740.57 -0.581337 2.76658 0
M  V30 69879 H 3740.38 -1.30811 1.14888 0
M  V30 69880 H 3740.27 2.08295 -1.75542 0
M  V30 69881 P 3739.04 8.7635 1.60911 0
M  V30 69882 O 3738.82 10.1388 1.11561 0
M  V30 69883 O 3738.25 8.36503 2.79617 0
M  V30 69884 O 3738.79 7.71806 0.42951 0
M  V30 69885 C 3739.73 7.67148 -0.673689 0
M  V30 69886 C 3739 7.33374 -1.95559 0
M  V30 69887 O 3738.79 5.88721 -2.00726 0
M  V30 69888 C 3737.6 7.92526 -2.10483 0
M  V30 69889 O 3737.21 8.02971 -3.47653 0
M  V30 69890 C 3736.72 6.89602 -1.41652 0
M  V30 69891 C 3737.43 5.59201 -1.75185 0
M  V30 69892 N 3737.38 4.58235 -0.662552 0
M  V30 69893 H 3740.22 8.65116 -0.777161 0
M  V30 69894 H 3740.49 6.90173 -0.474152 0
M  V30 69895 H 3739.62 7.66548 -2.79458 0
M  V30 69896 P 3735.66 8.03563 -3.84925 0
M  V30 69897 O 3735.44 8.85821 -5.0569 0
M  V30 69898 O 3734.87 8.41101 -2.65469 0
M  V30 69899 O 3735.41 6.4965 -4.18908 0
M  V30 69900 C 3736.35 5.81037 -5.05421 0
M  V30 69901 C 3735.62 4.78366 -5.89277 0
M  V30 69902 O 3735.41 3.58302 -5.08433 0
M  V30 69903 C 3734.22 5.17448 -6.36119 0
M  V30 69904 O 3733.83 4.45271 -7.53232 0
M  V30 69905 C 3733.34 4.74639 -5.19936 0
M  V30 69906 C 3734.05 3.49432 -4.70418 0
M  V30 69907 N 3734 3.31776 -3.22945 0
M  V30 69908 H 3736.84 6.54213 -5.71376 0
M  V30 69909 H 3737.11 5.30492 -4.44033 0
M  V30 69910 H 3736.24 4.55889 -6.76652 0
M  V30 69911 P 3732.28 4.23843 -7.83734 0
M  V30 69912 O 3732.06 4.19407 -9.29784 0
M  V30 69913 O 3731.49 5.24426 -7.09156 0
M  V30 69914 O 3732.03 2.7935 -7.20758 0
M  V30 69915 C 3732.97 1.7299 -7.50419 0
M  V30 69916 C 3732.24 0.406376 -7.57911 0
M  V30 69917 O 3732.03 -0.0897726 -6.21935 0
M  V30 69918 C 3730.84 0.447224 -8.1878 0
M  V30 69919 O 3730.45 -0.825065 -8.71101 0
M  V30 69920 C 3729.96 0.783801 -6.99623 0
M  V30 69921 C 3730.67 0.0619192 -5.85967 0
M  V30 69922 N 3730.62 0.7859 -4.56281 0
M  V30 69923 H 3733.46 1.93423 -8.4679 0
M  V30 69924 H 3733.73 1.68181 -6.71046 0
M  V30 69925 H 3732.86 -0.289041 -8.15388 0
M  V30 69926 P 3728.9 -1.17771 -8.83182 0
M  V30 69927 O 3728.68 -2.07206 -9.98732 0
M  V30 69928 O 3728.11 0.0743816 -8.81969 0
M  V30 69929 O 3728.65 -1.97652 -7.47304 0
M  V30 69930 C 3729.59 -3.01055 -7.08599 0
M  V30 69931 C 3728.86 -4.12613 -6.37049 0
M  V30 69932 O 3728.65 -3.72827 -4.97879 0
M  V30 69933 C 3727.46 -4.45719 -6.88164 0
M  V30 69934 O 3727.07 -5.7877 -6.5624 0
M  V30 69935 C 3726.58 -3.47768 -6.11991 0
M  V30 69936 C 3727.29 -3.39356 -4.77615 0
M  V30 69937 N 3727.24 -2.04571 -4.15244 0
M  V30 69938 C 3727.09 -1.98587 -2.78314 0
M  V30 69939 O 3727 -2.98134 -2.08835 0
M  V30 69940 N 3727.05 -0.714467 -2.24925 0
M  V30 69941 C 3727.14 0.470001 -2.94169 0
M  V30 69942 O 3727.09 1.55587 -2.35195 0
M  V30 69943 C 3727.29 0.312541 -4.36783 0
M  V30 69944 C 3727.4 1.57711 -5.16352 0
M  V30 69945 C 3727.34 -0.914512 -4.92583 0
M  V30 69946 H 3730.08 -3.41169 -7.98575 0
M  V30 69947 H 3730.35 -2.58295 -6.41556 0
M  V30 69948 H 3729.48 -5.02657 -6.42673 0
M  V30 69949 H 3726.83 -4.11637 -4.08885 0
M  V30 69950 H 3726.55 -2.49626 -6.61679 0
M  V30 69951 H 3725.55 -3.86566 -6.00778 0
M  V30 69952 H 3727.39 -4.29943 -7.96918 0
M  V30 69953 H 3727.46 -1.00937 -6.00374 0
M  V30 69954 H 3726.43 1.80153 -5.63503 0
M  V30 69955 H 3728.17 1.4566 -5.94104 0
M  V30 69956 H 3727.68 2.40664 -4.49645 0
M  V30 69957 H 3726.94 -0.647622 -1.25697 0
M  V30 69958 P 3725.52 -6.144 -6.45285 0
M  V30 69959 O 3725.3 -7.54673 -6.86199 0
M  V30 69960 O 3724.73 -5.12391 -7.179 0
M  V30 69961 O 3725.27 -5.99158 -4.88404 0
M  V30 69962 C 3726.21 -6.60234 -3.96415 0
M  V30 69963 C 3725.48 -7.08259 -2.72856 0
M  V30 69964 O 3725.27 -5.9427 -1.83651 0
M  V30 69965 C 3724.08 -7.64886 -2.9555 0
M  V30 69966 O 3723.69 -8.53963 -1.90717 0
M  V30 69967 C 3723.2 -6.4116 -2.90739 0
M  V30 69968 C 3723.91 -5.55375 -1.86963 0
M  V30 69969 N 3723.86 -4.09664 -2.15742 0
M  V30 69970 H 3726.7 -7.45574 -4.45629 0
M  V30 69971 H 3726.97 -5.86232 -3.67314 0
M  V30 69972 H 3726.1 -7.84412 -2.24479 0
M  V30 69973 P 3722.14 -8.7635 -1.60911 0
M  V30 69974 O 3721.92 -10.1388 -1.11561 0
M  V30 69975 O 3721.35 -8.36503 -2.79617 0
M  V30 69976 O 3721.89 -7.71806 -0.42951 0
M  V30 69977 C 3722.83 -7.67148 0.673689 0
M  V30 69978 C 3722.1 -7.33374 1.95559 0
M  V30 69979 O 3721.89 -5.88721 2.00726 0
M  V30 69980 C 3720.7 -7.92526 2.10483 0
M  V30 69981 O 3720.31 -8.02971 3.47653 0
M  V30 69982 C 3719.82 -6.89602 1.41652 0
M  V30 69983 C 3720.53 -5.59201 1.75185 0
M  V30 69984 N 3720.48 -4.58235 0.662552 0
M  V30 69985 H 3723.32 -8.65116 0.777161 0
M  V30 69986 H 3723.59 -6.90173 0.474152 0
M  V30 69987 H 3722.72 -7.66548 2.79458 0
M  V30 69988 P 3718.76 -8.03563 3.84925 0
M  V30 69989 O 3718.54 -8.85821 5.0569 0
M  V30 69990 O 3717.97 -8.41101 2.65469 0
M  V30 69991 O 3718.51 -6.4965 4.18908 0
M  V30 69992 C 3719.45 -5.81037 5.05421 0
M  V30 69993 C 3718.72 -4.78366 5.89277 0
M  V30 69994 O 3718.51 -3.58302 5.08433 0
M  V30 69995 C 3717.32 -5.17448 6.36119 0
M  V30 69996 O 3716.93 -4.45271 7.53232 0
M  V30 69997 C 3716.44 -4.74639 5.19936 0
M  V30 69998 C 3717.15 -3.49432 4.70418 0
M  V30 69999 N 3717.1 -3.32099 3.22613 0
M  V30 70000 H 3719.94 -6.54213 5.71376 0
M  V30 70001 H 3720.21 -5.30936 4.43503 0
M  V30 70002 H 3719.34 -4.55889 6.76652 0
M  V30 70003 H 3716.69 -2.61715 5.17932 0
M  V30 70004 H 3716.41 -5.52155 4.41878 0
M  V30 70005 H 3715.42 -4.51981 5.53374 0
M  V30 70006 H 3717.25 -6.25124 6.55234 0
M  V30 70007 P 3715.38 -4.23843 7.83734 0
M  V30 70008 O 3715.16 -4.19407 9.29784 0
M  V30 70009 O 3714.59 -5.24426 7.09156 0
M  V30 70010 O 3715.13 -2.7935 7.20758 0
M  V30 70011 C 3716.07 -1.7299 7.50419 0
M  V30 70012 C 3715.34 -0.406376 7.57911 0
M  V30 70013 O 3715.13 0.0897726 6.21935 0
M  V30 70014 C 3713.94 -0.447224 8.1878 0
M  V30 70015 O 3713.55 0.825065 8.71101 0
M  V30 70016 C 3713.06 -0.783801 6.99623 0
M  V30 70017 C 3713.77 -0.0619192 5.85967 0
M  V30 70018 N 3713.72 -0.7859 4.56281 0
M  V30 70019 H 3716.56 -1.93423 8.4679 0
M  V30 70020 H 3716.83 -1.68181 6.71046 0
M  V30 70021 H 3715.96 0.289041 8.15388 0
M  V30 70022 P 3712 1.17771 8.83182 0
M  V30 70023 O 3711.78 2.07206 9.98732 0
M  V30 70024 O 3711.21 -0.0743816 8.81969 0
M  V30 70025 O 3711.75 1.97652 7.47304 0
M  V30 70026 C 3712.69 3.01133 7.08783 0
M  V30 70027 C 3711.96 4.12613 6.37049 0
M  V30 70028 O 3711.75 3.72827 4.97879 0
M  V30 70029 C 3710.56 4.45085 6.88694 0
M  V30 70030 O 3710.17 5.7877 6.5624 0
M  V30 70031 C 3709.68 3.47817 6.12078 0
M  V30 70032 C 3710.39 3.39414 4.77697 0
M  V30 70033 N 3710.34 2.04615 4.15333 0
M  V30 70034 C 3710.42 0.803897 4.75249 0
M  V30 70035 N 3710.34 -0.197615 3.91502 0
M  V30 70036 C 3710.2 0.413002 2.66823 0
M  V30 70037 C 3710.07 -0.157221 1.38007 0
M  V30 70038 O 3710.05 -1.34419 1.057 0
M  V30 70039 N 3709.95 0.833136 0.390236 0
M  V30 70040 C 3709.95 2.19402 0.623885 0
M  V30 70041 N 3709.82 2.97622 -0.449677 0
M  V30 70042 N 3710.08 2.73005 1.83601 0
M  V30 70043 C 3710.2 1.78786 2.80935 0
M  V30 70044 H 3713.18 3.41248 7.98759 0
M  V30 70045 H 3713.45 2.5837 6.41742 0
M  V30 70046 H 3712.58 5.02657 6.42673 0
M  V30 70047 H 3709.93 4.11779 4.09026 0
M  V30 70048 H 3709.65 2.49661 6.61772 0
M  V30 70049 H 3708.66 3.86674 6.00946 0
M  V30 70050 H 3710.49 4.30038 7.97094 0
M  V30 70051 H 3710.54 0.670579 5.82754 0
M  V30 70052 H 3709.86 0.528446 -0.557287 0
M  V30 70053 H 3709.82 4.00117 -0.344773 0
M  V30 70054 H 3709.72 2.55448 -1.38544 0
M  V30 70055 P 3708.62 6.144 6.45285 0
M  V30 70056 O 3708.4 7.54673 6.86199 0
M  V30 70057 O 3707.83 5.12391 7.179 0
M  V30 70058 O 3708.37 5.99158 4.88404 0
M  V30 70059 C 3709.31 6.60234 3.96415 0
M  V30 70060 C 3708.58 7.08259 2.72856 0
M  V30 70061 O 3708.37 5.9427 1.83651 0
M  V30 70062 C 3707.18 7.64886 2.9555 0
M  V30 70063 O 3706.79 8.53963 1.90717 0
M  V30 70064 C 3706.3 6.4116 2.90739 0
M  V30 70065 C 3707.01 5.55375 1.86963 0
M  V30 70066 N 3706.96 4.09448 2.16152 0
M  V30 70067 C 3707.04 3.46824 3.37593 0
M  V30 70068 N 3706.97 2.17422 3.29777 0
M  V30 70069 C 3706.82 1.93065 1.94427 0
M  V30 70070 C 3706.69 0.738053 1.20141 0
M  V30 70071 N 3706.68 -0.474256 1.74676 0
M  V30 70072 N 3706.57 0.850049 -0.13045 0
M  V30 70073 C 3706.58 2.06169 -0.676992 0
M  V30 70074 N 3706.7 3.23842 -0.101312 0
M  V30 70075 C 3706.82 3.09402 1.23122 0
M  V30 70076 H 3709.8 7.45574 4.45629 0
M  V30 70077 H 3710.07 5.85864 3.679 0
M  V30 70078 H 3709.2 7.84412 2.24479 0
M  V30 70079 H 3706.55 5.73457 0.888562 0
M  V30 70080 H 3706.27 5.90877 3.88583 0
M  V30 70081 H 3705.28 6.6596 2.58858 0
M  V30 70082 H 3707.11 8.16339 3.92049 0
M  V30 70083 H 3707.15 4.00505 4.3174 0
M  V30 70084 H 3706.77 -0.581337 2.76658 0
M  V30 70085 H 3706.58 -1.30811 1.14888 0
M  V30 70086 H 3706.47 2.08295 -1.75542 0
M  V30 70087 P 3705.24 8.7635 1.60911 0
M  V30 70088 O 3705.02 10.1388 1.11561 0
M  V30 70089 O 3704.45 8.36503 2.79617 0
M  V30 70090 O 3704.99 7.71806 0.42951 0
M  V30 70091 C 3705.93 7.67148 -0.673689 0
M  V30 70092 C 3705.2 7.33374 -1.95559 0
M  V30 70093 O 3704.99 5.88721 -2.00726 0
M  V30 70094 C 3703.8 7.92526 -2.10483 0
M  V30 70095 O 3703.41 8.02971 -3.47653 0
M  V30 70096 C 3702.92 6.89602 -1.41652 0
M  V30 70097 C 3703.63 5.59201 -1.75185 0
M  V30 70098 N 3703.58 4.58301 -0.657969 0
M  V30 70099 H 3706.42 8.65116 -0.777161 0
M  V30 70100 H 3706.69 6.9022 -0.46725 0
M  V30 70101 H 3705.82 7.66548 -2.79458 0
M  V30 70102 H 3703.17 5.16165 -2.65183 0
M  V30 70103 H 3702.89 7.06433 -0.329384 0
M  V30 70104 H 3701.9 6.90926 -1.82021 0
M  V30 70105 H 3703.73 8.90873 -1.62657 0
M  V30 70106 P 3701.86 8.03563 -3.84925 0
M  V30 70107 O 3701.64 8.85821 -5.0569 0
M  V30 70108 O 3701.07 8.41101 -2.65469 0
M  V30 70109 O 3701.61 6.4965 -4.18908 0
M  V30 70110 C 3702.55 5.81037 -5.05421 0
M  V30 70111 C 3701.82 4.78366 -5.89277 0
M  V30 70112 O 3701.61 3.58302 -5.08433 0
M  V30 70113 C 3700.42 5.17448 -6.36119 0
M  V30 70114 O 3700.03 4.45271 -7.53232 0
M  V30 70115 C 3699.54 4.74639 -5.19936 0
M  V30 70116 C 3700.25 3.49432 -4.70418 0
M  V30 70117 N 3700.2 3.31776 -3.22945 0
M  V30 70118 H 3703.04 6.54213 -5.71376 0
M  V30 70119 H 3703.31 5.30492 -4.44033 0
M  V30 70120 H 3702.44 4.55889 -6.76652 0
M  V30 70121 P 3698.48 4.23843 -7.83734 0
M  V30 70122 O 3698.26 4.19407 -9.29784 0
M  V30 70123 O 3697.69 5.24426 -7.09156 0
M  V30 70124 O 3698.23 2.7935 -7.20758 0
M  V30 70125 C 3699.17 1.7299 -7.50419 0
M  V30 70126 C 3698.44 0.406376 -7.57911 0
M  V30 70127 O 3698.23 -0.0897726 -6.21935 0
M  V30 70128 C 3697.04 0.447224 -8.1878 0
M  V30 70129 O 3696.65 -0.825065 -8.71101 0
M  V30 70130 C 3696.16 0.783801 -6.99623 0
M  V30 70131 C 3696.87 0.0619192 -5.85967 0
M  V30 70132 N 3696.82 0.790462 -4.56202 0
M  V30 70133 C 3696.9 2.13895 -4.34171 0
M  V30 70134 N 3696.83 2.46449 -3.08687 0
M  V30 70135 C 3696.68 1.2525 -2.43697 0
M  V30 70136 C 3696.55 0.914535 -1.07318 0
M  V30 70137 N 3696.54 1.80782 -0.0887348 0
M  V30 70138 N 3696.43 -0.386745 -0.768133 0
M  V30 70139 C 3696.44 -1.28096 -1.75159 0
M  V30 70140 N 3696.56 -1.09708 -3.04861 0
M  V30 70141 C 3696.68 0.214857 -3.32306 0
M  V30 70142 H 3699.66 1.93423 -8.4679 0
M  V30 70143 H 3699.93 1.68852 -6.70877 0
M  V30 70144 H 3699.06 -0.289041 -8.15388 0
M  V30 70145 H 3696.41 -0.927006 -5.72848 0
M  V30 70146 H 3696.13 1.86973 -6.82036 0
M  V30 70147 H 3695.14 0.403953 -7.13357 0
M  V30 70148 H 3696.97 1.20599 -8.97534 0
M  V30 70149 H 3697.01 2.86846 -5.14318 0
M  V30 70150 H 3696.63 2.81082 -0.302037 0
M  V30 70151 H 3696.44 1.49688 0.889064 0
M  V30 70152 H 3696.33 -2.31317 -1.43855 0
M  V30 70153 P 3695.1 -1.17771 -8.83182 0
M  V30 70154 O 3694.88 -2.07206 -9.98732 0
M  V30 70155 O 3694.31 0.0743816 -8.81969 0
M  V30 70156 O 3694.85 -1.97652 -7.47304 0
M  V30 70157 C 3695.79 -3.01133 -7.08783 0
M  V30 70158 C 3695.06 -4.12613 -6.37049 0
M  V30 70159 O 3694.85 -3.72827 -4.97879 0
M  V30 70160 C 3693.66 -4.45085 -6.88694 0
M  V30 70161 O 3693.27 -5.7877 -6.5624 0
M  V30 70162 C 3692.78 -3.47817 -6.12078 0
M  V30 70163 C 3693.49 -3.39414 -4.77697 0
M  V30 70164 N 3693.44 -2.04615 -4.15333 0
M  V30 70165 H 3696.28 -3.41248 -7.98759 0
M  V30 70166 H 3696.55 -2.5837 -6.41742 0
M  V30 70167 H 3695.68 -5.02657 -6.42673 0
M  V30 70168 P 3691.72 -6.144 -6.45285 0
M  V30 70169 O 3691.5 -7.54673 -6.86199 0
M  V30 70170 O 3690.93 -5.12391 -7.179 0
M  V30 70171 O 3691.47 -5.99158 -4.88404 0
M  V30 70172 C 3692.41 -6.60234 -3.96415 0
M  V30 70173 C 3691.68 -7.08259 -2.72856 0
M  V30 70174 O 3691.47 -5.9427 -1.83651 0
M  V30 70175 C 3690.28 -7.64886 -2.9555 0
M  V30 70176 O 3689.89 -8.53963 -1.90717 0
M  V30 70177 C 3689.4 -6.4116 -2.90739 0
M  V30 70178 C 3690.11 -5.55375 -1.86963 0
M  V30 70179 N 3690.06 -4.09448 -2.16152 0
M  V30 70180 H 3692.9 -7.45574 -4.45629 0
M  V30 70181 H 3693.17 -5.85864 -3.679 0
M  V30 70182 H 3692.3 -7.84412 -2.24479 0
M  V30 70183 H 3689.65 -5.73457 -0.888562 0
M  V30 70184 H 3689.37 -5.90877 -3.88583 0
M  V30 70185 H 3688.38 -6.6596 -2.58858 0
M  V30 70186 H 3690.21 -8.16339 -3.92049 0
M  V30 70187 P 3688.34 -8.7635 -1.60911 0
M  V30 70188 O 3688.12 -10.1388 -1.11561 0
M  V30 70189 O 3687.55 -8.36503 -2.79617 0
M  V30 70190 O 3688.09 -7.71806 -0.42951 0
M  V30 70191 C 3689.03 -7.67148 0.673689 0
M  V30 70192 C 3688.3 -7.33374 1.95559 0
M  V30 70193 O 3688.09 -5.88721 2.00726 0
M  V30 70194 C 3686.9 -7.92526 2.10483 0
M  V30 70195 O 3686.51 -8.02971 3.47653 0
M  V30 70196 C 3686.02 -6.89602 1.41652 0
M  V30 70197 C 3686.73 -5.59201 1.75185 0
M  V30 70198 N 3686.68 -4.58235 0.662552 0
M  V30 70199 H 3689.52 -8.65116 0.777161 0
M  V30 70200 H 3689.79 -6.90173 0.474152 0
M  V30 70201 H 3688.92 -7.66548 2.79458 0
M  V30 70202 P 3684.96 -8.03563 3.84925 0
M  V30 70203 O 3684.74 -8.85821 5.0569 0
M  V30 70204 O 3684.17 -8.41101 2.65469 0
M  V30 70205 O 3684.71 -6.4965 4.18908 0
M  V30 70206 C 3685.65 -5.81037 5.05421 0
M  V30 70207 C 3684.92 -4.78366 5.89277 0
M  V30 70208 O 3684.71 -3.58302 5.08433 0
M  V30 70209 C 3683.52 -5.17448 6.36119 0
M  V30 70210 O 3683.13 -4.45271 7.53232 0
M  V30 70211 C 3682.64 -4.74639 5.19936 0
M  V30 70212 C 3683.35 -3.49432 4.70418 0
M  V30 70213 N 3683.3 -3.31776 3.22945 0
M  V30 70214 H 3686.14 -6.54213 5.71376 0
M  V30 70215 H 3686.41 -5.30492 4.44033 0
M  V30 70216 H 3685.54 -4.55889 6.76652 0
M  V30 70217 P 3681.58 -4.23843 7.83734 0
M  V30 70218 O 3681.36 -4.19407 9.29784 0
M  V30 70219 O 3680.79 -5.24426 7.09156 0
M  V30 70220 O 3681.33 -2.7935 7.20758 0
M  V30 70221 C 3682.27 -1.7299 7.50419 0
M  V30 70222 C 3681.54 -0.406376 7.57911 0
M  V30 70223 O 3681.33 0.0897726 6.21935 0
M  V30 70224 C 3680.14 -0.447224 8.1878 0
M  V30 70225 O 3679.75 0.825065 8.71101 0
M  V30 70226 C 3679.26 -0.783801 6.99623 0
M  V30 70227 C 3679.97 -0.0619192 5.85967 0
M  V30 70228 N 3679.92 -0.790462 4.56202 0
M  V30 70229 H 3682.76 -1.93423 8.4679 0
M  V30 70230 H 3683.03 -1.68852 6.70877 0
M  V30 70231 H 3682.16 0.289041 8.15388 0
M  V30 70232 H 3679.51 0.927006 5.72848 0
M  V30 70233 H 3679.23 -1.86973 6.82036 0
M  V30 70234 H 3678.24 -0.403953 7.13357 0
M  V30 70235 H 3680.07 -1.20599 8.97534 0
M  V30 70236 P 3678.2 1.17771 8.83182 0
M  V30 70237 O 3677.98 2.07206 9.98732 0
M  V30 70238 O 3677.41 -0.0743816 8.81969 0
M  V30 70239 O 3677.95 1.97652 7.47304 0
M  V30 70240 C 3678.89 3.01133 7.08783 0
M  V30 70241 C 3678.16 4.12613 6.37049 0
M  V30 70242 O 3677.95 3.72827 4.97879 0
M  V30 70243 C 3676.76 4.45085 6.88694 0
M  V30 70244 O 3676.37 5.7877 6.5624 0
M  V30 70245 C 3675.88 3.47817 6.12078 0
M  V30 70246 C 3676.59 3.39414 4.77697 0
M  V30 70247 N 3676.54 2.04615 4.15333 0
M  V30 70248 H 3679.38 3.41248 7.98759 0
M  V30 70249 H 3679.65 2.5837 6.41742 0
M  V30 70250 H 3678.78 5.02657 6.42673 0
M  V30 70251 P 3674.82 6.144 6.45285 0
M  V30 70252 O 3674.6 7.54673 6.86199 0
M  V30 70253 O 3674.03 5.12391 7.179 0
M  V30 70254 O 3674.57 5.99158 4.88404 0
M  V30 70255 C 3675.51 6.60234 3.96415 0
M  V30 70256 C 3674.78 7.08259 2.72856 0
M  V30 70257 O 3674.57 5.9427 1.83651 0
M  V30 70258 C 3673.38 7.64886 2.9555 0
M  V30 70259 O 3672.99 8.53963 1.90717 0
M  V30 70260 C 3672.5 6.4116 2.90739 0
M  V30 70261 C 3673.21 5.55375 1.86963 0
M  V30 70262 N 3673.16 4.09664 2.15742 0
M  V30 70263 H 3676 7.45574 4.45629 0
M  V30 70264 H 3676.27 5.86232 3.67314 0
M  V30 70265 H 3675.4 7.84412 2.24479 0
M  V30 70266 P 3671.44 8.7635 1.60911 0
M  V30 70267 O 3671.22 10.1388 1.11561 0
M  V30 70268 O 3670.65 8.36503 2.79617 0
M  V30 70269 O 3671.19 7.71806 0.42951 0
M  V30 70270 C 3672.13 7.67148 -0.673689 0
M  V30 70271 C 3671.4 7.33374 -1.95559 0
M  V30 70272 O 3671.19 5.88721 -2.00726 0
M  V30 70273 C 3670 7.92526 -2.10483 0
M  V30 70274 O 3669.61 8.02971 -3.47653 0
M  V30 70275 C 3669.12 6.89602 -1.41652 0
M  V30 70276 C 3669.83 5.59201 -1.75185 0
M  V30 70277 N 3669.78 4.58235 -0.662552 0
M  V30 70278 C 3669.86 4.7683 0.704049 0
M  V30 70279 N 3669.78 3.66233 1.39775 0
M  V30 70280 C 3669.64 2.66526 0.431739 0
M  V30 70281 C 3669.51 1.26394 0.575992 0
M  V30 70282 N 3669.39 0.62859 -0.67177 0
M  V30 70283 C 3669.39 1.27134 -1.89385 0
M  V30 70284 N 3669.26 0.492035 -2.96951 0
M  V30 70285 N 3669.52 2.58978 -2.02907 0
M  V30 70286 C 3669.64 3.22433 -0.832218 0
M  V30 70287 H 3672.62 8.65116 -0.777161 0
M  V30 70288 H 3672.89 6.90173 -0.474152 0
M  V30 70289 H 3672.02 7.66548 -2.79458 0
M  V30 70290 P 3668.06 8.03563 -3.84925 0
M  V30 70291 O 3667.84 8.85821 -5.0569 0
M  V30 70292 O 3667.27 8.41101 -2.65469 0
M  V30 70293 O 3667.81 6.4965 -4.18908 0
M  V30 70294 C 3668.75 5.81037 -5.05421 0
M  V30 70295 C 3668.02 4.78366 -5.89277 0
M  V30 70296 O 3667.81 3.58302 -5.08433 0
M  V30 70297 C 3666.62 5.17448 -6.36119 0
M  V30 70298 O 3666.23 4.45271 -7.53232 0
M  V30 70299 C 3665.74 4.74639 -5.19936 0
M  V30 70300 C 3666.45 3.49432 -4.70418 0
M  V30 70301 N 3666.4 3.31776 -3.22945 0
M  V30 70302 H 3669.24 6.54213 -5.71376 0
M  V30 70303 H 3669.51 5.30492 -4.44033 0
M  V30 70304 H 3668.64 4.55889 -6.76652 0
M  V30 70305 P 3664.68 4.23843 -7.83734 0
M  V30 70306 O 3664.46 4.19407 -9.29784 0
M  V30 70307 O 3663.89 5.24426 -7.09156 0
M  V30 70308 O 3664.43 2.7935 -7.20758 0
M  V30 70309 C 3665.37 1.7299 -7.50419 0
M  V30 70310 C 3664.64 0.406376 -7.57911 0
M  V30 70311 O 3664.43 -0.0897726 -6.21935 0
M  V30 70312 C 3663.24 0.447224 -8.1878 0
M  V30 70313 O 3662.85 -0.825065 -8.71101 0
M  V30 70314 C 3662.36 0.783801 -6.99623 0
M  V30 70315 C 3663.07 0.0619192 -5.85967 0
M  V30 70316 N 3663.02 0.7859 -4.56281 0
M  V30 70317 H 3665.86 1.93423 -8.4679 0
M  V30 70318 H 3666.13 1.68181 -6.71046 0
M  V30 70319 H 3665.26 -0.289041 -8.15388 0
M  V30 70320 P 3661.3 -1.17771 -8.83182 0
M  V30 70321 O 3661.08 -2.07206 -9.98732 0
M  V30 70322 O 3660.51 0.0743816 -8.81969 0
M  V30 70323 O 3661.05 -1.97652 -7.47304 0
M  V30 70324 C 3661.99 -3.01133 -7.08783 0
M  V30 70325 C 3661.26 -4.12613 -6.37049 0
M  V30 70326 O 3661.05 -3.72827 -4.97879 0
M  V30 70327 C 3659.86 -4.45085 -6.88694 0
M  V30 70328 O 3659.47 -5.7877 -6.5624 0
M  V30 70329 C 3658.98 -3.47817 -6.12078 0
M  V30 70330 C 3659.69 -3.39414 -4.77697 0
M  V30 70331 N 3659.64 -2.04615 -4.15333 0
M  V30 70332 H 3662.48 -3.41248 -7.98759 0
M  V30 70333 H 3662.75 -2.5837 -6.41742 0
M  V30 70334 H 3661.88 -5.02657 -6.42673 0
M  V30 70335 P 3657.92 -6.144 -6.45285 0
M  V30 70336 O 3657.7 -7.54673 -6.86199 0
M  V30 70337 O 3657.13 -5.12391 -7.179 0
M  V30 70338 O 3657.67 -5.99158 -4.88404 0
M  V30 70339 C 3658.61 -6.60234 -3.96415 0
M  V30 70340 C 3657.88 -7.08259 -2.72856 0
M  V30 70341 O 3657.67 -5.9427 -1.83651 0
M  V30 70342 C 3656.48 -7.64886 -2.9555 0
M  V30 70343 O 3656.09 -8.53963 -1.90717 0
M  V30 70344 C 3655.6 -6.4116 -2.90739 0
M  V30 70345 C 3656.31 -5.55375 -1.86963 0
M  V30 70346 N 3656.26 -4.09664 -2.15742 0
M  V30 70347 H 3659.1 -7.45574 -4.45629 0
M  V30 70348 H 3659.37 -5.86232 -3.67314 0
M  V30 70349 H 3658.5 -7.84412 -2.24479 0
M  V30 70350 P 3654.54 -8.7635 -1.60911 0
M  V30 70351 O 3654.32 -10.1388 -1.11561 0
M  V30 70352 O 3653.75 -8.36503 -2.79617 0
M  V30 70353 O 3654.29 -7.71806 -0.42951 0
M  V30 70354 C 3655.23 -7.67148 0.673689 0
M  V30 70355 C 3654.5 -7.33374 1.95559 0
M  V30 70356 O 3654.29 -5.88721 2.00726 0
M  V30 70357 C 3653.1 -7.92526 2.10483 0
M  V30 70358 O 3652.71 -8.02971 3.47653 0
M  V30 70359 C 3652.22 -6.89602 1.41652 0
M  V30 70360 C 3652.93 -5.59201 1.75185 0
M  V30 70361 N 3652.88 -4.58301 0.657969 0
M  V30 70362 H 3655.72 -8.65116 0.777161 0
M  V30 70363 H 3655.99 -6.9022 0.46725 0
M  V30 70364 H 3655.12 -7.66548 2.79458 0
M  V30 70365 H 3652.47 -5.16165 2.65183 0
M  V30 70366 H 3652.19 -7.06433 0.329384 0
M  V30 70367 H 3651.2 -6.90926 1.82021 0
M  V30 70368 H 3653.03 -8.90873 1.62657 0
M  V30 70369 P 3651.16 -8.03563 3.84925 0
M  V30 70370 O 3650.94 -8.85821 5.0569 0
M  V30 70371 O 3650.37 -8.41101 2.65469 0
M  V30 70372 O 3650.91 -6.4965 4.18908 0
M  V30 70373 C 3651.85 -5.81037 5.05421 0
M  V30 70374 C 3651.12 -4.78366 5.89277 0
M  V30 70375 O 3650.91 -3.58302 5.08433 0
M  V30 70376 C 3649.72 -5.17448 6.36119 0
M  V30 70377 O 3649.33 -4.45271 7.53232 0
M  V30 70378 C 3648.84 -4.74639 5.19936 0
M  V30 70379 C 3649.55 -3.49432 4.70418 0
M  V30 70380 N 3649.5 -3.32099 3.22613 0
M  V30 70381 C 3649.58 -4.28245 2.25527 0
M  V30 70382 N 3649.51 -3.80823 1.04874 0
M  V30 70383 C 3649.36 -2.44571 1.23535 0
M  V30 70384 C 3649.23 -1.37068 0.330675 0
M  V30 70385 N 3649.22 -1.51472 -0.990824 0
M  V30 70386 N 3649.11 -0.138614 0.848756 0
M  V30 70387 C 3649.12 0.00675923 2.16999 0
M  V30 70388 N 3649.24 -0.904372 3.11122 0
M  V30 70389 C 3649.36 -2.12707 2.56212 0
M  V30 70390 H 3652.34 -6.54213 5.71376 0
M  V30 70391 H 3652.61 -5.30936 4.43503 0
M  V30 70392 H 3651.74 -4.55889 6.76652 0
M  V30 70393 H 3649.09 -2.61715 5.17932 0
M  V30 70394 H 3648.81 -5.52155 4.41878 0
M  V30 70395 H 3647.82 -4.51981 5.53374 0
M  V30 70396 H 3649.65 -6.25124 6.55234 0
M  V30 70397 H 3649.69 -5.34372 2.47488 0
M  V30 70398 H 3649.31 -2.45153 -1.4078 0
M  V30 70399 H 3649.12 -0.688422 -1.59911 0
M  V30 70400 H 3649.01 1.02584 2.52346 0
M  V30 70401 P 3647.78 -4.23843 7.83734 0
M  V30 70402 O 3647.56 -4.19407 9.29784 0
M  V30 70403 O 3646.99 -5.24426 7.09156 0
M  V30 70404 O 3647.53 -2.7935 7.20758 0
M  V30 70405 C 3648.47 -1.7299 7.50419 0
M  V30 70406 C 3647.74 -0.406376 7.57911 0
M  V30 70407 O 3647.53 0.0897726 6.21935 0
M  V30 70408 C 3646.34 -0.447224 8.1878 0
M  V30 70409 O 3645.95 0.825065 8.71101 0
M  V30 70410 C 3645.46 -0.783801 6.99623 0
M  V30 70411 C 3646.17 -0.0619192 5.85967 0
M  V30 70412 N 3646.12 -0.7859 4.56281 0
M  V30 70413 H 3648.96 -1.93423 8.4679 0
M  V30 70414 H 3649.23 -1.68181 6.71046 0
M  V30 70415 H 3648.36 0.289041 8.15388 0
M  V30 70416 P 3644.4 1.17771 8.83182 0
M  V30 70417 O 3644.18 2.07206 9.98732 0
M  V30 70418 O 3643.61 -0.0743816 8.81969 0
M  V30 70419 O 3644.15 1.97652 7.47304 0
M  V30 70420 C 3645.09 3.01133 7.08783 0
M  V30 70421 C 3644.36 4.12613 6.37049 0
M  V30 70422 O 3644.15 3.72827 4.97879 0
M  V30 70423 C 3642.96 4.45085 6.88694 0
M  V30 70424 O 3642.57 5.7877 6.5624 0
M  V30 70425 C 3642.08 3.47817 6.12078 0
M  V30 70426 C 3642.79 3.39414 4.77697 0
M  V30 70427 N 3642.74 2.04615 4.15333 0
M  V30 70428 H 3645.58 3.41248 7.98759 0
M  V30 70429 H 3645.85 2.5837 6.41742 0
M  V30 70430 H 3644.98 5.02657 6.42673 0
M  V30 70431 P 3641.02 6.144 6.45285 0
M  V30 70432 O 3640.8 7.54673 6.86199 0
M  V30 70433 O 3640.23 5.12391 7.179 0
M  V30 70434 O 3640.77 5.99236 4.88467 0
M  V30 70435 C 3641.71 6.60234 3.96415 0
M  V30 70436 C 3640.98 7.08079 2.736 0
M  V30 70437 O 3640.77 5.94365 1.8368 0
M  V30 70438 C 3639.58 7.64886 2.9555 0
M  V30 70439 O 3639.19 8.5406 1.90739 0
M  V30 70440 C 3638.7 6.4116 2.90739 0
M  V30 70441 C 3639.41 5.55375 1.86963 0
M  V30 70442 N 3639.36 4.09664 2.15742 0
M  V30 70443 C 3639.21 3.22231 1.08477 0
M  V30 70444 O 3639.12 3.68951 -0.0600489 0
M  V30 70445 N 3639.16 1.76692 1.48799 0
M  V30 70446 C 3639.26 1.41695 2.57602 0
M  V30 70447 N 3639.21 0.107296 2.75791 0
M  V30 70448 C 3639.41 2.29178 3.69733 0
M  V30 70449 C 3639.46 3.62753 3.42653 0
M  V30 70450 H 3642.2 7.45488 4.45578 0
M  V30 70451 H 3642.47 5.86232 3.67314 0
M  V30 70452 H 3641.6 7.84508 2.24507 0
M  V30 70453 H 3638.95 5.73556 0.888715 0
M  V30 70454 H 3638.67 5.9096 3.88638 0
M  V30 70455 H 3637.68 6.66053 2.58894 0
M  V30 70456 H 3639.51 8.16339 3.92049 0
M  V30 70457 H 3639.58 4.33052 4.24913 0
M  V30 70458 H 3639.48 1.9103 4.71577 0
M  V30 70459 H 3639.09 -0.521221 1.95056 0
M  V30 70460 H 3639.29 -0.286429 3.70695 0
M  V30 70461 P 3637.64 8.7635 1.60911 0
M  V30 70462 O 3637.42 10.1388 1.11561 0
M  V30 70463 O 3636.85 8.36503 2.79617 0
M  V30 70464 O 3637.39 7.71806 0.42951 0
M  V30 70465 C 3638.33 7.67148 -0.673689 0
M  V30 70466 C 3637.6 7.33374 -1.95559 0
M  V30 70467 O 3637.39 5.88721 -2.00726 0
M  V30 70468 C 3636.2 7.92526 -2.10483 0
M  V30 70469 O 3635.81 8.02971 -3.47653 0
M  V30 70470 C 3635.32 6.89602 -1.41652 0
M  V30 70471 C 3636.03 5.59201 -1.75185 0
M  V30 70472 N 3635.98 4.58235 -0.662552 0
M  V30 70473 H 3638.82 8.65116 -0.777161 0
M  V30 70474 H 3639.09 6.90173 -0.474152 0
M  V30 70475 H 3638.22 7.66548 -2.79458 0
M  V30 70476 P 3634.26 8.03563 -3.84925 0
M  V30 70477 O 3634.04 8.85821 -5.0569 0
M  V30 70478 O 3633.47 8.41101 -2.65469 0
M  V30 70479 O 3634.01 6.4965 -4.18908 0
M  V30 70480 C 3634.95 5.81037 -5.05421 0
M  V30 70481 C 3634.22 4.78366 -5.89277 0
M  V30 70482 O 3634.01 3.58302 -5.08433 0
M  V30 70483 C 3632.82 5.17448 -6.36119 0
M  V30 70484 O 3632.43 4.45271 -7.53232 0
M  V30 70485 C 3631.94 4.74639 -5.19936 0
M  V30 70486 C 3632.65 3.49432 -4.70418 0
M  V30 70487 N 3632.6 3.31776 -3.22945 0
M  V30 70488 H 3635.44 6.54213 -5.71376 0
M  V30 70489 H 3635.71 5.30492 -4.44033 0
M  V30 70490 H 3634.84 4.55889 -6.76652 0
M  V30 70491 P 3630.88 4.23843 -7.83734 0
M  V30 70492 O 3630.66 4.19407 -9.29784 0
M  V30 70493 O 3630.09 5.24426 -7.09156 0
M  V30 70494 O 3630.63 2.7935 -7.20758 0
M  V30 70495 C 3631.57 1.7299 -7.50419 0
M  V30 70496 C 3630.84 0.406376 -7.57911 0
M  V30 70497 O 3630.63 -0.0897726 -6.21935 0
M  V30 70498 C 3629.44 0.447224 -8.1878 0
M  V30 70499 O 3629.05 -0.825065 -8.71101 0
M  V30 70500 C 3628.56 0.783801 -6.99623 0
M  V30 70501 C 3629.27 0.0619192 -5.85967 0
M  V30 70502 N 3629.22 0.7859 -4.56281 0
M  V30 70503 H 3632.06 1.93423 -8.4679 0
M  V30 70504 H 3632.33 1.68181 -6.71046 0
M  V30 70505 H 3631.46 -0.289041 -8.15388 0
M  V30 70506 P 3627.5 -1.17771 -8.83182 0
M  V30 70507 O 3627.28 -2.07206 -9.98732 0
M  V30 70508 O 3626.71 0.0743816 -8.81969 0
M  V30 70509 O 3627.25 -1.97652 -7.47304 0
M  V30 70510 C 3628.19 -3.01133 -7.08783 0
M  V30 70511 C 3627.46 -4.12613 -6.37049 0
M  V30 70512 O 3627.25 -3.72827 -4.97879 0
M  V30 70513 C 3626.06 -4.45085 -6.88694 0
M  V30 70514 O 3625.67 -5.7877 -6.5624 0
M  V30 70515 C 3625.18 -3.47817 -6.12078 0
M  V30 70516 C 3625.89 -3.39414 -4.77697 0
M  V30 70517 N 3625.84 -2.04199 -4.15538 0
M  V30 70518 H 3628.68 -3.41248 -7.98759 0
M  V30 70519 H 3628.95 -2.57728 -6.42 0
M  V30 70520 H 3628.08 -5.02657 -6.42673 0
M  V30 70521 H 3625.43 -4.11708 -4.08956 0
M  V30 70522 H 3625.15 -2.49626 -6.61679 0
M  V30 70523 H 3624.16 -3.8662 -6.00862 0
M  V30 70524 H 3625.99 -4.29991 -7.97006 0
M  V30 70525 P 3624.12 -6.144 -6.45285 0
M  V30 70526 O 3623.9 -7.54673 -6.86199 0
M  V30 70527 O 3623.33 -5.12391 -7.179 0
M  V30 70528 O 3623.87 -5.99158 -4.88404 0
M  V30 70529 C 3624.81 -6.60234 -3.96415 0
M  V30 70530 C 3624.08 -7.08259 -2.72856 0
M  V30 70531 O 3623.87 -5.9427 -1.83651 0
M  V30 70532 C 3622.68 -7.64886 -2.9555 0
M  V30 70533 O 3622.29 -8.53963 -1.90717 0
M  V30 70534 C 3621.8 -6.4116 -2.90739 0
M  V30 70535 C 3622.51 -5.55375 -1.86963 0
M  V30 70536 N 3622.46 -4.09664 -2.15742 0
M  V30 70537 H 3625.3 -7.45574 -4.45629 0
M  V30 70538 H 3625.57 -5.86232 -3.67314 0
M  V30 70539 H 3624.7 -7.84412 -2.24479 0
M  V30 70540 P 3620.74 -8.7635 -1.60911 0
M  V30 70541 O 3620.52 -10.1388 -1.11561 0
M  V30 70542 O 3619.95 -8.36503 -2.79617 0
M  V30 70543 O 3620.49 -7.71806 -0.42951 0
M  V30 70544 C 3621.43 -7.67148 0.673689 0
M  V30 70545 C 3620.7 -7.33374 1.95559 0
M  V30 70546 O 3620.49 -5.88721 2.00726 0
M  V30 70547 C 3619.3 -7.92526 2.10483 0
M  V30 70548 O 3618.91 -8.02971 3.47653 0
M  V30 70549 C 3618.42 -6.89602 1.41652 0
M  V30 70550 C 3619.13 -5.59201 1.75185 0
M  V30 70551 N 3619.08 -4.58301 0.657969 0
M  V30 70552 H 3621.92 -8.65116 0.777161 0
M  V30 70553 H 3622.19 -6.9022 0.46725 0
M  V30 70554 H 3621.32 -7.66548 2.79458 0
M  V30 70555 H 3618.67 -5.16165 2.65183 0
M  V30 70556 H 3618.39 -7.06433 0.329384 0
M  V30 70557 H 3617.4 -6.90926 1.82021 0
M  V30 70558 H 3619.23 -8.90873 1.62657 0
M  V30 70559 P 3617.36 -8.03563 3.84925 0
M  V30 70560 O 3617.14 -8.85821 5.0569 0
M  V30 70561 O 3616.57 -8.41101 2.65469 0
M  V30 70562 O 3617.11 -6.4965 4.18908 0
M  V30 70563 C 3618.05 -5.81037 5.05421 0
M  V30 70564 C 3617.32 -4.78366 5.89277 0
M  V30 70565 O 3617.11 -3.58302 5.08433 0
M  V30 70566 C 3615.92 -5.17448 6.36119 0
M  V30 70567 O 3615.53 -4.45271 7.53232 0
M  V30 70568 C 3615.04 -4.74639 5.19936 0
M  V30 70569 C 3615.75 -3.49432 4.70418 0
M  V30 70570 N 3615.7 -3.31776 3.22945 0
M  V30 70571 H 3618.54 -6.54213 5.71376 0
M  V30 70572 H 3618.81 -5.30492 4.44033 0
M  V30 70573 H 3617.94 -4.55889 6.76652 0
M  V30 70574 P 3613.98 -4.23843 7.83734 0
M  V30 70575 O 3613.76 -4.19407 9.29784 0
M  V30 70576 O 3613.19 -5.24426 7.09156 0
M  V30 70577 O 3613.73 -2.7935 7.20758 0
M  V30 70578 C 3614.67 -1.7299 7.50419 0
M  V30 70579 C 3613.94 -0.406376 7.57911 0
M  V30 70580 O 3613.73 0.0897726 6.21935 0
M  V30 70581 C 3612.54 -0.447224 8.1878 0
M  V30 70582 O 3612.15 0.825065 8.71101 0
M  V30 70583 C 3611.66 -0.783801 6.99623 0
M  V30 70584 C 3612.37 -0.0619192 5.85967 0
M  V30 70585 N 3612.32 -0.7859 4.56281 0
M  V30 70586 H 3615.16 -1.93423 8.4679 0
M  V30 70587 H 3615.43 -1.68181 6.71046 0
M  V30 70588 H 3614.56 0.289041 8.15388 0
M  V30 70589 P 3610.6 1.17771 8.83182 0
M  V30 70590 O 3610.38 2.07206 9.98732 0
M  V30 70591 O 3609.81 -0.0743816 8.81969 0
M  V30 70592 O 3610.35 1.97652 7.47304 0
M  V30 70593 C 3611.29 3.01055 7.08599 0
M  V30 70594 C 3610.56 4.12613 6.37049 0
M  V30 70595 O 3610.35 3.72827 4.97879 0
M  V30 70596 C 3609.16 4.45719 6.88164 0
M  V30 70597 O 3608.77 5.7877 6.5624 0
M  V30 70598 C 3608.28 3.47768 6.11991 0
M  V30 70599 C 3608.99 3.39356 4.77615 0
M  V30 70600 N 3608.94 2.04571 4.15244 0
M  V30 70601 C 3608.79 1.98587 2.78314 0
M  V30 70602 O 3608.7 2.98134 2.08835 0
M  V30 70603 N 3608.75 0.714467 2.24925 0
M  V30 70604 C 3608.84 -0.470001 2.94169 0
M  V30 70605 C 3608.99 -0.312541 4.36783 0
M  V30 70606 C 3609.04 0.914512 4.92583 0
M  V30 70607 H 3611.78 3.41169 7.98575 0
M  V30 70608 H 3612.05 2.58295 6.41556 0
M  V30 70609 H 3611.18 5.02657 6.42673 0
M  V30 70610 H 3608.53 4.11637 4.08885 0
M  V30 70611 H 3608.25 2.49626 6.61679 0
M  V30 70612 H 3607.26 3.86566 6.00778 0
M  V30 70613 H 3609.09 4.29943 7.96918 0
M  V30 70614 H 3609.16 1.00937 6.00374 0
M  V30 70615 P 3607.22 6.144 6.45285 0
M  V30 70616 O 3607 7.54673 6.86199 0
M  V30 70617 O 3606.43 5.12391 7.179 0
M  V30 70618 O 3606.97 5.99158 4.88404 0
M  V30 70619 C 3607.91 6.60234 3.96415 0
M  V30 70620 C 3607.18 7.08259 2.72856 0
M  V30 70621 O 3606.97 5.9427 1.83651 0
M  V30 70622 C 3605.78 7.64886 2.9555 0
M  V30 70623 O 3605.39 8.53963 1.90717 0
M  V30 70624 C 3604.9 6.4116 2.90739 0
M  V30 70625 C 3605.61 5.55375 1.86963 0
M  V30 70626 N 3605.56 4.09664 2.15742 0
M  V30 70627 H 3608.4 7.45574 4.45629 0
M  V30 70628 H 3608.67 5.86232 3.67314 0
M  V30 70629 H 3607.8 7.84412 2.24479 0
M  V30 70630 P 3603.84 8.7635 1.60911 0
M  V30 70631 O 3603.62 10.1388 1.11561 0
M  V30 70632 O 3603.05 8.36503 2.79617 0
M  V30 70633 O 3603.59 7.71806 0.42951 0
M  V30 70634 C 3604.53 7.67148 -0.673689 0
M  V30 70635 C 3603.8 7.33374 -1.95559 0
M  V30 70636 O 3603.59 5.88721 -2.00726 0
M  V30 70637 C 3602.4 7.92526 -2.10483 0
M  V30 70638 O 3602.01 8.02971 -3.47653 0
M  V30 70639 C 3601.52 6.89602 -1.41652 0
M  V30 70640 C 3602.23 5.59201 -1.75185 0
M  V30 70641 N 3602.18 4.58235 -0.662552 0
M  V30 70642 H 3605.02 8.65116 -0.777161 0
M  V30 70643 H 3605.29 6.90173 -0.474152 0
M  V30 70644 H 3604.42 7.66548 -2.79458 0
M  V30 70645 P 3600.46 8.03563 -3.84925 0
M  V30 70646 O 3600.24 8.85821 -5.0569 0
M  V30 70647 O 3599.67 8.41101 -2.65469 0
M  V30 70648 O 3600.21 6.4965 -4.18908 0
M  V30 70649 C 3601.15 5.81037 -5.05421 0
M  V30 70650 C 3600.42 4.78366 -5.89277 0
M  V30 70651 O 3600.21 3.58302 -5.08433 0
M  V30 70652 C 3599.02 5.17448 -6.36119 0
M  V30 70653 O 3598.63 4.45271 -7.53232 0
M  V30 70654 C 3598.14 4.74639 -5.19936 0
M  V30 70655 C 3598.85 3.49432 -4.70418 0
M  V30 70656 N 3598.8 3.31776 -3.22945 0
M  V30 70657 H 3601.64 6.54213 -5.71376 0
M  V30 70658 H 3601.91 5.30492 -4.44033 0
M  V30 70659 H 3601.04 4.55889 -6.76652 0
M  V30 70660 P 3597.08 4.23843 -7.83734 0
M  V30 70661 O 3596.86 4.19407 -9.29784 0
M  V30 70662 O 3596.29 5.24426 -7.09156 0
M  V30 70663 O 3596.83 2.7935 -7.20758 0
M  V30 70664 C 3597.77 1.7299 -7.50419 0
M  V30 70665 C 3597.04 0.406376 -7.57911 0
M  V30 70666 O 3596.83 -0.0897726 -6.21935 0
M  V30 70667 C 3595.64 0.447224 -8.1878 0
M  V30 70668 O 3595.25 -0.825065 -8.71101 0
M  V30 70669 C 3594.76 0.783801 -6.99623 0
M  V30 70670 C 3595.47 0.0619192 -5.85967 0
M  V30 70671 N 3595.42 0.7859 -4.56281 0
M  V30 70672 H 3598.26 1.93423 -8.4679 0
M  V30 70673 H 3598.53 1.68181 -6.71046 0
M  V30 70674 H 3597.66 -0.289041 -8.15388 0
M  V30 70675 P 3593.7 -1.17771 -8.83182 0
M  V30 70676 O 3593.48 -2.07206 -9.98732 0
M  V30 70677 O 3592.91 0.0743816 -8.81969 0
M  V30 70678 O 3593.45 -1.97652 -7.47304 0
M  V30 70679 C 3594.39 -3.01133 -7.08783 0
M  V30 70680 C 3593.66 -4.12613 -6.37049 0
M  V30 70681 O 3593.45 -3.72827 -4.97879 0
M  V30 70682 C 3592.26 -4.45085 -6.88694 0
M  V30 70683 O 3591.87 -5.7877 -6.5624 0
M  V30 70684 C 3591.38 -3.47817 -6.12078 0
M  V30 70685 C 3592.09 -3.39414 -4.77697 0
M  V30 70686 N 3592.04 -2.04615 -4.15333 0
M  V30 70687 H 3594.88 -3.41248 -7.98759 0
M  V30 70688 H 3595.15 -2.5837 -6.41742 0
M  V30 70689 H 3594.28 -5.02657 -6.42673 0
M  V30 70690 P 3590.32 -6.144 -6.45285 0
M  V30 70691 O 3590.1 -7.54673 -6.86199 0
M  V30 70692 O 3589.53 -5.12391 -7.179 0
M  V30 70693 O 3590.07 -5.99158 -4.88404 0
M  V30 70694 C 3591.01 -6.60234 -3.96415 0
M  V30 70695 C 3590.28 -7.08259 -2.72856 0
M  V30 70696 O 3590.07 -5.9427 -1.83651 0
M  V30 70697 C 3588.88 -7.64886 -2.9555 0
M  V30 70698 O 3588.49 -8.53963 -1.90717 0
M  V30 70699 C 3588 -6.4116 -2.90739 0
M  V30 70700 C 3588.71 -5.55375 -1.86963 0
M  V30 70701 N 3588.66 -4.09664 -2.15742 0
M  V30 70702 H 3591.5 -7.45574 -4.45629 0
M  V30 70703 H 3591.77 -5.86232 -3.67314 0
M  V30 70704 H 3590.9 -7.84412 -2.24479 0
M  V30 70705 P 3586.94 -8.7635 -1.60911 0
M  V30 70706 O 3586.72 -10.1388 -1.11561 0
M  V30 70707 O 3586.15 -8.36503 -2.79617 0
M  V30 70708 O 3586.69 -7.71806 -0.42951 0
M  V30 70709 C 3587.63 -7.67148 0.673689 0
M  V30 70710 C 3586.9 -7.33374 1.95559 0
M  V30 70711 O 3586.69 -5.88721 2.00726 0
M  V30 70712 C 3585.5 -7.92526 2.10483 0
M  V30 70713 O 3585.11 -8.02971 3.47653 0
M  V30 70714 C 3584.62 -6.89602 1.41652 0
M  V30 70715 C 3585.33 -5.59201 1.75185 0
M  V30 70716 N 3585.28 -4.58235 0.662552 0
M  V30 70717 H 3588.12 -8.65116 0.777161 0
M  V30 70718 H 3588.39 -6.90173 0.474152 0
M  V30 70719 H 3587.52 -7.66548 2.79458 0
M  V30 70720 P 3583.56 -8.03563 3.84925 0
M  V30 70721 O 3583.34 -8.85821 5.0569 0
M  V30 70722 O 3582.77 -8.41101 2.65469 0
M  V30 70723 O 3583.31 -6.4965 4.18908 0
M  V30 70724 C 3584.25 -5.81037 5.05421 0
M  V30 70725 C 3583.52 -4.78366 5.89277 0
M  V30 70726 O 3583.31 -3.58302 5.08433 0
M  V30 70727 C 3582.12 -5.17448 6.36119 0
M  V30 70728 O 3581.73 -4.45271 7.53232 0
M  V30 70729 C 3581.24 -4.74639 5.19936 0
M  V30 70730 C 3581.95 -3.49432 4.70418 0
M  V30 70731 N 3581.9 -3.32099 3.22613 0
M  V30 70732 H 3584.74 -6.54213 5.71376 0
M  V30 70733 H 3585.01 -5.30936 4.43503 0
M  V30 70734 H 3584.14 -4.55889 6.76652 0
M  V30 70735 H 3581.49 -2.61715 5.17932 0
M  V30 70736 H 3581.21 -5.52155 4.41878 0
M  V30 70737 H 3580.22 -4.51981 5.53374 0
M  V30 70738 H 3582.05 -6.25124 6.55234 0
M  V30 70739 P 3580.18 -4.23843 7.83734 0
M  V30 70740 O 3579.96 -4.19407 9.29784 0
M  V30 70741 O 3579.39 -5.24426 7.09156 0
M  V30 70742 O 3579.93 -2.7935 7.20758 0
M  V30 70743 C 3580.87 -1.7299 7.50419 0
M  V30 70744 C 3580.14 -0.406376 7.57911 0
M  V30 70745 O 3579.93 0.0897726 6.21935 0
M  V30 70746 C 3578.74 -0.447224 8.1878 0
M  V30 70747 O 3578.35 0.825065 8.71101 0
M  V30 70748 C 3577.86 -0.783801 6.99623 0
M  V30 70749 C 3578.57 -0.0619192 5.85967 0
M  V30 70750 N 3578.52 -0.7859 4.56281 0
M  V30 70751 H 3581.36 -1.93423 8.4679 0
M  V30 70752 H 3581.63 -1.68181 6.71046 0
M  V30 70753 H 3580.76 0.289041 8.15388 0
M  V30 70754 P 3576.8 1.17771 8.83182 0
M  V30 70755 O 3576.58 2.07206 9.98732 0
M  V30 70756 O 3576.01 -0.0743816 8.81969 0
M  V30 70757 O 3576.55 1.97652 7.47304 0
M  V30 70758 C 3577.49 3.01133 7.08783 0
M  V30 70759 C 3576.76 4.12613 6.37049 0
M  V30 70760 O 3576.55 3.72827 4.97879 0
M  V30 70761 C 3575.36 4.45085 6.88694 0
M  V30 70762 O 3574.97 5.7877 6.5624 0
M  V30 70763 C 3574.48 3.47817 6.12078 0
M  V30 70764 C 3575.19 3.39414 4.77697 0
M  V30 70765 N 3575.14 2.04615 4.15333 0
M  V30 70766 C 3575.22 0.803897 4.75249 0
M  V30 70767 N 3575.14 -0.197615 3.91502 0
M  V30 70768 C 3575 0.413002 2.66823 0
M  V30 70769 C 3574.87 -0.157221 1.38007 0
M  V30 70770 O 3574.85 -1.34419 1.057 0
M  V30 70771 N 3574.75 0.833136 0.390236 0
M  V30 70772 C 3574.75 2.19402 0.623885 0
M  V30 70773 N 3574.62 2.97622 -0.449677 0
M  V30 70774 N 3574.88 2.73005 1.83601 0
M  V30 70775 C 3575 1.78786 2.80935 0
M  V30 70776 H 3577.98 3.41248 7.98759 0
M  V30 70777 H 3578.25 2.5837 6.41742 0
M  V30 70778 H 3577.38 5.02657 6.42673 0
M  V30 70779 H 3574.73 4.11779 4.09026 0
M  V30 70780 H 3574.45 2.49661 6.61772 0
M  V30 70781 H 3573.46 3.86674 6.00946 0
M  V30 70782 H 3575.29 4.30038 7.97094 0
M  V30 70783 H 3575.34 0.670579 5.82754 0
M  V30 70784 H 3574.66 0.528446 -0.557287 0
M  V30 70785 H 3574.62 4.00117 -0.344773 0
M  V30 70786 H 3574.52 2.55448 -1.38544 0
M  V30 70787 P 3573.42 6.144 6.45285 0
M  V30 70788 O 3573.2 7.54673 6.86199 0
M  V30 70789 O 3572.63 5.12391 7.179 0
M  V30 70790 O 3573.17 5.99158 4.88404 0
M  V30 70791 C 3574.11 6.60234 3.96415 0
M  V30 70792 C 3573.38 7.08259 2.72856 0
M  V30 70793 O 3573.17 5.9427 1.83651 0
M  V30 70794 C 3571.98 7.64886 2.9555 0
M  V30 70795 O 3571.59 8.53963 1.90717 0
M  V30 70796 C 3571.1 6.4116 2.90739 0
M  V30 70797 C 3571.81 5.55375 1.86963 0
M  V30 70798 N 3571.76 4.09664 2.15742 0
M  V30 70799 C 3571.84 3.44381 3.37233 0
M  V30 70800 N 3571.76 2.14131 3.28347 0
M  V30 70801 C 3571.62 1.90247 1.91588 0
M  V30 70802 C 3571.49 0.683992 1.20892 0
M  V30 70803 O 3571.47 -0.46618 1.64523 0
M  V30 70804 N 3571.37 0.903396 -0.173998 0
M  V30 70805 C 3571.37 2.14171 -0.784879 0
M  V30 70806 N 3571.24 2.1435 -2.11317 0
M  V30 70807 N 3571.5 3.28784 -0.119316 0
M  V30 70808 C 3571.62 3.0977 1.22194 0
M  V30 70809 H 3574.6 7.45574 4.45629 0
M  V30 70810 H 3574.87 5.86232 3.67314 0
M  V30 70811 H 3574 7.84412 2.24479 0
M  V30 70812 H 3571.35 5.73556 0.888715 0
M  V30 70813 H 3571.07 5.9096 3.88638 0
M  V30 70814 H 3570.08 6.66053 2.58894 0
M  V30 70815 H 3571.91 8.16429 3.92093 0
M  V30 70816 H 3571.96 3.96785 4.32043 0
M  V30 70817 H 3571.28 0.0999567 -0.761467 0
M  V30 70818 H 3571.24 3.03436 -2.63076 0
M  V30 70819 H 3571.14 1.25228 -2.62233 0
M  V30 70820 P 3570.04 8.7635 1.60911 0
M  V30 70821 O 3569.82 10.1388 1.11561 0
M  V30 70822 O 3569.25 8.36503 2.79617 0
M  V30 70823 O 3569.79 7.71806 0.42951 0
M  V30 70824 C 3570.73 7.67148 -0.673689 0
M  V30 70825 C 3570 7.33374 -1.95559 0
M  V30 70826 O 3569.79 5.88721 -2.00726 0
M  V30 70827 C 3568.6 7.92526 -2.10483 0
M  V30 70828 O 3568.21 8.02971 -3.47653 0
M  V30 70829 C 3567.72 6.89602 -1.41652 0
M  V30 70830 C 3568.43 5.59201 -1.75185 0
M  V30 70831 N 3568.38 4.58301 -0.657969 0
M  V30 70832 H 3571.22 8.65116 -0.777161 0
M  V30 70833 H 3571.49 6.9022 -0.46725 0
M  V30 70834 H 3570.62 7.66548 -2.79458 0
M  V30 70835 H 3567.97 5.16165 -2.65183 0
M  V30 70836 H 3567.69 7.06433 -0.329384 0
M  V30 70837 H 3566.7 6.90926 -1.82021 0
M  V30 70838 H 3568.53 8.90873 -1.62657 0
M  V30 70839 P 3566.66 8.03563 -3.84925 0
M  V30 70840 O 3566.44 8.85821 -5.0569 0
M  V30 70841 O 3565.87 8.41101 -2.65469 0
M  V30 70842 O 3566.41 6.49734 -4.18962 0
M  V30 70843 C 3567.35 5.81037 -5.05421 0
M  V30 70844 C 3566.62 4.79018 -5.88876 0
M  V30 70845 O 3566.41 3.58359 -5.08515 0
M  V30 70846 C 3565.22 5.17448 -6.36119 0
M  V30 70847 O 3564.83 4.45322 -7.53318 0
M  V30 70848 C 3564.34 4.74639 -5.19936 0
M  V30 70849 C 3565.05 3.49432 -4.70418 0
M  V30 70850 N 3565 3.31776 -3.22945 0
M  V30 70851 C 3564.85 2.02742 -2.72939 0
M  V30 70852 O 3564.76 1.08301 -3.52749 0
M  V30 70853 N 3564.8 1.96117 -1.22063 0
M  V30 70854 C 3564.9 2.8878 -0.551566 0
M  V30 70855 N 3564.85 2.65609 0.750198 0
M  V30 70856 C 3565.05 4.22457 -1.03707 0
M  V30 70857 C 3565.1 4.37979 -2.39113 0
M  V30 70858 H 3567.84 6.54138 -5.7131 0
M  V30 70859 H 3568.11 5.30492 -4.44033 0
M  V30 70860 H 3567.24 4.55945 -6.76735 0
M  V30 70861 H 3564.59 2.6176 -5.18021 0
M  V30 70862 H 3564.31 5.52233 -4.41941 0
M  V30 70863 H 3563.32 4.52045 -5.53452 0
M  V30 70864 H 3565.15 6.25124 -6.55234 0
M  V30 70865 H 3565.22 5.37936 -2.80552 0
M  V30 70866 H 3565.12 5.07528 -0.359553 0
M  V30 70867 H 3564.73 1.69403 1.09847 0
M  V30 70868 H 3564.93 3.43701 1.41792 0
M  V30 70869 P 3563.28 4.23843 -7.83734 0
M  V30 70870 O 3563.06 4.19407 -9.29784 0
M  V30 70871 O 3562.49 5.24426 -7.09156 0
M  V30 70872 O 3563.03 2.7935 -7.20758 0
M  V30 70873 C 3563.97 1.7299 -7.50419 0
M  V30 70874 C 3563.24 0.406376 -7.57911 0
M  V30 70875 O 3563.03 -0.0897726 -6.21935 0
M  V30 70876 C 3561.84 0.447224 -8.1878 0
M  V30 70877 O 3561.45 -0.825065 -8.71101 0
M  V30 70878 C 3560.96 0.783801 -6.99623 0
M  V30 70879 C 3561.67 0.0619192 -5.85967 0
M  V30 70880 N 3561.62 0.790462 -4.56202 0
M  V30 70881 H 3564.46 1.93423 -8.4679 0
M  V30 70882 H 3564.73 1.68852 -6.70877 0
M  V30 70883 H 3563.86 -0.289041 -8.15388 0
M  V30 70884 H 3561.21 -0.927006 -5.72848 0
M  V30 70885 H 3560.93 1.86973 -6.82036 0
M  V30 70886 H 3559.94 0.403953 -7.13357 0
M  V30 70887 H 3561.77 1.20599 -8.97534 0
M  V30 70888 P 3559.9 -1.17771 -8.83182 0
M  V30 70889 O 3559.68 -2.07206 -9.98732 0
M  V30 70890 O 3559.11 0.0743816 -8.81969 0
M  V30 70891 O 3559.65 -1.97652 -7.47304 0
M  V30 70892 C 3560.59 -3.01133 -7.08783 0
M  V30 70893 C 3559.86 -4.12613 -6.37049 0
M  V30 70894 O 3559.65 -3.72827 -4.97879 0
M  V30 70895 C 3558.46 -4.45085 -6.88694 0
M  V30 70896 O 3558.07 -5.7877 -6.5624 0
M  V30 70897 C 3557.58 -3.47817 -6.12078 0
M  V30 70898 C 3558.29 -3.39414 -4.77697 0
M  V30 70899 N 3558.24 -2.04615 -4.15333 0
M  V30 70900 H 3561.08 -3.41248 -7.98759 0
M  V30 70901 H 3561.35 -2.5837 -6.41742 0
M  V30 70902 H 3560.48 -5.02657 -6.42673 0
M  V30 70903 P 3556.52 -6.144 -6.45285 0
M  V30 70904 O 3556.3 -7.54673 -6.86199 0
M  V30 70905 O 3555.73 -5.12391 -7.179 0
M  V30 70906 O 3556.27 -5.99158 -4.88404 0
M  V30 70907 C 3557.21 -6.60234 -3.96415 0
M  V30 70908 C 3556.48 -7.08259 -2.72856 0
M  V30 70909 O 3556.27 -5.9427 -1.83651 0
M  V30 70910 C 3555.08 -7.64886 -2.9555 0
M  V30 70911 O 3554.69 -8.53963 -1.90717 0
M  V30 70912 C 3554.2 -6.4116 -2.90739 0
M  V30 70913 C 3554.91 -5.55375 -1.86963 0
M  V30 70914 N 3554.86 -4.09664 -2.15742 0
M  V30 70915 H 3557.7 -7.45574 -4.45629 0
M  V30 70916 H 3557.97 -5.86232 -3.67314 0
M  V30 70917 H 3557.1 -7.84412 -2.24479 0
M  V30 70918 P 3553.14 -8.7635 -1.60911 0
M  V30 70919 O 3552.92 -10.1388 -1.11561 0
M  V30 70920 O 3552.35 -8.36503 -2.79617 0
M  V30 70921 O 3552.89 -7.71806 -0.42951 0
M  V30 70922 C 3553.83 -7.67148 0.673689 0
M  V30 70923 C 3553.1 -7.33374 1.95559 0
M  V30 70924 O 3552.89 -5.88721 2.00726 0
M  V30 70925 C 3551.7 -7.92526 2.10483 0
M  V30 70926 O 3551.31 -8.02971 3.47653 0
M  V30 70927 C 3550.82 -6.89602 1.41652 0
M  V30 70928 C 3551.53 -5.59201 1.75185 0
M  V30 70929 N 3551.48 -4.58235 0.662552 0
M  V30 70930 H 3554.32 -8.65116 0.777161 0
M  V30 70931 H 3554.59 -6.90173 0.474152 0
M  V30 70932 H 3553.72 -7.66548 2.79458 0
M  V30 70933 P 3549.76 -8.03563 3.84925 0
M  V30 70934 O 3549.54 -8.85821 5.0569 0
M  V30 70935 O 3548.97 -8.41101 2.65469 0
M  V30 70936 O 3549.51 -6.4965 4.18908 0
M  V30 70937 C 3550.45 -5.81037 5.05421 0
M  V30 70938 C 3549.72 -4.78366 5.89277 0
M  V30 70939 O 3549.51 -3.58302 5.08433 0
M  V30 70940 C 3548.32 -5.17448 6.36119 0
M  V30 70941 O 3547.93 -4.45271 7.53232 0
M  V30 70942 C 3547.44 -4.74639 5.19936 0
M  V30 70943 C 3548.15 -3.49432 4.70418 0
M  V30 70944 N 3548.1 -3.31776 3.22945 0
M  V30 70945 H 3550.94 -6.54213 5.71376 0
M  V30 70946 H 3551.21 -5.30492 4.44033 0
M  V30 70947 H 3550.34 -4.55889 6.76652 0
M  V30 70948 P 3546.38 -4.23843 7.83734 0
M  V30 70949 O 3546.16 -4.19407 9.29784 0
M  V30 70950 O 3545.59 -5.24426 7.09156 0
M  V30 70951 O 3546.13 -2.7935 7.20758 0
M  V30 70952 C 3547.07 -1.7299 7.50419 0
M  V30 70953 C 3546.34 -0.406376 7.57911 0
M  V30 70954 O 3546.13 0.0897726 6.21935 0
M  V30 70955 C 3544.94 -0.447224 8.1878 0
M  V30 70956 O 3544.55 0.825065 8.71101 0
M  V30 70957 C 3544.06 -0.783801 6.99623 0
M  V30 70958 C 3544.77 -0.0619192 5.85967 0
M  V30 70959 N 3544.72 -0.7859 4.56281 0
M  V30 70960 H 3547.56 -1.93423 8.4679 0
M  V30 70961 H 3547.83 -1.68181 6.71046 0
M  V30 70962 H 3546.96 0.289041 8.15388 0
M  V30 70963 P 3543 1.17771 8.83182 0
M  V30 70964 O 3542.78 2.07206 9.98732 0
M  V30 70965 O 3542.21 -0.0743816 8.81969 0
M  V30 70966 O 3542.75 1.97652 7.47304 0
M  V30 70967 C 3543.69 3.01055 7.08599 0
M  V30 70968 C 3542.96 4.12613 6.37049 0
M  V30 70969 O 3542.75 3.72827 4.97879 0
M  V30 70970 C 3541.56 4.45719 6.88164 0
M  V30 70971 O 3541.17 5.7877 6.5624 0
M  V30 70972 C 3540.68 3.47768 6.11991 0
M  V30 70973 C 3541.39 3.39356 4.77615 0
M  V30 70974 N 3541.34 2.04571 4.15244 0
M  V30 70975 C 3541.19 1.98587 2.78314 0
M  V30 70976 O 3541.1 2.98134 2.08835 0
M  V30 70977 N 3541.15 0.714467 2.24925 0
M  V30 70978 C 3541.24 -0.470001 2.94169 0
M  V30 70979 C 3541.39 -0.312541 4.36783 0
M  V30 70980 C 3541.44 0.914512 4.92583 0
M  V30 70981 H 3544.18 3.41169 7.98575 0
M  V30 70982 H 3544.45 2.58295 6.41556 0
M  V30 70983 H 3543.58 5.02657 6.42673 0
M  V30 70984 H 3540.93 4.11637 4.08885 0
M  V30 70985 H 3540.65 2.49626 6.61679 0
M  V30 70986 H 3539.66 3.86566 6.00778 0
M  V30 70987 H 3541.49 4.29943 7.96918 0
M  V30 70988 H 3541.56 1.00937 6.00374 0
M  V30 70989 P 3539.62 6.144 6.45285 0
M  V30 70990 O 3539.4 7.54673 6.86199 0
M  V30 70991 O 3538.83 5.12391 7.179 0
M  V30 70992 O 3539.37 5.99158 4.88404 0
M  V30 70993 C 3540.31 6.60234 3.96415 0
M  V30 70994 C 3539.58 7.08259 2.72856 0
M  V30 70995 O 3539.37 5.9427 1.83651 0
M  V30 70996 C 3538.18 7.64886 2.9555 0
M  V30 70997 O 3537.79 8.53963 1.90717 0
M  V30 70998 C 3537.3 6.4116 2.90739 0
M  V30 70999 C 3538.01 5.55375 1.86963 0
M  V30 71000 N 3537.96 4.09664 2.15742 0
M  V30 71001 H 3540.8 7.45574 4.45629 0
M  V30 71002 H 3541.07 5.86232 3.67314 0
M  V30 71003 H 3540.2 7.84412 2.24479 0
M  V30 71004 P 3536.24 8.7635 1.60911 0
M  V30 71005 O 3536.02 10.1388 1.11561 0
M  V30 71006 O 3535.45 8.36503 2.79617 0
M  V30 71007 O 3535.99 7.71806 0.42951 0
M  V30 71008 C 3536.93 7.67148 -0.673689 0
M  V30 71009 C 3536.2 7.33374 -1.95559 0
M  V30 71010 O 3535.99 5.88721 -2.00726 0
M  V30 71011 C 3534.8 7.92526 -2.10483 0
M  V30 71012 O 3534.41 8.02971 -3.47653 0
M  V30 71013 C 3533.92 6.89602 -1.41652 0
M  V30 71014 C 3534.63 5.59201 -1.75185 0
M  V30 71015 N 3534.58 4.58235 -0.662552 0
M  V30 71016 H 3537.42 8.65116 -0.777161 0
M  V30 71017 H 3537.69 6.90173 -0.474152 0
M  V30 71018 H 3536.82 7.66548 -2.79458 0
M  V30 71019 P 3532.86 8.03563 -3.84925 0
M  V30 71020 O 3532.64 8.85821 -5.0569 0
M  V30 71021 O 3532.07 8.41101 -2.65469 0
M  V30 71022 O 3532.61 6.4965 -4.18908 0
M  V30 71023 C 3533.55 5.81037 -5.05421 0
M  V30 71024 C 3532.82 4.78366 -5.89277 0
M  V30 71025 O 3532.61 3.58302 -5.08433 0
M  V30 71026 C 3531.42 5.17448 -6.36119 0
M  V30 71027 O 3531.03 4.45271 -7.53232 0
M  V30 71028 C 3530.54 4.74639 -5.19936 0
M  V30 71029 C 3531.25 3.49432 -4.70418 0
M  V30 71030 N 3531.2 3.31776 -3.22945 0
M  V30 71031 H 3534.04 6.54213 -5.71376 0
M  V30 71032 H 3534.31 5.30492 -4.44033 0
M  V30 71033 H 3533.44 4.55889 -6.76652 0
M  V30 71034 P 3529.48 4.23843 -7.83734 0
M  V30 71035 O 3529.26 4.19407 -9.29784 0
M  V30 71036 O 3528.69 5.24426 -7.09156 0
M  V30 71037 O 3529.23 2.7935 -7.20758 0
M  V30 71038 C 3530.17 1.7299 -7.50419 0
M  V30 71039 C 3529.44 0.406376 -7.57911 0
M  V30 71040 O 3529.23 -0.0897726 -6.21935 0
M  V30 71041 C 3528.04 0.447224 -8.1878 0
M  V30 71042 O 3527.65 -0.825065 -8.71101 0
M  V30 71043 C 3527.16 0.783801 -6.99623 0
M  V30 71044 C 3527.87 0.0619192 -5.85967 0
M  V30 71045 N 3527.82 0.7859 -4.56281 0
M  V30 71046 H 3530.66 1.93423 -8.4679 0
M  V30 71047 H 3530.93 1.68181 -6.71046 0
M  V30 71048 H 3530.06 -0.289041 -8.15388 0
M  V30 71049 P 3526.1 -1.17771 -8.83182 0
M  V30 71050 O 3525.88 -2.07206 -9.98732 0
M  V30 71051 O 3525.31 0.0743816 -8.81969 0
M  V30 71052 O 3525.85 -1.97652 -7.47304 0
M  V30 71053 C 3526.79 -3.01055 -7.08599 0
M  V30 71054 C 3526.06 -4.12613 -6.37049 0
M  V30 71055 O 3525.85 -3.72827 -4.97879 0
M  V30 71056 C 3524.66 -4.45719 -6.88164 0
M  V30 71057 O 3524.27 -5.7877 -6.5624 0
M  V30 71058 C 3523.78 -3.47768 -6.11991 0
M  V30 71059 C 3524.49 -3.39356 -4.77615 0
M  V30 71060 N 3524.44 -2.04571 -4.15244 0
M  V30 71061 C 3524.29 -1.98587 -2.78314 0
M  V30 71062 O 3524.2 -2.98134 -2.08835 0
M  V30 71063 N 3524.25 -0.714467 -2.24925 0
M  V30 71064 C 3524.34 0.470001 -2.94169 0
M  V30 71065 O 3524.29 1.55587 -2.35195 0
M  V30 71066 C 3524.49 0.312541 -4.36783 0
M  V30 71067 C 3524.6 1.57711 -5.16352 0
M  V30 71068 C 3524.54 -0.914512 -4.92583 0
M  V30 71069 H 3527.28 -3.41169 -7.98575 0
M  V30 71070 H 3527.55 -2.58295 -6.41556 0
M  V30 71071 H 3526.68 -5.02657 -6.42673 0
M  V30 71072 H 3524.03 -4.11637 -4.08885 0
M  V30 71073 H 3523.75 -2.49626 -6.61679 0
M  V30 71074 H 3522.76 -3.86566 -6.00778 0
M  V30 71075 H 3524.59 -4.29943 -7.96918 0
M  V30 71076 H 3524.66 -1.00937 -6.00374 0
M  V30 71077 H 3523.63 1.80153 -5.63503 0
M  V30 71078 H 3525.37 1.4566 -5.94104 0
M  V30 71079 H 3524.88 2.40664 -4.49645 0
M  V30 71080 H 3524.14 -0.647622 -1.25697 0
M  V30 71081 P 3522.72 -6.144 -6.45285 0
M  V30 71082 O 3522.5 -7.54673 -6.86199 0
M  V30 71083 O 3521.93 -5.12391 -7.179 0
M  V30 71084 O 3522.47 -5.99158 -4.88404 0
M  V30 71085 C 3523.41 -6.60234 -3.96415 0
M  V30 71086 C 3522.68 -7.08259 -2.72856 0
M  V30 71087 O 3522.47 -5.9427 -1.83651 0
M  V30 71088 C 3521.28 -7.64886 -2.9555 0
M  V30 71089 O 3520.89 -8.53963 -1.90717 0
M  V30 71090 C 3520.4 -6.4116 -2.90739 0
M  V30 71091 C 3521.11 -5.55375 -1.86963 0
M  V30 71092 N 3521.06 -4.09448 -2.16152 0
M  V30 71093 H 3523.9 -7.45574 -4.45629 0
M  V30 71094 H 3524.17 -5.85864 -3.679 0
M  V30 71095 H 3523.3 -7.84412 -2.24479 0
M  V30 71096 H 3520.65 -5.73457 -0.888562 0
M  V30 71097 H 3520.37 -5.90877 -3.88583 0
M  V30 71098 H 3519.38 -6.6596 -2.58858 0
M  V30 71099 H 3521.21 -8.16339 -3.92049 0
M  V30 71100 P 3519.34 -8.7635 -1.60911 0
M  V30 71101 O 3519.12 -10.1388 -1.11561 0
M  V30 71102 O 3518.55 -8.36503 -2.79617 0
M  V30 71103 O 3519.09 -7.71806 -0.42951 0
M  V30 71104 C 3520.03 -7.67148 0.673689 0
M  V30 71105 C 3519.3 -7.33374 1.95559 0
M  V30 71106 O 3519.09 -5.88721 2.00726 0
M  V30 71107 C 3517.9 -7.92526 2.10483 0
M  V30 71108 O 3517.51 -8.02971 3.47653 0
M  V30 71109 C 3517.02 -6.89602 1.41652 0
M  V30 71110 C 3517.73 -5.59201 1.75185 0
M  V30 71111 N 3517.68 -4.58235 0.662552 0
M  V30 71112 H 3520.52 -8.65116 0.777161 0
M  V30 71113 H 3520.79 -6.90173 0.474152 0
M  V30 71114 H 3519.92 -7.66548 2.79458 0
M  V30 71115 P 3515.96 -8.03563 3.84925 0
M  V30 71116 O 3515.74 -8.85821 5.0569 0
M  V30 71117 O 3515.17 -8.41101 2.65469 0
M  V30 71118 O 3515.71 -6.4965 4.18908 0
M  V30 71119 C 3516.65 -5.81037 5.05421 0
M  V30 71120 C 3515.92 -4.78366 5.89277 0
M  V30 71121 O 3515.71 -3.58302 5.08433 0
M  V30 71122 C 3514.52 -5.17448 6.36119 0
M  V30 71123 O 3514.13 -4.45271 7.53232 0
M  V30 71124 C 3513.64 -4.74639 5.19936 0
M  V30 71125 C 3514.35 -3.49432 4.70418 0
M  V30 71126 N 3514.3 -3.31776 3.22945 0
M  V30 71127 H 3517.14 -6.54213 5.71376 0
M  V30 71128 H 3517.41 -5.30492 4.44033 0
M  V30 71129 H 3516.54 -4.55889 6.76652 0
M  V30 71130 P 3512.58 -4.23843 7.83734 0
M  V30 71131 O 3512.36 -4.19407 9.29784 0
M  V30 71132 O 3511.79 -5.24426 7.09156 0
M  V30 71133 O 3512.33 -2.7935 7.20758 0
M  V30 71134 C 3513.27 -1.7299 7.50419 0
M  V30 71135 C 3512.54 -0.406376 7.57911 0
M  V30 71136 O 3512.33 0.0897726 6.21935 0
M  V30 71137 C 3511.14 -0.447224 8.1878 0
M  V30 71138 O 3510.75 0.825065 8.71101 0
M  V30 71139 C 3510.26 -0.783801 6.99623 0
M  V30 71140 C 3510.97 -0.0619192 5.85967 0
M  V30 71141 N 3510.92 -0.790462 4.56202 0
M  V30 71142 C 3511 -2.13895 4.34171 0
M  V30 71143 N 3510.93 -2.46449 3.08687 0
M  V30 71144 C 3510.78 -1.2525 2.43697 0
M  V30 71145 C 3510.65 -0.914535 1.07318 0
M  V30 71146 N 3510.64 -1.80782 0.0887348 0
M  V30 71147 N 3510.53 0.386745 0.768133 0
M  V30 71148 C 3510.54 1.28096 1.75159 0
M  V30 71149 N 3510.66 1.09708 3.04861 0
M  V30 71150 C 3510.78 -0.214857 3.32306 0
M  V30 71151 H 3513.76 -1.93423 8.4679 0
M  V30 71152 H 3514.03 -1.68852 6.70877 0
M  V30 71153 H 3513.16 0.289041 8.15388 0
M  V30 71154 H 3510.51 0.927006 5.72848 0
M  V30 71155 H 3510.23 -1.86973 6.82036 0
M  V30 71156 H 3509.24 -0.403953 7.13357 0
M  V30 71157 H 3511.07 -1.20599 8.97534 0
M  V30 71158 H 3511.11 -2.86846 5.14318 0
M  V30 71159 H 3510.73 -2.81082 0.302037 0
M  V30 71160 H 3510.54 -1.49688 -0.889064 0
M  V30 71161 H 3510.43 2.31317 1.43855 0
M  V30 71162 P 3509.2 1.17771 8.83182 0
M  V30 71163 O 3508.98 2.07206 9.98732 0
M  V30 71164 O 3508.41 -0.0743816 8.81969 0
M  V30 71165 O 3508.95 1.97652 7.47304 0
M  V30 71166 C 3509.89 3.01133 7.08783 0
M  V30 71167 C 3509.16 4.12613 6.37049 0
M  V30 71168 O 3508.95 3.72827 4.97879 0
M  V30 71169 C 3507.76 4.45085 6.88694 0
M  V30 71170 O 3507.37 5.7877 6.5624 0
M  V30 71171 C 3506.88 3.47817 6.12078 0
M  V30 71172 C 3507.59 3.39414 4.77697 0
M  V30 71173 N 3507.54 2.04615 4.15333 0
M  V30 71174 H 3510.38 3.41248 7.98759 0
M  V30 71175 H 3510.65 2.5837 6.41742 0
M  V30 71176 H 3509.78 5.02657 6.42673 0
M  V30 71177 P 3505.82 6.144 6.45285 0
M  V30 71178 O 3505.6 7.54673 6.86199 0
M  V30 71179 O 3505.03 5.12391 7.179 0
M  V30 71180 O 3505.57 5.99158 4.88404 0
M  V30 71181 C 3506.51 6.60234 3.96415 0
M  V30 71182 C 3505.78 7.08259 2.72856 0
M  V30 71183 O 3505.57 5.9427 1.83651 0
M  V30 71184 C 3504.38 7.64886 2.9555 0
M  V30 71185 O 3503.99 8.53963 1.90717 0
M  V30 71186 C 3503.5 6.4116 2.90739 0
M  V30 71187 C 3504.21 5.55375 1.86963 0
M  V30 71188 N 3504.16 4.09664 2.15742 0
M  V30 71189 H 3507 7.45574 4.45629 0
M  V30 71190 H 3507.27 5.86232 3.67314 0
M  V30 71191 H 3506.4 7.84412 2.24479 0
M  V30 71192 P 3502.44 8.7635 1.60911 0
M  V30 71193 O 3502.22 10.1388 1.11561 0
M  V30 71194 O 3501.65 8.36503 2.79617 0
M  V30 71195 O 3502.19 7.71806 0.42951 0
M  V30 71196 C 3503.13 7.66948 -0.673514 0
M  V30 71197 C 3502.4 7.33374 -1.95559 0
M  V30 71198 O 3502.19 5.88721 -2.00726 0
M  V30 71199 C 3501 7.92218 -2.1125 0
M  V30 71200 O 3500.61 8.02971 -3.47653 0
M  V30 71201 C 3500.12 6.89504 -1.41631 0
M  V30 71202 C 3500.83 5.59106 -1.75155 0
M  V30 71203 N 3500.78 4.58136 -0.662409 0
M  V30 71204 C 3500.63 3.26059 -1.02863 0
M  V30 71205 O 3500.54 2.90743 -2.19009 0
M  V30 71206 N 3500.59 2.35995 0.0155585 0
M  V30 71207 C 3500.68 2.65248 1.35603 0
M  V30 71208 O 3500.63 1.75605 2.20651 0
M  V30 71209 C 3500.83 4.05747 1.64698 0
M  V30 71210 C 3500.94 4.42345 3.09553 0
M  V30 71211 C 3500.88 4.96734 0.652411 0
M  V30 71212 H 3503.62 8.64917 -0.776982 0
M  V30 71213 H 3503.89 6.89974 -0.474015 0
M  V30 71214 H 3503.02 7.66548 -2.79458 0
M  V30 71215 H 3500.37 5.16076 -2.65138 0
M  V30 71216 H 3500.09 7.06433 -0.329384 0
M  V30 71217 H 3499.1 6.90829 -1.81996 0
M  V30 71218 H 3500.93 8.90774 -1.62639 0
M  V30 71219 H 3501 6.02181 0.895285 0
M  V30 71220 H 3499.97 4.80252 3.45468 0
M  V30 71221 H 3501.71 5.20015 3.22119 0
M  V30 71222 H 3501.22 3.53269 3.67833 0
M  V30 71223 H 3500.48 1.39558 -0.227499 0
M  V30 71224 P 3499.06 8.03563 -3.84925 0
M  V30 71225 O 3498.84 8.85821 -5.0569 0
M  V30 71226 O 3498.27 8.41101 -2.65469 0
M  V30 71227 O 3498.81 6.4965 -4.18908 0
M  V30 71228 C 3499.75 5.80886 -5.05289 0
M  V30 71229 C 3499.02 4.78366 -5.89277 0
M  V30 71230 O 3498.81 3.58302 -5.08433 0
M  V30 71231 C 3497.62 5.16748 -6.36559 0
M  V30 71232 O 3497.23 4.45271 -7.53232 0
M  V30 71233 C 3496.74 4.74572 -5.19863 0
M  V30 71234 C 3497.45 3.49373 -4.70338 0
M  V30 71235 N 3497.4 3.31704 -3.22876 0
M  V30 71236 C 3497.25 2.03326 -2.74871 0
M  V30 71237 O 3497.16 1.06486 -3.48076 0
M  V30 71238 N 3497.21 1.91838 -1.37456 0
M  V30 71239 C 3497.3 2.94295 -0.462035 0
M  V30 71240 C 3497.45 4.25064 -1.05249 0
M  V30 71241 C 3497.5 4.40214 -2.39192 0
M  V30 71242 H 3500.24 6.54063 -5.71245 0
M  V30 71243 H 3500.51 5.30339 -4.43905 0
M  V30 71244 H 3499.64 4.55889 -6.76652 0
M  V30 71245 H 3496.99 2.6167 -5.17842 0
M  V30 71246 H 3496.71 5.52155 -4.41878 0
M  V30 71247 H 3495.72 4.51918 -5.53297 0
M  V30 71248 H 3497.55 6.25055 -6.55162 0
M  V30 71249 H 3497.62 5.39798 -2.81523 0
M  V30 71250 P 3495.68 4.23843 -7.83734 0
M  V30 71251 O 3495.46 4.19407 -9.29784 0
M  V30 71252 O 3494.89 5.24426 -7.09156 0
M  V30 71253 O 3495.43 2.7935 -7.20758 0
M  V30 71254 C 3496.37 1.7299 -7.50419 0
M  V30 71255 C 3495.64 0.406376 -7.57911 0
M  V30 71256 O 3495.43 -0.0897726 -6.21935 0
M  V30 71257 C 3494.24 0.447224 -8.1878 0
M  V30 71258 O 3493.85 -0.825065 -8.71101 0
M  V30 71259 C 3493.36 0.783801 -6.99623 0
M  V30 71260 C 3494.07 0.0619192 -5.85967 0
M  V30 71261 N 3494.02 0.7859 -4.56281 0
M  V30 71262 H 3496.86 1.93423 -8.4679 0
M  V30 71263 H 3497.13 1.68181 -6.71046 0
M  V30 71264 H 3496.26 -0.289041 -8.15388 0
M  V30 71265 P 3492.3 -1.17771 -8.83182 0
M  V30 71266 O 3492.08 -2.07206 -9.98732 0
M  V30 71267 O 3491.51 0.0743816 -8.81969 0
M  V30 71268 O 3492.05 -1.97652 -7.47304 0
M  V30 71269 C 3492.99 -3.01133 -7.08783 0
M  V30 71270 C 3492.26 -4.12613 -6.37049 0
M  V30 71271 O 3492.05 -3.72827 -4.97879 0
M  V30 71272 C 3490.86 -4.45085 -6.88694 0
M  V30 71273 O 3490.47 -5.7877 -6.5624 0
M  V30 71274 C 3489.98 -3.47817 -6.12078 0
M  V30 71275 C 3490.69 -3.39414 -4.77697 0
M  V30 71276 N 3490.64 -2.04199 -4.15538 0
M  V30 71277 H 3493.48 -3.41248 -7.98759 0
M  V30 71278 H 3493.75 -2.57728 -6.42 0
M  V30 71279 H 3492.88 -5.02657 -6.42673 0
M  V30 71280 H 3490.23 -4.11708 -4.08956 0
M  V30 71281 H 3489.95 -2.49626 -6.61679 0
M  V30 71282 H 3488.96 -3.8662 -6.00862 0
M  V30 71283 H 3490.79 -4.29991 -7.97006 0
M  V30 71284 P 3488.92 -6.144 -6.45285 0
M  V30 71285 O 3488.7 -7.54673 -6.86199 0
M  V30 71286 O 3488.13 -5.12391 -7.179 0
M  V30 71287 O 3488.67 -5.99158 -4.88404 0
M  V30 71288 C 3489.61 -6.60234 -3.96415 0
M  V30 71289 C 3488.88 -7.08259 -2.72856 0
M  V30 71290 O 3488.67 -5.9427 -1.83651 0
M  V30 71291 C 3487.48 -7.64886 -2.9555 0
M  V30 71292 O 3487.09 -8.53963 -1.90717 0
M  V30 71293 C 3486.6 -6.4116 -2.90739 0
M  V30 71294 C 3487.31 -5.55375 -1.86963 0
M  V30 71295 N 3487.26 -4.09664 -2.15742 0
M  V30 71296 H 3490.1 -7.45574 -4.45629 0
M  V30 71297 H 3490.37 -5.86232 -3.67314 0
M  V30 71298 H 3489.5 -7.84412 -2.24479 0
M  V30 71299 P 3485.54 -8.7635 -1.60911 0
M  V30 71300 O 3485.32 -10.1388 -1.11561 0
M  V30 71301 O 3484.75 -8.36503 -2.79617 0
M  V30 71302 O 3485.29 -7.71806 -0.42951 0
M  V30 71303 C 3486.23 -7.67148 0.673689 0
M  V30 71304 C 3485.5 -7.33374 1.95559 0
M  V30 71305 O 3485.29 -5.88721 2.00726 0
M  V30 71306 C 3484.1 -7.92526 2.10483 0
M  V30 71307 O 3483.71 -8.02971 3.47653 0
M  V30 71308 C 3483.22 -6.89602 1.41652 0
M  V30 71309 C 3483.93 -5.59201 1.75185 0
M  V30 71310 N 3483.88 -4.58301 0.657969 0
M  V30 71311 H 3486.72 -8.65116 0.777161 0
M  V30 71312 H 3486.99 -6.9022 0.46725 0
M  V30 71313 H 3486.12 -7.66548 2.79458 0
M  V30 71314 H 3483.47 -5.16165 2.65183 0
M  V30 71315 H 3483.19 -7.06433 0.329384 0
M  V30 71316 H 3482.2 -6.90926 1.82021 0
M  V30 71317 H 3484.03 -8.90873 1.62657 0
M  V30 71318 P 3482.16 -8.03563 3.84925 0
M  V30 71319 O 3481.94 -8.85821 5.0569 0
M  V30 71320 O 3481.37 -8.41101 2.65469 0
M  V30 71321 O 3481.91 -6.4965 4.18908 0
M  V30 71322 C 3482.85 -5.81037 5.05421 0
M  V30 71323 C 3482.12 -4.78366 5.89277 0
M  V30 71324 O 3481.91 -3.58302 5.08433 0
M  V30 71325 C 3480.72 -5.17448 6.36119 0
M  V30 71326 O 3480.33 -4.45271 7.53232 0
M  V30 71327 C 3479.84 -4.74639 5.19936 0
M  V30 71328 C 3480.55 -3.49432 4.70418 0
M  V30 71329 N 3480.5 -3.32099 3.22613 0
M  V30 71330 C 3480.58 -4.28245 2.25527 0
M  V30 71331 N 3480.51 -3.80823 1.04874 0
M  V30 71332 C 3480.36 -2.44571 1.23535 0
M  V30 71333 C 3480.23 -1.37068 0.330675 0
M  V30 71334 N 3480.22 -1.51472 -0.990824 0
M  V30 71335 N 3480.11 -0.138614 0.848756 0
M  V30 71336 C 3480.12 0.00675923 2.16999 0
M  V30 71337 N 3480.24 -0.904372 3.11122 0
M  V30 71338 C 3480.36 -2.12707 2.56212 0
M  V30 71339 H 3483.34 -6.54213 5.71376 0
M  V30 71340 H 3483.61 -5.30936 4.43503 0
M  V30 71341 H 3482.74 -4.55889 6.76652 0
M  V30 71342 H 3480.09 -2.61715 5.17932 0
M  V30 71343 H 3479.81 -5.52155 4.41878 0
M  V30 71344 H 3478.82 -4.51981 5.53374 0
M  V30 71345 H 3480.65 -6.25124 6.55234 0
M  V30 71346 H 3480.69 -5.34372 2.47488 0
M  V30 71347 H 3480.31 -2.45153 -1.4078 0
M  V30 71348 H 3480.12 -0.688422 -1.59911 0
M  V30 71349 H 3480.01 1.02584 2.52346 0
M  V30 71350 P 3478.78 -4.23843 7.83734 0
M  V30 71351 O 3478.56 -4.19407 9.29784 0
M  V30 71352 O 3477.99 -5.24426 7.09156 0
M  V30 71353 O 3478.53 -2.7935 7.20758 0
M  V30 71354 C 3479.47 -1.7299 7.50419 0
M  V30 71355 C 3478.74 -0.406376 7.57911 0
M  V30 71356 O 3478.53 0.0897726 6.21935 0
M  V30 71357 C 3477.34 -0.447224 8.1878 0
M  V30 71358 O 3476.95 0.825065 8.71101 0
M  V30 71359 C 3476.46 -0.783801 6.99623 0
M  V30 71360 C 3477.17 -0.0619192 5.85967 0
M  V30 71361 N 3477.12 -0.790462 4.56202 0
M  V30 71362 H 3479.96 -1.93423 8.4679 0
M  V30 71363 H 3480.23 -1.68852 6.70877 0
M  V30 71364 H 3479.36 0.289041 8.15388 0
M  V30 71365 H 3476.71 0.927006 5.72848 0
M  V30 71366 H 3476.43 -1.86973 6.82036 0
M  V30 71367 H 3475.44 -0.403953 7.13357 0
M  V30 71368 H 3477.27 -1.20599 8.97534 0
M  V30 71369 P 3475.4 1.17771 8.83182 0
M  V30 71370 O 3475.18 2.07206 9.98732 0
M  V30 71371 O 3474.61 -0.0743816 8.81969 0
M  V30 71372 O 3475.15 1.97652 7.47304 0
M  V30 71373 C 3476.09 3.01133 7.08783 0
M  V30 71374 C 3475.36 4.12613 6.37049 0
M  V30 71375 O 3475.15 3.72827 4.97879 0
M  V30 71376 C 3473.96 4.45085 6.88694 0
M  V30 71377 O 3473.57 5.7877 6.5624 0
M  V30 71378 C 3473.08 3.47817 6.12078 0
M  V30 71379 C 3473.79 3.39414 4.77697 0
M  V30 71380 N 3473.74 2.04615 4.15333 0
M  V30 71381 H 3476.58 3.41248 7.98759 0
M  V30 71382 H 3476.85 2.5837 6.41742 0
M  V30 71383 H 3475.98 5.02657 6.42673 0
M  V30 71384 P 3472.02 6.144 6.45285 0
M  V30 71385 O 3471.8 7.54673 6.86199 0
M  V30 71386 O 3471.23 5.12391 7.179 0
M  V30 71387 O 3471.77 5.99236 4.88467 0
M  V30 71388 C 3472.71 6.60234 3.96415 0
M  V30 71389 C 3471.98 7.08079 2.736 0
M  V30 71390 O 3471.77 5.94365 1.8368 0
M  V30 71391 C 3470.58 7.64886 2.9555 0
M  V30 71392 O 3470.19 8.5406 1.90739 0
M  V30 71393 C 3469.7 6.4116 2.90739 0
M  V30 71394 C 3470.41 5.55375 1.86963 0
M  V30 71395 N 3470.36 4.09664 2.15742 0
M  V30 71396 C 3470.21 3.22231 1.08477 0
M  V30 71397 O 3470.12 3.68951 -0.0600489 0
M  V30 71398 N 3470.16 1.76692 1.48799 0
M  V30 71399 C 3470.26 1.41695 2.57602 0
M  V30 71400 N 3470.21 0.107296 2.75791 0
M  V30 71401 C 3470.41 2.29178 3.69733 0
M  V30 71402 C 3470.46 3.62753 3.42653 0
M  V30 71403 H 3473.2 7.45488 4.45578 0
M  V30 71404 H 3473.47 5.86232 3.67314 0
M  V30 71405 H 3472.6 7.84508 2.24507 0
M  V30 71406 H 3469.95 5.73556 0.888715 0
M  V30 71407 H 3469.67 5.9096 3.88638 0
M  V30 71408 H 3468.68 6.66053 2.58894 0
M  V30 71409 H 3470.51 8.16339 3.92049 0
M  V30 71410 H 3470.58 4.33052 4.24913 0
M  V30 71411 H 3470.48 1.9103 4.71577 0
M  V30 71412 H 3470.09 -0.521221 1.95056 0
M  V30 71413 H 3470.29 -0.286429 3.70695 0
M  V30 71414 P 3468.64 8.7635 1.60911 0
M  V30 71415 O 3468.42 10.1388 1.11561 0
M  V30 71416 O 3467.85 8.36503 2.79617 0
M  V30 71417 O 3468.39 7.71806 0.42951 0
M  V30 71418 C 3469.33 7.67148 -0.673689 0
M  V30 71419 C 3468.6 7.33374 -1.95559 0
M  V30 71420 O 3468.39 5.88721 -2.00726 0
M  V30 71421 C 3467.2 7.92526 -2.10483 0
M  V30 71422 O 3466.81 8.02971 -3.47653 0
M  V30 71423 C 3466.32 6.89602 -1.41652 0
M  V30 71424 C 3467.03 5.59201 -1.75185 0
M  V30 71425 N 3466.98 4.58301 -0.657969 0
M  V30 71426 H 3469.82 8.65116 -0.777161 0
M  V30 71427 H 3470.09 6.9022 -0.46725 0
M  V30 71428 H 3469.22 7.66548 -2.79458 0
M  V30 71429 H 3466.57 5.16165 -2.65183 0
M  V30 71430 H 3466.29 7.06433 -0.329384 0
M  V30 71431 H 3465.3 6.90926 -1.82021 0
M  V30 71432 H 3467.13 8.90873 -1.62657 0
M  V30 71433 P 3465.26 8.03563 -3.84925 0
M  V30 71434 O 3465.04 8.85821 -5.0569 0
M  V30 71435 O 3464.47 8.41101 -2.65469 0
M  V30 71436 O 3465.01 6.49734 -4.18962 0
M  V30 71437 C 3465.95 5.81037 -5.05421 0
M  V30 71438 C 3465.22 4.79018 -5.88876 0
M  V30 71439 O 3465.01 3.58359 -5.08515 0
M  V30 71440 C 3463.82 5.17448 -6.36119 0
M  V30 71441 O 3463.43 4.45322 -7.53318 0
M  V30 71442 C 3462.94 4.74639 -5.19936 0
M  V30 71443 C 3463.65 3.49432 -4.70418 0
M  V30 71444 N 3463.6 3.31776 -3.22945 0
M  V30 71445 C 3463.45 2.02742 -2.72939 0
M  V30 71446 O 3463.36 1.08301 -3.52749 0
M  V30 71447 N 3463.4 1.96117 -1.22063 0
M  V30 71448 C 3463.5 2.8878 -0.551566 0
M  V30 71449 N 3463.45 2.65609 0.750198 0
M  V30 71450 C 3463.65 4.22457 -1.03707 0
M  V30 71451 C 3463.7 4.37979 -2.39113 0
M  V30 71452 H 3466.44 6.54138 -5.7131 0
M  V30 71453 H 3466.71 5.30492 -4.44033 0
M  V30 71454 H 3465.84 4.55945 -6.76735 0
M  V30 71455 H 3463.19 2.6176 -5.18021 0
M  V30 71456 H 3462.91 5.52233 -4.41941 0
M  V30 71457 H 3461.92 4.52045 -5.53452 0
M  V30 71458 H 3463.75 6.25124 -6.55234 0
M  V30 71459 H 3463.82 5.37936 -2.80552 0
M  V30 71460 H 3463.72 5.07528 -0.359553 0
M  V30 71461 H 3463.33 1.69403 1.09847 0
M  V30 71462 H 3463.53 3.43701 1.41792 0
M  V30 71463 P 3461.88 4.23843 -7.83734 0
M  V30 71464 O 3461.66 4.19407 -9.29784 0
M  V30 71465 O 3461.09 5.24426 -7.09156 0
M  V30 71466 O 3461.63 2.7935 -7.20758 0
M  V30 71467 C 3462.57 1.7299 -7.50419 0
M  V30 71468 C 3461.84 0.406376 -7.57911 0
M  V30 71469 O 3461.63 -0.0897726 -6.21935 0
M  V30 71470 C 3460.44 0.447224 -8.1878 0
M  V30 71471 O 3460.05 -0.825065 -8.71101 0
M  V30 71472 C 3459.56 0.783801 -6.99623 0
M  V30 71473 C 3460.27 0.0619192 -5.85967 0
M  V30 71474 N 3460.22 0.7859 -4.56281 0
M  V30 71475 H 3463.06 1.93423 -8.4679 0
M  V30 71476 H 3463.33 1.68181 -6.71046 0
M  V30 71477 H 3462.46 -0.289041 -8.15388 0
M  V30 71478 P 3458.5 -1.17771 -8.83182 0
M  V30 71479 O 3458.28 -2.07206 -9.98732 0
M  V30 71480 O 3457.71 0.0743816 -8.81969 0
M  V30 71481 O 3458.25 -1.97652 -7.47304 0
M  V30 71482 C 3459.19 -3.01133 -7.08783 0
M  V30 71483 C 3458.46 -4.12613 -6.37049 0
M  V30 71484 O 3458.25 -3.72827 -4.97879 0
M  V30 71485 C 3457.06 -4.45085 -6.88694 0
M  V30 71486 O 3456.67 -5.7877 -6.5624 0
M  V30 71487 C 3456.18 -3.47817 -6.12078 0
M  V30 71488 C 3456.89 -3.39414 -4.77697 0
M  V30 71489 N 3456.84 -2.04615 -4.15333 0
M  V30 71490 C 3456.92 -0.803897 -4.75249 0
M  V30 71491 N 3456.84 0.197615 -3.91502 0
M  V30 71492 C 3456.7 -0.413002 -2.66823 0
M  V30 71493 C 3456.57 0.157221 -1.38007 0
M  V30 71494 N 3456.45 -0.833136 -0.390236 0
M  V30 71495 C 3456.45 -2.19402 -0.623885 0
M  V30 71496 N 3456.32 -2.97622 0.449677 0
M  V30 71497 N 3456.58 -2.73005 -1.83601 0
M  V30 71498 C 3456.7 -1.78786 -2.80935 0
M  V30 71499 H 3459.68 -3.41248 -7.98759 0
M  V30 71500 H 3459.95 -2.5837 -6.41742 0
M  V30 71501 H 3459.08 -5.02657 -6.42673 0
M  V30 71502 P 3455.12 -6.144 -6.45285 0
M  V30 71503 O 3454.9 -7.54673 -6.86199 0
M  V30 71504 O 3454.33 -5.12391 -7.179 0
M  V30 71505 O 3454.87 -5.99158 -4.88404 0
M  V30 71506 C 3455.81 -6.60234 -3.96415 0
M  V30 71507 C 3455.08 -7.08259 -2.72856 0
M  V30 71508 O 3454.87 -5.9427 -1.83651 0
M  V30 71509 C 3453.68 -7.64886 -2.9555 0
M  V30 71510 O 3453.29 -8.53963 -1.90717 0
M  V30 71511 C 3452.8 -6.4116 -2.90739 0
M  V30 71512 C 3453.51 -5.55375 -1.86963 0
M  V30 71513 N 3453.46 -4.09448 -2.16152 0
M  V30 71514 C 3453.54 -3.46824 -3.37593 0
M  V30 71515 N 3453.47 -2.17422 -3.29777 0
M  V30 71516 C 3453.32 -1.93065 -1.94427 0
M  V30 71517 C 3453.19 -0.738053 -1.20141 0
M  V30 71518 N 3453.18 0.474256 -1.74676 0
M  V30 71519 N 3453.07 -0.850049 0.13045 0
M  V30 71520 C 3453.08 -2.06169 0.676992 0
M  V30 71521 N 3453.2 -3.23842 0.101312 0
M  V30 71522 C 3453.32 -3.09402 -1.23122 0
M  V30 71523 H 3456.3 -7.45574 -4.45629 0
M  V30 71524 H 3456.57 -5.85864 -3.679 0
M  V30 71525 H 3455.7 -7.84412 -2.24479 0
M  V30 71526 H 3453.05 -5.73457 -0.888562 0
M  V30 71527 H 3452.77 -5.90877 -3.88583 0
M  V30 71528 H 3451.78 -6.6596 -2.58858 0
M  V30 71529 H 3453.61 -8.16339 -3.92049 0
M  V30 71530 H 3453.65 -4.00505 -4.3174 0
M  V30 71531 H 3453.27 0.581337 -2.76658 0
M  V30 71532 H 3453.08 1.30811 -1.14888 0
M  V30 71533 H 3452.97 -2.08295 1.75542 0
M  V30 71534 P 3451.74 -8.7635 -1.60911 0
M  V30 71535 O 3451.52 -10.1388 -1.11561 0
M  V30 71536 O 3450.95 -8.36503 -2.79617 0
M  V30 71537 O 3451.49 -7.71806 -0.42951 0
M  V30 71538 C 3452.43 -7.67148 0.673689 0
M  V30 71539 C 3451.7 -7.33374 1.95559 0
M  V30 71540 O 3451.49 -5.88721 2.00726 0
M  V30 71541 C 3450.3 -7.92526 2.10483 0
M  V30 71542 O 3449.91 -8.02971 3.47653 0
M  V30 71543 C 3449.42 -6.89602 1.41652 0
M  V30 71544 C 3450.13 -5.59201 1.75185 0
M  V30 71545 N 3450.08 -4.58235 0.662552 0
M  V30 71546 C 3450.16 -4.7683 -0.704049 0
M  V30 71547 N 3450.08 -3.66233 -1.39775 0
M  V30 71548 C 3449.94 -2.66526 -0.431739 0
M  V30 71549 C 3449.81 -1.26394 -0.575992 0
M  V30 71550 N 3449.69 -0.62859 0.67177 0
M  V30 71551 C 3449.69 -1.27134 1.89385 0
M  V30 71552 N 3449.56 -0.492035 2.96951 0
M  V30 71553 N 3449.82 -2.58978 2.02907 0
M  V30 71554 C 3449.94 -3.22433 0.832218 0
M  V30 71555 H 3452.92 -8.65116 0.777161 0
M  V30 71556 H 3453.19 -6.90173 0.474152 0
M  V30 71557 H 3452.32 -7.66548 2.79458 0
M  V30 71558 P 3448.36 -8.03563 3.84925 0
M  V30 71559 O 3448.14 -8.85821 5.0569 0
M  V30 71560 O 3447.57 -8.41101 2.65469 0
M  V30 71561 O 3448.11 -6.4965 4.18908 0
M  V30 71562 C 3449.05 -5.81037 5.05421 0
M  V30 71563 C 3448.32 -4.78366 5.89277 0
M  V30 71564 O 3448.11 -3.58302 5.08433 0
M  V30 71565 C 3446.92 -5.17448 6.36119 0
M  V30 71566 O 3446.53 -4.45271 7.53232 0
M  V30 71567 C 3446.04 -4.74639 5.19936 0
M  V30 71568 C 3446.75 -3.49432 4.70418 0
M  V30 71569 N 3446.7 -3.31776 3.22945 0
M  V30 71570 H 3449.54 -6.54213 5.71376 0
M  V30 71571 H 3449.81 -5.30492 4.44033 0
M  V30 71572 H 3448.94 -4.55889 6.76652 0
M  V30 71573 P 3444.98 -4.23843 7.83734 0
M  V30 71574 O 3444.76 -4.19407 9.29784 0
M  V30 71575 O 3444.19 -5.24426 7.09156 0
M  V30 71576 O 3444.73 -2.7935 7.20758 0
M  V30 71577 C 3445.67 -1.7299 7.50419 0
M  V30 71578 C 3444.94 -0.406376 7.57911 0
M  V30 71579 O 3444.73 0.0897726 6.21935 0
M  V30 71580 C 3443.54 -0.447224 8.1878 0
M  V30 71581 O 3443.15 0.825065 8.71101 0
M  V30 71582 C 3442.66 -0.783801 6.99623 0
M  V30 71583 C 3443.37 -0.0619192 5.85967 0
M  V30 71584 N 3443.32 -0.790462 4.56202 0
M  V30 71585 C 3443.4 -2.13895 4.34171 0
M  V30 71586 N 3443.33 -2.46449 3.08687 0
M  V30 71587 C 3443.18 -1.2525 2.43697 0
M  V30 71588 C 3443.05 -0.914535 1.07318 0
M  V30 71589 N 3443.04 -1.80782 0.0887348 0
M  V30 71590 N 3442.93 0.386745 0.768133 0
M  V30 71591 C 3442.94 1.28096 1.75159 0
M  V30 71592 N 3443.06 1.09708 3.04861 0
M  V30 71593 C 3443.18 -0.214857 3.32306 0
M  V30 71594 H 3446.16 -1.93423 8.4679 0
M  V30 71595 H 3446.43 -1.68852 6.70877 0
M  V30 71596 H 3445.56 0.289041 8.15388 0
M  V30 71597 H 3442.91 0.927006 5.72848 0
M  V30 71598 H 3442.63 -1.86973 6.82036 0
M  V30 71599 H 3441.64 -0.403953 7.13357 0
M  V30 71600 H 3443.47 -1.20599 8.97534 0
M  V30 71601 H 3443.51 -2.86846 5.14318 0
M  V30 71602 H 3443.13 -2.81082 0.302037 0
M  V30 71603 H 3442.94 -1.49688 -0.889064 0
M  V30 71604 H 3442.83 2.31317 1.43855 0
M  V30 71605 P 3441.6 1.17771 8.83182 0
M  V30 71606 O 3441.38 2.07206 9.98732 0
M  V30 71607 O 3440.81 -0.0743816 8.81969 0
M  V30 71608 O 3441.35 1.97652 7.47304 0
M  V30 71609 C 3442.29 3.01133 7.08783 0
M  V30 71610 C 3441.56 4.12613 6.37049 0
M  V30 71611 O 3441.35 3.72827 4.97879 0
M  V30 71612 C 3440.16 4.45085 6.88694 0
M  V30 71613 O 3439.77 5.7877 6.5624 0
M  V30 71614 C 3439.28 3.47817 6.12078 0
M  V30 71615 C 3439.99 3.39414 4.77697 0
M  V30 71616 N 3439.94 2.04615 4.15333 0
M  V30 71617 H 3442.78 3.41248 7.98759 0
M  V30 71618 H 3443.05 2.5837 6.41742 0
M  V30 71619 H 3442.18 5.02657 6.42673 0
M  V30 71620 P 3438.22 6.144 6.45285 0
M  V30 71621 O 3438 7.54673 6.86199 0
M  V30 71622 O 3437.43 5.12391 7.179 0
M  V30 71623 O 3437.97 5.99158 4.88404 0
M  V30 71624 C 3438.91 6.60234 3.96415 0
M  V30 71625 C 3438.18 7.08259 2.72856 0
M  V30 71626 O 3437.97 5.9427 1.83651 0
M  V30 71627 C 3436.78 7.64886 2.9555 0
M  V30 71628 O 3436.39 8.53963 1.90717 0
M  V30 71629 C 3435.9 6.4116 2.90739 0
M  V30 71630 C 3436.61 5.55375 1.86963 0
M  V30 71631 N 3436.56 4.09448 2.16152 0
M  V30 71632 H 3439.4 7.45574 4.45629 0
M  V30 71633 H 3439.67 5.85864 3.679 0
M  V30 71634 H 3438.8 7.84412 2.24479 0
M  V30 71635 H 3436.15 5.73457 0.888562 0
M  V30 71636 H 3435.87 5.90877 3.88583 0
M  V30 71637 H 3434.88 6.6596 2.58858 0
M  V30 71638 H 3436.71 8.16339 3.92049 0
M  V30 71639 P 3434.84 8.7635 1.60911 0
M  V30 71640 O 3434.62 10.1388 1.11561 0
M  V30 71641 O 3434.05 8.36503 2.79617 0
M  V30 71642 O 3434.59 7.71806 0.42951 0
M  V30 71643 C 3435.53 7.67148 -0.673689 0
M  V30 71644 C 3434.8 7.33374 -1.95559 0
M  V30 71645 O 3434.59 5.88721 -2.00726 0
M  V30 71646 C 3433.4 7.92526 -2.10483 0
M  V30 71647 O 3433.01 8.02971 -3.47653 0
M  V30 71648 C 3432.52 6.89602 -1.41652 0
M  V30 71649 C 3433.23 5.59201 -1.75185 0
M  V30 71650 N 3433.18 4.58235 -0.662552 0
M  V30 71651 H 3436.02 8.65116 -0.777161 0
M  V30 71652 H 3436.29 6.90173 -0.474152 0
M  V30 71653 H 3435.42 7.66548 -2.79458 0
M  V30 71654 P 3431.46 8.03563 -3.84925 0
M  V30 71655 O 3431.24 8.85821 -5.0569 0
M  V30 71656 O 3430.67 8.41101 -2.65469 0
M  V30 71657 O 3431.21 6.4965 -4.18908 0
M  V30 71658 C 3432.15 5.81037 -5.05421 0
M  V30 71659 C 3431.42 4.78366 -5.89277 0
M  V30 71660 O 3431.21 3.58302 -5.08433 0
M  V30 71661 C 3430.02 5.17448 -6.36119 0
M  V30 71662 O 3429.63 4.45271 -7.53232 0
M  V30 71663 C 3429.14 4.74639 -5.19936 0
M  V30 71664 C 3429.85 3.49432 -4.70418 0
M  V30 71665 N 3429.8 3.31776 -3.22945 0
M  V30 71666 H 3432.64 6.54213 -5.71376 0
M  V30 71667 H 3432.91 5.30492 -4.44033 0
M  V30 71668 H 3432.04 4.55889 -6.76652 0
M  V30 71669 P 3428.08 4.23843 -7.83734 0
M  V30 71670 O 3427.86 4.19407 -9.29784 0
M  V30 71671 O 3427.29 5.24426 -7.09156 0
M  V30 71672 O 3427.83 2.7935 -7.20758 0
M  V30 71673 C 3428.77 1.7299 -7.50419 0
M  V30 71674 C 3428.04 0.406376 -7.57911 0
M  V30 71675 O 3427.83 -0.0897726 -6.21935 0
M  V30 71676 C 3426.64 0.447224 -8.1878 0
M  V30 71677 O 3426.25 -0.825065 -8.71101 0
M  V30 71678 C 3425.76 0.783801 -6.99623 0
M  V30 71679 C 3426.47 0.0619192 -5.85967 0
M  V30 71680 N 3426.42 0.7859 -4.56281 0
M  V30 71681 H 3429.26 1.93423 -8.4679 0
M  V30 71682 H 3429.53 1.68181 -6.71046 0
M  V30 71683 H 3428.66 -0.289041 -8.15388 0
M  V30 71684 P 3424.7 -1.17771 -8.83182 0
M  V30 71685 O 3424.48 -2.07206 -9.98732 0
M  V30 71686 O 3423.91 0.0743816 -8.81969 0
M  V30 71687 O 3424.45 -1.97652 -7.47304 0
M  V30 71688 C 3425.39 -3.01133 -7.08783 0
M  V30 71689 C 3424.66 -4.12613 -6.37049 0
M  V30 71690 O 3424.45 -3.72827 -4.97879 0
M  V30 71691 C 3423.26 -4.45085 -6.88694 0
M  V30 71692 O 3422.87 -5.7877 -6.5624 0
M  V30 71693 C 3422.38 -3.47817 -6.12078 0
M  V30 71694 C 3423.09 -3.39414 -4.77697 0
M  V30 71695 N 3423.04 -2.04615 -4.15333 0
M  V30 71696 H 3425.88 -3.41248 -7.98759 0
M  V30 71697 H 3426.15 -2.5837 -6.41742 0
M  V30 71698 H 3425.28 -5.02657 -6.42673 0
M  V30 71699 P 3421.32 -6.144 -6.45285 0
M  V30 71700 O 3421.1 -7.54673 -6.86199 0
M  V30 71701 O 3420.53 -5.12391 -7.179 0
M  V30 71702 O 3421.07 -5.99158 -4.88404 0
M  V30 71703 C 3422.01 -6.60062 -3.96313 0
M  V30 71704 C 3421.28 -7.08259 -2.72856 0
M  V30 71705 O 3421.07 -5.9427 -1.83651 0
M  V30 71706 C 3419.88 -7.65087 -2.94749 0
M  V30 71707 O 3419.49 -8.53963 -1.90717 0
M  V30 71708 C 3419 -6.41069 -2.90698 0
M  V30 71709 C 3419.71 -5.5528 -1.86931 0
M  V30 71710 N 3419.66 -4.09575 -2.15696 0
M  V30 71711 C 3419.51 -3.24249 -1.08435 0
M  V30 71712 O 3419.42 -3.63946 0.0628747 0
M  V30 71713 N 3419.47 -1.90009 -1.39973 0
M  V30 71714 C 3419.56 -1.34884 -2.65614 0
M  V30 71715 O 3419.51 -0.123716 -2.81728 0
M  V30 71716 C 3419.71 -2.3145 -3.71736 0
M  V30 71717 C 3419.82 -1.75913 -5.10438 0
M  V30 71718 C 3419.76 -3.63518 -3.44754 0
M  V30 71719 H 3422.5 -7.45402 -4.45526 0
M  V30 71720 H 3422.77 -5.86062 -3.67208 0
M  V30 71721 H 3421.9 -7.84412 -2.24479 0
M  V30 71722 H 3419.25 -5.73358 -0.888409 0
M  V30 71723 H 3418.97 -5.90877 -3.88583 0
M  V30 71724 H 3417.98 -6.65867 -2.58821 0
M  V30 71725 H 3419.81 -8.16248 -3.92006 0
M  V30 71726 H 3419.88 -4.34551 -4.26383 0
M  V30 71727 H 3418.85 -1.85471 -5.61775 0
M  V30 71728 H 3420.59 -2.31364 -5.66257 0
M  V30 71729 H 3420.1 -0.695936 -5.05229 0
M  V30 71730 H 3419.36 -1.26277 -0.63625 0
M  V30 71731 P 3417.94 -8.7635 -1.60911 0
M  V30 71732 O 3417.72 -10.1388 -1.11561 0
M  V30 71733 O 3417.15 -8.36503 -2.79617 0
M  V30 71734 O 3417.69 -7.71806 -0.42951 0
M  V30 71735 C 3418.63 -7.67148 0.673689 0
M  V30 71736 C 3417.9 -7.33374 1.95559 0
M  V30 71737 O 3417.69 -5.88721 2.00726 0
M  V30 71738 C 3416.5 -7.92526 2.10483 0
M  V30 71739 O 3416.11 -8.02971 3.47653 0
M  V30 71740 C 3415.62 -6.89602 1.41652 0
M  V30 71741 C 3416.33 -5.59201 1.75185 0
M  V30 71742 N 3416.28 -4.58235 0.662552 0
M  V30 71743 C 3416.36 -4.7683 -0.704049 0
M  V30 71744 N 3416.28 -3.66233 -1.39775 0
M  V30 71745 C 3416.14 -2.66526 -0.431739 0
M  V30 71746 C 3416.01 -1.26394 -0.575992 0
M  V30 71747 N 3415.89 -0.62859 0.67177 0
M  V30 71748 C 3415.89 -1.27134 1.89385 0
M  V30 71749 N 3415.76 -0.492035 2.96951 0
M  V30 71750 N 3416.02 -2.58978 2.02907 0
M  V30 71751 C 3416.14 -3.22433 0.832218 0
M  V30 71752 H 3419.12 -8.65116 0.777161 0
M  V30 71753 H 3419.39 -6.90173 0.474152 0
M  V30 71754 H 3418.52 -7.66548 2.79458 0
M  V30 71755 P 3414.56 -8.03563 3.84925 0
M  V30 71756 O 3414.34 -8.85821 5.0569 0
M  V30 71757 O 3413.77 -8.41101 2.65469 0
M  V30 71758 O 3414.31 -6.4965 4.18908 0
M  V30 71759 C 3415.25 -5.81037 5.05421 0
M  V30 71760 C 3414.52 -4.78366 5.89277 0
M  V30 71761 O 3414.31 -3.58302 5.08433 0
M  V30 71762 C 3413.12 -5.17448 6.36119 0
M  V30 71763 O 3412.73 -4.45271 7.53232 0
M  V30 71764 C 3412.24 -4.74639 5.19936 0
M  V30 71765 C 3412.95 -3.49432 4.70418 0
M  V30 71766 N 3412.9 -3.31776 3.22945 0
M  V30 71767 H 3415.74 -6.54213 5.71376 0
M  V30 71768 H 3416.01 -5.30492 4.44033 0
M  V30 71769 H 3415.14 -4.55889 6.76652 0
M  V30 71770 P 3411.18 -4.23843 7.83734 0
M  V30 71771 O 3410.96 -4.19407 9.29784 0
M  V30 71772 O 3410.39 -5.24426 7.09156 0
M  V30 71773 O 3410.93 -2.7935 7.20758 0
M  V30 71774 C 3411.87 -1.7299 7.50419 0
M  V30 71775 C 3411.14 -0.406376 7.57911 0
M  V30 71776 O 3410.93 0.0897726 6.21935 0
M  V30 71777 C 3409.74 -0.447224 8.1878 0
M  V30 71778 O 3409.35 0.825065 8.71101 0
M  V30 71779 C 3408.86 -0.783801 6.99623 0
M  V30 71780 C 3409.57 -0.0619192 5.85967 0
M  V30 71781 N 3409.52 -0.7859 4.56281 0
M  V30 71782 H 3412.36 -1.93423 8.4679 0
M  V30 71783 H 3412.63 -1.68181 6.71046 0
M  V30 71784 H 3411.76 0.289041 8.15388 0
M  V30 71785 P 3407.8 1.17771 8.83182 0
M  V30 71786 O 3407.58 2.07206 9.98732 0
M  V30 71787 O 3407.01 -0.0743816 8.81969 0
M  V30 71788 O 3407.55 1.97652 7.47304 0
M  V30 71789 C 3408.49 3.01133 7.08783 0
M  V30 71790 C 3407.76 4.12613 6.37049 0
M  V30 71791 O 3407.55 3.72827 4.97879 0
M  V30 71792 C 3406.36 4.45085 6.88694 0
M  V30 71793 O 3405.97 5.7877 6.5624 0
M  V30 71794 C 3405.48 3.47817 6.12078 0
M  V30 71795 C 3406.19 3.39414 4.77697 0
M  V30 71796 N 3406.14 2.04615 4.15333 0
M  V30 71797 H 3408.98 3.41248 7.98759 0
M  V30 71798 H 3409.25 2.5837 6.41742 0
M  V30 71799 H 3408.38 5.02657 6.42673 0
M  V30 71800 P 3404.42 6.144 6.45285 0
M  V30 71801 O 3404.2 7.54673 6.86199 0
M  V30 71802 O 3403.63 5.12391 7.179 0
M  V30 71803 O 3404.17 5.99236 4.88467 0
M  V30 71804 C 3405.11 6.60234 3.96415 0
M  V30 71805 C 3404.38 7.08079 2.736 0
M  V30 71806 O 3404.17 5.94365 1.8368 0
M  V30 71807 C 3402.98 7.64886 2.9555 0
M  V30 71808 O 3402.59 8.5406 1.90739 0
M  V30 71809 C 3402.1 6.4116 2.90739 0
M  V30 71810 C 3402.81 5.55375 1.86963 0
M  V30 71811 N 3402.76 4.09664 2.15742 0
M  V30 71812 C 3402.61 3.22231 1.08477 0
M  V30 71813 O 3402.52 3.68951 -0.0600489 0
M  V30 71814 N 3402.56 1.76692 1.48799 0
M  V30 71815 C 3402.66 1.41695 2.57602 0
M  V30 71816 N 3402.61 0.107296 2.75791 0
M  V30 71817 C 3402.81 2.29178 3.69733 0
M  V30 71818 C 3402.86 3.62753 3.42653 0
M  V30 71819 H 3405.6 7.45488 4.45578 0
M  V30 71820 H 3405.87 5.86232 3.67314 0
M  V30 71821 H 3405 7.84508 2.24507 0
M  V30 71822 H 3402.35 5.73556 0.888715 0
M  V30 71823 H 3402.07 5.9096 3.88638 0
M  V30 71824 H 3401.08 6.66053 2.58894 0
M  V30 71825 H 3402.91 8.16339 3.92049 0
M  V30 71826 H 3402.98 4.33052 4.24913 0
M  V30 71827 H 3402.88 1.9103 4.71577 0
M  V30 71828 H 3402.49 -0.521221 1.95056 0
M  V30 71829 H 3402.69 -0.286429 3.70695 0
M  V30 71830 P 3401.04 8.7635 1.60911 0
M  V30 71831 O 3400.82 10.1388 1.11561 0
M  V30 71832 O 3400.25 8.36503 2.79617 0
M  V30 71833 O 3400.79 7.71806 0.42951 0
M  V30 71834 C 3401.73 7.67148 -0.673689 0
M  V30 71835 C 3401 7.33374 -1.95559 0
M  V30 71836 O 3400.79 5.88721 -2.00726 0
M  V30 71837 C 3399.6 7.92526 -2.10483 0
M  V30 71838 O 3399.21 8.02971 -3.47653 0
M  V30 71839 C 3398.72 6.89602 -1.41652 0
M  V30 71840 C 3399.43 5.59201 -1.75185 0
M  V30 71841 N 3399.38 4.58235 -0.662552 0
M  V30 71842 H 3402.22 8.65116 -0.777161 0
M  V30 71843 H 3402.49 6.90173 -0.474152 0
M  V30 71844 H 3401.62 7.66548 -2.79458 0
M  V30 71845 P 3397.66 8.03563 -3.84925 0
M  V30 71846 O 3397.44 8.85821 -5.0569 0
M  V30 71847 O 3396.87 8.41101 -2.65469 0
M  V30 71848 O 3397.41 6.4965 -4.18908 0
M  V30 71849 C 3398.35 5.81037 -5.05421 0
M  V30 71850 C 3397.62 4.78366 -5.89277 0
M  V30 71851 O 3397.41 3.58302 -5.08433 0
M  V30 71852 C 3396.22 5.17448 -6.36119 0
M  V30 71853 O 3395.83 4.45271 -7.53232 0
M  V30 71854 C 3395.34 4.74639 -5.19936 0
M  V30 71855 C 3396.05 3.49432 -4.70418 0
M  V30 71856 N 3396 3.31776 -3.22945 0
M  V30 71857 H 3398.84 6.54213 -5.71376 0
M  V30 71858 H 3399.11 5.30492 -4.44033 0
M  V30 71859 H 3398.24 4.55889 -6.76652 0
M  V30 71860 P 3394.28 4.23843 -7.83734 0
M  V30 71861 O 3394.06 4.19407 -9.29784 0
M  V30 71862 O 3393.49 5.24426 -7.09156 0
M  V30 71863 O 3394.03 2.7935 -7.20758 0
M  V30 71864 C 3394.97 1.7299 -7.50419 0
M  V30 71865 C 3394.24 0.406376 -7.57911 0
M  V30 71866 O 3394.03 -0.0897726 -6.21935 0
M  V30 71867 C 3392.84 0.447224 -8.1878 0
M  V30 71868 O 3392.45 -0.825065 -8.71101 0
M  V30 71869 C 3391.96 0.783801 -6.99623 0
M  V30 71870 C 3392.67 0.0619192 -5.85967 0
M  V30 71871 N 3392.62 0.790462 -4.56202 0
M  V30 71872 C 3392.7 2.13895 -4.34171 0
M  V30 71873 N 3392.63 2.46449 -3.08687 0
M  V30 71874 C 3392.48 1.2525 -2.43697 0
M  V30 71875 C 3392.35 0.914535 -1.07318 0
M  V30 71876 N 3392.34 1.80782 -0.0887348 0
M  V30 71877 N 3392.23 -0.386745 -0.768133 0
M  V30 71878 C 3392.24 -1.28096 -1.75159 0
M  V30 71879 N 3392.36 -1.09708 -3.04861 0
M  V30 71880 C 3392.48 0.214857 -3.32306 0
M  V30 71881 H 3395.46 1.93423 -8.4679 0
M  V30 71882 H 3395.73 1.68852 -6.70877 0
M  V30 71883 H 3394.86 -0.289041 -8.15388 0
M  V30 71884 H 3392.21 -0.927006 -5.72848 0
M  V30 71885 H 3391.93 1.86973 -6.82036 0
M  V30 71886 H 3390.94 0.403953 -7.13357 0
M  V30 71887 H 3392.77 1.20599 -8.97534 0
M  V30 71888 H 3392.81 2.86846 -5.14318 0
M  V30 71889 H 3392.43 2.81082 -0.302037 0
M  V30 71890 H 3392.24 1.49688 0.889064 0
M  V30 71891 H 3392.13 -2.31317 -1.43855 0
M  V30 71892 P 3390.9 -1.17771 -8.83182 0
M  V30 71893 O 3390.68 -2.07206 -9.98732 0
M  V30 71894 O 3390.11 0.0743816 -8.81969 0
M  V30 71895 O 3390.65 -1.97652 -7.47304 0
M  V30 71896 C 3391.59 -3.01133 -7.08783 0
M  V30 71897 C 3390.86 -4.12613 -6.37049 0
M  V30 71898 O 3390.65 -3.72827 -4.97879 0
M  V30 71899 C 3389.46 -4.45085 -6.88694 0
M  V30 71900 O 3389.07 -5.7877 -6.5624 0
M  V30 71901 C 3388.58 -3.47817 -6.12078 0
M  V30 71902 C 3389.29 -3.39414 -4.77697 0
M  V30 71903 N 3389.24 -2.04615 -4.15333 0
M  V30 71904 H 3392.08 -3.41248 -7.98759 0
M  V30 71905 H 3392.35 -2.5837 -6.41742 0
M  V30 71906 H 3391.48 -5.02657 -6.42673 0
M  V30 71907 P 3387.52 -6.144 -6.45285 0
M  V30 71908 O 3387.3 -7.54673 -6.86199 0
M  V30 71909 O 3386.73 -5.12391 -7.179 0
M  V30 71910 O 3387.27 -5.99158 -4.88404 0
M  V30 71911 C 3388.21 -6.60234 -3.96415 0
M  V30 71912 C 3387.48 -7.08259 -2.72856 0
M  V30 71913 O 3387.27 -5.9427 -1.83651 0
M  V30 71914 C 3386.08 -7.64886 -2.9555 0
M  V30 71915 O 3385.69 -8.53963 -1.90717 0
M  V30 71916 C 3385.2 -6.4116 -2.90739 0
M  V30 71917 C 3385.91 -5.55375 -1.86963 0
M  V30 71918 N 3385.86 -4.09664 -2.15742 0
M  V30 71919 H 3388.7 -7.45574 -4.45629 0
M  V30 71920 H 3388.97 -5.86232 -3.67314 0
M  V30 71921 H 3388.1 -7.84412 -2.24479 0
M  V30 71922 P 3384.14 -8.7635 -1.60911 0
M  V30 71923 O 3383.92 -10.1388 -1.11561 0
M  V30 71924 O 3383.35 -8.36503 -2.79617 0
M  V30 71925 O 3383.89 -7.71806 -0.42951 0
M  V30 71926 C 3384.83 -7.67148 0.673689 0
M  V30 71927 C 3384.1 -7.33374 1.95559 0
M  V30 71928 O 3383.89 -5.88721 2.00726 0
M  V30 71929 C 3382.7 -7.92526 2.10483 0
M  V30 71930 O 3382.31 -8.02971 3.47653 0
M  V30 71931 C 3381.82 -6.89602 1.41652 0
M  V30 71932 C 3382.53 -5.59201 1.75185 0
M  V30 71933 N 3382.48 -4.58235 0.662552 0
M  V30 71934 H 3385.32 -8.65116 0.777161 0
M  V30 71935 H 3385.59 -6.90173 0.474152 0
M  V30 71936 H 3384.72 -7.66548 2.79458 0
M  V30 71937 P 3380.76 -8.03563 3.84925 0
M  V30 71938 O 3380.54 -8.85821 5.0569 0
M  V30 71939 O 3379.97 -8.41101 2.65469 0
M  V30 71940 O 3380.51 -6.4965 4.18908 0
M  V30 71941 C 3381.45 -5.81037 5.05421 0
M  V30 71942 C 3380.72 -4.78366 5.89277 0
M  V30 71943 O 3380.51 -3.58302 5.08433 0
M  V30 71944 C 3379.32 -5.17448 6.36119 0
M  V30 71945 O 3378.93 -4.45271 7.53232 0
M  V30 71946 C 3378.44 -4.74639 5.19936 0
M  V30 71947 C 3379.15 -3.49432 4.70418 0
M  V30 71948 N 3379.1 -3.31776 3.22945 0
M  V30 71949 H 3381.94 -6.54213 5.71376 0
M  V30 71950 H 3382.21 -5.30492 4.44033 0
M  V30 71951 H 3381.34 -4.55889 6.76652 0
M  V30 71952 P 3377.38 -4.23843 7.83734 0
M  V30 71953 O 3377.16 -4.19407 9.29784 0
M  V30 71954 O 3376.59 -5.24426 7.09156 0
M  V30 71955 O 3377.13 -2.7935 7.20758 0
M  V30 71956 C 3378.07 -1.7299 7.50419 0
M  V30 71957 C 3377.34 -0.406376 7.57911 0
M  V30 71958 O 3377.13 0.0897726 6.21935 0
M  V30 71959 C 3375.94 -0.447224 8.1878 0
M  V30 71960 O 3375.55 0.825065 8.71101 0
M  V30 71961 C 3375.06 -0.783801 6.99623 0
M  V30 71962 C 3375.77 -0.0619192 5.85967 0
M  V30 71963 N 3375.72 -0.790462 4.56202 0
M  V30 71964 H 3378.56 -1.93423 8.4679 0
M  V30 71965 H 3378.83 -1.68852 6.70877 0
M  V30 71966 H 3377.96 0.289041 8.15388 0
M  V30 71967 H 3375.31 0.927006 5.72848 0
M  V30 71968 H 3375.03 -1.86973 6.82036 0
M  V30 71969 H 3374.04 -0.403953 7.13357 0
M  V30 71970 H 3375.87 -1.20599 8.97534 0
M  V30 71971 P 3374 1.17771 8.83182 0
M  V30 71972 O 3373.78 2.07206 9.98732 0
M  V30 71973 O 3373.21 -0.0743816 8.81969 0
M  V30 71974 O 3373.75 1.97652 7.47304 0
M  V30 71975 C 3374.69 3.01133 7.08783 0
M  V30 71976 C 3373.96 4.12613 6.37049 0
M  V30 71977 O 3373.75 3.72827 4.97879 0
M  V30 71978 C 3372.56 4.45085 6.88694 0
M  V30 71979 O 3372.17 5.7877 6.5624 0
M  V30 71980 C 3371.68 3.47817 6.12078 0
M  V30 71981 C 3372.39 3.39414 4.77697 0
M  V30 71982 N 3372.34 2.04615 4.15333 0
M  V30 71983 H 3375.18 3.41248 7.98759 0
M  V30 71984 H 3375.45 2.5837 6.41742 0
M  V30 71985 H 3374.58 5.02657 6.42673 0
M  V30 71986 P 3370.62 6.144 6.45285 0
M  V30 71987 O 3370.4 7.54673 6.86199 0
M  V30 71988 O 3369.83 5.12391 7.179 0
M  V30 71989 O 3370.37 5.99158 4.88404 0
M  V30 71990 C 3371.31 6.60234 3.96415 0
M  V30 71991 C 3370.58 7.08259 2.72856 0
M  V30 71992 O 3370.37 5.9427 1.83651 0
M  V30 71993 C 3369.18 7.64886 2.9555 0
M  V30 71994 O 3368.79 8.53963 1.90717 0
M  V30 71995 C 3368.3 6.4116 2.90739 0
M  V30 71996 C 3369.01 5.55375 1.86963 0
M  V30 71997 N 3368.96 4.09664 2.15742 0
M  V30 71998 H 3371.8 7.45574 4.45629 0
M  V30 71999 H 3372.07 5.86232 3.67314 0
M  V30 72000 H 3371.2 7.84412 2.24479 0
M  V30 72001 P 3367.24 8.7635 1.60911 0
M  V30 72002 O 3367.02 10.1388 1.11561 0
M  V30 72003 O 3366.45 8.36503 2.79617 0
M  V30 72004 O 3366.99 7.71806 0.42951 0
M  V30 72005 C 3367.93 7.67148 -0.673689 0
M  V30 72006 C 3367.2 7.33374 -1.95559 0
M  V30 72007 O 3366.99 5.88721 -2.00726 0
M  V30 72008 C 3365.8 7.92526 -2.10483 0
M  V30 72009 O 3365.41 8.02971 -3.47653 0
M  V30 72010 C 3364.92 6.89602 -1.41652 0
M  V30 72011 C 3365.63 5.59201 -1.75185 0
M  V30 72012 N 3365.58 4.58235 -0.662552 0
M  V30 72013 H 3368.42 8.65116 -0.777161 0
M  V30 72014 H 3368.69 6.90173 -0.474152 0
M  V30 72015 H 3367.82 7.66548 -2.79458 0
M  V30 72016 P 3363.86 8.03563 -3.84925 0
M  V30 72017 O 3363.64 8.85821 -5.0569 0
M  V30 72018 O 3363.07 8.41101 -2.65469 0
M  V30 72019 O 3363.61 6.4965 -4.18908 0
M  V30 72020 C 3364.55 5.81037 -5.05421 0
M  V30 72021 C 3363.82 4.78366 -5.89277 0
M  V30 72022 O 3363.61 3.58302 -5.08433 0
M  V30 72023 C 3362.42 5.17448 -6.36119 0
M  V30 72024 O 3362.03 4.45271 -7.53232 0
M  V30 72025 C 3361.54 4.74639 -5.19936 0
M  V30 72026 C 3362.25 3.49432 -4.70418 0
M  V30 72027 N 3362.2 3.32099 -3.22613 0
M  V30 72028 H 3365.04 6.54213 -5.71376 0
M  V30 72029 H 3365.31 5.30936 -4.43503 0
M  V30 72030 H 3364.44 4.55889 -6.76652 0
M  V30 72031 H 3361.79 2.61715 -5.17932 0
M  V30 72032 H 3361.51 5.52155 -4.41878 0
M  V30 72033 H 3360.52 4.51981 -5.53374 0
M  V30 72034 H 3362.35 6.25124 -6.55234 0
M  V30 72035 P 3360.48 4.23843 -7.83734 0
M  V30 72036 O 3360.26 4.19407 -9.29784 0
M  V30 72037 O 3359.69 5.24426 -7.09156 0
M  V30 72038 O 3360.23 2.7935 -7.20758 0
M  V30 72039 C 3361.17 1.72945 -7.50224 0
M  V30 72040 C 3360.44 0.406376 -7.57911 0
M  V30 72041 O 3360.23 -0.0897726 -6.21935 0
M  V30 72042 C 3359.04 0.438983 -8.18724 0
M  V30 72043 O 3358.65 -0.825065 -8.71101 0
M  V30 72044 C 3358.16 0.783689 -6.99524 0
M  V30 72045 C 3358.87 0.0619086 -5.85867 0
M  V30 72046 N 3358.82 0.78573 -4.56183 0
M  V30 72047 C 3358.67 0.0292889 -3.41887 0
M  V30 72048 O 3358.58 -1.18445 -3.4419 0
M  V30 72049 N 3358.63 0.744061 -2.23964 0
M  V30 72050 C 3358.72 2.10932 -2.10362 0
M  V30 72051 O 3358.67 2.64117 -0.98825 0
M  V30 72052 C 3358.87 2.8202 -3.34994 0
M  V30 72053 C 3358.98 4.31095 -3.25037 0
M  V30 72054 C 3358.92 2.15547 -4.52261 0
M  V30 72055 H 3361.66 1.93379 -8.46595 0
M  V30 72056 H 3361.93 1.68132 -6.70852 0
M  V30 72057 H 3361.06 -0.289041 -8.15388 0
M  V30 72058 H 3358.41 -0.926847 -5.72749 0
M  V30 72059 H 3358.13 1.86973 -6.82036 0
M  V30 72060 H 3357.14 0.403896 -7.13257 0
M  V30 72061 H 3358.97 1.20585 -8.97435 0
M  V30 72062 H 3359.04 2.71231 -5.45042 0
M  V30 72063 H 3358.01 4.76966 -3.49992 0
M  V30 72064 H 3359.75 4.67047 -3.95024 0
M  V30 72065 H 3359.26 4.58996 -2.22312 0
M  V30 72066 H 3358.53 0.214893 -1.39758 0
M  V30 72067 P 3357.1 -1.17771 -8.83182 0
M  V30 72068 O 3356.88 -2.07206 -9.98732 0
M  V30 72069 O 3356.31 0.0743816 -8.81969 0
M  V30 72070 O 3356.85 -1.97652 -7.47304 0
M  V30 72071 C 3357.79 -3.01133 -7.08783 0
M  V30 72072 C 3357.06 -4.12613 -6.37049 0
M  V30 72073 O 3356.85 -3.72827 -4.97879 0
M  V30 72074 C 3355.66 -4.45085 -6.88694 0
M  V30 72075 O 3355.27 -5.7877 -6.5624 0
M  V30 72076 C 3354.78 -3.47817 -6.12078 0
M  V30 72077 C 3355.49 -3.39414 -4.77697 0
M  V30 72078 N 3355.44 -2.04615 -4.15333 0
M  V30 72079 H 3358.28 -3.41248 -7.98759 0
M  V30 72080 H 3358.55 -2.5837 -6.41742 0
M  V30 72081 H 3357.68 -5.02657 -6.42673 0
M  V30 72082 P 3353.72 -6.144 -6.45285 0
M  V30 72083 O 3353.5 -7.54673 -6.86199 0
M  V30 72084 O 3352.93 -5.12391 -7.179 0
M  V30 72085 O 3353.47 -5.99158 -4.88404 0
M  V30 72086 C 3354.41 -6.60234 -3.96415 0
M  V30 72087 C 3353.68 -7.08259 -2.72856 0
M  V30 72088 O 3353.47 -5.9427 -1.83651 0
M  V30 72089 C 3352.28 -7.64886 -2.9555 0
M  V30 72090 O 3351.89 -8.53963 -1.90717 0
M  V30 72091 C 3351.4 -6.4116 -2.90739 0
M  V30 72092 C 3352.11 -5.55375 -1.86963 0
M  V30 72093 N 3352.06 -4.09664 -2.15742 0
M  V30 72094 H 3354.9 -7.45574 -4.45629 0
M  V30 72095 H 3355.17 -5.86232 -3.67314 0
M  V30 72096 H 3354.3 -7.84412 -2.24479 0
M  V30 72097 P 3350.34 -8.7635 -1.60911 0
M  V30 72098 O 3350.12 -10.1388 -1.11561 0
M  V30 72099 O 3349.55 -8.36503 -2.79617 0
M  V30 72100 O 3350.09 -7.71806 -0.42951 0
M  V30 72101 C 3351.03 -7.67148 0.673689 0
M  V30 72102 C 3350.3 -7.33374 1.95559 0
M  V30 72103 O 3350.09 -5.88721 2.00726 0
M  V30 72104 C 3348.9 -7.92526 2.10483 0
M  V30 72105 O 3348.51 -8.02971 3.47653 0
M  V30 72106 C 3348.02 -6.89602 1.41652 0
M  V30 72107 C 3348.73 -5.59201 1.75185 0
M  V30 72108 N 3348.68 -4.58301 0.657969 0
M  V30 72109 H 3351.52 -8.65116 0.777161 0
M  V30 72110 H 3351.79 -6.9022 0.46725 0
M  V30 72111 H 3350.92 -7.66548 2.79458 0
M  V30 72112 H 3348.27 -5.16165 2.65183 0
M  V30 72113 H 3347.99 -7.06433 0.329384 0
M  V30 72114 H 3347 -6.90926 1.82021 0
M  V30 72115 H 3348.83 -8.90873 1.62657 0
M  V30 72116 P 3346.96 -8.03563 3.84925 0
M  V30 72117 O 3346.74 -8.85821 5.0569 0
M  V30 72118 O 3346.17 -8.41101 2.65469 0
M  V30 72119 O 3346.71 -6.4965 4.18908 0
M  V30 72120 C 3347.65 -5.81037 5.05421 0
M  V30 72121 C 3346.92 -4.78366 5.89277 0
M  V30 72122 O 3346.71 -3.58302 5.08433 0
M  V30 72123 C 3345.52 -5.17448 6.36119 0
M  V30 72124 O 3345.13 -4.45271 7.53232 0
M  V30 72125 C 3344.64 -4.74639 5.19936 0
M  V30 72126 C 3345.35 -3.49432 4.70418 0
M  V30 72127 N 3345.3 -3.32099 3.22613 0
M  V30 72128 H 3348.14 -6.54213 5.71376 0
M  V30 72129 H 3348.41 -5.30936 4.43503 0
M  V30 72130 H 3347.54 -4.55889 6.76652 0
M  V30 72131 H 3344.89 -2.61715 5.17932 0
M  V30 72132 H 3344.61 -5.52155 4.41878 0
M  V30 72133 H 3343.62 -4.51981 5.53374 0
M  V30 72134 H 3345.45 -6.25124 6.55234 0
M  V30 72135 P 3343.58 -4.23843 7.83734 0
M  V30 72136 O 3343.36 -4.19407 9.29784 0
M  V30 72137 O 3342.79 -5.24426 7.09156 0
M  V30 72138 O 3343.33 -2.7935 7.20758 0
M  V30 72139 C 3344.27 -1.7299 7.50419 0
M  V30 72140 C 3343.54 -0.406376 7.57911 0
M  V30 72141 O 3343.33 0.0897726 6.21935 0
M  V30 72142 C 3342.14 -0.447224 8.1878 0
M  V30 72143 O 3341.75 0.825065 8.71101 0
M  V30 72144 C 3341.26 -0.783801 6.99623 0
M  V30 72145 C 3341.97 -0.0619192 5.85967 0
M  V30 72146 N 3341.92 -0.7859 4.56281 0
M  V30 72147 H 3344.76 -1.93423 8.4679 0
M  V30 72148 H 3345.03 -1.68181 6.71046 0
M  V30 72149 H 3344.16 0.289041 8.15388 0
M  V30 72150 P 3340.2 1.17771 8.83182 0
M  V30 72151 O 3339.98 2.07206 9.98732 0
M  V30 72152 O 3339.41 -0.0743816 8.81969 0
M  V30 72153 O 3339.95 1.97652 7.47304 0
M  V30 72154 C 3340.89 3.01055 7.08599 0
M  V30 72155 C 3340.16 4.12613 6.37049 0
M  V30 72156 O 3339.95 3.72827 4.97879 0
M  V30 72157 C 3338.76 4.45719 6.88164 0
M  V30 72158 O 3338.37 5.7877 6.5624 0
M  V30 72159 C 3337.88 3.47768 6.11991 0
M  V30 72160 C 3338.59 3.39356 4.77615 0
M  V30 72161 N 3338.54 2.04571 4.15244 0
M  V30 72162 C 3338.39 1.98587 2.78314 0
M  V30 72163 O 3338.3 2.98134 2.08835 0
M  V30 72164 N 3338.35 0.714467 2.24925 0
M  V30 72165 C 3338.44 -0.470001 2.94169 0
M  V30 72166 O 3338.39 -1.55587 2.35195 0
M  V30 72167 C 3338.59 -0.312541 4.36783 0
M  V30 72168 C 3338.7 -1.57711 5.16352 0
M  V30 72169 C 3338.64 0.914512 4.92583 0
M  V30 72170 H 3341.38 3.41169 7.98575 0
M  V30 72171 H 3341.65 2.58295 6.41556 0
M  V30 72172 H 3340.78 5.02657 6.42673 0
M  V30 72173 H 3338.13 4.11637 4.08885 0
M  V30 72174 H 3337.85 2.49626 6.61679 0
M  V30 72175 H 3336.86 3.86566 6.00778 0
M  V30 72176 H 3338.69 4.29943 7.96918 0
M  V30 72177 H 3338.76 1.00937 6.00374 0
M  V30 72178 H 3337.73 -1.80153 5.63503 0
M  V30 72179 H 3339.47 -1.4566 5.94104 0
M  V30 72180 H 3338.98 -2.40664 4.49645 0
M  V30 72181 H 3338.25 0.647622 1.25697 0
M  V30 72182 P 3336.82 6.144 6.45285 0
M  V30 72183 O 3336.6 7.54673 6.86199 0
M  V30 72184 O 3336.03 5.12391 7.179 0
M  V30 72185 O 3336.57 5.99158 4.88404 0
M  V30 72186 C 3337.51 6.60234 3.96415 0
M  V30 72187 C 3336.78 7.08259 2.72856 0
M  V30 72188 O 3336.57 5.9427 1.83651 0
M  V30 72189 C 3335.38 7.64886 2.9555 0
M  V30 72190 O 3334.99 8.53963 1.90717 0
M  V30 72191 C 3334.5 6.4116 2.90739 0
M  V30 72192 C 3335.21 5.55375 1.86963 0
M  V30 72193 N 3335.16 4.09448 2.16152 0
M  V30 72194 H 3338 7.45574 4.45629 0
M  V30 72195 H 3338.27 5.85864 3.679 0
M  V30 72196 H 3337.4 7.84412 2.24479 0
M  V30 72197 H 3334.75 5.73457 0.888562 0
M  V30 72198 H 3334.47 5.90877 3.88583 0
M  V30 72199 H 3333.48 6.6596 2.58858 0
M  V30 72200 H 3335.31 8.16339 3.92049 0
M  V30 72201 P 3333.44 8.7635 1.60911 0
M  V30 72202 O 3333.22 10.1388 1.11561 0
M  V30 72203 O 3332.65 8.36503 2.79617 0
M  V30 72204 O 3333.19 7.71806 0.42951 0
M  V30 72205 C 3334.13 7.67148 -0.673689 0
M  V30 72206 C 3333.4 7.33374 -1.95559 0
M  V30 72207 O 3333.19 5.88721 -2.00726 0
M  V30 72208 C 3332 7.92526 -2.10483 0
M  V30 72209 O 3331.61 8.02971 -3.47653 0
M  V30 72210 C 3331.12 6.89602 -1.41652 0
M  V30 72211 C 3331.83 5.59201 -1.75185 0
M  V30 72212 N 3331.78 4.58235 -0.662552 0
M  V30 72213 H 3334.62 8.65116 -0.777161 0
M  V30 72214 H 3334.89 6.90173 -0.474152 0
M  V30 72215 H 3334.02 7.66548 -2.79458 0
M  V30 72216 P 3330.06 8.03563 -3.84925 0
M  V30 72217 O 3329.84 8.85821 -5.0569 0
M  V30 72218 O 3329.27 8.41101 -2.65469 0
M  V30 72219 O 3329.81 6.4965 -4.18908 0
M  V30 72220 C 3330.75 5.81037 -5.05421 0
M  V30 72221 C 3330.02 4.78366 -5.89277 0
M  V30 72222 O 3329.81 3.58302 -5.08433 0
M  V30 72223 C 3328.62 5.17448 -6.36119 0
M  V30 72224 O 3328.23 4.45271 -7.53232 0
M  V30 72225 C 3327.74 4.74639 -5.19936 0
M  V30 72226 C 3328.45 3.49432 -4.70418 0
M  V30 72227 N 3328.4 3.31776 -3.22945 0
M  V30 72228 H 3331.24 6.54213 -5.71376 0
M  V30 72229 H 3331.51 5.30492 -4.44033 0
M  V30 72230 H 3330.64 4.55889 -6.76652 0
M  V30 72231 P 3326.68 4.23843 -7.83734 0
M  V30 72232 O 3326.46 4.19407 -9.29784 0
M  V30 72233 O 3325.89 5.24426 -7.09156 0
M  V30 72234 O 3326.43 2.7935 -7.20758 0
M  V30 72235 C 3327.37 1.7299 -7.50419 0
M  V30 72236 C 3326.64 0.406376 -7.57911 0
M  V30 72237 O 3326.43 -0.0897726 -6.21935 0
M  V30 72238 C 3325.24 0.447224 -8.1878 0
M  V30 72239 O 3324.85 -0.825065 -8.71101 0
M  V30 72240 C 3324.36 0.783801 -6.99623 0
M  V30 72241 C 3325.07 0.0619192 -5.85967 0
M  V30 72242 N 3325.02 0.7859 -4.56281 0
M  V30 72243 H 3327.86 1.93423 -8.4679 0
M  V30 72244 H 3328.13 1.68181 -6.71046 0
M  V30 72245 H 3327.26 -0.289041 -8.15388 0
M  V30 72246 P 3323.3 -1.17771 -8.83182 0
M  V30 72247 O 3323.08 -2.07206 -9.98732 0
M  V30 72248 O 3322.51 0.0743816 -8.81969 0
M  V30 72249 O 3323.05 -1.97652 -7.47304 0
M  V30 72250 C 3323.99 -3.01133 -7.08783 0
M  V30 72251 C 3323.26 -4.12613 -6.37049 0
M  V30 72252 O 3323.05 -3.72827 -4.97879 0
M  V30 72253 C 3321.86 -4.45085 -6.88694 0
M  V30 72254 O 3321.47 -5.7877 -6.5624 0
M  V30 72255 C 3320.98 -3.47817 -6.12078 0
M  V30 72256 C 3321.69 -3.39414 -4.77697 0
M  V30 72257 N 3321.64 -2.04199 -4.15538 0
M  V30 72258 H 3324.48 -3.41248 -7.98759 0
M  V30 72259 H 3324.75 -2.57728 -6.42 0
M  V30 72260 H 3323.88 -5.02657 -6.42673 0
M  V30 72261 H 3321.23 -4.11708 -4.08956 0
M  V30 72262 H 3320.95 -2.49626 -6.61679 0
M  V30 72263 H 3319.96 -3.8662 -6.00862 0
M  V30 72264 H 3321.79 -4.29991 -7.97006 0
M  V30 72265 P 3319.92 -6.144 -6.45285 0
M  V30 72266 O 3319.7 -7.54673 -6.86199 0
M  V30 72267 O 3319.13 -5.12391 -7.179 0
M  V30 72268 O 3319.67 -5.99158 -4.88404 0
M  V30 72269 C 3320.61 -6.60234 -3.96415 0
M  V30 72270 C 3319.88 -7.08259 -2.72856 0
M  V30 72271 O 3319.67 -5.9427 -1.83651 0
M  V30 72272 C 3318.48 -7.64886 -2.9555 0
M  V30 72273 O 3318.09 -8.53963 -1.90717 0
M  V30 72274 C 3317.6 -6.4116 -2.90739 0
M  V30 72275 C 3318.31 -5.55375 -1.86963 0
M  V30 72276 N 3318.26 -4.09664 -2.15742 0
M  V30 72277 C 3318.34 -3.44381 -3.37233 0
M  V30 72278 N 3318.26 -2.14131 -3.28347 0
M  V30 72279 C 3318.12 -1.90247 -1.91588 0
M  V30 72280 C 3317.99 -0.683992 -1.20892 0
M  V30 72281 N 3317.87 -0.903396 0.173998 0
M  V30 72282 C 3317.87 -2.14171 0.784879 0
M  V30 72283 N 3317.74 -2.1435 2.11317 0
M  V30 72284 N 3318 -3.28784 0.119316 0
M  V30 72285 C 3318.12 -3.0977 -1.22194 0
M  V30 72286 H 3321.1 -7.45574 -4.45629 0
M  V30 72287 H 3321.37 -5.86232 -3.67314 0
M  V30 72288 H 3320.5 -7.84412 -2.24479 0
M  V30 72289 P 3316.54 -8.7635 -1.60911 0
M  V30 72290 O 3316.32 -10.1388 -1.11561 0
M  V30 72291 O 3315.75 -8.36503 -2.79617 0
M  V30 72292 O 3316.29 -7.71806 -0.42951 0
M  V30 72293 C 3317.23 -7.67148 0.673689 0
M  V30 72294 C 3316.5 -7.33374 1.95559 0
M  V30 72295 O 3316.29 -5.88721 2.00726 0
M  V30 72296 C 3315.1 -7.92526 2.10483 0
M  V30 72297 O 3314.71 -8.02971 3.47653 0
M  V30 72298 C 3314.22 -6.89602 1.41652 0
M  V30 72299 C 3314.93 -5.59201 1.75185 0
M  V30 72300 N 3314.88 -4.58235 0.662552 0
M  V30 72301 H 3317.72 -8.65116 0.777161 0
M  V30 72302 H 3317.99 -6.90173 0.474152 0
M  V30 72303 H 3317.12 -7.66548 2.79458 0
M  V30 72304 P 3313.16 -8.03563 3.84925 0
M  V30 72305 O 3312.94 -8.85821 5.0569 0
M  V30 72306 O 3312.37 -8.41101 2.65469 0
M  V30 72307 O 3312.91 -6.4965 4.18908 0
M  V30 72308 C 3313.85 -5.81037 5.05421 0
M  V30 72309 C 3313.12 -4.78366 5.89277 0
M  V30 72310 O 3312.91 -3.58302 5.08433 0
M  V30 72311 C 3311.72 -5.17448 6.36119 0
M  V30 72312 O 3311.33 -4.45271 7.53232 0
M  V30 72313 C 3310.84 -4.74639 5.19936 0
M  V30 72314 C 3311.55 -3.49432 4.70418 0
M  V30 72315 N 3311.5 -3.31776 3.22945 0
M  V30 72316 H 3314.34 -6.54213 5.71376 0
M  V30 72317 H 3314.61 -5.30492 4.44033 0
M  V30 72318 H 3313.74 -4.55889 6.76652 0
M  V30 72319 P 3309.78 -4.23843 7.83734 0
M  V30 72320 O 3309.56 -4.19407 9.29784 0
M  V30 72321 O 3308.99 -5.24426 7.09156 0
M  V30 72322 O 3309.53 -2.7935 7.20758 0
M  V30 72323 C 3310.47 -1.7299 7.50419 0
M  V30 72324 C 3309.74 -0.406376 7.57911 0
M  V30 72325 O 3309.53 0.0897726 6.21935 0
M  V30 72326 C 3308.34 -0.447224 8.1878 0
M  V30 72327 O 3307.95 0.825065 8.71101 0
M  V30 72328 C 3307.46 -0.783801 6.99623 0
M  V30 72329 C 3308.17 -0.0619192 5.85967 0
M  V30 72330 N 3308.12 -0.7859 4.56281 0
M  V30 72331 H 3310.96 -1.93423 8.4679 0
M  V30 72332 H 3311.23 -1.68181 6.71046 0
M  V30 72333 H 3310.36 0.289041 8.15388 0
M  V30 72334 P 3306.4 1.17771 8.83182 0
M  V30 72335 O 3306.18 2.07206 9.98732 0
M  V30 72336 O 3305.61 -0.0743816 8.81969 0
M  V30 72337 O 3306.15 1.97678 7.474 0
M  V30 72338 C 3307.09 3.01133 7.08783 0
M  V30 72339 C 3306.36 4.1203 6.37546 0
M  V30 72340 O 3306.15 3.72887 4.9796 0
M  V30 72341 C 3304.96 4.45085 6.88694 0
M  V30 72342 O 3304.57 5.78836 6.56315 0
M  V30 72343 C 3304.08 3.47817 6.12078 0
M  V30 72344 C 3304.79 3.39414 4.77697 0
M  V30 72345 N 3304.74 2.04615 4.15333 0
M  V30 72346 C 3304.59 1.96929 2.77162 0
M  V30 72347 O 3304.5 3.02017 2.12006 0
M  V30 72348 N 3304.54 0.55485 2.24237 0
M  V30 72349 C 3304.64 -0.367808 2.9169 0
M  V30 72350 N 3304.59 -1.53426 2.29427 0
M  V30 72351 C 3304.79 -0.319148 4.33828 0
M  V30 72352 C 3304.84 0.920672 4.90433 0
M  V30 72353 H 3307.58 3.41209 7.98667 0
M  V30 72354 H 3307.85 2.5837 6.41742 0
M  V30 72355 H 3306.98 5.02718 6.42752 0
M  V30 72356 H 3304.33 4.11779 4.09026 0
M  V30 72357 H 3304.05 2.49661 6.61772 0
M  V30 72358 H 3303.06 3.86674 6.00946 0
M  V30 72359 H 3304.89 4.29991 7.97006 0
M  V30 72360 H 3304.96 1.00589 5.98303 0
M  V30 72361 H 3304.86 -1.22639 4.93799 0
M  V30 72362 H 3304.47 -1.56819 1.27167 0
M  V30 72363 H 3304.67 -2.41062 2.83063 0
M  V30 72364 P 3303.02 6.144 6.45285 0
M  V30 72365 O 3302.8 7.54673 6.86199 0
M  V30 72366 O 3302.23 5.12391 7.179 0
M  V30 72367 O 3302.77 5.99158 4.88404 0
M  V30 72368 C 3303.71 6.60234 3.96415 0
M  V30 72369 C 3302.98 7.08259 2.72856 0
M  V30 72370 O 3302.77 5.9427 1.83651 0
M  V30 72371 C 3301.58 7.64886 2.9555 0
M  V30 72372 O 3301.19 8.53963 1.90717 0
M  V30 72373 C 3300.7 6.4116 2.90739 0
M  V30 72374 C 3301.41 5.55375 1.86963 0
M  V30 72375 N 3301.36 4.09664 2.15742 0
M  V30 72376 H 3304.2 7.45574 4.45629 0
M  V30 72377 H 3304.47 5.86232 3.67314 0
M  V30 72378 H 3303.6 7.84412 2.24479 0
M  V30 72379 P 3299.64 8.7635 1.60911 0
M  V30 72380 O 3299.42 10.1388 1.11561 0
M  V30 72381 O 3298.85 8.36503 2.79617 0
M  V30 72382 O 3299.39 7.71806 0.42951 0
M  V30 72383 C 3300.33 7.67148 -0.673689 0
M  V30 72384 C 3299.6 7.33374 -1.95559 0
M  V30 72385 O 3299.39 5.88721 -2.00726 0
M  V30 72386 C 3298.2 7.92526 -2.10483 0
M  V30 72387 O 3297.81 8.02971 -3.47653 0
M  V30 72388 C 3297.32 6.89602 -1.41652 0
M  V30 72389 C 3298.03 5.59201 -1.75185 0
M  V30 72390 N 3297.98 4.58301 -0.657969 0
M  V30 72391 H 3300.82 8.65116 -0.777161 0
M  V30 72392 H 3301.09 6.9022 -0.46725 0
M  V30 72393 H 3300.22 7.66548 -2.79458 0
M  V30 72394 H 3297.57 5.16165 -2.65183 0
M  V30 72395 H 3297.29 7.06433 -0.329384 0
M  V30 72396 H 3296.3 6.90926 -1.82021 0
M  V30 72397 H 3298.13 8.90873 -1.62657 0
M  V30 72398 P 3296.26 8.03563 -3.84925 0
M  V30 72399 O 3296.04 8.85821 -5.0569 0
M  V30 72400 O 3295.47 8.41101 -2.65469 0
M  V30 72401 O 3296.01 6.4965 -4.18908 0
M  V30 72402 C 3296.95 5.81037 -5.05421 0
M  V30 72403 C 3296.22 4.78366 -5.89277 0
M  V30 72404 O 3296.01 3.58302 -5.08433 0
M  V30 72405 C 3294.82 5.17448 -6.36119 0
M  V30 72406 O 3294.43 4.45271 -7.53232 0
M  V30 72407 C 3293.94 4.74639 -5.19936 0
M  V30 72408 C 3294.65 3.49432 -4.70418 0
M  V30 72409 N 3294.6 3.31776 -3.22945 0
M  V30 72410 H 3297.44 6.54213 -5.71376 0
M  V30 72411 H 3297.71 5.30492 -4.44033 0
M  V30 72412 H 3296.84 4.55889 -6.76652 0
M  V30 72413 P 3292.88 4.23843 -7.83734 0
M  V30 72414 O 3292.66 4.19407 -9.29784 0
M  V30 72415 O 3292.09 5.24426 -7.09156 0
M  V30 72416 O 3292.63 2.7935 -7.20758 0
M  V30 72417 C 3293.57 1.72945 -7.50224 0
M  V30 72418 C 3292.84 0.406376 -7.57911 0
M  V30 72419 O 3292.63 -0.0897726 -6.21935 0
M  V30 72420 C 3291.44 0.438983 -8.18724 0
M  V30 72421 O 3291.05 -0.825065 -8.71101 0
M  V30 72422 C 3290.56 0.783689 -6.99524 0
M  V30 72423 C 3291.27 0.0619086 -5.85867 0
M  V30 72424 N 3291.22 0.78573 -4.56183 0
M  V30 72425 C 3291.07 0.0292889 -3.41887 0
M  V30 72426 O 3290.98 -1.18445 -3.4419 0
M  V30 72427 N 3291.03 0.744061 -2.23964 0
M  V30 72428 C 3291.12 2.10932 -2.10362 0
M  V30 72429 O 3291.07 2.64117 -0.98825 0
M  V30 72430 C 3291.27 2.8202 -3.34994 0
M  V30 72431 C 3291.38 4.31095 -3.25037 0
M  V30 72432 C 3291.32 2.15547 -4.52261 0
M  V30 72433 H 3294.06 1.93379 -8.46595 0
M  V30 72434 H 3294.33 1.68132 -6.70852 0
M  V30 72435 H 3293.46 -0.289041 -8.15388 0
M  V30 72436 H 3290.81 -0.926847 -5.72749 0
M  V30 72437 H 3290.53 1.86973 -6.82036 0
M  V30 72438 H 3289.54 0.403896 -7.13257 0
M  V30 72439 H 3291.37 1.20585 -8.97435 0
M  V30 72440 H 3291.44 2.71231 -5.45042 0
M  V30 72441 H 3290.41 4.76966 -3.49992 0
M  V30 72442 H 3292.15 4.67047 -3.95024 0
M  V30 72443 H 3291.66 4.58996 -2.22312 0
M  V30 72444 H 3290.93 0.214893 -1.39758 0
M  V30 72445 P 3289.5 -1.17771 -8.83182 0
M  V30 72446 O 3289.28 -2.07206 -9.98732 0
M  V30 72447 O 3288.71 0.0743816 -8.81969 0
M  V30 72448 O 3289.25 -1.97652 -7.47304 0
M  V30 72449 C 3290.19 -3.01133 -7.08783 0
M  V30 72450 C 3289.46 -4.12613 -6.37049 0
M  V30 72451 O 3289.25 -3.72827 -4.97879 0
M  V30 72452 C 3288.06 -4.45085 -6.88694 0
M  V30 72453 O 3287.67 -5.7877 -6.5624 0
M  V30 72454 C 3287.18 -3.47817 -6.12078 0
M  V30 72455 C 3287.89 -3.39414 -4.77697 0
M  V30 72456 N 3287.84 -2.04615 -4.15333 0
M  V30 72457 H 3290.68 -3.41248 -7.98759 0
M  V30 72458 H 3290.95 -2.5837 -6.41742 0
M  V30 72459 H 3290.08 -5.02657 -6.42673 0
M  V30 72460 P 3286.12 -6.144 -6.45285 0
M  V30 72461 O 3285.9 -7.54673 -6.86199 0
M  V30 72462 O 3285.33 -5.12391 -7.179 0
M  V30 72463 O 3285.87 -5.99158 -4.88404 0
M  V30 72464 C 3286.81 -6.60234 -3.96415 0
M  V30 72465 C 3286.08 -7.08259 -2.72856 0
M  V30 72466 O 3285.87 -5.9427 -1.83651 0
M  V30 72467 C 3284.68 -7.64886 -2.9555 0
M  V30 72468 O 3284.29 -8.53963 -1.90717 0
M  V30 72469 C 3283.8 -6.4116 -2.90739 0
M  V30 72470 C 3284.51 -5.55375 -1.86963 0
M  V30 72471 N 3284.46 -4.09664 -2.15742 0
M  V30 72472 H 3287.3 -7.45574 -4.45629 0
M  V30 72473 H 3287.57 -5.86232 -3.67314 0
M  V30 72474 H 3286.7 -7.84412 -2.24479 0
M  V30 72475 P 3282.74 -8.7635 -1.60911 0
M  V30 72476 O 3282.52 -10.1388 -1.11561 0
M  V30 72477 O 3281.95 -8.36503 -2.79617 0
M  V30 72478 O 3282.49 -7.71906 -0.429565 0
M  V30 72479 C 3283.43 -7.67148 0.673689 0
M  V30 72480 C 3282.7 -7.33666 1.94851 0
M  V30 72481 O 3282.49 -5.88816 2.00759 0
M  V30 72482 C 3281.3 -7.92526 2.10483 0
M  V30 72483 O 3280.91 -8.03063 3.47693 0
M  V30 72484 C 3280.42 -6.89602 1.41652 0
M  V30 72485 C 3281.13 -5.59201 1.75185 0
M  V30 72486 N 3281.08 -4.58235 0.662552 0
M  V30 72487 C 3280.93 -3.24451 1.01643 0
M  V30 72488 O 3280.84 -2.94958 2.21722 0
M  V30 72489 N 3280.88 -2.30408 -0.165238 0
M  V30 72490 C 3280.98 -2.66048 -1.25118 0
M  V30 72491 N 3280.93 -1.70787 -2.16813 0
M  V30 72492 C 3281.13 -4.02732 -1.64413 0
M  V30 72493 C 3281.18 -4.9488 -0.63991 0
M  V30 72494 H 3283.92 -8.65017 0.777072 0
M  V30 72495 H 3284.19 -6.90173 0.474152 0
M  V30 72496 H 3283.32 -7.66642 2.79492 0
M  V30 72497 H 3280.67 -5.16254 2.65229 0
M  V30 72498 H 3280.39 -7.06532 0.329431 0
M  V30 72499 H 3279.4 -6.91023 1.82047 0
M  V30 72500 H 3281.23 -8.90873 1.62657 0
M  V30 72501 H 3281.3 -6.00104 -0.892197 0
M  V30 72502 H 3281.2 -4.31733 -2.69229 0
M  V30 72503 H 3280.81 -0.724835 -1.8844 0
M  V30 72504 H 3281.01 -1.94716 -3.16734 0
M  V30 72505 P 3279.36 -8.03563 3.84925 0
M  V30 72506 O 3279.14 -8.85821 5.0569 0
M  V30 72507 O 3278.57 -8.41101 2.65469 0
M  V30 72508 O 3279.11 -6.4965 4.18908 0
M  V30 72509 C 3280.05 -5.81037 5.05421 0
M  V30 72510 C 3279.32 -4.78366 5.89277 0
M  V30 72511 O 3279.11 -3.58302 5.08433 0
M  V30 72512 C 3277.92 -5.17448 6.36119 0
M  V30 72513 O 3277.53 -4.45271 7.53232 0
M  V30 72514 C 3277.04 -4.74639 5.19936 0
M  V30 72515 C 3277.75 -3.49432 4.70418 0
M  V30 72516 N 3277.7 -3.31776 3.22945 0
M  V30 72517 H 3280.54 -6.54213 5.71376 0
M  V30 72518 H 3280.81 -5.30492 4.44033 0
M  V30 72519 H 3279.94 -4.55889 6.76652 0
M  V30 72520 P 3275.98 -4.23843 7.83734 0
M  V30 72521 O 3275.76 -4.19407 9.29784 0
M  V30 72522 O 3275.19 -5.24426 7.09156 0
M  V30 72523 O 3275.73 -2.7935 7.20758 0
M  V30 72524 C 3276.67 -1.7299 7.50419 0
M  V30 72525 C 3275.94 -0.406376 7.57911 0
M  V30 72526 O 3275.73 0.0897726 6.21935 0
M  V30 72527 C 3274.54 -0.447224 8.1878 0
M  V30 72528 O 3274.15 0.825065 8.71101 0
M  V30 72529 C 3273.66 -0.783801 6.99623 0
M  V30 72530 C 3274.37 -0.0619192 5.85967 0
M  V30 72531 N 3274.32 -0.7859 4.56281 0
M  V30 72532 H 3277.16 -1.93423 8.4679 0
M  V30 72533 H 3277.43 -1.68181 6.71046 0
M  V30 72534 H 3276.56 0.289041 8.15388 0
M  V30 72535 P 3272.6 1.17771 8.83182 0
M  V30 72536 O 3272.38 2.07206 9.98732 0
M  V30 72537 O 3271.81 -0.0743816 8.81969 0
M  V30 72538 O 3272.35 1.97652 7.47304 0
M  V30 72539 C 3273.29 3.01133 7.08783 0
M  V30 72540 C 3272.56 4.12613 6.37049 0
M  V30 72541 O 3272.35 3.72827 4.97879 0
M  V30 72542 C 3271.16 4.45085 6.88694 0
M  V30 72543 O 3270.77 5.7877 6.5624 0
M  V30 72544 C 3270.28 3.47817 6.12078 0
M  V30 72545 C 3270.99 3.39414 4.77697 0
M  V30 72546 N 3270.94 2.04615 4.15333 0
M  V30 72547 H 3273.78 3.41248 7.98759 0
M  V30 72548 H 3274.05 2.5837 6.41742 0
M  V30 72549 H 3273.18 5.02657 6.42673 0
M  V30 72550 P 3269.22 6.144 6.45285 0
M  V30 72551 O 3269 7.54673 6.86199 0
M  V30 72552 O 3268.43 5.12391 7.179 0
M  V30 72553 O 3268.97 5.99158 4.88404 0
M  V30 72554 C 3269.91 6.60234 3.96415 0
M  V30 72555 C 3269.18 7.08259 2.72856 0
M  V30 72556 O 3268.97 5.9427 1.83651 0
M  V30 72557 C 3267.78 7.64886 2.9555 0
M  V30 72558 O 3267.39 8.53963 1.90717 0
M  V30 72559 C 3266.9 6.4116 2.90739 0
M  V30 72560 C 3267.61 5.55375 1.86963 0
M  V30 72561 N 3267.56 4.09664 2.15742 0
M  V30 72562 H 3270.4 7.45574 4.45629 0
M  V30 72563 H 3270.67 5.86232 3.67314 0
M  V30 72564 H 3269.8 7.84412 2.24479 0
M  V30 72565 P 3265.84 8.7635 1.60911 0
M  V30 72566 O 3265.62 10.1388 1.11561 0
M  V30 72567 O 3265.05 8.36503 2.79617 0
M  V30 72568 O 3265.59 7.71806 0.42951 0
M  V30 72569 C 3266.53 7.67148 -0.673689 0
M  V30 72570 C 3265.8 7.33374 -1.95559 0
M  V30 72571 O 3265.59 5.88721 -2.00726 0
M  V30 72572 C 3264.4 7.92526 -2.10483 0
M  V30 72573 O 3264.01 8.02971 -3.47653 0
M  V30 72574 C 3263.52 6.89602 -1.41652 0
M  V30 72575 C 3264.23 5.59201 -1.75185 0
M  V30 72576 N 3264.18 4.58235 -0.662552 0
M  V30 72577 H 3267.02 8.65116 -0.777161 0
M  V30 72578 H 3267.29 6.90173 -0.474152 0
M  V30 72579 H 3266.42 7.66548 -2.79458 0
M  V30 72580 P 3262.46 8.03563 -3.84925 0
M  V30 72581 O 3262.24 8.85821 -5.0569 0
M  V30 72582 O 3261.67 8.41101 -2.65469 0
M  V30 72583 O 3262.21 6.4965 -4.18908 0
M  V30 72584 C 3263.15 5.81037 -5.05421 0
M  V30 72585 C 3262.42 4.78366 -5.89277 0
M  V30 72586 O 3262.21 3.58302 -5.08433 0
M  V30 72587 C 3261.02 5.17448 -6.36119 0
M  V30 72588 O 3260.63 4.45271 -7.53232 0
M  V30 72589 C 3260.14 4.74639 -5.19936 0
M  V30 72590 C 3260.85 3.49432 -4.70418 0
M  V30 72591 N 3260.8 3.31776 -3.22945 0
M  V30 72592 H 3263.64 6.54213 -5.71376 0
M  V30 72593 H 3263.91 5.30492 -4.44033 0
M  V30 72594 H 3263.04 4.55889 -6.76652 0
M  V30 72595 P 3259.08 4.23843 -7.83734 0
M  V30 72596 O 3258.86 4.19407 -9.29784 0
M  V30 72597 O 3258.29 5.24426 -7.09156 0
M  V30 72598 O 3258.83 2.7935 -7.20758 0
M  V30 72599 C 3259.77 1.7299 -7.50419 0
M  V30 72600 C 3259.04 0.406376 -7.57911 0
M  V30 72601 O 3258.83 -0.0897726 -6.21935 0
M  V30 72602 C 3257.64 0.447224 -8.1878 0
M  V30 72603 O 3257.25 -0.825065 -8.71101 0
M  V30 72604 C 3256.76 0.783801 -6.99623 0
M  V30 72605 C 3257.47 0.0619192 -5.85967 0
M  V30 72606 N 3257.42 0.790462 -4.56202 0
M  V30 72607 H 3260.26 1.93423 -8.4679 0
M  V30 72608 H 3260.53 1.68852 -6.70877 0
M  V30 72609 H 3259.66 -0.289041 -8.15388 0
M  V30 72610 H 3257.01 -0.927006 -5.72848 0
M  V30 72611 H 3256.73 1.86973 -6.82036 0
M  V30 72612 H 3255.74 0.403953 -7.13357 0
M  V30 72613 H 3257.57 1.20599 -8.97534 0
M  V30 72614 P 3255.7 -1.17771 -8.83182 0
M  V30 72615 O 3255.48 -2.07206 -9.98732 0
M  V30 72616 O 3254.91 0.0743816 -8.81969 0
M  V30 72617 O 3255.45 -1.97652 -7.47304 0
M  V30 72618 C 3256.39 -3.01133 -7.08783 0
M  V30 72619 C 3255.66 -4.12613 -6.37049 0
M  V30 72620 O 3255.45 -3.72827 -4.97879 0
M  V30 72621 C 3254.26 -4.45085 -6.88694 0
M  V30 72622 O 3253.87 -5.7877 -6.5624 0
M  V30 72623 C 3253.38 -3.47817 -6.12078 0
M  V30 72624 C 3254.09 -3.39414 -4.77697 0
M  V30 72625 N 3254.04 -2.04199 -4.15538 0
M  V30 72626 H 3256.88 -3.41248 -7.98759 0
M  V30 72627 H 3257.15 -2.57728 -6.42 0
M  V30 72628 H 3256.28 -5.02657 -6.42673 0
M  V30 72629 H 3253.63 -4.11708 -4.08956 0
M  V30 72630 H 3253.35 -2.49626 -6.61679 0
M  V30 72631 H 3252.36 -3.8662 -6.00862 0
M  V30 72632 H 3254.19 -4.29991 -7.97006 0
M  V30 72633 P 3252.32 -6.144 -6.45285 0
M  V30 72634 O 3252.1 -7.54673 -6.86199 0
M  V30 72635 O 3251.53 -5.12391 -7.179 0
M  V30 72636 O 3252.07 -5.99158 -4.88404 0
M  V30 72637 C 3253.01 -6.60062 -3.96313 0
M  V30 72638 C 3252.28 -7.08259 -2.72856 0
M  V30 72639 O 3252.07 -5.9427 -1.83651 0
M  V30 72640 C 3250.88 -7.65087 -2.94749 0
M  V30 72641 O 3250.49 -8.53963 -1.90717 0
M  V30 72642 C 3250 -6.41069 -2.90698 0
M  V30 72643 C 3250.71 -5.5528 -1.86931 0
M  V30 72644 N 3250.66 -4.09575 -2.15696 0
M  V30 72645 C 3250.51 -3.24249 -1.08435 0
M  V30 72646 O 3250.42 -3.63946 0.0628747 0
M  V30 72647 N 3250.47 -1.90009 -1.39973 0
M  V30 72648 C 3250.56 -1.34884 -2.65614 0
M  V30 72649 O 3250.51 -0.123716 -2.81728 0
M  V30 72650 C 3250.71 -2.3145 -3.71736 0
M  V30 72651 C 3250.82 -1.75913 -5.10438 0
M  V30 72652 C 3250.76 -3.63518 -3.44754 0
M  V30 72653 H 3253.5 -7.45402 -4.45526 0
M  V30 72654 H 3253.77 -5.86062 -3.67208 0
M  V30 72655 H 3252.9 -7.84412 -2.24479 0
M  V30 72656 H 3250.25 -5.73358 -0.888409 0
M  V30 72657 H 3249.97 -5.90877 -3.88583 0
M  V30 72658 H 3248.98 -6.65867 -2.58821 0
M  V30 72659 H 3250.81 -8.16248 -3.92006 0
M  V30 72660 H 3250.88 -4.34551 -4.26383 0
M  V30 72661 H 3249.85 -1.85471 -5.61775 0
M  V30 72662 H 3251.59 -2.31364 -5.66257 0
M  V30 72663 H 3251.1 -0.695936 -5.05229 0
M  V30 72664 H 3250.37 -1.26277 -0.63625 0
M  V30 72665 P 3248.94 -8.7635 -1.60911 0
M  V30 72666 O 3248.72 -10.1388 -1.11561 0
M  V30 72667 O 3248.15 -8.36503 -2.79617 0
M  V30 72668 O 3248.69 -7.71806 -0.42951 0
M  V30 72669 C 3249.63 -7.67148 0.673689 0
M  V30 72670 C 3248.9 -7.33374 1.95559 0
M  V30 72671 O 3248.69 -5.88721 2.00726 0
M  V30 72672 C 3247.5 -7.92526 2.10483 0
M  V30 72673 O 3247.11 -8.02971 3.47653 0
M  V30 72674 C 3246.62 -6.89602 1.41652 0
M  V30 72675 C 3247.33 -5.59201 1.75185 0
M  V30 72676 N 3247.28 -4.58235 0.662552 0
M  V30 72677 H 3250.12 -8.65116 0.777161 0
M  V30 72678 H 3250.39 -6.90173 0.474152 0
M  V30 72679 H 3249.52 -7.66548 2.79458 0
M  V30 72680 P 3245.56 -8.03563 3.84925 0
M  V30 72681 O 3245.34 -8.85821 5.0569 0
M  V30 72682 O 3244.77 -8.41101 2.65469 0
M  V30 72683 O 3245.31 -6.49734 4.18962 0
M  V30 72684 C 3246.25 -5.81037 5.05421 0
M  V30 72685 C 3245.52 -4.79018 5.88876 0
M  V30 72686 O 3245.31 -3.58359 5.08515 0
M  V30 72687 C 3244.12 -5.17448 6.36119 0
M  V30 72688 O 3243.73 -4.45322 7.53318 0
M  V30 72689 C 3243.24 -4.74639 5.19936 0
M  V30 72690 C 3243.95 -3.49432 4.70418 0
M  V30 72691 N 3243.9 -3.31776 3.22945 0
M  V30 72692 C 3243.75 -2.02742 2.72939 0
M  V30 72693 O 3243.66 -1.08301 3.52749 0
M  V30 72694 N 3243.7 -1.96117 1.22063 0
M  V30 72695 C 3243.8 -2.8878 0.551566 0
M  V30 72696 N 3243.75 -2.65609 -0.750198 0
M  V30 72697 C 3243.95 -4.22457 1.03707 0
M  V30 72698 C 3244 -4.37979 2.39113 0
M  V30 72699 H 3246.74 -6.54138 5.7131 0
M  V30 72700 H 3247.01 -5.30492 4.44033 0
M  V30 72701 H 3246.14 -4.55945 6.76735 0
M  V30 72702 H 3243.49 -2.6176 5.18021 0
M  V30 72703 H 3243.21 -5.52233 4.41941 0
M  V30 72704 H 3242.22 -4.52045 5.53452 0
M  V30 72705 H 3244.05 -6.25124 6.55234 0
M  V30 72706 H 3244.12 -5.37936 2.80552 0
M  V30 72707 H 3244.02 -5.07528 0.359553 0
M  V30 72708 H 3243.63 -1.69403 -1.09847 0
M  V30 72709 H 3243.83 -3.43701 -1.41792 0
M  V30 72710 P 3242.18 -4.23843 7.83734 0
M  V30 72711 O 3241.96 -4.19407 9.29784 0
M  V30 72712 O 3241.39 -5.24426 7.09156 0
M  V30 72713 O 3241.93 -2.7935 7.20758 0
M  V30 72714 C 3242.87 -1.7299 7.50419 0
M  V30 72715 C 3242.14 -0.406376 7.57911 0
M  V30 72716 O 3241.93 0.0897726 6.21935 0
M  V30 72717 C 3240.74 -0.447224 8.1878 0
M  V30 72718 O 3240.35 0.825065 8.71101 0
M  V30 72719 C 3239.86 -0.783801 6.99623 0
M  V30 72720 C 3240.57 -0.0619192 5.85967 0
M  V30 72721 N 3240.52 -0.7859 4.56281 0
M  V30 72722 H 3243.36 -1.93423 8.4679 0
M  V30 72723 H 3243.63 -1.68181 6.71046 0
M  V30 72724 H 3242.76 0.289041 8.15388 0
M  V30 72725 P 3238.8 1.17771 8.83182 0
M  V30 72726 O 3238.58 2.07206 9.98732 0
M  V30 72727 O 3238.01 -0.0743816 8.81969 0
M  V30 72728 O 3238.55 1.97652 7.47304 0
M  V30 72729 C 3239.49 3.01133 7.08783 0
M  V30 72730 C 3238.76 4.12613 6.37049 0
M  V30 72731 O 3238.55 3.72827 4.97879 0
M  V30 72732 C 3237.36 4.45085 6.88694 0
M  V30 72733 O 3236.97 5.7877 6.5624 0
M  V30 72734 C 3236.48 3.47817 6.12078 0
M  V30 72735 C 3237.19 3.39414 4.77697 0
M  V30 72736 N 3237.14 2.04615 4.15333 0
M  V30 72737 H 3239.98 3.41248 7.98759 0
M  V30 72738 H 3240.25 2.5837 6.41742 0
M  V30 72739 H 3239.38 5.02657 6.42673 0
M  V30 72740 P 3235.42 6.144 6.45285 0
M  V30 72741 O 3235.2 7.54673 6.86199 0
M  V30 72742 O 3234.63 5.12391 7.179 0
M  V30 72743 O 3235.17 5.99158 4.88404 0
M  V30 72744 C 3236.11 6.60062 3.96313 0
M  V30 72745 C 3235.38 7.08259 2.72856 0
M  V30 72746 O 3235.17 5.9427 1.83651 0
M  V30 72747 C 3233.98 7.65087 2.94749 0
M  V30 72748 O 3233.59 8.53963 1.90717 0
M  V30 72749 C 3233.1 6.41069 2.90698 0
M  V30 72750 C 3233.81 5.5528 1.86931 0
M  V30 72751 N 3233.76 4.09575 2.15696 0
M  V30 72752 C 3233.61 3.24249 1.08435 0
M  V30 72753 O 3233.52 3.63946 -0.0628747 0
M  V30 72754 N 3233.57 1.90009 1.39973 0
M  V30 72755 C 3233.66 1.34884 2.65614 0
M  V30 72756 C 3233.81 2.3145 3.71736 0
M  V30 72757 C 3233.86 3.63518 3.44754 0
M  V30 72758 H 3236.6 7.45402 4.45526 0
M  V30 72759 H 3236.87 5.86062 3.67208 0
M  V30 72760 H 3236 7.84412 2.24479 0
M  V30 72761 H 3233.35 5.73358 0.888409 0
M  V30 72762 H 3233.07 5.90877 3.88583 0
M  V30 72763 H 3232.08 6.65867 2.58821 0
M  V30 72764 H 3233.91 8.16248 3.92006 0
M  V30 72765 H 3233.98 4.34551 4.26383 0
M  V30 72766 P 3232.04 8.7635 1.60911 0
M  V30 72767 O 3231.82 10.1388 1.11561 0
M  V30 72768 O 3231.25 8.36503 2.79617 0
M  V30 72769 O 3231.79 7.71806 0.42951 0
M  V30 72770 C 3232.73 7.67148 -0.673689 0
M  V30 72771 C 3232 7.33374 -1.95559 0
M  V30 72772 O 3231.79 5.88721 -2.00726 0
M  V30 72773 C 3230.6 7.92526 -2.10483 0
M  V30 72774 O 3230.21 8.02971 -3.47653 0
M  V30 72775 C 3229.72 6.89602 -1.41652 0
M  V30 72776 C 3230.43 5.59201 -1.75185 0
M  V30 72777 N 3230.38 4.58235 -0.662552 0
M  V30 72778 H 3233.22 8.65116 -0.777161 0
M  V30 72779 H 3233.49 6.90173 -0.474152 0
M  V30 72780 H 3232.62 7.66548 -2.79458 0
M  V30 72781 P 3228.66 8.03563 -3.84925 0
M  V30 72782 O 3228.44 8.85821 -5.0569 0
M  V30 72783 O 3227.87 8.41101 -2.65469 0
M  V30 72784 O 3228.41 6.4965 -4.18908 0
M  V30 72785 C 3229.35 5.81037 -5.05421 0
M  V30 72786 C 3228.62 4.78366 -5.89277 0
M  V30 72787 O 3228.41 3.58302 -5.08433 0
M  V30 72788 C 3227.22 5.17448 -6.36119 0
M  V30 72789 O 3226.83 4.45271 -7.53232 0
M  V30 72790 C 3226.34 4.74639 -5.19936 0
M  V30 72791 C 3227.05 3.49432 -4.70418 0
M  V30 72792 N 3227 3.32099 -3.22613 0
M  V30 72793 H 3229.84 6.54213 -5.71376 0
M  V30 72794 H 3230.11 5.30936 -4.43503 0
M  V30 72795 H 3229.24 4.55889 -6.76652 0
M  V30 72796 H 3226.59 2.61715 -5.17932 0
M  V30 72797 H 3226.31 5.52155 -4.41878 0
M  V30 72798 H 3225.32 4.51981 -5.53374 0
M  V30 72799 H 3227.15 6.25124 -6.55234 0
M  V30 72800 P 3225.28 4.23843 -7.83734 0
M  V30 72801 O 3225.06 4.19407 -9.29784 0
M  V30 72802 O 3224.49 5.24426 -7.09156 0
M  V30 72803 O 3225.03 2.7935 -7.20758 0
M  V30 72804 C 3225.97 1.7299 -7.50419 0
M  V30 72805 C 3225.24 0.406376 -7.57911 0
M  V30 72806 O 3225.03 -0.0897726 -6.21935 0
M  V30 72807 C 3223.84 0.447224 -8.1878 0
M  V30 72808 O 3223.45 -0.825065 -8.71101 0
M  V30 72809 C 3222.96 0.783801 -6.99623 0
M  V30 72810 C 3223.67 0.0619192 -5.85967 0
M  V30 72811 N 3223.62 0.790462 -4.56202 0
M  V30 72812 H 3226.46 1.93423 -8.4679 0
M  V30 72813 H 3226.73 1.68852 -6.70877 0
M  V30 72814 H 3225.86 -0.289041 -8.15388 0
M  V30 72815 H 3223.21 -0.927006 -5.72848 0
M  V30 72816 H 3222.93 1.86973 -6.82036 0
M  V30 72817 H 3221.94 0.403953 -7.13357 0
M  V30 72818 H 3223.77 1.20599 -8.97534 0
M  V30 72819 P 3221.9 -1.17771 -8.83182 0
M  V30 72820 O 3221.68 -2.07206 -9.98732 0
M  V30 72821 O 3221.11 0.0743816 -8.81969 0
M  V30 72822 O 3221.65 -1.97652 -7.47304 0
M  V30 72823 C 3222.59 -3.01133 -7.08783 0
M  V30 72824 C 3221.86 -4.12613 -6.37049 0
M  V30 72825 O 3221.65 -3.72827 -4.97879 0
M  V30 72826 C 3220.46 -4.45085 -6.88694 0
M  V30 72827 O 3220.07 -5.7877 -6.5624 0
M  V30 72828 C 3219.58 -3.47817 -6.12078 0
M  V30 72829 C 3220.29 -3.39414 -4.77697 0
M  V30 72830 N 3220.24 -2.04615 -4.15333 0
M  V30 72831 H 3223.08 -3.41248 -7.98759 0
M  V30 72832 H 3223.35 -2.5837 -6.41742 0
M  V30 72833 H 3222.48 -5.02657 -6.42673 0
M  V30 72834 P 3218.52 -6.144 -6.45285 0
M  V30 72835 O 3218.3 -7.54673 -6.86199 0
M  V30 72836 O 3217.73 -5.12391 -7.179 0
M  V30 72837 O 3218.27 -5.99158 -4.88404 0
M  V30 72838 C 3219.21 -6.60234 -3.96415 0
M  V30 72839 C 3218.48 -7.08259 -2.72856 0
M  V30 72840 O 3218.27 -5.9427 -1.83651 0
M  V30 72841 C 3217.08 -7.64886 -2.9555 0
M  V30 72842 O 3216.69 -8.53963 -1.90717 0
M  V30 72843 C 3216.2 -6.4116 -2.90739 0
M  V30 72844 C 3216.91 -5.55375 -1.86963 0
M  V30 72845 N 3216.86 -4.09664 -2.15742 0
M  V30 72846 H 3219.7 -7.45574 -4.45629 0
M  V30 72847 H 3219.97 -5.86232 -3.67314 0
M  V30 72848 H 3219.1 -7.84412 -2.24479 0
M  V30 72849 P 3215.14 -8.7635 -1.60911 0
M  V30 72850 O 3214.92 -10.1388 -1.11561 0
M  V30 72851 O 3214.35 -8.36503 -2.79617 0
M  V30 72852 O 3214.89 -7.71806 -0.42951 0
M  V30 72853 C 3215.83 -7.67148 0.673689 0
M  V30 72854 C 3215.1 -7.33374 1.95559 0
M  V30 72855 O 3214.89 -5.88721 2.00726 0
M  V30 72856 C 3213.7 -7.92526 2.10483 0
M  V30 72857 O 3213.31 -8.02971 3.47653 0
M  V30 72858 C 3212.82 -6.89602 1.41652 0
M  V30 72859 C 3213.53 -5.59201 1.75185 0
M  V30 72860 N 3213.48 -4.58235 0.662552 0
M  V30 72861 H 3216.32 -8.65116 0.777161 0
M  V30 72862 H 3216.59 -6.90173 0.474152 0
M  V30 72863 H 3215.72 -7.66548 2.79458 0
M  V30 72864 P 3211.76 -8.03563 3.84925 0
M  V30 72865 O 3211.54 -8.85821 5.0569 0
M  V30 72866 O 3210.97 -8.41101 2.65469 0
M  V30 72867 O 3211.51 -6.4965 4.18908 0
M  V30 72868 C 3212.45 -5.81037 5.05421 0
M  V30 72869 C 3211.72 -4.78366 5.89277 0
M  V30 72870 O 3211.51 -3.58302 5.08433 0
M  V30 72871 C 3210.32 -5.17448 6.36119 0
M  V30 72872 O 3209.93 -4.45271 7.53232 0
M  V30 72873 C 3209.44 -4.74639 5.19936 0
M  V30 72874 C 3210.15 -3.49432 4.70418 0
M  V30 72875 N 3210.1 -3.32099 3.22613 0
M  V30 72876 H 3212.94 -6.54213 5.71376 0
M  V30 72877 H 3213.21 -5.30936 4.43503 0
M  V30 72878 H 3212.34 -4.55889 6.76652 0
M  V30 72879 H 3209.69 -2.61715 5.17932 0
M  V30 72880 H 3209.41 -5.52155 4.41878 0
M  V30 72881 H 3208.42 -4.51981 5.53374 0
M  V30 72882 H 3210.25 -6.25124 6.55234 0
M  V30 72883 P 3208.38 -4.23843 7.83734 0
M  V30 72884 O 3208.16 -4.19407 9.29784 0
M  V30 72885 O 3207.59 -5.24426 7.09156 0
M  V30 72886 O 3208.13 -2.7935 7.20758 0
M  V30 72887 C 3209.07 -1.7299 7.50419 0
M  V30 72888 C 3208.34 -0.406376 7.57911 0
M  V30 72889 O 3208.13 0.0897726 6.21935 0
M  V30 72890 C 3206.94 -0.447224 8.1878 0
M  V30 72891 O 3206.55 0.825065 8.71101 0
M  V30 72892 C 3206.06 -0.783801 6.99623 0
M  V30 72893 C 3206.77 -0.0619192 5.85967 0
M  V30 72894 N 3206.72 -0.790462 4.56202 0
M  V30 72895 H 3209.56 -1.93423 8.4679 0
M  V30 72896 H 3209.83 -1.68852 6.70877 0
M  V30 72897 H 3208.96 0.289041 8.15388 0
M  V30 72898 H 3206.31 0.927006 5.72848 0
M  V30 72899 H 3206.03 -1.86973 6.82036 0
M  V30 72900 H 3205.04 -0.403953 7.13357 0
M  V30 72901 H 3206.87 -1.20599 8.97534 0
M  V30 72902 P 3205 1.17771 8.83182 0
M  V30 72903 O 3204.78 2.07206 9.98732 0
M  V30 72904 O 3204.21 -0.0743816 8.81969 0
M  V30 72905 O 3204.75 1.97652 7.47304 0
M  V30 72906 C 3205.69 3.01133 7.08783 0
M  V30 72907 C 3204.96 4.12613 6.37049 0
M  V30 72908 O 3204.75 3.72827 4.97879 0
M  V30 72909 C 3203.56 4.45085 6.88694 0
M  V30 72910 O 3203.17 5.7877 6.5624 0
M  V30 72911 C 3202.68 3.47817 6.12078 0
M  V30 72912 C 3203.39 3.39414 4.77697 0
M  V30 72913 N 3203.34 2.04615 4.15333 0
M  V30 72914 H 3206.18 3.41248 7.98759 0
M  V30 72915 H 3206.45 2.5837 6.41742 0
M  V30 72916 H 3205.58 5.02657 6.42673 0
M  V30 72917 P 3201.62 6.144 6.45285 0
M  V30 72918 O 3201.4 7.54673 6.86199 0
M  V30 72919 O 3200.83 5.12391 7.179 0
M  V30 72920 O 3201.37 5.99158 4.88404 0
M  V30 72921 C 3202.31 6.60234 3.96415 0
M  V30 72922 C 3201.58 7.08259 2.72856 0
M  V30 72923 O 3201.37 5.9427 1.83651 0
M  V30 72924 C 3200.18 7.64886 2.9555 0
M  V30 72925 O 3199.79 8.53963 1.90717 0
M  V30 72926 C 3199.3 6.4116 2.90739 0
M  V30 72927 C 3200.01 5.55375 1.86963 0
M  V30 72928 N 3199.96 4.09664 2.15742 0
M  V30 72929 H 3202.8 7.45574 4.45629 0
M  V30 72930 H 3203.07 5.86232 3.67314 0
M  V30 72931 H 3202.2 7.84412 2.24479 0
M  V30 72932 P 3198.24 8.7635 1.60911 0
M  V30 72933 O 3198.02 10.1388 1.11561 0
M  V30 72934 O 3197.45 8.36503 2.79617 0
M  V30 72935 O 3197.99 7.71806 0.42951 0
M  V30 72936 C 3198.93 7.67148 -0.673689 0
M  V30 72937 C 3198.2 7.33374 -1.95559 0
M  V30 72938 O 3197.99 5.88721 -2.00726 0
M  V30 72939 C 3196.8 7.92526 -2.10483 0
M  V30 72940 O 3196.41 8.02971 -3.47653 0
M  V30 72941 C 3195.92 6.89602 -1.41652 0
M  V30 72942 C 3196.63 5.59201 -1.75185 0
M  V30 72943 N 3196.58 4.58235 -0.662552 0
M  V30 72944 H 3199.42 8.65116 -0.777161 0
M  V30 72945 H 3199.69 6.90173 -0.474152 0
M  V30 72946 H 3198.82 7.66548 -2.79458 0
M  V30 72947 P 3194.86 8.03563 -3.84925 0
M  V30 72948 O 3194.64 8.85821 -5.0569 0
M  V30 72949 O 3194.07 8.41101 -2.65469 0
M  V30 72950 O 3194.61 6.4965 -4.18908 0
M  V30 72951 C 3195.55 5.81037 -5.05421 0
M  V30 72952 C 3194.82 4.78366 -5.89277 0
M  V30 72953 O 3194.61 3.58302 -5.08433 0
M  V30 72954 C 3193.42 5.17448 -6.36119 0
M  V30 72955 O 3193.03 4.45271 -7.53232 0
M  V30 72956 C 3192.54 4.74639 -5.19936 0
M  V30 72957 C 3193.25 3.49432 -4.70418 0
M  V30 72958 N 3193.2 3.32099 -3.22613 0
M  V30 72959 H 3196.04 6.54213 -5.71376 0
M  V30 72960 H 3196.31 5.30936 -4.43503 0
M  V30 72961 H 3195.44 4.55889 -6.76652 0
M  V30 72962 H 3192.79 2.61715 -5.17932 0
M  V30 72963 H 3192.51 5.52155 -4.41878 0
M  V30 72964 H 3191.52 4.51981 -5.53374 0
M  V30 72965 H 3193.35 6.25124 -6.55234 0
M  V30 72966 P 3191.48 4.23843 -7.83734 0
M  V30 72967 O 3191.26 4.19407 -9.29784 0
M  V30 72968 O 3190.69 5.24426 -7.09156 0
M  V30 72969 O 3191.23 2.7935 -7.20758 0
M  V30 72970 C 3192.17 1.7299 -7.50419 0
M  V30 72971 C 3191.44 0.406376 -7.57911 0
M  V30 72972 O 3191.23 -0.0897726 -6.21935 0
M  V30 72973 C 3190.04 0.447224 -8.1878 0
M  V30 72974 O 3189.65 -0.825065 -8.71101 0
M  V30 72975 C 3189.16 0.783801 -6.99623 0
M  V30 72976 C 3189.87 0.0619192 -5.85967 0
M  V30 72977 N 3189.82 0.7859 -4.56281 0
M  V30 72978 H 3192.66 1.93423 -8.4679 0
M  V30 72979 H 3192.93 1.68181 -6.71046 0
M  V30 72980 H 3192.06 -0.289041 -8.15388 0
M  V30 72981 P 3188.1 -1.17771 -8.83182 0
M  V30 72982 O 3187.88 -2.07206 -9.98732 0
M  V30 72983 O 3187.31 0.0743816 -8.81969 0
M  V30 72984 O 3187.85 -1.97652 -7.47304 0
M  V30 72985 C 3188.79 -3.01133 -7.08783 0
M  V30 72986 C 3188.06 -4.12613 -6.37049 0
M  V30 72987 O 3187.85 -3.72827 -4.97879 0
M  V30 72988 C 3186.66 -4.45085 -6.88694 0
M  V30 72989 O 3186.27 -5.7877 -6.5624 0
M  V30 72990 C 3185.78 -3.47817 -6.12078 0
M  V30 72991 C 3186.49 -3.39414 -4.77697 0
M  V30 72992 N 3186.44 -2.04199 -4.15538 0
M  V30 72993 C 3186.52 -0.821545 -4.76977 0
M  V30 72994 N 3186.45 0.1794 -3.94592 0
M  V30 72995 C 3186.3 -0.419121 -2.70776 0
M  V30 72996 C 3186.17 0.109072 -1.40577 0
M  V30 72997 N 3186.16 1.4104 -1.1344 0
M  V30 72998 N 3186.05 -0.764381 -0.39411 0
M  V30 72999 C 3186.06 -2.06587 -0.664135 0
M  V30 73000 N 3186.18 -2.67948 -1.82153 0
M  V30 73001 C 3186.3 -1.77942 -2.8147 0
M  V30 73002 H 3189.28 -3.41248 -7.98759 0
M  V30 73003 H 3189.55 -2.57728 -6.42 0
M  V30 73004 H 3188.68 -5.02657 -6.42673 0
M  V30 73005 H 3186.03 -4.11708 -4.08956 0
M  V30 73006 H 3185.75 -2.49626 -6.61679 0
M  V30 73007 H 3184.76 -3.8662 -6.00862 0
M  V30 73008 H 3186.59 -4.29991 -7.97006 0
M  V30 73009 H 3186.63 -0.702451 -5.84696 0
M  V30 73010 H 3186.25 2.09647 -1.89651 0
M  V30 73011 H 3186.06 1.73358 -0.160575 0
M  V30 73012 H 3185.96 -2.71695 0.195838 0
M  V30 73013 P 3184.72 -6.144 -6.45285 0
M  V30 73014 O 3184.5 -7.54673 -6.86199 0
M  V30 73015 O 3183.93 -5.12391 -7.179 0
M  V30 73016 O 3184.47 -5.99158 -4.88404 0
M  V30 73017 C 3185.41 -6.60234 -3.96415 0
M  V30 73018 C 3184.68 -7.08259 -2.72856 0
M  V30 73019 O 3184.47 -5.9427 -1.83651 0
M  V30 73020 C 3183.28 -7.64886 -2.9555 0
M  V30 73021 O 3182.89 -8.53963 -1.90717 0
M  V30 73022 C 3182.4 -6.4116 -2.90739 0
M  V30 73023 C 3183.11 -5.55375 -1.86963 0
M  V30 73024 N 3183.06 -4.09664 -2.15742 0
M  V30 73025 H 3185.9 -7.45574 -4.45629 0
M  V30 73026 H 3186.17 -5.86232 -3.67314 0
M  V30 73027 H 3185.3 -7.84412 -2.24479 0
M  V30 73028 P 3181.34 -8.7635 -1.60911 0
M  V30 73029 O 3181.12 -10.1388 -1.11561 0
M  V30 73030 O 3180.55 -8.36503 -2.79617 0
M  V30 73031 O 3181.09 -7.71806 -0.42951 0
M  V30 73032 C 3182.03 -7.67148 0.673689 0
M  V30 73033 C 3181.3 -7.33374 1.95559 0
M  V30 73034 O 3181.09 -5.88721 2.00726 0
M  V30 73035 C 3179.9 -7.92526 2.10483 0
M  V30 73036 O 3179.51 -8.02971 3.47653 0
M  V30 73037 C 3179.02 -6.89602 1.41652 0
M  V30 73038 C 3179.73 -5.59201 1.75185 0
M  V30 73039 N 3179.68 -4.58301 0.657969 0
M  V30 73040 H 3182.52 -8.65116 0.777161 0
M  V30 73041 H 3182.79 -6.9022 0.46725 0
M  V30 73042 H 3181.92 -7.66548 2.79458 0
M  V30 73043 H 3179.27 -5.16165 2.65183 0
M  V30 73044 H 3178.99 -7.06433 0.329384 0
M  V30 73045 H 3178 -6.90926 1.82021 0
M  V30 73046 H 3179.83 -8.90873 1.62657 0
M  V30 73047 P 3177.96 -8.03563 3.84925 0
M  V30 73048 O 3177.74 -8.85821 5.0569 0
M  V30 73049 O 3177.17 -8.41101 2.65469 0
M  V30 73050 O 3177.71 -6.4965 4.18908 0
M  V30 73051 C 3178.65 -5.81037 5.05421 0
M  V30 73052 C 3177.92 -4.78366 5.89277 0
M  V30 73053 O 3177.71 -3.58302 5.08433 0
M  V30 73054 C 3176.52 -5.17448 6.36119 0
M  V30 73055 O 3176.13 -4.45271 7.53232 0
M  V30 73056 C 3175.64 -4.74639 5.19936 0
M  V30 73057 C 3176.35 -3.49432 4.70418 0
M  V30 73058 N 3176.3 -3.31776 3.22945 0
M  V30 73059 H 3179.14 -6.54213 5.71376 0
M  V30 73060 H 3179.41 -5.30492 4.44033 0
M  V30 73061 H 3178.54 -4.55889 6.76652 0
M  V30 73062 P 3174.58 -4.23843 7.83734 0
M  V30 73063 O 3174.36 -4.19407 9.29784 0
M  V30 73064 O 3173.79 -5.24426 7.09156 0
M  V30 73065 O 3174.33 -2.7935 7.20758 0
M  V30 73066 C 3175.27 -1.7299 7.50419 0
M  V30 73067 C 3174.54 -0.406376 7.57911 0
M  V30 73068 O 3174.33 0.0897726 6.21935 0
M  V30 73069 C 3173.14 -0.447224 8.1878 0
M  V30 73070 O 3172.75 0.825065 8.71101 0
M  V30 73071 C 3172.26 -0.783801 6.99623 0
M  V30 73072 C 3172.97 -0.0619192 5.85967 0
M  V30 73073 N 3172.92 -0.7859 4.56281 0
M  V30 73074 H 3175.76 -1.93423 8.4679 0
M  V30 73075 H 3176.03 -1.68181 6.71046 0
M  V30 73076 H 3175.16 0.289041 8.15388 0
M  V30 73077 P 3171.2 1.17771 8.83182 0
M  V30 73078 O 3170.98 2.07206 9.98732 0
M  V30 73079 O 3170.41 -0.0743816 8.81969 0
M  V30 73080 O 3170.95 1.97678 7.474 0
M  V30 73081 C 3171.89 3.01133 7.08783 0
M  V30 73082 C 3171.16 4.1203 6.37546 0
M  V30 73083 O 3170.95 3.72887 4.9796 0
M  V30 73084 C 3169.76 4.45085 6.88694 0
M  V30 73085 O 3169.37 5.78836 6.56315 0
M  V30 73086 C 3168.88 3.47817 6.12078 0
M  V30 73087 C 3169.59 3.39414 4.77697 0
M  V30 73088 N 3169.54 2.04615 4.15333 0
M  V30 73089 C 3169.39 1.96929 2.77162 0
M  V30 73090 O 3169.3 3.02017 2.12006 0
M  V30 73091 N 3169.34 0.55485 2.24237 0
M  V30 73092 C 3169.44 -0.367808 2.9169 0
M  V30 73093 N 3169.39 -1.53426 2.29427 0
M  V30 73094 C 3169.59 -0.319148 4.33828 0
M  V30 73095 C 3169.64 0.920672 4.90433 0
M  V30 73096 H 3172.38 3.41209 7.98667 0
M  V30 73097 H 3172.65 2.5837 6.41742 0
M  V30 73098 H 3171.78 5.02718 6.42752 0
M  V30 73099 H 3169.13 4.11779 4.09026 0
M  V30 73100 H 3168.85 2.49661 6.61772 0
M  V30 73101 H 3167.86 3.86674 6.00946 0
M  V30 73102 H 3169.69 4.29991 7.97006 0
M  V30 73103 H 3169.76 1.00589 5.98303 0
M  V30 73104 H 3169.66 -1.22639 4.93799 0
M  V30 73105 H 3169.27 -1.56819 1.27167 0
M  V30 73106 H 3169.47 -2.41062 2.83063 0
M  V30 73107 P 3167.82 6.144 6.45285 0
M  V30 73108 O 3167.6 7.54673 6.86199 0
M  V30 73109 O 3167.03 5.12391 7.179 0
M  V30 73110 O 3167.57 5.99158 4.88404 0
M  V30 73111 C 3168.51 6.60234 3.96415 0
M  V30 73112 C 3167.78 7.08259 2.72856 0
M  V30 73113 O 3167.57 5.9427 1.83651 0
M  V30 73114 C 3166.38 7.64886 2.9555 0
M  V30 73115 O 3165.99 8.53963 1.90717 0
M  V30 73116 C 3165.5 6.4116 2.90739 0
M  V30 73117 C 3166.21 5.55375 1.86963 0
M  V30 73118 N 3166.16 4.09664 2.15742 0
M  V30 73119 H 3169 7.45574 4.45629 0
M  V30 73120 H 3169.27 5.86232 3.67314 0
M  V30 73121 H 3168.4 7.84412 2.24479 0
M  V30 73122 P 3164.44 8.7635 1.60911 0
M  V30 73123 O 3164.22 10.1388 1.11561 0
M  V30 73124 O 3163.65 8.36503 2.79617 0
M  V30 73125 O 3164.19 7.71806 0.42951 0
M  V30 73126 C 3165.13 7.67148 -0.673689 0
M  V30 73127 C 3164.4 7.33374 -1.95559 0
M  V30 73128 O 3164.19 5.88721 -2.00726 0
M  V30 73129 C 3163 7.92526 -2.10483 0
M  V30 73130 O 3162.61 8.02971 -3.47653 0
M  V30 73131 C 3162.12 6.89602 -1.41652 0
M  V30 73132 C 3162.83 5.59201 -1.75185 0
M  V30 73133 N 3162.78 4.58235 -0.662552 0
M  V30 73134 H 3165.62 8.65116 -0.777161 0
M  V30 73135 H 3165.89 6.90173 -0.474152 0
M  V30 73136 H 3165.02 7.66548 -2.79458 0
M  V30 73137 P 3161.06 8.03563 -3.84925 0
M  V30 73138 O 3160.84 8.85821 -5.0569 0
M  V30 73139 O 3160.27 8.41101 -2.65469 0
M  V30 73140 O 3160.81 6.4965 -4.18908 0
M  V30 73141 C 3161.75 5.81037 -5.05421 0
M  V30 73142 C 3161.02 4.78366 -5.89277 0
M  V30 73143 O 3160.81 3.58302 -5.08433 0
M  V30 73144 C 3159.62 5.17448 -6.36119 0
M  V30 73145 O 3159.23 4.45271 -7.53232 0
M  V30 73146 C 3158.74 4.74639 -5.19936 0
M  V30 73147 C 3159.45 3.49432 -4.70418 0
M  V30 73148 N 3159.4 3.31776 -3.22945 0
M  V30 73149 H 3162.24 6.54213 -5.71376 0
M  V30 73150 H 3162.51 5.30492 -4.44033 0
M  V30 73151 H 3161.64 4.55889 -6.76652 0
M  V30 73152 P 3157.68 4.23843 -7.83734 0
M  V30 73153 O 3157.46 4.19407 -9.29784 0
M  V30 73154 O 3156.89 5.24426 -7.09156 0
M  V30 73155 O 3157.43 2.7935 -7.20758 0
M  V30 73156 C 3158.37 1.7299 -7.50419 0
M  V30 73157 C 3157.64 0.406376 -7.57911 0
M  V30 73158 O 3157.43 -0.0897726 -6.21935 0
M  V30 73159 C 3156.24 0.447224 -8.1878 0
M  V30 73160 O 3155.85 -0.825065 -8.71101 0
M  V30 73161 C 3155.36 0.783801 -6.99623 0
M  V30 73162 C 3156.07 0.0619192 -5.85967 0
M  V30 73163 N 3156.02 0.790462 -4.56202 0
M  V30 73164 H 3158.86 1.93423 -8.4679 0
M  V30 73165 H 3159.13 1.68852 -6.70877 0
M  V30 73166 H 3158.26 -0.289041 -8.15388 0
M  V30 73167 H 3155.61 -0.927006 -5.72848 0
M  V30 73168 H 3155.33 1.86973 -6.82036 0
M  V30 73169 H 3154.34 0.403953 -7.13357 0
M  V30 73170 H 3156.17 1.20599 -8.97534 0
M  V30 73171 P 3154.3 -1.17771 -8.83182 0
M  V30 73172 O 3154.08 -2.07206 -9.98732 0
M  V30 73173 O 3153.51 0.0743816 -8.81969 0
M  V30 73174 O 3154.05 -1.97652 -7.47304 0
M  V30 73175 C 3154.99 -3.01133 -7.08783 0
M  V30 73176 C 3154.26 -4.12613 -6.37049 0
M  V30 73177 O 3154.05 -3.72827 -4.97879 0
M  V30 73178 C 3152.86 -4.45085 -6.88694 0
M  V30 73179 O 3152.47 -5.7877 -6.5624 0
M  V30 73180 C 3151.98 -3.47817 -6.12078 0
M  V30 73181 C 3152.69 -3.39414 -4.77697 0
M  V30 73182 N 3152.64 -2.04615 -4.15333 0
M  V30 73183 H 3155.48 -3.41248 -7.98759 0
M  V30 73184 H 3155.75 -2.5837 -6.41742 0
M  V30 73185 H 3154.88 -5.02657 -6.42673 0
M  V30 73186 P 3150.92 -6.144 -6.45285 0
M  V30 73187 O 3150.7 -7.54673 -6.86199 0
M  V30 73188 O 3150.13 -5.12391 -7.179 0
M  V30 73189 O 3150.67 -5.99158 -4.88404 0
M  V30 73190 C 3151.61 -6.60234 -3.96415 0
M  V30 73191 C 3150.88 -7.08259 -2.72856 0
M  V30 73192 O 3150.67 -5.9427 -1.83651 0
M  V30 73193 C 3149.48 -7.64886 -2.9555 0
M  V30 73194 O 3149.09 -8.53963 -1.90717 0
M  V30 73195 C 3148.6 -6.4116 -2.90739 0
M  V30 73196 C 3149.31 -5.55375 -1.86963 0
M  V30 73197 N 3149.26 -4.09448 -2.16152 0
M  V30 73198 H 3152.1 -7.45574 -4.45629 0
M  V30 73199 H 3152.37 -5.85864 -3.679 0
M  V30 73200 H 3151.5 -7.84412 -2.24479 0
M  V30 73201 H 3148.85 -5.73457 -0.888562 0
M  V30 73202 H 3148.57 -5.90877 -3.88583 0
M  V30 73203 H 3147.58 -6.6596 -2.58858 0
M  V30 73204 H 3149.41 -8.16339 -3.92049 0
M  V30 73205 P 3147.54 -8.7635 -1.60911 0
M  V30 73206 O 3147.32 -10.1388 -1.11561 0
M  V30 73207 O 3146.75 -8.36503 -2.79617 0
M  V30 73208 O 3147.29 -7.71806 -0.42951 0
M  V30 73209 C 3148.23 -7.67148 0.673689 0
M  V30 73210 C 3147.5 -7.33374 1.95559 0
M  V30 73211 O 3147.29 -5.88721 2.00726 0
M  V30 73212 C 3146.1 -7.92526 2.10483 0
M  V30 73213 O 3145.71 -8.02971 3.47653 0
M  V30 73214 C 3145.22 -6.89602 1.41652 0
M  V30 73215 C 3145.93 -5.59201 1.75185 0
M  V30 73216 N 3145.88 -4.58301 0.657969 0
M  V30 73217 C 3145.96 -4.79019 -0.692603 0
M  V30 73218 N 3145.89 -3.69736 -1.38998 0
M  V30 73219 C 3145.74 -2.70474 -0.438135 0
M  V30 73220 C 3145.61 -1.30327 -0.538142 0
M  V30 73221 N 3145.6 -0.64304 -1.69192 0
M  V30 73222 N 3145.49 -0.611027 0.605183 0
M  V30 73223 C 3145.5 -1.27002 1.75953 0
M  V30 73224 N 3145.62 -2.56038 1.98546 0
M  V30 73225 C 3145.74 -3.22681 0.822541 0
M  V30 73226 H 3148.72 -8.65116 0.777161 0
M  V30 73227 H 3148.99 -6.9022 0.46725 0
M  V30 73228 H 3148.12 -7.66548 2.79458 0
M  V30 73229 H 3145.47 -5.16165 2.65183 0
M  V30 73230 H 3145.19 -7.06433 0.329384 0
M  V30 73231 H 3144.2 -6.90926 1.82021 0
M  V30 73232 H 3146.03 -8.90873 1.62657 0
M  V30 73233 H 3146.07 -5.77785 -1.13874 0
M  V30 73234 H 3145.69 -1.15585 -2.57991 0
M  V30 73235 H 3145.5 0.382989 -1.69835 0
M  V30 73236 H 3145.4 -0.653331 2.64449 0
M  V30 73237 P 3144.16 -8.03563 3.84925 0
M  V30 73238 O 3143.94 -8.85821 5.0569 0
M  V30 73239 O 3143.37 -8.41101 2.65469 0
M  V30 73240 O 3143.91 -6.4965 4.18908 0
M  V30 73241 C 3144.85 -5.81037 5.05421 0
M  V30 73242 C 3144.12 -4.78366 5.89277 0
M  V30 73243 O 3143.91 -3.58302 5.08433 0
M  V30 73244 C 3142.72 -5.17448 6.36119 0
M  V30 73245 O 3142.33 -4.45271 7.53232 0
M  V30 73246 C 3141.84 -4.74639 5.19936 0
M  V30 73247 C 3142.55 -3.49432 4.70418 0
M  V30 73248 N 3142.5 -3.31776 3.22945 0
M  V30 73249 H 3145.34 -6.54213 5.71376 0
M  V30 73250 H 3145.61 -5.30492 4.44033 0
M  V30 73251 H 3144.74 -4.55889 6.76652 0
M  V30 73252 P 3140.78 -4.23843 7.83734 0
M  V30 73253 O 3140.56 -4.19407 9.29784 0
M  V30 73254 O 3139.99 -5.24426 7.09156 0
M  V30 73255 O 3140.53 -2.7935 7.20758 0
M  V30 73256 C 3141.47 -1.7299 7.50419 0
M  V30 73257 C 3140.74 -0.406376 7.57911 0
M  V30 73258 O 3140.53 0.0897726 6.21935 0
M  V30 73259 C 3139.34 -0.447224 8.1878 0
M  V30 73260 O 3138.95 0.825065 8.71101 0
M  V30 73261 C 3138.46 -0.783801 6.99623 0
M  V30 73262 C 3139.17 -0.0619192 5.85967 0
M  V30 73263 N 3139.12 -0.7859 4.56281 0
M  V30 73264 H 3141.96 -1.93423 8.4679 0
M  V30 73265 H 3142.23 -1.68181 6.71046 0
M  V30 73266 H 3141.36 0.289041 8.15388 0
M  V30 73267 P 3137.4 1.17771 8.83182 0
M  V30 73268 O 3137.18 2.07206 9.98732 0
M  V30 73269 O 3136.61 -0.0743816 8.81969 0
M  V30 73270 O 3137.15 1.97652 7.47304 0
M  V30 73271 C 3138.09 3.01133 7.08783 0
M  V30 73272 C 3137.36 4.12613 6.37049 0
M  V30 73273 O 3137.15 3.72827 4.97879 0
M  V30 73274 C 3135.96 4.45085 6.88694 0
M  V30 73275 O 3135.57 5.7877 6.5624 0
M  V30 73276 C 3135.08 3.47817 6.12078 0
M  V30 73277 C 3135.79 3.39414 4.77697 0
M  V30 73278 N 3135.74 2.04615 4.15333 0
M  V30 73279 H 3138.58 3.41248 7.98759 0
M  V30 73280 H 3138.85 2.5837 6.41742 0
M  V30 73281 H 3137.98 5.02657 6.42673 0
M  V30 73282 P 3134.02 6.144 6.45285 0
M  V30 73283 O 3133.8 7.54673 6.86199 0
M  V30 73284 O 3133.23 5.12391 7.179 0
M  V30 73285 O 3133.77 5.99158 4.88404 0
M  V30 73286 C 3134.71 6.60234 3.96415 0
M  V30 73287 C 3133.98 7.08259 2.72856 0
M  V30 73288 O 3133.77 5.9427 1.83651 0
M  V30 73289 C 3132.58 7.64886 2.9555 0
M  V30 73290 O 3132.19 8.53963 1.90717 0
M  V30 73291 C 3131.7 6.4116 2.90739 0
M  V30 73292 C 3132.41 5.55375 1.86963 0
M  V30 73293 N 3132.36 4.09448 2.16152 0
M  V30 73294 C 3132.44 3.46824 3.37593 0
M  V30 73295 N 3132.37 2.17422 3.29777 0
M  V30 73296 C 3132.22 1.93065 1.94427 0
M  V30 73297 C 3132.09 0.738053 1.20141 0
M  V30 73298 N 3132.08 -0.474256 1.74676 0
M  V30 73299 N 3131.97 0.850049 -0.13045 0
M  V30 73300 C 3131.98 2.06169 -0.676992 0
M  V30 73301 N 3132.1 3.23842 -0.101312 0
M  V30 73302 C 3132.22 3.09402 1.23122 0
M  V30 73303 H 3135.2 7.45574 4.45629 0
M  V30 73304 H 3135.47 5.85864 3.679 0
M  V30 73305 H 3134.6 7.84412 2.24479 0
M  V30 73306 H 3131.95 5.73457 0.888562 0
M  V30 73307 H 3131.67 5.90877 3.88583 0
M  V30 73308 H 3130.68 6.6596 2.58858 0
M  V30 73309 H 3132.51 8.16339 3.92049 0
M  V30 73310 H 3132.55 4.00505 4.3174 0
M  V30 73311 H 3132.17 -0.581337 2.76658 0
M  V30 73312 H 3131.98 -1.30811 1.14888 0
M  V30 73313 H 3131.88 2.08295 -1.75542 0
M  V30 73314 P 3130.64 8.7635 1.60911 0
M  V30 73315 O 3130.42 10.1388 1.11561 0
M  V30 73316 O 3129.85 8.36503 2.79617 0
M  V30 73317 O 3130.39 7.71806 0.42951 0
M  V30 73318 C 3131.33 7.67148 -0.673689 0
M  V30 73319 C 3130.6 7.33374 -1.95559 0
M  V30 73320 O 3130.39 5.88721 -2.00726 0
M  V30 73321 C 3129.2 7.92526 -2.10483 0
M  V30 73322 O 3128.81 8.02971 -3.47653 0
M  V30 73323 C 3128.32 6.89602 -1.41652 0
M  V30 73324 C 3129.03 5.59201 -1.75185 0
M  V30 73325 N 3128.98 4.58235 -0.662552 0
M  V30 73326 H 3131.82 8.65116 -0.777161 0
M  V30 73327 H 3132.09 6.90173 -0.474152 0
M  V30 73328 H 3131.22 7.66548 -2.79458 0
M  V30 73329 P 3127.26 8.03563 -3.84925 0
M  V30 73330 O 3127.04 8.85821 -5.0569 0
M  V30 73331 O 3126.47 8.41101 -2.65469 0
M  V30 73332 O 3127.01 6.4965 -4.18908 0
M  V30 73333 C 3127.95 5.81037 -5.05421 0
M  V30 73334 C 3127.22 4.78366 -5.89277 0
M  V30 73335 O 3127.01 3.58302 -5.08433 0
M  V30 73336 C 3125.82 5.17448 -6.36119 0
M  V30 73337 O 3125.43 4.45271 -7.53232 0
M  V30 73338 C 3124.94 4.74639 -5.19936 0
M  V30 73339 C 3125.65 3.49432 -4.70418 0
M  V30 73340 N 3125.6 3.31776 -3.22945 0
M  V30 73341 H 3128.44 6.54213 -5.71376 0
M  V30 73342 H 3128.71 5.30492 -4.44033 0
M  V30 73343 H 3127.84 4.55889 -6.76652 0
M  V30 73344 P 3123.88 4.23843 -7.83734 0
M  V30 73345 O 3123.66 4.19407 -9.29784 0
M  V30 73346 O 3123.09 5.24426 -7.09156 0
M  V30 73347 O 3123.63 2.7935 -7.20758 0
M  V30 73348 C 3124.57 1.7299 -7.50419 0
M  V30 73349 C 3123.84 0.406376 -7.57911 0
M  V30 73350 O 3123.63 -0.0897726 -6.21935 0
M  V30 73351 C 3122.44 0.447224 -8.1878 0
M  V30 73352 O 3122.05 -0.825065 -8.71101 0
M  V30 73353 C 3121.56 0.783801 -6.99623 0
M  V30 73354 C 3122.27 0.0619192 -5.85967 0
M  V30 73355 N 3122.22 0.7859 -4.56281 0
M  V30 73356 H 3125.06 1.93423 -8.4679 0
M  V30 73357 H 3125.33 1.68181 -6.71046 0
M  V30 73358 H 3124.46 -0.289041 -8.15388 0
M  V30 73359 P 3120.5 -1.17771 -8.83182 0
M  V30 73360 O 3120.28 -2.07206 -9.98732 0
M  V30 73361 O 3119.71 0.0743816 -8.81969 0
M  V30 73362 O 3120.25 -1.97652 -7.47304 0
M  V30 73363 C 3121.19 -3.01133 -7.08783 0
M  V30 73364 C 3120.46 -4.12613 -6.37049 0
M  V30 73365 O 3120.25 -3.72827 -4.97879 0
M  V30 73366 C 3119.06 -4.45085 -6.88694 0
M  V30 73367 O 3118.67 -5.7877 -6.5624 0
M  V30 73368 C 3118.18 -3.47817 -6.12078 0
M  V30 73369 C 3118.89 -3.39414 -4.77697 0
M  V30 73370 N 3118.84 -2.04615 -4.15333 0
M  V30 73371 H 3121.68 -3.41248 -7.98759 0
M  V30 73372 H 3121.95 -2.5837 -6.41742 0
M  V30 73373 H 3121.08 -5.02657 -6.42673 0
M  V30 73374 P 3117.12 -6.144 -6.45285 0
M  V30 73375 O 3116.9 -7.54673 -6.86199 0
M  V30 73376 O 3116.33 -5.12391 -7.179 0
M  V30 73377 O 3116.87 -5.99158 -4.88404 0
M  V30 73378 C 3117.81 -6.60062 -3.96313 0
M  V30 73379 C 3117.08 -7.08259 -2.72856 0
M  V30 73380 O 3116.87 -5.9427 -1.83651 0
M  V30 73381 C 3115.68 -7.65087 -2.94749 0
M  V30 73382 O 3115.29 -8.53963 -1.90717 0
M  V30 73383 C 3114.8 -6.41069 -2.90698 0
M  V30 73384 C 3115.51 -5.5528 -1.86931 0
M  V30 73385 N 3115.46 -4.09575 -2.15696 0
M  V30 73386 C 3115.31 -3.24249 -1.08435 0
M  V30 73387 O 3115.22 -3.63946 0.0628747 0
M  V30 73388 N 3115.27 -1.90009 -1.39973 0
M  V30 73389 C 3115.36 -1.34884 -2.65614 0
M  V30 73390 C 3115.51 -2.3145 -3.71736 0
M  V30 73391 C 3115.56 -3.63518 -3.44754 0
M  V30 73392 H 3118.3 -7.45402 -4.45526 0
M  V30 73393 H 3118.57 -5.86062 -3.67208 0
M  V30 73394 H 3117.7 -7.84412 -2.24479 0
M  V30 73395 H 3115.05 -5.73358 -0.888409 0
M  V30 73396 H 3114.77 -5.90877 -3.88583 0
M  V30 73397 H 3113.78 -6.65867 -2.58821 0
M  V30 73398 H 3115.61 -8.16248 -3.92006 0
M  V30 73399 H 3115.68 -4.34551 -4.26383 0
M  V30 73400 P 3113.74 -8.7635 -1.60911 0
M  V30 73401 O 3113.52 -10.1388 -1.11561 0
M  V30 73402 O 3112.95 -8.36503 -2.79617 0
M  V30 73403 O 3113.49 -7.71806 -0.42951 0
M  V30 73404 C 3114.43 -7.66948 0.673514 0
M  V30 73405 C 3113.7 -7.33374 1.95559 0
M  V30 73406 O 3113.49 -5.88721 2.00726 0
M  V30 73407 C 3112.3 -7.92218 2.1125 0
M  V30 73408 O 3111.91 -8.02971 3.47653 0
M  V30 73409 C 3111.42 -6.89504 1.41631 0
M  V30 73410 C 3112.13 -5.59106 1.75155 0
M  V30 73411 N 3112.08 -4.58136 0.662409 0
M  V30 73412 C 3111.93 -3.26059 1.02863 0
M  V30 73413 O 3111.84 -2.90743 2.19009 0
M  V30 73414 N 3111.89 -2.35995 -0.0155585 0
M  V30 73415 C 3111.98 -2.65248 -1.35603 0
M  V30 73416 O 3111.93 -1.75605 -2.20651 0
M  V30 73417 C 3112.13 -4.05747 -1.64698 0
M  V30 73418 C 3112.24 -4.42345 -3.09553 0
M  V30 73419 C 3112.18 -4.96734 -0.652411 0
M  V30 73420 H 3114.92 -8.64917 0.776982 0
M  V30 73421 H 3115.19 -6.89974 0.474015 0
M  V30 73422 H 3114.32 -7.66548 2.79458 0
M  V30 73423 H 3111.67 -5.16076 2.65138 0
M  V30 73424 H 3111.39 -7.06433 0.329384 0
M  V30 73425 H 3110.4 -6.90829 1.81996 0
M  V30 73426 H 3112.23 -8.90774 1.62639 0
M  V30 73427 H 3112.3 -6.02181 -0.895285 0
M  V30 73428 H 3111.27 -4.80252 -3.45468 0
M  V30 73429 H 3113.01 -5.20015 -3.22119 0
M  V30 73430 H 3112.52 -3.53269 -3.67833 0
M  V30 73431 H 3111.79 -1.39558 0.227499 0
M  V30 73432 P 3110.36 -8.03563 3.84925 0
M  V30 73433 O 3110.14 -8.85821 5.0569 0
M  V30 73434 O 3109.57 -8.41101 2.65469 0
M  V30 73435 O 3110.11 -6.4965 4.18908 0
M  V30 73436 C 3111.05 -5.81037 5.05421 0
M  V30 73437 C 3110.32 -4.78366 5.89277 0
M  V30 73438 O 3110.11 -3.58302 5.08433 0
M  V30 73439 C 3108.92 -5.17448 6.36119 0
M  V30 73440 O 3108.53 -4.45271 7.53232 0
M  V30 73441 C 3108.04 -4.74639 5.19936 0
M  V30 73442 C 3108.75 -3.49432 4.70418 0
M  V30 73443 N 3108.7 -3.31776 3.22945 0
M  V30 73444 H 3111.54 -6.54213 5.71376 0
M  V30 73445 H 3111.81 -5.30492 4.44033 0
M  V30 73446 H 3110.94 -4.55889 6.76652 0
M  V30 73447 P 3106.98 -4.23843 7.83734 0
M  V30 73448 O 3106.76 -4.19407 9.29784 0
M  V30 73449 O 3106.19 -5.24426 7.09156 0
M  V30 73450 O 3106.73 -2.7935 7.20758 0
M  V30 73451 C 3107.67 -1.7299 7.50419 0
M  V30 73452 C 3106.94 -0.406376 7.57911 0
M  V30 73453 O 3106.73 0.0897726 6.21935 0
M  V30 73454 C 3105.54 -0.447224 8.1878 0
M  V30 73455 O 3105.15 0.825065 8.71101 0
M  V30 73456 C 3104.66 -0.783801 6.99623 0
M  V30 73457 C 3105.37 -0.0619192 5.85967 0
M  V30 73458 N 3105.32 -0.7859 4.56281 0
M  V30 73459 H 3108.16 -1.93423 8.4679 0
M  V30 73460 H 3108.43 -1.68181 6.71046 0
M  V30 73461 H 3107.56 0.289041 8.15388 0
M  V30 73462 P 3103.6 1.17771 8.83182 0
M  V30 73463 O 3103.38 2.07206 9.98732 0
M  V30 73464 O 3102.81 -0.0743816 8.81969 0
M  V30 73465 O 3103.35 1.97652 7.47304 0
M  V30 73466 C 3104.29 3.01133 7.08783 0
M  V30 73467 C 3103.56 4.12613 6.37049 0
M  V30 73468 O 3103.35 3.72827 4.97879 0
M  V30 73469 C 3102.16 4.45085 6.88694 0
M  V30 73470 O 3101.77 5.7877 6.5624 0
M  V30 73471 C 3101.28 3.47817 6.12078 0
M  V30 73472 C 3101.99 3.39414 4.77697 0
M  V30 73473 N 3101.94 2.04615 4.15333 0
M  V30 73474 H 3104.78 3.41248 7.98759 0
M  V30 73475 H 3105.05 2.5837 6.41742 0
M  V30 73476 H 3104.18 5.02657 6.42673 0
M  V30 73477 P 3100.22 6.144 6.45285 0
M  V30 73478 O 3100 7.54673 6.86199 0
M  V30 73479 O 3099.43 5.12391 7.179 0
M  V30 73480 O 3099.97 5.99158 4.88404 0
M  V30 73481 C 3100.91 6.60234 3.96415 0
M  V30 73482 C 3100.18 7.08259 2.72856 0
M  V30 73483 O 3099.97 5.9427 1.83651 0
M  V30 73484 C 3098.78 7.64886 2.9555 0
M  V30 73485 O 3098.39 8.53963 1.90717 0
M  V30 73486 C 3097.9 6.4116 2.90739 0
M  V30 73487 C 3098.61 5.55375 1.86963 0
M  V30 73488 N 3098.56 4.09664 2.15742 0
M  V30 73489 H 3101.4 7.45574 4.45629 0
M  V30 73490 H 3101.67 5.86232 3.67314 0
M  V30 73491 H 3100.8 7.84412 2.24479 0
M  V30 73492 P 3096.84 8.7635 1.60911 0
M  V30 73493 O 3096.62 10.1388 1.11561 0
M  V30 73494 O 3096.05 8.36503 2.79617 0
M  V30 73495 O 3096.59 7.71806 0.42951 0
M  V30 73496 C 3097.53 7.67148 -0.673689 0
M  V30 73497 C 3096.8 7.33374 -1.95559 0
M  V30 73498 O 3096.59 5.88721 -2.00726 0
M  V30 73499 C 3095.4 7.92526 -2.10483 0
M  V30 73500 O 3095.01 8.02971 -3.47653 0
M  V30 73501 C 3094.52 6.89602 -1.41652 0
M  V30 73502 C 3095.23 5.59201 -1.75185 0
M  V30 73503 N 3095.18 4.58301 -0.657969 0
M  V30 73504 H 3098.02 8.65116 -0.777161 0
M  V30 73505 H 3098.29 6.9022 -0.46725 0
M  V30 73506 H 3097.42 7.66548 -2.79458 0
M  V30 73507 H 3094.77 5.16165 -2.65183 0
M  V30 73508 H 3094.49 7.06433 -0.329384 0
M  V30 73509 H 3093.5 6.90926 -1.82021 0
M  V30 73510 H 3095.33 8.90873 -1.62657 0
M  V30 73511 P 3093.46 8.03563 -3.84925 0
M  V30 73512 O 3093.24 8.85821 -5.0569 0
M  V30 73513 O 3092.67 8.41101 -2.65469 0
M  V30 73514 O 3093.21 6.4965 -4.18908 0
M  V30 73515 C 3094.15 5.81037 -5.05421 0
M  V30 73516 C 3093.42 4.78366 -5.89277 0
M  V30 73517 O 3093.21 3.58302 -5.08433 0
M  V30 73518 C 3092.02 5.17448 -6.36119 0
M  V30 73519 O 3091.63 4.45271 -7.53232 0
M  V30 73520 C 3091.14 4.74639 -5.19936 0
M  V30 73521 C 3091.85 3.49432 -4.70418 0
M  V30 73522 N 3091.8 3.31776 -3.22945 0
M  V30 73523 H 3094.64 6.54213 -5.71376 0
M  V30 73524 H 3094.91 5.30492 -4.44033 0
M  V30 73525 H 3094.04 4.55889 -6.76652 0
M  V30 73526 P 3090.08 4.23843 -7.83734 0
M  V30 73527 O 3089.86 4.19407 -9.29784 0
M  V30 73528 O 3089.29 5.24426 -7.09156 0
M  V30 73529 O 3089.83 2.7935 -7.20758 0
M  V30 73530 C 3090.77 1.7299 -7.50419 0
M  V30 73531 C 3090.04 0.406376 -7.57911 0
M  V30 73532 O 3089.83 -0.0897726 -6.21935 0
M  V30 73533 C 3088.64 0.447224 -8.1878 0
M  V30 73534 O 3088.25 -0.825065 -8.71101 0
M  V30 73535 C 3087.76 0.783801 -6.99623 0
M  V30 73536 C 3088.47 0.0619192 -5.85967 0
M  V30 73537 N 3088.42 0.790462 -4.56202 0
M  V30 73538 H 3091.26 1.93423 -8.4679 0
M  V30 73539 H 3091.53 1.68852 -6.70877 0
M  V30 73540 H 3090.66 -0.289041 -8.15388 0
M  V30 73541 H 3088.01 -0.927006 -5.72848 0
M  V30 73542 H 3087.73 1.86973 -6.82036 0
M  V30 73543 H 3086.74 0.403953 -7.13357 0
M  V30 73544 H 3088.57 1.20599 -8.97534 0
M  V30 73545 P 3086.7 -1.17771 -8.83182 0
M  V30 73546 O 3086.48 -2.07206 -9.98732 0
M  V30 73547 O 3085.91 0.0743816 -8.81969 0
M  V30 73548 O 3086.45 -1.97652 -7.47304 0
M  V30 73549 C 3087.39 -3.01133 -7.08783 0
M  V30 73550 C 3086.66 -4.12613 -6.37049 0
M  V30 73551 O 3086.45 -3.72827 -4.97879 0
M  V30 73552 C 3085.26 -4.45085 -6.88694 0
M  V30 73553 O 3084.87 -5.7877 -6.5624 0
M  V30 73554 C 3084.38 -3.47817 -6.12078 0
M  V30 73555 C 3085.09 -3.39414 -4.77697 0
M  V30 73556 N 3085.04 -2.04199 -4.15538 0
M  V30 73557 C 3085.12 -0.821545 -4.76977 0
M  V30 73558 N 3085.05 0.1794 -3.94592 0
M  V30 73559 C 3084.9 -0.419121 -2.70776 0
M  V30 73560 C 3084.77 0.109072 -1.40577 0
M  V30 73561 N 3084.76 1.4104 -1.1344 0
M  V30 73562 N 3084.65 -0.764381 -0.39411 0
M  V30 73563 C 3084.66 -2.06587 -0.664135 0
M  V30 73564 N 3084.78 -2.67948 -1.82153 0
M  V30 73565 C 3084.9 -1.77942 -2.8147 0
M  V30 73566 H 3087.88 -3.41248 -7.98759 0
M  V30 73567 H 3088.15 -2.57728 -6.42 0
M  V30 73568 H 3087.28 -5.02657 -6.42673 0
M  V30 73569 H 3084.63 -4.11708 -4.08956 0
M  V30 73570 H 3084.35 -2.49626 -6.61679 0
M  V30 73571 H 3083.36 -3.8662 -6.00862 0
M  V30 73572 H 3085.19 -4.29991 -7.97006 0
M  V30 73573 H 3085.23 -0.702451 -5.84696 0
M  V30 73574 H 3084.85 2.09647 -1.89651 0
M  V30 73575 H 3084.66 1.73358 -0.160575 0
M  V30 73576 H 3084.56 -2.71695 0.195838 0
M  V30 73577 P 3083.32 -6.144 -6.45285 0
M  V30 73578 O 3083.1 -7.54673 -6.86199 0
M  V30 73579 O 3082.53 -5.12391 -7.179 0
M  V30 73580 O 3083.07 -5.99158 -4.88404 0
M  V30 73581 C 3084.01 -6.60234 -3.96415 0
M  V30 73582 C 3083.28 -7.08259 -2.72856 0
M  V30 73583 O 3083.07 -5.9427 -1.83651 0
M  V30 73584 C 3081.88 -7.64886 -2.9555 0
M  V30 73585 O 3081.49 -8.53963 -1.90717 0
M  V30 73586 C 3081 -6.4116 -2.90739 0
M  V30 73587 C 3081.71 -5.55375 -1.86963 0
M  V30 73588 N 3081.66 -4.09448 -2.16152 0
M  V30 73589 H 3084.5 -7.45574 -4.45629 0
M  V30 73590 H 3084.77 -5.85864 -3.679 0
M  V30 73591 H 3083.9 -7.84412 -2.24479 0
M  V30 73592 H 3081.25 -5.73457 -0.888562 0
M  V30 73593 H 3080.97 -5.90877 -3.88583 0
M  V30 73594 H 3079.98 -6.6596 -2.58858 0
M  V30 73595 H 3081.81 -8.16339 -3.92049 0
M  V30 73596 P 3079.94 -8.7635 -1.60911 0
M  V30 73597 O 3079.72 -10.1388 -1.11561 0
M  V30 73598 O 3079.15 -8.36503 -2.79617 0
M  V30 73599 O 3079.69 -7.71806 -0.42951 0
M  V30 73600 C 3080.63 -7.67148 0.673689 0
M  V30 73601 C 3079.9 -7.33374 1.95559 0
M  V30 73602 O 3079.69 -5.88721 2.00726 0
M  V30 73603 C 3078.5 -7.92526 2.10483 0
M  V30 73604 O 3078.11 -8.02971 3.47653 0
M  V30 73605 C 3077.62 -6.89602 1.41652 0
M  V30 73606 C 3078.33 -5.59201 1.75185 0
M  V30 73607 N 3078.28 -4.58235 0.662552 0
M  V30 73608 H 3081.12 -8.65116 0.777161 0
M  V30 73609 H 3081.39 -6.90173 0.474152 0
M  V30 73610 H 3080.52 -7.66548 2.79458 0
M  V30 73611 P 3076.56 -8.03563 3.84925 0
M  V30 73612 O 3076.34 -8.85821 5.0569 0
M  V30 73613 O 3075.77 -8.41101 2.65469 0
M  V30 73614 O 3076.31 -6.49734 4.18962 0
M  V30 73615 C 3077.25 -5.81037 5.05421 0
M  V30 73616 C 3076.52 -4.79018 5.88876 0
M  V30 73617 O 3076.31 -3.58359 5.08515 0
M  V30 73618 C 3075.12 -5.17448 6.36119 0
M  V30 73619 O 3074.73 -4.45322 7.53318 0
M  V30 73620 C 3074.24 -4.74639 5.19936 0
M  V30 73621 C 3074.95 -3.49432 4.70418 0
M  V30 73622 N 3074.9 -3.31776 3.22945 0
M  V30 73623 C 3074.75 -2.02742 2.72939 0
M  V30 73624 O 3074.66 -1.08301 3.52749 0
M  V30 73625 N 3074.7 -1.96117 1.22063 0
M  V30 73626 C 3074.8 -2.8878 0.551566 0
M  V30 73627 N 3074.75 -2.65609 -0.750198 0
M  V30 73628 C 3074.95 -4.22457 1.03707 0
M  V30 73629 C 3075 -4.37979 2.39113 0
M  V30 73630 H 3077.74 -6.54138 5.7131 0
M  V30 73631 H 3078.01 -5.30492 4.44033 0
M  V30 73632 H 3077.14 -4.55945 6.76735 0
M  V30 73633 H 3074.49 -2.6176 5.18021 0
M  V30 73634 H 3074.21 -5.52233 4.41941 0
M  V30 73635 H 3073.22 -4.52045 5.53452 0
M  V30 73636 H 3075.05 -6.25124 6.55234 0
M  V30 73637 H 3075.12 -5.37936 2.80552 0
M  V30 73638 H 3075.02 -5.07528 0.359553 0
M  V30 73639 H 3074.63 -1.69403 -1.09847 0
M  V30 73640 H 3074.83 -3.43701 -1.41792 0
M  V30 73641 P 3073.18 -4.23843 7.83734 0
M  V30 73642 O 3072.96 -4.19407 9.29784 0
M  V30 73643 O 3072.39 -5.24426 7.09156 0
M  V30 73644 O 3072.93 -2.7935 7.20758 0
M  V30 73645 C 3073.87 -1.7299 7.50419 0
M  V30 73646 C 3073.14 -0.406376 7.57911 0
M  V30 73647 O 3072.93 0.0897726 6.21935 0
M  V30 73648 C 3071.74 -0.447224 8.1878 0
M  V30 73649 O 3071.35 0.825065 8.71101 0
M  V30 73650 C 3070.86 -0.783801 6.99623 0
M  V30 73651 C 3071.57 -0.0619192 5.85967 0
M  V30 73652 N 3071.52 -0.7859 4.56281 0
M  V30 73653 H 3074.36 -1.93423 8.4679 0
M  V30 73654 H 3074.63 -1.68181 6.71046 0
M  V30 73655 H 3073.76 0.289041 8.15388 0
M  V30 73656 P 3069.8 1.17771 8.83182 0
M  V30 73657 O 3069.58 2.07206 9.98732 0
M  V30 73658 O 3069.01 -0.0743816 8.81969 0
M  V30 73659 O 3069.55 1.97652 7.47304 0
M  V30 73660 C 3070.49 3.01133 7.08783 0
M  V30 73661 C 3069.76 4.12613 6.37049 0
M  V30 73662 O 3069.55 3.72827 4.97879 0
M  V30 73663 C 3068.36 4.45085 6.88694 0
M  V30 73664 O 3067.97 5.7877 6.5624 0
M  V30 73665 C 3067.48 3.47817 6.12078 0
M  V30 73666 C 3068.19 3.39414 4.77697 0
M  V30 73667 N 3068.14 2.04615 4.15333 0
M  V30 73668 H 3070.98 3.41248 7.98759 0
M  V30 73669 H 3071.25 2.5837 6.41742 0
M  V30 73670 H 3070.38 5.02657 6.42673 0
M  V30 73671 P 3066.42 6.144 6.45285 0
M  V30 73672 O 3066.2 7.54673 6.86199 0
M  V30 73673 O 3065.63 5.12391 7.179 0
M  V30 73674 O 3066.17 5.99158 4.88404 0
M  V30 73675 C 3067.11 6.60234 3.96415 0
M  V30 73676 C 3066.38 7.08259 2.72856 0
M  V30 73677 O 3066.17 5.9427 1.83651 0
M  V30 73678 C 3064.98 7.64886 2.9555 0
M  V30 73679 O 3064.59 8.53963 1.90717 0
M  V30 73680 C 3064.1 6.4116 2.90739 0
M  V30 73681 C 3064.81 5.55375 1.86963 0
M  V30 73682 N 3064.76 4.09664 2.15742 0
M  V30 73683 H 3067.6 7.45574 4.45629 0
M  V30 73684 H 3067.87 5.86232 3.67314 0
M  V30 73685 H 3067 7.84412 2.24479 0
M  V30 73686 P 3063.04 8.7635 1.60911 0
M  V30 73687 O 3062.82 10.1388 1.11561 0
M  V30 73688 O 3062.25 8.36503 2.79617 0
M  V30 73689 O 3062.79 7.71806 0.42951 0
M  V30 73690 C 3063.73 7.67148 -0.673689 0
M  V30 73691 C 3063 7.33374 -1.95559 0
M  V30 73692 O 3062.79 5.88721 -2.00726 0
M  V30 73693 C 3061.6 7.92526 -2.10483 0
M  V30 73694 O 3061.21 8.02971 -3.47653 0
M  V30 73695 C 3060.72 6.89602 -1.41652 0
M  V30 73696 C 3061.43 5.59201 -1.75185 0
M  V30 73697 N 3061.38 4.58301 -0.657969 0
M  V30 73698 C 3061.46 4.79019 0.692603 0
M  V30 73699 N 3061.39 3.69736 1.38998 0
M  V30 73700 C 3061.24 2.70474 0.438135 0
M  V30 73701 C 3061.11 1.30327 0.538142 0
M  V30 73702 N 3061.1 0.64304 1.69192 0
M  V30 73703 N 3060.99 0.611027 -0.605183 0
M  V30 73704 C 3061 1.27002 -1.75953 0
M  V30 73705 N 3061.12 2.56038 -1.98546 0
M  V30 73706 C 3061.24 3.22681 -0.822541 0
M  V30 73707 H 3064.22 8.65116 -0.777161 0
M  V30 73708 H 3064.49 6.9022 -0.46725 0
M  V30 73709 H 3063.62 7.66548 -2.79458 0
M  V30 73710 H 3060.97 5.16165 -2.65183 0
M  V30 73711 H 3060.69 7.06433 -0.329384 0
M  V30 73712 H 3059.7 6.90926 -1.82021 0
M  V30 73713 H 3061.53 8.90873 -1.62657 0
M  V30 73714 H 3061.57 5.77785 1.13874 0
M  V30 73715 H 3061.19 1.15585 2.57991 0
M  V30 73716 H 3061 -0.382989 1.69835 0
M  V30 73717 H 3060.9 0.653331 -2.64449 0
M  V30 73718 P 3059.66 8.03563 -3.84925 0
M  V30 73719 O 3059.44 8.85821 -5.0569 0
M  V30 73720 O 3058.87 8.41101 -2.65469 0
M  V30 73721 O 3059.41 6.4965 -4.18908 0
M  V30 73722 C 3060.35 5.81037 -5.05421 0
M  V30 73723 C 3059.62 4.78366 -5.89277 0
M  V30 73724 O 3059.41 3.58302 -5.08433 0
M  V30 73725 C 3058.22 5.17448 -6.36119 0
M  V30 73726 O 3057.83 4.45271 -7.53232 0
M  V30 73727 C 3057.34 4.74639 -5.19936 0
M  V30 73728 C 3058.05 3.49432 -4.70418 0
M  V30 73729 N 3058 3.32099 -3.22613 0
M  V30 73730 C 3058.08 4.28245 -2.25527 0
M  V30 73731 N 3058.01 3.80823 -1.04874 0
M  V30 73732 C 3057.86 2.44571 -1.23535 0
M  V30 73733 C 3057.73 1.37068 -0.330675 0
M  V30 73734 N 3057.72 1.51472 0.990824 0
M  V30 73735 N 3057.61 0.138614 -0.848756 0
M  V30 73736 C 3057.62 -0.00675923 -2.16999 0
M  V30 73737 N 3057.74 0.904372 -3.11122 0
M  V30 73738 C 3057.86 2.12707 -2.56212 0
M  V30 73739 H 3060.84 6.54213 -5.71376 0
M  V30 73740 H 3061.11 5.30936 -4.43503 0
M  V30 73741 H 3060.24 4.55889 -6.76652 0
M  V30 73742 H 3057.59 2.61715 -5.17932 0
M  V30 73743 H 3057.31 5.52155 -4.41878 0
M  V30 73744 H 3056.32 4.51981 -5.53374 0
M  V30 73745 H 3058.15 6.25124 -6.55234 0
M  V30 73746 H 3058.19 5.34372 -2.47488 0
M  V30 73747 H 3057.81 2.45153 1.4078 0
M  V30 73748 H 3057.62 0.688422 1.59911 0
M  V30 73749 H 3057.52 -1.02584 -2.52346 0
M  V30 73750 P 3056.28 4.23843 -7.83734 0
M  V30 73751 O 3056.06 4.19407 -9.29784 0
M  V30 73752 O 3055.49 5.24426 -7.09156 0
M  V30 73753 O 3056.03 2.7935 -7.20758 0
M  V30 73754 C 3056.97 1.7299 -7.50419 0
M  V30 73755 C 3056.24 0.406376 -7.57911 0
M  V30 73756 O 3056.03 -0.0897726 -6.21935 0
M  V30 73757 C 3054.84 0.447224 -8.1878 0
M  V30 73758 O 3054.45 -0.825065 -8.71101 0
M  V30 73759 C 3053.96 0.783801 -6.99623 0
M  V30 73760 C 3054.67 0.0619192 -5.85967 0
M  V30 73761 N 3054.62 0.7859 -4.56281 0
M  V30 73762 H 3057.46 1.93423 -8.4679 0
M  V30 73763 H 3057.73 1.68181 -6.71046 0
M  V30 73764 H 3056.86 -0.289041 -8.15388 0
M  V30 73765 P 3052.9 -1.17771 -8.83182 0
M  V30 73766 O 3052.68 -2.07206 -9.98732 0
M  V30 73767 O 3052.11 0.0743816 -8.81969 0
M  V30 73768 O 3052.65 -1.97652 -7.47304 0
M  V30 73769 C 3053.59 -3.01133 -7.08783 0
M  V30 73770 C 3052.86 -4.12613 -6.37049 0
M  V30 73771 O 3052.65 -3.72827 -4.97879 0
M  V30 73772 C 3051.46 -4.45085 -6.88694 0
M  V30 73773 O 3051.07 -5.7877 -6.5624 0
M  V30 73774 C 3050.58 -3.47817 -6.12078 0
M  V30 73775 C 3051.29 -3.39414 -4.77697 0
M  V30 73776 N 3051.24 -2.04615 -4.15333 0
M  V30 73777 H 3054.08 -3.41248 -7.98759 0
M  V30 73778 H 3054.35 -2.5837 -6.41742 0
M  V30 73779 H 3053.48 -5.02657 -6.42673 0
M  V30 73780 P 3049.52 -6.144 -6.45285 0
M  V30 73781 O 3049.3 -7.54673 -6.86199 0
M  V30 73782 O 3048.73 -5.12391 -7.179 0
M  V30 73783 O 3049.27 -5.99158 -4.88404 0
M  V30 73784 C 3050.21 -6.60062 -3.96313 0
M  V30 73785 C 3049.48 -7.08259 -2.72856 0
M  V30 73786 O 3049.27 -5.9427 -1.83651 0
M  V30 73787 C 3048.08 -7.65087 -2.94749 0
M  V30 73788 O 3047.69 -8.53963 -1.90717 0
M  V30 73789 C 3047.2 -6.41069 -2.90698 0
M  V30 73790 C 3047.91 -5.5528 -1.86931 0
M  V30 73791 N 3047.86 -4.09575 -2.15696 0
M  V30 73792 C 3047.71 -3.24249 -1.08435 0
M  V30 73793 O 3047.62 -3.63946 0.0628747 0
M  V30 73794 N 3047.67 -1.90009 -1.39973 0
M  V30 73795 C 3047.76 -1.34884 -2.65614 0
M  V30 73796 C 3047.91 -2.3145 -3.71736 0
M  V30 73797 C 3047.96 -3.63518 -3.44754 0
M  V30 73798 H 3050.7 -7.45402 -4.45526 0
M  V30 73799 H 3050.97 -5.86062 -3.67208 0
M  V30 73800 H 3050.1 -7.84412 -2.24479 0
M  V30 73801 H 3047.45 -5.73358 -0.888409 0
M  V30 73802 H 3047.17 -5.90877 -3.88583 0
M  V30 73803 H 3046.18 -6.65867 -2.58821 0
M  V30 73804 H 3048.01 -8.16248 -3.92006 0
M  V30 73805 H 3048.08 -4.34551 -4.26383 0
M  V30 73806 P 3046.14 -8.7635 -1.60911 0
M  V30 73807 O 3045.92 -10.1388 -1.11561 0
M  V30 73808 O 3045.35 -8.36503 -2.79617 0
M  V30 73809 O 3045.89 -7.71806 -0.42951 0
M  V30 73810 C 3046.83 -7.67148 0.673689 0
M  V30 73811 C 3046.1 -7.33374 1.95559 0
M  V30 73812 O 3045.89 -5.88721 2.00726 0
M  V30 73813 C 3044.7 -7.92526 2.10483 0
M  V30 73814 O 3044.31 -8.02971 3.47653 0
M  V30 73815 C 3043.82 -6.89602 1.41652 0
M  V30 73816 C 3044.53 -5.59201 1.75185 0
M  V30 73817 N 3044.48 -4.58235 0.662552 0
M  V30 73818 H 3047.32 -8.65116 0.777161 0
M  V30 73819 H 3047.59 -6.90173 0.474152 0
M  V30 73820 H 3046.73 -7.66548 2.79458 0
M  V30 73821 P 3042.76 -8.03563 3.84925 0
M  V30 73822 O 3042.54 -8.85821 5.0569 0
M  V30 73823 O 3041.97 -8.41101 2.65469 0
M  V30 73824 O 3042.51 -6.49734 4.18962 0
M  V30 73825 C 3043.45 -5.81037 5.05421 0
M  V30 73826 C 3042.72 -4.79018 5.88876 0
M  V30 73827 O 3042.51 -3.58359 5.08515 0
M  V30 73828 C 3041.32 -5.17448 6.36119 0
M  V30 73829 O 3040.93 -4.45322 7.53318 0
M  V30 73830 C 3040.44 -4.74639 5.19936 0
M  V30 73831 C 3041.15 -3.49432 4.70418 0
M  V30 73832 N 3041.1 -3.31776 3.22945 0
M  V30 73833 C 3040.95 -2.02742 2.72939 0
M  V30 73834 O 3040.86 -1.08301 3.52749 0
M  V30 73835 N 3040.9 -1.96117 1.22063 0
M  V30 73836 C 3041 -2.8878 0.551566 0
M  V30 73837 N 3040.95 -2.65609 -0.750198 0
M  V30 73838 C 3041.15 -4.22457 1.03707 0
M  V30 73839 C 3041.2 -4.37979 2.39113 0
M  V30 73840 H 3043.94 -6.54138 5.7131 0
M  V30 73841 H 3044.21 -5.30492 4.44033 0
M  V30 73842 H 3043.35 -4.55945 6.76735 0
M  V30 73843 H 3040.69 -2.6176 5.18021 0
M  V30 73844 H 3040.41 -5.52233 4.41941 0
M  V30 73845 H 3039.42 -4.52045 5.53452 0
M  V30 73846 H 3041.25 -6.25124 6.55234 0
M  V30 73847 H 3041.33 -5.37936 2.80552 0
M  V30 73848 H 3041.22 -5.07528 0.359553 0
M  V30 73849 H 3040.84 -1.69403 -1.09847 0
M  V30 73850 H 3041.03 -3.43701 -1.41792 0
M  V30 73851 P 3039.38 -4.23843 7.83734 0
M  V30 73852 O 3039.16 -4.19407 9.29784 0
M  V30 73853 O 3038.59 -5.24426 7.09156 0
M  V30 73854 O 3039.13 -2.7935 7.20758 0
M  V30 73855 C 3040.07 -1.7299 7.50419 0
M  V30 73856 C 3039.34 -0.406376 7.57911 0
M  V30 73857 O 3039.13 0.0897726 6.21935 0
M  V30 73858 C 3037.94 -0.447224 8.1878 0
M  V30 73859 O 3037.55 0.825065 8.71101 0
M  V30 73860 C 3037.06 -0.783801 6.99623 0
M  V30 73861 C 3037.77 -0.0619192 5.85967 0
M  V30 73862 N 3037.72 -0.7859 4.56281 0
M  V30 73863 H 3040.56 -1.93423 8.4679 0
M  V30 73864 H 3040.83 -1.68181 6.71046 0
M  V30 73865 H 3039.97 0.289041 8.15388 0
M  V30 73866 P 3036 1.17771 8.83182 0
M  V30 73867 O 3035.78 2.07206 9.98732 0
M  V30 73868 O 3035.21 -0.0743816 8.81969 0
M  V30 73869 O 3035.75 1.97652 7.47304 0
M  V30 73870 C 3036.69 3.01133 7.08783 0
M  V30 73871 C 3035.96 4.12613 6.37049 0
M  V30 73872 O 3035.75 3.72827 4.97879 0
M  V30 73873 C 3034.56 4.45085 6.88694 0
M  V30 73874 O 3034.17 5.7877 6.5624 0
M  V30 73875 C 3033.68 3.47817 6.12078 0
M  V30 73876 C 3034.39 3.39414 4.77697 0
M  V30 73877 N 3034.34 2.04615 4.15333 0
M  V30 73878 H 3037.18 3.41248 7.98759 0
M  V30 73879 H 3037.45 2.5837 6.41742 0
M  V30 73880 H 3036.59 5.02657 6.42673 0
M  V30 73881 P 3032.62 6.144 6.45285 0
M  V30 73882 O 3032.4 7.54673 6.86199 0
M  V30 73883 O 3031.83 5.12391 7.179 0
M  V30 73884 O 3032.37 5.99158 4.88404 0
M  V30 73885 C 3033.31 6.60234 3.96415 0
M  V30 73886 C 3032.58 7.08259 2.72856 0
M  V30 73887 O 3032.37 5.9427 1.83651 0
M  V30 73888 C 3031.18 7.64886 2.9555 0
M  V30 73889 O 3030.79 8.53963 1.90717 0
M  V30 73890 C 3030.3 6.4116 2.90739 0
M  V30 73891 C 3031.01 5.55375 1.86963 0
M  V30 73892 N 3030.96 4.09664 2.15742 0
M  V30 73893 H 3033.8 7.45574 4.45629 0
M  V30 73894 H 3034.07 5.86232 3.67314 0
M  V30 73895 H 3033.21 7.84412 2.24479 0
M  V30 73896 P 3029.24 8.7635 1.60911 0
M  V30 73897 O 3029.02 10.1388 1.11561 0
M  V30 73898 O 3028.45 8.36503 2.79617 0
M  V30 73899 O 3028.99 7.71806 0.42951 0
M  V30 73900 C 3029.93 7.67148 -0.673689 0
M  V30 73901 C 3029.2 7.33374 -1.95559 0
M  V30 73902 O 3028.99 5.88721 -2.00726 0
M  V30 73903 C 3027.8 7.92526 -2.10483 0
M  V30 73904 O 3027.41 8.02971 -3.47653 0
M  V30 73905 C 3026.92 6.89602 -1.41652 0
M  V30 73906 C 3027.63 5.59201 -1.75185 0
M  V30 73907 N 3027.58 4.58235 -0.662552 0
M  V30 73908 H 3030.42 8.65116 -0.777161 0
M  V30 73909 H 3030.69 6.90173 -0.474152 0
M  V30 73910 H 3029.83 7.66548 -2.79458 0
M  V30 73911 P 3025.86 8.03563 -3.84925 0
M  V30 73912 O 3025.64 8.85821 -5.0569 0
M  V30 73913 O 3025.07 8.41101 -2.65469 0
M  V30 73914 O 3025.61 6.4965 -4.18908 0
M  V30 73915 C 3026.55 5.81037 -5.05421 0
M  V30 73916 C 3025.82 4.78366 -5.89277 0
M  V30 73917 O 3025.61 3.58302 -5.08433 0
M  V30 73918 C 3024.42 5.17448 -6.36119 0
M  V30 73919 O 3024.03 4.45271 -7.53232 0
M  V30 73920 C 3023.54 4.74639 -5.19936 0
M  V30 73921 C 3024.25 3.49432 -4.70418 0
M  V30 73922 N 3024.2 3.31776 -3.22945 0
M  V30 73923 H 3027.04 6.54213 -5.71376 0
M  V30 73924 H 3027.31 5.30492 -4.44033 0
M  V30 73925 H 3026.45 4.55889 -6.76652 0
M  V30 73926 P 3022.48 4.23843 -7.83734 0
M  V30 73927 O 3022.26 4.19407 -9.29784 0
M  V30 73928 O 3021.69 5.24426 -7.09156 0
M  V30 73929 O 3022.23 2.7935 -7.20758 0
M  V30 73930 C 3023.17 1.72945 -7.50224 0
M  V30 73931 C 3022.44 0.406376 -7.57911 0
M  V30 73932 O 3022.23 -0.0897726 -6.21935 0
M  V30 73933 C 3021.04 0.438983 -8.18724 0
M  V30 73934 O 3020.65 -0.825065 -8.71101 0
M  V30 73935 C 3020.16 0.783689 -6.99524 0
M  V30 73936 C 3020.87 0.0619086 -5.85867 0
M  V30 73937 N 3020.82 0.78573 -4.56183 0
M  V30 73938 C 3020.67 0.0292889 -3.41887 0
M  V30 73939 O 3020.58 -1.18445 -3.4419 0
M  V30 73940 N 3020.63 0.744061 -2.23964 0
M  V30 73941 C 3020.72 2.10932 -2.10362 0
M  V30 73942 C 3020.87 2.8202 -3.34994 0
M  V30 73943 C 3020.92 2.15547 -4.52261 0
M  V30 73944 H 3023.66 1.93379 -8.46595 0
M  V30 73945 H 3023.93 1.68132 -6.70852 0
M  V30 73946 H 3023.07 -0.289041 -8.15388 0
M  V30 73947 H 3020.41 -0.926847 -5.72749 0
M  V30 73948 H 3020.13 1.86973 -6.82036 0
M  V30 73949 H 3019.14 0.403896 -7.13257 0
M  V30 73950 H 3020.97 1.20585 -8.97435 0
M  V30 73951 H 3021.04 2.71231 -5.45042 0
M  V30 73952 P 3019.1 -1.17771 -8.83182 0
M  V30 73953 O 3018.88 -2.07206 -9.98732 0
M  V30 73954 O 3018.31 0.0743816 -8.81969 0
M  V30 73955 O 3018.85 -1.97678 -7.474 0
M  V30 73956 C 3019.79 -3.01133 -7.08783 0
M  V30 73957 C 3019.06 -4.1203 -6.37546 0
M  V30 73958 O 3018.85 -3.72887 -4.9796 0
M  V30 73959 C 3017.66 -4.45085 -6.88694 0
M  V30 73960 O 3017.27 -5.78836 -6.56315 0
M  V30 73961 C 3016.78 -3.47817 -6.12078 0
M  V30 73962 C 3017.49 -3.39414 -4.77697 0
M  V30 73963 N 3017.44 -2.04615 -4.15333 0
M  V30 73964 C 3017.29 -1.96929 -2.77162 0
M  V30 73965 O 3017.2 -3.02017 -2.12006 0
M  V30 73966 N 3017.24 -0.55485 -2.24237 0
M  V30 73967 C 3017.34 0.367808 -2.9169 0
M  V30 73968 N 3017.29 1.53426 -2.29427 0
M  V30 73969 C 3017.49 0.319148 -4.33828 0
M  V30 73970 C 3017.54 -0.920672 -4.90433 0
M  V30 73971 H 3020.28 -3.41209 -7.98667 0
M  V30 73972 H 3020.55 -2.5837 -6.41742 0
M  V30 73973 H 3019.69 -5.02718 -6.42752 0
M  V30 73974 H 3017.03 -4.11779 -4.09026 0
M  V30 73975 H 3016.75 -2.49661 -6.61772 0
M  V30 73976 H 3015.76 -3.86674 -6.00946 0
M  V30 73977 H 3017.59 -4.29991 -7.97006 0
M  V30 73978 H 3017.67 -1.00589 -5.98303 0
M  V30 73979 H 3017.56 1.22639 -4.93799 0
M  V30 73980 H 3017.18 1.56819 -1.27167 0
M  V30 73981 H 3017.37 2.41062 -2.83063 0
M  V30 73982 P 3015.72 -6.144 -6.45285 0
M  V30 73983 O 3015.5 -7.54673 -6.86199 0
M  V30 73984 O 3014.93 -5.12391 -7.179 0
M  V30 73985 O 3015.47 -5.99158 -4.88404 0
M  V30 73986 C 3016.41 -6.60234 -3.96415 0
M  V30 73987 C 3015.68 -7.08259 -2.72856 0
M  V30 73988 O 3015.47 -5.9427 -1.83651 0
M  V30 73989 C 3014.28 -7.64886 -2.9555 0
M  V30 73990 O 3013.89 -8.53963 -1.90717 0
M  V30 73991 C 3013.4 -6.4116 -2.90739 0
M  V30 73992 C 3014.11 -5.55375 -1.86963 0
M  V30 73993 N 3014.06 -4.09448 -2.16152 0
M  V30 73994 H 3016.9 -7.45574 -4.45629 0
M  V30 73995 H 3017.17 -5.85864 -3.679 0
M  V30 73996 H 3016.31 -7.84412 -2.24479 0
M  V30 73997 H 3013.65 -5.73457 -0.888562 0
M  V30 73998 H 3013.37 -5.90877 -3.88583 0
M  V30 73999 H 3012.38 -6.6596 -2.58858 0
M  V30 74000 H 3014.21 -8.16339 -3.92049 0
M  V30 74001 P 3012.34 -8.7635 -1.60911 0
M  V30 74002 O 3012.12 -10.1388 -1.11561 0
M  V30 74003 O 3011.55 -8.36503 -2.79617 0
M  V30 74004 O 3012.09 -7.71806 -0.42951 0
M  V30 74005 C 3013.03 -7.67148 0.673689 0
M  V30 74006 C 3012.3 -7.33374 1.95559 0
M  V30 74007 O 3012.09 -5.88721 2.00726 0
M  V30 74008 C 3010.9 -7.92526 2.10483 0
M  V30 74009 O 3010.51 -8.02971 3.47653 0
M  V30 74010 C 3010.02 -6.89602 1.41652 0
M  V30 74011 C 3010.73 -5.59201 1.75185 0
M  V30 74012 N 3010.68 -4.58235 0.662552 0
M  V30 74013 C 3010.76 -4.7683 -0.704049 0
M  V30 74014 N 3010.68 -3.66233 -1.39775 0
M  V30 74015 C 3010.54 -2.66526 -0.431739 0
M  V30 74016 C 3010.41 -1.26394 -0.575992 0
M  V30 74017 N 3010.29 -0.62859 0.67177 0
M  V30 74018 C 3010.29 -1.27134 1.89385 0
M  V30 74019 N 3010.16 -0.492035 2.96951 0
M  V30 74020 N 3010.42 -2.58978 2.02907 0
M  V30 74021 C 3010.54 -3.22433 0.832218 0
M  V30 74022 H 3013.52 -8.65116 0.777161 0
M  V30 74023 H 3013.79 -6.90173 0.474152 0
M  V30 74024 H 3012.93 -7.66548 2.79458 0
M  V30 74025 P 3008.96 -8.03563 3.84925 0
M  V30 74026 O 3008.74 -8.85821 5.0569 0
M  V30 74027 O 3008.17 -8.41101 2.65469 0
M  V30 74028 O 3008.71 -6.4965 4.18908 0
M  V30 74029 C 3009.65 -5.81037 5.05421 0
M  V30 74030 C 3008.92 -4.78366 5.89277 0
M  V30 74031 O 3008.71 -3.58302 5.08433 0
M  V30 74032 C 3007.52 -5.17448 6.36119 0
M  V30 74033 O 3007.13 -4.45271 7.53232 0
M  V30 74034 C 3006.64 -4.74639 5.19936 0
M  V30 74035 C 3007.35 -3.49432 4.70418 0
M  V30 74036 N 3007.3 -3.31776 3.22945 0
M  V30 74037 C 3007.38 -4.27147 2.23315 0
M  V30 74038 N 3007.3 -3.78447 1.02186 0
M  V30 74039 C 3007.16 -2.41001 1.21732 0
M  V30 74040 C 3007.03 -1.36111 0.27694 0
M  V30 74041 N 3006.91 -0.113683 0.912949 0
M  V30 74042 C 3006.91 0.0846396 2.27943 0
M  V30 74043 N 3006.78 1.34737 2.6916 0
M  V30 74044 N 3007.04 -0.902521 3.16379 0
M  V30 74045 C 3007.16 -2.11937 2.56849 0
M  V30 74046 H 3010.14 -6.54213 5.71376 0
M  V30 74047 H 3010.41 -5.30492 4.44033 0
M  V30 74048 H 3009.55 -4.55889 6.76652 0
M  V30 74049 P 3005.58 -4.23843 7.83734 0
M  V30 74050 O 3005.36 -4.19407 9.29784 0
M  V30 74051 O 3004.79 -5.24426 7.09156 0
M  V30 74052 O 3005.33 -2.7935 7.20758 0
M  V30 74053 C 3006.27 -1.7299 7.50419 0
M  V30 74054 C 3005.54 -0.406376 7.57911 0
M  V30 74055 O 3005.33 0.0897726 6.21935 0
M  V30 74056 C 3004.14 -0.447224 8.1878 0
M  V30 74057 O 3003.75 0.825065 8.71101 0
M  V30 74058 C 3003.26 -0.783801 6.99623 0
M  V30 74059 C 3003.97 -0.0619192 5.85967 0
M  V30 74060 N 3003.92 -0.7859 4.56281 0
M  V30 74061 H 3006.76 -1.93423 8.4679 0
M  V30 74062 H 3007.03 -1.68181 6.71046 0
M  V30 74063 H 3006.17 0.289041 8.15388 0
M  V30 74064 P 3002.2 1.17771 8.83182 0
M  V30 74065 O 3001.98 2.07206 9.98732 0
M  V30 74066 O 3001.41 -0.0743816 8.81969 0
M  V30 74067 O 3001.95 1.97652 7.47304 0
M  V30 74068 C 3002.89 3.01133 7.08783 0
M  V30 74069 C 3002.16 4.12613 6.37049 0
M  V30 74070 O 3001.95 3.72827 4.97879 0
M  V30 74071 C 3000.76 4.45085 6.88694 0
M  V30 74072 O 3000.37 5.7877 6.5624 0
M  V30 74073 C 2999.88 3.47817 6.12078 0
M  V30 74074 C 3000.59 3.39414 4.77697 0
M  V30 74075 N 3000.54 2.04615 4.15333 0
M  V30 74076 H 3003.38 3.41248 7.98759 0
M  V30 74077 H 3003.65 2.5837 6.41742 0
M  V30 74078 H 3002.79 5.02657 6.42673 0
M  V30 74079 P 2998.82 6.144 6.45285 0
M  V30 74080 O 2998.6 7.54673 6.86199 0
M  V30 74081 O 2998.03 5.12391 7.179 0
M  V30 74082 O 2998.57 5.99158 4.88404 0
M  V30 74083 C 2999.51 6.60062 3.96313 0
M  V30 74084 C 2998.78 7.08259 2.72856 0
M  V30 74085 O 2998.57 5.9427 1.83651 0
M  V30 74086 C 2997.38 7.65087 2.94749 0
M  V30 74087 O 2996.99 8.53963 1.90717 0
M  V30 74088 C 2996.5 6.41069 2.90698 0
M  V30 74089 C 2997.21 5.5528 1.86931 0
M  V30 74090 N 2997.16 4.09575 2.15696 0
M  V30 74091 C 2997.01 3.24249 1.08435 0
M  V30 74092 O 2996.92 3.63946 -0.0628747 0
M  V30 74093 N 2996.97 1.90009 1.39973 0
M  V30 74094 C 2997.06 1.34884 2.65614 0
M  V30 74095 O 2997.01 0.123716 2.81728 0
M  V30 74096 C 2997.21 2.3145 3.71736 0
M  V30 74097 C 2997.32 1.75913 5.10438 0
M  V30 74098 C 2997.26 3.63518 3.44754 0
M  V30 74099 H 3000 7.45402 4.45526 0
M  V30 74100 H 3000.27 5.86062 3.67208 0
M  V30 74101 H 2999.41 7.84412 2.24479 0
M  V30 74102 H 2996.75 5.73358 0.888409 0
M  V30 74103 H 2996.47 5.90877 3.88583 0
M  V30 74104 H 2995.48 6.65867 2.58821 0
M  V30 74105 H 2997.31 8.16248 3.92006 0
M  V30 74106 H 2997.38 4.34551 4.26383 0
M  V30 74107 H 2996.35 1.85471 5.61775 0
M  V30 74108 H 2998.09 2.31364 5.66257 0
M  V30 74109 H 2997.6 0.695936 5.05229 0
M  V30 74110 H 2996.87 1.26277 0.63625 0
M  V30 74111 P 2995.44 8.7635 1.60911 0
M  V30 74112 O 2995.22 10.1388 1.11561 0
M  V30 74113 O 2994.65 8.36503 2.79617 0
M  V30 74114 O 2995.19 7.71806 0.42951 0
M  V30 74115 C 2996.13 7.67148 -0.673689 0
M  V30 74116 C 2995.4 7.33374 -1.95559 0
M  V30 74117 O 2995.19 5.88721 -2.00726 0
M  V30 74118 C 2994 7.92526 -2.10483 0
M  V30 74119 O 2993.61 8.02971 -3.47653 0
M  V30 74120 C 2993.12 6.89602 -1.41652 0
M  V30 74121 C 2993.83 5.59201 -1.75185 0
M  V30 74122 N 2993.78 4.58235 -0.662552 0
M  V30 74123 H 2996.62 8.65116 -0.777161 0
M  V30 74124 H 2996.89 6.90173 -0.474152 0
M  V30 74125 H 2996.03 7.66548 -2.79458 0
M  V30 74126 P 2992.06 8.03563 -3.84925 0
M  V30 74127 O 2991.84 8.85821 -5.0569 0
M  V30 74128 O 2991.27 8.41101 -2.65469 0
M  V30 74129 O 2991.81 6.4965 -4.18908 0
M  V30 74130 C 2992.75 5.81037 -5.05421 0
M  V30 74131 C 2992.02 4.78366 -5.89277 0
M  V30 74132 O 2991.81 3.58302 -5.08433 0
M  V30 74133 C 2990.62 5.17448 -6.36119 0
M  V30 74134 O 2990.23 4.45271 -7.53232 0
M  V30 74135 C 2989.74 4.74639 -5.19936 0
M  V30 74136 C 2990.45 3.49432 -4.70418 0
M  V30 74137 N 2990.4 3.31776 -3.22945 0
M  V30 74138 H 2993.24 6.54213 -5.71376 0
M  V30 74139 H 2993.51 5.30492 -4.44033 0
M  V30 74140 H 2992.65 4.55889 -6.76652 0
M  V30 74141 P 2988.68 4.23843 -7.83734 0
M  V30 74142 O 2988.46 4.19407 -9.29784 0
M  V30 74143 O 2987.89 5.24426 -7.09156 0
M  V30 74144 O 2988.43 2.7935 -7.20758 0
M  V30 74145 C 2989.37 1.7299 -7.50419 0
M  V30 74146 C 2988.64 0.406376 -7.57911 0
M  V30 74147 O 2988.43 -0.0897726 -6.21935 0
M  V30 74148 C 2987.24 0.447224 -8.1878 0
M  V30 74149 O 2986.85 -0.825065 -8.71101 0
M  V30 74150 C 2986.36 0.783801 -6.99623 0
M  V30 74151 C 2987.07 0.0619192 -5.85967 0
M  V30 74152 N 2987.02 0.790462 -4.56202 0
M  V30 74153 H 2989.86 1.93423 -8.4679 0
M  V30 74154 H 2990.13 1.68852 -6.70877 0
M  V30 74155 H 2989.27 -0.289041 -8.15388 0
M  V30 74156 H 2986.61 -0.927006 -5.72848 0
M  V30 74157 H 2986.33 1.86973 -6.82036 0
M  V30 74158 H 2985.34 0.403953 -7.13357 0
M  V30 74159 H 2987.17 1.20599 -8.97534 0
M  V30 74160 P 2985.3 -1.17771 -8.83182 0
M  V30 74161 O 2985.08 -2.07206 -9.98732 0
M  V30 74162 O 2984.51 0.0743816 -8.81969 0
M  V30 74163 O 2985.05 -1.97652 -7.47304 0
M  V30 74164 C 2985.99 -3.01133 -7.08783 0
M  V30 74165 C 2985.26 -4.12613 -6.37049 0
M  V30 74166 O 2985.05 -3.72827 -4.97879 0
M  V30 74167 C 2983.86 -4.45085 -6.88694 0
M  V30 74168 O 2983.47 -5.7877 -6.5624 0
M  V30 74169 C 2982.98 -3.47817 -6.12078 0
M  V30 74170 C 2983.69 -3.39414 -4.77697 0
M  V30 74171 N 2983.64 -2.04615 -4.15333 0
M  V30 74172 H 2986.48 -3.41248 -7.98759 0
M  V30 74173 H 2986.75 -2.5837 -6.41742 0
M  V30 74174 H 2985.89 -5.02657 -6.42673 0
M  V30 74175 P 2981.92 -6.144 -6.45285 0
M  V30 74176 O 2981.7 -7.54673 -6.86199 0
M  V30 74177 O 2981.13 -5.12391 -7.179 0
M  V30 74178 O 2981.67 -5.99158 -4.88404 0
M  V30 74179 C 2982.61 -6.60234 -3.96415 0
M  V30 74180 C 2981.88 -7.08259 -2.72856 0
M  V30 74181 O 2981.67 -5.9427 -1.83651 0
M  V30 74182 C 2980.48 -7.64886 -2.9555 0
M  V30 74183 O 2980.09 -8.53963 -1.90717 0
M  V30 74184 C 2979.6 -6.4116 -2.90739 0
M  V30 74185 C 2980.31 -5.55375 -1.86963 0
M  V30 74186 N 2980.26 -4.09664 -2.15742 0
M  V30 74187 H 2983.1 -7.45574 -4.45629 0
M  V30 74188 H 2983.37 -5.86232 -3.67314 0
M  V30 74189 H 2982.51 -7.84412 -2.24479 0
M  V30 74190 P 2978.54 -8.7635 -1.60911 0
M  V30 74191 O 2978.32 -10.1388 -1.11561 0
M  V30 74192 O 2977.75 -8.36503 -2.79617 0
M  V30 74193 O 2978.29 -7.71806 -0.42951 0
M  V30 74194 C 2979.23 -7.67148 0.673689 0
M  V30 74195 C 2978.5 -7.33374 1.95559 0
M  V30 74196 O 2978.29 -5.88721 2.00726 0
M  V30 74197 C 2977.1 -7.92526 2.10483 0
M  V30 74198 O 2976.71 -8.02971 3.47653 0
M  V30 74199 C 2976.22 -6.89602 1.41652 0
M  V30 74200 C 2976.93 -5.59201 1.75185 0
M  V30 74201 N 2976.88 -4.58301 0.657969 0
M  V30 74202 H 2979.72 -8.65116 0.777161 0
M  V30 74203 H 2979.99 -6.9022 0.46725 0
M  V30 74204 H 2979.13 -7.66548 2.79458 0
M  V30 74205 H 2976.47 -5.16165 2.65183 0
M  V30 74206 H 2976.19 -7.06433 0.329384 0
M  V30 74207 H 2975.2 -6.90926 1.82021 0
M  V30 74208 H 2977.03 -8.90873 1.62657 0
M  V30 74209 P 2975.16 -8.03563 3.84925 0
M  V30 74210 O 2974.94 -8.85821 5.0569 0
M  V30 74211 O 2974.37 -8.41101 2.65469 0
M  V30 74212 O 2974.91 -6.4965 4.18908 0
M  V30 74213 C 2975.85 -5.81037 5.05421 0
M  V30 74214 C 2975.12 -4.78366 5.89277 0
M  V30 74215 O 2974.91 -3.58302 5.08433 0
M  V30 74216 C 2973.72 -5.17448 6.36119 0
M  V30 74217 O 2973.33 -4.45271 7.53232 0
M  V30 74218 C 2972.84 -4.74639 5.19936 0
M  V30 74219 C 2973.55 -3.49432 4.70418 0
M  V30 74220 N 2973.5 -3.32099 3.22613 0
M  V30 74221 C 2973.58 -4.28245 2.25527 0
M  V30 74222 N 2973.51 -3.80823 1.04874 0
M  V30 74223 C 2973.36 -2.44571 1.23535 0
M  V30 74224 C 2973.23 -1.37068 0.330675 0
M  V30 74225 N 2973.22 -1.51472 -0.990824 0
M  V30 74226 N 2973.11 -0.138614 0.848756 0
M  V30 74227 C 2973.12 0.00675923 2.16999 0
M  V30 74228 N 2973.24 -0.904372 3.11122 0
M  V30 74229 C 2973.36 -2.12707 2.56212 0
M  V30 74230 H 2976.34 -6.54213 5.71376 0
M  V30 74231 H 2976.61 -5.30936 4.43503 0
M  V30 74232 H 2975.75 -4.55889 6.76652 0
M  V30 74233 H 2973.09 -2.61715 5.17932 0
M  V30 74234 H 2972.81 -5.52155 4.41878 0
M  V30 74235 H 2971.82 -4.51981 5.53374 0
M  V30 74236 H 2973.65 -6.25124 6.55234 0
M  V30 74237 H 2973.69 -5.34372 2.47488 0
M  V30 74238 H 2973.31 -2.45153 -1.4078 0
M  V30 74239 H 2973.12 -0.688422 -1.59911 0
M  V30 74240 H 2973.02 1.02584 2.52346 0
M  V30 74241 P 2971.78 -4.23843 7.83734 0
M  V30 74242 O 2971.56 -4.19407 9.29784 0
M  V30 74243 O 2970.99 -5.24426 7.09156 0
M  V30 74244 O 2971.53 -2.7935 7.20758 0
M  V30 74245 C 2972.47 -1.7299 7.50419 0
M  V30 74246 C 2971.74 -0.406376 7.57911 0
M  V30 74247 O 2971.53 0.0897726 6.21935 0
M  V30 74248 C 2970.34 -0.447224 8.1878 0
M  V30 74249 O 2969.95 0.825065 8.71101 0
M  V30 74250 C 2969.46 -0.783801 6.99623 0
M  V30 74251 C 2970.17 -0.0619192 5.85967 0
M  V30 74252 N 2970.12 -0.790462 4.56202 0
M  V30 74253 H 2972.96 -1.93423 8.4679 0
M  V30 74254 H 2973.23 -1.68852 6.70877 0
M  V30 74255 H 2972.37 0.289041 8.15388 0
M  V30 74256 H 2969.71 0.927006 5.72848 0
M  V30 74257 H 2969.43 -1.86973 6.82036 0
M  V30 74258 H 2968.44 -0.403953 7.13357 0
M  V30 74259 H 2970.27 -1.20599 8.97534 0
M  V30 74260 P 2968.4 1.17771 8.83182 0
M  V30 74261 O 2968.18 2.07206 9.98732 0
M  V30 74262 O 2967.61 -0.0743816 8.81969 0
M  V30 74263 O 2968.15 1.97652 7.47304 0
M  V30 74264 C 2969.09 3.01133 7.08783 0
M  V30 74265 C 2968.36 4.12613 6.37049 0
M  V30 74266 O 2968.15 3.72827 4.97879 0
M  V30 74267 C 2966.96 4.45085 6.88694 0
M  V30 74268 O 2966.57 5.7877 6.5624 0
M  V30 74269 C 2966.08 3.47817 6.12078 0
M  V30 74270 C 2966.79 3.39414 4.77697 0
M  V30 74271 N 2966.74 2.04615 4.15333 0
M  V30 74272 H 2969.58 3.41248 7.98759 0
M  V30 74273 H 2969.85 2.5837 6.41742 0
M  V30 74274 H 2968.99 5.02657 6.42673 0
M  V30 74275 P 2965.02 6.144 6.45285 0
M  V30 74276 O 2964.8 7.54673 6.86199 0
M  V30 74277 O 2964.23 5.12391 7.179 0
M  V30 74278 O 2964.77 5.99158 4.88404 0
M  V30 74279 C 2965.71 6.60062 3.96313 0
M  V30 74280 C 2964.98 7.08259 2.72856 0
M  V30 74281 O 2964.77 5.9427 1.83651 0
M  V30 74282 C 2963.58 7.65087 2.94749 0
M  V30 74283 O 2963.19 8.53963 1.90717 0
M  V30 74284 C 2962.7 6.41069 2.90698 0
M  V30 74285 C 2963.41 5.5528 1.86931 0
M  V30 74286 N 2963.36 4.09575 2.15696 0
M  V30 74287 C 2963.21 3.24249 1.08435 0
M  V30 74288 O 2963.12 3.63946 -0.0628747 0
M  V30 74289 N 2963.17 1.90009 1.39973 0
M  V30 74290 C 2963.26 1.34884 2.65614 0
M  V30 74291 O 2963.21 0.123716 2.81728 0
M  V30 74292 C 2963.41 2.3145 3.71736 0
M  V30 74293 C 2963.52 1.75913 5.10438 0
M  V30 74294 C 2963.46 3.63518 3.44754 0
M  V30 74295 H 2966.2 7.45402 4.45526 0
M  V30 74296 H 2966.47 5.86062 3.67208 0
M  V30 74297 H 2965.61 7.84412 2.24479 0
M  V30 74298 H 2962.95 5.73358 0.888409 0
M  V30 74299 H 2962.67 5.90877 3.88583 0
M  V30 74300 H 2961.68 6.65867 2.58821 0
M  V30 74301 H 2963.51 8.16248 3.92006 0
M  V30 74302 H 2963.58 4.34551 4.26383 0
M  V30 74303 H 2962.55 1.85471 5.61775 0
M  V30 74304 H 2964.29 2.31364 5.66257 0
M  V30 74305 H 2963.8 0.695936 5.05229 0
M  V30 74306 H 2963.07 1.26277 0.63625 0
M  V30 74307 P 2961.64 8.7635 1.60911 0
M  V30 74308 O 2961.42 10.1388 1.11561 0
M  V30 74309 O 2960.85 8.36503 2.79617 0
M  V30 74310 O 2961.39 7.71806 0.42951 0
M  V30 74311 C 2962.33 7.66948 -0.673514 0
M  V30 74312 C 2961.6 7.33374 -1.95559 0
M  V30 74313 O 2961.39 5.88721 -2.00726 0
M  V30 74314 C 2960.2 7.92218 -2.1125 0
M  V30 74315 O 2959.81 8.02971 -3.47653 0
M  V30 74316 C 2959.32 6.89504 -1.41631 0
M  V30 74317 C 2960.03 5.59106 -1.75155 0
M  V30 74318 N 2959.98 4.58136 -0.662409 0
M  V30 74319 C 2959.83 3.26059 -1.02863 0
M  V30 74320 O 2959.74 2.90743 -2.19009 0
M  V30 74321 N 2959.79 2.35995 0.0155585 0
M  V30 74322 C 2959.88 2.65248 1.35603 0
M  V30 74323 O 2959.83 1.75605 2.20651 0
M  V30 74324 C 2960.03 4.05747 1.64698 0
M  V30 74325 C 2960.14 4.42345 3.09553 0
M  V30 74326 C 2960.08 4.96734 0.652411 0
M  V30 74327 H 2962.82 8.64917 -0.776982 0
M  V30 74328 H 2963.09 6.89974 -0.474015 0
M  V30 74329 H 2962.23 7.66548 -2.79458 0
M  V30 74330 H 2959.57 5.16076 -2.65138 0
M  V30 74331 H 2959.29 7.06433 -0.329384 0
M  V30 74332 H 2958.3 6.90829 -1.81996 0
M  V30 74333 H 2960.13 8.90774 -1.62639 0
M  V30 74334 H 2960.2 6.02181 0.895285 0
M  V30 74335 H 2959.17 4.80252 3.45468 0
M  V30 74336 H 2960.91 5.20015 3.22119 0
M  V30 74337 H 2960.42 3.53269 3.67833 0
M  V30 74338 H 2959.69 1.39558 -0.227499 0
M  V30 74339 P 2958.26 8.03563 -3.84925 0
M  V30 74340 O 2958.04 8.85821 -5.0569 0
M  V30 74341 O 2957.47 8.41101 -2.65469 0
M  V30 74342 O 2958.01 6.4965 -4.18908 0
M  V30 74343 C 2958.95 5.81037 -5.05421 0
M  V30 74344 C 2958.22 4.78366 -5.89277 0
M  V30 74345 O 2958.01 3.58302 -5.08433 0
M  V30 74346 C 2956.82 5.17448 -6.36119 0
M  V30 74347 O 2956.43 4.45271 -7.53232 0
M  V30 74348 C 2955.94 4.74639 -5.19936 0
M  V30 74349 C 2956.65 3.49432 -4.70418 0
M  V30 74350 N 2956.6 3.31776 -3.22945 0
M  V30 74351 H 2959.44 6.54213 -5.71376 0
M  V30 74352 H 2959.71 5.30492 -4.44033 0
M  V30 74353 H 2958.85 4.55889 -6.76652 0
M  V30 74354 P 2954.88 4.23843 -7.83734 0
M  V30 74355 O 2954.66 4.19407 -9.29784 0
M  V30 74356 O 2954.09 5.24426 -7.09156 0
M  V30 74357 O 2954.63 2.7935 -7.20758 0
M  V30 74358 C 2955.57 1.7299 -7.50419 0
M  V30 74359 C 2954.84 0.406376 -7.57911 0
M  V30 74360 O 2954.63 -0.0897726 -6.21935 0
M  V30 74361 C 2953.44 0.447224 -8.1878 0
M  V30 74362 O 2953.05 -0.825065 -8.71101 0
M  V30 74363 C 2952.56 0.783801 -6.99623 0
M  V30 74364 C 2953.27 0.0619192 -5.85967 0
M  V30 74365 N 2953.22 0.7859 -4.56281 0
M  V30 74366 H 2956.06 1.93423 -8.4679 0
M  V30 74367 H 2956.33 1.68181 -6.71046 0
M  V30 74368 H 2955.47 -0.289041 -8.15388 0
M  V30 74369 P 2951.5 -1.17771 -8.83182 0
M  V30 74370 O 2951.28 -2.07206 -9.98732 0
M  V30 74371 O 2950.71 0.0743816 -8.81969 0
M  V30 74372 O 2951.25 -1.97652 -7.47304 0
M  V30 74373 C 2952.19 -3.01133 -7.08783 0
M  V30 74374 C 2951.46 -4.12613 -6.37049 0
M  V30 74375 O 2951.25 -3.72827 -4.97879 0
M  V30 74376 C 2950.06 -4.45085 -6.88694 0
M  V30 74377 O 2949.67 -5.7877 -6.5624 0
M  V30 74378 C 2949.18 -3.47817 -6.12078 0
M  V30 74379 C 2949.89 -3.39414 -4.77697 0
M  V30 74380 N 2949.84 -2.04199 -4.15538 0
M  V30 74381 C 2949.92 -0.821545 -4.76977 0
M  V30 74382 N 2949.85 0.1794 -3.94592 0
M  V30 74383 C 2949.7 -0.419121 -2.70776 0
M  V30 74384 C 2949.57 0.109072 -1.40577 0
M  V30 74385 N 2949.56 1.4104 -1.1344 0
M  V30 74386 N 2949.45 -0.764381 -0.39411 0
M  V30 74387 C 2949.46 -2.06587 -0.664135 0
M  V30 74388 N 2949.58 -2.67948 -1.82153 0
M  V30 74389 C 2949.7 -1.77942 -2.8147 0
M  V30 74390 H 2952.68 -3.41248 -7.98759 0
M  V30 74391 H 2952.95 -2.57728 -6.42 0
M  V30 74392 H 2952.09 -5.02657 -6.42673 0
M  V30 74393 H 2949.43 -4.11708 -4.08956 0
M  V30 74394 H 2949.15 -2.49626 -6.61679 0
M  V30 74395 H 2948.16 -3.8662 -6.00862 0
M  V30 74396 H 2949.99 -4.29991 -7.97006 0
M  V30 74397 H 2950.03 -0.702451 -5.84696 0
M  V30 74398 H 2949.65 2.09647 -1.89651 0
M  V30 74399 H 2949.46 1.73358 -0.160575 0
M  V30 74400 H 2949.36 -2.71695 0.195838 0
M  V30 74401 P 2948.12 -6.144 -6.45285 0
M  V30 74402 O 2947.9 -7.54673 -6.86199 0
M  V30 74403 O 2947.33 -5.12391 -7.179 0
M  V30 74404 O 2947.87 -5.99158 -4.88404 0
M  V30 74405 C 2948.81 -6.60234 -3.96415 0
M  V30 74406 C 2948.08 -7.08259 -2.72856 0
M  V30 74407 O 2947.87 -5.9427 -1.83651 0
M  V30 74408 C 2946.68 -7.64886 -2.9555 0
M  V30 74409 O 2946.29 -8.53963 -1.90717 0
M  V30 74410 C 2945.8 -6.4116 -2.90739 0
M  V30 74411 C 2946.51 -5.55375 -1.86963 0
M  V30 74412 N 2946.46 -4.09664 -2.15742 0
M  V30 74413 H 2949.3 -7.45574 -4.45629 0
M  V30 74414 H 2949.57 -5.86232 -3.67314 0
M  V30 74415 H 2948.71 -7.84412 -2.24479 0
M  V30 74416 P 2944.74 -8.7635 -1.60911 0
M  V30 74417 O 2944.52 -10.1388 -1.11561 0
M  V30 74418 O 2943.95 -8.36503 -2.79617 0
M  V30 74419 O 2944.49 -7.71806 -0.42951 0
M  V30 74420 C 2945.43 -7.67148 0.673689 0
M  V30 74421 C 2944.7 -7.33374 1.95559 0
M  V30 74422 O 2944.49 -5.88721 2.00726 0
M  V30 74423 C 2943.3 -7.92526 2.10483 0
M  V30 74424 O 2942.91 -8.02971 3.47653 0
M  V30 74425 C 2942.42 -6.89602 1.41652 0
M  V30 74426 C 2943.13 -5.59201 1.75185 0
M  V30 74427 N 2943.08 -4.58301 0.657969 0
M  V30 74428 C 2943.16 -4.79019 -0.692603 0
M  V30 74429 N 2943.09 -3.69736 -1.38998 0
M  V30 74430 C 2942.94 -2.70474 -0.438135 0
M  V30 74431 C 2942.81 -1.30327 -0.538142 0
M  V30 74432 N 2942.8 -0.64304 -1.69192 0
M  V30 74433 N 2942.69 -0.611027 0.605183 0
M  V30 74434 C 2942.7 -1.27002 1.75953 0
M  V30 74435 N 2942.82 -2.56038 1.98546 0
M  V30 74436 C 2942.94 -3.22681 0.822541 0
M  V30 74437 H 2945.92 -8.65116 0.777161 0
M  V30 74438 H 2946.19 -6.9022 0.46725 0
M  V30 74439 H 2945.33 -7.66548 2.79458 0
M  V30 74440 H 2942.67 -5.16165 2.65183 0
M  V30 74441 H 2942.39 -7.06433 0.329384 0
M  V30 74442 H 2941.4 -6.90926 1.82021 0
M  V30 74443 H 2943.23 -8.90873 1.62657 0
M  V30 74444 H 2943.27 -5.77785 -1.13874 0
M  V30 74445 H 2942.89 -1.15585 -2.57991 0
M  V30 74446 H 2942.7 0.382989 -1.69835 0
M  V30 74447 H 2942.6 -0.653331 2.64449 0
M  V30 74448 P 2941.36 -8.03563 3.84925 0
M  V30 74449 O 2941.14 -8.85821 5.0569 0
M  V30 74450 O 2940.57 -8.41101 2.65469 0
M  V30 74451 O 2941.11 -6.4965 4.18908 0
M  V30 74452 C 2942.05 -5.81037 5.05421 0
M  V30 74453 C 2941.32 -4.78366 5.89277 0
M  V30 74454 O 2941.11 -3.58302 5.08433 0
M  V30 74455 C 2939.92 -5.17448 6.36119 0
M  V30 74456 O 2939.53 -4.45271 7.53232 0
M  V30 74457 C 2939.04 -4.74639 5.19936 0
M  V30 74458 C 2939.75 -3.49432 4.70418 0
M  V30 74459 N 2939.7 -3.32099 3.22613 0
M  V30 74460 C 2939.78 -4.28245 2.25527 0
M  V30 74461 N 2939.71 -3.80823 1.04874 0
M  V30 74462 C 2939.56 -2.44571 1.23535 0
M  V30 74463 C 2939.43 -1.37068 0.330675 0
M  V30 74464 N 2939.42 -1.51472 -0.990824 0
M  V30 74465 N 2939.31 -0.138614 0.848756 0
M  V30 74466 C 2939.32 0.00675923 2.16999 0
M  V30 74467 N 2939.44 -0.904372 3.11122 0
M  V30 74468 C 2939.56 -2.12707 2.56212 0
M  V30 74469 H 2942.54 -6.54213 5.71376 0
M  V30 74470 H 2942.81 -5.30936 4.43503 0
M  V30 74471 H 2941.95 -4.55889 6.76652 0
M  V30 74472 H 2939.29 -2.61715 5.17932 0
M  V30 74473 H 2939.01 -5.52155 4.41878 0
M  V30 74474 H 2938.02 -4.51981 5.53374 0
M  V30 74475 H 2939.85 -6.25124 6.55234 0
M  V30 74476 H 2939.89 -5.34372 2.47488 0
M  V30 74477 H 2939.51 -2.45153 -1.4078 0
M  V30 74478 H 2939.32 -0.688422 -1.59911 0
M  V30 74479 H 2939.22 1.02584 2.52346 0
M  V30 74480 P 2937.98 -4.23843 7.83734 0
M  V30 74481 O 2937.76 -4.19407 9.29784 0
M  V30 74482 O 2937.19 -5.24426 7.09156 0
M  V30 74483 O 2937.73 -2.7935 7.20758 0
M  V30 74484 C 2938.67 -1.7299 7.50419 0
M  V30 74485 C 2937.94 -0.406376 7.57911 0
M  V30 74486 O 2937.73 0.0897726 6.21935 0
M  V30 74487 C 2936.54 -0.447224 8.1878 0
M  V30 74488 O 2936.15 0.825065 8.71101 0
M  V30 74489 C 2935.66 -0.783801 6.99623 0
M  V30 74490 C 2936.37 -0.0619192 5.85967 0
M  V30 74491 N 2936.32 -0.790462 4.56202 0
M  V30 74492 H 2939.16 -1.93423 8.4679 0
M  V30 74493 H 2939.43 -1.68852 6.70877 0
M  V30 74494 H 2938.57 0.289041 8.15388 0
M  V30 74495 H 2935.91 0.927006 5.72848 0
M  V30 74496 H 2935.63 -1.86973 6.82036 0
M  V30 74497 H 2934.64 -0.403953 7.13357 0
M  V30 74498 H 2936.47 -1.20599 8.97534 0
M  V30 74499 P 2934.6 1.17771 8.83182 0
M  V30 74500 O 2934.38 2.07206 9.98732 0
M  V30 74501 O 2933.81 -0.0743816 8.81969 0
M  V30 74502 O 2934.35 1.97678 7.474 0
M  V30 74503 C 2935.29 3.01133 7.08783 0
M  V30 74504 C 2934.56 4.1203 6.37546 0
M  V30 74505 O 2934.35 3.72887 4.9796 0
M  V30 74506 C 2933.16 4.45085 6.88694 0
M  V30 74507 O 2932.77 5.78836 6.56315 0
M  V30 74508 C 2932.28 3.47817 6.12078 0
M  V30 74509 C 2932.99 3.39414 4.77697 0
M  V30 74510 N 2932.94 2.04615 4.15333 0
M  V30 74511 C 2932.79 1.96929 2.77162 0
M  V30 74512 O 2932.7 3.02017 2.12006 0
M  V30 74513 N 2932.74 0.55485 2.24237 0
M  V30 74514 C 2932.84 -0.367808 2.9169 0
M  V30 74515 N 2932.79 -1.53426 2.29427 0
M  V30 74516 C 2932.99 -0.319148 4.33828 0
M  V30 74517 C 2933.04 0.920672 4.90433 0
M  V30 74518 H 2935.78 3.41209 7.98667 0
M  V30 74519 H 2936.05 2.5837 6.41742 0
M  V30 74520 H 2935.19 5.02718 6.42752 0
M  V30 74521 H 2932.53 4.11779 4.09026 0
M  V30 74522 H 2932.25 2.49661 6.61772 0
M  V30 74523 H 2931.26 3.86674 6.00946 0
M  V30 74524 H 2933.09 4.29991 7.97006 0
M  V30 74525 H 2933.17 1.00589 5.98303 0
M  V30 74526 H 2933.06 -1.22639 4.93799 0
M  V30 74527 H 2932.68 -1.56819 1.27167 0
M  V30 74528 H 2932.87 -2.41062 2.83063 0
M  V30 74529 P 2931.22 6.144 6.45285 0
M  V30 74530 O 2931 7.54673 6.86199 0
M  V30 74531 O 2930.43 5.12391 7.179 0
M  V30 74532 O 2930.97 5.99158 4.88404 0
M  V30 74533 C 2931.91 6.60234 3.96415 0
M  V30 74534 C 2931.18 7.08259 2.72856 0
M  V30 74535 O 2930.97 5.9427 1.83651 0
M  V30 74536 C 2929.78 7.64886 2.9555 0
M  V30 74537 O 2929.39 8.53963 1.90717 0
M  V30 74538 C 2928.9 6.4116 2.90739 0
M  V30 74539 C 2929.61 5.55375 1.86963 0
M  V30 74540 N 2929.56 4.09448 2.16152 0
M  V30 74541 C 2929.64 3.46824 3.37593 0
M  V30 74542 N 2929.57 2.17422 3.29777 0
M  V30 74543 C 2929.42 1.93065 1.94427 0
M  V30 74544 C 2929.29 0.738053 1.20141 0
M  V30 74545 N 2929.28 -0.474256 1.74676 0
M  V30 74546 N 2929.17 0.850049 -0.13045 0
M  V30 74547 C 2929.18 2.06169 -0.676992 0
M  V30 74548 N 2929.3 3.23842 -0.101312 0
M  V30 74549 C 2929.42 3.09402 1.23122 0
M  V30 74550 H 2932.4 7.45574 4.45629 0
M  V30 74551 H 2932.67 5.85864 3.679 0
M  V30 74552 H 2931.81 7.84412 2.24479 0
M  V30 74553 H 2929.15 5.73457 0.888562 0
M  V30 74554 H 2928.87 5.90877 3.88583 0
M  V30 74555 H 2927.88 6.6596 2.58858 0
M  V30 74556 H 2929.71 8.16339 3.92049 0
M  V30 74557 H 2929.75 4.00505 4.3174 0
M  V30 74558 H 2929.37 -0.581337 2.76658 0
M  V30 74559 H 2929.18 -1.30811 1.14888 0
M  V30 74560 H 2929.08 2.08295 -1.75542 0
M  V30 74561 P 2927.84 8.7635 1.60911 0
M  V30 74562 O 2927.62 10.1388 1.11561 0
M  V30 74563 O 2927.05 8.36503 2.79617 0
M  V30 74564 O 2927.59 7.71806 0.42951 0
M  V30 74565 C 2928.53 7.67148 -0.673689 0
M  V30 74566 C 2927.8 7.33374 -1.95559 0
M  V30 74567 O 2927.59 5.88721 -2.00726 0
M  V30 74568 C 2926.4 7.92526 -2.10483 0
M  V30 74569 O 2926.01 8.02971 -3.47653 0
M  V30 74570 C 2925.52 6.89602 -1.41652 0
M  V30 74571 C 2926.23 5.59201 -1.75185 0
M  V30 74572 N 2926.18 4.58301 -0.657969 0
M  V30 74573 H 2929.02 8.65116 -0.777161 0
M  V30 74574 H 2929.29 6.9022 -0.46725 0
M  V30 74575 H 2928.43 7.66548 -2.79458 0
M  V30 74576 H 2925.77 5.16165 -2.65183 0
M  V30 74577 H 2925.49 7.06433 -0.329384 0
M  V30 74578 H 2924.5 6.90926 -1.82021 0
M  V30 74579 H 2926.33 8.90873 -1.62657 0
M  V30 74580 P 2924.46 8.03563 -3.84925 0
M  V30 74581 O 2924.24 8.85821 -5.0569 0
M  V30 74582 O 2923.67 8.41101 -2.65469 0
M  V30 74583 O 2924.21 6.4965 -4.18908 0
M  V30 74584 C 2925.15 5.81037 -5.05421 0
M  V30 74585 C 2924.42 4.78366 -5.89277 0
M  V30 74586 O 2924.21 3.58302 -5.08433 0
M  V30 74587 C 2923.02 5.17448 -6.36119 0
M  V30 74588 O 2922.63 4.45271 -7.53232 0
M  V30 74589 C 2922.14 4.74639 -5.19936 0
M  V30 74590 C 2922.85 3.49432 -4.70418 0
M  V30 74591 N 2922.8 3.31776 -3.22945 0
M  V30 74592 H 2925.64 6.54213 -5.71376 0
M  V30 74593 H 2925.91 5.30492 -4.44033 0
M  V30 74594 H 2925.05 4.55889 -6.76652 0
M  V30 74595 P 2921.08 4.23843 -7.83734 0
M  V30 74596 O 2920.86 4.19407 -9.29784 0
M  V30 74597 O 2920.29 5.24426 -7.09156 0
M  V30 74598 O 2920.83 2.79386 -7.20852 0
M  V30 74599 C 2921.77 1.7299 -7.50419 0
M  V30 74600 C 2921.04 0.41401 -7.5797 0
M  V30 74601 O 2920.83 -0.089787 -6.22035 0
M  V30 74602 C 2919.64 0.447224 -8.1878 0
M  V30 74603 O 2919.25 -0.825159 -8.71201 0
M  V30 74604 C 2918.76 0.783801 -6.99623 0
M  V30 74605 C 2919.47 0.0619192 -5.85967 0
M  V30 74606 N 2919.42 0.7859 -4.56281 0
M  V30 74607 C 2919.27 0.0359258 -3.39981 0
M  V30 74608 O 2919.18 -1.19723 -3.49038 0
M  V30 74609 N 2919.22 0.869151 -2.14025 0
M  V30 74610 C 2919.32 2.01207 -2.14363 0
M  V30 74611 N 2919.27 2.58978 -0.954287 0
M  V30 74612 C 2919.47 2.80817 -3.32215 0
M  V30 74613 C 2919.52 2.13785 -4.50884 0
M  V30 74614 H 2922.26 1.93401 -8.46693 0
M  V30 74615 H 2922.53 1.68181 -6.71046 0
M  V30 74616 H 2921.67 -0.289076 -8.15488 0
M  V30 74617 H 2919.01 -0.927166 -5.72947 0
M  V30 74618 H 2918.73 1.87 -6.82132 0
M  V30 74619 H 2917.74 0.404009 -7.13457 0
M  V30 74620 H 2919.57 1.20599 -8.97534 0
M  V30 74621 H 2919.65 2.70295 -5.43162 0
M  V30 74622 H 2919.54 3.89465 -3.27406 0
M  V30 74623 H 2919.16 2.01616 -0.107046 0
M  V30 74624 H 2919.35 3.61403 -0.873101 0
M  V30 74625 P 2917.7 -1.17771 -8.83182 0
M  V30 74626 O 2917.48 -2.07206 -9.98732 0
M  V30 74627 O 2916.91 0.0743816 -8.81969 0
M  V30 74628 O 2917.45 -1.97652 -7.47304 0
M  V30 74629 C 2918.39 -3.01055 -7.08599 0
M  V30 74630 C 2917.66 -4.12613 -6.37049 0
M  V30 74631 O 2917.45 -3.72827 -4.97879 0
M  V30 74632 C 2916.26 -4.45719 -6.88164 0
M  V30 74633 O 2915.87 -5.7877 -6.5624 0
M  V30 74634 C 2915.38 -3.47768 -6.11991 0
M  V30 74635 C 2916.09 -3.39356 -4.77615 0
M  V30 74636 N 2916.04 -2.04571 -4.15244 0
M  V30 74637 C 2915.89 -1.98587 -2.78314 0
M  V30 74638 O 2915.8 -2.98134 -2.08835 0
M  V30 74639 N 2915.85 -0.714467 -2.24925 0
M  V30 74640 C 2915.94 0.470001 -2.94169 0
M  V30 74641 C 2916.09 0.312541 -4.36783 0
M  V30 74642 C 2916.14 -0.914512 -4.92583 0
M  V30 74643 H 2918.88 -3.41169 -7.98575 0
M  V30 74644 H 2919.15 -2.58295 -6.41556 0
M  V30 74645 H 2918.29 -5.02657 -6.42673 0
M  V30 74646 H 2915.63 -4.11637 -4.08885 0
M  V30 74647 H 2915.35 -2.49626 -6.61679 0
M  V30 74648 H 2914.36 -3.86566 -6.00778 0
M  V30 74649 H 2916.19 -4.29943 -7.96918 0
M  V30 74650 H 2916.26 -1.00937 -6.00374 0
M  V30 74651 P 2914.32 -6.144 -6.45285 0
M  V30 74652 O 2914.1 -7.54673 -6.86199 0
M  V30 74653 O 2913.53 -5.12391 -7.179 0
M  V30 74654 O 2914.07 -5.99158 -4.88404 0
M  V30 74655 C 2915.01 -6.60234 -3.96415 0
M  V30 74656 C 2914.28 -7.08259 -2.72856 0
M  V30 74657 O 2914.07 -5.9427 -1.83651 0
M  V30 74658 C 2912.88 -7.64886 -2.9555 0
M  V30 74659 O 2912.49 -8.53963 -1.90717 0
M  V30 74660 C 2912 -6.4116 -2.90739 0
M  V30 74661 C 2912.71 -5.55375 -1.86963 0
M  V30 74662 N 2912.66 -4.09664 -2.15742 0
M  V30 74663 H 2915.5 -7.45574 -4.45629 0
M  V30 74664 H 2915.77 -5.86232 -3.67314 0
M  V30 74665 H 2914.91 -7.84412 -2.24479 0
M  V30 74666 P 2910.94 -8.7635 -1.60911 0
M  V30 74667 O 2910.72 -10.1388 -1.11561 0
M  V30 74668 O 2910.15 -8.36503 -2.79617 0
M  V30 74669 O 2910.69 -7.71806 -0.42951 0
M  V30 74670 C 2911.63 -7.67148 0.673689 0
M  V30 74671 C 2910.9 -7.33374 1.95559 0
M  V30 74672 O 2910.69 -5.88721 2.00726 0
M  V30 74673 C 2909.5 -7.92526 2.10483 0
M  V30 74674 O 2909.11 -8.02971 3.47653 0
M  V30 74675 C 2908.62 -6.89602 1.41652 0
M  V30 74676 C 2909.33 -5.59201 1.75185 0
M  V30 74677 N 2909.28 -4.58235 0.662552 0
M  V30 74678 H 2912.12 -8.65116 0.777161 0
M  V30 74679 H 2912.39 -6.90173 0.474152 0
M  V30 74680 H 2911.53 -7.66548 2.79458 0
M  V30 74681 P 2907.56 -8.03563 3.84925 0
M  V30 74682 O 2907.34 -8.85821 5.0569 0
M  V30 74683 O 2906.77 -8.41101 2.65469 0
M  V30 74684 O 2907.31 -6.4965 4.18908 0
M  V30 74685 C 2908.25 -5.80886 5.05289 0
M  V30 74686 C 2907.52 -4.78366 5.89277 0
M  V30 74687 O 2907.31 -3.58302 5.08433 0
M  V30 74688 C 2906.12 -5.16748 6.36559 0
M  V30 74689 O 2905.73 -4.45271 7.53232 0
M  V30 74690 C 2905.24 -4.74572 5.19863 0
M  V30 74691 C 2905.95 -3.49373 4.70338 0
M  V30 74692 N 2905.9 -3.31704 3.22876 0
M  V30 74693 C 2905.75 -2.03326 2.74871 0
M  V30 74694 O 2905.66 -1.06486 3.48076 0
M  V30 74695 N 2905.71 -1.91838 1.37456 0
M  V30 74696 C 2905.8 -2.94295 0.462035 0
M  V30 74697 O 2905.75 -2.71763 -0.752928 0
M  V30 74698 C 2905.95 -4.25064 1.05249 0
M  V30 74699 C 2906.06 -5.39815 0.095697 0
M  V30 74700 C 2906 -4.40214 2.39192 0
M  V30 74701 H 2908.74 -6.54063 5.71245 0
M  V30 74702 H 2909.01 -5.30339 4.43905 0
M  V30 74703 H 2908.15 -4.55889 6.76652 0
M  V30 74704 H 2905.49 -2.6167 5.17842 0
M  V30 74705 H 2905.21 -5.52155 4.41878 0
M  V30 74706 H 2904.22 -4.51918 5.53297 0
M  V30 74707 H 2906.05 -6.25055 6.55162 0
M  V30 74708 H 2906.12 -5.39798 2.81523 0
M  V30 74709 H 2905.09 -5.91593 0.0279582 0
M  V30 74710 H 2906.83 -6.10038 0.450573 0
M  V30 74711 H 2906.34 -5.02007 -0.89937 0
M  V30 74712 H 2905.61 -0.995326 1.00435 0
M  V30 74713 P 2904.18 -4.23843 7.83734 0
M  V30 74714 O 2903.96 -4.19407 9.29784 0
M  V30 74715 O 2903.39 -5.24426 7.09156 0
M  V30 74716 O 2903.93 -2.7935 7.20758 0
M  V30 74717 C 2904.87 -1.7299 7.50419 0
M  V30 74718 C 2904.14 -0.406376 7.57911 0
M  V30 74719 O 2903.93 0.0897726 6.21935 0
M  V30 74720 C 2902.74 -0.447224 8.1878 0
M  V30 74721 O 2902.35 0.825065 8.71101 0
M  V30 74722 C 2901.86 -0.783801 6.99623 0
M  V30 74723 C 2902.57 -0.0619192 5.85967 0
M  V30 74724 N 2902.52 -0.790462 4.56202 0
M  V30 74725 C 2902.6 -2.13895 4.34171 0
M  V30 74726 N 2902.53 -2.46449 3.08687 0
M  V30 74727 C 2902.38 -1.2525 2.43697 0
M  V30 74728 C 2902.25 -0.914535 1.07318 0
M  V30 74729 N 2902.24 -1.80782 0.0887348 0
M  V30 74730 N 2902.13 0.386745 0.768133 0
M  V30 74731 C 2902.14 1.28096 1.75159 0
M  V30 74732 N 2902.26 1.09708 3.04861 0
M  V30 74733 C 2902.38 -0.214857 3.32306 0
M  V30 74734 H 2905.36 -1.93423 8.4679 0
M  V30 74735 H 2905.63 -1.68852 6.70877 0
M  V30 74736 H 2904.77 0.289041 8.15388 0
M  V30 74737 H 2902.11 0.927006 5.72848 0
M  V30 74738 H 2901.83 -1.86973 6.82036 0
M  V30 74739 H 2900.84 -0.403953 7.13357 0
M  V30 74740 H 2902.67 -1.20599 8.97534 0
M  V30 74741 H 2902.71 -2.86846 5.14318 0
M  V30 74742 H 2902.33 -2.81082 0.302037 0
M  V30 74743 H 2902.14 -1.49688 -0.889064 0
M  V30 74744 H 2902.04 2.31317 1.43855 0
M  V30 74745 P 2900.8 1.17771 8.83182 0
M  V30 74746 O 2900.58 2.07206 9.98732 0
M  V30 74747 O 2900.01 -0.0743816 8.81969 0
M  V30 74748 O 2900.55 1.97652 7.47304 0
M  V30 74749 C 2901.49 3.01133 7.08783 0
M  V30 74750 C 2900.76 4.12613 6.37049 0
M  V30 74751 O 2900.55 3.72827 4.97879 0
M  V30 74752 C 2899.36 4.45085 6.88694 0
M  V30 74753 O 2898.97 5.7877 6.5624 0
M  V30 74754 C 2898.48 3.47817 6.12078 0
M  V30 74755 C 2899.19 3.39414 4.77697 0
M  V30 74756 N 2899.14 2.04615 4.15333 0
M  V30 74757 C 2899.22 0.803897 4.75249 0
M  V30 74758 N 2899.14 -0.197615 3.91502 0
M  V30 74759 C 2899 0.413002 2.66823 0
M  V30 74760 C 2898.87 -0.157221 1.38007 0
M  V30 74761 N 2898.75 0.833136 0.390236 0
M  V30 74762 C 2898.75 2.19402 0.623885 0
M  V30 74763 N 2898.62 2.97622 -0.449677 0
M  V30 74764 N 2898.88 2.73005 1.83601 0
M  V30 74765 C 2899 1.78786 2.80935 0
M  V30 74766 H 2901.98 3.41248 7.98759 0
M  V30 74767 H 2902.25 2.5837 6.41742 0
M  V30 74768 H 2901.39 5.02657 6.42673 0
M  V30 74769 P 2897.42 6.144 6.45285 0
M  V30 74770 O 2897.2 7.54673 6.86199 0
M  V30 74771 O 2896.63 5.12391 7.179 0
M  V30 74772 O 2897.17 5.99158 4.88404 0
M  V30 74773 C 2898.11 6.60234 3.96415 0
M  V30 74774 C 2897.38 7.08259 2.72856 0
M  V30 74775 O 2897.17 5.9427 1.83651 0
M  V30 74776 C 2895.98 7.64886 2.9555 0
M  V30 74777 O 2895.59 8.53963 1.90717 0
M  V30 74778 C 2895.1 6.4116 2.90739 0
M  V30 74779 C 2895.81 5.55375 1.86963 0
M  V30 74780 N 2895.76 4.09664 2.15742 0
M  V30 74781 H 2898.6 7.45574 4.45629 0
M  V30 74782 H 2898.87 5.86232 3.67314 0
M  V30 74783 H 2898.01 7.84412 2.24479 0
M  V30 74784 P 2894.04 8.7635 1.60911 0
M  V30 74785 O 2893.82 10.1388 1.11561 0
M  V30 74786 O 2893.25 8.36503 2.79617 0
M  V30 74787 O 2893.79 7.71806 0.42951 0
M  V30 74788 C 2894.73 7.67148 -0.673689 0
M  V30 74789 C 2894 7.33374 -1.95559 0
M  V30 74790 O 2893.79 5.88721 -2.00726 0
M  V30 74791 C 2892.6 7.92526 -2.10483 0
M  V30 74792 O 2892.21 8.02971 -3.47653 0
M  V30 74793 C 2891.72 6.89602 -1.41652 0
M  V30 74794 C 2892.43 5.59201 -1.75185 0
M  V30 74795 N 2892.38 4.58235 -0.662552 0
M  V30 74796 H 2895.22 8.65116 -0.777161 0
M  V30 74797 H 2895.49 6.90173 -0.474152 0
M  V30 74798 H 2894.63 7.66548 -2.79458 0
M  V30 74799 P 2890.66 8.03563 -3.84925 0
M  V30 74800 O 2890.44 8.85821 -5.0569 0
M  V30 74801 O 2889.87 8.41101 -2.65469 0
M  V30 74802 O 2890.41 6.4965 -4.18908 0
M  V30 74803 C 2891.35 5.81037 -5.05421 0
M  V30 74804 C 2890.62 4.78366 -5.89277 0
M  V30 74805 O 2890.41 3.58302 -5.08433 0
M  V30 74806 C 2889.22 5.17448 -6.36119 0
M  V30 74807 O 2888.83 4.45271 -7.53232 0
M  V30 74808 C 2888.34 4.74639 -5.19936 0
M  V30 74809 C 2889.05 3.49432 -4.70418 0
M  V30 74810 N 2889 3.31776 -3.22945 0
M  V30 74811 H 2891.84 6.54213 -5.71376 0
M  V30 74812 H 2892.11 5.30492 -4.44033 0
M  V30 74813 H 2891.25 4.55889 -6.76652 0
M  V30 74814 P 2887.28 4.23843 -7.83734 0
M  V30 74815 O 2887.06 4.19407 -9.29784 0
M  V30 74816 O 2886.49 5.24426 -7.09156 0
M  V30 74817 O 2887.03 2.7935 -7.20758 0
M  V30 74818 C 2887.97 1.7299 -7.50419 0
M  V30 74819 C 2887.24 0.406376 -7.57911 0
M  V30 74820 O 2887.03 -0.0897726 -6.21935 0
M  V30 74821 C 2885.84 0.447224 -8.1878 0
M  V30 74822 O 2885.45 -0.825065 -8.71101 0
M  V30 74823 C 2884.96 0.783801 -6.99623 0
M  V30 74824 C 2885.67 0.0619192 -5.85967 0
M  V30 74825 N 2885.62 0.7859 -4.56281 0
M  V30 74826 C 2885.7 2.14308 -4.31736 0
M  V30 74827 N 2885.62 2.46106 -3.05116 0
M  V30 74828 C 2885.48 1.23422 -2.4014 0
M  V30 74829 C 2885.35 0.938381 -1.02409 0
M  V30 74830 O 2885.33 1.70876 -0.0650402 0
M  V30 74831 N 2885.23 -0.444647 -0.805413 0
M  V30 74832 C 2885.23 -1.40829 -1.79435 0
M  V30 74833 N 2885.1 -2.67213 -1.38558 0
M  V30 74834 N 2885.36 -1.12947 -3.09005 0
M  V30 74835 C 2885.48 0.204887 -3.32369 0
M  V30 74836 H 2888.46 1.93423 -8.4679 0
M  V30 74837 H 2888.73 1.68181 -6.71046 0
M  V30 74838 H 2887.87 -0.289041 -8.15388 0
M  V30 74839 H 2885.21 -0.927166 -5.72947 0
M  V30 74840 H 2884.93 1.87 -6.82132 0
M  V30 74841 H 2883.94 0.404009 -7.13457 0
M  V30 74842 H 2885.77 1.20612 -8.97633 0
M  V30 74843 H 2885.82 2.88284 -5.10874 0
M  V30 74844 H 2885.14 -0.755087 0.140242 0
M  V30 74845 H 2885.1 -3.43967 -2.0729 0
M  V30 74846 H 2885 -2.88096 -0.380644 0
M  V30 74847 P 2883.9 -1.17771 -8.83182 0
M  V30 74848 O 2883.68 -2.07206 -9.98732 0
M  V30 74849 O 2883.11 0.0743816 -8.81969 0
M  V30 74850 O 2883.65 -1.97652 -7.47304 0
M  V30 74851 C 2884.59 -3.01133 -7.08783 0
M  V30 74852 C 2883.86 -4.12613 -6.37049 0
M  V30 74853 O 2883.65 -3.72827 -4.97879 0
M  V30 74854 C 2882.46 -4.45085 -6.88694 0
M  V30 74855 O 2882.07 -5.7877 -6.5624 0
M  V30 74856 C 2881.58 -3.47817 -6.12078 0
M  V30 74857 C 2882.29 -3.39414 -4.77697 0
M  V30 74858 N 2882.24 -2.04615 -4.15333 0
M  V30 74859 H 2885.08 -3.41248 -7.98759 0
M  V30 74860 H 2885.35 -2.5837 -6.41742 0
M  V30 74861 H 2884.49 -5.02657 -6.42673 0
M  V30 74862 P 2880.52 -6.144 -6.45285 0
M  V30 74863 O 2880.3 -7.54673 -6.86199 0
M  V30 74864 O 2879.73 -5.12391 -7.179 0
M  V30 74865 O 2880.27 -5.99158 -4.88404 0
M  V30 74866 C 2881.21 -6.60234 -3.96415 0
M  V30 74867 C 2880.48 -7.08259 -2.72856 0
M  V30 74868 O 2880.27 -5.9427 -1.83651 0
M  V30 74869 C 2879.08 -7.64886 -2.9555 0
M  V30 74870 O 2878.69 -8.53963 -1.90717 0
M  V30 74871 C 2878.2 -6.4116 -2.90739 0
M  V30 74872 C 2878.91 -5.55375 -1.86963 0
M  V30 74873 N 2878.86 -4.09448 -2.16152 0
M  V30 74874 H 2881.7 -7.45574 -4.45629 0
M  V30 74875 H 2881.97 -5.85864 -3.679 0
M  V30 74876 H 2881.11 -7.84412 -2.24479 0
M  V30 74877 H 2878.45 -5.73457 -0.888562 0
M  V30 74878 H 2878.17 -5.90877 -3.88583 0
M  V30 74879 H 2877.18 -6.6596 -2.58858 0
M  V30 74880 H 2879.01 -8.16339 -3.92049 0
M  V30 74881 P 2877.14 -8.7635 -1.60911 0
M  V30 74882 O 2876.92 -10.1388 -1.11561 0
M  V30 74883 O 2876.35 -8.36503 -2.79617 0
M  V30 74884 O 2876.89 -7.71806 -0.42951 0
M  V30 74885 C 2877.83 -7.67148 0.673689 0
M  V30 74886 C 2877.1 -7.33374 1.95559 0
M  V30 74887 O 2876.89 -5.88721 2.00726 0
M  V30 74888 C 2875.7 -7.92526 2.10483 0
M  V30 74889 O 2875.31 -8.02971 3.47653 0
M  V30 74890 C 2874.82 -6.89602 1.41652 0
M  V30 74891 C 2875.53 -5.59201 1.75185 0
M  V30 74892 N 2875.48 -4.58301 0.657969 0
M  V30 74893 H 2878.32 -8.65116 0.777161 0
M  V30 74894 H 2878.59 -6.9022 0.46725 0
M  V30 74895 H 2877.73 -7.66548 2.79458 0
M  V30 74896 H 2875.07 -5.16165 2.65183 0
M  V30 74897 H 2874.79 -7.06433 0.329384 0
M  V30 74898 H 2873.8 -6.90926 1.82021 0
M  V30 74899 H 2875.63 -8.90873 1.62657 0
M  V30 74900 P 2873.76 -8.03563 3.84925 0
M  V30 74901 O 2873.54 -8.85821 5.0569 0
M  V30 74902 O 2872.97 -8.41101 2.65469 0
M  V30 74903 O 2873.51 -6.4965 4.18908 0
M  V30 74904 C 2874.45 -5.81037 5.05421 0
M  V30 74905 C 2873.72 -4.78366 5.89277 0
M  V30 74906 O 2873.51 -3.58302 5.08433 0
M  V30 74907 C 2872.32 -5.17448 6.36119 0
M  V30 74908 O 2871.93 -4.45271 7.53232 0
M  V30 74909 C 2871.44 -4.74639 5.19936 0
M  V30 74910 C 2872.15 -3.49432 4.70418 0
M  V30 74911 N 2872.1 -3.31776 3.22945 0
M  V30 74912 H 2874.94 -6.54213 5.71376 0
M  V30 74913 H 2875.21 -5.30492 4.44033 0
M  V30 74914 H 2874.35 -4.55889 6.76652 0
M  V30 74915 P 2870.38 -4.23843 7.83734 0
M  V30 74916 O 2870.16 -4.19407 9.29784 0
M  V30 74917 O 2869.59 -5.24426 7.09156 0
M  V30 74918 O 2870.13 -2.7935 7.20758 0
M  V30 74919 C 2871.07 -1.7299 7.50419 0
M  V30 74920 C 2870.34 -0.406376 7.57911 0
M  V30 74921 O 2870.13 0.0897726 6.21935 0
M  V30 74922 C 2868.94 -0.447224 8.1878 0
M  V30 74923 O 2868.55 0.825065 8.71101 0
M  V30 74924 C 2868.06 -0.783801 6.99623 0
M  V30 74925 C 2868.77 -0.0619192 5.85967 0
M  V30 74926 N 2868.72 -0.7859 4.56281 0
M  V30 74927 H 2871.56 -1.93423 8.4679 0
M  V30 74928 H 2871.83 -1.68181 6.71046 0
M  V30 74929 H 2870.97 0.289041 8.15388 0
M  V30 74930 P 2867 1.17771 8.83182 0
M  V30 74931 O 2866.78 2.07206 9.98732 0
M  V30 74932 O 2866.21 -0.0743816 8.81969 0
M  V30 74933 O 2866.75 1.97652 7.47304 0
M  V30 74934 C 2867.69 3.01133 7.08783 0
M  V30 74935 C 2866.96 4.12613 6.37049 0
M  V30 74936 O 2866.75 3.72827 4.97879 0
M  V30 74937 C 2865.56 4.45085 6.88694 0
M  V30 74938 O 2865.17 5.7877 6.5624 0
M  V30 74939 C 2864.68 3.47817 6.12078 0
M  V30 74940 C 2865.39 3.39414 4.77697 0
M  V30 74941 N 2865.34 2.04615 4.15333 0
M  V30 74942 H 2868.18 3.41248 7.98759 0
M  V30 74943 H 2868.45 2.5837 6.41742 0
M  V30 74944 H 2867.59 5.02657 6.42673 0
M  V30 74945 P 2863.62 6.144 6.45285 0
M  V30 74946 O 2863.4 7.54673 6.86199 0
M  V30 74947 O 2862.83 5.12391 7.179 0
M  V30 74948 O 2863.37 5.99158 4.88404 0
M  V30 74949 C 2864.31 6.60234 3.96415 0
M  V30 74950 C 2863.58 7.08259 2.72856 0
M  V30 74951 O 2863.37 5.9427 1.83651 0
M  V30 74952 C 2862.18 7.64886 2.9555 0
M  V30 74953 O 2861.79 8.53963 1.90717 0
M  V30 74954 C 2861.3 6.4116 2.90739 0
M  V30 74955 C 2862.01 5.55375 1.86963 0
M  V30 74956 N 2861.96 4.09664 2.15742 0
M  V30 74957 H 2864.8 7.45574 4.45629 0
M  V30 74958 H 2865.07 5.86232 3.67314 0
M  V30 74959 H 2864.21 7.84412 2.24479 0
M  V30 74960 P 2860.24 8.7635 1.60911 0
M  V30 74961 O 2860.02 10.1388 1.11561 0
M  V30 74962 O 2859.45 8.36503 2.79617 0
M  V30 74963 O 2859.99 7.71806 0.42951 0
M  V30 74964 C 2860.93 7.67148 -0.673689 0
M  V30 74965 C 2860.2 7.33374 -1.95559 0
M  V30 74966 O 2859.99 5.88721 -2.00726 0
M  V30 74967 C 2858.8 7.92526 -2.10483 0
M  V30 74968 O 2858.41 8.02971 -3.47653 0
M  V30 74969 C 2857.92 6.89602 -1.41652 0
M  V30 74970 C 2858.63 5.59201 -1.75185 0
M  V30 74971 N 2858.58 4.58235 -0.662552 0
M  V30 74972 C 2858.66 4.7683 0.704049 0
M  V30 74973 N 2858.58 3.66233 1.39775 0
M  V30 74974 C 2858.44 2.66526 0.431739 0
M  V30 74975 C 2858.31 1.26394 0.575992 0
M  V30 74976 N 2858.19 0.62859 -0.67177 0
M  V30 74977 C 2858.19 1.27134 -1.89385 0
M  V30 74978 N 2858.06 0.492035 -2.96951 0
M  V30 74979 N 2858.32 2.58978 -2.02907 0
M  V30 74980 C 2858.44 3.22433 -0.832218 0
M  V30 74981 H 2861.42 8.65116 -0.777161 0
M  V30 74982 H 2861.69 6.90173 -0.474152 0
M  V30 74983 H 2860.83 7.66548 -2.79458 0
M  V30 74984 P 2856.86 8.03563 -3.84925 0
M  V30 74985 O 2856.64 8.85821 -5.0569 0
M  V30 74986 O 2856.07 8.41101 -2.65469 0
M  V30 74987 O 2856.61 6.4965 -4.18908 0
M  V30 74988 C 2857.55 5.81037 -5.05421 0
M  V30 74989 C 2856.82 4.78366 -5.89277 0
M  V30 74990 O 2856.61 3.58302 -5.08433 0
M  V30 74991 C 2855.42 5.17448 -6.36119 0
M  V30 74992 O 2855.03 4.45271 -7.53232 0
M  V30 74993 C 2854.54 4.74639 -5.19936 0
M  V30 74994 C 2855.25 3.49432 -4.70418 0
M  V30 74995 N 2855.2 3.31776 -3.22945 0
M  V30 74996 H 2858.04 6.54213 -5.71376 0
M  V30 74997 H 2858.31 5.30492 -4.44033 0
M  V30 74998 H 2857.45 4.55889 -6.76652 0
M  V30 74999 P 2853.48 4.23843 -7.83734 0
M  V30 75000 O 2853.26 4.19407 -9.29784 0
M  V30 75001 O 2852.69 5.24426 -7.09156 0
M  V30 75002 O 2853.23 2.7935 -7.20758 0
M  V30 75003 C 2854.17 1.7299 -7.50419 0
M  V30 75004 C 2853.44 0.406376 -7.57911 0
M  V30 75005 O 2853.23 -0.0897726 -6.21935 0
M  V30 75006 C 2852.04 0.447224 -8.1878 0
M  V30 75007 O 2851.65 -0.825065 -8.71101 0
M  V30 75008 C 2851.16 0.783801 -6.99623 0
M  V30 75009 C 2851.87 0.0619192 -5.85967 0
M  V30 75010 N 2851.82 0.7859 -4.56281 0
M  V30 75011 H 2854.66 1.93423 -8.4679 0
M  V30 75012 H 2854.93 1.68181 -6.71046 0
M  V30 75013 H 2854.07 -0.289041 -8.15388 0
M  V30 75014 P 2850.1 -1.17771 -8.83182 0
M  V30 75015 O 2849.88 -2.07206 -9.98732 0
M  V30 75016 O 2849.31 0.0743816 -8.81969 0
M  V30 75017 O 2849.85 -1.97678 -7.474 0
M  V30 75018 C 2850.79 -3.01133 -7.08783 0
M  V30 75019 C 2850.06 -4.1203 -6.37546 0
M  V30 75020 O 2849.85 -3.72887 -4.9796 0
M  V30 75021 C 2848.66 -4.45085 -6.88694 0
M  V30 75022 O 2848.27 -5.78836 -6.56315 0
M  V30 75023 C 2847.78 -3.47817 -6.12078 0
M  V30 75024 C 2848.49 -3.39414 -4.77697 0
M  V30 75025 N 2848.44 -2.04615 -4.15333 0
M  V30 75026 C 2848.29 -1.96929 -2.77162 0
M  V30 75027 O 2848.2 -3.02017 -2.12006 0
M  V30 75028 N 2848.24 -0.55485 -2.24237 0
M  V30 75029 C 2848.34 0.367808 -2.9169 0
M  V30 75030 N 2848.29 1.53426 -2.29427 0
M  V30 75031 C 2848.49 0.319148 -4.33828 0
M  V30 75032 C 2848.54 -0.920672 -4.90433 0
M  V30 75033 H 2851.28 -3.41209 -7.98667 0
M  V30 75034 H 2851.55 -2.5837 -6.41742 0
M  V30 75035 H 2850.69 -5.02718 -6.42752 0
M  V30 75036 H 2848.03 -4.11779 -4.09026 0
M  V30 75037 H 2847.75 -2.49661 -6.61772 0
M  V30 75038 H 2846.76 -3.86674 -6.00946 0
M  V30 75039 H 2848.59 -4.29991 -7.97006 0
M  V30 75040 H 2848.67 -1.00589 -5.98303 0
M  V30 75041 H 2848.56 1.22639 -4.93799 0
M  V30 75042 H 2848.18 1.56819 -1.27167 0
M  V30 75043 H 2848.37 2.41062 -2.83063 0
M  V30 75044 P 2846.72 -6.144 -6.45285 0
M  V30 75045 O 2846.5 -7.54673 -6.86199 0
M  V30 75046 O 2845.93 -5.12391 -7.179 0
M  V30 75047 O 2846.47 -5.99158 -4.88404 0
M  V30 75048 C 2847.41 -6.60234 -3.96415 0
M  V30 75049 C 2846.68 -7.08259 -2.72856 0
M  V30 75050 O 2846.47 -5.9427 -1.83651 0
M  V30 75051 C 2845.28 -7.64886 -2.9555 0
M  V30 75052 O 2844.89 -8.53963 -1.90717 0
M  V30 75053 C 2844.4 -6.4116 -2.90739 0
M  V30 75054 C 2845.11 -5.55375 -1.86963 0
M  V30 75055 N 2845.06 -4.09448 -2.16152 0
M  V30 75056 H 2847.9 -7.45574 -4.45629 0
M  V30 75057 H 2848.17 -5.85864 -3.679 0
M  V30 75058 H 2847.31 -7.84412 -2.24479 0
M  V30 75059 H 2844.65 -5.73457 -0.888562 0
M  V30 75060 H 2844.37 -5.90877 -3.88583 0
M  V30 75061 H 2843.38 -6.6596 -2.58858 0
M  V30 75062 H 2845.21 -8.16339 -3.92049 0
M  V30 75063 P 2843.34 -8.7635 -1.60911 0
M  V30 75064 O 2843.12 -10.1388 -1.11561 0
M  V30 75065 O 2842.55 -8.36503 -2.79617 0
M  V30 75066 O 2843.09 -7.71806 -0.42951 0
M  V30 75067 C 2844.03 -7.67148 0.673689 0
M  V30 75068 C 2843.3 -7.33374 1.95559 0
M  V30 75069 O 2843.09 -5.88721 2.00726 0
M  V30 75070 C 2841.9 -7.92526 2.10483 0
M  V30 75071 O 2841.51 -8.02971 3.47653 0
M  V30 75072 C 2841.02 -6.89602 1.41652 0
M  V30 75073 C 2841.73 -5.59201 1.75185 0
M  V30 75074 N 2841.68 -4.58301 0.657969 0
M  V30 75075 H 2844.52 -8.65116 0.777161 0
M  V30 75076 H 2844.79 -6.9022 0.46725 0
M  V30 75077 H 2843.93 -7.66548 2.79458 0
M  V30 75078 H 2841.27 -5.16165 2.65183 0
M  V30 75079 H 2840.99 -7.06433 0.329384 0
M  V30 75080 H 2840 -6.90926 1.82021 0
M  V30 75081 H 2841.83 -8.90873 1.62657 0
M  V30 75082 P 2839.96 -8.03563 3.84925 0
M  V30 75083 O 2839.74 -8.85821 5.0569 0
M  V30 75084 O 2839.17 -8.41101 2.65469 0
M  V30 75085 O 2839.71 -6.4965 4.18908 0
M  V30 75086 C 2840.65 -5.81037 5.05421 0
M  V30 75087 C 2839.92 -4.78366 5.89277 0
M  V30 75088 O 2839.71 -3.58302 5.08433 0
M  V30 75089 C 2838.52 -5.17448 6.36119 0
M  V30 75090 O 2838.13 -4.45271 7.53232 0
M  V30 75091 C 2837.64 -4.74639 5.19936 0
M  V30 75092 C 2838.35 -3.49432 4.70418 0
M  V30 75093 N 2838.3 -3.31776 3.22945 0
M  V30 75094 H 2841.14 -6.54213 5.71376 0
M  V30 75095 H 2841.41 -5.30492 4.44033 0
M  V30 75096 H 2840.55 -4.55889 6.76652 0
M  V30 75097 P 2836.58 -4.23843 7.83734 0
M  V30 75098 O 2836.36 -4.19407 9.29784 0
M  V30 75099 O 2835.79 -5.24426 7.09156 0
M  V30 75100 O 2836.33 -2.7935 7.20758 0
M  V30 75101 C 2837.27 -1.7299 7.50419 0
M  V30 75102 C 2836.54 -0.406376 7.57911 0
M  V30 75103 O 2836.33 0.0897726 6.21935 0
M  V30 75104 C 2835.14 -0.447224 8.1878 0
M  V30 75105 O 2834.75 0.825065 8.71101 0
M  V30 75106 C 2834.26 -0.783801 6.99623 0
M  V30 75107 C 2834.97 -0.0619192 5.85967 0
M  V30 75108 N 2834.92 -0.790462 4.56202 0
M  V30 75109 H 2837.76 -1.93423 8.4679 0
M  V30 75110 H 2838.03 -1.68852 6.70877 0
M  V30 75111 H 2837.17 0.289041 8.15388 0
M  V30 75112 H 2834.51 0.927006 5.72848 0
M  V30 75113 H 2834.23 -1.86973 6.82036 0
M  V30 75114 H 2833.24 -0.403953 7.13357 0
M  V30 75115 H 2835.07 -1.20599 8.97534 0
M  V30 75116 P 2833.2 1.17771 8.83182 0
M  V30 75117 O 2832.98 2.07206 9.98732 0
M  V30 75118 O 2832.41 -0.0743816 8.81969 0
M  V30 75119 O 2832.95 1.97652 7.47304 0
M  V30 75120 C 2833.89 3.01133 7.08783 0
M  V30 75121 C 2833.16 4.12613 6.37049 0
M  V30 75122 O 2832.95 3.72827 4.97879 0
M  V30 75123 C 2831.76 4.45085 6.88694 0
M  V30 75124 O 2831.37 5.7877 6.5624 0
M  V30 75125 C 2830.88 3.47817 6.12078 0
M  V30 75126 C 2831.59 3.39414 4.77697 0
M  V30 75127 N 2831.54 2.04615 4.15333 0
M  V30 75128 H 2834.38 3.41248 7.98759 0
M  V30 75129 H 2834.65 2.5837 6.41742 0
M  V30 75130 H 2833.79 5.02657 6.42673 0
M  V30 75131 P 2829.82 6.144 6.45285 0
M  V30 75132 O 2829.6 7.54673 6.86199 0
M  V30 75133 O 2829.03 5.12391 7.179 0
M  V30 75134 O 2829.57 5.99158 4.88404 0
M  V30 75135 C 2830.51 6.60234 3.96415 0
M  V30 75136 C 2829.78 7.08259 2.72856 0
M  V30 75137 O 2829.57 5.9427 1.83651 0
M  V30 75138 C 2828.38 7.64886 2.9555 0
M  V30 75139 O 2827.99 8.53963 1.90717 0
M  V30 75140 C 2827.5 6.4116 2.90739 0
M  V30 75141 C 2828.21 5.55375 1.86963 0
M  V30 75142 N 2828.16 4.09448 2.16152 0
M  V30 75143 C 2828.24 3.46824 3.37593 0
M  V30 75144 N 2828.17 2.17422 3.29777 0
M  V30 75145 C 2828.02 1.93065 1.94427 0
M  V30 75146 C 2827.89 0.738053 1.20141 0
M  V30 75147 N 2827.88 -0.474256 1.74676 0
M  V30 75148 N 2827.77 0.850049 -0.13045 0
M  V30 75149 C 2827.78 2.06169 -0.676992 0
M  V30 75150 N 2827.9 3.23842 -0.101312 0
M  V30 75151 C 2828.02 3.09402 1.23122 0
M  V30 75152 H 2831 7.45574 4.45629 0
M  V30 75153 H 2831.27 5.85864 3.679 0
M  V30 75154 H 2830.41 7.84412 2.24479 0
M  V30 75155 H 2827.75 5.73457 0.888562 0
M  V30 75156 H 2827.47 5.90877 3.88583 0
M  V30 75157 H 2826.48 6.6596 2.58858 0
M  V30 75158 H 2828.31 8.16339 3.92049 0
M  V30 75159 H 2828.36 4.00505 4.3174 0
M  V30 75160 H 2827.97 -0.581337 2.76658 0
M  V30 75161 H 2827.79 -1.30811 1.14888 0
M  V30 75162 H 2827.68 2.08295 -1.75542 0
M  V30 75163 P 2826.44 8.7635 1.60911 0
M  V30 75164 O 2826.22 10.1388 1.11561 0
M  V30 75165 O 2825.65 8.36503 2.79617 0
M  V30 75166 O 2826.19 7.71806 0.42951 0
M  V30 75167 C 2827.13 7.67148 -0.673689 0
M  V30 75168 C 2826.4 7.33374 -1.95559 0
M  V30 75169 O 2826.19 5.88721 -2.00726 0
M  V30 75170 C 2825 7.92526 -2.10483 0
M  V30 75171 O 2824.61 8.02971 -3.47653 0
M  V30 75172 C 2824.12 6.89602 -1.41652 0
M  V30 75173 C 2824.83 5.59201 -1.75185 0
M  V30 75174 N 2824.78 4.58235 -0.662552 0
M  V30 75175 H 2827.62 8.65116 -0.777161 0
M  V30 75176 H 2827.89 6.90173 -0.474152 0
M  V30 75177 H 2827.03 7.66548 -2.79458 0
M  V30 75178 P 2823.06 8.03563 -3.84925 0
M  V30 75179 O 2822.84 8.85821 -5.0569 0
M  V30 75180 O 2822.27 8.41101 -2.65469 0
M  V30 75181 O 2822.81 6.4965 -4.18908 0
M  V30 75182 C 2823.75 5.80886 -5.05289 0
M  V30 75183 C 2823.02 4.78366 -5.89277 0
M  V30 75184 O 2822.81 3.58302 -5.08433 0
M  V30 75185 C 2821.62 5.16748 -6.36559 0
M  V30 75186 O 2821.23 4.45271 -7.53232 0
M  V30 75187 C 2820.74 4.74572 -5.19863 0
M  V30 75188 C 2821.45 3.49373 -4.70338 0
M  V30 75189 N 2821.4 3.31704 -3.22876 0
M  V30 75190 C 2821.25 2.03326 -2.74871 0
M  V30 75191 O 2821.16 1.06486 -3.48076 0
M  V30 75192 N 2821.21 1.91838 -1.37456 0
M  V30 75193 C 2821.3 2.94295 -0.462035 0
M  V30 75194 O 2821.25 2.71763 0.752928 0
M  V30 75195 C 2821.45 4.25064 -1.05249 0
M  V30 75196 C 2821.56 5.39815 -0.095697 0
M  V30 75197 C 2821.5 4.40214 -2.39192 0
M  V30 75198 H 2824.24 6.54063 -5.71245 0
M  V30 75199 H 2824.51 5.30339 -4.43905 0
M  V30 75200 H 2823.65 4.55889 -6.76652 0
M  V30 75201 H 2820.99 2.6167 -5.17842 0
M  V30 75202 H 2820.71 5.52155 -4.41878 0
M  V30 75203 H 2819.72 4.51918 -5.53297 0
M  V30 75204 H 2821.55 6.25055 -6.55162 0
M  V30 75205 H 2821.63 5.39798 -2.81523 0
M  V30 75206 H 2820.6 5.91593 -0.0279582 0
M  V30 75207 H 2822.33 6.10038 -0.450573 0
M  V30 75208 H 2821.84 5.02007 0.89937 0
M  V30 75209 H 2821.11 0.995326 -1.00435 0
M  V30 75210 P 2819.68 4.23843 -7.83734 0
M  V30 75211 O 2819.46 4.19407 -9.29784 0
M  V30 75212 O 2818.89 5.24426 -7.09156 0
M  V30 75213 O 2819.43 2.7935 -7.20758 0
M  V30 75214 C 2820.37 1.7299 -7.50419 0
M  V30 75215 C 2819.64 0.406376 -7.57911 0
M  V30 75216 O 2819.43 -0.0897726 -6.21935 0
M  V30 75217 C 2818.24 0.447224 -8.1878 0
M  V30 75218 O 2817.85 -0.825065 -8.71101 0
M  V30 75219 C 2817.36 0.783801 -6.99623 0
M  V30 75220 C 2818.07 0.0619192 -5.85967 0
M  V30 75221 N 2818.02 0.7859 -4.56281 0
M  V30 75222 H 2820.86 1.93423 -8.4679 0
M  V30 75223 H 2821.13 1.68181 -6.71046 0
M  V30 75224 H 2820.27 -0.289041 -8.15388 0
M  V30 75225 P 2816.3 -1.17771 -8.83182 0
M  V30 75226 O 2816.08 -2.07206 -9.98732 0
M  V30 75227 O 2815.51 0.0743816 -8.81969 0
M  V30 75228 O 2816.05 -1.97652 -7.47304 0
M  V30 75229 C 2816.99 -3.01133 -7.08783 0
M  V30 75230 C 2816.26 -4.12613 -6.37049 0
M  V30 75231 O 2816.05 -3.72827 -4.97879 0
M  V30 75232 C 2814.86 -4.45085 -6.88694 0
M  V30 75233 O 2814.47 -5.7877 -6.5624 0
M  V30 75234 C 2813.98 -3.47817 -6.12078 0
M  V30 75235 C 2814.69 -3.39414 -4.77697 0
M  V30 75236 N 2814.64 -2.04615 -4.15333 0
M  V30 75237 H 2817.48 -3.41248 -7.98759 0
M  V30 75238 H 2817.75 -2.5837 -6.41742 0
M  V30 75239 H 2816.89 -5.02657 -6.42673 0
M  V30 75240 P 2812.92 -6.144 -6.45285 0
M  V30 75241 O 2812.7 -7.54673 -6.86199 0
M  V30 75242 O 2812.13 -5.12391 -7.179 0
M  V30 75243 O 2812.67 -5.99158 -4.88404 0
M  V30 75244 C 2813.61 -6.60234 -3.96415 0
M  V30 75245 C 2812.88 -7.08259 -2.72856 0
M  V30 75246 O 2812.67 -5.9427 -1.83651 0
M  V30 75247 C 2811.48 -7.64886 -2.9555 0
M  V30 75248 O 2811.09 -8.53963 -1.90717 0
M  V30 75249 C 2810.6 -6.4116 -2.90739 0
M  V30 75250 C 2811.31 -5.55375 -1.86963 0
M  V30 75251 N 2811.26 -4.09448 -2.16152 0
M  V30 75252 H 2814.1 -7.45574 -4.45629 0
M  V30 75253 H 2814.37 -5.85864 -3.679 0
M  V30 75254 H 2813.51 -7.84412 -2.24479 0
M  V30 75255 H 2810.85 -5.73457 -0.888562 0
M  V30 75256 H 2810.57 -5.90877 -3.88583 0
M  V30 75257 H 2809.58 -6.6596 -2.58858 0
M  V30 75258 H 2811.41 -8.16339 -3.92049 0
M  V30 75259 P 2809.54 -8.7635 -1.60911 0
M  V30 75260 O 2809.32 -10.1388 -1.11561 0
M  V30 75261 O 2808.75 -8.36503 -2.79617 0
M  V30 75262 O 2809.29 -7.71806 -0.42951 0
M  V30 75263 C 2810.23 -7.67148 0.673689 0
M  V30 75264 C 2809.5 -7.33374 1.95559 0
M  V30 75265 O 2809.29 -5.88721 2.00726 0
M  V30 75266 C 2808.1 -7.92526 2.10483 0
M  V30 75267 O 2807.71 -8.02971 3.47653 0
M  V30 75268 C 2807.22 -6.89602 1.41652 0
M  V30 75269 C 2807.93 -5.59201 1.75185 0
M  V30 75270 N 2807.88 -4.58301 0.657969 0
M  V30 75271 H 2810.72 -8.65116 0.777161 0
M  V30 75272 H 2810.99 -6.9022 0.46725 0
M  V30 75273 H 2810.13 -7.66548 2.79458 0
M  V30 75274 H 2807.47 -5.16165 2.65183 0
M  V30 75275 H 2807.19 -7.06433 0.329384 0
M  V30 75276 H 2806.2 -6.90926 1.82021 0
M  V30 75277 H 2808.03 -8.90873 1.62657 0
M  V30 75278 P 2806.16 -8.03563 3.84925 0
M  V30 75279 O 2805.94 -8.85821 5.0569 0
M  V30 75280 O 2805.37 -8.41101 2.65469 0
M  V30 75281 O 2805.91 -6.49734 4.18962 0
M  V30 75282 C 2806.85 -5.81037 5.05421 0
M  V30 75283 C 2806.12 -4.79018 5.88876 0
M  V30 75284 O 2805.91 -3.58359 5.08515 0
M  V30 75285 C 2804.72 -5.17448 6.36119 0
M  V30 75286 O 2804.33 -4.45322 7.53318 0
M  V30 75287 C 2803.84 -4.74639 5.19936 0
M  V30 75288 C 2804.55 -3.49432 4.70418 0
M  V30 75289 N 2804.5 -3.31776 3.22945 0
M  V30 75290 C 2804.35 -2.02742 2.72939 0
M  V30 75291 O 2804.26 -1.08301 3.52749 0
M  V30 75292 N 2804.3 -1.96117 1.22063 0
M  V30 75293 C 2804.4 -2.8878 0.551566 0
M  V30 75294 N 2804.35 -2.65609 -0.750198 0
M  V30 75295 C 2804.55 -4.22457 1.03707 0
M  V30 75296 C 2804.6 -4.37979 2.39113 0
M  V30 75297 H 2807.34 -6.54138 5.7131 0
M  V30 75298 H 2807.61 -5.30492 4.44033 0
M  V30 75299 H 2806.75 -4.55945 6.76735 0
M  V30 75300 H 2804.09 -2.6176 5.18021 0
M  V30 75301 H 2803.81 -5.52233 4.41941 0
M  V30 75302 H 2802.82 -4.52045 5.53452 0
M  V30 75303 H 2804.65 -6.25124 6.55234 0
M  V30 75304 H 2804.73 -5.37936 2.80552 0
M  V30 75305 H 2804.62 -5.07528 0.359553 0
M  V30 75306 H 2804.24 -1.69403 -1.09847 0
M  V30 75307 H 2804.43 -3.43701 -1.41792 0
M  V30 75308 P 2802.78 -4.23843 7.83734 0
M  V30 75309 O 2802.56 -4.19407 9.29784 0
M  V30 75310 O 2801.99 -5.24426 7.09156 0
M  V30 75311 O 2802.53 -2.7935 7.20758 0
M  V30 75312 C 2803.47 -1.7299 7.50419 0
M  V30 75313 C 2802.74 -0.406376 7.57911 0
M  V30 75314 O 2802.53 0.0897726 6.21935 0
M  V30 75315 C 2801.34 -0.447224 8.1878 0
M  V30 75316 O 2800.95 0.825065 8.71101 0
M  V30 75317 C 2800.46 -0.783801 6.99623 0
M  V30 75318 C 2801.17 -0.0619192 5.85967 0
M  V30 75319 N 2801.12 -0.790462 4.56202 0
M  V30 75320 H 2803.96 -1.93423 8.4679 0
M  V30 75321 H 2804.23 -1.68852 6.70877 0
M  V30 75322 H 2803.37 0.289041 8.15388 0
M  V30 75323 H 2800.71 0.927006 5.72848 0
M  V30 75324 H 2800.43 -1.86973 6.82036 0
M  V30 75325 H 2799.44 -0.403953 7.13357 0
M  V30 75326 H 2801.27 -1.20599 8.97534 0
M  V30 75327 P 2799.4 1.17771 8.83182 0
M  V30 75328 O 2799.18 2.07206 9.98732 0
M  V30 75329 O 2798.61 -0.0743816 8.81969 0
M  V30 75330 O 2799.15 1.97652 7.47304 0
M  V30 75331 C 2800.09 3.01133 7.08783 0
M  V30 75332 C 2799.36 4.12613 6.37049 0
M  V30 75333 O 2799.15 3.72827 4.97879 0
M  V30 75334 C 2797.96 4.45085 6.88694 0
M  V30 75335 O 2797.57 5.7877 6.5624 0
M  V30 75336 C 2797.08 3.47817 6.12078 0
M  V30 75337 C 2797.79 3.39414 4.77697 0
M  V30 75338 N 2797.74 2.04615 4.15333 0
M  V30 75339 H 2800.58 3.41248 7.98759 0
M  V30 75340 H 2800.85 2.5837 6.41742 0
M  V30 75341 H 2799.99 5.02657 6.42673 0
M  V30 75342 P 2796.02 6.144 6.45285 0
M  V30 75343 O 2795.8 7.54673 6.86199 0
M  V30 75344 O 2795.23 5.12391 7.179 0
M  V30 75345 O 2795.77 5.99158 4.88404 0
M  V30 75346 C 2796.71 6.60234 3.96415 0
M  V30 75347 C 2795.98 7.08259 2.72856 0
M  V30 75348 O 2795.77 5.9427 1.83651 0
M  V30 75349 C 2794.58 7.64886 2.9555 0
M  V30 75350 O 2794.19 8.53963 1.90717 0
M  V30 75351 C 2793.7 6.4116 2.90739 0
M  V30 75352 C 2794.41 5.55375 1.86963 0
M  V30 75353 N 2794.36 4.09664 2.15742 0
M  V30 75354 H 2797.2 7.45574 4.45629 0
M  V30 75355 H 2797.47 5.86232 3.67314 0
M  V30 75356 H 2796.61 7.84412 2.24479 0
M  V30 75357 P 2792.64 8.7635 1.60911 0
M  V30 75358 O 2792.42 10.1388 1.11561 0
M  V30 75359 O 2791.85 8.36503 2.79617 0
M  V30 75360 O 2792.39 7.71806 0.42951 0
M  V30 75361 C 2793.33 7.67148 -0.673689 0
M  V30 75362 C 2792.6 7.33374 -1.95559 0
M  V30 75363 O 2792.39 5.88721 -2.00726 0
M  V30 75364 C 2791.2 7.92526 -2.10483 0
M  V30 75365 O 2790.81 8.02971 -3.47653 0
M  V30 75366 C 2790.32 6.89602 -1.41652 0
M  V30 75367 C 2791.03 5.59201 -1.75185 0
M  V30 75368 N 2790.98 4.58235 -0.662552 0
M  V30 75369 H 2793.82 8.65116 -0.777161 0
M  V30 75370 H 2794.09 6.90173 -0.474152 0
M  V30 75371 H 2793.23 7.66548 -2.79458 0
M  V30 75372 P 2789.26 8.03563 -3.84925 0
M  V30 75373 O 2789.04 8.85821 -5.0569 0
M  V30 75374 O 2788.47 8.41101 -2.65469 0
M  V30 75375 O 2789.01 6.4965 -4.18908 0
M  V30 75376 C 2789.95 5.81037 -5.05421 0
M  V30 75377 C 2789.22 4.78366 -5.89277 0
M  V30 75378 O 2789.01 3.58302 -5.08433 0
M  V30 75379 C 2787.82 5.17448 -6.36119 0
M  V30 75380 O 2787.43 4.45271 -7.53232 0
M  V30 75381 C 2786.94 4.74639 -5.19936 0
M  V30 75382 C 2787.65 3.49432 -4.70418 0
M  V30 75383 N 2787.6 3.31776 -3.22945 0
M  V30 75384 H 2790.44 6.54213 -5.71376 0
M  V30 75385 H 2790.71 5.30492 -4.44033 0
M  V30 75386 H 2789.85 4.55889 -6.76652 0
M  V30 75387 P 2785.88 4.23843 -7.83734 0
M  V30 75388 O 2785.66 4.19407 -9.29784 0
M  V30 75389 O 2785.09 5.24426 -7.09156 0
M  V30 75390 O 2785.63 2.7935 -7.20758 0
M  V30 75391 C 2786.57 1.7299 -7.50419 0
M  V30 75392 C 2785.84 0.406376 -7.57911 0
M  V30 75393 O 2785.63 -0.0897726 -6.21935 0
M  V30 75394 C 2784.44 0.447224 -8.1878 0
M  V30 75395 O 2784.05 -0.825065 -8.71101 0
M  V30 75396 C 2783.56 0.783801 -6.99623 0
M  V30 75397 C 2784.27 0.0619192 -5.85967 0
M  V30 75398 N 2784.22 0.790462 -4.56202 0
M  V30 75399 C 2784.3 2.13895 -4.34171 0
M  V30 75400 N 2784.23 2.46449 -3.08687 0
M  V30 75401 C 2784.08 1.2525 -2.43697 0
M  V30 75402 C 2783.95 0.914535 -1.07318 0
M  V30 75403 N 2783.94 1.80782 -0.0887348 0
M  V30 75404 N 2783.83 -0.386745 -0.768133 0
M  V30 75405 C 2783.84 -1.28096 -1.75159 0
M  V30 75406 N 2783.96 -1.09708 -3.04861 0
M  V30 75407 C 2784.08 0.214857 -3.32306 0
M  V30 75408 H 2787.06 1.93423 -8.4679 0
M  V30 75409 H 2787.33 1.68852 -6.70877 0
M  V30 75410 H 2786.47 -0.289041 -8.15388 0
M  V30 75411 H 2783.81 -0.927006 -5.72848 0
M  V30 75412 H 2783.53 1.86973 -6.82036 0
M  V30 75413 H 2782.54 0.403953 -7.13357 0
M  V30 75414 H 2784.37 1.20599 -8.97534 0
M  V30 75415 H 2784.42 2.86846 -5.14318 0
M  V30 75416 H 2784.03 2.81082 -0.302037 0
M  V30 75417 H 2783.85 1.49688 0.889064 0
M  V30 75418 H 2783.74 -2.31317 -1.43855 0
M  V30 75419 P 2782.5 -1.17771 -8.83182 0
M  V30 75420 O 2782.28 -2.07206 -9.98732 0
M  V30 75421 O 2781.71 0.0743816 -8.81969 0
M  V30 75422 O 2782.25 -1.97652 -7.47304 0
M  V30 75423 C 2783.19 -3.01133 -7.08783 0
M  V30 75424 C 2782.46 -4.12613 -6.37049 0
M  V30 75425 O 2782.25 -3.72827 -4.97879 0
M  V30 75426 C 2781.06 -4.45085 -6.88694 0
M  V30 75427 O 2780.67 -5.7877 -6.5624 0
M  V30 75428 C 2780.18 -3.47817 -6.12078 0
M  V30 75429 C 2780.89 -3.39414 -4.77697 0
M  V30 75430 N 2780.84 -2.04615 -4.15333 0
M  V30 75431 H 2783.68 -3.41248 -7.98759 0
M  V30 75432 H 2783.95 -2.5837 -6.41742 0
M  V30 75433 H 2783.09 -5.02657 -6.42673 0
M  V30 75434 P 2779.12 -6.144 -6.45285 0
M  V30 75435 O 2778.9 -7.54673 -6.86199 0
M  V30 75436 O 2778.33 -5.12391 -7.179 0
M  V30 75437 O 2778.87 -5.99158 -4.88404 0
M  V30 75438 C 2779.81 -6.60234 -3.96415 0
M  V30 75439 C 2779.08 -7.08259 -2.72856 0
M  V30 75440 O 2778.87 -5.9427 -1.83651 0
M  V30 75441 C 2777.68 -7.64886 -2.9555 0
M  V30 75442 O 2777.29 -8.53963 -1.90717 0
M  V30 75443 C 2776.8 -6.4116 -2.90739 0
M  V30 75444 C 2777.51 -5.55375 -1.86963 0
M  V30 75445 N 2777.46 -4.09664 -2.15742 0
M  V30 75446 H 2780.3 -7.45574 -4.45629 0
M  V30 75447 H 2780.57 -5.86232 -3.67314 0
M  V30 75448 H 2779.71 -7.84412 -2.24479 0
M  V30 75449 P 2775.74 -8.7635 -1.60911 0
M  V30 75450 O 2775.52 -10.1388 -1.11561 0
M  V30 75451 O 2774.95 -8.36503 -2.79617 0
M  V30 75452 O 2775.49 -7.71806 -0.42951 0
M  V30 75453 C 2776.43 -7.67148 0.673689 0
M  V30 75454 C 2775.7 -7.33374 1.95559 0
M  V30 75455 O 2775.49 -5.88721 2.00726 0
M  V30 75456 C 2774.3 -7.92526 2.10483 0
M  V30 75457 O 2773.91 -8.02971 3.47653 0
M  V30 75458 C 2773.42 -6.89602 1.41652 0
M  V30 75459 C 2774.13 -5.59201 1.75185 0
M  V30 75460 N 2774.08 -4.58235 0.662552 0
M  V30 75461 H 2776.92 -8.65116 0.777161 0
M  V30 75462 H 2777.19 -6.90173 0.474152 0
M  V30 75463 H 2776.33 -7.66548 2.79458 0
M  V30 75464 P 2772.36 -8.03563 3.84925 0
M  V30 75465 O 2772.14 -8.85821 5.0569 0
M  V30 75466 O 2771.57 -8.41101 2.65469 0
M  V30 75467 O 2772.11 -6.4965 4.18908 0
M  V30 75468 C 2773.05 -5.81037 5.05421 0
M  V30 75469 C 2772.32 -4.78366 5.89277 0
M  V30 75470 O 2772.11 -3.58302 5.08433 0
M  V30 75471 C 2770.92 -5.17448 6.36119 0
M  V30 75472 O 2770.53 -4.45271 7.53232 0
M  V30 75473 C 2770.04 -4.74639 5.19936 0
M  V30 75474 C 2770.75 -3.49432 4.70418 0
M  V30 75475 N 2770.7 -3.31776 3.22945 0
M  V30 75476 H 2773.54 -6.54213 5.71376 0
M  V30 75477 H 2773.81 -5.30492 4.44033 0
M  V30 75478 H 2772.95 -4.55889 6.76652 0
M  V30 75479 P 2768.98 -4.23843 7.83734 0
M  V30 75480 O 2768.76 -4.19407 9.29784 0
M  V30 75481 O 2768.19 -5.24426 7.09156 0
M  V30 75482 O 2768.73 -2.7935 7.20758 0
M  V30 75483 C 2769.67 -1.7299 7.50419 0
M  V30 75484 C 2768.94 -0.406376 7.57911 0
M  V30 75485 O 2768.73 0.0897726 6.21935 0
M  V30 75486 C 2767.54 -0.447224 8.1878 0
M  V30 75487 O 2767.15 0.825065 8.71101 0
M  V30 75488 C 2766.66 -0.783801 6.99623 0
M  V30 75489 C 2767.37 -0.0619192 5.85967 0
M  V30 75490 N 2767.32 -0.790462 4.56202 0
M  V30 75491 H 2770.16 -1.93423 8.4679 0
M  V30 75492 H 2770.43 -1.68852 6.70877 0
M  V30 75493 H 2769.57 0.289041 8.15388 0
M  V30 75494 H 2766.91 0.927006 5.72848 0
M  V30 75495 H 2766.63 -1.86973 6.82036 0
M  V30 75496 H 2765.64 -0.403953 7.13357 0
M  V30 75497 H 2767.47 -1.20599 8.97534 0
M  V30 75498 P 2765.6 1.17771 8.83182 0
M  V30 75499 O 2765.38 2.07206 9.98732 0
M  V30 75500 O 2764.81 -0.0743816 8.81969 0
M  V30 75501 O 2765.35 1.97652 7.47304 0
M  V30 75502 C 2766.29 3.01133 7.08783 0
M  V30 75503 C 2765.56 4.12613 6.37049 0
M  V30 75504 O 2765.35 3.72827 4.97879 0
M  V30 75505 C 2764.16 4.45085 6.88694 0
M  V30 75506 O 2763.77 5.7877 6.5624 0
M  V30 75507 C 2763.28 3.47817 6.12078 0
M  V30 75508 C 2763.99 3.39414 4.77697 0
M  V30 75509 N 2763.94 2.04199 4.15538 0
M  V30 75510 H 2766.78 3.41248 7.98759 0
M  V30 75511 H 2767.05 2.57728 6.42 0
M  V30 75512 H 2766.19 5.02657 6.42673 0
M  V30 75513 H 2763.53 4.11708 4.08956 0
M  V30 75514 H 2763.25 2.49626 6.61679 0
M  V30 75515 H 2762.26 3.8662 6.00862 0
M  V30 75516 H 2764.09 4.29991 7.97006 0
M  V30 75517 P 2762.22 6.144 6.45285 0
M  V30 75518 O 2762 7.54673 6.86199 0
M  V30 75519 O 2761.43 5.12391 7.179 0
M  V30 75520 O 2761.97 5.99158 4.88404 0
M  V30 75521 C 2762.91 6.60234 3.96415 0
M  V30 75522 C 2762.18 7.08259 2.72856 0
M  V30 75523 O 2761.97 5.9427 1.83651 0
M  V30 75524 C 2760.78 7.64886 2.9555 0
M  V30 75525 O 2760.39 8.53963 1.90717 0
M  V30 75526 C 2759.9 6.4116 2.90739 0
M  V30 75527 C 2760.61 5.55375 1.86963 0
M  V30 75528 N 2760.56 4.09664 2.15742 0
M  V30 75529 H 2763.4 7.45574 4.45629 0
M  V30 75530 H 2763.67 5.86232 3.67314 0
M  V30 75531 H 2762.81 7.84412 2.24479 0
M  V30 75532 P 2758.84 8.7635 1.60911 0
M  V30 75533 O 2758.62 10.1388 1.11561 0
M  V30 75534 O 2758.05 8.36503 2.79617 0
M  V30 75535 O 2758.59 7.71906 0.429565 0
M  V30 75536 C 2759.53 7.67148 -0.673689 0
M  V30 75537 C 2758.8 7.33666 -1.94851 0
M  V30 75538 O 2758.59 5.88816 -2.00759 0
M  V30 75539 C 2757.4 7.92526 -2.10483 0
M  V30 75540 O 2757.01 8.03063 -3.47693 0
M  V30 75541 C 2756.52 6.89602 -1.41652 0
M  V30 75542 C 2757.23 5.59201 -1.75185 0
M  V30 75543 N 2757.18 4.58235 -0.662552 0
M  V30 75544 C 2757.03 3.24451 -1.01643 0
M  V30 75545 O 2756.94 2.94958 -2.21722 0
M  V30 75546 N 2756.98 2.30408 0.165238 0
M  V30 75547 C 2757.08 2.66048 1.25118 0
M  V30 75548 N 2757.03 1.70787 2.16813 0
M  V30 75549 C 2757.23 4.02732 1.64413 0
M  V30 75550 C 2757.28 4.9488 0.63991 0
M  V30 75551 H 2760.02 8.65017 -0.777072 0
M  V30 75552 H 2760.29 6.90173 -0.474152 0
M  V30 75553 H 2759.43 7.66642 -2.79492 0
M  V30 75554 H 2756.77 5.16254 -2.65229 0
M  V30 75555 H 2756.49 7.06532 -0.329431 0
M  V30 75556 H 2755.5 6.91023 -1.82047 0
M  V30 75557 H 2757.33 8.90873 -1.62657 0
M  V30 75558 H 2757.41 6.00104 0.892197 0
M  V30 75559 H 2757.3 4.31733 2.69229 0
M  V30 75560 H 2756.92 0.724835 1.8844 0
M  V30 75561 H 2757.11 1.94716 3.16734 0
M  V30 75562 P 2755.46 8.03563 -3.84925 0
M  V30 75563 O 2755.24 8.85821 -5.0569 0
M  V30 75564 O 2754.67 8.41101 -2.65469 0
M  V30 75565 O 2755.21 6.4965 -4.18908 0
M  V30 75566 C 2756.15 5.81037 -5.05421 0
M  V30 75567 C 2755.42 4.78366 -5.89277 0
M  V30 75568 O 2755.21 3.58302 -5.08433 0
M  V30 75569 C 2754.02 5.17448 -6.36119 0
M  V30 75570 O 2753.63 4.45271 -7.53232 0
M  V30 75571 C 2753.14 4.74639 -5.19936 0
M  V30 75572 C 2753.85 3.49432 -4.70418 0
M  V30 75573 N 2753.8 3.31776 -3.22945 0
M  V30 75574 H 2756.64 6.54213 -5.71376 0
M  V30 75575 H 2756.91 5.30492 -4.44033 0
M  V30 75576 H 2756.05 4.55889 -6.76652 0
M  V30 75577 P 2752.08 4.23843 -7.83734 0
M  V30 75578 O 2751.86 4.19407 -9.29784 0
M  V30 75579 O 2751.29 5.24426 -7.09156 0
M  V30 75580 O 2751.83 2.7935 -7.20758 0
M  V30 75581 C 2752.77 1.7299 -7.50419 0
M  V30 75582 C 2752.04 0.406376 -7.57911 0
M  V30 75583 O 2751.83 -0.0897726 -6.21935 0
M  V30 75584 C 2750.64 0.447224 -8.1878 0
M  V30 75585 O 2750.25 -0.825065 -8.71101 0
M  V30 75586 C 2749.76 0.783801 -6.99623 0
M  V30 75587 C 2750.47 0.0619192 -5.85967 0
M  V30 75588 N 2750.42 0.7859 -4.56281 0
M  V30 75589 H 2753.26 1.93423 -8.4679 0
M  V30 75590 H 2753.53 1.68181 -6.71046 0
M  V30 75591 H 2752.67 -0.289041 -8.15388 0
M  V30 75592 P 2748.7 -1.17771 -8.83182 0
M  V30 75593 O 2748.48 -2.07206 -9.98732 0
M  V30 75594 O 2747.91 0.0743816 -8.81969 0
M  V30 75595 O 2748.45 -1.97652 -7.47304 0
M  V30 75596 C 2749.39 -3.01055 -7.08599 0
M  V30 75597 C 2748.66 -4.12613 -6.37049 0
M  V30 75598 O 2748.45 -3.72827 -4.97879 0
M  V30 75599 C 2747.26 -4.45719 -6.88164 0
M  V30 75600 O 2746.87 -5.7877 -6.5624 0
M  V30 75601 C 2746.38 -3.47768 -6.11991 0
M  V30 75602 C 2747.09 -3.39356 -4.77615 0
M  V30 75603 N 2747.04 -2.04571 -4.15244 0
M  V30 75604 C 2746.89 -1.98587 -2.78314 0
M  V30 75605 O 2746.8 -2.98134 -2.08835 0
M  V30 75606 N 2746.85 -0.714467 -2.24925 0
M  V30 75607 C 2746.94 0.470001 -2.94169 0
M  V30 75608 C 2747.09 0.312541 -4.36783 0
M  V30 75609 C 2747.14 -0.914512 -4.92583 0
M  V30 75610 H 2749.88 -3.41169 -7.98575 0
M  V30 75611 H 2750.15 -2.58295 -6.41556 0
M  V30 75612 H 2749.29 -5.02657 -6.42673 0
M  V30 75613 H 2746.63 -4.11637 -4.08885 0
M  V30 75614 H 2746.35 -2.49626 -6.61679 0
M  V30 75615 H 2745.36 -3.86566 -6.00778 0
M  V30 75616 H 2747.19 -4.29943 -7.96918 0
M  V30 75617 H 2747.27 -1.00937 -6.00374 0
M  V30 75618 P 2745.32 -6.144 -6.45285 0
M  V30 75619 O 2745.1 -7.54673 -6.86199 0
M  V30 75620 O 2744.53 -5.12391 -7.179 0
M  V30 75621 O 2745.07 -5.99158 -4.88404 0
M  V30 75622 C 2746.01 -6.60234 -3.96415 0
M  V30 75623 C 2745.28 -7.08259 -2.72856 0
M  V30 75624 O 2745.07 -5.9427 -1.83651 0
M  V30 75625 C 2743.88 -7.64886 -2.9555 0
M  V30 75626 O 2743.49 -8.53963 -1.90717 0
M  V30 75627 C 2743 -6.4116 -2.90739 0
M  V30 75628 C 2743.71 -5.55375 -1.86963 0
M  V30 75629 N 2743.66 -4.09448 -2.16152 0
M  V30 75630 C 2743.74 -3.46824 -3.37593 0
M  V30 75631 N 2743.67 -2.17422 -3.29777 0
M  V30 75632 C 2743.52 -1.93065 -1.94427 0
M  V30 75633 C 2743.39 -0.738053 -1.20141 0
M  V30 75634 N 2743.38 0.474256 -1.74676 0
M  V30 75635 N 2743.27 -0.850049 0.13045 0
M  V30 75636 C 2743.28 -2.06169 0.676992 0
M  V30 75637 N 2743.4 -3.23842 0.101312 0
M  V30 75638 C 2743.52 -3.09402 -1.23122 0
M  V30 75639 H 2746.5 -7.45574 -4.45629 0
M  V30 75640 H 2746.77 -5.85864 -3.679 0
M  V30 75641 H 2745.91 -7.84412 -2.24479 0
M  V30 75642 H 2743.25 -5.73457 -0.888562 0
M  V30 75643 H 2742.97 -5.90877 -3.88583 0
M  V30 75644 H 2741.98 -6.6596 -2.58858 0
M  V30 75645 H 2743.81 -8.16339 -3.92049 0
M  V30 75646 H 2743.86 -4.00505 -4.3174 0
M  V30 75647 H 2743.47 0.581337 -2.76658 0
M  V30 75648 H 2743.29 1.30811 -1.14888 0
M  V30 75649 H 2743.18 -2.08295 1.75542 0
M  V30 75650 P 2741.94 -8.7635 -1.60911 0
M  V30 75651 O 2741.72 -10.1388 -1.11561 0
M  V30 75652 O 2741.15 -8.36503 -2.79617 0
M  V30 75653 O 2741.69 -7.71806 -0.42951 0
M  V30 75654 C 2742.63 -7.67148 0.673689 0
M  V30 75655 C 2741.9 -7.33374 1.95559 0
M  V30 75656 O 2741.69 -5.88721 2.00726 0
M  V30 75657 C 2740.5 -7.92526 2.10483 0
M  V30 75658 O 2740.11 -8.02971 3.47653 0
M  V30 75659 C 2739.62 -6.89602 1.41652 0
M  V30 75660 C 2740.33 -5.59201 1.75185 0
M  V30 75661 N 2740.28 -4.58301 0.657969 0
M  V30 75662 H 2743.12 -8.65116 0.777161 0
M  V30 75663 H 2743.39 -6.9022 0.46725 0
M  V30 75664 H 2742.53 -7.66548 2.79458 0
M  V30 75665 H 2739.87 -5.16165 2.65183 0
M  V30 75666 H 2739.59 -7.06433 0.329384 0
M  V30 75667 H 2738.6 -6.90926 1.82021 0
M  V30 75668 H 2740.43 -8.90873 1.62657 0
M  V30 75669 P 2738.56 -8.03563 3.84925 0
M  V30 75670 O 2738.34 -8.85821 5.0569 0
M  V30 75671 O 2737.77 -8.41101 2.65469 0
M  V30 75672 O 2738.31 -6.4965 4.18908 0
M  V30 75673 C 2739.25 -5.81037 5.05421 0
M  V30 75674 C 2738.52 -4.78366 5.89277 0
M  V30 75675 O 2738.31 -3.58302 5.08433 0
M  V30 75676 C 2737.12 -5.17448 6.36119 0
M  V30 75677 O 2736.73 -4.45271 7.53232 0
M  V30 75678 C 2736.24 -4.74639 5.19936 0
M  V30 75679 C 2736.95 -3.49432 4.70418 0
M  V30 75680 N 2736.9 -3.31776 3.22945 0
M  V30 75681 H 2739.74 -6.54213 5.71376 0
M  V30 75682 H 2740.01 -5.30492 4.44033 0
M  V30 75683 H 2739.15 -4.55889 6.76652 0
M  V30 75684 P 2735.18 -4.23843 7.83734 0
M  V30 75685 O 2734.96 -4.19407 9.29784 0
M  V30 75686 O 2734.39 -5.24426 7.09156 0
M  V30 75687 O 2734.93 -2.7935 7.20758 0
M  V30 75688 C 2735.87 -1.7299 7.50419 0
M  V30 75689 C 2735.14 -0.406376 7.57911 0
M  V30 75690 O 2734.93 0.0897726 6.21935 0
M  V30 75691 C 2733.74 -0.447224 8.1878 0
M  V30 75692 O 2733.35 0.825065 8.71101 0
M  V30 75693 C 2732.86 -0.783801 6.99623 0
M  V30 75694 C 2733.57 -0.0619192 5.85967 0
M  V30 75695 N 2733.52 -0.7859 4.56281 0
M  V30 75696 H 2736.36 -1.93423 8.4679 0
M  V30 75697 H 2736.63 -1.68181 6.71046 0
M  V30 75698 H 2735.77 0.289041 8.15388 0
M  V30 75699 P 2731.8 1.17771 8.83182 0
M  V30 75700 O 2731.58 2.07206 9.98732 0
M  V30 75701 O 2731.01 -0.0743816 8.81969 0
M  V30 75702 O 2731.55 1.97652 7.47304 0
M  V30 75703 C 2732.49 3.01133 7.08783 0
M  V30 75704 C 2731.76 4.12613 6.37049 0
M  V30 75705 O 2731.55 3.72827 4.97879 0
M  V30 75706 C 2730.36 4.45085 6.88694 0
M  V30 75707 O 2729.97 5.7877 6.5624 0
M  V30 75708 C 2729.48 3.47817 6.12078 0
M  V30 75709 C 2730.19 3.39414 4.77697 0
M  V30 75710 N 2730.14 2.04199 4.15538 0
M  V30 75711 H 2732.98 3.41248 7.98759 0
M  V30 75712 H 2733.25 2.57728 6.42 0
M  V30 75713 H 2732.39 5.02657 6.42673 0
M  V30 75714 H 2729.73 4.11708 4.08956 0
M  V30 75715 H 2729.45 2.49626 6.61679 0
M  V30 75716 H 2728.46 3.8662 6.00862 0
M  V30 75717 H 2730.29 4.29991 7.97006 0
M  V30 75718 P 2728.42 6.144 6.45285 0
M  V30 75719 O 2728.2 7.54673 6.86199 0
M  V30 75720 O 2727.63 5.12391 7.179 0
M  V30 75721 O 2728.17 5.99158 4.88404 0
M  V30 75722 C 2729.11 6.60234 3.96415 0
M  V30 75723 C 2728.38 7.08259 2.72856 0
M  V30 75724 O 2728.17 5.9427 1.83651 0
M  V30 75725 C 2726.98 7.64886 2.9555 0
M  V30 75726 O 2726.59 8.53963 1.90717 0
M  V30 75727 C 2726.1 6.4116 2.90739 0
M  V30 75728 C 2726.81 5.55375 1.86963 0
M  V30 75729 N 2726.76 4.09664 2.15742 0
M  V30 75730 C 2726.84 3.44381 3.37233 0
M  V30 75731 N 2726.76 2.14131 3.28347 0
M  V30 75732 C 2726.62 1.90247 1.91588 0
M  V30 75733 C 2726.49 0.683992 1.20892 0
M  V30 75734 N 2726.37 0.903396 -0.173998 0
M  V30 75735 C 2726.37 2.14171 -0.784879 0
M  V30 75736 N 2726.24 2.1435 -2.11317 0
M  V30 75737 N 2726.5 3.28784 -0.119316 0
M  V30 75738 C 2726.62 3.0977 1.22194 0
M  V30 75739 H 2729.6 7.45574 4.45629 0
M  V30 75740 H 2729.87 5.86232 3.67314 0
M  V30 75741 H 2729.01 7.84412 2.24479 0
M  V30 75742 P 2725.04 8.7635 1.60911 0
M  V30 75743 O 2724.82 10.1388 1.11561 0
M  V30 75744 O 2724.25 8.36503 2.79617 0
M  V30 75745 O 2724.79 7.71806 0.42951 0
M  V30 75746 C 2725.73 7.67148 -0.673689 0
M  V30 75747 C 2725 7.33374 -1.95559 0
M  V30 75748 O 2724.79 5.88721 -2.00726 0
M  V30 75749 C 2723.6 7.92526 -2.10483 0
M  V30 75750 O 2723.21 8.02971 -3.47653 0
M  V30 75751 C 2722.72 6.89602 -1.41652 0
M  V30 75752 C 2723.43 5.59201 -1.75185 0
M  V30 75753 N 2723.38 4.58235 -0.662552 0
M  V30 75754 H 2726.22 8.65116 -0.777161 0
M  V30 75755 H 2726.49 6.90173 -0.474152 0
M  V30 75756 H 2725.63 7.66548 -2.79458 0
M  V30 75757 P 2721.66 8.03563 -3.84925 0
M  V30 75758 O 2721.44 8.85821 -5.0569 0
M  V30 75759 O 2720.87 8.41101 -2.65469 0
M  V30 75760 O 2721.41 6.4965 -4.18908 0
M  V30 75761 C 2722.35 5.81037 -5.05421 0
M  V30 75762 C 2721.62 4.78366 -5.89277 0
M  V30 75763 O 2721.41 3.58302 -5.08433 0
M  V30 75764 C 2720.22 5.17448 -6.36119 0
M  V30 75765 O 2719.83 4.45271 -7.53232 0
M  V30 75766 C 2719.34 4.74639 -5.19936 0
M  V30 75767 C 2720.05 3.49432 -4.70418 0
M  V30 75768 N 2720 3.32099 -3.22613 0
M  V30 75769 C 2720.08 4.28245 -2.25527 0
M  V30 75770 N 2720.01 3.80823 -1.04874 0
M  V30 75771 C 2719.86 2.44571 -1.23535 0
M  V30 75772 C 2719.73 1.37068 -0.330675 0
M  V30 75773 N 2719.72 1.51472 0.990824 0
M  V30 75774 N 2719.61 0.138614 -0.848756 0
M  V30 75775 C 2719.62 -0.00675923 -2.16999 0
M  V30 75776 N 2719.74 0.904372 -3.11122 0
M  V30 75777 C 2719.86 2.12707 -2.56212 0
M  V30 75778 H 2722.84 6.54213 -5.71376 0
M  V30 75779 H 2723.11 5.30936 -4.43503 0
M  V30 75780 H 2722.25 4.55889 -6.76652 0
M  V30 75781 H 2719.59 2.61715 -5.17932 0
M  V30 75782 H 2719.31 5.52155 -4.41878 0
M  V30 75783 H 2718.32 4.51981 -5.53374 0
M  V30 75784 H 2720.15 6.25124 -6.55234 0
M  V30 75785 H 2720.2 5.34372 -2.47488 0
M  V30 75786 H 2719.81 2.45153 1.4078 0
M  V30 75787 H 2719.63 0.688422 1.59911 0
M  V30 75788 H 2719.52 -1.02584 -2.52346 0
M  V30 75789 P 2718.28 4.23843 -7.83734 0
M  V30 75790 O 2718.06 4.19407 -9.29784 0
M  V30 75791 O 2717.49 5.24426 -7.09156 0
M  V30 75792 O 2718.03 2.7935 -7.20758 0
M  V30 75793 C 2718.97 1.7299 -7.50419 0
M  V30 75794 C 2718.24 0.406376 -7.57911 0
M  V30 75795 O 2718.03 -0.0897726 -6.21935 0
M  V30 75796 C 2716.84 0.447224 -8.1878 0
M  V30 75797 O 2716.45 -0.825065 -8.71101 0
M  V30 75798 C 2715.96 0.783801 -6.99623 0
M  V30 75799 C 2716.67 0.0619192 -5.85967 0
M  V30 75800 N 2716.62 0.790462 -4.56202 0
M  V30 75801 C 2716.7 2.13895 -4.34171 0
M  V30 75802 N 2716.63 2.46449 -3.08687 0
M  V30 75803 C 2716.48 1.2525 -2.43697 0
M  V30 75804 C 2716.35 0.914535 -1.07318 0
M  V30 75805 N 2716.34 1.80782 -0.0887348 0
M  V30 75806 N 2716.23 -0.386745 -0.768133 0
M  V30 75807 C 2716.24 -1.28096 -1.75159 0
M  V30 75808 N 2716.36 -1.09708 -3.04861 0
M  V30 75809 C 2716.48 0.214857 -3.32306 0
M  V30 75810 H 2719.46 1.93423 -8.4679 0
M  V30 75811 H 2719.73 1.68852 -6.70877 0
M  V30 75812 H 2718.87 -0.289041 -8.15388 0
M  V30 75813 H 2716.21 -0.927006 -5.72848 0
M  V30 75814 H 2715.93 1.86973 -6.82036 0
M  V30 75815 H 2714.94 0.403953 -7.13357 0
M  V30 75816 H 2716.77 1.20599 -8.97534 0
M  V30 75817 H 2716.82 2.86846 -5.14318 0
M  V30 75818 H 2716.43 2.81082 -0.302037 0
M  V30 75819 H 2716.25 1.49688 0.889064 0
M  V30 75820 H 2716.14 -2.31317 -1.43855 0
M  V30 75821 P 2714.9 -1.17771 -8.83182 0
M  V30 75822 O 2714.68 -2.07206 -9.98732 0
M  V30 75823 O 2714.11 0.0743816 -8.81969 0
M  V30 75824 O 2714.65 -1.97652 -7.47304 0
M  V30 75825 C 2715.59 -3.01133 -7.08783 0
M  V30 75826 C 2714.86 -4.12613 -6.37049 0
M  V30 75827 O 2714.65 -3.72827 -4.97879 0
M  V30 75828 C 2713.46 -4.45085 -6.88694 0
M  V30 75829 O 2713.07 -5.7877 -6.5624 0
M  V30 75830 C 2712.58 -3.47817 -6.12078 0
M  V30 75831 C 2713.29 -3.39414 -4.77697 0
M  V30 75832 N 2713.24 -2.04615 -4.15333 0
M  V30 75833 H 2716.08 -3.41248 -7.98759 0
M  V30 75834 H 2716.35 -2.5837 -6.41742 0
M  V30 75835 H 2715.49 -5.02657 -6.42673 0
M  V30 75836 P 2711.52 -6.144 -6.45285 0
M  V30 75837 O 2711.3 -7.54673 -6.86199 0
M  V30 75838 O 2710.73 -5.12391 -7.179 0
M  V30 75839 O 2711.27 -5.99158 -4.88404 0
M  V30 75840 C 2712.21 -6.60234 -3.96415 0
M  V30 75841 C 2711.48 -7.08259 -2.72856 0
M  V30 75842 O 2711.27 -5.9427 -1.83651 0
M  V30 75843 C 2710.08 -7.64886 -2.9555 0
M  V30 75844 O 2709.69 -8.53963 -1.90717 0
M  V30 75845 C 2709.2 -6.4116 -2.90739 0
M  V30 75846 C 2709.91 -5.55375 -1.86963 0
M  V30 75847 N 2709.86 -4.09664 -2.15742 0
M  V30 75848 C 2709.94 -3.44381 -3.37233 0
M  V30 75849 N 2709.86 -2.14131 -3.28347 0
M  V30 75850 C 2709.72 -1.90247 -1.91588 0
M  V30 75851 C 2709.59 -0.683992 -1.20892 0
M  V30 75852 N 2709.47 -0.903396 0.173998 0
M  V30 75853 C 2709.47 -2.14171 0.784879 0
M  V30 75854 N 2709.34 -2.1435 2.11317 0
M  V30 75855 N 2709.6 -3.28784 0.119316 0
M  V30 75856 C 2709.72 -3.0977 -1.22194 0
M  V30 75857 H 2712.7 -7.45574 -4.45629 0
M  V30 75858 H 2712.97 -5.86232 -3.67314 0
M  V30 75859 H 2712.11 -7.84412 -2.24479 0
M  V30 75860 P 2708.14 -8.7635 -1.60911 0
M  V30 75861 O 2707.92 -10.1388 -1.11561 0
M  V30 75862 O 2707.35 -8.36503 -2.79617 0
M  V30 75863 O 2707.89 -7.71806 -0.42951 0
M  V30 75864 C 2708.83 -7.67148 0.673689 0
M  V30 75865 C 2708.1 -7.33374 1.95559 0
M  V30 75866 O 2707.89 -5.88721 2.00726 0
M  V30 75867 C 2706.7 -7.92526 2.10483 0
M  V30 75868 O 2706.31 -8.02971 3.47653 0
M  V30 75869 C 2705.82 -6.89602 1.41652 0
M  V30 75870 C 2706.53 -5.59201 1.75185 0
M  V30 75871 N 2706.48 -4.58235 0.662552 0
M  V30 75872 H 2709.32 -8.65116 0.777161 0
M  V30 75873 H 2709.6 -6.90173 0.474152 0
M  V30 75874 H 2708.73 -7.66548 2.79458 0
M  V30 75875 P 2704.76 -8.03563 3.84925 0
M  V30 75876 O 2704.54 -8.85821 5.0569 0
M  V30 75877 O 2703.97 -8.41101 2.65469 0
M  V30 75878 O 2704.51 -6.4965 4.18908 0
M  V30 75879 C 2705.45 -5.81037 5.05421 0
M  V30 75880 C 2704.72 -4.78366 5.89277 0
M  V30 75881 O 2704.51 -3.58302 5.08433 0
M  V30 75882 C 2703.32 -5.17448 6.36119 0
M  V30 75883 O 2702.93 -4.45271 7.53232 0
M  V30 75884 C 2702.44 -4.74639 5.19936 0
M  V30 75885 C 2703.15 -3.49432 4.70418 0
M  V30 75886 N 2703.1 -3.31776 3.22945 0
M  V30 75887 C 2703.18 -4.27147 2.23315 0
M  V30 75888 N 2703.1 -3.78447 1.02186 0
M  V30 75889 C 2702.96 -2.41001 1.21732 0
M  V30 75890 C 2702.83 -1.36111 0.27694 0
M  V30 75891 N 2702.71 -0.113683 0.912949 0
M  V30 75892 C 2702.71 0.0846396 2.27943 0
M  V30 75893 N 2702.58 1.34737 2.6916 0
M  V30 75894 N 2702.84 -0.902521 3.16379 0
M  V30 75895 C 2702.96 -2.11937 2.56849 0
M  V30 75896 H 2705.94 -6.54213 5.71376 0
M  V30 75897 H 2706.22 -5.30492 4.44033 0
M  V30 75898 H 2705.35 -4.55889 6.76652 0
M  V30 75899 P 2701.38 -4.23843 7.83734 0
M  V30 75900 O 2701.16 -4.19407 9.29784 0
M  V30 75901 O 2700.59 -5.24426 7.09156 0
M  V30 75902 O 2701.13 -2.79386 7.20852 0
M  V30 75903 C 2702.07 -1.7299 7.50419 0
M  V30 75904 C 2701.34 -0.41401 7.5797 0
M  V30 75905 O 2701.13 0.089787 6.22035 0
M  V30 75906 C 2699.94 -0.447224 8.1878 0
M  V30 75907 O 2699.55 0.825159 8.71201 0
M  V30 75908 C 2699.06 -0.783801 6.99623 0
M  V30 75909 C 2699.77 -0.0619192 5.85967 0
M  V30 75910 N 2699.72 -0.7859 4.56281 0
M  V30 75911 C 2699.57 -0.0359258 3.39981 0
M  V30 75912 O 2699.48 1.19723 3.49038 0
M  V30 75913 N 2699.52 -0.869151 2.14025 0
M  V30 75914 C 2699.62 -2.01207 2.14363 0
M  V30 75915 N 2699.57 -2.58978 0.954287 0
M  V30 75916 C 2699.77 -2.80817 3.32215 0
M  V30 75917 C 2699.82 -2.13785 4.50884 0
M  V30 75918 H 2702.56 -1.93401 8.46693 0
M  V30 75919 H 2702.83 -1.68181 6.71046 0
M  V30 75920 H 2701.97 0.289076 8.15488 0
M  V30 75921 H 2699.31 0.927166 5.72947 0
M  V30 75922 H 2699.03 -1.87 6.82132 0
M  V30 75923 H 2698.04 -0.404009 7.13457 0
M  V30 75924 H 2699.88 -1.20599 8.97534 0
M  V30 75925 H 2699.95 -2.70295 5.43162 0
M  V30 75926 H 2699.85 -3.89465 3.27406 0
M  V30 75927 H 2699.46 -2.01616 0.107046 0
M  V30 75928 H 2699.65 -3.61403 0.873101 0
M  V30 75929 P 2698 1.17771 8.83182 0
M  V30 75930 O 2697.78 2.07206 9.98732 0
M  V30 75931 O 2697.21 -0.0743816 8.81969 0
M  V30 75932 O 2697.75 1.97678 7.474 0
M  V30 75933 C 2698.69 3.01133 7.08783 0
M  V30 75934 C 2697.96 4.1203 6.37546 0
M  V30 75935 O 2697.75 3.72887 4.9796 0
M  V30 75936 C 2696.56 4.45085 6.88694 0
M  V30 75937 O 2696.17 5.78836 6.56315 0
M  V30 75938 C 2695.68 3.47817 6.12078 0
M  V30 75939 C 2696.39 3.39414 4.77697 0
M  V30 75940 N 2696.34 2.04615 4.15333 0
M  V30 75941 C 2696.19 1.96929 2.77162 0
M  V30 75942 O 2696.1 3.02017 2.12006 0
M  V30 75943 N 2696.14 0.55485 2.24237 0
M  V30 75944 C 2696.24 -0.367808 2.9169 0
M  V30 75945 N 2696.19 -1.53426 2.29427 0
M  V30 75946 C 2696.39 -0.319148 4.33828 0
M  V30 75947 C 2696.44 0.920672 4.90433 0
M  V30 75948 H 2699.18 3.41209 7.98667 0
M  V30 75949 H 2699.45 2.5837 6.41742 0
M  V30 75950 H 2698.59 5.02718 6.42752 0
M  V30 75951 H 2695.93 4.11779 4.09026 0
M  V30 75952 H 2695.65 2.49661 6.61772 0
M  V30 75953 H 2694.66 3.86674 6.00946 0
M  V30 75954 H 2696.5 4.29991 7.97006 0
M  V30 75955 H 2696.57 1.00589 5.98303 0
M  V30 75956 H 2696.47 -1.22639 4.93799 0
M  V30 75957 H 2696.08 -1.56819 1.27167 0
M  V30 75958 H 2696.27 -2.41062 2.83063 0
M  V30 75959 P 2694.62 6.144 6.45285 0
M  V30 75960 O 2694.4 7.54673 6.86199 0
M  V30 75961 O 2693.83 5.12391 7.179 0
M  V30 75962 O 2694.37 5.99158 4.88404 0
M  V30 75963 C 2695.31 6.60234 3.96415 0
M  V30 75964 C 2694.58 7.08259 2.72856 0
M  V30 75965 O 2694.37 5.9427 1.83651 0
M  V30 75966 C 2693.18 7.64886 2.9555 0
M  V30 75967 O 2692.79 8.53963 1.90717 0
M  V30 75968 C 2692.3 6.4116 2.90739 0
M  V30 75969 C 2693.01 5.55375 1.86963 0
M  V30 75970 N 2692.96 4.09664 2.15742 0
M  V30 75971 H 2695.8 7.45574 4.45629 0
M  V30 75972 H 2696.08 5.86232 3.67314 0
M  V30 75973 H 2695.21 7.84412 2.24479 0
M  V30 75974 P 2691.24 8.7635 1.60911 0
M  V30 75975 O 2691.02 10.1388 1.11561 0
M  V30 75976 O 2690.45 8.36503 2.79617 0
M  V30 75977 O 2690.99 7.71806 0.42951 0
M  V30 75978 C 2691.93 7.67148 -0.673689 0
M  V30 75979 C 2691.2 7.33374 -1.95559 0
M  V30 75980 O 2690.99 5.88721 -2.00726 0
M  V30 75981 C 2689.8 7.92526 -2.10483 0
M  V30 75982 O 2689.41 8.02971 -3.47653 0
M  V30 75983 C 2688.92 6.89602 -1.41652 0
M  V30 75984 C 2689.63 5.59201 -1.75185 0
M  V30 75985 N 2689.58 4.58301 -0.657969 0
M  V30 75986 H 2692.42 8.65116 -0.777161 0
M  V30 75987 H 2692.7 6.9022 -0.46725 0
M  V30 75988 H 2691.83 7.66548 -2.79458 0
M  V30 75989 H 2689.17 5.16165 -2.65183 0
M  V30 75990 H 2688.89 7.06433 -0.329384 0
M  V30 75991 H 2687.9 6.90926 -1.82021 0
M  V30 75992 H 2689.74 8.90873 -1.62657 0
M  V30 75993 P 2687.86 8.03563 -3.84925 0
M  V30 75994 O 2687.64 8.85821 -5.0569 0
M  V30 75995 O 2687.07 8.41101 -2.65469 0
M  V30 75996 O 2687.61 6.4965 -4.18908 0
M  V30 75997 C 2688.55 5.81037 -5.05421 0
M  V30 75998 C 2687.82 4.78366 -5.89277 0
M  V30 75999 O 2687.61 3.58302 -5.08433 0
M  V30 76000 C 2686.42 5.17448 -6.36119 0
M  V30 76001 O 2686.03 4.45271 -7.53232 0
M  V30 76002 C 2685.54 4.74639 -5.19936 0
M  V30 76003 C 2686.25 3.49432 -4.70418 0
M  V30 76004 N 2686.2 3.32099 -3.22613 0
M  V30 76005 H 2689.04 6.54213 -5.71376 0
M  V30 76006 H 2689.32 5.30936 -4.43503 0
M  V30 76007 H 2688.45 4.55889 -6.76652 0
M  V30 76008 H 2685.79 2.61715 -5.17932 0
M  V30 76009 H 2685.51 5.52155 -4.41878 0
M  V30 76010 H 2684.52 4.51981 -5.53374 0
M  V30 76011 H 2686.36 6.25124 -6.55234 0
M  V30 76012 P 2684.48 4.23843 -7.83734 0
M  V30 76013 O 2684.26 4.19407 -9.29784 0
M  V30 76014 O 2683.69 5.24426 -7.09156 0
M  V30 76015 O 2684.23 2.7935 -7.20758 0
M  V30 76016 C 2685.17 1.7299 -7.50419 0
M  V30 76017 C 2684.44 0.406376 -7.57911 0
M  V30 76018 O 2684.23 -0.0897726 -6.21935 0
M  V30 76019 C 2683.04 0.447224 -8.1878 0
M  V30 76020 O 2682.65 -0.825065 -8.71101 0
M  V30 76021 C 2682.16 0.783801 -6.99623 0
M  V30 76022 C 2682.87 0.0619192 -5.85967 0
M  V30 76023 N 2682.82 0.7859 -4.56281 0
M  V30 76024 H 2685.66 1.93423 -8.4679 0
M  V30 76025 H 2685.94 1.68181 -6.71046 0
M  V30 76026 H 2685.07 -0.289041 -8.15388 0
M  V30 76027 P 2681.1 -1.17771 -8.83182 0
M  V30 76028 O 2680.88 -2.07206 -9.98732 0
M  V30 76029 O 2680.31 0.0743816 -8.81969 0
M  V30 76030 O 2680.85 -1.97652 -7.47304 0
M  V30 76031 C 2681.79 -3.01133 -7.08783 0
M  V30 76032 C 2681.06 -4.12613 -6.37049 0
M  V30 76033 O 2680.85 -3.72827 -4.97879 0
M  V30 76034 C 2679.66 -4.45085 -6.88694 0
M  V30 76035 O 2679.27 -5.7877 -6.5624 0
M  V30 76036 C 2678.78 -3.47817 -6.12078 0
M  V30 76037 C 2679.49 -3.39414 -4.77697 0
M  V30 76038 N 2679.44 -2.04615 -4.15333 0
M  V30 76039 H 2682.28 -3.41248 -7.98759 0
M  V30 76040 H 2682.56 -2.5837 -6.41742 0
M  V30 76041 H 2681.69 -5.02657 -6.42673 0
M  V30 76042 P 2677.72 -6.144 -6.45285 0
M  V30 76043 O 2677.5 -7.54673 -6.86199 0
M  V30 76044 O 2676.93 -5.12391 -7.179 0
M  V30 76045 O 2677.47 -5.99158 -4.88404 0
M  V30 76046 C 2678.41 -6.60234 -3.96415 0
M  V30 76047 C 2677.68 -7.08259 -2.72856 0
M  V30 76048 O 2677.47 -5.9427 -1.83651 0
M  V30 76049 C 2676.28 -7.64886 -2.9555 0
M  V30 76050 O 2675.89 -8.53963 -1.90717 0
M  V30 76051 C 2675.4 -6.4116 -2.90739 0
M  V30 76052 C 2676.11 -5.55375 -1.86963 0
M  V30 76053 N 2676.06 -4.09664 -2.15742 0
M  V30 76054 H 2678.9 -7.45574 -4.45629 0
M  V30 76055 H 2679.18 -5.86232 -3.67314 0
M  V30 76056 H 2678.31 -7.84412 -2.24479 0
M  V30 76057 P 2674.34 -8.7635 -1.60911 0
M  V30 76058 O 2674.12 -10.1388 -1.11561 0
M  V30 76059 O 2673.55 -8.36503 -2.79617 0
M  V30 76060 O 2674.09 -7.71806 -0.42951 0
M  V30 76061 C 2675.03 -7.67148 0.673689 0
M  V30 76062 C 2674.3 -7.33374 1.95559 0
M  V30 76063 O 2674.09 -5.88721 2.00726 0
M  V30 76064 C 2672.9 -7.92526 2.10483 0
M  V30 76065 O 2672.51 -8.02971 3.47653 0
M  V30 76066 C 2672.02 -6.89602 1.41652 0
M  V30 76067 C 2672.73 -5.59201 1.75185 0
M  V30 76068 N 2672.68 -4.58301 0.657969 0
M  V30 76069 H 2675.52 -8.65116 0.777161 0
M  V30 76070 H 2675.8 -6.9022 0.46725 0
M  V30 76071 H 2674.93 -7.66548 2.79458 0
M  V30 76072 H 2672.27 -5.16165 2.65183 0
M  V30 76073 H 2671.99 -7.06433 0.329384 0
M  V30 76074 H 2671 -6.90926 1.82021 0
M  V30 76075 H 2672.84 -8.90873 1.62657 0
M  V30 76076 P 2670.96 -8.03563 3.84925 0
M  V30 76077 O 2670.74 -8.85821 5.0569 0
M  V30 76078 O 2670.17 -8.41101 2.65469 0
M  V30 76079 O 2670.71 -6.4965 4.18908 0
M  V30 76080 C 2671.65 -5.81037 5.05421 0
M  V30 76081 C 2670.92 -4.78366 5.89277 0
M  V30 76082 O 2670.71 -3.58302 5.08433 0
M  V30 76083 C 2669.52 -5.17448 6.36119 0
M  V30 76084 O 2669.13 -4.45271 7.53232 0
M  V30 76085 C 2668.64 -4.74639 5.19936 0
M  V30 76086 C 2669.35 -3.49432 4.70418 0
M  V30 76087 N 2669.3 -3.31776 3.22945 0
M  V30 76088 H 2672.14 -6.54213 5.71376 0
M  V30 76089 H 2672.42 -5.30492 4.44033 0
M  V30 76090 H 2671.55 -4.55889 6.76652 0
M  V30 76091 P 2667.58 -4.23843 7.83734 0
M  V30 76092 O 2667.36 -4.19407 9.29784 0
M  V30 76093 O 2666.79 -5.24426 7.09156 0
M  V30 76094 O 2667.33 -2.7935 7.20758 0
M  V30 76095 C 2668.27 -1.7299 7.50419 0
M  V30 76096 C 2667.54 -0.406376 7.57911 0
M  V30 76097 O 2667.33 0.0897726 6.21935 0
M  V30 76098 C 2666.14 -0.447224 8.1878 0
M  V30 76099 O 2665.75 0.825065 8.71101 0
M  V30 76100 C 2665.26 -0.783801 6.99623 0
M  V30 76101 C 2665.97 -0.0619192 5.85967 0
M  V30 76102 N 2665.92 -0.7859 4.56281 0
M  V30 76103 H 2668.76 -1.93423 8.4679 0
M  V30 76104 H 2669.04 -1.68181 6.71046 0
M  V30 76105 H 2668.17 0.289041 8.15388 0
M  V30 76106 P 2664.2 1.17771 8.83182 0
M  V30 76107 O 2663.98 2.07206 9.98732 0
M  V30 76108 O 2663.41 -0.0743816 8.81969 0
M  V30 76109 O 2663.95 1.97652 7.47304 0
M  V30 76110 C 2664.89 3.01133 7.08783 0
M  V30 76111 C 2664.16 4.12613 6.37049 0
M  V30 76112 O 2663.95 3.72827 4.97879 0
M  V30 76113 C 2662.76 4.45085 6.88694 0
M  V30 76114 O 2662.37 5.7877 6.5624 0
M  V30 76115 C 2661.88 3.47817 6.12078 0
M  V30 76116 C 2662.59 3.39414 4.77697 0
M  V30 76117 N 2662.54 2.04615 4.15333 0
M  V30 76118 H 2665.38 3.41248 7.98759 0
M  V30 76119 H 2665.66 2.5837 6.41742 0
M  V30 76120 H 2664.79 5.02657 6.42673 0
M  V30 76121 P 2660.82 6.144 6.45285 0
M  V30 76122 O 2660.6 7.54673 6.86199 0
M  V30 76123 O 2660.03 5.12391 7.179 0
M  V30 76124 O 2660.57 5.99158 4.88404 0
M  V30 76125 C 2661.51 6.60234 3.96415 0
M  V30 76126 C 2660.78 7.08259 2.72856 0
M  V30 76127 O 2660.57 5.9427 1.83651 0
M  V30 76128 C 2659.38 7.64886 2.9555 0
M  V30 76129 O 2658.99 8.53963 1.90717 0
M  V30 76130 C 2658.5 6.4116 2.90739 0
M  V30 76131 C 2659.21 5.55375 1.86963 0
M  V30 76132 N 2659.16 4.09664 2.15742 0
M  V30 76133 H 2662 7.45574 4.45629 0
M  V30 76134 H 2662.28 5.86232 3.67314 0
M  V30 76135 H 2661.41 7.84412 2.24479 0
M  V30 76136 P 2657.44 8.7635 1.60911 0
M  V30 76137 O 2657.22 10.1388 1.11561 0
M  V30 76138 O 2656.65 8.36503 2.79617 0
M  V30 76139 O 2657.19 7.71806 0.42951 0
M  V30 76140 C 2658.13 7.67148 -0.673689 0
M  V30 76141 C 2657.4 7.33374 -1.95559 0
M  V30 76142 O 2657.19 5.88721 -2.00726 0
M  V30 76143 C 2656 7.92526 -2.10483 0
M  V30 76144 O 2655.61 8.02971 -3.47653 0
M  V30 76145 C 2655.12 6.89602 -1.41652 0
M  V30 76146 C 2655.83 5.59201 -1.75185 0
M  V30 76147 N 2655.78 4.58301 -0.657969 0
M  V30 76148 H 2658.62 8.65116 -0.777161 0
M  V30 76149 H 2658.9 6.9022 -0.46725 0
M  V30 76150 H 2658.03 7.66548 -2.79458 0
M  V30 76151 H 2655.37 5.16165 -2.65183 0
M  V30 76152 H 2655.09 7.06433 -0.329384 0
M  V30 76153 H 2654.1 6.90926 -1.82021 0
M  V30 76154 H 2655.94 8.90873 -1.62657 0
M  V30 76155 P 2654.06 8.03563 -3.84925 0
M  V30 76156 O 2653.84 8.85821 -5.0569 0
M  V30 76157 O 2653.27 8.41101 -2.65469 0
M  V30 76158 O 2653.81 6.4965 -4.18908 0
M  V30 76159 C 2654.75 5.81037 -5.05421 0
M  V30 76160 C 2654.02 4.78366 -5.89277 0
M  V30 76161 O 2653.81 3.58302 -5.08433 0
M  V30 76162 C 2652.62 5.17448 -6.36119 0
M  V30 76163 O 2652.23 4.45271 -7.53232 0
M  V30 76164 C 2651.74 4.74639 -5.19936 0
M  V30 76165 C 2652.45 3.49432 -4.70418 0
M  V30 76166 N 2652.4 3.31776 -3.22945 0
M  V30 76167 H 2655.24 6.54213 -5.71376 0
M  V30 76168 H 2655.52 5.30492 -4.44033 0
M  V30 76169 H 2654.65 4.55889 -6.76652 0
M  V30 76170 P 2650.68 4.23843 -7.83734 0
M  V30 76171 O 2650.46 4.19407 -9.29784 0
M  V30 76172 O 2649.89 5.24426 -7.09156 0
M  V30 76173 O 2650.43 2.7935 -7.20758 0
M  V30 76174 C 2651.37 1.7299 -7.50419 0
M  V30 76175 C 2650.64 0.406376 -7.57911 0
M  V30 76176 O 2650.43 -0.0897726 -6.21935 0
M  V30 76177 C 2649.24 0.447224 -8.1878 0
M  V30 76178 O 2648.85 -0.825065 -8.71101 0
M  V30 76179 C 2648.36 0.783801 -6.99623 0
M  V30 76180 C 2649.07 0.0619192 -5.85967 0
M  V30 76181 N 2649.02 0.7859 -4.56281 0
M  V30 76182 H 2651.86 1.93423 -8.4679 0
M  V30 76183 H 2652.14 1.68181 -6.71046 0
M  V30 76184 H 2651.27 -0.289041 -8.15388 0
M  V30 76185 P 2647.3 -1.17771 -8.83182 0
M  V30 76186 O 2647.08 -2.07206 -9.98732 0
M  V30 76187 O 2646.51 0.0743816 -8.81969 0
M  V30 76188 O 2647.05 -1.97652 -7.47304 0
M  V30 76189 C 2647.99 -3.01133 -7.08783 0
M  V30 76190 C 2647.26 -4.12613 -6.37049 0
M  V30 76191 O 2647.05 -3.72827 -4.97879 0
M  V30 76192 C 2645.86 -4.45085 -6.88694 0
M  V30 76193 O 2645.47 -5.7877 -6.5624 0
M  V30 76194 C 2644.98 -3.47817 -6.12078 0
M  V30 76195 C 2645.69 -3.39414 -4.77697 0
M  V30 76196 N 2645.64 -2.04199 -4.15538 0
M  V30 76197 C 2645.72 -0.821545 -4.76977 0
M  V30 76198 N 2645.65 0.1794 -3.94592 0
M  V30 76199 C 2645.5 -0.419121 -2.70776 0
M  V30 76200 C 2645.37 0.109072 -1.40577 0
M  V30 76201 N 2645.36 1.4104 -1.1344 0
M  V30 76202 N 2645.25 -0.764381 -0.39411 0
M  V30 76203 C 2645.26 -2.06587 -0.664135 0
M  V30 76204 N 2645.38 -2.67948 -1.82153 0
M  V30 76205 C 2645.5 -1.77942 -2.8147 0
M  V30 76206 H 2648.48 -3.41248 -7.98759 0
M  V30 76207 H 2648.76 -2.57728 -6.42 0
M  V30 76208 H 2647.89 -5.02657 -6.42673 0
M  V30 76209 H 2645.23 -4.11708 -4.08956 0
M  V30 76210 H 2644.95 -2.49626 -6.61679 0
M  V30 76211 H 2643.96 -3.8662 -6.00862 0
M  V30 76212 H 2645.8 -4.29991 -7.97006 0
M  V30 76213 H 2645.84 -0.702451 -5.84696 0
M  V30 76214 H 2645.46 2.09647 -1.89651 0
M  V30 76215 H 2645.27 1.73358 -0.160575 0
M  V30 76216 H 2645.16 -2.71695 0.195838 0
M  V30 76217 P 2643.92 -6.144 -6.45285 0
M  V30 76218 O 2643.7 -7.54673 -6.86199 0
M  V30 76219 O 2643.13 -5.12391 -7.179 0
M  V30 76220 O 2643.67 -5.99158 -4.88404 0
M  V30 76221 C 2644.61 -6.60234 -3.96415 0
M  V30 76222 C 2643.88 -7.08259 -2.72856 0
M  V30 76223 O 2643.67 -5.9427 -1.83651 0
M  V30 76224 C 2642.48 -7.64886 -2.9555 0
M  V30 76225 O 2642.09 -8.53963 -1.90717 0
M  V30 76226 C 2641.6 -6.4116 -2.90739 0
M  V30 76227 C 2642.31 -5.55375 -1.86963 0
M  V30 76228 N 2642.26 -4.09664 -2.15742 0
M  V30 76229 H 2645.1 -7.45574 -4.45629 0
M  V30 76230 H 2645.38 -5.86232 -3.67314 0
M  V30 76231 H 2644.51 -7.84412 -2.24479 0
M  V30 76232 P 2640.54 -8.7635 -1.60911 0
M  V30 76233 O 2640.32 -10.1388 -1.11561 0
M  V30 76234 O 2639.75 -8.36503 -2.79617 0
M  V30 76235 O 2640.29 -7.71806 -0.42951 0
M  V30 76236 C 2641.23 -7.67148 0.673689 0
M  V30 76237 C 2640.5 -7.33374 1.95559 0
M  V30 76238 O 2640.29 -5.88721 2.00726 0
M  V30 76239 C 2639.1 -7.92526 2.10483 0
M  V30 76240 O 2638.71 -8.02971 3.47653 0
M  V30 76241 C 2638.22 -6.89602 1.41652 0
M  V30 76242 C 2638.93 -5.59201 1.75185 0
M  V30 76243 N 2638.88 -4.58235 0.662552 0
M  V30 76244 H 2641.72 -8.65116 0.777161 0
M  V30 76245 H 2642 -6.90173 0.474152 0
M  V30 76246 H 2641.13 -7.66548 2.79458 0
M  V30 76247 P 2637.16 -8.03563 3.84925 0
M  V30 76248 O 2636.94 -8.85821 5.0569 0
M  V30 76249 O 2636.37 -8.41101 2.65469 0
M  V30 76250 O 2636.91 -6.4965 4.18908 0
M  V30 76251 C 2637.85 -5.81037 5.05421 0
M  V30 76252 C 2637.12 -4.78366 5.89277 0
M  V30 76253 O 2636.91 -3.58302 5.08433 0
M  V30 76254 C 2635.72 -5.17448 6.36119 0
M  V30 76255 O 2635.33 -4.45271 7.53232 0
M  V30 76256 C 2634.84 -4.74639 5.19936 0
M  V30 76257 C 2635.55 -3.49432 4.70418 0
M  V30 76258 N 2635.5 -3.32099 3.22613 0
M  V30 76259 H 2638.34 -6.54213 5.71376 0
M  V30 76260 H 2638.62 -5.30936 4.43503 0
M  V30 76261 H 2637.75 -4.55889 6.76652 0
M  V30 76262 H 2635.09 -2.61715 5.17932 0
M  V30 76263 H 2634.81 -5.52155 4.41878 0
M  V30 76264 H 2633.82 -4.51981 5.53374 0
M  V30 76265 H 2635.66 -6.25124 6.55234 0
M  V30 76266 P 2633.78 -4.23843 7.83734 0
M  V30 76267 O 2633.56 -4.19407 9.29784 0
M  V30 76268 O 2632.99 -5.24426 7.09156 0
M  V30 76269 O 2633.53 -2.7935 7.20758 0
M  V30 76270 C 2634.47 -1.7299 7.50419 0
M  V30 76271 C 2633.74 -0.406376 7.57911 0
M  V30 76272 O 2633.53 0.0897726 6.21935 0
M  V30 76273 C 2632.34 -0.447224 8.1878 0
M  V30 76274 O 2631.95 0.825065 8.71101 0
M  V30 76275 C 2631.46 -0.783801 6.99623 0
M  V30 76276 C 2632.17 -0.0619192 5.85967 0
M  V30 76277 N 2632.12 -0.790462 4.56202 0
M  V30 76278 C 2632.2 -2.13895 4.34171 0
M  V30 76279 N 2632.13 -2.46449 3.08687 0
M  V30 76280 C 2631.98 -1.2525 2.43697 0
M  V30 76281 C 2631.85 -0.914535 1.07318 0
M  V30 76282 N 2631.84 -1.80782 0.0887348 0
M  V30 76283 N 2631.73 0.386745 0.768133 0
M  V30 76284 C 2631.74 1.28096 1.75159 0
M  V30 76285 N 2631.86 1.09708 3.04861 0
M  V30 76286 C 2631.98 -0.214857 3.32306 0
M  V30 76287 H 2634.96 -1.93423 8.4679 0
M  V30 76288 H 2635.24 -1.68852 6.70877 0
M  V30 76289 H 2634.37 0.289041 8.15388 0
M  V30 76290 H 2631.71 0.927006 5.72848 0
M  V30 76291 H 2631.43 -1.86973 6.82036 0
M  V30 76292 H 2630.44 -0.403953 7.13357 0
M  V30 76293 H 2632.28 -1.20599 8.97534 0
M  V30 76294 H 2632.32 -2.86846 5.14318 0
M  V30 76295 H 2631.94 -2.81082 0.302037 0
M  V30 76296 H 2631.75 -1.49688 -0.889064 0
M  V30 76297 H 2631.64 2.31317 1.43855 0
M  V30 76298 P 2630.4 1.17771 8.83182 0
M  V30 76299 O 2630.18 2.07206 9.98732 0
M  V30 76300 O 2629.61 -0.0743816 8.81969 0
M  V30 76301 O 2630.15 1.97652 7.47304 0
M  V30 76302 C 2631.09 3.01133 7.08783 0
M  V30 76303 C 2630.36 4.12613 6.37049 0
M  V30 76304 O 2630.15 3.72827 4.97879 0
M  V30 76305 C 2628.96 4.45085 6.88694 0
M  V30 76306 O 2628.57 5.7877 6.5624 0
M  V30 76307 C 2628.08 3.47817 6.12078 0
M  V30 76308 C 2628.79 3.39414 4.77697 0
M  V30 76309 N 2628.74 2.04615 4.15333 0
M  V30 76310 H 2631.58 3.41248 7.98759 0
M  V30 76311 H 2631.86 2.5837 6.41742 0
M  V30 76312 H 2630.99 5.02657 6.42673 0
M  V30 76313 P 2627.02 6.144 6.45285 0
M  V30 76314 O 2626.8 7.54673 6.86199 0
M  V30 76315 O 2626.23 5.12391 7.179 0
M  V30 76316 O 2626.77 5.99236 4.88467 0
M  V30 76317 C 2627.71 6.60234 3.96415 0
M  V30 76318 C 2626.98 7.08079 2.736 0
M  V30 76319 O 2626.77 5.94365 1.8368 0
M  V30 76320 C 2625.58 7.64886 2.9555 0
M  V30 76321 O 2625.19 8.5406 1.90739 0
M  V30 76322 C 2624.7 6.4116 2.90739 0
M  V30 76323 C 2625.41 5.55375 1.86963 0
M  V30 76324 N 2625.36 4.09664 2.15742 0
M  V30 76325 C 2625.21 3.22231 1.08477 0
M  V30 76326 O 2625.12 3.68951 -0.0600489 0
M  V30 76327 N 2625.16 1.76692 1.48799 0
M  V30 76328 C 2625.26 1.41695 2.57602 0
M  V30 76329 N 2625.21 0.107296 2.75791 0
M  V30 76330 C 2625.41 2.29178 3.69733 0
M  V30 76331 C 2625.46 3.62753 3.42653 0
M  V30 76332 H 2628.2 7.45488 4.45578 0
M  V30 76333 H 2628.47 5.86232 3.67314 0
M  V30 76334 H 2627.61 7.84508 2.24507 0
M  V30 76335 H 2624.95 5.73556 0.888715 0
M  V30 76336 H 2624.67 5.9096 3.88638 0
M  V30 76337 H 2623.68 6.66053 2.58894 0
M  V30 76338 H 2625.52 8.16339 3.92049 0
M  V30 76339 H 2625.59 4.33052 4.24913 0
M  V30 76340 H 2625.49 1.9103 4.71577 0
M  V30 76341 H 2625.1 -0.521221 1.95056 0
M  V30 76342 H 2625.29 -0.286429 3.70695 0
M  V30 76343 P 2623.64 8.7635 1.60911 0
M  V30 76344 O 2623.42 10.1388 1.11561 0
M  V30 76345 O 2622.85 8.36503 2.79617 0
M  V30 76346 O 2623.39 7.71806 0.42951 0
M  V30 76347 C 2624.33 7.67148 -0.673689 0
M  V30 76348 C 2623.6 7.33374 -1.95559 0
M  V30 76349 O 2623.39 5.88721 -2.00726 0
M  V30 76350 C 2622.2 7.92526 -2.10483 0
M  V30 76351 O 2621.81 8.02971 -3.47653 0
M  V30 76352 C 2621.32 6.89602 -1.41652 0
M  V30 76353 C 2622.03 5.59201 -1.75185 0
M  V30 76354 N 2621.98 4.58301 -0.657969 0
M  V30 76355 C 2622.06 4.79019 0.692603 0
M  V30 76356 N 2621.99 3.69736 1.38998 0
M  V30 76357 C 2621.84 2.70474 0.438135 0
M  V30 76358 C 2621.71 1.30327 0.538142 0
M  V30 76359 N 2621.7 0.64304 1.69192 0
M  V30 76360 N 2621.59 0.611027 -0.605183 0
M  V30 76361 C 2621.6 1.27002 -1.75953 0
M  V30 76362 N 2621.72 2.56038 -1.98546 0
M  V30 76363 C 2621.84 3.22681 -0.822541 0
M  V30 76364 H 2624.82 8.65116 -0.777161 0
M  V30 76365 H 2625.1 6.9022 -0.46725 0
M  V30 76366 H 2624.23 7.66548 -2.79458 0
M  V30 76367 H 2621.57 5.16165 -2.65183 0
M  V30 76368 H 2621.29 7.06433 -0.329384 0
M  V30 76369 H 2620.3 6.90926 -1.82021 0
M  V30 76370 H 2622.14 8.90873 -1.62657 0
M  V30 76371 H 2622.18 5.77785 1.13874 0
M  V30 76372 H 2621.8 1.15585 2.57991 0
M  V30 76373 H 2621.61 -0.382989 1.69835 0
M  V30 76374 H 2621.5 0.653331 -2.64449 0
M  V30 76375 P 2620.26 8.03563 -3.84925 0
M  V30 76376 O 2620.04 8.85821 -5.0569 0
M  V30 76377 O 2619.47 8.41101 -2.65469 0
M  V30 76378 O 2620.01 6.4965 -4.18908 0
M  V30 76379 C 2620.95 5.81037 -5.05421 0
M  V30 76380 C 2620.22 4.78366 -5.89277 0
M  V30 76381 O 2620.01 3.58302 -5.08433 0
M  V30 76382 C 2618.82 5.17448 -6.36119 0
M  V30 76383 O 2618.43 4.45271 -7.53232 0
M  V30 76384 C 2617.94 4.74639 -5.19936 0
M  V30 76385 C 2618.65 3.49432 -4.70418 0
M  V30 76386 N 2618.6 3.31776 -3.22945 0
M  V30 76387 H 2621.44 6.54213 -5.71376 0
M  V30 76388 H 2621.72 5.30492 -4.44033 0
M  V30 76389 H 2620.85 4.55889 -6.76652 0
M  V30 76390 P 2616.88 4.23843 -7.83734 0
M  V30 76391 O 2616.66 4.19407 -9.29784 0
M  V30 76392 O 2616.09 5.24426 -7.09156 0
M  V30 76393 O 2616.63 2.7935 -7.20758 0
M  V30 76394 C 2617.57 1.7299 -7.50419 0
M  V30 76395 C 2616.84 0.406376 -7.57911 0
M  V30 76396 O 2616.63 -0.0897726 -6.21935 0
M  V30 76397 C 2615.44 0.447224 -8.1878 0
M  V30 76398 O 2615.05 -0.825065 -8.71101 0
M  V30 76399 C 2614.56 0.783801 -6.99623 0
M  V30 76400 C 2615.27 0.0619192 -5.85967 0
M  V30 76401 N 2615.22 0.7859 -4.56281 0
M  V30 76402 H 2618.06 1.93423 -8.4679 0
M  V30 76403 H 2618.34 1.68181 -6.71046 0
M  V30 76404 H 2617.47 -0.289041 -8.15388 0
M  V30 76405 P 2613.5 -1.17771 -8.83182 0
M  V30 76406 O 2613.28 -2.07206 -9.98732 0
M  V30 76407 O 2612.71 0.0743816 -8.81969 0
M  V30 76408 O 2613.25 -1.97652 -7.47304 0
M  V30 76409 C 2614.19 -3.01133 -7.08783 0
M  V30 76410 C 2613.46 -4.12613 -6.37049 0
M  V30 76411 O 2613.25 -3.72827 -4.97879 0
M  V30 76412 C 2612.06 -4.45085 -6.88694 0
M  V30 76413 O 2611.67 -5.7877 -6.5624 0
M  V30 76414 C 2611.18 -3.47817 -6.12078 0
M  V30 76415 C 2611.89 -3.39414 -4.77697 0
M  V30 76416 N 2611.84 -2.04199 -4.15538 0
M  V30 76417 H 2614.68 -3.41248 -7.98759 0
M  V30 76418 H 2614.96 -2.57728 -6.42 0
M  V30 76419 H 2614.09 -5.02657 -6.42673 0
M  V30 76420 H 2611.43 -4.11708 -4.08956 0
M  V30 76421 H 2611.15 -2.49626 -6.61679 0
M  V30 76422 H 2610.16 -3.8662 -6.00862 0
M  V30 76423 H 2612 -4.29991 -7.97006 0
M  V30 76424 P 2610.12 -6.144 -6.45285 0
M  V30 76425 O 2609.9 -7.54673 -6.86199 0
M  V30 76426 O 2609.33 -5.12391 -7.179 0
M  V30 76427 O 2609.87 -5.99158 -4.88404 0
M  V30 76428 C 2610.81 -6.60234 -3.96415 0
M  V30 76429 C 2610.08 -7.08259 -2.72856 0
M  V30 76430 O 2609.87 -5.9427 -1.83651 0
M  V30 76431 C 2608.68 -7.64886 -2.9555 0
M  V30 76432 O 2608.29 -8.53963 -1.90717 0
M  V30 76433 C 2607.8 -6.4116 -2.90739 0
M  V30 76434 C 2608.51 -5.55375 -1.86963 0
M  V30 76435 N 2608.46 -4.09664 -2.15742 0
M  V30 76436 H 2611.3 -7.45574 -4.45629 0
M  V30 76437 H 2611.58 -5.86232 -3.67314 0
M  V30 76438 H 2610.71 -7.84412 -2.24479 0
M  V30 76439 P 2606.74 -8.7635 -1.60911 0
M  V30 76440 O 2606.52 -10.1388 -1.11561 0
M  V30 76441 O 2605.95 -8.36503 -2.79617 0
M  V30 76442 O 2606.49 -7.71806 -0.42951 0
M  V30 76443 C 2607.43 -7.66948 0.673514 0
M  V30 76444 C 2606.7 -7.33374 1.95559 0
M  V30 76445 O 2606.49 -5.88721 2.00726 0
M  V30 76446 C 2605.3 -7.92218 2.1125 0
M  V30 76447 O 2604.91 -8.02971 3.47653 0
M  V30 76448 C 2604.42 -6.89504 1.41631 0
M  V30 76449 C 2605.13 -5.59106 1.75155 0
M  V30 76450 N 2605.08 -4.58136 0.662409 0
M  V30 76451 C 2604.93 -3.26059 1.02863 0
M  V30 76452 O 2604.84 -2.90743 2.19009 0
M  V30 76453 N 2604.89 -2.35995 -0.0155585 0
M  V30 76454 C 2604.98 -2.65248 -1.35603 0
M  V30 76455 C 2605.13 -4.05747 -1.64698 0
M  V30 76456 C 2605.18 -4.96734 -0.652411 0
M  V30 76457 H 2607.93 -8.64917 0.776982 0
M  V30 76458 H 2608.19 -6.89974 0.474015 0
M  V30 76459 H 2607.33 -7.66548 2.79458 0
M  V30 76460 H 2604.67 -5.16076 2.65138 0
M  V30 76461 H 2604.39 -7.06433 0.329384 0
M  V30 76462 H 2603.4 -6.90829 1.81996 0
M  V30 76463 H 2605.24 -8.90774 1.62639 0
M  V30 76464 H 2605.31 -6.02181 -0.895285 0
M  V30 76465 P 2603.36 -8.03563 3.84925 0
M  V30 76466 O 2603.14 -8.85821 5.0569 0
M  V30 76467 O 2602.57 -8.41101 2.65469 0
M  V30 76468 O 2603.11 -6.4965 4.18908 0
M  V30 76469 C 2604.05 -5.81037 5.05421 0
M  V30 76470 C 2603.32 -4.78366 5.89277 0
M  V30 76471 O 2603.11 -3.58302 5.08433 0
M  V30 76472 C 2601.92 -5.17448 6.36119 0
M  V30 76473 O 2601.53 -4.45271 7.53232 0
M  V30 76474 C 2601.04 -4.74639 5.19936 0
M  V30 76475 C 2601.75 -3.49432 4.70418 0
M  V30 76476 N 2601.7 -3.31776 3.22945 0
M  V30 76477 H 2604.54 -6.54213 5.71376 0
M  V30 76478 H 2604.82 -5.30492 4.44033 0
M  V30 76479 H 2603.95 -4.55889 6.76652 0
M  V30 76480 P 2599.98 -4.23843 7.83734 0
M  V30 76481 O 2599.76 -4.19407 9.29784 0
M  V30 76482 O 2599.19 -5.24426 7.09156 0
M  V30 76483 O 2599.73 -2.7935 7.20758 0
M  V30 76484 C 2600.67 -1.7299 7.50419 0
M  V30 76485 C 2599.94 -0.406376 7.57911 0
M  V30 76486 O 2599.73 0.0897726 6.21935 0
M  V30 76487 C 2598.54 -0.447224 8.1878 0
M  V30 76488 O 2598.15 0.825065 8.71101 0
M  V30 76489 C 2597.66 -0.783801 6.99623 0
M  V30 76490 C 2598.37 -0.0619192 5.85967 0
M  V30 76491 N 2598.32 -0.7859 4.56281 0
M  V30 76492 H 2601.16 -1.93423 8.4679 0
M  V30 76493 H 2601.44 -1.68181 6.71046 0
M  V30 76494 H 2600.57 0.289041 8.15388 0
M  V30 76495 P 2596.6 1.17771 8.83182 0
M  V30 76496 O 2596.38 2.07206 9.98732 0
M  V30 76497 O 2595.81 -0.0743816 8.81969 0
M  V30 76498 O 2596.35 1.97652 7.47304 0
M  V30 76499 C 2597.29 3.01133 7.08783 0
M  V30 76500 C 2596.56 4.12613 6.37049 0
M  V30 76501 O 2596.35 3.72827 4.97879 0
M  V30 76502 C 2595.16 4.45085 6.88694 0
M  V30 76503 O 2594.77 5.7877 6.5624 0
M  V30 76504 C 2594.28 3.47817 6.12078 0
M  V30 76505 C 2594.99 3.39414 4.77697 0
M  V30 76506 N 2594.94 2.04615 4.15333 0
M  V30 76507 H 2597.78 3.41248 7.98759 0
M  V30 76508 H 2598.06 2.5837 6.41742 0
M  V30 76509 H 2597.19 5.02657 6.42673 0
M  V30 76510 P 2593.22 6.144 6.45285 0
M  V30 76511 O 2593 7.54673 6.86199 0
M  V30 76512 O 2592.43 5.12391 7.179 0
M  V30 76513 O 2592.97 5.99158 4.88404 0
M  V30 76514 C 2593.91 6.60234 3.96415 0
M  V30 76515 C 2593.18 7.08259 2.72856 0
M  V30 76516 O 2592.97 5.9427 1.83651 0
M  V30 76517 C 2591.78 7.64886 2.9555 0
M  V30 76518 O 2591.39 8.53963 1.90717 0
M  V30 76519 C 2590.9 6.4116 2.90739 0
M  V30 76520 C 2591.61 5.55375 1.86963 0
M  V30 76521 N 2591.56 4.09664 2.15742 0
M  V30 76522 C 2591.64 3.44381 3.37233 0
M  V30 76523 N 2591.56 2.14131 3.28347 0
M  V30 76524 C 2591.42 1.90247 1.91588 0
M  V30 76525 C 2591.29 0.683992 1.20892 0
M  V30 76526 N 2591.17 0.903396 -0.173998 0
M  V30 76527 C 2591.17 2.14171 -0.784879 0
M  V30 76528 N 2591.04 2.1435 -2.11317 0
M  V30 76529 N 2591.3 3.28784 -0.119316 0
M  V30 76530 C 2591.42 3.0977 1.22194 0
M  V30 76531 H 2594.4 7.45574 4.45629 0
M  V30 76532 H 2594.68 5.86232 3.67314 0
M  V30 76533 H 2593.81 7.84412 2.24479 0
M  V30 76534 P 2589.84 8.7635 1.60911 0
M  V30 76535 O 2589.62 10.1388 1.11561 0
M  V30 76536 O 2589.05 8.36503 2.79617 0
M  V30 76537 O 2589.59 7.71806 0.42951 0
M  V30 76538 C 2590.53 7.67148 -0.673689 0
M  V30 76539 C 2589.8 7.33374 -1.95559 0
M  V30 76540 O 2589.59 5.88721 -2.00726 0
M  V30 76541 C 2588.4 7.92526 -2.10483 0
M  V30 76542 O 2588.01 8.02971 -3.47653 0
M  V30 76543 C 2587.52 6.89602 -1.41652 0
M  V30 76544 C 2588.23 5.59201 -1.75185 0
M  V30 76545 N 2588.18 4.58301 -0.657969 0
M  V30 76546 C 2588.26 4.79019 0.692603 0
M  V30 76547 N 2588.19 3.69736 1.38998 0
M  V30 76548 C 2588.04 2.70474 0.438135 0
M  V30 76549 C 2587.91 1.30327 0.538142 0
M  V30 76550 N 2587.9 0.64304 1.69192 0
M  V30 76551 N 2587.79 0.611027 -0.605183 0
M  V30 76552 C 2587.8 1.27002 -1.75953 0
M  V30 76553 N 2587.92 2.56038 -1.98546 0
M  V30 76554 C 2588.04 3.22681 -0.822541 0
M  V30 76555 H 2591.02 8.65116 -0.777161 0
M  V30 76556 H 2591.3 6.9022 -0.46725 0
M  V30 76557 H 2590.43 7.66548 -2.79458 0
M  V30 76558 H 2587.77 5.16165 -2.65183 0
M  V30 76559 H 2587.49 7.06433 -0.329384 0
M  V30 76560 H 2586.5 6.90926 -1.82021 0
M  V30 76561 H 2588.34 8.90873 -1.62657 0
M  V30 76562 H 2588.38 5.77785 1.13874 0
M  V30 76563 H 2588 1.15585 2.57991 0
M  V30 76564 H 2587.81 -0.382989 1.69835 0
M  V30 76565 H 2587.7 0.653331 -2.64449 0
M  V30 76566 P 2586.46 8.03563 -3.84925 0
M  V30 76567 O 2586.24 8.85821 -5.0569 0
M  V30 76568 O 2585.67 8.41101 -2.65469 0
M  V30 76569 O 2586.21 6.4965 -4.18908 0
M  V30 76570 C 2587.15 5.81037 -5.05421 0
M  V30 76571 C 2586.42 4.78366 -5.89277 0
M  V30 76572 O 2586.21 3.58302 -5.08433 0
M  V30 76573 C 2585.02 5.17448 -6.36119 0
M  V30 76574 O 2584.63 4.45271 -7.53232 0
M  V30 76575 C 2584.14 4.74639 -5.19936 0
M  V30 76576 C 2584.85 3.49432 -4.70418 0
M  V30 76577 N 2584.8 3.32099 -3.22613 0
M  V30 76578 H 2587.64 6.54213 -5.71376 0
M  V30 76579 H 2587.92 5.30936 -4.43503 0
M  V30 76580 H 2587.05 4.55889 -6.76652 0
M  V30 76581 H 2584.39 2.61715 -5.17932 0
M  V30 76582 H 2584.11 5.52155 -4.41878 0
M  V30 76583 H 2583.12 4.51981 -5.53374 0
M  V30 76584 H 2584.96 6.25124 -6.55234 0
M  V30 76585 P 2583.08 4.23843 -7.83734 0
M  V30 76586 O 2582.86 4.19407 -9.29784 0
M  V30 76587 O 2582.29 5.24426 -7.09156 0
M  V30 76588 O 2582.83 2.79386 -7.20852 0
M  V30 76589 C 2583.77 1.7299 -7.50419 0
M  V30 76590 C 2583.04 0.41401 -7.5797 0
M  V30 76591 O 2582.83 -0.089787 -6.22035 0
M  V30 76592 C 2581.64 0.447224 -8.1878 0
M  V30 76593 O 2581.25 -0.825159 -8.71201 0
M  V30 76594 C 2580.76 0.783801 -6.99623 0
M  V30 76595 C 2581.47 0.0619192 -5.85967 0
M  V30 76596 N 2581.42 0.7859 -4.56281 0
M  V30 76597 C 2581.27 0.0359258 -3.39981 0
M  V30 76598 O 2581.18 -1.19723 -3.49038 0
M  V30 76599 N 2581.22 0.869151 -2.14025 0
M  V30 76600 C 2581.32 2.01207 -2.14363 0
M  V30 76601 N 2581.27 2.58978 -0.954287 0
M  V30 76602 C 2581.47 2.80817 -3.32215 0
M  V30 76603 C 2581.52 2.13785 -4.50884 0
M  V30 76604 H 2584.26 1.93401 -8.46693 0
M  V30 76605 H 2584.53 1.68181 -6.71046 0
M  V30 76606 H 2583.67 -0.289076 -8.15488 0
M  V30 76607 H 2581.01 -0.927166 -5.72947 0
M  V30 76608 H 2580.73 1.87 -6.82132 0
M  V30 76609 H 2579.74 0.404009 -7.13457 0
M  V30 76610 H 2581.58 1.20599 -8.97534 0
M  V30 76611 H 2581.65 2.70295 -5.43162 0
M  V30 76612 H 2581.55 3.89465 -3.27406 0
M  V30 76613 H 2581.16 2.01616 -0.107046 0
M  V30 76614 H 2581.35 3.61403 -0.873101 0
M  V30 76615 P 2579.7 -1.17771 -8.83182 0
M  V30 76616 O 2579.48 -2.07206 -9.98732 0
M  V30 76617 O 2578.91 0.0743816 -8.81969 0
M  V30 76618 O 2579.45 -1.97652 -7.47304 0
M  V30 76619 C 2580.39 -3.01055 -7.08599 0
M  V30 76620 C 2579.66 -4.12613 -6.37049 0
M  V30 76621 O 2579.45 -3.72827 -4.97879 0
M  V30 76622 C 2578.26 -4.45719 -6.88164 0
M  V30 76623 O 2577.87 -5.7877 -6.5624 0
M  V30 76624 C 2577.38 -3.47768 -6.11991 0
M  V30 76625 C 2578.09 -3.39356 -4.77615 0
M  V30 76626 N 2578.04 -2.04571 -4.15244 0
M  V30 76627 C 2577.89 -1.98587 -2.78314 0
M  V30 76628 O 2577.8 -2.98134 -2.08835 0
M  V30 76629 N 2577.85 -0.714467 -2.24925 0
M  V30 76630 C 2577.94 0.470001 -2.94169 0
M  V30 76631 O 2577.89 1.55587 -2.35195 0
M  V30 76632 C 2578.09 0.312541 -4.36783 0
M  V30 76633 C 2578.2 1.57711 -5.16352 0
M  V30 76634 C 2578.14 -0.914512 -4.92583 0
M  V30 76635 H 2580.89 -3.41169 -7.98575 0
M  V30 76636 H 2581.15 -2.58295 -6.41556 0
M  V30 76637 H 2580.29 -5.02657 -6.42673 0
M  V30 76638 H 2577.63 -4.11637 -4.08885 0
M  V30 76639 H 2577.35 -2.49626 -6.61679 0
M  V30 76640 H 2576.36 -3.86566 -6.00778 0
M  V30 76641 H 2578.2 -4.29943 -7.96918 0
M  V30 76642 H 2578.27 -1.00937 -6.00374 0
M  V30 76643 H 2577.24 1.80153 -5.63503 0
M  V30 76644 H 2578.97 1.4566 -5.94104 0
M  V30 76645 H 2578.49 2.40664 -4.49645 0
M  V30 76646 H 2577.75 -0.647622 -1.25697 0
M  V30 76647 P 2576.32 -6.144 -6.45285 0
M  V30 76648 O 2576.1 -7.54673 -6.86199 0
M  V30 76649 O 2575.53 -5.12391 -7.179 0
M  V30 76650 O 2576.07 -5.99158 -4.88404 0
M  V30 76651 C 2577.01 -6.60234 -3.96415 0
M  V30 76652 C 2576.28 -7.08259 -2.72856 0
M  V30 76653 O 2576.07 -5.9427 -1.83651 0
M  V30 76654 C 2574.88 -7.64886 -2.9555 0
M  V30 76655 O 2574.49 -8.53963 -1.90717 0
M  V30 76656 C 2574 -6.4116 -2.90739 0
M  V30 76657 C 2574.71 -5.55375 -1.86963 0
M  V30 76658 N 2574.66 -4.09664 -2.15742 0
M  V30 76659 H 2577.5 -7.45574 -4.45629 0
M  V30 76660 H 2577.78 -5.86232 -3.67314 0
M  V30 76661 H 2576.91 -7.84412 -2.24479 0
M  V30 76662 P 2572.94 -8.7635 -1.60911 0
M  V30 76663 O 2572.72 -10.1388 -1.11561 0
M  V30 76664 O 2572.15 -8.36503 -2.79617 0
M  V30 76665 O 2572.69 -7.71806 -0.42951 0
M  V30 76666 C 2573.63 -7.67148 0.673689 0
M  V30 76667 C 2572.9 -7.33374 1.95559 0
M  V30 76668 O 2572.69 -5.88721 2.00726 0
M  V30 76669 C 2571.5 -7.92526 2.10483 0
M  V30 76670 O 2571.11 -8.02971 3.47653 0
M  V30 76671 C 2570.62 -6.89602 1.41652 0
M  V30 76672 C 2571.33 -5.59201 1.75185 0
M  V30 76673 N 2571.28 -4.58235 0.662552 0
M  V30 76674 C 2571.36 -4.7683 -0.704049 0
M  V30 76675 N 2571.28 -3.66233 -1.39775 0
M  V30 76676 C 2571.14 -2.66526 -0.431739 0
M  V30 76677 C 2571.01 -1.26394 -0.575992 0
M  V30 76678 N 2570.89 -0.62859 0.67177 0
M  V30 76679 C 2570.89 -1.27134 1.89385 0
M  V30 76680 N 2570.76 -0.492035 2.96951 0
M  V30 76681 N 2571.02 -2.58978 2.02907 0
M  V30 76682 C 2571.14 -3.22433 0.832218 0
M  V30 76683 H 2574.12 -8.65116 0.777161 0
M  V30 76684 H 2574.4 -6.90173 0.474152 0
M  V30 76685 H 2573.53 -7.66548 2.79458 0
M  V30 76686 P 2569.56 -8.03563 3.84925 0
M  V30 76687 O 2569.34 -8.85821 5.0569 0
M  V30 76688 O 2568.77 -8.41101 2.65469 0
M  V30 76689 O 2569.31 -6.4965 4.18908 0
M  V30 76690 C 2570.25 -5.81037 5.05421 0
M  V30 76691 C 2569.52 -4.78366 5.89277 0
M  V30 76692 O 2569.31 -3.58302 5.08433 0
M  V30 76693 C 2568.12 -5.17448 6.36119 0
M  V30 76694 O 2567.73 -4.45271 7.53232 0
M  V30 76695 C 2567.24 -4.74639 5.19936 0
M  V30 76696 C 2567.95 -3.49432 4.70418 0
M  V30 76697 N 2567.9 -3.31776 3.22945 0
M  V30 76698 H 2570.74 -6.54213 5.71376 0
M  V30 76699 H 2571.02 -5.30492 4.44033 0
M  V30 76700 H 2570.15 -4.55889 6.76652 0
M  V30 76701 P 2566.18 -4.23843 7.83734 0
M  V30 76702 O 2565.96 -4.19407 9.29784 0
M  V30 76703 O 2565.39 -5.24426 7.09156 0
M  V30 76704 O 2565.93 -2.7935 7.20758 0
M  V30 76705 C 2566.87 -1.7299 7.50419 0
M  V30 76706 C 2566.14 -0.406376 7.57911 0
M  V30 76707 O 2565.93 0.0897726 6.21935 0
M  V30 76708 C 2564.74 -0.447224 8.1878 0
M  V30 76709 O 2564.35 0.825065 8.71101 0
M  V30 76710 C 2563.86 -0.783801 6.99623 0
M  V30 76711 C 2564.57 -0.0619192 5.85967 0
M  V30 76712 N 2564.52 -0.7859 4.56281 0
M  V30 76713 H 2567.36 -1.93423 8.4679 0
M  V30 76714 H 2567.64 -1.68181 6.71046 0
M  V30 76715 H 2566.77 0.289041 8.15388 0
M  V30 76716 P 2562.8 1.17771 8.83182 0
M  V30 76717 O 2562.58 2.07206 9.98732 0
M  V30 76718 O 2562.01 -0.0743816 8.81969 0
M  V30 76719 O 2562.55 1.97652 7.47304 0
M  V30 76720 C 2563.49 3.01133 7.08783 0
M  V30 76721 C 2562.76 4.12613 6.37049 0
M  V30 76722 O 2562.55 3.72827 4.97879 0
M  V30 76723 C 2561.36 4.45085 6.88694 0
M  V30 76724 O 2560.97 5.7877 6.5624 0
M  V30 76725 C 2560.48 3.47817 6.12078 0
M  V30 76726 C 2561.19 3.39414 4.77697 0
M  V30 76727 N 2561.14 2.04615 4.15333 0
M  V30 76728 H 2563.98 3.41248 7.98759 0
M  V30 76729 H 2564.26 2.5837 6.41742 0
M  V30 76730 H 2563.39 5.02657 6.42673 0
M  V30 76731 P 2559.42 6.144 6.45285 0
M  V30 76732 O 2559.2 7.54673 6.86199 0
M  V30 76733 O 2558.63 5.12391 7.179 0
M  V30 76734 O 2559.17 5.99236 4.88467 0
M  V30 76735 C 2560.11 6.60234 3.96415 0
M  V30 76736 C 2559.38 7.08079 2.736 0
M  V30 76737 O 2559.17 5.94365 1.8368 0
M  V30 76738 C 2557.98 7.64886 2.9555 0
M  V30 76739 O 2557.59 8.5406 1.90739 0
M  V30 76740 C 2557.1 6.4116 2.90739 0
M  V30 76741 C 2557.81 5.55375 1.86963 0
M  V30 76742 N 2557.76 4.09664 2.15742 0
M  V30 76743 C 2557.61 3.22231 1.08477 0
M  V30 76744 O 2557.52 3.68951 -0.0600489 0
M  V30 76745 N 2557.56 1.76692 1.48799 0
M  V30 76746 C 2557.66 1.41695 2.57602 0
M  V30 76747 N 2557.61 0.107296 2.75791 0
M  V30 76748 C 2557.81 2.29178 3.69733 0
M  V30 76749 C 2557.86 3.62753 3.42653 0
M  V30 76750 H 2560.6 7.45488 4.45578 0
M  V30 76751 H 2560.87 5.86232 3.67314 0
M  V30 76752 H 2560.01 7.84508 2.24507 0
M  V30 76753 H 2557.35 5.73556 0.888715 0
M  V30 76754 H 2557.07 5.9096 3.88638 0
M  V30 76755 H 2556.08 6.66053 2.58894 0
M  V30 76756 H 2557.92 8.16339 3.92049 0
M  V30 76757 H 2557.99 4.33052 4.24913 0
M  V30 76758 H 2557.89 1.9103 4.71577 0
M  V30 76759 H 2557.5 -0.521221 1.95056 0
M  V30 76760 H 2557.69 -0.286429 3.70695 0
M  V30 76761 P 2556.04 8.7635 1.60911 0
M  V30 76762 O 2555.82 10.1388 1.11561 0
M  V30 76763 O 2555.25 8.36503 2.79617 0
M  V30 76764 O 2555.79 7.71806 0.42951 0
M  V30 76765 C 2556.73 7.67148 -0.673689 0
M  V30 76766 C 2556 7.33374 -1.95559 0
M  V30 76767 O 2555.79 5.88721 -2.00726 0
M  V30 76768 C 2554.6 7.92526 -2.10483 0
M  V30 76769 O 2554.21 8.02971 -3.47653 0
M  V30 76770 C 2553.72 6.89602 -1.41652 0
M  V30 76771 C 2554.43 5.59201 -1.75185 0
M  V30 76772 N 2554.38 4.58235 -0.662552 0
M  V30 76773 H 2557.22 8.65116 -0.777161 0
M  V30 76774 H 2557.5 6.90173 -0.474152 0
M  V30 76775 H 2556.63 7.66548 -2.79458 0
M  V30 76776 P 2552.66 8.03563 -3.84925 0
M  V30 76777 O 2552.44 8.85821 -5.0569 0
M  V30 76778 O 2551.87 8.41101 -2.65469 0
M  V30 76779 O 2552.41 6.4965 -4.18908 0
M  V30 76780 C 2553.35 5.81037 -5.05421 0
M  V30 76781 C 2552.62 4.78366 -5.89277 0
M  V30 76782 O 2552.41 3.58302 -5.08433 0
M  V30 76783 C 2551.22 5.17448 -6.36119 0
M  V30 76784 O 2550.83 4.45271 -7.53232 0
M  V30 76785 C 2550.34 4.74639 -5.19936 0
M  V30 76786 C 2551.05 3.49432 -4.70418 0
M  V30 76787 N 2551 3.31776 -3.22945 0
M  V30 76788 H 2553.84 6.54213 -5.71376 0
M  V30 76789 H 2554.12 5.30492 -4.44033 0
M  V30 76790 H 2553.25 4.55889 -6.76652 0
M  V30 76791 P 2549.28 4.23843 -7.83734 0
M  V30 76792 O 2549.06 4.19407 -9.29784 0
M  V30 76793 O 2548.49 5.24426 -7.09156 0
M  V30 76794 O 2549.03 2.7935 -7.20758 0
M  V30 76795 C 2549.97 1.7299 -7.50419 0
M  V30 76796 C 2549.24 0.406376 -7.57911 0
M  V30 76797 O 2549.03 -0.0897726 -6.21935 0
M  V30 76798 C 2547.84 0.447224 -8.1878 0
M  V30 76799 O 2547.45 -0.825065 -8.71101 0
M  V30 76800 C 2546.96 0.783801 -6.99623 0
M  V30 76801 C 2547.67 0.0619192 -5.85967 0
M  V30 76802 N 2547.62 0.7859 -4.56281 0
M  V30 76803 H 2550.46 1.93423 -8.4679 0
M  V30 76804 H 2550.74 1.68181 -6.71046 0
M  V30 76805 H 2549.87 -0.289041 -8.15388 0
M  V30 76806 P 2545.9 -1.17771 -8.83182 0
M  V30 76807 O 2545.68 -2.07206 -9.98732 0
M  V30 76808 O 2545.11 0.0743816 -8.81969 0
M  V30 76809 O 2545.65 -1.97652 -7.47304 0
M  V30 76810 C 2546.59 -3.01133 -7.08783 0
M  V30 76811 C 2545.86 -4.12613 -6.37049 0
M  V30 76812 O 2545.65 -3.72827 -4.97879 0
M  V30 76813 C 2544.46 -4.45085 -6.88694 0
M  V30 76814 O 2544.07 -5.7877 -6.5624 0
M  V30 76815 C 2543.58 -3.47817 -6.12078 0
M  V30 76816 C 2544.29 -3.39414 -4.77697 0
M  V30 76817 N 2544.24 -2.04615 -4.15333 0
M  V30 76818 H 2547.08 -3.41248 -7.98759 0
M  V30 76819 H 2547.36 -2.5837 -6.41742 0
M  V30 76820 H 2546.49 -5.02657 -6.42673 0
M  V30 76821 P 2542.52 -6.144 -6.45285 0
M  V30 76822 O 2542.3 -7.54673 -6.86199 0
M  V30 76823 O 2541.73 -5.12391 -7.179 0
M  V30 76824 O 2542.27 -5.99158 -4.88404 0
M  V30 76825 C 2543.21 -6.60062 -3.96313 0
M  V30 76826 C 2542.48 -7.08259 -2.72856 0
M  V30 76827 O 2542.27 -5.9427 -1.83651 0
M  V30 76828 C 2541.08 -7.65087 -2.94749 0
M  V30 76829 O 2540.69 -8.53963 -1.90717 0
M  V30 76830 C 2540.2 -6.41069 -2.90698 0
M  V30 76831 C 2540.91 -5.5528 -1.86931 0
M  V30 76832 N 2540.86 -4.09575 -2.15696 0
M  V30 76833 C 2540.71 -3.24249 -1.08435 0
M  V30 76834 O 2540.62 -3.63946 0.0628747 0
M  V30 76835 N 2540.67 -1.90009 -1.39973 0
M  V30 76836 C 2540.76 -1.34884 -2.65614 0
M  V30 76837 O 2540.71 -0.123716 -2.81728 0
M  V30 76838 C 2540.91 -2.3145 -3.71736 0
M  V30 76839 C 2541.02 -1.75913 -5.10438 0
M  V30 76840 C 2540.96 -3.63518 -3.44754 0
M  V30 76841 H 2543.71 -7.45402 -4.45526 0
M  V30 76842 H 2543.97 -5.86062 -3.67208 0
M  V30 76843 H 2543.11 -7.84412 -2.24479 0
M  V30 76844 H 2540.45 -5.73358 -0.888409 0
M  V30 76845 H 2540.17 -5.90877 -3.88583 0
M  V30 76846 H 2539.18 -6.65867 -2.58821 0
M  V30 76847 H 2541.02 -8.16248 -3.92006 0
M  V30 76848 H 2541.09 -4.34551 -4.26383 0
M  V30 76849 H 2540.06 -1.85471 -5.61775 0
M  V30 76850 H 2541.79 -2.31364 -5.66257 0
M  V30 76851 H 2541.31 -0.695936 -5.05229 0
M  V30 76852 H 2540.57 -1.26277 -0.63625 0
M  V30 76853 P 2539.15 -8.7635 -1.60911 0
M  V30 76854 O 2538.93 -10.1388 -1.11561 0
M  V30 76855 O 2538.36 -8.36503 -2.79617 0
M  V30 76856 O 2538.9 -7.71806 -0.42951 0
M  V30 76857 C 2539.84 -7.67148 0.673689 0
M  V30 76858 C 2539.11 -7.33374 1.95559 0
M  V30 76859 O 2538.9 -5.88721 2.00726 0
M  V30 76860 C 2537.71 -7.92526 2.10483 0
M  V30 76861 O 2537.32 -8.02971 3.47653 0
M  V30 76862 C 2536.83 -6.89602 1.41652 0
M  V30 76863 C 2537.54 -5.59201 1.75185 0
M  V30 76864 N 2537.49 -4.58235 0.662552 0
M  V30 76865 H 2540.32 -8.65116 0.777161 0
M  V30 76866 H 2540.6 -6.90173 0.474152 0
M  V30 76867 H 2539.73 -7.66548 2.79458 0
M  V30 76868 P 2535.77 -8.03563 3.84925 0
M  V30 76869 O 2535.55 -8.85821 5.0569 0
M  V30 76870 O 2534.98 -8.41101 2.65469 0
M  V30 76871 O 2535.52 -6.4965 4.18908 0
M  V30 76872 C 2536.46 -5.80886 5.05289 0
M  V30 76873 C 2535.73 -4.78366 5.89277 0
M  V30 76874 O 2535.52 -3.58302 5.08433 0
M  V30 76875 C 2534.33 -5.16748 6.36559 0
M  V30 76876 O 2533.94 -4.45271 7.53232 0
M  V30 76877 C 2533.45 -4.74572 5.19863 0
M  V30 76878 C 2534.16 -3.49373 4.70338 0
M  V30 76879 N 2534.11 -3.31704 3.22876 0
M  V30 76880 C 2533.96 -2.03326 2.74871 0
M  V30 76881 O 2533.87 -1.06486 3.48076 0
M  V30 76882 N 2533.92 -1.91838 1.37456 0
M  V30 76883 C 2534.01 -2.94295 0.462035 0
M  V30 76884 O 2533.96 -2.71763 -0.752928 0
M  V30 76885 C 2534.16 -4.25064 1.05249 0
M  V30 76886 C 2534.27 -5.39815 0.095697 0
M  V30 76887 C 2534.21 -4.40214 2.39192 0
M  V30 76888 H 2536.95 -6.54063 5.71245 0
M  V30 76889 H 2537.22 -5.30339 4.43905 0
M  V30 76890 H 2536.35 -4.55889 6.76652 0
M  V30 76891 H 2533.69 -2.6167 5.17842 0
M  V30 76892 H 2533.41 -5.52155 4.41878 0
M  V30 76893 H 2532.42 -4.51918 5.53297 0
M  V30 76894 H 2534.26 -6.25055 6.55162 0
M  V30 76895 H 2534.33 -5.39798 2.81523 0
M  V30 76896 H 2533.3 -5.91593 0.0279582 0
M  V30 76897 H 2535.03 -6.10038 0.450573 0
M  V30 76898 H 2534.55 -5.02007 -0.89937 0
M  V30 76899 H 2533.81 -0.995326 1.00435 0
M  V30 76900 P 2532.39 -4.23843 7.83734 0
M  V30 76901 O 2532.17 -4.19407 9.29784 0
M  V30 76902 O 2531.6 -5.24426 7.09156 0
M  V30 76903 O 2532.14 -2.79386 7.20852 0
M  V30 76904 C 2533.08 -1.7299 7.50419 0
M  V30 76905 C 2532.35 -0.41401 7.5797 0
M  V30 76906 O 2532.14 0.089787 6.22035 0
M  V30 76907 C 2530.95 -0.447224 8.1878 0
M  V30 76908 O 2530.56 0.825159 8.71201 0
M  V30 76909 C 2530.07 -0.783801 6.99623 0
M  V30 76910 C 2530.78 -0.0619192 5.85967 0
M  V30 76911 N 2530.73 -0.7859 4.56281 0
M  V30 76912 C 2530.58 -0.0359258 3.39981 0
M  V30 76913 O 2530.49 1.19723 3.49038 0
M  V30 76914 N 2530.53 -0.869151 2.14025 0
M  V30 76915 C 2530.63 -2.01207 2.14363 0
M  V30 76916 N 2530.58 -2.58978 0.954287 0
M  V30 76917 C 2530.78 -2.80817 3.32215 0
M  V30 76918 C 2530.83 -2.13785 4.50884 0
M  V30 76919 H 2533.57 -1.93401 8.46693 0
M  V30 76920 H 2533.84 -1.68181 6.71046 0
M  V30 76921 H 2532.97 0.289076 8.15488 0
M  V30 76922 H 2530.31 0.927166 5.72947 0
M  V30 76923 H 2530.03 -1.87 6.82132 0
M  V30 76924 H 2529.04 -0.404009 7.13457 0
M  V30 76925 H 2530.88 -1.20599 8.97534 0
M  V30 76926 H 2530.95 -2.70295 5.43162 0
M  V30 76927 H 2530.85 -3.89465 3.27406 0
M  V30 76928 H 2530.46 -2.01616 0.107046 0
M  V30 76929 H 2530.65 -3.61403 0.873101 0
M  V30 76930 P 2529.01 1.17771 8.83182 0
M  V30 76931 O 2528.79 2.07206 9.98732 0
M  V30 76932 O 2528.22 -0.0743816 8.81969 0
M  V30 76933 O 2528.76 1.97652 7.47304 0
M  V30 76934 C 2529.7 3.01055 7.08599 0
M  V30 76935 C 2528.97 4.12613 6.37049 0
M  V30 76936 O 2528.76 3.72827 4.97879 0
M  V30 76937 C 2527.57 4.45719 6.88164 0
M  V30 76938 O 2527.18 5.7877 6.5624 0
M  V30 76939 C 2526.69 3.47768 6.11991 0
M  V30 76940 C 2527.4 3.39356 4.77615 0
M  V30 76941 N 2527.35 2.04571 4.15244 0
M  V30 76942 C 2527.2 1.98587 2.78314 0
M  V30 76943 O 2527.11 2.98134 2.08835 0
M  V30 76944 N 2527.16 0.714467 2.24925 0
M  V30 76945 C 2527.25 -0.470001 2.94169 0
M  V30 76946 O 2527.2 -1.55587 2.35195 0
M  V30 76947 C 2527.4 -0.312541 4.36783 0
M  V30 76948 C 2527.51 -1.57711 5.16352 0
M  V30 76949 C 2527.45 0.914512 4.92583 0
M  V30 76950 H 2530.19 3.41169 7.98575 0
M  V30 76951 H 2530.46 2.58295 6.41556 0
M  V30 76952 H 2529.59 5.02657 6.42673 0
M  V30 76953 H 2526.93 4.11637 4.08885 0
M  V30 76954 H 2526.65 2.49626 6.61679 0
M  V30 76955 H 2525.66 3.86566 6.00778 0
M  V30 76956 H 2527.5 4.29943 7.96918 0
M  V30 76957 H 2527.57 1.00937 6.00374 0
M  V30 76958 H 2526.54 -1.80153 5.63503 0
M  V30 76959 H 2528.27 -1.4566 5.94104 0
M  V30 76960 H 2527.79 -2.40664 4.49645 0
M  V30 76961 H 2527.05 0.647622 1.25697 0
M  V30 76962 P 2525.63 6.144 6.45285 0
M  V30 76963 O 2525.41 7.54673 6.86199 0
M  V30 76964 O 2524.84 5.12391 7.179 0
M  V30 76965 O 2525.38 5.99236 4.88467 0
M  V30 76966 C 2526.32 6.60234 3.96415 0
M  V30 76967 C 2525.59 7.08079 2.736 0
M  V30 76968 O 2525.38 5.94365 1.8368 0
M  V30 76969 C 2524.19 7.64886 2.9555 0
M  V30 76970 O 2523.8 8.5406 1.90739 0
M  V30 76971 C 2523.31 6.4116 2.90739 0
M  V30 76972 C 2524.02 5.55375 1.86963 0
M  V30 76973 N 2523.97 4.09664 2.15742 0
M  V30 76974 C 2523.82 3.22231 1.08477 0
M  V30 76975 O 2523.73 3.68951 -0.0600489 0
M  V30 76976 N 2523.77 1.76692 1.48799 0
M  V30 76977 C 2523.87 1.41695 2.57602 0
M  V30 76978 N 2523.82 0.107296 2.75791 0
M  V30 76979 C 2524.02 2.29178 3.69733 0
M  V30 76980 C 2524.07 3.62753 3.42653 0
M  V30 76981 H 2526.81 7.45488 4.45578 0
M  V30 76982 H 2527.08 5.86232 3.67314 0
M  V30 76983 H 2526.21 7.84508 2.24507 0
M  V30 76984 H 2523.55 5.73556 0.888715 0
M  V30 76985 H 2523.27 5.9096 3.88638 0
M  V30 76986 H 2522.28 6.66053 2.58894 0
M  V30 76987 H 2524.12 8.16339 3.92049 0
M  V30 76988 H 2524.19 4.33052 4.24913 0
M  V30 76989 H 2524.09 1.9103 4.71577 0
M  V30 76990 H 2523.7 -0.521221 1.95056 0
M  V30 76991 H 2523.89 -0.286429 3.70695 0
M  V30 76992 P 2522.25 8.7635 1.60911 0
M  V30 76993 O 2522.03 10.1388 1.11561 0
M  V30 76994 O 2521.46 8.36503 2.79617 0
M  V30 76995 O 2522 7.71806 0.42951 0
M  V30 76996 C 2522.94 7.66948 -0.673514 0
M  V30 76997 C 2522.21 7.33374 -1.95559 0
M  V30 76998 O 2522 5.88721 -2.00726 0
M  V30 76999 C 2520.81 7.92218 -2.1125 0
M  V30 77000 O 2520.42 8.02971 -3.47653 0
M  V30 77001 C 2519.93 6.89504 -1.41631 0
M  V30 77002 C 2520.64 5.59106 -1.75155 0
M  V30 77003 N 2520.59 4.58136 -0.662409 0
M  V30 77004 C 2520.44 3.26059 -1.02863 0
M  V30 77005 O 2520.35 2.90743 -2.19009 0
M  V30 77006 N 2520.4 2.35995 0.0155585 0
M  V30 77007 C 2520.49 2.65248 1.35603 0
M  V30 77008 O 2520.44 1.75605 2.20651 0
M  V30 77009 C 2520.64 4.05747 1.64698 0
M  V30 77010 C 2520.75 4.42345 3.09553 0
M  V30 77011 C 2520.69 4.96734 0.652411 0
M  V30 77012 H 2523.43 8.64917 -0.776982 0
M  V30 77013 H 2523.7 6.89974 -0.474015 0
M  V30 77014 H 2522.83 7.66548 -2.79458 0
M  V30 77015 H 2520.17 5.16076 -2.65138 0
M  V30 77016 H 2519.89 7.06433 -0.329384 0
M  V30 77017 H 2518.9 6.90829 -1.81996 0
M  V30 77018 H 2520.74 8.90774 -1.62639 0
M  V30 77019 H 2520.81 6.02181 0.895285 0
M  V30 77020 H 2519.78 4.80252 3.45468 0
M  V30 77021 H 2521.51 5.20015 3.22119 0
M  V30 77022 H 2521.03 3.53269 3.67833 0
M  V30 77023 H 2520.29 1.39558 -0.227499 0
M  V30 77024 P 2518.87 8.03563 -3.84925 0
M  V30 77025 O 2518.65 8.85821 -5.0569 0
M  V30 77026 O 2518.08 8.41101 -2.65469 0
M  V30 77027 O 2518.62 6.4965 -4.18908 0
M  V30 77028 C 2519.56 5.81037 -5.05421 0
M  V30 77029 C 2518.83 4.78366 -5.89277 0
M  V30 77030 O 2518.62 3.58302 -5.08433 0
M  V30 77031 C 2517.43 5.17448 -6.36119 0
M  V30 77032 O 2517.04 4.45271 -7.53232 0
M  V30 77033 C 2516.55 4.74639 -5.19936 0
M  V30 77034 C 2517.26 3.49432 -4.70418 0
M  V30 77035 N 2517.21 3.31776 -3.22945 0
M  V30 77036 H 2520.04 6.54213 -5.71376 0
M  V30 77037 H 2520.32 5.30492 -4.44033 0
M  V30 77038 H 2519.45 4.55889 -6.76652 0
M  V30 77039 P 2515.49 4.23843 -7.83734 0
M  V30 77040 O 2515.27 4.19407 -9.29784 0
M  V30 77041 O 2514.7 5.24426 -7.09156 0
M  V30 77042 O 2515.24 2.7935 -7.20758 0
M  V30 77043 C 2516.18 1.7299 -7.50419 0
M  V30 77044 C 2515.45 0.406376 -7.57911 0
M  V30 77045 O 2515.24 -0.0897726 -6.21935 0
M  V30 77046 C 2514.05 0.447224 -8.1878 0
M  V30 77047 O 2513.66 -0.825065 -8.71101 0
M  V30 77048 C 2513.17 0.783801 -6.99623 0
M  V30 77049 C 2513.88 0.0619192 -5.85967 0
M  V30 77050 N 2513.83 0.790462 -4.56202 0
M  V30 77051 H 2516.66 1.93423 -8.4679 0
M  V30 77052 H 2516.94 1.68852 -6.70877 0
M  V30 77053 H 2516.07 -0.289041 -8.15388 0
M  V30 77054 H 2513.41 -0.927006 -5.72848 0
M  V30 77055 H 2513.13 1.86973 -6.82036 0
M  V30 77056 H 2512.14 0.403953 -7.13357 0
M  V30 77057 H 2513.98 1.20599 -8.97534 0
M  V30 77058 P 2512.11 -1.17771 -8.83182 0
M  V30 77059 O 2511.89 -2.07206 -9.98732 0
M  V30 77060 O 2511.32 0.0743816 -8.81969 0
M  V30 77061 O 2511.86 -1.97652 -7.47304 0
M  V30 77062 C 2512.8 -3.01133 -7.08783 0
M  V30 77063 C 2512.07 -4.12613 -6.37049 0
M  V30 77064 O 2511.86 -3.72827 -4.97879 0
M  V30 77065 C 2510.67 -4.45085 -6.88694 0
M  V30 77066 O 2510.28 -5.7877 -6.5624 0
M  V30 77067 C 2509.79 -3.47817 -6.12078 0
M  V30 77068 C 2510.5 -3.39414 -4.77697 0
M  V30 77069 N 2510.45 -2.04615 -4.15333 0
M  V30 77070 H 2513.28 -3.41248 -7.98759 0
M  V30 77071 H 2513.56 -2.5837 -6.41742 0
M  V30 77072 H 2512.69 -5.02657 -6.42673 0
M  V30 77073 P 2508.73 -6.144 -6.45285 0
M  V30 77074 O 2508.51 -7.54673 -6.86199 0
M  V30 77075 O 2507.94 -5.12391 -7.179 0
M  V30 77076 O 2508.48 -5.99158 -4.88404 0
M  V30 77077 C 2509.42 -6.60234 -3.96415 0
M  V30 77078 C 2508.69 -7.08259 -2.72856 0
M  V30 77079 O 2508.48 -5.9427 -1.83651 0
M  V30 77080 C 2507.29 -7.64886 -2.9555 0
M  V30 77081 O 2506.9 -8.53963 -1.90717 0
M  V30 77082 C 2506.41 -6.4116 -2.90739 0
M  V30 77083 C 2507.12 -5.55375 -1.86963 0
M  V30 77084 N 2507.07 -4.09664 -2.15742 0
M  V30 77085 H 2509.9 -7.45574 -4.45629 0
M  V30 77086 H 2510.18 -5.86232 -3.67314 0
M  V30 77087 H 2509.31 -7.84412 -2.24479 0
M  V30 77088 P 2505.35 -8.7635 -1.60911 0
M  V30 77089 O 2505.13 -10.1388 -1.11561 0
M  V30 77090 O 2504.56 -8.36503 -2.79617 0
M  V30 77091 O 2505.1 -7.71806 -0.42951 0
M  V30 77092 C 2506.04 -7.67148 0.673689 0
M  V30 77093 C 2505.31 -7.33374 1.95559 0
M  V30 77094 O 2505.1 -5.88721 2.00726 0
M  V30 77095 C 2503.91 -7.92526 2.10483 0
M  V30 77096 O 2503.52 -8.02971 3.47653 0
M  V30 77097 C 2503.03 -6.89602 1.41652 0
M  V30 77098 C 2503.74 -5.59201 1.75185 0
M  V30 77099 N 2503.69 -4.58235 0.662552 0
M  V30 77100 H 2506.52 -8.65116 0.777161 0
M  V30 77101 H 2506.8 -6.90173 0.474152 0
M  V30 77102 H 2505.93 -7.66548 2.79458 0
M  V30 77103 P 2501.97 -8.03563 3.84925 0
M  V30 77104 O 2501.75 -8.85821 5.0569 0
M  V30 77105 O 2501.18 -8.41101 2.65469 0
M  V30 77106 O 2501.72 -6.4965 4.18908 0
M  V30 77107 C 2502.66 -5.81037 5.05421 0
M  V30 77108 C 2501.93 -4.78366 5.89277 0
M  V30 77109 O 2501.72 -3.58302 5.08433 0
M  V30 77110 C 2500.53 -5.17448 6.36119 0
M  V30 77111 O 2500.14 -4.45271 7.53232 0
M  V30 77112 C 2499.65 -4.74639 5.19936 0
M  V30 77113 C 2500.36 -3.49432 4.70418 0
M  V30 77114 N 2500.31 -3.31776 3.22945 0
M  V30 77115 C 2500.39 -4.27147 2.23315 0
M  V30 77116 N 2500.31 -3.78447 1.02186 0
M  V30 77117 C 2500.17 -2.41001 1.21732 0
M  V30 77118 C 2500.04 -1.36111 0.27694 0
M  V30 77119 N 2499.92 -0.113683 0.912949 0
M  V30 77120 C 2499.92 0.0846396 2.27943 0
M  V30 77121 N 2499.79 1.34737 2.6916 0
M  V30 77122 N 2500.05 -0.902521 3.16379 0
M  V30 77123 C 2500.17 -2.11937 2.56849 0
M  V30 77124 H 2503.14 -6.54213 5.71376 0
M  V30 77125 H 2503.42 -5.30492 4.44033 0
M  V30 77126 H 2502.55 -4.55889 6.76652 0
M  V30 77127 P 2498.59 -4.23843 7.83734 0
M  V30 77128 O 2498.37 -4.19407 9.29784 0
M  V30 77129 O 2497.8 -5.24426 7.09156 0
M  V30 77130 O 2498.34 -2.7935 7.20758 0
M  V30 77131 C 2499.28 -1.7299 7.50419 0
M  V30 77132 C 2498.55 -0.406376 7.57911 0
M  V30 77133 O 2498.34 0.0897726 6.21935 0
M  V30 77134 C 2497.15 -0.447224 8.1878 0
M  V30 77135 O 2496.76 0.825065 8.71101 0
M  V30 77136 C 2496.27 -0.783801 6.99623 0
M  V30 77137 C 2496.98 -0.0619192 5.85967 0
M  V30 77138 N 2496.93 -0.7859 4.56281 0
M  V30 77139 H 2499.76 -1.93423 8.4679 0
M  V30 77140 H 2500.04 -1.68181 6.71046 0
M  V30 77141 H 2499.17 0.289041 8.15388 0
M  V30 77142 P 2495.21 1.17771 8.83182 0
M  V30 77143 O 2494.99 2.07206 9.98732 0
M  V30 77144 O 2494.42 -0.0743816 8.81969 0
M  V30 77145 O 2494.96 1.97652 7.47304 0
M  V30 77146 C 2495.9 3.01133 7.08783 0
M  V30 77147 C 2495.17 4.12613 6.37049 0
M  V30 77148 O 2494.96 3.72827 4.97879 0
M  V30 77149 C 2493.77 4.45085 6.88694 0
M  V30 77150 O 2493.38 5.7877 6.5624 0
M  V30 77151 C 2492.89 3.47817 6.12078 0
M  V30 77152 C 2493.6 3.39414 4.77697 0
M  V30 77153 N 2493.55 2.04615 4.15333 0
M  V30 77154 H 2496.38 3.41248 7.98759 0
M  V30 77155 H 2496.66 2.5837 6.41742 0
M  V30 77156 H 2495.79 5.02657 6.42673 0
M  V30 77157 P 2491.83 6.144 6.45285 0
M  V30 77158 O 2491.61 7.54673 6.86199 0
M  V30 77159 O 2491.04 5.12391 7.179 0
M  V30 77160 O 2491.58 5.99158 4.88404 0
M  V30 77161 C 2492.52 6.60234 3.96415 0
M  V30 77162 C 2491.79 7.08259 2.72856 0
M  V30 77163 O 2491.58 5.9427 1.83651 0
M  V30 77164 C 2490.39 7.64886 2.9555 0
M  V30 77165 O 2490 8.53963 1.90717 0
M  V30 77166 C 2489.51 6.4116 2.90739 0
M  V30 77167 C 2490.22 5.55375 1.86963 0
M  V30 77168 N 2490.17 4.09448 2.16152 0
M  V30 77169 H 2493 7.45574 4.45629 0
M  V30 77170 H 2493.28 5.85864 3.679 0
M  V30 77171 H 2492.41 7.84412 2.24479 0
M  V30 77172 H 2489.75 5.73457 0.888562 0
M  V30 77173 H 2489.47 5.90877 3.88583 0
M  V30 77174 H 2488.48 6.6596 2.58858 0
M  V30 77175 H 2490.32 8.16339 3.92049 0
M  V30 77176 P 2488.45 8.7635 1.60911 0
M  V30 77177 O 2488.23 10.1388 1.11561 0
M  V30 77178 O 2487.66 8.36503 2.79617 0
M  V30 77179 O 2488.2 7.71806 0.42951 0
M  V30 77180 C 2489.14 7.67148 -0.673689 0
M  V30 77181 C 2488.41 7.33374 -1.95559 0
M  V30 77182 O 2488.2 5.88721 -2.00726 0
M  V30 77183 C 2487.01 7.92526 -2.10483 0
M  V30 77184 O 2486.62 8.02971 -3.47653 0
M  V30 77185 C 2486.13 6.89602 -1.41652 0
M  V30 77186 C 2486.84 5.59201 -1.75185 0
M  V30 77187 N 2486.79 4.58235 -0.662552 0
M  V30 77188 H 2489.62 8.65116 -0.777161 0
M  V30 77189 H 2489.9 6.90173 -0.474152 0
M  V30 77190 H 2489.03 7.66548 -2.79458 0
M  V30 77191 P 2485.07 8.03563 -3.84925 0
M  V30 77192 O 2484.85 8.85821 -5.0569 0
M  V30 77193 O 2484.28 8.41101 -2.65469 0
M  V30 77194 O 2484.82 6.4965 -4.18908 0
M  V30 77195 C 2485.76 5.81037 -5.05421 0
M  V30 77196 C 2485.03 4.78366 -5.89277 0
M  V30 77197 O 2484.82 3.58302 -5.08433 0
M  V30 77198 C 2483.63 5.17448 -6.36119 0
M  V30 77199 O 2483.24 4.45271 -7.53232 0
M  V30 77200 C 2482.75 4.74639 -5.19936 0
M  V30 77201 C 2483.46 3.49432 -4.70418 0
M  V30 77202 N 2483.41 3.32099 -3.22613 0
M  V30 77203 H 2486.24 6.54213 -5.71376 0
M  V30 77204 H 2486.52 5.30936 -4.43503 0
M  V30 77205 H 2485.65 4.55889 -6.76652 0
M  V30 77206 H 2482.99 2.61715 -5.17932 0
M  V30 77207 H 2482.71 5.52155 -4.41878 0
M  V30 77208 H 2481.72 4.51981 -5.53374 0
M  V30 77209 H 2483.56 6.25124 -6.55234 0
M  V30 77210 P 2481.69 4.23843 -7.83734 0
M  V30 77211 O 2481.47 4.19407 -9.29784 0
M  V30 77212 O 2480.9 5.24426 -7.09156 0
M  V30 77213 O 2481.44 2.7935 -7.20758 0
M  V30 77214 C 2482.38 1.7299 -7.50419 0
M  V30 77215 C 2481.65 0.406376 -7.57911 0
M  V30 77216 O 2481.44 -0.0897726 -6.21935 0
M  V30 77217 C 2480.25 0.447224 -8.1878 0
M  V30 77218 O 2479.86 -0.825065 -8.71101 0
M  V30 77219 C 2479.37 0.783801 -6.99623 0
M  V30 77220 C 2480.08 0.0619192 -5.85967 0
M  V30 77221 N 2480.03 0.790462 -4.56202 0
M  V30 77222 C 2480.11 2.13895 -4.34171 0
M  V30 77223 N 2480.04 2.46449 -3.08687 0
M  V30 77224 C 2479.89 1.2525 -2.43697 0
M  V30 77225 C 2479.76 0.914535 -1.07318 0
M  V30 77226 N 2479.75 1.80782 -0.0887348 0
M  V30 77227 N 2479.64 -0.386745 -0.768133 0
M  V30 77228 C 2479.65 -1.28096 -1.75159 0
M  V30 77229 N 2479.77 -1.09708 -3.04861 0
M  V30 77230 C 2479.89 0.214857 -3.32306 0
M  V30 77231 H 2482.86 1.93423 -8.4679 0
M  V30 77232 H 2483.14 1.68852 -6.70877 0
M  V30 77233 H 2482.27 -0.289041 -8.15388 0
M  V30 77234 H 2479.61 -0.927006 -5.72848 0
M  V30 77235 H 2479.33 1.86973 -6.82036 0
M  V30 77236 H 2478.34 0.403953 -7.13357 0
M  V30 77237 H 2480.18 1.20599 -8.97534 0
M  V30 77238 H 2480.22 2.86846 -5.14318 0
M  V30 77239 H 2479.84 2.81082 -0.302037 0
M  V30 77240 H 2479.65 1.49688 0.889064 0
M  V30 77241 H 2479.54 -2.31317 -1.43855 0
M  V30 77242 P 2478.31 -1.17771 -8.83182 0
M  V30 77243 O 2478.09 -2.07206 -9.98732 0
M  V30 77244 O 2477.52 0.0743816 -8.81969 0
M  V30 77245 O 2478.06 -1.97678 -7.474 0
M  V30 77246 C 2479 -3.01133 -7.08783 0
M  V30 77247 C 2478.27 -4.1203 -6.37546 0
M  V30 77248 O 2478.06 -3.72887 -4.9796 0
M  V30 77249 C 2476.87 -4.45085 -6.88694 0
M  V30 77250 O 2476.48 -5.78836 -6.56315 0
M  V30 77251 C 2475.99 -3.47817 -6.12078 0
M  V30 77252 C 2476.7 -3.39414 -4.77697 0
M  V30 77253 N 2476.65 -2.04615 -4.15333 0
M  V30 77254 C 2476.5 -1.96929 -2.77162 0
M  V30 77255 O 2476.41 -3.02017 -2.12006 0
M  V30 77256 N 2476.45 -0.55485 -2.24237 0
M  V30 77257 C 2476.55 0.367808 -2.9169 0
M  V30 77258 N 2476.5 1.53426 -2.29427 0
M  V30 77259 C 2476.7 0.319148 -4.33828 0
M  V30 77260 C 2476.75 -0.920672 -4.90433 0
M  V30 77261 H 2479.49 -3.41209 -7.98667 0
M  V30 77262 H 2479.76 -2.5837 -6.41742 0
M  V30 77263 H 2478.89 -5.02718 -6.42752 0
M  V30 77264 H 2476.23 -4.11779 -4.09026 0
M  V30 77265 H 2475.95 -2.49661 -6.61772 0
M  V30 77266 H 2474.96 -3.86674 -6.00946 0
M  V30 77267 H 2476.8 -4.29991 -7.97006 0
M  V30 77268 H 2476.87 -1.00589 -5.98303 0
M  V30 77269 H 2476.77 1.22639 -4.93799 0
M  V30 77270 H 2476.38 1.56819 -1.27167 0
M  V30 77271 H 2476.57 2.41062 -2.83063 0
M  V30 77272 P 2474.93 -6.144 -6.45285 0
M  V30 77273 O 2474.71 -7.54673 -6.86199 0
M  V30 77274 O 2474.14 -5.12391 -7.179 0
M  V30 77275 O 2474.68 -5.99158 -4.88404 0
M  V30 77276 C 2475.62 -6.60234 -3.96415 0
M  V30 77277 C 2474.89 -7.08259 -2.72856 0
M  V30 77278 O 2474.68 -5.9427 -1.83651 0
M  V30 77279 C 2473.49 -7.64886 -2.9555 0
M  V30 77280 O 2473.1 -8.53963 -1.90717 0
M  V30 77281 C 2472.61 -6.4116 -2.90739 0
M  V30 77282 C 2473.32 -5.55375 -1.86963 0
M  V30 77283 N 2473.27 -4.09664 -2.15742 0
M  V30 77284 H 2476.1 -7.45574 -4.45629 0
M  V30 77285 H 2476.38 -5.86232 -3.67314 0
M  V30 77286 H 2475.51 -7.84412 -2.24479 0
M  V30 77287 P 2471.55 -8.7635 -1.60911 0
M  V30 77288 O 2471.33 -10.1388 -1.11561 0
M  V30 77289 O 2470.76 -8.36503 -2.79617 0
M  V30 77290 O 2471.3 -7.71806 -0.42951 0
M  V30 77291 C 2472.24 -7.67148 0.673689 0
M  V30 77292 C 2471.51 -7.33374 1.95559 0
M  V30 77293 O 2471.3 -5.88721 2.00726 0
M  V30 77294 C 2470.11 -7.92526 2.10483 0
M  V30 77295 O 2469.72 -8.02971 3.47653 0
M  V30 77296 C 2469.23 -6.89602 1.41652 0
M  V30 77297 C 2469.94 -5.59201 1.75185 0
M  V30 77298 N 2469.89 -4.58235 0.662552 0
M  V30 77299 H 2472.72 -8.65116 0.777161 0
M  V30 77300 H 2473 -6.90173 0.474152 0
M  V30 77301 H 2472.13 -7.66548 2.79458 0
M  V30 77302 P 2468.17 -8.03563 3.84925 0
M  V30 77303 O 2467.95 -8.85821 5.0569 0
M  V30 77304 O 2467.38 -8.41101 2.65469 0
M  V30 77305 O 2467.92 -6.4965 4.18908 0
M  V30 77306 C 2468.86 -5.81037 5.05421 0
M  V30 77307 C 2468.13 -4.78366 5.89277 0
M  V30 77308 O 2467.92 -3.58302 5.08433 0
M  V30 77309 C 2466.73 -5.17448 6.36119 0
M  V30 77310 O 2466.34 -4.45271 7.53232 0
M  V30 77311 C 2465.85 -4.74639 5.19936 0
M  V30 77312 C 2466.56 -3.49432 4.70418 0
M  V30 77313 N 2466.51 -3.31776 3.22945 0
M  V30 77314 H 2469.34 -6.54213 5.71376 0
M  V30 77315 H 2469.62 -5.30492 4.44033 0
M  V30 77316 H 2468.75 -4.55889 6.76652 0
M  V30 77317 P 2464.79 -4.23843 7.83734 0
M  V30 77318 O 2464.57 -4.19407 9.29784 0
M  V30 77319 O 2464 -5.24426 7.09156 0
M  V30 77320 O 2464.54 -2.7935 7.20758 0
M  V30 77321 C 2465.48 -1.7299 7.50419 0
M  V30 77322 C 2464.75 -0.406376 7.57911 0
M  V30 77323 O 2464.54 0.0897726 6.21935 0
M  V30 77324 C 2463.35 -0.447224 8.1878 0
M  V30 77325 O 2462.96 0.825065 8.71101 0
M  V30 77326 C 2462.47 -0.783801 6.99623 0
M  V30 77327 C 2463.18 -0.0619192 5.85967 0
M  V30 77328 N 2463.13 -0.7859 4.56281 0
M  V30 77329 H 2465.96 -1.93423 8.4679 0
M  V30 77330 H 2466.24 -1.68181 6.71046 0
M  V30 77331 H 2465.37 0.289041 8.15388 0
M  V30 77332 P 2461.41 1.17771 8.83182 0
M  V30 77333 O 2461.19 2.07206 9.98732 0
M  V30 77334 O 2460.62 -0.0743816 8.81969 0
M  V30 77335 O 2461.16 1.97652 7.47304 0
M  V30 77336 C 2462.1 3.01133 7.08783 0
M  V30 77337 C 2461.37 4.12613 6.37049 0
M  V30 77338 O 2461.16 3.72827 4.97879 0
M  V30 77339 C 2459.97 4.45085 6.88694 0
M  V30 77340 O 2459.58 5.7877 6.5624 0
M  V30 77341 C 2459.09 3.47817 6.12078 0
M  V30 77342 C 2459.8 3.39414 4.77697 0
M  V30 77343 N 2459.75 2.04615 4.15333 0
M  V30 77344 H 2462.58 3.41248 7.98759 0
M  V30 77345 H 2462.86 2.5837 6.41742 0
M  V30 77346 H 2461.99 5.02657 6.42673 0
M  V30 77347 P 2458.03 6.144 6.45285 0
M  V30 77348 O 2457.81 7.54673 6.86199 0
M  V30 77349 O 2457.24 5.12391 7.179 0
M  V30 77350 O 2457.78 5.99158 4.88404 0
M  V30 77351 C 2458.72 6.60234 3.96415 0
M  V30 77352 C 2457.99 7.08259 2.72856 0
M  V30 77353 O 2457.78 5.9427 1.83651 0
M  V30 77354 C 2456.59 7.64886 2.9555 0
M  V30 77355 O 2456.2 8.53963 1.90717 0
M  V30 77356 C 2455.71 6.4116 2.90739 0
M  V30 77357 C 2456.42 5.55375 1.86963 0
M  V30 77358 N 2456.37 4.09664 2.15742 0
M  V30 77359 H 2459.2 7.45574 4.45629 0
M  V30 77360 H 2459.48 5.86232 3.67314 0
M  V30 77361 H 2458.61 7.84412 2.24479 0
M  V30 77362 P 2454.65 8.7635 1.60911 0
M  V30 77363 O 2454.43 10.1388 1.11561 0
M  V30 77364 O 2453.86 8.36503 2.79617 0
M  V30 77365 O 2454.4 7.71806 0.42951 0
M  V30 77366 C 2455.34 7.67148 -0.673689 0
M  V30 77367 C 2454.61 7.33374 -1.95559 0
M  V30 77368 O 2454.4 5.88721 -2.00726 0
M  V30 77369 C 2453.21 7.92526 -2.10483 0
M  V30 77370 O 2452.82 8.02971 -3.47653 0
M  V30 77371 C 2452.33 6.89602 -1.41652 0
M  V30 77372 C 2453.04 5.59201 -1.75185 0
M  V30 77373 N 2452.99 4.58235 -0.662552 0
M  V30 77374 H 2455.82 8.65116 -0.777161 0
M  V30 77375 H 2456.1 6.90173 -0.474152 0
M  V30 77376 H 2455.23 7.66548 -2.79458 0
M  V30 77377 P 2451.27 8.03563 -3.84925 0
M  V30 77378 O 2451.05 8.85821 -5.0569 0
M  V30 77379 O 2450.48 8.41101 -2.65469 0
M  V30 77380 O 2451.02 6.4965 -4.18908 0
M  V30 77381 C 2451.96 5.81037 -5.05421 0
M  V30 77382 C 2451.23 4.78366 -5.89277 0
M  V30 77383 O 2451.02 3.58302 -5.08433 0
M  V30 77384 C 2449.83 5.17448 -6.36119 0
M  V30 77385 O 2449.44 4.45271 -7.53232 0
M  V30 77386 C 2448.95 4.74639 -5.19936 0
M  V30 77387 C 2449.66 3.49432 -4.70418 0
M  V30 77388 N 2449.61 3.32099 -3.22613 0
M  V30 77389 H 2452.44 6.54213 -5.71376 0
M  V30 77390 H 2452.72 5.30936 -4.43503 0
M  V30 77391 H 2451.85 4.55889 -6.76652 0
M  V30 77392 H 2449.19 2.61715 -5.17932 0
M  V30 77393 H 2448.91 5.52155 -4.41878 0
M  V30 77394 H 2447.92 4.51981 -5.53374 0
M  V30 77395 H 2449.76 6.25124 -6.55234 0
M  V30 77396 P 2447.89 4.23843 -7.83734 0
M  V30 77397 O 2447.67 4.19407 -9.29784 0
M  V30 77398 O 2447.1 5.24426 -7.09156 0
M  V30 77399 O 2447.64 2.79386 -7.20852 0
M  V30 77400 C 2448.58 1.7299 -7.50419 0
M  V30 77401 C 2447.85 0.41401 -7.5797 0
M  V30 77402 O 2447.64 -0.089787 -6.22035 0
M  V30 77403 C 2446.45 0.447224 -8.1878 0
M  V30 77404 O 2446.06 -0.825159 -8.71201 0
M  V30 77405 C 2445.57 0.783801 -6.99623 0
M  V30 77406 C 2446.28 0.0619192 -5.85967 0
M  V30 77407 N 2446.23 0.7859 -4.56281 0
M  V30 77408 C 2446.08 0.0359258 -3.39981 0
M  V30 77409 O 2445.99 -1.19723 -3.49038 0
M  V30 77410 N 2446.03 0.869151 -2.14025 0
M  V30 77411 C 2446.13 2.01207 -2.14363 0
M  V30 77412 N 2446.08 2.58978 -0.954287 0
M  V30 77413 C 2446.28 2.80817 -3.32215 0
M  V30 77414 C 2446.33 2.13785 -4.50884 0
M  V30 77415 H 2449.07 1.93401 -8.46693 0
M  V30 77416 H 2449.34 1.68181 -6.71046 0
M  V30 77417 H 2448.47 -0.289076 -8.15488 0
M  V30 77418 H 2445.81 -0.927166 -5.72947 0
M  V30 77419 H 2445.53 1.87 -6.82132 0
M  V30 77420 H 2444.54 0.404009 -7.13457 0
M  V30 77421 H 2446.38 1.20599 -8.97534 0
M  V30 77422 H 2446.45 2.70295 -5.43162 0
M  V30 77423 H 2446.35 3.89465 -3.27406 0
M  V30 77424 H 2445.96 2.01616 -0.107046 0
M  V30 77425 H 2446.15 3.61403 -0.873101 0
M  V30 77426 P 2444.51 -1.17771 -8.83182 0
M  V30 77427 O 2444.29 -2.07206 -9.98732 0
M  V30 77428 O 2443.72 0.0743816 -8.81969 0
M  V30 77429 O 2444.26 -1.97652 -7.47304 0
M  V30 77430 C 2445.2 -3.01133 -7.08783 0
M  V30 77431 C 2444.47 -4.12613 -6.37049 0
M  V30 77432 O 2444.26 -3.72827 -4.97879 0
M  V30 77433 C 2443.07 -4.45085 -6.88694 0
M  V30 77434 O 2442.68 -5.7877 -6.5624 0
M  V30 77435 C 2442.19 -3.47817 -6.12078 0
M  V30 77436 C 2442.9 -3.39414 -4.77697 0
M  V30 77437 N 2442.85 -2.04199 -4.15538 0
M  V30 77438 H 2445.68 -3.41248 -7.98759 0
M  V30 77439 H 2445.96 -2.57728 -6.42 0
M  V30 77440 H 2445.09 -5.02657 -6.42673 0
M  V30 77441 H 2442.43 -4.11708 -4.08956 0
M  V30 77442 H 2442.15 -2.49626 -6.61679 0
M  V30 77443 H 2441.16 -3.8662 -6.00862 0
M  V30 77444 H 2443 -4.29991 -7.97006 0
M  V30 77445 P 2441.13 -6.144 -6.45285 0
M  V30 77446 O 2440.91 -7.54673 -6.86199 0
M  V30 77447 O 2440.34 -5.12391 -7.179 0
M  V30 77448 O 2440.88 -5.99158 -4.88404 0
M  V30 77449 C 2441.82 -6.60234 -3.96415 0
M  V30 77450 C 2441.09 -7.08259 -2.72856 0
M  V30 77451 O 2440.88 -5.9427 -1.83651 0
M  V30 77452 C 2439.69 -7.64886 -2.9555 0
M  V30 77453 O 2439.3 -8.53963 -1.90717 0
M  V30 77454 C 2438.81 -6.4116 -2.90739 0
M  V30 77455 C 2439.52 -5.55375 -1.86963 0
M  V30 77456 N 2439.47 -4.09448 -2.16152 0
M  V30 77457 C 2439.55 -3.46824 -3.37593 0
M  V30 77458 N 2439.48 -2.17422 -3.29777 0
M  V30 77459 C 2439.33 -1.93065 -1.94427 0
M  V30 77460 C 2439.2 -0.738053 -1.20141 0
M  V30 77461 N 2439.19 0.474256 -1.74676 0
M  V30 77462 N 2439.08 -0.850049 0.13045 0
M  V30 77463 C 2439.09 -2.06169 0.676992 0
M  V30 77464 N 2439.21 -3.23842 0.101312 0
M  V30 77465 C 2439.33 -3.09402 -1.23122 0
M  V30 77466 H 2442.3 -7.45574 -4.45629 0
M  V30 77467 H 2442.58 -5.85864 -3.679 0
M  V30 77468 H 2441.71 -7.84412 -2.24479 0
M  V30 77469 H 2439.05 -5.73457 -0.888562 0
M  V30 77470 H 2438.77 -5.90877 -3.88583 0
M  V30 77471 H 2437.78 -6.6596 -2.58858 0
M  V30 77472 H 2439.62 -8.16339 -3.92049 0
M  V30 77473 H 2439.66 -4.00505 -4.3174 0
M  V30 77474 H 2439.28 0.581337 -2.76658 0
M  V30 77475 H 2439.09 1.30811 -1.14888 0
M  V30 77476 H 2438.98 -2.08295 1.75542 0
M  V30 77477 P 2437.75 -8.7635 -1.60911 0
M  V30 77478 O 2437.53 -10.1388 -1.11561 0
M  V30 77479 O 2436.96 -8.36503 -2.79617 0
M  V30 77480 O 2437.5 -7.71806 -0.42951 0
M  V30 77481 C 2438.44 -7.67148 0.673689 0
M  V30 77482 C 2437.71 -7.33374 1.95559 0
M  V30 77483 O 2437.5 -5.88721 2.00726 0
M  V30 77484 C 2436.31 -7.92526 2.10483 0
M  V30 77485 O 2435.92 -8.02971 3.47653 0
M  V30 77486 C 2435.43 -6.89602 1.41652 0
M  V30 77487 C 2436.14 -5.59201 1.75185 0
M  V30 77488 N 2436.09 -4.58301 0.657969 0
M  V30 77489 H 2438.92 -8.65116 0.777161 0
M  V30 77490 H 2439.2 -6.9022 0.46725 0
M  V30 77491 H 2438.33 -7.66548 2.79458 0
M  V30 77492 H 2435.67 -5.16165 2.65183 0
M  V30 77493 H 2435.39 -7.06433 0.329384 0
M  V30 77494 H 2434.4 -6.90926 1.82021 0
M  V30 77495 H 2436.24 -8.90873 1.62657 0
M  V30 77496 P 2434.37 -8.03563 3.84925 0
M  V30 77497 O 2434.15 -8.85821 5.0569 0
M  V30 77498 O 2433.58 -8.41101 2.65469 0
M  V30 77499 O 2434.12 -6.4965 4.18908 0
M  V30 77500 C 2435.06 -5.81037 5.05421 0
M  V30 77501 C 2434.33 -4.78366 5.89277 0
M  V30 77502 O 2434.12 -3.58302 5.08433 0
M  V30 77503 C 2432.93 -5.17448 6.36119 0
M  V30 77504 O 2432.54 -4.45271 7.53232 0
M  V30 77505 C 2432.05 -4.74639 5.19936 0
M  V30 77506 C 2432.76 -3.49432 4.70418 0
M  V30 77507 N 2432.71 -3.32099 3.22613 0
M  V30 77508 H 2435.54 -6.54213 5.71376 0
M  V30 77509 H 2435.82 -5.30936 4.43503 0
M  V30 77510 H 2434.95 -4.55889 6.76652 0
M  V30 77511 H 2432.29 -2.61715 5.17932 0
M  V30 77512 H 2432.01 -5.52155 4.41878 0
M  V30 77513 H 2431.02 -4.51981 5.53374 0
M  V30 77514 H 2432.86 -6.25124 6.55234 0
M  V30 77515 P 2430.99 -4.23843 7.83734 0
M  V30 77516 O 2430.77 -4.19407 9.29784 0
M  V30 77517 O 2430.2 -5.24426 7.09156 0
M  V30 77518 O 2430.74 -2.7935 7.20758 0
M  V30 77519 C 2431.68 -1.7299 7.50419 0
M  V30 77520 C 2430.95 -0.406376 7.57911 0
M  V30 77521 O 2430.74 0.0897726 6.21935 0
M  V30 77522 C 2429.55 -0.447224 8.1878 0
M  V30 77523 O 2429.16 0.825065 8.71101 0
M  V30 77524 C 2428.67 -0.783801 6.99623 0
M  V30 77525 C 2429.38 -0.0619192 5.85967 0
M  V30 77526 N 2429.33 -0.7859 4.56281 0
M  V30 77527 C 2429.41 -2.14308 4.31736 0
M  V30 77528 N 2429.33 -2.46106 3.05116 0
M  V30 77529 C 2429.19 -1.23422 2.4014 0
M  V30 77530 C 2429.06 -0.938381 1.02409 0
M  V30 77531 N 2428.94 0.444647 0.805413 0
M  V30 77532 C 2428.94 1.40829 1.79435 0
M  V30 77533 N 2428.81 2.67213 1.38558 0
M  V30 77534 N 2429.07 1.12947 3.09005 0
M  V30 77535 C 2429.19 -0.204887 3.32369 0
M  V30 77536 H 2432.16 -1.93423 8.4679 0
M  V30 77537 H 2432.44 -1.68181 6.71046 0
M  V30 77538 H 2431.57 0.289041 8.15388 0
M  V30 77539 P 2427.61 1.17771 8.83182 0
M  V30 77540 O 2427.39 2.07206 9.98732 0
M  V30 77541 O 2426.82 -0.0743816 8.81969 0
M  V30 77542 O 2427.36 1.97652 7.47304 0
M  V30 77543 C 2428.3 3.01133 7.08783 0
M  V30 77544 C 2427.57 4.12613 6.37049 0
M  V30 77545 O 2427.36 3.72827 4.97879 0
M  V30 77546 C 2426.17 4.45085 6.88694 0
M  V30 77547 O 2425.78 5.7877 6.5624 0
M  V30 77548 C 2425.29 3.47817 6.12078 0
M  V30 77549 C 2426 3.39414 4.77697 0
M  V30 77550 N 2425.95 2.04615 4.15333 0
M  V30 77551 C 2426.03 0.803897 4.75249 0
M  V30 77552 N 2425.95 -0.197615 3.91502 0
M  V30 77553 C 2425.81 0.413002 2.66823 0
M  V30 77554 C 2425.68 -0.157221 1.38007 0
M  V30 77555 N 2425.56 0.833136 0.390236 0
M  V30 77556 C 2425.56 2.19402 0.623885 0
M  V30 77557 N 2425.43 2.97622 -0.449677 0
M  V30 77558 N 2425.69 2.73005 1.83601 0
M  V30 77559 C 2425.81 1.78786 2.80935 0
M  V30 77560 H 2428.78 3.41248 7.98759 0
M  V30 77561 H 2429.06 2.5837 6.41742 0
M  V30 77562 H 2428.19 5.02657 6.42673 0
M  V30 77563 P 2424.23 6.144 6.45285 0
M  V30 77564 O 2424.01 7.54673 6.86199 0
M  V30 77565 O 2423.44 5.12391 7.179 0
M  V30 77566 O 2423.98 5.99158 4.88404 0
M  V30 77567 C 2424.92 6.60234 3.96415 0
M  V30 77568 C 2424.19 7.08259 2.72856 0
M  V30 77569 O 2423.98 5.9427 1.83651 0
M  V30 77570 C 2422.79 7.64886 2.9555 0
M  V30 77571 O 2422.4 8.53963 1.90717 0
M  V30 77572 C 2421.91 6.4116 2.90739 0
M  V30 77573 C 2422.62 5.55375 1.86963 0
M  V30 77574 N 2422.57 4.09664 2.15742 0
M  V30 77575 H 2425.4 7.45574 4.45629 0
M  V30 77576 H 2425.68 5.86232 3.67314 0
M  V30 77577 H 2424.81 7.84412 2.24479 0
M  V30 77578 P 2420.85 8.7635 1.60911 0
M  V30 77579 O 2420.63 10.1388 1.11561 0
M  V30 77580 O 2420.06 8.36503 2.79617 0
M  V30 77581 O 2420.6 7.71806 0.42951 0
M  V30 77582 C 2421.54 7.67148 -0.673689 0
M  V30 77583 C 2420.81 7.33374 -1.95559 0
M  V30 77584 O 2420.6 5.88721 -2.00726 0
M  V30 77585 C 2419.41 7.92526 -2.10483 0
M  V30 77586 O 2419.02 8.02971 -3.47653 0
M  V30 77587 C 2418.53 6.89602 -1.41652 0
M  V30 77588 C 2419.24 5.59201 -1.75185 0
M  V30 77589 N 2419.19 4.58301 -0.657969 0
M  V30 77590 H 2422.02 8.65116 -0.777161 0
M  V30 77591 H 2422.3 6.9022 -0.46725 0
M  V30 77592 H 2421.43 7.66548 -2.79458 0
M  V30 77593 H 2418.77 5.16165 -2.65183 0
M  V30 77594 H 2418.49 7.06433 -0.329384 0
M  V30 77595 H 2417.5 6.90926 -1.82021 0
M  V30 77596 H 2419.34 8.90873 -1.62657 0
M  V30 77597 P 2417.47 8.03563 -3.84925 0
M  V30 77598 O 2417.25 8.85821 -5.0569 0
M  V30 77599 O 2416.68 8.41101 -2.65469 0
M  V30 77600 O 2417.22 6.4965 -4.18908 0
M  V30 77601 C 2418.16 5.81037 -5.05421 0
M  V30 77602 C 2417.43 4.78366 -5.89277 0
M  V30 77603 O 2417.22 3.58302 -5.08433 0
M  V30 77604 C 2416.03 5.17448 -6.36119 0
M  V30 77605 O 2415.64 4.45271 -7.53232 0
M  V30 77606 C 2415.15 4.74639 -5.19936 0
M  V30 77607 C 2415.86 3.49432 -4.70418 0
M  V30 77608 N 2415.81 3.31776 -3.22945 0
M  V30 77609 H 2418.64 6.54213 -5.71376 0
M  V30 77610 H 2418.92 5.30492 -4.44033 0
M  V30 77611 H 2418.05 4.55889 -6.76652 0
M  V30 77612 P 2414.09 4.23843 -7.83734 0
M  V30 77613 O 2413.87 4.19407 -9.29784 0
M  V30 77614 O 2413.3 5.24426 -7.09156 0
M  V30 77615 O 2413.84 2.7935 -7.20758 0
M  V30 77616 C 2414.78 1.7299 -7.50419 0
M  V30 77617 C 2414.05 0.406376 -7.57911 0
M  V30 77618 O 2413.84 -0.0897726 -6.21935 0
M  V30 77619 C 2412.65 0.447224 -8.1878 0
M  V30 77620 O 2412.26 -0.825065 -8.71101 0
M  V30 77621 C 2411.77 0.783801 -6.99623 0
M  V30 77622 C 2412.48 0.0619192 -5.85967 0
M  V30 77623 N 2412.43 0.7859 -4.56281 0
M  V30 77624 H 2415.26 1.93423 -8.4679 0
M  V30 77625 H 2415.54 1.68181 -6.71046 0
M  V30 77626 H 2414.67 -0.289041 -8.15388 0
M  V30 77627 P 2410.71 -1.17771 -8.83182 0
M  V30 77628 O 2410.49 -2.07206 -9.98732 0
M  V30 77629 O 2409.92 0.0743816 -8.81969 0
M  V30 77630 O 2410.46 -1.97652 -7.47304 0
M  V30 77631 C 2411.4 -3.01133 -7.08783 0
M  V30 77632 C 2410.67 -4.12613 -6.37049 0
M  V30 77633 O 2410.46 -3.72827 -4.97879 0
M  V30 77634 C 2409.27 -4.45085 -6.88694 0
M  V30 77635 O 2408.88 -5.7877 -6.5624 0
M  V30 77636 C 2408.39 -3.47817 -6.12078 0
M  V30 77637 C 2409.1 -3.39414 -4.77697 0
M  V30 77638 N 2409.05 -2.04615 -4.15333 0
M  V30 77639 C 2409.13 -0.803897 -4.75249 0
M  V30 77640 N 2409.05 0.197615 -3.91502 0
M  V30 77641 C 2408.91 -0.413002 -2.66823 0
M  V30 77642 C 2408.78 0.157221 -1.38007 0
M  V30 77643 N 2408.66 -0.833136 -0.390236 0
M  V30 77644 C 2408.66 -2.19402 -0.623885 0
M  V30 77645 N 2408.53 -2.97622 0.449677 0
M  V30 77646 N 2408.79 -2.73005 -1.83601 0
M  V30 77647 C 2408.91 -1.78786 -2.80935 0
M  V30 77648 H 2411.88 -3.41248 -7.98759 0
M  V30 77649 H 2412.16 -2.5837 -6.41742 0
M  V30 77650 H 2411.29 -5.02657 -6.42673 0
M  V30 77651 P 2407.33 -6.144 -6.45285 0
M  V30 77652 O 2407.11 -7.54673 -6.86199 0
M  V30 77653 O 2406.54 -5.12391 -7.179 0
M  V30 77654 O 2407.08 -5.99158 -4.88404 0
M  V30 77655 C 2408.02 -6.60234 -3.96415 0
M  V30 77656 C 2407.29 -7.08259 -2.72856 0
M  V30 77657 O 2407.08 -5.9427 -1.83651 0
M  V30 77658 C 2405.89 -7.64886 -2.9555 0
M  V30 77659 O 2405.5 -8.53963 -1.90717 0
M  V30 77660 C 2405.01 -6.4116 -2.90739 0
M  V30 77661 C 2405.72 -5.55375 -1.86963 0
M  V30 77662 N 2405.67 -4.09664 -2.15742 0
M  V30 77663 H 2408.5 -7.45574 -4.45629 0
M  V30 77664 H 2408.78 -5.86232 -3.67314 0
M  V30 77665 H 2407.91 -7.84412 -2.24479 0
M  V30 77666 P 2403.95 -8.7635 -1.60911 0
M  V30 77667 O 2403.73 -10.1388 -1.11561 0
M  V30 77668 O 2403.16 -8.36503 -2.79617 0
M  V30 77669 O 2403.7 -7.71806 -0.42951 0
M  V30 77670 C 2404.64 -7.67148 0.673689 0
M  V30 77671 C 2403.91 -7.33374 1.95559 0
M  V30 77672 O 2403.7 -5.88721 2.00726 0
M  V30 77673 C 2402.51 -7.92526 2.10483 0
M  V30 77674 O 2402.12 -8.02971 3.47653 0
M  V30 77675 C 2401.63 -6.89602 1.41652 0
M  V30 77676 C 2402.34 -5.59201 1.75185 0
M  V30 77677 N 2402.29 -4.58301 0.657969 0
M  V30 77678 H 2405.12 -8.65116 0.777161 0
M  V30 77679 H 2405.4 -6.9022 0.46725 0
M  V30 77680 H 2404.53 -7.66548 2.79458 0
M  V30 77681 H 2401.87 -5.16165 2.65183 0
M  V30 77682 H 2401.59 -7.06433 0.329384 0
M  V30 77683 H 2400.6 -6.90926 1.82021 0
M  V30 77684 H 2402.44 -8.90873 1.62657 0
M  V30 77685 P 2400.57 -8.03563 3.84925 0
M  V30 77686 O 2400.35 -8.85821 5.0569 0
M  V30 77687 O 2399.78 -8.41101 2.65469 0
M  V30 77688 O 2400.32 -6.4965 4.18908 0
M  V30 77689 C 2401.26 -5.81037 5.05421 0
M  V30 77690 C 2400.53 -4.78366 5.89277 0
M  V30 77691 O 2400.32 -3.58302 5.08433 0
M  V30 77692 C 2399.13 -5.17448 6.36119 0
M  V30 77693 O 2398.74 -4.45271 7.53232 0
M  V30 77694 C 2398.25 -4.74639 5.19936 0
M  V30 77695 C 2398.96 -3.49432 4.70418 0
M  V30 77696 N 2398.91 -3.31776 3.22945 0
M  V30 77697 H 2401.74 -6.54213 5.71376 0
M  V30 77698 H 2402.02 -5.30492 4.44033 0
M  V30 77699 H 2401.15 -4.55889 6.76652 0
M  V30 77700 P 2397.19 -4.23843 7.83734 0
M  V30 77701 O 2396.97 -4.19407 9.29784 0
M  V30 77702 O 2396.4 -5.24426 7.09156 0
M  V30 77703 O 2396.94 -2.7935 7.20758 0
M  V30 77704 C 2397.88 -1.7299 7.50419 0
M  V30 77705 C 2397.15 -0.406376 7.57911 0
M  V30 77706 O 2396.94 0.0897726 6.21935 0
M  V30 77707 C 2395.75 -0.447224 8.1878 0
M  V30 77708 O 2395.36 0.825065 8.71101 0
M  V30 77709 C 2394.87 -0.783801 6.99623 0
M  V30 77710 C 2395.58 -0.0619192 5.85967 0
M  V30 77711 N 2395.53 -0.790462 4.56202 0
M  V30 77712 H 2398.36 -1.93423 8.4679 0
M  V30 77713 H 2398.64 -1.68852 6.70877 0
M  V30 77714 H 2397.77 0.289041 8.15388 0
M  V30 77715 H 2395.11 0.927006 5.72848 0
M  V30 77716 H 2394.83 -1.86973 6.82036 0
M  V30 77717 H 2393.84 -0.403953 7.13357 0
M  V30 77718 H 2395.68 -1.20599 8.97534 0
M  V30 77719 P 2393.81 1.17771 8.83182 0
M  V30 77720 O 2393.59 2.07206 9.98732 0
M  V30 77721 O 2393.02 -0.0743816 8.81969 0
M  V30 77722 O 2393.56 1.97652 7.47304 0
M  V30 77723 C 2394.5 3.01133 7.08783 0
M  V30 77724 C 2393.77 4.12613 6.37049 0
M  V30 77725 O 2393.56 3.72827 4.97879 0
M  V30 77726 C 2392.37 4.45085 6.88694 0
M  V30 77727 O 2391.98 5.7877 6.5624 0
M  V30 77728 C 2391.49 3.47817 6.12078 0
M  V30 77729 C 2392.2 3.39414 4.77697 0
M  V30 77730 N 2392.15 2.04199 4.15538 0
M  V30 77731 H 2394.98 3.41248 7.98759 0
M  V30 77732 H 2395.26 2.57728 6.42 0
M  V30 77733 H 2394.39 5.02657 6.42673 0
M  V30 77734 H 2391.73 4.11708 4.08956 0
M  V30 77735 H 2391.45 2.49626 6.61679 0
M  V30 77736 H 2390.46 3.8662 6.00862 0
M  V30 77737 H 2392.3 4.29991 7.97006 0
M  V30 77738 P 2390.43 6.144 6.45285 0
M  V30 77739 O 2390.21 7.54673 6.86199 0
M  V30 77740 O 2389.64 5.12391 7.179 0
M  V30 77741 O 2390.18 5.99158 4.88404 0
M  V30 77742 C 2391.12 6.60234 3.96415 0
M  V30 77743 C 2390.39 7.08259 2.72856 0
M  V30 77744 O 2390.18 5.9427 1.83651 0
M  V30 77745 C 2388.99 7.64886 2.9555 0
M  V30 77746 O 2388.6 8.53963 1.90717 0
M  V30 77747 C 2388.11 6.4116 2.90739 0
M  V30 77748 C 2388.82 5.55375 1.86963 0
M  V30 77749 N 2388.77 4.09664 2.15742 0
M  V30 77750 H 2391.6 7.45574 4.45629 0
M  V30 77751 H 2391.88 5.86232 3.67314 0
M  V30 77752 H 2391.01 7.84412 2.24479 0
M  V30 77753 P 2387.05 8.7635 1.60911 0
M  V30 77754 O 2386.83 10.1388 1.11561 0
M  V30 77755 O 2386.26 8.36503 2.79617 0
M  V30 77756 O 2386.8 7.71806 0.42951 0
M  V30 77757 C 2387.74 7.67148 -0.673689 0
M  V30 77758 C 2387.01 7.33374 -1.95559 0
M  V30 77759 O 2386.8 5.88721 -2.00726 0
M  V30 77760 C 2385.61 7.92526 -2.10483 0
M  V30 77761 O 2385.22 8.02971 -3.47653 0
M  V30 77762 C 2384.73 6.89602 -1.41652 0
M  V30 77763 C 2385.44 5.59201 -1.75185 0
M  V30 77764 N 2385.39 4.58235 -0.662552 0
M  V30 77765 H 2388.22 8.65116 -0.777161 0
M  V30 77766 H 2388.5 6.90173 -0.474152 0
M  V30 77767 H 2387.63 7.66548 -2.79458 0
M  V30 77768 P 2383.67 8.03563 -3.84925 0
M  V30 77769 O 2383.45 8.85821 -5.0569 0
M  V30 77770 O 2382.88 8.41101 -2.65469 0
M  V30 77771 O 2383.42 6.49734 -4.18962 0
M  V30 77772 C 2384.36 5.81037 -5.05421 0
M  V30 77773 C 2383.63 4.79018 -5.88876 0
M  V30 77774 O 2383.42 3.58359 -5.08515 0
M  V30 77775 C 2382.23 5.17448 -6.36119 0
M  V30 77776 O 2381.84 4.45322 -7.53318 0
M  V30 77777 C 2381.35 4.74639 -5.19936 0
M  V30 77778 C 2382.06 3.49432 -4.70418 0
M  V30 77779 N 2382.01 3.31776 -3.22945 0
M  V30 77780 C 2381.86 2.02742 -2.72939 0
M  V30 77781 O 2381.77 1.08301 -3.52749 0
M  V30 77782 N 2381.81 1.96117 -1.22063 0
M  V30 77783 C 2381.91 2.8878 -0.551566 0
M  V30 77784 N 2381.86 2.65609 0.750198 0
M  V30 77785 C 2382.06 4.22457 -1.03707 0
M  V30 77786 C 2382.11 4.37979 -2.39113 0
M  V30 77787 H 2384.85 6.54138 -5.7131 0
M  V30 77788 H 2385.12 5.30492 -4.44033 0
M  V30 77789 H 2384.25 4.55945 -6.76735 0
M  V30 77790 H 2381.59 2.6176 -5.18021 0
M  V30 77791 H 2381.31 5.52233 -4.41941 0
M  V30 77792 H 2380.32 4.52045 -5.53452 0
M  V30 77793 H 2382.16 6.25124 -6.55234 0
M  V30 77794 H 2382.23 5.37936 -2.80552 0
M  V30 77795 H 2382.13 5.07528 -0.359553 0
M  V30 77796 H 2381.74 1.69403 1.09847 0
M  V30 77797 H 2381.93 3.43701 1.41792 0
M  V30 77798 P 2380.29 4.23843 -7.83734 0
M  V30 77799 O 2380.07 4.19407 -9.29784 0
M  V30 77800 O 2379.5 5.24426 -7.09156 0
M  V30 77801 O 2380.04 2.7935 -7.20758 0
M  V30 77802 C 2380.98 1.7299 -7.50419 0
M  V30 77803 C 2380.25 0.406376 -7.57911 0
M  V30 77804 O 2380.04 -0.0897726 -6.21935 0
M  V30 77805 C 2378.85 0.447224 -8.1878 0
M  V30 77806 O 2378.46 -0.825065 -8.71101 0
M  V30 77807 C 2377.97 0.783801 -6.99623 0
M  V30 77808 C 2378.68 0.0619192 -5.85967 0
M  V30 77809 N 2378.63 0.7859 -4.56281 0
M  V30 77810 H 2381.46 1.93423 -8.4679 0
M  V30 77811 H 2381.74 1.68181 -6.71046 0
M  V30 77812 H 2380.87 -0.289041 -8.15388 0
M  V30 77813 P 2376.91 -1.17771 -8.83182 0
M  V30 77814 O 2376.69 -2.07206 -9.98732 0
M  V30 77815 O 2376.12 0.0743816 -8.81969 0
M  V30 77816 O 2376.66 -1.97652 -7.47304 0
M  V30 77817 C 2377.6 -3.01133 -7.08783 0
M  V30 77818 C 2376.87 -4.12613 -6.37049 0
M  V30 77819 O 2376.66 -3.72827 -4.97879 0
M  V30 77820 C 2375.47 -4.45085 -6.88694 0
M  V30 77821 O 2375.08 -5.7877 -6.5624 0
M  V30 77822 C 2374.59 -3.47817 -6.12078 0
M  V30 77823 C 2375.3 -3.39414 -4.77697 0
M  V30 77824 N 2375.25 -2.04199 -4.15538 0
M  V30 77825 H 2378.08 -3.41248 -7.98759 0
M  V30 77826 H 2378.36 -2.57728 -6.42 0
M  V30 77827 H 2377.49 -5.02657 -6.42673 0
M  V30 77828 H 2374.83 -4.11708 -4.08956 0
M  V30 77829 H 2374.55 -2.49626 -6.61679 0
M  V30 77830 H 2373.56 -3.8662 -6.00862 0
M  V30 77831 H 2375.4 -4.29991 -7.97006 0
M  V30 77832 P 2373.53 -6.144 -6.45285 0
M  V30 77833 O 2373.31 -7.54673 -6.86199 0
M  V30 77834 O 2372.74 -5.12391 -7.179 0
M  V30 77835 O 2373.28 -5.99158 -4.88404 0
M  V30 77836 C 2374.22 -6.60234 -3.96415 0
M  V30 77837 C 2373.49 -7.08259 -2.72856 0
M  V30 77838 O 2373.28 -5.9427 -1.83651 0
M  V30 77839 C 2372.09 -7.64886 -2.9555 0
M  V30 77840 O 2371.7 -8.53963 -1.90717 0
M  V30 77841 C 2371.21 -6.4116 -2.90739 0
M  V30 77842 C 2371.92 -5.55375 -1.86963 0
M  V30 77843 N 2371.87 -4.09448 -2.16152 0
M  V30 77844 H 2374.7 -7.45574 -4.45629 0
M  V30 77845 H 2374.98 -5.85864 -3.679 0
M  V30 77846 H 2374.11 -7.84412 -2.24479 0
M  V30 77847 H 2371.45 -5.73457 -0.888562 0
M  V30 77848 H 2371.17 -5.90877 -3.88583 0
M  V30 77849 H 2370.18 -6.6596 -2.58858 0
M  V30 77850 H 2372.02 -8.16339 -3.92049 0
M  V30 77851 P 2370.15 -8.7635 -1.60911 0
M  V30 77852 O 2369.93 -10.1388 -1.11561 0
M  V30 77853 O 2369.36 -8.36503 -2.79617 0
M  V30 77854 O 2369.9 -7.71806 -0.42951 0
M  V30 77855 C 2370.84 -7.67148 0.673689 0
M  V30 77856 C 2370.11 -7.33374 1.95559 0
M  V30 77857 O 2369.9 -5.88721 2.00726 0
M  V30 77858 C 2368.71 -7.92526 2.10483 0
M  V30 77859 O 2368.32 -8.02971 3.47653 0
M  V30 77860 C 2367.83 -6.89602 1.41652 0
M  V30 77861 C 2368.54 -5.59201 1.75185 0
M  V30 77862 N 2368.49 -4.58301 0.657969 0
M  V30 77863 H 2371.32 -8.65116 0.777161 0
M  V30 77864 H 2371.6 -6.9022 0.46725 0
M  V30 77865 H 2370.73 -7.66548 2.79458 0
M  V30 77866 H 2368.07 -5.16165 2.65183 0
M  V30 77867 H 2367.79 -7.06433 0.329384 0
M  V30 77868 H 2366.8 -6.90926 1.82021 0
M  V30 77869 H 2368.64 -8.90873 1.62657 0
M  V30 77870 P 2366.77 -8.03563 3.84925 0
M  V30 77871 O 2366.55 -8.85821 5.0569 0
M  V30 77872 O 2365.98 -8.41101 2.65469 0
M  V30 77873 O 2366.52 -6.4965 4.18908 0
M  V30 77874 C 2367.46 -5.81037 5.05421 0
M  V30 77875 C 2366.73 -4.78366 5.89277 0
M  V30 77876 O 2366.52 -3.58302 5.08433 0
M  V30 77877 C 2365.33 -5.17448 6.36119 0
M  V30 77878 O 2364.94 -4.45271 7.53232 0
M  V30 77879 C 2364.45 -4.74639 5.19936 0
M  V30 77880 C 2365.16 -3.49432 4.70418 0
M  V30 77881 N 2365.11 -3.31776 3.22945 0
M  V30 77882 H 2367.95 -6.54213 5.71376 0
M  V30 77883 H 2368.22 -5.30492 4.44033 0
M  V30 77884 H 2367.35 -4.55889 6.76652 0
M  V30 77885 P 2363.39 -4.23843 7.83734 0
M  V30 77886 O 2363.17 -4.19407 9.29784 0
M  V30 77887 O 2362.6 -5.24426 7.09156 0
M  V30 77888 O 2363.14 -2.7935 7.20758 0
M  V30 77889 C 2364.08 -1.7299 7.50419 0
M  V30 77890 C 2363.35 -0.406376 7.57911 0
M  V30 77891 O 2363.14 0.0897726 6.21935 0
M  V30 77892 C 2361.95 -0.447224 8.1878 0
M  V30 77893 O 2361.56 0.825065 8.71101 0
M  V30 77894 C 2361.07 -0.783801 6.99623 0
M  V30 77895 C 2361.78 -0.0619192 5.85967 0
M  V30 77896 N 2361.73 -0.7859 4.56281 0
M  V30 77897 H 2364.57 -1.93423 8.4679 0
M  V30 77898 H 2364.84 -1.68181 6.71046 0
M  V30 77899 H 2363.97 0.289041 8.15388 0
M  V30 77900 P 2360.01 1.17771 8.83182 0
M  V30 77901 O 2359.79 2.07206 9.98732 0
M  V30 77902 O 2359.22 -0.0743816 8.81969 0
M  V30 77903 O 2359.76 1.97652 7.47304 0
M  V30 77904 C 2360.7 3.01133 7.08783 0
M  V30 77905 C 2359.97 4.12613 6.37049 0
M  V30 77906 O 2359.76 3.72827 4.97879 0
M  V30 77907 C 2358.57 4.45085 6.88694 0
M  V30 77908 O 2358.18 5.7877 6.5624 0
M  V30 77909 C 2357.69 3.47817 6.12078 0
M  V30 77910 C 2358.4 3.39414 4.77697 0
M  V30 77911 N 2358.35 2.04615 4.15333 0
M  V30 77912 H 2361.19 3.41248 7.98759 0
M  V30 77913 H 2361.46 2.5837 6.41742 0
M  V30 77914 H 2360.59 5.02657 6.42673 0
M  V30 77915 P 2356.63 6.144 6.45285 0
M  V30 77916 O 2356.41 7.54673 6.86199 0
M  V30 77917 O 2355.84 5.12391 7.179 0
M  V30 77918 O 2356.38 5.99236 4.88467 0
M  V30 77919 C 2357.32 6.60234 3.96415 0
M  V30 77920 C 2356.59 7.08079 2.736 0
M  V30 77921 O 2356.38 5.94365 1.8368 0
M  V30 77922 C 2355.19 7.64886 2.9555 0
M  V30 77923 O 2354.8 8.5406 1.90739 0
M  V30 77924 C 2354.31 6.4116 2.90739 0
M  V30 77925 C 2355.02 5.55375 1.86963 0
M  V30 77926 N 2354.97 4.09664 2.15742 0
M  V30 77927 C 2354.82 3.22231 1.08477 0
M  V30 77928 O 2354.73 3.68951 -0.0600489 0
M  V30 77929 N 2354.77 1.76692 1.48799 0
M  V30 77930 C 2354.87 1.41695 2.57602 0
M  V30 77931 N 2354.82 0.107296 2.75791 0
M  V30 77932 C 2355.02 2.29178 3.69733 0
M  V30 77933 C 2355.07 3.62753 3.42653 0
M  V30 77934 H 2357.81 7.45488 4.45578 0
M  V30 77935 H 2358.08 5.86232 3.67314 0
M  V30 77936 H 2357.21 7.84508 2.24507 0
M  V30 77937 H 2354.55 5.73556 0.888715 0
M  V30 77938 H 2354.27 5.9096 3.88638 0
M  V30 77939 H 2353.28 6.66053 2.58894 0
M  V30 77940 H 2355.12 8.16339 3.92049 0
M  V30 77941 H 2355.19 4.33052 4.24913 0
M  V30 77942 H 2355.09 1.9103 4.71577 0
M  V30 77943 H 2354.7 -0.521221 1.95056 0
M  V30 77944 H 2354.9 -0.286429 3.70695 0
M  V30 77945 P 2353.25 8.7635 1.60911 0
M  V30 77946 O 2353.03 10.1388 1.11561 0
M  V30 77947 O 2352.46 8.36503 2.79617 0
M  V30 77948 O 2353 7.71806 0.42951 0
M  V30 77949 C 2353.94 7.67148 -0.673689 0
M  V30 77950 C 2353.21 7.33374 -1.95559 0
M  V30 77951 O 2353 5.88721 -2.00726 0
M  V30 77952 C 2351.81 7.92526 -2.10483 0
M  V30 77953 O 2351.42 8.02971 -3.47653 0
M  V30 77954 C 2350.93 6.89602 -1.41652 0
M  V30 77955 C 2351.64 5.59201 -1.75185 0
M  V30 77956 N 2351.59 4.58235 -0.662552 0
M  V30 77957 H 2354.43 8.65116 -0.777161 0
M  V30 77958 H 2354.7 6.90173 -0.474152 0
M  V30 77959 H 2353.83 7.66548 -2.79458 0
M  V30 77960 P 2349.87 8.03563 -3.84925 0
M  V30 77961 O 2349.65 8.85821 -5.0569 0
M  V30 77962 O 2349.08 8.41101 -2.65469 0
M  V30 77963 O 2349.62 6.49734 -4.18962 0
M  V30 77964 C 2350.56 5.81037 -5.05421 0
M  V30 77965 C 2349.83 4.79018 -5.88876 0
M  V30 77966 O 2349.62 3.58359 -5.08515 0
M  V30 77967 C 2348.43 5.17448 -6.36119 0
M  V30 77968 O 2348.04 4.45322 -7.53318 0
M  V30 77969 C 2347.55 4.74639 -5.19936 0
M  V30 77970 C 2348.26 3.49432 -4.70418 0
M  V30 77971 N 2348.21 3.31776 -3.22945 0
M  V30 77972 C 2348.06 2.02742 -2.72939 0
M  V30 77973 O 2347.97 1.08301 -3.52749 0
M  V30 77974 N 2348.01 1.96117 -1.22063 0
M  V30 77975 C 2348.11 2.8878 -0.551566 0
M  V30 77976 N 2348.06 2.65609 0.750198 0
M  V30 77977 C 2348.26 4.22457 -1.03707 0
M  V30 77978 C 2348.31 4.37979 -2.39113 0
M  V30 77979 H 2351.05 6.54138 -5.7131 0
M  V30 77980 H 2351.32 5.30492 -4.44033 0
M  V30 77981 H 2350.45 4.55945 -6.76735 0
M  V30 77982 H 2347.79 2.6176 -5.18021 0
M  V30 77983 H 2347.51 5.52233 -4.41941 0
M  V30 77984 H 2346.52 4.52045 -5.53452 0
M  V30 77985 H 2348.36 6.25124 -6.55234 0
M  V30 77986 H 2348.43 5.37936 -2.80552 0
M  V30 77987 H 2348.33 5.07528 -0.359553 0
M  V30 77988 H 2347.94 1.69403 1.09847 0
M  V30 77989 H 2348.14 3.43701 1.41792 0
M  V30 77990 P 2346.49 4.23843 -7.83734 0
M  V30 77991 O 2346.27 4.19407 -9.29784 0
M  V30 77992 O 2345.7 5.24426 -7.09156 0
M  V30 77993 O 2346.24 2.7935 -7.20758 0
M  V30 77994 C 2347.18 1.7299 -7.50419 0
M  V30 77995 C 2346.45 0.406376 -7.57911 0
M  V30 77996 O 2346.24 -0.0897726 -6.21935 0
M  V30 77997 C 2345.05 0.447224 -8.1878 0
M  V30 77998 O 2344.66 -0.825065 -8.71101 0
M  V30 77999 C 2344.17 0.783801 -6.99623 0
M  V30 78000 C 2344.88 0.0619192 -5.85967 0
M  V30 78001 N 2344.83 0.7859 -4.56281 0
M  V30 78002 H 2347.67 1.93423 -8.4679 0
M  V30 78003 H 2347.94 1.68181 -6.71046 0
M  V30 78004 H 2347.07 -0.289041 -8.15388 0
M  V30 78005 P 2343.11 -1.17771 -8.83182 0
M  V30 78006 O 2342.89 -2.07206 -9.98732 0
M  V30 78007 O 2342.32 0.0743816 -8.81969 0
M  V30 78008 O 2342.86 -1.97652 -7.47304 0
M  V30 78009 C 2343.8 -3.01133 -7.08783 0
M  V30 78010 C 2343.07 -4.12613 -6.37049 0
M  V30 78011 O 2342.86 -3.72827 -4.97879 0
M  V30 78012 C 2341.67 -4.45085 -6.88694 0
M  V30 78013 O 2341.28 -5.7877 -6.5624 0
M  V30 78014 C 2340.79 -3.47817 -6.12078 0
M  V30 78015 C 2341.5 -3.39414 -4.77697 0
M  V30 78016 N 2341.45 -2.04199 -4.15538 0
M  V30 78017 H 2344.29 -3.41248 -7.98759 0
M  V30 78018 H 2344.56 -2.57728 -6.42 0
M  V30 78019 H 2343.69 -5.02657 -6.42673 0
M  V30 78020 H 2341.03 -4.11708 -4.08956 0
M  V30 78021 H 2340.75 -2.49626 -6.61679 0
M  V30 78022 H 2339.76 -3.8662 -6.00862 0
M  V30 78023 H 2341.6 -4.29991 -7.97006 0
M  V30 78024 P 2339.73 -6.144 -6.45285 0
M  V30 78025 O 2339.51 -7.54673 -6.86199 0
M  V30 78026 O 2338.94 -5.12391 -7.179 0
M  V30 78027 O 2339.48 -5.99158 -4.88404 0
M  V30 78028 C 2340.42 -6.60234 -3.96415 0
M  V30 78029 C 2339.69 -7.08259 -2.72856 0
M  V30 78030 O 2339.48 -5.9427 -1.83651 0
M  V30 78031 C 2338.29 -7.64886 -2.9555 0
M  V30 78032 O 2337.9 -8.53963 -1.90717 0
M  V30 78033 C 2337.41 -6.4116 -2.90739 0
M  V30 78034 C 2338.12 -5.55375 -1.86963 0
M  V30 78035 N 2338.07 -4.09664 -2.15742 0
M  V30 78036 H 2340.91 -7.45574 -4.45629 0
M  V30 78037 H 2341.18 -5.86232 -3.67314 0
M  V30 78038 H 2340.31 -7.84412 -2.24479 0
M  V30 78039 P 2336.35 -8.7635 -1.60911 0
M  V30 78040 O 2336.13 -10.1388 -1.11561 0
M  V30 78041 O 2335.56 -8.36503 -2.79617 0
M  V30 78042 O 2336.1 -7.71806 -0.42951 0
M  V30 78043 C 2337.04 -7.67148 0.673689 0
M  V30 78044 C 2336.31 -7.33374 1.95559 0
M  V30 78045 O 2336.1 -5.88721 2.00726 0
M  V30 78046 C 2334.91 -7.92526 2.10483 0
M  V30 78047 O 2334.52 -8.02971 3.47653 0
M  V30 78048 C 2334.03 -6.89602 1.41652 0
M  V30 78049 C 2334.74 -5.59201 1.75185 0
M  V30 78050 N 2334.69 -4.58235 0.662552 0
M  V30 78051 H 2337.53 -8.65116 0.777161 0
M  V30 78052 H 2337.8 -6.90173 0.474152 0
M  V30 78053 H 2336.93 -7.66548 2.79458 0
M  V30 78054 P 2332.97 -8.03563 3.84925 0
M  V30 78055 O 2332.75 -8.85821 5.0569 0
M  V30 78056 O 2332.18 -8.41101 2.65469 0
M  V30 78057 O 2332.72 -6.4965 4.18908 0
M  V30 78058 C 2333.66 -5.81037 5.05421 0
M  V30 78059 C 2332.93 -4.78366 5.89277 0
M  V30 78060 O 2332.72 -3.58302 5.08433 0
M  V30 78061 C 2331.53 -5.17448 6.36119 0
M  V30 78062 O 2331.14 -4.45271 7.53232 0
M  V30 78063 C 2330.65 -4.74639 5.19936 0
M  V30 78064 C 2331.36 -3.49432 4.70418 0
M  V30 78065 N 2331.31 -3.31776 3.22945 0
M  V30 78066 H 2334.15 -6.54213 5.71376 0
M  V30 78067 H 2334.42 -5.30492 4.44033 0
M  V30 78068 H 2333.55 -4.55889 6.76652 0
M  V30 78069 P 2329.59 -4.23843 7.83734 0
M  V30 78070 O 2329.37 -4.19407 9.29784 0
M  V30 78071 O 2328.8 -5.24426 7.09156 0
M  V30 78072 O 2329.34 -2.7935 7.20758 0
M  V30 78073 C 2330.28 -1.7299 7.50419 0
M  V30 78074 C 2329.55 -0.406376 7.57911 0
M  V30 78075 O 2329.34 0.0897726 6.21935 0
M  V30 78076 C 2328.15 -0.447224 8.1878 0
M  V30 78077 O 2327.76 0.825065 8.71101 0
M  V30 78078 C 2327.27 -0.783801 6.99623 0
M  V30 78079 C 2327.98 -0.0619192 5.85967 0
M  V30 78080 N 2327.93 -0.790462 4.56202 0
M  V30 78081 H 2330.77 -1.93423 8.4679 0
M  V30 78082 H 2331.04 -1.68852 6.70877 0
M  V30 78083 H 2330.17 0.289041 8.15388 0
M  V30 78084 H 2327.51 0.927006 5.72848 0
M  V30 78085 H 2327.23 -1.86973 6.82036 0
M  V30 78086 H 2326.24 -0.403953 7.13357 0
M  V30 78087 H 2328.08 -1.20599 8.97534 0
M  V30 78088 P 2326.21 1.17771 8.83182 0
M  V30 78089 O 2325.99 2.07206 9.98732 0
M  V30 78090 O 2325.42 -0.0743816 8.81969 0
M  V30 78091 O 2325.96 1.97652 7.47304 0
M  V30 78092 C 2326.9 3.01133 7.08783 0
M  V30 78093 C 2326.17 4.12613 6.37049 0
M  V30 78094 O 2325.96 3.72827 4.97879 0
M  V30 78095 C 2324.77 4.45085 6.88694 0
M  V30 78096 O 2324.38 5.7877 6.5624 0
M  V30 78097 C 2323.89 3.47817 6.12078 0
M  V30 78098 C 2324.6 3.39414 4.77697 0
M  V30 78099 N 2324.55 2.04199 4.15538 0
M  V30 78100 H 2327.39 3.41248 7.98759 0
M  V30 78101 H 2327.66 2.57728 6.42 0
M  V30 78102 H 2326.79 5.02657 6.42673 0
M  V30 78103 H 2324.13 4.11708 4.08956 0
M  V30 78104 H 2323.85 2.49626 6.61679 0
M  V30 78105 H 2322.86 3.8662 6.00862 0
M  V30 78106 H 2324.7 4.29991 7.97006 0
M  V30 78107 P 2322.83 6.144 6.45285 0
M  V30 78108 O 2322.61 7.54673 6.86199 0
M  V30 78109 O 2322.04 5.12391 7.179 0
M  V30 78110 O 2322.58 5.99158 4.88404 0
M  V30 78111 C 2323.52 6.60234 3.96415 0
M  V30 78112 C 2322.79 7.08259 2.72856 0
M  V30 78113 O 2322.58 5.9427 1.83651 0
M  V30 78114 C 2321.39 7.64886 2.9555 0
M  V30 78115 O 2321 8.53963 1.90717 0
M  V30 78116 C 2320.51 6.4116 2.90739 0
M  V30 78117 C 2321.22 5.55375 1.86963 0
M  V30 78118 N 2321.17 4.09664 2.15742 0
M  V30 78119 H 2324.01 7.45574 4.45629 0
M  V30 78120 H 2324.28 5.86232 3.67314 0
M  V30 78121 H 2323.41 7.84412 2.24479 0
M  V30 78122 P 2319.45 8.7635 1.60911 0
M  V30 78123 O 2319.23 10.1388 1.11561 0
M  V30 78124 O 2318.66 8.36503 2.79617 0
M  V30 78125 O 2319.2 7.71806 0.42951 0
M  V30 78126 C 2320.14 7.67148 -0.673689 0
M  V30 78127 C 2319.41 7.33374 -1.95559 0
M  V30 78128 O 2319.2 5.88721 -2.00726 0
M  V30 78129 C 2318.01 7.92526 -2.10483 0
M  V30 78130 O 2317.62 8.02971 -3.47653 0
M  V30 78131 C 2317.13 6.89602 -1.41652 0
M  V30 78132 C 2317.84 5.59201 -1.75185 0
M  V30 78133 N 2317.79 4.58235 -0.662552 0
M  V30 78134 H 2320.63 8.65116 -0.777161 0
M  V30 78135 H 2320.9 6.90173 -0.474152 0
M  V30 78136 H 2320.03 7.66548 -2.79458 0
M  V30 78137 P 2316.07 8.03563 -3.84925 0
M  V30 78138 O 2315.85 8.85821 -5.0569 0
M  V30 78139 O 2315.28 8.41101 -2.65469 0
M  V30 78140 O 2315.82 6.49734 -4.18962 0
M  V30 78141 C 2316.76 5.81037 -5.05421 0
M  V30 78142 C 2316.03 4.79018 -5.88876 0
M  V30 78143 O 2315.82 3.58359 -5.08515 0
M  V30 78144 C 2314.63 5.17448 -6.36119 0
M  V30 78145 O 2314.24 4.45322 -7.53318 0
M  V30 78146 C 2313.75 4.74639 -5.19936 0
M  V30 78147 C 2314.46 3.49432 -4.70418 0
M  V30 78148 N 2314.41 3.31776 -3.22945 0
M  V30 78149 C 2314.26 2.02742 -2.72939 0
M  V30 78150 O 2314.17 1.08301 -3.52749 0
M  V30 78151 N 2314.21 1.96117 -1.22063 0
M  V30 78152 C 2314.31 2.8878 -0.551566 0
M  V30 78153 N 2314.26 2.65609 0.750198 0
M  V30 78154 C 2314.46 4.22457 -1.03707 0
M  V30 78155 C 2314.51 4.37979 -2.39113 0
M  V30 78156 H 2317.25 6.54138 -5.7131 0
M  V30 78157 H 2317.52 5.30492 -4.44033 0
M  V30 78158 H 2316.65 4.55945 -6.76735 0
M  V30 78159 H 2313.99 2.6176 -5.18021 0
M  V30 78160 H 2313.71 5.52233 -4.41941 0
M  V30 78161 H 2312.72 4.52045 -5.53452 0
M  V30 78162 H 2314.56 6.25124 -6.55234 0
M  V30 78163 H 2314.63 5.37936 -2.80552 0
M  V30 78164 H 2314.53 5.07528 -0.359553 0
M  V30 78165 H 2314.14 1.69403 1.09847 0
M  V30 78166 H 2314.34 3.43701 1.41792 0
M  V30 78167 P 2312.69 4.23843 -7.83734 0
M  V30 78168 O 2312.47 4.19407 -9.29784 0
M  V30 78169 O 2311.9 5.24426 -7.09156 0
M  V30 78170 O 2312.44 2.7935 -7.20758 0
M  V30 78171 C 2313.38 1.7299 -7.50419 0
M  V30 78172 C 2312.65 0.406376 -7.57911 0
M  V30 78173 O 2312.44 -0.0897726 -6.21935 0
M  V30 78174 C 2311.25 0.447224 -8.1878 0
M  V30 78175 O 2310.86 -0.825065 -8.71101 0
M  V30 78176 C 2310.37 0.783801 -6.99623 0
M  V30 78177 C 2311.08 0.0619192 -5.85967 0
M  V30 78178 N 2311.03 0.790462 -4.56202 0
M  V30 78179 H 2313.87 1.93423 -8.4679 0
M  V30 78180 H 2314.14 1.68852 -6.70877 0
M  V30 78181 H 2313.27 -0.289041 -8.15388 0
M  V30 78182 H 2310.61 -0.927006 -5.72848 0
M  V30 78183 H 2310.33 1.86973 -6.82036 0
M  V30 78184 H 2309.34 0.403953 -7.13357 0
M  V30 78185 H 2311.18 1.20599 -8.97534 0
M  V30 78186 P 2309.31 -1.17771 -8.83182 0
M  V30 78187 O 2309.09 -2.07206 -9.98732 0
M  V30 78188 O 2308.52 0.0743816 -8.81969 0
M  V30 78189 O 2309.06 -1.97652 -7.47304 0
M  V30 78190 C 2310 -3.01133 -7.08783 0
M  V30 78191 C 2309.27 -4.12613 -6.37049 0
M  V30 78192 O 2309.06 -3.72827 -4.97879 0
M  V30 78193 C 2307.87 -4.45085 -6.88694 0
M  V30 78194 O 2307.48 -5.7877 -6.5624 0
M  V30 78195 C 2306.99 -3.47817 -6.12078 0
M  V30 78196 C 2307.7 -3.39414 -4.77697 0
M  V30 78197 N 2307.65 -2.04615 -4.15333 0
M  V30 78198 H 2310.49 -3.41248 -7.98759 0
M  V30 78199 H 2310.76 -2.5837 -6.41742 0
M  V30 78200 H 2309.89 -5.02657 -6.42673 0
M  V30 78201 P 2305.93 -6.144 -6.45285 0
M  V30 78202 O 2305.71 -7.54673 -6.86199 0
M  V30 78203 O 2305.14 -5.12391 -7.179 0
M  V30 78204 O 2305.68 -5.99158 -4.88404 0
M  V30 78205 C 2306.62 -6.60234 -3.96415 0
M  V30 78206 C 2305.89 -7.08259 -2.72856 0
M  V30 78207 O 2305.68 -5.9427 -1.83651 0
M  V30 78208 C 2304.49 -7.64886 -2.9555 0
M  V30 78209 O 2304.1 -8.53963 -1.90717 0
M  V30 78210 C 2303.61 -6.4116 -2.90739 0
M  V30 78211 C 2304.32 -5.55375 -1.86963 0
M  V30 78212 N 2304.27 -4.09448 -2.16152 0
M  V30 78213 H 2307.11 -7.45574 -4.45629 0
M  V30 78214 H 2307.38 -5.85864 -3.679 0
M  V30 78215 H 2306.51 -7.84412 -2.24479 0
M  V30 78216 H 2303.85 -5.73457 -0.888562 0
M  V30 78217 H 2303.57 -5.90877 -3.88583 0
M  V30 78218 H 2302.58 -6.6596 -2.58858 0
M  V30 78219 H 2304.42 -8.16339 -3.92049 0
M  V30 78220 P 2302.55 -8.7635 -1.60911 0
M  V30 78221 O 2302.33 -10.1388 -1.11561 0
M  V30 78222 O 2301.76 -8.36503 -2.79617 0
M  V30 78223 O 2302.3 -7.71806 -0.42951 0
M  V30 78224 C 2303.24 -7.67148 0.673689 0
M  V30 78225 C 2302.51 -7.33374 1.95559 0
M  V30 78226 O 2302.3 -5.88721 2.00726 0
M  V30 78227 C 2301.11 -7.92526 2.10483 0
M  V30 78228 O 2300.72 -8.02971 3.47653 0
M  V30 78229 C 2300.23 -6.89602 1.41652 0
M  V30 78230 C 2300.94 -5.59201 1.75185 0
M  V30 78231 N 2300.89 -4.58235 0.662552 0
M  V30 78232 H 2303.73 -8.65116 0.777161 0
M  V30 78233 H 2304 -6.90173 0.474152 0
M  V30 78234 H 2303.13 -7.66548 2.79458 0
M  V30 78235 P 2299.17 -8.03563 3.84925 0
M  V30 78236 O 2298.95 -8.85821 5.0569 0
M  V30 78237 O 2298.38 -8.41101 2.65469 0
M  V30 78238 O 2298.92 -6.4965 4.18908 0
M  V30 78239 C 2299.86 -5.80886 5.05289 0
M  V30 78240 C 2299.13 -4.78366 5.89277 0
M  V30 78241 O 2298.92 -3.58302 5.08433 0
M  V30 78242 C 2297.73 -5.16748 6.36559 0
M  V30 78243 O 2297.34 -4.45271 7.53232 0
M  V30 78244 C 2296.85 -4.74572 5.19863 0
M  V30 78245 C 2297.56 -3.49373 4.70338 0
M  V30 78246 N 2297.51 -3.31704 3.22876 0
M  V30 78247 C 2297.36 -2.03326 2.74871 0
M  V30 78248 O 2297.27 -1.06486 3.48076 0
M  V30 78249 N 2297.32 -1.91838 1.37456 0
M  V30 78250 C 2297.41 -2.94295 0.462035 0
M  V30 78251 O 2297.36 -2.71763 -0.752928 0
M  V30 78252 C 2297.56 -4.25064 1.05249 0
M  V30 78253 C 2297.67 -5.39815 0.095697 0
M  V30 78254 C 2297.61 -4.40214 2.39192 0
M  V30 78255 H 2300.35 -6.54063 5.71245 0
M  V30 78256 H 2300.62 -5.30339 4.43905 0
M  V30 78257 H 2299.75 -4.55889 6.76652 0
M  V30 78258 H 2297.09 -2.6167 5.17842 0
M  V30 78259 H 2296.82 -5.52155 4.41878 0
M  V30 78260 H 2295.82 -4.51918 5.53297 0
M  V30 78261 H 2297.66 -6.25055 6.55162 0
M  V30 78262 H 2297.73 -5.39798 2.81523 0
M  V30 78263 H 2296.7 -5.91593 0.0279582 0
M  V30 78264 H 2298.44 -6.10038 0.450573 0
M  V30 78265 H 2297.95 -5.02007 -0.89937 0
M  V30 78266 H 2297.21 -0.995326 1.00435 0
M  V30 78267 P 2295.79 -4.23843 7.83734 0
M  V30 78268 O 2295.57 -4.19407 9.29784 0
M  V30 78269 O 2295 -5.24426 7.09156 0
M  V30 78270 O 2295.54 -2.7935 7.20758 0
M  V30 78271 C 2296.48 -1.7299 7.50419 0
M  V30 78272 C 2295.75 -0.406376 7.57911 0
M  V30 78273 O 2295.54 0.0897726 6.21935 0
M  V30 78274 C 2294.35 -0.447224 8.1878 0
M  V30 78275 O 2293.96 0.825065 8.71101 0
M  V30 78276 C 2293.47 -0.783801 6.99623 0
M  V30 78277 C 2294.18 -0.0619192 5.85967 0
M  V30 78278 N 2294.13 -0.7859 4.56281 0
M  V30 78279 H 2296.97 -1.93423 8.4679 0
M  V30 78280 H 2297.24 -1.68181 6.71046 0
M  V30 78281 H 2296.37 0.289041 8.15388 0
M  V30 78282 P 2292.41 1.17771 8.83182 0
M  V30 78283 O 2292.19 2.07206 9.98732 0
M  V30 78284 O 2291.62 -0.0743816 8.81969 0
M  V30 78285 O 2292.16 1.97652 7.47304 0
M  V30 78286 C 2293.1 3.01133 7.08783 0
M  V30 78287 C 2292.37 4.12613 6.37049 0
M  V30 78288 O 2292.16 3.72827 4.97879 0
M  V30 78289 C 2290.97 4.45085 6.88694 0
M  V30 78290 O 2290.58 5.7877 6.5624 0
M  V30 78291 C 2290.09 3.47817 6.12078 0
M  V30 78292 C 2290.8 3.39414 4.77697 0
M  V30 78293 N 2290.75 2.04615 4.15333 0
M  V30 78294 H 2293.59 3.41248 7.98759 0
M  V30 78295 H 2293.86 2.5837 6.41742 0
M  V30 78296 H 2292.99 5.02657 6.42673 0
M  V30 78297 P 2289.03 6.144 6.45285 0
M  V30 78298 O 2288.81 7.54673 6.86199 0
M  V30 78299 O 2288.24 5.12391 7.179 0
M  V30 78300 O 2288.78 5.99158 4.88404 0
M  V30 78301 C 2289.72 6.60234 3.96415 0
M  V30 78302 C 2288.99 7.08259 2.72856 0
M  V30 78303 O 2288.78 5.9427 1.83651 0
M  V30 78304 C 2287.59 7.64886 2.9555 0
M  V30 78305 O 2287.2 8.53963 1.90717 0
M  V30 78306 C 2286.71 6.4116 2.90739 0
M  V30 78307 C 2287.42 5.55375 1.86963 0
M  V30 78308 N 2287.37 4.09664 2.15742 0
M  V30 78309 H 2290.21 7.45574 4.45629 0
M  V30 78310 H 2290.48 5.86232 3.67314 0
M  V30 78311 H 2289.61 7.84412 2.24479 0
M  V30 78312 P 2285.65 8.7635 1.60911 0
M  V30 78313 O 2285.43 10.1388 1.11561 0
M  V30 78314 O 2284.86 8.36503 2.79617 0
M  V30 78315 O 2285.4 7.71806 0.42951 0
M  V30 78316 C 2286.34 7.67148 -0.673689 0
M  V30 78317 C 2285.61 7.33374 -1.95559 0
M  V30 78318 O 2285.4 5.88721 -2.00726 0
M  V30 78319 C 2284.21 7.92526 -2.10483 0
M  V30 78320 O 2283.82 8.02971 -3.47653 0
M  V30 78321 C 2283.33 6.89602 -1.41652 0
M  V30 78322 C 2284.04 5.59201 -1.75185 0
M  V30 78323 N 2283.99 4.58235 -0.662552 0
M  V30 78324 H 2286.83 8.65116 -0.777161 0
M  V30 78325 H 2287.1 6.90173 -0.474152 0
M  V30 78326 H 2286.23 7.66548 -2.79458 0
M  V30 78327 P 2282.27 8.03563 -3.84925 0
M  V30 78328 O 2282.05 8.85821 -5.0569 0
M  V30 78329 O 2281.48 8.41101 -2.65469 0
M  V30 78330 O 2282.02 6.4965 -4.18908 0
M  V30 78331 C 2282.96 5.81037 -5.05421 0
M  V30 78332 C 2282.23 4.78366 -5.89277 0
M  V30 78333 O 2282.02 3.58302 -5.08433 0
M  V30 78334 C 2280.83 5.17448 -6.36119 0
M  V30 78335 O 2280.44 4.45271 -7.53232 0
M  V30 78336 C 2279.95 4.74639 -5.19936 0
M  V30 78337 C 2280.66 3.49432 -4.70418 0
M  V30 78338 N 2280.61 3.31776 -3.22945 0
M  V30 78339 H 2283.45 6.54213 -5.71376 0
M  V30 78340 H 2283.72 5.30492 -4.44033 0
M  V30 78341 H 2282.85 4.55889 -6.76652 0
M  V30 78342 P 2278.89 4.23843 -7.83734 0
M  V30 78343 O 2278.67 4.19407 -9.29784 0
M  V30 78344 O 2278.1 5.24426 -7.09156 0
M  V30 78345 O 2278.64 2.7935 -7.20758 0
M  V30 78346 C 2279.58 1.7299 -7.50419 0
M  V30 78347 C 2278.85 0.406376 -7.57911 0
M  V30 78348 O 2278.64 -0.0897726 -6.21935 0
M  V30 78349 C 2277.45 0.447224 -8.1878 0
M  V30 78350 O 2277.06 -0.825065 -8.71101 0
M  V30 78351 C 2276.57 0.783801 -6.99623 0
M  V30 78352 C 2277.28 0.0619192 -5.85967 0
M  V30 78353 N 2277.23 0.7859 -4.56281 0
M  V30 78354 H 2280.07 1.93423 -8.4679 0
M  V30 78355 H 2280.34 1.68181 -6.71046 0
M  V30 78356 H 2279.47 -0.289041 -8.15388 0
M  V30 78357 P 2275.51 -1.17771 -8.83182 0
M  V30 78358 O 2275.29 -2.07206 -9.98732 0
M  V30 78359 O 2274.72 0.0743816 -8.81969 0
M  V30 78360 O 2275.26 -1.97652 -7.47304 0
M  V30 78361 C 2276.2 -3.01133 -7.08783 0
M  V30 78362 C 2275.47 -4.12613 -6.37049 0
M  V30 78363 O 2275.26 -3.72827 -4.97879 0
M  V30 78364 C 2274.07 -4.45085 -6.88694 0
M  V30 78365 O 2273.68 -5.7877 -6.5624 0
M  V30 78366 C 2273.19 -3.47817 -6.12078 0
M  V30 78367 C 2273.9 -3.39414 -4.77697 0
M  V30 78368 N 2273.85 -2.04199 -4.15538 0
M  V30 78369 H 2276.69 -3.41248 -7.98759 0
M  V30 78370 H 2276.96 -2.57728 -6.42 0
M  V30 78371 H 2276.09 -5.02657 -6.42673 0
M  V30 78372 H 2273.43 -4.11708 -4.08956 0
M  V30 78373 H 2273.15 -2.49626 -6.61679 0
M  V30 78374 H 2272.16 -3.8662 -6.00862 0
M  V30 78375 H 2274 -4.29991 -7.97006 0
M  V30 78376 P 2272.13 -6.144 -6.45285 0
M  V30 78377 O 2271.91 -7.54673 -6.86199 0
M  V30 78378 O 2271.34 -5.12391 -7.179 0
M  V30 78379 O 2271.88 -5.99158 -4.88404 0
M  V30 78380 C 2272.82 -6.60062 -3.96313 0
M  V30 78381 C 2272.09 -7.08259 -2.72856 0
M  V30 78382 O 2271.88 -5.9427 -1.83651 0
M  V30 78383 C 2270.69 -7.65087 -2.94749 0
M  V30 78384 O 2270.3 -8.53963 -1.90717 0
M  V30 78385 C 2269.81 -6.41069 -2.90698 0
M  V30 78386 C 2270.52 -5.5528 -1.86931 0
M  V30 78387 N 2270.47 -4.09575 -2.15696 0
M  V30 78388 C 2270.32 -3.24249 -1.08435 0
M  V30 78389 O 2270.23 -3.63946 0.0628747 0
M  V30 78390 N 2270.28 -1.90009 -1.39973 0
M  V30 78391 C 2270.37 -1.34884 -2.65614 0
M  V30 78392 O 2270.32 -0.123716 -2.81728 0
M  V30 78393 C 2270.52 -2.3145 -3.71736 0
M  V30 78394 C 2270.63 -1.75913 -5.10438 0
M  V30 78395 C 2270.57 -3.63518 -3.44754 0
M  V30 78396 H 2273.31 -7.45402 -4.45526 0
M  V30 78397 H 2273.58 -5.86062 -3.67208 0
M  V30 78398 H 2272.71 -7.84412 -2.24479 0
M  V30 78399 H 2270.05 -5.73358 -0.888409 0
M  V30 78400 H 2269.78 -5.90877 -3.88583 0
M  V30 78401 H 2268.78 -6.65867 -2.58821 0
M  V30 78402 H 2270.62 -8.16248 -3.92006 0
M  V30 78403 H 2270.69 -4.34551 -4.26383 0
M  V30 78404 H 2269.66 -1.85471 -5.61775 0
M  V30 78405 H 2271.4 -2.31364 -5.66257 0
M  V30 78406 H 2270.91 -0.695936 -5.05229 0
M  V30 78407 H 2270.17 -1.26277 -0.63625 0
M  V30 78408 P 2268.75 -8.7635 -1.60911 0
M  V30 78409 O 2268.53 -10.1388 -1.11561 0
M  V30 78410 O 2267.96 -8.36503 -2.79617 0
M  V30 78411 O 2268.5 -7.71806 -0.42951 0
M  V30 78412 C 2269.44 -7.67148 0.673689 0
M  V30 78413 C 2268.71 -7.33374 1.95559 0
M  V30 78414 O 2268.5 -5.88721 2.00726 0
M  V30 78415 C 2267.31 -7.92526 2.10483 0
M  V30 78416 O 2266.92 -8.02971 3.47653 0
M  V30 78417 C 2266.43 -6.89602 1.41652 0
M  V30 78418 C 2267.14 -5.59201 1.75185 0
M  V30 78419 N 2267.09 -4.58235 0.662552 0
M  V30 78420 H 2269.93 -8.65116 0.777161 0
M  V30 78421 H 2270.2 -6.90173 0.474152 0
M  V30 78422 H 2269.33 -7.66548 2.79458 0
M  V30 78423 P 2265.37 -8.03563 3.84925 0
M  V30 78424 O 2265.15 -8.85821 5.0569 0
M  V30 78425 O 2264.58 -8.41101 2.65469 0
M  V30 78426 O 2265.12 -6.4965 4.18908 0
M  V30 78427 C 2266.06 -5.81037 5.05421 0
M  V30 78428 C 2265.33 -4.78366 5.89277 0
M  V30 78429 O 2265.12 -3.58302 5.08433 0
M  V30 78430 C 2263.93 -5.17448 6.36119 0
M  V30 78431 O 2263.54 -4.45271 7.53232 0
M  V30 78432 C 2263.05 -4.74639 5.19936 0
M  V30 78433 C 2263.76 -3.49432 4.70418 0
M  V30 78434 N 2263.71 -3.31776 3.22945 0
M  V30 78435 H 2266.55 -6.54213 5.71376 0
M  V30 78436 H 2266.82 -5.30492 4.44033 0
M  V30 78437 H 2265.95 -4.55889 6.76652 0
M  V30 78438 P 2261.99 -4.23843 7.83734 0
M  V30 78439 O 2261.77 -4.19407 9.29784 0
M  V30 78440 O 2261.2 -5.24426 7.09156 0
M  V30 78441 O 2261.74 -2.7935 7.20758 0
M  V30 78442 C 2262.68 -1.7299 7.50419 0
M  V30 78443 C 2261.95 -0.406376 7.57911 0
M  V30 78444 O 2261.74 0.0897726 6.21935 0
M  V30 78445 C 2260.55 -0.447224 8.1878 0
M  V30 78446 O 2260.16 0.825065 8.71101 0
M  V30 78447 C 2259.67 -0.783801 6.99623 0
M  V30 78448 C 2260.38 -0.0619192 5.85967 0
M  V30 78449 N 2260.33 -0.7859 4.56281 0
M  V30 78450 H 2263.17 -1.93423 8.4679 0
M  V30 78451 H 2263.44 -1.68181 6.71046 0
M  V30 78452 H 2262.57 0.289041 8.15388 0
M  V30 78453 P 2258.61 1.17771 8.83182 0
M  V30 78454 O 2258.39 2.07206 9.98732 0
M  V30 78455 O 2257.82 -0.0743816 8.81969 0
M  V30 78456 O 2258.36 1.97652 7.47304 0
M  V30 78457 C 2259.3 3.01133 7.08783 0
M  V30 78458 C 2258.57 4.12613 6.37049 0
M  V30 78459 O 2258.36 3.72827 4.97879 0
M  V30 78460 C 2257.17 4.45085 6.88694 0
M  V30 78461 O 2256.78 5.7877 6.5624 0
M  V30 78462 C 2256.29 3.47817 6.12078 0
M  V30 78463 C 2257 3.39414 4.77697 0
M  V30 78464 N 2256.95 2.04199 4.15538 0
M  V30 78465 C 2257.03 0.821545 4.76977 0
M  V30 78466 N 2256.96 -0.1794 3.94592 0
M  V30 78467 C 2256.81 0.419121 2.70776 0
M  V30 78468 C 2256.68 -0.109072 1.40577 0
M  V30 78469 N 2256.67 -1.4104 1.1344 0
M  V30 78470 N 2256.56 0.764381 0.39411 0
M  V30 78471 C 2256.57 2.06587 0.664135 0
M  V30 78472 N 2256.69 2.67948 1.82153 0
M  V30 78473 C 2256.81 1.77942 2.8147 0
M  V30 78474 H 2259.79 3.41248 7.98759 0
M  V30 78475 H 2260.06 2.57728 6.42 0
M  V30 78476 H 2259.19 5.02657 6.42673 0
M  V30 78477 H 2256.53 4.11708 4.08956 0
M  V30 78478 H 2256.25 2.49626 6.61679 0
M  V30 78479 H 2255.26 3.8662 6.00862 0
M  V30 78480 H 2257.1 4.29991 7.97006 0
M  V30 78481 H 2257.14 0.702451 5.84696 0
M  V30 78482 H 2256.76 -2.09647 1.89651 0
M  V30 78483 H 2256.57 -1.73358 0.160575 0
M  V30 78484 H 2256.46 2.71695 -0.195838 0
M  V30 78485 P 2255.23 6.144 6.45285 0
M  V30 78486 O 2255.01 7.54673 6.86199 0
M  V30 78487 O 2254.44 5.12391 7.179 0
M  V30 78488 O 2254.98 5.99158 4.88404 0
M  V30 78489 C 2255.92 6.60234 3.96415 0
M  V30 78490 C 2255.19 7.08259 2.72856 0
M  V30 78491 O 2254.98 5.9427 1.83651 0
M  V30 78492 C 2253.79 7.64886 2.9555 0
M  V30 78493 O 2253.4 8.53963 1.90717 0
M  V30 78494 C 2252.91 6.4116 2.90739 0
M  V30 78495 C 2253.62 5.55375 1.86963 0
M  V30 78496 N 2253.57 4.09448 2.16152 0
M  V30 78497 C 2253.65 3.46824 3.37593 0
M  V30 78498 N 2253.58 2.17422 3.29777 0
M  V30 78499 C 2253.43 1.93065 1.94427 0
M  V30 78500 C 2253.3 0.738053 1.20141 0
M  V30 78501 N 2253.29 -0.474256 1.74676 0
M  V30 78502 N 2253.18 0.850049 -0.13045 0
M  V30 78503 C 2253.19 2.06169 -0.676992 0
M  V30 78504 N 2253.31 3.23842 -0.101312 0
M  V30 78505 C 2253.43 3.09402 1.23122 0
M  V30 78506 H 2256.41 7.45574 4.45629 0
M  V30 78507 H 2256.68 5.85864 3.679 0
M  V30 78508 H 2255.81 7.84412 2.24479 0
M  V30 78509 H 2253.15 5.73457 0.888562 0
M  V30 78510 H 2252.87 5.90877 3.88583 0
M  V30 78511 H 2251.88 6.6596 2.58858 0
M  V30 78512 H 2253.72 8.16339 3.92049 0
M  V30 78513 H 2253.76 4.00505 4.3174 0
M  V30 78514 H 2253.38 -0.581337 2.76658 0
M  V30 78515 H 2253.19 -1.30811 1.14888 0
M  V30 78516 H 2253.08 2.08295 -1.75542 0
M  V30 78517 P 2251.85 8.7635 1.60911 0
M  V30 78518 O 2251.63 10.1388 1.11561 0
M  V30 78519 O 2251.06 8.36503 2.79617 0
M  V30 78520 O 2251.6 7.71906 0.429565 0
M  V30 78521 C 2252.54 7.67148 -0.673689 0
M  V30 78522 C 2251.81 7.33666 -1.94851 0
M  V30 78523 O 2251.6 5.88816 -2.00759 0
M  V30 78524 C 2250.41 7.92526 -2.10483 0
M  V30 78525 O 2250.02 8.03063 -3.47693 0
M  V30 78526 C 2249.53 6.89602 -1.41652 0
M  V30 78527 C 2250.24 5.59201 -1.75185 0
M  V30 78528 N 2250.19 4.58235 -0.662552 0
M  V30 78529 C 2250.04 3.24451 -1.01643 0
M  V30 78530 O 2249.95 2.94958 -2.21722 0
M  V30 78531 N 2249.99 2.30408 0.165238 0
M  V30 78532 C 2250.09 2.66048 1.25118 0
M  V30 78533 N 2250.04 1.70787 2.16813 0
M  V30 78534 C 2250.24 4.02732 1.64413 0
M  V30 78535 C 2250.29 4.9488 0.63991 0
M  V30 78536 H 2253.03 8.65017 -0.777072 0
M  V30 78537 H 2253.3 6.90173 -0.474152 0
M  V30 78538 H 2252.43 7.66642 -2.79492 0
M  V30 78539 H 2249.77 5.16254 -2.65229 0
M  V30 78540 H 2249.49 7.06532 -0.329431 0
M  V30 78541 H 2248.5 6.91023 -1.82047 0
M  V30 78542 H 2250.34 8.90873 -1.62657 0
M  V30 78543 H 2250.41 6.00104 0.892197 0
M  V30 78544 H 2250.31 4.31733 2.69229 0
M  V30 78545 H 2249.92 0.724835 1.8844 0
M  V30 78546 H 2250.12 1.94716 3.16734 0
M  V30 78547 P 2248.47 8.03563 -3.84925 0
M  V30 78548 O 2248.25 8.85821 -5.0569 0
M  V30 78549 O 2247.68 8.41101 -2.65469 0
M  V30 78550 O 2248.22 6.4965 -4.18908 0
M  V30 78551 C 2249.16 5.81037 -5.05421 0
M  V30 78552 C 2248.43 4.78366 -5.89277 0
M  V30 78553 O 2248.22 3.58302 -5.08433 0
M  V30 78554 C 2247.03 5.17448 -6.36119 0
M  V30 78555 O 2246.64 4.45271 -7.53232 0
M  V30 78556 C 2246.15 4.74639 -5.19936 0
M  V30 78557 C 2246.86 3.49432 -4.70418 0
M  V30 78558 N 2246.81 3.31776 -3.22945 0
M  V30 78559 H 2249.65 6.54213 -5.71376 0
M  V30 78560 H 2249.92 5.30492 -4.44033 0
M  V30 78561 H 2249.05 4.55889 -6.76652 0
M  V30 78562 P 2245.09 4.23843 -7.83734 0
M  V30 78563 O 2244.87 4.19407 -9.29784 0
M  V30 78564 O 2244.3 5.24426 -7.09156 0
M  V30 78565 O 2244.84 2.7935 -7.20758 0
M  V30 78566 C 2245.78 1.7299 -7.50419 0
M  V30 78567 C 2245.05 0.406376 -7.57911 0
M  V30 78568 O 2244.84 -0.0897726 -6.21935 0
M  V30 78569 C 2243.65 0.447224 -8.1878 0
M  V30 78570 O 2243.26 -0.825065 -8.71101 0
M  V30 78571 C 2242.77 0.783801 -6.99623 0
M  V30 78572 C 2243.48 0.0619192 -5.85967 0
M  V30 78573 N 2243.43 0.790462 -4.56202 0
M  V30 78574 H 2246.27 1.93423 -8.4679 0
M  V30 78575 H 2246.54 1.68852 -6.70877 0
M  V30 78576 H 2245.67 -0.289041 -8.15388 0
M  V30 78577 H 2243.01 -0.927006 -5.72848 0
M  V30 78578 H 2242.73 1.86973 -6.82036 0
M  V30 78579 H 2241.74 0.403953 -7.13357 0
M  V30 78580 H 2243.58 1.20599 -8.97534 0
M  V30 78581 P 2241.71 -1.17771 -8.83182 0
M  V30 78582 O 2241.49 -2.07206 -9.98732 0
M  V30 78583 O 2240.92 0.0743816 -8.81969 0
M  V30 78584 O 2241.46 -1.97652 -7.47304 0
M  V30 78585 C 2242.4 -3.01133 -7.08783 0
M  V30 78586 C 2241.67 -4.12613 -6.37049 0
M  V30 78587 O 2241.46 -3.72827 -4.97879 0
M  V30 78588 C 2240.27 -4.45085 -6.88694 0
M  V30 78589 O 2239.88 -5.7877 -6.5624 0
M  V30 78590 C 2239.39 -3.47817 -6.12078 0
M  V30 78591 C 2240.1 -3.39414 -4.77697 0
M  V30 78592 N 2240.05 -2.04615 -4.15333 0
M  V30 78593 H 2242.89 -3.41248 -7.98759 0
M  V30 78594 H 2243.16 -2.5837 -6.41742 0
M  V30 78595 H 2242.29 -5.02657 -6.42673 0
M  V30 78596 P 2238.33 -6.144 -6.45285 0
M  V30 78597 O 2238.11 -7.54673 -6.86199 0
M  V30 78598 O 2237.54 -5.12391 -7.179 0
M  V30 78599 O 2238.08 -5.99158 -4.88404 0
M  V30 78600 C 2239.02 -6.60234 -3.96415 0
M  V30 78601 C 2238.29 -7.08259 -2.72856 0
M  V30 78602 O 2238.08 -5.9427 -1.83651 0
M  V30 78603 C 2236.89 -7.64886 -2.9555 0
M  V30 78604 O 2236.5 -8.53963 -1.90717 0
M  V30 78605 C 2236.01 -6.4116 -2.90739 0
M  V30 78606 C 2236.72 -5.55375 -1.86963 0
M  V30 78607 N 2236.67 -4.09664 -2.15742 0
M  V30 78608 H 2239.51 -7.45574 -4.45629 0
M  V30 78609 H 2239.78 -5.86232 -3.67314 0
M  V30 78610 H 2238.91 -7.84412 -2.24479 0
M  V30 78611 P 2234.95 -8.7635 -1.60911 0
M  V30 78612 O 2234.73 -10.1388 -1.11561 0
M  V30 78613 O 2234.16 -8.36503 -2.79617 0
M  V30 78614 O 2234.7 -7.71806 -0.42951 0
M  V30 78615 C 2235.64 -7.67148 0.673689 0
M  V30 78616 C 2234.91 -7.33374 1.95559 0
M  V30 78617 O 2234.7 -5.88721 2.00726 0
M  V30 78618 C 2233.51 -7.92526 2.10483 0
M  V30 78619 O 2233.12 -8.02971 3.47653 0
M  V30 78620 C 2232.63 -6.89602 1.41652 0
M  V30 78621 C 2233.34 -5.59201 1.75185 0
M  V30 78622 N 2233.29 -4.58301 0.657969 0
M  V30 78623 H 2236.13 -8.65116 0.777161 0
M  V30 78624 H 2236.4 -6.9022 0.46725 0
M  V30 78625 H 2235.53 -7.66548 2.79458 0
M  V30 78626 H 2232.87 -5.16165 2.65183 0
M  V30 78627 H 2232.59 -7.06433 0.329384 0
M  V30 78628 H 2231.6 -6.90926 1.82021 0
M  V30 78629 H 2233.44 -8.90873 1.62657 0
M  V30 78630 P 2231.57 -8.03563 3.84925 0
M  V30 78631 O 2231.35 -8.85821 5.0569 0
M  V30 78632 O 2230.78 -8.41101 2.65469 0
M  V30 78633 O 2231.32 -6.4965 4.18908 0
M  V30 78634 C 2232.26 -5.81037 5.05421 0
M  V30 78635 C 2231.53 -4.78366 5.89277 0
M  V30 78636 O 2231.32 -3.58302 5.08433 0
M  V30 78637 C 2230.13 -5.17448 6.36119 0
M  V30 78638 O 2229.74 -4.45271 7.53232 0
M  V30 78639 C 2229.25 -4.74639 5.19936 0
M  V30 78640 C 2229.96 -3.49432 4.70418 0
M  V30 78641 N 2229.91 -3.31776 3.22945 0
M  V30 78642 H 2232.75 -6.54213 5.71376 0
M  V30 78643 H 2233.02 -5.30492 4.44033 0
M  V30 78644 H 2232.15 -4.55889 6.76652 0
M  V30 78645 P 2228.19 -4.23843 7.83734 0
M  V30 78646 O 2227.97 -4.19407 9.29784 0
M  V30 78647 O 2227.4 -5.24426 7.09156 0
M  V30 78648 O 2227.94 -2.7935 7.20758 0
M  V30 78649 C 2228.88 -1.7299 7.50419 0
M  V30 78650 C 2228.15 -0.406376 7.57911 0
M  V30 78651 O 2227.94 0.0897726 6.21935 0
M  V30 78652 C 2226.75 -0.447224 8.1878 0
M  V30 78653 O 2226.36 0.825065 8.71101 0
M  V30 78654 C 2225.87 -0.783801 6.99623 0
M  V30 78655 C 2226.58 -0.0619192 5.85967 0
M  V30 78656 N 2226.53 -0.7859 4.56281 0
M  V30 78657 H 2229.37 -1.93423 8.4679 0
M  V30 78658 H 2229.64 -1.68181 6.71046 0
M  V30 78659 H 2228.77 0.289041 8.15388 0
M  V30 78660 P 2224.81 1.17771 8.83182 0
M  V30 78661 O 2224.59 2.07206 9.98732 0
M  V30 78662 O 2224.02 -0.0743816 8.81969 0
M  V30 78663 O 2224.56 1.97678 7.474 0
M  V30 78664 C 2225.5 3.01133 7.08783 0
M  V30 78665 C 2224.77 4.1203 6.37546 0
M  V30 78666 O 2224.56 3.72887 4.9796 0
M  V30 78667 C 2223.37 4.45085 6.88694 0
M  V30 78668 O 2222.98 5.78836 6.56315 0
M  V30 78669 C 2222.49 3.47817 6.12078 0
M  V30 78670 C 2223.2 3.39414 4.77697 0
M  V30 78671 N 2223.15 2.04615 4.15333 0
M  V30 78672 C 2223 1.96929 2.77162 0
M  V30 78673 O 2222.91 3.02017 2.12006 0
M  V30 78674 N 2222.95 0.55485 2.24237 0
M  V30 78675 C 2223.05 -0.367808 2.9169 0
M  V30 78676 N 2223 -1.53426 2.29427 0
M  V30 78677 C 2223.2 -0.319148 4.33828 0
M  V30 78678 C 2223.25 0.920672 4.90433 0
M  V30 78679 H 2225.99 3.41209 7.98667 0
M  V30 78680 H 2226.26 2.5837 6.41742 0
M  V30 78681 H 2225.39 5.02718 6.42752 0
M  V30 78682 H 2222.73 4.11779 4.09026 0
M  V30 78683 H 2222.45 2.49661 6.61772 0
M  V30 78684 H 2221.46 3.86674 6.00946 0
M  V30 78685 H 2223.3 4.29991 7.97006 0
M  V30 78686 H 2223.37 1.00589 5.98303 0
M  V30 78687 H 2223.27 -1.22639 4.93799 0
M  V30 78688 H 2222.88 -1.56819 1.27167 0
M  V30 78689 H 2223.08 -2.41062 2.83063 0
M  V30 78690 P 2221.43 6.144 6.45285 0
M  V30 78691 O 2221.21 7.54673 6.86199 0
M  V30 78692 O 2220.64 5.12391 7.179 0
M  V30 78693 O 2221.18 5.99158 4.88404 0
M  V30 78694 C 2222.12 6.60234 3.96415 0
M  V30 78695 C 2221.39 7.08259 2.72856 0
M  V30 78696 O 2221.18 5.9427 1.83651 0
M  V30 78697 C 2219.99 7.64886 2.9555 0
M  V30 78698 O 2219.6 8.53963 1.90717 0
M  V30 78699 C 2219.11 6.4116 2.90739 0
M  V30 78700 C 2219.82 5.55375 1.86963 0
M  V30 78701 N 2219.77 4.09664 2.15742 0
M  V30 78702 H 2222.61 7.45574 4.45629 0
M  V30 78703 H 2222.88 5.86232 3.67314 0
M  V30 78704 H 2222.01 7.84412 2.24479 0
M  V30 78705 P 2218.05 8.7635 1.60911 0
M  V30 78706 O 2217.83 10.1388 1.11561 0
M  V30 78707 O 2217.26 8.36503 2.79617 0
M  V30 78708 O 2217.8 7.71806 0.42951 0
M  V30 78709 C 2218.74 7.66948 -0.673514 0
M  V30 78710 C 2218.01 7.33374 -1.95559 0
M  V30 78711 O 2217.8 5.88721 -2.00726 0
M  V30 78712 C 2216.61 7.92218 -2.1125 0
M  V30 78713 O 2216.22 8.02971 -3.47653 0
M  V30 78714 C 2215.73 6.89504 -1.41631 0
M  V30 78715 C 2216.44 5.59106 -1.75155 0
M  V30 78716 N 2216.39 4.58136 -0.662409 0
M  V30 78717 C 2216.24 3.26059 -1.02863 0
M  V30 78718 O 2216.15 2.90743 -2.19009 0
M  V30 78719 N 2216.2 2.35995 0.0155585 0
M  V30 78720 C 2216.29 2.65248 1.35603 0
M  V30 78721 C 2216.44 4.05747 1.64698 0
M  V30 78722 C 2216.49 4.96734 0.652411 0
M  V30 78723 H 2219.23 8.64917 -0.776982 0
M  V30 78724 H 2219.5 6.89974 -0.474015 0
M  V30 78725 H 2218.63 7.66548 -2.79458 0
M  V30 78726 H 2215.97 5.16076 -2.65138 0
M  V30 78727 H 2215.7 7.06433 -0.329384 0
M  V30 78728 H 2214.7 6.90829 -1.81996 0
M  V30 78729 H 2216.54 8.90774 -1.62639 0
M  V30 78730 H 2216.61 6.02181 0.895285 0
M  V30 78731 P 2214.67 8.03563 -3.84925 0
M  V30 78732 O 2214.45 8.85821 -5.0569 0
M  V30 78733 O 2213.88 8.41101 -2.65469 0
M  V30 78734 O 2214.42 6.4965 -4.18908 0
M  V30 78735 C 2215.36 5.81037 -5.05421 0
M  V30 78736 C 2214.63 4.78366 -5.89277 0
M  V30 78737 O 2214.42 3.58302 -5.08433 0
M  V30 78738 C 2213.23 5.17448 -6.36119 0
M  V30 78739 O 2212.84 4.45271 -7.53232 0
M  V30 78740 C 2212.35 4.74639 -5.19936 0
M  V30 78741 C 2213.06 3.49432 -4.70418 0
M  V30 78742 N 2213.01 3.32099 -3.22613 0
M  V30 78743 H 2215.85 6.54213 -5.71376 0
M  V30 78744 H 2216.12 5.30936 -4.43503 0
M  V30 78745 H 2215.25 4.55889 -6.76652 0
M  V30 78746 H 2212.59 2.61715 -5.17932 0
M  V30 78747 H 2212.31 5.52155 -4.41878 0
M  V30 78748 H 2211.32 4.51981 -5.53374 0
M  V30 78749 H 2213.16 6.25124 -6.55234 0
M  V30 78750 P 2211.29 4.23843 -7.83734 0
M  V30 78751 O 2211.07 4.19407 -9.29784 0
M  V30 78752 O 2210.5 5.24426 -7.09156 0
M  V30 78753 O 2211.04 2.7935 -7.20758 0
M  V30 78754 C 2211.98 1.7299 -7.50419 0
M  V30 78755 C 2211.25 0.406376 -7.57911 0
M  V30 78756 O 2211.04 -0.0897726 -6.21935 0
M  V30 78757 C 2209.85 0.447224 -8.1878 0
M  V30 78758 O 2209.46 -0.825065 -8.71101 0
M  V30 78759 C 2208.97 0.783801 -6.99623 0
M  V30 78760 C 2209.68 0.0619192 -5.85967 0
M  V30 78761 N 2209.63 0.7859 -4.56281 0
M  V30 78762 H 2212.47 1.93423 -8.4679 0
M  V30 78763 H 2212.74 1.68181 -6.71046 0
M  V30 78764 H 2211.87 -0.289041 -8.15388 0
M  V30 78765 P 2207.91 -1.17771 -8.83182 0
M  V30 78766 O 2207.69 -2.07206 -9.98732 0
M  V30 78767 O 2207.12 0.0743816 -8.81969 0
M  V30 78768 O 2207.66 -1.97652 -7.47304 0
M  V30 78769 C 2208.6 -3.01133 -7.08783 0
M  V30 78770 C 2207.87 -4.12613 -6.37049 0
M  V30 78771 O 2207.66 -3.72827 -4.97879 0
M  V30 78772 C 2206.47 -4.45085 -6.88694 0
M  V30 78773 O 2206.08 -5.7877 -6.5624 0
M  V30 78774 C 2205.59 -3.47817 -6.12078 0
M  V30 78775 C 2206.3 -3.39414 -4.77697 0
M  V30 78776 N 2206.25 -2.04199 -4.15538 0
M  V30 78777 H 2209.09 -3.41248 -7.98759 0
M  V30 78778 H 2209.36 -2.57728 -6.42 0
M  V30 78779 H 2208.49 -5.02657 -6.42673 0
M  V30 78780 H 2205.83 -4.11708 -4.08956 0
M  V30 78781 H 2205.55 -2.49626 -6.61679 0
M  V30 78782 H 2204.56 -3.8662 -6.00862 0
M  V30 78783 H 2206.4 -4.29991 -7.97006 0
M  V30 78784 P 2204.53 -6.144 -6.45285 0
M  V30 78785 O 2204.31 -7.54673 -6.86199 0
M  V30 78786 O 2203.74 -5.12391 -7.179 0
M  V30 78787 O 2204.28 -5.99158 -4.88404 0
M  V30 78788 C 2205.22 -6.60234 -3.96415 0
M  V30 78789 C 2204.49 -7.08259 -2.72856 0
M  V30 78790 O 2204.28 -5.9427 -1.83651 0
M  V30 78791 C 2203.09 -7.64886 -2.9555 0
M  V30 78792 O 2202.7 -8.53963 -1.90717 0
M  V30 78793 C 2202.21 -6.4116 -2.90739 0
M  V30 78794 C 2202.92 -5.55375 -1.86963 0
M  V30 78795 N 2202.87 -4.09448 -2.16152 0
M  V30 78796 H 2205.71 -7.45574 -4.45629 0
M  V30 78797 H 2205.98 -5.85864 -3.679 0
M  V30 78798 H 2205.11 -7.84412 -2.24479 0
M  V30 78799 H 2202.45 -5.73457 -0.888562 0
M  V30 78800 H 2202.17 -5.90877 -3.88583 0
M  V30 78801 H 2201.18 -6.6596 -2.58858 0
M  V30 78802 H 2203.02 -8.16339 -3.92049 0
M  V30 78803 P 2201.15 -8.7635 -1.60911 0
M  V30 78804 O 2200.93 -10.1388 -1.11561 0
M  V30 78805 O 2200.36 -8.36503 -2.79617 0
M  V30 78806 O 2200.9 -7.71806 -0.42951 0
M  V30 78807 C 2201.84 -7.66948 0.673514 0
M  V30 78808 C 2201.11 -7.33374 1.95559 0
M  V30 78809 O 2200.9 -5.88721 2.00726 0
M  V30 78810 C 2199.71 -7.92218 2.1125 0
M  V30 78811 O 2199.32 -8.02971 3.47653 0
M  V30 78812 C 2198.83 -6.89504 1.41631 0
M  V30 78813 C 2199.54 -5.59106 1.75155 0
M  V30 78814 N 2199.49 -4.58136 0.662409 0
M  V30 78815 C 2199.34 -3.26059 1.02863 0
M  V30 78816 O 2199.25 -2.90743 2.19009 0
M  V30 78817 N 2199.3 -2.35995 -0.0155585 0
M  V30 78818 C 2199.39 -2.65248 -1.35603 0
M  V30 78819 O 2199.34 -1.75605 -2.20651 0
M  V30 78820 C 2199.54 -4.05747 -1.64698 0
M  V30 78821 C 2199.65 -4.42345 -3.09553 0
M  V30 78822 C 2199.59 -4.96734 -0.652411 0
M  V30 78823 H 2202.33 -8.64917 0.776982 0
M  V30 78824 H 2202.6 -6.89974 0.474015 0
M  V30 78825 H 2201.73 -7.66548 2.79458 0
M  V30 78826 H 2199.07 -5.16076 2.65138 0
M  V30 78827 H 2198.8 -7.06433 0.329384 0
M  V30 78828 H 2197.8 -6.90829 1.81996 0
M  V30 78829 H 2199.64 -8.90774 1.62639 0
M  V30 78830 H 2199.71 -6.02181 -0.895285 0
M  V30 78831 H 2198.68 -4.80252 -3.45468 0
M  V30 78832 H 2200.42 -5.20015 -3.22119 0
M  V30 78833 H 2199.93 -3.53269 -3.67833 0
M  V30 78834 H 2199.19 -1.39558 0.227499 0
M  V30 78835 P 2197.77 -8.03563 3.84925 0
M  V30 78836 O 2197.55 -8.85821 5.0569 0
M  V30 78837 O 2196.98 -8.41101 2.65469 0
M  V30 78838 O 2197.52 -6.4965 4.18908 0
M  V30 78839 C 2198.46 -5.80886 5.05289 0
M  V30 78840 C 2197.73 -4.78366 5.89277 0
M  V30 78841 O 2197.52 -3.58302 5.08433 0
M  V30 78842 C 2196.33 -5.16748 6.36559 0
M  V30 78843 O 2195.94 -4.45271 7.53232 0
M  V30 78844 C 2195.45 -4.74572 5.19863 0
M  V30 78845 C 2196.16 -3.49373 4.70338 0
M  V30 78846 N 2196.11 -3.31704 3.22876 0
M  V30 78847 C 2195.96 -2.03326 2.74871 0
M  V30 78848 O 2195.87 -1.06486 3.48076 0
M  V30 78849 N 2195.92 -1.91838 1.37456 0
M  V30 78850 C 2196.01 -2.94295 0.462035 0
M  V30 78851 C 2196.16 -4.25064 1.05249 0
M  V30 78852 C 2196.21 -4.40214 2.39192 0
M  V30 78853 H 2198.95 -6.54063 5.71245 0
M  V30 78854 H 2199.22 -5.30339 4.43905 0
M  V30 78855 H 2198.35 -4.55889 6.76652 0
M  V30 78856 H 2195.7 -2.6167 5.17842 0
M  V30 78857 H 2195.42 -5.52155 4.41878 0
M  V30 78858 H 2194.42 -4.51918 5.53297 0
M  V30 78859 H 2196.26 -6.25055 6.55162 0
M  V30 78860 H 2196.33 -5.39798 2.81523 0
M  V30 78861 P 2194.39 -4.23843 7.83734 0
M  V30 78862 O 2194.17 -4.19407 9.29784 0
M  V30 78863 O 2193.6 -5.24426 7.09156 0
M  V30 78864 O 2194.14 -2.7935 7.20758 0
M  V30 78865 C 2195.08 -1.7299 7.50419 0
M  V30 78866 C 2194.35 -0.406376 7.57911 0
M  V30 78867 O 2194.14 0.0897726 6.21935 0
M  V30 78868 C 2192.95 -0.447224 8.1878 0
M  V30 78869 O 2192.56 0.825065 8.71101 0
M  V30 78870 C 2192.07 -0.783801 6.99623 0
M  V30 78871 C 2192.78 -0.0619192 5.85967 0
M  V30 78872 N 2192.73 -0.7859 4.56281 0
M  V30 78873 H 2195.57 -1.93423 8.4679 0
M  V30 78874 H 2195.84 -1.68181 6.71046 0
M  V30 78875 H 2194.97 0.289041 8.15388 0
M  V30 78876 P 2191.01 1.17771 8.83182 0
M  V30 78877 O 2190.79 2.07206 9.98732 0
M  V30 78878 O 2190.22 -0.0743816 8.81969 0
M  V30 78879 O 2190.76 1.97652 7.47304 0
M  V30 78880 C 2191.7 3.01133 7.08783 0
M  V30 78881 C 2190.97 4.12613 6.37049 0
M  V30 78882 O 2190.76 3.72827 4.97879 0
M  V30 78883 C 2189.57 4.45085 6.88694 0
M  V30 78884 O 2189.18 5.7877 6.5624 0
M  V30 78885 C 2188.69 3.47817 6.12078 0
M  V30 78886 C 2189.4 3.39414 4.77697 0
M  V30 78887 N 2189.35 2.04199 4.15538 0
M  V30 78888 H 2192.19 3.41248 7.98759 0
M  V30 78889 H 2192.46 2.57728 6.42 0
M  V30 78890 H 2191.59 5.02657 6.42673 0
M  V30 78891 H 2188.94 4.11708 4.08956 0
M  V30 78892 H 2188.66 2.49626 6.61679 0
M  V30 78893 H 2187.66 3.8662 6.00862 0
M  V30 78894 H 2189.5 4.29991 7.97006 0
M  V30 78895 P 2187.63 6.144 6.45285 0
M  V30 78896 O 2187.41 7.54673 6.86199 0
M  V30 78897 O 2186.84 5.12391 7.179 0
M  V30 78898 O 2187.38 5.99158 4.88404 0
M  V30 78899 C 2188.32 6.60234 3.96415 0
M  V30 78900 C 2187.59 7.08259 2.72856 0
M  V30 78901 O 2187.38 5.9427 1.83651 0
M  V30 78902 C 2186.19 7.64886 2.9555 0
M  V30 78903 O 2185.8 8.53963 1.90717 0
M  V30 78904 C 2185.31 6.4116 2.90739 0
M  V30 78905 C 2186.02 5.55375 1.86963 0
M  V30 78906 N 2185.97 4.09664 2.15742 0
M  V30 78907 H 2188.81 7.45574 4.45629 0
M  V30 78908 H 2189.08 5.86232 3.67314 0
M  V30 78909 H 2188.21 7.84412 2.24479 0
M  V30 78910 P 2184.25 8.7635 1.60911 0
M  V30 78911 O 2184.03 10.1388 1.11561 0
M  V30 78912 O 2183.46 8.36503 2.79617 0
M  V30 78913 O 2184 7.71806 0.42951 0
M  V30 78914 C 2184.94 7.67148 -0.673689 0
M  V30 78915 C 2184.21 7.33374 -1.95559 0
M  V30 78916 O 2184 5.88721 -2.00726 0
M  V30 78917 C 2182.81 7.92526 -2.10483 0
M  V30 78918 O 2182.42 8.02971 -3.47653 0
M  V30 78919 C 2181.93 6.89602 -1.41652 0
M  V30 78920 C 2182.64 5.59201 -1.75185 0
M  V30 78921 N 2182.59 4.58301 -0.657969 0
M  V30 78922 H 2185.43 8.65116 -0.777161 0
M  V30 78923 H 2185.7 6.9022 -0.46725 0
M  V30 78924 H 2184.83 7.66548 -2.79458 0
M  V30 78925 H 2182.18 5.16165 -2.65183 0
M  V30 78926 H 2181.9 7.06433 -0.329384 0
M  V30 78927 H 2180.9 6.90926 -1.82021 0
M  V30 78928 H 2182.74 8.90873 -1.62657 0
M  V30 78929 P 2180.87 8.03563 -3.84925 0
M  V30 78930 O 2180.65 8.85821 -5.0569 0
M  V30 78931 O 2180.08 8.41101 -2.65469 0
M  V30 78932 O 2180.62 6.4965 -4.18908 0
M  V30 78933 C 2181.56 5.81037 -5.05421 0
M  V30 78934 C 2180.83 4.78366 -5.89277 0
M  V30 78935 O 2180.62 3.58302 -5.08433 0
M  V30 78936 C 2179.43 5.17448 -6.36119 0
M  V30 78937 O 2179.04 4.45271 -7.53232 0
M  V30 78938 C 2178.55 4.74639 -5.19936 0
M  V30 78939 C 2179.26 3.49432 -4.70418 0
M  V30 78940 N 2179.21 3.31776 -3.22945 0
M  V30 78941 C 2179.29 4.27147 -2.23315 0
M  V30 78942 N 2179.21 3.78447 -1.02186 0
M  V30 78943 C 2179.07 2.41001 -1.21732 0
M  V30 78944 C 2178.94 1.36111 -0.27694 0
M  V30 78945 N 2178.82 0.113683 -0.912949 0
M  V30 78946 C 2178.82 -0.0846396 -2.27943 0
M  V30 78947 N 2178.69 -1.34737 -2.6916 0
M  V30 78948 N 2178.95 0.902521 -3.16379 0
M  V30 78949 C 2179.07 2.11937 -2.56849 0
M  V30 78950 H 2182.05 6.54213 -5.71376 0
M  V30 78951 H 2182.32 5.30492 -4.44033 0
M  V30 78952 H 2181.45 4.55889 -6.76652 0
M  V30 78953 P 2177.49 4.23843 -7.83734 0
M  V30 78954 O 2177.27 4.19407 -9.29784 0
M  V30 78955 O 2176.7 5.24426 -7.09156 0
M  V30 78956 O 2177.24 2.7935 -7.20758 0
M  V30 78957 C 2178.18 1.7299 -7.50419 0
M  V30 78958 C 2177.45 0.406376 -7.57911 0
M  V30 78959 O 2177.24 -0.0897726 -6.21935 0
M  V30 78960 C 2176.05 0.447224 -8.1878 0
M  V30 78961 O 2175.66 -0.825065 -8.71101 0
M  V30 78962 C 2175.17 0.783801 -6.99623 0
M  V30 78963 C 2175.88 0.0619192 -5.85967 0
M  V30 78964 N 2175.83 0.790462 -4.56202 0
M  V30 78965 H 2178.67 1.93423 -8.4679 0
M  V30 78966 H 2178.94 1.68852 -6.70877 0
M  V30 78967 H 2178.07 -0.289041 -8.15388 0
M  V30 78968 H 2175.42 -0.927006 -5.72848 0
M  V30 78969 H 2175.14 1.86973 -6.82036 0
M  V30 78970 H 2174.14 0.403953 -7.13357 0
M  V30 78971 H 2175.98 1.20599 -8.97534 0
M  V30 78972 P 2174.11 -1.17771 -8.83182 0
M  V30 78973 O 2173.89 -2.07206 -9.98732 0
M  V30 78974 O 2173.32 0.0743816 -8.81969 0
M  V30 78975 O 2173.86 -1.97652 -7.47304 0
M  V30 78976 C 2174.8 -3.01133 -7.08783 0
M  V30 78977 C 2174.07 -4.12613 -6.37049 0
M  V30 78978 O 2173.86 -3.72827 -4.97879 0
M  V30 78979 C 2172.67 -4.45085 -6.88694 0
M  V30 78980 O 2172.28 -5.7877 -6.5624 0
M  V30 78981 C 2171.79 -3.47817 -6.12078 0
M  V30 78982 C 2172.5 -3.39414 -4.77697 0
M  V30 78983 N 2172.45 -2.04615 -4.15333 0
M  V30 78984 H 2175.29 -3.41248 -7.98759 0
M  V30 78985 H 2175.56 -2.5837 -6.41742 0
M  V30 78986 H 2174.69 -5.02657 -6.42673 0
M  V30 78987 P 2170.73 -6.144 -6.45285 0
M  V30 78988 O 2170.51 -7.54673 -6.86199 0
M  V30 78989 O 2169.94 -5.12391 -7.179 0
M  V30 78990 O 2170.48 -5.99158 -4.88404 0
M  V30 78991 C 2171.42 -6.60062 -3.96313 0
M  V30 78992 C 2170.69 -7.08259 -2.72856 0
M  V30 78993 O 2170.48 -5.9427 -1.83651 0
M  V30 78994 C 2169.29 -7.65087 -2.94749 0
M  V30 78995 O 2168.9 -8.53963 -1.90717 0
M  V30 78996 C 2168.41 -6.41069 -2.90698 0
M  V30 78997 C 2169.12 -5.5528 -1.86931 0
M  V30 78998 N 2169.07 -4.09575 -2.15696 0
M  V30 78999 C 2168.92 -3.24249 -1.08435 0
M  V30 79000 O 2168.83 -3.63946 0.0628747 0
M  V30 79001 N 2168.88 -1.90009 -1.39973 0
M  V30 79002 C 2168.97 -1.34884 -2.65614 0
M  V30 79003 O 2168.92 -0.123716 -2.81728 0
M  V30 79004 C 2169.12 -2.3145 -3.71736 0
M  V30 79005 C 2169.23 -1.75913 -5.10438 0
M  V30 79006 C 2169.17 -3.63518 -3.44754 0
M  V30 79007 H 2171.91 -7.45402 -4.45526 0
M  V30 79008 H 2172.18 -5.86062 -3.67208 0
M  V30 79009 H 2171.31 -7.84412 -2.24479 0
M  V30 79010 H 2168.66 -5.73358 -0.888409 0
M  V30 79011 H 2168.38 -5.90877 -3.88583 0
M  V30 79012 H 2167.38 -6.65867 -2.58821 0
M  V30 79013 H 2169.22 -8.16248 -3.92006 0
M  V30 79014 H 2169.29 -4.34551 -4.26383 0
M  V30 79015 H 2168.26 -1.85471 -5.61775 0
M  V30 79016 H 2170 -2.31364 -5.66257 0
M  V30 79017 H 2169.51 -0.695936 -5.05229 0
M  V30 79018 H 2168.77 -1.26277 -0.63625 0
M  V30 79019 P 2167.35 -8.7635 -1.60911 0
M  V30 79020 O 2167.13 -10.1388 -1.11561 0
M  V30 79021 O 2166.56 -8.36503 -2.79617 0
M  V30 79022 O 2167.1 -7.71806 -0.42951 0
M  V30 79023 C 2168.04 -7.67148 0.673689 0
M  V30 79024 C 2167.31 -7.33374 1.95559 0
M  V30 79025 O 2167.1 -5.88721 2.00726 0
M  V30 79026 C 2165.91 -7.92526 2.10483 0
M  V30 79027 O 2165.52 -8.02971 3.47653 0
M  V30 79028 C 2165.03 -6.89602 1.41652 0
M  V30 79029 C 2165.74 -5.59201 1.75185 0
M  V30 79030 N 2165.69 -4.58301 0.657969 0
M  V30 79031 H 2168.53 -8.65116 0.777161 0
M  V30 79032 H 2168.8 -6.9022 0.46725 0
M  V30 79033 H 2167.93 -7.66548 2.79458 0
M  V30 79034 H 2165.28 -5.16165 2.65183 0
M  V30 79035 H 2165 -7.06433 0.329384 0
M  V30 79036 H 2164 -6.90926 1.82021 0
M  V30 79037 H 2165.84 -8.90873 1.62657 0
M  V30 79038 P 2163.97 -8.03563 3.84925 0
M  V30 79039 O 2163.75 -8.85821 5.0569 0
M  V30 79040 O 2163.18 -8.41101 2.65469 0
M  V30 79041 O 2163.72 -6.4965 4.18908 0
M  V30 79042 C 2164.66 -5.81037 5.05421 0
M  V30 79043 C 2163.93 -4.78366 5.89277 0
M  V30 79044 O 2163.72 -3.58302 5.08433 0
M  V30 79045 C 2162.53 -5.17448 6.36119 0
M  V30 79046 O 2162.14 -4.45271 7.53232 0
M  V30 79047 C 2161.65 -4.74639 5.19936 0
M  V30 79048 C 2162.36 -3.49432 4.70418 0
M  V30 79049 N 2162.31 -3.31776 3.22945 0
M  V30 79050 H 2165.15 -6.54213 5.71376 0
M  V30 79051 H 2165.42 -5.30492 4.44033 0
M  V30 79052 H 2164.55 -4.55889 6.76652 0
M  V30 79053 P 2160.59 -4.23843 7.83734 0
M  V30 79054 O 2160.37 -4.19407 9.29784 0
M  V30 79055 O 2159.8 -5.24426 7.09156 0
M  V30 79056 O 2160.34 -2.7935 7.20758 0
M  V30 79057 C 2161.28 -1.7299 7.50419 0
M  V30 79058 C 2160.55 -0.406376 7.57911 0
M  V30 79059 O 2160.34 0.0897726 6.21935 0
M  V30 79060 C 2159.15 -0.447224 8.1878 0
M  V30 79061 O 2158.76 0.825065 8.71101 0
M  V30 79062 C 2158.27 -0.783801 6.99623 0
M  V30 79063 C 2158.98 -0.0619192 5.85967 0
M  V30 79064 N 2158.93 -0.7859 4.56281 0
M  V30 79065 H 2161.77 -1.93423 8.4679 0
M  V30 79066 H 2162.04 -1.68181 6.71046 0
M  V30 79067 H 2161.17 0.289041 8.15388 0
M  V30 79068 P 2157.21 1.17771 8.83182 0
M  V30 79069 O 2156.99 2.07206 9.98732 0
M  V30 79070 O 2156.42 -0.0743816 8.81969 0
M  V30 79071 O 2156.96 1.97652 7.47304 0
M  V30 79072 C 2157.9 3.01133 7.08783 0
M  V30 79073 C 2157.17 4.12613 6.37049 0
M  V30 79074 O 2156.96 3.72827 4.97879 0
M  V30 79075 C 2155.77 4.45085 6.88694 0
M  V30 79076 O 2155.38 5.7877 6.5624 0
M  V30 79077 C 2154.89 3.47817 6.12078 0
M  V30 79078 C 2155.6 3.39414 4.77697 0
M  V30 79079 N 2155.55 2.04615 4.15333 0
M  V30 79080 H 2158.39 3.41248 7.98759 0
M  V30 79081 H 2158.66 2.5837 6.41742 0
M  V30 79082 H 2157.79 5.02657 6.42673 0
M  V30 79083 P 2153.83 6.144 6.45285 0
M  V30 79084 O 2153.61 7.54673 6.86199 0
M  V30 79085 O 2153.04 5.12391 7.179 0
M  V30 79086 O 2153.58 5.99158 4.88404 0
M  V30 79087 C 2154.52 6.60234 3.96415 0
M  V30 79088 C 2153.79 7.08259 2.72856 0
M  V30 79089 O 2153.58 5.9427 1.83651 0
M  V30 79090 C 2152.39 7.64886 2.9555 0
M  V30 79091 O 2152 8.53963 1.90717 0
M  V30 79092 C 2151.51 6.4116 2.90739 0
M  V30 79093 C 2152.22 5.55375 1.86963 0
M  V30 79094 N 2152.17 4.09664 2.15742 0
M  V30 79095 H 2155.01 7.45574 4.45629 0
M  V30 79096 H 2155.28 5.86232 3.67314 0
M  V30 79097 H 2154.41 7.84412 2.24479 0
M  V30 79098 P 2150.45 8.7635 1.60911 0
M  V30 79099 O 2150.23 10.1388 1.11561 0
M  V30 79100 O 2149.66 8.36503 2.79617 0
M  V30 79101 O 2150.2 7.71806 0.42951 0
M  V30 79102 C 2151.14 7.67148 -0.673689 0
M  V30 79103 C 2150.41 7.33374 -1.95559 0
M  V30 79104 O 2150.2 5.88721 -2.00726 0
M  V30 79105 C 2149.01 7.92526 -2.10483 0
M  V30 79106 O 2148.62 8.02971 -3.47653 0
M  V30 79107 C 2148.13 6.89602 -1.41652 0
M  V30 79108 C 2148.84 5.59201 -1.75185 0
M  V30 79109 N 2148.79 4.58235 -0.662552 0
M  V30 79110 H 2151.63 8.65116 -0.777161 0
M  V30 79111 H 2151.9 6.90173 -0.474152 0
M  V30 79112 H 2151.03 7.66548 -2.79458 0
M  V30 79113 P 2147.07 8.03563 -3.84925 0
M  V30 79114 O 2146.85 8.85821 -5.0569 0
M  V30 79115 O 2146.28 8.41101 -2.65469 0
M  V30 79116 O 2146.82 6.4965 -4.18908 0
M  V30 79117 C 2147.76 5.81037 -5.05421 0
M  V30 79118 C 2147.03 4.78366 -5.89277 0
M  V30 79119 O 2146.82 3.58302 -5.08433 0
M  V30 79120 C 2145.63 5.17448 -6.36119 0
M  V30 79121 O 2145.24 4.45271 -7.53232 0
M  V30 79122 C 2144.75 4.74639 -5.19936 0
M  V30 79123 C 2145.46 3.49432 -4.70418 0
M  V30 79124 N 2145.41 3.31776 -3.22945 0
M  V30 79125 H 2148.25 6.54213 -5.71376 0
M  V30 79126 H 2148.52 5.30492 -4.44033 0
M  V30 79127 H 2147.65 4.55889 -6.76652 0
M  V30 79128 P 2143.69 4.23843 -7.83734 0
M  V30 79129 O 2143.47 4.19407 -9.29784 0
M  V30 79130 O 2142.9 5.24426 -7.09156 0
M  V30 79131 O 2143.44 2.7935 -7.20758 0
M  V30 79132 C 2144.38 1.7299 -7.50419 0
M  V30 79133 C 2143.65 0.406376 -7.57911 0
M  V30 79134 O 2143.44 -0.0897726 -6.21935 0
M  V30 79135 C 2142.25 0.447224 -8.1878 0
M  V30 79136 O 2141.86 -0.825065 -8.71101 0
M  V30 79137 C 2141.37 0.783801 -6.99623 0
M  V30 79138 C 2142.08 0.0619192 -5.85967 0
M  V30 79139 N 2142.03 0.7859 -4.56281 0
M  V30 79140 H 2144.87 1.93423 -8.4679 0
M  V30 79141 H 2145.14 1.68181 -6.71046 0
M  V30 79142 H 2144.27 -0.289041 -8.15388 0
M  V30 79143 P 2140.31 -1.17771 -8.83182 0
M  V30 79144 O 2140.09 -2.07206 -9.98732 0
M  V30 79145 O 2139.52 0.0743816 -8.81969 0
M  V30 79146 O 2140.06 -1.97652 -7.47304 0
M  V30 79147 C 2141 -3.01133 -7.08783 0
M  V30 79148 C 2140.27 -4.12613 -6.37049 0
M  V30 79149 O 2140.06 -3.72827 -4.97879 0
M  V30 79150 C 2138.87 -4.45085 -6.88694 0
M  V30 79151 O 2138.48 -5.7877 -6.5624 0
M  V30 79152 C 2137.99 -3.47817 -6.12078 0
M  V30 79153 C 2138.7 -3.39414 -4.77697 0
M  V30 79154 N 2138.65 -2.04615 -4.15333 0
M  V30 79155 H 2141.49 -3.41248 -7.98759 0
M  V30 79156 H 2141.76 -2.5837 -6.41742 0
M  V30 79157 H 2140.89 -5.02657 -6.42673 0
M  V30 79158 P 2136.93 -6.144 -6.45285 0
M  V30 79159 O 2136.71 -7.54673 -6.86199 0
M  V30 79160 O 2136.14 -5.12391 -7.179 0
M  V30 79161 O 2136.68 -5.99158 -4.88404 0
M  V30 79162 C 2137.62 -6.60234 -3.96415 0
M  V30 79163 C 2136.89 -7.08259 -2.72856 0
M  V30 79164 O 2136.68 -5.9427 -1.83651 0
M  V30 79165 C 2135.49 -7.64886 -2.9555 0
M  V30 79166 O 2135.1 -8.53963 -1.90717 0
M  V30 79167 C 2134.61 -6.4116 -2.90739 0
M  V30 79168 C 2135.32 -5.55375 -1.86963 0
M  V30 79169 N 2135.27 -4.09448 -2.16152 0
M  V30 79170 C 2135.35 -3.46824 -3.37593 0
M  V30 79171 N 2135.28 -2.17422 -3.29777 0
M  V30 79172 C 2135.13 -1.93065 -1.94427 0
M  V30 79173 C 2135 -0.738053 -1.20141 0
M  V30 79174 N 2134.99 0.474256 -1.74676 0
M  V30 79175 N 2134.88 -0.850049 0.13045 0
M  V30 79176 C 2134.89 -2.06169 0.676992 0
M  V30 79177 N 2135.01 -3.23842 0.101312 0
M  V30 79178 C 2135.13 -3.09402 -1.23122 0
M  V30 79179 H 2138.11 -7.45574 -4.45629 0
M  V30 79180 H 2138.38 -5.85864 -3.679 0
M  V30 79181 H 2137.51 -7.84412 -2.24479 0
M  V30 79182 H 2134.86 -5.73457 -0.888562 0
M  V30 79183 H 2134.58 -5.90877 -3.88583 0
M  V30 79184 H 2133.58 -6.6596 -2.58858 0
M  V30 79185 H 2135.42 -8.16339 -3.92049 0
M  V30 79186 H 2135.46 -4.00505 -4.3174 0
M  V30 79187 H 2135.08 0.581337 -2.76658 0
M  V30 79188 H 2134.89 1.30811 -1.14888 0
M  V30 79189 H 2134.78 -2.08295 1.75542 0
M  V30 79190 P 2133.55 -8.7635 -1.60911 0
M  V30 79191 O 2133.33 -10.1388 -1.11561 0
M  V30 79192 O 2132.76 -8.36503 -2.79617 0
M  V30 79193 O 2133.3 -7.71906 -0.429565 0
M  V30 79194 C 2134.24 -7.67148 0.673689 0
M  V30 79195 C 2133.51 -7.33666 1.94851 0
M  V30 79196 O 2133.3 -5.88816 2.00759 0
M  V30 79197 C 2132.11 -7.92526 2.10483 0
M  V30 79198 O 2131.72 -8.03063 3.47693 0
M  V30 79199 C 2131.23 -6.89602 1.41652 0
M  V30 79200 C 2131.94 -5.59201 1.75185 0
M  V30 79201 N 2131.89 -4.58235 0.662552 0
M  V30 79202 C 2131.74 -3.24451 1.01643 0
M  V30 79203 O 2131.65 -2.94958 2.21722 0
M  V30 79204 N 2131.69 -2.30408 -0.165238 0
M  V30 79205 C 2131.79 -2.66048 -1.25118 0
M  V30 79206 N 2131.74 -1.70787 -2.16813 0
M  V30 79207 C 2131.94 -4.02732 -1.64413 0
M  V30 79208 C 2131.99 -4.9488 -0.63991 0
M  V30 79209 H 2134.73 -8.65017 0.777072 0
M  V30 79210 H 2135 -6.90173 0.474152 0
M  V30 79211 H 2134.13 -7.66642 2.79492 0
M  V30 79212 H 2131.48 -5.16254 2.65229 0
M  V30 79213 H 2131.2 -7.06532 0.329431 0
M  V30 79214 H 2130.2 -6.91023 1.82047 0
M  V30 79215 H 2132.04 -8.90873 1.62657 0
M  V30 79216 H 2132.11 -6.00104 -0.892197 0
M  V30 79217 H 2132.01 -4.31733 -2.69229 0
M  V30 79218 H 2131.62 -0.724835 -1.8844 0
M  V30 79219 H 2131.82 -1.94716 -3.16734 0
M  V30 79220 P 2130.17 -8.03563 3.84925 0
M  V30 79221 O 2129.95 -8.85821 5.0569 0
M  V30 79222 O 2129.38 -8.41101 2.65469 0
M  V30 79223 O 2129.92 -6.4965 4.18908 0
M  V30 79224 C 2130.86 -5.81037 5.05421 0
M  V30 79225 C 2130.13 -4.78366 5.89277 0
M  V30 79226 O 2129.92 -3.58302 5.08433 0
M  V30 79227 C 2128.73 -5.17448 6.36119 0
M  V30 79228 O 2128.34 -4.45271 7.53232 0
M  V30 79229 C 2127.85 -4.74639 5.19936 0
M  V30 79230 C 2128.56 -3.49432 4.70418 0
M  V30 79231 N 2128.51 -3.32099 3.22613 0
M  V30 79232 H 2131.35 -6.54213 5.71376 0
M  V30 79233 H 2131.62 -5.30936 4.43503 0
M  V30 79234 H 2130.75 -4.55889 6.76652 0
M  V30 79235 H 2128.1 -2.61715 5.17932 0
M  V30 79236 H 2127.82 -5.52155 4.41878 0
M  V30 79237 H 2126.82 -4.51981 5.53374 0
M  V30 79238 H 2128.66 -6.25124 6.55234 0
M  V30 79239 P 2126.79 -4.23843 7.83734 0
M  V30 79240 O 2126.57 -4.19407 9.29784 0
M  V30 79241 O 2126 -5.24426 7.09156 0
M  V30 79242 O 2126.54 -2.7935 7.20758 0
M  V30 79243 C 2127.48 -1.7299 7.50419 0
M  V30 79244 C 2126.75 -0.406376 7.57911 0
M  V30 79245 O 2126.54 0.0897726 6.21935 0
M  V30 79246 C 2125.35 -0.447224 8.1878 0
M  V30 79247 O 2124.96 0.825065 8.71101 0
M  V30 79248 C 2124.47 -0.783801 6.99623 0
M  V30 79249 C 2125.18 -0.0619192 5.85967 0
M  V30 79250 N 2125.13 -0.7859 4.56281 0
M  V30 79251 H 2127.97 -1.93423 8.4679 0
M  V30 79252 H 2128.24 -1.68181 6.71046 0
M  V30 79253 H 2127.37 0.289041 8.15388 0
M  V30 79254 P 2123.41 1.17771 8.83182 0
M  V30 79255 O 2123.19 2.07206 9.98732 0
M  V30 79256 O 2122.62 -0.0743816 8.81969 0
M  V30 79257 O 2123.16 1.97652 7.47304 0
M  V30 79258 C 2124.1 3.01133 7.08783 0
M  V30 79259 C 2123.37 4.12613 6.37049 0
M  V30 79260 O 2123.16 3.72827 4.97879 0
M  V30 79261 C 2121.97 4.45085 6.88694 0
M  V30 79262 O 2121.58 5.7877 6.5624 0
M  V30 79263 C 2121.09 3.47817 6.12078 0
M  V30 79264 C 2121.8 3.39414 4.77697 0
M  V30 79265 N 2121.75 2.04615 4.15333 0
M  V30 79266 H 2124.59 3.41248 7.98759 0
M  V30 79267 H 2124.86 2.5837 6.41742 0
M  V30 79268 H 2123.99 5.02657 6.42673 0
M  V30 79269 P 2120.03 6.144 6.45285 0
M  V30 79270 O 2119.81 7.54673 6.86199 0
M  V30 79271 O 2119.24 5.12391 7.179 0
M  V30 79272 O 2119.78 5.99158 4.88404 0
M  V30 79273 C 2120.72 6.60234 3.96415 0
M  V30 79274 C 2119.99 7.08259 2.72856 0
M  V30 79275 O 2119.78 5.9427 1.83651 0
M  V30 79276 C 2118.59 7.64886 2.9555 0
M  V30 79277 O 2118.2 8.53963 1.90717 0
M  V30 79278 C 2117.71 6.4116 2.90739 0
M  V30 79279 C 2118.42 5.55375 1.86963 0
M  V30 79280 N 2118.37 4.09664 2.15742 0
M  V30 79281 H 2121.21 7.45574 4.45629 0
M  V30 79282 H 2121.48 5.86232 3.67314 0
M  V30 79283 H 2120.61 7.84412 2.24479 0
M  V30 79284 P 2116.65 8.7635 1.60911 0
M  V30 79285 O 2116.43 10.1388 1.11561 0
M  V30 79286 O 2115.86 8.36503 2.79617 0
M  V30 79287 O 2116.4 7.71806 0.42951 0
M  V30 79288 C 2117.34 7.67148 -0.673689 0
M  V30 79289 C 2116.61 7.33374 -1.95559 0
M  V30 79290 O 2116.4 5.88721 -2.00726 0
M  V30 79291 C 2115.21 7.92526 -2.10483 0
M  V30 79292 O 2114.82 8.02971 -3.47653 0
M  V30 79293 C 2114.33 6.89602 -1.41652 0
M  V30 79294 C 2115.04 5.59201 -1.75185 0
M  V30 79295 N 2114.99 4.58235 -0.662552 0
M  V30 79296 H 2117.83 8.65116 -0.777161 0
M  V30 79297 H 2118.1 6.90173 -0.474152 0
M  V30 79298 H 2117.23 7.66548 -2.79458 0
M  V30 79299 P 2113.27 8.03563 -3.84925 0
M  V30 79300 O 2113.05 8.85821 -5.0569 0
M  V30 79301 O 2112.48 8.41101 -2.65469 0
M  V30 79302 O 2113.02 6.4965 -4.18908 0
M  V30 79303 C 2113.96 5.81037 -5.05421 0
M  V30 79304 C 2113.23 4.78366 -5.89277 0
M  V30 79305 O 2113.02 3.58302 -5.08433 0
M  V30 79306 C 2111.83 5.17448 -6.36119 0
M  V30 79307 O 2111.44 4.45271 -7.53232 0
M  V30 79308 C 2110.95 4.74639 -5.19936 0
M  V30 79309 C 2111.66 3.49432 -4.70418 0
M  V30 79310 N 2111.61 3.31776 -3.22945 0
M  V30 79311 H 2114.45 6.54213 -5.71376 0
M  V30 79312 H 2114.72 5.30492 -4.44033 0
M  V30 79313 H 2113.85 4.55889 -6.76652 0
M  V30 79314 P 2109.89 4.23843 -7.83734 0
M  V30 79315 O 2109.67 4.19407 -9.29784 0
M  V30 79316 O 2109.1 5.24426 -7.09156 0
M  V30 79317 O 2109.64 2.7935 -7.20758 0
M  V30 79318 C 2110.58 1.7299 -7.50419 0
M  V30 79319 C 2109.85 0.406376 -7.57911 0
M  V30 79320 O 2109.64 -0.0897726 -6.21935 0
M  V30 79321 C 2108.45 0.447224 -8.1878 0
M  V30 79322 O 2108.06 -0.825065 -8.71101 0
M  V30 79323 C 2107.57 0.783801 -6.99623 0
M  V30 79324 C 2108.28 0.0619192 -5.85967 0
M  V30 79325 N 2108.23 0.7859 -4.56281 0
M  V30 79326 H 2111.07 1.93423 -8.4679 0
M  V30 79327 H 2111.34 1.68181 -6.71046 0
M  V30 79328 H 2110.47 -0.289041 -8.15388 0
M  V30 79329 P 2106.51 -1.17771 -8.83182 0
M  V30 79330 O 2106.29 -2.07206 -9.98732 0
M  V30 79331 O 2105.72 0.0743816 -8.81969 0
M  V30 79332 O 2106.26 -1.97652 -7.47304 0
M  V30 79333 C 2107.2 -3.01133 -7.08783 0
M  V30 79334 C 2106.47 -4.12613 -6.37049 0
M  V30 79335 O 2106.26 -3.72827 -4.97879 0
M  V30 79336 C 2105.07 -4.45085 -6.88694 0
M  V30 79337 O 2104.68 -5.7877 -6.5624 0
M  V30 79338 C 2104.19 -3.47817 -6.12078 0
M  V30 79339 C 2104.9 -3.39414 -4.77697 0
M  V30 79340 N 2104.85 -2.04199 -4.15538 0
M  V30 79341 C 2104.93 -0.821545 -4.76977 0
M  V30 79342 N 2104.86 0.1794 -3.94592 0
M  V30 79343 C 2104.71 -0.419121 -2.70776 0
M  V30 79344 C 2104.58 0.109072 -1.40577 0
M  V30 79345 N 2104.57 1.4104 -1.1344 0
M  V30 79346 N 2104.46 -0.764381 -0.39411 0
M  V30 79347 C 2104.47 -2.06587 -0.664135 0
M  V30 79348 N 2104.59 -2.67948 -1.82153 0
M  V30 79349 C 2104.71 -1.77942 -2.8147 0
M  V30 79350 H 2107.69 -3.41248 -7.98759 0
M  V30 79351 H 2107.96 -2.57728 -6.42 0
M  V30 79352 H 2107.09 -5.02657 -6.42673 0
M  V30 79353 H 2104.44 -4.11708 -4.08956 0
M  V30 79354 H 2104.16 -2.49626 -6.61679 0
M  V30 79355 H 2103.16 -3.8662 -6.00862 0
M  V30 79356 H 2105 -4.29991 -7.97006 0
M  V30 79357 H 2105.04 -0.702451 -5.84696 0
M  V30 79358 H 2104.66 2.09647 -1.89651 0
M  V30 79359 H 2104.47 1.73358 -0.160575 0
M  V30 79360 H 2104.36 -2.71695 0.195838 0
M  V30 79361 P 2103.13 -6.144 -6.45285 0
M  V30 79362 O 2102.91 -7.54673 -6.86199 0
M  V30 79363 O 2102.34 -5.12391 -7.179 0
M  V30 79364 O 2102.88 -5.99158 -4.88404 0
M  V30 79365 C 2103.82 -6.60234 -3.96415 0
M  V30 79366 C 2103.09 -7.08259 -2.72856 0
M  V30 79367 O 2102.88 -5.9427 -1.83651 0
M  V30 79368 C 2101.69 -7.64886 -2.9555 0
M  V30 79369 O 2101.3 -8.53963 -1.90717 0
M  V30 79370 C 2100.81 -6.4116 -2.90739 0
M  V30 79371 C 2101.52 -5.55375 -1.86963 0
M  V30 79372 N 2101.47 -4.09664 -2.15742 0
M  V30 79373 H 2104.31 -7.45574 -4.45629 0
M  V30 79374 H 2104.58 -5.86232 -3.67314 0
M  V30 79375 H 2103.71 -7.84412 -2.24479 0
M  V30 79376 P 2099.75 -8.7635 -1.60911 0
M  V30 79377 O 2099.53 -10.1388 -1.11561 0
M  V30 79378 O 2098.96 -8.36503 -2.79617 0
M  V30 79379 O 2099.5 -7.71806 -0.42951 0
M  V30 79380 C 2100.44 -7.67148 0.673689 0
M  V30 79381 C 2099.71 -7.33374 1.95559 0
M  V30 79382 O 2099.5 -5.88721 2.00726 0
M  V30 79383 C 2098.31 -7.92526 2.10483 0
M  V30 79384 O 2097.92 -8.02971 3.47653 0
M  V30 79385 C 2097.43 -6.89602 1.41652 0
M  V30 79386 C 2098.14 -5.59201 1.75185 0
M  V30 79387 N 2098.09 -4.58235 0.662552 0
M  V30 79388 H 2100.93 -8.65116 0.777161 0
M  V30 79389 H 2101.2 -6.90173 0.474152 0
M  V30 79390 H 2100.33 -7.66548 2.79458 0
M  V30 79391 P 2096.37 -8.03563 3.84925 0
M  V30 79392 O 2096.15 -8.85821 5.0569 0
M  V30 79393 O 2095.58 -8.41101 2.65469 0
M  V30 79394 O 2096.12 -6.4965 4.18908 0
M  V30 79395 C 2097.06 -5.81037 5.05421 0
M  V30 79396 C 2096.33 -4.78366 5.89277 0
M  V30 79397 O 2096.12 -3.58302 5.08433 0
M  V30 79398 C 2094.93 -5.17448 6.36119 0
M  V30 79399 O 2094.54 -4.45271 7.53232 0
M  V30 79400 C 2094.05 -4.74639 5.19936 0
M  V30 79401 C 2094.76 -3.49432 4.70418 0
M  V30 79402 N 2094.71 -3.31776 3.22945 0
M  V30 79403 H 2097.55 -6.54213 5.71376 0
M  V30 79404 H 2097.82 -5.30492 4.44033 0
M  V30 79405 H 2096.95 -4.55889 6.76652 0
M  V30 79406 P 2092.99 -4.23843 7.83734 0
M  V30 79407 O 2092.77 -4.19407 9.29784 0
M  V30 79408 O 2092.2 -5.24426 7.09156 0
M  V30 79409 O 2092.74 -2.7935 7.20758 0
M  V30 79410 C 2093.68 -1.7299 7.50419 0
M  V30 79411 C 2092.95 -0.406376 7.57911 0
M  V30 79412 O 2092.74 0.0897726 6.21935 0
M  V30 79413 C 2091.55 -0.447224 8.1878 0
M  V30 79414 O 2091.16 0.825065 8.71101 0
M  V30 79415 C 2090.67 -0.783801 6.99623 0
M  V30 79416 C 2091.38 -0.0619192 5.85967 0
M  V30 79417 N 2091.33 -0.7859 4.56281 0
M  V30 79418 H 2094.17 -1.93423 8.4679 0
M  V30 79419 H 2094.44 -1.68181 6.71046 0
M  V30 79420 H 2093.57 0.289041 8.15388 0
M  V30 79421 P 2089.61 1.17771 8.83182 0
M  V30 79422 O 2089.39 2.07206 9.98732 0
M  V30 79423 O 2088.82 -0.0743816 8.81969 0
M  V30 79424 O 2089.36 1.97652 7.47304 0
M  V30 79425 C 2090.3 3.01133 7.08783 0
M  V30 79426 C 2089.57 4.12613 6.37049 0
M  V30 79427 O 2089.36 3.72827 4.97879 0
M  V30 79428 C 2088.17 4.45085 6.88694 0
M  V30 79429 O 2087.78 5.7877 6.5624 0
M  V30 79430 C 2087.29 3.47817 6.12078 0
M  V30 79431 C 2088 3.39414 4.77697 0
M  V30 79432 N 2087.95 2.04199 4.15538 0
M  V30 79433 H 2090.79 3.41248 7.98759 0
M  V30 79434 H 2091.06 2.57728 6.42 0
M  V30 79435 H 2090.19 5.02657 6.42673 0
M  V30 79436 H 2087.54 4.11708 4.08956 0
M  V30 79437 H 2087.26 2.49626 6.61679 0
M  V30 79438 H 2086.26 3.8662 6.00862 0
M  V30 79439 H 2088.1 4.29991 7.97006 0
M  V30 79440 P 2086.23 6.144 6.45285 0
M  V30 79441 O 2086.01 7.54673 6.86199 0
M  V30 79442 O 2085.44 5.12391 7.179 0
M  V30 79443 O 2085.98 5.99158 4.88404 0
M  V30 79444 C 2086.92 6.60234 3.96415 0
M  V30 79445 C 2086.19 7.08259 2.72856 0
M  V30 79446 O 2085.98 5.9427 1.83651 0
M  V30 79447 C 2084.79 7.64886 2.9555 0
M  V30 79448 O 2084.4 8.53963 1.90717 0
M  V30 79449 C 2083.91 6.4116 2.90739 0
M  V30 79450 C 2084.62 5.55375 1.86963 0
M  V30 79451 N 2084.57 4.09664 2.15742 0
M  V30 79452 H 2087.41 7.45574 4.45629 0
M  V30 79453 H 2087.68 5.86232 3.67314 0
M  V30 79454 H 2086.81 7.84412 2.24479 0
M  V30 79455 P 2082.85 8.7635 1.60911 0
M  V30 79456 O 2082.63 10.1388 1.11561 0
M  V30 79457 O 2082.06 8.36503 2.79617 0
M  V30 79458 O 2082.6 7.71806 0.42951 0
M  V30 79459 C 2083.54 7.67148 -0.673689 0
M  V30 79460 C 2082.81 7.33374 -1.95559 0
M  V30 79461 O 2082.6 5.88721 -2.00726 0
M  V30 79462 C 2081.41 7.92526 -2.10483 0
M  V30 79463 O 2081.02 8.02971 -3.47653 0
M  V30 79464 C 2080.53 6.89602 -1.41652 0
M  V30 79465 C 2081.24 5.59201 -1.75185 0
M  V30 79466 N 2081.19 4.58301 -0.657969 0
M  V30 79467 C 2081.27 4.79019 0.692603 0
M  V30 79468 N 2081.2 3.69736 1.38998 0
M  V30 79469 C 2081.05 2.70474 0.438135 0
M  V30 79470 C 2080.92 1.30327 0.538142 0
M  V30 79471 N 2080.91 0.64304 1.69192 0
M  V30 79472 N 2080.8 0.611027 -0.605183 0
M  V30 79473 C 2080.81 1.27002 -1.75953 0
M  V30 79474 N 2080.93 2.56038 -1.98546 0
M  V30 79475 C 2081.05 3.22681 -0.822541 0
M  V30 79476 H 2084.03 8.65116 -0.777161 0
M  V30 79477 H 2084.3 6.9022 -0.46725 0
M  V30 79478 H 2083.43 7.66548 -2.79458 0
M  V30 79479 H 2080.78 5.16165 -2.65183 0
M  V30 79480 H 2080.5 7.06433 -0.329384 0
M  V30 79481 H 2079.5 6.90926 -1.82021 0
M  V30 79482 H 2081.34 8.90873 -1.62657 0
M  V30 79483 H 2081.38 5.77785 1.13874 0
M  V30 79484 H 2081 1.15585 2.57991 0
M  V30 79485 H 2080.81 -0.382989 1.69835 0
M  V30 79486 H 2080.7 0.653331 -2.64449 0
M  V30 79487 P 2079.47 8.03563 -3.84925 0
M  V30 79488 O 2079.25 8.85821 -5.0569 0
M  V30 79489 O 2078.68 8.41101 -2.65469 0
M  V30 79490 O 2079.22 6.4965 -4.18908 0
M  V30 79491 C 2080.16 5.81037 -5.05421 0
M  V30 79492 C 2079.43 4.78366 -5.89277 0
M  V30 79493 O 2079.22 3.58302 -5.08433 0
M  V30 79494 C 2078.03 5.17448 -6.36119 0
M  V30 79495 O 2077.64 4.45271 -7.53232 0
M  V30 79496 C 2077.15 4.74639 -5.19936 0
M  V30 79497 C 2077.86 3.49432 -4.70418 0
M  V30 79498 N 2077.81 3.32099 -3.22613 0
M  V30 79499 H 2080.65 6.54213 -5.71376 0
M  V30 79500 H 2080.92 5.30936 -4.43503 0
M  V30 79501 H 2080.05 4.55889 -6.76652 0
M  V30 79502 H 2077.4 2.61715 -5.17932 0
M  V30 79503 H 2077.12 5.52155 -4.41878 0
M  V30 79504 H 2076.12 4.51981 -5.53374 0
M  V30 79505 H 2077.96 6.25124 -6.55234 0
M  V30 79506 P 2076.09 4.23843 -7.83734 0
M  V30 79507 O 2075.87 4.19407 -9.29784 0
M  V30 79508 O 2075.3 5.24426 -7.09156 0
M  V30 79509 O 2075.84 2.7935 -7.20758 0
M  V30 79510 C 2076.78 1.7299 -7.50419 0
M  V30 79511 C 2076.05 0.406376 -7.57911 0
M  V30 79512 O 2075.84 -0.0897726 -6.21935 0
M  V30 79513 C 2074.65 0.447224 -8.1878 0
M  V30 79514 O 2074.26 -0.825065 -8.71101 0
M  V30 79515 C 2073.77 0.783801 -6.99623 0
M  V30 79516 C 2074.48 0.0619192 -5.85967 0
M  V30 79517 N 2074.43 0.7859 -4.56281 0
M  V30 79518 H 2077.27 1.93423 -8.4679 0
M  V30 79519 H 2077.54 1.68181 -6.71046 0
M  V30 79520 H 2076.67 -0.289041 -8.15388 0
M  V30 79521 P 2072.71 -1.17771 -8.83182 0
M  V30 79522 O 2072.49 -2.07206 -9.98732 0
M  V30 79523 O 2071.92 0.0743816 -8.81969 0
M  V30 79524 O 2072.46 -1.97652 -7.47304 0
M  V30 79525 C 2073.4 -3.01133 -7.08783 0
M  V30 79526 C 2072.67 -4.12613 -6.37049 0
M  V30 79527 O 2072.46 -3.72827 -4.97879 0
M  V30 79528 C 2071.27 -4.45085 -6.88694 0
M  V30 79529 O 2070.88 -5.7877 -6.5624 0
M  V30 79530 C 2070.39 -3.47817 -6.12078 0
M  V30 79531 C 2071.1 -3.39414 -4.77697 0
M  V30 79532 N 2071.05 -2.04199 -4.15538 0
M  V30 79533 H 2073.89 -3.41248 -7.98759 0
M  V30 79534 H 2074.16 -2.57728 -6.42 0
M  V30 79535 H 2073.29 -5.02657 -6.42673 0
M  V30 79536 H 2070.64 -4.11708 -4.08956 0
M  V30 79537 H 2070.36 -2.49626 -6.61679 0
M  V30 79538 H 2069.36 -3.8662 -6.00862 0
M  V30 79539 H 2071.2 -4.29991 -7.97006 0
M  V30 79540 P 2069.33 -6.144 -6.45285 0
M  V30 79541 O 2069.11 -7.54673 -6.86199 0
M  V30 79542 O 2068.54 -5.12391 -7.179 0
M  V30 79543 O 2069.08 -5.99158 -4.88404 0
M  V30 79544 C 2070.02 -6.60234 -3.96415 0
M  V30 79545 C 2069.29 -7.08259 -2.72856 0
M  V30 79546 O 2069.08 -5.9427 -1.83651 0
M  V30 79547 C 2067.89 -7.64886 -2.9555 0
M  V30 79548 O 2067.5 -8.53963 -1.90717 0
M  V30 79549 C 2067.01 -6.4116 -2.90739 0
M  V30 79550 C 2067.72 -5.55375 -1.86963 0
M  V30 79551 N 2067.67 -4.09664 -2.15742 0
M  V30 79552 H 2070.51 -7.45574 -4.45629 0
M  V30 79553 H 2070.78 -5.86232 -3.67314 0
M  V30 79554 H 2069.91 -7.84412 -2.24479 0
M  V30 79555 P 2065.95 -8.7635 -1.60911 0
M  V30 79556 O 2065.73 -10.1388 -1.11561 0
M  V30 79557 O 2065.16 -8.36503 -2.79617 0
M  V30 79558 O 2065.7 -7.71806 -0.42951 0
M  V30 79559 C 2066.64 -7.67148 0.673689 0
M  V30 79560 C 2065.91 -7.33374 1.95559 0
M  V30 79561 O 2065.7 -5.88721 2.00726 0
M  V30 79562 C 2064.51 -7.92526 2.10483 0
M  V30 79563 O 2064.12 -8.02971 3.47653 0
M  V30 79564 C 2063.63 -6.89602 1.41652 0
M  V30 79565 C 2064.34 -5.59201 1.75185 0
M  V30 79566 N 2064.29 -4.58235 0.662552 0
M  V30 79567 H 2067.13 -8.65116 0.777161 0
M  V30 79568 H 2067.4 -6.90173 0.474152 0
M  V30 79569 H 2066.53 -7.66548 2.79458 0
M  V30 79570 P 2062.57 -8.03563 3.84925 0
M  V30 79571 O 2062.35 -8.85821 5.0569 0
M  V30 79572 O 2061.78 -8.41101 2.65469 0
M  V30 79573 O 2062.32 -6.4965 4.18908 0
M  V30 79574 C 2063.26 -5.81037 5.05421 0
M  V30 79575 C 2062.53 -4.78366 5.89277 0
M  V30 79576 O 2062.32 -3.58302 5.08433 0
M  V30 79577 C 2061.13 -5.17448 6.36119 0
M  V30 79578 O 2060.74 -4.45271 7.53232 0
M  V30 79579 C 2060.25 -4.74639 5.19936 0
M  V30 79580 C 2060.96 -3.49432 4.70418 0
M  V30 79581 N 2060.91 -3.31776 3.22945 0
M  V30 79582 C 2060.99 -4.27147 2.23315 0
M  V30 79583 N 2060.91 -3.78447 1.02186 0
M  V30 79584 C 2060.77 -2.41001 1.21732 0
M  V30 79585 C 2060.64 -1.36111 0.27694 0
M  V30 79586 N 2060.52 -0.113683 0.912949 0
M  V30 79587 C 2060.52 0.0846396 2.27943 0
M  V30 79588 N 2060.39 1.34737 2.6916 0
M  V30 79589 N 2060.65 -0.902521 3.16379 0
M  V30 79590 C 2060.77 -2.11937 2.56849 0
M  V30 79591 H 2063.75 -6.54213 5.71376 0
M  V30 79592 H 2064.02 -5.30492 4.44033 0
M  V30 79593 H 2063.15 -4.55889 6.76652 0
M  V30 79594 P 2059.19 -4.23843 7.83734 0
M  V30 79595 O 2058.97 -4.19407 9.29784 0
M  V30 79596 O 2058.4 -5.24426 7.09156 0
M  V30 79597 O 2058.94 -2.7935 7.20758 0
M  V30 79598 C 2059.88 -1.7299 7.50419 0
M  V30 79599 C 2059.15 -0.406376 7.57911 0
M  V30 79600 O 2058.94 0.0897726 6.21935 0
M  V30 79601 C 2057.75 -0.447224 8.1878 0
M  V30 79602 O 2057.36 0.825065 8.71101 0
M  V30 79603 C 2056.87 -0.783801 6.99623 0
M  V30 79604 C 2057.58 -0.0619192 5.85967 0
M  V30 79605 N 2057.53 -0.790462 4.56202 0
M  V30 79606 C 2057.61 -2.13895 4.34171 0
M  V30 79607 N 2057.54 -2.46449 3.08687 0
M  V30 79608 C 2057.39 -1.2525 2.43697 0
M  V30 79609 C 2057.26 -0.914535 1.07318 0
M  V30 79610 N 2057.25 -1.80782 0.0887348 0
M  V30 79611 N 2057.14 0.386745 0.768133 0
M  V30 79612 C 2057.15 1.28096 1.75159 0
M  V30 79613 N 2057.27 1.09708 3.04861 0
M  V30 79614 C 2057.39 -0.214857 3.32306 0
M  V30 79615 H 2060.37 -1.93423 8.4679 0
M  V30 79616 H 2060.64 -1.68852 6.70877 0
M  V30 79617 H 2059.77 0.289041 8.15388 0
M  V30 79618 H 2057.12 0.927006 5.72848 0
M  V30 79619 H 2056.84 -1.86973 6.82036 0
M  V30 79620 H 2055.84 -0.403953 7.13357 0
M  V30 79621 H 2057.68 -1.20599 8.97534 0
M  V30 79622 H 2057.72 -2.86846 5.14318 0
M  V30 79623 H 2057.34 -2.81082 0.302037 0
M  V30 79624 H 2057.15 -1.49688 -0.889064 0
M  V30 79625 H 2057.04 2.31317 1.43855 0
M  V30 79626 P 2055.81 1.17771 8.83182 0
M  V30 79627 O 2055.59 2.07206 9.98732 0
M  V30 79628 O 2055.02 -0.0743816 8.81969 0
M  V30 79629 O 2055.56 1.97652 7.47304 0
M  V30 79630 C 2056.5 3.01133 7.08783 0
M  V30 79631 C 2055.77 4.12613 6.37049 0
M  V30 79632 O 2055.56 3.72827 4.97879 0
M  V30 79633 C 2054.37 4.45085 6.88694 0
M  V30 79634 O 2053.98 5.7877 6.5624 0
M  V30 79635 C 2053.49 3.47817 6.12078 0
M  V30 79636 C 2054.2 3.39414 4.77697 0
M  V30 79637 N 2054.15 2.04615 4.15333 0
M  V30 79638 H 2056.99 3.41248 7.98759 0
M  V30 79639 H 2057.26 2.5837 6.41742 0
M  V30 79640 H 2056.39 5.02657 6.42673 0
M  V30 79641 P 2052.43 6.144 6.45285 0
M  V30 79642 O 2052.21 7.54673 6.86199 0
M  V30 79643 O 2051.64 5.12391 7.179 0
M  V30 79644 O 2052.18 5.99158 4.88404 0
M  V30 79645 C 2053.12 6.60234 3.96415 0
M  V30 79646 C 2052.39 7.08259 2.72856 0
M  V30 79647 O 2052.18 5.9427 1.83651 0
M  V30 79648 C 2050.99 7.64886 2.9555 0
M  V30 79649 O 2050.6 8.53963 1.90717 0
M  V30 79650 C 2050.11 6.4116 2.90739 0
M  V30 79651 C 2050.82 5.55375 1.86963 0
M  V30 79652 N 2050.77 4.09664 2.15742 0
M  V30 79653 H 2053.61 7.45574 4.45629 0
M  V30 79654 H 2053.88 5.86232 3.67314 0
M  V30 79655 H 2053.01 7.84412 2.24479 0
M  V30 79656 P 2049.05 8.7635 1.60911 0
M  V30 79657 O 2048.83 10.1388 1.11561 0
M  V30 79658 O 2048.26 8.36503 2.79617 0
M  V30 79659 O 2048.8 7.71806 0.42951 0
M  V30 79660 C 2049.74 7.67148 -0.673689 0
M  V30 79661 C 2049.01 7.33374 -1.95559 0
M  V30 79662 O 2048.8 5.88721 -2.00726 0
M  V30 79663 C 2047.61 7.92526 -2.10483 0
M  V30 79664 O 2047.22 8.02971 -3.47653 0
M  V30 79665 C 2046.73 6.89602 -1.41652 0
M  V30 79666 C 2047.44 5.59201 -1.75185 0
M  V30 79667 N 2047.39 4.58235 -0.662552 0
M  V30 79668 H 2050.23 8.65116 -0.777161 0
M  V30 79669 H 2050.5 6.90173 -0.474152 0
M  V30 79670 H 2049.63 7.66548 -2.79458 0
M  V30 79671 P 2045.67 8.03563 -3.84925 0
M  V30 79672 O 2045.45 8.85821 -5.0569 0
M  V30 79673 O 2044.88 8.41101 -2.65469 0
M  V30 79674 O 2045.42 6.4965 -4.18908 0
M  V30 79675 C 2046.36 5.81037 -5.05421 0
M  V30 79676 C 2045.63 4.78366 -5.89277 0
M  V30 79677 O 2045.42 3.58302 -5.08433 0
M  V30 79678 C 2044.23 5.17448 -6.36119 0
M  V30 79679 O 2043.84 4.45271 -7.53232 0
M  V30 79680 C 2043.35 4.74639 -5.19936 0
M  V30 79681 C 2044.06 3.49432 -4.70418 0
M  V30 79682 N 2044.01 3.31776 -3.22945 0
M  V30 79683 H 2046.85 6.54213 -5.71376 0
M  V30 79684 H 2047.12 5.30492 -4.44033 0
M  V30 79685 H 2046.25 4.55889 -6.76652 0
M  V30 79686 P 2042.29 4.23843 -7.83734 0
M  V30 79687 O 2042.07 4.19407 -9.29784 0
M  V30 79688 O 2041.5 5.24426 -7.09156 0
M  V30 79689 O 2042.04 2.7935 -7.20758 0
M  V30 79690 C 2042.98 1.72945 -7.50224 0
M  V30 79691 C 2042.25 0.406376 -7.57911 0
M  V30 79692 O 2042.04 -0.0897726 -6.21935 0
M  V30 79693 C 2040.85 0.438983 -8.18724 0
M  V30 79694 O 2040.46 -0.825065 -8.71101 0
M  V30 79695 C 2039.97 0.783689 -6.99524 0
M  V30 79696 C 2040.68 0.0619086 -5.85867 0
M  V30 79697 N 2040.63 0.78573 -4.56183 0
M  V30 79698 C 2040.48 0.0292889 -3.41887 0
M  V30 79699 O 2040.39 -1.18445 -3.4419 0
M  V30 79700 N 2040.44 0.744061 -2.23964 0
M  V30 79701 C 2040.53 2.10932 -2.10362 0
M  V30 79702 O 2040.48 2.64117 -0.98825 0
M  V30 79703 C 2040.68 2.8202 -3.34994 0
M  V30 79704 C 2040.79 4.31095 -3.25037 0
M  V30 79705 C 2040.73 2.15547 -4.52261 0
M  V30 79706 H 2043.47 1.93379 -8.46595 0
M  V30 79707 H 2043.74 1.68132 -6.70852 0
M  V30 79708 H 2042.87 -0.289041 -8.15388 0
M  V30 79709 H 2040.22 -0.926847 -5.72749 0
M  V30 79710 H 2039.94 1.86973 -6.82036 0
M  V30 79711 H 2038.94 0.403896 -7.13257 0
M  V30 79712 H 2040.78 1.20585 -8.97435 0
M  V30 79713 H 2040.85 2.71231 -5.45042 0
M  V30 79714 H 2039.82 4.76966 -3.49992 0
M  V30 79715 H 2041.56 4.67047 -3.95024 0
M  V30 79716 H 2041.07 4.58996 -2.22312 0
M  V30 79717 H 2040.33 0.214893 -1.39758 0
M  V30 79718 P 2038.91 -1.17771 -8.83182 0
M  V30 79719 O 2038.69 -2.07206 -9.98732 0
M  V30 79720 O 2038.12 0.0743816 -8.81969 0
M  V30 79721 O 2038.66 -1.97652 -7.47304 0
M  V30 79722 C 2039.6 -3.01133 -7.08783 0
M  V30 79723 C 2038.87 -4.12613 -6.37049 0
M  V30 79724 O 2038.66 -3.72827 -4.97879 0
M  V30 79725 C 2037.47 -4.45085 -6.88694 0
M  V30 79726 O 2037.08 -5.7877 -6.5624 0
M  V30 79727 C 2036.59 -3.47817 -6.12078 0
M  V30 79728 C 2037.3 -3.39414 -4.77697 0
M  V30 79729 N 2037.25 -2.04199 -4.15538 0
M  V30 79730 H 2040.09 -3.41248 -7.98759 0
M  V30 79731 H 2040.36 -2.57728 -6.42 0
M  V30 79732 H 2039.49 -5.02657 -6.42673 0
M  V30 79733 H 2036.84 -4.11708 -4.08956 0
M  V30 79734 H 2036.56 -2.49626 -6.61679 0
M  V30 79735 H 2035.56 -3.8662 -6.00862 0
M  V30 79736 H 2037.4 -4.29991 -7.97006 0
M  V30 79737 P 2035.53 -6.144 -6.45285 0
M  V30 79738 O 2035.31 -7.54673 -6.86199 0
M  V30 79739 O 2034.74 -5.12391 -7.179 0
M  V30 79740 O 2035.28 -5.99158 -4.88404 0
M  V30 79741 C 2036.22 -6.60234 -3.96415 0
M  V30 79742 C 2035.49 -7.08259 -2.72856 0
M  V30 79743 O 2035.28 -5.9427 -1.83651 0
M  V30 79744 C 2034.09 -7.64886 -2.9555 0
M  V30 79745 O 2033.7 -8.53963 -1.90717 0
M  V30 79746 C 2033.21 -6.4116 -2.90739 0
M  V30 79747 C 2033.92 -5.55375 -1.86963 0
M  V30 79748 N 2033.87 -4.09664 -2.15742 0
M  V30 79749 H 2036.71 -7.45574 -4.45629 0
M  V30 79750 H 2036.98 -5.86232 -3.67314 0
M  V30 79751 H 2036.11 -7.84412 -2.24479 0
M  V30 79752 P 2032.15 -8.7635 -1.60911 0
M  V30 79753 O 2031.93 -10.1388 -1.11561 0
M  V30 79754 O 2031.36 -8.36503 -2.79617 0
M  V30 79755 O 2031.9 -7.71906 -0.429565 0
M  V30 79756 C 2032.84 -7.67148 0.673689 0
M  V30 79757 C 2032.11 -7.33666 1.94851 0
M  V30 79758 O 2031.9 -5.88816 2.00759 0
M  V30 79759 C 2030.71 -7.92526 2.10483 0
M  V30 79760 O 2030.32 -8.03063 3.47693 0
M  V30 79761 C 2029.83 -6.89602 1.41652 0
M  V30 79762 C 2030.54 -5.59201 1.75185 0
M  V30 79763 N 2030.49 -4.58235 0.662552 0
M  V30 79764 C 2030.34 -3.24451 1.01643 0
M  V30 79765 O 2030.25 -2.94958 2.21722 0
M  V30 79766 N 2030.29 -2.30408 -0.165238 0
M  V30 79767 C 2030.39 -2.66048 -1.25118 0
M  V30 79768 N 2030.34 -1.70787 -2.16813 0
M  V30 79769 C 2030.54 -4.02732 -1.64413 0
M  V30 79770 C 2030.59 -4.9488 -0.63991 0
M  V30 79771 H 2033.33 -8.65017 0.777072 0
M  V30 79772 H 2033.6 -6.90173 0.474152 0
M  V30 79773 H 2032.73 -7.66642 2.79492 0
M  V30 79774 H 2030.08 -5.16254 2.65229 0
M  V30 79775 H 2029.8 -7.06532 0.329431 0
M  V30 79776 H 2028.8 -6.91023 1.82047 0
M  V30 79777 H 2030.64 -8.90873 1.62657 0
M  V30 79778 H 2030.71 -6.00104 -0.892197 0
M  V30 79779 H 2030.61 -4.31733 -2.69229 0
M  V30 79780 H 2030.22 -0.724835 -1.8844 0
M  V30 79781 H 2030.42 -1.94716 -3.16734 0
M  V30 79782 P 2028.77 -8.03563 3.84925 0
M  V30 79783 O 2028.55 -8.85821 5.0569 0
M  V30 79784 O 2027.98 -8.41101 2.65469 0
M  V30 79785 O 2028.52 -6.4965 4.18908 0
M  V30 79786 C 2029.46 -5.81037 5.05421 0
M  V30 79787 C 2028.73 -4.78366 5.89277 0
M  V30 79788 O 2028.52 -3.58302 5.08433 0
M  V30 79789 C 2027.33 -5.17448 6.36119 0
M  V30 79790 O 2026.94 -4.45271 7.53232 0
M  V30 79791 C 2026.45 -4.74639 5.19936 0
M  V30 79792 C 2027.16 -3.49432 4.70418 0
M  V30 79793 N 2027.11 -3.31776 3.22945 0
M  V30 79794 H 2029.95 -6.54213 5.71376 0
M  V30 79795 H 2030.22 -5.30492 4.44033 0
M  V30 79796 H 2029.35 -4.55889 6.76652 0
M  V30 79797 P 2025.39 -4.23843 7.83734 0
M  V30 79798 O 2025.17 -4.19407 9.29784 0
M  V30 79799 O 2024.6 -5.24426 7.09156 0
M  V30 79800 O 2025.14 -2.7935 7.20758 0
M  V30 79801 C 2026.08 -1.7299 7.50419 0
M  V30 79802 C 2025.35 -0.406376 7.57911 0
M  V30 79803 O 2025.14 0.0897726 6.21935 0
M  V30 79804 C 2023.95 -0.447224 8.1878 0
M  V30 79805 O 2023.56 0.825065 8.71101 0
M  V30 79806 C 2023.07 -0.783801 6.99623 0
M  V30 79807 C 2023.78 -0.0619192 5.85967 0
M  V30 79808 N 2023.73 -0.7859 4.56281 0
M  V30 79809 H 2026.57 -1.93423 8.4679 0
M  V30 79810 H 2026.84 -1.68181 6.71046 0
M  V30 79811 H 2025.97 0.289041 8.15388 0
M  V30 79812 P 2022.01 1.17771 8.83182 0
M  V30 79813 O 2021.79 2.07206 9.98732 0
M  V30 79814 O 2021.22 -0.0743816 8.81969 0
M  V30 79815 O 2021.76 1.97652 7.47304 0
M  V30 79816 C 2022.7 3.01133 7.08783 0
M  V30 79817 C 2021.97 4.12613 6.37049 0
M  V30 79818 O 2021.76 3.72827 4.97879 0
M  V30 79819 C 2020.57 4.45085 6.88694 0
M  V30 79820 O 2020.18 5.7877 6.5624 0
M  V30 79821 C 2019.69 3.47817 6.12078 0
M  V30 79822 C 2020.4 3.39414 4.77697 0
M  V30 79823 N 2020.35 2.04615 4.15333 0
M  V30 79824 H 2023.19 3.41248 7.98759 0
M  V30 79825 H 2023.46 2.5837 6.41742 0
M  V30 79826 H 2022.59 5.02657 6.42673 0
M  V30 79827 P 2018.63 6.144 6.45285 0
M  V30 79828 O 2018.41 7.54673 6.86199 0
M  V30 79829 O 2017.84 5.12391 7.179 0
M  V30 79830 O 2018.38 5.99158 4.88404 0
M  V30 79831 C 2019.32 6.60234 3.96415 0
M  V30 79832 C 2018.59 7.08259 2.72856 0
M  V30 79833 O 2018.38 5.9427 1.83651 0
M  V30 79834 C 2017.19 7.64886 2.9555 0
M  V30 79835 O 2016.8 8.53963 1.90717 0
M  V30 79836 C 2016.31 6.4116 2.90739 0
M  V30 79837 C 2017.02 5.55375 1.86963 0
M  V30 79838 N 2016.97 4.09664 2.15742 0
M  V30 79839 H 2019.81 7.45574 4.45629 0
M  V30 79840 H 2020.08 5.86232 3.67314 0
M  V30 79841 H 2019.21 7.84412 2.24479 0
M  V30 79842 P 2015.25 8.7635 1.60911 0
M  V30 79843 O 2015.03 10.1388 1.11561 0
M  V30 79844 O 2014.46 8.36503 2.79617 0
M  V30 79845 O 2015 7.71806 0.42951 0
M  V30 79846 C 2015.94 7.67148 -0.673689 0
M  V30 79847 C 2015.21 7.33374 -1.95559 0
M  V30 79848 O 2015 5.88721 -2.00726 0
M  V30 79849 C 2013.81 7.92526 -2.10483 0
M  V30 79850 O 2013.42 8.02971 -3.47653 0
M  V30 79851 C 2012.93 6.89602 -1.41652 0
M  V30 79852 C 2013.64 5.59201 -1.75185 0
M  V30 79853 N 2013.59 4.58235 -0.662552 0
M  V30 79854 H 2016.43 8.65116 -0.777161 0
M  V30 79855 H 2016.7 6.90173 -0.474152 0
M  V30 79856 H 2015.83 7.66548 -2.79458 0
M  V30 79857 P 2011.87 8.03563 -3.84925 0
M  V30 79858 O 2011.65 8.85821 -5.0569 0
M  V30 79859 O 2011.08 8.41101 -2.65469 0
M  V30 79860 O 2011.62 6.4965 -4.18908 0
M  V30 79861 C 2012.56 5.81037 -5.05421 0
M  V30 79862 C 2011.83 4.78366 -5.89277 0
M  V30 79863 O 2011.62 3.58302 -5.08433 0
M  V30 79864 C 2010.43 5.17448 -6.36119 0
M  V30 79865 O 2010.04 4.45271 -7.53232 0
M  V30 79866 C 2009.55 4.74639 -5.19936 0
M  V30 79867 C 2010.26 3.49432 -4.70418 0
M  V30 79868 N 2010.21 3.31776 -3.22945 0
M  V30 79869 H 2013.05 6.54213 -5.71376 0
M  V30 79870 H 2013.32 5.30492 -4.44033 0
M  V30 79871 H 2012.45 4.55889 -6.76652 0
M  V30 79872 P 2008.49 4.23843 -7.83734 0
M  V30 79873 O 2008.27 4.19407 -9.29784 0
M  V30 79874 O 2007.7 5.24426 -7.09156 0
M  V30 79875 O 2008.24 2.7935 -7.20758 0
M  V30 79876 C 2009.18 1.7299 -7.50419 0
M  V30 79877 C 2008.45 0.406376 -7.57911 0
M  V30 79878 O 2008.24 -0.0897726 -6.21935 0
M  V30 79879 C 2007.05 0.447224 -8.1878 0
M  V30 79880 O 2006.66 -0.825065 -8.71101 0
M  V30 79881 C 2006.17 0.783801 -6.99623 0
M  V30 79882 C 2006.88 0.0619192 -5.85967 0
M  V30 79883 N 2006.83 0.7859 -4.56281 0
M  V30 79884 H 2009.67 1.93423 -8.4679 0
M  V30 79885 H 2009.94 1.68181 -6.71046 0
M  V30 79886 H 2009.07 -0.289041 -8.15388 0
M  V30 79887 P 2005.11 -1.17771 -8.83182 0
M  V30 79888 O 2004.89 -2.07206 -9.98732 0
M  V30 79889 O 2004.32 0.0743816 -8.81969 0
M  V30 79890 O 2004.86 -1.97652 -7.47304 0
M  V30 79891 C 2005.8 -3.01133 -7.08783 0
M  V30 79892 C 2005.07 -4.12613 -6.37049 0
M  V30 79893 O 2004.86 -3.72827 -4.97879 0
M  V30 79894 C 2003.67 -4.45085 -6.88694 0
M  V30 79895 O 2003.28 -5.7877 -6.5624 0
M  V30 79896 C 2002.79 -3.47817 -6.12078 0
M  V30 79897 C 2003.5 -3.39414 -4.77697 0
M  V30 79898 N 2003.45 -2.04199 -4.15538 0
M  V30 79899 H 2006.29 -3.41248 -7.98759 0
M  V30 79900 H 2006.56 -2.57728 -6.42 0
M  V30 79901 H 2005.69 -5.02657 -6.42673 0
M  V30 79902 H 2003.04 -4.11708 -4.08956 0
M  V30 79903 H 2002.76 -2.49626 -6.61679 0
M  V30 79904 H 2001.77 -3.8662 -6.00862 0
M  V30 79905 H 2003.6 -4.29991 -7.97006 0
M  V30 79906 P 2001.73 -6.144 -6.45285 0
M  V30 79907 O 2001.51 -7.54673 -6.86199 0
M  V30 79908 O 2000.94 -5.12391 -7.179 0
M  V30 79909 O 2001.48 -5.99158 -4.88404 0
M  V30 79910 C 2002.42 -6.60234 -3.96415 0
M  V30 79911 C 2001.69 -7.08259 -2.72856 0
M  V30 79912 O 2001.48 -5.9427 -1.83651 0
M  V30 79913 C 2000.29 -7.64886 -2.9555 0
M  V30 79914 O 1999.9 -8.53963 -1.90717 0
M  V30 79915 C 1999.41 -6.4116 -2.90739 0
M  V30 79916 C 2000.12 -5.55375 -1.86963 0
M  V30 79917 N 2000.07 -4.09448 -2.16152 0
M  V30 79918 H 2002.91 -7.45574 -4.45629 0
M  V30 79919 H 2003.18 -5.85864 -3.679 0
M  V30 79920 H 2002.31 -7.84412 -2.24479 0
M  V30 79921 H 1999.66 -5.73457 -0.888562 0
M  V30 79922 H 1999.38 -5.90877 -3.88583 0
M  V30 79923 H 1998.39 -6.6596 -2.58858 0
M  V30 79924 H 2000.22 -8.16339 -3.92049 0
M  V30 79925 P 1998.35 -8.7635 -1.60911 0
M  V30 79926 O 1998.13 -10.1388 -1.11561 0
M  V30 79927 O 1997.56 -8.36503 -2.79617 0
M  V30 79928 O 1998.1 -7.71806 -0.42951 0
M  V30 79929 C 1999.04 -7.67148 0.673689 0
M  V30 79930 C 1998.31 -7.33374 1.95559 0
M  V30 79931 O 1998.1 -5.88721 2.00726 0
M  V30 79932 C 1996.91 -7.92526 2.10483 0
M  V30 79933 O 1996.52 -8.02971 3.47653 0
M  V30 79934 C 1996.03 -6.89602 1.41652 0
M  V30 79935 C 1996.74 -5.59201 1.75185 0
M  V30 79936 N 1996.69 -4.58235 0.662552 0
M  V30 79937 H 1999.53 -8.65116 0.777161 0
M  V30 79938 H 1999.8 -6.90173 0.474152 0
M  V30 79939 H 1998.93 -7.66548 2.79458 0
M  V30 79940 P 1994.97 -8.03563 3.84925 0
M  V30 79941 O 1994.75 -8.85821 5.0569 0
M  V30 79942 O 1994.18 -8.41101 2.65469 0
M  V30 79943 O 1994.72 -6.4965 4.18908 0
M  V30 79944 C 1995.66 -5.81037 5.05421 0
M  V30 79945 C 1994.93 -4.78366 5.89277 0
M  V30 79946 O 1994.72 -3.58302 5.08433 0
M  V30 79947 C 1993.53 -5.17448 6.36119 0
M  V30 79948 O 1993.14 -4.45271 7.53232 0
M  V30 79949 C 1992.65 -4.74639 5.19936 0
M  V30 79950 C 1993.36 -3.49432 4.70418 0
M  V30 79951 N 1993.31 -3.31776 3.22945 0
M  V30 79952 H 1996.15 -6.54213 5.71376 0
M  V30 79953 H 1996.42 -5.30492 4.44033 0
M  V30 79954 H 1995.55 -4.55889 6.76652 0
M  V30 79955 P 1991.59 -4.23843 7.83734 0
M  V30 79956 O 1991.37 -4.19407 9.29784 0
M  V30 79957 O 1990.8 -5.24426 7.09156 0
M  V30 79958 O 1991.34 -2.7935 7.20758 0
M  V30 79959 C 1992.28 -1.7299 7.50419 0
M  V30 79960 C 1991.55 -0.406376 7.57911 0
M  V30 79961 O 1991.34 0.0897726 6.21935 0
M  V30 79962 C 1990.15 -0.447224 8.1878 0
M  V30 79963 O 1989.76 0.825065 8.71101 0
M  V30 79964 C 1989.27 -0.783801 6.99623 0
M  V30 79965 C 1989.98 -0.0619192 5.85967 0
M  V30 79966 N 1989.93 -0.7859 4.56281 0
M  V30 79967 H 1992.77 -1.93423 8.4679 0
M  V30 79968 H 1993.04 -1.68181 6.71046 0
M  V30 79969 H 1992.17 0.289041 8.15388 0
M  V30 79970 P 1988.21 1.17771 8.83182 0
M  V30 79971 O 1987.99 2.07206 9.98732 0
M  V30 79972 O 1987.42 -0.0743816 8.81969 0
M  V30 79973 O 1987.96 1.97652 7.47304 0
M  V30 79974 C 1988.9 3.01133 7.08783 0
M  V30 79975 C 1988.17 4.12613 6.37049 0
M  V30 79976 O 1987.96 3.72827 4.97879 0
M  V30 79977 C 1986.77 4.45085 6.88694 0
M  V30 79978 O 1986.38 5.7877 6.5624 0
M  V30 79979 C 1985.89 3.47817 6.12078 0
M  V30 79980 C 1986.6 3.39414 4.77697 0
M  V30 79981 N 1986.55 2.04615 4.15333 0
M  V30 79982 H 1989.39 3.41248 7.98759 0
M  V30 79983 H 1989.66 2.5837 6.41742 0
M  V30 79984 H 1988.79 5.02657 6.42673 0
M  V30 79985 P 1984.83 6.144 6.45285 0
M  V30 79986 O 1984.61 7.54673 6.86199 0
M  V30 79987 O 1984.04 5.12391 7.179 0
M  V30 79988 O 1984.58 5.99158 4.88404 0
M  V30 79989 C 1985.52 6.60234 3.96415 0
M  V30 79990 C 1984.79 7.08259 2.72856 0
M  V30 79991 O 1984.58 5.9427 1.83651 0
M  V30 79992 C 1983.39 7.64886 2.9555 0
M  V30 79993 O 1983 8.53963 1.90717 0
M  V30 79994 C 1982.51 6.4116 2.90739 0
M  V30 79995 C 1983.22 5.55375 1.86963 0
M  V30 79996 N 1983.17 4.09664 2.15742 0
M  V30 79997 H 1986.01 7.45574 4.45629 0
M  V30 79998 H 1986.28 5.86232 3.67314 0
M  V30 79999 H 1985.41 7.84412 2.24479 0
M  V30 80000 P 1981.45 8.7635 1.60911 0
M  V30 80001 O 1981.23 10.1388 1.11561 0
M  V30 80002 O 1980.66 8.36503 2.79617 0
M  V30 80003 O 1981.2 7.71806 0.42951 0
M  V30 80004 C 1982.14 7.66948 -0.673514 0
M  V30 80005 C 1981.41 7.33374 -1.95559 0
M  V30 80006 O 1981.2 5.88721 -2.00726 0
M  V30 80007 C 1980.01 7.92218 -2.1125 0
M  V30 80008 O 1979.62 8.02971 -3.47653 0
M  V30 80009 C 1979.13 6.89504 -1.41631 0
M  V30 80010 C 1979.84 5.59106 -1.75155 0
M  V30 80011 N 1979.79 4.58136 -0.662409 0
M  V30 80012 C 1979.64 3.26059 -1.02863 0
M  V30 80013 O 1979.55 2.90743 -2.19009 0
M  V30 80014 N 1979.6 2.35995 0.0155585 0
M  V30 80015 C 1979.69 2.65248 1.35603 0
M  V30 80016 O 1979.64 1.75605 2.20651 0
M  V30 80017 C 1979.84 4.05747 1.64698 0
M  V30 80018 C 1979.95 4.42345 3.09553 0
M  V30 80019 C 1979.89 4.96734 0.652411 0
M  V30 80020 H 1982.63 8.64917 -0.776982 0
M  V30 80021 H 1982.9 6.89974 -0.474015 0
M  V30 80022 H 1982.03 7.66548 -2.79458 0
M  V30 80023 H 1979.38 5.16076 -2.65138 0
M  V30 80024 H 1979.1 7.06433 -0.329384 0
M  V30 80025 H 1978.11 6.90829 -1.81996 0
M  V30 80026 H 1979.94 8.90774 -1.62639 0
M  V30 80027 H 1980.01 6.02181 0.895285 0
M  V30 80028 H 1978.98 4.80252 3.45468 0
M  V30 80029 H 1980.72 5.20015 3.22119 0
M  V30 80030 H 1980.23 3.53269 3.67833 0
M  V30 80031 H 1979.49 1.39558 -0.227499 0
M  V30 80032 P 1978.07 8.03563 -3.84925 0
M  V30 80033 O 1977.85 8.85821 -5.0569 0
M  V30 80034 O 1977.28 8.41101 -2.65469 0
M  V30 80035 O 1977.82 6.49734 -4.18962 0
M  V30 80036 C 1978.76 5.81037 -5.05421 0
M  V30 80037 C 1978.03 4.79018 -5.88876 0
M  V30 80038 O 1977.82 3.58359 -5.08515 0
M  V30 80039 C 1976.63 5.17448 -6.36119 0
M  V30 80040 O 1976.24 4.45322 -7.53318 0
M  V30 80041 C 1975.75 4.74639 -5.19936 0
M  V30 80042 C 1976.46 3.49432 -4.70418 0
M  V30 80043 N 1976.41 3.31776 -3.22945 0
M  V30 80044 C 1976.26 2.02742 -2.72939 0
M  V30 80045 O 1976.17 1.08301 -3.52749 0
M  V30 80046 N 1976.21 1.96117 -1.22063 0
M  V30 80047 C 1976.31 2.8878 -0.551566 0
M  V30 80048 N 1976.26 2.65609 0.750198 0
M  V30 80049 C 1976.46 4.22457 -1.03707 0
M  V30 80050 C 1976.51 4.37979 -2.39113 0
M  V30 80051 H 1979.25 6.54138 -5.7131 0
M  V30 80052 H 1979.52 5.30492 -4.44033 0
M  V30 80053 H 1978.65 4.55945 -6.76735 0
M  V30 80054 H 1976 2.6176 -5.18021 0
M  V30 80055 H 1975.72 5.52233 -4.41941 0
M  V30 80056 H 1974.73 4.52045 -5.53452 0
M  V30 80057 H 1976.56 6.25124 -6.55234 0
M  V30 80058 H 1976.63 5.37936 -2.80552 0
M  V30 80059 H 1976.53 5.07528 -0.359553 0
M  V30 80060 H 1976.14 1.69403 1.09847 0
M  V30 80061 H 1976.34 3.43701 1.41792 0
M  V30 80062 P 1974.69 4.23843 -7.83734 0
M  V30 80063 O 1974.47 4.19407 -9.29784 0
M  V30 80064 O 1973.9 5.24426 -7.09156 0
M  V30 80065 O 1974.44 2.7935 -7.20758 0
M  V30 80066 C 1975.38 1.7299 -7.50419 0
M  V30 80067 C 1974.65 0.406376 -7.57911 0
M  V30 80068 O 1974.44 -0.0897726 -6.21935 0
M  V30 80069 C 1973.25 0.447224 -8.1878 0
M  V30 80070 O 1972.86 -0.825065 -8.71101 0
M  V30 80071 C 1972.37 0.783801 -6.99623 0
M  V30 80072 C 1973.08 0.0619192 -5.85967 0
M  V30 80073 N 1973.03 0.7859 -4.56281 0
M  V30 80074 H 1975.87 1.93423 -8.4679 0
M  V30 80075 H 1976.14 1.68181 -6.71046 0
M  V30 80076 H 1975.27 -0.289041 -8.15388 0
M  V30 80077 P 1971.31 -1.17771 -8.83182 0
M  V30 80078 O 1971.09 -2.07206 -9.98732 0
M  V30 80079 O 1970.52 0.0743816 -8.81969 0
M  V30 80080 O 1971.06 -1.97652 -7.47304 0
M  V30 80081 C 1972 -3.01055 -7.08599 0
M  V30 80082 C 1971.27 -4.12613 -6.37049 0
M  V30 80083 O 1971.06 -3.72827 -4.97879 0
M  V30 80084 C 1969.87 -4.45719 -6.88164 0
M  V30 80085 O 1969.48 -5.7877 -6.5624 0
M  V30 80086 C 1968.99 -3.47768 -6.11991 0
M  V30 80087 C 1969.7 -3.39356 -4.77615 0
M  V30 80088 N 1969.65 -2.04571 -4.15244 0
M  V30 80089 C 1969.5 -1.98587 -2.78314 0
M  V30 80090 O 1969.41 -2.98134 -2.08835 0
M  V30 80091 N 1969.46 -0.714467 -2.24925 0
M  V30 80092 C 1969.55 0.470001 -2.94169 0
M  V30 80093 O 1969.5 1.55587 -2.35195 0
M  V30 80094 C 1969.7 0.312541 -4.36783 0
M  V30 80095 C 1969.81 1.57711 -5.16352 0
M  V30 80096 C 1969.75 -0.914512 -4.92583 0
M  V30 80097 H 1972.49 -3.41169 -7.98575 0
M  V30 80098 H 1972.76 -2.58295 -6.41556 0
M  V30 80099 H 1971.89 -5.02657 -6.42673 0
M  V30 80100 H 1969.24 -4.11637 -4.08885 0
M  V30 80101 H 1968.96 -2.49626 -6.61679 0
M  V30 80102 H 1967.97 -3.86566 -6.00778 0
M  V30 80103 H 1969.8 -4.29943 -7.96918 0
M  V30 80104 H 1969.87 -1.00937 -6.00374 0
M  V30 80105 H 1968.84 1.80153 -5.63503 0
M  V30 80106 H 1970.58 1.4566 -5.94104 0
M  V30 80107 H 1970.09 2.40664 -4.49645 0
M  V30 80108 H 1969.35 -0.647622 -1.25697 0
M  V30 80109 P 1967.93 -6.144 -6.45285 0
M  V30 80110 O 1967.71 -7.54673 -6.86199 0
M  V30 80111 O 1967.14 -5.12391 -7.179 0
M  V30 80112 O 1967.68 -5.99158 -4.88404 0
M  V30 80113 C 1968.62 -6.60234 -3.96415 0
M  V30 80114 C 1967.89 -7.08259 -2.72856 0
M  V30 80115 O 1967.68 -5.9427 -1.83651 0
M  V30 80116 C 1966.49 -7.64886 -2.9555 0
M  V30 80117 O 1966.1 -8.53963 -1.90717 0
M  V30 80118 C 1965.61 -6.4116 -2.90739 0
M  V30 80119 C 1966.32 -5.55375 -1.86963 0
M  V30 80120 N 1966.27 -4.09664 -2.15742 0
M  V30 80121 H 1969.11 -7.45574 -4.45629 0
M  V30 80122 H 1969.38 -5.86232 -3.67314 0
M  V30 80123 H 1968.51 -7.84412 -2.24479 0
M  V30 80124 P 1964.55 -8.7635 -1.60911 0
M  V30 80125 O 1964.33 -10.1388 -1.11561 0
M  V30 80126 O 1963.76 -8.36503 -2.79617 0
M  V30 80127 O 1964.3 -7.71806 -0.42951 0
M  V30 80128 C 1965.24 -7.66948 0.673514 0
M  V30 80129 C 1964.51 -7.33374 1.95559 0
M  V30 80130 O 1964.3 -5.88721 2.00726 0
M  V30 80131 C 1963.11 -7.92218 2.1125 0
M  V30 80132 O 1962.72 -8.02971 3.47653 0
M  V30 80133 C 1962.23 -6.89504 1.41631 0
M  V30 80134 C 1962.94 -5.59106 1.75155 0
M  V30 80135 N 1962.89 -4.58136 0.662409 0
M  V30 80136 C 1962.74 -3.26059 1.02863 0
M  V30 80137 O 1962.65 -2.90743 2.19009 0
M  V30 80138 N 1962.7 -2.35995 -0.0155585 0
M  V30 80139 C 1962.79 -2.65248 -1.35603 0
M  V30 80140 O 1962.74 -1.75605 -2.20651 0
M  V30 80141 C 1962.94 -4.05747 -1.64698 0
M  V30 80142 C 1963.05 -4.42345 -3.09553 0
M  V30 80143 C 1962.99 -4.96734 -0.652411 0
M  V30 80144 H 1965.73 -8.64917 0.776982 0
M  V30 80145 H 1966 -6.89974 0.474015 0
M  V30 80146 H 1965.13 -7.66548 2.79458 0
M  V30 80147 H 1962.48 -5.16076 2.65138 0
M  V30 80148 H 1962.2 -7.06433 0.329384 0
M  V30 80149 H 1961.21 -6.90829 1.81996 0
M  V30 80150 H 1963.04 -8.90774 1.62639 0
M  V30 80151 H 1963.11 -6.02181 -0.895285 0
M  V30 80152 H 1962.08 -4.80252 -3.45468 0
M  V30 80153 H 1963.82 -5.20015 -3.22119 0
M  V30 80154 H 1963.33 -3.53269 -3.67833 0
M  V30 80155 H 1962.59 -1.39558 0.227499 0
M  V30 80156 P 1961.17 -8.03563 3.84925 0
M  V30 80157 O 1960.95 -8.85821 5.0569 0
M  V30 80158 O 1960.38 -8.41101 2.65469 0
M  V30 80159 O 1960.92 -6.4965 4.18908 0
M  V30 80160 C 1961.86 -5.81037 5.05421 0
M  V30 80161 C 1961.13 -4.78366 5.89277 0
M  V30 80162 O 1960.92 -3.58302 5.08433 0
M  V30 80163 C 1959.73 -5.17448 6.36119 0
M  V30 80164 O 1959.34 -4.45271 7.53232 0
M  V30 80165 C 1958.85 -4.74639 5.19936 0
M  V30 80166 C 1959.56 -3.49432 4.70418 0
M  V30 80167 N 1959.51 -3.31776 3.22945 0
M  V30 80168 H 1962.35 -6.54213 5.71376 0
M  V30 80169 H 1962.62 -5.30492 4.44033 0
M  V30 80170 H 1961.75 -4.55889 6.76652 0
M  V30 80171 P 1957.79 -4.23843 7.83734 0
M  V30 80172 O 1957.57 -4.19407 9.29784 0
M  V30 80173 O 1957 -5.24426 7.09156 0
M  V30 80174 O 1957.54 -2.7935 7.20758 0
M  V30 80175 C 1958.48 -1.7299 7.50419 0
M  V30 80176 C 1957.75 -0.406376 7.57911 0
M  V30 80177 O 1957.54 0.0897726 6.21935 0
M  V30 80178 C 1956.35 -0.447224 8.1878 0
M  V30 80179 O 1955.96 0.825065 8.71101 0
M  V30 80180 C 1955.47 -0.783801 6.99623 0
M  V30 80181 C 1956.18 -0.0619192 5.85967 0
M  V30 80182 N 1956.13 -0.7859 4.56281 0
M  V30 80183 H 1958.97 -1.93423 8.4679 0
M  V30 80184 H 1959.24 -1.68181 6.71046 0
M  V30 80185 H 1958.37 0.289041 8.15388 0
M  V30 80186 P 1954.41 1.17771 8.83182 0
M  V30 80187 O 1954.19 2.07206 9.98732 0
M  V30 80188 O 1953.62 -0.0743816 8.81969 0
M  V30 80189 O 1954.16 1.97652 7.47304 0
M  V30 80190 C 1955.1 3.01133 7.08783 0
M  V30 80191 C 1954.37 4.12613 6.37049 0
M  V30 80192 O 1954.16 3.72827 4.97879 0
M  V30 80193 C 1952.97 4.45085 6.88694 0
M  V30 80194 O 1952.58 5.7877 6.5624 0
M  V30 80195 C 1952.09 3.47817 6.12078 0
M  V30 80196 C 1952.8 3.39414 4.77697 0
M  V30 80197 N 1952.75 2.04199 4.15538 0
M  V30 80198 H 1955.59 3.41248 7.98759 0
M  V30 80199 H 1955.86 2.57728 6.42 0
M  V30 80200 H 1954.99 5.02657 6.42673 0
M  V30 80201 H 1952.34 4.11708 4.08956 0
M  V30 80202 H 1952.06 2.49626 6.61679 0
M  V30 80203 H 1951.07 3.8662 6.00862 0
M  V30 80204 H 1952.9 4.29991 7.97006 0
M  V30 80205 P 1951.03 6.144 6.45285 0
M  V30 80206 O 1950.81 7.54673 6.86199 0
M  V30 80207 O 1950.24 5.12391 7.179 0
M  V30 80208 O 1950.78 5.99158 4.88404 0
M  V30 80209 C 1951.72 6.60234 3.96415 0
M  V30 80210 C 1950.99 7.08259 2.72856 0
M  V30 80211 O 1950.78 5.9427 1.83651 0
M  V30 80212 C 1949.59 7.64886 2.9555 0
M  V30 80213 O 1949.2 8.53963 1.90717 0
M  V30 80214 C 1948.71 6.4116 2.90739 0
M  V30 80215 C 1949.42 5.55375 1.86963 0
M  V30 80216 N 1949.37 4.09664 2.15742 0
M  V30 80217 H 1952.21 7.45574 4.45629 0
M  V30 80218 H 1952.48 5.86232 3.67314 0
M  V30 80219 H 1951.61 7.84412 2.24479 0
M  V30 80220 P 1947.65 8.7635 1.60911 0
M  V30 80221 O 1947.43 10.1388 1.11561 0
M  V30 80222 O 1946.86 8.36503 2.79617 0
M  V30 80223 O 1947.4 7.71806 0.42951 0
M  V30 80224 C 1948.34 7.67148 -0.673689 0
M  V30 80225 C 1947.61 7.33374 -1.95559 0
M  V30 80226 O 1947.4 5.88721 -2.00726 0
M  V30 80227 C 1946.21 7.92526 -2.10483 0
M  V30 80228 O 1945.82 8.02971 -3.47653 0
M  V30 80229 C 1945.33 6.89602 -1.41652 0
M  V30 80230 C 1946.04 5.59201 -1.75185 0
M  V30 80231 N 1945.99 4.58235 -0.662552 0
M  V30 80232 H 1948.83 8.65116 -0.777161 0
M  V30 80233 H 1949.1 6.90173 -0.474152 0
M  V30 80234 H 1948.23 7.66548 -2.79458 0
M  V30 80235 P 1944.27 8.03563 -3.84925 0
M  V30 80236 O 1944.05 8.85821 -5.0569 0
M  V30 80237 O 1943.48 8.41101 -2.65469 0
M  V30 80238 O 1944.02 6.4965 -4.18908 0
M  V30 80239 C 1944.96 5.81037 -5.05421 0
M  V30 80240 C 1944.23 4.78366 -5.89277 0
M  V30 80241 O 1944.02 3.58302 -5.08433 0
M  V30 80242 C 1942.83 5.17448 -6.36119 0
M  V30 80243 O 1942.44 4.45271 -7.53232 0
M  V30 80244 C 1941.95 4.74639 -5.19936 0
M  V30 80245 C 1942.66 3.49432 -4.70418 0
M  V30 80246 N 1942.61 3.31776 -3.22945 0
M  V30 80247 H 1945.45 6.54213 -5.71376 0
M  V30 80248 H 1945.72 5.30492 -4.44033 0
M  V30 80249 H 1944.85 4.55889 -6.76652 0
M  V30 80250 P 1940.89 4.23843 -7.83734 0
M  V30 80251 O 1940.67 4.19407 -9.29784 0
M  V30 80252 O 1940.1 5.24426 -7.09156 0
M  V30 80253 O 1940.64 2.7935 -7.20758 0
M  V30 80254 C 1941.58 1.7299 -7.50419 0
M  V30 80255 C 1940.85 0.406376 -7.57911 0
M  V30 80256 O 1940.64 -0.0897726 -6.21935 0
M  V30 80257 C 1939.45 0.447224 -8.1878 0
M  V30 80258 O 1939.06 -0.825065 -8.71101 0
M  V30 80259 C 1938.57 0.783801 -6.99623 0
M  V30 80260 C 1939.28 0.0619192 -5.85967 0
M  V30 80261 N 1939.23 0.7859 -4.56281 0
M  V30 80262 H 1942.07 1.93423 -8.4679 0
M  V30 80263 H 1942.34 1.68181 -6.71046 0
M  V30 80264 H 1941.47 -0.289041 -8.15388 0
M  V30 80265 P 1937.51 -1.17771 -8.83182 0
M  V30 80266 O 1937.29 -2.07206 -9.98732 0
M  V30 80267 O 1936.72 0.0743816 -8.81969 0
M  V30 80268 O 1937.26 -1.97652 -7.47304 0
M  V30 80269 C 1938.2 -3.01055 -7.08599 0
M  V30 80270 C 1937.47 -4.12613 -6.37049 0
M  V30 80271 O 1937.26 -3.72827 -4.97879 0
M  V30 80272 C 1936.07 -4.45719 -6.88164 0
M  V30 80273 O 1935.68 -5.7877 -6.5624 0
M  V30 80274 C 1935.19 -3.47768 -6.11991 0
M  V30 80275 C 1935.9 -3.39356 -4.77615 0
M  V30 80276 N 1935.85 -2.04571 -4.15244 0
M  V30 80277 C 1935.7 -1.98587 -2.78314 0
M  V30 80278 O 1935.61 -2.98134 -2.08835 0
M  V30 80279 N 1935.66 -0.714467 -2.24925 0
M  V30 80280 C 1935.75 0.470001 -2.94169 0
M  V30 80281 O 1935.7 1.55587 -2.35195 0
M  V30 80282 C 1935.9 0.312541 -4.36783 0
M  V30 80283 C 1936.01 1.57711 -5.16352 0
M  V30 80284 C 1935.95 -0.914512 -4.92583 0
M  V30 80285 H 1938.69 -3.41169 -7.98575 0
M  V30 80286 H 1938.96 -2.58295 -6.41556 0
M  V30 80287 H 1938.09 -5.02657 -6.42673 0
M  V30 80288 H 1935.44 -4.11637 -4.08885 0
M  V30 80289 H 1935.16 -2.49626 -6.61679 0
M  V30 80290 H 1934.17 -3.86566 -6.00778 0
M  V30 80291 H 1936 -4.29943 -7.96918 0
M  V30 80292 H 1936.07 -1.00937 -6.00374 0
M  V30 80293 H 1935.04 1.80153 -5.63503 0
M  V30 80294 H 1936.78 1.4566 -5.94104 0
M  V30 80295 H 1936.29 2.40664 -4.49645 0
M  V30 80296 H 1935.55 -0.647622 -1.25697 0
M  V30 80297 P 1934.13 -6.144 -6.45285 0
M  V30 80298 O 1933.91 -7.54673 -6.86199 0
M  V30 80299 O 1933.34 -5.12391 -7.179 0
M  V30 80300 O 1933.88 -5.99158 -4.88404 0
M  V30 80301 C 1934.82 -6.60234 -3.96415 0
M  V30 80302 C 1934.09 -7.08259 -2.72856 0
M  V30 80303 O 1933.88 -5.9427 -1.83651 0
M  V30 80304 C 1932.69 -7.64886 -2.9555 0
M  V30 80305 O 1932.3 -8.53963 -1.90717 0
M  V30 80306 C 1931.81 -6.4116 -2.90739 0
M  V30 80307 C 1932.52 -5.55375 -1.86963 0
M  V30 80308 N 1932.47 -4.09664 -2.15742 0
M  V30 80309 H 1935.31 -7.45574 -4.45629 0
M  V30 80310 H 1935.58 -5.86232 -3.67314 0
M  V30 80311 H 1934.71 -7.84412 -2.24479 0
M  V30 80312 P 1930.75 -8.7635 -1.60911 0
M  V30 80313 O 1930.53 -10.1388 -1.11561 0
M  V30 80314 O 1929.96 -8.36503 -2.79617 0
M  V30 80315 O 1930.5 -7.71806 -0.42951 0
M  V30 80316 C 1931.44 -7.67148 0.673689 0
M  V30 80317 C 1930.71 -7.33374 1.95559 0
M  V30 80318 O 1930.5 -5.88721 2.00726 0
M  V30 80319 C 1929.31 -7.92526 2.10483 0
M  V30 80320 O 1928.92 -8.02971 3.47653 0
M  V30 80321 C 1928.43 -6.89602 1.41652 0
M  V30 80322 C 1929.14 -5.59201 1.75185 0
M  V30 80323 N 1929.09 -4.58235 0.662552 0
M  V30 80324 H 1931.93 -8.65116 0.777161 0
M  V30 80325 H 1932.2 -6.90173 0.474152 0
M  V30 80326 H 1931.33 -7.66548 2.79458 0
M  V30 80327 P 1927.37 -8.03563 3.84925 0
M  V30 80328 O 1927.15 -8.85821 5.0569 0
M  V30 80329 O 1926.58 -8.41101 2.65469 0
M  V30 80330 O 1927.12 -6.4965 4.18908 0
M  V30 80331 C 1928.06 -5.81037 5.05421 0
M  V30 80332 C 1927.33 -4.78366 5.89277 0
M  V30 80333 O 1927.12 -3.58302 5.08433 0
M  V30 80334 C 1925.93 -5.17448 6.36119 0
M  V30 80335 O 1925.54 -4.45271 7.53232 0
M  V30 80336 C 1925.05 -4.74639 5.19936 0
M  V30 80337 C 1925.76 -3.49432 4.70418 0
M  V30 80338 N 1925.71 -3.32099 3.22613 0
M  V30 80339 H 1928.55 -6.54213 5.71376 0
M  V30 80340 H 1928.82 -5.30936 4.43503 0
M  V30 80341 H 1927.95 -4.55889 6.76652 0
M  V30 80342 H 1925.3 -2.61715 5.17932 0
M  V30 80343 H 1925.02 -5.52155 4.41878 0
M  V30 80344 H 1924.03 -4.51981 5.53374 0
M  V30 80345 H 1925.86 -6.25124 6.55234 0
M  V30 80346 P 1923.99 -4.23843 7.83734 0
M  V30 80347 O 1923.77 -4.19407 9.29784 0
M  V30 80348 O 1923.2 -5.24426 7.09156 0
M  V30 80349 O 1923.74 -2.79386 7.20852 0
M  V30 80350 C 1924.68 -1.7299 7.50419 0
M  V30 80351 C 1923.95 -0.41401 7.5797 0
M  V30 80352 O 1923.74 0.089787 6.22035 0
M  V30 80353 C 1922.55 -0.447224 8.1878 0
M  V30 80354 O 1922.16 0.825159 8.71201 0
M  V30 80355 C 1921.67 -0.783801 6.99623 0
M  V30 80356 C 1922.38 -0.0619192 5.85967 0
M  V30 80357 N 1922.33 -0.7859 4.56281 0
M  V30 80358 C 1922.18 -0.0359258 3.39981 0
M  V30 80359 O 1922.09 1.19723 3.49038 0
M  V30 80360 N 1922.13 -0.869151 2.14025 0
M  V30 80361 C 1922.23 -2.01207 2.14363 0
M  V30 80362 N 1922.18 -2.58978 0.954287 0
M  V30 80363 C 1922.38 -2.80817 3.32215 0
M  V30 80364 C 1922.43 -2.13785 4.50884 0
M  V30 80365 H 1925.17 -1.93401 8.46693 0
M  V30 80366 H 1925.44 -1.68181 6.71046 0
M  V30 80367 H 1924.57 0.289076 8.15488 0
M  V30 80368 H 1921.92 0.927166 5.72947 0
M  V30 80369 H 1921.64 -1.87 6.82132 0
M  V30 80370 H 1920.65 -0.404009 7.13457 0
M  V30 80371 H 1922.48 -1.20599 8.97534 0
M  V30 80372 H 1922.55 -2.70295 5.43162 0
M  V30 80373 H 1922.45 -3.89465 3.27406 0
M  V30 80374 H 1922.06 -2.01616 0.107046 0
M  V30 80375 H 1922.26 -3.61403 0.873101 0
M  V30 80376 P 1920.61 1.17771 8.83182 0
M  V30 80377 O 1920.39 2.07206 9.98732 0
M  V30 80378 O 1919.82 -0.0743816 8.81969 0
M  V30 80379 O 1920.36 1.97652 7.47304 0
M  V30 80380 C 1921.3 3.01133 7.08783 0
M  V30 80381 C 1920.57 4.12613 6.37049 0
M  V30 80382 O 1920.36 3.72827 4.97879 0
M  V30 80383 C 1919.17 4.45085 6.88694 0
M  V30 80384 O 1918.78 5.7877 6.5624 0
M  V30 80385 C 1918.29 3.47817 6.12078 0
M  V30 80386 C 1919 3.39414 4.77697 0
M  V30 80387 N 1918.95 2.04615 4.15333 0
M  V30 80388 H 1921.79 3.41248 7.98759 0
M  V30 80389 H 1922.06 2.5837 6.41742 0
M  V30 80390 H 1921.19 5.02657 6.42673 0
M  V30 80391 P 1917.23 6.144 6.45285 0
M  V30 80392 O 1917.01 7.54673 6.86199 0
M  V30 80393 O 1916.44 5.12391 7.179 0
M  V30 80394 O 1916.98 5.99158 4.88404 0
M  V30 80395 C 1917.92 6.60234 3.96415 0
M  V30 80396 C 1917.19 7.08259 2.72856 0
M  V30 80397 O 1916.98 5.9427 1.83651 0
M  V30 80398 C 1915.79 7.64886 2.9555 0
M  V30 80399 O 1915.4 8.53963 1.90717 0
M  V30 80400 C 1914.91 6.4116 2.90739 0
M  V30 80401 C 1915.62 5.55375 1.86963 0
M  V30 80402 N 1915.57 4.09664 2.15742 0
M  V30 80403 H 1918.41 7.45574 4.45629 0
M  V30 80404 H 1918.68 5.86232 3.67314 0
M  V30 80405 H 1917.81 7.84412 2.24479 0
M  V30 80406 P 1913.85 8.7635 1.60911 0
M  V30 80407 O 1913.63 10.1388 1.11561 0
M  V30 80408 O 1913.06 8.36503 2.79617 0
M  V30 80409 O 1913.6 7.71806 0.42951 0
M  V30 80410 C 1914.54 7.67148 -0.673689 0
M  V30 80411 C 1913.81 7.33374 -1.95559 0
M  V30 80412 O 1913.6 5.88721 -2.00726 0
M  V30 80413 C 1912.41 7.92526 -2.10483 0
M  V30 80414 O 1912.02 8.02971 -3.47653 0
M  V30 80415 C 1911.53 6.89602 -1.41652 0
M  V30 80416 C 1912.24 5.59201 -1.75185 0
M  V30 80417 N 1912.19 4.58235 -0.662552 0
M  V30 80418 H 1915.03 8.65116 -0.777161 0
M  V30 80419 H 1915.3 6.90173 -0.474152 0
M  V30 80420 H 1914.43 7.66548 -2.79458 0
M  V30 80421 P 1910.47 8.03563 -3.84925 0
M  V30 80422 O 1910.25 8.85821 -5.0569 0
M  V30 80423 O 1909.68 8.41101 -2.65469 0
M  V30 80424 O 1910.22 6.4965 -4.18908 0
M  V30 80425 C 1911.16 5.81037 -5.05421 0
M  V30 80426 C 1910.43 4.78366 -5.89277 0
M  V30 80427 O 1910.22 3.58302 -5.08433 0
M  V30 80428 C 1909.03 5.17448 -6.36119 0
M  V30 80429 O 1908.64 4.45271 -7.53232 0
M  V30 80430 C 1908.15 4.74639 -5.19936 0
M  V30 80431 C 1908.86 3.49432 -4.70418 0
M  V30 80432 N 1908.81 3.32099 -3.22613 0
M  V30 80433 H 1911.65 6.54213 -5.71376 0
M  V30 80434 H 1911.92 5.30936 -4.43503 0
M  V30 80435 H 1911.05 4.55889 -6.76652 0
M  V30 80436 H 1908.4 2.61715 -5.17932 0
M  V30 80437 H 1908.12 5.52155 -4.41878 0
M  V30 80438 H 1907.13 4.51981 -5.53374 0
M  V30 80439 H 1908.96 6.25124 -6.55234 0
M  V30 80440 P 1907.09 4.23843 -7.83734 0
M  V30 80441 O 1906.87 4.19407 -9.29784 0
M  V30 80442 O 1906.3 5.24426 -7.09156 0
M  V30 80443 O 1906.84 2.7935 -7.20758 0
M  V30 80444 C 1907.78 1.7299 -7.50419 0
M  V30 80445 C 1907.05 0.406376 -7.57911 0
M  V30 80446 O 1906.84 -0.0897726 -6.21935 0
M  V30 80447 C 1905.65 0.447224 -8.1878 0
M  V30 80448 O 1905.26 -0.825065 -8.71101 0
M  V30 80449 C 1904.77 0.783801 -6.99623 0
M  V30 80450 C 1905.48 0.0619192 -5.85967 0
M  V30 80451 N 1905.43 0.7859 -4.56281 0
M  V30 80452 H 1908.27 1.93423 -8.4679 0
M  V30 80453 H 1908.54 1.68181 -6.71046 0
M  V30 80454 H 1907.67 -0.289041 -8.15388 0
M  V30 80455 P 1903.71 -1.17771 -8.83182 0
M  V30 80456 O 1903.49 -2.07206 -9.98732 0
M  V30 80457 O 1902.92 0.0743816 -8.81969 0
M  V30 80458 O 1903.46 -1.97652 -7.47304 0
M  V30 80459 C 1904.4 -3.01133 -7.08783 0
M  V30 80460 C 1903.67 -4.12613 -6.37049 0
M  V30 80461 O 1903.46 -3.72827 -4.97879 0
M  V30 80462 C 1902.27 -4.45085 -6.88694 0
M  V30 80463 O 1901.88 -5.7877 -6.5624 0
M  V30 80464 C 1901.39 -3.47817 -6.12078 0
M  V30 80465 C 1902.1 -3.39414 -4.77697 0
M  V30 80466 N 1902.05 -2.04615 -4.15333 0
M  V30 80467 H 1904.89 -3.41248 -7.98759 0
M  V30 80468 H 1905.16 -2.5837 -6.41742 0
M  V30 80469 H 1904.29 -5.02657 -6.42673 0
M  V30 80470 P 1900.33 -6.144 -6.45285 0
M  V30 80471 O 1900.11 -7.54673 -6.86199 0
M  V30 80472 O 1899.54 -5.12391 -7.179 0
M  V30 80473 O 1900.08 -5.99158 -4.88404 0
M  V30 80474 C 1901.02 -6.60234 -3.96415 0
M  V30 80475 C 1900.29 -7.08259 -2.72856 0
M  V30 80476 O 1900.08 -5.9427 -1.83651 0
M  V30 80477 C 1898.89 -7.64886 -2.9555 0
M  V30 80478 O 1898.5 -8.53963 -1.90717 0
M  V30 80479 C 1898.01 -6.4116 -2.90739 0
M  V30 80480 C 1898.72 -5.55375 -1.86963 0
M  V30 80481 N 1898.67 -4.09664 -2.15742 0
M  V30 80482 H 1901.51 -7.45574 -4.45629 0
M  V30 80483 H 1901.78 -5.86232 -3.67314 0
M  V30 80484 H 1900.91 -7.84412 -2.24479 0
M  V30 80485 P 1896.95 -8.7635 -1.60911 0
M  V30 80486 O 1896.73 -10.1388 -1.11561 0
M  V30 80487 O 1896.16 -8.36503 -2.79617 0
M  V30 80488 O 1896.7 -7.71806 -0.42951 0
M  V30 80489 C 1897.64 -7.67148 0.673689 0
M  V30 80490 C 1896.91 -7.33374 1.95559 0
M  V30 80491 O 1896.7 -5.88721 2.00726 0
M  V30 80492 C 1895.51 -7.92526 2.10483 0
M  V30 80493 O 1895.12 -8.02971 3.47653 0
M  V30 80494 C 1894.63 -6.89602 1.41652 0
M  V30 80495 C 1895.34 -5.59201 1.75185 0
M  V30 80496 N 1895.29 -4.58235 0.662552 0
M  V30 80497 H 1898.13 -8.65116 0.777161 0
M  V30 80498 H 1898.4 -6.90173 0.474152 0
M  V30 80499 H 1897.53 -7.66548 2.79458 0
M  V30 80500 P 1893.57 -8.03563 3.84925 0
M  V30 80501 O 1893.35 -8.85821 5.0569 0
M  V30 80502 O 1892.78 -8.41101 2.65469 0
M  V30 80503 O 1893.32 -6.4965 4.18908 0
M  V30 80504 C 1894.26 -5.80886 5.05289 0
M  V30 80505 C 1893.53 -4.78366 5.89277 0
M  V30 80506 O 1893.32 -3.58302 5.08433 0
M  V30 80507 C 1892.13 -5.16748 6.36559 0
M  V30 80508 O 1891.74 -4.45271 7.53232 0
M  V30 80509 C 1891.25 -4.74572 5.19863 0
M  V30 80510 C 1891.96 -3.49373 4.70338 0
M  V30 80511 N 1891.91 -3.31704 3.22876 0
M  V30 80512 C 1891.76 -2.03326 2.74871 0
M  V30 80513 O 1891.67 -1.06486 3.48076 0
M  V30 80514 N 1891.72 -1.91838 1.37456 0
M  V30 80515 C 1891.81 -2.94295 0.462035 0
M  V30 80516 C 1891.96 -4.25064 1.05249 0
M  V30 80517 C 1892.01 -4.40214 2.39192 0
M  V30 80518 H 1894.75 -6.54063 5.71245 0
M  V30 80519 H 1895.02 -5.30339 4.43905 0
M  V30 80520 H 1894.15 -4.55889 6.76652 0
M  V30 80521 H 1891.5 -2.6167 5.17842 0
M  V30 80522 H 1891.22 -5.52155 4.41878 0
M  V30 80523 H 1890.23 -4.51918 5.53297 0
M  V30 80524 H 1892.06 -6.25055 6.55162 0
M  V30 80525 H 1892.13 -5.39798 2.81523 0
M  V30 80526 P 1890.19 -4.23843 7.83734 0
M  V30 80527 O 1889.97 -4.19407 9.29784 0
M  V30 80528 O 1889.4 -5.24426 7.09156 0
M  V30 80529 O 1889.94 -2.79386 7.20852 0
M  V30 80530 C 1890.88 -1.7299 7.50419 0
M  V30 80531 C 1890.15 -0.41401 7.5797 0
M  V30 80532 O 1889.94 0.089787 6.22035 0
M  V30 80533 C 1888.75 -0.447224 8.1878 0
M  V30 80534 O 1888.36 0.825159 8.71201 0
M  V30 80535 C 1887.87 -0.783801 6.99623 0
M  V30 80536 C 1888.58 -0.0619192 5.85967 0
M  V30 80537 N 1888.53 -0.7859 4.56281 0
M  V30 80538 C 1888.38 -0.0359258 3.39981 0
M  V30 80539 O 1888.29 1.19723 3.49038 0
M  V30 80540 N 1888.33 -0.869151 2.14025 0
M  V30 80541 C 1888.43 -2.01207 2.14363 0
M  V30 80542 N 1888.38 -2.58978 0.954287 0
M  V30 80543 C 1888.58 -2.80817 3.32215 0
M  V30 80544 C 1888.63 -2.13785 4.50884 0
M  V30 80545 H 1891.37 -1.93401 8.46693 0
M  V30 80546 H 1891.64 -1.68181 6.71046 0
M  V30 80547 H 1890.77 0.289076 8.15488 0
M  V30 80548 H 1888.12 0.927166 5.72947 0
M  V30 80549 H 1887.84 -1.87 6.82132 0
M  V30 80550 H 1886.85 -0.404009 7.13457 0
M  V30 80551 H 1888.68 -1.20599 8.97534 0
M  V30 80552 H 1888.75 -2.70295 5.43162 0
M  V30 80553 H 1888.65 -3.89465 3.27406 0
M  V30 80554 H 1888.26 -2.01616 0.107046 0
M  V30 80555 H 1888.46 -3.61403 0.873101 0
M  V30 80556 P 1886.81 1.17771 8.83182 0
M  V30 80557 O 1886.59 2.07206 9.98732 0
M  V30 80558 O 1886.02 -0.0743816 8.81969 0
M  V30 80559 O 1886.56 1.97652 7.47304 0
M  V30 80560 C 1887.5 3.01133 7.08783 0
M  V30 80561 C 1886.77 4.12613 6.37049 0
M  V30 80562 O 1886.56 3.72827 4.97879 0
M  V30 80563 C 1885.37 4.45085 6.88694 0
M  V30 80564 O 1884.98 5.7877 6.5624 0
M  V30 80565 C 1884.49 3.47817 6.12078 0
M  V30 80566 C 1885.2 3.39414 4.77697 0
M  V30 80567 N 1885.15 2.04615 4.15333 0
M  V30 80568 H 1887.99 3.41248 7.98759 0
M  V30 80569 H 1888.26 2.5837 6.41742 0
M  V30 80570 H 1887.39 5.02657 6.42673 0
M  V30 80571 P 1883.43 6.144 6.45285 0
M  V30 80572 O 1883.21 7.54673 6.86199 0
M  V30 80573 O 1882.64 5.12391 7.179 0
M  V30 80574 O 1883.18 5.99158 4.88404 0
M  V30 80575 C 1884.12 6.60234 3.96415 0
M  V30 80576 C 1883.39 7.08259 2.72856 0
M  V30 80577 O 1883.18 5.9427 1.83651 0
M  V30 80578 C 1881.99 7.64886 2.9555 0
M  V30 80579 O 1881.6 8.53963 1.90717 0
M  V30 80580 C 1881.11 6.4116 2.90739 0
M  V30 80581 C 1881.82 5.55375 1.86963 0
M  V30 80582 N 1881.77 4.09664 2.15742 0
M  V30 80583 H 1884.61 7.45574 4.45629 0
M  V30 80584 H 1884.88 5.86232 3.67314 0
M  V30 80585 H 1884.01 7.84412 2.24479 0
M  V30 80586 P 1880.05 8.7635 1.60911 0
M  V30 80587 O 1879.83 10.1388 1.11561 0
M  V30 80588 O 1879.26 8.36503 2.79617 0
M  V30 80589 O 1879.8 7.71806 0.42951 0
M  V30 80590 C 1880.74 7.67148 -0.673689 0
M  V30 80591 C 1880.01 7.33374 -1.95559 0
M  V30 80592 O 1879.8 5.88721 -2.00726 0
M  V30 80593 C 1878.61 7.92526 -2.10483 0
M  V30 80594 O 1878.22 8.02971 -3.47653 0
M  V30 80595 C 1877.73 6.89602 -1.41652 0
M  V30 80596 C 1878.44 5.59201 -1.75185 0
M  V30 80597 N 1878.39 4.58235 -0.662552 0
M  V30 80598 H 1881.23 8.65116 -0.777161 0
M  V30 80599 H 1881.5 6.90173 -0.474152 0
M  V30 80600 H 1880.63 7.66548 -2.79458 0
M  V30 80601 P 1876.67 8.03563 -3.84925 0
M  V30 80602 O 1876.45 8.85821 -5.0569 0
M  V30 80603 O 1875.88 8.41101 -2.65469 0
M  V30 80604 O 1876.42 6.4965 -4.18908 0
M  V30 80605 C 1877.36 5.81037 -5.05421 0
M  V30 80606 C 1876.63 4.78366 -5.89277 0
M  V30 80607 O 1876.42 3.58302 -5.08433 0
M  V30 80608 C 1875.23 5.17448 -6.36119 0
M  V30 80609 O 1874.84 4.45271 -7.53232 0
M  V30 80610 C 1874.35 4.74639 -5.19936 0
M  V30 80611 C 1875.06 3.49432 -4.70418 0
M  V30 80612 N 1875.01 3.31776 -3.22945 0
M  V30 80613 H 1877.85 6.54213 -5.71376 0
M  V30 80614 H 1878.12 5.30492 -4.44033 0
M  V30 80615 H 1877.25 4.55889 -6.76652 0
M  V30 80616 P 1873.29 4.23843 -7.83734 0
M  V30 80617 O 1873.07 4.19407 -9.29784 0
M  V30 80618 O 1872.5 5.24426 -7.09156 0
M  V30 80619 O 1873.04 2.7935 -7.20758 0
M  V30 80620 C 1873.98 1.7299 -7.50419 0
M  V30 80621 C 1873.25 0.406376 -7.57911 0
M  V30 80622 O 1873.04 -0.0897726 -6.21935 0
M  V30 80623 C 1871.85 0.447224 -8.1878 0
M  V30 80624 O 1871.46 -0.825065 -8.71101 0
M  V30 80625 C 1870.97 0.783801 -6.99623 0
M  V30 80626 C 1871.68 0.0619192 -5.85967 0
M  V30 80627 N 1871.63 0.7859 -4.56281 0
M  V30 80628 H 1874.47 1.93423 -8.4679 0
M  V30 80629 H 1874.74 1.68181 -6.71046 0
M  V30 80630 H 1873.87 -0.289041 -8.15388 0
M  V30 80631 P 1869.91 -1.17771 -8.83182 0
M  V30 80632 O 1869.69 -2.07206 -9.98732 0
M  V30 80633 O 1869.12 0.0743816 -8.81969 0
M  V30 80634 O 1869.66 -1.97652 -7.47304 0
M  V30 80635 C 1870.6 -3.01133 -7.08783 0
M  V30 80636 C 1869.87 -4.12613 -6.37049 0
M  V30 80637 O 1869.66 -3.72827 -4.97879 0
M  V30 80638 C 1868.47 -4.45085 -6.88694 0
M  V30 80639 O 1868.08 -5.7877 -6.5624 0
M  V30 80640 C 1867.59 -3.47817 -6.12078 0
M  V30 80641 C 1868.3 -3.39414 -4.77697 0
M  V30 80642 N 1868.25 -2.04615 -4.15333 0
M  V30 80643 H 1871.09 -3.41248 -7.98759 0
M  V30 80644 H 1871.36 -2.5837 -6.41742 0
M  V30 80645 H 1870.49 -5.02657 -6.42673 0
M  V30 80646 P 1866.53 -6.144 -6.45285 0
M  V30 80647 O 1866.31 -7.54673 -6.86199 0
M  V30 80648 O 1865.74 -5.12391 -7.179 0
M  V30 80649 O 1866.28 -5.99158 -4.88404 0
M  V30 80650 C 1867.22 -6.60234 -3.96415 0
M  V30 80651 C 1866.49 -7.08259 -2.72856 0
M  V30 80652 O 1866.28 -5.9427 -1.83651 0
M  V30 80653 C 1865.09 -7.64886 -2.9555 0
M  V30 80654 O 1864.7 -8.53963 -1.90717 0
M  V30 80655 C 1864.21 -6.4116 -2.90739 0
M  V30 80656 C 1864.92 -5.55375 -1.86963 0
M  V30 80657 N 1864.87 -4.09448 -2.16152 0
M  V30 80658 H 1867.71 -7.45574 -4.45629 0
M  V30 80659 H 1867.98 -5.85864 -3.679 0
M  V30 80660 H 1867.11 -7.84412 -2.24479 0
M  V30 80661 H 1864.46 -5.73457 -0.888562 0
M  V30 80662 H 1864.18 -5.90877 -3.88583 0
M  V30 80663 H 1863.19 -6.6596 -2.58858 0
M  V30 80664 H 1865.02 -8.16339 -3.92049 0
M  V30 80665 P 1863.15 -8.7635 -1.60911 0
M  V30 80666 O 1862.93 -10.1388 -1.11561 0
M  V30 80667 O 1862.36 -8.36503 -2.79617 0
M  V30 80668 O 1862.9 -7.71806 -0.42951 0
M  V30 80669 C 1863.84 -7.67148 0.673689 0
M  V30 80670 C 1863.11 -7.33374 1.95559 0
M  V30 80671 O 1862.9 -5.88721 2.00726 0
M  V30 80672 C 1861.71 -7.92526 2.10483 0
M  V30 80673 O 1861.32 -8.02971 3.47653 0
M  V30 80674 C 1860.83 -6.89602 1.41652 0
M  V30 80675 C 1861.54 -5.59201 1.75185 0
M  V30 80676 N 1861.49 -4.58301 0.657969 0
M  V30 80677 H 1864.33 -8.65116 0.777161 0
M  V30 80678 H 1864.6 -6.9022 0.46725 0
M  V30 80679 H 1863.73 -7.66548 2.79458 0
M  V30 80680 H 1861.08 -5.16165 2.65183 0
M  V30 80681 H 1860.8 -7.06433 0.329384 0
M  V30 80682 H 1859.81 -6.90926 1.82021 0
M  V30 80683 H 1861.64 -8.90873 1.62657 0
M  V30 80684 P 1859.77 -8.03563 3.84925 0
M  V30 80685 O 1859.55 -8.85821 5.0569 0
M  V30 80686 O 1858.98 -8.41101 2.65469 0
M  V30 80687 O 1859.52 -6.4965 4.18908 0
M  V30 80688 C 1860.46 -5.81037 5.05421 0
M  V30 80689 C 1859.73 -4.78366 5.89277 0
M  V30 80690 O 1859.52 -3.58302 5.08433 0
M  V30 80691 C 1858.33 -5.17448 6.36119 0
M  V30 80692 O 1857.94 -4.45271 7.53232 0
M  V30 80693 C 1857.45 -4.74639 5.19936 0
M  V30 80694 C 1858.16 -3.49432 4.70418 0
M  V30 80695 N 1858.11 -3.32099 3.22613 0
M  V30 80696 H 1860.95 -6.54213 5.71376 0
M  V30 80697 H 1861.22 -5.30936 4.43503 0
M  V30 80698 H 1860.35 -4.55889 6.76652 0
M  V30 80699 H 1857.7 -2.61715 5.17932 0
M  V30 80700 H 1857.42 -5.52155 4.41878 0
M  V30 80701 H 1856.43 -4.51981 5.53374 0
M  V30 80702 H 1858.26 -6.25124 6.55234 0
M  V30 80703 P 1856.39 -4.23843 7.83734 0
M  V30 80704 O 1856.17 -4.19407 9.29784 0
M  V30 80705 O 1855.6 -5.24426 7.09156 0
M  V30 80706 O 1856.14 -2.79386 7.20852 0
M  V30 80707 C 1857.08 -1.7299 7.50419 0
M  V30 80708 C 1856.35 -0.41401 7.5797 0
M  V30 80709 O 1856.14 0.089787 6.22035 0
M  V30 80710 C 1854.95 -0.447224 8.1878 0
M  V30 80711 O 1854.56 0.825159 8.71201 0
M  V30 80712 C 1854.07 -0.783801 6.99623 0
M  V30 80713 C 1854.78 -0.0619192 5.85967 0
M  V30 80714 N 1854.73 -0.7859 4.56281 0
M  V30 80715 C 1854.58 -0.0359258 3.39981 0
M  V30 80716 O 1854.49 1.19723 3.49038 0
M  V30 80717 N 1854.53 -0.869151 2.14025 0
M  V30 80718 C 1854.63 -2.01207 2.14363 0
M  V30 80719 N 1854.58 -2.58978 0.954287 0
M  V30 80720 C 1854.78 -2.80817 3.32215 0
M  V30 80721 C 1854.83 -2.13785 4.50884 0
M  V30 80722 H 1857.57 -1.93401 8.46693 0
M  V30 80723 H 1857.84 -1.68181 6.71046 0
M  V30 80724 H 1856.97 0.289076 8.15488 0
M  V30 80725 H 1854.32 0.927166 5.72947 0
M  V30 80726 H 1854.04 -1.87 6.82132 0
M  V30 80727 H 1853.05 -0.404009 7.13457 0
M  V30 80728 H 1854.88 -1.20599 8.97534 0
M  V30 80729 H 1854.95 -2.70295 5.43162 0
M  V30 80730 H 1854.85 -3.89465 3.27406 0
M  V30 80731 H 1854.46 -2.01616 0.107046 0
M  V30 80732 H 1854.66 -3.61403 0.873101 0
M  V30 80733 P 1853.01 1.17771 8.83182 0
M  V30 80734 O 1852.79 2.07206 9.98732 0
M  V30 80735 O 1852.22 -0.0743816 8.81969 0
M  V30 80736 O 1852.76 1.97652 7.47304 0
M  V30 80737 C 1853.7 3.01133 7.08783 0
M  V30 80738 C 1852.97 4.12613 6.37049 0
M  V30 80739 O 1852.76 3.72827 4.97879 0
M  V30 80740 C 1851.57 4.45085 6.88694 0
M  V30 80741 O 1851.18 5.7877 6.5624 0
M  V30 80742 C 1850.69 3.47817 6.12078 0
M  V30 80743 C 1851.4 3.39414 4.77697 0
M  V30 80744 N 1851.35 2.04615 4.15333 0
M  V30 80745 H 1854.19 3.41248 7.98759 0
M  V30 80746 H 1854.46 2.5837 6.41742 0
M  V30 80747 H 1853.59 5.02657 6.42673 0
M  V30 80748 P 1849.63 6.144 6.45285 0
M  V30 80749 O 1849.41 7.54673 6.86199 0
M  V30 80750 O 1848.84 5.12391 7.179 0
M  V30 80751 O 1849.38 5.99158 4.88404 0
M  V30 80752 C 1850.32 6.60234 3.96415 0
M  V30 80753 C 1849.59 7.08259 2.72856 0
M  V30 80754 O 1849.38 5.9427 1.83651 0
M  V30 80755 C 1848.19 7.64886 2.9555 0
M  V30 80756 O 1847.8 8.53963 1.90717 0
M  V30 80757 C 1847.31 6.4116 2.90739 0
M  V30 80758 C 1848.02 5.55375 1.86963 0
M  V30 80759 N 1847.97 4.09664 2.15742 0
M  V30 80760 H 1850.81 7.45574 4.45629 0
M  V30 80761 H 1851.08 5.86232 3.67314 0
M  V30 80762 H 1850.21 7.84412 2.24479 0
M  V30 80763 P 1846.25 8.7635 1.60911 0
M  V30 80764 O 1846.03 10.1388 1.11561 0
M  V30 80765 O 1845.46 8.36503 2.79617 0
M  V30 80766 O 1846 7.71806 0.42951 0
M  V30 80767 C 1846.94 7.67148 -0.673689 0
M  V30 80768 C 1846.21 7.33374 -1.95559 0
M  V30 80769 O 1846 5.88721 -2.00726 0
M  V30 80770 C 1844.81 7.92526 -2.10483 0
M  V30 80771 O 1844.42 8.02971 -3.47653 0
M  V30 80772 C 1843.93 6.89602 -1.41652 0
M  V30 80773 C 1844.64 5.59201 -1.75185 0
M  V30 80774 N 1844.59 4.58235 -0.662552 0
M  V30 80775 H 1847.43 8.65116 -0.777161 0
M  V30 80776 H 1847.7 6.90173 -0.474152 0
M  V30 80777 H 1846.83 7.66548 -2.79458 0
M  V30 80778 P 1842.87 8.03563 -3.84925 0
M  V30 80779 O 1842.65 8.85821 -5.0569 0
M  V30 80780 O 1842.08 8.41101 -2.65469 0
M  V30 80781 O 1842.62 6.4965 -4.18908 0
M  V30 80782 C 1843.56 5.81037 -5.05421 0
M  V30 80783 C 1842.83 4.78366 -5.89277 0
M  V30 80784 O 1842.62 3.58302 -5.08433 0
M  V30 80785 C 1841.43 5.17448 -6.36119 0
M  V30 80786 O 1841.04 4.45271 -7.53232 0
M  V30 80787 C 1840.55 4.74639 -5.19936 0
M  V30 80788 C 1841.26 3.49432 -4.70418 0
M  V30 80789 N 1841.21 3.31776 -3.22945 0
M  V30 80790 H 1844.05 6.54213 -5.71376 0
M  V30 80791 H 1844.32 5.30492 -4.44033 0
M  V30 80792 H 1843.45 4.55889 -6.76652 0
M  V30 80793 P 1839.49 4.23843 -7.83734 0
M  V30 80794 O 1839.27 4.19407 -9.29784 0
M  V30 80795 O 1838.7 5.24426 -7.09156 0
M  V30 80796 O 1839.24 2.7935 -7.20758 0
M  V30 80797 C 1840.18 1.7299 -7.50419 0
M  V30 80798 C 1839.45 0.406376 -7.57911 0
M  V30 80799 O 1839.24 -0.0897726 -6.21935 0
M  V30 80800 C 1838.05 0.447224 -8.1878 0
M  V30 80801 O 1837.66 -0.825065 -8.71101 0
M  V30 80802 C 1837.17 0.783801 -6.99623 0
M  V30 80803 C 1837.88 0.0619192 -5.85967 0
M  V30 80804 N 1837.83 0.7859 -4.56281 0
M  V30 80805 H 1840.67 1.93423 -8.4679 0
M  V30 80806 H 1840.94 1.68181 -6.71046 0
M  V30 80807 H 1840.07 -0.289041 -8.15388 0
M  V30 80808 P 1836.11 -1.17771 -8.83182 0
M  V30 80809 O 1835.89 -2.07206 -9.98732 0
M  V30 80810 O 1835.32 0.0743816 -8.81969 0
M  V30 80811 O 1835.86 -1.97678 -7.474 0
M  V30 80812 C 1836.8 -3.01133 -7.08783 0
M  V30 80813 C 1836.07 -4.1203 -6.37546 0
M  V30 80814 O 1835.86 -3.72887 -4.9796 0
M  V30 80815 C 1834.67 -4.45085 -6.88694 0
M  V30 80816 O 1834.28 -5.78836 -6.56315 0
M  V30 80817 C 1833.79 -3.47817 -6.12078 0
M  V30 80818 C 1834.5 -3.39414 -4.77697 0
M  V30 80819 N 1834.45 -2.04615 -4.15333 0
M  V30 80820 C 1834.3 -1.96929 -2.77162 0
M  V30 80821 O 1834.21 -3.02017 -2.12006 0
M  V30 80822 N 1834.25 -0.55485 -2.24237 0
M  V30 80823 C 1834.35 0.367808 -2.9169 0
M  V30 80824 N 1834.3 1.53426 -2.29427 0
M  V30 80825 C 1834.5 0.319148 -4.33828 0
M  V30 80826 C 1834.55 -0.920672 -4.90433 0
M  V30 80827 H 1837.29 -3.41209 -7.98667 0
M  V30 80828 H 1837.56 -2.5837 -6.41742 0
M  V30 80829 H 1836.69 -5.02718 -6.42752 0
M  V30 80830 H 1834.04 -4.11779 -4.09026 0
M  V30 80831 H 1833.76 -2.49661 -6.61772 0
M  V30 80832 H 1832.77 -3.86674 -6.00946 0
M  V30 80833 H 1834.6 -4.29991 -7.97006 0
M  V30 80834 H 1834.67 -1.00589 -5.98303 0
M  V30 80835 H 1834.57 1.22639 -4.93799 0
M  V30 80836 H 1834.18 1.56819 -1.27167 0
M  V30 80837 H 1834.38 2.41062 -2.83063 0
M  V30 80838 P 1832.73 -6.144 -6.45285 0
M  V30 80839 O 1832.51 -7.54673 -6.86199 0
M  V30 80840 O 1831.94 -5.12391 -7.179 0
M  V30 80841 O 1832.48 -5.99158 -4.88404 0
M  V30 80842 C 1833.42 -6.60234 -3.96415 0
M  V30 80843 C 1832.69 -7.08259 -2.72856 0
M  V30 80844 O 1832.48 -5.9427 -1.83651 0
M  V30 80845 C 1831.29 -7.64886 -2.9555 0
M  V30 80846 O 1830.9 -8.53963 -1.90717 0
M  V30 80847 C 1830.41 -6.4116 -2.90739 0
M  V30 80848 C 1831.12 -5.55375 -1.86963 0
M  V30 80849 N 1831.07 -4.09664 -2.15742 0
M  V30 80850 H 1833.91 -7.45574 -4.45629 0
M  V30 80851 H 1834.18 -5.86232 -3.67314 0
M  V30 80852 H 1833.31 -7.84412 -2.24479 0
M  V30 80853 P 1829.35 -8.7635 -1.60911 0
M  V30 80854 O 1829.13 -10.1388 -1.11561 0
M  V30 80855 O 1828.56 -8.36503 -2.79617 0
M  V30 80856 O 1829.1 -7.71906 -0.429565 0
M  V30 80857 C 1830.04 -7.67148 0.673689 0
M  V30 80858 C 1829.31 -7.33666 1.94851 0
M  V30 80859 O 1829.1 -5.88816 2.00759 0
M  V30 80860 C 1827.91 -7.92526 2.10483 0
M  V30 80861 O 1827.52 -8.03063 3.47693 0
M  V30 80862 C 1827.03 -6.89602 1.41652 0
M  V30 80863 C 1827.74 -5.59201 1.75185 0
M  V30 80864 N 1827.69 -4.58235 0.662552 0
M  V30 80865 C 1827.54 -3.24451 1.01643 0
M  V30 80866 O 1827.45 -2.94958 2.21722 0
M  V30 80867 N 1827.49 -2.30408 -0.165238 0
M  V30 80868 C 1827.59 -2.66048 -1.25118 0
M  V30 80869 N 1827.54 -1.70787 -2.16813 0
M  V30 80870 C 1827.74 -4.02732 -1.64413 0
M  V30 80871 C 1827.79 -4.9488 -0.63991 0
M  V30 80872 H 1830.53 -8.65017 0.777072 0
M  V30 80873 H 1830.8 -6.90173 0.474152 0
M  V30 80874 H 1829.93 -7.66642 2.79492 0
M  V30 80875 H 1827.28 -5.16254 2.65229 0
M  V30 80876 H 1827 -7.06532 0.329431 0
M  V30 80877 H 1826.01 -6.91023 1.82047 0
M  V30 80878 H 1827.84 -8.90873 1.62657 0
M  V30 80879 H 1827.91 -6.00104 -0.892197 0
M  V30 80880 H 1827.81 -4.31733 -2.69229 0
M  V30 80881 H 1827.42 -0.724835 -1.8844 0
M  V30 80882 H 1827.62 -1.94716 -3.16734 0
M  V30 80883 P 1825.97 -8.03563 3.84925 0
M  V30 80884 O 1825.75 -8.85821 5.0569 0
M  V30 80885 O 1825.18 -8.41101 2.65469 0
M  V30 80886 O 1825.72 -6.4965 4.18908 0
M  V30 80887 C 1826.66 -5.81037 5.05421 0
M  V30 80888 C 1825.93 -4.78366 5.89277 0
M  V30 80889 O 1825.72 -3.58302 5.08433 0
M  V30 80890 C 1824.53 -5.17448 6.36119 0
M  V30 80891 O 1824.14 -4.45271 7.53232 0
M  V30 80892 C 1823.65 -4.74639 5.19936 0
M  V30 80893 C 1824.36 -3.49432 4.70418 0
M  V30 80894 N 1824.31 -3.31776 3.22945 0
M  V30 80895 H 1827.15 -6.54213 5.71376 0
M  V30 80896 H 1827.42 -5.30492 4.44033 0
M  V30 80897 H 1826.55 -4.55889 6.76652 0
M  V30 80898 P 1822.59 -4.23843 7.83734 0
M  V30 80899 O 1822.37 -4.19407 9.29784 0
M  V30 80900 O 1821.8 -5.24426 7.09156 0
M  V30 80901 O 1822.34 -2.7935 7.20758 0
M  V30 80902 C 1823.28 -1.7299 7.50419 0
M  V30 80903 C 1822.55 -0.406376 7.57911 0
M  V30 80904 O 1822.34 0.0897726 6.21935 0
M  V30 80905 C 1821.15 -0.447224 8.1878 0
M  V30 80906 O 1820.76 0.825065 8.71101 0
M  V30 80907 C 1820.27 -0.783801 6.99623 0
M  V30 80908 C 1820.98 -0.0619192 5.85967 0
M  V30 80909 N 1820.93 -0.7859 4.56281 0
M  V30 80910 H 1823.77 -1.93423 8.4679 0
M  V30 80911 H 1824.04 -1.68181 6.71046 0
M  V30 80912 H 1823.17 0.289041 8.15388 0
M  V30 80913 P 1819.21 1.17771 8.83182 0
M  V30 80914 O 1818.99 2.07206 9.98732 0
M  V30 80915 O 1818.42 -0.0743816 8.81969 0
M  V30 80916 O 1818.96 1.97652 7.47304 0
M  V30 80917 C 1819.9 3.01133 7.08783 0
M  V30 80918 C 1819.17 4.12613 6.37049 0
M  V30 80919 O 1818.96 3.72827 4.97879 0
M  V30 80920 C 1817.77 4.45085 6.88694 0
M  V30 80921 O 1817.38 5.7877 6.5624 0
M  V30 80922 C 1816.89 3.47817 6.12078 0
M  V30 80923 C 1817.6 3.39414 4.77697 0
M  V30 80924 N 1817.55 2.04615 4.15333 0
M  V30 80925 H 1820.39 3.41248 7.98759 0
M  V30 80926 H 1820.66 2.5837 6.41742 0
M  V30 80927 H 1819.79 5.02657 6.42673 0
M  V30 80928 P 1815.83 6.144 6.45285 0
M  V30 80929 O 1815.61 7.54673 6.86199 0
M  V30 80930 O 1815.04 5.12391 7.179 0
M  V30 80931 O 1815.58 5.99158 4.88404 0
M  V30 80932 C 1816.52 6.60234 3.96415 0
M  V30 80933 C 1815.79 7.08259 2.72856 0
M  V30 80934 O 1815.58 5.9427 1.83651 0
M  V30 80935 C 1814.39 7.64886 2.9555 0
M  V30 80936 O 1814 8.53963 1.90717 0
M  V30 80937 C 1813.51 6.4116 2.90739 0
M  V30 80938 C 1814.22 5.55375 1.86963 0
M  V30 80939 N 1814.17 4.09664 2.15742 0
M  V30 80940 H 1817.01 7.45574 4.45629 0
M  V30 80941 H 1817.28 5.86232 3.67314 0
M  V30 80942 H 1816.41 7.84412 2.24479 0
M  V30 80943 P 1812.45 8.7635 1.60911 0
M  V30 80944 O 1812.23 10.1388 1.11561 0
M  V30 80945 O 1811.66 8.36503 2.79617 0
M  V30 80946 O 1812.2 7.71806 0.42951 0
M  V30 80947 C 1813.14 7.67148 -0.673689 0
M  V30 80948 C 1812.41 7.33374 -1.95559 0
M  V30 80949 O 1812.2 5.88721 -2.00726 0
M  V30 80950 C 1811.01 7.92526 -2.10483 0
M  V30 80951 O 1810.62 8.02971 -3.47653 0
M  V30 80952 C 1810.13 6.89602 -1.41652 0
M  V30 80953 C 1810.84 5.59201 -1.75185 0
M  V30 80954 N 1810.79 4.58235 -0.662552 0
M  V30 80955 H 1813.63 8.65116 -0.777161 0
M  V30 80956 H 1813.9 6.90173 -0.474152 0
M  V30 80957 H 1813.03 7.66548 -2.79458 0
M  V30 80958 P 1809.07 8.03563 -3.84925 0
M  V30 80959 O 1808.85 8.85821 -5.0569 0
M  V30 80960 O 1808.28 8.41101 -2.65469 0
M  V30 80961 O 1808.82 6.4965 -4.18908 0
M  V30 80962 C 1809.76 5.81037 -5.05421 0
M  V30 80963 C 1809.03 4.78366 -5.89277 0
M  V30 80964 O 1808.82 3.58302 -5.08433 0
M  V30 80965 C 1807.63 5.17448 -6.36119 0
M  V30 80966 O 1807.24 4.45271 -7.53232 0
M  V30 80967 C 1806.75 4.74639 -5.19936 0
M  V30 80968 C 1807.46 3.49432 -4.70418 0
M  V30 80969 N 1807.41 3.32099 -3.22613 0
M  V30 80970 H 1810.25 6.54213 -5.71376 0
M  V30 80971 H 1810.52 5.30936 -4.43503 0
M  V30 80972 H 1809.65 4.55889 -6.76652 0
M  V30 80973 H 1807 2.61715 -5.17932 0
M  V30 80974 H 1806.72 5.52155 -4.41878 0
M  V30 80975 H 1805.73 4.51981 -5.53374 0
M  V30 80976 H 1807.56 6.25124 -6.55234 0
M  V30 80977 P 1805.69 4.23843 -7.83734 0
M  V30 80978 O 1805.47 4.19407 -9.29784 0
M  V30 80979 O 1804.9 5.24426 -7.09156 0
M  V30 80980 O 1805.44 2.7935 -7.20758 0
M  V30 80981 C 1806.38 1.7299 -7.50419 0
M  V30 80982 C 1805.65 0.406376 -7.57911 0
M  V30 80983 O 1805.44 -0.0897726 -6.21935 0
M  V30 80984 C 1804.25 0.447224 -8.1878 0
M  V30 80985 O 1803.86 -0.825065 -8.71101 0
M  V30 80986 C 1803.37 0.783801 -6.99623 0
M  V30 80987 C 1804.08 0.0619192 -5.85967 0
M  V30 80988 N 1804.03 0.7859 -4.56281 0
M  V30 80989 H 1806.87 1.93423 -8.4679 0
M  V30 80990 H 1807.14 1.68181 -6.71046 0
M  V30 80991 H 1806.27 -0.289041 -8.15388 0
M  V30 80992 P 1802.31 -1.17771 -8.83182 0
M  V30 80993 O 1802.09 -2.07206 -9.98732 0
M  V30 80994 O 1801.52 0.0743816 -8.81969 0
M  V30 80995 O 1802.06 -1.97652 -7.47304 0
M  V30 80996 C 1803 -3.01133 -7.08783 0
M  V30 80997 C 1802.27 -4.12613 -6.37049 0
M  V30 80998 O 1802.06 -3.72827 -4.97879 0
M  V30 80999 C 1800.87 -4.45085 -6.88694 0
M  V30 81000 O 1800.48 -5.7877 -6.5624 0
M  V30 81001 C 1799.99 -3.47817 -6.12078 0
M  V30 81002 C 1800.7 -3.39414 -4.77697 0
M  V30 81003 N 1800.65 -2.04199 -4.15538 0
M  V30 81004 H 1803.49 -3.41248 -7.98759 0
M  V30 81005 H 1803.76 -2.57728 -6.42 0
M  V30 81006 H 1802.89 -5.02657 -6.42673 0
M  V30 81007 H 1800.24 -4.11708 -4.08956 0
M  V30 81008 H 1799.96 -2.49626 -6.61679 0
M  V30 81009 H 1798.97 -3.8662 -6.00862 0
M  V30 81010 H 1800.8 -4.29991 -7.97006 0
M  V30 81011 P 1798.93 -6.144 -6.45285 0
M  V30 81012 O 1798.71 -7.54673 -6.86199 0
M  V30 81013 O 1798.14 -5.12391 -7.179 0
M  V30 81014 O 1798.68 -5.99158 -4.88404 0
M  V30 81015 C 1799.62 -6.60234 -3.96415 0
M  V30 81016 C 1798.89 -7.08259 -2.72856 0
M  V30 81017 O 1798.68 -5.9427 -1.83651 0
M  V30 81018 C 1797.49 -7.64886 -2.9555 0
M  V30 81019 O 1797.1 -8.53963 -1.90717 0
M  V30 81020 C 1796.61 -6.4116 -2.90739 0
M  V30 81021 C 1797.32 -5.55375 -1.86963 0
M  V30 81022 N 1797.27 -4.09664 -2.15742 0
M  V30 81023 C 1797.35 -3.44381 -3.37233 0
M  V30 81024 N 1797.27 -2.14131 -3.28347 0
M  V30 81025 C 1797.13 -1.90247 -1.91588 0
M  V30 81026 C 1797 -0.683992 -1.20892 0
M  V30 81027 O 1796.98 0.46618 -1.64523 0
M  V30 81028 N 1796.88 -0.903396 0.173998 0
M  V30 81029 C 1796.88 -2.14171 0.784879 0
M  V30 81030 N 1796.75 -2.1435 2.11317 0
M  V30 81031 N 1797.01 -3.28784 0.119316 0
M  V30 81032 C 1797.13 -3.0977 -1.22194 0
M  V30 81033 H 1800.11 -7.45574 -4.45629 0
M  V30 81034 H 1800.38 -5.86232 -3.67314 0
M  V30 81035 H 1799.51 -7.84412 -2.24479 0
M  V30 81036 H 1796.86 -5.73556 -0.888715 0
M  V30 81037 H 1796.58 -5.9096 -3.88638 0
M  V30 81038 H 1795.59 -6.66053 -2.58894 0
M  V30 81039 H 1797.42 -8.16429 -3.92093 0
M  V30 81040 H 1797.47 -3.96785 -4.32043 0
M  V30 81041 H 1796.79 -0.0999567 0.761467 0
M  V30 81042 H 1796.75 -3.03436 2.63076 0
M  V30 81043 H 1796.65 -1.25228 2.62233 0
M  V30 81044 P 1795.55 -8.7635 -1.60911 0
M  V30 81045 O 1795.33 -10.1388 -1.11561 0
M  V30 81046 O 1794.76 -8.36503 -2.79617 0
M  V30 81047 O 1795.3 -7.71906 -0.429565 0
M  V30 81048 C 1796.24 -7.67148 0.673689 0
M  V30 81049 C 1795.51 -7.33666 1.94851 0
M  V30 81050 O 1795.3 -5.88816 2.00759 0
M  V30 81051 C 1794.11 -7.92526 2.10483 0
M  V30 81052 O 1793.72 -8.03063 3.47693 0
M  V30 81053 C 1793.23 -6.89602 1.41652 0
M  V30 81054 C 1793.94 -5.59201 1.75185 0
M  V30 81055 N 1793.89 -4.58235 0.662552 0
M  V30 81056 C 1793.74 -3.24451 1.01643 0
M  V30 81057 O 1793.65 -2.94958 2.21722 0
M  V30 81058 N 1793.69 -2.30408 -0.165238 0
M  V30 81059 C 1793.79 -2.66048 -1.25118 0
M  V30 81060 N 1793.74 -1.70787 -2.16813 0
M  V30 81061 C 1793.94 -4.02732 -1.64413 0
M  V30 81062 C 1793.99 -4.9488 -0.63991 0
M  V30 81063 H 1796.73 -8.65017 0.777072 0
M  V30 81064 H 1797 -6.90173 0.474152 0
M  V30 81065 H 1796.13 -7.66642 2.79492 0
M  V30 81066 H 1793.48 -5.16254 2.65229 0
M  V30 81067 H 1793.2 -7.06532 0.329431 0
M  V30 81068 H 1792.21 -6.91023 1.82047 0
M  V30 81069 H 1794.04 -8.90873 1.62657 0
M  V30 81070 H 1794.11 -6.00104 -0.892197 0
M  V30 81071 H 1794.01 -4.31733 -2.69229 0
M  V30 81072 H 1793.62 -0.724835 -1.8844 0
M  V30 81073 H 1793.82 -1.94716 -3.16734 0
M  V30 81074 P 1792.17 -8.03563 3.84925 0
M  V30 81075 O 1791.95 -8.85821 5.0569 0
M  V30 81076 O 1791.38 -8.41101 2.65469 0
M  V30 81077 O 1791.92 -6.4965 4.18908 0
M  V30 81078 C 1792.86 -5.81037 5.05421 0
M  V30 81079 C 1792.13 -4.78366 5.89277 0
M  V30 81080 O 1791.92 -3.58302 5.08433 0
M  V30 81081 C 1790.73 -5.17448 6.36119 0
M  V30 81082 O 1790.34 -4.45271 7.53232 0
M  V30 81083 C 1789.85 -4.74639 5.19936 0
M  V30 81084 C 1790.56 -3.49432 4.70418 0
M  V30 81085 N 1790.51 -3.31776 3.22945 0
M  V30 81086 H 1793.35 -6.54213 5.71376 0
M  V30 81087 H 1793.62 -5.30492 4.44033 0
M  V30 81088 H 1792.75 -4.55889 6.76652 0
M  V30 81089 P 1788.79 -4.23843 7.83734 0
M  V30 81090 O 1788.57 -4.19407 9.29784 0
M  V30 81091 O 1788 -5.24426 7.09156 0
M  V30 81092 O 1788.54 -2.7935 7.20758 0
M  V30 81093 C 1789.48 -1.7299 7.50419 0
M  V30 81094 C 1788.75 -0.406376 7.57911 0
M  V30 81095 O 1788.54 0.0897726 6.21935 0
M  V30 81096 C 1787.35 -0.447224 8.1878 0
M  V30 81097 O 1786.96 0.825065 8.71101 0
M  V30 81098 C 1786.47 -0.783801 6.99623 0
M  V30 81099 C 1787.18 -0.0619192 5.85967 0
M  V30 81100 N 1787.13 -0.7859 4.56281 0
M  V30 81101 H 1789.97 -1.93423 8.4679 0
M  V30 81102 H 1790.24 -1.68181 6.71046 0
M  V30 81103 H 1789.37 0.289041 8.15388 0
M  V30 81104 P 1785.41 1.17771 8.83182 0
M  V30 81105 O 1785.19 2.07206 9.98732 0
M  V30 81106 O 1784.62 -0.0743816 8.81969 0
M  V30 81107 O 1785.16 1.97652 7.47304 0
M  V30 81108 C 1786.1 3.01133 7.08783 0
M  V30 81109 C 1785.37 4.12613 6.37049 0
M  V30 81110 O 1785.16 3.72827 4.97879 0
M  V30 81111 C 1783.97 4.45085 6.88694 0
M  V30 81112 O 1783.58 5.7877 6.5624 0
M  V30 81113 C 1783.09 3.47817 6.12078 0
M  V30 81114 C 1783.8 3.39414 4.77697 0
M  V30 81115 N 1783.75 2.04615 4.15333 0
M  V30 81116 H 1786.59 3.41248 7.98759 0
M  V30 81117 H 1786.86 2.5837 6.41742 0
M  V30 81118 H 1785.99 5.02657 6.42673 0
M  V30 81119 P 1782.03 6.144 6.45285 0
M  V30 81120 O 1781.81 7.54673 6.86199 0
M  V30 81121 O 1781.24 5.12391 7.179 0
M  V30 81122 O 1781.78 5.99158 4.88404 0
M  V30 81123 C 1782.72 6.60234 3.96415 0
M  V30 81124 C 1781.99 7.08259 2.72856 0
M  V30 81125 O 1781.78 5.9427 1.83651 0
M  V30 81126 C 1780.59 7.64886 2.9555 0
M  V30 81127 O 1780.2 8.53963 1.90717 0
M  V30 81128 C 1779.71 6.4116 2.90739 0
M  V30 81129 C 1780.42 5.55375 1.86963 0
M  V30 81130 N 1780.37 4.09664 2.15742 0
M  V30 81131 H 1783.21 7.45574 4.45629 0
M  V30 81132 H 1783.48 5.86232 3.67314 0
M  V30 81133 H 1782.61 7.84412 2.24479 0
M  V30 81134 P 1778.65 8.7635 1.60911 0
M  V30 81135 O 1778.43 10.1388 1.11561 0
M  V30 81136 O 1777.86 8.36503 2.79617 0
M  V30 81137 O 1778.4 7.71806 0.42951 0
M  V30 81138 C 1779.34 7.67148 -0.673689 0
M  V30 81139 C 1778.61 7.33374 -1.95559 0
M  V30 81140 O 1778.4 5.88721 -2.00726 0
M  V30 81141 C 1777.21 7.92526 -2.10483 0
M  V30 81142 O 1776.82 8.02971 -3.47653 0
M  V30 81143 C 1776.33 6.89602 -1.41652 0
M  V30 81144 C 1777.04 5.59201 -1.75185 0
M  V30 81145 N 1776.99 4.58235 -0.662552 0
M  V30 81146 H 1779.83 8.65116 -0.777161 0
M  V30 81147 H 1780.1 6.90173 -0.474152 0
M  V30 81148 H 1779.23 7.66548 -2.79458 0
M  V30 81149 P 1775.27 8.03563 -3.84925 0
M  V30 81150 O 1775.05 8.85821 -5.0569 0
M  V30 81151 O 1774.48 8.41101 -2.65469 0
M  V30 81152 O 1775.02 6.4965 -4.18908 0
M  V30 81153 C 1775.96 5.81037 -5.05421 0
M  V30 81154 C 1775.23 4.78366 -5.89277 0
M  V30 81155 O 1775.02 3.58302 -5.08433 0
M  V30 81156 C 1773.83 5.17448 -6.36119 0
M  V30 81157 O 1773.44 4.45271 -7.53232 0
M  V30 81158 C 1772.95 4.74639 -5.19936 0
M  V30 81159 C 1773.66 3.49432 -4.70418 0
M  V30 81160 N 1773.61 3.31776 -3.22945 0
M  V30 81161 H 1776.45 6.54213 -5.71376 0
M  V30 81162 H 1776.72 5.30492 -4.44033 0
M  V30 81163 H 1775.85 4.55889 -6.76652 0
M  V30 81164 P 1771.89 4.23843 -7.83734 0
M  V30 81165 O 1771.67 4.19407 -9.29784 0
M  V30 81166 O 1771.1 5.24426 -7.09156 0
M  V30 81167 O 1771.64 2.7935 -7.20758 0
M  V30 81168 C 1772.58 1.7299 -7.50419 0
M  V30 81169 C 1771.85 0.406376 -7.57911 0
M  V30 81170 O 1771.64 -0.0897726 -6.21935 0
M  V30 81171 C 1770.45 0.447224 -8.1878 0
M  V30 81172 O 1770.06 -0.825065 -8.71101 0
M  V30 81173 C 1769.57 0.783801 -6.99623 0
M  V30 81174 C 1770.28 0.0619192 -5.85967 0
M  V30 81175 N 1770.23 0.790462 -4.56202 0
M  V30 81176 H 1773.07 1.93423 -8.4679 0
M  V30 81177 H 1773.34 1.68852 -6.70877 0
M  V30 81178 H 1772.47 -0.289041 -8.15388 0
M  V30 81179 H 1769.82 -0.927006 -5.72848 0
M  V30 81180 H 1769.54 1.86973 -6.82036 0
M  V30 81181 H 1768.55 0.403953 -7.13357 0
M  V30 81182 H 1770.38 1.20599 -8.97534 0
M  V30 81183 P 1768.51 -1.17771 -8.83182 0
M  V30 81184 O 1768.29 -2.07206 -9.98732 0
M  V30 81185 O 1767.72 0.0743816 -8.81969 0
M  V30 81186 O 1768.26 -1.97652 -7.47304 0
M  V30 81187 C 1769.2 -3.01133 -7.08783 0
M  V30 81188 C 1768.47 -4.12613 -6.37049 0
M  V30 81189 O 1768.26 -3.72827 -4.97879 0
M  V30 81190 C 1767.07 -4.45085 -6.88694 0
M  V30 81191 O 1766.68 -5.7877 -6.5624 0
M  V30 81192 C 1766.19 -3.47817 -6.12078 0
M  V30 81193 C 1766.9 -3.39414 -4.77697 0
M  V30 81194 N 1766.85 -2.04615 -4.15333 0
M  V30 81195 H 1769.69 -3.41248 -7.98759 0
M  V30 81196 H 1769.96 -2.5837 -6.41742 0
M  V30 81197 H 1769.09 -5.02657 -6.42673 0
M  V30 81198 P 1765.13 -6.144 -6.45285 0
M  V30 81199 O 1764.91 -7.54673 -6.86199 0
M  V30 81200 O 1764.34 -5.12391 -7.179 0
M  V30 81201 O 1764.88 -5.99158 -4.88404 0
M  V30 81202 C 1765.82 -6.60062 -3.96313 0
M  V30 81203 C 1765.09 -7.08259 -2.72856 0
M  V30 81204 O 1764.88 -5.9427 -1.83651 0
M  V30 81205 C 1763.69 -7.65087 -2.94749 0
M  V30 81206 O 1763.3 -8.53963 -1.90717 0
M  V30 81207 C 1762.81 -6.41069 -2.90698 0
M  V30 81208 C 1763.52 -5.5528 -1.86931 0
M  V30 81209 N 1763.47 -4.09575 -2.15696 0
M  V30 81210 C 1763.32 -3.24249 -1.08435 0
M  V30 81211 O 1763.23 -3.63946 0.0628747 0
M  V30 81212 N 1763.28 -1.90009 -1.39973 0
M  V30 81213 C 1763.37 -1.34884 -2.65614 0
M  V30 81214 O 1763.32 -0.123716 -2.81728 0
M  V30 81215 C 1763.52 -2.3145 -3.71736 0
M  V30 81216 C 1763.63 -1.75913 -5.10438 0
M  V30 81217 C 1763.57 -3.63518 -3.44754 0
M  V30 81218 H 1766.31 -7.45402 -4.45526 0
M  V30 81219 H 1766.58 -5.86062 -3.67208 0
M  V30 81220 H 1765.71 -7.84412 -2.24479 0
M  V30 81221 H 1763.06 -5.73358 -0.888409 0
M  V30 81222 H 1762.78 -5.90877 -3.88583 0
M  V30 81223 H 1761.79 -6.65867 -2.58821 0
M  V30 81224 H 1763.62 -8.16248 -3.92006 0
M  V30 81225 H 1763.69 -4.34551 -4.26383 0
M  V30 81226 H 1762.66 -1.85471 -5.61775 0
M  V30 81227 H 1764.4 -2.31364 -5.66257 0
M  V30 81228 H 1763.91 -0.695936 -5.05229 0
M  V30 81229 H 1763.17 -1.26277 -0.63625 0
M  V30 81230 P 1761.75 -8.7635 -1.60911 0
M  V30 81231 O 1761.53 -10.1388 -1.11561 0
M  V30 81232 O 1760.96 -8.36503 -2.79617 0
M  V30 81233 O 1761.5 -7.71806 -0.42951 0
M  V30 81234 C 1762.44 -7.67148 0.673689 0
M  V30 81235 C 1761.71 -7.33374 1.95559 0
M  V30 81236 O 1761.5 -5.88721 2.00726 0
M  V30 81237 C 1760.31 -7.92526 2.10483 0
M  V30 81238 O 1759.92 -8.02971 3.47653 0
M  V30 81239 C 1759.43 -6.89602 1.41652 0
M  V30 81240 C 1760.14 -5.59201 1.75185 0
M  V30 81241 N 1760.09 -4.58301 0.657969 0
M  V30 81242 H 1762.93 -8.65116 0.777161 0
M  V30 81243 H 1763.2 -6.9022 0.46725 0
M  V30 81244 H 1762.33 -7.66548 2.79458 0
M  V30 81245 H 1759.68 -5.16165 2.65183 0
M  V30 81246 H 1759.4 -7.06433 0.329384 0
M  V30 81247 H 1758.41 -6.90926 1.82021 0
M  V30 81248 H 1760.24 -8.90873 1.62657 0
M  V30 81249 P 1758.37 -8.03563 3.84925 0
M  V30 81250 O 1758.15 -8.85821 5.0569 0
M  V30 81251 O 1757.58 -8.41101 2.65469 0
M  V30 81252 O 1758.12 -6.4965 4.18908 0
M  V30 81253 C 1759.06 -5.81037 5.05421 0
M  V30 81254 C 1758.33 -4.78366 5.89277 0
M  V30 81255 O 1758.12 -3.58302 5.08433 0
M  V30 81256 C 1756.93 -5.17448 6.36119 0
M  V30 81257 O 1756.54 -4.45271 7.53232 0
M  V30 81258 C 1756.05 -4.74639 5.19936 0
M  V30 81259 C 1756.76 -3.49432 4.70418 0
M  V30 81260 N 1756.71 -3.31776 3.22945 0
M  V30 81261 H 1759.55 -6.54213 5.71376 0
M  V30 81262 H 1759.82 -5.30492 4.44033 0
M  V30 81263 H 1758.95 -4.55889 6.76652 0
M  V30 81264 P 1754.99 -4.23843 7.83734 0
M  V30 81265 O 1754.77 -4.19407 9.29784 0
M  V30 81266 O 1754.2 -5.24426 7.09156 0
M  V30 81267 O 1754.74 -2.7935 7.20758 0
M  V30 81268 C 1755.68 -1.7299 7.50419 0
M  V30 81269 C 1754.95 -0.406376 7.57911 0
M  V30 81270 O 1754.74 0.0897726 6.21935 0
M  V30 81271 C 1753.55 -0.447224 8.1878 0
M  V30 81272 O 1753.16 0.825065 8.71101 0
M  V30 81273 C 1752.67 -0.783801 6.99623 0
M  V30 81274 C 1753.38 -0.0619192 5.85967 0
M  V30 81275 N 1753.33 -0.7859 4.56281 0
M  V30 81276 H 1756.17 -1.93423 8.4679 0
M  V30 81277 H 1756.44 -1.68181 6.71046 0
M  V30 81278 H 1755.57 0.289041 8.15388 0
M  V30 81279 P 1751.61 1.17771 8.83182 0
M  V30 81280 O 1751.39 2.07206 9.98732 0
M  V30 81281 O 1750.82 -0.0743816 8.81969 0
M  V30 81282 O 1751.36 1.97652 7.47304 0
M  V30 81283 C 1752.3 3.01133 7.08783 0
M  V30 81284 C 1751.57 4.12613 6.37049 0
M  V30 81285 O 1751.36 3.72827 4.97879 0
M  V30 81286 C 1750.17 4.45085 6.88694 0
M  V30 81287 O 1749.78 5.7877 6.5624 0
M  V30 81288 C 1749.29 3.47817 6.12078 0
M  V30 81289 C 1750 3.39414 4.77697 0
M  V30 81290 N 1749.95 2.04615 4.15333 0
M  V30 81291 H 1752.79 3.41248 7.98759 0
M  V30 81292 H 1753.06 2.5837 6.41742 0
M  V30 81293 H 1752.19 5.02657 6.42673 0
M  V30 81294 P 1748.23 6.144 6.45285 0
M  V30 81295 O 1748.01 7.54673 6.86199 0
M  V30 81296 O 1747.44 5.12391 7.179 0
M  V30 81297 O 1747.98 5.99158 4.88404 0
M  V30 81298 C 1748.92 6.60234 3.96415 0
M  V30 81299 C 1748.19 7.08259 2.72856 0
M  V30 81300 O 1747.98 5.9427 1.83651 0
M  V30 81301 C 1746.79 7.64886 2.9555 0
M  V30 81302 O 1746.4 8.53963 1.90717 0
M  V30 81303 C 1745.91 6.4116 2.90739 0
M  V30 81304 C 1746.62 5.55375 1.86963 0
M  V30 81305 N 1746.57 4.09664 2.15742 0
M  V30 81306 H 1749.41 7.45574 4.45629 0
M  V30 81307 H 1749.68 5.86232 3.67314 0
M  V30 81308 H 1748.81 7.84412 2.24479 0
M  V30 81309 P 1744.85 8.7635 1.60911 0
M  V30 81310 O 1744.63 10.1388 1.11561 0
M  V30 81311 O 1744.06 8.36503 2.79617 0
M  V30 81312 O 1744.6 7.71806 0.42951 0
M  V30 81313 C 1745.54 7.67148 -0.673689 0
M  V30 81314 C 1744.81 7.33374 -1.95559 0
M  V30 81315 O 1744.6 5.88721 -2.00726 0
M  V30 81316 C 1743.41 7.92526 -2.10483 0
M  V30 81317 O 1743.02 8.02971 -3.47653 0
M  V30 81318 C 1742.53 6.89602 -1.41652 0
M  V30 81319 C 1743.24 5.59201 -1.75185 0
M  V30 81320 N 1743.19 4.58235 -0.662552 0
M  V30 81321 H 1746.03 8.65116 -0.777161 0
M  V30 81322 H 1746.3 6.90173 -0.474152 0
M  V30 81323 H 1745.43 7.66548 -2.79458 0
M  V30 81324 P 1741.47 8.03563 -3.84925 0
M  V30 81325 O 1741.25 8.85821 -5.0569 0
M  V30 81326 O 1740.68 8.41101 -2.65469 0
M  V30 81327 O 1741.22 6.4965 -4.18908 0
M  V30 81328 C 1742.16 5.81037 -5.05421 0
M  V30 81329 C 1741.43 4.78366 -5.89277 0
M  V30 81330 O 1741.22 3.58302 -5.08433 0
M  V30 81331 C 1740.03 5.17448 -6.36119 0
M  V30 81332 O 1739.64 4.45271 -7.53232 0
M  V30 81333 C 1739.15 4.74639 -5.19936 0
M  V30 81334 C 1739.86 3.49432 -4.70418 0
M  V30 81335 N 1739.81 3.32099 -3.22613 0
M  V30 81336 H 1742.65 6.54213 -5.71376 0
M  V30 81337 H 1742.92 5.30936 -4.43503 0
M  V30 81338 H 1742.05 4.55889 -6.76652 0
M  V30 81339 H 1739.4 2.61715 -5.17932 0
M  V30 81340 H 1739.12 5.52155 -4.41878 0
M  V30 81341 H 1738.13 4.51981 -5.53374 0
M  V30 81342 H 1739.96 6.25124 -6.55234 0
M  V30 81343 P 1738.09 4.23843 -7.83734 0
M  V30 81344 O 1737.87 4.19407 -9.29784 0
M  V30 81345 O 1737.3 5.24426 -7.09156 0
M  V30 81346 O 1737.84 2.79386 -7.20852 0
M  V30 81347 C 1738.78 1.7299 -7.50419 0
M  V30 81348 C 1738.05 0.41401 -7.5797 0
M  V30 81349 O 1737.84 -0.089787 -6.22035 0
M  V30 81350 C 1736.65 0.447224 -8.1878 0
M  V30 81351 O 1736.26 -0.825159 -8.71201 0
M  V30 81352 C 1735.77 0.783801 -6.99623 0
M  V30 81353 C 1736.48 0.0619192 -5.85967 0
M  V30 81354 N 1736.43 0.7859 -4.56281 0
M  V30 81355 C 1736.28 0.0359258 -3.39981 0
M  V30 81356 O 1736.19 -1.19723 -3.49038 0
M  V30 81357 N 1736.23 0.869151 -2.14025 0
M  V30 81358 C 1736.33 2.01207 -2.14363 0
M  V30 81359 N 1736.28 2.58978 -0.954287 0
M  V30 81360 C 1736.48 2.80817 -3.32215 0
M  V30 81361 C 1736.53 2.13785 -4.50884 0
M  V30 81362 H 1739.27 1.93401 -8.46693 0
M  V30 81363 H 1739.54 1.68181 -6.71046 0
M  V30 81364 H 1738.67 -0.289076 -8.15488 0
M  V30 81365 H 1736.02 -0.927166 -5.72947 0
M  V30 81366 H 1735.74 1.87 -6.82132 0
M  V30 81367 H 1734.75 0.404009 -7.13457 0
M  V30 81368 H 1736.58 1.20599 -8.97534 0
M  V30 81369 H 1736.65 2.70295 -5.43162 0
M  V30 81370 H 1736.55 3.89465 -3.27406 0
M  V30 81371 H 1736.16 2.01616 -0.107046 0
M  V30 81372 H 1736.36 3.61403 -0.873101 0
M  V30 81373 P 1734.71 -1.17771 -8.83182 0
M  V30 81374 O 1734.49 -2.07206 -9.98732 0
M  V30 81375 O 1733.92 0.0743816 -8.81969 0
M  V30 81376 O 1734.46 -1.97652 -7.47304 0
M  V30 81377 C 1735.4 -3.01133 -7.08783 0
M  V30 81378 C 1734.67 -4.12613 -6.37049 0
M  V30 81379 O 1734.46 -3.72827 -4.97879 0
M  V30 81380 C 1733.27 -4.45085 -6.88694 0
M  V30 81381 O 1732.88 -5.7877 -6.5624 0
M  V30 81382 C 1732.39 -3.47817 -6.12078 0
M  V30 81383 C 1733.1 -3.39414 -4.77697 0
M  V30 81384 N 1733.05 -2.04199 -4.15538 0
M  V30 81385 H 1735.89 -3.41248 -7.98759 0
M  V30 81386 H 1736.16 -2.57728 -6.42 0
M  V30 81387 H 1735.29 -5.02657 -6.42673 0
M  V30 81388 H 1732.64 -4.11708 -4.08956 0
M  V30 81389 H 1732.36 -2.49626 -6.61679 0
M  V30 81390 H 1731.37 -3.8662 -6.00862 0
M  V30 81391 H 1733.2 -4.29991 -7.97006 0
M  V30 81392 P 1731.33 -6.144 -6.45285 0
M  V30 81393 O 1731.11 -7.54673 -6.86199 0
M  V30 81394 O 1730.54 -5.12391 -7.179 0
M  V30 81395 O 1731.08 -5.99158 -4.88404 0
M  V30 81396 C 1732.02 -6.60234 -3.96415 0
M  V30 81397 C 1731.29 -7.08259 -2.72856 0
M  V30 81398 O 1731.08 -5.9427 -1.83651 0
M  V30 81399 C 1729.89 -7.64886 -2.9555 0
M  V30 81400 O 1729.5 -8.53963 -1.90717 0
M  V30 81401 C 1729.01 -6.4116 -2.90739 0
M  V30 81402 C 1729.72 -5.55375 -1.86963 0
M  V30 81403 N 1729.67 -4.09448 -2.16152 0
M  V30 81404 C 1729.75 -3.46824 -3.37593 0
M  V30 81405 N 1729.68 -2.17422 -3.29777 0
M  V30 81406 C 1729.53 -1.93065 -1.94427 0
M  V30 81407 C 1729.4 -0.738053 -1.20141 0
M  V30 81408 N 1729.39 0.474256 -1.74676 0
M  V30 81409 N 1729.28 -0.850049 0.13045 0
M  V30 81410 C 1729.29 -2.06169 0.676992 0
M  V30 81411 N 1729.41 -3.23842 0.101312 0
M  V30 81412 C 1729.53 -3.09402 -1.23122 0
M  V30 81413 H 1732.51 -7.45574 -4.45629 0
M  V30 81414 H 1732.78 -5.85864 -3.679 0
M  V30 81415 H 1731.91 -7.84412 -2.24479 0
M  V30 81416 H 1729.26 -5.73457 -0.888562 0
M  V30 81417 H 1728.98 -5.90877 -3.88583 0
M  V30 81418 H 1727.99 -6.6596 -2.58858 0
M  V30 81419 H 1729.82 -8.16339 -3.92049 0
M  V30 81420 H 1729.86 -4.00505 -4.3174 0
M  V30 81421 H 1729.48 0.581337 -2.76658 0
M  V30 81422 H 1729.29 1.30811 -1.14888 0
M  V30 81423 H 1729.18 -2.08295 1.75542 0
M  V30 81424 P 1727.95 -8.7635 -1.60911 0
M  V30 81425 O 1727.73 -10.1388 -1.11561 0
M  V30 81426 O 1727.16 -8.36503 -2.79617 0
M  V30 81427 O 1727.7 -7.71806 -0.42951 0
M  V30 81428 C 1728.64 -7.67148 0.673689 0
M  V30 81429 C 1727.91 -7.33374 1.95559 0
M  V30 81430 O 1727.7 -5.88721 2.00726 0
M  V30 81431 C 1726.51 -7.92526 2.10483 0
M  V30 81432 O 1726.12 -8.02971 3.47653 0
M  V30 81433 C 1725.63 -6.89602 1.41652 0
M  V30 81434 C 1726.34 -5.59201 1.75185 0
M  V30 81435 N 1726.29 -4.58235 0.662552 0
M  V30 81436 H 1729.13 -8.65116 0.777161 0
M  V30 81437 H 1729.4 -6.90173 0.474152 0
M  V30 81438 H 1728.53 -7.66548 2.79458 0
M  V30 81439 P 1724.57 -8.03563 3.84925 0
M  V30 81440 O 1724.35 -8.85821 5.0569 0
M  V30 81441 O 1723.78 -8.41101 2.65469 0
M  V30 81442 O 1724.32 -6.4965 4.18908 0
M  V30 81443 C 1725.26 -5.81037 5.05421 0
M  V30 81444 C 1724.53 -4.78366 5.89277 0
M  V30 81445 O 1724.32 -3.58302 5.08433 0
M  V30 81446 C 1723.13 -5.17448 6.36119 0
M  V30 81447 O 1722.74 -4.45271 7.53232 0
M  V30 81448 C 1722.25 -4.74639 5.19936 0
M  V30 81449 C 1722.96 -3.49432 4.70418 0
M  V30 81450 N 1722.91 -3.31776 3.22945 0
M  V30 81451 H 1725.75 -6.54213 5.71376 0
M  V30 81452 H 1726.02 -5.30492 4.44033 0
M  V30 81453 H 1725.15 -4.55889 6.76652 0
M  V30 81454 P 1721.19 -4.23843 7.83734 0
M  V30 81455 O 1720.97 -4.19407 9.29784 0
M  V30 81456 O 1720.4 -5.24426 7.09156 0
M  V30 81457 O 1720.94 -2.7935 7.20758 0
M  V30 81458 C 1721.88 -1.7299 7.50419 0
M  V30 81459 C 1721.15 -0.406376 7.57911 0
M  V30 81460 O 1720.94 0.0897726 6.21935 0
M  V30 81461 C 1719.75 -0.447224 8.1878 0
M  V30 81462 O 1719.36 0.825065 8.71101 0
M  V30 81463 C 1718.87 -0.783801 6.99623 0
M  V30 81464 C 1719.58 -0.0619192 5.85967 0
M  V30 81465 N 1719.53 -0.7859 4.56281 0
M  V30 81466 H 1722.37 -1.93423 8.4679 0
M  V30 81467 H 1722.64 -1.68181 6.71046 0
M  V30 81468 H 1721.77 0.289041 8.15388 0
M  V30 81469 P 1717.81 1.17771 8.83182 0
M  V30 81470 O 1717.59 2.07206 9.98732 0
M  V30 81471 O 1717.02 -0.0743816 8.81969 0
M  V30 81472 O 1717.56 1.97652 7.47304 0
M  V30 81473 C 1718.5 3.01133 7.08783 0
M  V30 81474 C 1717.77 4.12613 6.37049 0
M  V30 81475 O 1717.56 3.72827 4.97879 0
M  V30 81476 C 1716.37 4.45085 6.88694 0
M  V30 81477 O 1715.98 5.7877 6.5624 0
M  V30 81478 C 1715.49 3.47817 6.12078 0
M  V30 81479 C 1716.2 3.39414 4.77697 0
M  V30 81480 N 1716.15 2.04199 4.15538 0
M  V30 81481 H 1718.99 3.41248 7.98759 0
M  V30 81482 H 1719.26 2.57728 6.42 0
M  V30 81483 H 1718.39 5.02657 6.42673 0
M  V30 81484 H 1715.74 4.11708 4.08956 0
M  V30 81485 H 1715.46 2.49626 6.61679 0
M  V30 81486 H 1714.47 3.8662 6.00862 0
M  V30 81487 H 1716.3 4.29991 7.97006 0
M  V30 81488 P 1714.43 6.144 6.45285 0
M  V30 81489 O 1714.21 7.54673 6.86199 0
M  V30 81490 O 1713.64 5.12391 7.179 0
M  V30 81491 O 1714.18 5.99158 4.88404 0
M  V30 81492 C 1715.12 6.60234 3.96415 0
M  V30 81493 C 1714.39 7.08259 2.72856 0
M  V30 81494 O 1714.18 5.9427 1.83651 0
M  V30 81495 C 1712.99 7.64886 2.9555 0
M  V30 81496 O 1712.6 8.53963 1.90717 0
M  V30 81497 C 1712.11 6.4116 2.90739 0
M  V30 81498 C 1712.82 5.55375 1.86963 0
M  V30 81499 N 1712.77 4.09664 2.15742 0
M  V30 81500 H 1715.61 7.45574 4.45629 0
M  V30 81501 H 1715.88 5.86232 3.67314 0
M  V30 81502 H 1715.01 7.84412 2.24479 0
M  V30 81503 P 1711.05 8.7635 1.60911 0
M  V30 81504 O 1710.83 10.1388 1.11561 0
M  V30 81505 O 1710.26 8.36503 2.79617 0
M  V30 81506 O 1710.8 7.71806 0.42951 0
M  V30 81507 C 1711.74 7.67148 -0.673689 0
M  V30 81508 C 1711.01 7.33374 -1.95559 0
M  V30 81509 O 1710.8 5.88721 -2.00726 0
M  V30 81510 C 1709.61 7.92526 -2.10483 0
M  V30 81511 O 1709.22 8.02971 -3.47653 0
M  V30 81512 C 1708.73 6.89602 -1.41652 0
M  V30 81513 C 1709.44 5.59201 -1.75185 0
M  V30 81514 N 1709.39 4.58235 -0.662552 0
M  V30 81515 H 1712.23 8.65116 -0.777161 0
M  V30 81516 H 1712.5 6.90173 -0.474152 0
M  V30 81517 H 1711.63 7.66548 -2.79458 0
M  V30 81518 P 1707.67 8.03563 -3.84925 0
M  V30 81519 O 1707.45 8.85821 -5.0569 0
M  V30 81520 O 1706.88 8.41101 -2.65469 0
M  V30 81521 O 1707.42 6.4965 -4.18908 0
M  V30 81522 C 1708.36 5.81037 -5.05421 0
M  V30 81523 C 1707.63 4.78366 -5.89277 0
M  V30 81524 O 1707.42 3.58302 -5.08433 0
M  V30 81525 C 1706.23 5.17448 -6.36119 0
M  V30 81526 O 1705.84 4.45271 -7.53232 0
M  V30 81527 C 1705.35 4.74639 -5.19936 0
M  V30 81528 C 1706.06 3.49432 -4.70418 0
M  V30 81529 N 1706.01 3.31776 -3.22945 0
M  V30 81530 H 1708.85 6.54213 -5.71376 0
M  V30 81531 H 1709.12 5.30492 -4.44033 0
M  V30 81532 H 1708.25 4.55889 -6.76652 0
M  V30 81533 P 1704.29 4.23843 -7.83734 0
M  V30 81534 O 1704.07 4.19407 -9.29784 0
M  V30 81535 O 1703.5 5.24426 -7.09156 0
M  V30 81536 O 1704.04 2.7935 -7.20758 0
M  V30 81537 C 1704.98 1.7299 -7.50419 0
M  V30 81538 C 1704.25 0.406376 -7.57911 0
M  V30 81539 O 1704.04 -0.0897726 -6.21935 0
M  V30 81540 C 1702.85 0.447224 -8.1878 0
M  V30 81541 O 1702.46 -0.825065 -8.71101 0
M  V30 81542 C 1701.97 0.783801 -6.99623 0
M  V30 81543 C 1702.68 0.0619192 -5.85967 0
M  V30 81544 N 1702.63 0.7859 -4.56281 0
M  V30 81545 C 1702.71 2.14308 -4.31736 0
M  V30 81546 N 1702.63 2.46106 -3.05116 0
M  V30 81547 C 1702.49 1.23422 -2.4014 0
M  V30 81548 C 1702.36 0.938381 -1.02409 0
M  V30 81549 O 1702.34 1.70876 -0.0650402 0
M  V30 81550 N 1702.24 -0.444647 -0.805413 0
M  V30 81551 C 1702.24 -1.40829 -1.79435 0
M  V30 81552 N 1702.11 -2.67213 -1.38558 0
M  V30 81553 N 1702.37 -1.12947 -3.09005 0
M  V30 81554 C 1702.49 0.204887 -3.32369 0
M  V30 81555 H 1705.47 1.93423 -8.4679 0
M  V30 81556 H 1705.74 1.68181 -6.71046 0
M  V30 81557 H 1704.87 -0.289041 -8.15388 0
M  V30 81558 H 1702.22 -0.927166 -5.72947 0
M  V30 81559 H 1701.94 1.87 -6.82132 0
M  V30 81560 H 1700.95 0.404009 -7.13457 0
M  V30 81561 H 1702.78 1.20612 -8.97633 0
M  V30 81562 H 1702.83 2.88284 -5.10874 0
M  V30 81563 H 1702.15 -0.755087 0.140242 0
M  V30 81564 H 1702.11 -3.43967 -2.0729 0
M  V30 81565 H 1702.01 -2.88096 -0.380644 0
M  V30 81566 P 1700.91 -1.17771 -8.83182 0
M  V30 81567 O 1700.69 -2.07206 -9.98732 0
M  V30 81568 O 1700.12 0.0743816 -8.81969 0
M  V30 81569 O 1700.66 -1.97652 -7.47304 0
M  V30 81570 C 1701.6 -3.01055 -7.08599 0
M  V30 81571 C 1700.87 -4.12613 -6.37049 0
M  V30 81572 O 1700.66 -3.72827 -4.97879 0
M  V30 81573 C 1699.47 -4.45719 -6.88164 0
M  V30 81574 O 1699.08 -5.7877 -6.5624 0
M  V30 81575 C 1698.59 -3.47768 -6.11991 0
M  V30 81576 C 1699.3 -3.39356 -4.77615 0
M  V30 81577 N 1699.25 -2.04571 -4.15244 0
M  V30 81578 C 1699.1 -1.98587 -2.78314 0
M  V30 81579 O 1699.01 -2.98134 -2.08835 0
M  V30 81580 N 1699.06 -0.714467 -2.24925 0
M  V30 81581 C 1699.15 0.470001 -2.94169 0
M  V30 81582 O 1699.1 1.55587 -2.35195 0
M  V30 81583 C 1699.3 0.312541 -4.36783 0
M  V30 81584 C 1699.41 1.57711 -5.16352 0
M  V30 81585 C 1699.35 -0.914512 -4.92583 0
M  V30 81586 H 1702.09 -3.41169 -7.98575 0
M  V30 81587 H 1702.36 -2.58295 -6.41556 0
M  V30 81588 H 1701.49 -5.02657 -6.42673 0
M  V30 81589 H 1698.84 -4.11637 -4.08885 0
M  V30 81590 H 1698.56 -2.49626 -6.61679 0
M  V30 81591 H 1697.57 -3.86566 -6.00778 0
M  V30 81592 H 1699.4 -4.29943 -7.96918 0
M  V30 81593 H 1699.47 -1.00937 -6.00374 0
M  V30 81594 H 1698.44 1.80153 -5.63503 0
M  V30 81595 H 1700.18 1.4566 -5.94104 0
M  V30 81596 H 1699.69 2.40664 -4.49645 0
M  V30 81597 H 1698.95 -0.647622 -1.25697 0
M  V30 81598 P 1697.53 -6.144 -6.45285 0
M  V30 81599 O 1697.31 -7.54673 -6.86199 0
M  V30 81600 O 1696.74 -5.12391 -7.179 0
M  V30 81601 O 1697.28 -5.99158 -4.88404 0
M  V30 81602 C 1698.22 -6.60234 -3.96415 0
M  V30 81603 C 1697.49 -7.08259 -2.72856 0
M  V30 81604 O 1697.28 -5.9427 -1.83651 0
M  V30 81605 C 1696.09 -7.64886 -2.9555 0
M  V30 81606 O 1695.7 -8.53963 -1.90717 0
M  V30 81607 C 1695.21 -6.4116 -2.90739 0
M  V30 81608 C 1695.92 -5.55375 -1.86963 0
M  V30 81609 N 1695.87 -4.09664 -2.15742 0
M  V30 81610 H 1698.71 -7.45574 -4.45629 0
M  V30 81611 H 1698.98 -5.86232 -3.67314 0
M  V30 81612 H 1698.11 -7.84412 -2.24479 0
M  V30 81613 P 1694.15 -8.7635 -1.60911 0
M  V30 81614 O 1693.93 -10.1388 -1.11561 0
M  V30 81615 O 1693.36 -8.36503 -2.79617 0
M  V30 81616 O 1693.9 -7.71806 -0.42951 0
M  V30 81617 C 1694.84 -7.67148 0.673689 0
M  V30 81618 C 1694.11 -7.33374 1.95559 0
M  V30 81619 O 1693.9 -5.88721 2.00726 0
M  V30 81620 C 1692.71 -7.92526 2.10483 0
M  V30 81621 O 1692.32 -8.02971 3.47653 0
M  V30 81622 C 1691.83 -6.89602 1.41652 0
M  V30 81623 C 1692.54 -5.59201 1.75185 0
M  V30 81624 N 1692.49 -4.58301 0.657969 0
M  V30 81625 H 1695.33 -8.65116 0.777161 0
M  V30 81626 H 1695.6 -6.9022 0.46725 0
M  V30 81627 H 1694.73 -7.66548 2.79458 0
M  V30 81628 H 1692.08 -5.16165 2.65183 0
M  V30 81629 H 1691.8 -7.06433 0.329384 0
M  V30 81630 H 1690.81 -6.90926 1.82021 0
M  V30 81631 H 1692.64 -8.90873 1.62657 0
M  V30 81632 P 1690.77 -8.03563 3.84925 0
M  V30 81633 O 1690.55 -8.85821 5.0569 0
M  V30 81634 O 1689.98 -8.41101 2.65469 0
M  V30 81635 O 1690.52 -6.4965 4.18908 0
M  V30 81636 C 1691.46 -5.81037 5.05421 0
M  V30 81637 C 1690.73 -4.78366 5.89277 0
M  V30 81638 O 1690.52 -3.58302 5.08433 0
M  V30 81639 C 1689.33 -5.17448 6.36119 0
M  V30 81640 O 1688.94 -4.45271 7.53232 0
M  V30 81641 C 1688.45 -4.74639 5.19936 0
M  V30 81642 C 1689.16 -3.49432 4.70418 0
M  V30 81643 N 1689.11 -3.32099 3.22613 0
M  V30 81644 H 1691.95 -6.54213 5.71376 0
M  V30 81645 H 1692.22 -5.30936 4.43503 0
M  V30 81646 H 1691.35 -4.55889 6.76652 0
M  V30 81647 H 1688.7 -2.61715 5.17932 0
M  V30 81648 H 1688.42 -5.52155 4.41878 0
M  V30 81649 H 1687.43 -4.51981 5.53374 0
M  V30 81650 H 1689.26 -6.25124 6.55234 0
M  V30 81651 P 1687.39 -4.23843 7.83734 0
M  V30 81652 O 1687.17 -4.19407 9.29784 0
M  V30 81653 O 1686.6 -5.24426 7.09156 0
M  V30 81654 O 1687.14 -2.7935 7.20758 0
M  V30 81655 C 1688.08 -1.7299 7.50419 0
M  V30 81656 C 1687.35 -0.406376 7.57911 0
M  V30 81657 O 1687.14 0.0897726 6.21935 0
M  V30 81658 C 1685.95 -0.447224 8.1878 0
M  V30 81659 O 1685.56 0.825065 8.71101 0
M  V30 81660 C 1685.07 -0.783801 6.99623 0
M  V30 81661 C 1685.78 -0.0619192 5.85967 0
M  V30 81662 N 1685.73 -0.7859 4.56281 0
M  V30 81663 H 1688.57 -1.93423 8.4679 0
M  V30 81664 H 1688.84 -1.68181 6.71046 0
M  V30 81665 H 1687.97 0.289041 8.15388 0
M  V30 81666 P 1684.01 1.17771 8.83182 0
M  V30 81667 O 1683.79 2.07206 9.98732 0
M  V30 81668 O 1683.22 -0.0743816 8.81969 0
M  V30 81669 O 1683.76 1.97652 7.47304 0
M  V30 81670 C 1684.7 3.01133 7.08783 0
M  V30 81671 C 1683.97 4.12613 6.37049 0
M  V30 81672 O 1683.76 3.72827 4.97879 0
M  V30 81673 C 1682.57 4.45085 6.88694 0
M  V30 81674 O 1682.18 5.7877 6.5624 0
M  V30 81675 C 1681.69 3.47817 6.12078 0
M  V30 81676 C 1682.4 3.39414 4.77697 0
M  V30 81677 N 1682.35 2.04199 4.15538 0
M  V30 81678 H 1685.19 3.41248 7.98759 0
M  V30 81679 H 1685.46 2.57728 6.42 0
M  V30 81680 H 1684.59 5.02657 6.42673 0
M  V30 81681 H 1681.94 4.11708 4.08956 0
M  V30 81682 H 1681.66 2.49626 6.61679 0
M  V30 81683 H 1680.67 3.8662 6.00862 0
M  V30 81684 H 1682.5 4.29991 7.97006 0
M  V30 81685 P 1680.63 6.144 6.45285 0
M  V30 81686 O 1680.41 7.54673 6.86199 0
M  V30 81687 O 1679.84 5.12391 7.179 0
M  V30 81688 O 1680.38 5.99158 4.88404 0
M  V30 81689 C 1681.32 6.60062 3.96313 0
M  V30 81690 C 1680.59 7.08259 2.72856 0
M  V30 81691 O 1680.38 5.9427 1.83651 0
M  V30 81692 C 1679.19 7.65087 2.94749 0
M  V30 81693 O 1678.8 8.53963 1.90717 0
M  V30 81694 C 1678.31 6.41069 2.90698 0
M  V30 81695 C 1679.02 5.5528 1.86931 0
M  V30 81696 N 1678.97 4.09575 2.15696 0
M  V30 81697 C 1678.82 3.24249 1.08435 0
M  V30 81698 O 1678.73 3.63946 -0.0628747 0
M  V30 81699 N 1678.78 1.90009 1.39973 0
M  V30 81700 C 1678.87 1.34884 2.65614 0
M  V30 81701 O 1678.82 0.123716 2.81728 0
M  V30 81702 C 1679.02 2.3145 3.71736 0
M  V30 81703 C 1679.13 1.75913 5.10438 0
M  V30 81704 C 1679.07 3.63518 3.44754 0
M  V30 81705 H 1681.81 7.45402 4.45526 0
M  V30 81706 H 1682.08 5.86062 3.67208 0
M  V30 81707 H 1681.21 7.84412 2.24479 0
M  V30 81708 H 1678.56 5.73358 0.888409 0
M  V30 81709 H 1678.28 5.90877 3.88583 0
M  V30 81710 H 1677.29 6.65867 2.58821 0
M  V30 81711 H 1679.12 8.16248 3.92006 0
M  V30 81712 H 1679.19 4.34551 4.26383 0
M  V30 81713 H 1678.16 1.85471 5.61775 0
M  V30 81714 H 1679.9 2.31364 5.66257 0
M  V30 81715 H 1679.41 0.695936 5.05229 0
M  V30 81716 H 1678.68 1.26277 0.63625 0
M  V30 81717 P 1677.25 8.7635 1.60911 0
M  V30 81718 O 1677.03 10.1388 1.11561 0
M  V30 81719 O 1676.46 8.36503 2.79617 0
M  V30 81720 O 1677 7.71806 0.42951 0
M  V30 81721 C 1677.94 7.67148 -0.673689 0
M  V30 81722 C 1677.21 7.33374 -1.95559 0
M  V30 81723 O 1677 5.88721 -2.00726 0
M  V30 81724 C 1675.81 7.92526 -2.10483 0
M  V30 81725 O 1675.42 8.02971 -3.47653 0
M  V30 81726 C 1674.93 6.89602 -1.41652 0
M  V30 81727 C 1675.64 5.59201 -1.75185 0
M  V30 81728 N 1675.59 4.58235 -0.662552 0
M  V30 81729 H 1678.43 8.65116 -0.777161 0
M  V30 81730 H 1678.7 6.90173 -0.474152 0
M  V30 81731 H 1677.83 7.66548 -2.79458 0
M  V30 81732 P 1673.87 8.03563 -3.84925 0
M  V30 81733 O 1673.65 8.85821 -5.0569 0
M  V30 81734 O 1673.08 8.41101 -2.65469 0
M  V30 81735 O 1673.62 6.4965 -4.18908 0
M  V30 81736 C 1674.56 5.81037 -5.05421 0
M  V30 81737 C 1673.83 4.78366 -5.89277 0
M  V30 81738 O 1673.62 3.58302 -5.08433 0
M  V30 81739 C 1672.43 5.17448 -6.36119 0
M  V30 81740 O 1672.04 4.45271 -7.53232 0
M  V30 81741 C 1671.55 4.74639 -5.19936 0
M  V30 81742 C 1672.26 3.49432 -4.70418 0
M  V30 81743 N 1672.21 3.31776 -3.22945 0
M  V30 81744 H 1675.05 6.54213 -5.71376 0
M  V30 81745 H 1675.32 5.30492 -4.44033 0
M  V30 81746 H 1674.45 4.55889 -6.76652 0
M  V30 81747 P 1670.49 4.23843 -7.83734 0
M  V30 81748 O 1670.27 4.19407 -9.29784 0
M  V30 81749 O 1669.7 5.24426 -7.09156 0
M  V30 81750 O 1670.24 2.7935 -7.20758 0
M  V30 81751 C 1671.18 1.7299 -7.50419 0
M  V30 81752 C 1670.45 0.406376 -7.57911 0
M  V30 81753 O 1670.24 -0.0897726 -6.21935 0
M  V30 81754 C 1669.05 0.447224 -8.1878 0
M  V30 81755 O 1668.66 -0.825065 -8.71101 0
M  V30 81756 C 1668.17 0.783801 -6.99623 0
M  V30 81757 C 1668.88 0.0619192 -5.85967 0
M  V30 81758 N 1668.83 0.7859 -4.56281 0
M  V30 81759 H 1671.67 1.93423 -8.4679 0
M  V30 81760 H 1671.94 1.68181 -6.71046 0
M  V30 81761 H 1671.07 -0.289041 -8.15388 0
M  V30 81762 P 1667.11 -1.17771 -8.83182 0
M  V30 81763 O 1666.89 -2.07206 -9.98732 0
M  V30 81764 O 1666.32 0.0743816 -8.81969 0
M  V30 81765 O 1666.86 -1.97652 -7.47304 0
M  V30 81766 C 1667.8 -3.01055 -7.08599 0
M  V30 81767 C 1667.07 -4.12613 -6.37049 0
M  V30 81768 O 1666.86 -3.72827 -4.97879 0
M  V30 81769 C 1665.67 -4.45719 -6.88164 0
M  V30 81770 O 1665.28 -5.7877 -6.5624 0
M  V30 81771 C 1664.79 -3.47768 -6.11991 0
M  V30 81772 C 1665.5 -3.39356 -4.77615 0
M  V30 81773 N 1665.45 -2.04571 -4.15244 0
M  V30 81774 C 1665.3 -1.98587 -2.78314 0
M  V30 81775 O 1665.21 -2.98134 -2.08835 0
M  V30 81776 N 1665.26 -0.714467 -2.24925 0
M  V30 81777 C 1665.35 0.470001 -2.94169 0
M  V30 81778 C 1665.5 0.312541 -4.36783 0
M  V30 81779 C 1665.55 -0.914512 -4.92583 0
M  V30 81780 H 1668.29 -3.41169 -7.98575 0
M  V30 81781 H 1668.56 -2.58295 -6.41556 0
M  V30 81782 H 1667.69 -5.02657 -6.42673 0
M  V30 81783 H 1665.04 -4.11637 -4.08885 0
M  V30 81784 H 1664.76 -2.49626 -6.61679 0
M  V30 81785 H 1663.77 -3.86566 -6.00778 0
M  V30 81786 H 1665.6 -4.29943 -7.96918 0
M  V30 81787 H 1665.67 -1.00937 -6.00374 0
M  V30 81788 P 1663.73 -6.144 -6.45285 0
M  V30 81789 O 1663.51 -7.54673 -6.86199 0
M  V30 81790 O 1662.94 -5.12391 -7.179 0
M  V30 81791 O 1663.48 -5.99158 -4.88404 0
M  V30 81792 C 1664.42 -6.60234 -3.96415 0
M  V30 81793 C 1663.69 -7.08259 -2.72856 0
M  V30 81794 O 1663.48 -5.9427 -1.83651 0
M  V30 81795 C 1662.29 -7.64886 -2.9555 0
M  V30 81796 O 1661.9 -8.53963 -1.90717 0
M  V30 81797 C 1661.41 -6.4116 -2.90739 0
M  V30 81798 C 1662.12 -5.55375 -1.86963 0
M  V30 81799 N 1662.07 -4.09664 -2.15742 0
M  V30 81800 H 1664.91 -7.45574 -4.45629 0
M  V30 81801 H 1665.18 -5.86232 -3.67314 0
M  V30 81802 H 1664.31 -7.84412 -2.24479 0
M  V30 81803 P 1660.35 -8.7635 -1.60911 0
M  V30 81804 O 1660.13 -10.1388 -1.11561 0
M  V30 81805 O 1659.56 -8.36503 -2.79617 0
M  V30 81806 O 1660.1 -7.71806 -0.42951 0
M  V30 81807 C 1661.04 -7.67148 0.673689 0
M  V30 81808 C 1660.31 -7.33374 1.95559 0
M  V30 81809 O 1660.1 -5.88721 2.00726 0
M  V30 81810 C 1658.91 -7.92526 2.10483 0
M  V30 81811 O 1658.52 -8.02971 3.47653 0
M  V30 81812 C 1658.03 -6.89602 1.41652 0
M  V30 81813 C 1658.74 -5.59201 1.75185 0
M  V30 81814 N 1658.69 -4.58235 0.662552 0
M  V30 81815 H 1661.53 -8.65116 0.777161 0
M  V30 81816 H 1661.8 -6.90173 0.474152 0
M  V30 81817 H 1660.93 -7.66548 2.79458 0
M  V30 81818 P 1656.97 -8.03563 3.84925 0
M  V30 81819 O 1656.75 -8.85821 5.0569 0
M  V30 81820 O 1656.18 -8.41101 2.65469 0
M  V30 81821 O 1656.72 -6.4965 4.18908 0
M  V30 81822 C 1657.66 -5.81037 5.05421 0
M  V30 81823 C 1656.93 -4.78366 5.89277 0
M  V30 81824 O 1656.72 -3.58302 5.08433 0
M  V30 81825 C 1655.53 -5.17448 6.36119 0
M  V30 81826 O 1655.14 -4.45271 7.53232 0
M  V30 81827 C 1654.65 -4.74639 5.19936 0
M  V30 81828 C 1655.36 -3.49432 4.70418 0
M  V30 81829 N 1655.31 -3.31776 3.22945 0
M  V30 81830 H 1658.15 -6.54213 5.71376 0
M  V30 81831 H 1658.42 -5.30492 4.44033 0
M  V30 81832 H 1657.55 -4.55889 6.76652 0
M  V30 81833 P 1653.59 -4.23843 7.83734 0
M  V30 81834 O 1653.37 -4.19407 9.29784 0
M  V30 81835 O 1652.8 -5.24426 7.09156 0
M  V30 81836 O 1653.34 -2.7935 7.20758 0
M  V30 81837 C 1654.28 -1.7299 7.50419 0
M  V30 81838 C 1653.55 -0.406376 7.57911 0
M  V30 81839 O 1653.34 0.0897726 6.21935 0
M  V30 81840 C 1652.15 -0.447224 8.1878 0
M  V30 81841 O 1651.76 0.825065 8.71101 0
M  V30 81842 C 1651.27 -0.783801 6.99623 0
M  V30 81843 C 1651.98 -0.0619192 5.85967 0
M  V30 81844 N 1651.93 -0.7859 4.56281 0
M  V30 81845 H 1654.77 -1.93423 8.4679 0
M  V30 81846 H 1655.04 -1.68181 6.71046 0
M  V30 81847 H 1654.17 0.289041 8.15388 0
M  V30 81848 P 1650.21 1.17771 8.83182 0
M  V30 81849 O 1649.99 2.07206 9.98732 0
M  V30 81850 O 1649.42 -0.0743816 8.81969 0
M  V30 81851 O 1649.96 1.97652 7.47304 0
M  V30 81852 C 1650.9 3.01133 7.08783 0
M  V30 81853 C 1650.17 4.12613 6.37049 0
M  V30 81854 O 1649.96 3.72827 4.97879 0
M  V30 81855 C 1648.77 4.45085 6.88694 0
M  V30 81856 O 1648.38 5.7877 6.5624 0
M  V30 81857 C 1647.89 3.47817 6.12078 0
M  V30 81858 C 1648.6 3.39414 4.77697 0
M  V30 81859 N 1648.55 2.04615 4.15333 0
M  V30 81860 H 1651.39 3.41248 7.98759 0
M  V30 81861 H 1651.66 2.5837 6.41742 0
M  V30 81862 H 1650.79 5.02657 6.42673 0
M  V30 81863 P 1646.83 6.144 6.45285 0
M  V30 81864 O 1646.61 7.54673 6.86199 0
M  V30 81865 O 1646.04 5.12391 7.179 0
M  V30 81866 O 1646.58 5.99158 4.88404 0
M  V30 81867 C 1647.52 6.60234 3.96415 0
M  V30 81868 C 1646.79 7.08259 2.72856 0
M  V30 81869 O 1646.58 5.9427 1.83651 0
M  V30 81870 C 1645.39 7.64886 2.9555 0
M  V30 81871 O 1645 8.53963 1.90717 0
M  V30 81872 C 1644.51 6.4116 2.90739 0
M  V30 81873 C 1645.22 5.55375 1.86963 0
M  V30 81874 N 1645.17 4.09448 2.16152 0
M  V30 81875 H 1648.01 7.45574 4.45629 0
M  V30 81876 H 1648.28 5.85864 3.679 0
M  V30 81877 H 1647.41 7.84412 2.24479 0
M  V30 81878 H 1644.76 5.73457 0.888562 0
M  V30 81879 H 1644.48 5.90877 3.88583 0
M  V30 81880 H 1643.49 6.6596 2.58858 0
M  V30 81881 H 1645.32 8.16339 3.92049 0
M  V30 81882 P 1643.45 8.7635 1.60911 0
M  V30 81883 O 1643.23 10.1388 1.11561 0
M  V30 81884 O 1642.66 8.36503 2.79617 0
M  V30 81885 O 1643.2 7.71806 0.42951 0
M  V30 81886 C 1644.14 7.66948 -0.673514 0
M  V30 81887 C 1643.41 7.33374 -1.95559 0
M  V30 81888 O 1643.2 5.88721 -2.00726 0
M  V30 81889 C 1642.01 7.92218 -2.1125 0
M  V30 81890 O 1641.62 8.02971 -3.47653 0
M  V30 81891 C 1641.13 6.89504 -1.41631 0
M  V30 81892 C 1641.84 5.59106 -1.75155 0
M  V30 81893 N 1641.79 4.58136 -0.662409 0
M  V30 81894 C 1641.64 3.26059 -1.02863 0
M  V30 81895 O 1641.55 2.90743 -2.19009 0
M  V30 81896 N 1641.6 2.35995 0.0155585 0
M  V30 81897 C 1641.69 2.65248 1.35603 0
M  V30 81898 O 1641.64 1.75605 2.20651 0
M  V30 81899 C 1641.84 4.05747 1.64698 0
M  V30 81900 C 1641.95 4.42345 3.09553 0
M  V30 81901 C 1641.89 4.96734 0.652411 0
M  V30 81902 H 1644.63 8.64917 -0.776982 0
M  V30 81903 H 1644.9 6.89974 -0.474015 0
M  V30 81904 H 1644.03 7.66548 -2.79458 0
M  V30 81905 H 1641.38 5.16076 -2.65138 0
M  V30 81906 H 1641.1 7.06433 -0.329384 0
M  V30 81907 H 1640.11 6.90829 -1.81996 0
M  V30 81908 H 1641.94 8.90774 -1.62639 0
M  V30 81909 H 1642.01 6.02181 0.895285 0
M  V30 81910 H 1640.98 4.80252 3.45468 0
M  V30 81911 H 1642.72 5.20015 3.22119 0
M  V30 81912 H 1642.23 3.53269 3.67833 0
M  V30 81913 H 1641.5 1.39558 -0.227499 0
M  V30 81914 P 1640.07 8.03563 -3.84925 0
M  V30 81915 O 1639.85 8.85821 -5.0569 0
M  V30 81916 O 1639.28 8.41101 -2.65469 0
M  V30 81917 O 1639.82 6.4965 -4.18908 0
M  V30 81918 C 1640.76 5.81037 -5.05421 0
M  V30 81919 C 1640.03 4.78366 -5.89277 0
M  V30 81920 O 1639.82 3.58302 -5.08433 0
M  V30 81921 C 1638.63 5.17448 -6.36119 0
M  V30 81922 O 1638.24 4.45271 -7.53232 0
M  V30 81923 C 1637.75 4.74639 -5.19936 0
M  V30 81924 C 1638.46 3.49432 -4.70418 0
M  V30 81925 N 1638.41 3.32099 -3.22613 0
M  V30 81926 H 1641.25 6.54213 -5.71376 0
M  V30 81927 H 1641.52 5.30936 -4.43503 0
M  V30 81928 H 1640.65 4.55889 -6.76652 0
M  V30 81929 H 1638 2.61715 -5.17932 0
M  V30 81930 H 1637.72 5.52155 -4.41878 0
M  V30 81931 H 1636.73 4.51981 -5.53374 0
M  V30 81932 H 1638.56 6.25124 -6.55234 0
M  V30 81933 P 1636.69 4.23843 -7.83734 0
M  V30 81934 O 1636.47 4.19407 -9.29784 0
M  V30 81935 O 1635.9 5.24426 -7.09156 0
M  V30 81936 O 1636.44 2.79386 -7.20852 0
M  V30 81937 C 1637.38 1.7299 -7.50419 0
M  V30 81938 C 1636.65 0.41401 -7.5797 0
M  V30 81939 O 1636.44 -0.089787 -6.22035 0
M  V30 81940 C 1635.25 0.447224 -8.1878 0
M  V30 81941 O 1634.86 -0.825159 -8.71201 0
M  V30 81942 C 1634.37 0.783801 -6.99623 0
M  V30 81943 C 1635.08 0.0619192 -5.85967 0
M  V30 81944 N 1635.03 0.7859 -4.56281 0
M  V30 81945 C 1634.88 0.0359258 -3.39981 0
M  V30 81946 O 1634.79 -1.19723 -3.49038 0
M  V30 81947 N 1634.83 0.869151 -2.14025 0
M  V30 81948 C 1634.93 2.01207 -2.14363 0
M  V30 81949 N 1634.88 2.58978 -0.954287 0
M  V30 81950 C 1635.08 2.80817 -3.32215 0
M  V30 81951 C 1635.13 2.13785 -4.50884 0
M  V30 81952 H 1637.87 1.93401 -8.46693 0
M  V30 81953 H 1638.14 1.68181 -6.71046 0
M  V30 81954 H 1637.27 -0.289076 -8.15488 0
M  V30 81955 H 1634.62 -0.927166 -5.72947 0
M  V30 81956 H 1634.34 1.87 -6.82132 0
M  V30 81957 H 1633.35 0.404009 -7.13457 0
M  V30 81958 H 1635.18 1.20599 -8.97534 0
M  V30 81959 H 1635.25 2.70295 -5.43162 0
M  V30 81960 H 1635.15 3.89465 -3.27406 0
M  V30 81961 H 1634.76 2.01616 -0.107046 0
M  V30 81962 H 1634.96 3.61403 -0.873101 0
M  V30 81963 P 1633.31 -1.17771 -8.83182 0
M  V30 81964 O 1633.09 -2.07206 -9.98732 0
M  V30 81965 O 1632.52 0.0743816 -8.81969 0
M  V30 81966 O 1633.06 -1.97652 -7.47304 0
M  V30 81967 C 1634 -3.01133 -7.08783 0
M  V30 81968 C 1633.27 -4.12613 -6.37049 0
M  V30 81969 O 1633.06 -3.72827 -4.97879 0
M  V30 81970 C 1631.87 -4.45085 -6.88694 0
M  V30 81971 O 1631.48 -5.7877 -6.5624 0
M  V30 81972 C 1630.99 -3.47817 -6.12078 0
M  V30 81973 C 1631.7 -3.39414 -4.77697 0
M  V30 81974 N 1631.65 -2.04199 -4.15538 0
M  V30 81975 H 1634.49 -3.41248 -7.98759 0
M  V30 81976 H 1634.76 -2.57728 -6.42 0
M  V30 81977 H 1633.89 -5.02657 -6.42673 0
M  V30 81978 H 1631.24 -4.11708 -4.08956 0
M  V30 81979 H 1630.96 -2.49626 -6.61679 0
M  V30 81980 H 1629.97 -3.8662 -6.00862 0
M  V30 81981 H 1631.8 -4.29991 -7.97006 0
M  V30 81982 P 1629.93 -6.144 -6.45285 0
M  V30 81983 O 1629.71 -7.54673 -6.86199 0
M  V30 81984 O 1629.14 -5.12391 -7.179 0
M  V30 81985 O 1629.68 -5.99158 -4.88404 0
M  V30 81986 C 1630.62 -6.60234 -3.96415 0
M  V30 81987 C 1629.89 -7.08259 -2.72856 0
M  V30 81988 O 1629.68 -5.9427 -1.83651 0
M  V30 81989 C 1628.49 -7.64886 -2.9555 0
M  V30 81990 O 1628.1 -8.53963 -1.90717 0
M  V30 81991 C 1627.61 -6.4116 -2.90739 0
M  V30 81992 C 1628.32 -5.55375 -1.86963 0
M  V30 81993 N 1628.27 -4.09664 -2.15742 0
M  V30 81994 H 1631.11 -7.45574 -4.45629 0
M  V30 81995 H 1631.38 -5.86232 -3.67314 0
M  V30 81996 H 1630.51 -7.84412 -2.24479 0
M  V30 81997 P 1626.55 -8.7635 -1.60911 0
M  V30 81998 O 1626.33 -10.1388 -1.11561 0
M  V30 81999 O 1625.76 -8.36503 -2.79617 0
M  V30 82000 O 1626.3 -7.71806 -0.42951 0
M  V30 82001 C 1627.24 -7.67148 0.673689 0
M  V30 82002 C 1626.51 -7.33374 1.95559 0
M  V30 82003 O 1626.3 -5.88721 2.00726 0
M  V30 82004 C 1625.11 -7.92526 2.10483 0
M  V30 82005 O 1624.72 -8.02971 3.47653 0
M  V30 82006 C 1624.23 -6.89602 1.41652 0
M  V30 82007 C 1624.94 -5.59201 1.75185 0
M  V30 82008 N 1624.89 -4.58235 0.662552 0
M  V30 82009 H 1627.73 -8.65116 0.777161 0
M  V30 82010 H 1628 -6.90173 0.474152 0
M  V30 82011 H 1627.13 -7.66548 2.79458 0
M  V30 82012 P 1623.17 -8.03563 3.84925 0
M  V30 82013 O 1622.95 -8.85821 5.0569 0
M  V30 82014 O 1622.38 -8.41101 2.65469 0
M  V30 82015 O 1622.92 -6.4965 4.18908 0
M  V30 82016 C 1623.86 -5.81037 5.05421 0
M  V30 82017 C 1623.13 -4.78366 5.89277 0
M  V30 82018 O 1622.92 -3.58302 5.08433 0
M  V30 82019 C 1621.73 -5.17448 6.36119 0
M  V30 82020 O 1621.34 -4.45271 7.53232 0
M  V30 82021 C 1620.85 -4.74639 5.19936 0
M  V30 82022 C 1621.56 -3.49432 4.70418 0
M  V30 82023 N 1621.51 -3.32099 3.22613 0
M  V30 82024 C 1621.59 -4.28245 2.25527 0
M  V30 82025 N 1621.52 -3.80823 1.04874 0
M  V30 82026 C 1621.37 -2.44571 1.23535 0
M  V30 82027 C 1621.24 -1.37068 0.330675 0
M  V30 82028 N 1621.23 -1.51472 -0.990824 0
M  V30 82029 N 1621.12 -0.138614 0.848756 0
M  V30 82030 C 1621.13 0.00675923 2.16999 0
M  V30 82031 N 1621.25 -0.904372 3.11122 0
M  V30 82032 C 1621.37 -2.12707 2.56212 0
M  V30 82033 H 1624.35 -6.54213 5.71376 0
M  V30 82034 H 1624.62 -5.30936 4.43503 0
M  V30 82035 H 1623.75 -4.55889 6.76652 0
M  V30 82036 H 1621.1 -2.61715 5.17932 0
M  V30 82037 H 1620.82 -5.52155 4.41878 0
M  V30 82038 H 1619.83 -4.51981 5.53374 0
M  V30 82039 H 1621.66 -6.25124 6.55234 0
M  V30 82040 H 1621.7 -5.34372 2.47488 0
M  V30 82041 H 1621.32 -2.45153 -1.4078 0
M  V30 82042 H 1621.13 -0.688422 -1.59911 0
M  V30 82043 H 1621.02 1.02584 2.52346 0
M  V30 82044 P 1619.79 -4.23843 7.83734 0
M  V30 82045 O 1619.57 -4.19407 9.29784 0
M  V30 82046 O 1619 -5.24426 7.09156 0
M  V30 82047 O 1619.54 -2.7935 7.20758 0
M  V30 82048 C 1620.48 -1.7299 7.50419 0
M  V30 82049 C 1619.75 -0.406376 7.57911 0
M  V30 82050 O 1619.54 0.0897726 6.21935 0
M  V30 82051 C 1618.35 -0.447224 8.1878 0
M  V30 82052 O 1617.96 0.825065 8.71101 0
M  V30 82053 C 1617.47 -0.783801 6.99623 0
M  V30 82054 C 1618.18 -0.0619192 5.85967 0
M  V30 82055 N 1618.13 -0.790462 4.56202 0
M  V30 82056 H 1620.97 -1.93423 8.4679 0
M  V30 82057 H 1621.24 -1.68852 6.70877 0
M  V30 82058 H 1620.37 0.289041 8.15388 0
M  V30 82059 H 1617.72 0.927006 5.72848 0
M  V30 82060 H 1617.44 -1.86973 6.82036 0
M  V30 82061 H 1616.45 -0.403953 7.13357 0
M  V30 82062 H 1618.28 -1.20599 8.97534 0
M  V30 82063 P 1616.41 1.17771 8.83182 0
M  V30 82064 O 1616.19 2.07206 9.98732 0
M  V30 82065 O 1615.62 -0.0743816 8.81969 0
M  V30 82066 O 1616.16 1.97652 7.47304 0
M  V30 82067 C 1617.1 3.01133 7.08783 0
M  V30 82068 C 1616.37 4.12613 6.37049 0
M  V30 82069 O 1616.16 3.72827 4.97879 0
M  V30 82070 C 1614.97 4.45085 6.88694 0
M  V30 82071 O 1614.58 5.7877 6.5624 0
M  V30 82072 C 1614.09 3.47817 6.12078 0
M  V30 82073 C 1614.8 3.39414 4.77697 0
M  V30 82074 N 1614.75 2.04615 4.15333 0
M  V30 82075 H 1617.59 3.41248 7.98759 0
M  V30 82076 H 1617.86 2.5837 6.41742 0
M  V30 82077 H 1616.99 5.02657 6.42673 0
M  V30 82078 P 1613.03 6.144 6.45285 0
M  V30 82079 O 1612.81 7.54673 6.86199 0
M  V30 82080 O 1612.24 5.12391 7.179 0
M  V30 82081 O 1612.78 5.99158 4.88404 0
M  V30 82082 C 1613.72 6.60234 3.96415 0
M  V30 82083 C 1612.99 7.08259 2.72856 0
M  V30 82084 O 1612.78 5.9427 1.83651 0
M  V30 82085 C 1611.59 7.64886 2.9555 0
M  V30 82086 O 1611.2 8.53963 1.90717 0
M  V30 82087 C 1610.71 6.4116 2.90739 0
M  V30 82088 C 1611.42 5.55375 1.86963 0
M  V30 82089 N 1611.37 4.09664 2.15742 0
M  V30 82090 H 1614.21 7.45574 4.45629 0
M  V30 82091 H 1614.48 5.86232 3.67314 0
M  V30 82092 H 1613.61 7.84412 2.24479 0
M  V30 82093 P 1609.65 8.7635 1.60911 0
M  V30 82094 O 1609.43 10.1388 1.11561 0
M  V30 82095 O 1608.86 8.36503 2.79617 0
M  V30 82096 O 1609.4 7.71806 0.42951 0
M  V30 82097 C 1610.34 7.67148 -0.673689 0
M  V30 82098 C 1609.61 7.33374 -1.95559 0
M  V30 82099 O 1609.4 5.88721 -2.00726 0
M  V30 82100 C 1608.21 7.92526 -2.10483 0
M  V30 82101 O 1607.82 8.02971 -3.47653 0
M  V30 82102 C 1607.33 6.89602 -1.41652 0
M  V30 82103 C 1608.04 5.59201 -1.75185 0
M  V30 82104 N 1607.99 4.58235 -0.662552 0
M  V30 82105 H 1610.83 8.65116 -0.777161 0
M  V30 82106 H 1611.1 6.90173 -0.474152 0
M  V30 82107 H 1610.23 7.66548 -2.79458 0
M  V30 82108 P 1606.27 8.03563 -3.84925 0
M  V30 82109 O 1606.05 8.85821 -5.0569 0
M  V30 82110 O 1605.48 8.41101 -2.65469 0
M  V30 82111 O 1606.02 6.4965 -4.18908 0
M  V30 82112 C 1606.96 5.81037 -5.05421 0
M  V30 82113 C 1606.23 4.78366 -5.89277 0
M  V30 82114 O 1606.02 3.58302 -5.08433 0
M  V30 82115 C 1604.83 5.17448 -6.36119 0
M  V30 82116 O 1604.44 4.45271 -7.53232 0
M  V30 82117 C 1603.95 4.74639 -5.19936 0
M  V30 82118 C 1604.66 3.49432 -4.70418 0
M  V30 82119 N 1604.61 3.31776 -3.22945 0
M  V30 82120 H 1607.45 6.54213 -5.71376 0
M  V30 82121 H 1607.72 5.30492 -4.44033 0
M  V30 82122 H 1606.85 4.55889 -6.76652 0
M  V30 82123 P 1602.89 4.23843 -7.83734 0
M  V30 82124 O 1602.67 4.19407 -9.29784 0
M  V30 82125 O 1602.1 5.24426 -7.09156 0
M  V30 82126 O 1602.64 2.7935 -7.20758 0
M  V30 82127 C 1603.58 1.72945 -7.50224 0
M  V30 82128 C 1602.85 0.406376 -7.57911 0
M  V30 82129 O 1602.64 -0.0897726 -6.21935 0
M  V30 82130 C 1601.45 0.438983 -8.18724 0
M  V30 82131 O 1601.06 -0.825065 -8.71101 0
M  V30 82132 C 1600.57 0.783689 -6.99524 0
M  V30 82133 C 1601.28 0.0619086 -5.85867 0
M  V30 82134 N 1601.23 0.78573 -4.56183 0
M  V30 82135 C 1601.08 0.0292889 -3.41887 0
M  V30 82136 O 1600.99 -1.18445 -3.4419 0
M  V30 82137 N 1601.04 0.744061 -2.23964 0
M  V30 82138 C 1601.13 2.10932 -2.10362 0
M  V30 82139 O 1601.08 2.64117 -0.98825 0
M  V30 82140 C 1601.28 2.8202 -3.34994 0
M  V30 82141 C 1601.39 4.31095 -3.25037 0
M  V30 82142 C 1601.33 2.15547 -4.52261 0
M  V30 82143 H 1604.07 1.93379 -8.46595 0
M  V30 82144 H 1604.34 1.68132 -6.70852 0
M  V30 82145 H 1603.47 -0.289041 -8.15388 0
M  V30 82146 H 1600.82 -0.926847 -5.72749 0
M  V30 82147 H 1600.54 1.86973 -6.82036 0
M  V30 82148 H 1599.55 0.403896 -7.13257 0
M  V30 82149 H 1601.38 1.20585 -8.97435 0
M  V30 82150 H 1601.45 2.71231 -5.45042 0
M  V30 82151 H 1600.42 4.76966 -3.49992 0
M  V30 82152 H 1602.16 4.67047 -3.95024 0
M  V30 82153 H 1601.67 4.58996 -2.22312 0
M  V30 82154 H 1600.94 0.214893 -1.39758 0
M  V30 82155 P 1599.51 -1.17771 -8.83182 0
M  V30 82156 O 1599.29 -2.07206 -9.98732 0
M  V30 82157 O 1598.72 0.0743816 -8.81969 0
M  V30 82158 O 1599.26 -1.97652 -7.47304 0
M  V30 82159 C 1600.2 -3.01133 -7.08783 0
M  V30 82160 C 1599.47 -4.12613 -6.37049 0
M  V30 82161 O 1599.26 -3.72827 -4.97879 0
M  V30 82162 C 1598.07 -4.45085 -6.88694 0
M  V30 82163 O 1597.68 -5.7877 -6.5624 0
M  V30 82164 C 1597.19 -3.47817 -6.12078 0
M  V30 82165 C 1597.9 -3.39414 -4.77697 0
M  V30 82166 N 1597.85 -2.04199 -4.15538 0
M  V30 82167 C 1597.93 -0.821545 -4.76977 0
M  V30 82168 N 1597.86 0.1794 -3.94592 0
M  V30 82169 C 1597.71 -0.419121 -2.70776 0
M  V30 82170 C 1597.58 0.109072 -1.40577 0
M  V30 82171 N 1597.57 1.4104 -1.1344 0
M  V30 82172 N 1597.46 -0.764381 -0.39411 0
M  V30 82173 C 1597.47 -2.06587 -0.664135 0
M  V30 82174 N 1597.59 -2.67948 -1.82153 0
M  V30 82175 C 1597.71 -1.77942 -2.8147 0
M  V30 82176 H 1600.69 -3.41248 -7.98759 0
M  V30 82177 H 1600.96 -2.57728 -6.42 0
M  V30 82178 H 1600.09 -5.02657 -6.42673 0
M  V30 82179 H 1597.44 -4.11708 -4.08956 0
M  V30 82180 H 1597.16 -2.49626 -6.61679 0
M  V30 82181 H 1596.17 -3.8662 -6.00862 0
M  V30 82182 H 1598 -4.29991 -7.97006 0
M  V30 82183 H 1598.04 -0.702451 -5.84696 0
M  V30 82184 H 1597.66 2.09647 -1.89651 0
M  V30 82185 H 1597.47 1.73358 -0.160575 0
M  V30 82186 H 1597.36 -2.71695 0.195838 0
M  V30 82187 P 1596.13 -6.144 -6.45285 0
M  V30 82188 O 1595.91 -7.54673 -6.86199 0
M  V30 82189 O 1595.34 -5.12391 -7.179 0
M  V30 82190 O 1595.88 -5.99158 -4.88404 0
M  V30 82191 C 1596.82 -6.60234 -3.96415 0
M  V30 82192 C 1596.09 -7.08259 -2.72856 0
M  V30 82193 O 1595.88 -5.9427 -1.83651 0
M  V30 82194 C 1594.69 -7.64886 -2.9555 0
M  V30 82195 O 1594.3 -8.53963 -1.90717 0
M  V30 82196 C 1593.81 -6.4116 -2.90739 0
M  V30 82197 C 1594.52 -5.55375 -1.86963 0
M  V30 82198 N 1594.47 -4.09448 -2.16152 0
M  V30 82199 H 1597.31 -7.45574 -4.45629 0
M  V30 82200 H 1597.58 -5.85864 -3.679 0
M  V30 82201 H 1596.71 -7.84412 -2.24479 0
M  V30 82202 H 1594.06 -5.73457 -0.888562 0
M  V30 82203 H 1593.78 -5.90877 -3.88583 0
M  V30 82204 H 1592.79 -6.6596 -2.58858 0
M  V30 82205 H 1594.62 -8.16339 -3.92049 0
M  V30 82206 P 1592.75 -8.7635 -1.60911 0
M  V30 82207 O 1592.53 -10.1388 -1.11561 0
M  V30 82208 O 1591.96 -8.36503 -2.79617 0
M  V30 82209 O 1592.5 -7.71806 -0.42951 0
M  V30 82210 C 1593.44 -7.67148 0.673689 0
M  V30 82211 C 1592.71 -7.33374 1.95559 0
M  V30 82212 O 1592.5 -5.88721 2.00726 0
M  V30 82213 C 1591.31 -7.92526 2.10483 0
M  V30 82214 O 1590.92 -8.02971 3.47653 0
M  V30 82215 C 1590.43 -6.89602 1.41652 0
M  V30 82216 C 1591.14 -5.59201 1.75185 0
M  V30 82217 N 1591.09 -4.58235 0.662552 0
M  V30 82218 H 1593.93 -8.65116 0.777161 0
M  V30 82219 H 1594.2 -6.90173 0.474152 0
M  V30 82220 H 1593.33 -7.66548 2.79458 0
M  V30 82221 P 1589.37 -8.03563 3.84925 0
M  V30 82222 O 1589.15 -8.85821 5.0569 0
M  V30 82223 O 1588.58 -8.41101 2.65469 0
M  V30 82224 O 1589.12 -6.4965 4.18908 0
M  V30 82225 C 1590.06 -5.81037 5.05421 0
M  V30 82226 C 1589.33 -4.78366 5.89277 0
M  V30 82227 O 1589.12 -3.58302 5.08433 0
M  V30 82228 C 1587.93 -5.17448 6.36119 0
M  V30 82229 O 1587.54 -4.45271 7.53232 0
M  V30 82230 C 1587.05 -4.74639 5.19936 0
M  V30 82231 C 1587.76 -3.49432 4.70418 0
M  V30 82232 N 1587.71 -3.31776 3.22945 0
M  V30 82233 H 1590.55 -6.54213 5.71376 0
M  V30 82234 H 1590.82 -5.30492 4.44033 0
M  V30 82235 H 1589.95 -4.55889 6.76652 0
M  V30 82236 P 1585.99 -4.23843 7.83734 0
M  V30 82237 O 1585.77 -4.19407 9.29784 0
M  V30 82238 O 1585.2 -5.24426 7.09156 0
M  V30 82239 O 1585.74 -2.7935 7.20758 0
M  V30 82240 C 1586.68 -1.7299 7.50419 0
M  V30 82241 C 1585.95 -0.406376 7.57911 0
M  V30 82242 O 1585.74 0.0897726 6.21935 0
M  V30 82243 C 1584.55 -0.447224 8.1878 0
M  V30 82244 O 1584.16 0.825065 8.71101 0
M  V30 82245 C 1583.67 -0.783801 6.99623 0
M  V30 82246 C 1584.38 -0.0619192 5.85967 0
M  V30 82247 N 1584.33 -0.7859 4.56281 0
M  V30 82248 C 1584.41 -2.14308 4.31736 0
M  V30 82249 N 1584.33 -2.46106 3.05116 0
M  V30 82250 C 1584.19 -1.23422 2.4014 0
M  V30 82251 C 1584.06 -0.938381 1.02409 0
M  V30 82252 N 1583.94 0.444647 0.805413 0
M  V30 82253 C 1583.94 1.40829 1.79435 0
M  V30 82254 N 1583.81 2.67213 1.38558 0
M  V30 82255 N 1584.07 1.12947 3.09005 0
M  V30 82256 C 1584.19 -0.204887 3.32369 0
M  V30 82257 H 1587.17 -1.93423 8.4679 0
M  V30 82258 H 1587.44 -1.68181 6.71046 0
M  V30 82259 H 1586.57 0.289041 8.15388 0
M  V30 82260 P 1582.61 1.17771 8.83182 0
M  V30 82261 O 1582.39 2.07206 9.98732 0
M  V30 82262 O 1581.82 -0.0743816 8.81969 0
M  V30 82263 O 1582.36 1.97652 7.47304 0
M  V30 82264 C 1583.3 3.01133 7.08783 0
M  V30 82265 C 1582.57 4.12613 6.37049 0
M  V30 82266 O 1582.36 3.72827 4.97879 0
M  V30 82267 C 1581.17 4.45085 6.88694 0
M  V30 82268 O 1580.78 5.7877 6.5624 0
M  V30 82269 C 1580.29 3.47817 6.12078 0
M  V30 82270 C 1581 3.39414 4.77697 0
M  V30 82271 N 1580.95 2.04615 4.15333 0
M  V30 82272 H 1583.79 3.41248 7.98759 0
M  V30 82273 H 1584.06 2.5837 6.41742 0
M  V30 82274 H 1583.19 5.02657 6.42673 0
M  V30 82275 P 1579.23 6.144 6.45285 0
M  V30 82276 O 1579.01 7.54673 6.86199 0
M  V30 82277 O 1578.44 5.12391 7.179 0
M  V30 82278 O 1578.98 5.99158 4.88404 0
M  V30 82279 C 1579.92 6.60234 3.96415 0
M  V30 82280 C 1579.19 7.08259 2.72856 0
M  V30 82281 O 1578.98 5.9427 1.83651 0
M  V30 82282 C 1577.79 7.64886 2.9555 0
M  V30 82283 O 1577.4 8.53963 1.90717 0
M  V30 82284 C 1576.91 6.4116 2.90739 0
M  V30 82285 C 1577.62 5.55375 1.86963 0
M  V30 82286 N 1577.57 4.09664 2.15742 0
M  V30 82287 H 1580.41 7.45574 4.45629 0
M  V30 82288 H 1580.68 5.86232 3.67314 0
M  V30 82289 H 1579.81 7.84412 2.24479 0
M  V30 82290 P 1575.85 8.7635 1.60911 0
M  V30 82291 O 1575.63 10.1388 1.11561 0
M  V30 82292 O 1575.06 8.36503 2.79617 0
M  V30 82293 O 1575.6 7.71806 0.42951 0
M  V30 82294 C 1576.54 7.66948 -0.673514 0
M  V30 82295 C 1575.81 7.33374 -1.95559 0
M  V30 82296 O 1575.6 5.88721 -2.00726 0
M  V30 82297 C 1574.41 7.92218 -2.1125 0
M  V30 82298 O 1574.02 8.02971 -3.47653 0
M  V30 82299 C 1573.53 6.89504 -1.41631 0
M  V30 82300 C 1574.24 5.59106 -1.75155 0
M  V30 82301 N 1574.19 4.58136 -0.662409 0
M  V30 82302 C 1574.04 3.26059 -1.02863 0
M  V30 82303 O 1573.95 2.90743 -2.19009 0
M  V30 82304 N 1574 2.35995 0.0155585 0
M  V30 82305 C 1574.09 2.65248 1.35603 0
M  V30 82306 C 1574.24 4.05747 1.64698 0
M  V30 82307 C 1574.29 4.96734 0.652411 0
M  V30 82308 H 1577.03 8.64917 -0.776982 0
M  V30 82309 H 1577.3 6.89974 -0.474015 0
M  V30 82310 H 1576.43 7.66548 -2.79458 0
M  V30 82311 H 1573.78 5.16076 -2.65138 0
M  V30 82312 H 1573.5 7.06433 -0.329384 0
M  V30 82313 H 1572.51 6.90829 -1.81996 0
M  V30 82314 H 1574.34 8.90774 -1.62639 0
M  V30 82315 H 1574.41 6.02181 0.895285 0
M  V30 82316 P 1572.47 8.03563 -3.84925 0
M  V30 82317 O 1572.25 8.85821 -5.0569 0
M  V30 82318 O 1571.68 8.41101 -2.65469 0
M  V30 82319 O 1572.22 6.4965 -4.18908 0
M  V30 82320 C 1573.16 5.81037 -5.05421 0
M  V30 82321 C 1572.43 4.78366 -5.89277 0
M  V30 82322 O 1572.22 3.58302 -5.08433 0
M  V30 82323 C 1571.03 5.17448 -6.36119 0
M  V30 82324 O 1570.64 4.45271 -7.53232 0
M  V30 82325 C 1570.15 4.74639 -5.19936 0
M  V30 82326 C 1570.86 3.49432 -4.70418 0
M  V30 82327 N 1570.81 3.32099 -3.22613 0
M  V30 82328 H 1573.65 6.54213 -5.71376 0
M  V30 82329 H 1573.92 5.30936 -4.43503 0
M  V30 82330 H 1573.05 4.55889 -6.76652 0
M  V30 82331 H 1570.4 2.61715 -5.17932 0
M  V30 82332 H 1570.12 5.52155 -4.41878 0
M  V30 82333 H 1569.13 4.51981 -5.53374 0
M  V30 82334 H 1570.96 6.25124 -6.55234 0
M  V30 82335 P 1569.09 4.23843 -7.83734 0
M  V30 82336 O 1568.87 4.19407 -9.29784 0
M  V30 82337 O 1568.3 5.24426 -7.09156 0
M  V30 82338 O 1568.84 2.7935 -7.20758 0
M  V30 82339 C 1569.78 1.72945 -7.50224 0
M  V30 82340 C 1569.05 0.406376 -7.57911 0
M  V30 82341 O 1568.84 -0.0897726 -6.21935 0
M  V30 82342 C 1567.65 0.438983 -8.18724 0
M  V30 82343 O 1567.26 -0.825065 -8.71101 0
M  V30 82344 C 1566.77 0.783689 -6.99524 0
M  V30 82345 C 1567.48 0.0619086 -5.85867 0
M  V30 82346 N 1567.43 0.78573 -4.56183 0
M  V30 82347 C 1567.28 0.0292889 -3.41887 0
M  V30 82348 O 1567.19 -1.18445 -3.4419 0
M  V30 82349 N 1567.24 0.744061 -2.23964 0
M  V30 82350 C 1567.33 2.10932 -2.10362 0
M  V30 82351 O 1567.28 2.64117 -0.98825 0
M  V30 82352 C 1567.48 2.8202 -3.34994 0
M  V30 82353 C 1567.59 4.31095 -3.25037 0
M  V30 82354 C 1567.53 2.15547 -4.52261 0
M  V30 82355 H 1570.27 1.93379 -8.46595 0
M  V30 82356 H 1570.54 1.68132 -6.70852 0
M  V30 82357 H 1569.67 -0.289041 -8.15388 0
M  V30 82358 H 1567.02 -0.926847 -5.72749 0
M  V30 82359 H 1566.74 1.86973 -6.82036 0
M  V30 82360 H 1565.75 0.403896 -7.13257 0
M  V30 82361 H 1567.58 1.20585 -8.97435 0
M  V30 82362 H 1567.65 2.71231 -5.45042 0
M  V30 82363 H 1566.62 4.76966 -3.49992 0
M  V30 82364 H 1568.36 4.67047 -3.95024 0
M  V30 82365 H 1567.87 4.58996 -2.22312 0
M  V30 82366 H 1567.14 0.214893 -1.39758 0
M  V30 82367 P 1565.71 -1.17771 -8.83182 0
M  V30 82368 O 1565.49 -2.07206 -9.98732 0
M  V30 82369 O 1564.92 0.0743816 -8.81969 0
M  V30 82370 O 1565.46 -1.97652 -7.47304 0
M  V30 82371 C 1566.4 -3.01133 -7.08783 0
M  V30 82372 C 1565.67 -4.12613 -6.37049 0
M  V30 82373 O 1565.46 -3.72827 -4.97879 0
M  V30 82374 C 1564.27 -4.45085 -6.88694 0
M  V30 82375 O 1563.88 -5.7877 -6.5624 0
M  V30 82376 C 1563.39 -3.47817 -6.12078 0
M  V30 82377 C 1564.1 -3.39414 -4.77697 0
M  V30 82378 N 1564.05 -2.04615 -4.15333 0
M  V30 82379 H 1566.89 -3.41248 -7.98759 0
M  V30 82380 H 1567.16 -2.5837 -6.41742 0
M  V30 82381 H 1566.29 -5.02657 -6.42673 0
M  V30 82382 P 1562.33 -6.144 -6.45285 0
M  V30 82383 O 1562.11 -7.54673 -6.86199 0
M  V30 82384 O 1561.54 -5.12391 -7.179 0
M  V30 82385 O 1562.08 -5.99158 -4.88404 0
M  V30 82386 C 1563.02 -6.60234 -3.96415 0
M  V30 82387 C 1562.29 -7.08259 -2.72856 0
M  V30 82388 O 1562.08 -5.9427 -1.83651 0
M  V30 82389 C 1560.89 -7.64886 -2.9555 0
M  V30 82390 O 1560.5 -8.53963 -1.90717 0
M  V30 82391 C 1560.01 -6.4116 -2.90739 0
M  V30 82392 C 1560.72 -5.55375 -1.86963 0
M  V30 82393 N 1560.67 -4.09664 -2.15742 0
M  V30 82394 H 1563.51 -7.45574 -4.45629 0
M  V30 82395 H 1563.78 -5.86232 -3.67314 0
M  V30 82396 H 1562.91 -7.84412 -2.24479 0
M  V30 82397 P 1558.95 -8.7635 -1.60911 0
M  V30 82398 O 1558.73 -10.1388 -1.11561 0
M  V30 82399 O 1558.16 -8.36503 -2.79617 0
M  V30 82400 O 1558.7 -7.71806 -0.42951 0
M  V30 82401 C 1559.64 -7.67148 0.673689 0
M  V30 82402 C 1558.91 -7.33374 1.95559 0
M  V30 82403 O 1558.7 -5.88721 2.00726 0
M  V30 82404 C 1557.51 -7.92526 2.10483 0
M  V30 82405 O 1557.12 -8.02971 3.47653 0
M  V30 82406 C 1556.63 -6.89602 1.41652 0
M  V30 82407 C 1557.34 -5.59201 1.75185 0
M  V30 82408 N 1557.29 -4.58301 0.657969 0
M  V30 82409 H 1560.13 -8.65116 0.777161 0
M  V30 82410 H 1560.4 -6.9022 0.46725 0
M  V30 82411 H 1559.53 -7.66548 2.79458 0
M  V30 82412 H 1556.88 -5.16165 2.65183 0
M  V30 82413 H 1556.6 -7.06433 0.329384 0
M  V30 82414 H 1555.61 -6.90926 1.82021 0
M  V30 82415 H 1557.44 -8.90873 1.62657 0
M  V30 82416 P 1555.57 -8.03563 3.84925 0
M  V30 82417 O 1555.35 -8.85821 5.0569 0
M  V30 82418 O 1554.78 -8.41101 2.65469 0
M  V30 82419 O 1555.32 -6.4965 4.18908 0
M  V30 82420 C 1556.26 -5.81037 5.05421 0
M  V30 82421 C 1555.53 -4.78366 5.89277 0
M  V30 82422 O 1555.32 -3.58302 5.08433 0
M  V30 82423 C 1554.13 -5.17448 6.36119 0
M  V30 82424 O 1553.74 -4.45271 7.53232 0
M  V30 82425 C 1553.25 -4.74639 5.19936 0
M  V30 82426 C 1553.96 -3.49432 4.70418 0
M  V30 82427 N 1553.91 -3.31776 3.22945 0
M  V30 82428 H 1556.75 -6.54213 5.71376 0
M  V30 82429 H 1557.02 -5.30492 4.44033 0
M  V30 82430 H 1556.15 -4.55889 6.76652 0
M  V30 82431 P 1552.19 -4.23843 7.83734 0
M  V30 82432 O 1551.97 -4.19407 9.29784 0
M  V30 82433 O 1551.4 -5.24426 7.09156 0
M  V30 82434 O 1551.94 -2.7935 7.20758 0
M  V30 82435 C 1552.88 -1.72945 7.50224 0
M  V30 82436 C 1552.15 -0.406376 7.57911 0
M  V30 82437 O 1551.94 0.0897726 6.21935 0
M  V30 82438 C 1550.75 -0.438983 8.18724 0
M  V30 82439 O 1550.36 0.825065 8.71101 0
M  V30 82440 C 1549.87 -0.783689 6.99524 0
M  V30 82441 C 1550.58 -0.0619086 5.85867 0
M  V30 82442 N 1550.53 -0.78573 4.56183 0
M  V30 82443 C 1550.38 -0.0292889 3.41887 0
M  V30 82444 O 1550.29 1.18445 3.4419 0
M  V30 82445 N 1550.34 -0.744061 2.23964 0
M  V30 82446 C 1550.43 -2.10932 2.10362 0
M  V30 82447 O 1550.38 -2.64117 0.98825 0
M  V30 82448 C 1550.58 -2.8202 3.34994 0
M  V30 82449 C 1550.69 -4.31095 3.25037 0
M  V30 82450 C 1550.63 -2.15547 4.52261 0
M  V30 82451 H 1553.37 -1.93379 8.46595 0
M  V30 82452 H 1553.64 -1.68132 6.70852 0
M  V30 82453 H 1552.77 0.289041 8.15388 0
M  V30 82454 H 1550.12 0.926847 5.72749 0
M  V30 82455 H 1549.84 -1.86973 6.82036 0
M  V30 82456 H 1548.85 -0.403896 7.13257 0
M  V30 82457 H 1550.68 -1.20585 8.97435 0
M  V30 82458 H 1550.75 -2.71231 5.45042 0
M  V30 82459 H 1549.72 -4.76966 3.49992 0
M  V30 82460 H 1551.46 -4.67047 3.95024 0
M  V30 82461 H 1550.97 -4.58996 2.22312 0
M  V30 82462 H 1550.24 -0.214893 1.39758 0
M  V30 82463 P 1548.81 1.17771 8.83182 0
M  V30 82464 O 1548.59 2.07206 9.98732 0
M  V30 82465 O 1548.02 -0.0743816 8.81969 0
M  V30 82466 O 1548.56 1.97652 7.47304 0
M  V30 82467 C 1549.5 3.01133 7.08783 0
M  V30 82468 C 1548.77 4.12613 6.37049 0
M  V30 82469 O 1548.56 3.72827 4.97879 0
M  V30 82470 C 1547.37 4.45085 6.88694 0
M  V30 82471 O 1546.98 5.7877 6.5624 0
M  V30 82472 C 1546.49 3.47817 6.12078 0
M  V30 82473 C 1547.2 3.39414 4.77697 0
M  V30 82474 N 1547.15 2.04615 4.15333 0
M  V30 82475 H 1549.99 3.41248 7.98759 0
M  V30 82476 H 1550.26 2.5837 6.41742 0
M  V30 82477 H 1549.39 5.02657 6.42673 0
M  V30 82478 P 1545.43 6.144 6.45285 0
M  V30 82479 O 1545.21 7.54673 6.86199 0
M  V30 82480 O 1544.64 5.12391 7.179 0
M  V30 82481 O 1545.18 5.99158 4.88404 0
M  V30 82482 C 1546.12 6.60234 3.96415 0
M  V30 82483 C 1545.39 7.08259 2.72856 0
M  V30 82484 O 1545.18 5.9427 1.83651 0
M  V30 82485 C 1543.99 7.64886 2.9555 0
M  V30 82486 O 1543.6 8.53963 1.90717 0
M  V30 82487 C 1543.11 6.4116 2.90739 0
M  V30 82488 C 1543.82 5.55375 1.86963 0
M  V30 82489 N 1543.77 4.09448 2.16152 0
M  V30 82490 H 1546.61 7.45574 4.45629 0
M  V30 82491 H 1546.88 5.85864 3.679 0
M  V30 82492 H 1546.01 7.84412 2.24479 0
M  V30 82493 H 1543.36 5.73457 0.888562 0
M  V30 82494 H 1543.08 5.90877 3.88583 0
M  V30 82495 H 1542.09 6.6596 2.58858 0
M  V30 82496 H 1543.92 8.16339 3.92049 0
M  V30 82497 P 1542.05 8.7635 1.60911 0
M  V30 82498 O 1541.83 10.1388 1.11561 0
M  V30 82499 O 1541.26 8.36503 2.79617 0
M  V30 82500 O 1541.8 7.71806 0.42951 0
M  V30 82501 C 1542.74 7.67148 -0.673689 0
M  V30 82502 C 1542.01 7.33374 -1.95559 0
M  V30 82503 O 1541.8 5.88721 -2.00726 0
M  V30 82504 C 1540.61 7.92526 -2.10483 0
M  V30 82505 O 1540.22 8.02971 -3.47653 0
M  V30 82506 C 1539.73 6.89602 -1.41652 0
M  V30 82507 C 1540.44 5.59201 -1.75185 0
M  V30 82508 N 1540.39 4.58301 -0.657969 0
M  V30 82509 H 1543.23 8.65116 -0.777161 0
M  V30 82510 H 1543.5 6.9022 -0.46725 0
M  V30 82511 H 1542.63 7.66548 -2.79458 0
M  V30 82512 H 1539.98 5.16165 -2.65183 0
M  V30 82513 H 1539.7 7.06433 -0.329384 0
M  V30 82514 H 1538.71 6.90926 -1.82021 0
M  V30 82515 H 1540.54 8.90873 -1.62657 0
M  V30 82516 P 1538.67 8.03563 -3.84925 0
M  V30 82517 O 1538.45 8.85821 -5.0569 0
M  V30 82518 O 1537.88 8.41101 -2.65469 0
M  V30 82519 O 1538.42 6.4965 -4.18908 0
M  V30 82520 C 1539.36 5.81037 -5.05421 0
M  V30 82521 C 1538.63 4.78366 -5.89277 0
M  V30 82522 O 1538.42 3.58302 -5.08433 0
M  V30 82523 C 1537.23 5.17448 -6.36119 0
M  V30 82524 O 1536.84 4.45271 -7.53232 0
M  V30 82525 C 1536.35 4.74639 -5.19936 0
M  V30 82526 C 1537.06 3.49432 -4.70418 0
M  V30 82527 N 1537.01 3.31776 -3.22945 0
M  V30 82528 H 1539.85 6.54213 -5.71376 0
M  V30 82529 H 1540.12 5.30492 -4.44033 0
M  V30 82530 H 1539.25 4.55889 -6.76652 0
M  V30 82531 P 1535.29 4.23843 -7.83734 0
M  V30 82532 O 1535.07 4.19407 -9.29784 0
M  V30 82533 O 1534.5 5.24426 -7.09156 0
M  V30 82534 O 1535.04 2.7935 -7.20758 0
M  V30 82535 C 1535.98 1.7299 -7.50419 0
M  V30 82536 C 1535.25 0.406376 -7.57911 0
M  V30 82537 O 1535.04 -0.0897726 -6.21935 0
M  V30 82538 C 1533.85 0.447224 -8.1878 0
M  V30 82539 O 1533.46 -0.825065 -8.71101 0
M  V30 82540 C 1532.97 0.783801 -6.99623 0
M  V30 82541 C 1533.68 0.0619192 -5.85967 0
M  V30 82542 N 1533.63 0.790462 -4.56202 0
M  V30 82543 C 1533.71 2.13895 -4.34171 0
M  V30 82544 N 1533.64 2.46449 -3.08687 0
M  V30 82545 C 1533.49 1.2525 -2.43697 0
M  V30 82546 C 1533.36 0.914535 -1.07318 0
M  V30 82547 N 1533.35 1.80782 -0.0887348 0
M  V30 82548 N 1533.24 -0.386745 -0.768133 0
M  V30 82549 C 1533.25 -1.28096 -1.75159 0
M  V30 82550 N 1533.37 -1.09708 -3.04861 0
M  V30 82551 C 1533.49 0.214857 -3.32306 0
M  V30 82552 H 1536.47 1.93423 -8.4679 0
M  V30 82553 H 1536.74 1.68852 -6.70877 0
M  V30 82554 H 1535.87 -0.289041 -8.15388 0
M  V30 82555 H 1533.22 -0.927006 -5.72848 0
M  V30 82556 H 1532.94 1.86973 -6.82036 0
M  V30 82557 H 1531.95 0.403953 -7.13357 0
M  V30 82558 H 1533.78 1.20599 -8.97534 0
M  V30 82559 H 1533.82 2.86846 -5.14318 0
M  V30 82560 H 1533.44 2.81082 -0.302037 0
M  V30 82561 H 1533.25 1.49688 0.889064 0
M  V30 82562 H 1533.14 -2.31317 -1.43855 0
M  V30 82563 P 1531.91 -1.17771 -8.83182 0
M  V30 82564 O 1531.69 -2.07206 -9.98732 0
M  V30 82565 O 1531.12 0.0743816 -8.81969 0
M  V30 82566 O 1531.66 -1.97652 -7.47304 0
M  V30 82567 C 1532.6 -3.01133 -7.08783 0
M  V30 82568 C 1531.87 -4.12613 -6.37049 0
M  V30 82569 O 1531.66 -3.72827 -4.97879 0
M  V30 82570 C 1530.47 -4.45085 -6.88694 0
M  V30 82571 O 1530.08 -5.7877 -6.5624 0
M  V30 82572 C 1529.59 -3.47817 -6.12078 0
M  V30 82573 C 1530.3 -3.39414 -4.77697 0
M  V30 82574 N 1530.25 -2.04615 -4.15333 0
M  V30 82575 C 1530.33 -0.803897 -4.75249 0
M  V30 82576 N 1530.25 0.197615 -3.91502 0
M  V30 82577 C 1530.11 -0.413002 -2.66823 0
M  V30 82578 C 1529.98 0.157221 -1.38007 0
M  V30 82579 O 1529.96 1.34419 -1.057 0
M  V30 82580 N 1529.86 -0.833136 -0.390236 0
M  V30 82581 C 1529.86 -2.19402 -0.623885 0
M  V30 82582 N 1529.73 -2.97622 0.449677 0
M  V30 82583 N 1529.99 -2.73005 -1.83601 0
M  V30 82584 C 1530.11 -1.78786 -2.80935 0
M  V30 82585 H 1533.09 -3.41248 -7.98759 0
M  V30 82586 H 1533.36 -2.5837 -6.41742 0
M  V30 82587 H 1532.49 -5.02657 -6.42673 0
M  V30 82588 H 1529.84 -4.11779 -4.09026 0
M  V30 82589 H 1529.56 -2.49661 -6.61772 0
M  V30 82590 H 1528.57 -3.86674 -6.00946 0
M  V30 82591 H 1530.4 -4.30038 -7.97094 0
M  V30 82592 H 1530.45 -0.670579 -5.82754 0
M  V30 82593 H 1529.77 -0.528446 0.557287 0
M  V30 82594 H 1529.73 -4.00117 0.344773 0
M  V30 82595 H 1529.63 -2.55448 1.38544 0
M  V30 82596 P 1528.53 -6.144 -6.45285 0
M  V30 82597 O 1528.31 -7.54673 -6.86199 0
M  V30 82598 O 1527.74 -5.12391 -7.179 0
M  V30 82599 O 1528.28 -5.99158 -4.88404 0
M  V30 82600 C 1529.22 -6.60234 -3.96415 0
M  V30 82601 C 1528.49 -7.08259 -2.72856 0
M  V30 82602 O 1528.28 -5.9427 -1.83651 0
M  V30 82603 C 1527.09 -7.64886 -2.9555 0
M  V30 82604 O 1526.7 -8.53963 -1.90717 0
M  V30 82605 C 1526.21 -6.4116 -2.90739 0
M  V30 82606 C 1526.92 -5.55375 -1.86963 0
M  V30 82607 N 1526.87 -4.09448 -2.16152 0
M  V30 82608 H 1529.71 -7.45574 -4.45629 0
M  V30 82609 H 1529.98 -5.85864 -3.679 0
M  V30 82610 H 1529.11 -7.84412 -2.24479 0
M  V30 82611 H 1526.46 -5.73457 -0.888562 0
M  V30 82612 H 1526.18 -5.90877 -3.88583 0
M  V30 82613 H 1525.19 -6.6596 -2.58858 0
M  V30 82614 H 1527.02 -8.16339 -3.92049 0
M  V30 82615 P 1525.15 -8.7635 -1.60911 0
M  V30 82616 O 1524.93 -10.1388 -1.11561 0
M  V30 82617 O 1524.36 -8.36503 -2.79617 0
M  V30 82618 O 1524.9 -7.71806 -0.42951 0
M  V30 82619 C 1525.84 -7.67148 0.673689 0
M  V30 82620 C 1525.11 -7.33374 1.95559 0
M  V30 82621 O 1524.9 -5.88721 2.00726 0
M  V30 82622 C 1523.71 -7.92526 2.10483 0
M  V30 82623 O 1523.32 -8.02971 3.47653 0
M  V30 82624 C 1522.83 -6.89602 1.41652 0
M  V30 82625 C 1523.54 -5.59201 1.75185 0
M  V30 82626 N 1523.49 -4.58235 0.662552 0
M  V30 82627 H 1526.33 -8.65116 0.777161 0
M  V30 82628 H 1526.6 -6.90173 0.474152 0
M  V30 82629 H 1525.73 -7.66548 2.79458 0
M  V30 82630 P 1521.77 -8.03563 3.84925 0
M  V30 82631 O 1521.55 -8.85821 5.0569 0
M  V30 82632 O 1520.98 -8.41101 2.65469 0
M  V30 82633 O 1521.52 -6.4965 4.18908 0
M  V30 82634 C 1522.46 -5.81037 5.05421 0
M  V30 82635 C 1521.73 -4.78366 5.89277 0
M  V30 82636 O 1521.52 -3.58302 5.08433 0
M  V30 82637 C 1520.33 -5.17448 6.36119 0
M  V30 82638 O 1519.94 -4.45271 7.53232 0
M  V30 82639 C 1519.45 -4.74639 5.19936 0
M  V30 82640 C 1520.16 -3.49432 4.70418 0
M  V30 82641 N 1520.11 -3.31776 3.22945 0
M  V30 82642 H 1522.95 -6.54213 5.71376 0
M  V30 82643 H 1523.22 -5.30492 4.44033 0
M  V30 82644 H 1522.35 -4.55889 6.76652 0
M  V30 82645 P 1518.39 -4.23843 7.83734 0
M  V30 82646 O 1518.17 -4.19407 9.29784 0
M  V30 82647 O 1517.6 -5.24426 7.09156 0
M  V30 82648 O 1518.14 -2.7935 7.20758 0
M  V30 82649 C 1519.08 -1.7299 7.50419 0
M  V30 82650 C 1518.35 -0.406376 7.57911 0
M  V30 82651 O 1518.14 0.0897726 6.21935 0
M  V30 82652 C 1516.95 -0.447224 8.1878 0
M  V30 82653 O 1516.56 0.825065 8.71101 0
M  V30 82654 C 1516.07 -0.783801 6.99623 0
M  V30 82655 C 1516.78 -0.0619192 5.85967 0
M  V30 82656 N 1516.73 -0.7859 4.56281 0
M  V30 82657 H 1519.57 -1.93423 8.4679 0
M  V30 82658 H 1519.84 -1.68181 6.71046 0
M  V30 82659 H 1518.97 0.289041 8.15388 0
M  V30 82660 P 1515.01 1.17771 8.83182 0
M  V30 82661 O 1514.79 2.07206 9.98732 0
M  V30 82662 O 1514.22 -0.0743816 8.81969 0
M  V30 82663 O 1514.76 1.97652 7.47304 0
M  V30 82664 C 1515.7 3.01055 7.08599 0
M  V30 82665 C 1514.97 4.12613 6.37049 0
M  V30 82666 O 1514.76 3.72827 4.97879 0
M  V30 82667 C 1513.57 4.45719 6.88164 0
M  V30 82668 O 1513.18 5.7877 6.5624 0
M  V30 82669 C 1512.69 3.47768 6.11991 0
M  V30 82670 C 1513.4 3.39356 4.77615 0
M  V30 82671 N 1513.35 2.04571 4.15244 0
M  V30 82672 C 1513.2 1.98587 2.78314 0
M  V30 82673 O 1513.11 2.98134 2.08835 0
M  V30 82674 N 1513.16 0.714467 2.24925 0
M  V30 82675 C 1513.25 -0.470001 2.94169 0
M  V30 82676 C 1513.4 -0.312541 4.36783 0
M  V30 82677 C 1513.45 0.914512 4.92583 0
M  V30 82678 H 1516.19 3.41169 7.98575 0
M  V30 82679 H 1516.46 2.58295 6.41556 0
M  V30 82680 H 1515.59 5.02657 6.42673 0
M  V30 82681 H 1512.94 4.11637 4.08885 0
M  V30 82682 H 1512.66 2.49626 6.61679 0
M  V30 82683 H 1511.67 3.86566 6.00778 0
M  V30 82684 H 1513.5 4.29943 7.96918 0
M  V30 82685 H 1513.57 1.00937 6.00374 0
M  V30 82686 P 1511.63 6.144 6.45285 0
M  V30 82687 O 1511.41 7.54673 6.86199 0
M  V30 82688 O 1510.84 5.12391 7.179 0
M  V30 82689 O 1511.38 5.99158 4.88404 0
M  V30 82690 C 1512.32 6.60234 3.96415 0
M  V30 82691 C 1511.59 7.08259 2.72856 0
M  V30 82692 O 1511.38 5.9427 1.83651 0
M  V30 82693 C 1510.19 7.64886 2.9555 0
M  V30 82694 O 1509.8 8.53963 1.90717 0
M  V30 82695 C 1509.31 6.4116 2.90739 0
M  V30 82696 C 1510.02 5.55375 1.86963 0
M  V30 82697 N 1509.97 4.09664 2.15742 0
M  V30 82698 H 1512.81 7.45574 4.45629 0
M  V30 82699 H 1513.08 5.86232 3.67314 0
M  V30 82700 H 1512.21 7.84412 2.24479 0
M  V30 82701 P 1508.25 8.7635 1.60911 0
M  V30 82702 O 1508.03 10.1388 1.11561 0
M  V30 82703 O 1507.46 8.36503 2.79617 0
M  V30 82704 O 1508 7.71806 0.42951 0
M  V30 82705 C 1508.94 7.66948 -0.673514 0
M  V30 82706 C 1508.21 7.33374 -1.95559 0
M  V30 82707 O 1508 5.88721 -2.00726 0
M  V30 82708 C 1506.81 7.92218 -2.1125 0
M  V30 82709 O 1506.42 8.02971 -3.47653 0
M  V30 82710 C 1505.93 6.89504 -1.41631 0
M  V30 82711 C 1506.64 5.59106 -1.75155 0
M  V30 82712 N 1506.59 4.58136 -0.662409 0
M  V30 82713 C 1506.44 3.26059 -1.02863 0
M  V30 82714 O 1506.35 2.90743 -2.19009 0
M  V30 82715 N 1506.4 2.35995 0.0155585 0
M  V30 82716 C 1506.49 2.65248 1.35603 0
M  V30 82717 O 1506.44 1.75605 2.20651 0
M  V30 82718 C 1506.64 4.05747 1.64698 0
M  V30 82719 C 1506.75 4.42345 3.09553 0
M  V30 82720 C 1506.69 4.96734 0.652411 0
M  V30 82721 H 1509.43 8.64917 -0.776982 0
M  V30 82722 H 1509.7 6.89974 -0.474015 0
M  V30 82723 H 1508.83 7.66548 -2.79458 0
M  V30 82724 H 1506.18 5.16076 -2.65138 0
M  V30 82725 H 1505.9 7.06433 -0.329384 0
M  V30 82726 H 1504.91 6.90829 -1.81996 0
M  V30 82727 H 1506.74 8.90774 -1.62639 0
M  V30 82728 H 1506.81 6.02181 0.895285 0
M  V30 82729 H 1505.78 4.80252 3.45468 0
M  V30 82730 H 1507.52 5.20015 3.22119 0
M  V30 82731 H 1507.03 3.53269 3.67833 0
M  V30 82732 H 1506.3 1.39558 -0.227499 0
M  V30 82733 P 1504.87 8.03563 -3.84925 0
M  V30 82734 O 1504.65 8.85821 -5.0569 0
M  V30 82735 O 1504.08 8.41101 -2.65469 0
M  V30 82736 O 1504.62 6.4965 -4.18908 0
M  V30 82737 C 1505.56 5.81037 -5.05421 0
M  V30 82738 C 1504.83 4.78366 -5.89277 0
M  V30 82739 O 1504.62 3.58302 -5.08433 0
M  V30 82740 C 1503.43 5.17448 -6.36119 0
M  V30 82741 O 1503.04 4.45271 -7.53232 0
M  V30 82742 C 1502.55 4.74639 -5.19936 0
M  V30 82743 C 1503.26 3.49432 -4.70418 0
M  V30 82744 N 1503.21 3.31776 -3.22945 0
M  V30 82745 H 1506.05 6.54213 -5.71376 0
M  V30 82746 H 1506.32 5.30492 -4.44033 0
M  V30 82747 H 1505.45 4.55889 -6.76652 0
M  V30 82748 P 1501.49 4.23843 -7.83734 0
M  V30 82749 O 1501.27 4.19407 -9.29784 0
M  V30 82750 O 1500.7 5.24426 -7.09156 0
M  V30 82751 O 1501.24 2.7935 -7.20758 0
M  V30 82752 C 1502.18 1.72945 -7.50224 0
M  V30 82753 C 1501.45 0.406376 -7.57911 0
M  V30 82754 O 1501.24 -0.0897726 -6.21935 0
M  V30 82755 C 1500.05 0.438983 -8.18724 0
M  V30 82756 O 1499.66 -0.825065 -8.71101 0
M  V30 82757 C 1499.17 0.783689 -6.99524 0
M  V30 82758 C 1499.88 0.0619086 -5.85867 0
M  V30 82759 N 1499.83 0.78573 -4.56183 0
M  V30 82760 C 1499.68 0.0292889 -3.41887 0
M  V30 82761 O 1499.59 -1.18445 -3.4419 0
M  V30 82762 N 1499.64 0.744061 -2.23964 0
M  V30 82763 C 1499.73 2.10932 -2.10362 0
M  V30 82764 O 1499.68 2.64117 -0.98825 0
M  V30 82765 C 1499.88 2.8202 -3.34994 0
M  V30 82766 C 1499.99 4.31095 -3.25037 0
M  V30 82767 C 1499.93 2.15547 -4.52261 0
M  V30 82768 H 1502.67 1.93379 -8.46595 0
M  V30 82769 H 1502.94 1.68132 -6.70852 0
M  V30 82770 H 1502.07 -0.289041 -8.15388 0
M  V30 82771 H 1499.42 -0.926847 -5.72749 0
M  V30 82772 H 1499.14 1.86973 -6.82036 0
M  V30 82773 H 1498.15 0.403896 -7.13257 0
M  V30 82774 H 1499.98 1.20585 -8.97435 0
M  V30 82775 H 1500.05 2.71231 -5.45042 0
M  V30 82776 H 1499.02 4.76966 -3.49992 0
M  V30 82777 H 1500.76 4.67047 -3.95024 0
M  V30 82778 H 1500.27 4.58996 -2.22312 0
M  V30 82779 H 1499.54 0.214893 -1.39758 0
M  V30 82780 P 1498.11 -1.17771 -8.83182 0
M  V30 82781 O 1497.89 -2.07206 -9.98732 0
M  V30 82782 O 1497.32 0.0743816 -8.81969 0
M  V30 82783 O 1497.86 -1.97652 -7.47304 0
M  V30 82784 C 1498.8 -3.01133 -7.08783 0
M  V30 82785 C 1498.07 -4.12613 -6.37049 0
M  V30 82786 O 1497.86 -3.72827 -4.97879 0
M  V30 82787 C 1496.67 -4.45085 -6.88694 0
M  V30 82788 O 1496.28 -5.7877 -6.5624 0
M  V30 82789 C 1495.79 -3.47817 -6.12078 0
M  V30 82790 C 1496.5 -3.39414 -4.77697 0
M  V30 82791 N 1496.45 -2.04615 -4.15333 0
M  V30 82792 C 1496.53 -0.803897 -4.75249 0
M  V30 82793 N 1496.45 0.197615 -3.91502 0
M  V30 82794 C 1496.31 -0.413002 -2.66823 0
M  V30 82795 C 1496.18 0.157221 -1.38007 0
M  V30 82796 O 1496.16 1.34419 -1.057 0
M  V30 82797 N 1496.06 -0.833136 -0.390236 0
M  V30 82798 C 1496.06 -2.19402 -0.623885 0
M  V30 82799 N 1495.93 -2.97622 0.449677 0
M  V30 82800 N 1496.19 -2.73005 -1.83601 0
M  V30 82801 C 1496.31 -1.78786 -2.80935 0
M  V30 82802 H 1499.29 -3.41248 -7.98759 0
M  V30 82803 H 1499.56 -2.5837 -6.41742 0
M  V30 82804 H 1498.69 -5.02657 -6.42673 0
M  V30 82805 H 1496.04 -4.11779 -4.09026 0
M  V30 82806 H 1495.76 -2.49661 -6.61772 0
M  V30 82807 H 1494.77 -3.86674 -6.00946 0
M  V30 82808 H 1496.6 -4.30038 -7.97094 0
M  V30 82809 H 1496.65 -0.670579 -5.82754 0
M  V30 82810 H 1495.97 -0.528446 0.557287 0
M  V30 82811 H 1495.93 -4.00117 0.344773 0
M  V30 82812 H 1495.83 -2.55448 1.38544 0
M  V30 82813 P 1494.73 -6.144 -6.45285 0
M  V30 82814 O 1494.51 -7.54673 -6.86199 0
M  V30 82815 O 1493.94 -5.12391 -7.179 0
M  V30 82816 O 1494.48 -5.99158 -4.88404 0
M  V30 82817 C 1495.42 -6.60062 -3.96313 0
M  V30 82818 C 1494.69 -7.08259 -2.72856 0
M  V30 82819 O 1494.48 -5.9427 -1.83651 0
M  V30 82820 C 1493.29 -7.65087 -2.94749 0
M  V30 82821 O 1492.9 -8.53963 -1.90717 0
M  V30 82822 C 1492.41 -6.41069 -2.90698 0
M  V30 82823 C 1493.12 -5.5528 -1.86931 0
M  V30 82824 N 1493.07 -4.09575 -2.15696 0
M  V30 82825 C 1492.92 -3.24249 -1.08435 0
M  V30 82826 O 1492.83 -3.63946 0.0628747 0
M  V30 82827 N 1492.88 -1.90009 -1.39973 0
M  V30 82828 C 1492.97 -1.34884 -2.65614 0
M  V30 82829 C 1493.12 -2.3145 -3.71736 0
M  V30 82830 C 1493.17 -3.63518 -3.44754 0
M  V30 82831 H 1495.91 -7.45402 -4.45526 0
M  V30 82832 H 1496.18 -5.86062 -3.67208 0
M  V30 82833 H 1495.31 -7.84412 -2.24479 0
M  V30 82834 H 1492.66 -5.73358 -0.888409 0
M  V30 82835 H 1492.38 -5.90877 -3.88583 0
M  V30 82836 H 1491.39 -6.65867 -2.58821 0
M  V30 82837 H 1493.22 -8.16248 -3.92006 0
M  V30 82838 H 1493.29 -4.34551 -4.26383 0
M  V30 82839 P 1491.35 -8.7635 -1.60911 0
M  V30 82840 O 1491.13 -10.1388 -1.11561 0
M  V30 82841 O 1490.56 -8.36503 -2.79617 0
M  V30 82842 O 1491.1 -7.71906 -0.429565 0
M  V30 82843 C 1492.04 -7.67148 0.673689 0
M  V30 82844 C 1491.31 -7.33666 1.94851 0
M  V30 82845 O 1491.1 -5.88816 2.00759 0
M  V30 82846 C 1489.91 -7.92526 2.10483 0
M  V30 82847 O 1489.52 -8.03063 3.47693 0
M  V30 82848 C 1489.03 -6.89602 1.41652 0
M  V30 82849 C 1489.74 -5.59201 1.75185 0
M  V30 82850 N 1489.69 -4.58235 0.662552 0
M  V30 82851 C 1489.54 -3.24451 1.01643 0
M  V30 82852 O 1489.45 -2.94958 2.21722 0
M  V30 82853 N 1489.49 -2.30408 -0.165238 0
M  V30 82854 C 1489.59 -2.66048 -1.25118 0
M  V30 82855 N 1489.54 -1.70787 -2.16813 0
M  V30 82856 C 1489.74 -4.02732 -1.64413 0
M  V30 82857 C 1489.79 -4.9488 -0.63991 0
M  V30 82858 H 1492.53 -8.65017 0.777072 0
M  V30 82859 H 1492.8 -6.90173 0.474152 0
M  V30 82860 H 1491.93 -7.66642 2.79492 0
M  V30 82861 H 1489.28 -5.16254 2.65229 0
M  V30 82862 H 1489 -7.06532 0.329431 0
M  V30 82863 H 1488.01 -6.91023 1.82047 0
M  V30 82864 H 1489.84 -8.90873 1.62657 0
M  V30 82865 H 1489.91 -6.00104 -0.892197 0
M  V30 82866 H 1489.81 -4.31733 -2.69229 0
M  V30 82867 H 1489.42 -0.724835 -1.8844 0
M  V30 82868 H 1489.62 -1.94716 -3.16734 0
M  V30 82869 P 1487.97 -8.03563 3.84925 0
M  V30 82870 O 1487.75 -8.85821 5.0569 0
M  V30 82871 O 1487.18 -8.41101 2.65469 0
M  V30 82872 O 1487.72 -6.4965 4.18908 0
M  V30 82873 C 1488.66 -5.81037 5.05421 0
M  V30 82874 C 1487.93 -4.78366 5.89277 0
M  V30 82875 O 1487.72 -3.58302 5.08433 0
M  V30 82876 C 1486.53 -5.17448 6.36119 0
M  V30 82877 O 1486.14 -4.45271 7.53232 0
M  V30 82878 C 1485.65 -4.74639 5.19936 0
M  V30 82879 C 1486.36 -3.49432 4.70418 0
M  V30 82880 N 1486.31 -3.32099 3.22613 0
M  V30 82881 H 1489.15 -6.54213 5.71376 0
M  V30 82882 H 1489.42 -5.30936 4.43503 0
M  V30 82883 H 1488.55 -4.55889 6.76652 0
M  V30 82884 H 1485.9 -2.61715 5.17932 0
M  V30 82885 H 1485.62 -5.52155 4.41878 0
M  V30 82886 H 1484.63 -4.51981 5.53374 0
M  V30 82887 H 1486.46 -6.25124 6.55234 0
M  V30 82888 P 1484.59 -4.23843 7.83734 0
M  V30 82889 O 1484.37 -4.19407 9.29784 0
M  V30 82890 O 1483.8 -5.24426 7.09156 0
M  V30 82891 O 1484.34 -2.7935 7.20758 0
M  V30 82892 C 1485.28 -1.7299 7.50419 0
M  V30 82893 C 1484.55 -0.406376 7.57911 0
M  V30 82894 O 1484.34 0.0897726 6.21935 0
M  V30 82895 C 1483.15 -0.447224 8.1878 0
M  V30 82896 O 1482.76 0.825065 8.71101 0
M  V30 82897 C 1482.27 -0.783801 6.99623 0
M  V30 82898 C 1482.98 -0.0619192 5.85967 0
M  V30 82899 N 1482.93 -0.7859 4.56281 0
M  V30 82900 H 1485.77 -1.93423 8.4679 0
M  V30 82901 H 1486.04 -1.68181 6.71046 0
M  V30 82902 H 1485.17 0.289041 8.15388 0
M  V30 82903 P 1481.21 1.17771 8.83182 0
M  V30 82904 O 1480.99 2.07206 9.98732 0
M  V30 82905 O 1480.42 -0.0743816 8.81969 0
M  V30 82906 O 1480.96 1.97652 7.47304 0
M  V30 82907 C 1481.9 3.01133 7.08783 0
M  V30 82908 C 1481.17 4.12613 6.37049 0
M  V30 82909 O 1480.96 3.72827 4.97879 0
M  V30 82910 C 1479.77 4.45085 6.88694 0
M  V30 82911 O 1479.38 5.7877 6.5624 0
M  V30 82912 C 1478.89 3.47817 6.12078 0
M  V30 82913 C 1479.6 3.39414 4.77697 0
M  V30 82914 N 1479.55 2.04615 4.15333 0
M  V30 82915 H 1482.39 3.41248 7.98759 0
M  V30 82916 H 1482.66 2.5837 6.41742 0
M  V30 82917 H 1481.79 5.02657 6.42673 0
M  V30 82918 P 1477.83 6.144 6.45285 0
M  V30 82919 O 1477.61 7.54673 6.86199 0
M  V30 82920 O 1477.04 5.12391 7.179 0
M  V30 82921 O 1477.58 5.99158 4.88404 0
M  V30 82922 C 1478.52 6.60234 3.96415 0
M  V30 82923 C 1477.79 7.08259 2.72856 0
M  V30 82924 O 1477.58 5.9427 1.83651 0
M  V30 82925 C 1476.39 7.64886 2.9555 0
M  V30 82926 O 1476 8.53963 1.90717 0
M  V30 82927 C 1475.51 6.4116 2.90739 0
M  V30 82928 C 1476.22 5.55375 1.86963 0
M  V30 82929 N 1476.17 4.09664 2.15742 0
M  V30 82930 H 1479.01 7.45574 4.45629 0
M  V30 82931 H 1479.28 5.86232 3.67314 0
M  V30 82932 H 1478.41 7.84412 2.24479 0
M  V30 82933 P 1474.45 8.7635 1.60911 0
M  V30 82934 O 1474.23 10.1388 1.11561 0
M  V30 82935 O 1473.66 8.36503 2.79617 0
M  V30 82936 O 1474.2 7.71806 0.42951 0
M  V30 82937 C 1475.14 7.67148 -0.673689 0
M  V30 82938 C 1474.41 7.33374 -1.95559 0
M  V30 82939 O 1474.2 5.88721 -2.00726 0
M  V30 82940 C 1473.01 7.92526 -2.10483 0
M  V30 82941 O 1472.62 8.02971 -3.47653 0
M  V30 82942 C 1472.13 6.89602 -1.41652 0
M  V30 82943 C 1472.84 5.59201 -1.75185 0
M  V30 82944 N 1472.79 4.58235 -0.662552 0
M  V30 82945 H 1475.63 8.65116 -0.777161 0
M  V30 82946 H 1475.9 6.90173 -0.474152 0
M  V30 82947 H 1475.03 7.66548 -2.79458 0
M  V30 82948 P 1471.07 8.03563 -3.84925 0
M  V30 82949 O 1470.85 8.85821 -5.0569 0
M  V30 82950 O 1470.28 8.41101 -2.65469 0
M  V30 82951 O 1470.82 6.4965 -4.18908 0
M  V30 82952 C 1471.76 5.81037 -5.05421 0
M  V30 82953 C 1471.03 4.78366 -5.89277 0
M  V30 82954 O 1470.82 3.58302 -5.08433 0
M  V30 82955 C 1469.63 5.17448 -6.36119 0
M  V30 82956 O 1469.24 4.45271 -7.53232 0
M  V30 82957 C 1468.75 4.74639 -5.19936 0
M  V30 82958 C 1469.46 3.49432 -4.70418 0
M  V30 82959 N 1469.41 3.32099 -3.22613 0
M  V30 82960 H 1472.25 6.54213 -5.71376 0
M  V30 82961 H 1472.52 5.30936 -4.43503 0
M  V30 82962 H 1471.65 4.55889 -6.76652 0
M  V30 82963 H 1469 2.61715 -5.17932 0
M  V30 82964 H 1468.72 5.52155 -4.41878 0
M  V30 82965 H 1467.73 4.51981 -5.53374 0
M  V30 82966 H 1469.56 6.25124 -6.55234 0
M  V30 82967 P 1467.69 4.23843 -7.83734 0
M  V30 82968 O 1467.47 4.19407 -9.29784 0
M  V30 82969 O 1466.9 5.24426 -7.09156 0
M  V30 82970 O 1467.44 2.7935 -7.20758 0
M  V30 82971 C 1468.38 1.72945 -7.50224 0
M  V30 82972 C 1467.65 0.406376 -7.57911 0
M  V30 82973 O 1467.44 -0.0897726 -6.21935 0
M  V30 82974 C 1466.25 0.438983 -8.18724 0
M  V30 82975 O 1465.86 -0.825065 -8.71101 0
M  V30 82976 C 1465.37 0.783689 -6.99524 0
M  V30 82977 C 1466.08 0.0619086 -5.85867 0
M  V30 82978 N 1466.03 0.78573 -4.56183 0
M  V30 82979 C 1465.88 0.0292889 -3.41887 0
M  V30 82980 O 1465.79 -1.18445 -3.4419 0
M  V30 82981 N 1465.84 0.744061 -2.23964 0
M  V30 82982 C 1465.93 2.10932 -2.10362 0
M  V30 82983 O 1465.88 2.64117 -0.98825 0
M  V30 82984 C 1466.08 2.8202 -3.34994 0
M  V30 82985 C 1466.19 4.31095 -3.25037 0
M  V30 82986 C 1466.13 2.15547 -4.52261 0
M  V30 82987 H 1468.87 1.93379 -8.46595 0
M  V30 82988 H 1469.14 1.68132 -6.70852 0
M  V30 82989 H 1468.27 -0.289041 -8.15388 0
M  V30 82990 H 1465.62 -0.926847 -5.72749 0
M  V30 82991 H 1465.34 1.86973 -6.82036 0
M  V30 82992 H 1464.35 0.403896 -7.13257 0
M  V30 82993 H 1466.18 1.20585 -8.97435 0
M  V30 82994 H 1466.25 2.71231 -5.45042 0
M  V30 82995 H 1465.22 4.76966 -3.49992 0
M  V30 82996 H 1466.96 4.67047 -3.95024 0
M  V30 82997 H 1466.47 4.58996 -2.22312 0
M  V30 82998 H 1465.74 0.214893 -1.39758 0
M  V30 82999 P 1464.31 -1.17771 -8.83182 0
M  V30 83000 O 1464.09 -2.07206 -9.98732 0
M  V30 83001 O 1463.52 0.0743816 -8.81969 0
M  V30 83002 O 1464.06 -1.97652 -7.47304 0
M  V30 83003 C 1465 -3.01055 -7.08599 0
M  V30 83004 C 1464.27 -4.12613 -6.37049 0
M  V30 83005 O 1464.06 -3.72827 -4.97879 0
M  V30 83006 C 1462.87 -4.45719 -6.88164 0
M  V30 83007 O 1462.48 -5.7877 -6.5624 0
M  V30 83008 C 1461.99 -3.47768 -6.11991 0
M  V30 83009 C 1462.7 -3.39356 -4.77615 0
M  V30 83010 N 1462.65 -2.04571 -4.15244 0
M  V30 83011 C 1462.5 -1.98587 -2.78314 0
M  V30 83012 O 1462.41 -2.98134 -2.08835 0
M  V30 83013 N 1462.46 -0.714467 -2.24925 0
M  V30 83014 C 1462.55 0.470001 -2.94169 0
M  V30 83015 C 1462.7 0.312541 -4.36783 0
M  V30 83016 C 1462.75 -0.914512 -4.92583 0
M  V30 83017 H 1465.49 -3.41169 -7.98575 0
M  V30 83018 H 1465.76 -2.58295 -6.41556 0
M  V30 83019 H 1464.89 -5.02657 -6.42673 0
M  V30 83020 H 1462.24 -4.11637 -4.08885 0
M  V30 83021 H 1461.96 -2.49626 -6.61679 0
M  V30 83022 H 1460.97 -3.86566 -6.00778 0
M  V30 83023 H 1462.8 -4.29943 -7.96918 0
M  V30 83024 H 1462.87 -1.00937 -6.00374 0
M  V30 83025 P 1460.93 -6.144 -6.45285 0
M  V30 83026 O 1460.71 -7.54673 -6.86199 0
M  V30 83027 O 1460.14 -5.12391 -7.179 0
M  V30 83028 O 1460.68 -5.99158 -4.88404 0
M  V30 83029 C 1461.62 -6.60234 -3.96415 0
M  V30 83030 C 1460.89 -7.08259 -2.72856 0
M  V30 83031 O 1460.68 -5.9427 -1.83651 0
M  V30 83032 C 1459.49 -7.64886 -2.9555 0
M  V30 83033 O 1459.1 -8.53963 -1.90717 0
M  V30 83034 C 1458.61 -6.4116 -2.90739 0
M  V30 83035 C 1459.32 -5.55375 -1.86963 0
M  V30 83036 N 1459.27 -4.09664 -2.15742 0
M  V30 83037 C 1459.35 -3.44381 -3.37233 0
M  V30 83038 N 1459.27 -2.14131 -3.28347 0
M  V30 83039 C 1459.13 -1.90247 -1.91588 0
M  V30 83040 C 1459 -0.683992 -1.20892 0
M  V30 83041 N 1458.88 -0.903396 0.173998 0
M  V30 83042 C 1458.88 -2.14171 0.784879 0
M  V30 83043 N 1458.75 -2.1435 2.11317 0
M  V30 83044 N 1459.01 -3.28784 0.119316 0
M  V30 83045 C 1459.13 -3.0977 -1.22194 0
M  V30 83046 H 1462.11 -7.45574 -4.45629 0
M  V30 83047 H 1462.38 -5.86232 -3.67314 0
M  V30 83048 H 1461.51 -7.84412 -2.24479 0
M  V30 83049 P 1457.55 -8.7635 -1.60911 0
M  V30 83050 O 1457.33 -10.1388 -1.11561 0
M  V30 83051 O 1456.76 -8.36503 -2.79617 0
M  V30 83052 O 1457.3 -7.71806 -0.42951 0
M  V30 83053 C 1458.24 -7.67148 0.673689 0
M  V30 83054 C 1457.51 -7.33374 1.95559 0
M  V30 83055 O 1457.3 -5.88721 2.00726 0
M  V30 83056 C 1456.11 -7.92526 2.10483 0
M  V30 83057 O 1455.72 -8.02971 3.47653 0
M  V30 83058 C 1455.23 -6.89602 1.41652 0
M  V30 83059 C 1455.94 -5.59201 1.75185 0
M  V30 83060 N 1455.89 -4.58235 0.662552 0
M  V30 83061 H 1458.73 -8.65116 0.777161 0
M  V30 83062 H 1459 -6.90173 0.474152 0
M  V30 83063 H 1458.13 -7.66548 2.79458 0
M  V30 83064 P 1454.17 -8.03563 3.84925 0
M  V30 83065 O 1453.95 -8.85821 5.0569 0
M  V30 83066 O 1453.38 -8.41101 2.65469 0
M  V30 83067 O 1453.92 -6.49734 4.18962 0
M  V30 83068 C 1454.86 -5.81037 5.05421 0
M  V30 83069 C 1454.13 -4.79018 5.88876 0
M  V30 83070 O 1453.92 -3.58359 5.08515 0
M  V30 83071 C 1452.73 -5.17448 6.36119 0
M  V30 83072 O 1452.34 -4.45322 7.53318 0
M  V30 83073 C 1451.85 -4.74639 5.19936 0
M  V30 83074 C 1452.56 -3.49432 4.70418 0
M  V30 83075 N 1452.51 -3.31776 3.22945 0
M  V30 83076 C 1452.36 -2.02742 2.72939 0
M  V30 83077 O 1452.27 -1.08301 3.52749 0
M  V30 83078 N 1452.31 -1.96117 1.22063 0
M  V30 83079 C 1452.41 -2.8878 0.551566 0
M  V30 83080 N 1452.36 -2.65609 -0.750198 0
M  V30 83081 C 1452.56 -4.22457 1.03707 0
M  V30 83082 C 1452.61 -4.37979 2.39113 0
M  V30 83083 H 1455.35 -6.54138 5.7131 0
M  V30 83084 H 1455.62 -5.30492 4.44033 0
M  V30 83085 H 1454.75 -4.55945 6.76735 0
M  V30 83086 H 1452.1 -2.6176 5.18021 0
M  V30 83087 H 1451.82 -5.52233 4.41941 0
M  V30 83088 H 1450.83 -4.52045 5.53452 0
M  V30 83089 H 1452.66 -6.25124 6.55234 0
M  V30 83090 H 1452.73 -5.37936 2.80552 0
M  V30 83091 H 1452.63 -5.07528 0.359553 0
M  V30 83092 H 1452.24 -1.69403 -1.09847 0
M  V30 83093 H 1452.44 -3.43701 -1.41792 0
M  V30 83094 P 1450.79 -4.23843 7.83734 0
M  V30 83095 O 1450.57 -4.19407 9.29784 0
M  V30 83096 O 1450 -5.24426 7.09156 0
M  V30 83097 O 1450.54 -2.7935 7.20758 0
M  V30 83098 C 1451.48 -1.7299 7.50419 0
M  V30 83099 C 1450.75 -0.406376 7.57911 0
M  V30 83100 O 1450.54 0.0897726 6.21935 0
M  V30 83101 C 1449.35 -0.447224 8.1878 0
M  V30 83102 O 1448.96 0.825065 8.71101 0
M  V30 83103 C 1448.47 -0.783801 6.99623 0
M  V30 83104 C 1449.18 -0.0619192 5.85967 0
M  V30 83105 N 1449.13 -0.790462 4.56202 0
M  V30 83106 H 1451.97 -1.93423 8.4679 0
M  V30 83107 H 1452.24 -1.68852 6.70877 0
M  V30 83108 H 1451.37 0.289041 8.15388 0
M  V30 83109 H 1448.72 0.927006 5.72848 0
M  V30 83110 H 1448.44 -1.86973 6.82036 0
M  V30 83111 H 1447.45 -0.403953 7.13357 0
M  V30 83112 H 1449.28 -1.20599 8.97534 0
M  V30 83113 P 1447.41 1.17771 8.83182 0
M  V30 83114 O 1447.19 2.07206 9.98732 0
M  V30 83115 O 1446.62 -0.0743816 8.81969 0
M  V30 83116 O 1447.16 1.97652 7.47304 0
M  V30 83117 C 1448.1 3.01055 7.08599 0
M  V30 83118 C 1447.37 4.12613 6.37049 0
M  V30 83119 O 1447.16 3.72827 4.97879 0
M  V30 83120 C 1445.97 4.45719 6.88164 0
M  V30 83121 O 1445.58 5.7877 6.5624 0
M  V30 83122 C 1445.09 3.47768 6.11991 0
M  V30 83123 C 1445.8 3.39356 4.77615 0
M  V30 83124 N 1445.75 2.04571 4.15244 0
M  V30 83125 C 1445.6 1.98587 2.78314 0
M  V30 83126 O 1445.51 2.98134 2.08835 0
M  V30 83127 N 1445.56 0.714467 2.24925 0
M  V30 83128 C 1445.65 -0.470001 2.94169 0
M  V30 83129 C 1445.8 -0.312541 4.36783 0
M  V30 83130 C 1445.85 0.914512 4.92583 0
M  V30 83131 H 1448.59 3.41169 7.98575 0
M  V30 83132 H 1448.86 2.58295 6.41556 0
M  V30 83133 H 1447.99 5.02657 6.42673 0
M  V30 83134 H 1445.34 4.11637 4.08885 0
M  V30 83135 H 1445.06 2.49626 6.61679 0
M  V30 83136 H 1444.07 3.86566 6.00778 0
M  V30 83137 H 1445.9 4.29943 7.96918 0
M  V30 83138 H 1445.97 1.00937 6.00374 0
M  V30 83139 P 1444.03 6.144 6.45285 0
M  V30 83140 O 1443.81 7.54673 6.86199 0
M  V30 83141 O 1443.24 5.12391 7.179 0
M  V30 83142 O 1443.78 5.99158 4.88404 0
M  V30 83143 C 1444.72 6.60234 3.96415 0
M  V30 83144 C 1443.99 7.08259 2.72856 0
M  V30 83145 O 1443.78 5.9427 1.83651 0
M  V30 83146 C 1442.59 7.64886 2.9555 0
M  V30 83147 O 1442.2 8.53963 1.90717 0
M  V30 83148 C 1441.71 6.4116 2.90739 0
M  V30 83149 C 1442.42 5.55375 1.86963 0
M  V30 83150 N 1442.37 4.09664 2.15742 0
M  V30 83151 H 1445.21 7.45574 4.45629 0
M  V30 83152 H 1445.48 5.86232 3.67314 0
M  V30 83153 H 1444.61 7.84412 2.24479 0
M  V30 83154 P 1440.65 8.7635 1.60911 0
M  V30 83155 O 1440.43 10.1388 1.11561 0
M  V30 83156 O 1439.86 8.36503 2.79617 0
M  V30 83157 O 1440.4 7.71806 0.42951 0
M  V30 83158 C 1441.34 7.67148 -0.673689 0
M  V30 83159 C 1440.61 7.33374 -1.95559 0
M  V30 83160 O 1440.4 5.88721 -2.00726 0
M  V30 83161 C 1439.21 7.92526 -2.10483 0
M  V30 83162 O 1438.82 8.02971 -3.47653 0
M  V30 83163 C 1438.33 6.89602 -1.41652 0
M  V30 83164 C 1439.04 5.59201 -1.75185 0
M  V30 83165 N 1438.99 4.58235 -0.662552 0
M  V30 83166 H 1441.83 8.65116 -0.777161 0
M  V30 83167 H 1442.1 6.90173 -0.474152 0
M  V30 83168 H 1441.23 7.66548 -2.79458 0
M  V30 83169 P 1437.27 8.03563 -3.84925 0
M  V30 83170 O 1437.05 8.85821 -5.0569 0
M  V30 83171 O 1436.48 8.41101 -2.65469 0
M  V30 83172 O 1437.02 6.4965 -4.18908 0
M  V30 83173 C 1437.96 5.81037 -5.05421 0
M  V30 83174 C 1437.23 4.78366 -5.89277 0
M  V30 83175 O 1437.02 3.58302 -5.08433 0
M  V30 83176 C 1435.83 5.17448 -6.36119 0
M  V30 83177 O 1435.44 4.45271 -7.53232 0
M  V30 83178 C 1434.95 4.74639 -5.19936 0
M  V30 83179 C 1435.66 3.49432 -4.70418 0
M  V30 83180 N 1435.61 3.31776 -3.22945 0
M  V30 83181 C 1435.69 4.27147 -2.23315 0
M  V30 83182 N 1435.61 3.78447 -1.02186 0
M  V30 83183 C 1435.47 2.41001 -1.21732 0
M  V30 83184 C 1435.34 1.36111 -0.27694 0
M  V30 83185 N 1435.22 0.113683 -0.912949 0
M  V30 83186 C 1435.22 -0.0846396 -2.27943 0
M  V30 83187 N 1435.09 -1.34737 -2.6916 0
M  V30 83188 N 1435.35 0.902521 -3.16379 0
M  V30 83189 C 1435.47 2.11937 -2.56849 0
M  V30 83190 H 1438.45 6.54213 -5.71376 0
M  V30 83191 H 1438.72 5.30492 -4.44033 0
M  V30 83192 H 1437.85 4.55889 -6.76652 0
M  V30 83193 P 1433.89 4.23843 -7.83734 0
M  V30 83194 O 1433.67 4.19407 -9.29784 0
M  V30 83195 O 1433.1 5.24426 -7.09156 0
M  V30 83196 O 1433.64 2.7935 -7.20758 0
M  V30 83197 C 1434.58 1.7299 -7.50419 0
M  V30 83198 C 1433.85 0.406376 -7.57911 0
M  V30 83199 O 1433.64 -0.0897726 -6.21935 0
M  V30 83200 C 1432.45 0.447224 -8.1878 0
M  V30 83201 O 1432.06 -0.825065 -8.71101 0
M  V30 83202 C 1431.57 0.783801 -6.99623 0
M  V30 83203 C 1432.28 0.0619192 -5.85967 0
M  V30 83204 N 1432.23 0.7859 -4.56281 0
M  V30 83205 H 1435.07 1.93423 -8.4679 0
M  V30 83206 H 1435.34 1.68181 -6.71046 0
M  V30 83207 H 1434.47 -0.289041 -8.15388 0
M  V30 83208 P 1430.51 -1.17771 -8.83182 0
M  V30 83209 O 1430.29 -2.07206 -9.98732 0
M  V30 83210 O 1429.72 0.0743816 -8.81969 0
M  V30 83211 O 1430.26 -1.97652 -7.47304 0
M  V30 83212 C 1431.2 -3.01133 -7.08783 0
M  V30 83213 C 1430.47 -4.12613 -6.37049 0
M  V30 83214 O 1430.26 -3.72827 -4.97879 0
M  V30 83215 C 1429.07 -4.45085 -6.88694 0
M  V30 83216 O 1428.68 -5.7877 -6.5624 0
M  V30 83217 C 1428.19 -3.47817 -6.12078 0
M  V30 83218 C 1428.9 -3.39414 -4.77697 0
M  V30 83219 N 1428.85 -2.04615 -4.15333 0
M  V30 83220 H 1431.69 -3.41248 -7.98759 0
M  V30 83221 H 1431.96 -2.5837 -6.41742 0
M  V30 83222 H 1431.09 -5.02657 -6.42673 0
M  V30 83223 P 1427.13 -6.144 -6.45285 0
M  V30 83224 O 1426.91 -7.54673 -6.86199 0
M  V30 83225 O 1426.34 -5.12391 -7.179 0
M  V30 83226 O 1426.88 -5.99158 -4.88404 0
M  V30 83227 C 1427.82 -6.60234 -3.96415 0
M  V30 83228 C 1427.09 -7.08259 -2.72856 0
M  V30 83229 O 1426.88 -5.9427 -1.83651 0
M  V30 83230 C 1425.69 -7.64886 -2.9555 0
M  V30 83231 O 1425.3 -8.53963 -1.90717 0
M  V30 83232 C 1424.81 -6.4116 -2.90739 0
M  V30 83233 C 1425.52 -5.55375 -1.86963 0
M  V30 83234 N 1425.47 -4.09664 -2.15742 0
M  V30 83235 C 1425.55 -3.44381 -3.37233 0
M  V30 83236 N 1425.47 -2.14131 -3.28347 0
M  V30 83237 C 1425.33 -1.90247 -1.91588 0
M  V30 83238 C 1425.2 -0.683992 -1.20892 0
M  V30 83239 N 1425.08 -0.903396 0.173998 0
M  V30 83240 C 1425.08 -2.14171 0.784879 0
M  V30 83241 N 1424.95 -2.1435 2.11317 0
M  V30 83242 N 1425.21 -3.28784 0.119316 0
M  V30 83243 C 1425.33 -3.0977 -1.22194 0
M  V30 83244 H 1428.31 -7.45574 -4.45629 0
M  V30 83245 H 1428.58 -5.86232 -3.67314 0
M  V30 83246 H 1427.71 -7.84412 -2.24479 0
M  V30 83247 P 1423.75 -8.7635 -1.60911 0
M  V30 83248 O 1423.53 -10.1388 -1.11561 0
M  V30 83249 O 1422.96 -8.36503 -2.79617 0
M  V30 83250 O 1423.5 -7.71906 -0.429565 0
M  V30 83251 C 1424.44 -7.67148 0.673689 0
M  V30 83252 C 1423.71 -7.33666 1.94851 0
M  V30 83253 O 1423.5 -5.88816 2.00759 0
M  V30 83254 C 1422.31 -7.92526 2.10483 0
M  V30 83255 O 1421.92 -8.03063 3.47693 0
M  V30 83256 C 1421.43 -6.89602 1.41652 0
M  V30 83257 C 1422.14 -5.59201 1.75185 0
M  V30 83258 N 1422.09 -4.58235 0.662552 0
M  V30 83259 C 1421.94 -3.24451 1.01643 0
M  V30 83260 O 1421.85 -2.94958 2.21722 0
M  V30 83261 N 1421.89 -2.30408 -0.165238 0
M  V30 83262 C 1421.99 -2.66048 -1.25118 0
M  V30 83263 N 1421.94 -1.70787 -2.16813 0
M  V30 83264 C 1422.14 -4.02732 -1.64413 0
M  V30 83265 C 1422.19 -4.9488 -0.63991 0
M  V30 83266 H 1424.93 -8.65017 0.777072 0
M  V30 83267 H 1425.2 -6.90173 0.474152 0
M  V30 83268 H 1424.33 -7.66642 2.79492 0
M  V30 83269 H 1421.68 -5.16254 2.65229 0
M  V30 83270 H 1421.4 -7.06532 0.329431 0
M  V30 83271 H 1420.41 -6.91023 1.82047 0
M  V30 83272 H 1422.24 -8.90873 1.62657 0
M  V30 83273 H 1422.31 -6.00104 -0.892197 0
M  V30 83274 H 1422.21 -4.31733 -2.69229 0
M  V30 83275 H 1421.82 -0.724835 -1.8844 0
M  V30 83276 H 1422.02 -1.94716 -3.16734 0
M  V30 83277 P 1420.37 -8.03563 3.84925 0
M  V30 83278 O 1420.15 -8.85821 5.0569 0
M  V30 83279 O 1419.58 -8.41101 2.65469 0
M  V30 83280 O 1420.12 -6.4965 4.18908 0
M  V30 83281 C 1421.06 -5.81037 5.05421 0
M  V30 83282 C 1420.33 -4.78366 5.89277 0
M  V30 83283 O 1420.12 -3.58302 5.08433 0
M  V30 83284 C 1418.93 -5.17448 6.36119 0
M  V30 83285 O 1418.54 -4.45271 7.53232 0
M  V30 83286 C 1418.05 -4.74639 5.19936 0
M  V30 83287 C 1418.76 -3.49432 4.70418 0
M  V30 83288 N 1418.71 -3.31776 3.22945 0
M  V30 83289 H 1421.55 -6.54213 5.71376 0
M  V30 83290 H 1421.82 -5.30492 4.44033 0
M  V30 83291 H 1420.95 -4.55889 6.76652 0
M  V30 83292 P 1416.99 -4.23843 7.83734 0
M  V30 83293 O 1416.77 -4.19407 9.29784 0
M  V30 83294 O 1416.2 -5.24426 7.09156 0
M  V30 83295 O 1416.74 -2.7935 7.20758 0
M  V30 83296 C 1417.68 -1.7299 7.50419 0
M  V30 83297 C 1416.95 -0.406376 7.57911 0
M  V30 83298 O 1416.74 0.0897726 6.21935 0
M  V30 83299 C 1415.55 -0.447224 8.1878 0
M  V30 83300 O 1415.16 0.825065 8.71101 0
M  V30 83301 C 1414.67 -0.783801 6.99623 0
M  V30 83302 C 1415.38 -0.0619192 5.85967 0
M  V30 83303 N 1415.33 -0.7859 4.56281 0
M  V30 83304 C 1415.41 -2.14308 4.31736 0
M  V30 83305 N 1415.33 -2.46106 3.05116 0
M  V30 83306 C 1415.19 -1.23422 2.4014 0
M  V30 83307 C 1415.06 -0.938381 1.02409 0
M  V30 83308 N 1414.94 0.444647 0.805413 0
M  V30 83309 C 1414.94 1.40829 1.79435 0
M  V30 83310 N 1414.81 2.67213 1.38558 0
M  V30 83311 N 1415.07 1.12947 3.09005 0
M  V30 83312 C 1415.19 -0.204887 3.32369 0
M  V30 83313 H 1418.17 -1.93423 8.4679 0
M  V30 83314 H 1418.44 -1.68181 6.71046 0
M  V30 83315 H 1417.57 0.289041 8.15388 0
M  V30 83316 P 1413.61 1.17771 8.83182 0
M  V30 83317 O 1413.39 2.07206 9.98732 0
M  V30 83318 O 1412.82 -0.0743816 8.81969 0
M  V30 83319 O 1413.36 1.97652 7.47304 0
M  V30 83320 C 1414.3 3.01133 7.08783 0
M  V30 83321 C 1413.57 4.12613 6.37049 0
M  V30 83322 O 1413.36 3.72827 4.97879 0
M  V30 83323 C 1412.17 4.45085 6.88694 0
M  V30 83324 O 1411.78 5.7877 6.5624 0
M  V30 83325 C 1411.29 3.47817 6.12078 0
M  V30 83326 C 1412 3.39414 4.77697 0
M  V30 83327 N 1411.95 2.04199 4.15538 0
M  V30 83328 H 1414.79 3.41248 7.98759 0
M  V30 83329 H 1415.06 2.57728 6.42 0
M  V30 83330 H 1414.19 5.02657 6.42673 0
M  V30 83331 H 1411.54 4.11708 4.08956 0
M  V30 83332 H 1411.26 2.49626 6.61679 0
M  V30 83333 H 1410.27 3.8662 6.00862 0
M  V30 83334 H 1412.1 4.29991 7.97006 0
M  V30 83335 P 1410.23 6.144 6.45285 0
M  V30 83336 O 1410.01 7.54673 6.86199 0
M  V30 83337 O 1409.44 5.12391 7.179 0
M  V30 83338 O 1409.98 5.99158 4.88404 0
M  V30 83339 C 1410.92 6.60234 3.96415 0
M  V30 83340 C 1410.19 7.08259 2.72856 0
M  V30 83341 O 1409.98 5.9427 1.83651 0
M  V30 83342 C 1408.79 7.64886 2.9555 0
M  V30 83343 O 1408.4 8.53963 1.90717 0
M  V30 83344 C 1407.91 6.4116 2.90739 0
M  V30 83345 C 1408.62 5.55375 1.86963 0
M  V30 83346 N 1408.57 4.09448 2.16152 0
M  V30 83347 H 1411.41 7.45574 4.45629 0
M  V30 83348 H 1411.68 5.85864 3.679 0
M  V30 83349 H 1410.81 7.84412 2.24479 0
M  V30 83350 H 1408.16 5.73457 0.888562 0
M  V30 83351 H 1407.88 5.90877 3.88583 0
M  V30 83352 H 1406.89 6.6596 2.58858 0
M  V30 83353 H 1408.72 8.16339 3.92049 0
M  V30 83354 P 1406.85 8.7635 1.60911 0
M  V30 83355 O 1406.63 10.1388 1.11561 0
M  V30 83356 O 1406.06 8.36503 2.79617 0
M  V30 83357 O 1406.6 7.71806 0.42951 0
M  V30 83358 C 1407.54 7.66948 -0.673514 0
M  V30 83359 C 1406.81 7.33374 -1.95559 0
M  V30 83360 O 1406.6 5.88721 -2.00726 0
M  V30 83361 C 1405.41 7.92218 -2.1125 0
M  V30 83362 O 1405.02 8.02971 -3.47653 0
M  V30 83363 C 1404.53 6.89504 -1.41631 0
M  V30 83364 C 1405.24 5.59106 -1.75155 0
M  V30 83365 N 1405.19 4.58136 -0.662409 0
M  V30 83366 C 1405.04 3.26059 -1.02863 0
M  V30 83367 O 1404.95 2.90743 -2.19009 0
M  V30 83368 N 1405 2.35995 0.0155585 0
M  V30 83369 C 1405.09 2.65248 1.35603 0
M  V30 83370 O 1405.04 1.75605 2.20651 0
M  V30 83371 C 1405.24 4.05747 1.64698 0
M  V30 83372 C 1405.35 4.42345 3.09553 0
M  V30 83373 C 1405.29 4.96734 0.652411 0
M  V30 83374 H 1408.03 8.64917 -0.776982 0
M  V30 83375 H 1408.3 6.89974 -0.474015 0
M  V30 83376 H 1407.43 7.66548 -2.79458 0
M  V30 83377 H 1404.78 5.16076 -2.65138 0
M  V30 83378 H 1404.5 7.06433 -0.329384 0
M  V30 83379 H 1403.51 6.90829 -1.81996 0
M  V30 83380 H 1405.34 8.90774 -1.62639 0
M  V30 83381 H 1405.41 6.02181 0.895285 0
M  V30 83382 H 1404.38 4.80252 3.45468 0
M  V30 83383 H 1406.12 5.20015 3.22119 0
M  V30 83384 H 1405.63 3.53269 3.67833 0
M  V30 83385 H 1404.9 1.39558 -0.227499 0
M  V30 83386 P 1403.47 8.03563 -3.84925 0
M  V30 83387 O 1403.25 8.85821 -5.0569 0
M  V30 83388 O 1402.68 8.41101 -2.65469 0
M  V30 83389 O 1403.22 6.4965 -4.18908 0
M  V30 83390 C 1404.16 5.81037 -5.05421 0
M  V30 83391 C 1403.43 4.78366 -5.89277 0
M  V30 83392 O 1403.22 3.58302 -5.08433 0
M  V30 83393 C 1402.03 5.17448 -6.36119 0
M  V30 83394 O 1401.64 4.45271 -7.53232 0
M  V30 83395 C 1401.15 4.74639 -5.19936 0
M  V30 83396 C 1401.86 3.49432 -4.70418 0
M  V30 83397 N 1401.81 3.31776 -3.22945 0
M  V30 83398 H 1404.65 6.54213 -5.71376 0
M  V30 83399 H 1404.92 5.30492 -4.44033 0
M  V30 83400 H 1404.05 4.55889 -6.76652 0
M  V30 83401 P 1400.09 4.23843 -7.83734 0
M  V30 83402 O 1399.87 4.19407 -9.29784 0
M  V30 83403 O 1399.3 5.24426 -7.09156 0
M  V30 83404 O 1399.84 2.7935 -7.20758 0
M  V30 83405 C 1400.78 1.7299 -7.50419 0
M  V30 83406 C 1400.05 0.406376 -7.57911 0
M  V30 83407 O 1399.84 -0.0897726 -6.21935 0
M  V30 83408 C 1398.65 0.447224 -8.1878 0
M  V30 83409 O 1398.26 -0.825065 -8.71101 0
M  V30 83410 C 1397.77 0.783801 -6.99623 0
M  V30 83411 C 1398.48 0.0619192 -5.85967 0
M  V30 83412 N 1398.43 0.7859 -4.56281 0
M  V30 83413 H 1401.27 1.93423 -8.4679 0
M  V30 83414 H 1401.54 1.68181 -6.71046 0
M  V30 83415 H 1400.67 -0.289041 -8.15388 0
M  V30 83416 P 1396.71 -1.17771 -8.83182 0
M  V30 83417 O 1396.49 -2.07206 -9.98732 0
M  V30 83418 O 1395.92 0.0743816 -8.81969 0
M  V30 83419 O 1396.46 -1.97652 -7.47304 0
M  V30 83420 C 1397.4 -3.01133 -7.08783 0
M  V30 83421 C 1396.67 -4.12613 -6.37049 0
M  V30 83422 O 1396.46 -3.72827 -4.97879 0
M  V30 83423 C 1395.27 -4.45085 -6.88694 0
M  V30 83424 O 1394.88 -5.7877 -6.5624 0
M  V30 83425 C 1394.39 -3.47817 -6.12078 0
M  V30 83426 C 1395.1 -3.39414 -4.77697 0
M  V30 83427 N 1395.05 -2.04199 -4.15538 0
M  V30 83428 H 1397.89 -3.41248 -7.98759 0
M  V30 83429 H 1398.16 -2.57728 -6.42 0
M  V30 83430 H 1397.29 -5.02657 -6.42673 0
M  V30 83431 H 1394.64 -4.11708 -4.08956 0
M  V30 83432 H 1394.36 -2.49626 -6.61679 0
M  V30 83433 H 1393.37 -3.8662 -6.00862 0
M  V30 83434 H 1395.2 -4.29991 -7.97006 0
M  V30 83435 P 1393.33 -6.144 -6.45285 0
M  V30 83436 O 1393.11 -7.54673 -6.86199 0
M  V30 83437 O 1392.54 -5.12391 -7.179 0
M  V30 83438 O 1393.08 -5.99158 -4.88404 0
M  V30 83439 C 1394.02 -6.60234 -3.96415 0
M  V30 83440 C 1393.29 -7.08259 -2.72856 0
M  V30 83441 O 1393.08 -5.9427 -1.83651 0
M  V30 83442 C 1391.89 -7.64886 -2.9555 0
M  V30 83443 O 1391.5 -8.53963 -1.90717 0
M  V30 83444 C 1391.01 -6.4116 -2.90739 0
M  V30 83445 C 1391.72 -5.55375 -1.86963 0
M  V30 83446 N 1391.67 -4.09664 -2.15742 0
M  V30 83447 H 1394.51 -7.45574 -4.45629 0
M  V30 83448 H 1394.78 -5.86232 -3.67314 0
M  V30 83449 H 1393.91 -7.84412 -2.24479 0
M  V30 83450 P 1389.95 -8.7635 -1.60911 0
M  V30 83451 O 1389.73 -10.1388 -1.11561 0
M  V30 83452 O 1389.16 -8.36503 -2.79617 0
M  V30 83453 O 1389.7 -7.71806 -0.42951 0
M  V30 83454 C 1390.64 -7.67148 0.673689 0
M  V30 83455 C 1389.91 -7.33374 1.95559 0
M  V30 83456 O 1389.7 -5.88721 2.00726 0
M  V30 83457 C 1388.51 -7.92526 2.10483 0
M  V30 83458 O 1388.12 -8.02971 3.47653 0
M  V30 83459 C 1387.63 -6.89602 1.41652 0
M  V30 83460 C 1388.34 -5.59201 1.75185 0
M  V30 83461 N 1388.29 -4.58235 0.662552 0
M  V30 83462 H 1391.13 -8.65116 0.777161 0
M  V30 83463 H 1391.4 -6.90173 0.474152 0
M  V30 83464 H 1390.53 -7.66548 2.79458 0
M  V30 83465 P 1386.57 -8.03563 3.84925 0
M  V30 83466 O 1386.35 -8.85821 5.0569 0
M  V30 83467 O 1385.78 -8.41101 2.65469 0
M  V30 83468 O 1386.32 -6.4965 4.18908 0
M  V30 83469 C 1387.26 -5.80886 5.05289 0
M  V30 83470 C 1386.53 -4.78366 5.89277 0
M  V30 83471 O 1386.32 -3.58302 5.08433 0
M  V30 83472 C 1385.13 -5.16748 6.36559 0
M  V30 83473 O 1384.74 -4.45271 7.53232 0
M  V30 83474 C 1384.25 -4.74572 5.19863 0
M  V30 83475 C 1384.96 -3.49373 4.70338 0
M  V30 83476 N 1384.91 -3.31704 3.22876 0
M  V30 83477 C 1384.76 -2.03326 2.74871 0
M  V30 83478 O 1384.67 -1.06486 3.48076 0
M  V30 83479 N 1384.72 -1.91838 1.37456 0
M  V30 83480 C 1384.81 -2.94295 0.462035 0
M  V30 83481 O 1384.76 -2.71763 -0.752928 0
M  V30 83482 C 1384.96 -4.25064 1.05249 0
M  V30 83483 C 1385.07 -5.39815 0.095697 0
M  V30 83484 C 1385.01 -4.40214 2.39192 0
M  V30 83485 H 1387.75 -6.54063 5.71245 0
M  V30 83486 H 1388.02 -5.30339 4.43905 0
M  V30 83487 H 1387.15 -4.55889 6.76652 0
M  V30 83488 H 1384.5 -2.6167 5.17842 0
M  V30 83489 H 1384.22 -5.52155 4.41878 0
M  V30 83490 H 1383.23 -4.51918 5.53297 0
M  V30 83491 H 1385.06 -6.25055 6.55162 0
M  V30 83492 H 1385.13 -5.39798 2.81523 0
M  V30 83493 H 1384.1 -5.91593 0.0279582 0
M  V30 83494 H 1385.84 -6.10038 0.450573 0
M  V30 83495 H 1385.35 -5.02007 -0.89937 0
M  V30 83496 H 1384.62 -0.995326 1.00435 0
M  V30 83497 P 1383.19 -4.23843 7.83734 0
M  V30 83498 O 1382.97 -4.19407 9.29784 0
M  V30 83499 O 1382.4 -5.24426 7.09156 0
M  V30 83500 O 1382.94 -2.7935 7.20758 0
M  V30 83501 C 1383.88 -1.7299 7.50419 0
M  V30 83502 C 1383.15 -0.406376 7.57911 0
M  V30 83503 O 1382.94 0.0897726 6.21935 0
M  V30 83504 C 1381.75 -0.447224 8.1878 0
M  V30 83505 O 1381.36 0.825065 8.71101 0
M  V30 83506 C 1380.87 -0.783801 6.99623 0
M  V30 83507 C 1381.58 -0.0619192 5.85967 0
M  V30 83508 N 1381.53 -0.790462 4.56202 0
M  V30 83509 H 1384.37 -1.93423 8.4679 0
M  V30 83510 H 1384.64 -1.68852 6.70877 0
M  V30 83511 H 1383.77 0.289041 8.15388 0
M  V30 83512 H 1381.12 0.927006 5.72848 0
M  V30 83513 H 1380.84 -1.86973 6.82036 0
M  V30 83514 H 1379.85 -0.403953 7.13357 0
M  V30 83515 H 1381.68 -1.20599 8.97534 0
M  V30 83516 P 1379.81 1.17771 8.83182 0
M  V30 83517 O 1379.59 2.07206 9.98732 0
M  V30 83518 O 1379.02 -0.0743816 8.81969 0
M  V30 83519 O 1379.56 1.97652 7.47304 0
M  V30 83520 C 1380.5 3.01133 7.08783 0
M  V30 83521 C 1379.77 4.12613 6.37049 0
M  V30 83522 O 1379.56 3.72827 4.97879 0
M  V30 83523 C 1378.37 4.45085 6.88694 0
M  V30 83524 O 1377.98 5.7877 6.5624 0
M  V30 83525 C 1377.49 3.47817 6.12078 0
M  V30 83526 C 1378.2 3.39414 4.77697 0
M  V30 83527 N 1378.15 2.04615 4.15333 0
M  V30 83528 H 1380.99 3.41248 7.98759 0
M  V30 83529 H 1381.26 2.5837 6.41742 0
M  V30 83530 H 1380.39 5.02657 6.42673 0
M  V30 83531 P 1376.43 6.144 6.45285 0
M  V30 83532 O 1376.21 7.54673 6.86199 0
M  V30 83533 O 1375.64 5.12391 7.179 0
M  V30 83534 O 1376.18 5.99158 4.88404 0
M  V30 83535 C 1377.12 6.60234 3.96415 0
M  V30 83536 C 1376.39 7.08259 2.72856 0
M  V30 83537 O 1376.18 5.9427 1.83651 0
M  V30 83538 C 1374.99 7.64886 2.9555 0
M  V30 83539 O 1374.6 8.53963 1.90717 0
M  V30 83540 C 1374.11 6.4116 2.90739 0
M  V30 83541 C 1374.82 5.55375 1.86963 0
M  V30 83542 N 1374.77 4.09448 2.16152 0
M  V30 83543 H 1377.61 7.45574 4.45629 0
M  V30 83544 H 1377.88 5.85864 3.679 0
M  V30 83545 H 1377.01 7.84412 2.24479 0
M  V30 83546 H 1374.36 5.73457 0.888562 0
M  V30 83547 H 1374.08 5.90877 3.88583 0
M  V30 83548 H 1373.09 6.6596 2.58858 0
M  V30 83549 H 1374.92 8.16339 3.92049 0
M  V30 83550 P 1373.05 8.7635 1.60911 0
M  V30 83551 O 1372.83 10.1388 1.11561 0
M  V30 83552 O 1372.26 8.36503 2.79617 0
M  V30 83553 O 1372.8 7.71806 0.42951 0
M  V30 83554 C 1373.74 7.67148 -0.673689 0
M  V30 83555 C 1373.01 7.33374 -1.95559 0
M  V30 83556 O 1372.8 5.88721 -2.00726 0
M  V30 83557 C 1371.61 7.92526 -2.10483 0
M  V30 83558 O 1371.22 8.02971 -3.47653 0
M  V30 83559 C 1370.73 6.89602 -1.41652 0
M  V30 83560 C 1371.44 5.59201 -1.75185 0
M  V30 83561 N 1371.39 4.58235 -0.662552 0
M  V30 83562 H 1374.23 8.65116 -0.777161 0
M  V30 83563 H 1374.5 6.90173 -0.474152 0
M  V30 83564 H 1373.63 7.66548 -2.79458 0
M  V30 83565 P 1369.67 8.03563 -3.84925 0
M  V30 83566 O 1369.45 8.85821 -5.0569 0
M  V30 83567 O 1368.88 8.41101 -2.65469 0
M  V30 83568 O 1369.42 6.4965 -4.18908 0
M  V30 83569 C 1370.36 5.81037 -5.05421 0
M  V30 83570 C 1369.63 4.78366 -5.89277 0
M  V30 83571 O 1369.42 3.58302 -5.08433 0
M  V30 83572 C 1368.23 5.17448 -6.36119 0
M  V30 83573 O 1367.84 4.45271 -7.53232 0
M  V30 83574 C 1367.35 4.74639 -5.19936 0
M  V30 83575 C 1368.06 3.49432 -4.70418 0
M  V30 83576 N 1368.01 3.31776 -3.22945 0
M  V30 83577 H 1370.85 6.54213 -5.71376 0
M  V30 83578 H 1371.12 5.30492 -4.44033 0
M  V30 83579 H 1370.25 4.55889 -6.76652 0
M  V30 83580 P 1366.29 4.23843 -7.83734 0
M  V30 83581 O 1366.07 4.19407 -9.29784 0
M  V30 83582 O 1365.5 5.24426 -7.09156 0
M  V30 83583 O 1366.04 2.7935 -7.20758 0
M  V30 83584 C 1366.98 1.7299 -7.50419 0
M  V30 83585 C 1366.25 0.406376 -7.57911 0
M  V30 83586 O 1366.04 -0.0897726 -6.21935 0
M  V30 83587 C 1364.85 0.447224 -8.1878 0
M  V30 83588 O 1364.46 -0.825065 -8.71101 0
M  V30 83589 C 1363.97 0.783801 -6.99623 0
M  V30 83590 C 1364.68 0.0619192 -5.85967 0
M  V30 83591 N 1364.63 0.790462 -4.56202 0
M  V30 83592 C 1364.71 2.13895 -4.34171 0
M  V30 83593 N 1364.64 2.46449 -3.08687 0
M  V30 83594 C 1364.49 1.2525 -2.43697 0
M  V30 83595 C 1364.36 0.914535 -1.07318 0
M  V30 83596 N 1364.35 1.80782 -0.0887348 0
M  V30 83597 N 1364.24 -0.386745 -0.768133 0
M  V30 83598 C 1364.25 -1.28096 -1.75159 0
M  V30 83599 N 1364.37 -1.09708 -3.04861 0
M  V30 83600 C 1364.49 0.214857 -3.32306 0
M  V30 83601 H 1367.47 1.93423 -8.4679 0
M  V30 83602 H 1367.74 1.68852 -6.70877 0
M  V30 83603 H 1366.87 -0.289041 -8.15388 0
M  V30 83604 H 1364.22 -0.927006 -5.72848 0
M  V30 83605 H 1363.94 1.86973 -6.82036 0
M  V30 83606 H 1362.95 0.403953 -7.13357 0
M  V30 83607 H 1364.78 1.20599 -8.97534 0
M  V30 83608 H 1364.82 2.86846 -5.14318 0
M  V30 83609 H 1364.44 2.81082 -0.302037 0
M  V30 83610 H 1364.25 1.49688 0.889064 0
M  V30 83611 H 1364.15 -2.31317 -1.43855 0
M  V30 83612 P 1362.91 -1.17771 -8.83182 0
M  V30 83613 O 1362.69 -2.07206 -9.98732 0
M  V30 83614 O 1362.12 0.0743816 -8.81969 0
M  V30 83615 O 1362.66 -1.97652 -7.47304 0
M  V30 83616 C 1363.6 -3.01133 -7.08783 0
M  V30 83617 C 1362.87 -4.12613 -6.37049 0
M  V30 83618 O 1362.66 -3.72827 -4.97879 0
M  V30 83619 C 1361.47 -4.45085 -6.88694 0
M  V30 83620 O 1361.08 -5.7877 -6.5624 0
M  V30 83621 C 1360.59 -3.47817 -6.12078 0
M  V30 83622 C 1361.3 -3.39414 -4.77697 0
M  V30 83623 N 1361.25 -2.04615 -4.15333 0
M  V30 83624 H 1364.09 -3.41248 -7.98759 0
M  V30 83625 H 1364.36 -2.5837 -6.41742 0
M  V30 83626 H 1363.49 -5.02657 -6.42673 0
M  V30 83627 P 1359.53 -6.144 -6.45285 0
M  V30 83628 O 1359.31 -7.54673 -6.86199 0
M  V30 83629 O 1358.74 -5.12391 -7.179 0
M  V30 83630 O 1359.28 -5.99158 -4.88404 0
M  V30 83631 C 1360.22 -6.60234 -3.96415 0
M  V30 83632 C 1359.49 -7.08259 -2.72856 0
M  V30 83633 O 1359.28 -5.9427 -1.83651 0
M  V30 83634 C 1358.09 -7.64886 -2.9555 0
M  V30 83635 O 1357.7 -8.53963 -1.90717 0
M  V30 83636 C 1357.21 -6.4116 -2.90739 0
M  V30 83637 C 1357.92 -5.55375 -1.86963 0
M  V30 83638 N 1357.87 -4.09664 -2.15742 0
M  V30 83639 H 1360.71 -7.45574 -4.45629 0
M  V30 83640 H 1360.98 -5.86232 -3.67314 0
M  V30 83641 H 1360.11 -7.84412 -2.24479 0
M  V30 83642 P 1356.15 -8.7635 -1.60911 0
M  V30 83643 O 1355.93 -10.1388 -1.11561 0
M  V30 83644 O 1355.36 -8.36503 -2.79617 0
M  V30 83645 O 1355.9 -7.71806 -0.42951 0
M  V30 83646 C 1356.84 -7.67148 0.673689 0
M  V30 83647 C 1356.11 -7.33374 1.95559 0
M  V30 83648 O 1355.9 -5.88721 2.00726 0
M  V30 83649 C 1354.71 -7.92526 2.10483 0
M  V30 83650 O 1354.32 -8.02971 3.47653 0
M  V30 83651 C 1353.83 -6.89602 1.41652 0
M  V30 83652 C 1354.54 -5.59201 1.75185 0
M  V30 83653 N 1354.49 -4.58235 0.662552 0
M  V30 83654 H 1357.33 -8.65116 0.777161 0
M  V30 83655 H 1357.6 -6.90173 0.474152 0
M  V30 83656 H 1356.73 -7.66548 2.79458 0
M  V30 83657 P 1352.77 -8.03563 3.84925 0
M  V30 83658 O 1352.55 -8.85821 5.0569 0
M  V30 83659 O 1351.98 -8.41101 2.65469 0
M  V30 83660 O 1352.52 -6.4965 4.18908 0
M  V30 83661 C 1353.46 -5.81037 5.05421 0
M  V30 83662 C 1352.73 -4.78366 5.89277 0
M  V30 83663 O 1352.52 -3.58302 5.08433 0
M  V30 83664 C 1351.33 -5.17448 6.36119 0
M  V30 83665 O 1350.94 -4.45271 7.53232 0
M  V30 83666 C 1350.45 -4.74639 5.19936 0
M  V30 83667 C 1351.16 -3.49432 4.70418 0
M  V30 83668 N 1351.11 -3.31776 3.22945 0
M  V30 83669 H 1353.95 -6.54213 5.71376 0
M  V30 83670 H 1354.22 -5.30492 4.44033 0
M  V30 83671 H 1353.36 -4.55889 6.76652 0
M  V30 83672 P 1349.39 -4.23843 7.83734 0
M  V30 83673 O 1349.17 -4.19407 9.29784 0
M  V30 83674 O 1348.6 -5.24426 7.09156 0
M  V30 83675 O 1349.14 -2.7935 7.20758 0
M  V30 83676 C 1350.08 -1.7299 7.50419 0
M  V30 83677 C 1349.35 -0.406376 7.57911 0
M  V30 83678 O 1349.14 0.0897726 6.21935 0
M  V30 83679 C 1347.95 -0.447224 8.1878 0
M  V30 83680 O 1347.56 0.825065 8.71101 0
M  V30 83681 C 1347.07 -0.783801 6.99623 0
M  V30 83682 C 1347.78 -0.0619192 5.85967 0
M  V30 83683 N 1347.73 -0.7859 4.56281 0
M  V30 83684 H 1350.57 -1.93423 8.4679 0
M  V30 83685 H 1350.84 -1.68181 6.71046 0
M  V30 83686 H 1349.98 0.289041 8.15388 0
M  V30 83687 P 1346.01 1.17771 8.83182 0
M  V30 83688 O 1345.79 2.07206 9.98732 0
M  V30 83689 O 1345.22 -0.0743816 8.81969 0
M  V30 83690 O 1345.76 1.97652 7.47304 0
M  V30 83691 C 1346.7 3.01133 7.08783 0
M  V30 83692 C 1345.97 4.12613 6.37049 0
M  V30 83693 O 1345.76 3.72827 4.97879 0
M  V30 83694 C 1344.57 4.45085 6.88694 0
M  V30 83695 O 1344.18 5.7877 6.5624 0
M  V30 83696 C 1343.69 3.47817 6.12078 0
M  V30 83697 C 1344.4 3.39414 4.77697 0
M  V30 83698 N 1344.35 2.04199 4.15538 0
M  V30 83699 H 1347.19 3.41248 7.98759 0
M  V30 83700 H 1347.46 2.57728 6.42 0
M  V30 83701 H 1346.6 5.02657 6.42673 0
M  V30 83702 H 1343.94 4.11708 4.08956 0
M  V30 83703 H 1343.66 2.49626 6.61679 0
M  V30 83704 H 1342.67 3.8662 6.00862 0
M  V30 83705 H 1344.5 4.29991 7.97006 0
M  V30 83706 P 1342.63 6.144 6.45285 0
M  V30 83707 O 1342.41 7.54673 6.86199 0
M  V30 83708 O 1341.84 5.12391 7.179 0
M  V30 83709 O 1342.38 5.99158 4.88404 0
M  V30 83710 C 1343.32 6.60234 3.96415 0
M  V30 83711 C 1342.59 7.08259 2.72856 0
M  V30 83712 O 1342.38 5.9427 1.83651 0
M  V30 83713 C 1341.19 7.64886 2.9555 0
M  V30 83714 O 1340.8 8.53963 1.90717 0
M  V30 83715 C 1340.31 6.4116 2.90739 0
M  V30 83716 C 1341.02 5.55375 1.86963 0
M  V30 83717 N 1340.97 4.09664 2.15742 0
M  V30 83718 C 1341.05 3.44381 3.37233 0
M  V30 83719 N 1340.97 2.14131 3.28347 0
M  V30 83720 C 1340.83 1.90247 1.91588 0
M  V30 83721 C 1340.7 0.683992 1.20892 0
M  V30 83722 O 1340.68 -0.46618 1.64523 0
M  V30 83723 N 1340.58 0.903396 -0.173998 0
M  V30 83724 C 1340.58 2.14171 -0.784879 0
M  V30 83725 N 1340.45 2.1435 -2.11317 0
M  V30 83726 N 1340.71 3.28784 -0.119316 0
M  V30 83727 C 1340.83 3.0977 1.22194 0
M  V30 83728 H 1343.81 7.45574 4.45629 0
M  V30 83729 H 1344.08 5.86232 3.67314 0
M  V30 83730 H 1343.22 7.84412 2.24479 0
M  V30 83731 H 1340.56 5.73556 0.888715 0
M  V30 83732 H 1340.28 5.9096 3.88638 0
M  V30 83733 H 1339.29 6.66053 2.58894 0
M  V30 83734 H 1341.12 8.16429 3.92093 0
M  V30 83735 H 1341.17 3.96785 4.32043 0
M  V30 83736 H 1340.49 0.0999567 -0.761467 0
M  V30 83737 H 1340.45 3.03436 -2.63076 0
M  V30 83738 H 1340.35 1.25228 -2.62233 0
M  V30 83739 P 1339.25 8.7635 1.60911 0
M  V30 83740 O 1339.03 10.1388 1.11561 0
M  V30 83741 O 1338.46 8.36503 2.79617 0
M  V30 83742 O 1339 7.71806 0.42951 0
M  V30 83743 C 1339.94 7.67148 -0.673689 0
M  V30 83744 C 1339.21 7.33374 -1.95559 0
M  V30 83745 O 1339 5.88721 -2.00726 0
M  V30 83746 C 1337.81 7.92526 -2.10483 0
M  V30 83747 O 1337.42 8.02971 -3.47653 0
M  V30 83748 C 1336.93 6.89602 -1.41652 0
M  V30 83749 C 1337.64 5.59201 -1.75185 0
M  V30 83750 N 1337.59 4.58235 -0.662552 0
M  V30 83751 H 1340.43 8.65116 -0.777161 0
M  V30 83752 H 1340.7 6.90173 -0.474152 0
M  V30 83753 H 1339.84 7.66548 -2.79458 0
M  V30 83754 P 1335.87 8.03563 -3.84925 0
M  V30 83755 O 1335.65 8.85821 -5.0569 0
M  V30 83756 O 1335.08 8.41101 -2.65469 0
M  V30 83757 O 1335.62 6.4965 -4.18908 0
M  V30 83758 C 1336.56 5.81037 -5.05421 0
M  V30 83759 C 1335.83 4.78366 -5.89277 0
M  V30 83760 O 1335.62 3.58302 -5.08433 0
M  V30 83761 C 1334.43 5.17448 -6.36119 0
M  V30 83762 O 1334.04 4.45271 -7.53232 0
M  V30 83763 C 1333.55 4.74639 -5.19936 0
M  V30 83764 C 1334.26 3.49432 -4.70418 0
M  V30 83765 N 1334.21 3.31776 -3.22945 0
M  V30 83766 H 1337.05 6.54213 -5.71376 0
M  V30 83767 H 1337.32 5.30492 -4.44033 0
M  V30 83768 H 1336.46 4.55889 -6.76652 0
M  V30 83769 P 1332.49 4.23843 -7.83734 0
M  V30 83770 O 1332.27 4.19407 -9.29784 0
M  V30 83771 O 1331.7 5.24426 -7.09156 0
M  V30 83772 O 1332.24 2.7935 -7.20758 0
M  V30 83773 C 1333.18 1.7299 -7.50419 0
M  V30 83774 C 1332.45 0.406376 -7.57911 0
M  V30 83775 O 1332.24 -0.0897726 -6.21935 0
M  V30 83776 C 1331.05 0.447224 -8.1878 0
M  V30 83777 O 1330.66 -0.825065 -8.71101 0
M  V30 83778 C 1330.17 0.783801 -6.99623 0
M  V30 83779 C 1330.88 0.0619192 -5.85967 0
M  V30 83780 N 1330.83 0.7859 -4.56281 0
M  V30 83781 H 1333.67 1.93423 -8.4679 0
M  V30 83782 H 1333.94 1.68181 -6.71046 0
M  V30 83783 H 1333.08 -0.289041 -8.15388 0
M  V30 83784 P 1329.11 -1.17771 -8.83182 0
M  V30 83785 O 1328.89 -2.07206 -9.98732 0
M  V30 83786 O 1328.32 0.0743816 -8.81969 0
M  V30 83787 O 1328.86 -1.97652 -7.47304 0
M  V30 83788 C 1329.8 -3.01133 -7.08783 0
M  V30 83789 C 1329.07 -4.12613 -6.37049 0
M  V30 83790 O 1328.86 -3.72827 -4.97879 0
M  V30 83791 C 1327.67 -4.45085 -6.88694 0
M  V30 83792 O 1327.28 -5.7877 -6.5624 0
M  V30 83793 C 1326.79 -3.47817 -6.12078 0
M  V30 83794 C 1327.5 -3.39414 -4.77697 0
M  V30 83795 N 1327.45 -2.04199 -4.15538 0
M  V30 83796 H 1330.29 -3.41248 -7.98759 0
M  V30 83797 H 1330.56 -2.57728 -6.42 0
M  V30 83798 H 1329.7 -5.02657 -6.42673 0
M  V30 83799 H 1327.04 -4.11708 -4.08956 0
M  V30 83800 H 1326.76 -2.49626 -6.61679 0
M  V30 83801 H 1325.77 -3.8662 -6.00862 0
M  V30 83802 H 1327.6 -4.29991 -7.97006 0
M  V30 83803 P 1325.73 -6.144 -6.45285 0
M  V30 83804 O 1325.51 -7.54673 -6.86199 0
M  V30 83805 O 1324.94 -5.12391 -7.179 0
M  V30 83806 O 1325.48 -5.99158 -4.88404 0
M  V30 83807 C 1326.42 -6.60234 -3.96415 0
M  V30 83808 C 1325.69 -7.08259 -2.72856 0
M  V30 83809 O 1325.48 -5.9427 -1.83651 0
M  V30 83810 C 1324.29 -7.64886 -2.9555 0
M  V30 83811 O 1323.9 -8.53963 -1.90717 0
M  V30 83812 C 1323.41 -6.4116 -2.90739 0
M  V30 83813 C 1324.12 -5.55375 -1.86963 0
M  V30 83814 N 1324.07 -4.09664 -2.15742 0
M  V30 83815 C 1324.15 -3.44381 -3.37233 0
M  V30 83816 N 1324.07 -2.14131 -3.28347 0
M  V30 83817 C 1323.93 -1.90247 -1.91588 0
M  V30 83818 C 1323.8 -0.683992 -1.20892 0
M  V30 83819 O 1323.78 0.46618 -1.64523 0
M  V30 83820 N 1323.68 -0.903396 0.173998 0
M  V30 83821 C 1323.68 -2.14171 0.784879 0
M  V30 83822 N 1323.55 -2.1435 2.11317 0
M  V30 83823 N 1323.81 -3.28784 0.119316 0
M  V30 83824 C 1323.93 -3.0977 -1.22194 0
M  V30 83825 H 1326.91 -7.45574 -4.45629 0
M  V30 83826 H 1327.18 -5.86232 -3.67314 0
M  V30 83827 H 1326.32 -7.84412 -2.24479 0
M  V30 83828 H 1323.66 -5.73556 -0.888715 0
M  V30 83829 H 1323.38 -5.9096 -3.88638 0
M  V30 83830 H 1322.39 -6.66053 -2.58894 0
M  V30 83831 H 1324.22 -8.16429 -3.92093 0
M  V30 83832 H 1324.27 -3.96785 -4.32043 0
M  V30 83833 H 1323.59 -0.0999567 0.761467 0
M  V30 83834 H 1323.55 -3.03436 2.63076 0
M  V30 83835 H 1323.45 -1.25228 2.62233 0
M  V30 83836 P 1322.35 -8.7635 -1.60911 0
M  V30 83837 O 1322.13 -10.1388 -1.11561 0
M  V30 83838 O 1321.56 -8.36503 -2.79617 0
M  V30 83839 O 1322.1 -7.71806 -0.42951 0
M  V30 83840 C 1323.04 -7.67148 0.673689 0
M  V30 83841 C 1322.31 -7.33374 1.95559 0
M  V30 83842 O 1322.1 -5.88721 2.00726 0
M  V30 83843 C 1320.91 -7.92526 2.10483 0
M  V30 83844 O 1320.52 -8.02971 3.47653 0
M  V30 83845 C 1320.03 -6.89602 1.41652 0
M  V30 83846 C 1320.74 -5.59201 1.75185 0
M  V30 83847 N 1320.69 -4.58235 0.662552 0
M  V30 83848 H 1323.53 -8.65116 0.777161 0
M  V30 83849 H 1323.8 -6.90173 0.474152 0
M  V30 83850 H 1322.94 -7.66548 2.79458 0
M  V30 83851 P 1318.97 -8.03563 3.84925 0
M  V30 83852 O 1318.75 -8.85821 5.0569 0
M  V30 83853 O 1318.18 -8.41101 2.65469 0
M  V30 83854 O 1318.72 -6.4965 4.18908 0
M  V30 83855 C 1319.66 -5.81037 5.05421 0
M  V30 83856 C 1318.93 -4.78366 5.89277 0
M  V30 83857 O 1318.72 -3.58302 5.08433 0
M  V30 83858 C 1317.53 -5.17448 6.36119 0
M  V30 83859 O 1317.14 -4.45271 7.53232 0
M  V30 83860 C 1316.65 -4.74639 5.19936 0
M  V30 83861 C 1317.36 -3.49432 4.70418 0
M  V30 83862 N 1317.31 -3.31776 3.22945 0
M  V30 83863 C 1317.39 -4.27147 2.23315 0
M  V30 83864 N 1317.31 -3.78447 1.02186 0
M  V30 83865 C 1317.17 -2.41001 1.21732 0
M  V30 83866 C 1317.04 -1.36111 0.27694 0
M  V30 83867 O 1317.02 -1.42065 -0.951767 0
M  V30 83868 N 1316.92 -0.113683 0.912949 0
M  V30 83869 C 1316.92 0.0846396 2.27943 0
M  V30 83870 N 1316.79 1.34737 2.6916 0
M  V30 83871 N 1317.05 -0.902521 3.16379 0
M  V30 83872 C 1317.17 -2.11937 2.56849 0
M  V30 83873 H 1320.15 -6.54213 5.71376 0
M  V30 83874 H 1320.42 -5.30492 4.44033 0
M  V30 83875 H 1319.56 -4.55889 6.76652 0
M  V30 83876 H 1316.9 -2.6176 5.18021 0
M  V30 83877 H 1316.62 -5.52233 4.41941 0
M  V30 83878 H 1315.63 -4.52045 5.53452 0
M  V30 83879 H 1317.46 -6.25193 6.55307 0
M  V30 83880 H 1317.51 -5.3351 2.43857 0
M  V30 83881 H 1316.83 0.69331 0.330371 0
M  V30 83882 H 1316.79 1.56433 3.6988 0
M  V30 83883 H 1316.69 2.10701 2.00133 0
M  V30 83884 P 1315.59 -4.23843 7.83734 0
M  V30 83885 O 1315.37 -4.19407 9.29784 0
M  V30 83886 O 1314.8 -5.24426 7.09156 0
M  V30 83887 O 1315.34 -2.7935 7.20758 0
M  V30 83888 C 1316.28 -1.7299 7.50419 0
M  V30 83889 C 1315.55 -0.406376 7.57911 0
M  V30 83890 O 1315.34 0.0897726 6.21935 0
M  V30 83891 C 1314.15 -0.447224 8.1878 0
M  V30 83892 O 1313.76 0.825065 8.71101 0
M  V30 83893 C 1313.27 -0.783801 6.99623 0
M  V30 83894 C 1313.98 -0.0619192 5.85967 0
M  V30 83895 N 1313.93 -0.7859 4.56281 0
M  V30 83896 H 1316.77 -1.93423 8.4679 0
M  V30 83897 H 1317.04 -1.68181 6.71046 0
M  V30 83898 H 1316.18 0.289041 8.15388 0
M  V30 83899 P 1312.21 1.17771 8.83182 0
M  V30 83900 O 1311.99 2.07206 9.98732 0
M  V30 83901 O 1311.42 -0.0743816 8.81969 0
M  V30 83902 O 1311.96 1.97652 7.47304 0
M  V30 83903 C 1312.9 3.01133 7.08783 0
M  V30 83904 C 1312.17 4.12613 6.37049 0
M  V30 83905 O 1311.96 3.72827 4.97879 0
M  V30 83906 C 1310.77 4.45085 6.88694 0
M  V30 83907 O 1310.38 5.7877 6.5624 0
M  V30 83908 C 1309.89 3.47817 6.12078 0
M  V30 83909 C 1310.6 3.39414 4.77697 0
M  V30 83910 N 1310.55 2.04615 4.15333 0
M  V30 83911 H 1313.39 3.41248 7.98759 0
M  V30 83912 H 1313.66 2.5837 6.41742 0
M  V30 83913 H 1312.8 5.02657 6.42673 0
M  V30 83914 P 1308.83 6.144 6.45285 0
M  V30 83915 O 1308.61 7.54673 6.86199 0
M  V30 83916 O 1308.04 5.12391 7.179 0
M  V30 83917 O 1308.58 5.99158 4.88404 0
M  V30 83918 C 1309.52 6.60234 3.96415 0
M  V30 83919 C 1308.79 7.08259 2.72856 0
M  V30 83920 O 1308.58 5.9427 1.83651 0
M  V30 83921 C 1307.39 7.64886 2.9555 0
M  V30 83922 O 1307 8.53963 1.90717 0
M  V30 83923 C 1306.51 6.4116 2.90739 0
M  V30 83924 C 1307.22 5.55375 1.86963 0
M  V30 83925 N 1307.17 4.09664 2.15742 0
M  V30 83926 H 1310.01 7.45574 4.45629 0
M  V30 83927 H 1310.28 5.86232 3.67314 0
M  V30 83928 H 1309.42 7.84412 2.24479 0
M  V30 83929 P 1305.45 8.7635 1.60911 0
M  V30 83930 O 1305.23 10.1388 1.11561 0
M  V30 83931 O 1304.66 8.36503 2.79617 0
M  V30 83932 O 1305.2 7.71806 0.42951 0
M  V30 83933 C 1306.14 7.67148 -0.673689 0
M  V30 83934 C 1305.41 7.33374 -1.95559 0
M  V30 83935 O 1305.2 5.88721 -2.00726 0
M  V30 83936 C 1304.01 7.92526 -2.10483 0
M  V30 83937 O 1303.62 8.02971 -3.47653 0
M  V30 83938 C 1303.13 6.89602 -1.41652 0
M  V30 83939 C 1303.84 5.59201 -1.75185 0
M  V30 83940 N 1303.79 4.58301 -0.657969 0
M  V30 83941 H 1306.63 8.65116 -0.777161 0
M  V30 83942 H 1306.9 6.9022 -0.46725 0
M  V30 83943 H 1306.04 7.66548 -2.79458 0
M  V30 83944 H 1303.38 5.16165 -2.65183 0
M  V30 83945 H 1303.1 7.06433 -0.329384 0
M  V30 83946 H 1302.11 6.90926 -1.82021 0
M  V30 83947 H 1303.94 8.90873 -1.62657 0
M  V30 83948 P 1302.07 8.03563 -3.84925 0
M  V30 83949 O 1301.85 8.85821 -5.0569 0
M  V30 83950 O 1301.28 8.41101 -2.65469 0
M  V30 83951 O 1301.82 6.4965 -4.18908 0
M  V30 83952 C 1302.76 5.81037 -5.05421 0
M  V30 83953 C 1302.03 4.78366 -5.89277 0
M  V30 83954 O 1301.82 3.58302 -5.08433 0
M  V30 83955 C 1300.63 5.17448 -6.36119 0
M  V30 83956 O 1300.24 4.45271 -7.53232 0
M  V30 83957 C 1299.75 4.74639 -5.19936 0
M  V30 83958 C 1300.46 3.49432 -4.70418 0
M  V30 83959 N 1300.41 3.31776 -3.22945 0
M  V30 83960 H 1303.25 6.54213 -5.71376 0
M  V30 83961 H 1303.52 5.30492 -4.44033 0
M  V30 83962 H 1302.66 4.55889 -6.76652 0
M  V30 83963 P 1298.69 4.23843 -7.83734 0
M  V30 83964 O 1298.47 4.19407 -9.29784 0
M  V30 83965 O 1297.9 5.24426 -7.09156 0
M  V30 83966 O 1298.44 2.7935 -7.20758 0
M  V30 83967 C 1299.38 1.7299 -7.50419 0
M  V30 83968 C 1298.65 0.406376 -7.57911 0
M  V30 83969 O 1298.44 -0.0897726 -6.21935 0
M  V30 83970 C 1297.25 0.447224 -8.1878 0
M  V30 83971 O 1296.86 -0.825065 -8.71101 0
M  V30 83972 C 1296.37 0.783801 -6.99623 0
M  V30 83973 C 1297.08 0.0619192 -5.85967 0
M  V30 83974 N 1297.03 0.7859 -4.56281 0
M  V30 83975 H 1299.87 1.93423 -8.4679 0
M  V30 83976 H 1300.14 1.68181 -6.71046 0
M  V30 83977 H 1299.28 -0.289041 -8.15388 0
M  V30 83978 P 1295.31 -1.17771 -8.83182 0
M  V30 83979 O 1295.09 -2.07206 -9.98732 0
M  V30 83980 O 1294.52 0.0743816 -8.81969 0
M  V30 83981 O 1295.06 -1.97652 -7.47304 0
M  V30 83982 C 1296 -3.01133 -7.08783 0
M  V30 83983 C 1295.27 -4.12613 -6.37049 0
M  V30 83984 O 1295.06 -3.72827 -4.97879 0
M  V30 83985 C 1293.87 -4.45085 -6.88694 0
M  V30 83986 O 1293.48 -5.7877 -6.5624 0
M  V30 83987 C 1292.99 -3.47817 -6.12078 0
M  V30 83988 C 1293.7 -3.39414 -4.77697 0
M  V30 83989 N 1293.65 -2.04615 -4.15333 0
M  V30 83990 H 1296.49 -3.41248 -7.98759 0
M  V30 83991 H 1296.76 -2.5837 -6.41742 0
M  V30 83992 H 1295.9 -5.02657 -6.42673 0
M  V30 83993 P 1291.93 -6.144 -6.45285 0
M  V30 83994 O 1291.71 -7.54673 -6.86199 0
M  V30 83995 O 1291.14 -5.12391 -7.179 0
M  V30 83996 O 1291.68 -5.99158 -4.88404 0
M  V30 83997 C 1292.62 -6.60234 -3.96415 0
M  V30 83998 C 1291.89 -7.08259 -2.72856 0
M  V30 83999 O 1291.68 -5.9427 -1.83651 0
M  V30 84000 C 1290.49 -7.64886 -2.9555 0
M  V30 84001 O 1290.1 -8.53963 -1.90717 0
M  V30 84002 C 1289.61 -6.4116 -2.90739 0
M  V30 84003 C 1290.32 -5.55375 -1.86963 0
M  V30 84004 N 1290.27 -4.09664 -2.15742 0
M  V30 84005 C 1290.35 -3.44381 -3.37233 0
M  V30 84006 N 1290.27 -2.14131 -3.28347 0
M  V30 84007 C 1290.13 -1.90247 -1.91588 0
M  V30 84008 C 1290 -0.683992 -1.20892 0
M  V30 84009 N 1289.88 -0.903396 0.173998 0
M  V30 84010 C 1289.88 -2.14171 0.784879 0
M  V30 84011 N 1289.75 -2.1435 2.11317 0
M  V30 84012 N 1290.01 -3.28784 0.119316 0
M  V30 84013 C 1290.13 -3.0977 -1.22194 0
M  V30 84014 H 1293.11 -7.45574 -4.45629 0
M  V30 84015 H 1293.38 -5.86232 -3.67314 0
M  V30 84016 H 1292.52 -7.84412 -2.24479 0
M  V30 84017 P 1288.55 -8.7635 -1.60911 0
M  V30 84018 O 1288.33 -10.1388 -1.11561 0
M  V30 84019 O 1287.76 -8.36503 -2.79617 0
M  V30 84020 O 1288.3 -7.71806 -0.42951 0
M  V30 84021 C 1289.24 -7.67148 0.673689 0
M  V30 84022 C 1288.51 -7.33374 1.95559 0
M  V30 84023 O 1288.3 -5.88721 2.00726 0
M  V30 84024 C 1287.11 -7.92526 2.10483 0
M  V30 84025 O 1286.72 -8.02971 3.47653 0
M  V30 84026 C 1286.23 -6.89602 1.41652 0
M  V30 84027 C 1286.94 -5.59201 1.75185 0
M  V30 84028 N 1286.89 -4.58235 0.662552 0
M  V30 84029 H 1289.73 -8.65116 0.777161 0
M  V30 84030 H 1290 -6.90173 0.474152 0
M  V30 84031 H 1289.14 -7.66548 2.79458 0
M  V30 84032 P 1285.17 -8.03563 3.84925 0
M  V30 84033 O 1284.95 -8.85821 5.0569 0
M  V30 84034 O 1284.38 -8.41101 2.65469 0
M  V30 84035 O 1284.92 -6.4965 4.18908 0
M  V30 84036 C 1285.86 -5.80886 5.05289 0
M  V30 84037 C 1285.13 -4.78366 5.89277 0
M  V30 84038 O 1284.92 -3.58302 5.08433 0
M  V30 84039 C 1283.73 -5.16748 6.36559 0
M  V30 84040 O 1283.34 -4.45271 7.53232 0
M  V30 84041 C 1282.85 -4.74572 5.19863 0
M  V30 84042 C 1283.56 -3.49373 4.70338 0
M  V30 84043 N 1283.51 -3.31704 3.22876 0
M  V30 84044 C 1283.36 -2.03326 2.74871 0
M  V30 84045 O 1283.27 -1.06486 3.48076 0
M  V30 84046 N 1283.32 -1.91838 1.37456 0
M  V30 84047 C 1283.41 -2.94295 0.462035 0
M  V30 84048 C 1283.56 -4.25064 1.05249 0
M  V30 84049 C 1283.61 -4.40214 2.39192 0
M  V30 84050 H 1286.35 -6.54063 5.71245 0
M  V30 84051 H 1286.62 -5.30339 4.43905 0
M  V30 84052 H 1285.76 -4.55889 6.76652 0
M  V30 84053 H 1283.1 -2.6167 5.17842 0
M  V30 84054 H 1282.82 -5.52155 4.41878 0
M  V30 84055 H 1281.83 -4.51918 5.53297 0
M  V30 84056 H 1283.66 -6.25055 6.55162 0
M  V30 84057 H 1283.73 -5.39798 2.81523 0
M  V30 84058 P 1281.79 -4.23843 7.83734 0
M  V30 84059 O 1281.57 -4.19407 9.29784 0
M  V30 84060 O 1281 -5.24426 7.09156 0
M  V30 84061 O 1281.54 -2.7935 7.20758 0
M  V30 84062 C 1282.48 -1.7299 7.50419 0
M  V30 84063 C 1281.75 -0.406376 7.57911 0
M  V30 84064 O 1281.54 0.0897726 6.21935 0
M  V30 84065 C 1280.35 -0.447224 8.1878 0
M  V30 84066 O 1279.96 0.825065 8.71101 0
M  V30 84067 C 1279.47 -0.783801 6.99623 0
M  V30 84068 C 1280.18 -0.0619192 5.85967 0
M  V30 84069 N 1280.13 -0.7859 4.56281 0
M  V30 84070 H 1282.97 -1.93423 8.4679 0
M  V30 84071 H 1283.24 -1.68181 6.71046 0
M  V30 84072 H 1282.38 0.289041 8.15388 0
M  V30 84073 P 1278.41 1.17771 8.83182 0
M  V30 84074 O 1278.19 2.07206 9.98732 0
M  V30 84075 O 1277.62 -0.0743816 8.81969 0
M  V30 84076 O 1278.16 1.97652 7.47304 0
M  V30 84077 C 1279.1 3.01133 7.08783 0
M  V30 84078 C 1278.37 4.12613 6.37049 0
M  V30 84079 O 1278.16 3.72827 4.97879 0
M  V30 84080 C 1276.97 4.45085 6.88694 0
M  V30 84081 O 1276.58 5.7877 6.5624 0
M  V30 84082 C 1276.09 3.47817 6.12078 0
M  V30 84083 C 1276.8 3.39414 4.77697 0
M  V30 84084 N 1276.75 2.04615 4.15333 0
M  V30 84085 C 1276.83 0.803897 4.75249 0
M  V30 84086 N 1276.75 -0.197615 3.91502 0
M  V30 84087 C 1276.61 0.413002 2.66823 0
M  V30 84088 C 1276.48 -0.157221 1.38007 0
M  V30 84089 N 1276.36 0.833136 0.390236 0
M  V30 84090 C 1276.36 2.19402 0.623885 0
M  V30 84091 N 1276.23 2.97622 -0.449677 0
M  V30 84092 N 1276.49 2.73005 1.83601 0
M  V30 84093 C 1276.61 1.78786 2.80935 0
M  V30 84094 H 1279.59 3.41248 7.98759 0
M  V30 84095 H 1279.86 2.5837 6.41742 0
M  V30 84096 H 1279 5.02657 6.42673 0
M  V30 84097 P 1275.03 6.144 6.45285 0
M  V30 84098 O 1274.81 7.54673 6.86199 0
M  V30 84099 O 1274.24 5.12391 7.179 0
M  V30 84100 O 1274.78 5.99158 4.88404 0
M  V30 84101 C 1275.72 6.60234 3.96415 0
M  V30 84102 C 1274.99 7.08259 2.72856 0
M  V30 84103 O 1274.78 5.9427 1.83651 0
M  V30 84104 C 1273.59 7.64886 2.9555 0
M  V30 84105 O 1273.2 8.53963 1.90717 0
M  V30 84106 C 1272.71 6.4116 2.90739 0
M  V30 84107 C 1273.42 5.55375 1.86963 0
M  V30 84108 N 1273.37 4.09664 2.15742 0
M  V30 84109 H 1276.21 7.45574 4.45629 0
M  V30 84110 H 1276.48 5.86232 3.67314 0
M  V30 84111 H 1275.62 7.84412 2.24479 0
M  V30 84112 P 1271.65 8.7635 1.60911 0
M  V30 84113 O 1271.43 10.1388 1.11561 0
M  V30 84114 O 1270.86 8.36503 2.79617 0
M  V30 84115 O 1271.4 7.71806 0.42951 0
M  V30 84116 C 1272.34 7.67148 -0.673689 0
M  V30 84117 C 1271.61 7.33374 -1.95559 0
M  V30 84118 O 1271.4 5.88721 -2.00726 0
M  V30 84119 C 1270.21 7.92526 -2.10483 0
M  V30 84120 O 1269.82 8.02971 -3.47653 0
M  V30 84121 C 1269.33 6.89602 -1.41652 0
M  V30 84122 C 1270.04 5.59201 -1.75185 0
M  V30 84123 N 1269.99 4.58235 -0.662552 0
M  V30 84124 H 1272.83 8.65116 -0.777161 0
M  V30 84125 H 1273.1 6.90173 -0.474152 0
M  V30 84126 H 1272.24 7.66548 -2.79458 0
M  V30 84127 P 1268.27 8.03563 -3.84925 0
M  V30 84128 O 1268.05 8.85821 -5.0569 0
M  V30 84129 O 1267.48 8.41101 -2.65469 0
M  V30 84130 O 1268.02 6.4965 -4.18908 0
M  V30 84131 C 1268.96 5.81037 -5.05421 0
M  V30 84132 C 1268.23 4.78366 -5.89277 0
M  V30 84133 O 1268.02 3.58302 -5.08433 0
M  V30 84134 C 1266.83 5.17448 -6.36119 0
M  V30 84135 O 1266.44 4.45271 -7.53232 0
M  V30 84136 C 1265.95 4.74639 -5.19936 0
M  V30 84137 C 1266.66 3.49432 -4.70418 0
M  V30 84138 N 1266.61 3.32099 -3.22613 0
M  V30 84139 H 1269.45 6.54213 -5.71376 0
M  V30 84140 H 1269.72 5.30936 -4.43503 0
M  V30 84141 H 1268.86 4.55889 -6.76652 0
M  V30 84142 H 1266.2 2.61715 -5.17932 0
M  V30 84143 H 1265.92 5.52155 -4.41878 0
M  V30 84144 H 1264.93 4.51981 -5.53374 0
M  V30 84145 H 1266.76 6.25124 -6.55234 0
M  V30 84146 P 1264.89 4.23843 -7.83734 0
M  V30 84147 O 1264.67 4.19407 -9.29784 0
M  V30 84148 O 1264.1 5.24426 -7.09156 0
M  V30 84149 O 1264.64 2.7935 -7.20758 0
M  V30 84150 C 1265.58 1.7299 -7.50419 0
M  V30 84151 C 1264.85 0.406376 -7.57911 0
M  V30 84152 O 1264.64 -0.0897726 -6.21935 0
M  V30 84153 C 1263.45 0.447224 -8.1878 0
M  V30 84154 O 1263.06 -0.825065 -8.71101 0
M  V30 84155 C 1262.57 0.783801 -6.99623 0
M  V30 84156 C 1263.28 0.0619192 -5.85967 0
M  V30 84157 N 1263.23 0.7859 -4.56281 0
M  V30 84158 H 1266.07 1.93423 -8.4679 0
M  V30 84159 H 1266.34 1.68181 -6.71046 0
M  V30 84160 H 1265.48 -0.289041 -8.15388 0
M  V30 84161 P 1261.51 -1.17771 -8.83182 0
M  V30 84162 O 1261.29 -2.07206 -9.98732 0
M  V30 84163 O 1260.72 0.0743816 -8.81969 0
M  V30 84164 O 1261.26 -1.97652 -7.47304 0
M  V30 84165 C 1262.2 -3.01133 -7.08783 0
M  V30 84166 C 1261.47 -4.12613 -6.37049 0
M  V30 84167 O 1261.26 -3.72827 -4.97879 0
M  V30 84168 C 1260.07 -4.45085 -6.88694 0
M  V30 84169 O 1259.68 -5.7877 -6.5624 0
M  V30 84170 C 1259.19 -3.47817 -6.12078 0
M  V30 84171 C 1259.9 -3.39414 -4.77697 0
M  V30 84172 N 1259.85 -2.04199 -4.15538 0
M  V30 84173 H 1262.69 -3.41248 -7.98759 0
M  V30 84174 H 1262.96 -2.57728 -6.42 0
M  V30 84175 H 1262.1 -5.02657 -6.42673 0
M  V30 84176 H 1259.44 -4.11708 -4.08956 0
M  V30 84177 H 1259.16 -2.49626 -6.61679 0
M  V30 84178 H 1258.17 -3.8662 -6.00862 0
M  V30 84179 H 1260 -4.29991 -7.97006 0
M  V30 84180 P 1258.13 -6.144 -6.45285 0
M  V30 84181 O 1257.91 -7.54673 -6.86199 0
M  V30 84182 O 1257.34 -5.12391 -7.179 0
M  V30 84183 O 1257.88 -5.99158 -4.88404 0
M  V30 84184 C 1258.82 -6.60234 -3.96415 0
M  V30 84185 C 1258.09 -7.08259 -2.72856 0
M  V30 84186 O 1257.88 -5.9427 -1.83651 0
M  V30 84187 C 1256.69 -7.64886 -2.9555 0
M  V30 84188 O 1256.3 -8.53963 -1.90717 0
M  V30 84189 C 1255.81 -6.4116 -2.90739 0
M  V30 84190 C 1256.52 -5.55375 -1.86963 0
M  V30 84191 N 1256.47 -4.09664 -2.15742 0
M  V30 84192 H 1259.31 -7.45574 -4.45629 0
M  V30 84193 H 1259.58 -5.86232 -3.67314 0
M  V30 84194 H 1258.72 -7.84412 -2.24479 0
M  V30 84195 P 1254.75 -8.7635 -1.60911 0
M  V30 84196 O 1254.53 -10.1388 -1.11561 0
M  V30 84197 O 1253.96 -8.36503 -2.79617 0
M  V30 84198 O 1254.5 -7.71806 -0.42951 0
M  V30 84199 C 1255.44 -7.67148 0.673689 0
M  V30 84200 C 1254.71 -7.33374 1.95559 0
M  V30 84201 O 1254.5 -5.88721 2.00726 0
M  V30 84202 C 1253.31 -7.92526 2.10483 0
M  V30 84203 O 1252.92 -8.02971 3.47653 0
M  V30 84204 C 1252.43 -6.89602 1.41652 0
M  V30 84205 C 1253.14 -5.59201 1.75185 0
M  V30 84206 N 1253.09 -4.58301 0.657969 0
M  V30 84207 H 1255.93 -8.65116 0.777161 0
M  V30 84208 H 1256.2 -6.9022 0.46725 0
M  V30 84209 H 1255.34 -7.66548 2.79458 0
M  V30 84210 H 1252.68 -5.16165 2.65183 0
M  V30 84211 H 1252.4 -7.06433 0.329384 0
M  V30 84212 H 1251.41 -6.90926 1.82021 0
M  V30 84213 H 1253.24 -8.90873 1.62657 0
M  V30 84214 P 1251.37 -8.03563 3.84925 0
M  V30 84215 O 1251.15 -8.85821 5.0569 0
M  V30 84216 O 1250.58 -8.41101 2.65469 0
M  V30 84217 O 1251.12 -6.4965 4.18908 0
M  V30 84218 C 1252.06 -5.81037 5.05421 0
M  V30 84219 C 1251.33 -4.78366 5.89277 0
M  V30 84220 O 1251.12 -3.58302 5.08433 0
M  V30 84221 C 1249.93 -5.17448 6.36119 0
M  V30 84222 O 1249.54 -4.45271 7.53232 0
M  V30 84223 C 1249.05 -4.74639 5.19936 0
M  V30 84224 C 1249.76 -3.49432 4.70418 0
M  V30 84225 N 1249.71 -3.32099 3.22613 0
M  V30 84226 H 1252.55 -6.54213 5.71376 0
M  V30 84227 H 1252.82 -5.30936 4.43503 0
M  V30 84228 H 1251.96 -4.55889 6.76652 0
M  V30 84229 H 1249.3 -2.61715 5.17932 0
M  V30 84230 H 1249.02 -5.52155 4.41878 0
M  V30 84231 H 1248.03 -4.51981 5.53374 0
M  V30 84232 H 1249.86 -6.25124 6.55234 0
M  V30 84233 P 1247.99 -4.23843 7.83734 0
M  V30 84234 O 1247.77 -4.19407 9.29784 0
M  V30 84235 O 1247.2 -5.24426 7.09156 0
M  V30 84236 O 1247.74 -2.7935 7.20758 0
M  V30 84237 C 1248.68 -1.7299 7.50419 0
M  V30 84238 C 1247.95 -0.406376 7.57911 0
M  V30 84239 O 1247.74 0.0897726 6.21935 0
M  V30 84240 C 1246.55 -0.447224 8.1878 0
M  V30 84241 O 1246.16 0.825065 8.71101 0
M  V30 84242 C 1245.67 -0.783801 6.99623 0
M  V30 84243 C 1246.38 -0.0619192 5.85967 0
M  V30 84244 N 1246.33 -0.7859 4.56281 0
M  V30 84245 H 1249.17 -1.93423 8.4679 0
M  V30 84246 H 1249.44 -1.68181 6.71046 0
M  V30 84247 H 1248.58 0.289041 8.15388 0
M  V30 84248 P 1244.61 1.17771 8.83182 0
M  V30 84249 O 1244.39 2.07206 9.98732 0
M  V30 84250 O 1243.82 -0.0743816 8.81969 0
M  V30 84251 O 1244.36 1.97652 7.47304 0
M  V30 84252 C 1245.3 3.01133 7.08783 0
M  V30 84253 C 1244.57 4.12613 6.37049 0
M  V30 84254 O 1244.36 3.72827 4.97879 0
M  V30 84255 C 1243.17 4.45085 6.88694 0
M  V30 84256 O 1242.78 5.7877 6.5624 0
M  V30 84257 C 1242.29 3.47817 6.12078 0
M  V30 84258 C 1243 3.39414 4.77697 0
M  V30 84259 N 1242.95 2.04615 4.15333 0
M  V30 84260 H 1245.79 3.41248 7.98759 0
M  V30 84261 H 1246.06 2.5837 6.41742 0
M  V30 84262 H 1245.2 5.02657 6.42673 0
M  V30 84263 P 1241.23 6.144 6.45285 0
M  V30 84264 O 1241.01 7.54673 6.86199 0
M  V30 84265 O 1240.44 5.12391 7.179 0
M  V30 84266 O 1240.98 5.99236 4.88467 0
M  V30 84267 C 1241.92 6.60234 3.96415 0
M  V30 84268 C 1241.19 7.08079 2.736 0
M  V30 84269 O 1240.98 5.94365 1.8368 0
M  V30 84270 C 1239.79 7.64886 2.9555 0
M  V30 84271 O 1239.4 8.5406 1.90739 0
M  V30 84272 C 1238.91 6.4116 2.90739 0
M  V30 84273 C 1239.62 5.55375 1.86963 0
M  V30 84274 N 1239.57 4.09664 2.15742 0
M  V30 84275 C 1239.42 3.22231 1.08477 0
M  V30 84276 O 1239.33 3.68951 -0.0600489 0
M  V30 84277 N 1239.37 1.76692 1.48799 0
M  V30 84278 C 1239.47 1.41695 2.57602 0
M  V30 84279 N 1239.42 0.107296 2.75791 0
M  V30 84280 C 1239.62 2.29178 3.69733 0
M  V30 84281 C 1239.67 3.62753 3.42653 0
M  V30 84282 H 1242.41 7.45488 4.45578 0
M  V30 84283 H 1242.68 5.86232 3.67314 0
M  V30 84284 H 1241.82 7.84508 2.24507 0
M  V30 84285 H 1239.16 5.73556 0.888715 0
M  V30 84286 H 1238.88 5.9096 3.88638 0
M  V30 84287 H 1237.89 6.66053 2.58894 0
M  V30 84288 H 1239.72 8.16339 3.92049 0
M  V30 84289 H 1239.8 4.33052 4.24913 0
M  V30 84290 H 1239.69 1.9103 4.71577 0
M  V30 84291 H 1239.31 -0.521221 1.95056 0
M  V30 84292 H 1239.5 -0.286429 3.70695 0
M  V30 84293 P 1237.85 8.7635 1.60911 0
M  V30 84294 O 1237.63 10.1388 1.11561 0
M  V30 84295 O 1237.06 8.36503 2.79617 0
M  V30 84296 O 1237.6 7.71806 0.42951 0
M  V30 84297 C 1238.54 7.67148 -0.673689 0
M  V30 84298 C 1237.81 7.33374 -1.95559 0
M  V30 84299 O 1237.6 5.88721 -2.00726 0
M  V30 84300 C 1236.41 7.92526 -2.10483 0
M  V30 84301 O 1236.02 8.02971 -3.47653 0
M  V30 84302 C 1235.53 6.89602 -1.41652 0
M  V30 84303 C 1236.24 5.59201 -1.75185 0
M  V30 84304 N 1236.19 4.58301 -0.657969 0
M  V30 84305 H 1239.03 8.65116 -0.777161 0
M  V30 84306 H 1239.3 6.9022 -0.46725 0
M  V30 84307 H 1238.44 7.66548 -2.79458 0
M  V30 84308 H 1235.78 5.16165 -2.65183 0
M  V30 84309 H 1235.5 7.06433 -0.329384 0
M  V30 84310 H 1234.51 6.90926 -1.82021 0
M  V30 84311 H 1236.34 8.90873 -1.62657 0
M  V30 84312 P 1234.47 8.03563 -3.84925 0
M  V30 84313 O 1234.25 8.85821 -5.0569 0
M  V30 84314 O 1233.68 8.41101 -2.65469 0
M  V30 84315 O 1234.22 6.49734 -4.18962 0
M  V30 84316 C 1235.16 5.81037 -5.05421 0
M  V30 84317 C 1234.43 4.79018 -5.88876 0
M  V30 84318 O 1234.22 3.58359 -5.08515 0
M  V30 84319 C 1233.03 5.17448 -6.36119 0
M  V30 84320 O 1232.64 4.45322 -7.53318 0
M  V30 84321 C 1232.15 4.74639 -5.19936 0
M  V30 84322 C 1232.86 3.49432 -4.70418 0
M  V30 84323 N 1232.81 3.31776 -3.22945 0
M  V30 84324 C 1232.66 2.02742 -2.72939 0
M  V30 84325 O 1232.57 1.08301 -3.52749 0
M  V30 84326 N 1232.61 1.96117 -1.22063 0
M  V30 84327 C 1232.71 2.8878 -0.551566 0
M  V30 84328 N 1232.66 2.65609 0.750198 0
M  V30 84329 C 1232.86 4.22457 -1.03707 0
M  V30 84330 C 1232.91 4.37979 -2.39113 0
M  V30 84331 H 1235.65 6.54138 -5.7131 0
M  V30 84332 H 1235.92 5.30492 -4.44033 0
M  V30 84333 H 1235.06 4.55945 -6.76735 0
M  V30 84334 H 1232.4 2.6176 -5.18021 0
M  V30 84335 H 1232.12 5.52233 -4.41941 0
M  V30 84336 H 1231.13 4.52045 -5.53452 0
M  V30 84337 H 1232.96 6.25124 -6.55234 0
M  V30 84338 H 1233.04 5.37936 -2.80552 0
M  V30 84339 H 1232.93 5.07528 -0.359553 0
M  V30 84340 H 1232.55 1.69403 1.09847 0
M  V30 84341 H 1232.74 3.43701 1.41792 0
M  V30 84342 P 1231.09 4.23843 -7.83734 0
M  V30 84343 O 1230.87 4.19407 -9.29784 0
M  V30 84344 O 1230.3 5.24426 -7.09156 0
M  V30 84345 O 1230.84 2.7935 -7.20758 0
M  V30 84346 C 1231.78 1.72945 -7.50224 0
M  V30 84347 C 1231.05 0.406376 -7.57911 0
M  V30 84348 O 1230.84 -0.0897726 -6.21935 0
M  V30 84349 C 1229.65 0.438983 -8.18724 0
M  V30 84350 O 1229.26 -0.825065 -8.71101 0
M  V30 84351 C 1228.77 0.783689 -6.99524 0
M  V30 84352 C 1229.48 0.0619086 -5.85867 0
M  V30 84353 N 1229.43 0.78573 -4.56183 0
M  V30 84354 C 1229.28 0.0292889 -3.41887 0
M  V30 84355 O 1229.19 -1.18445 -3.4419 0
M  V30 84356 N 1229.24 0.744061 -2.23964 0
M  V30 84357 C 1229.33 2.10932 -2.10362 0
M  V30 84358 C 1229.48 2.8202 -3.34994 0
M  V30 84359 C 1229.53 2.15547 -4.52261 0
M  V30 84360 H 1232.27 1.93379 -8.46595 0
M  V30 84361 H 1232.54 1.68132 -6.70852 0
M  V30 84362 H 1231.68 -0.289041 -8.15388 0
M  V30 84363 H 1229.02 -0.926847 -5.72749 0
M  V30 84364 H 1228.74 1.86973 -6.82036 0
M  V30 84365 H 1227.75 0.403896 -7.13257 0
M  V30 84366 H 1229.58 1.20585 -8.97435 0
M  V30 84367 H 1229.65 2.71231 -5.45042 0
M  V30 84368 P 1227.71 -1.17771 -8.83182 0
M  V30 84369 O 1227.49 -2.07206 -9.98732 0
M  V30 84370 O 1226.92 0.0743816 -8.81969 0
M  V30 84371 O 1227.46 -1.97652 -7.47304 0
M  V30 84372 C 1228.4 -3.01133 -7.08783 0
M  V30 84373 C 1227.67 -4.12613 -6.37049 0
M  V30 84374 O 1227.46 -3.72827 -4.97879 0
M  V30 84375 C 1226.27 -4.45085 -6.88694 0
M  V30 84376 O 1225.88 -5.7877 -6.5624 0
M  V30 84377 C 1225.39 -3.47817 -6.12078 0
M  V30 84378 C 1226.1 -3.39414 -4.77697 0
M  V30 84379 N 1226.05 -2.04615 -4.15333 0
M  V30 84380 C 1226.13 -0.803897 -4.75249 0
M  V30 84381 N 1226.05 0.197615 -3.91502 0
M  V30 84382 C 1225.91 -0.413002 -2.66823 0
M  V30 84383 C 1225.78 0.157221 -1.38007 0
M  V30 84384 N 1225.66 -0.833136 -0.390236 0
M  V30 84385 C 1225.66 -2.19402 -0.623885 0
M  V30 84386 N 1225.53 -2.97622 0.449677 0
M  V30 84387 N 1225.79 -2.73005 -1.83601 0
M  V30 84388 C 1225.91 -1.78786 -2.80935 0
M  V30 84389 H 1228.89 -3.41248 -7.98759 0
M  V30 84390 H 1229.16 -2.5837 -6.41742 0
M  V30 84391 H 1228.3 -5.02657 -6.42673 0
M  V30 84392 P 1224.33 -6.144 -6.45285 0
M  V30 84393 O 1224.11 -7.54673 -6.86199 0
M  V30 84394 O 1223.54 -5.12391 -7.179 0
M  V30 84395 O 1224.08 -5.99158 -4.88404 0
M  V30 84396 C 1225.02 -6.60234 -3.96415 0
M  V30 84397 C 1224.29 -7.08259 -2.72856 0
M  V30 84398 O 1224.08 -5.9427 -1.83651 0
M  V30 84399 C 1222.89 -7.64886 -2.9555 0
M  V30 84400 O 1222.5 -8.53963 -1.90717 0
M  V30 84401 C 1222.01 -6.4116 -2.90739 0
M  V30 84402 C 1222.72 -5.55375 -1.86963 0
M  V30 84403 N 1222.67 -4.09664 -2.15742 0
M  V30 84404 H 1225.51 -7.45574 -4.45629 0
M  V30 84405 H 1225.78 -5.86232 -3.67314 0
M  V30 84406 H 1224.92 -7.84412 -2.24479 0
M  V30 84407 P 1220.95 -8.7635 -1.60911 0
M  V30 84408 O 1220.73 -10.1388 -1.11561 0
M  V30 84409 O 1220.16 -8.36503 -2.79617 0
M  V30 84410 O 1220.7 -7.71806 -0.42951 0
M  V30 84411 C 1221.64 -7.67148 0.673689 0
M  V30 84412 C 1220.91 -7.33374 1.95559 0
M  V30 84413 O 1220.7 -5.88721 2.00726 0
M  V30 84414 C 1219.51 -7.92526 2.10483 0
M  V30 84415 O 1219.12 -8.02971 3.47653 0
M  V30 84416 C 1218.63 -6.89602 1.41652 0
M  V30 84417 C 1219.34 -5.59201 1.75185 0
M  V30 84418 N 1219.29 -4.58235 0.662552 0
M  V30 84419 H 1222.13 -8.65116 0.777161 0
M  V30 84420 H 1222.4 -6.90173 0.474152 0
M  V30 84421 H 1221.54 -7.66548 2.79458 0
M  V30 84422 P 1217.57 -8.03563 3.84925 0
M  V30 84423 O 1217.35 -8.85821 5.0569 0
M  V30 84424 O 1216.78 -8.41101 2.65469 0
M  V30 84425 O 1217.32 -6.4965 4.18908 0
M  V30 84426 C 1218.26 -5.80886 5.05289 0
M  V30 84427 C 1217.53 -4.78366 5.89277 0
M  V30 84428 O 1217.32 -3.58302 5.08433 0
M  V30 84429 C 1216.13 -5.16748 6.36559 0
M  V30 84430 O 1215.74 -4.45271 7.53232 0
M  V30 84431 C 1215.25 -4.74572 5.19863 0
M  V30 84432 C 1215.96 -3.49373 4.70338 0
M  V30 84433 N 1215.91 -3.31704 3.22876 0
M  V30 84434 C 1215.76 -2.03326 2.74871 0
M  V30 84435 O 1215.67 -1.06486 3.48076 0
M  V30 84436 N 1215.72 -1.91838 1.37456 0
M  V30 84437 C 1215.81 -2.94295 0.462035 0
M  V30 84438 C 1215.96 -4.25064 1.05249 0
M  V30 84439 C 1216.01 -4.40214 2.39192 0
M  V30 84440 H 1218.75 -6.54063 5.71245 0
M  V30 84441 H 1219.02 -5.30339 4.43905 0
M  V30 84442 H 1218.16 -4.55889 6.76652 0
M  V30 84443 H 1215.5 -2.6167 5.17842 0
M  V30 84444 H 1215.22 -5.52155 4.41878 0
M  V30 84445 H 1214.23 -4.51918 5.53297 0
M  V30 84446 H 1216.06 -6.25055 6.55162 0
M  V30 84447 H 1216.13 -5.39798 2.81523 0
M  V30 84448 P 1214.19 -4.23843 7.83734 0
M  V30 84449 O 1213.97 -4.19407 9.29784 0
M  V30 84450 O 1213.4 -5.24426 7.09156 0
M  V30 84451 O 1213.94 -2.7935 7.20758 0
M  V30 84452 C 1214.88 -1.7299 7.50419 0
M  V30 84453 C 1214.15 -0.406376 7.57911 0
M  V30 84454 O 1213.94 0.0897726 6.21935 0
M  V30 84455 C 1212.75 -0.447224 8.1878 0
M  V30 84456 O 1212.36 0.825065 8.71101 0
M  V30 84457 C 1211.87 -0.783801 6.99623 0
M  V30 84458 C 1212.58 -0.0619192 5.85967 0
M  V30 84459 N 1212.53 -0.7859 4.56281 0
M  V30 84460 H 1215.37 -1.93423 8.4679 0
M  V30 84461 H 1215.64 -1.68181 6.71046 0
M  V30 84462 H 1214.78 0.289041 8.15388 0
M  V30 84463 P 1210.81 1.17771 8.83182 0
M  V30 84464 O 1210.59 2.07206 9.98732 0
M  V30 84465 O 1210.02 -0.0743816 8.81969 0
M  V30 84466 O 1210.56 1.97652 7.47304 0
M  V30 84467 C 1211.5 3.01133 7.08783 0
M  V30 84468 C 1210.77 4.12613 6.37049 0
M  V30 84469 O 1210.56 3.72827 4.97879 0
M  V30 84470 C 1209.37 4.45085 6.88694 0
M  V30 84471 O 1208.98 5.7877 6.5624 0
M  V30 84472 C 1208.49 3.47817 6.12078 0
M  V30 84473 C 1209.2 3.39414 4.77697 0
M  V30 84474 N 1209.15 2.04199 4.15538 0
M  V30 84475 H 1211.99 3.41248 7.98759 0
M  V30 84476 H 1212.26 2.57728 6.42 0
M  V30 84477 H 1211.4 5.02657 6.42673 0
M  V30 84478 H 1208.74 4.11708 4.08956 0
M  V30 84479 H 1208.46 2.49626 6.61679 0
M  V30 84480 H 1207.47 3.8662 6.00862 0
M  V30 84481 H 1209.3 4.29991 7.97006 0
M  V30 84482 P 1207.43 6.144 6.45285 0
M  V30 84483 O 1207.21 7.54673 6.86199 0
M  V30 84484 O 1206.64 5.12391 7.179 0
M  V30 84485 O 1207.18 5.99158 4.88404 0
M  V30 84486 C 1208.12 6.60234 3.96415 0
M  V30 84487 C 1207.39 7.08259 2.72856 0
M  V30 84488 O 1207.18 5.9427 1.83651 0
M  V30 84489 C 1205.99 7.64886 2.9555 0
M  V30 84490 O 1205.6 8.53963 1.90717 0
M  V30 84491 C 1205.11 6.4116 2.90739 0
M  V30 84492 C 1205.82 5.55375 1.86963 0
M  V30 84493 N 1205.77 4.09448 2.16152 0
M  V30 84494 H 1208.61 7.45574 4.45629 0
M  V30 84495 H 1208.88 5.85864 3.679 0
M  V30 84496 H 1208.02 7.84412 2.24479 0
M  V30 84497 H 1205.36 5.73457 0.888562 0
M  V30 84498 H 1205.08 5.90877 3.88583 0
M  V30 84499 H 1204.09 6.6596 2.58858 0
M  V30 84500 H 1205.92 8.16339 3.92049 0
M  V30 84501 P 1204.05 8.7635 1.60911 0
M  V30 84502 O 1203.83 10.1388 1.11561 0
M  V30 84503 O 1203.26 8.36503 2.79617 0
M  V30 84504 O 1203.8 7.71806 0.42951 0
M  V30 84505 C 1204.74 7.67148 -0.673689 0
M  V30 84506 C 1204.01 7.33374 -1.95559 0
M  V30 84507 O 1203.8 5.88721 -2.00726 0
M  V30 84508 C 1202.61 7.92526 -2.10483 0
M  V30 84509 O 1202.22 8.02971 -3.47653 0
M  V30 84510 C 1201.73 6.89602 -1.41652 0
M  V30 84511 C 1202.44 5.59201 -1.75185 0
M  V30 84512 N 1202.39 4.58235 -0.662552 0
M  V30 84513 H 1205.23 8.65116 -0.777161 0
M  V30 84514 H 1205.5 6.90173 -0.474152 0
M  V30 84515 H 1204.64 7.66548 -2.79458 0
M  V30 84516 P 1200.67 8.03563 -3.84925 0
M  V30 84517 O 1200.45 8.85821 -5.0569 0
M  V30 84518 O 1199.88 8.41101 -2.65469 0
M  V30 84519 O 1200.42 6.4965 -4.18908 0
M  V30 84520 C 1201.36 5.81037 -5.05421 0
M  V30 84521 C 1200.63 4.78366 -5.89277 0
M  V30 84522 O 1200.42 3.58302 -5.08433 0
M  V30 84523 C 1199.23 5.17448 -6.36119 0
M  V30 84524 O 1198.84 4.45271 -7.53232 0
M  V30 84525 C 1198.35 4.74639 -5.19936 0
M  V30 84526 C 1199.06 3.49432 -4.70418 0
M  V30 84527 N 1199.01 3.32099 -3.22613 0
M  V30 84528 H 1201.85 6.54213 -5.71376 0
M  V30 84529 H 1202.12 5.30936 -4.43503 0
M  V30 84530 H 1201.26 4.55889 -6.76652 0
M  V30 84531 H 1198.6 2.61715 -5.17932 0
M  V30 84532 H 1198.32 5.52155 -4.41878 0
M  V30 84533 H 1197.33 4.51981 -5.53374 0
M  V30 84534 H 1199.16 6.25124 -6.55234 0
M  V30 84535 P 1197.29 4.23843 -7.83734 0
M  V30 84536 O 1197.07 4.19407 -9.29784 0
M  V30 84537 O 1196.5 5.24426 -7.09156 0
M  V30 84538 O 1197.04 2.7935 -7.20758 0
M  V30 84539 C 1197.98 1.7299 -7.50419 0
M  V30 84540 C 1197.25 0.406376 -7.57911 0
M  V30 84541 O 1197.04 -0.0897726 -6.21935 0
M  V30 84542 C 1195.85 0.447224 -8.1878 0
M  V30 84543 O 1195.46 -0.825065 -8.71101 0
M  V30 84544 C 1194.97 0.783801 -6.99623 0
M  V30 84545 C 1195.68 0.0619192 -5.85967 0
M  V30 84546 N 1195.63 0.790462 -4.56202 0
M  V30 84547 H 1198.47 1.93423 -8.4679 0
M  V30 84548 H 1198.74 1.68852 -6.70877 0
M  V30 84549 H 1197.88 -0.289041 -8.15388 0
M  V30 84550 H 1195.22 -0.927006 -5.72848 0
M  V30 84551 H 1194.94 1.86973 -6.82036 0
M  V30 84552 H 1193.95 0.403953 -7.13357 0
M  V30 84553 H 1195.78 1.20599 -8.97534 0
M  V30 84554 P 1193.91 -1.17771 -8.83182 0
M  V30 84555 O 1193.69 -2.07206 -9.98732 0
M  V30 84556 O 1193.12 0.0743816 -8.81969 0
M  V30 84557 O 1193.66 -1.97652 -7.47304 0
M  V30 84558 C 1194.6 -3.01133 -7.08783 0
M  V30 84559 C 1193.87 -4.12613 -6.37049 0
M  V30 84560 O 1193.66 -3.72827 -4.97879 0
M  V30 84561 C 1192.47 -4.45085 -6.88694 0
M  V30 84562 O 1192.08 -5.7877 -6.5624 0
M  V30 84563 C 1191.59 -3.47817 -6.12078 0
M  V30 84564 C 1192.3 -3.39414 -4.77697 0
M  V30 84565 N 1192.25 -2.04615 -4.15333 0
M  V30 84566 H 1195.09 -3.41248 -7.98759 0
M  V30 84567 H 1195.36 -2.5837 -6.41742 0
M  V30 84568 H 1194.5 -5.02657 -6.42673 0
M  V30 84569 P 1190.53 -6.144 -6.45285 0
M  V30 84570 O 1190.31 -7.54673 -6.86199 0
M  V30 84571 O 1189.74 -5.12391 -7.179 0
M  V30 84572 O 1190.28 -5.99158 -4.88404 0
M  V30 84573 C 1191.22 -6.60234 -3.96415 0
M  V30 84574 C 1190.49 -7.08259 -2.72856 0
M  V30 84575 O 1190.28 -5.9427 -1.83651 0
M  V30 84576 C 1189.09 -7.64886 -2.9555 0
M  V30 84577 O 1188.7 -8.53963 -1.90717 0
M  V30 84578 C 1188.21 -6.4116 -2.90739 0
M  V30 84579 C 1188.92 -5.55375 -1.86963 0
M  V30 84580 N 1188.87 -4.09664 -2.15742 0
M  V30 84581 H 1191.71 -7.45574 -4.45629 0
M  V30 84582 H 1191.98 -5.86232 -3.67314 0
M  V30 84583 H 1191.12 -7.84412 -2.24479 0
M  V30 84584 P 1187.15 -8.7635 -1.60911 0
M  V30 84585 O 1186.93 -10.1388 -1.11561 0
M  V30 84586 O 1186.36 -8.36503 -2.79617 0
M  V30 84587 O 1186.9 -7.71806 -0.42951 0
M  V30 84588 C 1187.84 -7.66948 0.673514 0
M  V30 84589 C 1187.11 -7.33374 1.95559 0
M  V30 84590 O 1186.9 -5.88721 2.00726 0
M  V30 84591 C 1185.71 -7.92218 2.1125 0
M  V30 84592 O 1185.32 -8.02971 3.47653 0
M  V30 84593 C 1184.83 -6.89504 1.41631 0
M  V30 84594 C 1185.54 -5.59106 1.75155 0
M  V30 84595 N 1185.49 -4.58136 0.662409 0
M  V30 84596 C 1185.34 -3.26059 1.02863 0
M  V30 84597 O 1185.25 -2.90743 2.19009 0
M  V30 84598 N 1185.3 -2.35995 -0.0155585 0
M  V30 84599 C 1185.39 -2.65248 -1.35603 0
M  V30 84600 O 1185.34 -1.75605 -2.20651 0
M  V30 84601 C 1185.54 -4.05747 -1.64698 0
M  V30 84602 C 1185.65 -4.42345 -3.09553 0
M  V30 84603 C 1185.59 -4.96734 -0.652411 0
M  V30 84604 H 1188.33 -8.64917 0.776982 0
M  V30 84605 H 1188.6 -6.89974 0.474015 0
M  V30 84606 H 1187.74 -7.66548 2.79458 0
M  V30 84607 H 1185.08 -5.16076 2.65138 0
M  V30 84608 H 1184.8 -7.06433 0.329384 0
M  V30 84609 H 1183.81 -6.90829 1.81996 0
M  V30 84610 H 1185.64 -8.90774 1.62639 0
M  V30 84611 H 1185.72 -6.02181 -0.895285 0
M  V30 84612 H 1184.69 -4.80252 -3.45468 0
M  V30 84613 H 1186.42 -5.20015 -3.22119 0
M  V30 84614 H 1185.93 -3.53269 -3.67833 0
M  V30 84615 H 1185.2 -1.39558 0.227499 0
M  V30 84616 P 1183.77 -8.03563 3.84925 0
M  V30 84617 O 1183.55 -8.85821 5.0569 0
M  V30 84618 O 1182.98 -8.41101 2.65469 0
M  V30 84619 O 1183.52 -6.4965 4.18908 0
M  V30 84620 C 1184.46 -5.80886 5.05289 0
M  V30 84621 C 1183.73 -4.78366 5.89277 0
M  V30 84622 O 1183.52 -3.58302 5.08433 0
M  V30 84623 C 1182.33 -5.16748 6.36559 0
M  V30 84624 O 1181.94 -4.45271 7.53232 0
M  V30 84625 C 1181.45 -4.74572 5.19863 0
M  V30 84626 C 1182.16 -3.49373 4.70338 0
M  V30 84627 N 1182.11 -3.31704 3.22876 0
M  V30 84628 C 1181.96 -2.03326 2.74871 0
M  V30 84629 O 1181.87 -1.06486 3.48076 0
M  V30 84630 N 1181.92 -1.91838 1.37456 0
M  V30 84631 C 1182.01 -2.94295 0.462035 0
M  V30 84632 O 1181.96 -2.71763 -0.752928 0
M  V30 84633 C 1182.16 -4.25064 1.05249 0
M  V30 84634 C 1182.27 -5.39815 0.095697 0
M  V30 84635 C 1182.21 -4.40214 2.39192 0
M  V30 84636 H 1184.95 -6.54063 5.71245 0
M  V30 84637 H 1185.22 -5.30339 4.43905 0
M  V30 84638 H 1184.36 -4.55889 6.76652 0
M  V30 84639 H 1181.7 -2.6167 5.17842 0
M  V30 84640 H 1181.42 -5.52155 4.41878 0
M  V30 84641 H 1180.43 -4.51918 5.53297 0
M  V30 84642 H 1182.26 -6.25055 6.55162 0
M  V30 84643 H 1182.34 -5.39798 2.81523 0
M  V30 84644 H 1181.31 -5.91593 0.0279582 0
M  V30 84645 H 1183.04 -6.10038 0.450573 0
M  V30 84646 H 1182.55 -5.02007 -0.89937 0
M  V30 84647 H 1181.82 -0.995326 1.00435 0
M  V30 84648 P 1180.39 -4.23843 7.83734 0
M  V30 84649 O 1180.17 -4.19407 9.29784 0
M  V30 84650 O 1179.6 -5.24426 7.09156 0
M  V30 84651 O 1180.14 -2.7935 7.20758 0
M  V30 84652 C 1181.08 -1.7299 7.50419 0
M  V30 84653 C 1180.35 -0.406376 7.57911 0
M  V30 84654 O 1180.14 0.0897726 6.21935 0
M  V30 84655 C 1178.95 -0.447224 8.1878 0
M  V30 84656 O 1178.56 0.825065 8.71101 0
M  V30 84657 C 1178.07 -0.783801 6.99623 0
M  V30 84658 C 1178.78 -0.0619192 5.85967 0
M  V30 84659 N 1178.73 -0.790462 4.56202 0
M  V30 84660 H 1181.57 -1.93423 8.4679 0
M  V30 84661 H 1181.84 -1.68852 6.70877 0
M  V30 84662 H 1180.98 0.289041 8.15388 0
M  V30 84663 H 1178.32 0.927006 5.72848 0
M  V30 84664 H 1178.04 -1.86973 6.82036 0
M  V30 84665 H 1177.05 -0.403953 7.13357 0
M  V30 84666 H 1178.88 -1.20599 8.97534 0
M  V30 84667 P 1177.01 1.17771 8.83182 0
M  V30 84668 O 1176.79 2.07206 9.98732 0
M  V30 84669 O 1176.22 -0.0743816 8.81969 0
M  V30 84670 O 1176.76 1.97652 7.47304 0
M  V30 84671 C 1177.7 3.01133 7.08783 0
M  V30 84672 C 1176.97 4.12613 6.37049 0
M  V30 84673 O 1176.76 3.72827 4.97879 0
M  V30 84674 C 1175.57 4.45085 6.88694 0
M  V30 84675 O 1175.18 5.7877 6.5624 0
M  V30 84676 C 1174.69 3.47817 6.12078 0
M  V30 84677 C 1175.4 3.39414 4.77697 0
M  V30 84678 N 1175.35 2.04199 4.15538 0
M  V30 84679 H 1178.19 3.41248 7.98759 0
M  V30 84680 H 1178.46 2.57728 6.42 0
M  V30 84681 H 1177.6 5.02657 6.42673 0
M  V30 84682 H 1174.94 4.11708 4.08956 0
M  V30 84683 H 1174.66 2.49626 6.61679 0
M  V30 84684 H 1173.67 3.8662 6.00862 0
M  V30 84685 H 1175.5 4.29991 7.97006 0
M  V30 84686 P 1173.63 6.144 6.45285 0
M  V30 84687 O 1173.41 7.54673 6.86199 0
M  V30 84688 O 1172.84 5.12391 7.179 0
M  V30 84689 O 1173.38 5.99158 4.88404 0
M  V30 84690 C 1174.32 6.60062 3.96313 0
M  V30 84691 C 1173.59 7.08259 2.72856 0
M  V30 84692 O 1173.38 5.9427 1.83651 0
M  V30 84693 C 1172.19 7.65087 2.94749 0
M  V30 84694 O 1171.8 8.53963 1.90717 0
M  V30 84695 C 1171.31 6.41069 2.90698 0
M  V30 84696 C 1172.02 5.5528 1.86931 0
M  V30 84697 N 1171.97 4.09575 2.15696 0
M  V30 84698 C 1171.82 3.24249 1.08435 0
M  V30 84699 O 1171.73 3.63946 -0.0628747 0
M  V30 84700 N 1171.78 1.90009 1.39973 0
M  V30 84701 C 1171.87 1.34884 2.65614 0
M  V30 84702 O 1171.82 0.123716 2.81728 0
M  V30 84703 C 1172.02 2.3145 3.71736 0
M  V30 84704 C 1172.13 1.75913 5.10438 0
M  V30 84705 C 1172.07 3.63518 3.44754 0
M  V30 84706 H 1174.81 7.45402 4.45526 0
M  V30 84707 H 1175.08 5.86062 3.67208 0
M  V30 84708 H 1174.22 7.84412 2.24479 0
M  V30 84709 H 1171.56 5.73358 0.888409 0
M  V30 84710 H 1171.28 5.90877 3.88583 0
M  V30 84711 H 1170.29 6.65867 2.58821 0
M  V30 84712 H 1172.12 8.16248 3.92006 0
M  V30 84713 H 1172.2 4.34551 4.26383 0
M  V30 84714 H 1171.17 1.85471 5.61775 0
M  V30 84715 H 1172.9 2.31364 5.66257 0
M  V30 84716 H 1172.41 0.695936 5.05229 0
M  V30 84717 H 1171.68 1.26277 0.63625 0
M  V30 84718 P 1170.25 8.7635 1.60911 0
M  V30 84719 O 1170.03 10.1388 1.11561 0
M  V30 84720 O 1169.46 8.36503 2.79617 0
M  V30 84721 O 1170 7.71806 0.42951 0
M  V30 84722 C 1170.94 7.67148 -0.673689 0
M  V30 84723 C 1170.21 7.33374 -1.95559 0
M  V30 84724 O 1170 5.88721 -2.00726 0
M  V30 84725 C 1168.81 7.92526 -2.10483 0
M  V30 84726 O 1168.42 8.02971 -3.47653 0
M  V30 84727 C 1167.93 6.89602 -1.41652 0
M  V30 84728 C 1168.64 5.59201 -1.75185 0
M  V30 84729 N 1168.59 4.58235 -0.662552 0
M  V30 84730 H 1171.43 8.65116 -0.777161 0
M  V30 84731 H 1171.7 6.90173 -0.474152 0
M  V30 84732 H 1170.84 7.66548 -2.79458 0
M  V30 84733 P 1166.87 8.03563 -3.84925 0
M  V30 84734 O 1166.65 8.85821 -5.0569 0
M  V30 84735 O 1166.08 8.41101 -2.65469 0
M  V30 84736 O 1166.62 6.4965 -4.18908 0
M  V30 84737 C 1167.56 5.81037 -5.05421 0
M  V30 84738 C 1166.83 4.78366 -5.89277 0
M  V30 84739 O 1166.62 3.58302 -5.08433 0
M  V30 84740 C 1165.43 5.17448 -6.36119 0
M  V30 84741 O 1165.04 4.45271 -7.53232 0
M  V30 84742 C 1164.55 4.74639 -5.19936 0
M  V30 84743 C 1165.26 3.49432 -4.70418 0
M  V30 84744 N 1165.21 3.31776 -3.22945 0
M  V30 84745 H 1168.05 6.54213 -5.71376 0
M  V30 84746 H 1168.32 5.30492 -4.44033 0
M  V30 84747 H 1167.46 4.55889 -6.76652 0
M  V30 84748 P 1163.49 4.23843 -7.83734 0
M  V30 84749 O 1163.27 4.19407 -9.29784 0
M  V30 84750 O 1162.7 5.24426 -7.09156 0
M  V30 84751 O 1163.24 2.7935 -7.20758 0
M  V30 84752 C 1164.18 1.7299 -7.50419 0
M  V30 84753 C 1163.45 0.406376 -7.57911 0
M  V30 84754 O 1163.24 -0.0897726 -6.21935 0
M  V30 84755 C 1162.05 0.447224 -8.1878 0
M  V30 84756 O 1161.66 -0.825065 -8.71101 0
M  V30 84757 C 1161.17 0.783801 -6.99623 0
M  V30 84758 C 1161.88 0.0619192 -5.85967 0
M  V30 84759 N 1161.83 0.7859 -4.56281 0
M  V30 84760 H 1164.67 1.93423 -8.4679 0
M  V30 84761 H 1164.94 1.68181 -6.71046 0
M  V30 84762 H 1164.08 -0.289041 -8.15388 0
M  V30 84763 P 1160.11 -1.17771 -8.83182 0
M  V30 84764 O 1159.89 -2.07206 -9.98732 0
M  V30 84765 O 1159.32 0.0743816 -8.81969 0
M  V30 84766 O 1159.86 -1.97652 -7.47304 0
M  V30 84767 C 1160.8 -3.01133 -7.08783 0
M  V30 84768 C 1160.07 -4.12613 -6.37049 0
M  V30 84769 O 1159.86 -3.72827 -4.97879 0
M  V30 84770 C 1158.67 -4.45085 -6.88694 0
M  V30 84771 O 1158.28 -5.7877 -6.5624 0
M  V30 84772 C 1157.79 -3.47817 -6.12078 0
M  V30 84773 C 1158.5 -3.39414 -4.77697 0
M  V30 84774 N 1158.45 -2.04199 -4.15538 0
M  V30 84775 C 1158.53 -0.821545 -4.76977 0
M  V30 84776 N 1158.46 0.1794 -3.94592 0
M  V30 84777 C 1158.31 -0.419121 -2.70776 0
M  V30 84778 C 1158.18 0.109072 -1.40577 0
M  V30 84779 N 1158.17 1.4104 -1.1344 0
M  V30 84780 N 1158.06 -0.764381 -0.39411 0
M  V30 84781 C 1158.07 -2.06587 -0.664135 0
M  V30 84782 N 1158.19 -2.67948 -1.82153 0
M  V30 84783 C 1158.31 -1.77942 -2.8147 0
M  V30 84784 H 1161.29 -3.41248 -7.98759 0
M  V30 84785 H 1161.56 -2.57728 -6.42 0
M  V30 84786 H 1160.7 -5.02657 -6.42673 0
M  V30 84787 H 1158.04 -4.11708 -4.08956 0
M  V30 84788 H 1157.76 -2.49626 -6.61679 0
M  V30 84789 H 1156.77 -3.8662 -6.00862 0
M  V30 84790 H 1158.6 -4.29991 -7.97006 0
M  V30 84791 H 1158.65 -0.702451 -5.84696 0
M  V30 84792 H 1158.26 2.09647 -1.89651 0
M  V30 84793 H 1158.08 1.73358 -0.160575 0
M  V30 84794 H 1157.97 -2.71695 0.195838 0
M  V30 84795 P 1156.73 -6.144 -6.45285 0
M  V30 84796 O 1156.51 -7.54673 -6.86199 0
M  V30 84797 O 1155.94 -5.12391 -7.179 0
M  V30 84798 O 1156.48 -5.99236 -4.88467 0
M  V30 84799 C 1157.42 -6.60234 -3.96415 0
M  V30 84800 C 1156.69 -7.08079 -2.736 0
M  V30 84801 O 1156.48 -5.94365 -1.8368 0
M  V30 84802 C 1155.29 -7.64886 -2.9555 0
M  V30 84803 O 1154.9 -8.5406 -1.90739 0
M  V30 84804 C 1154.41 -6.4116 -2.90739 0
M  V30 84805 C 1155.12 -5.55375 -1.86963 0
M  V30 84806 N 1155.07 -4.09664 -2.15742 0
M  V30 84807 C 1154.92 -3.22231 -1.08477 0
M  V30 84808 O 1154.83 -3.68951 0.0600489 0
M  V30 84809 N 1154.87 -1.76692 -1.48799 0
M  V30 84810 C 1154.97 -1.41695 -2.57602 0
M  V30 84811 N 1154.92 -0.107296 -2.75791 0
M  V30 84812 C 1155.12 -2.29178 -3.69733 0
M  V30 84813 C 1155.17 -3.62753 -3.42653 0
M  V30 84814 H 1157.91 -7.45488 -4.45578 0
M  V30 84815 H 1158.18 -5.86232 -3.67314 0
M  V30 84816 H 1157.32 -7.84508 -2.24507 0
M  V30 84817 H 1154.66 -5.73556 -0.888715 0
M  V30 84818 H 1154.38 -5.9096 -3.88638 0
M  V30 84819 H 1153.39 -6.66053 -2.58894 0
M  V30 84820 H 1155.22 -8.16339 -3.92049 0
M  V30 84821 H 1155.3 -4.33052 -4.24913 0
M  V30 84822 H 1155.19 -1.9103 -4.71577 0
M  V30 84823 H 1154.81 0.521221 -1.95056 0
M  V30 84824 H 1155 0.286429 -3.70695 0
M  V30 84825 P 1153.35 -8.7635 -1.60911 0
M  V30 84826 O 1153.13 -10.1388 -1.11561 0
M  V30 84827 O 1152.56 -8.36503 -2.79617 0
M  V30 84828 O 1153.1 -7.71806 -0.42951 0
M  V30 84829 C 1154.04 -7.67148 0.673689 0
M  V30 84830 C 1153.31 -7.33374 1.95559 0
M  V30 84831 O 1153.1 -5.88721 2.00726 0
M  V30 84832 C 1151.91 -7.92526 2.10483 0
M  V30 84833 O 1151.52 -8.02971 3.47653 0
M  V30 84834 C 1151.03 -6.89602 1.41652 0
M  V30 84835 C 1151.74 -5.59201 1.75185 0
M  V30 84836 N 1151.69 -4.58235 0.662552 0
M  V30 84837 H 1154.53 -8.65116 0.777161 0
M  V30 84838 H 1154.8 -6.90173 0.474152 0
M  V30 84839 H 1153.94 -7.66548 2.79458 0
M  V30 84840 P 1149.97 -8.03563 3.84925 0
M  V30 84841 O 1149.75 -8.85821 5.0569 0
M  V30 84842 O 1149.18 -8.41101 2.65469 0
M  V30 84843 O 1149.72 -6.4965 4.18908 0
M  V30 84844 C 1150.66 -5.81037 5.05421 0
M  V30 84845 C 1149.93 -4.78366 5.89277 0
M  V30 84846 O 1149.72 -3.58302 5.08433 0
M  V30 84847 C 1148.53 -5.17448 6.36119 0
M  V30 84848 O 1148.14 -4.45271 7.53232 0
M  V30 84849 C 1147.65 -4.74639 5.19936 0
M  V30 84850 C 1148.36 -3.49432 4.70418 0
M  V30 84851 N 1148.31 -3.32099 3.22613 0
M  V30 84852 H 1151.15 -6.54213 5.71376 0
M  V30 84853 H 1151.42 -5.30936 4.43503 0
M  V30 84854 H 1150.56 -4.55889 6.76652 0
M  V30 84855 H 1147.9 -2.61715 5.17932 0
M  V30 84856 H 1147.62 -5.52155 4.41878 0
M  V30 84857 H 1146.63 -4.51981 5.53374 0
M  V30 84858 H 1148.46 -6.25124 6.55234 0
M  V30 84859 P 1146.59 -4.23843 7.83734 0
M  V30 84860 O 1146.37 -4.19407 9.29784 0
M  V30 84861 O 1145.8 -5.24426 7.09156 0
M  V30 84862 O 1146.34 -2.7935 7.20758 0
M  V30 84863 C 1147.28 -1.7299 7.50419 0
M  V30 84864 C 1146.55 -0.406376 7.57911 0
M  V30 84865 O 1146.34 0.0897726 6.21935 0
M  V30 84866 C 1145.15 -0.447224 8.1878 0
M  V30 84867 O 1144.76 0.825065 8.71101 0
M  V30 84868 C 1144.27 -0.783801 6.99623 0
M  V30 84869 C 1144.98 -0.0619192 5.85967 0
M  V30 84870 N 1144.93 -0.7859 4.56281 0
M  V30 84871 H 1147.77 -1.93423 8.4679 0
M  V30 84872 H 1148.04 -1.68181 6.71046 0
M  V30 84873 H 1147.18 0.289041 8.15388 0
M  V30 84874 P 1143.21 1.17771 8.83182 0
M  V30 84875 O 1142.99 2.07206 9.98732 0
M  V30 84876 O 1142.42 -0.0743816 8.81969 0
M  V30 84877 O 1142.96 1.97652 7.47304 0
M  V30 84878 C 1143.9 3.01133 7.08783 0
M  V30 84879 C 1143.17 4.12613 6.37049 0
M  V30 84880 O 1142.96 3.72827 4.97879 0
M  V30 84881 C 1141.77 4.45085 6.88694 0
M  V30 84882 O 1141.38 5.7877 6.5624 0
M  V30 84883 C 1140.89 3.47817 6.12078 0
M  V30 84884 C 1141.6 3.39414 4.77697 0
M  V30 84885 N 1141.55 2.04615 4.15333 0
M  V30 84886 C 1141.63 0.803897 4.75249 0
M  V30 84887 N 1141.55 -0.197615 3.91502 0
M  V30 84888 C 1141.41 0.413002 2.66823 0
M  V30 84889 C 1141.28 -0.157221 1.38007 0
M  V30 84890 N 1141.16 0.833136 0.390236 0
M  V30 84891 C 1141.16 2.19402 0.623885 0
M  V30 84892 N 1141.03 2.97622 -0.449677 0
M  V30 84893 N 1141.29 2.73005 1.83601 0
M  V30 84894 C 1141.41 1.78786 2.80935 0
M  V30 84895 H 1144.39 3.41248 7.98759 0
M  V30 84896 H 1144.66 2.5837 6.41742 0
M  V30 84897 H 1143.8 5.02657 6.42673 0
M  V30 84898 P 1139.83 6.144 6.45285 0
M  V30 84899 O 1139.61 7.54673 6.86199 0
M  V30 84900 O 1139.04 5.12391 7.179 0
M  V30 84901 O 1139.58 5.99158 4.88404 0
M  V30 84902 C 1140.52 6.60234 3.96415 0
M  V30 84903 C 1139.79 7.08259 2.72856 0
M  V30 84904 O 1139.58 5.9427 1.83651 0
M  V30 84905 C 1138.39 7.64886 2.9555 0
M  V30 84906 O 1138 8.53963 1.90717 0
M  V30 84907 C 1137.51 6.4116 2.90739 0
M  V30 84908 C 1138.22 5.55375 1.86963 0
M  V30 84909 N 1138.17 4.09664 2.15742 0
M  V30 84910 H 1141.01 7.45574 4.45629 0
M  V30 84911 H 1141.28 5.86232 3.67314 0
M  V30 84912 H 1140.42 7.84412 2.24479 0
M  V30 84913 P 1136.45 8.7635 1.60911 0
M  V30 84914 O 1136.23 10.1388 1.11561 0
M  V30 84915 O 1135.66 8.36503 2.79617 0
M  V30 84916 O 1136.2 7.71806 0.42951 0
M  V30 84917 C 1137.14 7.67148 -0.673689 0
M  V30 84918 C 1136.41 7.33374 -1.95559 0
M  V30 84919 O 1136.2 5.88721 -2.00726 0
M  V30 84920 C 1135.01 7.92526 -2.10483 0
M  V30 84921 O 1134.62 8.02971 -3.47653 0
M  V30 84922 C 1134.13 6.89602 -1.41652 0
M  V30 84923 C 1134.84 5.59201 -1.75185 0
M  V30 84924 N 1134.79 4.58235 -0.662552 0
M  V30 84925 H 1137.63 8.65116 -0.777161 0
M  V30 84926 H 1137.9 6.90173 -0.474152 0
M  V30 84927 H 1137.04 7.66548 -2.79458 0
M  V30 84928 P 1133.07 8.03563 -3.84925 0
M  V30 84929 O 1132.85 8.85821 -5.0569 0
M  V30 84930 O 1132.28 8.41101 -2.65469 0
M  V30 84931 O 1132.82 6.4965 -4.18908 0
M  V30 84932 C 1133.76 5.81037 -5.05421 0
M  V30 84933 C 1133.03 4.78366 -5.89277 0
M  V30 84934 O 1132.82 3.58302 -5.08433 0
M  V30 84935 C 1131.63 5.17448 -6.36119 0
M  V30 84936 O 1131.24 4.45271 -7.53232 0
M  V30 84937 C 1130.75 4.74639 -5.19936 0
M  V30 84938 C 1131.46 3.49432 -4.70418 0
M  V30 84939 N 1131.41 3.31776 -3.22945 0
M  V30 84940 H 1134.25 6.54213 -5.71376 0
M  V30 84941 H 1134.52 5.30492 -4.44033 0
M  V30 84942 H 1133.66 4.55889 -6.76652 0
M  V30 84943 P 1129.69 4.23843 -7.83734 0
M  V30 84944 O 1129.47 4.19407 -9.29784 0
M  V30 84945 O 1128.9 5.24426 -7.09156 0
M  V30 84946 O 1129.44 2.7935 -7.20758 0
M  V30 84947 C 1130.38 1.7299 -7.50419 0
M  V30 84948 C 1129.65 0.406376 -7.57911 0
M  V30 84949 O 1129.44 -0.0897726 -6.21935 0
M  V30 84950 C 1128.25 0.447224 -8.1878 0
M  V30 84951 O 1127.86 -0.825065 -8.71101 0
M  V30 84952 C 1127.37 0.783801 -6.99623 0
M  V30 84953 C 1128.08 0.0619192 -5.85967 0
M  V30 84954 N 1128.03 0.7859 -4.56281 0
M  V30 84955 H 1130.87 1.93423 -8.4679 0
M  V30 84956 H 1131.14 1.68181 -6.71046 0
M  V30 84957 H 1130.28 -0.289041 -8.15388 0
M  V30 84958 P 1126.31 -1.17771 -8.83182 0
M  V30 84959 O 1126.09 -2.07206 -9.98732 0
M  V30 84960 O 1125.52 0.0743816 -8.81969 0
M  V30 84961 O 1126.06 -1.97652 -7.47304 0
M  V30 84962 C 1127 -3.01133 -7.08783 0
M  V30 84963 C 1126.27 -4.12613 -6.37049 0
M  V30 84964 O 1126.06 -3.72827 -4.97879 0
M  V30 84965 C 1124.87 -4.45085 -6.88694 0
M  V30 84966 O 1124.48 -5.7877 -6.5624 0
M  V30 84967 C 1123.99 -3.47817 -6.12078 0
M  V30 84968 C 1124.7 -3.39414 -4.77697 0
M  V30 84969 N 1124.65 -2.04615 -4.15333 0
M  V30 84970 H 1127.49 -3.41248 -7.98759 0
M  V30 84971 H 1127.76 -2.5837 -6.41742 0
M  V30 84972 H 1126.9 -5.02657 -6.42673 0
M  V30 84973 P 1122.93 -6.144 -6.45285 0
M  V30 84974 O 1122.71 -7.54673 -6.86199 0
M  V30 84975 O 1122.14 -5.12391 -7.179 0
M  V30 84976 O 1122.68 -5.99158 -4.88404 0
M  V30 84977 C 1123.62 -6.60234 -3.96415 0
M  V30 84978 C 1122.89 -7.08259 -2.72856 0
M  V30 84979 O 1122.68 -5.9427 -1.83651 0
M  V30 84980 C 1121.49 -7.64886 -2.9555 0
M  V30 84981 O 1121.1 -8.53963 -1.90717 0
M  V30 84982 C 1120.61 -6.4116 -2.90739 0
M  V30 84983 C 1121.32 -5.55375 -1.86963 0
M  V30 84984 N 1121.27 -4.09664 -2.15742 0
M  V30 84985 H 1124.11 -7.45574 -4.45629 0
M  V30 84986 H 1124.38 -5.86232 -3.67314 0
M  V30 84987 H 1123.52 -7.84412 -2.24479 0
M  V30 84988 P 1119.55 -8.7635 -1.60911 0
M  V30 84989 O 1119.33 -10.1388 -1.11561 0
M  V30 84990 O 1118.76 -8.36503 -2.79617 0
M  V30 84991 O 1119.3 -7.71806 -0.42951 0
M  V30 84992 C 1120.24 -7.67148 0.673689 0
M  V30 84993 C 1119.51 -7.33374 1.95559 0
M  V30 84994 O 1119.3 -5.88721 2.00726 0
M  V30 84995 C 1118.11 -7.92526 2.10483 0
M  V30 84996 O 1117.72 -8.02971 3.47653 0
M  V30 84997 C 1117.23 -6.89602 1.41652 0
M  V30 84998 C 1117.94 -5.59201 1.75185 0
M  V30 84999 N 1117.89 -4.58301 0.657969 0
M  V30 85000 H 1120.73 -8.65116 0.777161 0
M  V30 85001 H 1121 -6.9022 0.46725 0
M  V30 85002 H 1120.14 -7.66548 2.79458 0
M  V30 85003 H 1117.48 -5.16165 2.65183 0
M  V30 85004 H 1117.2 -7.06433 0.329384 0
M  V30 85005 H 1116.21 -6.90926 1.82021 0
M  V30 85006 H 1118.04 -8.90873 1.62657 0
M  V30 85007 P 1116.17 -8.03563 3.84925 0
M  V30 85008 O 1115.95 -8.85821 5.0569 0
M  V30 85009 O 1115.38 -8.41101 2.65469 0
M  V30 85010 O 1115.92 -6.4965 4.18908 0
M  V30 85011 C 1116.86 -5.81037 5.05421 0
M  V30 85012 C 1116.13 -4.78366 5.89277 0
M  V30 85013 O 1115.92 -3.58302 5.08433 0
M  V30 85014 C 1114.73 -5.17448 6.36119 0
M  V30 85015 O 1114.34 -4.45271 7.53232 0
M  V30 85016 C 1113.85 -4.74639 5.19936 0
M  V30 85017 C 1114.56 -3.49432 4.70418 0
M  V30 85018 N 1114.51 -3.31776 3.22945 0
M  V30 85019 H 1117.35 -6.54213 5.71376 0
M  V30 85020 H 1117.62 -5.30492 4.44033 0
M  V30 85021 H 1116.76 -4.55889 6.76652 0
M  V30 85022 P 1112.79 -4.23843 7.83734 0
M  V30 85023 O 1112.57 -4.19407 9.29784 0
M  V30 85024 O 1112 -5.24426 7.09156 0
M  V30 85025 O 1112.54 -2.7935 7.20758 0
M  V30 85026 C 1113.48 -1.7299 7.50419 0
M  V30 85027 C 1112.75 -0.406376 7.57911 0
M  V30 85028 O 1112.54 0.0897726 6.21935 0
M  V30 85029 C 1111.35 -0.447224 8.1878 0
M  V30 85030 O 1110.96 0.825065 8.71101 0
M  V30 85031 C 1110.47 -0.783801 6.99623 0
M  V30 85032 C 1111.18 -0.0619192 5.85967 0
M  V30 85033 N 1111.13 -0.790462 4.56202 0
M  V30 85034 H 1113.97 -1.93423 8.4679 0
M  V30 85035 H 1114.24 -1.68852 6.70877 0
M  V30 85036 H 1113.38 0.289041 8.15388 0
M  V30 85037 H 1110.72 0.927006 5.72848 0
M  V30 85038 H 1110.44 -1.86973 6.82036 0
M  V30 85039 H 1109.45 -0.403953 7.13357 0
M  V30 85040 H 1111.28 -1.20599 8.97534 0
M  V30 85041 P 1109.41 1.17771 8.83182 0
M  V30 85042 O 1109.19 2.07206 9.98732 0
M  V30 85043 O 1108.62 -0.0743816 8.81969 0
M  V30 85044 O 1109.16 1.97652 7.47304 0
M  V30 85045 C 1110.1 3.01133 7.08783 0
M  V30 85046 C 1109.37 4.12613 6.37049 0
M  V30 85047 O 1109.16 3.72827 4.97879 0
M  V30 85048 C 1107.97 4.45085 6.88694 0
M  V30 85049 O 1107.58 5.7877 6.5624 0
M  V30 85050 C 1107.09 3.47817 6.12078 0
M  V30 85051 C 1107.8 3.39414 4.77697 0
M  V30 85052 N 1107.75 2.04615 4.15333 0
M  V30 85053 H 1110.59 3.41248 7.98759 0
M  V30 85054 H 1110.86 2.5837 6.41742 0
M  V30 85055 H 1110 5.02657 6.42673 0
M  V30 85056 P 1106.03 6.144 6.45285 0
M  V30 85057 O 1105.81 7.54673 6.86199 0
M  V30 85058 O 1105.24 5.12391 7.179 0
M  V30 85059 O 1105.78 5.99236 4.88467 0
M  V30 85060 C 1106.72 6.60234 3.96415 0
M  V30 85061 C 1105.99 7.08079 2.736 0
M  V30 85062 O 1105.78 5.94365 1.8368 0
M  V30 85063 C 1104.59 7.64886 2.9555 0
M  V30 85064 O 1104.2 8.5406 1.90739 0
M  V30 85065 C 1103.71 6.4116 2.90739 0
M  V30 85066 C 1104.42 5.55375 1.86963 0
M  V30 85067 N 1104.37 4.09664 2.15742 0
M  V30 85068 C 1104.22 3.22231 1.08477 0
M  V30 85069 O 1104.13 3.68951 -0.0600489 0
M  V30 85070 N 1104.17 1.76692 1.48799 0
M  V30 85071 C 1104.27 1.41695 2.57602 0
M  V30 85072 N 1104.22 0.107296 2.75791 0
M  V30 85073 C 1104.42 2.29178 3.69733 0
M  V30 85074 C 1104.47 3.62753 3.42653 0
M  V30 85075 H 1107.21 7.45488 4.45578 0
M  V30 85076 H 1107.48 5.86232 3.67314 0
M  V30 85077 H 1106.62 7.84508 2.24507 0
M  V30 85078 H 1103.96 5.73556 0.888715 0
M  V30 85079 H 1103.68 5.9096 3.88638 0
M  V30 85080 H 1102.69 6.66053 2.58894 0
M  V30 85081 H 1104.52 8.16339 3.92049 0
M  V30 85082 H 1104.6 4.33052 4.24913 0
M  V30 85083 H 1104.49 1.9103 4.71577 0
M  V30 85084 H 1104.11 -0.521221 1.95056 0
M  V30 85085 H 1104.3 -0.286429 3.70695 0
M  V30 85086 P 1102.65 8.7635 1.60911 0
M  V30 85087 O 1102.43 10.1388 1.11561 0
M  V30 85088 O 1101.86 8.36503 2.79617 0
M  V30 85089 O 1102.4 7.71806 0.42951 0
M  V30 85090 C 1103.34 7.67148 -0.673689 0
M  V30 85091 C 1102.61 7.33374 -1.95559 0
M  V30 85092 O 1102.4 5.88721 -2.00726 0
M  V30 85093 C 1101.21 7.92526 -2.10483 0
M  V30 85094 O 1100.82 8.02971 -3.47653 0
M  V30 85095 C 1100.33 6.89602 -1.41652 0
M  V30 85096 C 1101.04 5.59201 -1.75185 0
M  V30 85097 N 1100.99 4.58301 -0.657969 0
M  V30 85098 C 1101.07 4.79019 0.692603 0
M  V30 85099 N 1101 3.69736 1.38998 0
M  V30 85100 C 1100.85 2.70474 0.438135 0
M  V30 85101 C 1100.72 1.30327 0.538142 0
M  V30 85102 N 1100.71 0.64304 1.69192 0
M  V30 85103 N 1100.6 0.611027 -0.605183 0
M  V30 85104 C 1100.61 1.27002 -1.75953 0
M  V30 85105 N 1100.73 2.56038 -1.98546 0
M  V30 85106 C 1100.85 3.22681 -0.822541 0
M  V30 85107 H 1103.83 8.65116 -0.777161 0
M  V30 85108 H 1104.1 6.9022 -0.46725 0
M  V30 85109 H 1103.24 7.66548 -2.79458 0
M  V30 85110 H 1100.58 5.16165 -2.65183 0
M  V30 85111 H 1100.3 7.06433 -0.329384 0
M  V30 85112 H 1099.31 6.90926 -1.82021 0
M  V30 85113 H 1101.14 8.90873 -1.62657 0
M  V30 85114 H 1101.19 5.77785 1.13874 0
M  V30 85115 H 1100.8 1.15585 2.57991 0
M  V30 85116 H 1100.62 -0.382989 1.69835 0
M  V30 85117 H 1100.51 0.653331 -2.64449 0
M  V30 85118 P 1099.27 8.03563 -3.84925 0
M  V30 85119 O 1099.05 8.85821 -5.0569 0
M  V30 85120 O 1098.48 8.41101 -2.65469 0
M  V30 85121 O 1099.02 6.4965 -4.18908 0
M  V30 85122 C 1099.96 5.81037 -5.05421 0
M  V30 85123 C 1099.23 4.78366 -5.89277 0
M  V30 85124 O 1099.02 3.58302 -5.08433 0
M  V30 85125 C 1097.83 5.17448 -6.36119 0
M  V30 85126 O 1097.44 4.45271 -7.53232 0
M  V30 85127 C 1096.95 4.74639 -5.19936 0
M  V30 85128 C 1097.66 3.49432 -4.70418 0
M  V30 85129 N 1097.61 3.31776 -3.22945 0
M  V30 85130 H 1100.45 6.54213 -5.71376 0
M  V30 85131 H 1100.72 5.30492 -4.44033 0
M  V30 85132 H 1099.86 4.55889 -6.76652 0
M  V30 85133 P 1095.89 4.23843 -7.83734 0
M  V30 85134 O 1095.67 4.19407 -9.29784 0
M  V30 85135 O 1095.1 5.24426 -7.09156 0
M  V30 85136 O 1095.64 2.7935 -7.20758 0
M  V30 85137 C 1096.58 1.7299 -7.50419 0
M  V30 85138 C 1095.85 0.406376 -7.57911 0
M  V30 85139 O 1095.64 -0.0897726 -6.21935 0
M  V30 85140 C 1094.45 0.447224 -8.1878 0
M  V30 85141 O 1094.06 -0.825065 -8.71101 0
M  V30 85142 C 1093.57 0.783801 -6.99623 0
M  V30 85143 C 1094.28 0.0619192 -5.85967 0
M  V30 85144 N 1094.23 0.7859 -4.56281 0
M  V30 85145 H 1097.07 1.93423 -8.4679 0
M  V30 85146 H 1097.34 1.68181 -6.71046 0
M  V30 85147 H 1096.48 -0.289041 -8.15388 0
M  V30 85148 P 1092.51 -1.17771 -8.83182 0
M  V30 85149 O 1092.29 -2.07206 -9.98732 0
M  V30 85150 O 1091.72 0.0743816 -8.81969 0
M  V30 85151 O 1092.26 -1.97652 -7.47304 0
M  V30 85152 C 1093.2 -3.01133 -7.08783 0
M  V30 85153 C 1092.47 -4.12613 -6.37049 0
M  V30 85154 O 1092.26 -3.72827 -4.97879 0
M  V30 85155 C 1091.07 -4.45085 -6.88694 0
M  V30 85156 O 1090.68 -5.7877 -6.5624 0
M  V30 85157 C 1090.19 -3.47817 -6.12078 0
M  V30 85158 C 1090.9 -3.39414 -4.77697 0
M  V30 85159 N 1090.85 -2.04615 -4.15333 0
M  V30 85160 H 1093.69 -3.41248 -7.98759 0
M  V30 85161 H 1093.96 -2.5837 -6.41742 0
M  V30 85162 H 1093.1 -5.02657 -6.42673 0
M  V30 85163 P 1089.13 -6.144 -6.45285 0
M  V30 85164 O 1088.91 -7.54673 -6.86199 0
M  V30 85165 O 1088.34 -5.12391 -7.179 0
M  V30 85166 O 1088.88 -5.99158 -4.88404 0
M  V30 85167 C 1089.82 -6.60234 -3.96415 0
M  V30 85168 C 1089.09 -7.08259 -2.72856 0
M  V30 85169 O 1088.88 -5.9427 -1.83651 0
M  V30 85170 C 1087.69 -7.64886 -2.9555 0
M  V30 85171 O 1087.3 -8.53963 -1.90717 0
M  V30 85172 C 1086.81 -6.4116 -2.90739 0
M  V30 85173 C 1087.52 -5.55375 -1.86963 0
M  V30 85174 N 1087.47 -4.09664 -2.15742 0
M  V30 85175 C 1087.55 -3.44381 -3.37233 0
M  V30 85176 N 1087.47 -2.14131 -3.28347 0
M  V30 85177 C 1087.33 -1.90247 -1.91588 0
M  V30 85178 C 1087.2 -0.683992 -1.20892 0
M  V30 85179 N 1087.08 -0.903396 0.173998 0
M  V30 85180 C 1087.08 -2.14171 0.784879 0
M  V30 85181 N 1086.95 -2.1435 2.11317 0
M  V30 85182 N 1087.21 -3.28784 0.119316 0
M  V30 85183 C 1087.33 -3.0977 -1.22194 0
M  V30 85184 H 1090.31 -7.45574 -4.45629 0
M  V30 85185 H 1090.58 -5.86232 -3.67314 0
M  V30 85186 H 1089.72 -7.84412 -2.24479 0
M  V30 85187 P 1085.75 -8.7635 -1.60911 0
M  V30 85188 O 1085.53 -10.1388 -1.11561 0
M  V30 85189 O 1084.96 -8.36503 -2.79617 0
M  V30 85190 O 1085.5 -7.71806 -0.42951 0
M  V30 85191 C 1086.44 -7.67148 0.673689 0
M  V30 85192 C 1085.71 -7.33374 1.95559 0
M  V30 85193 O 1085.5 -5.88721 2.00726 0
M  V30 85194 C 1084.31 -7.92526 2.10483 0
M  V30 85195 O 1083.92 -8.02971 3.47653 0
M  V30 85196 C 1083.43 -6.89602 1.41652 0
M  V30 85197 C 1084.14 -5.59201 1.75185 0
M  V30 85198 N 1084.09 -4.58235 0.662552 0
M  V30 85199 H 1086.93 -8.65116 0.777161 0
M  V30 85200 H 1087.2 -6.90173 0.474152 0
M  V30 85201 H 1086.34 -7.66548 2.79458 0
M  V30 85202 P 1082.37 -8.03563 3.84925 0
M  V30 85203 O 1082.15 -8.85821 5.0569 0
M  V30 85204 O 1081.58 -8.41101 2.65469 0
M  V30 85205 O 1082.12 -6.4965 4.18908 0
M  V30 85206 C 1083.06 -5.80886 5.05289 0
M  V30 85207 C 1082.33 -4.78366 5.89277 0
M  V30 85208 O 1082.12 -3.58302 5.08433 0
M  V30 85209 C 1080.93 -5.16748 6.36559 0
M  V30 85210 O 1080.54 -4.45271 7.53232 0
M  V30 85211 C 1080.05 -4.74572 5.19863 0
M  V30 85212 C 1080.76 -3.49373 4.70338 0
M  V30 85213 N 1080.71 -3.31704 3.22876 0
M  V30 85214 C 1080.56 -2.03326 2.74871 0
M  V30 85215 O 1080.47 -1.06486 3.48076 0
M  V30 85216 N 1080.52 -1.91838 1.37456 0
M  V30 85217 C 1080.61 -2.94295 0.462035 0
M  V30 85218 O 1080.56 -2.71763 -0.752928 0
M  V30 85219 C 1080.76 -4.25064 1.05249 0
M  V30 85220 C 1080.87 -5.39815 0.095697 0
M  V30 85221 C 1080.81 -4.40214 2.39192 0
M  V30 85222 H 1083.55 -6.54063 5.71245 0
M  V30 85223 H 1083.82 -5.30339 4.43905 0
M  V30 85224 H 1082.96 -4.55889 6.76652 0
M  V30 85225 H 1080.3 -2.6167 5.17842 0
M  V30 85226 H 1080.02 -5.52155 4.41878 0
M  V30 85227 H 1079.03 -4.51918 5.53297 0
M  V30 85228 H 1080.86 -6.25055 6.55162 0
M  V30 85229 H 1080.94 -5.39798 2.81523 0
M  V30 85230 H 1079.91 -5.91593 0.0279582 0
M  V30 85231 H 1081.64 -6.10038 0.450573 0
M  V30 85232 H 1081.15 -5.02007 -0.89937 0
M  V30 85233 H 1080.42 -0.995326 1.00435 0
M  V30 85234 P 1078.99 -4.23843 7.83734 0
M  V30 85235 O 1078.77 -4.19407 9.29784 0
M  V30 85236 O 1078.2 -5.24426 7.09156 0
M  V30 85237 O 1078.74 -2.7935 7.20758 0
M  V30 85238 C 1079.68 -1.7299 7.50419 0
M  V30 85239 C 1078.95 -0.406376 7.57911 0
M  V30 85240 O 1078.74 0.0897726 6.21935 0
M  V30 85241 C 1077.55 -0.447224 8.1878 0
M  V30 85242 O 1077.16 0.825065 8.71101 0
M  V30 85243 C 1076.67 -0.783801 6.99623 0
M  V30 85244 C 1077.38 -0.0619192 5.85967 0
M  V30 85245 N 1077.33 -0.790462 4.56202 0
M  V30 85246 H 1080.17 -1.93423 8.4679 0
M  V30 85247 H 1080.44 -1.68852 6.70877 0
M  V30 85248 H 1079.58 0.289041 8.15388 0
M  V30 85249 H 1076.92 0.927006 5.72848 0
M  V30 85250 H 1076.64 -1.86973 6.82036 0
M  V30 85251 H 1075.65 -0.403953 7.13357 0
M  V30 85252 H 1077.48 -1.20599 8.97534 0
M  V30 85253 P 1075.61 1.17771 8.83182 0
M  V30 85254 O 1075.39 2.07206 9.98732 0
M  V30 85255 O 1074.82 -0.0743816 8.81969 0
M  V30 85256 O 1075.36 1.97652 7.47304 0
M  V30 85257 C 1076.3 3.01133 7.08783 0
M  V30 85258 C 1075.57 4.12613 6.37049 0
M  V30 85259 O 1075.36 3.72827 4.97879 0
M  V30 85260 C 1074.17 4.45085 6.88694 0
M  V30 85261 O 1073.78 5.7877 6.5624 0
M  V30 85262 C 1073.29 3.47817 6.12078 0
M  V30 85263 C 1074 3.39414 4.77697 0
M  V30 85264 N 1073.95 2.04615 4.15333 0
M  V30 85265 H 1076.79 3.41248 7.98759 0
M  V30 85266 H 1077.06 2.5837 6.41742 0
M  V30 85267 H 1076.2 5.02657 6.42673 0
M  V30 85268 P 1072.23 6.144 6.45285 0
M  V30 85269 O 1072.01 7.54673 6.86199 0
M  V30 85270 O 1071.44 5.12391 7.179 0
M  V30 85271 O 1071.98 5.99158 4.88404 0
M  V30 85272 C 1072.92 6.60062 3.96313 0
M  V30 85273 C 1072.19 7.08259 2.72856 0
M  V30 85274 O 1071.98 5.9427 1.83651 0
M  V30 85275 C 1070.79 7.65087 2.94749 0
M  V30 85276 O 1070.4 8.53963 1.90717 0
M  V30 85277 C 1069.91 6.41069 2.90698 0
M  V30 85278 C 1070.62 5.5528 1.86931 0
M  V30 85279 N 1070.57 4.09575 2.15696 0
M  V30 85280 C 1070.42 3.24249 1.08435 0
M  V30 85281 O 1070.33 3.63946 -0.0628747 0
M  V30 85282 N 1070.38 1.90009 1.39973 0
M  V30 85283 C 1070.47 1.34884 2.65614 0
M  V30 85284 C 1070.62 2.3145 3.71736 0
M  V30 85285 C 1070.67 3.63518 3.44754 0
M  V30 85286 H 1073.41 7.45402 4.45526 0
M  V30 85287 H 1073.68 5.86062 3.67208 0
M  V30 85288 H 1072.82 7.84412 2.24479 0
M  V30 85289 H 1070.16 5.73358 0.888409 0
M  V30 85290 H 1069.88 5.90877 3.88583 0
M  V30 85291 H 1068.89 6.65867 2.58821 0
M  V30 85292 H 1070.72 8.16248 3.92006 0
M  V30 85293 H 1070.8 4.34551 4.26383 0
M  V30 85294 P 1068.85 8.7635 1.60911 0
M  V30 85295 O 1068.63 10.1388 1.11561 0
M  V30 85296 O 1068.06 8.36503 2.79617 0
M  V30 85297 O 1068.6 7.71806 0.42951 0
M  V30 85298 C 1069.54 7.67148 -0.673689 0
M  V30 85299 C 1068.81 7.33374 -1.95559 0
M  V30 85300 O 1068.6 5.88721 -2.00726 0
M  V30 85301 C 1067.41 7.92526 -2.10483 0
M  V30 85302 O 1067.02 8.02971 -3.47653 0
M  V30 85303 C 1066.53 6.89602 -1.41652 0
M  V30 85304 C 1067.24 5.59201 -1.75185 0
M  V30 85305 N 1067.19 4.58235 -0.662552 0
M  V30 85306 H 1070.03 8.65116 -0.777161 0
M  V30 85307 H 1070.3 6.90173 -0.474152 0
M  V30 85308 H 1069.44 7.66548 -2.79458 0
M  V30 85309 P 1065.47 8.03563 -3.84925 0
M  V30 85310 O 1065.25 8.85821 -5.0569 0
M  V30 85311 O 1064.68 8.41101 -2.65469 0
M  V30 85312 O 1065.22 6.4965 -4.18908 0
M  V30 85313 C 1066.16 5.81037 -5.05421 0
M  V30 85314 C 1065.43 4.78366 -5.89277 0
M  V30 85315 O 1065.22 3.58302 -5.08433 0
M  V30 85316 C 1064.03 5.17448 -6.36119 0
M  V30 85317 O 1063.64 4.45271 -7.53232 0
M  V30 85318 C 1063.15 4.74639 -5.19936 0
M  V30 85319 C 1063.86 3.49432 -4.70418 0
M  V30 85320 N 1063.81 3.31776 -3.22945 0
M  V30 85321 C 1063.89 4.27147 -2.23315 0
M  V30 85322 N 1063.81 3.78447 -1.02186 0
M  V30 85323 C 1063.67 2.41001 -1.21732 0
M  V30 85324 C 1063.54 1.36111 -0.27694 0
M  V30 85325 O 1063.52 1.42065 0.951767 0
M  V30 85326 N 1063.42 0.113683 -0.912949 0
M  V30 85327 C 1063.42 -0.0846396 -2.27943 0
M  V30 85328 N 1063.29 -1.34737 -2.6916 0
M  V30 85329 N 1063.55 0.902521 -3.16379 0
M  V30 85330 C 1063.67 2.11937 -2.56849 0
M  V30 85331 H 1066.65 6.54213 -5.71376 0
M  V30 85332 H 1066.92 5.30492 -4.44033 0
M  V30 85333 H 1066.06 4.55889 -6.76652 0
M  V30 85334 H 1063.4 2.6176 -5.18021 0
M  V30 85335 H 1063.12 5.52233 -4.41941 0
M  V30 85336 H 1062.13 4.52045 -5.53452 0
M  V30 85337 H 1063.96 6.25193 -6.55307 0
M  V30 85338 H 1064.01 5.3351 -2.43857 0
M  V30 85339 H 1063.33 -0.69331 -0.330371 0
M  V30 85340 H 1063.29 -1.56433 -3.6988 0
M  V30 85341 H 1063.19 -2.10701 -2.00133 0
M  V30 85342 P 1062.09 4.23843 -7.83734 0
M  V30 85343 O 1061.87 4.19407 -9.29784 0
M  V30 85344 O 1061.3 5.24426 -7.09156 0
M  V30 85345 O 1061.84 2.7935 -7.20758 0
M  V30 85346 C 1062.78 1.7299 -7.50419 0
M  V30 85347 C 1062.05 0.406376 -7.57911 0
M  V30 85348 O 1061.84 -0.0897726 -6.21935 0
M  V30 85349 C 1060.65 0.447224 -8.1878 0
M  V30 85350 O 1060.26 -0.825065 -8.71101 0
M  V30 85351 C 1059.77 0.783801 -6.99623 0
M  V30 85352 C 1060.48 0.0619192 -5.85967 0
M  V30 85353 N 1060.43 0.7859 -4.56281 0
M  V30 85354 H 1063.27 1.93423 -8.4679 0
M  V30 85355 H 1063.54 1.68181 -6.71046 0
M  V30 85356 H 1062.68 -0.289041 -8.15388 0
M  V30 85357 P 1058.71 -1.17771 -8.83182 0
M  V30 85358 O 1058.49 -2.07206 -9.98732 0
M  V30 85359 O 1057.92 0.0743816 -8.81969 0
M  V30 85360 O 1058.46 -1.97652 -7.47304 0
M  V30 85361 C 1059.4 -3.01055 -7.08599 0
M  V30 85362 C 1058.67 -4.12613 -6.37049 0
M  V30 85363 O 1058.46 -3.72827 -4.97879 0
M  V30 85364 C 1057.27 -4.45719 -6.88164 0
M  V30 85365 O 1056.88 -5.7877 -6.5624 0
M  V30 85366 C 1056.39 -3.47768 -6.11991 0
M  V30 85367 C 1057.1 -3.39356 -4.77615 0
M  V30 85368 N 1057.05 -2.04571 -4.15244 0
M  V30 85369 C 1056.9 -1.98587 -2.78314 0
M  V30 85370 O 1056.81 -2.98134 -2.08835 0
M  V30 85371 N 1056.86 -0.714467 -2.24925 0
M  V30 85372 C 1056.95 0.470001 -2.94169 0
M  V30 85373 O 1056.9 1.55587 -2.35195 0
M  V30 85374 C 1057.1 0.312541 -4.36783 0
M  V30 85375 C 1057.21 1.57711 -5.16352 0
M  V30 85376 C 1057.15 -0.914512 -4.92583 0
M  V30 85377 H 1059.89 -3.41169 -7.98575 0
M  V30 85378 H 1060.16 -2.58295 -6.41556 0
M  V30 85379 H 1059.3 -5.02657 -6.42673 0
M  V30 85380 H 1056.64 -4.11637 -4.08885 0
M  V30 85381 H 1056.36 -2.49626 -6.61679 0
M  V30 85382 H 1055.37 -3.86566 -6.00778 0
M  V30 85383 H 1057.2 -4.29943 -7.96918 0
M  V30 85384 H 1057.28 -1.00937 -6.00374 0
M  V30 85385 H 1056.25 1.80153 -5.63503 0
M  V30 85386 H 1057.98 1.4566 -5.94104 0
M  V30 85387 H 1057.49 2.40664 -4.49645 0
M  V30 85388 H 1056.76 -0.647622 -1.25697 0
M  V30 85389 P 1055.33 -6.144 -6.45285 0
M  V30 85390 O 1055.11 -7.54673 -6.86199 0
M  V30 85391 O 1054.54 -5.12391 -7.179 0
M  V30 85392 O 1055.08 -5.99158 -4.88404 0
M  V30 85393 C 1056.02 -6.60234 -3.96415 0
M  V30 85394 C 1055.29 -7.08259 -2.72856 0
M  V30 85395 O 1055.08 -5.9427 -1.83651 0
M  V30 85396 C 1053.89 -7.64886 -2.9555 0
M  V30 85397 O 1053.5 -8.53963 -1.90717 0
M  V30 85398 C 1053.01 -6.4116 -2.90739 0
M  V30 85399 C 1053.72 -5.55375 -1.86963 0
M  V30 85400 N 1053.67 -4.09664 -2.15742 0
M  V30 85401 H 1056.51 -7.45574 -4.45629 0
M  V30 85402 H 1056.78 -5.86232 -3.67314 0
M  V30 85403 H 1055.92 -7.84412 -2.24479 0
M  V30 85404 P 1051.95 -8.7635 -1.60911 0
M  V30 85405 O 1051.73 -10.1388 -1.11561 0
M  V30 85406 O 1051.16 -8.36503 -2.79617 0
M  V30 85407 O 1051.7 -7.71806 -0.42951 0
M  V30 85408 C 1052.64 -7.67148 0.673689 0
M  V30 85409 C 1051.91 -7.33374 1.95559 0
M  V30 85410 O 1051.7 -5.88721 2.00726 0
M  V30 85411 C 1050.51 -7.92526 2.10483 0
M  V30 85412 O 1050.12 -8.02971 3.47653 0
M  V30 85413 C 1049.63 -6.89602 1.41652 0
M  V30 85414 C 1050.34 -5.59201 1.75185 0
M  V30 85415 N 1050.29 -4.58301 0.657969 0
M  V30 85416 H 1053.13 -8.65116 0.777161 0
M  V30 85417 H 1053.4 -6.9022 0.46725 0
M  V30 85418 H 1052.54 -7.66548 2.79458 0
M  V30 85419 H 1049.88 -5.16165 2.65183 0
M  V30 85420 H 1049.6 -7.06433 0.329384 0
M  V30 85421 H 1048.61 -6.90926 1.82021 0
M  V30 85422 H 1050.44 -8.90873 1.62657 0
M  V30 85423 P 1048.57 -8.03563 3.84925 0
M  V30 85424 O 1048.35 -8.85821 5.0569 0
M  V30 85425 O 1047.78 -8.41101 2.65469 0
M  V30 85426 O 1048.32 -6.4965 4.18908 0
M  V30 85427 C 1049.26 -5.81037 5.05421 0
M  V30 85428 C 1048.53 -4.78366 5.89277 0
M  V30 85429 O 1048.32 -3.58302 5.08433 0
M  V30 85430 C 1047.13 -5.17448 6.36119 0
M  V30 85431 O 1046.74 -4.45271 7.53232 0
M  V30 85432 C 1046.25 -4.74639 5.19936 0
M  V30 85433 C 1046.96 -3.49432 4.70418 0
M  V30 85434 N 1046.91 -3.31776 3.22945 0
M  V30 85435 H 1049.75 -6.54213 5.71376 0
M  V30 85436 H 1050.02 -5.30492 4.44033 0
M  V30 85437 H 1049.16 -4.55889 6.76652 0
M  V30 85438 P 1045.19 -4.23843 7.83734 0
M  V30 85439 O 1044.97 -4.19407 9.29784 0
M  V30 85440 O 1044.4 -5.24426 7.09156 0
M  V30 85441 O 1044.94 -2.7935 7.20758 0
M  V30 85442 C 1045.88 -1.7299 7.50419 0
M  V30 85443 C 1045.15 -0.406376 7.57911 0
M  V30 85444 O 1044.94 0.0897726 6.21935 0
M  V30 85445 C 1043.75 -0.447224 8.1878 0
M  V30 85446 O 1043.36 0.825065 8.71101 0
M  V30 85447 C 1042.87 -0.783801 6.99623 0
M  V30 85448 C 1043.58 -0.0619192 5.85967 0
M  V30 85449 N 1043.53 -0.7859 4.56281 0
M  V30 85450 H 1046.37 -1.93423 8.4679 0
M  V30 85451 H 1046.64 -1.68181 6.71046 0
M  V30 85452 H 1045.78 0.289041 8.15388 0
M  V30 85453 P 1041.81 1.17771 8.83182 0
M  V30 85454 O 1041.59 2.07206 9.98732 0
M  V30 85455 O 1041.02 -0.0743816 8.81969 0
M  V30 85456 O 1041.56 1.97652 7.47304 0
M  V30 85457 C 1042.5 3.01133 7.08783 0
M  V30 85458 C 1041.77 4.12613 6.37049 0
M  V30 85459 O 1041.56 3.72827 4.97879 0
M  V30 85460 C 1040.37 4.45085 6.88694 0
M  V30 85461 O 1039.98 5.7877 6.5624 0
M  V30 85462 C 1039.49 3.47817 6.12078 0
M  V30 85463 C 1040.2 3.39414 4.77697 0
M  V30 85464 N 1040.15 2.04615 4.15333 0
M  V30 85465 H 1042.99 3.41248 7.98759 0
M  V30 85466 H 1043.26 2.5837 6.41742 0
M  V30 85467 H 1042.4 5.02657 6.42673 0
M  V30 85468 P 1038.43 6.144 6.45285 0
M  V30 85469 O 1038.21 7.54673 6.86199 0
M  V30 85470 O 1037.64 5.12391 7.179 0
M  V30 85471 O 1038.18 5.99158 4.88404 0
M  V30 85472 C 1039.12 6.60234 3.96415 0
M  V30 85473 C 1038.39 7.08259 2.72856 0
M  V30 85474 O 1038.18 5.9427 1.83651 0
M  V30 85475 C 1036.99 7.64886 2.9555 0
M  V30 85476 O 1036.6 8.53963 1.90717 0
M  V30 85477 C 1036.11 6.4116 2.90739 0
M  V30 85478 C 1036.82 5.55375 1.86963 0
M  V30 85479 N 1036.77 4.09448 2.16152 0
M  V30 85480 H 1039.61 7.45574 4.45629 0
M  V30 85481 H 1039.88 5.85864 3.679 0
M  V30 85482 H 1039.02 7.84412 2.24479 0
M  V30 85483 H 1036.36 5.73457 0.888562 0
M  V30 85484 H 1036.08 5.90877 3.88583 0
M  V30 85485 H 1035.09 6.6596 2.58858 0
M  V30 85486 H 1036.92 8.16339 3.92049 0
M  V30 85487 P 1035.05 8.7635 1.60911 0
M  V30 85488 O 1034.83 10.1388 1.11561 0
M  V30 85489 O 1034.26 8.36503 2.79617 0
M  V30 85490 O 1034.8 7.71806 0.42951 0
M  V30 85491 C 1035.74 7.67148 -0.673689 0
M  V30 85492 C 1035.01 7.33374 -1.95559 0
M  V30 85493 O 1034.8 5.88721 -2.00726 0
M  V30 85494 C 1033.61 7.92526 -2.10483 0
M  V30 85495 O 1033.22 8.02971 -3.47653 0
M  V30 85496 C 1032.73 6.89602 -1.41652 0
M  V30 85497 C 1033.44 5.59201 -1.75185 0
M  V30 85498 N 1033.39 4.58235 -0.662552 0
M  V30 85499 H 1036.23 8.65116 -0.777161 0
M  V30 85500 H 1036.5 6.90173 -0.474152 0
M  V30 85501 H 1035.64 7.66548 -2.79458 0
M  V30 85502 P 1031.67 8.03563 -3.84925 0
M  V30 85503 O 1031.45 8.85821 -5.0569 0
M  V30 85504 O 1030.88 8.41101 -2.65469 0
M  V30 85505 O 1031.42 6.4965 -4.18908 0
M  V30 85506 C 1032.36 5.81037 -5.05421 0
M  V30 85507 C 1031.63 4.78366 -5.89277 0
M  V30 85508 O 1031.42 3.58302 -5.08433 0
M  V30 85509 C 1030.23 5.17448 -6.36119 0
M  V30 85510 O 1029.84 4.45271 -7.53232 0
M  V30 85511 C 1029.35 4.74639 -5.19936 0
M  V30 85512 C 1030.06 3.49432 -4.70418 0
M  V30 85513 N 1030.01 3.32099 -3.22613 0
M  V30 85514 H 1032.85 6.54213 -5.71376 0
M  V30 85515 H 1033.12 5.30936 -4.43503 0
M  V30 85516 H 1032.26 4.55889 -6.76652 0
M  V30 85517 H 1029.6 2.61715 -5.17932 0
M  V30 85518 H 1029.32 5.52155 -4.41878 0
M  V30 85519 H 1028.33 4.51981 -5.53374 0
M  V30 85520 H 1030.16 6.25124 -6.55234 0
M  V30 85521 P 1028.29 4.23843 -7.83734 0
M  V30 85522 O 1028.07 4.19407 -9.29784 0
M  V30 85523 O 1027.5 5.24426 -7.09156 0
M  V30 85524 O 1028.04 2.7935 -7.20758 0
M  V30 85525 C 1028.98 1.72945 -7.50224 0
M  V30 85526 C 1028.25 0.406376 -7.57911 0
M  V30 85527 O 1028.04 -0.0897726 -6.21935 0
M  V30 85528 C 1026.85 0.438983 -8.18724 0
M  V30 85529 O 1026.46 -0.825065 -8.71101 0
M  V30 85530 C 1025.97 0.783689 -6.99524 0
M  V30 85531 C 1026.68 0.0619086 -5.85867 0
M  V30 85532 N 1026.63 0.78573 -4.56183 0
M  V30 85533 C 1026.48 0.0292889 -3.41887 0
M  V30 85534 O 1026.39 -1.18445 -3.4419 0
M  V30 85535 N 1026.44 0.744061 -2.23964 0
M  V30 85536 C 1026.53 2.10932 -2.10362 0
M  V30 85537 C 1026.68 2.8202 -3.34994 0
M  V30 85538 C 1026.73 2.15547 -4.52261 0
M  V30 85539 H 1029.47 1.93379 -8.46595 0
M  V30 85540 H 1029.74 1.68132 -6.70852 0
M  V30 85541 H 1028.88 -0.289041 -8.15388 0
M  V30 85542 H 1026.22 -0.926847 -5.72749 0
M  V30 85543 H 1025.94 1.86973 -6.82036 0
M  V30 85544 H 1024.95 0.403896 -7.13257 0
M  V30 85545 H 1026.78 1.20585 -8.97435 0
M  V30 85546 H 1026.86 2.71231 -5.45042 0
M  V30 85547 P 1024.91 -1.17771 -8.83182 0
M  V30 85548 O 1024.69 -2.07206 -9.98732 0
M  V30 85549 O 1024.12 0.0743816 -8.81969 0
M  V30 85550 O 1024.66 -1.97652 -7.47304 0
M  V30 85551 C 1025.6 -3.01133 -7.08783 0
M  V30 85552 C 1024.87 -4.12613 -6.37049 0
M  V30 85553 O 1024.66 -3.72827 -4.97879 0
M  V30 85554 C 1023.47 -4.45085 -6.88694 0
M  V30 85555 O 1023.08 -5.7877 -6.5624 0
M  V30 85556 C 1022.59 -3.47817 -6.12078 0
M  V30 85557 C 1023.3 -3.39414 -4.77697 0
M  V30 85558 N 1023.25 -2.04199 -4.15538 0
M  V30 85559 H 1026.09 -3.41248 -7.98759 0
M  V30 85560 H 1026.36 -2.57728 -6.42 0
M  V30 85561 H 1025.5 -5.02657 -6.42673 0
M  V30 85562 H 1022.84 -4.11708 -4.08956 0
M  V30 85563 H 1022.56 -2.49626 -6.61679 0
M  V30 85564 H 1021.57 -3.8662 -6.00862 0
M  V30 85565 H 1023.4 -4.29991 -7.97006 0
M  V30 85566 P 1021.53 -6.144 -6.45285 0
M  V30 85567 O 1021.31 -7.54673 -6.86199 0
M  V30 85568 O 1020.74 -5.12391 -7.179 0
M  V30 85569 O 1021.28 -5.99158 -4.88404 0
M  V30 85570 C 1022.22 -6.60062 -3.96313 0
M  V30 85571 C 1021.49 -7.08259 -2.72856 0
M  V30 85572 O 1021.28 -5.9427 -1.83651 0
M  V30 85573 C 1020.09 -7.65087 -2.94749 0
M  V30 85574 O 1019.7 -8.53963 -1.90717 0
M  V30 85575 C 1019.21 -6.41069 -2.90698 0
M  V30 85576 C 1019.92 -5.5528 -1.86931 0
M  V30 85577 N 1019.87 -4.09575 -2.15696 0
M  V30 85578 C 1019.72 -3.24249 -1.08435 0
M  V30 85579 O 1019.63 -3.63946 0.0628747 0
M  V30 85580 N 1019.68 -1.90009 -1.39973 0
M  V30 85581 C 1019.77 -1.34884 -2.65614 0
M  V30 85582 C 1019.92 -2.3145 -3.71736 0
M  V30 85583 C 1019.97 -3.63518 -3.44754 0
M  V30 85584 H 1022.71 -7.45402 -4.45526 0
M  V30 85585 H 1022.98 -5.86062 -3.67208 0
M  V30 85586 H 1022.12 -7.84412 -2.24479 0
M  V30 85587 H 1019.46 -5.73358 -0.888409 0
M  V30 85588 H 1019.18 -5.90877 -3.88583 0
M  V30 85589 H 1018.19 -6.65867 -2.58821 0
M  V30 85590 H 1020.02 -8.16248 -3.92006 0
M  V30 85591 H 1020.1 -4.34551 -4.26383 0
M  V30 85592 P 1018.15 -8.7635 -1.60911 0
M  V30 85593 O 1017.93 -10.1388 -1.11561 0
M  V30 85594 O 1017.36 -8.36503 -2.79617 0
M  V30 85595 O 1017.9 -7.71806 -0.42951 0
M  V30 85596 C 1018.84 -7.67148 0.673689 0
M  V30 85597 C 1018.11 -7.33374 1.95559 0
M  V30 85598 O 1017.9 -5.88721 2.00726 0
M  V30 85599 C 1016.71 -7.92526 2.10483 0
M  V30 85600 O 1016.32 -8.02971 3.47653 0
M  V30 85601 C 1015.83 -6.89602 1.41652 0
M  V30 85602 C 1016.54 -5.59201 1.75185 0
M  V30 85603 N 1016.49 -4.58235 0.662552 0
M  V30 85604 H 1019.33 -8.65116 0.777161 0
M  V30 85605 H 1019.61 -6.90173 0.474152 0
M  V30 85606 H 1018.74 -7.66548 2.79458 0
M  V30 85607 P 1014.77 -8.03563 3.84925 0
M  V30 85608 O 1014.55 -8.85821 5.0569 0
M  V30 85609 O 1013.98 -8.41101 2.65469 0
M  V30 85610 O 1014.52 -6.4965 4.18908 0
M  V30 85611 C 1015.46 -5.81037 5.05421 0
M  V30 85612 C 1014.73 -4.78366 5.89277 0
M  V30 85613 O 1014.52 -3.58302 5.08433 0
M  V30 85614 C 1013.33 -5.17448 6.36119 0
M  V30 85615 O 1012.94 -4.45271 7.53232 0
M  V30 85616 C 1012.45 -4.74639 5.19936 0
M  V30 85617 C 1013.16 -3.49432 4.70418 0
M  V30 85618 N 1013.11 -3.32099 3.22613 0
M  V30 85619 H 1015.95 -6.54213 5.71376 0
M  V30 85620 H 1016.23 -5.30936 4.43503 0
M  V30 85621 H 1015.36 -4.55889 6.76652 0
M  V30 85622 H 1012.7 -2.61715 5.17932 0
M  V30 85623 H 1012.42 -5.52155 4.41878 0
M  V30 85624 H 1011.43 -4.51981 5.53374 0
M  V30 85625 H 1013.27 -6.25124 6.55234 0
M  V30 85626 P 1011.39 -4.23843 7.83734 0
M  V30 85627 O 1011.17 -4.19407 9.29784 0
M  V30 85628 O 1010.6 -5.24426 7.09156 0
M  V30 85629 O 1011.14 -2.7935 7.20758 0
M  V30 85630 C 1012.08 -1.7299 7.50419 0
M  V30 85631 C 1011.35 -0.406376 7.57911 0
M  V30 85632 O 1011.14 0.0897726 6.21935 0
M  V30 85633 C 1009.95 -0.447224 8.1878 0
M  V30 85634 O 1009.56 0.825065 8.71101 0
M  V30 85635 C 1009.07 -0.783801 6.99623 0
M  V30 85636 C 1009.78 -0.0619192 5.85967 0
M  V30 85637 N 1009.73 -0.790462 4.56202 0
M  V30 85638 C 1009.81 -2.13895 4.34171 0
M  V30 85639 N 1009.74 -2.46449 3.08687 0
M  V30 85640 C 1009.59 -1.2525 2.43697 0
M  V30 85641 C 1009.46 -0.914535 1.07318 0
M  V30 85642 N 1009.45 -1.80782 0.0887348 0
M  V30 85643 N 1009.34 0.386745 0.768133 0
M  V30 85644 C 1009.35 1.28096 1.75159 0
M  V30 85645 N 1009.47 1.09708 3.04861 0
M  V30 85646 C 1009.59 -0.214857 3.32306 0
M  V30 85647 H 1012.57 -1.93423 8.4679 0
M  V30 85648 H 1012.85 -1.68852 6.70877 0
M  V30 85649 H 1011.98 0.289041 8.15388 0
M  V30 85650 H 1009.32 0.927006 5.72848 0
M  V30 85651 H 1009.04 -1.86973 6.82036 0
M  V30 85652 H 1008.05 -0.403953 7.13357 0
M  V30 85653 H 1009.89 -1.20599 8.97534 0
M  V30 85654 H 1009.93 -2.86846 5.14318 0
M  V30 85655 H 1009.55 -2.81082 0.302037 0
M  V30 85656 H 1009.36 -1.49688 -0.889064 0
M  V30 85657 H 1009.25 2.31317 1.43855 0
M  V30 85658 P 1008.01 1.17771 8.83182 0
M  V30 85659 O 1007.79 2.07206 9.98732 0
M  V30 85660 O 1007.22 -0.0743816 8.81969 0
M  V30 85661 O 1007.76 1.97652 7.47304 0
M  V30 85662 C 1008.7 3.01133 7.08783 0
M  V30 85663 C 1007.97 4.12613 6.37049 0
M  V30 85664 O 1007.76 3.72827 4.97879 0
M  V30 85665 C 1006.57 4.45085 6.88694 0
M  V30 85666 O 1006.18 5.7877 6.5624 0
M  V30 85667 C 1005.69 3.47817 6.12078 0
M  V30 85668 C 1006.4 3.39414 4.77697 0
M  V30 85669 N 1006.35 2.04199 4.15538 0
M  V30 85670 H 1009.19 3.41248 7.98759 0
M  V30 85671 H 1009.47 2.57728 6.42 0
M  V30 85672 H 1008.6 5.02657 6.42673 0
M  V30 85673 H 1005.94 4.11708 4.08956 0
M  V30 85674 H 1005.66 2.49626 6.61679 0
M  V30 85675 H 1004.67 3.8662 6.00862 0
M  V30 85676 H 1006.51 4.29991 7.97006 0
M  V30 85677 P 1004.63 6.144 6.45285 0
M  V30 85678 O 1004.41 7.54673 6.86199 0
M  V30 85679 O 1003.84 5.12391 7.179 0
M  V30 85680 O 1004.38 5.99158 4.88404 0
M  V30 85681 C 1005.32 6.60062 3.96313 0
M  V30 85682 C 1004.59 7.08259 2.72856 0
M  V30 85683 O 1004.38 5.9427 1.83651 0
M  V30 85684 C 1003.19 7.65087 2.94749 0
M  V30 85685 O 1002.8 8.53963 1.90717 0
M  V30 85686 C 1002.31 6.41069 2.90698 0
M  V30 85687 C 1003.02 5.5528 1.86931 0
M  V30 85688 N 1002.97 4.09575 2.15696 0
M  V30 85689 C 1002.82 3.24249 1.08435 0
M  V30 85690 O 1002.73 3.63946 -0.0628747 0
M  V30 85691 N 1002.78 1.90009 1.39973 0
M  V30 85692 C 1002.87 1.34884 2.65614 0
M  V30 85693 C 1003.02 2.3145 3.71736 0
M  V30 85694 C 1003.07 3.63518 3.44754 0
M  V30 85695 H 1005.82 7.45402 4.45526 0
M  V30 85696 H 1006.08 5.86062 3.67208 0
M  V30 85697 H 1005.22 7.84412 2.24479 0
M  V30 85698 H 1002.56 5.73358 0.888409 0
M  V30 85699 H 1002.28 5.90877 3.88583 0
M  V30 85700 H 1001.29 6.65867 2.58821 0
M  V30 85701 H 1003.13 8.16248 3.92006 0
M  V30 85702 H 1003.2 4.34551 4.26383 0
M  V30 85703 P 1001.25 8.7635 1.60911 0
M  V30 85704 O 1001.03 10.1388 1.11561 0
M  V30 85705 O 1000.46 8.36503 2.79617 0
M  V30 85706 O 1001 7.71806 0.42951 0
M  V30 85707 C 1001.94 7.67148 -0.673689 0
M  V30 85708 C 1001.21 7.33374 -1.95559 0
M  V30 85709 O 1001 5.88721 -2.00726 0
M  V30 85710 C 999.814 7.92526 -2.10483 0
M  V30 85711 O 999.424 8.02971 -3.47653 0
M  V30 85712 C 998.934 6.89602 -1.41652 0
M  V30 85713 C 999.644 5.59201 -1.75185 0
M  V30 85714 N 999.594 4.58301 -0.657969 0
M  V30 85715 H 1002.43 8.65116 -0.777161 0
M  V30 85716 H 1002.71 6.9022 -0.46725 0
M  V30 85717 H 1001.84 7.66548 -2.79458 0
M  V30 85718 H 999.182 5.16165 -2.65183 0
M  V30 85719 H 998.902 7.06433 -0.329384 0
M  V30 85720 H 997.911 6.90926 -1.82021 0
M  V30 85721 H 999.745 8.90873 -1.62657 0
M  V30 85722 P 997.874 8.03563 -3.84925 0
M  V30 85723 O 997.654 8.85821 -5.0569 0
M  V30 85724 O 997.084 8.41101 -2.65469 0
M  V30 85725 O 997.624 6.4965 -4.18908 0
M  V30 85726 C 998.564 5.81037 -5.05421 0
M  V30 85727 C 997.834 4.78366 -5.89277 0
M  V30 85728 O 997.624 3.58302 -5.08433 0
M  V30 85729 C 996.434 5.17448 -6.36119 0
M  V30 85730 O 996.044 4.45271 -7.53232 0
M  V30 85731 C 995.554 4.74639 -5.19936 0
M  V30 85732 C 996.264 3.49432 -4.70418 0
M  V30 85733 N 996.214 3.31776 -3.22945 0
M  V30 85734 H 999.053 6.54213 -5.71376 0
M  V30 85735 H 999.325 5.30492 -4.44033 0
M  V30 85736 H 998.457 4.55889 -6.76652 0
M  V30 85737 P 994.494 4.23843 -7.83734 0
M  V30 85738 O 994.274 4.19407 -9.29784 0
M  V30 85739 O 993.704 5.24426 -7.09156 0
M  V30 85740 O 994.244 2.7935 -7.20758 0
M  V30 85741 C 995.184 1.7299 -7.50419 0
M  V30 85742 C 994.454 0.406376 -7.57911 0
M  V30 85743 O 994.244 -0.0897726 -6.21935 0
M  V30 85744 C 993.054 0.447224 -8.1878 0
M  V30 85745 O 992.664 -0.825065 -8.71101 0
M  V30 85746 C 992.174 0.783801 -6.99623 0
M  V30 85747 C 992.884 0.0619192 -5.85967 0
M  V30 85748 N 992.834 0.7859 -4.56281 0
M  V30 85749 H 995.673 1.93423 -8.4679 0
M  V30 85750 H 995.945 1.68181 -6.71046 0
M  V30 85751 H 995.077 -0.289041 -8.15388 0
M  V30 85752 P 991.114 -1.17771 -8.83182 0
M  V30 85753 O 990.894 -2.07206 -9.98732 0
M  V30 85754 O 990.324 0.0743816 -8.81969 0
M  V30 85755 O 990.864 -1.97652 -7.47304 0
M  V30 85756 C 991.804 -3.01133 -7.08783 0
M  V30 85757 C 991.074 -4.12613 -6.37049 0
M  V30 85758 O 990.864 -3.72827 -4.97879 0
M  V30 85759 C 989.674 -4.45085 -6.88694 0
M  V30 85760 O 989.284 -5.7877 -6.5624 0
M  V30 85761 C 988.794 -3.47817 -6.12078 0
M  V30 85762 C 989.504 -3.39414 -4.77697 0
M  V30 85763 N 989.454 -2.04615 -4.15333 0
M  V30 85764 H 992.293 -3.41248 -7.98759 0
M  V30 85765 H 992.565 -2.5837 -6.41742 0
M  V30 85766 H 991.697 -5.02657 -6.42673 0
M  V30 85767 P 987.734 -6.144 -6.45285 0
M  V30 85768 O 987.514 -7.54673 -6.86199 0
M  V30 85769 O 986.944 -5.12391 -7.179 0
M  V30 85770 O 987.484 -5.99158 -4.88404 0
M  V30 85771 C 988.424 -6.60234 -3.96415 0
M  V30 85772 C 987.694 -7.08259 -2.72856 0
M  V30 85773 O 987.484 -5.9427 -1.83651 0
M  V30 85774 C 986.294 -7.64886 -2.9555 0
M  V30 85775 O 985.904 -8.53963 -1.90717 0
M  V30 85776 C 985.414 -6.4116 -2.90739 0
M  V30 85777 C 986.124 -5.55375 -1.86963 0
M  V30 85778 N 986.074 -4.09664 -2.15742 0
M  V30 85779 H 988.913 -7.45574 -4.45629 0
M  V30 85780 H 989.185 -5.86232 -3.67314 0
M  V30 85781 H 988.317 -7.84412 -2.24479 0
M  V30 85782 P 984.354 -8.7635 -1.60911 0
M  V30 85783 O 984.134 -10.1388 -1.11561 0
M  V30 85784 O 983.564 -8.36503 -2.79617 0
M  V30 85785 O 984.104 -7.71806 -0.42951 0
M  V30 85786 C 985.044 -7.67148 0.673689 0
M  V30 85787 C 984.314 -7.33374 1.95559 0
M  V30 85788 O 984.104 -5.88721 2.00726 0
M  V30 85789 C 982.914 -7.92526 2.10483 0
M  V30 85790 O 982.524 -8.02971 3.47653 0
M  V30 85791 C 982.034 -6.89602 1.41652 0
M  V30 85792 C 982.744 -5.59201 1.75185 0
M  V30 85793 N 982.694 -4.58235 0.662552 0
M  V30 85794 H 985.533 -8.65116 0.777161 0
M  V30 85795 H 985.805 -6.90173 0.474152 0
M  V30 85796 H 984.937 -7.66548 2.79458 0
M  V30 85797 P 980.974 -8.03563 3.84925 0
M  V30 85798 O 980.754 -8.85821 5.0569 0
M  V30 85799 O 980.184 -8.41101 2.65469 0
M  V30 85800 O 980.724 -6.4965 4.18908 0
M  V30 85801 C 981.664 -5.81037 5.05421 0
M  V30 85802 C 980.934 -4.78366 5.89277 0
M  V30 85803 O 980.724 -3.58302 5.08433 0
M  V30 85804 C 979.534 -5.17448 6.36119 0
M  V30 85805 O 979.144 -4.45271 7.53232 0
M  V30 85806 C 978.654 -4.74639 5.19936 0
M  V30 85807 C 979.364 -3.49432 4.70418 0
M  V30 85808 N 979.314 -3.31776 3.22945 0
M  V30 85809 H 982.153 -6.54213 5.71376 0
M  V30 85810 H 982.425 -5.30492 4.44033 0
M  V30 85811 H 981.557 -4.55889 6.76652 0
M  V30 85812 P 977.594 -4.23843 7.83734 0
M  V30 85813 O 977.374 -4.19407 9.29784 0
M  V30 85814 O 976.804 -5.24426 7.09156 0
M  V30 85815 O 977.344 -2.7935 7.20758 0
M  V30 85816 C 978.284 -1.7299 7.50419 0
M  V30 85817 C 977.554 -0.406376 7.57911 0
M  V30 85818 O 977.344 0.0897726 6.21935 0
M  V30 85819 C 976.154 -0.447224 8.1878 0
M  V30 85820 O 975.764 0.825065 8.71101 0
M  V30 85821 C 975.274 -0.783801 6.99623 0
M  V30 85822 C 975.984 -0.0619192 5.85967 0
M  V30 85823 N 975.934 -0.7859 4.56281 0
M  V30 85824 H 978.773 -1.93423 8.4679 0
M  V30 85825 H 979.045 -1.68181 6.71046 0
M  V30 85826 H 978.177 0.289041 8.15388 0
M  V30 85827 P 974.214 1.17771 8.83182 0
M  V30 85828 O 973.994 2.07206 9.98732 0
M  V30 85829 O 973.424 -0.0743816 8.81969 0
M  V30 85830 O 973.964 1.97652 7.47304 0
M  V30 85831 C 974.904 3.01133 7.08783 0
M  V30 85832 C 974.174 4.12613 6.37049 0
M  V30 85833 O 973.964 3.72827 4.97879 0
M  V30 85834 C 972.774 4.45085 6.88694 0
M  V30 85835 O 972.384 5.7877 6.5624 0
M  V30 85836 C 971.894 3.47817 6.12078 0
M  V30 85837 C 972.604 3.39414 4.77697 0
M  V30 85838 N 972.554 2.04615 4.15333 0
M  V30 85839 H 975.393 3.41248 7.98759 0
M  V30 85840 H 975.665 2.5837 6.41742 0
M  V30 85841 H 974.797 5.02657 6.42673 0
M  V30 85842 P 970.834 6.144 6.45285 0
M  V30 85843 O 970.614 7.54673 6.86199 0
M  V30 85844 O 970.044 5.12391 7.179 0
M  V30 85845 O 970.584 5.99158 4.88404 0
M  V30 85846 C 971.524 6.60234 3.96415 0
M  V30 85847 C 970.794 7.08259 2.72856 0
M  V30 85848 O 970.584 5.9427 1.83651 0
M  V30 85849 C 969.394 7.64886 2.9555 0
M  V30 85850 O 969.004 8.53963 1.90717 0
M  V30 85851 C 968.514 6.4116 2.90739 0
M  V30 85852 C 969.224 5.55375 1.86963 0
M  V30 85853 N 969.174 4.09664 2.15742 0
M  V30 85854 H 972.013 7.45574 4.45629 0
M  V30 85855 H 972.285 5.86232 3.67314 0
M  V30 85856 H 971.417 7.84412 2.24479 0
M  V30 85857 P 967.454 8.7635 1.60911 0
M  V30 85858 O 967.234 10.1388 1.11561 0
M  V30 85859 O 966.664 8.36503 2.79617 0
M  V30 85860 O 967.204 7.71806 0.42951 0
M  V30 85861 C 968.144 7.67148 -0.673689 0
M  V30 85862 C 967.414 7.33374 -1.95559 0
M  V30 85863 O 967.204 5.88721 -2.00726 0
M  V30 85864 C 966.014 7.92526 -2.10483 0
M  V30 85865 O 965.624 8.02971 -3.47653 0
M  V30 85866 C 965.134 6.89602 -1.41652 0
M  V30 85867 C 965.844 5.59201 -1.75185 0
M  V30 85868 N 965.794 4.58235 -0.662552 0
M  V30 85869 H 968.633 8.65116 -0.777161 0
M  V30 85870 H 968.905 6.90173 -0.474152 0
M  V30 85871 H 968.037 7.66548 -2.79458 0
M  V30 85872 P 964.074 8.03563 -3.84925 0
M  V30 85873 O 963.854 8.85821 -5.0569 0
M  V30 85874 O 963.284 8.41101 -2.65469 0
M  V30 85875 O 963.824 6.4965 -4.18908 0
M  V30 85876 C 964.764 5.80886 -5.05289 0
M  V30 85877 C 964.034 4.78366 -5.89277 0
M  V30 85878 O 963.824 3.58302 -5.08433 0
M  V30 85879 C 962.634 5.16748 -6.36559 0
M  V30 85880 O 962.244 4.45271 -7.53232 0
M  V30 85881 C 961.754 4.74572 -5.19863 0
M  V30 85882 C 962.464 3.49373 -4.70338 0
M  V30 85883 N 962.414 3.31704 -3.22876 0
M  V30 85884 C 962.264 2.03326 -2.74871 0
M  V30 85885 O 962.174 1.06486 -3.48076 0
M  V30 85886 N 962.224 1.91838 -1.37456 0
M  V30 85887 C 962.314 2.94295 -0.462035 0
M  V30 85888 O 962.264 2.71763 0.752928 0
M  V30 85889 C 962.464 4.25064 -1.05249 0
M  V30 85890 C 962.574 5.39815 -0.095697 0
M  V30 85891 C 962.514 4.40214 -2.39192 0
M  V30 85892 H 965.255 6.54063 -5.71245 0
M  V30 85893 H 965.524 5.30339 -4.43905 0
M  V30 85894 H 964.657 4.55889 -6.76652 0
M  V30 85895 H 962.002 2.6167 -5.17842 0
M  V30 85896 H 961.723 5.52155 -4.41878 0
M  V30 85897 H 960.731 4.51918 -5.53297 0
M  V30 85898 H 962.565 6.25055 -6.55162 0
M  V30 85899 H 962.636 5.39798 -2.81523 0
M  V30 85900 H 961.606 5.91593 -0.0279582 0
M  V30 85901 H 963.343 6.10038 -0.450573 0
M  V30 85902 H 962.855 5.02007 0.89937 0
M  V30 85903 H 962.119 0.995326 -1.00435 0
M  V30 85904 P 960.694 4.23843 -7.83734 0
M  V30 85905 O 960.474 4.19407 -9.29784 0
M  V30 85906 O 959.904 5.24426 -7.09156 0
M  V30 85907 O 960.444 2.7935 -7.20758 0
M  V30 85908 C 961.384 1.7299 -7.50419 0
M  V30 85909 C 960.654 0.406376 -7.57911 0
M  V30 85910 O 960.444 -0.0897726 -6.21935 0
M  V30 85911 C 959.254 0.447224 -8.1878 0
M  V30 85912 O 958.864 -0.825065 -8.71101 0
M  V30 85913 C 958.374 0.783801 -6.99623 0
M  V30 85914 C 959.084 0.0619192 -5.85967 0
M  V30 85915 N 959.034 0.790462 -4.56202 0
M  V30 85916 H 961.873 1.93423 -8.4679 0
M  V30 85917 H 962.145 1.68852 -6.70877 0
M  V30 85918 H 961.277 -0.289041 -8.15388 0
M  V30 85919 H 958.622 -0.927006 -5.72848 0
M  V30 85920 H 958.342 1.86973 -6.82036 0
M  V30 85921 H 957.351 0.403953 -7.13357 0
M  V30 85922 H 959.185 1.20599 -8.97534 0
M  V30 85923 P 957.314 -1.17771 -8.83182 0
M  V30 85924 O 957.094 -2.07206 -9.98732 0
M  V30 85925 O 956.524 0.0743816 -8.81969 0
M  V30 85926 O 957.064 -1.97652 -7.47304 0
M  V30 85927 C 958.004 -3.01133 -7.08783 0
M  V30 85928 C 957.274 -4.12613 -6.37049 0
M  V30 85929 O 957.064 -3.72827 -4.97879 0
M  V30 85930 C 955.874 -4.45085 -6.88694 0
M  V30 85931 O 955.484 -5.7877 -6.5624 0
M  V30 85932 C 954.994 -3.47817 -6.12078 0
M  V30 85933 C 955.704 -3.39414 -4.77697 0
M  V30 85934 N 955.654 -2.04199 -4.15538 0
M  V30 85935 H 958.493 -3.41248 -7.98759 0
M  V30 85936 H 958.765 -2.57728 -6.42 0
M  V30 85937 H 957.897 -5.02657 -6.42673 0
M  V30 85938 H 955.242 -4.11708 -4.08956 0
M  V30 85939 H 954.962 -2.49626 -6.61679 0
M  V30 85940 H 953.971 -3.8662 -6.00862 0
M  V30 85941 H 955.805 -4.29991 -7.97006 0
M  V30 85942 P 953.934 -6.144 -6.45285 0
M  V30 85943 O 953.714 -7.54673 -6.86199 0
M  V30 85944 O 953.144 -5.12391 -7.179 0
M  V30 85945 O 953.684 -5.99158 -4.88404 0
M  V30 85946 C 954.624 -6.60234 -3.96415 0
M  V30 85947 C 953.894 -7.08259 -2.72856 0
M  V30 85948 O 953.684 -5.9427 -1.83651 0
M  V30 85949 C 952.494 -7.64886 -2.9555 0
M  V30 85950 O 952.104 -8.53963 -1.90717 0
M  V30 85951 C 951.614 -6.4116 -2.90739 0
M  V30 85952 C 952.324 -5.55375 -1.86963 0
M  V30 85953 N 952.274 -4.09448 -2.16152 0
M  V30 85954 H 955.113 -7.45574 -4.45629 0
M  V30 85955 H 955.385 -5.85864 -3.679 0
M  V30 85956 H 954.517 -7.84412 -2.24479 0
M  V30 85957 H 951.862 -5.73457 -0.888562 0
M  V30 85958 H 951.582 -5.90877 -3.88583 0
M  V30 85959 H 950.591 -6.6596 -2.58858 0
M  V30 85960 H 952.425 -8.16339 -3.92049 0
M  V30 85961 P 950.554 -8.7635 -1.60911 0
M  V30 85962 O 950.334 -10.1388 -1.11561 0
M  V30 85963 O 949.764 -8.36503 -2.79617 0
M  V30 85964 O 950.304 -7.71806 -0.42951 0
M  V30 85965 C 951.244 -7.67148 0.673689 0
M  V30 85966 C 950.514 -7.33374 1.95559 0
M  V30 85967 O 950.304 -5.88721 2.00726 0
M  V30 85968 C 949.114 -7.92526 2.10483 0
M  V30 85969 O 948.724 -8.02971 3.47653 0
M  V30 85970 C 948.234 -6.89602 1.41652 0
M  V30 85971 C 948.944 -5.59201 1.75185 0
M  V30 85972 N 948.894 -4.58301 0.657969 0
M  V30 85973 C 948.974 -4.79019 -0.692603 0
M  V30 85974 N 948.904 -3.69736 -1.38998 0
M  V30 85975 C 948.754 -2.70474 -0.438135 0
M  V30 85976 C 948.624 -1.30327 -0.538142 0
M  V30 85977 N 948.614 -0.64304 -1.69192 0
M  V30 85978 N 948.504 -0.611027 0.605183 0
M  V30 85979 C 948.514 -1.27002 1.75953 0
M  V30 85980 N 948.634 -2.56038 1.98546 0
M  V30 85981 C 948.754 -3.22681 0.822541 0
M  V30 85982 H 951.733 -8.65116 0.777161 0
M  V30 85983 H 952.005 -6.9022 0.46725 0
M  V30 85984 H 951.137 -7.66548 2.79458 0
M  V30 85985 H 948.482 -5.16165 2.65183 0
M  V30 85986 H 948.202 -7.06433 0.329384 0
M  V30 85987 H 947.211 -6.90926 1.82021 0
M  V30 85988 H 949.045 -8.90873 1.62657 0
M  V30 85989 H 949.086 -5.77785 -1.13874 0
M  V30 85990 H 948.705 -1.15585 -2.57991 0
M  V30 85991 H 948.516 0.382989 -1.69835 0
M  V30 85992 H 948.408 -0.653331 2.64449 0
M  V30 85993 P 947.174 -8.03563 3.84925 0
M  V30 85994 O 946.954 -8.85821 5.0569 0
M  V30 85995 O 946.384 -8.41101 2.65469 0
M  V30 85996 O 946.924 -6.4965 4.18908 0
M  V30 85997 C 947.864 -5.81037 5.05421 0
M  V30 85998 C 947.134 -4.78366 5.89277 0
M  V30 85999 O 946.924 -3.58302 5.08433 0
M  V30 86000 C 945.734 -5.17448 6.36119 0
M  V30 86001 O 945.344 -4.45271 7.53232 0
M  V30 86002 C 944.854 -4.74639 5.19936 0
M  V30 86003 C 945.564 -3.49432 4.70418 0
M  V30 86004 N 945.514 -3.32099 3.22613 0
M  V30 86005 C 945.594 -4.28245 2.25527 0
M  V30 86006 N 945.524 -3.80823 1.04874 0
M  V30 86007 C 945.374 -2.44571 1.23535 0
M  V30 86008 C 945.244 -1.37068 0.330675 0
M  V30 86009 N 945.234 -1.51472 -0.990824 0
M  V30 86010 N 945.124 -0.138614 0.848756 0
M  V30 86011 C 945.134 0.00675923 2.16999 0
M  V30 86012 N 945.254 -0.904372 3.11122 0
M  V30 86013 C 945.374 -2.12707 2.56212 0
M  V30 86014 H 948.353 -6.54213 5.71376 0
M  V30 86015 H 948.625 -5.30936 4.43503 0
M  V30 86016 H 947.757 -4.55889 6.76652 0
M  V30 86017 H 945.102 -2.61715 5.17932 0
M  V30 86018 H 944.822 -5.52155 4.41878 0
M  V30 86019 H 943.831 -4.51981 5.53374 0
M  V30 86020 H 945.665 -6.25124 6.55234 0
M  V30 86021 H 945.706 -5.34372 2.47488 0
M  V30 86022 H 945.325 -2.45153 -1.4078 0
M  V30 86023 H 945.136 -0.688422 -1.59911 0
M  V30 86024 H 945.028 1.02584 2.52346 0
M  V30 86025 P 943.794 -4.23843 7.83734 0
M  V30 86026 O 943.574 -4.19407 9.29784 0
M  V30 86027 O 943.004 -5.24426 7.09156 0
M  V30 86028 O 943.544 -2.7935 7.20758 0
M  V30 86029 C 944.484 -1.7299 7.50419 0
M  V30 86030 C 943.754 -0.406376 7.57911 0
M  V30 86031 O 943.544 0.0897726 6.21935 0
M  V30 86032 C 942.354 -0.447224 8.1878 0
M  V30 86033 O 941.964 0.825065 8.71101 0
M  V30 86034 C 941.474 -0.783801 6.99623 0
M  V30 86035 C 942.184 -0.0619192 5.85967 0
M  V30 86036 N 942.134 -0.7859 4.56281 0
M  V30 86037 H 944.973 -1.93423 8.4679 0
M  V30 86038 H 945.245 -1.68181 6.71046 0
M  V30 86039 H 944.377 0.289041 8.15388 0
M  V30 86040 P 940.414 1.17771 8.83182 0
M  V30 86041 O 940.194 2.07206 9.98732 0
M  V30 86042 O 939.624 -0.0743816 8.81969 0
M  V30 86043 O 940.164 1.97652 7.47304 0
M  V30 86044 C 941.104 3.01133 7.08783 0
M  V30 86045 C 940.374 4.12613 6.37049 0
M  V30 86046 O 940.164 3.72827 4.97879 0
M  V30 86047 C 938.974 4.45085 6.88694 0
M  V30 86048 O 938.584 5.7877 6.5624 0
M  V30 86049 C 938.094 3.47817 6.12078 0
M  V30 86050 C 938.804 3.39414 4.77697 0
M  V30 86051 N 938.754 2.04199 4.15538 0
M  V30 86052 H 941.593 3.41248 7.98759 0
M  V30 86053 H 941.865 2.57728 6.42 0
M  V30 86054 H 940.997 5.02657 6.42673 0
M  V30 86055 H 938.342 4.11708 4.08956 0
M  V30 86056 H 938.062 2.49626 6.61679 0
M  V30 86057 H 937.071 3.8662 6.00862 0
M  V30 86058 H 938.905 4.29991 7.97006 0
M  V30 86059 P 937.034 6.144 6.45285 0
M  V30 86060 O 936.814 7.54673 6.86199 0
M  V30 86061 O 936.244 5.12391 7.179 0
M  V30 86062 O 936.784 5.99158 4.88404 0
M  V30 86063 C 937.724 6.60234 3.96415 0
M  V30 86064 C 936.994 7.08259 2.72856 0
M  V30 86065 O 936.784 5.9427 1.83651 0
M  V30 86066 C 935.594 7.64886 2.9555 0
M  V30 86067 O 935.204 8.53963 1.90717 0
M  V30 86068 C 934.714 6.4116 2.90739 0
M  V30 86069 C 935.424 5.55375 1.86963 0
M  V30 86070 N 935.374 4.09448 2.16152 0
M  V30 86071 H 938.213 7.45574 4.45629 0
M  V30 86072 H 938.485 5.85864 3.679 0
M  V30 86073 H 937.617 7.84412 2.24479 0
M  V30 86074 H 934.962 5.73457 0.888562 0
M  V30 86075 H 934.682 5.90877 3.88583 0
M  V30 86076 H 933.691 6.6596 2.58858 0
M  V30 86077 H 935.525 8.16339 3.92049 0
M  V30 86078 P 933.655 8.7635 1.60911 0
M  V30 86079 O 933.435 10.1388 1.11561 0
M  V30 86080 O 932.865 8.36503 2.79617 0
M  V30 86081 O 933.405 7.71806 0.42951 0
M  V30 86082 C 934.345 7.67148 -0.673689 0
M  V30 86083 C 933.615 7.33374 -1.95559 0
M  V30 86084 O 933.405 5.88721 -2.00726 0
M  V30 86085 C 932.215 7.92526 -2.10483 0
M  V30 86086 O 931.825 8.02971 -3.47653 0
M  V30 86087 C 931.335 6.89602 -1.41652 0
M  V30 86088 C 932.045 5.59201 -1.75185 0
M  V30 86089 N 931.995 4.58235 -0.662552 0
M  V30 86090 H 934.834 8.65116 -0.777161 0
M  V30 86091 H 935.106 6.90173 -0.474152 0
M  V30 86092 H 934.238 7.66548 -2.79458 0
M  V30 86093 P 930.275 8.03563 -3.84925 0
M  V30 86094 O 930.055 8.85821 -5.0569 0
M  V30 86095 O 929.485 8.41101 -2.65469 0
M  V30 86096 O 930.025 6.4965 -4.18908 0
M  V30 86097 C 930.965 5.80886 -5.05289 0
M  V30 86098 C 930.235 4.78366 -5.89277 0
M  V30 86099 O 930.025 3.58302 -5.08433 0
M  V30 86100 C 928.835 5.16748 -6.36559 0
M  V30 86101 O 928.445 4.45271 -7.53232 0
M  V30 86102 C 927.955 4.74572 -5.19863 0
M  V30 86103 C 928.665 3.49373 -4.70338 0
M  V30 86104 N 928.615 3.31704 -3.22876 0
M  V30 86105 C 928.465 2.03326 -2.74871 0
M  V30 86106 O 928.375 1.06486 -3.48076 0
M  V30 86107 N 928.425 1.91838 -1.37456 0
M  V30 86108 C 928.515 2.94295 -0.462035 0
M  V30 86109 O 928.465 2.71763 0.752928 0
M  V30 86110 C 928.665 4.25064 -1.05249 0
M  V30 86111 C 928.775 5.39815 -0.095697 0
M  V30 86112 C 928.715 4.40214 -2.39192 0
M  V30 86113 H 931.456 6.54063 -5.71245 0
M  V30 86114 H 931.725 5.30339 -4.43905 0
M  V30 86115 H 930.858 4.55889 -6.76652 0
M  V30 86116 H 928.203 2.6167 -5.17842 0
M  V30 86117 H 927.924 5.52155 -4.41878 0
M  V30 86118 H 926.932 4.51918 -5.53297 0
M  V30 86119 H 928.766 6.25055 -6.55162 0
M  V30 86120 H 928.837 5.39798 -2.81523 0
M  V30 86121 H 927.807 5.91593 -0.0279582 0
M  V30 86122 H 929.544 6.10038 -0.450573 0
M  V30 86123 H 929.056 5.02007 0.89937 0
M  V30 86124 H 928.32 0.995326 -1.00435 0
M  V30 86125 P 926.895 4.23843 -7.83734 0
M  V30 86126 O 926.675 4.19407 -9.29784 0
M  V30 86127 O 926.105 5.24426 -7.09156 0
M  V30 86128 O 926.645 2.7935 -7.20758 0
M  V30 86129 C 927.585 1.7299 -7.50419 0
M  V30 86130 C 926.855 0.406376 -7.57911 0
M  V30 86131 O 926.645 -0.0897726 -6.21935 0
M  V30 86132 C 925.455 0.447224 -8.1878 0
M  V30 86133 O 925.065 -0.825065 -8.71101 0
M  V30 86134 C 924.575 0.783801 -6.99623 0
M  V30 86135 C 925.285 0.0619192 -5.85967 0
M  V30 86136 N 925.235 0.7859 -4.56281 0
M  V30 86137 H 928.074 1.93423 -8.4679 0
M  V30 86138 H 928.346 1.68181 -6.71046 0
M  V30 86139 H 927.478 -0.289041 -8.15388 0
M  V30 86140 P 923.515 -1.17771 -8.83182 0
M  V30 86141 O 923.295 -2.07206 -9.98732 0
M  V30 86142 O 922.725 0.0743816 -8.81969 0
M  V30 86143 O 923.265 -1.97652 -7.47304 0
M  V30 86144 C 924.205 -3.01133 -7.08783 0
M  V30 86145 C 923.475 -4.12613 -6.37049 0
M  V30 86146 O 923.265 -3.72827 -4.97879 0
M  V30 86147 C 922.075 -4.45085 -6.88694 0
M  V30 86148 O 921.685 -5.7877 -6.5624 0
M  V30 86149 C 921.195 -3.47817 -6.12078 0
M  V30 86150 C 921.905 -3.39414 -4.77697 0
M  V30 86151 N 921.855 -2.04615 -4.15333 0
M  V30 86152 H 924.694 -3.41248 -7.98759 0
M  V30 86153 H 924.966 -2.5837 -6.41742 0
M  V30 86154 H 924.098 -5.02657 -6.42673 0
M  V30 86155 P 920.135 -6.144 -6.45285 0
M  V30 86156 O 919.915 -7.54673 -6.86199 0
M  V30 86157 O 919.345 -5.12391 -7.179 0
M  V30 86158 O 919.885 -5.99236 -4.88467 0
M  V30 86159 C 920.825 -6.60234 -3.96415 0
M  V30 86160 C 920.095 -7.08079 -2.736 0
M  V30 86161 O 919.885 -5.94365 -1.8368 0
M  V30 86162 C 918.695 -7.64886 -2.9555 0
M  V30 86163 O 918.305 -8.5406 -1.90739 0
M  V30 86164 C 917.815 -6.4116 -2.90739 0
M  V30 86165 C 918.525 -5.55375 -1.86963 0
M  V30 86166 N 918.475 -4.09664 -2.15742 0
M  V30 86167 C 918.325 -3.22231 -1.08477 0
M  V30 86168 O 918.235 -3.68951 0.0600489 0
M  V30 86169 N 918.275 -1.76692 -1.48799 0
M  V30 86170 C 918.375 -1.41695 -2.57602 0
M  V30 86171 N 918.325 -0.107296 -2.75791 0
M  V30 86172 C 918.525 -2.29178 -3.69733 0
M  V30 86173 C 918.575 -3.62753 -3.42653 0
M  V30 86174 H 921.315 -7.45488 -4.45578 0
M  V30 86175 H 921.585 -5.86232 -3.67314 0
M  V30 86176 H 920.718 -7.84508 -2.24507 0
M  V30 86177 H 918.063 -5.73556 -0.888715 0
M  V30 86178 H 917.783 -5.9096 -3.88638 0
M  V30 86179 H 916.792 -6.66053 -2.58894 0
M  V30 86180 H 918.626 -8.16339 -3.92049 0
M  V30 86181 H 918.698 -4.33052 -4.24913 0
M  V30 86182 H 918.596 -1.9103 -4.71577 0
M  V30 86183 H 918.208 0.521221 -1.95056 0
M  V30 86184 H 918.404 0.286429 -3.70695 0
M  V30 86185 P 916.755 -8.7635 -1.60911 0
M  V30 86186 O 916.535 -10.1388 -1.11561 0
M  V30 86187 O 915.965 -8.36503 -2.79617 0
M  V30 86188 O 916.505 -7.71806 -0.42951 0
M  V30 86189 C 917.445 -7.67148 0.673689 0
M  V30 86190 C 916.715 -7.33374 1.95559 0
M  V30 86191 O 916.505 -5.88721 2.00726 0
M  V30 86192 C 915.315 -7.92526 2.10483 0
M  V30 86193 O 914.925 -8.02971 3.47653 0
M  V30 86194 C 914.435 -6.89602 1.41652 0
M  V30 86195 C 915.145 -5.59201 1.75185 0
M  V30 86196 N 915.095 -4.58235 0.662552 0
M  V30 86197 H 917.934 -8.65116 0.777161 0
M  V30 86198 H 918.206 -6.90173 0.474152 0
M  V30 86199 H 917.338 -7.66548 2.79458 0
M  V30 86200 P 913.375 -8.03563 3.84925 0
M  V30 86201 O 913.155 -8.85821 5.0569 0
M  V30 86202 O 912.585 -8.41101 2.65469 0
M  V30 86203 O 913.125 -6.49734 4.18962 0
M  V30 86204 C 914.065 -5.81037 5.05421 0
M  V30 86205 C 913.335 -4.79018 5.88876 0
M  V30 86206 O 913.125 -3.58359 5.08515 0
M  V30 86207 C 911.935 -5.17448 6.36119 0
M  V30 86208 O 911.545 -4.45322 7.53318 0
M  V30 86209 C 911.055 -4.74639 5.19936 0
M  V30 86210 C 911.765 -3.49432 4.70418 0
M  V30 86211 N 911.715 -3.31776 3.22945 0
M  V30 86212 C 911.565 -2.02742 2.72939 0
M  V30 86213 O 911.475 -1.08301 3.52749 0
M  V30 86214 N 911.515 -1.96117 1.22063 0
M  V30 86215 C 911.615 -2.8878 0.551566 0
M  V30 86216 N 911.565 -2.65609 -0.750198 0
M  V30 86217 C 911.765 -4.22457 1.03707 0
M  V30 86218 C 911.815 -4.37979 2.39113 0
M  V30 86219 H 914.555 -6.54138 5.7131 0
M  V30 86220 H 914.825 -5.30492 4.44033 0
M  V30 86221 H 913.958 -4.55945 6.76735 0
M  V30 86222 H 911.303 -2.6176 5.18021 0
M  V30 86223 H 911.023 -5.52233 4.41941 0
M  V30 86224 H 910.032 -4.52045 5.53452 0
M  V30 86225 H 911.866 -6.25124 6.55234 0
M  V30 86226 H 911.938 -5.37936 2.80552 0
M  V30 86227 H 911.836 -5.07528 0.359553 0
M  V30 86228 H 911.448 -1.69403 -1.09847 0
M  V30 86229 H 911.644 -3.43701 -1.41792 0
M  V30 86230 P 909.995 -4.23843 7.83734 0
M  V30 86231 O 909.775 -4.19407 9.29784 0
M  V30 86232 O 909.205 -5.24426 7.09156 0
M  V30 86233 O 909.745 -2.7935 7.20758 0
M  V30 86234 C 910.685 -1.7299 7.50419 0
M  V30 86235 C 909.955 -0.406376 7.57911 0
M  V30 86236 O 909.745 0.0897726 6.21935 0
M  V30 86237 C 908.555 -0.447224 8.1878 0
M  V30 86238 O 908.165 0.825065 8.71101 0
M  V30 86239 C 907.675 -0.783801 6.99623 0
M  V30 86240 C 908.385 -0.0619192 5.85967 0
M  V30 86241 N 908.335 -0.7859 4.56281 0
M  V30 86242 H 911.174 -1.93423 8.4679 0
M  V30 86243 H 911.446 -1.68181 6.71046 0
M  V30 86244 H 910.578 0.289041 8.15388 0
M  V30 86245 P 906.615 1.17771 8.83182 0
M  V30 86246 O 906.395 2.07206 9.98732 0
M  V30 86247 O 905.825 -0.0743816 8.81969 0
M  V30 86248 O 906.365 1.97652 7.47304 0
M  V30 86249 C 907.305 3.01133 7.08783 0
M  V30 86250 C 906.575 4.12613 6.37049 0
M  V30 86251 O 906.365 3.72827 4.97879 0
M  V30 86252 C 905.175 4.45085 6.88694 0
M  V30 86253 O 904.785 5.7877 6.5624 0
M  V30 86254 C 904.295 3.47817 6.12078 0
M  V30 86255 C 905.005 3.39414 4.77697 0
M  V30 86256 N 904.955 2.04615 4.15333 0
M  V30 86257 H 907.794 3.41248 7.98759 0
M  V30 86258 H 908.066 2.5837 6.41742 0
M  V30 86259 H 907.198 5.02657 6.42673 0
M  V30 86260 P 903.235 6.144 6.45285 0
M  V30 86261 O 903.015 7.54673 6.86199 0
M  V30 86262 O 902.445 5.12391 7.179 0
M  V30 86263 O 902.985 5.99158 4.88404 0
M  V30 86264 C 903.925 6.60234 3.96415 0
M  V30 86265 C 903.195 7.08259 2.72856 0
M  V30 86266 O 902.985 5.9427 1.83651 0
M  V30 86267 C 901.795 7.64886 2.9555 0
M  V30 86268 O 901.405 8.53963 1.90717 0
M  V30 86269 C 900.915 6.4116 2.90739 0
M  V30 86270 C 901.625 5.55375 1.86963 0
M  V30 86271 N 901.575 4.09664 2.15742 0
M  V30 86272 H 904.414 7.45574 4.45629 0
M  V30 86273 H 904.686 5.86232 3.67314 0
M  V30 86274 H 903.818 7.84412 2.24479 0
M  V30 86275 P 899.855 8.7635 1.60911 0
M  V30 86276 O 899.635 10.1388 1.11561 0
M  V30 86277 O 899.065 8.36503 2.79617 0
M  V30 86278 O 899.605 7.71806 0.42951 0
M  V30 86279 C 900.545 7.67148 -0.673689 0
M  V30 86280 C 899.815 7.33374 -1.95559 0
M  V30 86281 O 899.605 5.88721 -2.00726 0
M  V30 86282 C 898.415 7.92526 -2.10483 0
M  V30 86283 O 898.025 8.02971 -3.47653 0
M  V30 86284 C 897.535 6.89602 -1.41652 0
M  V30 86285 C 898.245 5.59201 -1.75185 0
M  V30 86286 N 898.195 4.58235 -0.662552 0
M  V30 86287 H 901.034 8.65116 -0.777161 0
M  V30 86288 H 901.306 6.90173 -0.474152 0
M  V30 86289 H 900.438 7.66548 -2.79458 0
M  V30 86290 P 896.475 8.03563 -3.84925 0
M  V30 86291 O 896.255 8.85821 -5.0569 0
M  V30 86292 O 895.685 8.41101 -2.65469 0
M  V30 86293 O 896.225 6.4965 -4.18908 0
M  V30 86294 C 897.165 5.80886 -5.05289 0
M  V30 86295 C 896.435 4.78366 -5.89277 0
M  V30 86296 O 896.225 3.58302 -5.08433 0
M  V30 86297 C 895.035 5.16748 -6.36559 0
M  V30 86298 O 894.645 4.45271 -7.53232 0
M  V30 86299 C 894.155 4.74572 -5.19863 0
M  V30 86300 C 894.865 3.49373 -4.70338 0
M  V30 86301 N 894.815 3.31704 -3.22876 0
M  V30 86302 C 894.665 2.03326 -2.74871 0
M  V30 86303 O 894.575 1.06486 -3.48076 0
M  V30 86304 N 894.625 1.91838 -1.37456 0
M  V30 86305 C 894.715 2.94295 -0.462035 0
M  V30 86306 O 894.665 2.71763 0.752928 0
M  V30 86307 C 894.865 4.25064 -1.05249 0
M  V30 86308 C 894.975 5.39815 -0.095697 0
M  V30 86309 C 894.915 4.40214 -2.39192 0
M  V30 86310 H 897.656 6.54063 -5.71245 0
M  V30 86311 H 897.925 5.30339 -4.43905 0
M  V30 86312 H 897.058 4.55889 -6.76652 0
M  V30 86313 H 894.403 2.6167 -5.17842 0
M  V30 86314 H 894.124 5.52155 -4.41878 0
M  V30 86315 H 893.132 4.51918 -5.53297 0
M  V30 86316 H 894.966 6.25055 -6.55162 0
M  V30 86317 H 895.037 5.39798 -2.81523 0
M  V30 86318 H 894.007 5.91593 -0.0279582 0
M  V30 86319 H 895.744 6.10038 -0.450573 0
M  V30 86320 H 895.256 5.02007 0.89937 0
M  V30 86321 H 894.52 0.995326 -1.00435 0
M  V30 86322 P 893.095 4.23843 -7.83734 0
M  V30 86323 O 892.875 4.19407 -9.29784 0
M  V30 86324 O 892.305 5.24426 -7.09156 0
M  V30 86325 O 892.845 2.7935 -7.20758 0
M  V30 86326 C 893.785 1.72945 -7.50224 0
M  V30 86327 C 893.055 0.406376 -7.57911 0
M  V30 86328 O 892.845 -0.0897726 -6.21935 0
M  V30 86329 C 891.655 0.438983 -8.18724 0
M  V30 86330 O 891.265 -0.825065 -8.71101 0
M  V30 86331 C 890.775 0.783689 -6.99524 0
M  V30 86332 C 891.485 0.0619086 -5.85867 0
M  V30 86333 N 891.435 0.78573 -4.56183 0
M  V30 86334 C 891.285 0.0292889 -3.41887 0
M  V30 86335 O 891.195 -1.18445 -3.4419 0
M  V30 86336 N 891.245 0.744061 -2.23964 0
M  V30 86337 C 891.335 2.10932 -2.10362 0
M  V30 86338 O 891.285 2.64117 -0.98825 0
M  V30 86339 C 891.485 2.8202 -3.34994 0
M  V30 86340 C 891.595 4.31095 -3.25037 0
M  V30 86341 C 891.535 2.15547 -4.52261 0
M  V30 86342 H 894.276 1.93379 -8.46595 0
M  V30 86343 H 894.545 1.68132 -6.70852 0
M  V30 86344 H 893.678 -0.289041 -8.15388 0
M  V30 86345 H 891.023 -0.926847 -5.72749 0
M  V30 86346 H 890.744 1.86973 -6.82036 0
M  V30 86347 H 889.752 0.403896 -7.13257 0
M  V30 86348 H 891.586 1.20585 -8.97435 0
M  V30 86349 H 891.657 2.71231 -5.45042 0
M  V30 86350 H 890.627 4.76966 -3.49992 0
M  V30 86351 H 892.364 4.67047 -3.95024 0
M  V30 86352 H 891.876 4.58996 -2.22312 0
M  V30 86353 H 891.14 0.214893 -1.39758 0
M  V30 86354 P 889.715 -1.17771 -8.83182 0
M  V30 86355 O 889.495 -2.07206 -9.98732 0
M  V30 86356 O 888.925 0.0743816 -8.81969 0
M  V30 86357 O 889.465 -1.97652 -7.47304 0
M  V30 86358 C 890.405 -3.01133 -7.08783 0
M  V30 86359 C 889.675 -4.12613 -6.37049 0
M  V30 86360 O 889.465 -3.72827 -4.97879 0
M  V30 86361 C 888.275 -4.45085 -6.88694 0
M  V30 86362 O 887.885 -5.7877 -6.5624 0
M  V30 86363 C 887.395 -3.47817 -6.12078 0
M  V30 86364 C 888.105 -3.39414 -4.77697 0
M  V30 86365 N 888.055 -2.04615 -4.15333 0
M  V30 86366 H 890.894 -3.41248 -7.98759 0
M  V30 86367 H 891.166 -2.5837 -6.41742 0
M  V30 86368 H 890.298 -5.02657 -6.42673 0
M  V30 86369 P 886.335 -6.144 -6.45285 0
M  V30 86370 O 886.115 -7.54673 -6.86199 0
M  V30 86371 O 885.545 -5.12391 -7.179 0
M  V30 86372 O 886.085 -5.99158 -4.88404 0
M  V30 86373 C 887.025 -6.60234 -3.96415 0
M  V30 86374 C 886.295 -7.08259 -2.72856 0
M  V30 86375 O 886.085 -5.9427 -1.83651 0
M  V30 86376 C 884.895 -7.64886 -2.9555 0
M  V30 86377 O 884.505 -8.53963 -1.90717 0
M  V30 86378 C 884.015 -6.4116 -2.90739 0
M  V30 86379 C 884.725 -5.55375 -1.86963 0
M  V30 86380 N 884.675 -4.09448 -2.16152 0
M  V30 86381 H 887.514 -7.45574 -4.45629 0
M  V30 86382 H 887.786 -5.85864 -3.679 0
M  V30 86383 H 886.918 -7.84412 -2.24479 0
M  V30 86384 H 884.263 -5.73457 -0.888562 0
M  V30 86385 H 883.983 -5.90877 -3.88583 0
M  V30 86386 H 882.992 -6.6596 -2.58858 0
M  V30 86387 H 884.826 -8.16339 -3.92049 0
M  V30 86388 P 882.955 -8.7635 -1.60911 0
M  V30 86389 O 882.735 -10.1388 -1.11561 0
M  V30 86390 O 882.165 -8.36503 -2.79617 0
M  V30 86391 O 882.705 -7.71806 -0.42951 0
M  V30 86392 C 883.645 -7.67148 0.673689 0
M  V30 86393 C 882.915 -7.33374 1.95559 0
M  V30 86394 O 882.705 -5.88721 2.00726 0
M  V30 86395 C 881.515 -7.92526 2.10483 0
M  V30 86396 O 881.125 -8.02971 3.47653 0
M  V30 86397 C 880.635 -6.89602 1.41652 0
M  V30 86398 C 881.345 -5.59201 1.75185 0
M  V30 86399 N 881.295 -4.58235 0.662552 0
M  V30 86400 H 884.134 -8.65116 0.777161 0
M  V30 86401 H 884.406 -6.90173 0.474152 0
M  V30 86402 H 883.538 -7.66548 2.79458 0
M  V30 86403 P 879.575 -8.03563 3.84925 0
M  V30 86404 O 879.355 -8.85821 5.0569 0
M  V30 86405 O 878.785 -8.41101 2.65469 0
M  V30 86406 O 879.325 -6.4965 4.18908 0
M  V30 86407 C 880.265 -5.80886 5.05289 0
M  V30 86408 C 879.535 -4.78366 5.89277 0
M  V30 86409 O 879.325 -3.58302 5.08433 0
M  V30 86410 C 878.135 -5.16748 6.36559 0
M  V30 86411 O 877.745 -4.45271 7.53232 0
M  V30 86412 C 877.255 -4.74572 5.19863 0
M  V30 86413 C 877.965 -3.49373 4.70338 0
M  V30 86414 N 877.915 -3.31704 3.22876 0
M  V30 86415 C 877.765 -2.03326 2.74871 0
M  V30 86416 O 877.675 -1.06486 3.48076 0
M  V30 86417 N 877.725 -1.91838 1.37456 0
M  V30 86418 C 877.815 -2.94295 0.462035 0
M  V30 86419 C 877.965 -4.25064 1.05249 0
M  V30 86420 C 878.015 -4.40214 2.39192 0
M  V30 86421 H 880.756 -6.54063 5.71245 0
M  V30 86422 H 881.025 -5.30339 4.43905 0
M  V30 86423 H 880.158 -4.55889 6.76652 0
M  V30 86424 H 877.503 -2.6167 5.17842 0
M  V30 86425 H 877.224 -5.52155 4.41878 0
M  V30 86426 H 876.232 -4.51918 5.53297 0
M  V30 86427 H 878.066 -6.25055 6.55162 0
M  V30 86428 H 878.137 -5.39798 2.81523 0
M  V30 86429 P 876.195 -4.23843 7.83734 0
M  V30 86430 O 875.975 -4.19407 9.29784 0
M  V30 86431 O 875.405 -5.24426 7.09156 0
M  V30 86432 O 875.945 -2.7935 7.20758 0
M  V30 86433 C 876.885 -1.7299 7.50419 0
M  V30 86434 C 876.155 -0.406376 7.57911 0
M  V30 86435 O 875.945 0.0897726 6.21935 0
M  V30 86436 C 874.755 -0.447224 8.1878 0
M  V30 86437 O 874.365 0.825065 8.71101 0
M  V30 86438 C 873.875 -0.783801 6.99623 0
M  V30 86439 C 874.585 -0.0619192 5.85967 0
M  V30 86440 N 874.535 -0.7859 4.56281 0
M  V30 86441 C 874.615 -2.14308 4.31736 0
M  V30 86442 N 874.535 -2.46106 3.05116 0
M  V30 86443 C 874.395 -1.23422 2.4014 0
M  V30 86444 C 874.265 -0.938381 1.02409 0
M  V30 86445 N 874.145 0.444647 0.805413 0
M  V30 86446 C 874.145 1.40829 1.79435 0
M  V30 86447 N 874.015 2.67213 1.38558 0
M  V30 86448 N 874.275 1.12947 3.09005 0
M  V30 86449 C 874.395 -0.204887 3.32369 0
M  V30 86450 H 877.374 -1.93423 8.4679 0
M  V30 86451 H 877.646 -1.68181 6.71046 0
M  V30 86452 H 876.778 0.289041 8.15388 0
M  V30 86453 P 872.815 1.17771 8.83182 0
M  V30 86454 O 872.595 2.07206 9.98732 0
M  V30 86455 O 872.025 -0.0743816 8.81969 0
M  V30 86456 O 872.565 1.97652 7.47304 0
M  V30 86457 C 873.505 3.01133 7.08783 0
M  V30 86458 C 872.775 4.12613 6.37049 0
M  V30 86459 O 872.565 3.72827 4.97879 0
M  V30 86460 C 871.375 4.45085 6.88694 0
M  V30 86461 O 870.985 5.7877 6.5624 0
M  V30 86462 C 870.495 3.47817 6.12078 0
M  V30 86463 C 871.205 3.39414 4.77697 0
M  V30 86464 N 871.155 2.04615 4.15333 0
M  V30 86465 H 873.994 3.41248 7.98759 0
M  V30 86466 H 874.266 2.5837 6.41742 0
M  V30 86467 H 873.398 5.02657 6.42673 0
M  V30 86468 P 869.435 6.144 6.45285 0
M  V30 86469 O 869.215 7.54673 6.86199 0
M  V30 86470 O 868.645 5.12391 7.179 0
M  V30 86471 O 869.185 5.99158 4.88404 0
M  V30 86472 C 870.125 6.60234 3.96415 0
M  V30 86473 C 869.395 7.08259 2.72856 0
M  V30 86474 O 869.185 5.9427 1.83651 0
M  V30 86475 C 867.995 7.64886 2.9555 0
M  V30 86476 O 867.605 8.53963 1.90717 0
M  V30 86477 C 867.115 6.4116 2.90739 0
M  V30 86478 C 867.825 5.55375 1.86963 0
M  V30 86479 N 867.775 4.09448 2.16152 0
M  V30 86480 C 867.855 3.46824 3.37593 0
M  V30 86481 N 867.785 2.17422 3.29777 0
M  V30 86482 C 867.635 1.93065 1.94427 0
M  V30 86483 C 867.505 0.738053 1.20141 0
M  V30 86484 N 867.495 -0.474256 1.74676 0
M  V30 86485 N 867.385 0.850049 -0.13045 0
M  V30 86486 C 867.395 2.06169 -0.676992 0
M  V30 86487 N 867.515 3.23842 -0.101312 0
M  V30 86488 C 867.635 3.09402 1.23122 0
M  V30 86489 H 870.614 7.45574 4.45629 0
M  V30 86490 H 870.886 5.85864 3.679 0
M  V30 86491 H 870.018 7.84412 2.24479 0
M  V30 86492 H 867.363 5.73457 0.888562 0
M  V30 86493 H 867.083 5.90877 3.88583 0
M  V30 86494 H 866.092 6.6596 2.58858 0
M  V30 86495 H 867.926 8.16339 3.92049 0
M  V30 86496 H 867.967 4.00505 4.3174 0
M  V30 86497 H 867.586 -0.581337 2.76658 0
M  V30 86498 H 867.397 -1.30811 1.14888 0
M  V30 86499 H 867.289 2.08295 -1.75542 0
M  V30 86500 P 866.055 8.7635 1.60911 0
M  V30 86501 O 865.835 10.1388 1.11561 0
M  V30 86502 O 865.265 8.36503 2.79617 0
M  V30 86503 O 865.805 7.71806 0.42951 0
M  V30 86504 C 866.745 7.67148 -0.673689 0
M  V30 86505 C 866.015 7.33374 -1.95559 0
M  V30 86506 O 865.805 5.88721 -2.00726 0
M  V30 86507 C 864.615 7.92526 -2.10483 0
M  V30 86508 O 864.225 8.02971 -3.47653 0
M  V30 86509 C 863.735 6.89602 -1.41652 0
M  V30 86510 C 864.445 5.59201 -1.75185 0
M  V30 86511 N 864.395 4.58235 -0.662552 0
M  V30 86512 H 867.234 8.65116 -0.777161 0
M  V30 86513 H 867.506 6.90173 -0.474152 0
M  V30 86514 H 866.638 7.66548 -2.79458 0
M  V30 86515 P 862.675 8.03563 -3.84925 0
M  V30 86516 O 862.455 8.85821 -5.0569 0
M  V30 86517 O 861.885 8.41101 -2.65469 0
M  V30 86518 O 862.425 6.4965 -4.18908 0
M  V30 86519 C 863.365 5.81037 -5.05421 0
M  V30 86520 C 862.635 4.78366 -5.89277 0
M  V30 86521 O 862.425 3.58302 -5.08433 0
M  V30 86522 C 861.235 5.17448 -6.36119 0
M  V30 86523 O 860.845 4.45271 -7.53232 0
M  V30 86524 C 860.355 4.74639 -5.19936 0
M  V30 86525 C 861.065 3.49432 -4.70418 0
M  V30 86526 N 861.015 3.31776 -3.22945 0
M  V30 86527 H 863.854 6.54213 -5.71376 0
M  V30 86528 H 864.126 5.30492 -4.44033 0
M  V30 86529 H 863.258 4.55889 -6.76652 0
M  V30 86530 P 859.295 4.23843 -7.83734 0
M  V30 86531 O 859.075 4.19407 -9.29784 0
M  V30 86532 O 858.505 5.24426 -7.09156 0
M  V30 86533 O 859.045 2.7935 -7.20758 0
M  V30 86534 C 859.985 1.7299 -7.50419 0
M  V30 86535 C 859.255 0.406376 -7.57911 0
M  V30 86536 O 859.045 -0.0897726 -6.21935 0
M  V30 86537 C 857.855 0.447224 -8.1878 0
M  V30 86538 O 857.465 -0.825065 -8.71101 0
M  V30 86539 C 856.975 0.783801 -6.99623 0
M  V30 86540 C 857.685 0.0619192 -5.85967 0
M  V30 86541 N 857.635 0.7859 -4.56281 0
M  V30 86542 H 860.474 1.93423 -8.4679 0
M  V30 86543 H 860.746 1.68181 -6.71046 0
M  V30 86544 H 859.878 -0.289041 -8.15388 0
M  V30 86545 P 855.915 -1.17771 -8.83182 0
M  V30 86546 O 855.695 -2.07206 -9.98732 0
M  V30 86547 O 855.125 0.0743816 -8.81969 0
M  V30 86548 O 855.665 -1.97652 -7.47304 0
M  V30 86549 C 856.605 -3.01133 -7.08783 0
M  V30 86550 C 855.875 -4.12613 -6.37049 0
M  V30 86551 O 855.665 -3.72827 -4.97879 0
M  V30 86552 C 854.475 -4.45085 -6.88694 0
M  V30 86553 O 854.085 -5.7877 -6.5624 0
M  V30 86554 C 853.595 -3.47817 -6.12078 0
M  V30 86555 C 854.305 -3.39414 -4.77697 0
M  V30 86556 N 854.255 -2.04199 -4.15538 0
M  V30 86557 C 854.335 -0.821545 -4.76977 0
M  V30 86558 N 854.265 0.1794 -3.94592 0
M  V30 86559 C 854.115 -0.419121 -2.70776 0
M  V30 86560 C 853.985 0.109072 -1.40577 0
M  V30 86561 N 853.975 1.4104 -1.1344 0
M  V30 86562 N 853.865 -0.764381 -0.39411 0
M  V30 86563 C 853.875 -2.06587 -0.664135 0
M  V30 86564 N 853.995 -2.67948 -1.82153 0
M  V30 86565 C 854.115 -1.77942 -2.8147 0
M  V30 86566 H 857.094 -3.41248 -7.98759 0
M  V30 86567 H 857.366 -2.57728 -6.42 0
M  V30 86568 H 856.498 -5.02657 -6.42673 0
M  V30 86569 H 853.843 -4.11708 -4.08956 0
M  V30 86570 H 853.563 -2.49626 -6.61679 0
M  V30 86571 H 852.572 -3.8662 -6.00862 0
M  V30 86572 H 854.406 -4.29991 -7.97006 0
M  V30 86573 H 854.447 -0.702451 -5.84696 0
M  V30 86574 H 854.066 2.09647 -1.89651 0
M  V30 86575 H 853.877 1.73358 -0.160575 0
M  V30 86576 H 853.769 -2.71695 0.195838 0
M  V30 86577 P 852.535 -6.144 -6.45285 0
M  V30 86578 O 852.315 -7.54673 -6.86199 0
M  V30 86579 O 851.745 -5.12391 -7.179 0
M  V30 86580 O 852.285 -5.99158 -4.88404 0
M  V30 86581 C 853.225 -6.60234 -3.96415 0
M  V30 86582 C 852.495 -7.08259 -2.72856 0
M  V30 86583 O 852.285 -5.9427 -1.83651 0
M  V30 86584 C 851.095 -7.64886 -2.9555 0
M  V30 86585 O 850.705 -8.53963 -1.90717 0
M  V30 86586 C 850.215 -6.4116 -2.90739 0
M  V30 86587 C 850.925 -5.55375 -1.86963 0
M  V30 86588 N 850.875 -4.09448 -2.16152 0
M  V30 86589 H 853.714 -7.45574 -4.45629 0
M  V30 86590 H 853.986 -5.85864 -3.679 0
M  V30 86591 H 853.118 -7.84412 -2.24479 0
M  V30 86592 H 850.463 -5.73457 -0.888562 0
M  V30 86593 H 850.183 -5.90877 -3.88583 0
M  V30 86594 H 849.192 -6.6596 -2.58858 0
M  V30 86595 H 851.026 -8.16339 -3.92049 0
M  V30 86596 P 849.155 -8.7635 -1.60911 0
M  V30 86597 O 848.935 -10.1388 -1.11561 0
M  V30 86598 O 848.365 -8.36503 -2.79617 0
M  V30 86599 O 848.905 -7.71806 -0.42951 0
M  V30 86600 C 849.845 -7.67148 0.673689 0
M  V30 86601 C 849.115 -7.33374 1.95559 0
M  V30 86602 O 848.905 -5.88721 2.00726 0
M  V30 86603 C 847.715 -7.92526 2.10483 0
M  V30 86604 O 847.325 -8.02971 3.47653 0
M  V30 86605 C 846.835 -6.89602 1.41652 0
M  V30 86606 C 847.545 -5.59201 1.75185 0
M  V30 86607 N 847.495 -4.58235 0.662552 0
M  V30 86608 C 847.575 -4.7683 -0.704049 0
M  V30 86609 N 847.495 -3.66233 -1.39775 0
M  V30 86610 C 847.355 -2.66526 -0.431739 0
M  V30 86611 C 847.225 -1.26394 -0.575992 0
M  V30 86612 N 847.105 -0.62859 0.67177 0
M  V30 86613 C 847.105 -1.27134 1.89385 0
M  V30 86614 N 846.975 -0.492035 2.96951 0
M  V30 86615 N 847.235 -2.58978 2.02907 0
M  V30 86616 C 847.355 -3.22433 0.832218 0
M  V30 86617 H 850.334 -8.65116 0.777161 0
M  V30 86618 H 850.606 -6.90173 0.474152 0
M  V30 86619 H 849.738 -7.66548 2.79458 0
M  V30 86620 P 845.775 -8.03563 3.84925 0
M  V30 86621 O 845.555 -8.85821 5.0569 0
M  V30 86622 O 844.985 -8.41101 2.65469 0
M  V30 86623 O 845.525 -6.4965 4.18908 0
M  V30 86624 C 846.465 -5.81037 5.05421 0
M  V30 86625 C 845.735 -4.78366 5.89277 0
M  V30 86626 O 845.525 -3.58302 5.08433 0
M  V30 86627 C 844.335 -5.17448 6.36119 0
M  V30 86628 O 843.945 -4.45271 7.53232 0
M  V30 86629 C 843.455 -4.74639 5.19936 0
M  V30 86630 C 844.165 -3.49432 4.70418 0
M  V30 86631 N 844.115 -3.31776 3.22945 0
M  V30 86632 H 846.954 -6.54213 5.71376 0
M  V30 86633 H 847.226 -5.30492 4.44033 0
M  V30 86634 H 846.358 -4.55889 6.76652 0
M  V30 86635 P 842.395 -4.23843 7.83734 0
M  V30 86636 O 842.175 -4.19407 9.29784 0
M  V30 86637 O 841.605 -5.24426 7.09156 0
M  V30 86638 O 842.145 -2.7935 7.20758 0
M  V30 86639 C 843.085 -1.7299 7.50419 0
M  V30 86640 C 842.355 -0.406376 7.57911 0
M  V30 86641 O 842.145 0.0897726 6.21935 0
M  V30 86642 C 840.955 -0.447224 8.1878 0
M  V30 86643 O 840.565 0.825065 8.71101 0
M  V30 86644 C 840.075 -0.783801 6.99623 0
M  V30 86645 C 840.785 -0.0619192 5.85967 0
M  V30 86646 N 840.735 -0.7859 4.56281 0
M  V30 86647 H 843.574 -1.93423 8.4679 0
M  V30 86648 H 843.846 -1.68181 6.71046 0
M  V30 86649 H 842.978 0.289041 8.15388 0
M  V30 86650 P 839.015 1.17771 8.83182 0
M  V30 86651 O 838.795 2.07206 9.98732 0
M  V30 86652 O 838.225 -0.0743816 8.81969 0
M  V30 86653 O 838.765 1.97652 7.47304 0
M  V30 86654 C 839.705 3.01133 7.08783 0
M  V30 86655 C 838.975 4.12613 6.37049 0
M  V30 86656 O 838.765 3.72827 4.97879 0
M  V30 86657 C 837.575 4.45085 6.88694 0
M  V30 86658 O 837.185 5.7877 6.5624 0
M  V30 86659 C 836.695 3.47817 6.12078 0
M  V30 86660 C 837.405 3.39414 4.77697 0
M  V30 86661 N 837.355 2.04615 4.15333 0
M  V30 86662 H 840.194 3.41248 7.98759 0
M  V30 86663 H 840.466 2.5837 6.41742 0
M  V30 86664 H 839.598 5.02657 6.42673 0
M  V30 86665 P 835.635 6.144 6.45285 0
M  V30 86666 O 835.415 7.54673 6.86199 0
M  V30 86667 O 834.845 5.12391 7.179 0
M  V30 86668 O 835.385 5.99158 4.88404 0
M  V30 86669 C 836.325 6.60234 3.96415 0
M  V30 86670 C 835.595 7.08259 2.72856 0
M  V30 86671 O 835.385 5.9427 1.83651 0
M  V30 86672 C 834.195 7.64886 2.9555 0
M  V30 86673 O 833.805 8.53963 1.90717 0
M  V30 86674 C 833.315 6.4116 2.90739 0
M  V30 86675 C 834.025 5.55375 1.86963 0
M  V30 86676 N 833.975 4.09448 2.16152 0
M  V30 86677 H 836.814 7.45574 4.45629 0
M  V30 86678 H 837.086 5.85864 3.679 0
M  V30 86679 H 836.218 7.84412 2.24479 0
M  V30 86680 H 833.563 5.73457 0.888562 0
M  V30 86681 H 833.283 5.90877 3.88583 0
M  V30 86682 H 832.292 6.6596 2.58858 0
M  V30 86683 H 834.126 8.16339 3.92049 0
M  V30 86684 P 832.255 8.7635 1.60911 0
M  V30 86685 O 832.035 10.1388 1.11561 0
M  V30 86686 O 831.465 8.36503 2.79617 0
M  V30 86687 O 832.005 7.71806 0.42951 0
M  V30 86688 C 832.945 7.67148 -0.673689 0
M  V30 86689 C 832.215 7.33374 -1.95559 0
M  V30 86690 O 832.005 5.88721 -2.00726 0
M  V30 86691 C 830.815 7.92526 -2.10483 0
M  V30 86692 O 830.425 8.02971 -3.47653 0
M  V30 86693 C 829.935 6.89602 -1.41652 0
M  V30 86694 C 830.645 5.59201 -1.75185 0
M  V30 86695 N 830.595 4.58301 -0.657969 0
M  V30 86696 C 830.675 4.79019 0.692603 0
M  V30 86697 N 830.605 3.69736 1.38998 0
M  V30 86698 C 830.455 2.70474 0.438135 0
M  V30 86699 C 830.325 1.30327 0.538142 0
M  V30 86700 N 830.315 0.64304 1.69192 0
M  V30 86701 N 830.205 0.611027 -0.605183 0
M  V30 86702 C 830.215 1.27002 -1.75953 0
M  V30 86703 N 830.335 2.56038 -1.98546 0
M  V30 86704 C 830.455 3.22681 -0.822541 0
M  V30 86705 H 833.434 8.65116 -0.777161 0
M  V30 86706 H 833.706 6.9022 -0.46725 0
M  V30 86707 H 832.838 7.66548 -2.79458 0
M  V30 86708 H 830.183 5.16165 -2.65183 0
M  V30 86709 H 829.903 7.06433 -0.329384 0
M  V30 86710 H 828.912 6.90926 -1.82021 0
M  V30 86711 H 830.746 8.90873 -1.62657 0
M  V30 86712 H 830.787 5.77785 1.13874 0
M  V30 86713 H 830.406 1.15585 2.57991 0
M  V30 86714 H 830.217 -0.382989 1.69835 0
M  V30 86715 H 830.109 0.653331 -2.64449 0
M  V30 86716 P 828.875 8.03563 -3.84925 0
M  V30 86717 O 828.655 8.85821 -5.0569 0
M  V30 86718 O 828.085 8.41101 -2.65469 0
M  V30 86719 O 828.625 6.4965 -4.18908 0
M  V30 86720 C 829.565 5.80886 -5.05289 0
M  V30 86721 C 828.835 4.78366 -5.89277 0
M  V30 86722 O 828.625 3.58302 -5.08433 0
M  V30 86723 C 827.435 5.16748 -6.36559 0
M  V30 86724 O 827.045 4.45271 -7.53232 0
M  V30 86725 C 826.555 4.74572 -5.19863 0
M  V30 86726 C 827.265 3.49373 -4.70338 0
M  V30 86727 N 827.215 3.31704 -3.22876 0
M  V30 86728 C 827.065 2.03326 -2.74871 0
M  V30 86729 O 826.975 1.06486 -3.48076 0
M  V30 86730 N 827.025 1.91838 -1.37456 0
M  V30 86731 C 827.115 2.94295 -0.462035 0
M  V30 86732 C 827.265 4.25064 -1.05249 0
M  V30 86733 C 827.315 4.40214 -2.39192 0
M  V30 86734 H 830.056 6.54063 -5.71245 0
M  V30 86735 H 830.325 5.30339 -4.43905 0
M  V30 86736 H 829.458 4.55889 -6.76652 0
M  V30 86737 H 826.803 2.6167 -5.17842 0
M  V30 86738 H 826.524 5.52155 -4.41878 0
M  V30 86739 H 825.532 4.51918 -5.53297 0
M  V30 86740 H 827.366 6.25055 -6.55162 0
M  V30 86741 H 827.437 5.39798 -2.81523 0
M  V30 86742 P 825.495 4.23843 -7.83734 0
M  V30 86743 O 825.275 4.19407 -9.29784 0
M  V30 86744 O 824.705 5.24426 -7.09156 0
M  V30 86745 O 825.245 2.7935 -7.20758 0
M  V30 86746 C 826.185 1.7299 -7.50419 0
M  V30 86747 C 825.455 0.406376 -7.57911 0
M  V30 86748 O 825.245 -0.0897726 -6.21935 0
M  V30 86749 C 824.055 0.447224 -8.1878 0
M  V30 86750 O 823.665 -0.825065 -8.71101 0
M  V30 86751 C 823.175 0.783801 -6.99623 0
M  V30 86752 C 823.885 0.0619192 -5.85967 0
M  V30 86753 N 823.835 0.7859 -4.56281 0
M  V30 86754 H 826.674 1.93423 -8.4679 0
M  V30 86755 H 826.946 1.68181 -6.71046 0
M  V30 86756 H 826.078 -0.289041 -8.15388 0
M  V30 86757 P 822.115 -1.17771 -8.83182 0
M  V30 86758 O 821.895 -2.07206 -9.98732 0
M  V30 86759 O 821.325 0.0743816 -8.81969 0
M  V30 86760 O 821.865 -1.97652 -7.47304 0
M  V30 86761 C 822.805 -3.01133 -7.08783 0
M  V30 86762 C 822.075 -4.12613 -6.37049 0
M  V30 86763 O 821.865 -3.72827 -4.97879 0
M  V30 86764 C 820.675 -4.45085 -6.88694 0
M  V30 86765 O 820.285 -5.7877 -6.5624 0
M  V30 86766 C 819.795 -3.47817 -6.12078 0
M  V30 86767 C 820.505 -3.39414 -4.77697 0
M  V30 86768 N 820.455 -2.04199 -4.15538 0
M  V30 86769 C 820.535 -0.821545 -4.76977 0
M  V30 86770 N 820.465 0.1794 -3.94592 0
M  V30 86771 C 820.315 -0.419121 -2.70776 0
M  V30 86772 C 820.185 0.109072 -1.40577 0
M  V30 86773 N 820.175 1.4104 -1.1344 0
M  V30 86774 N 820.065 -0.764381 -0.39411 0
M  V30 86775 C 820.075 -2.06587 -0.664135 0
M  V30 86776 N 820.195 -2.67948 -1.82153 0
M  V30 86777 C 820.315 -1.77942 -2.8147 0
M  V30 86778 H 823.294 -3.41248 -7.98759 0
M  V30 86779 H 823.566 -2.57728 -6.42 0
M  V30 86780 H 822.698 -5.02657 -6.42673 0
M  V30 86781 H 820.043 -4.11708 -4.08956 0
M  V30 86782 H 819.763 -2.49626 -6.61679 0
M  V30 86783 H 818.772 -3.8662 -6.00862 0
M  V30 86784 H 820.606 -4.29991 -7.97006 0
M  V30 86785 H 820.647 -0.702451 -5.84696 0
M  V30 86786 H 820.266 2.09647 -1.89651 0
M  V30 86787 H 820.077 1.73358 -0.160575 0
M  V30 86788 H 819.969 -2.71695 0.195838 0
M  V30 86789 P 818.735 -6.144 -6.45285 0
M  V30 86790 O 818.515 -7.54673 -6.86199 0
M  V30 86791 O 817.945 -5.12391 -7.179 0
M  V30 86792 O 818.485 -5.99236 -4.88467 0
M  V30 86793 C 819.425 -6.60234 -3.96415 0
M  V30 86794 C 818.695 -7.08079 -2.736 0
M  V30 86795 O 818.485 -5.94365 -1.8368 0
M  V30 86796 C 817.295 -7.64886 -2.9555 0
M  V30 86797 O 816.905 -8.5406 -1.90739 0
M  V30 86798 C 816.415 -6.4116 -2.90739 0
M  V30 86799 C 817.125 -5.55375 -1.86963 0
M  V30 86800 N 817.075 -4.09664 -2.15742 0
M  V30 86801 C 816.925 -3.22231 -1.08477 0
M  V30 86802 O 816.835 -3.68951 0.0600489 0
M  V30 86803 N 816.875 -1.76692 -1.48799 0
M  V30 86804 C 816.975 -1.41695 -2.57602 0
M  V30 86805 N 816.925 -0.107296 -2.75791 0
M  V30 86806 C 817.125 -2.29178 -3.69733 0
M  V30 86807 C 817.175 -3.62753 -3.42653 0
M  V30 86808 H 819.915 -7.45488 -4.45578 0
M  V30 86809 H 820.185 -5.86232 -3.67314 0
M  V30 86810 H 819.318 -7.84508 -2.24507 0
M  V30 86811 H 816.663 -5.73556 -0.888715 0
M  V30 86812 H 816.383 -5.9096 -3.88638 0
M  V30 86813 H 815.392 -6.66053 -2.58894 0
M  V30 86814 H 817.226 -8.16339 -3.92049 0
M  V30 86815 H 817.298 -4.33052 -4.24913 0
M  V30 86816 H 817.196 -1.9103 -4.71577 0
M  V30 86817 H 816.808 0.521221 -1.95056 0
M  V30 86818 H 817.004 0.286429 -3.70695 0
M  V30 86819 P 815.355 -8.7635 -1.60911 0
M  V30 86820 O 815.135 -10.1388 -1.11561 0
M  V30 86821 O 814.565 -8.36503 -2.79617 0
M  V30 86822 O 815.105 -7.71806 -0.42951 0
M  V30 86823 C 816.045 -7.66948 0.673514 0
M  V30 86824 C 815.315 -7.33374 1.95559 0
M  V30 86825 O 815.105 -5.88721 2.00726 0
M  V30 86826 C 813.915 -7.92218 2.1125 0
M  V30 86827 O 813.525 -8.02971 3.47653 0
M  V30 86828 C 813.035 -6.89504 1.41631 0
M  V30 86829 C 813.745 -5.59106 1.75155 0
M  V30 86830 N 813.695 -4.58136 0.662409 0
M  V30 86831 C 813.545 -3.26059 1.02863 0
M  V30 86832 O 813.455 -2.90743 2.19009 0
M  V30 86833 N 813.505 -2.35995 -0.0155585 0
M  V30 86834 C 813.595 -2.65248 -1.35603 0
M  V30 86835 O 813.545 -1.75605 -2.20651 0
M  V30 86836 C 813.745 -4.05747 -1.64698 0
M  V30 86837 C 813.855 -4.42345 -3.09553 0
M  V30 86838 C 813.795 -4.96734 -0.652411 0
M  V30 86839 H 816.536 -8.64917 0.776982 0
M  V30 86840 H 816.805 -6.89974 0.474015 0
M  V30 86841 H 815.938 -7.66548 2.79458 0
M  V30 86842 H 813.283 -5.16076 2.65138 0
M  V30 86843 H 813.004 -7.06433 0.329384 0
M  V30 86844 H 812.012 -6.90829 1.81996 0
M  V30 86845 H 813.846 -8.90774 1.62639 0
M  V30 86846 H 813.917 -6.02181 -0.895285 0
M  V30 86847 H 812.887 -4.80252 -3.45468 0
M  V30 86848 H 814.624 -5.20015 -3.22119 0
M  V30 86849 H 814.136 -3.53269 -3.67833 0
M  V30 86850 H 813.4 -1.39558 0.227499 0
M  V30 86851 P 811.975 -8.03563 3.84925 0
M  V30 86852 O 811.755 -8.85821 5.0569 0
M  V30 86853 O 811.185 -8.41101 2.65469 0
M  V30 86854 O 811.725 -6.4965 4.18908 0
M  V30 86855 C 812.665 -5.81037 5.05421 0
M  V30 86856 C 811.935 -4.78366 5.89277 0
M  V30 86857 O 811.725 -3.58302 5.08433 0
M  V30 86858 C 810.535 -5.17448 6.36119 0
M  V30 86859 O 810.145 -4.45271 7.53232 0
M  V30 86860 C 809.655 -4.74639 5.19936 0
M  V30 86861 C 810.365 -3.49432 4.70418 0
M  V30 86862 N 810.315 -3.32099 3.22613 0
M  V30 86863 H 813.154 -6.54213 5.71376 0
M  V30 86864 H 813.426 -5.30936 4.43503 0
M  V30 86865 H 812.558 -4.55889 6.76652 0
M  V30 86866 H 809.903 -2.61715 5.17932 0
M  V30 86867 H 809.623 -5.52155 4.41878 0
M  V30 86868 H 808.632 -4.51981 5.53374 0
M  V30 86869 H 810.466 -6.25124 6.55234 0
M  V30 86870 P 808.595 -4.23843 7.83734 0
M  V30 86871 O 808.375 -4.19407 9.29784 0
M  V30 86872 O 807.805 -5.24426 7.09156 0
M  V30 86873 O 808.345 -2.7935 7.20758 0
M  V30 86874 C 809.285 -1.7299 7.50419 0
M  V30 86875 C 808.555 -0.406376 7.57911 0
M  V30 86876 O 808.345 0.0897726 6.21935 0
M  V30 86877 C 807.155 -0.447224 8.1878 0
M  V30 86878 O 806.765 0.825065 8.71101 0
M  V30 86879 C 806.275 -0.783801 6.99623 0
M  V30 86880 C 806.985 -0.0619192 5.85967 0
M  V30 86881 N 806.935 -0.7859 4.56281 0
M  V30 86882 H 809.774 -1.93423 8.4679 0
M  V30 86883 H 810.046 -1.68181 6.71046 0
M  V30 86884 H 809.178 0.289041 8.15388 0
M  V30 86885 P 805.215 1.17771 8.83182 0
M  V30 86886 O 804.995 2.07206 9.98732 0
M  V30 86887 O 804.425 -0.0743816 8.81969 0
M  V30 86888 O 804.965 1.97652 7.47304 0
M  V30 86889 C 805.905 3.01133 7.08783 0
M  V30 86890 C 805.175 4.12613 6.37049 0
M  V30 86891 O 804.965 3.72827 4.97879 0
M  V30 86892 C 803.775 4.45085 6.88694 0
M  V30 86893 O 803.385 5.7877 6.5624 0
M  V30 86894 C 802.895 3.47817 6.12078 0
M  V30 86895 C 803.605 3.39414 4.77697 0
M  V30 86896 N 803.555 2.04199 4.15538 0
M  V30 86897 H 806.394 3.41248 7.98759 0
M  V30 86898 H 806.666 2.57728 6.42 0
M  V30 86899 H 805.798 5.02657 6.42673 0
M  V30 86900 H 803.143 4.11708 4.08956 0
M  V30 86901 H 802.863 2.49626 6.61679 0
M  V30 86902 H 801.872 3.8662 6.00862 0
M  V30 86903 H 803.706 4.29991 7.97006 0
M  V30 86904 P 801.835 6.144 6.45285 0
M  V30 86905 O 801.615 7.54673 6.86199 0
M  V30 86906 O 801.045 5.12391 7.179 0
M  V30 86907 O 801.585 5.99158 4.88404 0
M  V30 86908 C 802.525 6.60234 3.96415 0
M  V30 86909 C 801.795 7.08259 2.72856 0
M  V30 86910 O 801.585 5.9427 1.83651 0
M  V30 86911 C 800.395 7.64886 2.9555 0
M  V30 86912 O 800.005 8.53963 1.90717 0
M  V30 86913 C 799.515 6.4116 2.90739 0
M  V30 86914 C 800.225 5.55375 1.86963 0
M  V30 86915 N 800.175 4.09664 2.15742 0
M  V30 86916 H 803.014 7.45574 4.45629 0
M  V30 86917 H 803.286 5.86232 3.67314 0
M  V30 86918 H 802.418 7.84412 2.24479 0
M  V30 86919 P 798.455 8.7635 1.60911 0
M  V30 86920 O 798.235 10.1388 1.11561 0
M  V30 86921 O 797.665 8.36503 2.79617 0
M  V30 86922 O 798.205 7.71806 0.42951 0
M  V30 86923 C 799.145 7.67148 -0.673689 0
M  V30 86924 C 798.415 7.33374 -1.95559 0
M  V30 86925 O 798.205 5.88721 -2.00726 0
M  V30 86926 C 797.015 7.92526 -2.10483 0
M  V30 86927 O 796.625 8.02971 -3.47653 0
M  V30 86928 C 796.135 6.89602 -1.41652 0
M  V30 86929 C 796.845 5.59201 -1.75185 0
M  V30 86930 N 796.795 4.58235 -0.662552 0
M  V30 86931 H 799.634 8.65116 -0.777161 0
M  V30 86932 H 799.906 6.90173 -0.474152 0
M  V30 86933 H 799.038 7.66548 -2.79458 0
M  V30 86934 P 795.075 8.03563 -3.84925 0
M  V30 86935 O 794.855 8.85821 -5.0569 0
M  V30 86936 O 794.285 8.41101 -2.65469 0
M  V30 86937 O 794.825 6.4965 -4.18908 0
M  V30 86938 C 795.765 5.81037 -5.05421 0
M  V30 86939 C 795.035 4.78366 -5.89277 0
M  V30 86940 O 794.825 3.58302 -5.08433 0
M  V30 86941 C 793.635 5.17448 -6.36119 0
M  V30 86942 O 793.245 4.45271 -7.53232 0
M  V30 86943 C 792.755 4.74639 -5.19936 0
M  V30 86944 C 793.465 3.49432 -4.70418 0
M  V30 86945 N 793.415 3.32099 -3.22613 0
M  V30 86946 H 796.254 6.54213 -5.71376 0
M  V30 86947 H 796.526 5.30936 -4.43503 0
M  V30 86948 H 795.658 4.55889 -6.76652 0
M  V30 86949 H 793.003 2.61715 -5.17932 0
M  V30 86950 H 792.723 5.52155 -4.41878 0
M  V30 86951 H 791.732 4.51981 -5.53374 0
M  V30 86952 H 793.566 6.25124 -6.55234 0
M  V30 86953 P 791.695 4.23843 -7.83734 0
M  V30 86954 O 791.475 4.19407 -9.29784 0
M  V30 86955 O 790.905 5.24426 -7.09156 0
M  V30 86956 O 791.445 2.7935 -7.20758 0
M  V30 86957 C 792.385 1.7299 -7.50419 0
M  V30 86958 C 791.655 0.406376 -7.57911 0
M  V30 86959 O 791.445 -0.0897726 -6.21935 0
M  V30 86960 C 790.255 0.447224 -8.1878 0
M  V30 86961 O 789.865 -0.825065 -8.71101 0
M  V30 86962 C 789.375 0.783801 -6.99623 0
M  V30 86963 C 790.085 0.0619192 -5.85967 0
M  V30 86964 N 790.035 0.790462 -4.56202 0
M  V30 86965 H 792.874 1.93423 -8.4679 0
M  V30 86966 H 793.146 1.68852 -6.70877 0
M  V30 86967 H 792.278 -0.289041 -8.15388 0
M  V30 86968 H 789.623 -0.927006 -5.72848 0
M  V30 86969 H 789.343 1.86973 -6.82036 0
M  V30 86970 H 788.352 0.403953 -7.13357 0
M  V30 86971 H 790.186 1.20599 -8.97534 0
M  V30 86972 P 788.315 -1.17771 -8.83182 0
M  V30 86973 O 788.095 -2.07206 -9.98732 0
M  V30 86974 O 787.525 0.0743816 -8.81969 0
M  V30 86975 O 788.065 -1.97652 -7.47304 0
M  V30 86976 C 789.005 -3.01133 -7.08783 0
M  V30 86977 C 788.275 -4.12613 -6.37049 0
M  V30 86978 O 788.065 -3.72827 -4.97879 0
M  V30 86979 C 786.875 -4.45085 -6.88694 0
M  V30 86980 O 786.485 -5.7877 -6.5624 0
M  V30 86981 C 785.995 -3.47817 -6.12078 0
M  V30 86982 C 786.705 -3.39414 -4.77697 0
M  V30 86983 N 786.655 -2.04615 -4.15333 0
M  V30 86984 H 789.494 -3.41248 -7.98759 0
M  V30 86985 H 789.766 -2.5837 -6.41742 0
M  V30 86986 H 788.898 -5.02657 -6.42673 0
M  V30 86987 P 784.935 -6.144 -6.45285 0
M  V30 86988 O 784.715 -7.54673 -6.86199 0
M  V30 86989 O 784.145 -5.12391 -7.179 0
M  V30 86990 O 784.685 -5.99158 -4.88404 0
M  V30 86991 C 785.625 -6.60234 -3.96415 0
M  V30 86992 C 784.895 -7.08259 -2.72856 0
M  V30 86993 O 784.685 -5.9427 -1.83651 0
M  V30 86994 C 783.495 -7.64886 -2.9555 0
M  V30 86995 O 783.105 -8.53963 -1.90717 0
M  V30 86996 C 782.615 -6.4116 -2.90739 0
M  V30 86997 C 783.325 -5.55375 -1.86963 0
M  V30 86998 N 783.275 -4.09664 -2.15742 0
M  V30 86999 H 786.114 -7.45574 -4.45629 0
M  V30 87000 H 786.386 -5.86232 -3.67314 0
M  V30 87001 H 785.518 -7.84412 -2.24479 0
M  V30 87002 P 781.555 -8.7635 -1.60911 0
M  V30 87003 O 781.335 -10.1388 -1.11561 0
M  V30 87004 O 780.765 -8.36503 -2.79617 0
M  V30 87005 O 781.305 -7.71806 -0.42951 0
M  V30 87006 C 782.245 -7.66948 0.673514 0
M  V30 87007 C 781.515 -7.33374 1.95559 0
M  V30 87008 O 781.305 -5.88721 2.00726 0
M  V30 87009 C 780.115 -7.92218 2.1125 0
M  V30 87010 O 779.725 -8.02971 3.47653 0
M  V30 87011 C 779.235 -6.89504 1.41631 0
M  V30 87012 C 779.945 -5.59106 1.75155 0
M  V30 87013 N 779.895 -4.58136 0.662409 0
M  V30 87014 C 779.745 -3.26059 1.02863 0
M  V30 87015 O 779.655 -2.90743 2.19009 0
M  V30 87016 N 779.705 -2.35995 -0.0155585 0
M  V30 87017 C 779.795 -2.65248 -1.35603 0
M  V30 87018 C 779.945 -4.05747 -1.64698 0
M  V30 87019 C 779.995 -4.96734 -0.652411 0
M  V30 87020 H 782.736 -8.64917 0.776982 0
M  V30 87021 H 783.005 -6.89974 0.474015 0
M  V30 87022 H 782.138 -7.66548 2.79458 0
M  V30 87023 H 779.483 -5.16076 2.65138 0
M  V30 87024 H 779.204 -7.06433 0.329384 0
M  V30 87025 H 778.212 -6.90829 1.81996 0
M  V30 87026 H 780.046 -8.90774 1.62639 0
M  V30 87027 H 780.117 -6.02181 -0.895285 0
M  V30 87028 P 778.175 -8.03563 3.84925 0
M  V30 87029 O 777.955 -8.85821 5.0569 0
M  V30 87030 O 777.385 -8.41101 2.65469 0
M  V30 87031 O 777.925 -6.4965 4.18908 0
M  V30 87032 C 778.865 -5.81037 5.05421 0
M  V30 87033 C 778.135 -4.78366 5.89277 0
M  V30 87034 O 777.925 -3.58302 5.08433 0
M  V30 87035 C 776.735 -5.17448 6.36119 0
M  V30 87036 O 776.345 -4.45271 7.53232 0
M  V30 87037 C 775.855 -4.74639 5.19936 0
M  V30 87038 C 776.565 -3.49432 4.70418 0
M  V30 87039 N 776.515 -3.31776 3.22945 0
M  V30 87040 H 779.354 -6.54213 5.71376 0
M  V30 87041 H 779.626 -5.30492 4.44033 0
M  V30 87042 H 778.758 -4.55889 6.76652 0
M  V30 87043 P 774.795 -4.23843 7.83734 0
M  V30 87044 O 774.575 -4.19407 9.29784 0
M  V30 87045 O 774.005 -5.24426 7.09156 0
M  V30 87046 O 774.545 -2.7935 7.20758 0
M  V30 87047 C 775.485 -1.7299 7.50419 0
M  V30 87048 C 774.755 -0.406376 7.57911 0
M  V30 87049 O 774.545 0.0897726 6.21935 0
M  V30 87050 C 773.355 -0.447224 8.1878 0
M  V30 87051 O 772.965 0.825065 8.71101 0
M  V30 87052 C 772.475 -0.783801 6.99623 0
M  V30 87053 C 773.185 -0.0619192 5.85967 0
M  V30 87054 N 773.135 -0.7859 4.56281 0
M  V30 87055 H 775.974 -1.93423 8.4679 0
M  V30 87056 H 776.246 -1.68181 6.71046 0
M  V30 87057 H 775.378 0.289041 8.15388 0
M  V30 87058 P 771.415 1.17771 8.83182 0
M  V30 87059 O 771.195 2.07206 9.98732 0
M  V30 87060 O 770.625 -0.0743816 8.81969 0
M  V30 87061 O 771.165 1.97652 7.47304 0
M  V30 87062 C 772.105 3.01133 7.08783 0
M  V30 87063 C 771.375 4.12613 6.37049 0
M  V30 87064 O 771.165 3.72827 4.97879 0
M  V30 87065 C 769.975 4.45085 6.88694 0
M  V30 87066 O 769.585 5.7877 6.5624 0
M  V30 87067 C 769.095 3.47817 6.12078 0
M  V30 87068 C 769.805 3.39414 4.77697 0
M  V30 87069 N 769.755 2.04615 4.15333 0
M  V30 87070 C 769.835 0.803897 4.75249 0
M  V30 87071 N 769.755 -0.197615 3.91502 0
M  V30 87072 C 769.615 0.413002 2.66823 0
M  V30 87073 C 769.485 -0.157221 1.38007 0
M  V30 87074 N 769.365 0.833136 0.390236 0
M  V30 87075 C 769.365 2.19402 0.623885 0
M  V30 87076 N 769.235 2.97622 -0.449677 0
M  V30 87077 N 769.495 2.73005 1.83601 0
M  V30 87078 C 769.615 1.78786 2.80935 0
M  V30 87079 H 772.594 3.41248 7.98759 0
M  V30 87080 H 772.866 2.5837 6.41742 0
M  V30 87081 H 771.998 5.02657 6.42673 0
M  V30 87082 P 768.035 6.144 6.45285 0
M  V30 87083 O 767.815 7.54673 6.86199 0
M  V30 87084 O 767.245 5.12391 7.179 0
M  V30 87085 O 767.785 5.99236 4.88467 0
M  V30 87086 C 768.725 6.60234 3.96415 0
M  V30 87087 C 767.995 7.08079 2.736 0
M  V30 87088 O 767.785 5.94365 1.8368 0
M  V30 87089 C 766.595 7.64886 2.9555 0
M  V30 87090 O 766.205 8.5406 1.90739 0
M  V30 87091 C 765.715 6.4116 2.90739 0
M  V30 87092 C 766.425 5.55375 1.86963 0
M  V30 87093 N 766.375 4.09664 2.15742 0
M  V30 87094 C 766.225 3.22231 1.08477 0
M  V30 87095 O 766.135 3.68951 -0.0600489 0
M  V30 87096 N 766.175 1.76692 1.48799 0
M  V30 87097 C 766.275 1.41695 2.57602 0
M  V30 87098 N 766.225 0.107296 2.75791 0
M  V30 87099 C 766.425 2.29178 3.69733 0
M  V30 87100 C 766.475 3.62753 3.42653 0
M  V30 87101 H 769.215 7.45488 4.45578 0
M  V30 87102 H 769.485 5.86232 3.67314 0
M  V30 87103 H 768.618 7.84508 2.24507 0
M  V30 87104 H 765.963 5.73556 0.888715 0
M  V30 87105 H 765.683 5.9096 3.88638 0
M  V30 87106 H 764.692 6.66053 2.58894 0
M  V30 87107 H 766.526 8.16339 3.92049 0
M  V30 87108 H 766.598 4.33052 4.24913 0
M  V30 87109 H 766.496 1.9103 4.71577 0
M  V30 87110 H 766.108 -0.521221 1.95056 0
M  V30 87111 H 766.304 -0.286429 3.70695 0
M  V30 87112 P 764.656 8.7635 1.60911 0
M  V30 87113 O 764.436 10.1388 1.11561 0
M  V30 87114 O 763.866 8.36503 2.79617 0
M  V30 87115 O 764.406 7.71806 0.42951 0
M  V30 87116 C 765.346 7.67148 -0.673689 0
M  V30 87117 C 764.616 7.33374 -1.95559 0
M  V30 87118 O 764.406 5.88721 -2.00726 0
M  V30 87119 C 763.216 7.92526 -2.10483 0
M  V30 87120 O 762.826 8.02971 -3.47653 0
M  V30 87121 C 762.336 6.89602 -1.41652 0
M  V30 87122 C 763.046 5.59201 -1.75185 0
M  V30 87123 N 762.996 4.58235 -0.662552 0
M  V30 87124 H 765.835 8.65116 -0.777161 0
M  V30 87125 H 766.107 6.90173 -0.474152 0
M  V30 87126 H 765.239 7.66548 -2.79458 0
M  V30 87127 P 761.276 8.03563 -3.84925 0
M  V30 87128 O 761.056 8.85821 -5.0569 0
M  V30 87129 O 760.486 8.41101 -2.65469 0
M  V30 87130 O 761.026 6.4965 -4.18908 0
M  V30 87131 C 761.966 5.81037 -5.05421 0
M  V30 87132 C 761.236 4.78366 -5.89277 0
M  V30 87133 O 761.026 3.58302 -5.08433 0
M  V30 87134 C 759.836 5.17448 -6.36119 0
M  V30 87135 O 759.446 4.45271 -7.53232 0
M  V30 87136 C 758.956 4.74639 -5.19936 0
M  V30 87137 C 759.666 3.49432 -4.70418 0
M  V30 87138 N 759.616 3.31776 -3.22945 0
M  V30 87139 H 762.455 6.54213 -5.71376 0
M  V30 87140 H 762.727 5.30492 -4.44033 0
M  V30 87141 H 761.859 4.55889 -6.76652 0
M  V30 87142 P 757.896 4.23843 -7.83734 0
M  V30 87143 O 757.676 4.19407 -9.29784 0
M  V30 87144 O 757.106 5.24426 -7.09156 0
M  V30 87145 O 757.646 2.7935 -7.20758 0
M  V30 87146 C 758.586 1.7299 -7.50419 0
M  V30 87147 C 757.856 0.406376 -7.57911 0
M  V30 87148 O 757.646 -0.0897726 -6.21935 0
M  V30 87149 C 756.456 0.447224 -8.1878 0
M  V30 87150 O 756.066 -0.825065 -8.71101 0
M  V30 87151 C 755.576 0.783801 -6.99623 0
M  V30 87152 C 756.286 0.0619192 -5.85967 0
M  V30 87153 N 756.236 0.7859 -4.56281 0
M  V30 87154 H 759.075 1.93423 -8.4679 0
M  V30 87155 H 759.347 1.68181 -6.71046 0
M  V30 87156 H 758.479 -0.289041 -8.15388 0
M  V30 87157 P 754.516 -1.17771 -8.83182 0
M  V30 87158 O 754.296 -2.07206 -9.98732 0
M  V30 87159 O 753.726 0.0743816 -8.81969 0
M  V30 87160 O 754.266 -1.97678 -7.474 0
M  V30 87161 C 755.206 -3.01133 -7.08783 0
M  V30 87162 C 754.476 -4.1203 -6.37546 0
M  V30 87163 O 754.266 -3.72887 -4.9796 0
M  V30 87164 C 753.076 -4.45085 -6.88694 0
M  V30 87165 O 752.686 -5.78836 -6.56315 0
M  V30 87166 C 752.196 -3.47817 -6.12078 0
M  V30 87167 C 752.906 -3.39414 -4.77697 0
M  V30 87168 N 752.856 -2.04615 -4.15333 0
M  V30 87169 C 752.706 -1.96929 -2.77162 0
M  V30 87170 O 752.616 -3.02017 -2.12006 0
M  V30 87171 N 752.656 -0.55485 -2.24237 0
M  V30 87172 C 752.756 0.367808 -2.9169 0
M  V30 87173 N 752.706 1.53426 -2.29427 0
M  V30 87174 C 752.906 0.319148 -4.33828 0
M  V30 87175 C 752.956 -0.920672 -4.90433 0
M  V30 87176 H 755.696 -3.41209 -7.98667 0
M  V30 87177 H 755.966 -2.5837 -6.41742 0
M  V30 87178 H 755.099 -5.02718 -6.42752 0
M  V30 87179 H 752.444 -4.11779 -4.09026 0
M  V30 87180 H 752.164 -2.49661 -6.61772 0
M  V30 87181 H 751.173 -3.86674 -6.00946 0
M  V30 87182 H 753.007 -4.29991 -7.97006 0
M  V30 87183 H 753.079 -1.00589 -5.98303 0
M  V30 87184 H 752.977 1.22639 -4.93799 0
M  V30 87185 H 752.589 1.56819 -1.27167 0
M  V30 87186 H 752.785 2.41062 -2.83063 0
M  V30 87187 P 751.136 -6.144 -6.45285 0
M  V30 87188 O 750.916 -7.54673 -6.86199 0
M  V30 87189 O 750.346 -5.12391 -7.179 0
M  V30 87190 O 750.886 -5.99236 -4.88467 0
M  V30 87191 C 751.826 -6.60234 -3.96415 0
M  V30 87192 C 751.096 -7.08079 -2.736 0
M  V30 87193 O 750.886 -5.94365 -1.8368 0
M  V30 87194 C 749.696 -7.64886 -2.9555 0
M  V30 87195 O 749.306 -8.5406 -1.90739 0
M  V30 87196 C 748.816 -6.4116 -2.90739 0
M  V30 87197 C 749.526 -5.55375 -1.86963 0
M  V30 87198 N 749.476 -4.09664 -2.15742 0
M  V30 87199 C 749.326 -3.22231 -1.08477 0
M  V30 87200 O 749.236 -3.68951 0.0600489 0
M  V30 87201 N 749.276 -1.76692 -1.48799 0
M  V30 87202 C 749.376 -1.41695 -2.57602 0
M  V30 87203 N 749.326 -0.107296 -2.75791 0
M  V30 87204 C 749.526 -2.29178 -3.69733 0
M  V30 87205 C 749.576 -3.62753 -3.42653 0
M  V30 87206 H 752.316 -7.45488 -4.45578 0
M  V30 87207 H 752.586 -5.86232 -3.67314 0
M  V30 87208 H 751.719 -7.84508 -2.24507 0
M  V30 87209 H 749.064 -5.73556 -0.888715 0
M  V30 87210 H 748.784 -5.9096 -3.88638 0
M  V30 87211 H 747.793 -6.66053 -2.58894 0
M  V30 87212 H 749.627 -8.16339 -3.92049 0
M  V30 87213 H 749.699 -4.33052 -4.24913 0
M  V30 87214 H 749.597 -1.9103 -4.71577 0
M  V30 87215 H 749.209 0.521221 -1.95056 0
M  V30 87216 H 749.405 0.286429 -3.70695 0
M  V30 87217 P 747.756 -8.7635 -1.60911 0
M  V30 87218 O 747.536 -10.1388 -1.11561 0
M  V30 87219 O 746.966 -8.36503 -2.79617 0
M  V30 87220 O 747.506 -7.71806 -0.42951 0
M  V30 87221 C 748.446 -7.67148 0.673689 0
M  V30 87222 C 747.716 -7.33374 1.95559 0
M  V30 87223 O 747.506 -5.88721 2.00726 0
M  V30 87224 C 746.316 -7.92526 2.10483 0
M  V30 87225 O 745.926 -8.02971 3.47653 0
M  V30 87226 C 745.436 -6.89602 1.41652 0
M  V30 87227 C 746.146 -5.59201 1.75185 0
M  V30 87228 N 746.096 -4.58235 0.662552 0
M  V30 87229 H 748.935 -8.65116 0.777161 0
M  V30 87230 H 749.207 -6.90173 0.474152 0
M  V30 87231 H 748.339 -7.66548 2.79458 0
M  V30 87232 P 744.376 -8.03563 3.84925 0
M  V30 87233 O 744.156 -8.85821 5.0569 0
M  V30 87234 O 743.586 -8.41101 2.65469 0
M  V30 87235 O 744.126 -6.4965 4.18908 0
M  V30 87236 C 745.066 -5.81037 5.05421 0
M  V30 87237 C 744.336 -4.78366 5.89277 0
M  V30 87238 O 744.126 -3.58302 5.08433 0
M  V30 87239 C 742.936 -5.17448 6.36119 0
M  V30 87240 O 742.546 -4.45271 7.53232 0
M  V30 87241 C 742.056 -4.74639 5.19936 0
M  V30 87242 C 742.766 -3.49432 4.70418 0
M  V30 87243 N 742.716 -3.31776 3.22945 0
M  V30 87244 H 745.555 -6.54213 5.71376 0
M  V30 87245 H 745.827 -5.30492 4.44033 0
M  V30 87246 H 744.959 -4.55889 6.76652 0
M  V30 87247 P 740.996 -4.23843 7.83734 0
M  V30 87248 O 740.776 -4.19407 9.29784 0
M  V30 87249 O 740.206 -5.24426 7.09156 0
M  V30 87250 O 740.746 -2.7935 7.20758 0
M  V30 87251 C 741.686 -1.7299 7.50419 0
M  V30 87252 C 740.956 -0.406376 7.57911 0
M  V30 87253 O 740.746 0.0897726 6.21935 0
M  V30 87254 C 739.556 -0.447224 8.1878 0
M  V30 87255 O 739.166 0.825065 8.71101 0
M  V30 87256 C 738.676 -0.783801 6.99623 0
M  V30 87257 C 739.386 -0.0619192 5.85967 0
M  V30 87258 N 739.336 -0.7859 4.56281 0
M  V30 87259 H 742.175 -1.93423 8.4679 0
M  V30 87260 H 742.447 -1.68181 6.71046 0
M  V30 87261 H 741.579 0.289041 8.15388 0
M  V30 87262 P 737.616 1.17771 8.83182 0
M  V30 87263 O 737.396 2.07206 9.98732 0
M  V30 87264 O 736.826 -0.0743816 8.81969 0
M  V30 87265 O 737.366 1.97652 7.47304 0
M  V30 87266 C 738.306 3.01133 7.08783 0
M  V30 87267 C 737.576 4.12613 6.37049 0
M  V30 87268 O 737.366 3.72827 4.97879 0
M  V30 87269 C 736.176 4.45085 6.88694 0
M  V30 87270 O 735.786 5.7877 6.5624 0
M  V30 87271 C 735.296 3.47817 6.12078 0
M  V30 87272 C 736.006 3.39414 4.77697 0
M  V30 87273 N 735.956 2.04615 4.15333 0
M  V30 87274 H 738.795 3.41248 7.98759 0
M  V30 87275 H 739.067 2.5837 6.41742 0
M  V30 87276 H 738.199 5.02657 6.42673 0
M  V30 87277 P 734.236 6.144 6.45285 0
M  V30 87278 O 734.016 7.54673 6.86199 0
M  V30 87279 O 733.446 5.12391 7.179 0
M  V30 87280 O 733.986 5.99158 4.88404 0
M  V30 87281 C 734.926 6.60234 3.96415 0
M  V30 87282 C 734.196 7.08259 2.72856 0
M  V30 87283 O 733.986 5.9427 1.83651 0
M  V30 87284 C 732.796 7.64886 2.9555 0
M  V30 87285 O 732.406 8.53963 1.90717 0
M  V30 87286 C 731.916 6.4116 2.90739 0
M  V30 87287 C 732.626 5.55375 1.86963 0
M  V30 87288 N 732.576 4.09664 2.15742 0
M  V30 87289 H 735.415 7.45574 4.45629 0
M  V30 87290 H 735.687 5.86232 3.67314 0
M  V30 87291 H 734.819 7.84412 2.24479 0
M  V30 87292 P 730.856 8.7635 1.60911 0
M  V30 87293 O 730.636 10.1388 1.11561 0
M  V30 87294 O 730.066 8.36503 2.79617 0
M  V30 87295 O 730.606 7.71806 0.42951 0
M  V30 87296 C 731.546 7.67148 -0.673689 0
M  V30 87297 C 730.816 7.33374 -1.95559 0
M  V30 87298 O 730.606 5.88721 -2.00726 0
M  V30 87299 C 729.416 7.92526 -2.10483 0
M  V30 87300 O 729.026 8.02971 -3.47653 0
M  V30 87301 C 728.536 6.89602 -1.41652 0
M  V30 87302 C 729.246 5.59201 -1.75185 0
M  V30 87303 N 729.196 4.58301 -0.657969 0
M  V30 87304 H 732.035 8.65116 -0.777161 0
M  V30 87305 H 732.307 6.9022 -0.46725 0
M  V30 87306 H 731.439 7.66548 -2.79458 0
M  V30 87307 H 728.784 5.16165 -2.65183 0
M  V30 87308 H 728.504 7.06433 -0.329384 0
M  V30 87309 H 727.513 6.90926 -1.82021 0
M  V30 87310 H 729.347 8.90873 -1.62657 0
M  V30 87311 P 727.476 8.03563 -3.84925 0
M  V30 87312 O 727.256 8.85821 -5.0569 0
M  V30 87313 O 726.686 8.41101 -2.65469 0
M  V30 87314 O 727.226 6.4965 -4.18908 0
M  V30 87315 C 728.166 5.81037 -5.05421 0
M  V30 87316 C 727.436 4.78366 -5.89277 0
M  V30 87317 O 727.226 3.58302 -5.08433 0
M  V30 87318 C 726.036 5.17448 -6.36119 0
M  V30 87319 O 725.646 4.45271 -7.53232 0
M  V30 87320 C 725.156 4.74639 -5.19936 0
M  V30 87321 C 725.866 3.49432 -4.70418 0
M  V30 87322 N 725.816 3.31776 -3.22945 0
M  V30 87323 H 728.655 6.54213 -5.71376 0
M  V30 87324 H 728.927 5.30492 -4.44033 0
M  V30 87325 H 728.059 4.55889 -6.76652 0
M  V30 87326 P 724.096 4.23843 -7.83734 0
M  V30 87327 O 723.876 4.19407 -9.29784 0
M  V30 87328 O 723.306 5.24426 -7.09156 0
M  V30 87329 O 723.846 2.7935 -7.20758 0
M  V30 87330 C 724.786 1.7299 -7.50419 0
M  V30 87331 C 724.056 0.406376 -7.57911 0
M  V30 87332 O 723.846 -0.0897726 -6.21935 0
M  V30 87333 C 722.656 0.447224 -8.1878 0
M  V30 87334 O 722.266 -0.825065 -8.71101 0
M  V30 87335 C 721.776 0.783801 -6.99623 0
M  V30 87336 C 722.486 0.0619192 -5.85967 0
M  V30 87337 N 722.436 0.790462 -4.56202 0
M  V30 87338 H 725.275 1.93423 -8.4679 0
M  V30 87339 H 725.547 1.68852 -6.70877 0
M  V30 87340 H 724.679 -0.289041 -8.15388 0
M  V30 87341 H 722.024 -0.927006 -5.72848 0
M  V30 87342 H 721.744 1.86973 -6.82036 0
M  V30 87343 H 720.753 0.403953 -7.13357 0
M  V30 87344 H 722.587 1.20599 -8.97534 0
M  V30 87345 P 720.716 -1.17771 -8.83182 0
M  V30 87346 O 720.496 -2.07206 -9.98732 0
M  V30 87347 O 719.926 0.0743816 -8.81969 0
M  V30 87348 O 720.466 -1.97652 -7.47304 0
M  V30 87349 C 721.406 -3.01133 -7.08783 0
M  V30 87350 C 720.676 -4.12613 -6.37049 0
M  V30 87351 O 720.466 -3.72827 -4.97879 0
M  V30 87352 C 719.276 -4.45085 -6.88694 0
M  V30 87353 O 718.886 -5.7877 -6.5624 0
M  V30 87354 C 718.396 -3.47817 -6.12078 0
M  V30 87355 C 719.106 -3.39414 -4.77697 0
M  V30 87356 N 719.056 -2.04615 -4.15333 0
M  V30 87357 H 721.895 -3.41248 -7.98759 0
M  V30 87358 H 722.167 -2.5837 -6.41742 0
M  V30 87359 H 721.299 -5.02657 -6.42673 0
M  V30 87360 P 717.336 -6.144 -6.45285 0
M  V30 87361 O 717.116 -7.54673 -6.86199 0
M  V30 87362 O 716.546 -5.12391 -7.179 0
M  V30 87363 O 717.086 -5.99158 -4.88404 0
M  V30 87364 C 718.026 -6.60234 -3.96415 0
M  V30 87365 C 717.296 -7.08259 -2.72856 0
M  V30 87366 O 717.086 -5.9427 -1.83651 0
M  V30 87367 C 715.896 -7.64886 -2.9555 0
M  V30 87368 O 715.506 -8.53963 -1.90717 0
M  V30 87369 C 715.016 -6.4116 -2.90739 0
M  V30 87370 C 715.726 -5.55375 -1.86963 0
M  V30 87371 N 715.676 -4.09664 -2.15742 0
M  V30 87372 H 718.515 -7.45574 -4.45629 0
M  V30 87373 H 718.787 -5.86232 -3.67314 0
M  V30 87374 H 717.919 -7.84412 -2.24479 0
M  V30 87375 P 713.956 -8.7635 -1.60911 0
M  V30 87376 O 713.736 -10.1388 -1.11561 0
M  V30 87377 O 713.166 -8.36503 -2.79617 0
M  V30 87378 O 713.706 -7.71806 -0.42951 0
M  V30 87379 C 714.646 -7.67148 0.673689 0
M  V30 87380 C 713.916 -7.33374 1.95559 0
M  V30 87381 O 713.706 -5.88721 2.00726 0
M  V30 87382 C 712.516 -7.92526 2.10483 0
M  V30 87383 O 712.126 -8.02971 3.47653 0
M  V30 87384 C 711.636 -6.89602 1.41652 0
M  V30 87385 C 712.346 -5.59201 1.75185 0
M  V30 87386 N 712.296 -4.58235 0.662552 0
M  V30 87387 H 715.135 -8.65116 0.777161 0
M  V30 87388 H 715.407 -6.90173 0.474152 0
M  V30 87389 H 714.539 -7.66548 2.79458 0
M  V30 87390 P 710.576 -8.03563 3.84925 0
M  V30 87391 O 710.356 -8.85821 5.0569 0
M  V30 87392 O 709.786 -8.41101 2.65469 0
M  V30 87393 O 710.326 -6.4965 4.18908 0
M  V30 87394 C 711.266 -5.81037 5.05421 0
M  V30 87395 C 710.536 -4.78366 5.89277 0
M  V30 87396 O 710.326 -3.58302 5.08433 0
M  V30 87397 C 709.136 -5.17448 6.36119 0
M  V30 87398 O 708.746 -4.45271 7.53232 0
M  V30 87399 C 708.256 -4.74639 5.19936 0
M  V30 87400 C 708.966 -3.49432 4.70418 0
M  V30 87401 N 708.916 -3.32099 3.22613 0
M  V30 87402 C 708.996 -4.28245 2.25527 0
M  V30 87403 N 708.926 -3.80823 1.04874 0
M  V30 87404 C 708.776 -2.44571 1.23535 0
M  V30 87405 C 708.646 -1.37068 0.330675 0
M  V30 87406 N 708.636 -1.51472 -0.990824 0
M  V30 87407 N 708.526 -0.138614 0.848756 0
M  V30 87408 C 708.536 0.00675923 2.16999 0
M  V30 87409 N 708.656 -0.904372 3.11122 0
M  V30 87410 C 708.776 -2.12707 2.56212 0
M  V30 87411 H 711.755 -6.54213 5.71376 0
M  V30 87412 H 712.027 -5.30936 4.43503 0
M  V30 87413 H 711.159 -4.55889 6.76652 0
M  V30 87414 H 708.504 -2.61715 5.17932 0
M  V30 87415 H 708.224 -5.52155 4.41878 0
M  V30 87416 H 707.233 -4.51981 5.53374 0
M  V30 87417 H 709.067 -6.25124 6.55234 0
M  V30 87418 H 709.108 -5.34372 2.47488 0
M  V30 87419 H 708.727 -2.45153 -1.4078 0
M  V30 87420 H 708.538 -0.688422 -1.59911 0
M  V30 87421 H 708.43 1.02584 2.52346 0
M  V30 87422 P 707.196 -4.23843 7.83734 0
M  V30 87423 O 706.976 -4.19407 9.29784 0
M  V30 87424 O 706.406 -5.24426 7.09156 0
M  V30 87425 O 706.946 -2.7935 7.20758 0
M  V30 87426 C 707.886 -1.7299 7.50419 0
M  V30 87427 C 707.156 -0.406376 7.57911 0
M  V30 87428 O 706.946 0.0897726 6.21935 0
M  V30 87429 C 705.756 -0.447224 8.1878 0
M  V30 87430 O 705.366 0.825065 8.71101 0
M  V30 87431 C 704.876 -0.783801 6.99623 0
M  V30 87432 C 705.586 -0.0619192 5.85967 0
M  V30 87433 N 705.536 -0.790462 4.56202 0
M  V30 87434 H 708.375 -1.93423 8.4679 0
M  V30 87435 H 708.647 -1.68852 6.70877 0
M  V30 87436 H 707.779 0.289041 8.15388 0
M  V30 87437 H 705.124 0.927006 5.72848 0
M  V30 87438 H 704.844 -1.86973 6.82036 0
M  V30 87439 H 703.853 -0.403953 7.13357 0
M  V30 87440 H 705.687 -1.20599 8.97534 0
M  V30 87441 P 703.816 1.17771 8.83182 0
M  V30 87442 O 703.596 2.07206 9.98732 0
M  V30 87443 O 703.026 -0.0743816 8.81969 0
M  V30 87444 O 703.566 1.97652 7.47304 0
M  V30 87445 C 704.506 3.01133 7.08783 0
M  V30 87446 C 703.776 4.12613 6.37049 0
M  V30 87447 O 703.566 3.72827 4.97879 0
M  V30 87448 C 702.376 4.45085 6.88694 0
M  V30 87449 O 701.986 5.7877 6.5624 0
M  V30 87450 C 701.496 3.47817 6.12078 0
M  V30 87451 C 702.206 3.39414 4.77697 0
M  V30 87452 N 702.156 2.04615 4.15333 0
M  V30 87453 H 704.995 3.41248 7.98759 0
M  V30 87454 H 705.267 2.5837 6.41742 0
M  V30 87455 H 704.399 5.02657 6.42673 0
M  V30 87456 P 700.436 6.144 6.45285 0
M  V30 87457 O 700.216 7.54673 6.86199 0
M  V30 87458 O 699.646 5.12391 7.179 0
M  V30 87459 O 700.186 5.99158 4.88404 0
M  V30 87460 C 701.126 6.60234 3.96415 0
M  V30 87461 C 700.396 7.08259 2.72856 0
M  V30 87462 O 700.186 5.9427 1.83651 0
M  V30 87463 C 698.996 7.64886 2.9555 0
M  V30 87464 O 698.606 8.53963 1.90717 0
M  V30 87465 C 698.116 6.4116 2.90739 0
M  V30 87466 C 698.826 5.55375 1.86963 0
M  V30 87467 N 698.776 4.09448 2.16152 0
M  V30 87468 H 701.615 7.45574 4.45629 0
M  V30 87469 H 701.887 5.85864 3.679 0
M  V30 87470 H 701.019 7.84412 2.24479 0
M  V30 87471 H 698.364 5.73457 0.888562 0
M  V30 87472 H 698.084 5.90877 3.88583 0
M  V30 87473 H 697.093 6.6596 2.58858 0
M  V30 87474 H 698.927 8.16339 3.92049 0
M  V30 87475 P 697.056 8.7635 1.60911 0
M  V30 87476 O 696.836 10.1388 1.11561 0
M  V30 87477 O 696.266 8.36503 2.79617 0
M  V30 87478 O 696.806 7.71806 0.42951 0
M  V30 87479 C 697.746 7.67148 -0.673689 0
M  V30 87480 C 697.016 7.33374 -1.95559 0
M  V30 87481 O 696.806 5.88721 -2.00726 0
M  V30 87482 C 695.616 7.92526 -2.10483 0
M  V30 87483 O 695.226 8.02971 -3.47653 0
M  V30 87484 C 694.736 6.89602 -1.41652 0
M  V30 87485 C 695.446 5.59201 -1.75185 0
M  V30 87486 N 695.396 4.58301 -0.657969 0
M  V30 87487 H 698.235 8.65116 -0.777161 0
M  V30 87488 H 698.507 6.9022 -0.46725 0
M  V30 87489 H 697.639 7.66548 -2.79458 0
M  V30 87490 H 694.984 5.16165 -2.65183 0
M  V30 87491 H 694.704 7.06433 -0.329384 0
M  V30 87492 H 693.713 6.90926 -1.82021 0
M  V30 87493 H 695.547 8.90873 -1.62657 0
M  V30 87494 P 693.676 8.03563 -3.84925 0
M  V30 87495 O 693.456 8.85821 -5.0569 0
M  V30 87496 O 692.886 8.41101 -2.65469 0
M  V30 87497 O 693.426 6.4965 -4.18908 0
M  V30 87498 C 694.366 5.81037 -5.05421 0
M  V30 87499 C 693.636 4.78366 -5.89277 0
M  V30 87500 O 693.426 3.58302 -5.08433 0
M  V30 87501 C 692.236 5.17448 -6.36119 0
M  V30 87502 O 691.846 4.45271 -7.53232 0
M  V30 87503 C 691.356 4.74639 -5.19936 0
M  V30 87504 C 692.066 3.49432 -4.70418 0
M  V30 87505 N 692.016 3.32099 -3.22613 0
M  V30 87506 H 694.855 6.54213 -5.71376 0
M  V30 87507 H 695.127 5.30936 -4.43503 0
M  V30 87508 H 694.259 4.55889 -6.76652 0
M  V30 87509 H 691.604 2.61715 -5.17932 0
M  V30 87510 H 691.324 5.52155 -4.41878 0
M  V30 87511 H 690.333 4.51981 -5.53374 0
M  V30 87512 H 692.167 6.25124 -6.55234 0
M  V30 87513 P 690.296 4.23843 -7.83734 0
M  V30 87514 O 690.076 4.19407 -9.29784 0
M  V30 87515 O 689.506 5.24426 -7.09156 0
M  V30 87516 O 690.046 2.7935 -7.20758 0
M  V30 87517 C 690.986 1.7299 -7.50419 0
M  V30 87518 C 690.256 0.406376 -7.57911 0
M  V30 87519 O 690.046 -0.0897726 -6.21935 0
M  V30 87520 C 688.856 0.447224 -8.1878 0
M  V30 87521 O 688.466 -0.825065 -8.71101 0
M  V30 87522 C 687.976 0.783801 -6.99623 0
M  V30 87523 C 688.686 0.0619192 -5.85967 0
M  V30 87524 N 688.636 0.7859 -4.56281 0
M  V30 87525 H 691.475 1.93423 -8.4679 0
M  V30 87526 H 691.747 1.68181 -6.71046 0
M  V30 87527 H 690.879 -0.289041 -8.15388 0
M  V30 87528 P 686.916 -1.17771 -8.83182 0
M  V30 87529 O 686.696 -2.07206 -9.98732 0
M  V30 87530 O 686.126 0.0743816 -8.81969 0
M  V30 87531 O 686.666 -1.97652 -7.47304 0
M  V30 87532 C 687.606 -3.01133 -7.08783 0
M  V30 87533 C 686.876 -4.12613 -6.37049 0
M  V30 87534 O 686.666 -3.72827 -4.97879 0
M  V30 87535 C 685.476 -4.45085 -6.88694 0
M  V30 87536 O 685.086 -5.7877 -6.5624 0
M  V30 87537 C 684.596 -3.47817 -6.12078 0
M  V30 87538 C 685.306 -3.39414 -4.77697 0
M  V30 87539 N 685.256 -2.04615 -4.15333 0
M  V30 87540 H 688.095 -3.41248 -7.98759 0
M  V30 87541 H 688.367 -2.5837 -6.41742 0
M  V30 87542 H 687.499 -5.02657 -6.42673 0
M  V30 87543 P 683.536 -6.144 -6.45285 0
M  V30 87544 O 683.316 -7.54673 -6.86199 0
M  V30 87545 O 682.746 -5.12391 -7.179 0
M  V30 87546 O 683.286 -5.99158 -4.88404 0
M  V30 87547 C 684.226 -6.60234 -3.96415 0
M  V30 87548 C 683.496 -7.08259 -2.72856 0
M  V30 87549 O 683.286 -5.9427 -1.83651 0
M  V30 87550 C 682.096 -7.64886 -2.9555 0
M  V30 87551 O 681.706 -8.53963 -1.90717 0
M  V30 87552 C 681.216 -6.4116 -2.90739 0
M  V30 87553 C 681.926 -5.55375 -1.86963 0
M  V30 87554 N 681.876 -4.09664 -2.15742 0
M  V30 87555 H 684.715 -7.45574 -4.45629 0
M  V30 87556 H 684.987 -5.86232 -3.67314 0
M  V30 87557 H 684.119 -7.84412 -2.24479 0
M  V30 87558 P 680.156 -8.7635 -1.60911 0
M  V30 87559 O 679.936 -10.1388 -1.11561 0
M  V30 87560 O 679.366 -8.36503 -2.79617 0
M  V30 87561 O 679.906 -7.71806 -0.42951 0
M  V30 87562 C 680.846 -7.66948 0.673514 0
M  V30 87563 C 680.116 -7.33374 1.95559 0
M  V30 87564 O 679.906 -5.88721 2.00726 0
M  V30 87565 C 678.716 -7.92218 2.1125 0
M  V30 87566 O 678.326 -8.02971 3.47653 0
M  V30 87567 C 677.836 -6.89504 1.41631 0
M  V30 87568 C 678.546 -5.59106 1.75155 0
M  V30 87569 N 678.496 -4.58136 0.662409 0
M  V30 87570 C 678.346 -3.26059 1.02863 0
M  V30 87571 O 678.256 -2.90743 2.19009 0
M  V30 87572 N 678.306 -2.35995 -0.0155585 0
M  V30 87573 C 678.396 -2.65248 -1.35603 0
M  V30 87574 C 678.546 -4.05747 -1.64698 0
M  V30 87575 C 678.596 -4.96734 -0.652411 0
M  V30 87576 H 681.337 -8.64917 0.776982 0
M  V30 87577 H 681.606 -6.89974 0.474015 0
M  V30 87578 H 680.739 -7.66548 2.79458 0
M  V30 87579 H 678.084 -5.16076 2.65138 0
M  V30 87580 H 677.805 -7.06433 0.329384 0
M  V30 87581 H 676.813 -6.90829 1.81996 0
M  V30 87582 H 678.647 -8.90774 1.62639 0
M  V30 87583 H 678.718 -6.02181 -0.895285 0
M  V30 87584 P 676.776 -8.03563 3.84925 0
M  V30 87585 O 676.556 -8.85821 5.0569 0
M  V30 87586 O 675.986 -8.41101 2.65469 0
M  V30 87587 O 676.526 -6.4965 4.18908 0
M  V30 87588 C 677.466 -5.81037 5.05421 0
M  V30 87589 C 676.736 -4.78366 5.89277 0
M  V30 87590 O 676.526 -3.58302 5.08433 0
M  V30 87591 C 675.336 -5.17448 6.36119 0
M  V30 87592 O 674.946 -4.45271 7.53232 0
M  V30 87593 C 674.456 -4.74639 5.19936 0
M  V30 87594 C 675.166 -3.49432 4.70418 0
M  V30 87595 N 675.116 -3.31776 3.22945 0
M  V30 87596 H 677.955 -6.54213 5.71376 0
M  V30 87597 H 678.227 -5.30492 4.44033 0
M  V30 87598 H 677.359 -4.55889 6.76652 0
M  V30 87599 P 673.396 -4.23843 7.83734 0
M  V30 87600 O 673.176 -4.19407 9.29784 0
M  V30 87601 O 672.606 -5.24426 7.09156 0
M  V30 87602 O 673.146 -2.7935 7.20758 0
M  V30 87603 C 674.086 -1.7299 7.50419 0
M  V30 87604 C 673.356 -0.406376 7.57911 0
M  V30 87605 O 673.146 0.0897726 6.21935 0
M  V30 87606 C 671.956 -0.447224 8.1878 0
M  V30 87607 O 671.566 0.825065 8.71101 0
M  V30 87608 C 671.076 -0.783801 6.99623 0
M  V30 87609 C 671.786 -0.0619192 5.85967 0
M  V30 87610 N 671.736 -0.7859 4.56281 0
M  V30 87611 H 674.575 -1.93423 8.4679 0
M  V30 87612 H 674.847 -1.68181 6.71046 0
M  V30 87613 H 673.979 0.289041 8.15388 0
M  V30 87614 P 670.016 1.17771 8.83182 0
M  V30 87615 O 669.796 2.07206 9.98732 0
M  V30 87616 O 669.226 -0.0743816 8.81969 0
M  V30 87617 O 669.766 1.97652 7.47304 0
M  V30 87618 C 670.706 3.01133 7.08783 0
M  V30 87619 C 669.976 4.12613 6.37049 0
M  V30 87620 O 669.766 3.72827 4.97879 0
M  V30 87621 C 668.576 4.45085 6.88694 0
M  V30 87622 O 668.186 5.7877 6.5624 0
M  V30 87623 C 667.696 3.47817 6.12078 0
M  V30 87624 C 668.406 3.39414 4.77697 0
M  V30 87625 N 668.356 2.04615 4.15333 0
M  V30 87626 H 671.195 3.41248 7.98759 0
M  V30 87627 H 671.467 2.5837 6.41742 0
M  V30 87628 H 670.599 5.02657 6.42673 0
M  V30 87629 P 666.636 6.144 6.45285 0
M  V30 87630 O 666.416 7.54673 6.86199 0
M  V30 87631 O 665.846 5.12391 7.179 0
M  V30 87632 O 666.386 5.99158 4.88404 0
M  V30 87633 C 667.326 6.60062 3.96313 0
M  V30 87634 C 666.596 7.08259 2.72856 0
M  V30 87635 O 666.386 5.9427 1.83651 0
M  V30 87636 C 665.196 7.65087 2.94749 0
M  V30 87637 O 664.806 8.53963 1.90717 0
M  V30 87638 C 664.316 6.41069 2.90698 0
M  V30 87639 C 665.026 5.5528 1.86931 0
M  V30 87640 N 664.976 4.09575 2.15696 0
M  V30 87641 C 664.826 3.24249 1.08435 0
M  V30 87642 O 664.736 3.63946 -0.0628747 0
M  V30 87643 N 664.786 1.90009 1.39973 0
M  V30 87644 C 664.876 1.34884 2.65614 0
M  V30 87645 O 664.826 0.123716 2.81728 0
M  V30 87646 C 665.026 2.3145 3.71736 0
M  V30 87647 C 665.136 1.75913 5.10438 0
M  V30 87648 C 665.076 3.63518 3.44754 0
M  V30 87649 H 667.817 7.45402 4.45526 0
M  V30 87650 H 668.086 5.86062 3.67208 0
M  V30 87651 H 667.219 7.84412 2.24479 0
M  V30 87652 H 664.564 5.73358 0.888409 0
M  V30 87653 H 664.285 5.90877 3.88583 0
M  V30 87654 H 663.293 6.65867 2.58821 0
M  V30 87655 H 665.127 8.16248 3.92006 0
M  V30 87656 H 665.198 4.34551 4.26383 0
M  V30 87657 H 664.168 1.85471 5.61775 0
M  V30 87658 H 665.905 2.31364 5.66257 0
M  V30 87659 H 665.417 0.695936 5.05229 0
M  V30 87660 H 664.681 1.26277 0.63625 0
M  V30 87661 P 663.256 8.7635 1.60911 0
M  V30 87662 O 663.036 10.1388 1.11561 0
M  V30 87663 O 662.466 8.36503 2.79617 0
M  V30 87664 O 663.006 7.71806 0.42951 0
M  V30 87665 C 663.946 7.67148 -0.673689 0
M  V30 87666 C 663.216 7.33374 -1.95559 0
M  V30 87667 O 663.006 5.88721 -2.00726 0
M  V30 87668 C 661.816 7.92526 -2.10483 0
M  V30 87669 O 661.426 8.02971 -3.47653 0
M  V30 87670 C 660.936 6.89602 -1.41652 0
M  V30 87671 C 661.646 5.59201 -1.75185 0
M  V30 87672 N 661.596 4.58301 -0.657969 0
M  V30 87673 C 661.676 4.79019 0.692603 0
M  V30 87674 N 661.606 3.69736 1.38998 0
M  V30 87675 C 661.456 2.70474 0.438135 0
M  V30 87676 C 661.326 1.30327 0.538142 0
M  V30 87677 N 661.316 0.64304 1.69192 0
M  V30 87678 N 661.206 0.611027 -0.605183 0
M  V30 87679 C 661.216 1.27002 -1.75953 0
M  V30 87680 N 661.336 2.56038 -1.98546 0
M  V30 87681 C 661.456 3.22681 -0.822541 0
M  V30 87682 H 664.435 8.65116 -0.777161 0
M  V30 87683 H 664.707 6.9022 -0.46725 0
M  V30 87684 H 663.839 7.66548 -2.79458 0
M  V30 87685 H 661.184 5.16165 -2.65183 0
M  V30 87686 H 660.904 7.06433 -0.329384 0
M  V30 87687 H 659.913 6.90926 -1.82021 0
M  V30 87688 H 661.747 8.90873 -1.62657 0
M  V30 87689 H 661.788 5.77785 1.13874 0
M  V30 87690 H 661.407 1.15585 2.57991 0
M  V30 87691 H 661.218 -0.382989 1.69835 0
M  V30 87692 H 661.11 0.653331 -2.64449 0
M  V30 87693 P 659.876 8.03563 -3.84925 0
M  V30 87694 O 659.656 8.85821 -5.0569 0
M  V30 87695 O 659.086 8.41101 -2.65469 0
M  V30 87696 O 659.626 6.4965 -4.18908 0
M  V30 87697 C 660.566 5.81037 -5.05421 0
M  V30 87698 C 659.836 4.78366 -5.89277 0
M  V30 87699 O 659.626 3.58302 -5.08433 0
M  V30 87700 C 658.436 5.17448 -6.36119 0
M  V30 87701 O 658.046 4.45271 -7.53232 0
M  V30 87702 C 657.556 4.74639 -5.19936 0
M  V30 87703 C 658.266 3.49432 -4.70418 0
M  V30 87704 N 658.216 3.31776 -3.22945 0
M  V30 87705 H 661.055 6.54213 -5.71376 0
M  V30 87706 H 661.327 5.30492 -4.44033 0
M  V30 87707 H 660.459 4.55889 -6.76652 0
M  V30 87708 P 656.496 4.23843 -7.83734 0
M  V30 87709 O 656.276 4.19407 -9.29784 0
M  V30 87710 O 655.706 5.24426 -7.09156 0
M  V30 87711 O 656.246 2.7935 -7.20758 0
M  V30 87712 C 657.186 1.7299 -7.50419 0
M  V30 87713 C 656.456 0.406376 -7.57911 0
M  V30 87714 O 656.246 -0.0897726 -6.21935 0
M  V30 87715 C 655.056 0.447224 -8.1878 0
M  V30 87716 O 654.666 -0.825065 -8.71101 0
M  V30 87717 C 654.176 0.783801 -6.99623 0
M  V30 87718 C 654.886 0.0619192 -5.85967 0
M  V30 87719 N 654.836 0.7859 -4.56281 0
M  V30 87720 H 657.675 1.93423 -8.4679 0
M  V30 87721 H 657.947 1.68181 -6.71046 0
M  V30 87722 H 657.079 -0.289041 -8.15388 0
M  V30 87723 P 653.116 -1.17771 -8.83182 0
M  V30 87724 O 652.896 -2.07206 -9.98732 0
M  V30 87725 O 652.326 0.0743816 -8.81969 0
M  V30 87726 O 652.866 -1.97652 -7.47304 0
M  V30 87727 C 653.806 -3.01133 -7.08783 0
M  V30 87728 C 653.076 -4.12613 -6.37049 0
M  V30 87729 O 652.866 -3.72827 -4.97879 0
M  V30 87730 C 651.676 -4.45085 -6.88694 0
M  V30 87731 O 651.286 -5.7877 -6.5624 0
M  V30 87732 C 650.796 -3.47817 -6.12078 0
M  V30 87733 C 651.506 -3.39414 -4.77697 0
M  V30 87734 N 651.456 -2.04615 -4.15333 0
M  V30 87735 H 654.295 -3.41248 -7.98759 0
M  V30 87736 H 654.567 -2.5837 -6.41742 0
M  V30 87737 H 653.699 -5.02657 -6.42673 0
M  V30 87738 P 649.736 -6.144 -6.45285 0
M  V30 87739 O 649.516 -7.54673 -6.86199 0
M  V30 87740 O 648.946 -5.12391 -7.179 0
M  V30 87741 O 649.486 -5.99236 -4.88467 0
M  V30 87742 C 650.426 -6.60234 -3.96415 0
M  V30 87743 C 649.696 -7.08079 -2.736 0
M  V30 87744 O 649.486 -5.94365 -1.8368 0
M  V30 87745 C 648.296 -7.64886 -2.9555 0
M  V30 87746 O 647.906 -8.5406 -1.90739 0
M  V30 87747 C 647.416 -6.4116 -2.90739 0
M  V30 87748 C 648.126 -5.55375 -1.86963 0
M  V30 87749 N 648.076 -4.09664 -2.15742 0
M  V30 87750 C 647.926 -3.22231 -1.08477 0
M  V30 87751 O 647.836 -3.68951 0.0600489 0
M  V30 87752 N 647.876 -1.76692 -1.48799 0
M  V30 87753 C 647.976 -1.41695 -2.57602 0
M  V30 87754 N 647.926 -0.107296 -2.75791 0
M  V30 87755 C 648.126 -2.29178 -3.69733 0
M  V30 87756 C 648.176 -3.62753 -3.42653 0
M  V30 87757 H 650.916 -7.45488 -4.45578 0
M  V30 87758 H 651.186 -5.86232 -3.67314 0
M  V30 87759 H 650.319 -7.84508 -2.24507 0
M  V30 87760 H 647.664 -5.73556 -0.888715 0
M  V30 87761 H 647.384 -5.9096 -3.88638 0
M  V30 87762 H 646.393 -6.66053 -2.58894 0
M  V30 87763 H 648.227 -8.16339 -3.92049 0
M  V30 87764 H 648.299 -4.33052 -4.24913 0
M  V30 87765 H 648.197 -1.9103 -4.71577 0
M  V30 87766 H 647.809 0.521221 -1.95056 0
M  V30 87767 H 648.005 0.286429 -3.70695 0
M  V30 87768 P 646.356 -8.7635 -1.60911 0
M  V30 87769 O 646.136 -10.1388 -1.11561 0
M  V30 87770 O 645.566 -8.36503 -2.79617 0
M  V30 87771 O 646.106 -7.71806 -0.42951 0
M  V30 87772 C 647.046 -7.67148 0.673689 0
M  V30 87773 C 646.316 -7.33374 1.95559 0
M  V30 87774 O 646.106 -5.88721 2.00726 0
M  V30 87775 C 644.916 -7.92526 2.10483 0
M  V30 87776 O 644.526 -8.02971 3.47653 0
M  V30 87777 C 644.036 -6.89602 1.41652 0
M  V30 87778 C 644.746 -5.59201 1.75185 0
M  V30 87779 N 644.696 -4.58235 0.662552 0
M  V30 87780 H 647.535 -8.65116 0.777161 0
M  V30 87781 H 647.807 -6.90173 0.474152 0
M  V30 87782 H 646.939 -7.66548 2.79458 0
M  V30 87783 P 642.976 -8.03563 3.84925 0
M  V30 87784 O 642.756 -8.85821 5.0569 0
M  V30 87785 O 642.186 -8.41101 2.65469 0
M  V30 87786 O 642.726 -6.4965 4.18908 0
M  V30 87787 C 643.666 -5.81037 5.05421 0
M  V30 87788 C 642.936 -4.78366 5.89277 0
M  V30 87789 O 642.726 -3.58302 5.08433 0
M  V30 87790 C 641.536 -5.17448 6.36119 0
M  V30 87791 O 641.146 -4.45271 7.53232 0
M  V30 87792 C 640.656 -4.74639 5.19936 0
M  V30 87793 C 641.366 -3.49432 4.70418 0
M  V30 87794 N 641.316 -3.31776 3.22945 0
M  V30 87795 H 644.155 -6.54213 5.71376 0
M  V30 87796 H 644.427 -5.30492 4.44033 0
M  V30 87797 H 643.559 -4.55889 6.76652 0
M  V30 87798 P 639.596 -4.23843 7.83734 0
M  V30 87799 O 639.376 -4.19407 9.29784 0
M  V30 87800 O 638.806 -5.24426 7.09156 0
M  V30 87801 O 639.346 -2.7935 7.20758 0
M  V30 87802 C 640.286 -1.7299 7.50419 0
M  V30 87803 C 639.556 -0.406376 7.57911 0
M  V30 87804 O 639.346 0.0897726 6.21935 0
M  V30 87805 C 638.156 -0.447224 8.1878 0
M  V30 87806 O 637.766 0.825065 8.71101 0
M  V30 87807 C 637.276 -0.783801 6.99623 0
M  V30 87808 C 637.986 -0.0619192 5.85967 0
M  V30 87809 N 637.936 -0.7859 4.56281 0
M  V30 87810 H 640.775 -1.93423 8.4679 0
M  V30 87811 H 641.047 -1.68181 6.71046 0
M  V30 87812 H 640.179 0.289041 8.15388 0
M  V30 87813 P 636.216 1.17771 8.83182 0
M  V30 87814 O 635.996 2.07206 9.98732 0
M  V30 87815 O 635.426 -0.0743816 8.81969 0
M  V30 87816 O 635.966 1.97652 7.47304 0
M  V30 87817 C 636.906 3.01133 7.08783 0
M  V30 87818 C 636.176 4.12613 6.37049 0
M  V30 87819 O 635.966 3.72827 4.97879 0
M  V30 87820 C 634.776 4.45085 6.88694 0
M  V30 87821 O 634.386 5.7877 6.5624 0
M  V30 87822 C 633.896 3.47817 6.12078 0
M  V30 87823 C 634.606 3.39414 4.77697 0
M  V30 87824 N 634.556 2.04199 4.15538 0
M  V30 87825 C 634.636 0.821545 4.76977 0
M  V30 87826 N 634.566 -0.1794 3.94592 0
M  V30 87827 C 634.416 0.419121 2.70776 0
M  V30 87828 C 634.286 -0.109072 1.40577 0
M  V30 87829 N 634.276 -1.4104 1.1344 0
M  V30 87830 N 634.166 0.764381 0.39411 0
M  V30 87831 C 634.176 2.06587 0.664135 0
M  V30 87832 N 634.296 2.67948 1.82153 0
M  V30 87833 C 634.416 1.77942 2.8147 0
M  V30 87834 H 637.395 3.41248 7.98759 0
M  V30 87835 H 637.667 2.57728 6.42 0
M  V30 87836 H 636.799 5.02657 6.42673 0
M  V30 87837 H 634.144 4.11708 4.08956 0
M  V30 87838 H 633.864 2.49626 6.61679 0
M  V30 87839 H 632.873 3.8662 6.00862 0
M  V30 87840 H 634.707 4.29991 7.97006 0
M  V30 87841 H 634.748 0.702451 5.84696 0
M  V30 87842 H 634.367 -2.09647 1.89651 0
M  V30 87843 H 634.178 -1.73358 0.160575 0
M  V30 87844 H 634.07 2.71695 -0.195838 0
M  V30 87845 P 632.836 6.144 6.45285 0
M  V30 87846 O 632.616 7.54673 6.86199 0
M  V30 87847 O 632.046 5.12391 7.179 0
M  V30 87848 O 632.586 5.99158 4.88404 0
M  V30 87849 C 633.526 6.60062 3.96313 0
M  V30 87850 C 632.796 7.08259 2.72856 0
M  V30 87851 O 632.586 5.9427 1.83651 0
M  V30 87852 C 631.396 7.65087 2.94749 0
M  V30 87853 O 631.006 8.53963 1.90717 0
M  V30 87854 C 630.516 6.41069 2.90698 0
M  V30 87855 C 631.226 5.5528 1.86931 0
M  V30 87856 N 631.176 4.09575 2.15696 0
M  V30 87857 C 631.026 3.24249 1.08435 0
M  V30 87858 O 630.936 3.63946 -0.0628747 0
M  V30 87859 N 630.986 1.90009 1.39973 0
M  V30 87860 C 631.076 1.34884 2.65614 0
M  V30 87861 C 631.226 2.3145 3.71736 0
M  V30 87862 C 631.276 3.63518 3.44754 0
M  V30 87863 H 634.017 7.45402 4.45526 0
M  V30 87864 H 634.286 5.86062 3.67208 0
M  V30 87865 H 633.419 7.84412 2.24479 0
M  V30 87866 H 630.764 5.73358 0.888409 0
M  V30 87867 H 630.485 5.90877 3.88583 0
M  V30 87868 H 629.493 6.65867 2.58821 0
M  V30 87869 H 631.327 8.16248 3.92006 0
M  V30 87870 H 631.398 4.34551 4.26383 0
M  V30 87871 P 629.456 8.7635 1.60911 0
M  V30 87872 O 629.236 10.1388 1.11561 0
M  V30 87873 O 628.666 8.36503 2.79617 0
M  V30 87874 O 629.206 7.71806 0.42951 0
M  V30 87875 C 630.146 7.67148 -0.673689 0
M  V30 87876 C 629.416 7.33374 -1.95559 0
M  V30 87877 O 629.206 5.88721 -2.00726 0
M  V30 87878 C 628.016 7.92526 -2.10483 0
M  V30 87879 O 627.626 8.02971 -3.47653 0
M  V30 87880 C 627.136 6.89602 -1.41652 0
M  V30 87881 C 627.846 5.59201 -1.75185 0
M  V30 87882 N 627.796 4.58235 -0.662552 0
M  V30 87883 C 627.876 4.7683 0.704049 0
M  V30 87884 N 627.796 3.66233 1.39775 0
M  V30 87885 C 627.656 2.66526 0.431739 0
M  V30 87886 C 627.526 1.26394 0.575992 0
M  V30 87887 N 627.406 0.62859 -0.67177 0
M  V30 87888 C 627.406 1.27134 -1.89385 0
M  V30 87889 N 627.276 0.492035 -2.96951 0
M  V30 87890 N 627.536 2.58978 -2.02907 0
M  V30 87891 C 627.656 3.22433 -0.832218 0
M  V30 87892 H 630.635 8.65116 -0.777161 0
M  V30 87893 H 630.907 6.90173 -0.474152 0
M  V30 87894 H 630.039 7.66548 -2.79458 0
M  V30 87895 P 626.076 8.03563 -3.84925 0
M  V30 87896 O 625.856 8.85821 -5.0569 0
M  V30 87897 O 625.286 8.41101 -2.65469 0
M  V30 87898 O 625.826 6.4965 -4.18908 0
M  V30 87899 C 626.766 5.81037 -5.05421 0
M  V30 87900 C 626.036 4.78366 -5.89277 0
M  V30 87901 O 625.826 3.58302 -5.08433 0
M  V30 87902 C 624.636 5.17448 -6.36119 0
M  V30 87903 O 624.246 4.45271 -7.53232 0
M  V30 87904 C 623.756 4.74639 -5.19936 0
M  V30 87905 C 624.466 3.49432 -4.70418 0
M  V30 87906 N 624.416 3.32099 -3.22613 0
M  V30 87907 H 627.255 6.54213 -5.71376 0
M  V30 87908 H 627.527 5.30936 -4.43503 0
M  V30 87909 H 626.659 4.55889 -6.76652 0
M  V30 87910 H 624.004 2.61715 -5.17932 0
M  V30 87911 H 623.724 5.52155 -4.41878 0
M  V30 87912 H 622.733 4.51981 -5.53374 0
M  V30 87913 H 624.567 6.25124 -6.55234 0
M  V30 87914 P 622.696 4.23843 -7.83734 0
M  V30 87915 O 622.476 4.19407 -9.29784 0
M  V30 87916 O 621.906 5.24426 -7.09156 0
M  V30 87917 O 622.446 2.7935 -7.20758 0
M  V30 87918 C 623.386 1.7299 -7.50419 0
M  V30 87919 C 622.656 0.406376 -7.57911 0
M  V30 87920 O 622.446 -0.0897726 -6.21935 0
M  V30 87921 C 621.256 0.447224 -8.1878 0
M  V30 87922 O 620.866 -0.825065 -8.71101 0
M  V30 87923 C 620.376 0.783801 -6.99623 0
M  V30 87924 C 621.086 0.0619192 -5.85967 0
M  V30 87925 N 621.036 0.7859 -4.56281 0
M  V30 87926 H 623.875 1.93423 -8.4679 0
M  V30 87927 H 624.147 1.68181 -6.71046 0
M  V30 87928 H 623.279 -0.289041 -8.15388 0
M  V30 87929 P 619.316 -1.17771 -8.83182 0
M  V30 87930 O 619.096 -2.07206 -9.98732 0
M  V30 87931 O 618.526 0.0743816 -8.81969 0
M  V30 87932 O 619.066 -1.97652 -7.47304 0
M  V30 87933 C 620.006 -3.01133 -7.08783 0
M  V30 87934 C 619.276 -4.12613 -6.37049 0
M  V30 87935 O 619.066 -3.72827 -4.97879 0
M  V30 87936 C 617.876 -4.45085 -6.88694 0
M  V30 87937 O 617.486 -5.7877 -6.5624 0
M  V30 87938 C 616.996 -3.47817 -6.12078 0
M  V30 87939 C 617.706 -3.39414 -4.77697 0
M  V30 87940 N 617.656 -2.04199 -4.15538 0
M  V30 87941 H 620.495 -3.41248 -7.98759 0
M  V30 87942 H 620.767 -2.57728 -6.42 0
M  V30 87943 H 619.899 -5.02657 -6.42673 0
M  V30 87944 H 617.244 -4.11708 -4.08956 0
M  V30 87945 H 616.964 -2.49626 -6.61679 0
M  V30 87946 H 615.973 -3.8662 -6.00862 0
M  V30 87947 H 617.807 -4.29991 -7.97006 0
M  V30 87948 P 615.936 -6.144 -6.45285 0
M  V30 87949 O 615.716 -7.54673 -6.86199 0
M  V30 87950 O 615.146 -5.12391 -7.179 0
M  V30 87951 O 615.686 -5.99158 -4.88404 0
M  V30 87952 C 616.626 -6.60234 -3.96415 0
M  V30 87953 C 615.896 -7.08259 -2.72856 0
M  V30 87954 O 615.686 -5.9427 -1.83651 0
M  V30 87955 C 614.496 -7.64886 -2.9555 0
M  V30 87956 O 614.106 -8.53963 -1.90717 0
M  V30 87957 C 613.616 -6.4116 -2.90739 0
M  V30 87958 C 614.326 -5.55375 -1.86963 0
M  V30 87959 N 614.276 -4.09664 -2.15742 0
M  V30 87960 H 617.115 -7.45574 -4.45629 0
M  V30 87961 H 617.387 -5.86232 -3.67314 0
M  V30 87962 H 616.519 -7.84412 -2.24479 0
M  V30 87963 P 612.556 -8.7635 -1.60911 0
M  V30 87964 O 612.336 -10.1388 -1.11561 0
M  V30 87965 O 611.766 -8.36503 -2.79617 0
M  V30 87966 O 612.306 -7.71806 -0.42951 0
M  V30 87967 C 613.246 -7.67148 0.673689 0
M  V30 87968 C 612.516 -7.33374 1.95559 0
M  V30 87969 O 612.306 -5.88721 2.00726 0
M  V30 87970 C 611.116 -7.92526 2.10483 0
M  V30 87971 O 610.726 -8.02971 3.47653 0
M  V30 87972 C 610.236 -6.89602 1.41652 0
M  V30 87973 C 610.946 -5.59201 1.75185 0
M  V30 87974 N 610.896 -4.58235 0.662552 0
M  V30 87975 H 613.735 -8.65116 0.777161 0
M  V30 87976 H 614.007 -6.90173 0.474152 0
M  V30 87977 H 613.139 -7.66548 2.79458 0
M  V30 87978 P 609.176 -8.03563 3.84925 0
M  V30 87979 O 608.956 -8.85821 5.0569 0
M  V30 87980 O 608.386 -8.41101 2.65469 0
M  V30 87981 O 608.926 -6.4965 4.18908 0
M  V30 87982 C 609.866 -5.81037 5.05421 0
M  V30 87983 C 609.136 -4.78366 5.89277 0
M  V30 87984 O 608.926 -3.58302 5.08433 0
M  V30 87985 C 607.736 -5.17448 6.36119 0
M  V30 87986 O 607.346 -4.45271 7.53232 0
M  V30 87987 C 606.856 -4.74639 5.19936 0
M  V30 87988 C 607.566 -3.49432 4.70418 0
M  V30 87989 N 607.516 -3.32099 3.22613 0
M  V30 87990 H 610.355 -6.54213 5.71376 0
M  V30 87991 H 610.627 -5.30936 4.43503 0
M  V30 87992 H 609.759 -4.55889 6.76652 0
M  V30 87993 H 607.104 -2.61715 5.17932 0
M  V30 87994 H 606.824 -5.52155 4.41878 0
M  V30 87995 H 605.833 -4.51981 5.53374 0
M  V30 87996 H 607.667 -6.25124 6.55234 0
M  V30 87997 P 605.796 -4.23843 7.83734 0
M  V30 87998 O 605.576 -4.19407 9.29784 0
M  V30 87999 O 605.006 -5.24426 7.09156 0
M  V30 88000 O 605.546 -2.7935 7.20758 0
M  V30 88001 C 606.486 -1.7299 7.50419 0
M  V30 88002 C 605.756 -0.406376 7.57911 0
M  V30 88003 O 605.546 0.0897726 6.21935 0
M  V30 88004 C 604.356 -0.447224 8.1878 0
M  V30 88005 O 603.966 0.825065 8.71101 0
M  V30 88006 C 603.476 -0.783801 6.99623 0
M  V30 88007 C 604.186 -0.0619192 5.85967 0
M  V30 88008 N 604.136 -0.7859 4.56281 0
M  V30 88009 C 604.216 -2.14308 4.31736 0
M  V30 88010 N 604.136 -2.46106 3.05116 0
M  V30 88011 C 603.996 -1.23422 2.4014 0
M  V30 88012 C 603.866 -0.938381 1.02409 0
M  V30 88013 N 603.746 0.444647 0.805413 0
M  V30 88014 C 603.746 1.40829 1.79435 0
M  V30 88015 N 603.616 2.67213 1.38558 0
M  V30 88016 N 603.876 1.12947 3.09005 0
M  V30 88017 C 603.996 -0.204887 3.32369 0
M  V30 88018 H 606.975 -1.93423 8.4679 0
M  V30 88019 H 607.247 -1.68181 6.71046 0
M  V30 88020 H 606.379 0.289041 8.15388 0
M  V30 88021 P 602.416 1.17771 8.83182 0
M  V30 88022 O 602.196 2.07206 9.98732 0
M  V30 88023 O 601.626 -0.0743816 8.81969 0
M  V30 88024 O 602.166 1.97652 7.47304 0
M  V30 88025 C 603.106 3.01133 7.08783 0
M  V30 88026 C 602.376 4.12613 6.37049 0
M  V30 88027 O 602.166 3.72827 4.97879 0
M  V30 88028 C 600.976 4.45085 6.88694 0
M  V30 88029 O 600.586 5.7877 6.5624 0
M  V30 88030 C 600.096 3.47817 6.12078 0
M  V30 88031 C 600.806 3.39414 4.77697 0
M  V30 88032 N 600.756 2.04615 4.15333 0
M  V30 88033 H 603.595 3.41248 7.98759 0
M  V30 88034 H 603.867 2.5837 6.41742 0
M  V30 88035 H 602.999 5.02657 6.42673 0
M  V30 88036 P 599.036 6.144 6.45285 0
M  V30 88037 O 598.816 7.54673 6.86199 0
M  V30 88038 O 598.246 5.12391 7.179 0
M  V30 88039 O 598.786 5.99158 4.88404 0
M  V30 88040 C 599.726 6.60234 3.96415 0
M  V30 88041 C 598.996 7.08259 2.72856 0
M  V30 88042 O 598.786 5.9427 1.83651 0
M  V30 88043 C 597.596 7.64886 2.9555 0
M  V30 88044 O 597.206 8.53963 1.90717 0
M  V30 88045 C 596.716 6.4116 2.90739 0
M  V30 88046 C 597.426 5.55375 1.86963 0
M  V30 88047 N 597.376 4.09664 2.15742 0
M  V30 88048 H 600.215 7.45574 4.45629 0
M  V30 88049 H 600.487 5.86232 3.67314 0
M  V30 88050 H 599.619 7.84412 2.24479 0
M  V30 88051 P 595.656 8.7635 1.60911 0
M  V30 88052 O 595.436 10.1388 1.11561 0
M  V30 88053 O 594.866 8.36503 2.79617 0
M  V30 88054 O 595.406 7.71806 0.42951 0
M  V30 88055 C 596.346 7.67148 -0.673689 0
M  V30 88056 C 595.616 7.33374 -1.95559 0
M  V30 88057 O 595.406 5.88721 -2.00726 0
M  V30 88058 C 594.216 7.92526 -2.10483 0
M  V30 88059 O 593.826 8.02971 -3.47653 0
M  V30 88060 C 593.336 6.89602 -1.41652 0
M  V30 88061 C 594.046 5.59201 -1.75185 0
M  V30 88062 N 593.996 4.58235 -0.662552 0
M  V30 88063 H 596.835 8.65116 -0.777161 0
M  V30 88064 H 597.107 6.90173 -0.474152 0
M  V30 88065 H 596.239 7.66548 -2.79458 0
M  V30 88066 P 592.277 8.03563 -3.84925 0
M  V30 88067 O 592.057 8.85821 -5.0569 0
M  V30 88068 O 591.487 8.41101 -2.65469 0
M  V30 88069 O 592.027 6.4965 -4.18908 0
M  V30 88070 C 592.967 5.81037 -5.05421 0
M  V30 88071 C 592.237 4.78366 -5.89277 0
M  V30 88072 O 592.027 3.58302 -5.08433 0
M  V30 88073 C 590.837 5.17448 -6.36119 0
M  V30 88074 O 590.447 4.45271 -7.53232 0
M  V30 88075 C 589.957 4.74639 -5.19936 0
M  V30 88076 C 590.667 3.49432 -4.70418 0
M  V30 88077 N 590.617 3.31776 -3.22945 0
M  V30 88078 H 593.456 6.54213 -5.71376 0
M  V30 88079 H 593.728 5.30492 -4.44033 0
M  V30 88080 H 592.86 4.55889 -6.76652 0
M  V30 88081 P 588.897 4.23843 -7.83734 0
M  V30 88082 O 588.677 4.19407 -9.29784 0
M  V30 88083 O 588.107 5.24426 -7.09156 0
M  V30 88084 O 588.647 2.7935 -7.20758 0
M  V30 88085 C 589.587 1.72945 -7.50224 0
M  V30 88086 C 588.857 0.406376 -7.57911 0
M  V30 88087 O 588.647 -0.0897726 -6.21935 0
M  V30 88088 C 587.457 0.438983 -8.18724 0
M  V30 88089 O 587.067 -0.825065 -8.71101 0
M  V30 88090 C 586.577 0.783689 -6.99524 0
M  V30 88091 C 587.287 0.0619086 -5.85867 0
M  V30 88092 N 587.237 0.78573 -4.56183 0
M  V30 88093 C 587.087 0.0292889 -3.41887 0
M  V30 88094 O 586.997 -1.18445 -3.4419 0
M  V30 88095 N 587.047 0.744061 -2.23964 0
M  V30 88096 C 587.137 2.10932 -2.10362 0
M  V30 88097 O 587.087 2.64117 -0.98825 0
M  V30 88098 C 587.287 2.8202 -3.34994 0
M  V30 88099 C 587.397 4.31095 -3.25037 0
M  V30 88100 C 587.337 2.15547 -4.52261 0
M  V30 88101 H 590.078 1.93379 -8.46595 0
M  V30 88102 H 590.347 1.68132 -6.70852 0
M  V30 88103 H 589.48 -0.289041 -8.15388 0
M  V30 88104 H 586.825 -0.926847 -5.72749 0
M  V30 88105 H 586.546 1.86973 -6.82036 0
M  V30 88106 H 585.554 0.403896 -7.13257 0
M  V30 88107 H 587.388 1.20585 -8.97435 0
M  V30 88108 H 587.459 2.71231 -5.45042 0
M  V30 88109 H 586.429 4.76966 -3.49992 0
M  V30 88110 H 588.166 4.67047 -3.95024 0
M  V30 88111 H 587.678 4.58996 -2.22312 0
M  V30 88112 H 586.942 0.214893 -1.39758 0
M  V30 88113 P 585.517 -1.17771 -8.83182 0
M  V30 88114 O 585.297 -2.07206 -9.98732 0
M  V30 88115 O 584.727 0.0743816 -8.81969 0
M  V30 88116 O 585.267 -1.97652 -7.47304 0
M  V30 88117 C 586.207 -3.01133 -7.08783 0
M  V30 88118 C 585.477 -4.12613 -6.37049 0
M  V30 88119 O 585.267 -3.72827 -4.97879 0
M  V30 88120 C 584.077 -4.45085 -6.88694 0
M  V30 88121 O 583.687 -5.7877 -6.5624 0
M  V30 88122 C 583.197 -3.47817 -6.12078 0
M  V30 88123 C 583.907 -3.39414 -4.77697 0
M  V30 88124 N 583.857 -2.04199 -4.15538 0
M  V30 88125 C 583.937 -0.821545 -4.76977 0
M  V30 88126 N 583.867 0.1794 -3.94592 0
M  V30 88127 C 583.717 -0.419121 -2.70776 0
M  V30 88128 C 583.587 0.109072 -1.40577 0
M  V30 88129 N 583.577 1.4104 -1.1344 0
M  V30 88130 N 583.467 -0.764381 -0.39411 0
M  V30 88131 C 583.477 -2.06587 -0.664135 0
M  V30 88132 N 583.597 -2.67948 -1.82153 0
M  V30 88133 C 583.717 -1.77942 -2.8147 0
M  V30 88134 H 586.696 -3.41248 -7.98759 0
M  V30 88135 H 586.968 -2.57728 -6.42 0
M  V30 88136 H 586.1 -5.02657 -6.42673 0
M  V30 88137 H 583.445 -4.11708 -4.08956 0
M  V30 88138 H 583.165 -2.49626 -6.61679 0
M  V30 88139 H 582.174 -3.8662 -6.00862 0
M  V30 88140 H 584.008 -4.29991 -7.97006 0
M  V30 88141 H 584.049 -0.702451 -5.84696 0
M  V30 88142 H 583.668 2.09647 -1.89651 0
M  V30 88143 H 583.479 1.73358 -0.160575 0
M  V30 88144 H 583.371 -2.71695 0.195838 0
M  V30 88145 P 582.137 -6.144 -6.45285 0
M  V30 88146 O 581.917 -7.54673 -6.86199 0
M  V30 88147 O 581.347 -5.12391 -7.179 0
M  V30 88148 O 581.887 -5.99158 -4.88404 0
M  V30 88149 C 582.827 -6.60234 -3.96415 0
M  V30 88150 C 582.097 -7.08259 -2.72856 0
M  V30 88151 O 581.887 -5.9427 -1.83651 0
M  V30 88152 C 580.697 -7.64886 -2.9555 0
M  V30 88153 O 580.307 -8.53963 -1.90717 0
M  V30 88154 C 579.817 -6.4116 -2.90739 0
M  V30 88155 C 580.527 -5.55375 -1.86963 0
M  V30 88156 N 580.477 -4.09664 -2.15742 0
M  V30 88157 H 583.316 -7.45574 -4.45629 0
M  V30 88158 H 583.588 -5.86232 -3.67314 0
M  V30 88159 H 582.72 -7.84412 -2.24479 0
M  V30 88160 P 578.757 -8.7635 -1.60911 0
M  V30 88161 O 578.537 -10.1388 -1.11561 0
M  V30 88162 O 577.967 -8.36503 -2.79617 0
M  V30 88163 O 578.507 -7.71806 -0.42951 0
M  V30 88164 C 579.447 -7.67148 0.673689 0
M  V30 88165 C 578.717 -7.33374 1.95559 0
M  V30 88166 O 578.507 -5.88721 2.00726 0
M  V30 88167 C 577.317 -7.92526 2.10483 0
M  V30 88168 O 576.927 -8.02971 3.47653 0
M  V30 88169 C 576.437 -6.89602 1.41652 0
M  V30 88170 C 577.147 -5.59201 1.75185 0
M  V30 88171 N 577.097 -4.58235 0.662552 0
M  V30 88172 H 579.936 -8.65116 0.777161 0
M  V30 88173 H 580.208 -6.90173 0.474152 0
M  V30 88174 H 579.34 -7.66548 2.79458 0
M  V30 88175 P 575.377 -8.03563 3.84925 0
M  V30 88176 O 575.157 -8.85821 5.0569 0
M  V30 88177 O 574.587 -8.41101 2.65469 0
M  V30 88178 O 575.127 -6.4965 4.18908 0
M  V30 88179 C 576.067 -5.81037 5.05421 0
M  V30 88180 C 575.337 -4.78366 5.89277 0
M  V30 88181 O 575.127 -3.58302 5.08433 0
M  V30 88182 C 573.937 -5.17448 6.36119 0
M  V30 88183 O 573.547 -4.45271 7.53232 0
M  V30 88184 C 573.057 -4.74639 5.19936 0
M  V30 88185 C 573.767 -3.49432 4.70418 0
M  V30 88186 N 573.717 -3.31776 3.22945 0
M  V30 88187 H 576.556 -6.54213 5.71376 0
M  V30 88188 H 576.828 -5.30492 4.44033 0
M  V30 88189 H 575.96 -4.55889 6.76652 0
M  V30 88190 P 571.997 -4.23843 7.83734 0
M  V30 88191 O 571.777 -4.19407 9.29784 0
M  V30 88192 O 571.207 -5.24426 7.09156 0
M  V30 88193 O 571.747 -2.7935 7.20758 0
M  V30 88194 C 572.687 -1.7299 7.50419 0
M  V30 88195 C 571.957 -0.406376 7.57911 0
M  V30 88196 O 571.747 0.0897726 6.21935 0
M  V30 88197 C 570.557 -0.447224 8.1878 0
M  V30 88198 O 570.167 0.825065 8.71101 0
M  V30 88199 C 569.677 -0.783801 6.99623 0
M  V30 88200 C 570.387 -0.0619192 5.85967 0
M  V30 88201 N 570.337 -0.7859 4.56281 0
M  V30 88202 H 573.176 -1.93423 8.4679 0
M  V30 88203 H 573.448 -1.68181 6.71046 0
M  V30 88204 H 572.58 0.289041 8.15388 0
M  V30 88205 P 568.617 1.17771 8.83182 0
M  V30 88206 O 568.397 2.07206 9.98732 0
M  V30 88207 O 567.827 -0.0743816 8.81969 0
M  V30 88208 O 568.367 1.97652 7.47304 0
M  V30 88209 C 569.307 3.01133 7.08783 0
M  V30 88210 C 568.577 4.12613 6.37049 0
M  V30 88211 O 568.367 3.72827 4.97879 0
M  V30 88212 C 567.177 4.45085 6.88694 0
M  V30 88213 O 566.787 5.7877 6.5624 0
M  V30 88214 C 566.297 3.47817 6.12078 0
M  V30 88215 C 567.007 3.39414 4.77697 0
M  V30 88216 N 566.957 2.04615 4.15333 0
M  V30 88217 H 569.796 3.41248 7.98759 0
M  V30 88218 H 570.068 2.5837 6.41742 0
M  V30 88219 H 569.2 5.02657 6.42673 0
M  V30 88220 P 565.237 6.144 6.45285 0
M  V30 88221 O 565.017 7.54673 6.86199 0
M  V30 88222 O 564.447 5.12391 7.179 0
M  V30 88223 O 564.987 5.99158 4.88404 0
M  V30 88224 C 565.927 6.60062 3.96313 0
M  V30 88225 C 565.197 7.08259 2.72856 0
M  V30 88226 O 564.987 5.9427 1.83651 0
M  V30 88227 C 563.797 7.65087 2.94749 0
M  V30 88228 O 563.407 8.53963 1.90717 0
M  V30 88229 C 562.917 6.41069 2.90698 0
M  V30 88230 C 563.627 5.5528 1.86931 0
M  V30 88231 N 563.577 4.09575 2.15696 0
M  V30 88232 C 563.427 3.24249 1.08435 0
M  V30 88233 O 563.337 3.63946 -0.0628747 0
M  V30 88234 N 563.387 1.90009 1.39973 0
M  V30 88235 C 563.477 1.34884 2.65614 0
M  V30 88236 C 563.627 2.3145 3.71736 0
M  V30 88237 C 563.677 3.63518 3.44754 0
M  V30 88238 H 566.418 7.45402 4.45526 0
M  V30 88239 H 566.687 5.86062 3.67208 0
M  V30 88240 H 565.82 7.84412 2.24479 0
M  V30 88241 H 563.165 5.73358 0.888409 0
M  V30 88242 H 562.886 5.90877 3.88583 0
M  V30 88243 H 561.894 6.65867 2.58821 0
M  V30 88244 H 563.728 8.16248 3.92006 0
M  V30 88245 H 563.799 4.34551 4.26383 0
M  V30 88246 P 561.857 8.7635 1.60911 0
M  V30 88247 O 561.637 10.1388 1.11561 0
M  V30 88248 O 561.067 8.36503 2.79617 0
M  V30 88249 O 561.607 7.71806 0.42951 0
M  V30 88250 C 562.547 7.67148 -0.673689 0
M  V30 88251 C 561.817 7.33374 -1.95559 0
M  V30 88252 O 561.607 5.88721 -2.00726 0
M  V30 88253 C 560.417 7.92526 -2.10483 0
M  V30 88254 O 560.027 8.02971 -3.47653 0
M  V30 88255 C 559.537 6.89602 -1.41652 0
M  V30 88256 C 560.247 5.59201 -1.75185 0
M  V30 88257 N 560.197 4.58235 -0.662552 0
M  V30 88258 H 563.036 8.65116 -0.777161 0
M  V30 88259 H 563.308 6.90173 -0.474152 0
M  V30 88260 H 562.44 7.66548 -2.79458 0
M  V30 88261 P 558.477 8.03563 -3.84925 0
M  V30 88262 O 558.257 8.85821 -5.0569 0
M  V30 88263 O 557.687 8.41101 -2.65469 0
M  V30 88264 O 558.227 6.4965 -4.18908 0
M  V30 88265 C 559.167 5.81037 -5.05421 0
M  V30 88266 C 558.437 4.78366 -5.89277 0
M  V30 88267 O 558.227 3.58302 -5.08433 0
M  V30 88268 C 557.037 5.17448 -6.36119 0
M  V30 88269 O 556.647 4.45271 -7.53232 0
M  V30 88270 C 556.157 4.74639 -5.19936 0
M  V30 88271 C 556.867 3.49432 -4.70418 0
M  V30 88272 N 556.817 3.31776 -3.22945 0
M  V30 88273 H 559.656 6.54213 -5.71376 0
M  V30 88274 H 559.928 5.30492 -4.44033 0
M  V30 88275 H 559.06 4.55889 -6.76652 0
M  V30 88276 P 555.097 4.23843 -7.83734 0
M  V30 88277 O 554.877 4.19407 -9.29784 0
M  V30 88278 O 554.307 5.24426 -7.09156 0
M  V30 88279 O 554.847 2.7935 -7.20758 0
M  V30 88280 C 555.787 1.7299 -7.50419 0
M  V30 88281 C 555.057 0.406376 -7.57911 0
M  V30 88282 O 554.847 -0.0897726 -6.21935 0
M  V30 88283 C 553.657 0.447224 -8.1878 0
M  V30 88284 O 553.267 -0.825065 -8.71101 0
M  V30 88285 C 552.777 0.783801 -6.99623 0
M  V30 88286 C 553.487 0.0619192 -5.85967 0
M  V30 88287 N 553.437 0.7859 -4.56281 0
M  V30 88288 C 553.517 2.14308 -4.31736 0
M  V30 88289 N 553.437 2.46106 -3.05116 0
M  V30 88290 C 553.297 1.23422 -2.4014 0
M  V30 88291 C 553.167 0.938381 -1.02409 0
M  V30 88292 N 553.047 -0.444647 -0.805413 0
M  V30 88293 C 553.047 -1.40829 -1.79435 0
M  V30 88294 N 552.917 -2.67213 -1.38558 0
M  V30 88295 N 553.177 -1.12947 -3.09005 0
M  V30 88296 C 553.297 0.204887 -3.32369 0
M  V30 88297 H 556.276 1.93423 -8.4679 0
M  V30 88298 H 556.548 1.68181 -6.71046 0
M  V30 88299 H 555.68 -0.289041 -8.15388 0
M  V30 88300 P 551.717 -1.17771 -8.83182 0
M  V30 88301 O 551.497 -2.07206 -9.98732 0
M  V30 88302 O 550.927 0.0743816 -8.81969 0
M  V30 88303 O 551.467 -1.97652 -7.47304 0
M  V30 88304 C 552.407 -3.01133 -7.08783 0
M  V30 88305 C 551.677 -4.12613 -6.37049 0
M  V30 88306 O 551.467 -3.72827 -4.97879 0
M  V30 88307 C 550.277 -4.45085 -6.88694 0
M  V30 88308 O 549.887 -5.7877 -6.5624 0
M  V30 88309 C 549.397 -3.47817 -6.12078 0
M  V30 88310 C 550.107 -3.39414 -4.77697 0
M  V30 88311 N 550.057 -2.04615 -4.15333 0
M  V30 88312 H 552.896 -3.41248 -7.98759 0
M  V30 88313 H 553.168 -2.5837 -6.41742 0
M  V30 88314 H 552.3 -5.02657 -6.42673 0
M  V30 88315 P 548.337 -6.144 -6.45285 0
M  V30 88316 O 548.117 -7.54673 -6.86199 0
M  V30 88317 O 547.547 -5.12391 -7.179 0
M  V30 88318 O 548.087 -5.99158 -4.88404 0
M  V30 88319 C 549.027 -6.60234 -3.96415 0
M  V30 88320 C 548.297 -7.08259 -2.72856 0
M  V30 88321 O 548.087 -5.9427 -1.83651 0
M  V30 88322 C 546.897 -7.64886 -2.9555 0
M  V30 88323 O 546.507 -8.53963 -1.90717 0
M  V30 88324 C 546.017 -6.4116 -2.90739 0
M  V30 88325 C 546.727 -5.55375 -1.86963 0
M  V30 88326 N 546.677 -4.09448 -2.16152 0
M  V30 88327 C 546.757 -3.46824 -3.37593 0
M  V30 88328 N 546.687 -2.17422 -3.29777 0
M  V30 88329 C 546.537 -1.93065 -1.94427 0
M  V30 88330 C 546.407 -0.738053 -1.20141 0
M  V30 88331 N 546.397 0.474256 -1.74676 0
M  V30 88332 N 546.287 -0.850049 0.13045 0
M  V30 88333 C 546.297 -2.06169 0.676992 0
M  V30 88334 N 546.417 -3.23842 0.101312 0
M  V30 88335 C 546.537 -3.09402 -1.23122 0
M  V30 88336 H 549.516 -7.45574 -4.45629 0
M  V30 88337 H 549.788 -5.85864 -3.679 0
M  V30 88338 H 548.92 -7.84412 -2.24479 0
M  V30 88339 H 546.265 -5.73457 -0.888562 0
M  V30 88340 H 545.985 -5.90877 -3.88583 0
M  V30 88341 H 544.994 -6.6596 -2.58858 0
M  V30 88342 H 546.828 -8.16339 -3.92049 0
M  V30 88343 H 546.869 -4.00505 -4.3174 0
M  V30 88344 H 546.488 0.581337 -2.76658 0
M  V30 88345 H 546.299 1.30811 -1.14888 0
M  V30 88346 H 546.191 -2.08295 1.75542 0
M  V30 88347 P 544.957 -8.7635 -1.60911 0
M  V30 88348 O 544.737 -10.1388 -1.11561 0
M  V30 88349 O 544.167 -8.36503 -2.79617 0
M  V30 88350 O 544.707 -7.71806 -0.42951 0
M  V30 88351 C 545.647 -7.67148 0.673689 0
M  V30 88352 C 544.917 -7.33374 1.95559 0
M  V30 88353 O 544.707 -5.88721 2.00726 0
M  V30 88354 C 543.517 -7.92526 2.10483 0
M  V30 88355 O 543.127 -8.02971 3.47653 0
M  V30 88356 C 542.637 -6.89602 1.41652 0
M  V30 88357 C 543.347 -5.59201 1.75185 0
M  V30 88358 N 543.297 -4.58235 0.662552 0
M  V30 88359 H 546.136 -8.65116 0.777161 0
M  V30 88360 H 546.408 -6.90173 0.474152 0
M  V30 88361 H 545.54 -7.66548 2.79458 0
M  V30 88362 P 541.577 -8.03563 3.84925 0
M  V30 88363 O 541.357 -8.85821 5.0569 0
M  V30 88364 O 540.787 -8.41101 2.65469 0
M  V30 88365 O 541.327 -6.4965 4.18908 0
M  V30 88366 C 542.267 -5.81037 5.05421 0
M  V30 88367 C 541.537 -4.78366 5.89277 0
M  V30 88368 O 541.327 -3.58302 5.08433 0
M  V30 88369 C 540.137 -5.17448 6.36119 0
M  V30 88370 O 539.747 -4.45271 7.53232 0
M  V30 88371 C 539.257 -4.74639 5.19936 0
M  V30 88372 C 539.967 -3.49432 4.70418 0
M  V30 88373 N 539.917 -3.31776 3.22945 0
M  V30 88374 H 542.756 -6.54213 5.71376 0
M  V30 88375 H 543.028 -5.30492 4.44033 0
M  V30 88376 H 542.16 -4.55889 6.76652 0
M  V30 88377 P 538.197 -4.23843 7.83734 0
M  V30 88378 O 537.977 -4.19407 9.29784 0
M  V30 88379 O 537.407 -5.24426 7.09156 0
M  V30 88380 O 537.947 -2.7935 7.20758 0
M  V30 88381 C 538.887 -1.7299 7.50419 0
M  V30 88382 C 538.157 -0.406376 7.57911 0
M  V30 88383 O 537.947 0.0897726 6.21935 0
M  V30 88384 C 536.757 -0.447224 8.1878 0
M  V30 88385 O 536.367 0.825065 8.71101 0
M  V30 88386 C 535.877 -0.783801 6.99623 0
M  V30 88387 C 536.587 -0.0619192 5.85967 0
M  V30 88388 N 536.537 -0.7859 4.56281 0
M  V30 88389 H 539.376 -1.93423 8.4679 0
M  V30 88390 H 539.648 -1.68181 6.71046 0
M  V30 88391 H 538.78 0.289041 8.15388 0
M  V30 88392 P 534.817 1.17771 8.83182 0
M  V30 88393 O 534.597 2.07206 9.98732 0
M  V30 88394 O 534.027 -0.0743816 8.81969 0
M  V30 88395 O 534.567 1.97652 7.47304 0
M  V30 88396 C 535.507 3.01133 7.08783 0
M  V30 88397 C 534.777 4.12613 6.37049 0
M  V30 88398 O 534.567 3.72827 4.97879 0
M  V30 88399 C 533.377 4.45085 6.88694 0
M  V30 88400 O 532.987 5.7877 6.5624 0
M  V30 88401 C 532.497 3.47817 6.12078 0
M  V30 88402 C 533.207 3.39414 4.77697 0
M  V30 88403 N 533.157 2.04615 4.15333 0
M  V30 88404 H 535.996 3.41248 7.98759 0
M  V30 88405 H 536.268 2.5837 6.41742 0
M  V30 88406 H 535.4 5.02657 6.42673 0
M  V30 88407 P 531.437 6.144 6.45285 0
M  V30 88408 O 531.217 7.54673 6.86199 0
M  V30 88409 O 530.647 5.12391 7.179 0
M  V30 88410 O 531.187 5.99158 4.88404 0
M  V30 88411 C 532.127 6.60234 3.96415 0
M  V30 88412 C 531.397 7.08259 2.72856 0
M  V30 88413 O 531.187 5.9427 1.83651 0
M  V30 88414 C 529.997 7.64886 2.9555 0
M  V30 88415 O 529.607 8.53963 1.90717 0
M  V30 88416 C 529.117 6.4116 2.90739 0
M  V30 88417 C 529.827 5.55375 1.86963 0
M  V30 88418 N 529.777 4.09664 2.15742 0
M  V30 88419 H 532.616 7.45574 4.45629 0
M  V30 88420 H 532.888 5.86232 3.67314 0
M  V30 88421 H 532.02 7.84412 2.24479 0
M  V30 88422 P 528.057 8.7635 1.60911 0
M  V30 88423 O 527.837 10.1388 1.11561 0
M  V30 88424 O 527.267 8.36503 2.79617 0
M  V30 88425 O 527.807 7.71806 0.42951 0
M  V30 88426 C 528.747 7.67148 -0.673689 0
M  V30 88427 C 528.017 7.33374 -1.95559 0
M  V30 88428 O 527.807 5.88721 -2.00726 0
M  V30 88429 C 526.617 7.92526 -2.10483 0
M  V30 88430 O 526.227 8.02971 -3.47653 0
M  V30 88431 C 525.737 6.89602 -1.41652 0
M  V30 88432 C 526.447 5.59201 -1.75185 0
M  V30 88433 N 526.397 4.58301 -0.657969 0
M  V30 88434 H 529.236 8.65116 -0.777161 0
M  V30 88435 H 529.508 6.9022 -0.46725 0
M  V30 88436 H 528.64 7.66548 -2.79458 0
M  V30 88437 H 525.985 5.16165 -2.65183 0
M  V30 88438 H 525.705 7.06433 -0.329384 0
M  V30 88439 H 524.714 6.90926 -1.82021 0
M  V30 88440 H 526.548 8.90873 -1.62657 0
M  V30 88441 P 524.677 8.03563 -3.84925 0
M  V30 88442 O 524.457 8.85821 -5.0569 0
M  V30 88443 O 523.887 8.41101 -2.65469 0
M  V30 88444 O 524.427 6.4965 -4.18908 0
M  V30 88445 C 525.367 5.81037 -5.05421 0
M  V30 88446 C 524.637 4.78366 -5.89277 0
M  V30 88447 O 524.427 3.58302 -5.08433 0
M  V30 88448 C 523.237 5.17448 -6.36119 0
M  V30 88449 O 522.847 4.45271 -7.53232 0
M  V30 88450 C 522.357 4.74639 -5.19936 0
M  V30 88451 C 523.067 3.49432 -4.70418 0
M  V30 88452 N 523.017 3.31776 -3.22945 0
M  V30 88453 H 525.856 6.54213 -5.71376 0
M  V30 88454 H 526.128 5.30492 -4.44033 0
M  V30 88455 H 525.26 4.55889 -6.76652 0
M  V30 88456 P 521.297 4.23843 -7.83734 0
M  V30 88457 O 521.077 4.19407 -9.29784 0
M  V30 88458 O 520.507 5.24426 -7.09156 0
M  V30 88459 O 521.047 2.7935 -7.20758 0
M  V30 88460 C 521.987 1.7299 -7.50419 0
M  V30 88461 C 521.257 0.406376 -7.57911 0
M  V30 88462 O 521.047 -0.0897726 -6.21935 0
M  V30 88463 C 519.857 0.447224 -8.1878 0
M  V30 88464 O 519.467 -0.825065 -8.71101 0
M  V30 88465 C 518.977 0.783801 -6.99623 0
M  V30 88466 C 519.687 0.0619192 -5.85967 0
M  V30 88467 N 519.637 0.7859 -4.56281 0
M  V30 88468 H 522.476 1.93423 -8.4679 0
M  V30 88469 H 522.748 1.68181 -6.71046 0
M  V30 88470 H 521.88 -0.289041 -8.15388 0
M  V30 88471 P 517.917 -1.17771 -8.83182 0
M  V30 88472 O 517.697 -2.07206 -9.98732 0
M  V30 88473 O 517.127 0.0743816 -8.81969 0
M  V30 88474 O 517.667 -1.97652 -7.47304 0
M  V30 88475 C 518.607 -3.01133 -7.08783 0
M  V30 88476 C 517.877 -4.12613 -6.37049 0
M  V30 88477 O 517.667 -3.72827 -4.97879 0
M  V30 88478 C 516.477 -4.45085 -6.88694 0
M  V30 88479 O 516.087 -5.7877 -6.5624 0
M  V30 88480 C 515.597 -3.47817 -6.12078 0
M  V30 88481 C 516.307 -3.39414 -4.77697 0
M  V30 88482 N 516.257 -2.04615 -4.15333 0
M  V30 88483 C 516.337 -0.803897 -4.75249 0
M  V30 88484 N 516.257 0.197615 -3.91502 0
M  V30 88485 C 516.117 -0.413002 -2.66823 0
M  V30 88486 C 515.987 0.157221 -1.38007 0
M  V30 88487 N 515.867 -0.833136 -0.390236 0
M  V30 88488 C 515.867 -2.19402 -0.623885 0
M  V30 88489 N 515.737 -2.97622 0.449677 0
M  V30 88490 N 515.997 -2.73005 -1.83601 0
M  V30 88491 C 516.117 -1.78786 -2.80935 0
M  V30 88492 H 519.096 -3.41248 -7.98759 0
M  V30 88493 H 519.368 -2.5837 -6.41742 0
M  V30 88494 H 518.5 -5.02657 -6.42673 0
M  V30 88495 P 514.537 -6.144 -6.45285 0
M  V30 88496 O 514.317 -7.54673 -6.86199 0
M  V30 88497 O 513.747 -5.12391 -7.179 0
M  V30 88498 O 514.287 -5.99158 -4.88404 0
M  V30 88499 C 515.227 -6.60234 -3.96415 0
M  V30 88500 C 514.497 -7.08259 -2.72856 0
M  V30 88501 O 514.287 -5.9427 -1.83651 0
M  V30 88502 C 513.097 -7.64886 -2.9555 0
M  V30 88503 O 512.707 -8.53963 -1.90717 0
M  V30 88504 C 512.217 -6.4116 -2.90739 0
M  V30 88505 C 512.927 -5.55375 -1.86963 0
M  V30 88506 N 512.877 -4.09448 -2.16152 0
M  V30 88507 H 515.716 -7.45574 -4.45629 0
M  V30 88508 H 515.988 -5.85864 -3.679 0
M  V30 88509 H 515.12 -7.84412 -2.24479 0
M  V30 88510 H 512.465 -5.73457 -0.888562 0
M  V30 88511 H 512.185 -5.90877 -3.88583 0
M  V30 88512 H 511.194 -6.6596 -2.58858 0
M  V30 88513 H 513.028 -8.16339 -3.92049 0
M  V30 88514 P 511.157 -8.7635 -1.60911 0
M  V30 88515 O 510.937 -10.1388 -1.11561 0
M  V30 88516 O 510.367 -8.36503 -2.79617 0
M  V30 88517 O 510.907 -7.71806 -0.42951 0
M  V30 88518 C 511.847 -7.67148 0.673689 0
M  V30 88519 C 511.117 -7.33374 1.95559 0
M  V30 88520 O 510.907 -5.88721 2.00726 0
M  V30 88521 C 509.717 -7.92526 2.10483 0
M  V30 88522 O 509.327 -8.02971 3.47653 0
M  V30 88523 C 508.837 -6.89602 1.41652 0
M  V30 88524 C 509.547 -5.59201 1.75185 0
M  V30 88525 N 509.497 -4.58235 0.662552 0
M  V30 88526 H 512.336 -8.65116 0.777161 0
M  V30 88527 H 512.608 -6.90173 0.474152 0
M  V30 88528 H 511.74 -7.66548 2.79458 0
M  V30 88529 P 507.777 -8.03563 3.84925 0
M  V30 88530 O 507.557 -8.85821 5.0569 0
M  V30 88531 O 506.987 -8.41101 2.65469 0
M  V30 88532 O 507.527 -6.4965 4.18908 0
M  V30 88533 C 508.467 -5.80886 5.05289 0
M  V30 88534 C 507.737 -4.78366 5.89277 0
M  V30 88535 O 507.527 -3.58302 5.08433 0
M  V30 88536 C 506.337 -5.16748 6.36559 0
M  V30 88537 O 505.947 -4.45271 7.53232 0
M  V30 88538 C 505.457 -4.74572 5.19863 0
M  V30 88539 C 506.167 -3.49373 4.70338 0
M  V30 88540 N 506.117 -3.31704 3.22876 0
M  V30 88541 C 505.967 -2.03326 2.74871 0
M  V30 88542 O 505.877 -1.06486 3.48076 0
M  V30 88543 N 505.927 -1.91838 1.37456 0
M  V30 88544 C 506.017 -2.94295 0.462035 0
M  V30 88545 C 506.167 -4.25064 1.05249 0
M  V30 88546 C 506.217 -4.40214 2.39192 0
M  V30 88547 H 508.958 -6.54063 5.71245 0
M  V30 88548 H 509.227 -5.30339 4.43905 0
M  V30 88549 H 508.36 -4.55889 6.76652 0
M  V30 88550 H 505.705 -2.6167 5.17842 0
M  V30 88551 H 505.426 -5.52155 4.41878 0
M  V30 88552 H 504.434 -4.51918 5.53297 0
M  V30 88553 H 506.268 -6.25055 6.55162 0
M  V30 88554 H 506.339 -5.39798 2.81523 0
M  V30 88555 P 504.397 -4.23843 7.83734 0
M  V30 88556 O 504.177 -4.19407 9.29784 0
M  V30 88557 O 503.607 -5.24426 7.09156 0
M  V30 88558 O 504.147 -2.7935 7.20758 0
M  V30 88559 C 505.087 -1.7299 7.50419 0
M  V30 88560 C 504.357 -0.406376 7.57911 0
M  V30 88561 O 504.147 0.0897726 6.21935 0
M  V30 88562 C 502.957 -0.447224 8.1878 0
M  V30 88563 O 502.567 0.825065 8.71101 0
M  V30 88564 C 502.077 -0.783801 6.99623 0
M  V30 88565 C 502.787 -0.0619192 5.85967 0
M  V30 88566 N 502.737 -0.790462 4.56202 0
M  V30 88567 H 505.576 -1.93423 8.4679 0
M  V30 88568 H 505.848 -1.68852 6.70877 0
M  V30 88569 H 504.98 0.289041 8.15388 0
M  V30 88570 H 502.325 0.927006 5.72848 0
M  V30 88571 H 502.045 -1.86973 6.82036 0
M  V30 88572 H 501.054 -0.403953 7.13357 0
M  V30 88573 H 502.888 -1.20599 8.97534 0
M  V30 88574 P 501.017 1.17771 8.83182 0
M  V30 88575 O 500.797 2.07206 9.98732 0
M  V30 88576 O 500.227 -0.0743816 8.81969 0
M  V30 88577 O 500.767 1.97652 7.47304 0
M  V30 88578 C 501.707 3.01133 7.08783 0
M  V30 88579 C 500.977 4.12613 6.37049 0
M  V30 88580 O 500.767 3.72827 4.97879 0
M  V30 88581 C 499.577 4.45085 6.88694 0
M  V30 88582 O 499.187 5.7877 6.5624 0
M  V30 88583 C 498.697 3.47817 6.12078 0
M  V30 88584 C 499.407 3.39414 4.77697 0
M  V30 88585 N 499.357 2.04615 4.15333 0
M  V30 88586 H 502.196 3.41248 7.98759 0
M  V30 88587 H 502.468 2.5837 6.41742 0
M  V30 88588 H 501.6 5.02657 6.42673 0
M  V30 88589 P 497.637 6.144 6.45285 0
M  V30 88590 O 497.417 7.54673 6.86199 0
M  V30 88591 O 496.847 5.12391 7.179 0
M  V30 88592 O 497.387 5.99158 4.88404 0
M  V30 88593 C 498.327 6.60234 3.96415 0
M  V30 88594 C 497.597 7.08259 2.72856 0
M  V30 88595 O 497.387 5.9427 1.83651 0
M  V30 88596 C 496.197 7.64886 2.9555 0
M  V30 88597 O 495.807 8.53963 1.90717 0
M  V30 88598 C 495.317 6.4116 2.90739 0
M  V30 88599 C 496.027 5.55375 1.86963 0
M  V30 88600 N 495.977 4.09448 2.16152 0
M  V30 88601 C 496.057 3.46824 3.37593 0
M  V30 88602 N 495.987 2.17422 3.29777 0
M  V30 88603 C 495.837 1.93065 1.94427 0
M  V30 88604 C 495.707 0.738053 1.20141 0
M  V30 88605 N 495.697 -0.474256 1.74676 0
M  V30 88606 N 495.587 0.850049 -0.13045 0
M  V30 88607 C 495.597 2.06169 -0.676992 0
M  V30 88608 N 495.717 3.23842 -0.101312 0
M  V30 88609 C 495.837 3.09402 1.23122 0
M  V30 88610 H 498.816 7.45574 4.45629 0
M  V30 88611 H 499.088 5.85864 3.679 0
M  V30 88612 H 498.22 7.84412 2.24479 0
M  V30 88613 H 495.565 5.73457 0.888562 0
M  V30 88614 H 495.285 5.90877 3.88583 0
M  V30 88615 H 494.294 6.6596 2.58858 0
M  V30 88616 H 496.128 8.16339 3.92049 0
M  V30 88617 H 496.169 4.00505 4.3174 0
M  V30 88618 H 495.788 -0.581337 2.76658 0
M  V30 88619 H 495.599 -1.30811 1.14888 0
M  V30 88620 H 495.491 2.08295 -1.75542 0
M  V30 88621 P 494.257 8.7635 1.60911 0
M  V30 88622 O 494.037 10.1388 1.11561 0
M  V30 88623 O 493.467 8.36503 2.79617 0
M  V30 88624 O 494.007 7.71806 0.42951 0
M  V30 88625 C 494.947 7.67148 -0.673689 0
M  V30 88626 C 494.217 7.33374 -1.95559 0
M  V30 88627 O 494.007 5.88721 -2.00726 0
M  V30 88628 C 492.817 7.92526 -2.10483 0
M  V30 88629 O 492.427 8.02971 -3.47653 0
M  V30 88630 C 491.937 6.89602 -1.41652 0
M  V30 88631 C 492.647 5.59201 -1.75185 0
M  V30 88632 N 492.597 4.58301 -0.657969 0
M  V30 88633 H 495.436 8.65116 -0.777161 0
M  V30 88634 H 495.708 6.9022 -0.46725 0
M  V30 88635 H 494.84 7.66548 -2.79458 0
M  V30 88636 H 492.185 5.16165 -2.65183 0
M  V30 88637 H 491.905 7.06433 -0.329384 0
M  V30 88638 H 490.914 6.90926 -1.82021 0
M  V30 88639 H 492.748 8.90873 -1.62657 0
M  V30 88640 P 490.877 8.03563 -3.84925 0
M  V30 88641 O 490.657 8.85821 -5.0569 0
M  V30 88642 O 490.087 8.41101 -2.65469 0
M  V30 88643 O 490.627 6.4965 -4.18908 0
M  V30 88644 C 491.567 5.81037 -5.05421 0
M  V30 88645 C 490.837 4.78366 -5.89277 0
M  V30 88646 O 490.627 3.58302 -5.08433 0
M  V30 88647 C 489.437 5.17448 -6.36119 0
M  V30 88648 O 489.047 4.45271 -7.53232 0
M  V30 88649 C 488.557 4.74639 -5.19936 0
M  V30 88650 C 489.267 3.49432 -4.70418 0
M  V30 88651 N 489.217 3.32099 -3.22613 0
M  V30 88652 C 489.297 4.28245 -2.25527 0
M  V30 88653 N 489.227 3.80823 -1.04874 0
M  V30 88654 C 489.077 2.44571 -1.23535 0
M  V30 88655 C 488.947 1.37068 -0.330675 0
M  V30 88656 N 488.937 1.51472 0.990824 0
M  V30 88657 N 488.827 0.138614 -0.848756 0
M  V30 88658 C 488.837 -0.00675923 -2.16999 0
M  V30 88659 N 488.957 0.904372 -3.11122 0
M  V30 88660 C 489.077 2.12707 -2.56212 0
M  V30 88661 H 492.056 6.54213 -5.71376 0
M  V30 88662 H 492.328 5.30936 -4.43503 0
M  V30 88663 H 491.46 4.55889 -6.76652 0
M  V30 88664 H 488.805 2.61715 -5.17932 0
M  V30 88665 H 488.525 5.52155 -4.41878 0
M  V30 88666 H 487.534 4.51981 -5.53374 0
M  V30 88667 H 489.368 6.25124 -6.55234 0
M  V30 88668 H 489.409 5.34372 -2.47488 0
M  V30 88669 H 489.028 2.45153 1.4078 0
M  V30 88670 H 488.839 0.688422 1.59911 0
M  V30 88671 H 488.731 -1.02584 -2.52346 0
M  V30 88672 P 487.497 4.23843 -7.83734 0
M  V30 88673 O 487.277 4.19407 -9.29784 0
M  V30 88674 O 486.707 5.24426 -7.09156 0
M  V30 88675 O 487.247 2.7935 -7.20758 0
M  V30 88676 C 488.187 1.7299 -7.50419 0
M  V30 88677 C 487.457 0.406376 -7.57911 0
M  V30 88678 O 487.247 -0.0897726 -6.21935 0
M  V30 88679 C 486.057 0.447224 -8.1878 0
M  V30 88680 O 485.667 -0.825065 -8.71101 0
M  V30 88681 C 485.177 0.783801 -6.99623 0
M  V30 88682 C 485.887 0.0619192 -5.85967 0
M  V30 88683 N 485.837 0.7859 -4.56281 0
M  V30 88684 C 485.917 2.14308 -4.31736 0
M  V30 88685 N 485.837 2.46106 -3.05116 0
M  V30 88686 C 485.697 1.23422 -2.4014 0
M  V30 88687 C 485.567 0.938381 -1.02409 0
M  V30 88688 N 485.447 -0.444647 -0.805413 0
M  V30 88689 C 485.447 -1.40829 -1.79435 0
M  V30 88690 N 485.317 -2.67213 -1.38558 0
M  V30 88691 N 485.577 -1.12947 -3.09005 0
M  V30 88692 C 485.697 0.204887 -3.32369 0
M  V30 88693 H 488.676 1.93423 -8.4679 0
M  V30 88694 H 488.948 1.68181 -6.71046 0
M  V30 88695 H 488.08 -0.289041 -8.15388 0
M  V30 88696 P 484.117 -1.17771 -8.83182 0
M  V30 88697 O 483.897 -2.07206 -9.98732 0
M  V30 88698 O 483.327 0.0743816 -8.81969 0
M  V30 88699 O 483.867 -1.97652 -7.47304 0
M  V30 88700 C 484.807 -3.01133 -7.08783 0
M  V30 88701 C 484.077 -4.12613 -6.37049 0
M  V30 88702 O 483.867 -3.72827 -4.97879 0
M  V30 88703 C 482.677 -4.45085 -6.88694 0
M  V30 88704 O 482.287 -5.7877 -6.5624 0
M  V30 88705 C 481.797 -3.47817 -6.12078 0
M  V30 88706 C 482.507 -3.39414 -4.77697 0
M  V30 88707 N 482.457 -2.04199 -4.15538 0
M  V30 88708 C 482.537 -0.821545 -4.76977 0
M  V30 88709 N 482.467 0.1794 -3.94592 0
M  V30 88710 C 482.317 -0.419121 -2.70776 0
M  V30 88711 C 482.187 0.109072 -1.40577 0
M  V30 88712 N 482.177 1.4104 -1.1344 0
M  V30 88713 N 482.067 -0.764381 -0.39411 0
M  V30 88714 C 482.077 -2.06587 -0.664135 0
M  V30 88715 N 482.197 -2.67948 -1.82153 0
M  V30 88716 C 482.317 -1.77942 -2.8147 0
M  V30 88717 H 485.296 -3.41248 -7.98759 0
M  V30 88718 H 485.568 -2.57728 -6.42 0
M  V30 88719 H 484.7 -5.02657 -6.42673 0
M  V30 88720 H 482.045 -4.11708 -4.08956 0
M  V30 88721 H 481.765 -2.49626 -6.61679 0
M  V30 88722 H 480.774 -3.8662 -6.00862 0
M  V30 88723 H 482.608 -4.29991 -7.97006 0
M  V30 88724 H 482.649 -0.702451 -5.84696 0
M  V30 88725 H 482.268 2.09647 -1.89651 0
M  V30 88726 H 482.079 1.73358 -0.160575 0
M  V30 88727 H 481.971 -2.71695 0.195838 0
M  V30 88728 P 480.737 -6.144 -6.45285 0
M  V30 88729 O 480.517 -7.54673 -6.86199 0
M  V30 88730 O 479.947 -5.12391 -7.179 0
M  V30 88731 O 480.487 -5.99158 -4.88404 0
M  V30 88732 C 481.427 -6.60234 -3.96415 0
M  V30 88733 C 480.697 -7.08259 -2.72856 0
M  V30 88734 O 480.487 -5.9427 -1.83651 0
M  V30 88735 C 479.297 -7.64886 -2.9555 0
M  V30 88736 O 478.907 -8.53963 -1.90717 0
M  V30 88737 C 478.417 -6.4116 -2.90739 0
M  V30 88738 C 479.127 -5.55375 -1.86963 0
M  V30 88739 N 479.077 -4.09664 -2.15742 0
M  V30 88740 H 481.916 -7.45574 -4.45629 0
M  V30 88741 H 482.188 -5.86232 -3.67314 0
M  V30 88742 H 481.32 -7.84412 -2.24479 0
M  V30 88743 P 477.357 -8.7635 -1.60911 0
M  V30 88744 O 477.137 -10.1388 -1.11561 0
M  V30 88745 O 476.567 -8.36503 -2.79617 0
M  V30 88746 O 477.107 -7.71806 -0.42951 0
M  V30 88747 C 478.047 -7.67148 0.673689 0
M  V30 88748 C 477.317 -7.33374 1.95559 0
M  V30 88749 O 477.107 -5.88721 2.00726 0
M  V30 88750 C 475.917 -7.92526 2.10483 0
M  V30 88751 O 475.527 -8.02971 3.47653 0
M  V30 88752 C 475.037 -6.89602 1.41652 0
M  V30 88753 C 475.747 -5.59201 1.75185 0
M  V30 88754 N 475.697 -4.58301 0.657969 0
M  V30 88755 H 478.536 -8.65116 0.777161 0
M  V30 88756 H 478.808 -6.9022 0.46725 0
M  V30 88757 H 477.94 -7.66548 2.79458 0
M  V30 88758 H 475.285 -5.16165 2.65183 0
M  V30 88759 H 475.005 -7.06433 0.329384 0
M  V30 88760 H 474.014 -6.90926 1.82021 0
M  V30 88761 H 475.848 -8.90873 1.62657 0
M  V30 88762 P 473.977 -8.03563 3.84925 0
M  V30 88763 O 473.757 -8.85821 5.0569 0
M  V30 88764 O 473.187 -8.41101 2.65469 0
M  V30 88765 O 473.727 -6.49734 4.18962 0
M  V30 88766 C 474.667 -5.81037 5.05421 0
M  V30 88767 C 473.937 -4.79018 5.88876 0
M  V30 88768 O 473.727 -3.58359 5.08515 0
M  V30 88769 C 472.537 -5.17448 6.36119 0
M  V30 88770 O 472.147 -4.45322 7.53318 0
M  V30 88771 C 471.657 -4.74639 5.19936 0
M  V30 88772 C 472.367 -3.49432 4.70418 0
M  V30 88773 N 472.317 -3.31776 3.22945 0
M  V30 88774 C 472.167 -2.02742 2.72939 0
M  V30 88775 O 472.077 -1.08301 3.52749 0
M  V30 88776 N 472.117 -1.96117 1.22063 0
M  V30 88777 C 472.217 -2.8878 0.551566 0
M  V30 88778 N 472.167 -2.65609 -0.750198 0
M  V30 88779 C 472.367 -4.22457 1.03707 0
M  V30 88780 C 472.417 -4.37979 2.39113 0
M  V30 88781 H 475.157 -6.54138 5.7131 0
M  V30 88782 H 475.427 -5.30492 4.44033 0
M  V30 88783 H 474.56 -4.55945 6.76735 0
M  V30 88784 H 471.905 -2.6176 5.18021 0
M  V30 88785 H 471.625 -5.52233 4.41941 0
M  V30 88786 H 470.634 -4.52045 5.53452 0
M  V30 88787 H 472.468 -6.25124 6.55234 0
M  V30 88788 H 472.54 -5.37936 2.80552 0
M  V30 88789 H 472.438 -5.07528 0.359553 0
M  V30 88790 H 472.05 -1.69403 -1.09847 0
M  V30 88791 H 472.246 -3.43701 -1.41792 0
M  V30 88792 P 470.597 -4.23843 7.83734 0
M  V30 88793 O 470.377 -4.19407 9.29784 0
M  V30 88794 O 469.807 -5.24426 7.09156 0
M  V30 88795 O 470.347 -2.7935 7.20758 0
M  V30 88796 C 471.287 -1.7299 7.50419 0
M  V30 88797 C 470.557 -0.406376 7.57911 0
M  V30 88798 O 470.347 0.0897726 6.21935 0
M  V30 88799 C 469.157 -0.447224 8.1878 0
M  V30 88800 O 468.767 0.825065 8.71101 0
M  V30 88801 C 468.277 -0.783801 6.99623 0
M  V30 88802 C 468.987 -0.0619192 5.85967 0
M  V30 88803 N 468.937 -0.7859 4.56281 0
M  V30 88804 H 471.776 -1.93423 8.4679 0
M  V30 88805 H 472.048 -1.68181 6.71046 0
M  V30 88806 H 471.18 0.289041 8.15388 0
M  V30 88807 P 467.217 1.17771 8.83182 0
M  V30 88808 O 466.997 2.07206 9.98732 0
M  V30 88809 O 466.427 -0.0743816 8.81969 0
M  V30 88810 O 466.967 1.97652 7.47304 0
M  V30 88811 C 467.907 3.01133 7.08783 0
M  V30 88812 C 467.177 4.12613 6.37049 0
M  V30 88813 O 466.967 3.72827 4.97879 0
M  V30 88814 C 465.777 4.45085 6.88694 0
M  V30 88815 O 465.387 5.7877 6.5624 0
M  V30 88816 C 464.897 3.47817 6.12078 0
M  V30 88817 C 465.607 3.39414 4.77697 0
M  V30 88818 N 465.557 2.04615 4.15333 0
M  V30 88819 H 468.396 3.41248 7.98759 0
M  V30 88820 H 468.668 2.5837 6.41742 0
M  V30 88821 H 467.8 5.02657 6.42673 0
M  V30 88822 P 463.837 6.144 6.45285 0
M  V30 88823 O 463.617 7.54673 6.86199 0
M  V30 88824 O 463.047 5.12391 7.179 0
M  V30 88825 O 463.587 5.99158 4.88404 0
M  V30 88826 C 464.527 6.60234 3.96415 0
M  V30 88827 C 463.797 7.08259 2.72856 0
M  V30 88828 O 463.587 5.9427 1.83651 0
M  V30 88829 C 462.397 7.64886 2.9555 0
M  V30 88830 O 462.007 8.53963 1.90717 0
M  V30 88831 C 461.517 6.4116 2.90739 0
M  V30 88832 C 462.227 5.55375 1.86963 0
M  V30 88833 N 462.177 4.09664 2.15742 0
M  V30 88834 H 465.016 7.45574 4.45629 0
M  V30 88835 H 465.288 5.86232 3.67314 0
M  V30 88836 H 464.42 7.84412 2.24479 0
M  V30 88837 P 460.457 8.7635 1.60911 0
M  V30 88838 O 460.237 10.1388 1.11561 0
M  V30 88839 O 459.667 8.36503 2.79617 0
M  V30 88840 O 460.207 7.71806 0.42951 0
M  V30 88841 C 461.147 7.66948 -0.673514 0
M  V30 88842 C 460.417 7.33374 -1.95559 0
M  V30 88843 O 460.207 5.88721 -2.00726 0
M  V30 88844 C 459.017 7.92218 -2.1125 0
M  V30 88845 O 458.627 8.02971 -3.47653 0
M  V30 88846 C 458.137 6.89504 -1.41631 0
M  V30 88847 C 458.847 5.59106 -1.75155 0
M  V30 88848 N 458.797 4.58136 -0.662409 0
M  V30 88849 C 458.647 3.26059 -1.02863 0
M  V30 88850 O 458.557 2.90743 -2.19009 0
M  V30 88851 N 458.607 2.35995 0.0155585 0
M  V30 88852 C 458.697 2.65248 1.35603 0
M  V30 88853 O 458.647 1.75605 2.20651 0
M  V30 88854 C 458.847 4.05747 1.64698 0
M  V30 88855 C 458.957 4.42345 3.09553 0
M  V30 88856 C 458.897 4.96734 0.652411 0
M  V30 88857 H 461.638 8.64917 -0.776982 0
M  V30 88858 H 461.907 6.89974 -0.474015 0
M  V30 88859 H 461.04 7.66548 -2.79458 0
M  V30 88860 H 458.385 5.16076 -2.65138 0
M  V30 88861 H 458.106 7.06433 -0.329384 0
M  V30 88862 H 457.114 6.90829 -1.81996 0
M  V30 88863 H 458.948 8.90774 -1.62639 0
M  V30 88864 H 459.019 6.02181 0.895285 0
M  V30 88865 H 457.989 4.80252 3.45468 0
M  V30 88866 H 459.726 5.20015 3.22119 0
M  V30 88867 H 459.238 3.53269 3.67833 0
M  V30 88868 H 458.502 1.39558 -0.227499 0
M  V30 88869 P 457.077 8.03563 -3.84925 0
M  V30 88870 O 456.857 8.85821 -5.0569 0
M  V30 88871 O 456.287 8.41101 -2.65469 0
M  V30 88872 O 456.827 6.4965 -4.18908 0
M  V30 88873 C 457.767 5.81037 -5.05421 0
M  V30 88874 C 457.037 4.78366 -5.89277 0
M  V30 88875 O 456.827 3.58302 -5.08433 0
M  V30 88876 C 455.637 5.17448 -6.36119 0
M  V30 88877 O 455.247 4.45271 -7.53232 0
M  V30 88878 C 454.757 4.74639 -5.19936 0
M  V30 88879 C 455.467 3.49432 -4.70418 0
M  V30 88880 N 455.417 3.31776 -3.22945 0
M  V30 88881 C 455.497 4.27147 -2.23315 0
M  V30 88882 N 455.417 3.78447 -1.02186 0
M  V30 88883 C 455.277 2.41001 -1.21732 0
M  V30 88884 C 455.147 1.36111 -0.27694 0
M  V30 88885 N 455.027 0.113683 -0.912949 0
M  V30 88886 C 455.027 -0.0846396 -2.27943 0
M  V30 88887 N 454.897 -1.34737 -2.6916 0
M  V30 88888 N 455.157 0.902521 -3.16379 0
M  V30 88889 C 455.277 2.11937 -2.56849 0
M  V30 88890 H 458.256 6.54213 -5.71376 0
M  V30 88891 H 458.528 5.30492 -4.44033 0
M  V30 88892 H 457.66 4.55889 -6.76652 0
M  V30 88893 P 453.697 4.23843 -7.83734 0
M  V30 88894 O 453.477 4.19407 -9.29784 0
M  V30 88895 O 452.907 5.24426 -7.09156 0
M  V30 88896 O 453.447 2.7935 -7.20758 0
M  V30 88897 C 454.387 1.7299 -7.50419 0
M  V30 88898 C 453.657 0.406376 -7.57911 0
M  V30 88899 O 453.447 -0.0897726 -6.21935 0
M  V30 88900 C 452.257 0.447224 -8.1878 0
M  V30 88901 O 451.867 -0.825065 -8.71101 0
M  V30 88902 C 451.377 0.783801 -6.99623 0
M  V30 88903 C 452.087 0.0619192 -5.85967 0
M  V30 88904 N 452.037 0.790462 -4.56202 0
M  V30 88905 H 454.876 1.93423 -8.4679 0
M  V30 88906 H 455.148 1.68852 -6.70877 0
M  V30 88907 H 454.28 -0.289041 -8.15388 0
M  V30 88908 H 451.625 -0.927006 -5.72848 0
M  V30 88909 H 451.345 1.86973 -6.82036 0
M  V30 88910 H 450.354 0.403953 -7.13357 0
M  V30 88911 H 452.188 1.20599 -8.97534 0
M  V30 88912 P 450.317 -1.17771 -8.83182 0
M  V30 88913 O 450.097 -2.07206 -9.98732 0
M  V30 88914 O 449.527 0.0743816 -8.81969 0
M  V30 88915 O 450.067 -1.97652 -7.47304 0
M  V30 88916 C 451.007 -3.01133 -7.08783 0
M  V30 88917 C 450.277 -4.12613 -6.37049 0
M  V30 88918 O 450.067 -3.72827 -4.97879 0
M  V30 88919 C 448.877 -4.45085 -6.88694 0
M  V30 88920 O 448.487 -5.7877 -6.5624 0
M  V30 88921 C 447.997 -3.47817 -6.12078 0
M  V30 88922 C 448.707 -3.39414 -4.77697 0
M  V30 88923 N 448.657 -2.04615 -4.15333 0
M  V30 88924 H 451.496 -3.41248 -7.98759 0
M  V30 88925 H 451.768 -2.5837 -6.41742 0
M  V30 88926 H 450.9 -5.02657 -6.42673 0
M  V30 88927 P 446.937 -6.144 -6.45285 0
M  V30 88928 O 446.717 -7.54673 -6.86199 0
M  V30 88929 O 446.147 -5.12391 -7.179 0
M  V30 88930 O 446.687 -5.99158 -4.88404 0
M  V30 88931 C 447.627 -6.60234 -3.96415 0
M  V30 88932 C 446.897 -7.08259 -2.72856 0
M  V30 88933 O 446.687 -5.9427 -1.83651 0
M  V30 88934 C 445.497 -7.64886 -2.9555 0
M  V30 88935 O 445.107 -8.53963 -1.90717 0
M  V30 88936 C 444.617 -6.4116 -2.90739 0
M  V30 88937 C 445.327 -5.55375 -1.86963 0
M  V30 88938 N 445.277 -4.09664 -2.15742 0
M  V30 88939 H 448.116 -7.45574 -4.45629 0
M  V30 88940 H 448.388 -5.86232 -3.67314 0
M  V30 88941 H 447.52 -7.84412 -2.24479 0
M  V30 88942 P 443.557 -8.7635 -1.60911 0
M  V30 88943 O 443.337 -10.1388 -1.11561 0
M  V30 88944 O 442.767 -8.36503 -2.79617 0
M  V30 88945 O 443.307 -7.71806 -0.42951 0
M  V30 88946 C 444.247 -7.67148 0.673689 0
M  V30 88947 C 443.517 -7.33374 1.95559 0
M  V30 88948 O 443.307 -5.88721 2.00726 0
M  V30 88949 C 442.117 -7.92526 2.10483 0
M  V30 88950 O 441.727 -8.02971 3.47653 0
M  V30 88951 C 441.237 -6.89602 1.41652 0
M  V30 88952 C 441.947 -5.59201 1.75185 0
M  V30 88953 N 441.897 -4.58235 0.662552 0
M  V30 88954 H 444.736 -8.65116 0.777161 0
M  V30 88955 H 445.008 -6.90173 0.474152 0
M  V30 88956 H 444.14 -7.66548 2.79458 0
M  V30 88957 P 440.177 -8.03563 3.84925 0
M  V30 88958 O 439.957 -8.85821 5.0569 0
M  V30 88959 O 439.387 -8.41101 2.65469 0
M  V30 88960 O 439.927 -6.4965 4.18908 0
M  V30 88961 C 440.867 -5.81037 5.05421 0
M  V30 88962 C 440.137 -4.78366 5.89277 0
M  V30 88963 O 439.927 -3.58302 5.08433 0
M  V30 88964 C 438.737 -5.17448 6.36119 0
M  V30 88965 O 438.347 -4.45271 7.53232 0
M  V30 88966 C 437.857 -4.74639 5.19936 0
M  V30 88967 C 438.567 -3.49432 4.70418 0
M  V30 88968 N 438.517 -3.31776 3.22945 0
M  V30 88969 H 441.356 -6.54213 5.71376 0
M  V30 88970 H 441.628 -5.30492 4.44033 0
M  V30 88971 H 440.76 -4.55889 6.76652 0
M  V30 88972 P 436.797 -4.23843 7.83734 0
M  V30 88973 O 436.577 -4.19407 9.29784 0
M  V30 88974 O 436.007 -5.24426 7.09156 0
M  V30 88975 O 436.547 -2.7935 7.20758 0
M  V30 88976 C 437.487 -1.7299 7.50419 0
M  V30 88977 C 436.757 -0.406376 7.57911 0
M  V30 88978 O 436.547 0.0897726 6.21935 0
M  V30 88979 C 435.357 -0.447224 8.1878 0
M  V30 88980 O 434.967 0.825065 8.71101 0
M  V30 88981 C 434.477 -0.783801 6.99623 0
M  V30 88982 C 435.187 -0.0619192 5.85967 0
M  V30 88983 N 435.137 -0.7859 4.56281 0
M  V30 88984 C 435.217 -2.14308 4.31736 0
M  V30 88985 N 435.137 -2.46106 3.05116 0
M  V30 88986 C 434.997 -1.23422 2.4014 0
M  V30 88987 C 434.867 -0.938381 1.02409 0
M  V30 88988 N 434.747 0.444647 0.805413 0
M  V30 88989 C 434.747 1.40829 1.79435 0
M  V30 88990 N 434.617 2.67213 1.38558 0
M  V30 88991 N 434.877 1.12947 3.09005 0
M  V30 88992 C 434.997 -0.204887 3.32369 0
M  V30 88993 H 437.976 -1.93423 8.4679 0
M  V30 88994 H 438.248 -1.68181 6.71046 0
M  V30 88995 H 437.38 0.289041 8.15388 0
M  V30 88996 P 433.417 1.17771 8.83182 0
M  V30 88997 O 433.197 2.07206 9.98732 0
M  V30 88998 O 432.627 -0.0743816 8.81969 0
M  V30 88999 O 433.167 1.97652 7.47304 0
M  V30 89000 C 434.107 3.01133 7.08783 0
M  V30 89001 C 433.377 4.12613 6.37049 0
M  V30 89002 O 433.167 3.72827 4.97879 0
M  V30 89003 C 431.977 4.45085 6.88694 0
M  V30 89004 O 431.587 5.7877 6.5624 0
M  V30 89005 C 431.097 3.47817 6.12078 0
M  V30 89006 C 431.807 3.39414 4.77697 0
M  V30 89007 N 431.757 2.04199 4.15538 0
M  V30 89008 H 434.596 3.41248 7.98759 0
M  V30 89009 H 434.868 2.57728 6.42 0
M  V30 89010 H 434 5.02657 6.42673 0
M  V30 89011 H 431.345 4.11708 4.08956 0
M  V30 89012 H 431.065 2.49626 6.61679 0
M  V30 89013 H 430.074 3.8662 6.00862 0
M  V30 89014 H 431.908 4.29991 7.97006 0
M  V30 89015 P 430.037 6.144 6.45285 0
M  V30 89016 O 429.817 7.54673 6.86199 0
M  V30 89017 O 429.247 5.12391 7.179 0
M  V30 89018 O 429.787 5.99158 4.88404 0
M  V30 89019 C 430.727 6.60234 3.96415 0
M  V30 89020 C 429.997 7.08259 2.72856 0
M  V30 89021 O 429.787 5.9427 1.83651 0
M  V30 89022 C 428.597 7.64886 2.9555 0
M  V30 89023 O 428.207 8.53963 1.90717 0
M  V30 89024 C 427.717 6.4116 2.90739 0
M  V30 89025 C 428.427 5.55375 1.86963 0
M  V30 89026 N 428.377 4.09664 2.15742 0
M  V30 89027 H 431.216 7.45574 4.45629 0
M  V30 89028 H 431.488 5.86232 3.67314 0
M  V30 89029 H 430.62 7.84412 2.24479 0
M  V30 89030 P 426.657 8.7635 1.60911 0
M  V30 89031 O 426.437 10.1388 1.11561 0
M  V30 89032 O 425.867 8.36503 2.79617 0
M  V30 89033 O 426.407 7.71906 0.429565 0
M  V30 89034 C 427.347 7.67148 -0.673689 0
M  V30 89035 C 426.617 7.33666 -1.94851 0
M  V30 89036 O 426.407 5.88816 -2.00759 0
M  V30 89037 C 425.217 7.92526 -2.10483 0
M  V30 89038 O 424.827 8.03063 -3.47693 0
M  V30 89039 C 424.337 6.89602 -1.41652 0
M  V30 89040 C 425.047 5.59201 -1.75185 0
M  V30 89041 N 424.997 4.58235 -0.662552 0
M  V30 89042 C 424.847 3.24451 -1.01643 0
M  V30 89043 O 424.757 2.94958 -2.21722 0
M  V30 89044 N 424.797 2.30408 0.165238 0
M  V30 89045 C 424.897 2.66048 1.25118 0
M  V30 89046 N 424.847 1.70787 2.16813 0
M  V30 89047 C 425.047 4.02732 1.64413 0
M  V30 89048 C 425.097 4.9488 0.63991 0
M  V30 89049 H 427.837 8.65017 -0.777072 0
M  V30 89050 H 428.107 6.90173 -0.474152 0
M  V30 89051 H 427.24 7.66642 -2.79492 0
M  V30 89052 H 424.585 5.16254 -2.65229 0
M  V30 89053 H 424.305 7.06532 -0.329431 0
M  V30 89054 H 423.314 6.91023 -1.82047 0
M  V30 89055 H 425.148 8.90873 -1.62657 0
M  V30 89056 H 425.22 6.00104 0.892197 0
M  V30 89057 H 425.118 4.31733 2.69229 0
M  V30 89058 H 424.73 0.724835 1.8844 0
M  V30 89059 H 424.926 1.94716 3.16734 0
M  V30 89060 P 423.278 8.03563 -3.84925 0
M  V30 89061 O 423.058 8.85821 -5.0569 0
M  V30 89062 O 422.488 8.41101 -2.65469 0
M  V30 89063 O 423.028 6.4965 -4.18908 0
M  V30 89064 C 423.968 5.81037 -5.05421 0
M  V30 89065 C 423.238 4.78366 -5.89277 0
M  V30 89066 O 423.028 3.58302 -5.08433 0
M  V30 89067 C 421.838 5.17448 -6.36119 0
M  V30 89068 O 421.448 4.45271 -7.53232 0
M  V30 89069 C 420.958 4.74639 -5.19936 0
M  V30 89070 C 421.668 3.49432 -4.70418 0
M  V30 89071 N 421.618 3.32099 -3.22613 0
M  V30 89072 H 424.457 6.54213 -5.71376 0
M  V30 89073 H 424.729 5.30936 -4.43503 0
M  V30 89074 H 423.861 4.55889 -6.76652 0
M  V30 89075 H 421.206 2.61715 -5.17932 0
M  V30 89076 H 420.926 5.52155 -4.41878 0
M  V30 89077 H 419.935 4.51981 -5.53374 0
M  V30 89078 H 421.769 6.25124 -6.55234 0
M  V30 89079 P 419.898 4.23843 -7.83734 0
M  V30 89080 O 419.678 4.19407 -9.29784 0
M  V30 89081 O 419.108 5.24426 -7.09156 0
M  V30 89082 O 419.648 2.7935 -7.20758 0
M  V30 89083 C 420.588 1.7299 -7.50419 0
M  V30 89084 C 419.858 0.406376 -7.57911 0
M  V30 89085 O 419.648 -0.0897726 -6.21935 0
M  V30 89086 C 418.458 0.447224 -8.1878 0
M  V30 89087 O 418.068 -0.825065 -8.71101 0
M  V30 89088 C 417.578 0.783801 -6.99623 0
M  V30 89089 C 418.288 0.0619192 -5.85967 0
M  V30 89090 N 418.238 0.7859 -4.56281 0
M  V30 89091 H 421.077 1.93423 -8.4679 0
M  V30 89092 H 421.349 1.68181 -6.71046 0
M  V30 89093 H 420.481 -0.289041 -8.15388 0
M  V30 89094 P 416.518 -1.17771 -8.83182 0
M  V30 89095 O 416.298 -2.07206 -9.98732 0
M  V30 89096 O 415.728 0.0743816 -8.81969 0
M  V30 89097 O 416.268 -1.97652 -7.47304 0
M  V30 89098 C 417.208 -3.01133 -7.08783 0
M  V30 89099 C 416.478 -4.12613 -6.37049 0
M  V30 89100 O 416.268 -3.72827 -4.97879 0
M  V30 89101 C 415.078 -4.45085 -6.88694 0
M  V30 89102 O 414.688 -5.7877 -6.5624 0
M  V30 89103 C 414.198 -3.47817 -6.12078 0
M  V30 89104 C 414.908 -3.39414 -4.77697 0
M  V30 89105 N 414.858 -2.04615 -4.15333 0
M  V30 89106 H 417.697 -3.41248 -7.98759 0
M  V30 89107 H 417.969 -2.5837 -6.41742 0
M  V30 89108 H 417.101 -5.02657 -6.42673 0
M  V30 89109 P 413.138 -6.144 -6.45285 0
M  V30 89110 O 412.918 -7.54673 -6.86199 0
M  V30 89111 O 412.348 -5.12391 -7.179 0
M  V30 89112 O 412.888 -5.99158 -4.88404 0
M  V30 89113 C 413.828 -6.60062 -3.96313 0
M  V30 89114 C 413.098 -7.08259 -2.72856 0
M  V30 89115 O 412.888 -5.9427 -1.83651 0
M  V30 89116 C 411.698 -7.65087 -2.94749 0
M  V30 89117 O 411.308 -8.53963 -1.90717 0
M  V30 89118 C 410.818 -6.41069 -2.90698 0
M  V30 89119 C 411.528 -5.5528 -1.86931 0
M  V30 89120 N 411.478 -4.09575 -2.15696 0
M  V30 89121 C 411.328 -3.24249 -1.08435 0
M  V30 89122 O 411.238 -3.63946 0.0628747 0
M  V30 89123 N 411.288 -1.90009 -1.39973 0
M  V30 89124 C 411.378 -1.34884 -2.65614 0
M  V30 89125 O 411.328 -0.123716 -2.81728 0
M  V30 89126 C 411.528 -2.3145 -3.71736 0
M  V30 89127 C 411.638 -1.75913 -5.10438 0
M  V30 89128 C 411.578 -3.63518 -3.44754 0
M  V30 89129 H 414.319 -7.45402 -4.45526 0
M  V30 89130 H 414.588 -5.86062 -3.67208 0
M  V30 89131 H 413.721 -7.84412 -2.24479 0
M  V30 89132 H 411.066 -5.73358 -0.888409 0
M  V30 89133 H 410.787 -5.90877 -3.88583 0
M  V30 89134 H 409.795 -6.65867 -2.58821 0
M  V30 89135 H 411.629 -8.16248 -3.92006 0
M  V30 89136 H 411.7 -4.34551 -4.26383 0
M  V30 89137 H 410.67 -1.85471 -5.61775 0
M  V30 89138 H 412.407 -2.31364 -5.66257 0
M  V30 89139 H 411.919 -0.695936 -5.05229 0
M  V30 89140 H 411.183 -1.26277 -0.63625 0
M  V30 89141 P 409.758 -8.7635 -1.60911 0
M  V30 89142 O 409.538 -10.1388 -1.11561 0
M  V30 89143 O 408.968 -8.36503 -2.79617 0
M  V30 89144 O 409.508 -7.71806 -0.42951 0
M  V30 89145 C 410.448 -7.67148 0.673689 0
M  V30 89146 C 409.718 -7.33374 1.95559 0
M  V30 89147 O 409.508 -5.88721 2.00726 0
M  V30 89148 C 408.318 -7.92526 2.10483 0
M  V30 89149 O 407.928 -8.02971 3.47653 0
M  V30 89150 C 407.438 -6.89602 1.41652 0
M  V30 89151 C 408.148 -5.59201 1.75185 0
M  V30 89152 N 408.098 -4.58301 0.657969 0
M  V30 89153 H 410.937 -8.65116 0.777161 0
M  V30 89154 H 411.209 -6.9022 0.46725 0
M  V30 89155 H 410.341 -7.66548 2.79458 0
M  V30 89156 H 407.686 -5.16165 2.65183 0
M  V30 89157 H 407.406 -7.06433 0.329384 0
M  V30 89158 H 406.415 -6.90926 1.82021 0
M  V30 89159 H 408.249 -8.90873 1.62657 0
M  V30 89160 P 406.378 -8.03563 3.84925 0
M  V30 89161 O 406.158 -8.85821 5.0569 0
M  V30 89162 O 405.588 -8.41101 2.65469 0
M  V30 89163 O 406.128 -6.4965 4.18908 0
M  V30 89164 C 407.068 -5.81037 5.05421 0
M  V30 89165 C 406.338 -4.78366 5.89277 0
M  V30 89166 O 406.128 -3.58302 5.08433 0
M  V30 89167 C 404.938 -5.17448 6.36119 0
M  V30 89168 O 404.548 -4.45271 7.53232 0
M  V30 89169 C 404.058 -4.74639 5.19936 0
M  V30 89170 C 404.768 -3.49432 4.70418 0
M  V30 89171 N 404.718 -3.32099 3.22613 0
M  V30 89172 H 407.557 -6.54213 5.71376 0
M  V30 89173 H 407.829 -5.30936 4.43503 0
M  V30 89174 H 406.961 -4.55889 6.76652 0
M  V30 89175 H 404.306 -2.61715 5.17932 0
M  V30 89176 H 404.026 -5.52155 4.41878 0
M  V30 89177 H 403.035 -4.51981 5.53374 0
M  V30 89178 H 404.869 -6.25124 6.55234 0
M  V30 89179 P 402.998 -4.23843 7.83734 0
M  V30 89180 O 402.778 -4.19407 9.29784 0
M  V30 89181 O 402.208 -5.24426 7.09156 0
M  V30 89182 O 402.748 -2.7935 7.20758 0
M  V30 89183 C 403.688 -1.7299 7.50419 0
M  V30 89184 C 402.958 -0.406376 7.57911 0
M  V30 89185 O 402.748 0.0897726 6.21935 0
M  V30 89186 C 401.558 -0.447224 8.1878 0
M  V30 89187 O 401.168 0.825065 8.71101 0
M  V30 89188 C 400.678 -0.783801 6.99623 0
M  V30 89189 C 401.388 -0.0619192 5.85967 0
M  V30 89190 N 401.338 -0.7859 4.56281 0
M  V30 89191 H 404.177 -1.93423 8.4679 0
M  V30 89192 H 404.449 -1.68181 6.71046 0
M  V30 89193 H 403.581 0.289041 8.15388 0
M  V30 89194 P 399.618 1.17771 8.83182 0
M  V30 89195 O 399.398 2.07206 9.98732 0
M  V30 89196 O 398.828 -0.0743816 8.81969 0
M  V30 89197 O 399.368 1.97652 7.47304 0
M  V30 89198 C 400.308 3.01055 7.08599 0
M  V30 89199 C 399.578 4.12613 6.37049 0
M  V30 89200 O 399.368 3.72827 4.97879 0
M  V30 89201 C 398.178 4.45719 6.88164 0
M  V30 89202 O 397.788 5.7877 6.5624 0
M  V30 89203 C 397.298 3.47768 6.11991 0
M  V30 89204 C 398.008 3.39356 4.77615 0
M  V30 89205 N 397.958 2.04571 4.15244 0
M  V30 89206 C 397.808 1.98587 2.78314 0
M  V30 89207 O 397.718 2.98134 2.08835 0
M  V30 89208 N 397.768 0.714467 2.24925 0
M  V30 89209 C 397.858 -0.470001 2.94169 0
M  V30 89210 C 398.008 -0.312541 4.36783 0
M  V30 89211 C 398.058 0.914512 4.92583 0
M  V30 89212 H 400.799 3.41169 7.98575 0
M  V30 89213 H 401.068 2.58295 6.41556 0
M  V30 89214 H 400.201 5.02657 6.42673 0
M  V30 89215 H 397.546 4.11637 4.08885 0
M  V30 89216 H 397.267 2.49626 6.61679 0
M  V30 89217 H 396.275 3.86566 6.00778 0
M  V30 89218 H 398.109 4.29943 7.96918 0
M  V30 89219 H 398.18 1.00937 6.00374 0
M  V30 89220 P 396.238 6.144 6.45285 0
M  V30 89221 O 396.018 7.54673 6.86199 0
M  V30 89222 O 395.448 5.12391 7.179 0
M  V30 89223 O 395.988 5.99158 4.88404 0
M  V30 89224 C 396.928 6.60234 3.96415 0
M  V30 89225 C 396.198 7.08259 2.72856 0
M  V30 89226 O 395.988 5.9427 1.83651 0
M  V30 89227 C 394.798 7.64886 2.9555 0
M  V30 89228 O 394.408 8.53963 1.90717 0
M  V30 89229 C 393.918 6.4116 2.90739 0
M  V30 89230 C 394.628 5.55375 1.86963 0
M  V30 89231 N 394.578 4.09664 2.15742 0
M  V30 89232 H 397.417 7.45574 4.45629 0
M  V30 89233 H 397.689 5.86232 3.67314 0
M  V30 89234 H 396.821 7.84412 2.24479 0
M  V30 89235 P 392.858 8.7635 1.60911 0
M  V30 89236 O 392.638 10.1388 1.11561 0
M  V30 89237 O 392.068 8.36503 2.79617 0
M  V30 89238 O 392.608 7.71806 0.42951 0
M  V30 89239 C 393.548 7.67148 -0.673689 0
M  V30 89240 C 392.818 7.33374 -1.95559 0
M  V30 89241 O 392.608 5.88721 -2.00726 0
M  V30 89242 C 391.418 7.92526 -2.10483 0
M  V30 89243 O 391.028 8.02971 -3.47653 0
M  V30 89244 C 390.538 6.89602 -1.41652 0
M  V30 89245 C 391.248 5.59201 -1.75185 0
M  V30 89246 N 391.198 4.58301 -0.657969 0
M  V30 89247 C 391.278 4.79019 0.692603 0
M  V30 89248 N 391.208 3.69736 1.38998 0
M  V30 89249 C 391.058 2.70474 0.438135 0
M  V30 89250 C 390.928 1.30327 0.538142 0
M  V30 89251 N 390.918 0.64304 1.69192 0
M  V30 89252 N 390.808 0.611027 -0.605183 0
M  V30 89253 C 390.818 1.27002 -1.75953 0
M  V30 89254 N 390.938 2.56038 -1.98546 0
M  V30 89255 C 391.058 3.22681 -0.822541 0
M  V30 89256 H 394.037 8.65116 -0.777161 0
M  V30 89257 H 394.309 6.9022 -0.46725 0
M  V30 89258 H 393.441 7.66548 -2.79458 0
M  V30 89259 H 390.786 5.16165 -2.65183 0
M  V30 89260 H 390.506 7.06433 -0.329384 0
M  V30 89261 H 389.515 6.90926 -1.82021 0
M  V30 89262 H 391.349 8.90873 -1.62657 0
M  V30 89263 H 391.39 5.77785 1.13874 0
M  V30 89264 H 391.009 1.15585 2.57991 0
M  V30 89265 H 390.82 -0.382989 1.69835 0
M  V30 89266 H 390.712 0.653331 -2.64449 0
M  V30 89267 P 389.478 8.03563 -3.84925 0
M  V30 89268 O 389.258 8.85821 -5.0569 0
M  V30 89269 O 388.688 8.41101 -2.65469 0
M  V30 89270 O 389.228 6.4965 -4.18908 0
M  V30 89271 C 390.168 5.81037 -5.05421 0
M  V30 89272 C 389.438 4.78366 -5.89277 0
M  V30 89273 O 389.228 3.58302 -5.08433 0
M  V30 89274 C 388.038 5.17448 -6.36119 0
M  V30 89275 O 387.648 4.45271 -7.53232 0
M  V30 89276 C 387.158 4.74639 -5.19936 0
M  V30 89277 C 387.868 3.49432 -4.70418 0
M  V30 89278 N 387.818 3.31776 -3.22945 0
M  V30 89279 H 390.657 6.54213 -5.71376 0
M  V30 89280 H 390.929 5.30492 -4.44033 0
M  V30 89281 H 390.061 4.55889 -6.76652 0
M  V30 89282 P 386.098 4.23843 -7.83734 0
M  V30 89283 O 385.878 4.19407 -9.29784 0
M  V30 89284 O 385.308 5.24426 -7.09156 0
M  V30 89285 O 385.848 2.7935 -7.20758 0
M  V30 89286 C 386.788 1.7299 -7.50419 0
M  V30 89287 C 386.058 0.406376 -7.57911 0
M  V30 89288 O 385.848 -0.0897726 -6.21935 0
M  V30 89289 C 384.658 0.447224 -8.1878 0
M  V30 89290 O 384.268 -0.825065 -8.71101 0
M  V30 89291 C 383.778 0.783801 -6.99623 0
M  V30 89292 C 384.488 0.0619192 -5.85967 0
M  V30 89293 N 384.438 0.7859 -4.56281 0
M  V30 89294 H 387.277 1.93423 -8.4679 0
M  V30 89295 H 387.549 1.68181 -6.71046 0
M  V30 89296 H 386.681 -0.289041 -8.15388 0
M  V30 89297 P 382.718 -1.17771 -8.83182 0
M  V30 89298 O 382.498 -2.07206 -9.98732 0
M  V30 89299 O 381.928 0.0743816 -8.81969 0
M  V30 89300 O 382.468 -1.97652 -7.47304 0
M  V30 89301 C 383.408 -3.01133 -7.08783 0
M  V30 89302 C 382.678 -4.12613 -6.37049 0
M  V30 89303 O 382.468 -3.72827 -4.97879 0
M  V30 89304 C 381.278 -4.45085 -6.88694 0
M  V30 89305 O 380.888 -5.7877 -6.5624 0
M  V30 89306 C 380.398 -3.47817 -6.12078 0
M  V30 89307 C 381.108 -3.39414 -4.77697 0
M  V30 89308 N 381.058 -2.04615 -4.15333 0
M  V30 89309 H 383.897 -3.41248 -7.98759 0
M  V30 89310 H 384.169 -2.5837 -6.41742 0
M  V30 89311 H 383.301 -5.02657 -6.42673 0
M  V30 89312 P 379.338 -6.144 -6.45285 0
M  V30 89313 O 379.118 -7.54673 -6.86199 0
M  V30 89314 O 378.548 -5.12391 -7.179 0
M  V30 89315 O 379.088 -5.99158 -4.88404 0
M  V30 89316 C 380.028 -6.60234 -3.96415 0
M  V30 89317 C 379.298 -7.08259 -2.72856 0
M  V30 89318 O 379.088 -5.9427 -1.83651 0
M  V30 89319 C 377.898 -7.64886 -2.9555 0
M  V30 89320 O 377.508 -8.53963 -1.90717 0
M  V30 89321 C 377.018 -6.4116 -2.90739 0
M  V30 89322 C 377.728 -5.55375 -1.86963 0
M  V30 89323 N 377.678 -4.09448 -2.16152 0
M  V30 89324 H 380.517 -7.45574 -4.45629 0
M  V30 89325 H 380.789 -5.85864 -3.679 0
M  V30 89326 H 379.921 -7.84412 -2.24479 0
M  V30 89327 H 377.266 -5.73457 -0.888562 0
M  V30 89328 H 376.986 -5.90877 -3.88583 0
M  V30 89329 H 375.995 -6.6596 -2.58858 0
M  V30 89330 H 377.829 -8.16339 -3.92049 0
M  V30 89331 P 375.958 -8.7635 -1.60911 0
M  V30 89332 O 375.738 -10.1388 -1.11561 0
M  V30 89333 O 375.168 -8.36503 -2.79617 0
M  V30 89334 O 375.708 -7.71906 -0.429565 0
M  V30 89335 C 376.648 -7.67148 0.673689 0
M  V30 89336 C 375.918 -7.33666 1.94851 0
M  V30 89337 O 375.708 -5.88816 2.00759 0
M  V30 89338 C 374.518 -7.92526 2.10483 0
M  V30 89339 O 374.128 -8.03063 3.47693 0
M  V30 89340 C 373.638 -6.89602 1.41652 0
M  V30 89341 C 374.348 -5.59201 1.75185 0
M  V30 89342 N 374.298 -4.58235 0.662552 0
M  V30 89343 C 374.148 -3.24451 1.01643 0
M  V30 89344 O 374.058 -2.94958 2.21722 0
M  V30 89345 N 374.098 -2.30408 -0.165238 0
M  V30 89346 C 374.198 -2.66048 -1.25118 0
M  V30 89347 N 374.148 -1.70787 -2.16813 0
M  V30 89348 C 374.348 -4.02732 -1.64413 0
M  V30 89349 C 374.398 -4.9488 -0.63991 0
M  V30 89350 H 377.138 -8.65017 0.777072 0
M  V30 89351 H 377.408 -6.90173 0.474152 0
M  V30 89352 H 376.541 -7.66642 2.79492 0
M  V30 89353 H 373.886 -5.16254 2.65229 0
M  V30 89354 H 373.606 -7.06532 0.329431 0
M  V30 89355 H 372.615 -6.91023 1.82047 0
M  V30 89356 H 374.449 -8.90873 1.62657 0
M  V30 89357 H 374.521 -6.00104 -0.892197 0
M  V30 89358 H 374.419 -4.31733 -2.69229 0
M  V30 89359 H 374.031 -0.724835 -1.8844 0
M  V30 89360 H 374.227 -1.94716 -3.16734 0
M  V30 89361 P 372.578 -8.03563 3.84925 0
M  V30 89362 O 372.358 -8.85821 5.0569 0
M  V30 89363 O 371.788 -8.41101 2.65469 0
M  V30 89364 O 372.328 -6.4965 4.18908 0
M  V30 89365 C 373.268 -5.81037 5.05421 0
M  V30 89366 C 372.538 -4.78366 5.89277 0
M  V30 89367 O 372.328 -3.58302 5.08433 0
M  V30 89368 C 371.138 -5.17448 6.36119 0
M  V30 89369 O 370.748 -4.45271 7.53232 0
M  V30 89370 C 370.258 -4.74639 5.19936 0
M  V30 89371 C 370.968 -3.49432 4.70418 0
M  V30 89372 N 370.918 -3.31776 3.22945 0
M  V30 89373 H 373.757 -6.54213 5.71376 0
M  V30 89374 H 374.029 -5.30492 4.44033 0
M  V30 89375 H 373.161 -4.55889 6.76652 0
M  V30 89376 P 369.198 -4.23843 7.83734 0
M  V30 89377 O 368.978 -4.19407 9.29784 0
M  V30 89378 O 368.408 -5.24426 7.09156 0
M  V30 89379 O 368.948 -2.7935 7.20758 0
M  V30 89380 C 369.888 -1.7299 7.50419 0
M  V30 89381 C 369.158 -0.406376 7.57911 0
M  V30 89382 O 368.948 0.0897726 6.21935 0
M  V30 89383 C 367.758 -0.447224 8.1878 0
M  V30 89384 O 367.368 0.825065 8.71101 0
M  V30 89385 C 366.878 -0.783801 6.99623 0
M  V30 89386 C 367.588 -0.0619192 5.85967 0
M  V30 89387 N 367.538 -0.790462 4.56202 0
M  V30 89388 H 370.377 -1.93423 8.4679 0
M  V30 89389 H 370.649 -1.68852 6.70877 0
M  V30 89390 H 369.781 0.289041 8.15388 0
M  V30 89391 H 367.126 0.927006 5.72848 0
M  V30 89392 H 366.846 -1.86973 6.82036 0
M  V30 89393 H 365.855 -0.403953 7.13357 0
M  V30 89394 H 367.689 -1.20599 8.97534 0
M  V30 89395 P 365.818 1.17771 8.83182 0
M  V30 89396 O 365.598 2.07206 9.98732 0
M  V30 89397 O 365.028 -0.0743816 8.81969 0
M  V30 89398 O 365.568 1.97652 7.47304 0
M  V30 89399 C 366.508 3.01133 7.08783 0
M  V30 89400 C 365.778 4.12613 6.37049 0
M  V30 89401 O 365.568 3.72827 4.97879 0
M  V30 89402 C 364.378 4.45085 6.88694 0
M  V30 89403 O 363.988 5.7877 6.5624 0
M  V30 89404 C 363.498 3.47817 6.12078 0
M  V30 89405 C 364.208 3.39414 4.77697 0
M  V30 89406 N 364.158 2.04199 4.15538 0
M  V30 89407 H 366.997 3.41248 7.98759 0
M  V30 89408 H 367.269 2.57728 6.42 0
M  V30 89409 H 366.401 5.02657 6.42673 0
M  V30 89410 H 363.746 4.11708 4.08956 0
M  V30 89411 H 363.466 2.49626 6.61679 0
M  V30 89412 H 362.475 3.8662 6.00862 0
M  V30 89413 H 364.309 4.29991 7.97006 0
M  V30 89414 P 362.438 6.144 6.45285 0
M  V30 89415 O 362.218 7.54673 6.86199 0
M  V30 89416 O 361.648 5.12391 7.179 0
M  V30 89417 O 362.188 5.99158 4.88404 0
M  V30 89418 C 363.128 6.60062 3.96313 0
M  V30 89419 C 362.398 7.08259 2.72856 0
M  V30 89420 O 362.188 5.9427 1.83651 0
M  V30 89421 C 360.998 7.65087 2.94749 0
M  V30 89422 O 360.608 8.53963 1.90717 0
M  V30 89423 C 360.118 6.41069 2.90698 0
M  V30 89424 C 360.828 5.5528 1.86931 0
M  V30 89425 N 360.778 4.09575 2.15696 0
M  V30 89426 C 360.628 3.24249 1.08435 0
M  V30 89427 O 360.538 3.63946 -0.0628747 0
M  V30 89428 N 360.588 1.90009 1.39973 0
M  V30 89429 C 360.678 1.34884 2.65614 0
M  V30 89430 O 360.628 0.123716 2.81728 0
M  V30 89431 C 360.828 2.3145 3.71736 0
M  V30 89432 C 360.938 1.75913 5.10438 0
M  V30 89433 C 360.878 3.63518 3.44754 0
M  V30 89434 H 363.619 7.45402 4.45526 0
M  V30 89435 H 363.888 5.86062 3.67208 0
M  V30 89436 H 363.021 7.84412 2.24479 0
M  V30 89437 H 360.366 5.73358 0.888409 0
M  V30 89438 H 360.087 5.90877 3.88583 0
M  V30 89439 H 359.095 6.65867 2.58821 0
M  V30 89440 H 360.929 8.16248 3.92006 0
M  V30 89441 H 361 4.34551 4.26383 0
M  V30 89442 H 359.97 1.85471 5.61775 0
M  V30 89443 H 361.707 2.31364 5.66257 0
M  V30 89444 H 361.219 0.695936 5.05229 0
M  V30 89445 H 360.483 1.26277 0.63625 0
M  V30 89446 P 359.058 8.7635 1.60911 0
M  V30 89447 O 358.838 10.1388 1.11561 0
M  V30 89448 O 358.268 8.36503 2.79617 0
M  V30 89449 O 358.808 7.71806 0.42951 0
M  V30 89450 C 359.748 7.67148 -0.673689 0
M  V30 89451 C 359.018 7.33374 -1.95559 0
M  V30 89452 O 358.808 5.88721 -2.00726 0
M  V30 89453 C 357.618 7.92526 -2.10483 0
M  V30 89454 O 357.228 8.02971 -3.47653 0
M  V30 89455 C 356.738 6.89602 -1.41652 0
M  V30 89456 C 357.448 5.59201 -1.75185 0
M  V30 89457 N 357.398 4.58235 -0.662552 0
M  V30 89458 H 360.237 8.65116 -0.777161 0
M  V30 89459 H 360.509 6.90173 -0.474152 0
M  V30 89460 H 359.641 7.66548 -2.79458 0
M  V30 89461 P 355.678 8.03563 -3.84925 0
M  V30 89462 O 355.458 8.85821 -5.0569 0
M  V30 89463 O 354.888 8.41101 -2.65469 0
M  V30 89464 O 355.428 6.4965 -4.18908 0
M  V30 89465 C 356.368 5.81037 -5.05421 0
M  V30 89466 C 355.638 4.78366 -5.89277 0
M  V30 89467 O 355.428 3.58302 -5.08433 0
M  V30 89468 C 354.238 5.17448 -6.36119 0
M  V30 89469 O 353.848 4.45271 -7.53232 0
M  V30 89470 C 353.358 4.74639 -5.19936 0
M  V30 89471 C 354.068 3.49432 -4.70418 0
M  V30 89472 N 354.018 3.31776 -3.22945 0
M  V30 89473 H 356.857 6.54213 -5.71376 0
M  V30 89474 H 357.129 5.30492 -4.44033 0
M  V30 89475 H 356.261 4.55889 -6.76652 0
M  V30 89476 P 352.298 4.23843 -7.83734 0
M  V30 89477 O 352.078 4.19407 -9.29784 0
M  V30 89478 O 351.508 5.24426 -7.09156 0
M  V30 89479 O 352.048 2.7935 -7.20758 0
M  V30 89480 C 352.988 1.72945 -7.50224 0
M  V30 89481 C 352.258 0.406376 -7.57911 0
M  V30 89482 O 352.048 -0.0897726 -6.21935 0
M  V30 89483 C 350.858 0.438983 -8.18724 0
M  V30 89484 O 350.468 -0.825065 -8.71101 0
M  V30 89485 C 349.978 0.783689 -6.99524 0
M  V30 89486 C 350.688 0.0619086 -5.85867 0
M  V30 89487 N 350.638 0.78573 -4.56183 0
M  V30 89488 C 350.488 0.0292889 -3.41887 0
M  V30 89489 O 350.398 -1.18445 -3.4419 0
M  V30 89490 N 350.448 0.744061 -2.23964 0
M  V30 89491 C 350.538 2.10932 -2.10362 0
M  V30 89492 O 350.488 2.64117 -0.98825 0
M  V30 89493 C 350.688 2.8202 -3.34994 0
M  V30 89494 C 350.798 4.31095 -3.25037 0
M  V30 89495 C 350.738 2.15547 -4.52261 0
M  V30 89496 H 353.479 1.93379 -8.46595 0
M  V30 89497 H 353.748 1.68132 -6.70852 0
M  V30 89498 H 352.881 -0.289041 -8.15388 0
M  V30 89499 H 350.226 -0.926847 -5.72749 0
M  V30 89500 H 349.947 1.86973 -6.82036 0
M  V30 89501 H 348.955 0.403896 -7.13257 0
M  V30 89502 H 350.789 1.20585 -8.97435 0
M  V30 89503 H 350.86 2.71231 -5.45042 0
M  V30 89504 H 349.83 4.76966 -3.49992 0
M  V30 89505 H 351.567 4.67047 -3.95024 0
M  V30 89506 H 351.079 4.58996 -2.22312 0
M  V30 89507 H 350.343 0.214893 -1.39758 0
M  V30 89508 P 348.918 -1.17771 -8.83182 0
M  V30 89509 O 348.698 -2.07206 -9.98732 0
M  V30 89510 O 348.128 0.0743816 -8.81969 0
M  V30 89511 O 348.668 -1.97652 -7.47304 0
M  V30 89512 C 349.608 -3.01133 -7.08783 0
M  V30 89513 C 348.878 -4.12613 -6.37049 0
M  V30 89514 O 348.668 -3.72827 -4.97879 0
M  V30 89515 C 347.478 -4.45085 -6.88694 0
M  V30 89516 O 347.088 -5.7877 -6.5624 0
M  V30 89517 C 346.598 -3.47817 -6.12078 0
M  V30 89518 C 347.308 -3.39414 -4.77697 0
M  V30 89519 N 347.258 -2.04199 -4.15538 0
M  V30 89520 C 347.338 -0.821545 -4.76977 0
M  V30 89521 N 347.268 0.1794 -3.94592 0
M  V30 89522 C 347.118 -0.419121 -2.70776 0
M  V30 89523 C 346.988 0.109072 -1.40577 0
M  V30 89524 N 346.978 1.4104 -1.1344 0
M  V30 89525 N 346.868 -0.764381 -0.39411 0
M  V30 89526 C 346.878 -2.06587 -0.664135 0
M  V30 89527 N 346.998 -2.67948 -1.82153 0
M  V30 89528 C 347.118 -1.77942 -2.8147 0
M  V30 89529 H 350.097 -3.41248 -7.98759 0
M  V30 89530 H 350.369 -2.57728 -6.42 0
M  V30 89531 H 349.501 -5.02657 -6.42673 0
M  V30 89532 H 346.846 -4.11708 -4.08956 0
M  V30 89533 H 346.566 -2.49626 -6.61679 0
M  V30 89534 H 345.575 -3.8662 -6.00862 0
M  V30 89535 H 347.409 -4.29991 -7.97006 0
M  V30 89536 H 347.45 -0.702451 -5.84696 0
M  V30 89537 H 347.069 2.09647 -1.89651 0
M  V30 89538 H 346.88 1.73358 -0.160575 0
M  V30 89539 H 346.772 -2.71695 0.195838 0
M  V30 89540 P 345.538 -6.144 -6.45285 0
M  V30 89541 O 345.318 -7.54673 -6.86199 0
M  V30 89542 O 344.748 -5.12391 -7.179 0
M  V30 89543 O 345.288 -5.99158 -4.88404 0
M  V30 89544 C 346.228 -6.60234 -3.96415 0
M  V30 89545 C 345.498 -7.08259 -2.72856 0
M  V30 89546 O 345.288 -5.9427 -1.83651 0
M  V30 89547 C 344.098 -7.64886 -2.9555 0
M  V30 89548 O 343.708 -8.53963 -1.90717 0
M  V30 89549 C 343.218 -6.4116 -2.90739 0
M  V30 89550 C 343.928 -5.55375 -1.86963 0
M  V30 89551 N 343.878 -4.09664 -2.15742 0
M  V30 89552 H 346.717 -7.45574 -4.45629 0
M  V30 89553 H 346.989 -5.86232 -3.67314 0
M  V30 89554 H 346.121 -7.84412 -2.24479 0
M  V30 89555 P 342.158 -8.7635 -1.60911 0
M  V30 89556 O 341.938 -10.1388 -1.11561 0
M  V30 89557 O 341.368 -8.36503 -2.79617 0
M  V30 89558 O 341.908 -7.71806 -0.42951 0
M  V30 89559 C 342.848 -7.67148 0.673689 0
M  V30 89560 C 342.118 -7.33374 1.95559 0
M  V30 89561 O 341.908 -5.88721 2.00726 0
M  V30 89562 C 340.718 -7.92526 2.10483 0
M  V30 89563 O 340.328 -8.02971 3.47653 0
M  V30 89564 C 339.838 -6.89602 1.41652 0
M  V30 89565 C 340.548 -5.59201 1.75185 0
M  V30 89566 N 340.498 -4.58235 0.662552 0
M  V30 89567 H 343.337 -8.65116 0.777161 0
M  V30 89568 H 343.609 -6.90173 0.474152 0
M  V30 89569 H 342.741 -7.66548 2.79458 0
M  V30 89570 P 338.778 -8.03563 3.84925 0
M  V30 89571 O 338.558 -8.85821 5.0569 0
M  V30 89572 O 337.988 -8.41101 2.65469 0
M  V30 89573 O 338.528 -6.4965 4.18908 0
M  V30 89574 C 339.468 -5.81037 5.05421 0
M  V30 89575 C 338.738 -4.78366 5.89277 0
M  V30 89576 O 338.528 -3.58302 5.08433 0
M  V30 89577 C 337.338 -5.17448 6.36119 0
M  V30 89578 O 336.948 -4.45271 7.53232 0
M  V30 89579 C 336.458 -4.74639 5.19936 0
M  V30 89580 C 337.168 -3.49432 4.70418 0
M  V30 89581 N 337.118 -3.32099 3.22613 0
M  V30 89582 H 339.957 -6.54213 5.71376 0
M  V30 89583 H 340.229 -5.30936 4.43503 0
M  V30 89584 H 339.361 -4.55889 6.76652 0
M  V30 89585 H 336.706 -2.61715 5.17932 0
M  V30 89586 H 336.426 -5.52155 4.41878 0
M  V30 89587 H 335.435 -4.51981 5.53374 0
M  V30 89588 H 337.269 -6.25124 6.55234 0
M  V30 89589 P 335.398 -4.23843 7.83734 0
M  V30 89590 O 335.178 -4.19407 9.29784 0
M  V30 89591 O 334.608 -5.24426 7.09156 0
M  V30 89592 O 335.148 -2.7935 7.20758 0
M  V30 89593 C 336.088 -1.72945 7.50224 0
M  V30 89594 C 335.358 -0.406376 7.57911 0
M  V30 89595 O 335.148 0.0897726 6.21935 0
M  V30 89596 C 333.958 -0.438983 8.18724 0
M  V30 89597 O 333.568 0.825065 8.71101 0
M  V30 89598 C 333.078 -0.783689 6.99524 0
M  V30 89599 C 333.788 -0.0619086 5.85867 0
M  V30 89600 N 333.738 -0.78573 4.56183 0
M  V30 89601 C 333.588 -0.0292889 3.41887 0
M  V30 89602 O 333.498 1.18445 3.4419 0
M  V30 89603 N 333.548 -0.744061 2.23964 0
M  V30 89604 C 333.638 -2.10932 2.10362 0
M  V30 89605 O 333.588 -2.64117 0.98825 0
M  V30 89606 C 333.788 -2.8202 3.34994 0
M  V30 89607 C 333.898 -4.31095 3.25037 0
M  V30 89608 C 333.838 -2.15547 4.52261 0
M  V30 89609 H 336.579 -1.93379 8.46595 0
M  V30 89610 H 336.848 -1.68132 6.70852 0
M  V30 89611 H 335.981 0.289041 8.15388 0
M  V30 89612 H 333.326 0.926847 5.72749 0
M  V30 89613 H 333.047 -1.86973 6.82036 0
M  V30 89614 H 332.055 -0.403896 7.13257 0
M  V30 89615 H 333.889 -1.20585 8.97435 0
M  V30 89616 H 333.96 -2.71231 5.45042 0
M  V30 89617 H 332.93 -4.76966 3.49992 0
M  V30 89618 H 334.667 -4.67047 3.95024 0
M  V30 89619 H 334.179 -4.58996 2.22312 0
M  V30 89620 H 333.443 -0.214893 1.39758 0
M  V30 89621 P 332.018 1.17771 8.83182 0
M  V30 89622 O 331.798 2.07206 9.98732 0
M  V30 89623 O 331.228 -0.0743816 8.81969 0
M  V30 89624 O 331.768 1.97652 7.47304 0
M  V30 89625 C 332.708 3.01133 7.08783 0
M  V30 89626 C 331.978 4.12613 6.37049 0
M  V30 89627 O 331.768 3.72827 4.97879 0
M  V30 89628 C 330.578 4.45085 6.88694 0
M  V30 89629 O 330.188 5.7877 6.5624 0
M  V30 89630 C 329.698 3.47817 6.12078 0
M  V30 89631 C 330.408 3.39414 4.77697 0
M  V30 89632 N 330.358 2.04615 4.15333 0
M  V30 89633 H 333.197 3.41248 7.98759 0
M  V30 89634 H 333.469 2.5837 6.41742 0
M  V30 89635 H 332.601 5.02657 6.42673 0
M  V30 89636 P 328.638 6.144 6.45285 0
M  V30 89637 O 328.418 7.54673 6.86199 0
M  V30 89638 O 327.848 5.12391 7.179 0
M  V30 89639 O 328.388 5.99158 4.88404 0
M  V30 89640 C 329.328 6.60234 3.96415 0
M  V30 89641 C 328.598 7.08259 2.72856 0
M  V30 89642 O 328.388 5.9427 1.83651 0
M  V30 89643 C 327.198 7.64886 2.9555 0
M  V30 89644 O 326.808 8.53963 1.90717 0
M  V30 89645 C 326.318 6.4116 2.90739 0
M  V30 89646 C 327.028 5.55375 1.86963 0
M  V30 89647 N 326.978 4.09664 2.15742 0
M  V30 89648 H 329.817 7.45574 4.45629 0
M  V30 89649 H 330.089 5.86232 3.67314 0
M  V30 89650 H 329.221 7.84412 2.24479 0
M  V30 89651 P 325.258 8.7635 1.60911 0
M  V30 89652 O 325.038 10.1388 1.11561 0
M  V30 89653 O 324.468 8.36503 2.79617 0
M  V30 89654 O 325.008 7.71806 0.42951 0
M  V30 89655 C 325.948 7.67148 -0.673689 0
M  V30 89656 C 325.218 7.33374 -1.95559 0
M  V30 89657 O 325.008 5.88721 -2.00726 0
M  V30 89658 C 323.818 7.92526 -2.10483 0
M  V30 89659 O 323.428 8.02971 -3.47653 0
M  V30 89660 C 322.938 6.89602 -1.41652 0
M  V30 89661 C 323.648 5.59201 -1.75185 0
M  V30 89662 N 323.598 4.58235 -0.662552 0
M  V30 89663 H 326.437 8.65116 -0.777161 0
M  V30 89664 H 326.709 6.90173 -0.474152 0
M  V30 89665 H 325.841 7.66548 -2.79458 0
M  V30 89666 P 321.878 8.03563 -3.84925 0
M  V30 89667 O 321.658 8.85821 -5.0569 0
M  V30 89668 O 321.088 8.41101 -2.65469 0
M  V30 89669 O 321.628 6.4965 -4.18908 0
M  V30 89670 C 322.568 5.81037 -5.05421 0
M  V30 89671 C 321.838 4.78366 -5.89277 0
M  V30 89672 O 321.628 3.58302 -5.08433 0
M  V30 89673 C 320.438 5.17448 -6.36119 0
M  V30 89674 O 320.048 4.45271 -7.53232 0
M  V30 89675 C 319.558 4.74639 -5.19936 0
M  V30 89676 C 320.268 3.49432 -4.70418 0
M  V30 89677 N 320.218 3.31776 -3.22945 0
M  V30 89678 H 323.057 6.54213 -5.71376 0
M  V30 89679 H 323.329 5.30492 -4.44033 0
M  V30 89680 H 322.461 4.55889 -6.76652 0
M  V30 89681 P 318.498 4.23843 -7.83734 0
M  V30 89682 O 318.278 4.19407 -9.29784 0
M  V30 89683 O 317.708 5.24426 -7.09156 0
M  V30 89684 O 318.248 2.7935 -7.20758 0
M  V30 89685 C 319.188 1.7299 -7.50419 0
M  V30 89686 C 318.458 0.406376 -7.57911 0
M  V30 89687 O 318.248 -0.0897726 -6.21935 0
M  V30 89688 C 317.058 0.447224 -8.1878 0
M  V30 89689 O 316.668 -0.825065 -8.71101 0
M  V30 89690 C 316.178 0.783801 -6.99623 0
M  V30 89691 C 316.888 0.0619192 -5.85967 0
M  V30 89692 N 316.838 0.7859 -4.56281 0
M  V30 89693 H 319.677 1.93423 -8.4679 0
M  V30 89694 H 319.949 1.68181 -6.71046 0
M  V30 89695 H 319.081 -0.289041 -8.15388 0
M  V30 89696 P 315.118 -1.17771 -8.83182 0
M  V30 89697 O 314.898 -2.07206 -9.98732 0
M  V30 89698 O 314.328 0.0743816 -8.81969 0
M  V30 89699 O 314.868 -1.97652 -7.47304 0
M  V30 89700 C 315.808 -3.01133 -7.08783 0
M  V30 89701 C 315.078 -4.12613 -6.37049 0
M  V30 89702 O 314.868 -3.72827 -4.97879 0
M  V30 89703 C 313.678 -4.45085 -6.88694 0
M  V30 89704 O 313.288 -5.7877 -6.5624 0
M  V30 89705 C 312.798 -3.47817 -6.12078 0
M  V30 89706 C 313.508 -3.39414 -4.77697 0
M  V30 89707 N 313.458 -2.04615 -4.15333 0
M  V30 89708 H 316.297 -3.41248 -7.98759 0
M  V30 89709 H 316.569 -2.5837 -6.41742 0
M  V30 89710 H 315.701 -5.02657 -6.42673 0
M  V30 89711 P 311.738 -6.144 -6.45285 0
M  V30 89712 O 311.518 -7.54673 -6.86199 0
M  V30 89713 O 310.948 -5.12391 -7.179 0
M  V30 89714 O 311.488 -5.99158 -4.88404 0
M  V30 89715 C 312.428 -6.60234 -3.96415 0
M  V30 89716 C 311.698 -7.08259 -2.72856 0
M  V30 89717 O 311.488 -5.9427 -1.83651 0
M  V30 89718 C 310.298 -7.64886 -2.9555 0
M  V30 89719 O 309.908 -8.53963 -1.90717 0
M  V30 89720 C 309.418 -6.4116 -2.90739 0
M  V30 89721 C 310.128 -5.55375 -1.86963 0
M  V30 89722 N 310.078 -4.09664 -2.15742 0
M  V30 89723 H 312.917 -7.45574 -4.45629 0
M  V30 89724 H 313.189 -5.86232 -3.67314 0
M  V30 89725 H 312.321 -7.84412 -2.24479 0
M  V30 89726 P 308.358 -8.7635 -1.60911 0
M  V30 89727 O 308.138 -10.1388 -1.11561 0
M  V30 89728 O 307.568 -8.36503 -2.79617 0
M  V30 89729 O 308.108 -7.71806 -0.42951 0
M  V30 89730 C 309.048 -7.67148 0.673689 0
M  V30 89731 C 308.318 -7.33374 1.95559 0
M  V30 89732 O 308.108 -5.88721 2.00726 0
M  V30 89733 C 306.918 -7.92526 2.10483 0
M  V30 89734 O 306.528 -8.02971 3.47653 0
M  V30 89735 C 306.038 -6.89602 1.41652 0
M  V30 89736 C 306.748 -5.59201 1.75185 0
M  V30 89737 N 306.698 -4.58235 0.662552 0
M  V30 89738 C 306.778 -4.7683 -0.704049 0
M  V30 89739 N 306.698 -3.66233 -1.39775 0
M  V30 89740 C 306.558 -2.66526 -0.431739 0
M  V30 89741 C 306.428 -1.26394 -0.575992 0
M  V30 89742 N 306.308 -0.62859 0.67177 0
M  V30 89743 C 306.308 -1.27134 1.89385 0
M  V30 89744 N 306.178 -0.492035 2.96951 0
M  V30 89745 N 306.438 -2.58978 2.02907 0
M  V30 89746 C 306.558 -3.22433 0.832218 0
M  V30 89747 H 309.537 -8.65116 0.777161 0
M  V30 89748 H 309.809 -6.90173 0.474152 0
M  V30 89749 H 308.941 -7.66548 2.79458 0
M  V30 89750 P 304.978 -8.03563 3.84925 0
M  V30 89751 O 304.758 -8.85821 5.0569 0
M  V30 89752 O 304.188 -8.41101 2.65469 0
M  V30 89753 O 304.728 -6.4965 4.18908 0
M  V30 89754 C 305.668 -5.80886 5.05289 0
M  V30 89755 C 304.938 -4.78366 5.89277 0
M  V30 89756 O 304.728 -3.58302 5.08433 0
M  V30 89757 C 303.538 -5.16748 6.36559 0
M  V30 89758 O 303.148 -4.45271 7.53232 0
M  V30 89759 C 302.658 -4.74572 5.19863 0
M  V30 89760 C 303.368 -3.49373 4.70338 0
M  V30 89761 N 303.318 -3.31704 3.22876 0
M  V30 89762 C 303.168 -2.03326 2.74871 0
M  V30 89763 O 303.078 -1.06486 3.48076 0
M  V30 89764 N 303.128 -1.91838 1.37456 0
M  V30 89765 C 303.218 -2.94295 0.462035 0
M  V30 89766 O 303.168 -2.71763 -0.752928 0
M  V30 89767 C 303.368 -4.25064 1.05249 0
M  V30 89768 C 303.478 -5.39815 0.095697 0
M  V30 89769 C 303.418 -4.40214 2.39192 0
M  V30 89770 H 306.159 -6.54063 5.71245 0
M  V30 89771 H 306.428 -5.30339 4.43905 0
M  V30 89772 H 305.561 -4.55889 6.76652 0
M  V30 89773 H 302.906 -2.6167 5.17842 0
M  V30 89774 H 302.627 -5.52155 4.41878 0
M  V30 89775 H 301.635 -4.51918 5.53297 0
M  V30 89776 H 303.469 -6.25055 6.55162 0
M  V30 89777 H 303.54 -5.39798 2.81523 0
M  V30 89778 H 302.51 -5.91593 0.0279582 0
M  V30 89779 H 304.247 -6.10038 0.450573 0
M  V30 89780 H 303.759 -5.02007 -0.89937 0
M  V30 89781 H 303.023 -0.995326 1.00435 0
M  V30 89782 P 301.598 -4.23843 7.83734 0
M  V30 89783 O 301.378 -4.19407 9.29784 0
M  V30 89784 O 300.808 -5.24426 7.09156 0
M  V30 89785 O 301.348 -2.79386 7.20852 0
M  V30 89786 C 302.288 -1.7299 7.50419 0
M  V30 89787 C 301.558 -0.41401 7.5797 0
M  V30 89788 O 301.348 0.089787 6.22035 0
M  V30 89789 C 300.158 -0.447224 8.1878 0
M  V30 89790 O 299.768 0.825159 8.71201 0
M  V30 89791 C 299.278 -0.783801 6.99623 0
M  V30 89792 C 299.988 -0.0619192 5.85967 0
M  V30 89793 N 299.938 -0.7859 4.56281 0
M  V30 89794 C 299.788 -0.0359258 3.39981 0
M  V30 89795 O 299.698 1.19723 3.49038 0
M  V30 89796 N 299.738 -0.869151 2.14025 0
M  V30 89797 C 299.838 -2.01207 2.14363 0
M  V30 89798 N 299.788 -2.58978 0.954287 0
M  V30 89799 C 299.988 -2.80817 3.32215 0
M  V30 89800 C 300.038 -2.13785 4.50884 0
M  V30 89801 H 302.778 -1.93401 8.46693 0
M  V30 89802 H 303.048 -1.68181 6.71046 0
M  V30 89803 H 302.181 0.289076 8.15488 0
M  V30 89804 H 299.526 0.927166 5.72947 0
M  V30 89805 H 299.246 -1.87 6.82132 0
M  V30 89806 H 298.255 -0.404009 7.13457 0
M  V30 89807 H 300.089 -1.20599 8.97534 0
M  V30 89808 H 300.161 -2.70295 5.43162 0
M  V30 89809 H 300.059 -3.89465 3.27406 0
M  V30 89810 H 299.671 -2.01616 0.107046 0
M  V30 89811 H 299.867 -3.61403 0.873101 0
M  V30 89812 P 298.218 1.17771 8.83182 0
M  V30 89813 O 297.998 2.07206 9.98732 0
M  V30 89814 O 297.428 -0.0743816 8.81969 0
M  V30 89815 O 297.968 1.97652 7.47304 0
M  V30 89816 C 298.908 3.01133 7.08783 0
M  V30 89817 C 298.178 4.12613 6.37049 0
M  V30 89818 O 297.968 3.72827 4.97879 0
M  V30 89819 C 296.778 4.45085 6.88694 0
M  V30 89820 O 296.388 5.7877 6.5624 0
M  V30 89821 C 295.898 3.47817 6.12078 0
M  V30 89822 C 296.608 3.39414 4.77697 0
M  V30 89823 N 296.558 2.04615 4.15333 0
M  V30 89824 H 299.397 3.41248 7.98759 0
M  V30 89825 H 299.669 2.5837 6.41742 0
M  V30 89826 H 298.801 5.02657 6.42673 0
M  V30 89827 P 294.838 6.144 6.45285 0
M  V30 89828 O 294.618 7.54673 6.86199 0
M  V30 89829 O 294.048 5.12391 7.179 0
M  V30 89830 O 294.588 5.99158 4.88404 0
M  V30 89831 C 295.528 6.60062 3.96313 0
M  V30 89832 C 294.798 7.08259 2.72856 0
M  V30 89833 O 294.588 5.9427 1.83651 0
M  V30 89834 C 293.398 7.65087 2.94749 0
M  V30 89835 O 293.008 8.53963 1.90717 0
M  V30 89836 C 292.518 6.41069 2.90698 0
M  V30 89837 C 293.228 5.5528 1.86931 0
M  V30 89838 N 293.178 4.09575 2.15696 0
M  V30 89839 C 293.028 3.24249 1.08435 0
M  V30 89840 O 292.938 3.63946 -0.0628747 0
M  V30 89841 N 292.988 1.90009 1.39973 0
M  V30 89842 C 293.078 1.34884 2.65614 0
M  V30 89843 O 293.028 0.123716 2.81728 0
M  V30 89844 C 293.228 2.3145 3.71736 0
M  V30 89845 C 293.338 1.75913 5.10438 0
M  V30 89846 C 293.278 3.63518 3.44754 0
M  V30 89847 H 296.019 7.45402 4.45526 0
M  V30 89848 H 296.288 5.86062 3.67208 0
M  V30 89849 H 295.421 7.84412 2.24479 0
M  V30 89850 H 292.766 5.73358 0.888409 0
M  V30 89851 H 292.487 5.90877 3.88583 0
M  V30 89852 H 291.495 6.65867 2.58821 0
M  V30 89853 H 293.329 8.16248 3.92006 0
M  V30 89854 H 293.4 4.34551 4.26383 0
M  V30 89855 H 292.37 1.85471 5.61775 0
M  V30 89856 H 294.107 2.31364 5.66257 0
M  V30 89857 H 293.619 0.695936 5.05229 0
M  V30 89858 H 292.883 1.26277 0.63625 0
M  V30 89859 P 291.458 8.7635 1.60911 0
M  V30 89860 O 291.238 10.1388 1.11561 0
M  V30 89861 O 290.668 8.36503 2.79617 0
M  V30 89862 O 291.208 7.71806 0.42951 0
M  V30 89863 C 292.148 7.67148 -0.673689 0
M  V30 89864 C 291.418 7.33374 -1.95559 0
M  V30 89865 O 291.208 5.88721 -2.00726 0
M  V30 89866 C 290.018 7.92526 -2.10483 0
M  V30 89867 O 289.628 8.02971 -3.47653 0
M  V30 89868 C 289.138 6.89602 -1.41652 0
M  V30 89869 C 289.848 5.59201 -1.75185 0
M  V30 89870 N 289.798 4.58301 -0.657969 0
M  V30 89871 H 292.637 8.65116 -0.777161 0
M  V30 89872 H 292.909 6.9022 -0.46725 0
M  V30 89873 H 292.041 7.66548 -2.79458 0
M  V30 89874 H 289.386 5.16165 -2.65183 0
M  V30 89875 H 289.106 7.06433 -0.329384 0
M  V30 89876 H 288.115 6.90926 -1.82021 0
M  V30 89877 H 289.949 8.90873 -1.62657 0
M  V30 89878 P 288.078 8.03563 -3.84925 0
M  V30 89879 O 287.858 8.85821 -5.0569 0
M  V30 89880 O 287.288 8.41101 -2.65469 0
M  V30 89881 O 287.828 6.4965 -4.18908 0
M  V30 89882 C 288.768 5.81037 -5.05421 0
M  V30 89883 C 288.038 4.78366 -5.89277 0
M  V30 89884 O 287.828 3.58302 -5.08433 0
M  V30 89885 C 286.638 5.17448 -6.36119 0
M  V30 89886 O 286.248 4.45271 -7.53232 0
M  V30 89887 C 285.758 4.74639 -5.19936 0
M  V30 89888 C 286.468 3.49432 -4.70418 0
M  V30 89889 N 286.418 3.32099 -3.22613 0
M  V30 89890 H 289.257 6.54213 -5.71376 0
M  V30 89891 H 289.529 5.30936 -4.43503 0
M  V30 89892 H 288.661 4.55889 -6.76652 0
M  V30 89893 H 286.006 2.61715 -5.17932 0
M  V30 89894 H 285.726 5.52155 -4.41878 0
M  V30 89895 H 284.735 4.51981 -5.53374 0
M  V30 89896 H 286.569 6.25124 -6.55234 0
M  V30 89897 P 284.698 4.23843 -7.83734 0
M  V30 89898 O 284.478 4.19407 -9.29784 0
M  V30 89899 O 283.908 5.24426 -7.09156 0
M  V30 89900 O 284.448 2.7935 -7.20758 0
M  V30 89901 C 285.388 1.7299 -7.50419 0
M  V30 89902 C 284.658 0.406376 -7.57911 0
M  V30 89903 O 284.448 -0.0897726 -6.21935 0
M  V30 89904 C 283.258 0.447224 -8.1878 0
M  V30 89905 O 282.868 -0.825065 -8.71101 0
M  V30 89906 C 282.378 0.783801 -6.99623 0
M  V30 89907 C 283.088 0.0619192 -5.85967 0
M  V30 89908 N 283.038 0.7859 -4.56281 0
M  V30 89909 C 283.118 2.14308 -4.31736 0
M  V30 89910 N 283.038 2.46106 -3.05116 0
M  V30 89911 C 282.898 1.23422 -2.4014 0
M  V30 89912 C 282.768 0.938381 -1.02409 0
M  V30 89913 O 282.748 1.70876 -0.0650402 0
M  V30 89914 N 282.648 -0.444647 -0.805413 0
M  V30 89915 C 282.648 -1.40829 -1.79435 0
M  V30 89916 N 282.518 -2.67213 -1.38558 0
M  V30 89917 N 282.778 -1.12947 -3.09005 0
M  V30 89918 C 282.898 0.204887 -3.32369 0
M  V30 89919 H 285.877 1.93423 -8.4679 0
M  V30 89920 H 286.149 1.68181 -6.71046 0
M  V30 89921 H 285.281 -0.289041 -8.15388 0
M  V30 89922 H 282.626 -0.927166 -5.72947 0
M  V30 89923 H 282.346 1.87 -6.82132 0
M  V30 89924 H 281.355 0.404009 -7.13457 0
M  V30 89925 H 283.189 1.20612 -8.97633 0
M  V30 89926 H 283.238 2.88284 -5.10874 0
M  V30 89927 H 282.556 -0.755087 0.140242 0
M  V30 89928 H 282.519 -3.43967 -2.0729 0
M  V30 89929 H 282.418 -2.88096 -0.380644 0
M  V30 89930 P 281.318 -1.17771 -8.83182 0
M  V30 89931 O 281.098 -2.07206 -9.98732 0
M  V30 89932 O 280.528 0.0743816 -8.81969 0
M  V30 89933 O 281.068 -1.97678 -7.474 0
M  V30 89934 C 282.008 -3.01133 -7.08783 0
M  V30 89935 C 281.278 -4.1203 -6.37546 0
M  V30 89936 O 281.068 -3.72887 -4.9796 0
M  V30 89937 C 279.878 -4.45085 -6.88694 0
M  V30 89938 O 279.488 -5.78836 -6.56315 0
M  V30 89939 C 278.998 -3.47817 -6.12078 0
M  V30 89940 C 279.708 -3.39414 -4.77697 0
M  V30 89941 N 279.658 -2.04615 -4.15333 0
M  V30 89942 C 279.508 -1.96929 -2.77162 0
M  V30 89943 O 279.418 -3.02017 -2.12006 0
M  V30 89944 N 279.458 -0.55485 -2.24237 0
M  V30 89945 C 279.558 0.367808 -2.9169 0
M  V30 89946 N 279.508 1.53426 -2.29427 0
M  V30 89947 C 279.708 0.319148 -4.33828 0
M  V30 89948 C 279.758 -0.920672 -4.90433 0
M  V30 89949 H 282.498 -3.41209 -7.98667 0
M  V30 89950 H 282.768 -2.5837 -6.41742 0
M  V30 89951 H 281.901 -5.02718 -6.42752 0
M  V30 89952 H 279.246 -4.11779 -4.09026 0
M  V30 89953 H 278.966 -2.49661 -6.61772 0
M  V30 89954 H 277.975 -3.86674 -6.00946 0
M  V30 89955 H 279.809 -4.29991 -7.97006 0
M  V30 89956 H 279.881 -1.00589 -5.98303 0
M  V30 89957 H 279.779 1.22639 -4.93799 0
M  V30 89958 H 279.391 1.56819 -1.27167 0
M  V30 89959 H 279.587 2.41062 -2.83063 0
M  V30 89960 P 277.938 -6.144 -6.45285 0
M  V30 89961 O 277.718 -7.54673 -6.86199 0
M  V30 89962 O 277.148 -5.12391 -7.179 0
M  V30 89963 O 277.688 -5.99158 -4.88404 0
M  V30 89964 C 278.628 -6.60234 -3.96415 0
M  V30 89965 C 277.898 -7.08259 -2.72856 0
M  V30 89966 O 277.688 -5.9427 -1.83651 0
M  V30 89967 C 276.498 -7.64886 -2.9555 0
M  V30 89968 O 276.108 -8.53963 -1.90717 0
M  V30 89969 C 275.618 -6.4116 -2.90739 0
M  V30 89970 C 276.328 -5.55375 -1.86963 0
M  V30 89971 N 276.278 -4.09664 -2.15742 0
M  V30 89972 H 279.117 -7.45574 -4.45629 0
M  V30 89973 H 279.389 -5.86232 -3.67314 0
M  V30 89974 H 278.521 -7.84412 -2.24479 0
M  V30 89975 P 274.558 -8.7635 -1.60911 0
M  V30 89976 O 274.338 -10.1388 -1.11561 0
M  V30 89977 O 273.768 -8.36503 -2.79617 0
M  V30 89978 O 274.308 -7.71806 -0.42951 0
M  V30 89979 C 275.248 -7.67148 0.673689 0
M  V30 89980 C 274.518 -7.33374 1.95559 0
M  V30 89981 O 274.308 -5.88721 2.00726 0
M  V30 89982 C 273.118 -7.92526 2.10483 0
M  V30 89983 O 272.728 -8.02971 3.47653 0
M  V30 89984 C 272.238 -6.89602 1.41652 0
M  V30 89985 C 272.948 -5.59201 1.75185 0
M  V30 89986 N 272.898 -4.58235 0.662552 0
M  V30 89987 H 275.737 -8.65116 0.777161 0
M  V30 89988 H 276.009 -6.90173 0.474152 0
M  V30 89989 H 275.141 -7.66548 2.79458 0
M  V30 89990 P 271.178 -8.03563 3.84925 0
M  V30 89991 O 270.958 -8.85821 5.0569 0
M  V30 89992 O 270.388 -8.41101 2.65469 0
M  V30 89993 O 270.928 -6.4965 4.18908 0
M  V30 89994 C 271.868 -5.81037 5.05421 0
M  V30 89995 C 271.138 -4.78366 5.89277 0
M  V30 89996 O 270.928 -3.58302 5.08433 0
M  V30 89997 C 269.738 -5.17448 6.36119 0
M  V30 89998 O 269.348 -4.45271 7.53232 0
M  V30 89999 C 268.858 -4.74639 5.19936 0
M  V30 90000 C 269.568 -3.49432 4.70418 0
M  V30 90001 N 269.518 -3.31776 3.22945 0
M  V30 90002 C 269.598 -4.27147 2.23315 0
M  V30 90003 N 269.518 -3.78447 1.02186 0
M  V30 90004 C 269.378 -2.41001 1.21732 0
M  V30 90005 C 269.248 -1.36111 0.27694 0
M  V30 90006 O 269.228 -1.42065 -0.951767 0
M  V30 90007 N 269.128 -0.113683 0.912949 0
M  V30 90008 C 269.128 0.0846396 2.27943 0
M  V30 90009 N 268.998 1.34737 2.6916 0
M  V30 90010 N 269.258 -0.902521 3.16379 0
M  V30 90011 C 269.378 -2.11937 2.56849 0
M  V30 90012 H 272.357 -6.54213 5.71376 0
M  V30 90013 H 272.629 -5.30492 4.44033 0
M  V30 90014 H 271.761 -4.55889 6.76652 0
M  V30 90015 H 269.106 -2.6176 5.18021 0
M  V30 90016 H 268.826 -5.52233 4.41941 0
M  V30 90017 H 267.835 -4.52045 5.53452 0
M  V30 90018 H 269.669 -6.25193 6.55307 0
M  V30 90019 H 269.718 -5.3351 2.43857 0
M  V30 90020 H 269.036 0.69331 0.330371 0
M  V30 90021 H 268.999 1.56433 3.6988 0
M  V30 90022 H 268.898 2.10701 2.00133 0
M  V30 90023 P 267.798 -4.23843 7.83734 0
M  V30 90024 O 267.578 -4.19407 9.29784 0
M  V30 90025 O 267.008 -5.24426 7.09156 0
M  V30 90026 O 267.548 -2.7935 7.20758 0
M  V30 90027 C 268.488 -1.7299 7.50419 0
M  V30 90028 C 267.758 -0.406376 7.57911 0
M  V30 90029 O 267.548 0.0897726 6.21935 0
M  V30 90030 C 266.358 -0.447224 8.1878 0
M  V30 90031 O 265.968 0.825065 8.71101 0
M  V30 90032 C 265.478 -0.783801 6.99623 0
M  V30 90033 C 266.188 -0.0619192 5.85967 0
M  V30 90034 N 266.138 -0.790462 4.56202 0
M  V30 90035 H 268.977 -1.93423 8.4679 0
M  V30 90036 H 269.249 -1.68852 6.70877 0
M  V30 90037 H 268.381 0.289041 8.15388 0
M  V30 90038 H 265.726 0.927006 5.72848 0
M  V30 90039 H 265.446 -1.86973 6.82036 0
M  V30 90040 H 264.455 -0.403953 7.13357 0
M  V30 90041 H 266.289 -1.20599 8.97534 0
M  V30 90042 P 264.418 1.17771 8.83182 0
M  V30 90043 O 264.198 2.07206 9.98732 0
M  V30 90044 O 263.628 -0.0743816 8.81969 0
M  V30 90045 O 264.168 1.97652 7.47304 0
M  V30 90046 C 265.108 3.01133 7.08783 0
M  V30 90047 C 264.378 4.12613 6.37049 0
M  V30 90048 O 264.168 3.72827 4.97879 0
M  V30 90049 C 262.978 4.45085 6.88694 0
M  V30 90050 O 262.588 5.7877 6.5624 0
M  V30 90051 C 262.098 3.47817 6.12078 0
M  V30 90052 C 262.808 3.39414 4.77697 0
M  V30 90053 N 262.758 2.04615 4.15333 0
M  V30 90054 H 265.597 3.41248 7.98759 0
M  V30 90055 H 265.869 2.5837 6.41742 0
M  V30 90056 H 265.001 5.02657 6.42673 0
M  V30 90057 P 261.038 6.144 6.45285 0
M  V30 90058 O 260.818 7.54673 6.86199 0
M  V30 90059 O 260.248 5.12391 7.179 0
M  V30 90060 O 260.788 5.99158 4.88404 0
M  V30 90061 C 261.728 6.60062 3.96313 0
M  V30 90062 C 260.998 7.08259 2.72856 0
M  V30 90063 O 260.788 5.9427 1.83651 0
M  V30 90064 C 259.598 7.65087 2.94749 0
M  V30 90065 O 259.208 8.53963 1.90717 0
M  V30 90066 C 258.718 6.41069 2.90698 0
M  V30 90067 C 259.428 5.5528 1.86931 0
M  V30 90068 N 259.378 4.09575 2.15696 0
M  V30 90069 C 259.228 3.24249 1.08435 0
M  V30 90070 O 259.138 3.63946 -0.0628747 0
M  V30 90071 N 259.188 1.90009 1.39973 0
M  V30 90072 C 259.278 1.34884 2.65614 0
M  V30 90073 C 259.428 2.3145 3.71736 0
M  V30 90074 C 259.478 3.63518 3.44754 0
M  V30 90075 H 262.219 7.45402 4.45526 0
M  V30 90076 H 262.488 5.86062 3.67208 0
M  V30 90077 H 261.621 7.84412 2.24479 0
M  V30 90078 H 258.966 5.73358 0.888409 0
M  V30 90079 H 258.687 5.90877 3.88583 0
M  V30 90080 H 257.695 6.65867 2.58821 0
M  V30 90081 H 259.529 8.16248 3.92006 0
M  V30 90082 H 259.6 4.34551 4.26383 0
M  V30 90083 P 257.658 8.7635 1.60911 0
M  V30 90084 O 257.438 10.1388 1.11561 0
M  V30 90085 O 256.868 8.36503 2.79617 0
M  V30 90086 O 257.408 7.71806 0.42951 0
M  V30 90087 C 258.348 7.67148 -0.673689 0
M  V30 90088 C 257.618 7.33374 -1.95559 0
M  V30 90089 O 257.408 5.88721 -2.00726 0
M  V30 90090 C 256.218 7.92526 -2.10483 0
M  V30 90091 O 255.828 8.02971 -3.47653 0
M  V30 90092 C 255.338 6.89602 -1.41652 0
M  V30 90093 C 256.048 5.59201 -1.75185 0
M  V30 90094 N 255.998 4.58235 -0.662552 0
M  V30 90095 C 256.078 4.7683 0.704049 0
M  V30 90096 N 255.998 3.66233 1.39775 0
M  V30 90097 C 255.858 2.66526 0.431739 0
M  V30 90098 C 255.728 1.26394 0.575992 0
M  V30 90099 O 255.708 0.589894 1.60503 0
M  V30 90100 N 255.608 0.62859 -0.67177 0
M  V30 90101 C 255.608 1.27134 -1.89385 0
M  V30 90102 N 255.478 0.492035 -2.96951 0
M  V30 90103 N 255.738 2.58978 -2.02907 0
M  V30 90104 C 255.858 3.22433 -0.832218 0
M  V30 90105 H 258.837 8.65116 -0.777161 0
M  V30 90106 H 259.109 6.90173 -0.474152 0
M  V30 90107 H 258.241 7.66548 -2.79458 0
M  V30 90108 H 255.586 5.16254 -2.65229 0
M  V30 90109 H 255.306 7.06532 -0.329431 0
M  V30 90110 H 254.315 6.91023 -1.82047 0
M  V30 90111 H 256.149 8.90971 -1.62675 0
M  V30 90112 H 256.198 5.74954 1.16305 0
M  V30 90113 H 255.516 -0.366713 -0.674793 0
M  V30 90114 H 255.479 0.908532 -3.91188 0
M  V30 90115 H 255.378 -0.528253 -2.85758 0
M  V30 90116 P 254.279 8.03563 -3.84925 0
M  V30 90117 O 254.059 8.85821 -5.0569 0
M  V30 90118 O 253.489 8.41101 -2.65469 0
M  V30 90119 O 254.029 6.4965 -4.18908 0
M  V30 90120 C 254.969 5.81037 -5.05421 0
M  V30 90121 C 254.239 4.78366 -5.89277 0
M  V30 90122 O 254.029 3.58302 -5.08433 0
M  V30 90123 C 252.839 5.17448 -6.36119 0
M  V30 90124 O 252.449 4.45271 -7.53232 0
M  V30 90125 C 251.959 4.74639 -5.19936 0
M  V30 90126 C 252.669 3.49432 -4.70418 0
M  V30 90127 N 252.619 3.32099 -3.22613 0
M  V30 90128 H 255.458 6.54213 -5.71376 0
M  V30 90129 H 255.73 5.30936 -4.43503 0
M  V30 90130 H 254.862 4.55889 -6.76652 0
M  V30 90131 H 252.207 2.61715 -5.17932 0
M  V30 90132 H 251.927 5.52155 -4.41878 0
M  V30 90133 H 250.936 4.51981 -5.53374 0
M  V30 90134 H 252.77 6.25124 -6.55234 0
M  V30 90135 P 250.899 4.23843 -7.83734 0
M  V30 90136 O 250.679 4.19407 -9.29784 0
M  V30 90137 O 250.109 5.24426 -7.09156 0
M  V30 90138 O 250.649 2.7935 -7.20758 0
M  V30 90139 C 251.589 1.7299 -7.50419 0
M  V30 90140 C 250.859 0.406376 -7.57911 0
M  V30 90141 O 250.649 -0.0897726 -6.21935 0
M  V30 90142 C 249.459 0.447224 -8.1878 0
M  V30 90143 O 249.069 -0.825065 -8.71101 0
M  V30 90144 C 248.579 0.783801 -6.99623 0
M  V30 90145 C 249.289 0.0619192 -5.85967 0
M  V30 90146 N 249.239 0.7859 -4.56281 0
M  V30 90147 H 252.078 1.93423 -8.4679 0
M  V30 90148 H 252.35 1.68181 -6.71046 0
M  V30 90149 H 251.482 -0.289041 -8.15388 0
M  V30 90150 P 247.519 -1.17771 -8.83182 0
M  V30 90151 O 247.299 -2.07206 -9.98732 0
M  V30 90152 O 246.729 0.0743816 -8.81969 0
M  V30 90153 O 247.269 -1.97652 -7.47304 0
M  V30 90154 C 248.209 -3.01055 -7.08599 0
M  V30 90155 C 247.479 -4.12613 -6.37049 0
M  V30 90156 O 247.269 -3.72827 -4.97879 0
M  V30 90157 C 246.079 -4.45719 -6.88164 0
M  V30 90158 O 245.689 -5.7877 -6.5624 0
M  V30 90159 C 245.199 -3.47768 -6.11991 0
M  V30 90160 C 245.909 -3.39356 -4.77615 0
M  V30 90161 N 245.859 -2.04571 -4.15244 0
M  V30 90162 C 245.709 -1.98587 -2.78314 0
M  V30 90163 O 245.619 -2.98134 -2.08835 0
M  V30 90164 N 245.669 -0.714467 -2.24925 0
M  V30 90165 C 245.759 0.470001 -2.94169 0
M  V30 90166 O 245.709 1.55587 -2.35195 0
M  V30 90167 C 245.909 0.312541 -4.36783 0
M  V30 90168 C 246.019 1.57711 -5.16352 0
M  V30 90169 C 245.959 -0.914512 -4.92583 0
M  V30 90170 H 248.7 -3.41169 -7.98575 0
M  V30 90171 H 248.969 -2.58295 -6.41556 0
M  V30 90172 H 248.102 -5.02657 -6.42673 0
M  V30 90173 H 245.447 -4.11637 -4.08885 0
M  V30 90174 H 245.168 -2.49626 -6.61679 0
M  V30 90175 H 244.176 -3.86566 -6.00778 0
M  V30 90176 H 246.01 -4.29943 -7.96918 0
M  V30 90177 H 246.081 -1.00937 -6.00374 0
M  V30 90178 H 245.051 1.80153 -5.63503 0
M  V30 90179 H 246.788 1.4566 -5.94104 0
M  V30 90180 H 246.3 2.40664 -4.49645 0
M  V30 90181 H 245.564 -0.647622 -1.25697 0
M  V30 90182 P 244.139 -6.144 -6.45285 0
M  V30 90183 O 243.919 -7.54673 -6.86199 0
M  V30 90184 O 243.349 -5.12391 -7.179 0
M  V30 90185 O 243.889 -5.99158 -4.88404 0
M  V30 90186 C 244.829 -6.60234 -3.96415 0
M  V30 90187 C 244.099 -7.08259 -2.72856 0
M  V30 90188 O 243.889 -5.9427 -1.83651 0
M  V30 90189 C 242.699 -7.64886 -2.9555 0
M  V30 90190 O 242.309 -8.53963 -1.90717 0
M  V30 90191 C 241.819 -6.4116 -2.90739 0
M  V30 90192 C 242.529 -5.55375 -1.86963 0
M  V30 90193 N 242.479 -4.09664 -2.15742 0
M  V30 90194 C 242.559 -3.44381 -3.37233 0
M  V30 90195 N 242.479 -2.14131 -3.28347 0
M  V30 90196 C 242.339 -1.90247 -1.91588 0
M  V30 90197 C 242.209 -0.683992 -1.20892 0
M  V30 90198 O 242.189 0.46618 -1.64523 0
M  V30 90199 N 242.089 -0.903396 0.173998 0
M  V30 90200 C 242.089 -2.14171 0.784879 0
M  V30 90201 N 241.959 -2.1435 2.11317 0
M  V30 90202 N 242.219 -3.28784 0.119316 0
M  V30 90203 C 242.339 -3.0977 -1.22194 0
M  V30 90204 H 245.318 -7.45574 -4.45629 0
M  V30 90205 H 245.59 -5.86232 -3.67314 0
M  V30 90206 H 244.722 -7.84412 -2.24479 0
M  V30 90207 H 242.067 -5.73556 -0.888715 0
M  V30 90208 H 241.787 -5.9096 -3.88638 0
M  V30 90209 H 240.796 -6.66053 -2.58894 0
M  V30 90210 H 242.63 -8.16429 -3.92093 0
M  V30 90211 H 242.679 -3.96785 -4.32043 0
M  V30 90212 H 241.997 -0.0999567 0.761467 0
M  V30 90213 H 241.96 -3.03436 2.63076 0
M  V30 90214 H 241.859 -1.25228 2.62233 0
M  V30 90215 P 240.759 -8.7635 -1.60911 0
M  V30 90216 O 240.539 -10.1388 -1.11561 0
M  V30 90217 O 239.969 -8.36503 -2.79617 0
M  V30 90218 O 240.509 -7.71806 -0.42951 0
M  V30 90219 C 241.449 -7.67148 0.673689 0
M  V30 90220 C 240.719 -7.33374 1.95559 0
M  V30 90221 O 240.509 -5.88721 2.00726 0
M  V30 90222 C 239.319 -7.92526 2.10483 0
M  V30 90223 O 238.929 -8.02971 3.47653 0
M  V30 90224 C 238.439 -6.89602 1.41652 0
M  V30 90225 C 239.149 -5.59201 1.75185 0
M  V30 90226 N 239.099 -4.58235 0.662552 0
M  V30 90227 H 241.938 -8.65116 0.777161 0
M  V30 90228 H 242.21 -6.90173 0.474152 0
M  V30 90229 H 241.342 -7.66548 2.79458 0
M  V30 90230 P 237.379 -8.03563 3.84925 0
M  V30 90231 O 237.159 -8.85821 5.0569 0
M  V30 90232 O 236.589 -8.41101 2.65469 0
M  V30 90233 O 237.129 -6.4965 4.18908 0
M  V30 90234 C 238.069 -5.81037 5.05421 0
M  V30 90235 C 237.339 -4.78366 5.89277 0
M  V30 90236 O 237.129 -3.58302 5.08433 0
M  V30 90237 C 235.939 -5.17448 6.36119 0
M  V30 90238 O 235.549 -4.45271 7.53232 0
M  V30 90239 C 235.059 -4.74639 5.19936 0
M  V30 90240 C 235.769 -3.49432 4.70418 0
M  V30 90241 N 235.719 -3.32099 3.22613 0
M  V30 90242 H 238.558 -6.54213 5.71376 0
M  V30 90243 H 238.83 -5.30936 4.43503 0
M  V30 90244 H 237.962 -4.55889 6.76652 0
M  V30 90245 H 235.307 -2.61715 5.17932 0
M  V30 90246 H 235.027 -5.52155 4.41878 0
M  V30 90247 H 234.036 -4.51981 5.53374 0
M  V30 90248 H 235.87 -6.25124 6.55234 0
M  V30 90249 P 233.999 -4.23843 7.83734 0
M  V30 90250 O 233.779 -4.19407 9.29784 0
M  V30 90251 O 233.209 -5.24426 7.09156 0
M  V30 90252 O 233.749 -2.7935 7.20758 0
M  V30 90253 C 234.689 -1.7299 7.50419 0
M  V30 90254 C 233.959 -0.406376 7.57911 0
M  V30 90255 O 233.749 0.0897726 6.21935 0
M  V30 90256 C 232.559 -0.447224 8.1878 0
M  V30 90257 O 232.169 0.825065 8.71101 0
M  V30 90258 C 231.679 -0.783801 6.99623 0
M  V30 90259 C 232.389 -0.0619192 5.85967 0
M  V30 90260 N 232.339 -0.7859 4.56281 0
M  V30 90261 H 235.178 -1.93423 8.4679 0
M  V30 90262 H 235.45 -1.68181 6.71046 0
M  V30 90263 H 234.582 0.289041 8.15388 0
M  V30 90264 P 230.619 1.17771 8.83182 0
M  V30 90265 O 230.399 2.07206 9.98732 0
M  V30 90266 O 229.829 -0.0743816 8.81969 0
M  V30 90267 O 230.369 1.97652 7.47304 0
M  V30 90268 C 231.309 3.01133 7.08783 0
M  V30 90269 C 230.579 4.12613 6.37049 0
M  V30 90270 O 230.369 3.72827 4.97879 0
M  V30 90271 C 229.179 4.45085 6.88694 0
M  V30 90272 O 228.789 5.7877 6.5624 0
M  V30 90273 C 228.299 3.47817 6.12078 0
M  V30 90274 C 229.009 3.39414 4.77697 0
M  V30 90275 N 228.959 2.04199 4.15538 0
M  V30 90276 H 231.798 3.41248 7.98759 0
M  V30 90277 H 232.07 2.57728 6.42 0
M  V30 90278 H 231.202 5.02657 6.42673 0
M  V30 90279 H 228.547 4.11708 4.08956 0
M  V30 90280 H 228.267 2.49626 6.61679 0
M  V30 90281 H 227.276 3.8662 6.00862 0
M  V30 90282 H 229.11 4.29991 7.97006 0
M  V30 90283 P 227.239 6.144 6.45285 0
M  V30 90284 O 227.019 7.54673 6.86199 0
M  V30 90285 O 226.449 5.12391 7.179 0
M  V30 90286 O 226.989 5.99158 4.88404 0
M  V30 90287 C 227.929 6.60234 3.96415 0
M  V30 90288 C 227.199 7.08259 2.72856 0
M  V30 90289 O 226.989 5.9427 1.83651 0
M  V30 90290 C 225.799 7.64886 2.9555 0
M  V30 90291 O 225.409 8.53963 1.90717 0
M  V30 90292 C 224.919 6.4116 2.90739 0
M  V30 90293 C 225.629 5.55375 1.86963 0
M  V30 90294 N 225.579 4.09664 2.15742 0
M  V30 90295 H 228.418 7.45574 4.45629 0
M  V30 90296 H 228.69 5.86232 3.67314 0
M  V30 90297 H 227.822 7.84412 2.24479 0
M  V30 90298 P 223.859 8.7635 1.60911 0
M  V30 90299 O 223.639 10.1388 1.11561 0
M  V30 90300 O 223.069 8.36503 2.79617 0
M  V30 90301 O 223.609 7.71806 0.42951 0
M  V30 90302 C 224.549 7.67148 -0.673689 0
M  V30 90303 C 223.819 7.33374 -1.95559 0
M  V30 90304 O 223.609 5.88721 -2.00726 0
M  V30 90305 C 222.419 7.92526 -2.10483 0
M  V30 90306 O 222.029 8.02971 -3.47653 0
M  V30 90307 C 221.539 6.89602 -1.41652 0
M  V30 90308 C 222.249 5.59201 -1.75185 0
M  V30 90309 N 222.199 4.58301 -0.657969 0
M  V30 90310 H 225.038 8.65116 -0.777161 0
M  V30 90311 H 225.31 6.9022 -0.46725 0
M  V30 90312 H 224.442 7.66548 -2.79458 0
M  V30 90313 H 221.787 5.16165 -2.65183 0
M  V30 90314 H 221.507 7.06433 -0.329384 0
M  V30 90315 H 220.516 6.90926 -1.82021 0
M  V30 90316 H 222.35 8.90873 -1.62657 0
M  V30 90317 P 220.479 8.03563 -3.84925 0
M  V30 90318 O 220.259 8.85821 -5.0569 0
M  V30 90319 O 219.689 8.41101 -2.65469 0
M  V30 90320 O 220.229 6.4965 -4.18908 0
M  V30 90321 C 221.169 5.81037 -5.05421 0
M  V30 90322 C 220.439 4.78366 -5.89277 0
M  V30 90323 O 220.229 3.58302 -5.08433 0
M  V30 90324 C 219.039 5.17448 -6.36119 0
M  V30 90325 O 218.649 4.45271 -7.53232 0
M  V30 90326 C 218.159 4.74639 -5.19936 0
M  V30 90327 C 218.869 3.49432 -4.70418 0
M  V30 90328 N 218.819 3.31776 -3.22945 0
M  V30 90329 H 221.658 6.54213 -5.71376 0
M  V30 90330 H 221.93 5.30492 -4.44033 0
M  V30 90331 H 221.062 4.55889 -6.76652 0
M  V30 90332 P 217.099 4.23843 -7.83734 0
M  V30 90333 O 216.879 4.19407 -9.29784 0
M  V30 90334 O 216.309 5.24426 -7.09156 0
M  V30 90335 O 216.849 2.7935 -7.20758 0
M  V30 90336 C 217.789 1.7299 -7.50419 0
M  V30 90337 C 217.059 0.406376 -7.57911 0
M  V30 90338 O 216.849 -0.0897726 -6.21935 0
M  V30 90339 C 215.659 0.447224 -8.1878 0
M  V30 90340 O 215.269 -0.825065 -8.71101 0
M  V30 90341 C 214.779 0.783801 -6.99623 0
M  V30 90342 C 215.489 0.0619192 -5.85967 0
M  V30 90343 N 215.439 0.7859 -4.56281 0
M  V30 90344 H 218.278 1.93423 -8.4679 0
M  V30 90345 H 218.55 1.68181 -6.71046 0
M  V30 90346 H 217.682 -0.289041 -8.15388 0
M  V30 90347 P 213.719 -1.17771 -8.83182 0
M  V30 90348 O 213.499 -2.07206 -9.98732 0
M  V30 90349 O 212.929 0.0743816 -8.81969 0
M  V30 90350 O 213.469 -1.97652 -7.47304 0
M  V30 90351 C 214.409 -3.01133 -7.08783 0
M  V30 90352 C 213.679 -4.12613 -6.37049 0
M  V30 90353 O 213.469 -3.72827 -4.97879 0
M  V30 90354 C 212.279 -4.45085 -6.88694 0
M  V30 90355 O 211.889 -5.7877 -6.5624 0
M  V30 90356 C 211.399 -3.47817 -6.12078 0
M  V30 90357 C 212.109 -3.39414 -4.77697 0
M  V30 90358 N 212.059 -2.04615 -4.15333 0
M  V30 90359 H 214.898 -3.41248 -7.98759 0
M  V30 90360 H 215.17 -2.5837 -6.41742 0
M  V30 90361 H 214.302 -5.02657 -6.42673 0
M  V30 90362 P 210.339 -6.144 -6.45285 0
M  V30 90363 O 210.119 -7.54673 -6.86199 0
M  V30 90364 O 209.549 -5.12391 -7.179 0
M  V30 90365 O 210.089 -5.99158 -4.88404 0
M  V30 90366 C 211.029 -6.60234 -3.96415 0
M  V30 90367 C 210.299 -7.08259 -2.72856 0
M  V30 90368 O 210.089 -5.9427 -1.83651 0
M  V30 90369 C 208.899 -7.64886 -2.9555 0
M  V30 90370 O 208.509 -8.53963 -1.90717 0
M  V30 90371 C 208.019 -6.4116 -2.90739 0
M  V30 90372 C 208.729 -5.55375 -1.86963 0
M  V30 90373 N 208.679 -4.09664 -2.15742 0
M  V30 90374 H 211.518 -7.45574 -4.45629 0
M  V30 90375 H 211.79 -5.86232 -3.67314 0
M  V30 90376 H 210.922 -7.84412 -2.24479 0
M  V30 90377 P 206.959 -8.7635 -1.60911 0
M  V30 90378 O 206.739 -10.1388 -1.11561 0
M  V30 90379 O 206.169 -8.36503 -2.79617 0
M  V30 90380 O 206.709 -7.71806 -0.42951 0
M  V30 90381 C 207.649 -7.67148 0.673689 0
M  V30 90382 C 206.919 -7.33374 1.95559 0
M  V30 90383 O 206.709 -5.88721 2.00726 0
M  V30 90384 C 205.519 -7.92526 2.10483 0
M  V30 90385 O 205.129 -8.02971 3.47653 0
M  V30 90386 C 204.639 -6.89602 1.41652 0
M  V30 90387 C 205.349 -5.59201 1.75185 0
M  V30 90388 N 205.299 -4.58235 0.662552 0
M  V30 90389 C 205.379 -4.7683 -0.704049 0
M  V30 90390 N 205.299 -3.66233 -1.39775 0
M  V30 90391 C 205.159 -2.66526 -0.431739 0
M  V30 90392 C 205.029 -1.26394 -0.575992 0
M  V30 90393 O 205.009 -0.589894 -1.60503 0
M  V30 90394 N 204.909 -0.62859 0.67177 0
M  V30 90395 C 204.909 -1.27134 1.89385 0
M  V30 90396 N 204.779 -0.492035 2.96951 0
M  V30 90397 N 205.039 -2.58978 2.02907 0
M  V30 90398 C 205.159 -3.22433 0.832218 0
M  V30 90399 H 208.138 -8.65116 0.777161 0
M  V30 90400 H 208.41 -6.90173 0.474152 0
M  V30 90401 H 207.542 -7.66548 2.79458 0
M  V30 90402 H 204.887 -5.16254 2.65229 0
M  V30 90403 H 204.607 -7.06532 0.329431 0
M  V30 90404 H 203.616 -6.91023 1.82047 0
M  V30 90405 H 205.45 -8.90971 1.62675 0
M  V30 90406 H 205.499 -5.74954 -1.16305 0
M  V30 90407 H 204.817 0.366713 0.674793 0
M  V30 90408 H 204.78 -0.908532 3.91188 0
M  V30 90409 H 204.679 0.528253 2.85758 0
M  V30 90410 P 203.579 -8.03563 3.84925 0
M  V30 90411 O 203.359 -8.85821 5.0569 0
M  V30 90412 O 202.789 -8.41101 2.65469 0
M  V30 90413 O 203.329 -6.49734 4.18962 0
M  V30 90414 C 204.269 -5.81037 5.05421 0
M  V30 90415 C 203.539 -4.79018 5.88876 0
M  V30 90416 O 203.329 -3.58359 5.08515 0
M  V30 90417 C 202.139 -5.17448 6.36119 0
M  V30 90418 O 201.749 -4.45322 7.53318 0
M  V30 90419 C 201.259 -4.74639 5.19936 0
M  V30 90420 C 201.969 -3.49432 4.70418 0
M  V30 90421 N 201.919 -3.31776 3.22945 0
M  V30 90422 C 201.769 -2.02742 2.72939 0
M  V30 90423 O 201.679 -1.08301 3.52749 0
M  V30 90424 N 201.719 -1.96117 1.22063 0
M  V30 90425 C 201.819 -2.8878 0.551566 0
M  V30 90426 N 201.769 -2.65609 -0.750198 0
M  V30 90427 C 201.969 -4.22457 1.03707 0
M  V30 90428 C 202.019 -4.37979 2.39113 0
M  V30 90429 H 204.759 -6.54138 5.7131 0
M  V30 90430 H 205.029 -5.30492 4.44033 0
M  V30 90431 H 204.162 -4.55945 6.76735 0
M  V30 90432 H 201.507 -2.6176 5.18021 0
M  V30 90433 H 201.227 -5.52233 4.41941 0
M  V30 90434 H 200.236 -4.52045 5.53452 0
M  V30 90435 H 202.07 -6.25124 6.55234 0
M  V30 90436 H 202.142 -5.37936 2.80552 0
M  V30 90437 H 202.04 -5.07528 0.359553 0
M  V30 90438 H 201.652 -1.69403 -1.09847 0
M  V30 90439 H 201.848 -3.43701 -1.41792 0
M  V30 90440 P 200.199 -4.23843 7.83734 0
M  V30 90441 O 199.979 -4.19407 9.29784 0
M  V30 90442 O 199.409 -5.24426 7.09156 0
M  V30 90443 O 199.949 -2.7935 7.20758 0
M  V30 90444 C 200.889 -1.7299 7.50419 0
M  V30 90445 C 200.159 -0.406376 7.57911 0
M  V30 90446 O 199.949 0.0897726 6.21935 0
M  V30 90447 C 198.759 -0.447224 8.1878 0
M  V30 90448 O 198.369 0.825065 8.71101 0
M  V30 90449 C 197.879 -0.783801 6.99623 0
M  V30 90450 C 198.589 -0.0619192 5.85967 0
M  V30 90451 N 198.539 -0.7859 4.56281 0
M  V30 90452 H 201.378 -1.93423 8.4679 0
M  V30 90453 H 201.65 -1.68181 6.71046 0
M  V30 90454 H 200.782 0.289041 8.15388 0
M  V30 90455 P 196.819 1.17771 8.83182 0
M  V30 90456 O 196.599 2.07206 9.98732 0
M  V30 90457 O 196.029 -0.0743816 8.81969 0
M  V30 90458 O 196.569 1.97652 7.47304 0
M  V30 90459 C 197.509 3.01133 7.08783 0
M  V30 90460 C 196.779 4.12613 6.37049 0
M  V30 90461 O 196.569 3.72827 4.97879 0
M  V30 90462 C 195.379 4.45085 6.88694 0
M  V30 90463 O 194.989 5.7877 6.5624 0
M  V30 90464 C 194.499 3.47817 6.12078 0
M  V30 90465 C 195.209 3.39414 4.77697 0
M  V30 90466 N 195.159 2.04615 4.15333 0
M  V30 90467 H 197.998 3.41248 7.98759 0
M  V30 90468 H 198.27 2.5837 6.41742 0
M  V30 90469 H 197.402 5.02657 6.42673 0
M  V30 90470 P 193.439 6.144 6.45285 0
M  V30 90471 O 193.219 7.54673 6.86199 0
M  V30 90472 O 192.649 5.12391 7.179 0
M  V30 90473 O 193.189 5.99158 4.88404 0
M  V30 90474 C 194.129 6.60234 3.96415 0
M  V30 90475 C 193.399 7.08259 2.72856 0
M  V30 90476 O 193.189 5.9427 1.83651 0
M  V30 90477 C 191.999 7.64886 2.9555 0
M  V30 90478 O 191.609 8.53963 1.90717 0
M  V30 90479 C 191.119 6.4116 2.90739 0
M  V30 90480 C 191.829 5.55375 1.86963 0
M  V30 90481 N 191.779 4.09664 2.15742 0
M  V30 90482 C 191.859 3.44381 3.37233 0
M  V30 90483 N 191.779 2.14131 3.28347 0
M  V30 90484 C 191.639 1.90247 1.91588 0
M  V30 90485 C 191.509 0.683992 1.20892 0
M  V30 90486 O 191.489 -0.46618 1.64523 0
M  V30 90487 N 191.389 0.903396 -0.173998 0
M  V30 90488 C 191.389 2.14171 -0.784879 0
M  V30 90489 N 191.259 2.1435 -2.11317 0
M  V30 90490 N 191.519 3.28784 -0.119316 0
M  V30 90491 C 191.639 3.0977 1.22194 0
M  V30 90492 H 194.618 7.45574 4.45629 0
M  V30 90493 H 194.89 5.86232 3.67314 0
M  V30 90494 H 194.022 7.84412 2.24479 0
M  V30 90495 H 191.367 5.73556 0.888715 0
M  V30 90496 H 191.087 5.9096 3.88638 0
M  V30 90497 H 190.096 6.66053 2.58894 0
M  V30 90498 H 191.93 8.16429 3.92093 0
M  V30 90499 H 191.979 3.96785 4.32043 0
M  V30 90500 H 191.297 0.0999567 -0.761467 0
M  V30 90501 H 191.26 3.03436 -2.63076 0
M  V30 90502 H 191.159 1.25228 -2.62233 0
M  V30 90503 P 190.059 8.7635 1.60911 0
M  V30 90504 O 189.839 10.1388 1.11561 0
M  V30 90505 O 189.269 8.36503 2.79617 0
M  V30 90506 O 189.809 7.71806 0.42951 0
M  V30 90507 C 190.749 7.67148 -0.673689 0
M  V30 90508 C 190.019 7.33374 -1.95559 0
M  V30 90509 O 189.809 5.88721 -2.00726 0
M  V30 90510 C 188.619 7.92526 -2.10483 0
M  V30 90511 O 188.229 8.02971 -3.47653 0
M  V30 90512 C 187.739 6.89602 -1.41652 0
M  V30 90513 C 188.449 5.59201 -1.75185 0
M  V30 90514 N 188.399 4.58235 -0.662552 0
M  V30 90515 H 191.238 8.65116 -0.777161 0
M  V30 90516 H 191.51 6.90173 -0.474152 0
M  V30 90517 H 190.642 7.66548 -2.79458 0
M  V30 90518 P 186.679 8.03563 -3.84925 0
M  V30 90519 O 186.459 8.85821 -5.0569 0
M  V30 90520 O 185.889 8.41101 -2.65469 0
M  V30 90521 O 186.429 6.4965 -4.18908 0
M  V30 90522 C 187.369 5.81037 -5.05421 0
M  V30 90523 C 186.639 4.78366 -5.89277 0
M  V30 90524 O 186.429 3.58302 -5.08433 0
M  V30 90525 C 185.239 5.17448 -6.36119 0
M  V30 90526 O 184.849 4.45271 -7.53232 0
M  V30 90527 C 184.359 4.74639 -5.19936 0
M  V30 90528 C 185.069 3.49432 -4.70418 0
M  V30 90529 N 185.019 3.31776 -3.22945 0
M  V30 90530 H 187.858 6.54213 -5.71376 0
M  V30 90531 H 188.13 5.30492 -4.44033 0
M  V30 90532 H 187.262 4.55889 -6.76652 0
M  V30 90533 P 183.299 4.23843 -7.83734 0
M  V30 90534 O 183.079 4.19407 -9.29784 0
M  V30 90535 O 182.509 5.24426 -7.09156 0
M  V30 90536 O 183.049 2.7935 -7.20758 0
M  V30 90537 C 183.989 1.7299 -7.50419 0
M  V30 90538 C 183.259 0.406376 -7.57911 0
M  V30 90539 O 183.049 -0.0897726 -6.21935 0
M  V30 90540 C 181.859 0.447224 -8.1878 0
M  V30 90541 O 181.469 -0.825065 -8.71101 0
M  V30 90542 C 180.979 0.783801 -6.99623 0
M  V30 90543 C 181.689 0.0619192 -5.85967 0
M  V30 90544 N 181.639 0.790462 -4.56202 0
M  V30 90545 H 184.478 1.93423 -8.4679 0
M  V30 90546 H 184.75 1.68852 -6.70877 0
M  V30 90547 H 183.882 -0.289041 -8.15388 0
M  V30 90548 H 181.227 -0.927006 -5.72848 0
M  V30 90549 H 180.947 1.86973 -6.82036 0
M  V30 90550 H 179.956 0.403953 -7.13357 0
M  V30 90551 H 181.79 1.20599 -8.97534 0
M  V30 90552 P 179.919 -1.17771 -8.83182 0
M  V30 90553 O 179.699 -2.07206 -9.98732 0
M  V30 90554 O 179.129 0.0743816 -8.81969 0
M  V30 90555 O 179.669 -1.97652 -7.47304 0
M  V30 90556 C 180.609 -3.01133 -7.08783 0
M  V30 90557 C 179.879 -4.12613 -6.37049 0
M  V30 90558 O 179.669 -3.72827 -4.97879 0
M  V30 90559 C 178.479 -4.45085 -6.88694 0
M  V30 90560 O 178.089 -5.7877 -6.5624 0
M  V30 90561 C 177.599 -3.47817 -6.12078 0
M  V30 90562 C 178.309 -3.39414 -4.77697 0
M  V30 90563 N 178.259 -2.04615 -4.15333 0
M  V30 90564 H 181.098 -3.41248 -7.98759 0
M  V30 90565 H 181.37 -2.5837 -6.41742 0
M  V30 90566 H 180.502 -5.02657 -6.42673 0
M  V30 90567 P 176.539 -6.144 -6.45285 0
M  V30 90568 O 176.319 -7.54673 -6.86199 0
M  V30 90569 O 175.749 -5.12391 -7.179 0
M  V30 90570 O 176.289 -5.99158 -4.88404 0
M  V30 90571 C 177.229 -6.60234 -3.96415 0
M  V30 90572 C 176.499 -7.08259 -2.72856 0
M  V30 90573 O 176.289 -5.9427 -1.83651 0
M  V30 90574 C 175.099 -7.64886 -2.9555 0
M  V30 90575 O 174.709 -8.53963 -1.90717 0
M  V30 90576 C 174.219 -6.4116 -2.90739 0
M  V30 90577 C 174.929 -5.55375 -1.86963 0
M  V30 90578 N 174.879 -4.09664 -2.15742 0
M  V30 90579 H 177.718 -7.45574 -4.45629 0
M  V30 90580 H 177.99 -5.86232 -3.67314 0
M  V30 90581 H 177.122 -7.84412 -2.24479 0
M  V30 90582 P 173.159 -8.7635 -1.60911 0
M  V30 90583 O 172.939 -10.1388 -1.11561 0
M  V30 90584 O 172.369 -8.36503 -2.79617 0
M  V30 90585 O 172.909 -7.71806 -0.42951 0
M  V30 90586 C 173.849 -7.67148 0.673689 0
M  V30 90587 C 173.119 -7.33374 1.95559 0
M  V30 90588 O 172.909 -5.88721 2.00726 0
M  V30 90589 C 171.719 -7.92526 2.10483 0
M  V30 90590 O 171.329 -8.02971 3.47653 0
M  V30 90591 C 170.839 -6.89602 1.41652 0
M  V30 90592 C 171.549 -5.59201 1.75185 0
M  V30 90593 N 171.499 -4.58235 0.662552 0
M  V30 90594 H 174.338 -8.65116 0.777161 0
M  V30 90595 H 174.61 -6.90173 0.474152 0
M  V30 90596 H 173.742 -7.66548 2.79458 0
M  V30 90597 P 169.779 -8.03563 3.84925 0
M  V30 90598 O 169.559 -8.85821 5.0569 0
M  V30 90599 O 168.989 -8.41101 2.65469 0
M  V30 90600 O 169.529 -6.4965 4.18908 0
M  V30 90601 C 170.469 -5.81037 5.05421 0
M  V30 90602 C 169.739 -4.78366 5.89277 0
M  V30 90603 O 169.529 -3.58302 5.08433 0
M  V30 90604 C 168.339 -5.17448 6.36119 0
M  V30 90605 O 167.949 -4.45271 7.53232 0
M  V30 90606 C 167.459 -4.74639 5.19936 0
M  V30 90607 C 168.169 -3.49432 4.70418 0
M  V30 90608 N 168.119 -3.31776 3.22945 0
M  V30 90609 H 170.958 -6.54213 5.71376 0
M  V30 90610 H 171.23 -5.30492 4.44033 0
M  V30 90611 H 170.362 -4.55889 6.76652 0
M  V30 90612 P 166.399 -4.23843 7.83734 0
M  V30 90613 O 166.179 -4.19407 9.29784 0
M  V30 90614 O 165.609 -5.24426 7.09156 0
M  V30 90615 O 166.149 -2.7935 7.20758 0
M  V30 90616 C 167.089 -1.7299 7.50419 0
M  V30 90617 C 166.359 -0.406376 7.57911 0
M  V30 90618 O 166.149 0.0897726 6.21935 0
M  V30 90619 C 164.959 -0.447224 8.1878 0
M  V30 90620 O 164.569 0.825065 8.71101 0
M  V30 90621 C 164.079 -0.783801 6.99623 0
M  V30 90622 C 164.789 -0.0619192 5.85967 0
M  V30 90623 N 164.739 -0.790462 4.56202 0
M  V30 90624 C 164.819 -2.13895 4.34171 0
M  V30 90625 N 164.749 -2.46449 3.08687 0
M  V30 90626 C 164.599 -1.2525 2.43697 0
M  V30 90627 C 164.469 -0.914535 1.07318 0
M  V30 90628 N 164.459 -1.80782 0.0887348 0
M  V30 90629 N 164.349 0.386745 0.768133 0
M  V30 90630 C 164.359 1.28096 1.75159 0
M  V30 90631 N 164.479 1.09708 3.04861 0
M  V30 90632 C 164.599 -0.214857 3.32306 0
M  V30 90633 H 167.578 -1.93423 8.4679 0
M  V30 90634 H 167.85 -1.68852 6.70877 0
M  V30 90635 H 166.982 0.289041 8.15388 0
M  V30 90636 H 164.327 0.927006 5.72848 0
M  V30 90637 H 164.047 -1.86973 6.82036 0
M  V30 90638 H 163.056 -0.403953 7.13357 0
M  V30 90639 H 164.89 -1.20599 8.97534 0
M  V30 90640 H 164.931 -2.86846 5.14318 0
M  V30 90641 H 164.55 -2.81082 0.302037 0
M  V30 90642 H 164.361 -1.49688 -0.889064 0
M  V30 90643 H 164.253 2.31317 1.43855 0
M  V30 90644 P 163.019 1.17771 8.83182 0
M  V30 90645 O 162.799 2.07206 9.98732 0
M  V30 90646 O 162.229 -0.0743816 8.81969 0
M  V30 90647 O 162.769 1.97678 7.474 0
M  V30 90648 C 163.709 3.01133 7.08783 0
M  V30 90649 C 162.979 4.1203 6.37546 0
M  V30 90650 O 162.769 3.72887 4.9796 0
M  V30 90651 C 161.579 4.45085 6.88694 0
M  V30 90652 O 161.189 5.78836 6.56315 0
M  V30 90653 C 160.699 3.47817 6.12078 0
M  V30 90654 C 161.409 3.39414 4.77697 0
M  V30 90655 N 161.359 2.04615 4.15333 0
M  V30 90656 C 161.209 1.96929 2.77162 0
M  V30 90657 O 161.119 3.02017 2.12006 0
M  V30 90658 N 161.159 0.55485 2.24237 0
M  V30 90659 C 161.259 -0.367808 2.9169 0
M  V30 90660 N 161.209 -1.53426 2.29427 0
M  V30 90661 C 161.409 -0.319148 4.33828 0
M  V30 90662 C 161.459 0.920672 4.90433 0
M  V30 90663 H 164.199 3.41209 7.98667 0
M  V30 90664 H 164.469 2.5837 6.41742 0
M  V30 90665 H 163.602 5.02718 6.42752 0
M  V30 90666 H 160.947 4.11779 4.09026 0
M  V30 90667 H 160.667 2.49661 6.61772 0
M  V30 90668 H 159.676 3.86674 6.00946 0
M  V30 90669 H 161.51 4.29991 7.97006 0
M  V30 90670 H 161.582 1.00589 5.98303 0
M  V30 90671 H 161.48 -1.22639 4.93799 0
M  V30 90672 H 161.092 -1.56819 1.27167 0
M  V30 90673 H 161.288 -2.41062 2.83063 0
M  V30 90674 P 159.639 6.144 6.45285 0
M  V30 90675 O 159.419 7.54673 6.86199 0
M  V30 90676 O 158.849 5.12391 7.179 0
M  V30 90677 O 159.389 5.99158 4.88404 0
M  V30 90678 C 160.329 6.60234 3.96415 0
M  V30 90679 C 159.599 7.08259 2.72856 0
M  V30 90680 O 159.389 5.9427 1.83651 0
M  V30 90681 C 158.199 7.64886 2.9555 0
M  V30 90682 O 157.809 8.53963 1.90717 0
M  V30 90683 C 157.319 6.4116 2.90739 0
M  V30 90684 C 158.029 5.55375 1.86963 0
M  V30 90685 N 157.979 4.09664 2.15742 0
M  V30 90686 H 160.818 7.45574 4.45629 0
M  V30 90687 H 161.09 5.86232 3.67314 0
M  V30 90688 H 160.222 7.84412 2.24479 0
M  V30 90689 P 156.259 8.7635 1.60911 0
M  V30 90690 O 156.039 10.1388 1.11561 0
M  V30 90691 O 155.469 8.36503 2.79617 0
M  V30 90692 O 156.009 7.71806 0.42951 0
M  V30 90693 C 156.949 7.67148 -0.673689 0
M  V30 90694 C 156.219 7.33374 -1.95559 0
M  V30 90695 O 156.009 5.88721 -2.00726 0
M  V30 90696 C 154.819 7.92526 -2.10483 0
M  V30 90697 O 154.429 8.02971 -3.47653 0
M  V30 90698 C 153.939 6.89602 -1.41652 0
M  V30 90699 C 154.649 5.59201 -1.75185 0
M  V30 90700 N 154.599 4.58301 -0.657969 0
M  V30 90701 H 157.438 8.65116 -0.777161 0
M  V30 90702 H 157.71 6.9022 -0.46725 0
M  V30 90703 H 156.842 7.66548 -2.79458 0
M  V30 90704 H 154.187 5.16165 -2.65183 0
M  V30 90705 H 153.907 7.06433 -0.329384 0
M  V30 90706 H 152.916 6.90926 -1.82021 0
M  V30 90707 H 154.75 8.90873 -1.62657 0
M  V30 90708 P 152.879 8.03563 -3.84925 0
M  V30 90709 O 152.659 8.85821 -5.0569 0
M  V30 90710 O 152.089 8.41101 -2.65469 0
M  V30 90711 O 152.629 6.4965 -4.18908 0
M  V30 90712 C 153.569 5.81037 -5.05421 0
M  V30 90713 C 152.839 4.78366 -5.89277 0
M  V30 90714 O 152.629 3.58302 -5.08433 0
M  V30 90715 C 151.439 5.17448 -6.36119 0
M  V30 90716 O 151.049 4.45271 -7.53232 0
M  V30 90717 C 150.559 4.74639 -5.19936 0
M  V30 90718 C 151.269 3.49432 -4.70418 0
M  V30 90719 N 151.219 3.31776 -3.22945 0
M  V30 90720 H 154.058 6.54213 -5.71376 0
M  V30 90721 H 154.33 5.30492 -4.44033 0
M  V30 90722 H 153.462 4.55889 -6.76652 0
M  V30 90723 P 149.499 4.23843 -7.83734 0
M  V30 90724 O 149.279 4.19407 -9.29784 0
M  V30 90725 O 148.709 5.24426 -7.09156 0
M  V30 90726 O 149.249 2.7935 -7.20758 0
M  V30 90727 C 150.189 1.7299 -7.50419 0
M  V30 90728 C 149.459 0.406376 -7.57911 0
M  V30 90729 O 149.249 -0.0897726 -6.21935 0
M  V30 90730 C 148.059 0.447224 -8.1878 0
M  V30 90731 O 147.669 -0.825065 -8.71101 0
M  V30 90732 C 147.179 0.783801 -6.99623 0
M  V30 90733 C 147.889 0.0619192 -5.85967 0
M  V30 90734 N 147.839 0.7859 -4.56281 0
M  V30 90735 H 150.678 1.93423 -8.4679 0
M  V30 90736 H 150.95 1.68181 -6.71046 0
M  V30 90737 H 150.082 -0.289041 -8.15388 0
M  V30 90738 P 146.119 -1.17771 -8.83182 0
M  V30 90739 O 145.899 -2.07206 -9.98732 0
M  V30 90740 O 145.329 0.0743816 -8.81969 0
M  V30 90741 O 145.869 -1.97652 -7.47304 0
M  V30 90742 C 146.809 -3.01133 -7.08783 0
M  V30 90743 C 146.079 -4.12613 -6.37049 0
M  V30 90744 O 145.869 -3.72827 -4.97879 0
M  V30 90745 C 144.679 -4.45085 -6.88694 0
M  V30 90746 O 144.289 -5.7877 -6.5624 0
M  V30 90747 C 143.799 -3.47817 -6.12078 0
M  V30 90748 C 144.509 -3.39414 -4.77697 0
M  V30 90749 N 144.459 -2.04615 -4.15333 0
M  V30 90750 H 147.298 -3.41248 -7.98759 0
M  V30 90751 H 147.57 -2.5837 -6.41742 0
M  V30 90752 H 146.702 -5.02657 -6.42673 0
M  V30 90753 P 142.739 -6.144 -6.45285 0
M  V30 90754 O 142.519 -7.54673 -6.86199 0
M  V30 90755 O 141.949 -5.12391 -7.179 0
M  V30 90756 O 142.489 -5.99236 -4.88467 0
M  V30 90757 C 143.429 -6.60234 -3.96415 0
M  V30 90758 C 142.699 -7.08079 -2.736 0
M  V30 90759 O 142.489 -5.94365 -1.8368 0
M  V30 90760 C 141.299 -7.64886 -2.9555 0
M  V30 90761 O 140.909 -8.5406 -1.90739 0
M  V30 90762 C 140.419 -6.4116 -2.90739 0
M  V30 90763 C 141.129 -5.55375 -1.86963 0
M  V30 90764 N 141.079 -4.09664 -2.15742 0
M  V30 90765 C 140.929 -3.22231 -1.08477 0
M  V30 90766 O 140.839 -3.68951 0.0600489 0
M  V30 90767 N 140.879 -1.76692 -1.48799 0
M  V30 90768 C 140.979 -1.41695 -2.57602 0
M  V30 90769 N 140.929 -0.107296 -2.75791 0
M  V30 90770 C 141.129 -2.29178 -3.69733 0
M  V30 90771 C 141.179 -3.62753 -3.42653 0
M  V30 90772 H 143.919 -7.45488 -4.45578 0
M  V30 90773 H 144.189 -5.86232 -3.67314 0
M  V30 90774 H 143.322 -7.84508 -2.24507 0
M  V30 90775 H 140.667 -5.73556 -0.888715 0
M  V30 90776 H 140.387 -5.9096 -3.88638 0
M  V30 90777 H 139.396 -6.66053 -2.58894 0
M  V30 90778 H 141.23 -8.16339 -3.92049 0
M  V30 90779 H 141.302 -4.33052 -4.24913 0
M  V30 90780 H 141.2 -1.9103 -4.71577 0
M  V30 90781 H 140.812 0.521221 -1.95056 0
M  V30 90782 H 141.008 0.286429 -3.70695 0
M  V30 90783 P 139.359 -8.7635 -1.60911 0
M  V30 90784 O 139.139 -10.1388 -1.11561 0
M  V30 90785 O 138.569 -8.36503 -2.79617 0
M  V30 90786 O 139.109 -7.71806 -0.42951 0
M  V30 90787 C 140.049 -7.67148 0.673689 0
M  V30 90788 C 139.319 -7.33374 1.95559 0
M  V30 90789 O 139.109 -5.88721 2.00726 0
M  V30 90790 C 137.919 -7.92526 2.10483 0
M  V30 90791 O 137.529 -8.02971 3.47653 0
M  V30 90792 C 137.039 -6.89602 1.41652 0
M  V30 90793 C 137.749 -5.59201 1.75185 0
M  V30 90794 N 137.699 -4.58235 0.662552 0
M  V30 90795 H 140.538 -8.65116 0.777161 0
M  V30 90796 H 140.81 -6.90173 0.474152 0
M  V30 90797 H 139.942 -7.66548 2.79458 0
M  V30 90798 P 135.979 -8.03563 3.84925 0
M  V30 90799 O 135.759 -8.85821 5.0569 0
M  V30 90800 O 135.189 -8.41101 2.65469 0
M  V30 90801 O 135.729 -6.4965 4.18908 0
M  V30 90802 C 136.669 -5.81037 5.05421 0
M  V30 90803 C 135.939 -4.78366 5.89277 0
M  V30 90804 O 135.729 -3.58302 5.08433 0
M  V30 90805 C 134.539 -5.17448 6.36119 0
M  V30 90806 O 134.149 -4.45271 7.53232 0
M  V30 90807 C 133.659 -4.74639 5.19936 0
M  V30 90808 C 134.369 -3.49432 4.70418 0
M  V30 90809 N 134.319 -3.31776 3.22945 0
M  V30 90810 H 137.158 -6.54213 5.71376 0
M  V30 90811 H 137.43 -5.30492 4.44033 0
M  V30 90812 H 136.562 -4.55889 6.76652 0
M  V30 90813 P 132.599 -4.23843 7.83734 0
M  V30 90814 O 132.379 -4.19407 9.29784 0
M  V30 90815 O 131.809 -5.24426 7.09156 0
M  V30 90816 O 132.349 -2.7935 7.20758 0
M  V30 90817 C 133.289 -1.7299 7.50419 0
M  V30 90818 C 132.559 -0.406376 7.57911 0
M  V30 90819 O 132.349 0.0897726 6.21935 0
M  V30 90820 C 131.159 -0.447224 8.1878 0
M  V30 90821 O 130.769 0.825065 8.71101 0
M  V30 90822 C 130.279 -0.783801 6.99623 0
M  V30 90823 C 130.989 -0.0619192 5.85967 0
M  V30 90824 N 130.939 -0.790462 4.56202 0
M  V30 90825 C 131.019 -2.13895 4.34171 0
M  V30 90826 N 130.949 -2.46449 3.08687 0
M  V30 90827 C 130.799 -1.2525 2.43697 0
M  V30 90828 C 130.669 -0.914535 1.07318 0
M  V30 90829 N 130.659 -1.80782 0.0887348 0
M  V30 90830 N 130.549 0.386745 0.768133 0
M  V30 90831 C 130.559 1.28096 1.75159 0
M  V30 90832 N 130.679 1.09708 3.04861 0
M  V30 90833 C 130.799 -0.214857 3.32306 0
M  V30 90834 H 133.778 -1.93423 8.4679 0
M  V30 90835 H 134.05 -1.68852 6.70877 0
M  V30 90836 H 133.182 0.289041 8.15388 0
M  V30 90837 H 130.527 0.927006 5.72848 0
M  V30 90838 H 130.247 -1.86973 6.82036 0
M  V30 90839 H 129.256 -0.403953 7.13357 0
M  V30 90840 H 131.09 -1.20599 8.97534 0
M  V30 90841 H 131.131 -2.86846 5.14318 0
M  V30 90842 H 130.75 -2.81082 0.302037 0
M  V30 90843 H 130.561 -1.49688 -0.889064 0
M  V30 90844 H 130.453 2.31317 1.43855 0
M  V30 90845 P 129.219 1.17771 8.83182 0
M  V30 90846 O 128.999 2.07206 9.98732 0
M  V30 90847 O 128.429 -0.0743816 8.81969 0
M  V30 90848 O 128.969 1.97652 7.47304 0
M  V30 90849 C 129.909 3.01133 7.08783 0
M  V30 90850 C 129.179 4.12613 6.37049 0
M  V30 90851 O 128.969 3.72827 4.97879 0
M  V30 90852 C 127.779 4.45085 6.88694 0
M  V30 90853 O 127.389 5.7877 6.5624 0
M  V30 90854 C 126.899 3.47817 6.12078 0
M  V30 90855 C 127.609 3.39414 4.77697 0
M  V30 90856 N 127.559 2.04615 4.15333 0
M  V30 90857 H 130.398 3.41248 7.98759 0
M  V30 90858 H 130.67 2.5837 6.41742 0
M  V30 90859 H 129.802 5.02657 6.42673 0
M  V30 90860 P 125.839 6.144 6.45285 0
M  V30 90861 O 125.619 7.54673 6.86199 0
M  V30 90862 O 125.049 5.12391 7.179 0
M  V30 90863 O 125.589 5.99158 4.88404 0
M  V30 90864 C 126.529 6.60234 3.96415 0
M  V30 90865 C 125.799 7.08259 2.72856 0
M  V30 90866 O 125.589 5.9427 1.83651 0
M  V30 90867 C 124.399 7.64886 2.9555 0
M  V30 90868 O 124.009 8.53963 1.90717 0
M  V30 90869 C 123.519 6.4116 2.90739 0
M  V30 90870 C 124.229 5.55375 1.86963 0
M  V30 90871 N 124.179 4.09664 2.15742 0
M  V30 90872 C 124.259 3.44381 3.37233 0
M  V30 90873 N 124.179 2.14131 3.28347 0
M  V30 90874 C 124.039 1.90247 1.91588 0
M  V30 90875 C 123.909 0.683992 1.20892 0
M  V30 90876 O 123.889 -0.46618 1.64523 0
M  V30 90877 N 123.789 0.903396 -0.173998 0
M  V30 90878 C 123.789 2.14171 -0.784879 0
M  V30 90879 N 123.659 2.1435 -2.11317 0
M  V30 90880 N 123.919 3.28784 -0.119316 0
M  V30 90881 C 124.039 3.0977 1.22194 0
M  V30 90882 H 127.018 7.45574 4.45629 0
M  V30 90883 H 127.29 5.86232 3.67314 0
M  V30 90884 H 126.422 7.84412 2.24479 0
M  V30 90885 H 123.767 5.73556 0.888715 0
M  V30 90886 H 123.487 5.9096 3.88638 0
M  V30 90887 H 122.496 6.66053 2.58894 0
M  V30 90888 H 124.33 8.16429 3.92093 0
M  V30 90889 H 124.379 3.96785 4.32043 0
M  V30 90890 H 123.697 0.0999567 -0.761467 0
M  V30 90891 H 123.66 3.03436 -2.63076 0
M  V30 90892 H 123.559 1.25228 -2.62233 0
M  V30 90893 P 122.459 8.7635 1.60911 0
M  V30 90894 O 122.239 10.1388 1.11561 0
M  V30 90895 O 121.669 8.36503 2.79617 0
M  V30 90896 O 122.209 7.71806 0.42951 0
M  V30 90897 C 123.149 7.67148 -0.673689 0
M  V30 90898 C 122.419 7.33374 -1.95559 0
M  V30 90899 O 122.209 5.88721 -2.00726 0
M  V30 90900 C 121.019 7.92526 -2.10483 0
M  V30 90901 O 120.629 8.02971 -3.47653 0
M  V30 90902 C 120.139 6.89602 -1.41652 0
M  V30 90903 C 120.849 5.59201 -1.75185 0
M  V30 90904 N 120.799 4.58301 -0.657969 0
M  V30 90905 H 123.638 8.65116 -0.777161 0
M  V30 90906 H 123.91 6.9022 -0.46725 0
M  V30 90907 H 123.042 7.66548 -2.79458 0
M  V30 90908 H 120.387 5.16165 -2.65183 0
M  V30 90909 H 120.107 7.06433 -0.329384 0
M  V30 90910 H 119.116 6.90926 -1.82021 0
M  V30 90911 H 120.95 8.90873 -1.62657 0
M  V30 90912 P 119.079 8.03563 -3.84925 0
M  V30 90913 O 118.859 8.85821 -5.0569 0
M  V30 90914 O 118.289 8.41101 -2.65469 0
M  V30 90915 O 118.829 6.4965 -4.18908 0
M  V30 90916 C 119.769 5.81037 -5.05421 0
M  V30 90917 C 119.039 4.78366 -5.89277 0
M  V30 90918 O 118.829 3.58302 -5.08433 0
M  V30 90919 C 117.639 5.17448 -6.36119 0
M  V30 90920 O 117.249 4.45271 -7.53232 0
M  V30 90921 C 116.759 4.74639 -5.19936 0
M  V30 90922 C 117.469 3.49432 -4.70418 0
M  V30 90923 N 117.419 3.32099 -3.22613 0
M  V30 90924 H 120.258 6.54213 -5.71376 0
M  V30 90925 H 120.53 5.30936 -4.43503 0
M  V30 90926 H 119.662 4.55889 -6.76652 0
M  V30 90927 H 117.007 2.61715 -5.17932 0
M  V30 90928 H 116.727 5.52155 -4.41878 0
M  V30 90929 H 115.736 4.51981 -5.53374 0
M  V30 90930 H 117.57 6.25124 -6.55234 0
M  V30 90931 P 115.699 4.23843 -7.83734 0
M  V30 90932 O 115.479 4.19407 -9.29784 0
M  V30 90933 O 114.909 5.24426 -7.09156 0
M  V30 90934 O 115.449 2.7935 -7.20758 0
M  V30 90935 C 116.389 1.7299 -7.50419 0
M  V30 90936 C 115.659 0.406376 -7.57911 0
M  V30 90937 O 115.449 -0.0897726 -6.21935 0
M  V30 90938 C 114.259 0.447224 -8.1878 0
M  V30 90939 O 113.869 -0.825065 -8.71101 0
M  V30 90940 C 113.379 0.783801 -6.99623 0
M  V30 90941 C 114.089 0.0619192 -5.85967 0
M  V30 90942 N 114.039 0.7859 -4.56281 0
M  V30 90943 H 116.878 1.93423 -8.4679 0
M  V30 90944 H 117.15 1.68181 -6.71046 0
M  V30 90945 H 116.282 -0.289041 -8.15388 0
M  V30 90946 P 112.319 -1.17771 -8.83182 0
M  V30 90947 O 112.099 -2.07206 -9.98732 0
M  V30 90948 O 111.529 0.0743816 -8.81969 0
M  V30 90949 O 112.069 -1.97652 -7.47304 0
M  V30 90950 C 113.009 -3.01133 -7.08783 0
M  V30 90951 C 112.279 -4.12613 -6.37049 0
M  V30 90952 O 112.069 -3.72827 -4.97879 0
M  V30 90953 C 110.879 -4.45085 -6.88694 0
M  V30 90954 O 110.489 -5.7877 -6.5624 0
M  V30 90955 C 109.999 -3.47817 -6.12078 0
M  V30 90956 C 110.709 -3.39414 -4.77697 0
M  V30 90957 N 110.659 -2.04615 -4.15333 0
M  V30 90958 C 110.739 -0.803897 -4.75249 0
M  V30 90959 N 110.659 0.197615 -3.91502 0
M  V30 90960 C 110.519 -0.413002 -2.66823 0
M  V30 90961 C 110.389 0.157221 -1.38007 0
M  V30 90962 O 110.369 1.34419 -1.057 0
M  V30 90963 N 110.269 -0.833136 -0.390236 0
M  V30 90964 C 110.269 -2.19402 -0.623885 0
M  V30 90965 N 110.139 -2.97622 0.449677 0
M  V30 90966 N 110.399 -2.73005 -1.83601 0
M  V30 90967 C 110.519 -1.78786 -2.80935 0
M  V30 90968 H 113.498 -3.41248 -7.98759 0
M  V30 90969 H 113.77 -2.5837 -6.41742 0
M  V30 90970 H 112.902 -5.02657 -6.42673 0
M  V30 90971 H 110.247 -4.11779 -4.09026 0
M  V30 90972 H 109.967 -2.49661 -6.61772 0
M  V30 90973 H 108.976 -3.86674 -6.00946 0
M  V30 90974 H 110.81 -4.30038 -7.97094 0
M  V30 90975 H 110.859 -0.670579 -5.82754 0
M  V30 90976 H 110.177 -0.528446 0.557287 0
M  V30 90977 H 110.14 -4.00117 0.344773 0
M  V30 90978 H 110.039 -2.55448 1.38544 0
M  V30 90979 P 108.939 -6.144 -6.45285 0
M  V30 90980 O 108.719 -7.54673 -6.86199 0
M  V30 90981 O 108.149 -5.12391 -7.179 0
M  V30 90982 O 108.689 -5.99158 -4.88404 0
M  V30 90983 C 109.629 -6.60234 -3.96415 0
M  V30 90984 C 108.899 -7.08259 -2.72856 0
M  V30 90985 O 108.689 -5.9427 -1.83651 0
M  V30 90986 C 107.499 -7.64886 -2.9555 0
M  V30 90987 O 107.109 -8.53963 -1.90717 0
M  V30 90988 C 106.619 -6.4116 -2.90739 0
M  V30 90989 C 107.329 -5.55375 -1.86963 0
M  V30 90990 N 107.279 -4.09448 -2.16152 0
M  V30 90991 H 110.118 -7.45574 -4.45629 0
M  V30 90992 H 110.39 -5.85864 -3.679 0
M  V30 90993 H 109.522 -7.84412 -2.24479 0
M  V30 90994 H 106.867 -5.73457 -0.888562 0
M  V30 90995 H 106.587 -5.90877 -3.88583 0
M  V30 90996 H 105.596 -6.6596 -2.58858 0
M  V30 90997 H 107.43 -8.16339 -3.92049 0
M  V30 90998 P 105.559 -8.7635 -1.60911 0
M  V30 90999 O 105.339 -10.1388 -1.11561 0
M  V30 91000 O 104.769 -8.36503 -2.79617 0
M  V30 91001 O 105.309 -7.71806 -0.42951 0
M  V30 91002 C 106.249 -7.67148 0.673689 0
M  V30 91003 C 105.519 -7.33374 1.95559 0
M  V30 91004 O 105.309 -5.88721 2.00726 0
M  V30 91005 C 104.119 -7.92526 2.10483 0
M  V30 91006 O 103.729 -8.02971 3.47653 0
M  V30 91007 C 103.239 -6.89602 1.41652 0
M  V30 91008 C 103.949 -5.59201 1.75185 0
M  V30 91009 N 103.899 -4.58235 0.662552 0
M  V30 91010 H 106.738 -8.65116 0.777161 0
M  V30 91011 H 107.01 -6.90173 0.474152 0
M  V30 91012 H 106.142 -7.66548 2.79458 0
M  V30 91013 P 102.179 -8.03563 3.84925 0
M  V30 91014 O 101.959 -8.85821 5.0569 0
M  V30 91015 O 101.389 -8.41101 2.65469 0
M  V30 91016 O 101.929 -6.4965 4.18908 0
M  V30 91017 C 102.869 -5.81037 5.05421 0
M  V30 91018 C 102.139 -4.78366 5.89277 0
M  V30 91019 O 101.929 -3.58302 5.08433 0
M  V30 91020 C 100.739 -5.17448 6.36119 0
M  V30 91021 O 100.349 -4.45271 7.53232 0
M  V30 91022 C 99.8594 -4.74639 5.19936 0
M  V30 91023 C 100.569 -3.49432 4.70418 0
M  V30 91024 N 100.519 -3.31776 3.22945 0
M  V30 91025 H 103.358 -6.54213 5.71376 0
M  V30 91026 H 103.63 -5.30492 4.44033 0
M  V30 91027 H 102.762 -4.55889 6.76652 0
M  V30 91028 P 98.7994 -4.23843 7.83734 0
M  V30 91029 O 98.5794 -4.19407 9.29784 0
M  V30 91030 O 98.0094 -5.24426 7.09156 0
M  V30 91031 O 98.5494 -2.7935 7.20758 0
M  V30 91032 C 99.4894 -1.7299 7.50419 0
M  V30 91033 C 98.7594 -0.406376 7.57911 0
M  V30 91034 O 98.5494 0.0897726 6.21935 0
M  V30 91035 C 97.3594 -0.447224 8.1878 0
M  V30 91036 O 96.9694 0.825065 8.71101 0
M  V30 91037 C 96.4794 -0.783801 6.99623 0
M  V30 91038 C 97.1894 -0.0619192 5.85967 0
M  V30 91039 N 97.1394 -0.7859 4.56281 0
M  V30 91040 H 99.9784 -1.93423 8.4679 0
M  V30 91041 H 100.25 -1.68181 6.71046 0
M  V30 91042 H 99.3824 0.289041 8.15388 0
M  V30 91043 P 95.4195 1.17771 8.83182 0
M  V30 91044 O 95.1995 2.07206 9.98732 0
M  V30 91045 O 94.6295 -0.0743816 8.81969 0
M  V30 91046 O 95.1695 1.97652 7.47304 0
M  V30 91047 C 96.1095 3.01133 7.08783 0
M  V30 91048 C 95.3795 4.12613 6.37049 0
M  V30 91049 O 95.1695 3.72827 4.97879 0
M  V30 91050 C 93.9795 4.45085 6.88694 0
M  V30 91051 O 93.5895 5.7877 6.5624 0
M  V30 91052 C 93.0995 3.47817 6.12078 0
M  V30 91053 C 93.8095 3.39414 4.77697 0
M  V30 91054 N 93.7595 2.04199 4.15538 0
M  V30 91055 C 93.8395 0.821545 4.76977 0
M  V30 91056 N 93.7695 -0.1794 3.94592 0
M  V30 91057 C 93.6195 0.419121 2.70776 0
M  V30 91058 C 93.4895 -0.109072 1.40577 0
M  V30 91059 N 93.4795 -1.4104 1.1344 0
M  V30 91060 N 93.3695 0.764381 0.39411 0
M  V30 91061 C 93.3795 2.06587 0.664135 0
M  V30 91062 N 93.4995 2.67948 1.82153 0
M  V30 91063 C 93.6195 1.77942 2.8147 0
M  V30 91064 H 96.5985 3.41248 7.98759 0
M  V30 91065 H 96.8705 2.57728 6.42 0
M  V30 91066 H 96.0025 5.02657 6.42673 0
M  V30 91067 H 93.3475 4.11708 4.08956 0
M  V30 91068 H 93.0675 2.49626 6.61679 0
M  V30 91069 H 92.0765 3.8662 6.00862 0
M  V30 91070 H 93.9105 4.29991 7.97006 0
M  V30 91071 H 93.9515 0.702451 5.84696 0
M  V30 91072 H 93.5705 -2.09647 1.89651 0
M  V30 91073 H 93.3815 -1.73358 0.160575 0
M  V30 91074 H 93.2735 2.71695 -0.195838 0
M  V30 91075 P 92.0395 6.144 6.45285 0
M  V30 91076 O 91.8195 7.54673 6.86199 0
M  V30 91077 O 91.2495 5.12391 7.179 0
M  V30 91078 O 91.7895 5.99158 4.88404 0
M  V30 91079 C 92.7295 6.60234 3.96415 0
M  V30 91080 C 91.9995 7.08259 2.72856 0
M  V30 91081 O 91.7895 5.9427 1.83651 0
M  V30 91082 C 90.5995 7.64886 2.9555 0
M  V30 91083 O 90.2095 8.53963 1.90717 0
M  V30 91084 C 89.7195 6.4116 2.90739 0
M  V30 91085 C 90.4295 5.55375 1.86963 0
M  V30 91086 N 90.3795 4.09664 2.15742 0
M  V30 91087 C 90.4595 3.44381 3.37233 0
M  V30 91088 N 90.3795 2.14131 3.28347 0
M  V30 91089 C 90.2395 1.90247 1.91588 0
M  V30 91090 C 90.1095 0.683992 1.20892 0
M  V30 91091 O 90.0895 -0.46618 1.64523 0
M  V30 91092 N 89.9895 0.903396 -0.173998 0
M  V30 91093 C 89.9895 2.14171 -0.784879 0
M  V30 91094 N 89.8595 2.1435 -2.11317 0
M  V30 91095 N 90.1195 3.28784 -0.119316 0
M  V30 91096 C 90.2395 3.0977 1.22194 0
M  V30 91097 H 93.2185 7.45574 4.45629 0
M  V30 91098 H 93.4905 5.86232 3.67314 0
M  V30 91099 H 92.6225 7.84412 2.24479 0
M  V30 91100 H 89.9675 5.73556 0.888715 0
M  V30 91101 H 89.6875 5.9096 3.88638 0
M  V30 91102 H 88.6965 6.66053 2.58894 0
M  V30 91103 H 90.5305 8.16429 3.92093 0
M  V30 91104 H 90.5795 3.96785 4.32043 0
M  V30 91105 H 89.8975 0.0999567 -0.761467 0
M  V30 91106 H 89.8605 3.03436 -2.63076 0
M  V30 91107 H 89.7595 1.25228 -2.62233 0
M  V30 91108 P 88.6595 8.7635 1.60911 0
M  V30 91109 O 88.4395 10.1388 1.11561 0
M  V30 91110 O 87.8695 8.36503 2.79617 0
M  V30 91111 O 88.4095 7.71806 0.42951 0
M  V30 91112 C 89.3495 7.67148 -0.673689 0
M  V30 91113 C 88.6195 7.33374 -1.95559 0
M  V30 91114 O 88.4095 5.88721 -2.00726 0
M  V30 91115 C 87.2195 7.92526 -2.10483 0
M  V30 91116 O 86.8295 8.02971 -3.47653 0
M  V30 91117 C 86.3395 6.89602 -1.41652 0
M  V30 91118 C 87.0495 5.59201 -1.75185 0
M  V30 91119 N 86.9995 4.58235 -0.662552 0
M  V30 91120 H 89.8385 8.65116 -0.777161 0
M  V30 91121 H 90.1105 6.90173 -0.474152 0
M  V30 91122 H 89.2425 7.66548 -2.79458 0
M  V30 91123 P 85.2795 8.03563 -3.84925 0
M  V30 91124 O 85.0595 8.85821 -5.0569 0
M  V30 91125 O 84.4895 8.41101 -2.65469 0
M  V30 91126 O 85.0295 6.4965 -4.18908 0
M  V30 91127 C 85.9695 5.81037 -5.05421 0
M  V30 91128 C 85.2395 4.78366 -5.89277 0
M  V30 91129 O 85.0295 3.58302 -5.08433 0
M  V30 91130 C 83.8395 5.17448 -6.36119 0
M  V30 91131 O 83.4495 4.45271 -7.53232 0
M  V30 91132 C 82.9595 4.74639 -5.19936 0
M  V30 91133 C 83.6695 3.49432 -4.70418 0
M  V30 91134 N 83.6195 3.31776 -3.22945 0
M  V30 91135 H 86.4585 6.54213 -5.71376 0
M  V30 91136 H 86.7305 5.30492 -4.44033 0
M  V30 91137 H 85.8625 4.55889 -6.76652 0
M  V30 91138 P 81.8995 4.23843 -7.83734 0
M  V30 91139 O 81.6795 4.19407 -9.29784 0
M  V30 91140 O 81.1095 5.24426 -7.09156 0
M  V30 91141 O 81.6495 2.7935 -7.20758 0
M  V30 91142 C 82.5895 1.7299 -7.50419 0
M  V30 91143 C 81.8595 0.406376 -7.57911 0
M  V30 91144 O 81.6495 -0.0897726 -6.21935 0
M  V30 91145 C 80.4595 0.447224 -8.1878 0
M  V30 91146 O 80.0695 -0.825065 -8.71101 0
M  V30 91147 C 79.5795 0.783801 -6.99623 0
M  V30 91148 C 80.2895 0.0619192 -5.85967 0
M  V30 91149 N 80.2395 0.7859 -4.56281 0
M  V30 91150 H 83.0785 1.93423 -8.4679 0
M  V30 91151 H 83.3505 1.68181 -6.71046 0
M  V30 91152 H 82.4825 -0.289041 -8.15388 0
M  V30 91153 P 78.5196 -1.17771 -8.83182 0
M  V30 91154 O 78.2996 -2.07206 -9.98732 0
M  V30 91155 O 77.7296 0.0743816 -8.81969 0
M  V30 91156 O 78.2696 -1.97652 -7.47304 0
M  V30 91157 C 79.2096 -3.01133 -7.08783 0
M  V30 91158 C 78.4796 -4.12613 -6.37049 0
M  V30 91159 O 78.2696 -3.72827 -4.97879 0
M  V30 91160 C 77.0796 -4.45085 -6.88694 0
M  V30 91161 O 76.6896 -5.7877 -6.5624 0
M  V30 91162 C 76.1996 -3.47817 -6.12078 0
M  V30 91163 C 76.9096 -3.39414 -4.77697 0
M  V30 91164 N 76.8596 -2.04199 -4.15538 0
M  V30 91165 H 79.6986 -3.41248 -7.98759 0
M  V30 91166 H 79.9706 -2.57728 -6.42 0
M  V30 91167 H 79.1026 -5.02657 -6.42673 0
M  V30 91168 H 76.4476 -4.11708 -4.08956 0
M  V30 91169 H 76.1676 -2.49626 -6.61679 0
M  V30 91170 H 75.1766 -3.8662 -6.00862 0
M  V30 91171 H 77.0106 -4.29991 -7.97006 0
M  V30 91172 P 75.1396 -6.144 -6.45285 0
M  V30 91173 O 74.9196 -7.54673 -6.86199 0
M  V30 91174 O 74.3496 -5.12391 -7.179 0
M  V30 91175 O 74.8896 -5.99158 -4.88404 0
M  V30 91176 C 75.8296 -6.60234 -3.96415 0
M  V30 91177 C 75.0996 -7.08259 -2.72856 0
M  V30 91178 O 74.8896 -5.9427 -1.83651 0
M  V30 91179 C 73.6996 -7.64886 -2.9555 0
M  V30 91180 O 73.3096 -8.53963 -1.90717 0
M  V30 91181 C 72.8196 -6.4116 -2.90739 0
M  V30 91182 C 73.5296 -5.55375 -1.86963 0
M  V30 91183 N 73.4796 -4.09664 -2.15742 0
M  V30 91184 H 76.3186 -7.45574 -4.45629 0
M  V30 91185 H 76.5906 -5.86232 -3.67314 0
M  V30 91186 H 75.7226 -7.84412 -2.24479 0
M  V30 91187 P 71.7596 -8.7635 -1.60911 0
M  V30 91188 O 71.5396 -10.1388 -1.11561 0
M  V30 91189 O 70.9696 -8.36503 -2.79617 0
M  V30 91190 O 71.5096 -7.71806 -0.42951 0
M  V30 91191 C 72.4496 -7.67148 0.673689 0
M  V30 91192 C 71.7196 -7.33374 1.95559 0
M  V30 91193 O 71.5096 -5.88721 2.00726 0
M  V30 91194 C 70.3196 -7.92526 2.10483 0
M  V30 91195 O 69.9296 -8.02971 3.47653 0
M  V30 91196 C 69.4396 -6.89602 1.41652 0
M  V30 91197 C 70.1496 -5.59201 1.75185 0
M  V30 91198 N 70.0996 -4.58235 0.662552 0
M  V30 91199 H 72.9386 -8.65116 0.777161 0
M  V30 91200 H 73.2106 -6.90173 0.474152 0
M  V30 91201 H 72.3426 -7.66548 2.79458 0
M  V30 91202 P 68.3796 -8.03563 3.84925 0
M  V30 91203 O 68.1596 -8.85821 5.0569 0
M  V30 91204 O 67.5896 -8.41101 2.65469 0
M  V30 91205 O 68.1296 -6.4965 4.18908 0
M  V30 91206 C 69.0696 -5.81037 5.05421 0
M  V30 91207 C 68.3396 -4.78366 5.89277 0
M  V30 91208 O 68.1296 -3.58302 5.08433 0
M  V30 91209 C 66.9396 -5.17448 6.36119 0
M  V30 91210 O 66.5496 -4.45271 7.53232 0
M  V30 91211 C 66.0596 -4.74639 5.19936 0
M  V30 91212 C 66.7696 -3.49432 4.70418 0
M  V30 91213 N 66.7196 -3.31776 3.22945 0
M  V30 91214 H 69.5586 -6.54213 5.71376 0
M  V30 91215 H 69.8306 -5.30492 4.44033 0
M  V30 91216 H 68.9626 -4.55889 6.76652 0
M  V30 91217 P 64.9996 -4.23843 7.83734 0
M  V30 91218 O 64.7796 -4.19407 9.29784 0
M  V30 91219 O 64.2096 -5.24426 7.09156 0
M  V30 91220 O 64.7496 -2.7935 7.20758 0
M  V30 91221 C 65.6896 -1.7299 7.50419 0
M  V30 91222 C 64.9596 -0.406376 7.57911 0
M  V30 91223 O 64.7496 0.0897726 6.21935 0
M  V30 91224 C 63.5596 -0.447224 8.1878 0
M  V30 91225 O 63.1696 0.825065 8.71101 0
M  V30 91226 C 62.6796 -0.783801 6.99623 0
M  V30 91227 C 63.3896 -0.0619192 5.85967 0
M  V30 91228 N 63.3396 -0.7859 4.56281 0
M  V30 91229 C 63.4196 -2.14308 4.31736 0
M  V30 91230 N 63.3396 -2.46106 3.05116 0
M  V30 91231 C 63.1996 -1.23422 2.4014 0
M  V30 91232 C 63.0696 -0.938381 1.02409 0
M  V30 91233 O 63.0496 -1.70876 0.0650402 0
M  V30 91234 N 62.9496 0.444647 0.805413 0
M  V30 91235 C 62.9496 1.40829 1.79435 0
M  V30 91236 N 62.8196 2.67213 1.38558 0
M  V30 91237 N 63.0796 1.12947 3.09005 0
M  V30 91238 C 63.1996 -0.204887 3.32369 0
M  V30 91239 H 66.1786 -1.93423 8.4679 0
M  V30 91240 H 66.4506 -1.68181 6.71046 0
M  V30 91241 H 65.5826 0.289041 8.15388 0
M  V30 91242 H 62.9276 0.927166 5.72947 0
M  V30 91243 H 62.6476 -1.87 6.82132 0
M  V30 91244 H 61.6566 -0.404009 7.13457 0
M  V30 91245 H 63.4906 -1.20612 8.97633 0
M  V30 91246 H 63.5396 -2.88284 5.10874 0
M  V30 91247 H 62.8576 0.755087 -0.140242 0
M  V30 91248 H 62.8206 3.43967 2.0729 0
M  V30 91249 H 62.7196 2.88096 0.380644 0
M  V30 91250 P 61.6197 1.17771 8.83182 0
M  V30 91251 O 61.3997 2.07206 9.98732 0
M  V30 91252 O 60.8297 -0.0743816 8.81969 0
M  V30 91253 O 61.3697 1.97678 7.474 0
M  V30 91254 C 62.3097 3.01133 7.08783 0
M  V30 91255 C 61.5797 4.1203 6.37546 0
M  V30 91256 O 61.3697 3.72887 4.9796 0
M  V30 91257 C 60.1797 4.45085 6.88694 0
M  V30 91258 O 59.7897 5.78836 6.56315 0
M  V30 91259 C 59.2997 3.47817 6.12078 0
M  V30 91260 C 60.0097 3.39414 4.77697 0
M  V30 91261 N 59.9597 2.04615 4.15333 0
M  V30 91262 C 59.8097 1.96929 2.77162 0
M  V30 91263 O 59.7197 3.02017 2.12006 0
M  V30 91264 N 59.7597 0.55485 2.24237 0
M  V30 91265 C 59.8597 -0.367808 2.9169 0
M  V30 91266 N 59.8097 -1.53426 2.29427 0
M  V30 91267 C 60.0097 -0.319148 4.33828 0
M  V30 91268 C 60.0597 0.920672 4.90433 0
M  V30 91269 H 62.7997 3.41209 7.98667 0
M  V30 91270 H 63.0697 2.5837 6.41742 0
M  V30 91271 H 62.2027 5.02718 6.42752 0
M  V30 91272 H 59.5477 4.11779 4.09026 0
M  V30 91273 H 59.2677 2.49661 6.61772 0
M  V30 91274 H 58.2767 3.86674 6.00946 0
M  V30 91275 H 60.1107 4.29991 7.97006 0
M  V30 91276 H 60.1827 1.00589 5.98303 0
M  V30 91277 H 60.0807 -1.22639 4.93799 0
M  V30 91278 H 59.6927 -1.56819 1.27167 0
M  V30 91279 H 59.8887 -2.41062 2.83063 0
M  V30 91280 P 58.2397 6.144 6.45285 0
M  V30 91281 O 58.0197 7.54673 6.86199 0
M  V30 91282 O 57.4497 5.12391 7.179 0
M  V30 91283 O 57.9897 5.99158 4.88404 0
M  V30 91284 C 58.9297 6.60234 3.96415 0
M  V30 91285 C 58.1997 7.08259 2.72856 0
M  V30 91286 O 57.9897 5.9427 1.83651 0
M  V30 91287 C 56.7997 7.64886 2.9555 0
M  V30 91288 O 56.4097 8.53963 1.90717 0
M  V30 91289 C 55.9197 6.4116 2.90739 0
M  V30 91290 C 56.6297 5.55375 1.86963 0
M  V30 91291 N 56.5797 4.09664 2.15742 0
M  V30 91292 H 59.4187 7.45574 4.45629 0
M  V30 91293 H 59.6907 5.86232 3.67314 0
M  V30 91294 H 58.8227 7.84412 2.24479 0
M  V30 91295 P 54.8597 8.7635 1.60911 0
M  V30 91296 O 54.6397 10.1388 1.11561 0
M  V30 91297 O 54.0697 8.36503 2.79617 0
M  V30 91298 O 54.6097 7.71806 0.42951 0
M  V30 91299 C 55.5497 7.67148 -0.673689 0
M  V30 91300 C 54.8197 7.33374 -1.95559 0
M  V30 91301 O 54.6097 5.88721 -2.00726 0
M  V30 91302 C 53.4197 7.92526 -2.10483 0
M  V30 91303 O 53.0297 8.02971 -3.47653 0
M  V30 91304 C 52.5397 6.89602 -1.41652 0
M  V30 91305 C 53.2497 5.59201 -1.75185 0
M  V30 91306 N 53.1997 4.58301 -0.657969 0
M  V30 91307 C 53.2797 4.79019 0.692603 0
M  V30 91308 N 53.2097 3.69736 1.38998 0
M  V30 91309 C 53.0597 2.70474 0.438135 0
M  V30 91310 C 52.9297 1.30327 0.538142 0
M  V30 91311 N 52.9197 0.64304 1.69192 0
M  V30 91312 N 52.8097 0.611027 -0.605183 0
M  V30 91313 C 52.8197 1.27002 -1.75953 0
M  V30 91314 N 52.9397 2.56038 -1.98546 0
M  V30 91315 C 53.0597 3.22681 -0.822541 0
M  V30 91316 H 56.0387 8.65116 -0.777161 0
M  V30 91317 H 56.3107 6.9022 -0.46725 0
M  V30 91318 H 55.4427 7.66548 -2.79458 0
M  V30 91319 H 52.7877 5.16165 -2.65183 0
M  V30 91320 H 52.5077 7.06433 -0.329384 0
M  V30 91321 H 51.5167 6.90926 -1.82021 0
M  V30 91322 H 53.3507 8.90873 -1.62657 0
M  V30 91323 H 53.3917 5.77785 1.13874 0
M  V30 91324 H 53.0107 1.15585 2.57991 0
M  V30 91325 H 52.8217 -0.382989 1.69835 0
M  V30 91326 H 52.7137 0.653331 -2.64449 0
M  V30 91327 P 51.4797 8.03563 -3.84925 0
M  V30 91328 O 51.2597 8.85821 -5.0569 0
M  V30 91329 O 50.6897 8.41101 -2.65469 0
M  V30 91330 O 51.2297 6.4965 -4.18908 0
M  V30 91331 C 52.1697 5.80886 -5.05289 0
M  V30 91332 C 51.4397 4.78366 -5.89277 0
M  V30 91333 O 51.2297 3.58302 -5.08433 0
M  V30 91334 C 50.0397 5.16748 -6.36559 0
M  V30 91335 O 49.6497 4.45271 -7.53232 0
M  V30 91336 C 49.1597 4.74572 -5.19863 0
M  V30 91337 C 49.8697 3.49373 -4.70338 0
M  V30 91338 N 49.8197 3.31704 -3.22876 0
M  V30 91339 C 49.6697 2.03326 -2.74871 0
M  V30 91340 O 49.5797 1.06486 -3.48076 0
M  V30 91341 N 49.6297 1.91838 -1.37456 0
M  V30 91342 C 49.7197 2.94295 -0.462035 0
M  V30 91343 O 49.6697 2.71763 0.752928 0
M  V30 91344 C 49.8697 4.25064 -1.05249 0
M  V30 91345 C 49.9797 5.39815 -0.095697 0
M  V30 91346 C 49.9197 4.40214 -2.39192 0
M  V30 91347 H 52.6607 6.54063 -5.71245 0
M  V30 91348 H 52.9297 5.30339 -4.43905 0
M  V30 91349 H 52.0627 4.55889 -6.76652 0
M  V30 91350 H 49.4077 2.6167 -5.17842 0
M  V30 91351 H 49.1287 5.52155 -4.41878 0
M  V30 91352 H 48.1367 4.51918 -5.53297 0
M  V30 91353 H 49.9707 6.25055 -6.55162 0
M  V30 91354 H 50.0417 5.39798 -2.81523 0
M  V30 91355 H 49.0117 5.91593 -0.0279582 0
M  V30 91356 H 50.7487 6.10038 -0.450573 0
M  V30 91357 H 50.2607 5.02007 0.89937 0
M  V30 91358 H 49.5247 0.995326 -1.00435 0
M  V30 91359 P 48.0997 4.23843 -7.83734 0
M  V30 91360 O 47.8797 4.19407 -9.29784 0
M  V30 91361 O 47.3097 5.24426 -7.09156 0
M  V30 91362 O 47.8497 2.7935 -7.20758 0
M  V30 91363 C 48.7897 1.7299 -7.50419 0
M  V30 91364 C 48.0597 0.406376 -7.57911 0
M  V30 91365 O 47.8497 -0.0897726 -6.21935 0
M  V30 91366 C 46.6597 0.447224 -8.1878 0
M  V30 91367 O 46.2697 -0.825065 -8.71101 0
M  V30 91368 C 45.7797 0.783801 -6.99623 0
M  V30 91369 C 46.4897 0.0619192 -5.85967 0
M  V30 91370 N 46.4397 0.7859 -4.56281 0
M  V30 91371 H 49.2787 1.93423 -8.4679 0
M  V30 91372 H 49.5507 1.68181 -6.71046 0
M  V30 91373 H 48.6827 -0.289041 -8.15388 0
M  V30 91374 P 44.7198 -1.17771 -8.83182 0
M  V30 91375 O 44.4998 -2.07206 -9.98732 0
M  V30 91376 O 43.9298 0.0743816 -8.81969 0
M  V30 91377 O 44.4698 -1.97652 -7.47304 0
M  V30 91378 C 45.4098 -3.01133 -7.08783 0
M  V30 91379 C 44.6798 -4.12613 -6.37049 0
M  V30 91380 O 44.4698 -3.72827 -4.97879 0
M  V30 91381 C 43.2798 -4.45085 -6.88694 0
M  V30 91382 O 42.8898 -5.7877 -6.5624 0
M  V30 91383 C 42.3998 -3.47817 -6.12078 0
M  V30 91384 C 43.1098 -3.39414 -4.77697 0
M  V30 91385 N 43.0598 -2.04615 -4.15333 0
M  V30 91386 H 45.8988 -3.41248 -7.98759 0
M  V30 91387 H 46.1708 -2.5837 -6.41742 0
M  V30 91388 H 45.3028 -5.02657 -6.42673 0
M  V30 91389 P 41.3398 -6.144 -6.45285 0
M  V30 91390 O 41.1198 -7.54673 -6.86199 0
M  V30 91391 O 40.5498 -5.12391 -7.179 0
M  V30 91392 O 41.0898 -5.99158 -4.88404 0
M  V30 91393 C 42.0298 -6.60234 -3.96415 0
M  V30 91394 C 41.2998 -7.08259 -2.72856 0
M  V30 91395 O 41.0898 -5.9427 -1.83651 0
M  V30 91396 C 39.8998 -7.64886 -2.9555 0
M  V30 91397 O 39.5098 -8.53963 -1.90717 0
M  V30 91398 C 39.0198 -6.4116 -2.90739 0
M  V30 91399 C 39.7298 -5.55375 -1.86963 0
M  V30 91400 N 39.6798 -4.09664 -2.15742 0
M  V30 91401 H 42.5188 -7.45574 -4.45629 0
M  V30 91402 H 42.7908 -5.86232 -3.67314 0
M  V30 91403 H 41.9228 -7.84412 -2.24479 0
M  V30 91404 P 37.9598 -8.7635 -1.60911 0
M  V30 91405 O 37.7398 -10.1388 -1.11561 0
M  V30 91406 O 37.1698 -8.36503 -2.79617 0
M  V30 91407 O 37.7098 -7.71806 -0.42951 0
M  V30 91408 C 38.6498 -7.67148 0.673689 0
M  V30 91409 C 37.9198 -7.33374 1.95559 0
M  V30 91410 O 37.7098 -5.88721 2.00726 0
M  V30 91411 C 36.5198 -7.92526 2.10483 0
M  V30 91412 O 36.1298 -8.02971 3.47653 0
M  V30 91413 C 35.6398 -6.89602 1.41652 0
M  V30 91414 C 36.3498 -5.59201 1.75185 0
M  V30 91415 N 36.2998 -4.58235 0.662552 0
M  V30 91416 H 39.1388 -8.65116 0.777161 0
M  V30 91417 H 39.4108 -6.90173 0.474152 0
M  V30 91418 H 38.5428 -7.66548 2.79458 0
M  V30 91419 P 34.5798 -8.03563 3.84925 0
M  V30 91420 O 34.3598 -8.85821 5.0569 0
M  V30 91421 O 33.7898 -8.41101 2.65469 0
M  V30 91422 O 34.3298 -6.4965 4.18908 0
M  V30 91423 C 35.2698 -5.81037 5.05421 0
M  V30 91424 C 34.5398 -4.78366 5.89277 0
M  V30 91425 O 34.3298 -3.58302 5.08433 0
M  V30 91426 C 33.1398 -5.17448 6.36119 0
M  V30 91427 O 32.7498 -4.45271 7.53232 0
M  V30 91428 C 32.2598 -4.74639 5.19936 0
M  V30 91429 C 32.9698 -3.49432 4.70418 0
M  V30 91430 N 32.9198 -3.32099 3.22613 0
M  V30 91431 H 35.7588 -6.54213 5.71376 0
M  V30 91432 H 36.0308 -5.30936 4.43503 0
M  V30 91433 H 35.1628 -4.55889 6.76652 0
M  V30 91434 H 32.5078 -2.61715 5.17932 0
M  V30 91435 H 32.2278 -5.52155 4.41878 0
M  V30 91436 H 31.2368 -4.51981 5.53374 0
M  V30 91437 H 33.0708 -6.25124 6.55234 0
M  V30 91438 P 31.1998 -4.23843 7.83734 0
M  V30 91439 O 30.9798 -4.19407 9.29784 0
M  V30 91440 O 30.4098 -5.24426 7.09156 0
M  V30 91441 O 30.9498 -2.7935 7.20758 0
M  V30 91442 C 31.8898 -1.7299 7.50419 0
M  V30 91443 C 31.1598 -0.406376 7.57911 0
M  V30 91444 O 30.9498 0.0897726 6.21935 0
M  V30 91445 C 29.7598 -0.447224 8.1878 0
M  V30 91446 O 29.3698 0.825065 8.71101 0
M  V30 91447 C 28.8798 -0.783801 6.99623 0
M  V30 91448 C 29.5898 -0.0619192 5.85967 0
M  V30 91449 N 29.5398 -0.7859 4.56281 0
M  V30 91450 H 32.3788 -1.93423 8.4679 0
M  V30 91451 H 32.6508 -1.68181 6.71046 0
M  V30 91452 H 31.7828 0.289041 8.15388 0
M  V30 91453 P 27.8199 1.17771 8.83182 0
M  V30 91454 O 27.5999 2.07206 9.98732 0
M  V30 91455 O 27.0299 -0.0743816 8.81969 0
M  V30 91456 O 27.5699 1.97652 7.47304 0
M  V30 91457 C 28.5099 3.01133 7.08783 0
M  V30 91458 C 27.7799 4.12613 6.37049 0
M  V30 91459 O 27.5699 3.72827 4.97879 0
M  V30 91460 C 26.3799 4.45085 6.88694 0
M  V30 91461 O 25.9899 5.7877 6.5624 0
M  V30 91462 C 25.4999 3.47817 6.12078 0
M  V30 91463 C 26.2099 3.39414 4.77697 0
M  V30 91464 N 26.1599 2.04615 4.15333 0
M  V30 91465 H 28.9989 3.41248 7.98759 0
M  V30 91466 H 29.2709 2.5837 6.41742 0
M  V30 91467 H 28.4029 5.02657 6.42673 0
M  V30 91468 P 24.4399 6.144 6.45285 0
M  V30 91469 O 24.2199 7.54673 6.86199 0
M  V30 91470 O 23.6499 5.12391 7.179 0
M  V30 91471 O 24.1899 5.99158 4.88404 0
M  V30 91472 C 25.1299 6.60234 3.96415 0
M  V30 91473 C 24.3999 7.08259 2.72856 0
M  V30 91474 O 24.1899 5.9427 1.83651 0
M  V30 91475 C 22.9999 7.64886 2.9555 0
M  V30 91476 O 22.6099 8.53963 1.90717 0
M  V30 91477 C 22.1199 6.4116 2.90739 0
M  V30 91478 C 22.8299 5.55375 1.86963 0
M  V30 91479 N 22.7799 4.09664 2.15742 0
M  V30 91480 H 25.6189 7.45574 4.45629 0
M  V30 91481 H 25.8909 5.86232 3.67314 0
M  V30 91482 H 25.0229 7.84412 2.24479 0
M  V30 91483 P 21.0599 8.7635 1.60911 0
M  V30 91484 O 20.8399 10.1388 1.11561 0
M  V30 91485 O 20.2699 8.36503 2.79617 0
M  V30 91486 O 20.8099 7.71806 0.42951 0
M  V30 91487 C 21.7499 7.67148 -0.673689 0
M  V30 91488 C 21.0199 7.33374 -1.95559 0
M  V30 91489 O 20.8099 5.88721 -2.00726 0
M  V30 91490 C 19.6199 7.92526 -2.10483 0
M  V30 91491 O 19.2299 8.02971 -3.47653 0
M  V30 91492 C 18.7399 6.89602 -1.41652 0
M  V30 91493 C 19.4499 5.59201 -1.75185 0
M  V30 91494 N 19.3999 4.58235 -0.662552 0
M  V30 91495 C 19.4799 4.7683 0.704049 0
M  V30 91496 N 19.3999 3.66233 1.39775 0
M  V30 91497 C 19.2599 2.66526 0.431739 0
M  V30 91498 C 19.1299 1.26394 0.575992 0
M  V30 91499 O 19.1099 0.589894 1.60503 0
M  V30 91500 N 19.0099 0.62859 -0.67177 0
M  V30 91501 C 19.0099 1.27134 -1.89385 0
M  V30 91502 N 18.8799 0.492035 -2.96951 0
M  V30 91503 N 19.1399 2.58978 -2.02907 0
M  V30 91504 C 19.2599 3.22433 -0.832218 0
M  V30 91505 H 22.2389 8.65116 -0.777161 0
M  V30 91506 H 22.5109 6.90173 -0.474152 0
M  V30 91507 H 21.6429 7.66548 -2.79458 0
M  V30 91508 H 18.9879 5.16254 -2.65229 0
M  V30 91509 H 18.7079 7.06532 -0.329431 0
M  V30 91510 H 17.7169 6.91023 -1.82047 0
M  V30 91511 H 19.5509 8.90971 -1.62675 0
M  V30 91512 H 19.5999 5.74954 1.16305 0
M  V30 91513 H 18.9179 -0.366713 -0.674793 0
M  V30 91514 H 18.8809 0.908532 -3.91188 0
M  V30 91515 H 18.7799 -0.528253 -2.85758 0
M  V30 91516 P 17.6799 8.03563 -3.84925 0
M  V30 91517 O 17.4599 8.85821 -5.0569 0
M  V30 91518 O 16.8899 8.41101 -2.65469 0
M  V30 91519 O 17.4299 6.4965 -4.18908 0
M  V30 91520 C 18.3699 5.81037 -5.05421 0
M  V30 91521 C 17.6399 4.78366 -5.89277 0
M  V30 91522 O 17.4299 3.58302 -5.08433 0
M  V30 91523 C 16.2399 5.17448 -6.36119 0
M  V30 91524 O 15.8499 4.45271 -7.53232 0
M  V30 91525 C 15.3599 4.74639 -5.19936 0
M  V30 91526 C 16.0699 3.49432 -4.70418 0
M  V30 91527 N 16.0199 3.31776 -3.22945 0
M  V30 91528 C 16.0999 4.27147 -2.23315 0
M  V30 91529 N 16.0199 3.78447 -1.02186 0
M  V30 91530 C 15.8799 2.41001 -1.21732 0
M  V30 91531 C 15.7499 1.36111 -0.27694 0
M  V30 91532 N 15.6299 0.113683 -0.912949 0
M  V30 91533 C 15.6299 -0.0846396 -2.27943 0
M  V30 91534 N 15.4999 -1.34737 -2.6916 0
M  V30 91535 N 15.7599 0.902521 -3.16379 0
M  V30 91536 C 15.8799 2.11937 -2.56849 0
M  V30 91537 H 18.8589 6.54213 -5.71376 0
M  V30 91538 H 19.1309 5.30492 -4.44033 0
M  V30 91539 H 18.2629 4.55889 -6.76652 0
M  V30 91540 P 14.2999 4.23843 -7.83734 0
M  V30 91541 O 14.0799 4.19407 -9.29784 0
M  V30 91542 O 13.5099 5.24426 -7.09156 0
M  V30 91543 O 14.0499 2.7935 -7.20758 0
M  V30 91544 C 14.9899 1.7299 -7.50419 0
M  V30 91545 C 14.2599 0.406376 -7.57911 0
M  V30 91546 O 14.0499 -0.0897726 -6.21935 0
M  V30 91547 C 12.8599 0.447224 -8.1878 0
M  V30 91548 O 12.4699 -0.825065 -8.71101 0
M  V30 91549 C 11.9799 0.783801 -6.99623 0
M  V30 91550 C 12.6899 0.0619192 -5.85967 0
M  V30 91551 N 12.6399 0.7859 -4.56281 0
M  V30 91552 H 15.4789 1.93423 -8.4679 0
M  V30 91553 H 15.7509 1.68181 -6.71046 0
M  V30 91554 H 14.8829 -0.289041 -8.15388 0
M  V30 91555 P 10.92 -1.17771 -8.83182 0
M  V30 91556 O 10.7 -2.07206 -9.98732 0
M  V30 91557 O 10.13 0.0743816 -8.81969 0
M  V30 91558 O 10.67 -1.97652 -7.47304 0
M  V30 91559 C 11.61 -3.01133 -7.08783 0
M  V30 91560 C 10.88 -4.12613 -6.37049 0
M  V30 91561 O 10.67 -3.72827 -4.97879 0
M  V30 91562 C 9.47996 -4.45085 -6.88694 0
M  V30 91563 O 9.08996 -5.7877 -6.5624 0
M  V30 91564 C 8.59996 -3.47817 -6.12078 0
M  V30 91565 C 9.30996 -3.39414 -4.77697 0
M  V30 91566 N 9.25996 -2.04615 -4.15333 0
M  V30 91567 H 12.099 -3.41248 -7.98759 0
M  V30 91568 H 12.371 -2.5837 -6.41742 0
M  V30 91569 H 11.503 -5.02657 -6.42673 0
M  V30 91570 P 7.53998 -6.144 -6.45285 0
M  V30 91571 O 7.31998 -7.54673 -6.86199 0
M  V30 91572 O 6.74998 -5.12391 -7.179 0
M  V30 91573 O 7.28998 -5.99158 -4.88404 0
M  V30 91574 C 8.22998 -6.60234 -3.96415 0
M  V30 91575 C 7.49998 -7.08259 -2.72856 0
M  V30 91576 O 7.28998 -5.9427 -1.83651 0
M  V30 91577 C 6.09998 -7.64886 -2.9555 0
M  V30 91578 O 5.70998 -8.53963 -1.90717 0
M  V30 91579 C 5.21998 -6.4116 -2.90739 0
M  V30 91580 C 5.92998 -5.55375 -1.86963 0
M  V30 91581 N 5.87998 -4.09448 -2.16152 0
M  V30 91582 H 8.71898 -7.45574 -4.45629 0
M  V30 91583 H 8.99098 -5.85864 -3.679 0
M  V30 91584 H 8.12298 -7.84412 -2.24479 0
M  V30 91585 H 5.46798 -5.73457 -0.888562 0
M  V30 91586 H 5.18798 -5.90877 -3.88583 0
M  V30 91587 H 4.19698 -6.6596 -2.58858 0
M  V30 91588 H 6.03098 -8.16339 -3.92049 0
M  V30 91589 P 4.16 -8.7635 -1.60911 0
M  V30 91590 O 3.94 -10.1388 -1.11561 0
M  V30 91591 O 3.37 -8.36503 -2.79617 0
M  V30 91592 O 3.91 -7.71806 -0.42951 0
M  V30 91593 C 4.85 -7.67148 0.673689 0
M  V30 91594 C 4.12 -7.33374 1.95559 0
M  V30 91595 O 3.91 -5.88721 2.00726 0
M  V30 91596 C 2.72 -7.92526 2.10483 0
M  V30 91597 O 2.33 -8.02971 3.47653 0
M  V30 91598 C 1.84 -6.89602 1.41652 0
M  V30 91599 C 2.55 -5.59201 1.75185 0
M  V30 91600 N 2.5 -4.58235 0.662552 0
M  V30 91601 H 5.339 -8.65116 0.777161 0
M  V30 91602 H 5.611 -6.90173 0.474152 0
M  V30 91603 H 4.743 -7.66548 2.79458 0
M  V30 91604 H 1.613 -8.66322 3.55694 0
M  V30 END ATOM
M  V30 BEGIN BOND
M  V30 END BOND
M  V30 END CTAB
M  END
$$$$
