drugbank_target|P00751 Complement factor B (DB01593; DB02459; DB04491; DB06503; DB14487)
 OpenBabel12092119583D

  0  0  0     0  0            999 V3000
M  V30 BEGIN CTAB
M  V30 COUNTS 11907 12045 0 0 0
M  V30 BEGIN ATOM
M  V30 1 H -0.908 1.98254 -0.117106 0
M  V30 2 N 0 1.576 0 0
M  V30 3 C 0.933 2.03868 1.02534 0
M  V30 4 C 1.911 0.928543 1.3348 0
M  V30 5 O 3.095 1.19667 1.45644 0
M  V30 6 C 0.222 2.43627 2.35294 0
M  V30 7 C -0.732 3.65373 2.2001 0
M  V30 8 S 0.101 5.13292 1.52614 0
M  V30 9 C 1.257 5.56322 2.86805 0
M  V30 10 H 1.49 2.90518 0.631377 0
M  V30 11 H -0.977 1.52953 0.210867 0
M  V30 12 H 0.981 2.67203 3.11629 0
M  V30 13 H -0.358 1.57376 2.7183 0
M  V30 14 H -1.165 3.90944 3.18086 0
M  V30 15 H -1.563 3.418 1.51819 0
M  V30 16 H 0.729 5.58782 3.83104 0
M  V30 17 H 1.672 6.56266 2.65933 0
M  V30 18 H 2.08 4.83886 2.90714 0
M  V30 19 N 1.4781 -0.272755 1.55222 0
M  V30 20 C 2.7261 -1.00234 1.75492 0
M  V30 21 C 3.0471 -1.8681 0.5592 0
M  V30 22 O 2.3171 -1.91215 -0.425882 0
M  V30 23 H 0.8971 -0.373076 0.647166 0
M  V30 24 H 3.5591 -0.296926 1.92625 0
M  V30 25 H 2.6551 -1.63913 2.65592 0
M  V30 26 N 2.9562 -1.48159 -0.537278 0
M  V30 27 C 4.1812 -1.59707 -1.32319 0
M  V30 28 C 4.6062 -0.254859 -1.86365 0
M  V30 29 O 3.9642 0.772378 -1.64024 0
M  V30 30 C 4.0122 -2.6412 -2.45505 0
M  V30 31 O 3.1162 -2.20774 -3.48328 0
M  V30 32 H 2.4572 -0.535791 -0.392204 0
M  V30 33 H 4.9872 -1.94092 -0.647268 0
M  V30 34 H 4.9972 -2.85166 -2.91795 0
M  V30 35 H 3.6722 -3.61567 -2.05528 0
M  V30 36 H 2.2492 -2.09911 -3.08207 0
M  V30 37 N 4.4343 0.785586 -1.36625 0
M  V30 38 C 5.3823 1.91978 -1.31329 0
M  V30 39 C 6.3763 1.68162 -0.204416 0
M  V30 40 O 7.5823 1.76122 -0.371645 0
M  V30 41 H 3.9573 0.631087 -0.408942 0
M  V30 42 H 5.9283 1.93562 -2.27104 0
M  V30 43 C 4.6773 3.29055 -1.12329 0
M  V30 44 H 4.0003 3.4795 -1.96903 0
M  V30 45 H 5.4403 4.08756 -1.12671 0
M  V30 46 C 3.8993 3.36461 0.171861 0
M  V30 47 O 4.4293 3.84576 1.16035 0
M  V30 48 N 2.6353 2.89782 0.217846 0
M  V30 49 H 2.1823 2.50819 -0.587183 0
M  V30 50 H 2.1403 2.95119 1.08408 0
M  V30 51 N 5.9124 1.20967 1.01018 0
M  V30 52 C 6.8424 0.988272 2.11555 0
M  V30 53 C 7.8234 -0.0849778 1.69888 0
M  V30 54 O 9.0084 0.0738202 1.9406 0
M  V30 55 C 6.1384 0.546528 3.42973 0
M  V30 56 C 5.0924 1.56375 3.9841 0
M  V30 57 C 4.4184 0.97842 5.25672 0
M  V30 58 C 5.7184 2.94922 4.31066 0
M  V30 59 H 7.4124 1.91276 2.30334 0
M  V30 60 H 4.9584 0.921073 1.1069 0
M  V30 61 H 6.9114 0.378839 4.19694 0
M  V30 62 H 5.6354 -0.413598 3.23971 0
M  V30 63 H 4.2944 1.71891 3.23804 0
M  V30 64 H 3.9424 0.0101688 5.02999 0
M  V30 65 H 3.6424 1.65784 5.63728 0
M  V30 66 H 5.1664 0.821939 6.05043 0
M  V30 67 H 6.5804 2.8288 4.9865 0
M  V30 68 H 4.9774 3.5983 4.80253 0
M  V30 69 H 6.0474 3.4616 3.39561 0
M  V30 70 N 7.3905 -1.2043 1.01659 0
M  V30 71 C 8.6155 -1.94318 0.724942 0
M  V30 72 C 9.0405 -1.74266 -0.708034 0
M  V30 73 O 8.3985 -1.03694 -1.48719 0
M  V30 74 C 8.4465 -3.44486 1.06591 0
M  V30 75 O 7.5505 -4.12017 0.177599 0
M  V30 76 H 6.8915 -0.60708 0.26898 0
M  V30 77 H 9.4215 -1.52861 1.35995 0
M  V30 78 H 9.4315 -3.95106 1.01762 0
M  V30 79 H 8.1065 -3.58404 2.10997 0
M  V30 80 H 6.6835 -3.71821 0.283421 0
M  V30 81 N 8.8686 -0.792821 -1.36206 0
M  V30 82 C 10.2796 -0.429513 -1.81692 0
M  V30 83 C 10.6306 1.04695 -1.65932 0
M  V30 84 O 9.7556 1.81256 -1.18218 0
M  V30 85 C 10.3506 -0.772831 -3.29868 0
M  V30 86 C 8.9096 -0.462307 -3.7355 0
M  V30 87 C 8.0566 -1.00569 -2.5842 0
M  V30 88 H 11.0076 -0.985672 -1.24379 0
M  V30 89 H 11.0286 -0.0651928 -3.80444 0
M  V30 90 H 10.5406 -1.84747 -3.41307 0
M  V30 91 H 8.6416 0.604158 -3.67669 0
M  V30 92 H 8.7546 -0.985299 -4.68859 0
M  V30 93 H 7.1186 -0.428734 -2.51066 0
M  V30 94 H 7.9016 -2.08616 -2.72643 0
M  V30 95 N 10.3467 1.47872 -0.545128 0
M  V30 96 C 11.2787 2.27869 0.246621 0
M  V30 97 C 12.2917 1.36282 0.890561 0
M  V30 98 O 13.4807 1.61207 0.766449 0
M  V30 99 C 10.5807 3.10159 1.36582 0
M  V30 100 C 9.7537 4.29627 0.820954 0
M  V30 101 C 8.8127 4.93607 1.82314 0
M  V30 102 O 7.8387 5.52366 1.37406 0
M  V30 103 N 9.0407 4.87211 3.15603 0
M  V30 104 H 11.8057 2.96459 -0.439539 0
M  V30 105 H 9.3667 1.57367 -0.380421 0
M  V30 106 H 11.3587 3.49829 2.03474 0
M  V30 107 H 9.9287 2.43891 1.9554 0
M  V30 108 H 9.1487 3.94192 -0.0244032 0
M  V30 109 H 10.4367 5.06928 0.436063 0
M  V30 110 H 9.8347 4.40651 3.54744 0
M  V30 111 H 8.3917 5.30937 3.78087 0
M  V30 112 N 11.8248 0.280983 1.55075 0
M  V30 113 C 12.7548 -0.597469 2.25727 0
M  V30 114 C 13.7358 -1.15417 1.24952 0
M  V30 115 O 14.9208 -1.18722 1.53684 0
M  V30 116 C 12.0508 -1.7789 2.98283 0
M  V30 117 C 11.0048 -1.35347 4.06036 0
M  V30 118 C 10.3308 -2.61846 4.66198 0
M  V30 119 C 11.6308 -0.499354 5.19907 0
M  V30 120 H 13.3248 -0.00824265 2.99399 0
M  V30 121 H 10.8708 -0.0025244 1.44 0
M  V30 122 H 12.8238 -2.39937 3.46422 0
M  V30 123 H 11.5478 -2.39405 2.22155 0
M  V30 124 H 10.2068 -0.756156 3.58717 0
M  V30 125 H 9.8548 -3.21632 3.86732 0
M  V30 126 H 9.5548 -2.3409 5.38958 0
M  V30 127 H 11.0788 -3.24732 5.1709 0
M  V30 128 H 12.4928 -1.02498 5.64063 0
M  V30 129 H 10.8898 -0.316424 5.99265 0
M  V30 130 H 11.9598 0.480459 4.82514 0
M  V30 131 N 13.3029 -1.57598 0.00835791 0
M  V30 132 C 14.5429 -1.92788 -0.679136 0
M  V30 133 C 14.9069 -0.883378 -1.70471 0
M  V30 134 O 16.1079 -1.12079 -2.44319 0
M  V30 135 C 14.3789 -3.32994 -1.29807 0
M  V30 136 S 15.9379 -3.90082 -2.00952 0
M  V30 137 H 12.7559 -0.67475 -0.224127 0
M  V30 138 H 15.3579 -1.95385 0.0670497 0
M  V30 139 H 14.0619 -4.06846 -0.538922 0
M  V30 140 H 13.5929 -3.33791 -2.082 0
M  V30 141 H 15.6079 -3.71834 -3.28563 0
M  V30 142 N 14.781 0.264519 -1.55364 0
M  V30 143 C 15.711 1.33121 -1.91836 0
M  V30 144 C 16.692 1.51101 -0.781192 0
M  V30 145 O 17.877 1.64003 -1.04003 0
M  V30 146 C 15.007 2.68921 -2.19769 0
M  V30 147 C 13.961 2.65661 -3.35571 0
M  V30 148 C 13.287 4.05093 -3.49004 0
M  V30 149 C 14.587 2.24187 -4.71739 0
M  V30 150 H 16.281 1.02844 -2.81182 0
M  V30 151 H 13.827 0.493286 -1.35287 0
M  V30 152 H 15.78 3.43663 -2.43872 0
M  V30 153 H 14.504 3.00799 -1.27231 0
M  V30 154 H 13.163 1.93377 -3.1145 0
M  V30 155 H 12.811 4.34206 -2.53917 0
M  V30 156 H 12.511 4.03804 -4.26868 0
M  V30 157 H 14.035 4.81561 -3.75408 0
M  V30 158 H 15.449 2.88654 -4.9533 0
M  V30 159 H 13.846 2.34044 -5.52579 0
M  V30 160 H 14.916 1.19327 -4.69988 0
M  V30 161 N 16.2591 1.48442 0.529413 0
M  V30 162 C 17.1921 1.57577 1.65059 0
M  V30 163 C 18.1701 0.426198 1.56915 0
M  V30 164 O 19.3541 0.637877 1.77379 0
M  V30 165 C 16.4811 1.5043 3.03461 0
M  V30 166 C 15.5271 2.70235 3.29962 0
M  V30 167 S 16.3601 4.32198 3.16172 0
M  V30 168 C 17.5161 4.2765 4.57019 0
M  V30 169 H 17.7491 2.52427 1.5706 0
M  V30 170 H 15.2821 1.36982 0.712417 0
M  V30 171 H 17.2401 1.46992 3.8328 0
M  V30 172 H 15.9011 0.569167 3.089 0
M  V30 173 H 15.0941 2.61374 4.30929 0
M  V30 174 H 14.6961 2.70938 2.57815 0
M  V30 175 H 16.9881 3.97618 5.48549 0
M  V30 176 H 17.9311 5.28797 4.70934 0
M  V30 177 H 18.3391 3.5811 4.36368 0
M  V30 178 N 17.7372 -0.778329 1.37039 0
M  V30 179 C 19.1482 -1.35421 1.28523 0
M  V30 180 C 19.4992 -1.96075 -0.0700901 0
M  V30 181 O 18.6242 -1.93352 -0.971801 0
M  V30 182 C 19.2192 -2.46211 2.32735 0
M  V30 183 C 17.7782 -2.99585 2.27873 0
M  V30 184 C 16.9252 -1.72748 2.16918 0
M  V30 185 H 19.8762 -0.5791 1.47757 0
M  V30 186 H 19.8972 -3.2552 1.9702 0
M  V30 187 H 19.4092 -2.02036 3.31365 0
M  V30 188 H 17.5102 -3.48152 1.32745 0
M  V30 189 H 17.6232 -3.55646 3.21018 0
M  V30 190 H 15.9872 -1.95416 1.63354 0
M  V30 191 H 16.7702 -1.30686 3.17452 0
M  V30 192 N 19.2153 -1.21501 -1.00376 0
M  V30 193 C 20.4623 -1.03299 -1.74171 0
M  V30 194 C 20.7903 0.433326 -1.89612 0
M  V30 195 O 20.0453 1.33779 -1.42834 0
M  V30 196 C 20.3443 -1.67673 -3.15627 0
M  V30 197 C 20.0103 -3.17533 -3.2013 0
M  V30 198 C 18.6723 -3.58427 -3.21067 0
M  V30 199 C 21.0243 -4.13504 -3.17275 0
M  V30 200 C 18.3523 -4.93794 -3.16835 0
M  V30 201 C 20.7043 -5.48834 -3.14585 0
M  V30 202 C 19.3683 -5.89123 -3.13831 0
M  V30 203 H 18.6383 -0.377999 -0.637336 0
M  V30 204 H 21.2853 -1.51111 -1.17634 0
M  V30 205 H 19.5903 -1.12158 -3.75404 0
M  V30 206 H 21.2873 -1.51091 -3.71446 0
M  V30 207 H 17.8773 -2.84965 -3.20145 0
M  V30 208 H 22.0613 -3.82936 -3.15711 0
M  V30 209 H 17.3173 -5.24255 -3.1459 0
M  V30 210 H 21.4913 -6.22934 -3.1133 0
M  V30 211 H 19.1183 -6.93984 -3.10307 0
M  V30 212 N 20.6934 1.19889 -1.02296 0
M  V30 213 C 21.9424 1.88743 -0.711257 0
M  V30 214 C 22.2554 1.80112 0.762817 0
M  V30 215 O 23.4614 2.44161 1.18733 0
M  V30 216 C 21.9174 3.38525 -1.22185 0
M  V30 217 C 21.5254 3.55727 -2.72328 0
M  V30 218 C 23.2694 4.12893 -0.985864 0
M  V30 219 C 21.1764 4.99369 -3.16835 0
M  V30 220 H 20.1064 0.706885 -0.262353 0
M  V30 221 H 22.7574 1.35586 -1.23648 0
M  V30 222 H 21.1394 3.91044 -0.624571 0
M  V30 223 H 22.3134 3.13564 -3.3766 0
M  V30 224 H 20.6284 2.94739 -2.9414 0
M  V30 225 H 23.2254 5.18813 -1.29374 0
M  V30 226 H 23.5684 4.16228 0.0775055 0
M  V30 227 H 24.1014 3.66494 -1.54684 0
M  V30 228 H 20.8404 5.01193 -4.22476 0
M  V30 229 H 20.3604 5.42317 -2.56228 0
M  V30 230 H 22.0394 5.67988 -3.09837 0
M  V30 231 N 22.1715 0.800033 1.35784 0
M  V30 232 C 23.1015 0.220184 2.3246 0
M  V30 233 C 24.0825 -0.65073 1.57161 0
M  V30 234 O 25.2675 -0.582359 1.85263 0
M  V30 235 C 22.3975 -0.637353 3.41402 0
M  V30 236 C 21.3515 0.134531 4.27789 0
M  V30 237 C 20.6775 -0.844285 5.27992 0
M  V30 238 C 21.9775 1.32979 5.05088 0
M  V30 239 H 23.6715 1.02787 2.81203 0
M  V30 240 H 21.2175 0.495717 1.35199 0
M  V30 241 H 23.1705 -1.05302 4.08031 0
M  V30 242 H 21.8945 -1.47785 2.91251 0
M  V30 243 H 20.5535 0.531296 3.6273 0
M  V30 244 H 20.2015 -1.68011 4.74111 0
M  V30 245 H 19.9015 -0.332184 5.8666 0
M  V30 246 H 21.4255 -1.2583 5.97494 0
M  V30 247 H 22.8395 0.98934 5.64699 0
M  V30 248 H 21.2365 1.77593 5.7322 0
M  V30 249 H 22.3065 2.11978 4.36111 0
M  V30 250 N 23.6496 -1.47581 0.552962 0
M  V30 251 C 24.8976 -2.02082 0.0272703 0
M  V30 252 C 25.2186 -1.4301 -1.32563 0
M  V30 253 O 24.4886 -0.603745 -1.86365 0
M  V30 254 H 23.0686 -0.746966 0.00709182 0
M  V30 255 H 25.7306 -1.81033 0.722008 0
M  V30 256 H 24.8266 -3.12034 -0.0639951 0
M  V30 257 N 25.1277 -0.289203 -1.54924 0
M  V30 258 C 26.0577 0.58549 -2.2604 0
M  V30 259 C 27.0387 1.14753 -1.25562 0
M  V30 260 O 28.2237 1.17906 -1.54311 0
M  V30 261 C 25.3537 1.76305 -2.99222 0
M  V30 262 C 24.3077 1.33191 -4.06748 0
M  V30 263 C 23.6337 2.5937 -4.6758 0
M  V30 264 C 24.9337 0.471775 -5.20165 0
M  V30 265 H 26.6277 -0.00763532 -2.99399 0
M  V30 266 H 24.1737 -0.00511229 -1.43999 0
M  V30 267 H 26.1267 2.38097 -3.47689 0
M  V30 268 H 24.8507 2.38223 -2.23422 0
M  V30 269 H 23.5097 0.737121 -3.59113 0
M  V30 270 H 23.1577 3.19576 -3.88433 0
M  V30 271 H 22.8577 2.31228 -5.40192 0
M  V30 272 H 24.3817 3.21985 -5.18804 0
M  V30 273 H 25.7957 0.995056 -5.64599 0
M  V30 274 H 24.1927 0.284639 -5.99425 0
M  V30 275 H 25.2627 -0.506041 -4.82252 0
M  V30 276 N 26.6058 1.57591 -0.0167156 0
M  V30 277 C 27.5358 2.12496 0.967858 0
M  V30 278 C 28.5168 1.03807 1.34752 0
M  V30 279 O 29.7018 1.31577 1.42833 0
M  V30 280 C 26.8318 2.64194 2.25431 0
M  V30 281 C 25.7858 3.77559 2.01576 0
M  V30 282 C 25.1118 4.15636 3.36379 0
M  V30 283 C 26.4118 5.04151 1.36489 0
M  V30 284 H 28.1058 2.95013 0.510643 0
M  V30 285 H 25.6518 1.41915 0.244181 0
M  V30 286 H 27.6048 3.01236 2.94678 0
M  V30 287 H 26.3288 1.78821 2.73296 0
M  V30 288 H 24.9878 3.40937 1.34751 0
M  V30 289 H 24.6358 3.27263 3.81979 0
M  V30 290 H 24.3358 4.92022 3.21229 0
M  V30 291 H 25.8598 4.5525 4.06915 0
M  V30 292 H 27.2738 5.38857 1.95718 0
M  V30 293 H 25.6708 5.85453 1.31776 0
M  V30 294 H 26.7408 4.83733 0.336219 0
M  V30 295 N 28.0839 -0.256276 1.55502 0
M  V30 296 C 29.3089 -1.00766 1.81276 0
M  V30 297 C 29.7339 -1.78524 0.59252 0
M  V30 298 O 29.0919 -1.75413 -0.45827 0
M  V30 299 C 29.1399 -1.92869 3.04687 0
M  V30 300 O 28.2439 -3.019 2.80945 0
M  V30 301 H 27.5849 -0.287224 0.598664 0
M  V30 302 H 30.1149 -0.280109 2.02674 0
M  V30 303 H 30.1249 -2.34511 3.33869 0
M  V30 304 H 28.7999 -1.35689 3.93143 0
M  V30 305 H 27.3769 -2.64454 2.62904 0
M  V30 306 N 29.562 -1.4872 -0.521534 0
M  V30 307 C 30.81 -1.56857 -1.27437 0
M  V30 308 C 31.131 -0.247982 -1.93417 0
M  V30 309 O 30.401 0.731151 -1.81744 0
M  V30 310 H 28.981 -0.577885 -0.473347 0
M  V30 311 H 31.643 -1.85233 -0.606205 0
M  V30 312 H 30.739 -2.35402 -2.0492 0
M  V30 313 N 31.0401 0.771051 -1.3745 0
M  V30 314 C 32.2881 1.52661 -1.32435 0
M  V30 315 C 32.6091 1.9479 0.0905024 0
M  V30 316 O 31.8791 1.66348 1.03466 0
M  V30 317 H 30.4591 0.566218 -0.487244 0
M  V30 318 H 33.1211 0.917636 -1.71946 0
M  V30 319 H 32.2171 2.42568 -1.96385 0
M  V30 320 N 32.5182 1.22032 0.997298 0
M  V30 321 C 33.7642 1.04376 1.73878 0
M  V30 322 C 34.0972 -0.420716 1.89588 0
M  V30 323 O 33.3722 -1.31202 1.43583 0
M  V30 324 C 33.6552 1.75047 3.14691 0
M  V30 325 C 33.5082 3.29062 3.06656 0
M  V30 326 C 34.8272 1.49928 4.13775 0
M  V30 327 H 31.9462 0.380578 0.631133 0
M  V30 328 H 34.5882 1.50312 1.16217 0
M  V30 329 H 32.7382 1.35996 3.63919 0
M  V30 330 H 34.4102 3.7753 2.65083 0
M  V30 331 H 32.6532 3.58967 2.43568 0
M  V30 332 H 33.3242 3.73683 4.06282 0
M  V30 333 H 35.8002 1.83842 3.73285 0
M  V30 334 H 34.6762 2.01878 5.10428 0
M  V30 335 H 34.9372 0.430929 4.39995 0
M  V30 336 N 33.9963 -1.19345 1.0293 0
M  V30 337 C 35.2243 -1.92997 0.745644 0
M  V30 338 C 35.6393 -1.75519 -0.695589 0
M  V30 339 O 34.9963 -1.07737 -1.47306 0
M  V30 340 C 35.0473 -3.44741 1.08792 0
M  V30 341 O 34.7683 -3.61658 2.47256 0
M  V30 342 C 36.2693 -4.35515 0.827129 0
M  V30 343 H 33.4893 -0.613042 0.272801 0
M  V30 344 H 36.0333 -1.51473 1.3739 0
M  V30 345 H 34.1883 -3.84097 0.504832 0
M  V30 346 H 34.6023 -4.55514 2.60015 0
M  V30 347 H 36.0763 -5.40589 1.11658 0
M  V30 348 H 36.5533 -4.38552 -0.238436 0
M  V30 349 H 37.1593 -4.01841 1.39297 0
M  V30 350 N 35.4744 -0.807222 -1.35358 0
M  V30 351 C 36.7024 -0.400377 -2.02989 0
M  V30 352 C 37.1174 0.988859 -1.60832 0
M  V30 353 O 36.4744 1.63729 -0.806175 0
M  V30 354 C 36.5254 -0.474867 -3.58368 0
M  V30 355 O 36.2464 -1.80933 -3.98992 0
M  V30 356 C 37.7474 -0.0609112 -4.43258 0
M  V30 357 H 34.9674 -0.162587 -0.651004 0
M  V30 358 H 37.5114 -1.09102 -1.72965 0
M  V30 359 H 35.6664 0.167534 -3.87038 0
M  V30 360 H 36.0804 -1.77256 -4.9364 0
M  V30 361 H 37.5544 -0.164145 -5.51756 0
M  V30 362 H 38.0314 0.993831 -4.27808 0
M  V30 363 H 38.6374 -0.676492 -4.19885 0
M  V30 364 N 36.9525 1.47285 -0.560781 0
M  V30 365 C 38.1805 2.06855 -0.0430262 0
M  V30 366 C 38.5955 1.41291 1.25229 0
M  V30 367 O 37.9525 0.510648 1.7521 0
M  V30 368 C 38.0035 3.61178 0.152518 0
M  V30 369 O 37.7245 4.24285 -1.0915 0
M  V30 370 C 39.2255 4.37624 0.707145 0
M  V30 371 H 36.4455 0.669319 -0.0474652 0
M  V30 372 H 38.9895 1.89237 -0.77521 0
M  V30 373 H 37.1445 3.78298 0.834843 0
M  V30 374 H 37.5585 5.16868 -0.891482 0
M  V30 375 H 39.0325 5.46271 0.793244 0
M  V30 376 H 39.5095 4.04152 1.71923 0
M  V30 377 H 40.1155 4.25257 0.0604027 0
M  V30 378 N 38.4306 0.297415 1.54768 0
M  V30 379 C 39.8416 -0.195947 1.85669 0
M  V30 380 C 40.1926 -1.53707 1.21937 0
M  V30 381 O 39.3176 -2.10164 0.515754 0
M  V30 382 C 39.9126 -0.362318 3.36857 0
M  V30 383 C 38.4716 -0.799901 3.67802 0
M  V30 384 C 37.6186 0.0938578 2.77141 0
M  V30 385 H 40.5696 0.518538 1.4999 0
M  V30 386 H 40.5906 -1.19745 3.61167 0
M  V30 387 H 40.1026 0.613921 3.83214 0
M  V30 388 H 38.2036 -1.78682 3.26961 0
M  V30 389 H 38.3166 -0.621773 4.75048 0
M  V30 390 H 36.6806 -0.426254 2.51108 0
M  V30 391 H 37.4636 1.06639 3.26318 0
M  V30 392 N 39.9087 -1.5758 0.0250728 0
M  V30 393 C 41.1547 -1.92746 -0.649648 0
M  V30 394 C 41.5097 -0.901588 -1.69968 0
M  V30 395 O 40.8027 0.0829251 -1.9142 0
M  V30 396 C 40.9967 -3.32421 -1.31268 0
M  V30 397 C 40.8257 -4.48499 -0.328394 0
M  V30 398 C 39.5957 -5.05251 0.070284 0
M  V30 399 C 41.7937 -5.12618 0.415665 0
M  V30 400 N 39.7757 -6.04851 1.05016 0
M  V30 401 C 41.1467 -6.0728 1.24943 0
M  V30 402 C 43.2017 -4.95612 0.476803 0
M  V30 403 C 41.9047 -6.86766 2.1388 0
M  V30 404 C 43.9307 -5.75703 1.3535 0
M  V30 405 C 43.2927 -6.69978 2.17504 0
M  V30 406 H 39.3917 -0.753231 -0.210159 0
M  V30 407 H 41.9757 -1.94486 0.0912999 0
M  V30 408 H 40.1467 -3.31508 -2.02379 0
M  V30 409 H 41.8787 -3.54946 -1.94411 0
M  V30 410 H 38.6337 -4.72628 -0.303323 0
M  V30 411 H 39.0577 -6.5934 1.53622 0
M  V30 412 H 43.6997 -4.22554 -0.144105 0
M  V30 413 H 41.4177 -7.59132 2.77027 0
M  V30 414 H 45.0037 -5.64579 1.40504 0
M  V30 415 H 43.8837 -7.30873 2.84244 0
M  V30 416 N 41.3868 0.248026 -1.55636 0
M  V30 417 C 42.6118 0.998028 -1.81808 0
M  V30 418 C 43.0368 1.78207 -0.601979 0
M  V30 419 O 42.3948 1.75653 0.448961 0
M  V30 420 C 42.4428 1.9125 -3.05705 0
M  V30 421 O 41.5468 3.00406 -2.82542 0
M  V30 422 H 40.8878 0.284045 -0.600179 0
M  V30 423 H 43.4178 0.269357 -2.02819 0
M  V30 424 H 43.4278 2.32737 -3.35108 0
M  V30 425 H 42.1028 1.33602 -3.93857 0
M  V30 426 H 40.6798 2.63056 -2.64303 0
M  V30 427 N 42.8649 1.48995 0.513639 0
M  V30 428 C 43.7949 1.67636 1.62544 0
M  V30 429 C 44.7759 0.525087 1.61793 0
M  V30 430 O 45.9609 0.759502 1.78732 0
M  V30 431 C 43.0909 1.73114 3.01079 0
M  V30 432 C 42.0449 2.87905 3.16693 0
M  V30 433 C 41.3709 2.78486 4.56453 0
M  V30 434 C 42.6709 4.29005 2.97913 0
M  V30 435 H 44.3649 2.60716 1.47198 0
M  V30 436 H 41.9109 1.25465 0.706714 0
M  V30 437 H 43.8639 1.84742 3.78746 0
M  V30 438 H 42.5879 0.766241 3.17484 0
M  V30 439 H 41.2469 2.75859 2.41448 0
M  V30 440 H 40.8949 1.7993 4.69717 0
M  V30 441 H 40.5949 3.55523 4.67843 0
M  V30 442 H 42.1189 2.92104 5.36197 0
M  V30 443 H 43.5329 4.41798 3.65359 0
M  V30 444 H 41.9299 5.07166 3.20785 0
M  V30 445 H 42.9999 4.44329 1.94165 0
M  V30 446 N 44.343 -0.763751 1.37857 0
M  V30 447 C 45.306 -1.85889 1.34081 0
M  V30 448 C 46.306 -1.58949 0.243277 0
M  V30 449 O 47.496 -1.66882 0.499589 0
M  V30 450 C 44.628 -3.23176 1.08489 0
M  V30 451 H 45.821 -1.90648 2.31502 0
M  V30 452 H 43.374 -0.964367 1.23003 0
M  V30 453 H 44.109 -3.24091 0.116318 0
M  V30 454 H 43.894 -3.44124 1.8794 0
M  V30 455 H 45.384 -4.03254 1.08517 0
M  V30 456 N 45.8211 -1.22559 -0.990812 0
M  V30 457 C 47.2371 -0.985996 -1.255 0
M  V30 458 C 47.4371 0.319173 -1.98956 0
M  V30 459 O 46.4931 1.04127 -2.3003 0
M  V30 460 C 47.8061 -2.18607 -2.06474 0
M  V30 461 C 49.3541 -2.22985 -2.19651 0
M  V30 462 C 49.8291 -3.4255 -3.04012 0
M  V30 463 N 51.3201 -3.42725 -3.11599 0
M  V30 464 C 52.0551 -4.31892 -3.7717 0
M  V30 465 N 51.5511 -5.31279 -4.44651 0
M  V30 466 N 53.3441 -4.19662 -3.73952 0
M  V30 467 H 45.4951 -2.06469 -0.49841 0
M  V30 468 H 47.7581 -0.904853 -0.282747 0
M  V30 469 H 47.4641 -3.13267 -1.59865 0
M  V30 470 H 47.3381 -2.18838 -3.07229 0
M  V30 471 H 49.7251 -1.28871 -2.65474 0
M  V30 472 H 49.8061 -2.26791 -1.18319 0
M  V30 473 H 49.4501 -4.36965 -2.58889 0
M  V30 474 H 49.3801 -3.35984 -4.0549 0
M  V30 475 H 51.8711 -2.70807 -2.63575 0
M  V30 476 H 52.1841 -5.95593 -4.92431 0
M  V30 477 H 50.5291 -5.3519 -4.43392 0
M  V30 478 H 53.7201 -3.41268 -3.20396 0
M  V30 479 H 53.8931 -4.89358 -4.24774 0
M  V30 480 N 47.2992 1.18797 -1.03562 0
M  V30 481 C 48.7102 1.70322 -0.764676 0
M  V30 482 C 49.0612 1.82708 0.714996 0
M  V30 483 O 48.1862 1.50299 1.55689 0
M  V30 484 C 48.7812 3.09356 -1.38145 0
M  V30 485 C 47.3402 3.58114 -1.15895 0
M  V30 486 C 46.4872 2.34798 -1.4753 0
M  V30 487 H 49.4382 1.03543 -1.20268 0
M  V30 488 H 49.4592 3.72378 -0.781977 0
M  V30 489 H 48.9712 3.00309 -2.45837 0
M  V30 490 H 47.0722 3.72464 -0.100544 0
M  V30 491 H 47.1852 4.4184 -1.8524 0
M  V30 492 H 45.5492 2.38464 -0.894829 0
M  V30 493 H 46.3322 2.28375 -2.56319 0
M  V30 494 N 48.7773 0.814389 1.34928 0
M  V30 495 C 49.7093 0.187834 2.28429 0
M  V30 496 C 50.7223 -0.617374 1.5064 0
M  V30 497 O 51.9113 -0.448454 1.72775 0
M  V30 498 C 49.0113 -0.755962 3.30361 0
M  V30 499 C 48.1843 0.00456686 4.374 0
M  V30 500 C 47.2433 -0.858876 5.19143 0
M  V30 501 O 46.2693 -0.306968 5.68372 0
M  V30 502 N 47.4713 -2.17988 5.38016 0
M  V30 503 H 50.2363 0.991105 2.82838 0
M  V30 504 H 47.7973 0.670561 1.4736 0
M  V30 505 H 49.7893 -1.338 3.81942 0
M  V30 506 H 48.3593 -1.46001 2.7641 0
M  V30 507 H 47.5793 0.767865 3.86649 0
M  V30 508 H 48.8673 0.528422 5.06049 0
M  V30 509 H 48.2653 -2.65212 4.99679 0
M  V30 510 H 46.8223 -2.71098 5.92747 0
M  V30 511 N 50.2554 -1.46986 0.568584 0
M  V30 512 C 51.5034 -2.02041 0.0487022 0
M  V30 513 C 51.8244 -1.44408 -1.31039 0
M  V30 514 O 51.0944 -0.623477 -1.85714 0
M  V30 515 H 49.6744 -0.746849 0.015014 0
M  V30 516 H 52.3364 -1.80257 0.741168 0
M  V30 517 H 51.4324 -3.12085 -0.0308961 0
M  V30 518 N 51.7335 -0.305618 -1.54608 0
M  V30 519 C 52.9585 0.307562 -2.05107 0
M  V30 520 C 53.3835 1.46385 -1.18123 0
M  V30 521 O 52.7415 1.8034 -0.186324 0
M  V30 522 C 52.7895 0.73704 -3.52987 0
M  V30 523 O 51.8935 1.84134 -3.6901 0
M  V30 524 H 51.2345 0.0589143 -0.661381 0
M  V30 525 H 53.7645 -0.448807 -1.99617 0
M  V30 526 H 53.7745 1.02459 -3.94925 0
M  V30 527 H 52.4495 -0.108773 -4.15758 0
M  V30 528 H 51.0265 1.55398 -3.38978 0
M  V30 529 N 53.2116 1.57565 -0.0334293 0
M  V30 530 C 54.4516 1.93844 0.648379 0
M  V30 531 C 54.8156 0.910387 1.69044 0
M  V30 532 O 56.0166 1.15952 2.42505 0
M  V30 533 C 54.2876 3.35017 1.24492 0
M  V30 534 S 55.8466 3.93229 1.94721 0
M  V30 535 H 52.6646 0.678231 0.213364 0
M  V30 536 H 55.2666 1.95254 -0.0981253 0
M  V30 537 H 53.9706 4.07652 0.474128 0
M  V30 538 H 53.5016 3.37061 2.02864 0
M  V30 539 H 55.5166 3.77014 3.22606 0
M  V30 540 N 54.6897 -0.239769 1.55765 0
M  V30 541 C 55.9147 -0.988373 1.82335 0
M  V30 542 C 56.3397 -1.77886 0.611421 0
M  V30 543 O 55.6977 -1.75889 -0.439639 0
M  V30 544 C 55.7457 -1.89627 3.06715 0
M  V30 545 O 54.8497 -2.98904 2.84131 0
M  V30 546 H 54.1907 -0.280858 0.601677 0
M  V30 547 H 56.7207 -0.258597 2.02959 0
M  V30 548 H 56.7307 -2.30957 3.36338 0
M  V30 549 H 55.4057 -1.31511 3.9456 0
M  V30 550 H 53.9827 -2.61651 2.65694 0
M  V30 551 N 56.1678 -1.49265 -0.50573 0
M  V30 552 C 57.0978 -1.68495 -1.61653 0
M  V30 553 C 58.0788 -0.53366 -1.61512 0
M  V30 554 O 59.2638 -0.76897 -1.78327 0
M  V30 555 C 56.3938 -1.74709 -3.00157 0
M  V30 556 C 55.3478 -2.89581 -3.15162 0
M  V30 557 C 54.6738 -2.80903 -4.5497 0
M  V30 558 C 55.9738 -4.30578 -2.95634 0
M  V30 559 H 57.6678 -2.61493 -1.45814 0
M  V30 560 H 55.2138 -1.25838 -0.70005 0
M  V30 561 H 57.1668 -1.86748 -3.77761 0
M  V30 562 H 55.8908 -0.783067 -3.17074 0
M  V30 563 H 54.5498 -2.77136 -2.39982 0
M  V30 564 H 54.1978 -1.82419 -4.68756 0
M  V30 565 H 53.8978 -3.57999 -4.65951 0
M  V30 566 H 55.4218 -2.94944 -5.34641 0
M  V30 567 H 56.8358 -4.4373 -3.63011 0
M  V30 568 H 55.2328 -5.0886 -3.18091 0
M  V30 569 H 56.3028 -4.45352 -1.91806 0
M  V30 570 N 57.6459 0.756429 -1.3826 0
M  V30 571 C 58.5559 1.9009 -1.37488 0
M  V30 572 C 59.5719 1.71855 -0.272366 0
M  V30 573 O 60.7479 1.94827 -0.510318 0
M  V30 574 C 57.8129 3.25421 -1.19592 0
M  V30 575 C 56.8739 3.56202 -2.39622 0
M  V30 576 C 56.1069 4.85075 -2.2257 0
M  V30 577 O 56.3299 5.57246 -1.21793 0
M  V30 578 O 55.2639 5.15269 -3.11098 0
M  V30 579 H 59.0899 1.93695 -2.33914 0
M  V30 580 H 56.6749 0.901313 -1.1915 0
M  V30 581 H 58.5569 4.06337 -1.11661 0
M  V30 582 H 57.2319 3.22634 -0.262486 0
M  V30 583 H 56.1389 2.75458 -2.53128 0
M  V30 584 H 57.4719 3.63747 -3.31586 0
M  V30 585 N 59.124 1.23083 0.984299 0
M  V30 586 C 60.372 1.05848 1.72165 0
M  V30 587 C 60.693 -0.406049 1.90726 0
M  V30 588 O 59.963 -1.29139 1.47309 0
M  V30 589 H 58.543 0.388685 0.637913 0
M  V30 590 H 61.205 1.54736 1.18503 0
M  V30 591 H 60.301 1.54327 2.71274 0
M  V30 592 N 60.6021 -1.18246 1.0419 0
M  V30 593 C 61.8481 -1.88536 0.747122 0
M  V30 594 C 62.1811 -1.80223 -0.723409 0
M  V30 595 O 61.4561 -1.20337 -1.52804 0
M  V30 596 C 61.7391 -3.38968 1.21544 0
M  V30 597 C 61.5921 -3.56084 2.74816 0
M  V30 598 C 62.9111 -4.32648 0.806482 0
M  V30 599 H 60.0301 -0.684619 0.272883 0
M  V30 600 H 62.6721 -1.39113 1.29413 0
M  V30 601 H 60.8221 -3.8119 0.750081 0
M  V30 602 H 62.4941 -3.22946 3.29399 0
M  V30 603 H 60.7371 -2.98699 3.14582 0
M  V30 604 H 61.4081 -4.61639 3.02644 0
M  V30 605 H 63.8841 -3.98211 1.20695 0
M  V30 606 H 62.7601 -5.36462 1.1619 0
M  V30 607 H 63.0211 -4.41146 -0.29029 0
M  V30 608 N 62.0802 -0.821533 -1.34494 0
M  V30 609 C 62.9902 -0.244355 -2.33324 0
M  V30 610 C 64.0062 0.620527 -1.62559 0
M  V30 611 O 65.1822 0.528754 -1.94335 0
M  V30 612 C 62.2472 0.585368 -3.41723 0
M  V30 613 C 61.3082 -0.301752 -4.28238 0
M  V30 614 C 60.5412 0.488466 -5.3146 0
M  V30 615 O 60.7642 1.72186 -5.4379 0
M  V30 616 O 59.6982 -0.12848 -6.01763 0
M  V30 617 H 63.5242 -1.06231 -2.84515 0
M  V30 618 H 61.1092 -0.583645 -1.37528 0
M  V30 619 H 62.9912 1.05747 -4.07916 0
M  V30 620 H 61.6662 1.38068 -2.92778 0
M  V30 621 H 60.5732 -0.821315 -3.64973 0
M  V30 622 H 61.9062 -1.06138 -4.8062 0
M  V30 623 N 63.5583 1.46682 -0.576371 0
M  V30 624 C 64.8073 2.01619 -0.0572825 0
M  V30 625 C 65.1203 1.45417 1.30818 0
M  V30 626 O 66.3263 1.92133 1.91825 0
M  V30 627 C 64.7823 3.59863 -0.0518371 0
M  V30 628 C 64.3903 4.25059 -1.41523 0
M  V30 629 C 66.1343 4.2248 0.413639 0
M  V30 630 C 64.0413 5.75364 -1.36785 0
M  V30 631 H 62.9713 0.753794 -0.0176448 0
M  V30 632 H 65.6223 1.68481 -0.727076 0
M  V30 633 H 64.0043 3.90048 0.683994 0
M  V30 634 H 65.1783 4.06491 -2.17029 0
M  V30 635 H 63.4933 3.7451 -1.8202 0
M  V30 636 H 66.0903 5.3265 0.467779 0
M  V30 637 H 66.4333 3.90976 1.42982 0
M  V30 638 H 66.9663 3.96897 -0.267929 0
M  V30 639 H 63.7053 6.11518 -2.36063 0
M  V30 640 H 63.2253 5.96214 -0.654895 0
M  V30 641 H 64.9043 6.37955 -1.07805 0
M  V30 642 N 65.0364 0.313813 1.54444 0
M  V30 643 C 65.9834 -0.55655 2.23989 0
M  V30 644 C 66.9534 -1.11943 1.22711 0
M  V30 645 O 68.1384 -1.16158 1.51367 0
M  V30 646 C 65.2784 -1.71635 2.99392 0
M  V30 647 C 64.3914 -1.18364 4.15468 0
M  V30 648 C 63.5264 -2.30834 4.78424 0
M  V30 649 C 62.5654 -1.74762 5.86622 0
M  V30 650 N 61.7024 -2.80855 6.43479 0
M  V30 651 H 66.5424 0.0430893 2.97969 0
M  V30 652 H 64.0794 0.0330359 1.47063 0
M  V30 653 H 66.0374 -2.39868 3.41349 0
M  V30 654 H 64.6674 -2.28742 2.27765 0
M  V30 655 H 63.7194 -0.393163 3.78363 0
M  V30 656 H 65.0314 -0.733262 4.93381 0
M  V30 657 H 64.1854 -3.0699 5.23299 0
M  V30 658 H 62.9244 -2.79204 3.99871 0
M  V30 659 H 61.9294 -0.970995 5.41158 0
M  V30 660 H 63.1544 -1.2728 6.67066 0
M  V30 661 H 61.1004 -3.28535 5.67804 0
M  V30 662 H 61.0174 -2.40351 7.16776 0
M  V30 663 H 62.2854 -3.5687 6.93011 0
M  V30 664 N 66.5145 -1.57545 0.0417849 0
M  V30 665 C 67.7625 -1.91937 -0.632829 0
M  V30 666 C 68.0835 -0.919978 -1.71934 0
M  V30 667 O 67.3535 0.0366064 -1.95866 0
M  V30 668 H 65.9335 -0.708493 -0.236742 0
M  V30 669 H 68.5955 -1.9468 0.0925745 0
M  V30 670 H 67.6915 -2.92912 -1.07746 0
M  V30 671 N 67.9926 0.231505 -1.5589 0
M  V30 672 C 69.2406 0.955461 -1.78088 0
M  V30 673 C 69.5616 1.85262 -0.608533 0
M  V30 674 O 68.8316 1.92277 0.375035 0
M  V30 675 H 67.4116 0.355787 -0.656829 0
M  V30 676 H 70.0736 0.245751 -1.93344 0
M  V30 677 H 69.1696 1.56814 -2.69844 0
M  V30 678 N 69.4707 1.49531 0.497807 0
M  V30 679 C 70.6957 1.63159 1.28039 0
M  V30 680 C 71.1207 0.30418 1.85624 0
M  V30 681 O 70.4787 -0.728618 1.66015 0
M  V30 682 C 70.5267 2.70537 2.38416 0
M  V30 683 O 69.6307 2.29931 3.42353 0
M  V30 684 H 68.9717 0.546001 0.377861 0
M  V30 685 H 71.5017 1.9574 0.59558 0
M  V30 686 H 71.5117 2.92802 2.84132 0
M  V30 687 H 70.1867 3.6689 1.95869 0
M  V30 688 H 68.7637 2.18009 3.02533 0
M  V30 689 N 70.9488 -0.749086 1.3866 0
M  V30 690 C 72.1958 -1.50833 1.35114 0
M  V30 691 C 72.5238 -1.94415 -0.0574049 0
M  V30 692 O 71.7788 -1.66065 -1.03541 0
M  V30 693 C 72.0778 -2.7712 2.25697 0
M  V30 694 C 71.7438 -2.52477 3.73585 0
M  V30 695 C 70.4058 -2.45466 4.13884 0
M  V30 696 C 72.7578 -2.31066 4.67181 0
M  V30 697 C 70.0858 -2.15064 5.45861 0
M  V30 698 C 72.4378 -2.02183 5.9942 0
M  V30 699 C 71.1018 -1.93631 6.38798 0
M  V30 700 H 70.3718 -0.551936 0.494416 0
M  V30 701 H 73.0188 -0.860979 1.71054 0
M  V30 702 H 71.3238 -3.46528 1.82827 0
M  V30 703 H 73.0208 -3.35096 2.20254 0
M  V30 704 H 69.6108 -2.58807 3.41638 0
M  V30 705 H 73.7948 -2.35459 4.3689 0
M  V30 706 H 69.0508 -2.06954 5.75308 0
M  V30 707 H 73.2248 -1.8462 6.71482 0
M  V30 708 H 70.8518 -1.69839 7.40985 0
M  V30 709 N 72.4269 -1.23603 -0.977757 0
M  V30 710 C 73.8429 -0.999251 -1.24447 0
M  V30 711 C 74.0429 0.298053 -1.99283 0
M  V30 712 O 73.0989 1.01681 -2.31122 0
M  V30 713 C 74.4119 -2.20784 -2.04144 0
M  V30 714 C 75.9599 -2.25303 -2.17273 0
M  V30 715 C 76.4349 -3.45755 -3.00362 0
M  V30 716 N 77.9259 -3.4601 -3.07947 0
M  V30 717 C 78.6609 -4.35868 -3.72568 0
M  V30 718 N 78.1569 -5.35966 -4.38991 0
M  V30 719 N 79.9499 -4.23605 -3.6948 0
M  V30 720 H 72.1009 -2.06986 -0.476483 0
M  V30 721 H 74.3639 -0.907801 -0.273134 0
M  V30 722 H 74.0699 -3.14945 -1.56533 0
M  V30 723 H 73.9439 -2.22085 -3.04891 0
M  V30 724 H 76.3309 -1.3168 -2.64092 0
M  V30 725 H 76.4119 -2.28033 -1.15907 0
M  V30 726 H 76.0559 -4.39687 -2.5424 0
M  V30 727 H 75.9859 -3.40266 -4.01904 0
M  V30 728 H 78.4769 -2.73588 -2.60688 0
M  V30 729 H 78.7899 -6.00783 -4.86086 0
M  V30 730 H 77.1349 -5.39863 -4.37691 0
M  V30 731 H 80.3259 -3.44647 -3.16759 0
M  V30 732 H 80.4989 -4.93836 -4.1956 0
M  V30 733 N 73.905 1.17692 -1.04816 0
M  V30 734 C 74.835 2.23777 -0.666791 0
M  V30 735 C 75.816 1.66796 0.33361 0
M  V30 736 O 77.001 1.93039 0.212042 0
M  V30 737 C 74.131 3.47281 -0.0367933 0
M  V30 738 C 73.085 4.17059 -0.961546 0
M  V30 739 C 72.411 5.34342 -0.195626 0
M  V30 740 C 73.711 4.69713 -2.28402 0
M  V30 741 H 75.405 2.55933 -1.55367 0
M  V30 742 H 72.951 1.23019 -0.748484 0
M  V30 743 H 74.904 4.20706 0.241775 0
M  V30 744 H 73.628 3.14381 0.885004 0
M  V30 745 H 72.287 3.45541 -1.22462 0
M  V30 746 H 71.935 4.97692 0.728816 0
M  V30 747 H 71.635 5.81966 -0.811775 0
M  V30 748 H 73.159 6.10553 0.0757473 0
M  V30 749 H 74.573 5.34794 -2.06563 0
M  V30 750 H 72.97 5.279 -2.8538 0
M  V30 751 H 74.04 3.86726 -2.92525 0
M  V30 752 N 75.3831 0.828654 1.34056 0
M  V30 753 C 76.3131 0.269443 2.3194 0
M  V30 754 C 77.2941 -0.617247 1.58506 0
M  V30 755 O 78.4791 -0.542931 1.86456 0
M  V30 756 C 75.6091 -0.564793 3.42677 0
M  V30 757 C 74.5631 0.225241 4.27407 0
M  V30 758 C 73.8891 -0.7321 5.29664 0
M  V30 759 C 75.1891 1.43663 5.02154 0
M  V30 760 H 76.8831 1.08728 2.7896 0
M  V30 761 H 74.4291 0.524283 1.34117 0
M  V30 762 H 76.3821 -0.966233 4.10173 0
M  V30 763 H 75.1061 -1.41574 2.9432 0
M  V30 764 H 73.7651 0.608117 3.61521 0
M  V30 765 H 73.4131 -1.57916 4.77568 0
M  V30 766 H 73.1131 -0.20767 5.87233 0
M  V30 767 H 74.6371 -1.13128 6.00029 0
M  V30 768 H 76.0511 1.1089 5.62473 0
M  V30 769 H 74.4481 1.89711 5.69324 0
M  V30 770 H 75.5181 2.21181 4.31517 0
M  V30 771 N 76.8612 -1.46375 0.584142 0
M  V30 772 C 77.7932 -2.28443 -0.186119 0
M  V30 773 C 78.8062 -1.38596 -0.854115 0
M  V30 774 O 79.9952 -1.63183 -0.723438 0
M  V30 775 C 77.0952 -3.13671 -1.28311 0
M  V30 776 C 76.2682 -4.31652 -0.706758 0
M  V30 777 C 75.3272 -4.98267 -1.69163 0
M  V30 778 O 74.3532 -5.55815 -1.22712 0
M  V30 779 N 75.5552 -4.95408 -3.02575 0
M  V30 780 H 78.3202 -2.9519 0.517986 0
M  V30 781 H 75.8812 -1.56303 0.42201 0
M  V30 782 H 77.8732 -3.55101 -1.94128 0
M  V30 783 H 76.4432 -2.48989 -1.89005 0
M  V30 784 H 75.6632 -3.93989 0.128908 0
M  V30 785 H 76.9512 -5.07906 -0.301506 0
M  V30 786 H 76.3492 -4.49902 -3.42936 0
M  V30 787 H 74.9062 -5.40774 -3.63877 0
M  V30 788 N 78.3393 -0.321999 -1.54275 0
M  V30 789 C 79.2493 0.553631 -2.27974 0
M  V30 790 C 80.2653 1.13054 -1.32268 0
M  V30 791 O 81.4413 1.15084 -1.6528 0
M  V30 792 C 78.5063 1.69927 -3.02201 0
M  V30 793 C 77.5673 1.15433 -4.1349 0
M  V30 794 C 76.8003 2.24537 -4.84168 0
M  V30 795 O 77.0233 3.44852 -4.5435 0
M  V30 796 O 75.9573 1.90044 -5.7111 0
M  V30 797 H 79.7833 -0.0448345 -3.03667 0
M  V30 798 H 77.3683 -0.0877418 -1.49142 0
M  V30 799 H 79.2503 2.3663 -3.48689 0
M  V30 800 H 77.9253 2.28395 -2.29385 0
M  V30 801 H 76.8323 0.452436 -3.71354 0
M  V30 802 H 78.1653 0.614805 -4.88345 0
M  V30 803 N 79.8174 1.5752 -0.0501392 0
M  V30 804 C 81.0654 1.9227 0.622642 0
M  V30 805 C 81.3864 0.929083 1.71444 0
M  V30 806 O 80.6564 -0.0262186 1.95882 0
M  V30 807 H 79.2364 0.709739 0.232981 0
M  V30 808 H 81.8984 1.94628 -0.102898 0
M  V30 809 H 80.9944 2.93479 1.06191 0
M  V30 810 N 81.2955 -0.223234 1.56011 0
M  V30 811 C 82.2275 -1.30006 1.88762 0
M  V30 812 C 83.2405 -1.43129 0.775746 0
M  V30 813 O 84.4295 -1.44057 1.05403 0
M  V30 814 C 81.5295 -2.67589 2.07965 0
M  V30 815 C 80.7025 -2.76434 3.38973 0
M  V30 816 C 79.7615 -3.95019 3.47629 0
M  V30 817 O 78.7875 -3.83436 4.20672 0
M  V30 818 N 79.9895 -5.09249 2.78649 0
M  V30 819 H 82.7545 -1.02238 2.81722 0
M  V30 820 H 80.3155 -0.413278 1.56536 0
M  V30 821 H 82.3075 -3.45297 2.11073 0
M  V30 822 H 80.8775 -2.87964 1.21638 0
M  V30 823 H 80.0975 -1.85216 3.47978 0
M  V30 824 H 81.3855 -2.79313 4.25278 0
M  V30 825 H 80.7835 -5.21556 2.19081 0
M  V30 826 H 79.3405 -5.85007 2.8742 0
M  V30 827 N 82.7736 -1.49793 -0.48987 0
M  V30 828 C 83.7366 -1.66752 -1.57246 0
M  V30 829 C 84.7366 -0.538867 -1.51502 0
M  V30 830 O 85.9266 -0.805545 -1.54456 0
M  V30 831 C 83.0586 -1.67528 -2.96896 0
M  V30 832 H 84.2516 -2.63321 -1.43534 0
M  V30 833 H 81.8046 -1.38992 -0.714914 0
M  V30 834 H 82.5396 -0.725837 -3.16073 0
M  V30 835 H 82.3246 -2.49504 -3.02473 0
M  V30 836 H 83.8146 -1.82667 -3.7553 0
M  V30 837 N 84.2517 0.741722 -1.39055 0
M  V30 838 C 85.1817 1.869 -1.39966 0
M  V30 839 C 86.1627 1.6804 -0.26392 0
M  V30 840 O 87.3477 1.88458 -0.468755 0
M  V30 841 C 84.4777 3.24572 -1.23574 0
M  V30 842 C 83.4317 3.58056 -2.34477 0
M  V30 843 C 82.7577 4.94593 -2.0318 0
M  V30 844 C 84.0577 3.61716 -3.76774 0
M  V30 845 H 85.7517 1.86395 -2.34302 0
M  V30 846 H 83.2977 0.895361 -1.1278 0
M  V30 847 H 85.2507 4.031 -1.22834 0
M  V30 848 H 83.9747 3.25587 -0.257045 0
M  V30 849 H 82.6337 2.81854 -2.34423 0
M  V30 850 H 82.2817 4.92181 -1.03765 0
M  V30 851 H 81.9817 5.17964 -2.77465 0
M  V30 852 H 83.5057 5.75486 -2.04079 0
M  V30 853 H 84.9197 4.30335 -3.78794 0
M  V30 854 H 83.3167 3.96603 -4.50362 0
M  V30 855 H 84.3867 2.61672 -4.08235 0
M  V30 856 N 85.7298 1.2412 0.971189 0
M  V30 857 C 86.6398 1.04747 2.09917 0
M  V30 858 C 87.6558 -0.0107162 1.73997 0
M  V30 859 O 88.8318 0.186714 2.00533 0
M  V30 860 C 85.8968 0.650828 3.40537 0
M  V30 861 C 84.9578 1.7851 3.90426 0
M  V30 862 C 84.1908 1.40729 5.14812 0
M  V30 863 O 84.4138 0.29557 5.69634 0
M  V30 864 O 83.3478 2.23168 5.58999 0
M  V30 865 H 87.1738 1.99304 2.29154 0
M  V30 866 H 84.7588 1.02908 1.08307 0
M  V30 867 H 86.6408 0.440992 4.19086 0
M  V30 868 H 85.3158 -0.265649 3.22608 0
M  V30 869 H 84.2228 2.04966 3.12953 0
M  V30 870 H 85.5558 2.68023 4.12825 0
M  V30 871 N 87.2079 -1.17134 1.05439 0
M  V30 872 C 88.4379 -1.91094 0.785274 0
M  V30 873 C 88.8459 -1.77198 -0.663142 0
M  V30 874 O 88.1889 -1.10835 -1.46497 0
M  V30 875 C 88.2509 -3.42594 1.08949 0
M  V30 876 C 87.9149 -3.80274 2.53458 0
M  V30 877 C 88.9119 -3.82912 3.51673 0
M  V30 878 C 86.5969 -4.11162 2.88532 0
M  V30 879 C 88.5909 -4.15913 4.83006 0
M  V30 880 C 86.2779 -4.43831 4.20068 0
M  V30 881 C 87.2759 -4.46185 5.17115 0
M  V30 882 O 86.9639 -4.78083 6.46291 0
M  V30 883 H 86.6959 -0.613073 0.284811 0
M  V30 884 H 89.2499 -1.49461 1.40893 0
M  V30 885 H 87.4799 -3.84534 0.408741 0
M  V30 886 H 89.1689 -3.97817 0.805991 0
M  V30 887 H 89.9349 -3.5917 3.25917 0
M  V30 888 H 85.8139 -4.085 2.13656 0
M  V30 889 H 89.3579 -4.17665 5.5875 0
M  V30 890 H 85.2549 -4.67037 4.45586 0
M  V30 891 H 86.0229 -4.9593 6.51149 0
M  V30 892 N 88.686 -0.835752 -1.33615 0
M  V30 893 C 89.932 -0.430596 -1.98176 0
M  V30 894 C 90.265 1.00684 -1.66061 0
M  V30 895 O 89.54 1.70339 -0.938877 0
M  V30 896 C 89.823 -0.648065 -3.5422 0
M  V30 897 C 89.676 -2.13255 -3.96033 0
M  V30 898 C 90.995 -0.0922113 -4.40003 0
M  V30 899 H 88.114 -0.157924 -0.719881 0
M  V30 900 H 90.756 -1.05069 -1.58305 0
M  V30 901 H 88.906 -0.120237 -3.88314 0
M  V30 902 H 90.578 -2.725 -3.72211 0
M  V30 903 H 88.821 -2.61823 -3.45878 0
M  V30 904 H 89.492 -2.23547 -5.04708 0
M  V30 905 H 91.968 -0.543343 -4.12537 0
M  V30 906 H 90.844 -0.274083 -5.48215 0
M  V30 907 H 91.105 1.00378 -4.30554 0
M  V30 908 N 90.1641 1.46063 -0.591896 0
M  V30 909 C 91.4041 2.04228 -0.0838014 0
M  V30 910 C 91.7681 1.45231 1.25587 0
M  V30 911 O 92.9691 1.94653 1.85375 0
M  V30 912 C 91.2401 3.57389 -0.0286282 0
M  V30 913 S 92.7991 4.3678 0.420557 0
M  V30 914 H 89.6171 0.709762 -0.0419319 0
M  V30 915 H 92.2191 1.78983 -0.786465 0
M  V30 916 H 90.9231 3.97843 -1.00743 0
M  V30 917 H 90.4541 3.87185 0.69652 0
M  V30 918 H 92.4691 4.67131 1.67341 0
M  V30 919 N 91.6422 0.330177 1.54103 0
M  V30 920 C 93.0532 -0.15652 1.86043 0
M  V30 921 C 93.4042 -1.51086 1.2517 0
M  V30 922 O 92.5292 -2.09023 0.560217 0
M  V30 923 C 93.1242 -0.290784 3.3755 0
M  V30 924 C 91.6832 -0.721705 3.69416 0
M  V30 925 C 90.8302 0.152622 2.7688 0
M  V30 926 H 93.7812 0.550237 1.48856 0
M  V30 927 H 93.8022 -1.12058 3.63625 0
M  V30 928 H 93.3142 0.695068 3.81825 0
M  V30 929 H 91.4152 -1.71706 3.30678 0
M  V30 930 H 91.5282 -0.520869 4.7626 0
M  V30 931 H 89.8922 -0.372894 2.51956 0
M  V30 932 H 90.6752 1.13536 3.23982 0
M  V30 933 N 93.1203 -1.57491 0.0584922 0
M  V30 934 C 94.3453 -1.97711 -0.62652 0
M  V30 935 C 94.7703 -0.936132 -1.63151 0
M  V30 936 O 94.1283 0.099811 -1.81025 0
M  V30 937 C 94.1763 -3.36989 -1.28338 0
M  V30 938 O 93.2803 -3.35433 -2.39913 0
M  V30 939 H 92.6213 -0.643868 -0.162266 0
M  V30 940 H 95.1513 -2.04193 0.129064 0
M  V30 941 H 95.1613 -3.73879 -1.63335 0
M  V30 942 H 93.8363 -4.12289 -0.546889 0
M  V30 943 H 92.4133 -3.10298 -2.06809 0
M  V30 944 N 94.5984 0.214957 -1.56127 0
M  V30 945 C 95.8464 0.936518 -1.79091 0
M  V30 946 C 96.1674 1.84606 -0.628148 0
M  V30 947 O 95.4374 1.92664 0.35462 0
M  V30 948 H 94.0174 0.3488 -0.660566 0
M  V30 949 H 96.6794 0.22523 -1.93594 0
M  V30 950 H 95.7754 1.53943 -2.71492 0
M  V30 951 N 96.0765 1.50051 0.48192 0
M  V30 952 C 97.3235 1.60498 1.23477 0
M  V30 953 C 97.6515 0.300331 1.92167 0
M  V30 954 O 96.9065 -0.713094 1.82246 0
M  V30 955 C 97.2055 2.72717 2.30998 0
M  V30 956 C 96.8715 4.13572 1.79636 0
M  V30 957 C 95.5335 4.519 1.65348 0
M  V30 958 C 97.8855 5.01649 1.41412 0
M  V30 959 C 95.2135 5.76057 1.11244 0
M  V30 960 C 97.5655 6.26343 0.887538 0
M  V30 961 C 96.2295 6.63483 0.731207 0
M  V30 962 H 95.4995 0.587303 0.451836 0
M  V30 963 H 98.1465 1.83948 0.532468 0
M  V30 964 H 96.4515 2.43312 3.07094 0
M  V30 965 H 98.1485 2.78006 2.88988 0
M  V30 966 H 94.7385 3.83329 1.91721 0
M  V30 967 H 98.9225 4.72679 1.51289 0
M  V30 968 H 94.1785 6.03516 0.978686 0
M  V30 969 H 98.3525 6.93958 0.582654 0
M  V30 970 H 95.9795 7.59568 0.309806 0
M  V30 971 N 97.5546 -0.734337 1.39446 0
M  V30 972 C 98.7846 -1.52137 1.39778 0
M  V30 973 C 99.1926 -1.89198 -0.00929312 0
M  V30 974 O 98.5356 -1.54666 -0.991168 0
M  V30 975 C 98.5976 -2.83762 2.20724 0
M  V30 976 C 98.2616 -2.69131 3.69347 0
M  V30 977 C 99.2586 -2.37635 4.62413 0
M  V30 978 C 96.9436 -2.85982 4.1294 0
M  V30 979 C 98.9376 -2.23172 5.97054 0
M  V30 980 C 96.6246 -2.71137 5.47657 0
M  V30 981 C 97.6226 -2.39777 6.39528 0
M  V30 982 O 97.3106 -2.25026 7.71763 0
M  V30 983 H 97.0426 -0.476717 0.479288 0
M  V30 984 H 99.5966 -0.915012 1.83893 0
M  V30 985 H 97.8266 -3.4666 1.71359 0
M  V30 986 H 99.5156 -3.45383 2.13226 0
M  V30 987 H 100.282 -2.24267 4.30034 0
M  V30 988 H 96.1606 -3.09383 3.41765 0
M  V30 989 H 99.7046 -1.98617 6.68728 0
M  V30 990 H 95.6016 -2.84083 5.79626 0
M  V30 991 H 96.3696 -2.40091 7.82495 0
M  V30 992 N 99.0327 -1.24633 -0.964593 0
M  V30 993 C 100.444 -1.08045 -1.5226 0
M  V30 994 C 100.795 0.347116 -1.93105 0
M  V30 995 O 99.9197 1.23588 -1.77637 0
M  V30 996 C 100.515 -1.95514 -2.76695 0
M  V30 997 C 99.0737 -1.8314 -3.28841 0
M  V30 998 C 98.2207 -1.90262 -2.01732 0
M  V30 999 H 101.172 -1.38064 -0.782553 0
M  V30 1000 H 101.193 -1.48925 -3.50145 0
M  V30 1001 H 100.705 -2.99407 -2.46936 0
M  V30 1002 H 98.8057 -0.82092 -3.63444 0
M  V30 1003 H 98.9187 -2.67406 -3.97531 0
M  V30 1004 H 97.2827 -1.34027 -2.16584 0
M  V30 1005 H 98.0657 -2.9574 -1.74334 0
M  V30 1006 N 100.511 1.16574 -1.06058 0
M  V30 1007 C 101.741 1.90675 -0.795397 0
M  V30 1008 C 102.149 1.77547 0.653735 0
M  V30 1009 O 101.492 1.11611 1.45907 0
M  V30 1010 C 101.554 3.42011 -1.10764 0
M  V30 1011 C 101.218 3.78924 -2.55471 0
M  V30 1012 C 102.215 3.81042 -3.53699 0
M  V30 1013 C 99.8998 4.09626 -2.90708 0
M  V30 1014 C 101.894 4.13346 -4.85205 0
M  V30 1015 C 99.5808 4.41597 -4.22416 0
M  V30 1016 C 100.579 4.43436 -5.19474 0
M  V30 1017 O 100.267 4.74649 -6.48817 0
M  V30 1018 H 99.9988 0.611554 -0.288058 0
M  V30 1019 H 102.553 1.48711 -1.41683 0
M  V30 1020 H 100.783 3.84312 -0.429128 0
M  V30 1021 H 102.472 3.97384 -0.827077 0
M  V30 1022 H 103.238 3.57437 -3.27817 0
M  V30 1023 H 99.1168 4.07361 -2.15819 0
M  V30 1024 H 102.661 4.14696 -5.60957 0
M  V30 1025 H 98.5578 4.64667 -4.48056 0
M  V30 1026 H 99.3258 4.9247 -6.5377 0
M  V30 1027 N 101.989 0.842826 1.3317 0
M  V30 1028 C 103.4 0.496651 1.79973 0
M  V30 1029 C 103.751 -0.984641 1.69703 0
M  V30 1030 O 102.876 -1.76743 1.24863 0
M  V30 1031 C 103.471 0.894727 3.26772 0
M  V30 1032 C 102.03 0.600629 3.71577 0
M  V30 1033 C 101.177 1.10091 2.5451 0
M  V30 1034 H 104.128 1.03116 1.20635 0
M  V30 1035 H 104.149 0.206347 3.7994 0
M  V30 1036 H 103.661 1.97287 3.34215 0
M  V30 1037 H 101.762 -0.467284 3.69658 0
M  V30 1038 H 101.875 1.15863 4.64879 0
M  V30 1039 H 100.239 0.52162 2.49301 0
M  V30 1040 H 101.022 2.18591 2.64713 0
M  V30 1041 N 103.467 -1.45747 0.599634 0
M  V30 1042 C 104.713 -2.02592 0.0918643 0
M  V30 1043 C 105.046 -1.46806 -1.27128 0
M  V30 1044 O 104.321 -0.639658 -1.83681 0
M  V30 1045 C 104.604 -3.60073 0.0443398 0
M  V30 1046 C 104.457 -4.26208 1.43759 0
M  V30 1047 C 105.776 -4.35309 -0.647608 0
M  V30 1048 H 102.895 -0.736175 0.034857 0
M  V30 1049 H 105.537 -1.73694 0.770081 0
M  V30 1050 H 103.687 -3.84823 -0.533224 0
M  V30 1051 H 105.359 -4.12668 2.06162 0
M  V30 1052 H 103.602 -3.84916 2.00056 0
M  V30 1053 H 104.273 -5.35069 1.35665 0
M  V30 1054 H 106.749 -4.15805 -0.156776 0
M  V30 1055 H 105.625 -5.45038 -0.649942 0
M  V30 1056 H 105.886 -4.07598 -1.71219 0
M  V30 1057 N 104.945 -0.338344 -1.53925 0
M  V30 1058 C 105.877 0.555117 -2.22376 0
M  V30 1059 C 106.89 1.06812 -1.22862 0
M  V30 1060 O 108.079 0.979163 -1.49247 0
M  V30 1061 C 105.179 1.77609 -2.88631 0
M  V30 1062 C 104.352 1.39927 -4.14414 0
M  V30 1063 C 103.411 2.47936 -4.64127 0
M  V30 1064 O 102.437 2.11461 -5.28463 0
M  V30 1065 N 103.639 3.79107 -4.39612 0
M  V30 1066 H 106.404 -0.0310778 -2.99684 0
M  V30 1067 H 103.965 -0.162226 -1.61085 0
M  V30 1068 H 105.957 2.49287 -3.18807 0
M  V30 1069 H 104.527 2.26978 -2.14941 0
M  V30 1070 H 103.747 0.513481 -3.90841 0
M  V30 1071 H 105.035 1.12341 -4.96243 0
M  V30 1072 H 104.433 4.11531 -3.88148 0
M  V30 1073 H 102.99 4.4697 -4.74406 0
M  V30 1074 N 106.423 1.57458 -0.0668435 0
M  V30 1075 C 107.651 1.97624 0.612565 0
M  V30 1076 C 108.066 0.94502 1.63447 0
M  V30 1077 O 107.423 -0.0689276 1.8237 0
M  V30 1078 C 107.474 3.37869 1.28555 0
M  V30 1079 O 107.195 4.3704 0.304557 0
M  V30 1080 C 108.696 3.92882 2.05325 0
M  V30 1081 H 105.916 0.650045 0.166381 0
M  V30 1082 H 108.46 2.04035 -0.137782 0
M  V30 1083 H 106.615 3.3256 1.98702 0
M  V30 1084 H 107.029 5.18565 0.786779 0
M  V30 1085 H 108.503 4.93247 2.47812 0
M  V30 1086 H 108.98 3.29156 2.9078 0
M  V30 1087 H 109.586 4.01577 1.40056 0
M  V30 1088 N 107.901 -0.206675 1.56239 0
M  V30 1089 C 109.317 -0.557025 1.49564 0
M  V30 1090 C 109.517 -1.86424 0.764735 0
M  V30 1091 O 108.573 -2.50584 0.310491 0
M  V30 1092 C 109.886 -0.622478 2.94186 0
M  V30 1093 C 111.434 -0.712099 3.04792 0
M  V30 1094 C 111.909 -0.808767 4.50803 0
M  V30 1095 N 113.4 -0.8726 4.54907 0
M  V30 1096 C 114.135 -0.967365 5.65181 0
M  V30 1097 N 113.631 -1.02515 6.85173 0
M  V30 1098 N 115.424 -1.00366 5.53067 0
M  V30 1099 H 107.575 0.650943 2.02179 0
M  V30 1100 H 109.838 0.230387 0.919579 0
M  V30 1101 H 109.544 0.268727 3.50672 0
M  V30 1102 H 109.418 -1.4811 3.46905 0
M  V30 1103 H 111.805 -1.59374 2.48363 0
M  V30 1104 H 111.886 0.172489 2.55218 0
M  V30 1105 H 111.53 0.0684754 5.07854 0
M  V30 1106 H 111.46 -1.70899 4.98098 0
M  V30 1107 H 113.951 -0.837657 3.68499 0
M  V30 1108 H 114.264 -1.09765 7.64965 0
M  V30 1109 H 112.609 -0.994026 6.87855 0
M  V30 1110 H 115.8 -0.95527 4.58249 0
M  V30 1111 H 115.973 -1.07405 6.39037 0
M  V30 1112 N 109.379 -1.50304 -0.473955 0
M  V30 1113 C 110.607 -1.64902 -1.24959 0
M  V30 1114 C 111.022 -0.331198 -1.85872 0
M  V30 1115 O 110.379 0.68652 -1.69095 0
M  V30 1116 C 110.43 -2.73803 -2.36038 0
M  V30 1117 O 110.151 -4.00477 -1.77624 0
M  V30 1118 C 111.652 -2.99349 -3.26964 0
M  V30 1119 H 108.872 -0.554383 -0.378022 0
M  V30 1120 H 111.416 -1.9651 -0.566054 0
M  V30 1121 H 109.571 -2.44898 -3.00173 0
M  V30 1122 H 109.985 -4.60678 -2.5075 0
M  V30 1123 H 111.459 -3.79217 -4.01121 0
M  V30 1124 H 111.936 -2.10307 -3.85574 0
M  V30 1125 H 112.542 -3.29774 -2.68569 0
M  V30 1126 N 110.857 0.726932 -1.39834 0
M  V30 1127 C 112.097 1.4992 -1.38936 0
M  V30 1128 C 112.461 1.91996 0.0126883 0
M  V30 1129 O 113.662 2.68399 0.146715 0
M  V30 1130 C 111.933 2.70013 -2.34153 0
M  V30 1131 S 113.492 3.59563 -2.51515 0
M  V30 1132 H 110.31 0.51271 -0.492595 0
M  V30 1133 H 112.912 0.85107 -1.76003 0
M  V30 1134 H 111.616 2.37254 -3.34871 0
M  V30 1135 H 111.147 3.39748 -1.98331 0
M  V30 1136 H 113.162 4.63973 -1.75909 0
M  V30 1137 N 112.336 1.25143 0.95797 0
M  V30 1138 C 113.752 1.01892 1.22842 0
M  V30 1139 C 113.952 -0.266311 1.99732 0
M  V30 1140 O 113.008 -0.979913 2.3271 0
M  V30 1141 C 114.321 2.24004 2.00606 0
M  V30 1142 C 115.869 2.28731 2.13662 0
M  V30 1143 C 116.344 3.5049 2.94823 0
M  V30 1144 N 117.835 3.50866 3.02403 0
M  V30 1145 C 118.57 4.4174 3.65586 0
M  V30 1146 N 118.066 5.42882 4.30408 0
M  V30 1147 N 119.859 4.29429 3.62694 0
M  V30 1148 H 112.01 2.07718 0.443493 0
M  V30 1149 H 114.273 0.912031 0.258657 0
M  V30 1150 H 113.979 3.17395 1.51503 0
M  V30 1151 H 113.853 2.26907 3.01319 0
M  V30 1152 H 116.24 1.35865 2.61963 0
M  V30 1153 H 116.321 2.29848 1.12265 0
M  V30 1154 H 115.965 4.43676 2.47213 0
M  V30 1155 H 115.895 3.46617 3.96439 0
M  V30 1156 H 118.386 2.777 2.56302 0
M  V30 1157 H 118.699 6.0844 4.76467 0
M  V30 1158 H 117.044 5.46758 4.29047 0
M  V30 1159 H 120.235 3.49643 3.11236 0
M  V30 1160 H 120.408 5.00448 4.1165 0
M  V30 1161 N 113.814 -1.1601 1.06675 0
M  V30 1162 C 115.039 -1.91068 0.806706 0
M  V30 1163 C 115.464 -1.77112 -0.633485 0
M  V30 1164 O 114.822 -1.09908 -1.44187 0
M  V30 1165 C 114.87 -3.39655 1.21106 0
M  V30 1166 O 113.974 -4.10893 0.352189 0
M  V30 1167 H 113.315 -0.595125 0.294486 0
M  V30 1168 H 115.845 -1.46955 1.42356 0
M  V30 1169 H 115.855 -3.90434 1.18428 0
M  V30 1170 H 114.53 -3.49132 2.26008 0
M  V30 1171 H 113.107 -3.70285 0.440868 0
M  V30 1172 N 115.292 -0.849877 -1.32721 0
M  V30 1173 C 116.52 -0.464754 -2.01613 0
M  V30 1174 C 116.935 0.937191 -1.63897 0
M  V30 1175 O 116.292 1.61081 -0.857856 0
M  V30 1176 C 116.343 -0.588638 -3.56675 0
M  V30 1177 O 116.064 -1.93535 -3.93034 0
M  V30 1178 C 117.565 -0.2019 -4.4284 0
M  V30 1179 H 114.785 -0.183215 -0.645502 0
M  V30 1180 H 117.329 -1.1455 -1.69407 0
M  V30 1181 H 115.484 0.0443159 -3.87375 0
M  V30 1182 H 115.898 -1.92871 -4.87751 0
M  V30 1183 H 117.372 -0.339599 -5.50954 0
M  V30 1184 H 117.849 0.857224 -4.30753 0
M  V30 1185 H 118.455 -0.809733 -4.17521 0
M  V30 1186 N 116.77 1.45427 -0.607355 0
M  V30 1187 C 118.018 2.01841 -0.102253 0
M  V30 1188 C 118.339 1.47832 1.27164 0
M  V30 1189 O 117.609 0.672497 1.83995 0
M  V30 1190 H 116.189 0.746188 -0.0348101 0
M  V30 1191 H 118.851 1.78229 -0.7887 0
M  V30 1192 H 117.947 3.12057 -0.0518585 0
M  V30 1193 N 118.248 0.346503 1.53744 0
M  V30 1194 C 119.473 -0.253074 2.0585 0
M  V30 1195 C 119.898 -1.43202 1.21962 0
M  V30 1196 O 119.256 -1.79783 0.234073 0
M  V30 1197 C 119.304 -0.643193 3.54817 0
M  V30 1198 O 118.408 -1.74286 3.73762 0
M  V30 1199 H 117.749 -0.0413583 0.662711 0
M  V30 1200 H 120.279 0.501574 1.98357 0
M  V30 1201 H 120.289 -0.919526 3.97503 0
M  V30 1202 H 118.964 0.218966 4.15323 0
M  V30 1203 H 117.541 -1.46356 3.42979 0
M  V30 1204 N 119.726 -1.57421 0.075193 0
M  V30 1205 C 120.972 -1.94716 -0.587998 0
M  V30 1206 C 121.327 -0.955205 -1.67014 0
M  V30 1207 O 120.62 0.0219842 -1.91587 0
M  V30 1208 C 120.814 -3.36428 -1.20626 0
M  V30 1209 C 120.643 -4.49317 -0.185541 0
M  V30 1210 C 119.413 -5.04772 0.23099 0
M  V30 1211 C 121.611 -5.11036 0.57854 0
M  V30 1212 N 119.593 -6.01204 1.24206 0
M  V30 1213 C 120.964 -6.02998 1.44199 0
M  V30 1214 C 123.019 -4.93844 0.634237 0
M  V30 1215 C 121.722 -6.79614 2.3562 0
M  V30 1216 C 123.748 -5.71106 1.53597 0
M  V30 1217 C 123.11 -6.6272 2.38709 0
M  V30 1218 H 119.209 -0.759536 -0.186089 0
M  V30 1219 H 121.793 -1.94097 0.153128 0
M  V30 1220 H 119.964 -3.37778 -1.9173 0
M  V30 1221 H 121.696 -3.60951 -1.8302 0
M  V30 1222 H 118.451 -4.73353 -0.152807 0
M  V30 1223 H 118.875 -6.54119 1.74521 0
M  V30 1224 H 123.517 -4.22799 -0.00960004 0
M  V30 1225 H 121.235 -7.49934 3.01038 0
M  V30 1226 H 124.821 -5.59824 1.58394 0
M  V30 1227 H 123.701 -7.2146 3.07352 0
M  V30 1228 N 121.204 0.198386 -1.56346 0
M  V30 1229 C 122.429 0.939682 -1.84891 0
M  V30 1230 C 122.854 1.76202 -0.658369 0
M  V30 1231 O 122.212 1.76993 0.392851 0
M  V30 1232 C 122.26 1.81428 -3.11635 0
M  V30 1233 O 121.364 2.91265 -2.91956 0
M  V30 1234 H 120.705 0.264807 -0.608912 0
M  V30 1235 H 123.235 0.204695 -2.03573 0
M  V30 1236 H 123.245 2.21958 -3.42343 0
M  V30 1237 H 121.92 1.21004 -3.97908 0
M  V30 1238 H 120.497 2.54514 -2.72538 0
M  V30 1239 N 122.682 1.50554 0.465978 0
M  V30 1240 C 123.91 1.65563 1.24083 0
M  V30 1241 C 124.325 0.341051 1.85694 0
M  V30 1242 O 123.682 -0.677543 1.69457 0
M  V30 1243 C 123.733 2.75051 2.34583 0
M  V30 1244 O 123.454 4.01413 1.75497 0
M  V30 1245 C 124.955 3.01078 3.25372 0
M  V30 1246 H 122.175 0.55638 0.375077 0
M  V30 1247 H 124.719 1.96807 0.555624 0
M  V30 1248 H 122.874 2.46486 2.9887 0
M  V30 1249 H 123.288 4.62002 2.48303 0
M  V30 1250 H 124.762 3.81339 3.99105 0
M  V30 1251 H 125.239 2.12349 3.84453 0
M  V30 1252 H 125.845 3.31194 2.66816 0
M  V30 1253 N 124.16 -0.719506 1.40217 0
M  V30 1254 C 125.09 -1.8465 1.42922 0
M  V30 1255 C 126.071 -1.67599 0.29062 0
M  V30 1256 O 127.256 -1.87688 0.498677 0
M  V30 1257 C 124.386 -3.22565 1.28722 0
M  V30 1258 C 123.34 -3.54281 2.40144 0
M  V30 1259 C 122.666 -4.91298 2.11023 0
M  V30 1260 C 123.966 -3.55676 3.82481 0
M  V30 1261 H 125.66 -1.82644 2.37237 0
M  V30 1262 H 123.206 -0.877305 1.1419 0
M  V30 1263 H 125.159 -4.01095 1.29232 0
M  V30 1264 H 123.883 -3.25137 0.308811 0
M  V30 1265 H 122.542 -2.78088 2.38877 0
M  V30 1266 H 122.19 -4.90468 1.11582 0
M  V30 1267 H 121.89 -5.13485 2.8567 0
M  V30 1268 H 123.414 -5.72166 2.13209 0
M  V30 1269 H 124.828 -4.24254 3.85592 0
M  V30 1270 H 123.225 -3.89388 4.56614 0
M  V30 1271 H 124.295 -2.55144 4.12346 0
M  V30 1272 N 125.638 -1.25649 -0.95132 0
M  V30 1273 C 126.585 -1.06323 -2.04851 0
M  V30 1274 C 127.555 0.0286491 -1.66075 0
M  V30 1275 O 128.74 -0.12917 -1.90362 0
M  V30 1276 C 125.88 -0.691529 -3.381 0
M  V30 1277 C 124.993 -1.85861 -3.89974 0
M  V30 1278 C 124.128 -1.43096 -5.11563 0
M  V30 1279 C 123.167 -2.56696 -5.55674 0
M  V30 1280 N 122.304 -2.14684 -6.68472 0
M  V30 1281 H 127.144 -2.00222 -2.20715 0
M  V30 1282 H 124.681 -0.997027 -1.08156 0
M  V30 1283 H 126.639 -0.456963 -4.1469 0
M  V30 1284 H 125.269 0.210474 -3.22113 0
M  V30 1285 H 124.321 -2.20639 -3.09875 0
M  V30 1286 H 125.633 -2.71161 -4.18657 0
M  V30 1287 H 124.787 -1.15624 -5.9558 0
M  V30 1288 H 123.526 -0.548722 -4.84603 0
M  V30 1289 H 122.531 -2.84909 -4.7022 0
M  V30 1290 H 123.756 -3.45503 -5.8464 0
M  V30 1291 H 121.702 -1.28881 -6.43215 0
M  V30 1292 H 121.619 -2.9353 -6.96689 0
M  V30 1293 H 122.887 -1.90397 -7.5589 0
M  V30 1294 N 127.117 1.15442 -1.07289 0
M  V30 1295 C 128.345 1.90096 -0.81676 0
M  V30 1296 C 128.76 1.7798 0.629966 0
M  V30 1297 O 128.117 1.1313 1.43206 0
M  V30 1298 C 128.168 3.40466 -1.21512 0
M  V30 1299 O 127.889 3.52232 -2.60508 0
M  V30 1300 C 129.39 4.32145 -0.988198 0
M  V30 1301 H 126.61 0.602495 -0.295366 0
M  V30 1302 H 129.154 1.4627 -1.42918 0
M  V30 1303 H 127.309 3.81958 -0.647039 0
M  V30 1304 H 127.723 4.45549 -2.76742 0
M  V30 1305 H 129.197 5.36072 -1.31645 0
M  V30 1306 H 129.674 4.39135 0.0755063 0
M  V30 1307 H 130.28 3.96395 -1.54115 0
M  V30 1308 N 128.595 0.856903 1.32268 0
M  V30 1309 C 129.527 0.260412 2.27716 0
M  V30 1310 C 130.54 -0.569137 1.52528 0
M  V30 1311 O 131.729 -0.39326 1.74114 0
M  V30 1312 C 128.829 -0.650477 3.32599 0
M  V30 1313 C 128.002 0.14372 4.37164 0
M  V30 1314 C 127.061 -0.69328 5.21613 0
M  V30 1315 O 126.087 -0.12599 5.69061 0
M  V30 1316 N 127.289 -2.00761 5.44679 0
M  V30 1317 H 130.054 1.08059 2.79541 0
M  V30 1318 H 127.615 0.717103 1.45152 0
M  V30 1319 H 129.607 -1.21581 3.86005 0
M  V30 1320 H 128.177 -1.37133 2.80915 0
M  V30 1321 H 127.397 0.890486 3.8401 0
M  V30 1322 H 128.685 0.68915 5.04111 0
M  V30 1323 H 128.083 -2.49181 5.07863 0
M  V30 1324 H 126.64 -2.52103 6.01072 0
M  V30 1325 N 130.073 -1.45103 0.615059 0
M  V30 1326 C 131.35 -1.95549 0.0448276 0
M  V30 1327 C 131.73 -1.55737 -1.4251 0
M  V30 1328 O 131.078 -0.823556 -2.13143 0
M  V30 1329 C 131.288 -3.48098 0.250785 0
M  V30 1330 C 132.636 -4.24384 0.135509 0
M  V30 1331 O 133.66 -3.55738 0.181299 0
M  V30 1332 O 132.519 -5.46493 0.0268878 0
M  V30 1333 H 129.613 -0.8264 -0.0314845 0
M  V30 1334 H 132.159 -1.55232 0.685642 0
M  V30 1335 H 130.931 -3.7007 1.27139 0
M  V30 1336 H 130.554 -3.95323 -0.424937 0
M  V30 1337 N 131.551 -0.354651 -1.53558 0
M  V30 1338 C 132.483 0.5315 -2.22952 0
M  V30 1339 C 133.496 1.05503 -1.23988 0
M  V30 1340 O 134.685 0.963279 -1.50277 0
M  V30 1341 C 131.785 1.74538 -2.90499 0
M  V30 1342 C 130.958 1.35524 -4.15875 0
M  V30 1343 C 130.017 2.42999 -4.66731 0
M  V30 1344 O 129.043 2.05844 -5.30676 0
M  V30 1345 N 130.245 3.74423 -4.43608 0
M  V30 1346 H 133.01 -0.0628615 -2.99634 0
M  V30 1347 H 130.571 -0.179302 -1.60904 0
M  V30 1348 H 132.563 2.45892 -3.21433 0
M  V30 1349 H 131.133 2.24686 -2.17336 0
M  V30 1350 H 130.353 0.471998 -3.91364 0
M  V30 1351 H 131.641 1.07071 -4.97406 0
M  V30 1352 H 131.039 4.07391 -3.92491 0
M  V30 1353 H 129.596 4.41913 -4.7912 0
M  V30 1354 N 133.029 1.57378 -0.0835403 0
M  V30 1355 C 133.976 2.13384 0.879539 0
M  V30 1356 C 134.946 1.04936 1.28754 0
M  V30 1357 O 136.131 1.32662 1.37133 0
M  V30 1358 C 133.271 2.70932 2.13752 0
M  V30 1359 C 132.384 3.93575 1.7811 0
M  V30 1360 C 131.519 4.39326 2.98607 0
M  V30 1361 C 130.558 5.54587 2.59037 0
M  V30 1362 N 129.695 5.95243 3.72331 0
M  V30 1363 H 134.535 2.9537 0.395076 0
M  V30 1364 H 132.072 1.45953 0.183349 0
M  V30 1365 H 134.03 3.02411 2.87408 0
M  V30 1366 H 132.66 1.91693 2.59718 0
M  V30 1367 H 131.712 3.68483 0.94469 0
M  V30 1368 H 133.024 4.77258 1.45005 0
M  V30 1369 H 132.178 4.72528 3.80529 0
M  V30 1370 H 130.917 3.5452 3.34913 0
M  V30 1371 H 129.922 5.21024 1.75539 0
M  V30 1372 H 131.147 6.41133 2.23887 0
M  V30 1373 H 129.093 5.13385 4.08378 0
M  V30 1374 H 129.01 6.73694 3.43034 0
M  V30 1375 H 130.278 6.33072 4.54797 0
M  V30 1376 N 134.507 -0.190092 1.56449 0
M  V30 1377 C 135.735 -0.925772 1.85033 0
M  V30 1378 C 136.15 -1.76638 0.666658 0
M  V30 1379 O 135.507 -1.78822 -0.364565 0
M  V30 1380 C 135.558 -1.81786 3.12468 0
M  V30 1381 O 135.279 -1.01118 4.26271 0
M  V30 1382 C 136.78 -2.6648 3.54265 0
M  V30 1383 H 134 -0.269872 0.614337 0
M  V30 1384 H 136.544 -0.195837 2.0356 0
M  V30 1385 H 134.699 -2.50136 2.95822 0
M  V30 1386 H 135.113 -1.61956 4.98869 0
M  V30 1387 H 136.587 -3.24722 4.46385 0
M  V30 1388 H 137.064 -3.40434 2.77491 0
M  V30 1389 H 137.67 -2.03493 3.73458 0
M  V30 1390 N 135.985 -1.50799 -0.457987 0
M  V30 1391 C 137.231 -1.62683 -1.21088 0
M  V30 1392 C 137.564 -0.332268 -1.91336 0
M  V30 1393 O 136.839 0.667043 -1.82704 0
M  V30 1394 C 137.122 -2.81615 -2.24422 0
M  V30 1395 C 136.975 -4.20989 -1.58392 0
M  V30 1396 C 138.294 -2.96085 -3.2561 0
M  V30 1397 H 135.413 -0.592087 -0.438864 0
M  V30 1398 H 138.055 -1.83225 -0.50286 0
M  V30 1399 H 136.205 -2.64231 -2.84806 0
M  V30 1400 H 137.877 -4.49994 -1.01504 0
M  V30 1401 H 136.12 -4.24641 -0.886704 0
M  V30 1402 H 136.791 -5.0016 -2.33547 0
M  V30 1403 H 139.267 -3.12042 -2.75262 0
M  V30 1404 H 138.143 -3.80902 -3.95228 0
M  V30 1405 H 138.404 -2.0726 -3.90507 0
M  V30 1406 N 137.463 0.71206 -1.40597 0
M  V30 1407 C 138.879 1.02058 -1.22704 0
M  V30 1408 C 139.079 2.01228 -0.104729 0
M  V30 1409 O 138.135 2.4674 0.53624 0
M  V30 1410 C 139.448 1.56094 -2.57012 0
M  V30 1411 C 140.996 1.6806 -2.64054 0
M  V30 1412 C 141.471 2.25501 -3.9864 0
M  V30 1413 N 142.962 2.32882 -4.004 0
M  V30 1414 C 143.697 2.78317 -5.01325 0
M  V30 1415 N 143.193 3.23478 -6.12645 0
M  V30 1416 N 144.986 2.77733 -4.88693 0
M  V30 1417 H 137.137 0.0547896 -2.12329 0
M  V30 1418 H 139.4 0.0869027 -0.944008 0
M  V30 1419 H 139.106 0.906865 -3.39807 0
M  V30 1420 H 138.98 2.54564 -2.78347 0
M  V30 1421 H 141.367 2.32583 -1.81629 0
M  V30 1422 H 141.448 0.681802 -2.46546 0
M  V30 1423 H 141.092 1.61598 -4.81506 0
M  V30 1424 H 141.022 3.26102 -4.13479 0
M  V30 1425 H 143.513 2.00991 -3.20017 0
M  V30 1426 H 143.826 3.56725 -6.85542 0
M  V30 1427 H 142.171 3.21429 -6.16205 0
M  V30 1428 H 145.362 2.4179 -4.00818 0
M  V30 1429 H 145.535 3.12826 -5.67489 0
M  V30 1430 N 138.941 1.26152 0.944643 0
M  V30 1431 C 139.888 1.07408 2.04285 0
M  V30 1432 C 140.858 -0.0198413 1.66088 0
M  V30 1433 O 142.043 0.139264 1.90291 0
M  V30 1434 C 139.183 0.70945 3.37729 0
M  V30 1435 C 138.296 1.87926 3.88983 0
M  V30 1436 C 137.431 1.45807 5.10797 0
M  V30 1437 C 136.47 2.5964 5.54305 0
M  V30 1438 N 135.607 2.18226 6.67324 0
M  V30 1439 H 140.447 2.01389 2.1965 0
M  V30 1440 H 137.984 1.00275 1.07626 0
M  V30 1441 H 139.942 0.478948 4.14442 0
M  V30 1442 H 138.572 -0.193389 3.2222 0
M  V30 1443 H 137.624 2.22279 3.08701 0
M  V30 1444 H 138.936 2.73377 4.17213 0
M  V30 1445 H 138.09 1.18781 5.94959 0
M  V30 1446 H 136.829 0.574414 4.84305 0
M  V30 1447 H 135.834 2.87399 4.68702 0
M  V30 1448 H 137.059 3.48599 5.828 0
M  V30 1449 H 135.005 1.3229 6.42523 0
M  V30 1450 H 134.922 2.97221 6.95123 0
M  V30 1451 H 136.19 1.94403 7.54869 0
M  V30 1452 N 140.419 -1.14872 1.07899 0
M  V30 1453 C 141.382 -2.17986 0.708161 0
M  V30 1454 C 142.382 -1.58775 -0.25442 0
M  V30 1455 O 143.572 -1.74166 -0.034645 0
M  V30 1456 C 140.704 -3.40871 0.0446929 0
M  V30 1457 H 141.897 -2.52306 1.62116 0
M  V30 1458 H 139.45 -1.2943 0.876218 0
M  V30 1459 H 140.185 -3.12124 -0.880281 0
M  V30 1460 H 139.97 -3.8511 0.737091 0
M  V30 1461 H 141.46 -4.17121 -0.19991 0
M  V30 1462 N 141.898 -0.863906 -1.31812 0
M  V30 1463 C 142.808 -0.318461 -2.32428 0
M  V30 1464 C 143.824 0.568496 -1.64451 0
M  V30 1465 O 145 0.46666 -1.95919 0
M  V30 1466 C 142.065 0.476355 -3.43412 0
M  V30 1467 C 141.126 -0.43784 -4.27061 0
M  V30 1468 C 140.359 0.319138 -5.32745 0
M  V30 1469 O 140.582 1.54799 -5.48993 0
M  V30 1470 O 139.516 -0.319861 -6.01049 0
M  V30 1471 H 143.342 -1.15229 -2.80991 0
M  V30 1472 H 140.927 -0.627103 -1.35602 0
M  V30 1473 H 142.809 0.927156 -4.11074 0
M  V30 1474 H 141.484 1.28683 -2.97022 0
M  V30 1475 H 140.391 -0.937013 -3.62175 0
M  V30 1476 H 141.724 -1.21375 -4.77 0
M  V30 1477 N 143.376 1.44774 -0.622745 0
M  V30 1478 C 144.616 2.04004 -0.127102 0
M  V30 1479 C 144.98 1.47862 1.22478 0
M  V30 1480 O 146.181 1.98541 1.81204 0
M  V30 1481 C 144.452 3.57247 -0.104429 0
M  V30 1482 S 146.011 4.37574 0.327814 0
M  V30 1483 H 142.829 0.708713 -0.0569776 0
M  V30 1484 H 145.431 1.77275 -0.824253 0
M  V30 1485 H 144.135 3.95616 -1.09159 0
M  V30 1486 H 143.666 3.88575 0.614236 0
M  V30 1487 H 145.681 4.70575 1.57395 0
M  V30 1488 N 144.854 0.36279 1.53368 0
M  V30 1489 C 146.27 0.0116182 1.59596 0
M  V30 1490 C 146.47 -1.47012 1.37803 0
M  V30 1491 O 145.526 -2.23136 1.18181 0
M  V30 1492 C 146.839 0.465052 2.97082 0
M  V30 1493 C 148.387 0.419033 3.10182 0
M  V30 1494 C 148.862 0.848235 4.50077 0
M  V30 1495 N 150.353 0.803183 4.56183 0
M  V30 1496 C 151.088 1.107 5.62613 0
M  V30 1497 N 150.584 1.47996 6.76808 0
M  V30 1498 N 152.377 1.02998 5.52583 0
M  V30 1499 H 144.528 1.32775 1.65785 0
M  V30 1500 H 146.791 0.542518 0.777417 0
M  V30 1501 H 146.497 1.49892 3.18159 0
M  V30 1502 H 146.371 -0.149786 3.76902 0
M  V30 1503 H 148.758 -0.605696 2.88817 0
M  V30 1504 H 148.839 1.06933 2.32377 0
M  V30 1505 H 148.483 1.87107 4.7218 0
M  V30 1506 H 148.413 0.175218 5.26308 0
M  V30 1507 H 150.904 0.52838 3.74188 0
M  V30 1508 H 151.217 1.69613 7.53957 0
M  V30 1509 H 149.562 1.51859 6.78206 0
M  V30 1510 H 152.753 0.737817 4.62249 0
M  V30 1511 H 152.926 1.2701 6.35431 0
M  V30 1512 N 146.332 -1.57332 0.0918853 0
M  V30 1513 C 147.295 -2.12708 -0.85369 0
M  V30 1514 C 148.295 -1.05561 -1.213 0
M  V30 1515 O 149.485 -1.31461 -1.14296 0
M  V30 1516 C 146.617 -2.64503 -2.15061 0
M  V30 1517 H 147.81 -2.97573 -0.3729 0
M  V30 1518 H 145.363 -1.55509 -0.157072 0
M  V30 1519 H 146.098 -1.83149 -2.67632 0
M  V30 1520 H 145.883 -3.4284 -1.90272 0
M  V30 1521 H 147.373 -3.07351 -2.82711 0
M  V30 1522 N 147.81 0.181792 -1.56548 0
M  V30 1523 C 149.059 0.898348 -1.8059 0
M  V30 1524 C 149.372 1.83862 -0.667379 0
M  V30 1525 O 150.578 2.59678 -0.792446 0
M  V30 1526 C 149.034 1.64791 -3.19956 0
M  V30 1527 C 148.642 0.751789 -4.41647 0
M  V30 1528 C 150.386 2.35331 -3.53298 0
M  V30 1529 C 148.293 1.50098 -5.72035 0
M  V30 1530 H 147.223 0.339194 -0.673397 0
M  V30 1531 H 149.874 0.151413 -1.82874 0
M  V30 1532 H 148.256 2.43921 -3.11959 0
M  V30 1533 H 149.43 -0.0018076 -4.608 0
M  V30 1534 H 147.745 0.156562 -4.16106 0
M  V30 1535 H 150.342 2.91958 -4.47956 0
M  V30 1536 H 150.685 3.10164 -2.77676 0
M  V30 1537 H 151.218 1.63154 -3.62803 0
M  V30 1538 H 147.957 0.795175 -6.50659 0
M  V30 1539 H 147.477 2.22817 -5.56878 0
M  V30 1540 H 149.156 2.05125 -6.13622 0
M  V30 1541 N 149.288 1.51039 0.449983 0
M  V30 1542 C 150.238 1.67824 1.54335 0
M  V30 1543 C 151.222 0.5324 1.51836 0
M  V30 1544 O 152.414 0.787762 1.58503 0
M  V30 1545 C 149.543 1.7951 2.92628 0
M  V30 1546 C 148.629 2.99838 2.9993 0
M  V30 1547 N 149.02 4.23207 2.77001 0
M  V30 1548 C 147.318 2.98832 3.31082 0
M  V30 1549 C 148.019 5.04361 2.89818 0
M  V30 1550 N 146.995 4.38746 3.2094 0
M  V30 1551 H 150.797 2.60884 1.35339 0
M  V30 1552 H 148.311 1.48513 0.657085 0
M  V30 1553 H 150.308 1.89642 3.7127 0
M  V30 1554 H 148.968 0.876227 3.12654 0
M  V30 1555 H 149.979 4.5236 2.52172 0
M  V30 1556 H 146.656 2.16527 3.56963 0
M  V30 1557 H 148.046 6.12528 2.76151 0
M  V30 1558 N 150.766 -0.704594 1.40972 0
M  V30 1559 C 152.006 -1.47691 1.41304 0
M  V30 1560 C 152.37 -1.91992 0.0178582 0
M  V30 1561 O 153.571 -2.68599 -0.103996 0
M  V30 1562 C 151.842 -2.66254 2.38419 0
M  V30 1563 S 153.401 -3.55516 2.57204 0
M  V30 1564 H 150.219 -0.504808 0.500689 0
M  V30 1565 H 152.821 -0.822962 1.77335 0
M  V30 1566 H 151.525 -2.31897 3.38603 0
M  V30 1567 H 151.056 -3.3655 2.03711 0
M  V30 1568 H 153.071 -4.61115 1.83268 0
M  V30 1569 N 152.244 -1.26651 -0.937939 0
M  V30 1570 C 153.655 -1.1125 -1.49934 0
M  V30 1571 C 154.006 0.306077 -1.93798 0
M  V30 1572 O 153.131 1.19792 -1.80219 0
M  V30 1573 C 153.726 -2.01339 -2.72485 0
M  V30 1574 C 152.285 -1.90074 -3.24883 0
M  V30 1575 C 151.432 -1.94498 -1.97651 0
M  V30 1576 H 154.383 -1.39693 -0.753091 0
M  V30 1577 H 154.404 -1.56319 -3.46907 0
M  V30 1578 H 153.916 -3.04577 -2.40529 0
M  V30 1579 H 152.017 -0.897827 -3.61621 0
M  V30 1580 H 152.13 -2.75778 -3.9177 0
M  V30 1581 H 150.494 -1.38591 -2.13693 0
M  V30 1582 H 151.277 -2.99372 -1.68022 0
M  V30 1583 N 153.722 1.14298 -1.08507 0
M  V30 1584 C 155.138 1.37347 -0.812901 0
M  V30 1585 C 155.338 1.93052 0.577325 0
M  V30 1586 O 154.394 2.14389 1.33393 0
M  V30 1587 C 155.707 2.33359 -1.89642 0
M  V30 1588 C 157.255 2.46996 -1.92255 0
M  V30 1589 C 157.73 3.46309 -2.99724 0
M  V30 1590 N 159.221 3.53853 -2.98902 0
M  V30 1591 C 159.956 4.3055 -3.787 0
M  V30 1592 N 159.452 5.10482 -4.6838 0
M  V30 1593 N 161.245 4.25757 -3.66998 0
M  V30 1594 H 153.396 0.764867 -1.9815 0
M  V30 1595 H 155.659 0.398966 -0.859959 0
M  V30 1596 H 155.365 1.99565 -2.89597 0
M  V30 1597 H 155.239 3.33274 -1.76659 0
M  V30 1598 H 157.626 2.80081 -0.929445 0
M  V30 1599 H 157.707 1.47039 -2.09316 0
M  V30 1600 H 157.351 3.13957 -3.99241 0
M  V30 1601 H 157.281 4.46049 -2.79907 0
M  V30 1602 H 159.772 2.96812 -2.33904 0
M  V30 1603 H 160.085 5.66284 -5.25873 0
M  V30 1604 H 158.43 5.09747 -4.72422 0
M  V30 1605 H 161.621 3.62383 -2.96304 0
M  V30 1606 H 161.794 4.85279 -4.29427 0
M  V30 1607 N 155.201 0.870884 1.31352 0
M  V30 1608 C 156.612 0.534714 1.78879 0
M  V30 1609 C 156.963 -0.948423 1.71754 0
M  V30 1610 O 156.088 -1.74055 1.28584 0
M  V30 1611 C 156.683 0.963839 3.24801 0
M  V30 1612 C 155.242 0.679311 3.70219 0
M  V30 1613 C 154.389 1.15465 2.52117 0
M  V30 1614 H 157.34 1.05651 1.18421 0
M  V30 1615 H 157.361 0.286892 3.79417 0
M  V30 1616 H 156.873 2.04332 3.29955 0
M  V30 1617 H 154.974 -0.388769 3.70566 0
M  V30 1618 H 155.087 1.25698 4.62317 0
M  V30 1619 H 153.451 0.574383 2.48139 0
M  V30 1620 H 154.234 2.24157 2.60016 0
M  V30 1621 N 156.679 -1.44442 0.630414 0
M  V30 1622 C 157.629 -2.27794 -0.0968103 0
M  V30 1623 C 158.613 -1.38624 -0.816834 0
M  V30 1624 O 159.805 -1.62438 -0.70306 0
M  V30 1625 C 156.934 -3.25929 -1.07819 0
M  V30 1626 C 156.02 -4.22588 -0.357826 0
M  V30 1627 N 156.411 -5.0207 0.613169 0
M  V30 1628 C 154.709 -4.41914 -0.602365 0
M  V30 1629 C 155.41 -5.72351 1.03871 0
M  V30 1630 N 154.386 -5.42287 0.377642 0
M  V30 1631 H 158.188 -2.86653 0.648621 0
M  V30 1632 H 155.702 -1.55871 0.455862 0
M  V30 1633 H 157.699 -3.84399 -1.61378 0
M  V30 1634 H 156.359 -2.68631 -1.82393 0
M  V30 1635 H 157.37 -5.08331 0.990947 0
M  V30 1636 H 154.047 -3.95714 -1.33103 0
M  V30 1637 H 155.437 -6.4619 1.84086 0
M  V30 1638 N 158.157 -0.370918 -1.53173 0
M  V30 1639 C 159.434 0.273754 -1.93675 0
M  V30 1640 C 159.814 1.65938 -1.3049 0
M  V30 1641 O 159.162 2.23698 -0.465999 0
M  V30 1642 C 159.372 0.318602 -3.47543 0
M  V30 1643 C 160.72 0.556392 -4.20939 0
M  V30 1644 O 161.744 0.399587 -3.53952 0
M  V30 1645 O 160.603 0.862133 -5.39657 0
M  V30 1646 H 157.697 0.165448 -0.810281 0
M  V30 1647 H 160.243 -0.42409 -1.64315 0
M  V30 1648 H 159.015 -0.652687 -3.85818 0
M  V30 1649 H 158.638 1.06212 -3.83151 0
M  V30 1650 N 159.635 1.57281 -0.100228 0
M  V30 1651 C 160.882 1.94537 0.562268 0
M  V30 1652 C 161.21 0.982315 1.67871 0
M  V30 1653 O 160.465 0.00280936 1.957 0
M  V30 1654 C 160.764 3.38305 1.15259 0
M  V30 1655 C 160.43 4.50618 0.159409 0
M  V30 1656 C 159.092 4.81066 -0.113741 0
M  V30 1657 C 161.444 5.18615 -0.518461 0
M  V30 1658 C 158.772 5.76835 -1.07137 0
M  V30 1659 C 161.124 6.15412 -1.46459 0
M  V30 1660 C 159.788 6.44262 -1.74592 0
M  V30 1661 H 159.058 0.711863 0.205748 0
M  V30 1662 H 161.705 1.90679 -0.17715 0
M  V30 1663 H 160.01 3.38766 1.96836 0
M  V30 1664 H 161.707 3.64435 1.67297 0
M  V30 1665 H 158.297 4.2689 0.382491 0
M  V30 1666 H 162.481 4.95264 -0.320581 0
M  V30 1667 H 157.737 5.975 -1.29628 0
M  V30 1668 H 161.911 6.67194 -1.99564 0
M  V30 1669 H 159.538 7.1828 -2.48953 0
M  V30 1670 N 161.113 -0.173488 1.56642 0
M  V30 1671 C 162.023 -1.23482 1.99473 0
M  V30 1672 C 163.039 -1.48567 0.905752 0
M  V30 1673 O 164.215 -1.60758 1.21321 0
M  V30 1674 C 161.28 -2.55444 2.34413 0
M  V30 1675 C 160.341 -2.38241 3.57127 0
M  V30 1676 C 159.574 -3.63909 3.90392 0
M  V30 1677 O 159.797 -4.68996 3.24653 0
M  V30 1678 O 158.731 -3.58149 4.83749 0
M  V30 1679 H 162.557 -0.901279 2.90018 0
M  V30 1680 H 160.142 -0.380185 1.44482 0
M  V30 1681 H 162.024 -3.33292 2.57865 0
M  V30 1682 H 160.699 -2.88382 1.4703 0
M  V30 1683 H 159.606 -1.58431 3.38896 0
M  V30 1684 H 160.939 -2.10228 4.45045 0
M  V30 1685 N 162.591 -1.51276 -0.441967 0
M  V30 1686 C 163.539 -1.72823 -1.55676 0
M  V30 1687 C 164.533 -0.59445 -1.58627 0
M  V30 1688 O 165.739 -0.775715 -1.62427 0
M  V30 1689 H 162.114 -0.545983 -0.517113 0
M  V30 1690 H 164.085 -2.6628 -1.34675 0
M  V30 1691 C 162.834 -1.86619 -2.93375 0
M  V30 1692 H 162.157 -2.73264 -2.91834 0
M  V30 1693 H 163.597 -2.05709 -3.70756 0
M  V30 1694 C 162.056 -0.624842 -3.31055 0
M  V30 1695 O 162.586 0.222636 -4.01083 0
M  V30 1696 N 160.792 -0.470288 -2.86769 0
M  V30 1697 H 160.339 -1.161 -2.29953 0
M  V30 1698 H 160.297 0.359051 -3.12343 0
M  V30 1699 N 164.069 0.697108 -1.41344 0
M  V30 1700 C 165.317 1.45426 -1.40341 0
M  V30 1701 C 165.638 1.94996 -0.0128787 0
M  V30 1702 O 164.908 1.71599 0.945027 0
M  V30 1703 H 163.488 0.539594 -0.516573 0
M  V30 1704 H 166.15 0.825201 -1.76569 0
M  V30 1705 H 165.246 2.31817 -2.08967 0
M  V30 1706 N 165.547 1.27147 0.931209 0
M  V30 1707 C 166.457 1.11372 2.06478 0
M  V30 1708 C 167.473 0.044645 1.73943 0
M  V30 1709 O 168.649 0.250417 1.99837 0
M  V30 1710 C 165.714 0.758838 3.38294 0
M  V30 1711 C 164.775 1.90841 3.84549 0
M  V30 1712 C 164.008 1.57036 5.10074 0
M  V30 1713 O 164.231 0.476645 5.68405 0
M  V30 1714 O 163.165 2.40839 5.51616 0
M  V30 1715 H 166.991 2.06493 2.22698 0
M  V30 1716 H 164.576 1.06301 1.04978 0
M  V30 1717 H 166.458 0.574098 4.17471 0
M  V30 1718 H 165.133 -0.162879 3.2329 0
M  V30 1719 H 164.04 2.14819 3.06274 0
M  V30 1720 H 165.373 2.81021 4.04089 0
M  V30 1721 N 167.025 -1.13721 1.09112 0
M  V30 1722 C 168.255 -1.88499 0.845671 0
M  V30 1723 C 168.663 -1.79218 -0.606432 0
M  V30 1724 O 168.006 -1.1544 -1.42896 0
M  V30 1725 C 168.068 -3.38954 1.19793 0
M  V30 1726 C 167.732 -3.72018 2.65428 0
M  V30 1727 C 168.729 -3.7153 3.63677 0
M  V30 1728 C 166.414 -4.01775 3.01467 0
M  V30 1729 C 168.408 -4.00336 4.95994 0
M  V30 1730 C 166.095 -4.30243 4.33975 0
M  V30 1731 C 167.093 -4.29508 5.31048 0
M  V30 1732 O 166.781 -4.5728 6.61173 0
M  V30 1733 H 166.513 -0.603702 0.304171 0
M  V30 1734 H 169.067 -1.44903 1.45576 0
M  V30 1735 H 167.297 -3.83039 0.530871 0
M  V30 1736 H 168.986 -3.95052 0.932146 0
M  V30 1737 H 169.752 -3.4862 3.37179 0
M  V30 1738 H 165.631 -4.01496 2.26544 0
M  V30 1739 H 169.175 -3.99678 5.71755 0
M  V30 1740 H 165.072 -4.52625 4.60219 0
M  V30 1741 H 165.84 -4.74964 6.66597 0
M  V30 1742 N 168.503 -0.877838 -1.30888 0
M  V30 1743 C 169.749 -0.502773 -1.97088 0
M  V30 1744 C 170.104 0.936274 -1.68082 0
M  V30 1745 O 169.397 1.65162 -0.971196 0
M  V30 1746 C 169.591 -0.705748 -3.50363 0
M  V30 1747 C 169.42 -2.16297 -3.94266 0
M  V30 1748 C 168.19 -2.80614 -4.20219 0
M  V30 1749 C 170.388 -3.13606 -4.07622 0
M  V30 1750 N 168.37 -4.17007 -4.50532 0
M  V30 1751 C 169.741 -4.35051 -4.41736 0
M  V30 1752 C 171.796 -3.09491 -3.90026 0
M  V30 1753 C 170.499 -5.52911 -4.60089 0
M  V30 1754 C 172.525 -4.26616 -4.09576 0
M  V30 1755 C 171.887 -5.46825 -4.44029 0
M  V30 1756 H 167.986 -0.233168 -0.746429 0
M  V30 1757 H 170.57 -1.13408 -1.58261 0
M  V30 1758 H 168.741 -0.103976 -3.88261 0
M  V30 1759 H 170.473 -0.298291 -4.03599 0
M  V30 1760 H 167.228 -2.3152 -4.13153 0
M  V30 1761 H 167.652 -4.87426 -4.69834 0
M  V30 1762 H 172.294 -2.17657 -3.62471 0
M  V30 1763 H 170.012 -6.45255 -4.86489 0
M  V30 1764 H 173.598 -4.24894 -3.97438 0
M  V30 1765 H 172.478 -6.35947 -4.58848 0
M  V30 1766 N 169.982 1.44106 -0.638065 0
M  V30 1767 C 171.393 1.85316 -0.226894 0
M  V30 1768 C 171.744 1.53399 1.22324 0
M  V30 1769 O 170.869 0.975463 1.93167 0
M  V30 1770 C 171.464 3.3637 -0.405013 0
M  V30 1771 C 170.023 3.76369 -0.0482902 0
M  V30 1772 C 169.17 2.67921 -0.715108 0
M  V30 1773 H 172.121 1.34474 -0.842764 0
M  V30 1774 H 172.142 3.7885 0.354 0
M  V30 1775 H 171.654 3.59569 -1.46053 0
M  V30 1776 H 169.755 3.58784 1.00522 0
M  V30 1777 H 169.868 4.76856 -0.463187 0
M  V30 1778 H 168.232 2.54259 -0.149753 0
M  V30 1779 H 169.015 2.93951 -1.77335 0
M  V30 1780 N 171.46 0.379036 1.52974 0
M  V30 1781 C 172.876 0.0285448 1.59574 0
M  V30 1782 C 173.076 -1.45542 1.39355 0
M  V30 1783 O 172.132 -2.2187 1.20541 0
M  V30 1784 C 173.445 0.496535 2.96572 0
M  V30 1785 C 174.993 0.451909 3.0972 0
M  V30 1786 C 175.468 0.895924 4.49152 0
M  V30 1787 N 176.959 0.851522 4.55306 0
M  V30 1788 C 177.694 1.16661 5.61407 0
M  V30 1789 N 177.19 1.55166 6.752 0
M  V30 1790 N 178.983 1.08853 5.51459 0
M  V30 1791 H 171.134 1.34525 1.64367 0
M  V30 1792 H 173.397 0.550733 0.771619 0
M  V30 1793 H 173.103 1.53258 3.16552 0
M  V30 1794 H 172.977 -0.109802 3.7704 0
M  V30 1795 H 175.364 -0.575029 2.89443 0
M  V30 1796 H 175.445 1.09392 2.3123 0
M  V30 1797 H 175.089 1.92104 4.70168 0
M  V30 1798 H 175.019 0.23103 5.26093 0
M  V30 1799 H 177.51 0.568038 3.73606 0
M  V30 1800 H 177.823 1.776 7.52116 0
M  V30 1801 H 176.168 1.59044 6.76557 0
M  V30 1802 H 179.359 0.786803 4.6144 0
M  V30 1803 H 179.532 1.33742 6.34048 0
M  V30 1804 N 172.938 -1.57226 0.108567 0
M  V30 1805 C 174.163 -1.99604 -0.563303 0
M  V30 1806 C 174.588 -0.987563 -1.6009 0
M  V30 1807 O 173.946 0.0421687 -1.81251 0
M  V30 1808 C 173.994 -3.40902 -1.17552 0
M  V30 1809 O 173.098 -3.42896 -2.2912 0
M  V30 1810 H 172.439 -0.648704 -0.1417 0
M  V30 1811 H 174.969 -2.03679 0.193961 0
M  V30 1812 H 174.979 -3.78886 -1.51357 0
M  V30 1813 H 173.654 -4.1382 -0.415445 0
M  V30 1814 H 172.231 -3.1672 -1.96832 0
M  V30 1815 N 174.416 0.165178 -1.56732 0
M  V30 1816 C 175.827 0.727046 -1.71962 0
M  V30 1817 C 176.178 1.82508 -0.720078 0
M  V30 1818 O 175.303 2.16082 0.117242 0
M  V30 1819 C 175.898 1.32559 -3.11791 0
M  V30 1820 C 174.457 1.83422 -3.28684 0
M  V30 1821 C 173.604 0.715567 -2.67908 0
M  V30 1822 H 176.555 -0.0602896 -1.58585 0
M  V30 1823 H 176.576 2.19533 -3.10782 0
M  V30 1824 H 176.088 0.526195 -3.84516 0
M  V30 1825 H 174.189 2.65986 -2.60926 0
M  V30 1826 H 174.302 1.97543 -4.36478 0
M  V30 1827 H 172.666 1.13758 -2.27884 0
M  V30 1828 H 173.449 -0.0720836 -3.43224 0
M  V30 1829 N 175.894 1.51508 0.433938 0
M  V30 1830 C 177.124 1.67914 1.20369 0
M  V30 1831 C 177.532 0.377461 1.85397 0
M  V30 1832 O 176.875 -0.654255 1.71654 0
M  V30 1833 C 176.937 2.74045 2.32679 0
M  V30 1834 C 176.601 4.16543 1.87991 0
M  V30 1835 C 177.598 5.01211 1.38145 0
M  V30 1836 C 175.283 4.6266 1.95579 0
M  V30 1837 C 177.277 6.30056 0.964774 0
M  V30 1838 C 174.964 5.91501 1.53523 0
M  V30 1839 C 175.962 6.75027 1.04055 0
M  V30 1840 O 175.65 8.01459 0.625964 0
M  V30 1841 H 175.382 0.566578 0.368735 0
M  V30 1842 H 177.936 1.98709 0.51999 0
M  V30 1843 H 176.166 2.38572 3.04336 0
M  V30 1844 H 177.855 2.79295 2.94532 0
M  V30 1845 H 178.621 4.66783 1.31675 0
M  V30 1846 H 174.5 3.97767 2.33029 0
M  V30 1847 H 178.044 6.95202 0.57796 0
M  V30 1848 H 173.941 6.25442 1.59665 0
M  V30 1849 H 174.709 8.15043 0.751509 0
M  V30 1850 N 177.372 -0.689602 1.41712 0
M  V30 1851 C 178.602 -1.47613 1.44548 0
M  V30 1852 C 179.01 -1.89132 0.0509034 0
M  V30 1853 O 178.353 -1.57741 -0.94146 0
M  V30 1854 C 178.415 -2.76596 2.2964 0
M  V30 1855 C 178.079 -2.57245 3.77722 0
M  V30 1856 C 179.076 -2.22804 4.69739 0
M  V30 1857 C 176.761 -2.727 4.2183 0
M  V30 1858 C 178.755 -2.04064 6.03851 0
M  V30 1859 C 176.442 -2.53576 5.56006 0
M  V30 1860 C 177.44 -2.1931 6.46832 0
M  V30 1861 O 177.128 -2.00359 7.78532 0
M  V30 1862 H 176.86 -0.461227 0.494212 0
M  V30 1863 H 179.414 -0.856045 1.86711 0
M  V30 1864 H 177.644 -3.41033 1.82301 0
M  V30 1865 H 179.333 -3.38424 2.24107 0
M  V30 1866 H 180.099 -2.10473 4.36951 0
M  V30 1867 H 175.978 -2.98353 3.51435 0
M  V30 1868 H 179.522 -1.77241 6.74708 0
M  V30 1869 H 175.419 -2.65499 5.88371 0
M  V30 1870 H 176.187 -2.15075 7.89737 0
M  V30 1871 N 178.85 -1.27639 -0.924453 0
M  V30 1872 C 179.798 -1.10485 -2.04685 0
M  V30 1873 C 180.792 -0.0270421 -1.69378 0
M  V30 1874 O 181.998 -0.185008 -1.79047 0
M  V30 1875 H 178.373 -0.340546 -0.670472 0
M  V30 1876 H 180.344 -2.05566 -2.16298 0
M  V30 1877 C 179.093 -0.772229 -3.39016 0
M  V30 1878 H 178.416 -1.59351 -3.66671 0
M  V30 1879 H 179.856 -0.692097 -4.18313 0
M  V30 1880 C 178.315 0.523554 -3.32807 0
M  V30 1881 O 178.845 1.55702 -3.70297 0
M  V30 1882 N 177.051 0.520363 -2.85903 0
M  V30 1883 H 176.598 -0.32107 -2.55591 0
M  V30 1884 H 176.556 1.38742 -2.82131 0
M  V30 1885 N 180.328 1.1314 -1.09713 0
M  V30 1886 C 181.574 1.84757 -0.836224 0
M  V30 1887 C 181.907 1.8347 0.636598 0
M  V30 1888 O 181.182 1.27491 1.46889 0
M  V30 1889 C 181.465 3.32782 -1.37578 0
M  V30 1890 C 181.318 3.42567 -2.91493 0
M  V30 1891 C 182.637 4.28307 -1.01198 0
M  V30 1892 H 179.756 0.67082 -0.305236 0
M  V30 1893 H 182.398 1.3278 -1.35903 0
M  V30 1894 H 180.548 3.77177 -0.931097 0
M  V30 1895 H 182.22 3.06862 -3.44432 0
M  V30 1896 H 180.463 2.83349 -3.28475 0
M  V30 1897 H 181.134 4.46674 -3.24324 0
M  V30 1898 H 183.61 3.91999 -1.39556 0
M  V30 1899 H 182.486 5.30307 -1.41653 0
M  V30 1900 H 182.747 4.42029 0.0794833 0
M  V30 1901 N 181.806 0.884767 1.30421 0
M  V30 1902 C 183.031 0.517288 2.00845 0
M  V30 1903 C 183.456 -0.886779 1.65885 0
M  V30 1904 O 182.814 -1.58768 0.875354 0
M  V30 1905 C 182.862 0.698994 3.5376 0
M  V30 1906 O 181.966 -0.255208 4.1161 0
M  V30 1907 H 181.307 0.203872 0.631927 0
M  V30 1908 H 183.837 1.19225 1.66272 0
M  V30 1909 H 183.847 0.597912 4.03595 0
M  V30 1910 H 182.522 1.72271 3.78544 0
M  V30 1911 H 181.099 -0.10784 3.72744 0
M  V30 1912 N 183.284 -1.43765 0.645699 0
M  V30 1913 C 184.561 -1.9541 0.0862963 0
M  V30 1914 C 184.941 -1.58725 -1.39175 0
M  V30 1915 O 184.289 -0.868581 -2.11348 0
M  V30 1916 C 184.499 -3.47488 0.324565 0
M  V30 1917 C 185.847 -4.24001 0.225497 0
M  V30 1918 O 186.871 -3.55274 0.256715 0
M  V30 1919 O 185.73 -5.46313 0.142801 0
M  V30 1920 H 182.824 -0.826882 -0.0139483 0
M  V30 1921 H 185.37 -1.53743 0.718415 0
M  V30 1922 H 184.142 -3.67289 1.3496 0
M  V30 1923 H 183.765 -3.96135 -0.340987 0
M  V30 1924 N 184.763 -0.387143 -1.52771 0
M  V30 1925 C 185.673 0.456442 -2.30117 0
M  V30 1926 C 186.689 1.07342 -1.36944 0
M  V30 1927 O 187.865 1.07971 -1.70013 0
M  V30 1928 C 184.93 1.56957 -3.09136 0
M  V30 1929 C 183.991 0.977916 -4.18014 0
M  V30 1930 C 183.224 2.038 -4.93256 0
M  V30 1931 O 183.447 3.25271 -4.68567 0
M  V30 1932 O 182.381 1.6565 -5.78657 0
M  V30 1933 H 186.207 -0.17359 -3.03203 0
M  V30 1934 H 183.792 -0.150919 -1.48636 0
M  V30 1935 H 185.674 2.21628 -3.58412 0
M  V30 1936 H 184.349 2.18461 -2.38865 0
M  V30 1937 H 183.256 0.294525 -3.72939 0
M  V30 1938 H 184.589 0.407128 -4.90513 0
M  V30 1939 N 186.241 1.57166 -0.116904 0
M  V30 1940 C 187.49 1.94298 0.541407 0
M  V30 1941 C 187.803 1.00236 1.67964 0
M  V30 1942 O 189.009 1.26826 2.40057 0
M  V30 1943 C 187.465 3.45306 1.01449 0
M  V30 1944 C 187.073 4.47899 -0.0951738 0
M  V30 1945 C 188.817 3.91361 1.6443 0
M  V30 1946 C 186.724 5.90083 0.394491 0
M  V30 1947 H 185.654 0.725308 0.206019 0
M  V30 1948 H 188.305 1.82446 -0.196419 0
M  V30 1949 H 186.687 3.52385 1.80667 0
M  V30 1950 H 187.861 4.52486 -0.871374 0
M  V30 1951 H 186.176 4.11583 -0.631505 0
M  V30 1952 H 188.773 4.95004 2.02176 0
M  V30 1953 H 189.116 3.3122 2.52189 0
M  V30 1954 H 189.649 3.87073 0.917559 0
M  V30 1955 H 186.388 6.53974 -0.447004 0
M  V30 1956 H 185.908 5.88921 1.13722 0
M  V30 1957 H 187.587 6.41307 0.856399 0
M  V30 1958 N 187.719 -0.156864 1.56817 0
M  V30 1959 C 188.944 -0.890331 1.87318 0
M  V30 1960 C 189.369 -1.74394 0.704855 0
M  V30 1961 O 188.727 -1.77972 -0.345786 0
M  V30 1962 C 188.775 -1.73102 3.16336 0
M  V30 1963 O 187.879 -2.83422 2.99576 0
M  V30 1964 H 187.22 -0.24857 0.615718 0
M  V30 1965 H 189.75 -0.150649 2.04045 0
M  V30 1966 H 189.76 -2.12803 3.48107 0
M  V30 1967 H 188.435 -1.10412 4.00976 0
M  V30 1968 H 187.012 -2.47199 2.7919 0
M  V30 1969 N 189.197 -1.51736 -0.425897 0
M  V30 1970 C 190.444 -1.6497 -1.17436 0
M  V30 1971 C 190.772 -0.371445 -1.9092 0
M  V30 1972 O 190.027 0.644963 -1.84767 0
M  V30 1973 C 190.326 -2.81103 -2.20717 0
M  V30 1974 C 189.992 -4.19954 -1.64162 0
M  V30 1975 C 188.654 -4.57725 -1.48462 0
M  V30 1976 C 191.006 -5.06552 -1.22696 0
M  V30 1977 C 188.334 -5.79789 -0.897873 0
M  V30 1978 C 190.686 -6.29205 -0.654464 0
M  V30 1979 C 189.35 -6.6574 -0.484456 0
M  V30 1980 H 188.62 -0.603668 -0.429727 0
M  V30 1981 H 191.267 -1.85798 -0.463829 0
M  V30 1982 H 189.572 -2.54542 -2.97852 0
M  V30 1983 H 191.269 -2.8854 -2.78471 0
M  V30 1984 H 187.859 -3.90181 -1.77361 0
M  V30 1985 H 192.043 -4.77968 -1.33642 0
M  V30 1986 H 187.299 -6.06733 -0.75402 0
M  V30 1987 H 191.473 -6.95643 -0.324694 0
M  V30 1988 H 189.1 -7.60195 -0.0276833 0
M  V30 1989 N 190.675 0.682077 -1.42076 0
M  V30 1990 C 191.625 1.78823 -1.41444 0
M  V30 1991 C 192.609 1.58323 -0.28681 0
M  V30 1992 O 193.801 1.68926 -0.528498 0
M  V30 1993 C 190.93 3.17232 -1.3122 0
M  V30 1994 C 190.016 3.4338 -2.489 0
M  V30 1995 N 190.407 3.40152 -3.7434 0
M  V30 1996 C 188.705 3.73986 -2.43003 0
M  V30 1997 C 189.406 3.65581 -4.52466 0
M  V30 1998 N 188.382 3.85989 -3.8277 0
M  V30 1999 H 192.184 1.7471 -2.36334 0
M  V30 2000 H 189.698 0.882622 -1.36321 0
M  V30 2001 H 191.695 3.96489 -1.2885 0
M  V30 2002 H 190.355 3.22547 -0.373263 0
M  V30 2003 H 191.366 3.20221 -4.07037 0
M  V30 2004 H 188.043 3.86591 -1.57651 0
M  V30 2005 H 189.433 3.69108 -5.61435 0
M  V30 2006 N 192.153 1.28127 0.917671 0
M  V30 2007 C 193.393 1.163 1.68088 0
M  V30 2008 C 193.757 -0.284515 1.8988 0
M  V30 2009 O 194.958 -0.525413 2.63615 0
M  V30 2010 C 193.229 1.93546 3.00457 0
M  V30 2011 S 194.788 1.98048 3.91564 0
M  V30 2012 H 191.606 0.415005 0.577315 0
M  V30 2013 H 194.208 1.62173 1.09179 0
M  V30 2014 H 192.912 2.97888 2.82295 0
M  V30 2015 H 192.443 1.48207 3.64415 0
M  V30 2016 H 194.458 1.08415 4.84211 0
M  V30 2017 N 193.631 -1.12557 1.10312 0
M  V30 2018 C 194.861 -1.87592 0.865617 0
M  V30 2019 C 195.269 -1.79851 -0.587389 0
M  V30 2020 O 194.612 -1.16949 -1.41664 0
M  V30 2021 C 194.674 -3.37665 1.23381 0
M  V30 2022 C 194.338 -3.69181 2.69359 0
M  V30 2023 C 195.335 -3.67652 3.67597 0
M  V30 2024 C 193.02 -3.98555 3.05711 0
M  V30 2025 C 195.014 -3.95053 5.00212 0
M  V30 2026 C 192.701 -4.25616 4.38514 0
M  V30 2027 C 193.699 -4.23851 5.35574 0
M  V30 2028 O 193.387 -4.50242 6.65986 0
M  V30 2029 H 193.119 -0.600442 0.310557 0
M  V30 2030 H 195.673 -1.4335 1.47105 0
M  V30 2031 H 193.903 -3.82454 0.571467 0
M  V30 2032 H 195.592 -3.94041 0.973994 0
M  V30 2033 H 196.358 -3.45024 3.40857 0
M  V30 2034 H 192.237 -3.99071 2.30789 0
M  V30 2035 H 195.781 -3.93591 5.75962 0
M  V30 2036 H 191.678 -4.47718 4.64994 0
M  V30 2037 H 192.446 -4.67867 6.71597 0
M  V30 2038 N 195.109 -0.891671 -1.2995 0
M  V30 2039 C 196.386 -0.433307 -1.9074 0
M  V30 2040 C 196.766 1.08646 -1.80995 0
M  V30 2041 O 196.114 1.92476 -1.23147 0
M  V30 2042 C 196.324 -0.938895 -3.36134 0
M  V30 2043 C 197.672 -0.977829 -4.13187 0
M  V30 2044 O 198.696 -0.886015 -3.45005 0
M  V30 2045 O 197.555 -1.11453 -5.35015 0
M  V30 2046 H 194.649 -0.133699 -0.816121 0
M  V30 2047 H 197.195 -0.981011 -1.38471 0
M  V30 2048 H 195.967 -1.98281 -3.37343 0
M  V30 2049 H 195.59 -0.37074 -3.95868 0
M  V30 2050 N 196.587 1.43421 -0.653314 0
M  V30 2051 C 197.835 2.01414 -0.166415 0
M  V30 2052 C 198.156 1.51803 1.22397 0
M  V30 2053 O 197.426 0.730693 1.81763 0
M  V30 2054 H 196.006 0.744703 -0.0585319 0
M  V30 2055 H 198.668 1.75629 -0.845003 0
M  V30 2056 H 197.764 3.11734 -0.151111 0
M  V30 2057 N 198.065 0.39524 1.52563 0
M  V30 2058 C 199.295 -0.184675 2.05773 0
M  V30 2059 C 199.703 -1.40571 1.26635 0
M  V30 2060 O 199.046 -1.81105 0.30769 0
M  V30 2061 C 199.108 -0.613551 3.54226 0
M  V30 2062 C 198.772 0.49484 4.54313 0
M  V30 2063 C 199.769 1.3541 5.01956 0
M  V30 2064 C 197.454 0.663565 4.97898 0
M  V30 2065 C 199.448 2.36716 5.91814 0
M  V30 2066 C 197.135 1.67996 5.87555 0
M  V30 2067 C 198.133 2.53017 6.34406 0
M  V30 2068 O 197.821 3.52917 7.22291 0
M  V30 2069 H 197.553 -0.030077 0.675331 0
M  V30 2070 H 200.107 0.560708 1.97599 0
M  V30 2071 H 198.337 -1.411 3.60038 0
M  V30 2072 H 200.026 -1.11981 3.90148 0
M  V30 2073 H 200.792 1.23509 4.6901 0
M  V30 2074 H 196.671 0.0114913 4.60999 0
M  V30 2075 H 200.215 3.03113 6.28306 0
M  V30 2076 H 196.112 1.79933 6.19915 0
M  V30 2077 H 196.88 3.48996 7.40367 0
M  V30 2078 N 199.544 -1.57102 0.125237 0
M  V30 2079 C 200.772 -1.99761 -0.538797 0
M  V30 2080 C 201.187 -1.00503 -1.59827 0
M  V30 2081 O 200.544 0.00119474 -1.825 0
M  V30 2082 C 200.595 -3.42408 -1.15927 0
M  V30 2083 O 200.316 -4.37869 -0.142143 0
M  V30 2084 C 201.817 -4.00232 -1.90602 0
M  V30 2085 H 199.037 -0.655772 -0.14214 0
M  V30 2086 H 201.581 -2.03383 0.213413 0
M  V30 2087 H 199.736 -3.39706 -1.86223 0
M  V30 2088 H 200.15 -5.21128 -0.593775 0
M  V30 2089 H 201.624 -5.02105 -2.29335 0
M  V30 2090 H 202.101 -3.39721 -2.78363 0
M  V30 2091 H 202.707 -4.06499 -1.25055 0
M  V30 2092 N 201.022 0.148545 -1.56898 0
M  V30 2093 C 201.952 1.18524 -2.01182 0
M  V30 2094 C 202.933 1.4489 -0.891123 0
M  V30 2095 O 204.118 1.55836 -1.15882 0
M  V30 2096 C 201.248 2.51879 -2.39112 0
M  V30 2097 C 200.202 2.40038 -3.54353 0
M  V30 2098 C 199.528 3.78089 -3.78091 0
M  V30 2099 C 200.828 1.88577 -4.87069 0
M  V30 2100 H 202.522 0.817029 -2.88036 0
M  V30 2101 H 200.068 0.391575 -1.38574 0
M  V30 2102 H 202.021 3.24627 -2.68692 0
M  V30 2103 H 200.745 2.90532 -1.49193 0
M  V30 2104 H 199.404 1.69742 -3.24936 0
M  V30 2105 H 199.052 4.14175 -2.85426 0
M  V30 2106 H 198.752 3.71028 -4.55645 0
M  V30 2107 H 200.276 4.52387 -4.10095 0
M  V30 2108 H 201.69 2.51117 -5.15377 0
M  V30 2109 H 200.087 1.9241 -5.68417 0
M  V30 2110 H 201.157 0.84136 -4.77545 0
M  V30 2111 N 202.5 1.5196 0.417844 0
M  V30 2112 C 203.916 1.40569 0.755816 0
M  V30 2113 C 204.116 0.503316 1.95113 0
M  V30 2114 O 203.172 -0.0341925 2.52477 0
M  V30 2115 C 204.485 2.82947 1.01791 0
M  V30 2116 C 206.033 2.92231 1.12116 0
M  V30 2117 C 206.508 4.35559 1.41608 0
M  V30 2118 N 207.999 4.38753 1.48491 0
M  V30 2119 C 208.734 5.46705 1.7292 0
M  V30 2120 N 208.23 6.64788 1.95011 0
M  V30 2121 N 210.023 5.34209 1.74863 0
M  V30 2122 H 202.174 2.09168 -0.369098 0
M  V30 2123 H 204.437 0.942409 -0.102809 0
M  V30 2124 H 204.143 3.5106 0.212081 0
M  V30 2125 H 204.017 3.23462 1.94042 0
M  V30 2126 H 206.404 2.24304 1.9176 0
M  V30 2127 H 206.485 2.55185 0.177225 0
M  V30 2128 H 206.129 5.04042 0.624848 0
M  V30 2129 H 206.059 4.70133 2.37239 0
M  V30 2130 H 208.55 3.5363 1.33244 0
M  V30 2131 H 208.863 7.42845 2.13076 0
M  V30 2132 H 207.208 6.67869 1.92293 0
M  V30 2133 H 210.399 4.40937 1.57137 0
M  V30 2134 H 210.572 6.18415 1.93563 0
M  V30 2135 N 203.978 -0.674533 1.42435 0
M  V30 2136 C 205.226 -1.43175 1.42637 0
M  V30 2137 C 205.547 -1.94951 0.0438992 0
M  V30 2138 O 204.817 -1.7308 -0.917607 0
M  V30 2139 H 203.397 -0.531307 0.525092 0
M  V30 2140 H 206.059 -0.797006 1.77859 0
M  V30 2141 H 205.155 -2.28463 2.12629 0
M  V30 2142 N 205.456 -1.28612 -0.910864 0
M  V30 2143 C 206.681 -1.1891 -1.69927 0
M  V30 2144 C 207.106 0.248372 -1.86453 0
M  V30 2145 O 206.464 1.17961 -1.37676 0
M  V30 2146 C 206.512 -1.89578 -3.06745 0
M  V30 2147 O 205.616 -1.20521 -3.94396 0
M  V30 2148 H 204.957 -0.412632 -0.520222 0
M  V30 2149 H 207.487 -1.69985 -1.1387 0
M  V30 2150 H 207.497 -1.97597 -3.56958 0
M  V30 2151 H 206.172 -2.94136 -2.94035 0
M  V30 2152 H 204.749 -1.20684 -3.52831 0
M  V30 2153 N 206.934 1.1197 -1.10907 0
M  V30 2154 C 207.897 2.16031 -0.765707 0
M  V30 2155 C 208.897 1.59393 0.212235 0
M  V30 2156 O 210.087 1.74196 -0.0115441 0
M  V30 2157 C 207.219 3.40632 -0.135053 0
M  V30 2158 H 208.412 2.47919 -1.68748 0
M  V30 2159 H 205.965 1.27061 -0.910226 0
M  V30 2160 H 206.7 3.14348 0.797218 0
M  V30 2161 H 206.485 3.8302 -0.838937 0
M  V30 2162 H 207.975 4.17505 0.0892469 0
M  V30 2163 N 208.412 0.89855 1.29475 0
M  V30 2164 C 209.36 0.365253 2.29714 0
M  V30 2165 C 210.354 -0.534993 1.6073 0
M  V30 2166 O 211.56 -0.417921 1.75081 0
M  V30 2167 H 207.935 0.0994853 0.74539 0
M  V30 2168 H 209.906 1.22406 2.72138 0
M  V30 2169 C 208.655 -0.393159 3.4547 0
M  V30 2170 H 207.978 0.290332 3.98744 0
M  V30 2171 H 209.418 -0.731189 4.17648 0
M  V30 2172 C 207.877 -1.59539 2.9673 0
M  V30 2173 O 208.407 -2.69469 2.97908 0
M  V30 2174 N 206.613 -1.43716 2.52575 0
M  V30 2175 H 206.16 -0.542828 2.51816 0
M  V30 2176 H 206.118 -2.24288 2.20323 0
M  V30 2177 N 209.89 -1.43072 0.660911 0
M  V30 2178 C 211.306 -1.56169 0.329173 0
M  V30 2179 C 211.506 -1.64317 -1.16629 0
M  V30 2180 O 210.562 -1.60245 -1.95135 0
M  V30 2181 C 211.875 -2.81873 1.04729 0
M  V30 2182 C 213.423 -2.95627 1.02828 0
M  V30 2183 C 213.898 -4.24174 1.72744 0
M  V30 2184 N 215.389 -4.31055 1.69545 0
M  V30 2185 C 216.124 -5.29304 2.20511 0
M  V30 2186 N 215.62 -6.33786 2.79799 0
M  V30 2187 N 217.413 -5.21008 2.10966 0
M  V30 2188 H 209.564 -1.36027 1.63127 0
M  V30 2189 H 211.827 -0.653823 0.686454 0
M  V30 2190 H 211.533 -2.81942 2.10242 0
M  V30 2191 H 211.407 -3.72338 0.603702 0
M  V30 2192 H 213.794 -2.95094 -0.0184742 0
M  V30 2193 H 213.875 -2.06431 1.51063 0
M  V30 2194 H 213.519 -4.25467 2.7738 0
M  V30 2195 H 213.449 -5.1228 1.2197 0
M  V30 2196 H 215.94 -3.56174 1.26288 0
M  V30 2197 H 216.253 -7.05086 3.16344 0
M  V30 2198 H 214.598 -6.34387 2.83863 0
M  V30 2199 H 217.789 -4.38301 1.64347 0
M  V30 2200 H 217.962 -5.97416 2.50993 0
M  V30 2201 N 211.368 -0.403325 -1.52352 0
M  V30 2202 C 212.596 0.174012 -2.06167 0
M  V30 2203 C 213.011 1.39347 -1.27388 0
M  V30 2204 O 212.368 1.79597 -0.324201 0
M  V30 2205 C 212.419 0.530223 -3.5759 0
M  V30 2206 O 212.14 -0.640806 -4.33388 0
M  V30 2207 C 213.641 1.16192 -4.27802 0
M  V30 2208 H 210.861 0.0229464 -0.670608 0
M  V30 2209 H 213.405 -0.572604 -1.9632 0
M  V30 2210 H 211.56 1.22673 -3.67464 0
M  V30 2211 H 211.974 -0.344851 -5.23365 0
M  V30 2212 H 213.448 1.36141 -5.34948 0
M  V30 2213 H 213.925 2.13335 -3.83907 0
M  V30 2214 H 214.531 0.505775 -4.22282 0
M  V30 2215 N 212.846 1.57033 -0.133567 0
M  V30 2216 C 214.086 1.97575 0.523789 0
M  V30 2217 C 214.45 1.01605 1.62912 0
M  V30 2218 O 215.651 1.3114 2.3464 0
M  V30 2219 C 213.922 3.42256 1.02935 0
M  V30 2220 S 215.481 4.04817 1.69319 0
M  V30 2221 H 212.299 0.690427 0.169799 0
M  V30 2222 H 214.901 1.94234 -0.222101 0
M  V30 2223 H 213.605 4.09842 0.213917 0
M  V30 2224 H 213.136 3.4928 1.81017 0
M  V30 2225 H 215.151 3.96767 2.97977 0
M  V30 2226 N 214.325 -0.140222 1.56975 0
M  V30 2227 C 215.257 -1.19818 1.95388 0
M  V30 2228 C 216.27 -1.38816 0.850525 0
M  V30 2229 O 217.459 -1.38267 1.12891 0
M  V30 2230 C 214.559 -2.56189 2.21857 0
M  V30 2231 C 213.732 -2.58077 3.5315 0
M  V30 2232 C 212.791 -3.76037 3.6808 0
M  V30 2233 O 211.817 -3.60598 4.40406 0
M  V30 2234 N 213.019 -4.93763 3.05251 0
M  V30 2235 H 215.784 -0.871609 2.86746 0
M  V30 2236 H 213.345 -0.32972 1.58507 0
M  V30 2237 H 215.337 -3.33623 2.2908 0
M  V30 2238 H 213.907 -2.81111 1.36731 0
M  V30 2239 H 213.127 -1.6651 3.57307 0
M  V30 2240 H 214.415 -2.56377 4.39486 0
M  V30 2241 H 213.813 -5.09209 2.46419 0
M  V30 2242 H 212.37 -5.68949 3.18026 0
M  V30 2243 N 215.803 -1.52179 -0.40978 0
M  V30 2244 C 217.049 -1.66453 -1.15851 0
M  V30 2245 C 217.382 -0.392972 -1.90182 0
M  V30 2246 O 216.657 0.608579 -1.84734 0
M  V30 2247 C 216.94 -2.88612 -2.15349 0
M  V30 2248 C 216.793 -4.25815 -1.44918 0
M  V30 2249 C 218.112 -3.06294 -3.16026 0
M  V30 2250 H 215.231 -0.60575 -0.419805 0
M  V30 2251 H 217.873 -1.84732 -0.444314 0
M  V30 2252 H 216.023 -2.73158 -2.76255 0
M  V30 2253 H 217.695 -4.52995 -0.871365 0
M  V30 2254 H 215.938 -4.27247 -0.751159 0
M  V30 2255 H 216.609 -5.07337 -2.17516 0
M  V30 2256 H 219.085 -3.20641 -2.65195 0
M  V30 2257 H 217.961 -3.93283 -3.8291 0
M  V30 2258 H 218.222 -2.19579 -3.83715 0
M  V30 2259 N 217.281 0.66697 -1.42791 0
M  V30 2260 C 218.229 1.80157 -1.47127 0
M  V30 2261 C 219.223 1.65825 -0.346199 0
M  V30 2262 O 220.429 1.72338 -0.519572 0
M  V30 2263 H 216.804 0.594158 -0.460956 0
M  V30 2264 H 218.775 1.73619 -2.42692 0
M  V30 2265 C 217.524 3.18351 -1.39813 0
M  V30 2266 H 216.847 3.3001 -2.25684 0
M  V30 2267 H 218.287 3.97736 -1.46908 0
M  V30 2268 C 216.746 3.36707 -0.11391 0
M  V30 2269 O 217.276 3.93027 0.830241 0
M  V30 2270 N 215.482 2.90586 -0.0285295 0
M  V30 2271 H 215.029 2.4494 -0.79764 0
M  V30 2272 H 214.987 3.03245 0.830063 0
M  V30 2273 N 218.759 1.29093 0.90403 0
M  V30 2274 C 220.007 1.16583 1.65085 0
M  V30 2275 C 220.328 -0.283933 1.92922 0
M  V30 2276 O 219.598 -1.19509 1.55224 0
M  V30 2277 H 218.178 0.428467 0.611903 0
M  V30 2278 H 220.84 1.61959 1.08422 0
M  V30 2279 H 219.936 1.71266 2.6091 0
M  V30 2280 N 220.237 -1.11381 1.11499 0
M  V30 2281 C 221.653 -1.35143 0.849031 0
M  V30 2282 C 221.853 -1.94515 -0.525938 0
M  V30 2283 O 220.909 -2.1785 -1.27662 0
M  V30 2284 C 222.222 -2.28249 1.95762 0
M  V30 2285 C 223.77 -2.41812 1.98736 0
M  V30 2286 C 224.245 -3.3824 3.088 0
M  V30 2287 N 225.736 -3.45803 3.08179 0
M  V30 2288 C 226.471 -4.20358 3.89982 0
M  V30 2289 N 225.967 -4.97884 4.8175 0
M  V30 2290 N 227.76 -4.15877 3.78157 0
M  V30 2291 H 219.911 -0.712062 2.00109 0
M  V30 2292 H 222.174 -0.376025 0.870235 0
M  V30 2293 H 221.88 -1.91817 2.94787 0
M  V30 2294 H 221.754 -3.28473 1.85433 0
M  V30 2295 H 224.141 -2.77518 1.00338 0
M  V30 2296 H 224.222 -1.41437 2.13141 0
M  V30 2297 H 223.866 -3.03261 4.07425 0
M  V30 2298 H 223.796 -4.38471 2.91635 0
M  V30 2299 H 226.287 -2.90506 2.41691 0
M  V30 2300 H 226.6 -5.52142 5.40702 0
M  V30 2301 H 224.945 -4.97043 4.85771 0
M  V30 2302 H 228.136 -3.544 3.05808 0
M  V30 2303 H 228.309 -4.73723 4.42143 0
M  V30 2304 N 221.715 -0.905404 -1.28997 0
M  V30 2305 C 222.961 -0.544465 -1.95977 0
M  V30 2306 C 223.316 0.90041 -1.70031 0
M  V30 2307 O 222.609 1.63064 -1.00601 0
M  V30 2308 C 222.803 -0.779906 -3.48787 0
M  V30 2309 C 222.632 -2.24612 -3.89589 0
M  V30 2310 C 221.402 -2.89464 -4.14172 0
M  V30 2311 C 223.6 -3.22182 -4.00878 0
M  V30 2312 N 221.582 -4.26469 -4.41585 0
M  V30 2313 C 222.953 -4.44323 -4.32409 0
M  V30 2314 C 225.008 -3.17694 -3.83373 0
M  V30 2315 C 223.711 -5.62546 -4.48258 0
M  V30 2316 C 225.737 -4.35208 -4.00435 0
M  V30 2317 C 225.099 -5.56121 -4.3233 0
M  V30 2318 H 221.198 -0.248948 -0.741316 0
M  V30 2319 H 223.782 -1.1674 -1.5582 0
M  V30 2320 H 221.953 -0.186308 -3.87953 0
M  V30 2321 H 223.685 -0.383833 -4.02876 0
M  V30 2322 H 220.44 -2.40232 -4.08149 0
M  V30 2323 H 220.864 -4.97283 -4.5939 0
M  V30 2324 H 225.506 -2.25297 -3.57773 0
M  V30 2325 H 223.224 -6.55429 -4.72692 0
M  V30 2326 H 226.81 -4.33228 -3.88336 0
M  V30 2327 H 225.69 -6.45537 -4.45255 0
M  V30 2328 N 223.193 1.4272 -0.668489 0
M  V30 2329 C 224.418 2.06484 -0.194758 0
M  V30 2330 C 224.843 1.49862 1.13679 0
M  V30 2331 O 224.201 0.614582 1.70565 0
M  V30 2332 C 224.249 3.60353 -0.133546 0
M  V30 2333 O 223.353 4.02464 0.899806 0
M  V30 2334 H 222.694 0.656137 -0.10188 0
M  V30 2335 H 225.224 1.82964 -0.915722 0
M  V30 2336 H 225.234 4.07976 0.0447041 0
M  V30 2337 H 223.909 4.00938 -1.1055 0
M  V30 2338 H 222.486 3.66402 0.693109 0
M  V30 2339 N 224.671 0.411399 1.52136 0
M  V30 2340 C 225.919 -0.163322 2.01439 0
M  V30 2341 C 226.24 -1.45453 1.29879 0
M  V30 2342 O 225.51 -1.91225 0.4254 0
M  V30 2343 H 224.09 -0.0633447 0.744309 0
M  V30 2344 H 226.752 0.548161 1.87033 0
M  V30 2345 H 225.848 -0.357817 3.10042 0
M  V30 2346 N 226.149 -1.5696 0.141893 0
M  V30 2347 C 227.081 -2.13619 -0.830627 0
M  V30 2348 C 228.094 -1.08439 -1.21428 0
M  V30 2349 O 229.283 -1.35734 -1.15925 0
M  V30 2350 C 226.383 -2.63978 -2.12529 0
M  V30 2351 C 225.556 -3.93504 -1.9098 0
M  V30 2352 C 224.615 -4.29225 -3.04388 0
M  V30 2353 O 223.641 -4.97641 -2.76302 0
M  V30 2354 N 224.843 -3.88393 -4.31429 0
M  V30 2355 H 227.608 -2.97691 -0.34641 0
M  V30 2356 H 225.169 -1.61846 -0.0418375 0
M  V30 2357 H 227.161 -2.84891 -2.87436 0
M  V30 2358 H 225.731 -1.84659 -2.52229 0
M  V30 2359 H 224.951 -3.81269 -1.00139 0
M  V30 2360 H 226.239 -4.78154 -1.73914 0
M  V30 2361 H 225.637 -3.33257 -4.57117 0
M  V30 2362 H 224.194 -4.14368 -5.03133 0
M  V30 2363 N 227.627 0.131896 -1.57047 0
M  V30 2364 C 228.855 0.856461 -1.88341 0
M  V30 2365 C 229.27 1.74042 -0.731757 0
M  V30 2366 O 228.627 1.80051 0.297945 0
M  V30 2367 C 228.678 1.70064 -3.18999 0
M  V30 2368 O 228.399 0.852278 -4.2973 0
M  V30 2369 C 229.9 2.53148 -3.63911 0
M  V30 2370 H 227.12 0.246885 -0.62393 0
M  V30 2371 H 229.664 0.120152 -2.04147 0
M  V30 2372 H 227.819 2.38984 -3.04902 0
M  V30 2373 H 228.233 1.43329 -5.04537 0
M  V30 2374 H 229.707 3.07931 -4.58129 0
M  V30 2375 H 230.184 3.29901 -2.89935 0
M  V30 2376 H 230.79 1.89492 -3.80753 0
M  V30 2377 N 229.106 1.52395 0.401703 0
M  V30 2378 C 230.069 1.75636 1.47257 0
M  V30 2379 C 231.069 0.62628 1.48103 0
M  V30 2380 O 232.259 0.894227 1.49497 0
M  V30 2381 C 229.391 1.84553 2.86624 0
M  V30 2382 H 230.584 2.71241 1.27938 0
M  V30 2383 H 228.137 1.42923 0.632662 0
M  V30 2384 H 228.872 0.908882 3.11303 0
M  V30 2385 H 228.657 2.66715 2.87412 0
M  V30 2386 H 230.147 2.04251 3.64241 0
M  V30 2387 N 230.584 -0.659388 1.43143 0
M  V30 2388 C 231.833 -1.41518 1.43721 0
M  V30 2389 C 232.146 -1.95499 0.0628176 0
M  V30 2390 O 233.352 -2.71446 -0.0539683 0
M  V30 2391 C 231.808 -2.5608 2.52885 0
M  V30 2392 C 231.416 -2.08733 3.96402 0
M  V30 2393 C 233.16 -3.3349 2.62649 0
M  V30 2394 C 231.067 -3.20469 4.97045 0
M  V30 2395 H 229.997 -0.531705 0.534608 0
M  V30 2396 H 232.648 -0.712343 1.69109 0
M  V30 2397 H 231.03 -3.28805 2.20688 0
M  V30 2398 H 232.204 -1.43059 4.3803 0
M  V30 2399 H 230.519 -1.44219 3.90627 0
M  V30 2400 H 233.116 -4.16734 3.35017 0
M  V30 2401 H 233.459 -3.8111 1.67513 0
M  V30 2402 H 233.992 -2.67842 2.94118 0
M  V30 2403 H 230.731 -2.77824 5.93712 0
M  V30 2404 H 230.251 -3.84874 4.60034 0
M  V30 2405 H 231.93 -3.85698 5.19467 0
M  V30 2406 N 232.062 -1.29571 -0.897171 0
M  V30 2407 C 233.302 -1.18959 -1.66217 0
M  V30 2408 C 233.666 0.254271 -1.90309 0
M  V30 2409 O 234.867 0.483407 -2.64417 0
M  V30 2410 C 233.138 -1.98302 -2.9734 0
M  V30 2411 S 234.697 -2.04253 -3.88364 0
M  V30 2412 H 231.515 -0.424137 -0.570639 0
M  V30 2413 H 234.117 -1.6389 -1.06585 0
M  V30 2414 H 232.821 -3.02342 -2.77521 0
M  V30 2415 H 232.352 -1.53986 -3.62011 0
M  V30 2416 H 234.367 -1.16105 -4.82425 0
M  V30 2417 N 233.54 1.10788 -1.12088 0
M  V30 2418 C 234.817 1.79136 -0.785476 0
M  V30 2419 C 235.197 1.98246 0.725377 0
M  V30 2420 O 234.545 1.57258 1.65778 0
M  V30 2421 C 234.755 3.12375 -1.55636 0
M  V30 2422 C 236.103 3.8731 -1.74001 0
M  V30 2423 O 237.127 3.22085 -1.52117 0
M  V30 2424 O 235.986 5.04369 -2.10415 0
M  V30 2425 H 233.08 0.776226 -0.285311 0
M  V30 2426 H 235.626 1.1747 -1.2247 0
M  V30 2427 H 234.398 2.93863 -2.5838 0
M  V30 2428 H 234.021 3.81758 -1.11114 0
M  V30 2429 N 235.018 0.912232 1.28515 0
M  V30 2430 C 235.966 0.389597 2.29314 0
M  V30 2431 C 236.96 -0.517915 1.61289 0
M  V30 2432 O 238.166 -0.399328 1.75515 0
M  V30 2433 H 234.541 0.107386 0.744293 0
M  V30 2434 H 236.512 1.25286 2.70825 0
M  V30 2435 C 235.261 -0.356496 3.45868 0
M  V30 2436 H 234.584 0.332608 3.98414 0
M  V30 2437 H 236.024 -0.686851 4.184 0
M  V30 2438 C 234.483 -1.56383 2.98406 0
M  V30 2439 O 235.013 -2.66294 3.00749 0
M  V30 2440 N 233.219 -1.41029 2.54085 0
M  V30 2441 H 232.766 -0.516089 2.52377 0
M  V30 2442 H 232.724 -2.21939 2.22689 0
M  V30 2443 N 236.496 -1.42363 0.676048 0
M  V30 2444 C 237.744 -2.01123 0.198437 0
M  V30 2445 C 238.065 -1.53731 -1.19966 0
M  V30 2446 O 237.335 -0.759518 -1.80577 0
M  V30 2447 H 235.915 -0.743678 0.0703721 0
M  V30 2448 H 238.577 -1.74263 0.872837 0
M  V30 2449 H 237.673 -3.11454 0.200686 0
M  V30 2450 N 237.974 -0.419461 -1.51915 0
M  V30 2451 C 238.937 0.389116 -2.25873 0
M  V30 2452 C 239.937 0.964924 -1.28631 0
M  V30 2453 O 241.127 0.842179 -1.52489 0
M  V30 2454 C 238.259 1.54874 -3.03689 0
M  V30 2455 H 239.452 -0.258799 -2.98781 0
M  V30 2456 H 237.005 -0.172209 -1.55348 0
M  V30 2457 H 237.74 2.23323 -2.35154 0
M  V30 2458 H 237.525 1.14223 -3.75094 0
M  V30 2459 H 239.015 2.12046 -3.59759 0
M  V30 2460 N 239.452 1.56882 -0.150215 0
M  V30 2461 C 240.7 1.9584 0.499105 0
M  V30 2462 C 241.021 1.03623 1.65188 0
M  V30 2463 O 240.291 0.0984084 1.95653 0
M  V30 2464 H 238.871 0.723119 0.187373 0
M  V30 2465 H 241.533 1.9358 -0.226466 0
M  V30 2466 H 240.629 2.99638 0.873122 0
M  V30 2467 N 240.93 -0.123565 1.57115 0
M  V30 2468 C 242.16 -0.845233 1.88519 0
M  V30 2469 C 242.568 -1.74168 0.739064 0
M  V30 2470 O 241.911 -1.81244 -0.299355 0
M  V30 2471 C 241.973 -1.73452 3.14888 0
M  V30 2472 C 241.637 -1.01285 4.45635 0
M  V30 2473 C 242.634 -0.355774 5.18681 0
M  V30 2474 C 240.319 -0.99538 4.92339 0
M  V30 2475 C 242.313 0.309114 6.3665 0
M  V30 2476 C 240 -0.32669 6.10226 0
M  V30 2477 C 240.998 0.324406 6.82229 0
M  V30 2478 O 240.686 0.982437 7.97874 0
M  V30 2479 H 240.418 -0.248534 0.628655 0
M  V30 2480 H 242.972 -0.113907 2.05084 0
M  V30 2481 H 241.202 -2.50737 2.94394 0
M  V30 2482 H 242.891 -2.33021 3.32349 0
M  V30 2483 H 243.657 -0.360918 4.83655 0
M  V30 2484 H 239.536 -1.49159 4.36202 0
M  V30 2485 H 243.08 0.8179 6.92789 0
M  V30 2486 H 238.977 -0.319294 6.4471 0
M  V30 2487 H 239.745 0.886454 8.13686 0
M  V30 2488 N 242.408 -1.52605 -0.393616 0
M  V30 2489 C 243.648 -1.6911 -1.1481 0
M  V30 2490 C 244.012 -0.41969 -1.87357 0
M  V30 2491 O 245.213 -0.461034 -2.64817 0
M  V30 2492 C 243.484 -2.88909 -2.10395 0
M  V30 2493 S 245.043 -3.25977 -2.93742 0
M  V30 2494 H 241.861 -0.595337 -0.38871 0
M  V30 2495 H 244.463 -1.90641 -0.433178 0
M  V30 2496 H 243.167 -3.79672 -1.55812 0
M  V30 2497 H 242.698 -2.69698 -2.86403 0
M  V30 2498 H 244.713 -2.75806 -4.12487 0
M  V30 2499 N 243.887 0.651787 -1.4349 0
M  V30 2500 C 245.112 1.44434 -1.48841 0
M  V30 2501 C 245.537 1.8779 -0.107955 0
M  V30 2502 O 244.895 1.57464 0.898602 0
M  V30 2503 C 244.943 2.65458 -2.44059 0
M  V30 2504 O 244.047 3.64566 -1.92784 0
M  V30 2505 H 243.388 0.433005 -0.503391 0
M  V30 2506 H 245.918 0.797451 -1.88419 0
M  V30 2507 H 245.928 3.13255 -2.6141 0
M  V30 2508 H 244.603 2.33244 -3.4434 0
M  V30 2509 H 243.18 3.23716 -1.851 0
M  V30 2510 N 245.365 1.30045 0.890287 0
M  V30 2511 C 246.313 1.15873 2.01683 0
M  V30 2512 C 247.307 0.0719403 1.69247 0
M  V30 2513 O 248.513 0.232414 1.78493 0
M  V30 2514 H 244.888 0.358203 0.661207 0
M  V30 2515 H 246.859 2.11229 2.10772 0
M  V30 2516 C 245.608 0.861842 3.36849 0
M  V30 2517 H 244.931 1.69016 3.62317 0
M  V30 2518 H 246.371 0.802762 4.16331 0
M  V30 2519 C 244.83 -0.435132 3.34078 0
M  V30 2520 O 245.36 -1.4583 3.74295 0
M  V30 2521 N 243.566 -0.444377 2.87182 0
M  V30 2522 H 243.113 0.388723 2.5465 0
M  V30 2523 H 243.071 -1.31213 2.85711 0
M  V30 2524 N 246.843 -1.10192 1.12674 0
M  V30 2525 C 248.254 -1.63707 0.897604 0
M  V30 2526 C 248.605 -1.87812 -0.567546 0
M  V30 2527 O 247.73 -1.62196 -1.43253 0
M  V30 2528 C 248.325 -2.974 1.62292 0
M  V30 2529 C 246.884 -3.47772 1.43986 0
M  V30 2530 C 246.031 -2.22332 1.65722 0
M  V30 2531 H 248.982 -0.936587 1.28116 0
M  V30 2532 H 249.003 -3.64986 1.07541 0
M  V30 2533 H 248.515 -2.79824 2.68924 0
M  V30 2534 H 246.616 -3.70487 0.396206 0
M  V30 2535 H 246.729 -4.25723 2.19765 0
M  V30 2536 H 245.093 -2.30599 1.08149 0
M  V30 2537 H 245.876 -2.07285 2.73657 0
M  V30 2538 N 248.321 -0.919034 -1.28029 0
M  V30 2539 C 249.569 -0.553838 -1.94363 0
M  V30 2540 C 249.89 0.906357 -1.72656 0
M  V30 2541 O 249.16 1.64143 -1.0693 0
M  V30 2542 H 247.74 -0.201834 -0.719216 0
M  V30 2543 H 250.402 -1.16954 -1.55909 0
M  V30 2544 H 249.498 -0.752758 -3.02886 0
M  V30 2545 N 249.799 1.42003 -0.683588 0
M  V30 2546 C 251.048 2.00638 -0.206681 0
M  V30 2547 C 251.361 1.5472 1.19671 0
M  V30 2548 O 252.567 2.05833 1.77045 0
M  V30 2549 C 251.023 3.58487 -0.318632 0
M  V30 2550 C 250.631 4.1339 -1.72663 0
M  V30 2551 C 252.375 4.24384 0.0991141 0
M  V30 2552 C 250.282 5.63633 -1.79087 0
M  V30 2553 H 249.212 0.750408 -0.0735107 0
M  V30 2554 H 251.863 1.62624 -0.850048 0
M  V30 2555 H 250.245 3.94047 0.392781 0
M  V30 2556 H 251.419 3.89273 -2.46583 0
M  V30 2557 H 249.734 3.59976 -2.09299 0
M  V30 2558 H 252.331 5.34652 0.0713833 0
M  V30 2559 H 252.674 4.00505 1.13586 0
M  V30 2560 H 253.207 3.93816 -0.561599 0
M  V30 2561 H 249.946 5.92323 -2.80774 0
M  V30 2562 H 249.466 5.89714 -1.09535 0
M  V30 2563 H 251.145 6.28201 -1.5483 0
M  V30 2564 N 251.277 0.427512 1.51691 0
M  V30 2565 C 252.688 -0.0378867 1.86662 0
M  V30 2566 C 253.039 -1.42819 1.34525 0
M  V30 2567 O 252.164 -2.05037 0.692014 0
M  V30 2568 C 252.759 -0.0755266 3.38716 0
M  V30 2569 C 251.318 -0.485309 3.73258 0
M  V30 2570 C 250.465 0.328399 2.75349 0
M  V30 2571 H 253.416 0.64379 1.45055 0
M  V30 2572 H 253.437 -0.887056 3.70016 0
M  V30 2573 H 252.949 0.936487 3.76632 0
M  V30 2574 H 251.05 -1.50329 3.40928 0
M  V30 2575 H 251.163 -0.21693 4.78609 0
M  V30 2576 H 249.527 -0.211905 2.53817 0
M  V30 2577 H 250.31 1.3391 3.16106 0
M  V30 2578 N 252.755 -1.56801 0.158532 0
M  V30 2579 C 254.004 -1.95665 -0.489702 0
M  V30 2580 C 254.317 -1.04654 -1.65248 0
M  V30 2581 O 255.523 -1.33146 -2.3661 0
M  V30 2582 C 253.979 -3.47874 -0.922582 0
M  V30 2583 C 253.587 -4.47489 0.213893 0
M  V30 2584 C 255.331 -3.95583 -1.53996 0
M  V30 2585 C 253.238 -5.90921 -0.237903 0
M  V30 2586 H 252.168 -0.730516 -0.186716 0
M  V30 2587 H 254.819 -1.81861 0.244722 0
M  V30 2588 H 253.201 -3.57051 -1.71261 0
M  V30 2589 H 254.375 -4.50017 0.991036 0
M  V30 2590 H 252.69 -4.09764 0.740407 0
M  V30 2591 H 255.287 -5.0019 -1.8898 0
M  V30 2592 H 255.63 -3.37789 -2.43319 0
M  V30 2593 H 256.163 -3.8937 -0.814611 0
M  V30 2594 H 252.902 -6.52559 0.620236 0
M  V30 2595 H 252.422 -5.91729 -0.980676 0
M  V30 2596 H 254.101 -6.43352 -0.686067 0
M  V30 2597 N 254.233 0.115231 -1.57178 0
M  V30 2598 C 255.481 0.820727 -1.84685 0
M  V30 2599 C 255.802 1.80237 -0.744279 0
M  V30 2600 O 255.072 1.94529 0.231375 0
M  V30 2601 H 253.652 0.306084 -0.681411 0
M  V30 2602 H 256.314 0.101656 -1.94635 0
M  V30 2603 H 255.41 1.36366 -2.80733 0
M  V30 2604 N 255.711 1.52812 0.385517 0
M  V30 2605 C 256.939 1.71907 1.15133 0
M  V30 2606 C 257.354 0.439004 1.83625 0
M  V30 2607 O 256.711 -0.586765 1.7281 0
M  V30 2608 C 256.762 2.87099 2.19673 0
M  V30 2609 O 256.483 4.10151 1.53973 0
M  V30 2610 C 257.984 3.17902 3.08955 0
M  V30 2611 H 255.204 0.575479 0.345057 0
M  V30 2612 H 257.748 1.99476 0.45052 0
M  V30 2613 H 255.903 2.61982 2.85384 0
M  V30 2614 H 256.317 4.74514 2.23465 0
M  V30 2615 H 257.791 4.01959 3.7833 0
M  V30 2616 H 258.268 2.3243 3.72657 0
M  V30 2617 H 258.874 3.44871 2.48885 0
M  V30 2618 N 257.189 -0.644168 1.43834 0
M  V30 2619 C 258.605 -0.960875 1.27434 0
M  V30 2620 C 258.805 -2.00499 0.200618 0
M  V30 2621 O 257.861 -2.49018 -0.417906 0
M  V30 2622 C 259.174 -1.43653 2.64167 0
M  V30 2623 C 260.722 -1.55271 2.71772 0
M  V30 2624 C 261.197 -2.06224 4.08944 0
M  V30 2625 N 262.688 -2.13513 4.11055 0
M  V30 2626 C 263.423 -2.54081 5.14033 0
M  V30 2627 N 262.919 -2.9388 6.27381 0
M  V30 2628 N 264.712 -2.54101 5.01387 0
M  V30 2629 H 256.863 0.0465779 2.12349 0
M  V30 2630 H 259.126 -0.0417638 0.94708 0
M  V30 2631 H 258.832 -0.743706 3.43747 0
M  V30 2632 H 258.706 -2.40993 2.90176 0
M  V30 2633 H 261.093 -2.23653 1.92519 0
M  V30 2634 H 261.174 -0.563395 2.49519 0
M  V30 2635 H 260.818 -1.38441 4.88668 0
M  V30 2636 H 260.748 -3.06003 4.28567 0
M  V30 2637 H 263.239 -1.85493 3.29242 0
M  V30 2638 H 263.552 -3.2361 7.01781 0
M  V30 2639 H 261.897 -2.91663 6.30839 0
M  V30 2640 H 265.088 -2.22391 4.11898 0
M  V30 2641 H 265.261 -2.85394 5.81768 0
M  V30 2642 N 258.668 -1.30515 -0.883378 0
M  V30 2643 C 259.615 -1.17032 -1.98927 0
M  V30 2644 C 260.585 -0.0594241 -1.65994 0
M  V30 2645 O 261.77 -0.229895 -1.8941 0
M  V30 2646 C 258.91 -0.869777 -3.33959 0
M  V30 2647 C 258.023 -2.06271 -3.79574 0
M  V30 2648 C 257.158 -1.70011 -5.03259 0
M  V30 2649 C 256.197 -2.8579 -5.41286 0
M  V30 2650 N 255.334 -2.49816 -6.56153 0
M  V30 2651 H 260.174 -2.1164 -2.09792 0
M  V30 2652 H 257.711 -1.05296 -1.02719 0
M  V30 2653 H 259.669 -0.676138 -4.11685 0
M  V30 2654 H 258.299 0.0394332 -3.22776 0
M  V30 2655 H 257.351 -2.36755 -2.97744 0
M  V30 2656 H 258.663 -2.92971 -4.03694 0
M  V30 2657 H 257.817 -1.47032 -5.88614 0
M  V30 2658 H 256.556 -0.804829 -4.81013 0
M  V30 2659 H 255.561 -3.09434 -4.54456 0
M  V30 2660 H 256.786 -3.76008 -5.65504 0
M  V30 2661 H 254.732 -1.62795 -6.35479 0
M  V30 2662 H 254.649 -3.30048 -6.8015 0
M  V30 2663 H 255.917 -2.30197 -7.44735 0
M  V30 2664 N 260.146 1.09593 -1.13257 0
M  V30 2665 C 261.392 1.82003 -0.89458 0
M  V30 2666 C 261.725 1.85402 0.577906 0
M  V30 2667 O 261 1.32099 1.42759 0
M  V30 2668 C 261.283 3.28237 -1.48096 0
M  V30 2669 C 261.136 3.3312 -3.02244 0
M  V30 2670 C 262.455 4.24871 -1.14774 0
M  V30 2671 H 259.574 0.66077 -0.326424 0
M  V30 2672 H 262.216 1.28389 -1.40058 0
M  V30 2673 H 260.366 3.74024 -1.05062 0
M  V30 2674 H 262.038 2.95748 -3.54021 0
M  V30 2675 H 260.281 2.72756 -3.37323 0
M  V30 2676 H 260.952 4.3613 -3.38371 0
M  V30 2677 H 263.428 3.87361 -1.51957 0
M  V30 2678 H 262.304 5.25532 -1.58452 0
M  V30 2679 H 262.565 4.42058 -0.0611849 0
M  V30 2680 N 261.624 0.925811 1.2754 0
M  V30 2681 C 262.872 0.564138 1.94067 0
M  V30 2682 C 263.193 -0.897188 1.73134 0
M  V30 2683 O 262.463 -1.63573 1.07799 0
M  V30 2684 H 261.043 0.205645 0.718136 0
M  V30 2685 H 263.705 1.1778 1.55287 0
M  V30 2686 H 262.801 0.76881 3.02483 0
M  V30 2687 N 263.102 -1.41638 0.69111 0
M  V30 2688 C 264.327 -2.06148 0.227583 0
M  V30 2689 C 264.752 -1.51652 -1.11281 0
M  V30 2690 O 264.11 -0.64164 -1.69566 0
M  V30 2691 C 264.158 -3.60095 0.190858 0
M  V30 2692 O 263.262 -4.03845 -0.835664 0
M  V30 2693 H 262.603 -0.654434 0.112306 0
M  V30 2694 H 265.133 -1.81484 0.944714 0
M  V30 2695 H 265.143 -4.07995 0.020207 0
M  V30 2696 H 263.818 -3.99129 1.16915 0
M  V30 2697 H 262.395 -3.67458 -0.63473 0
M  V30 2698 N 264.58 -0.43555 -1.51462 0
M  V30 2699 C 265.512 0.41257 -2.25456 0
M  V30 2700 C 266.525 0.987822 -1.29406 0
M  V30 2701 O 267.714 0.882266 -1.55172 0
M  V30 2702 C 264.814 1.58894 -2.99342 0
M  V30 2703 C 263.987 1.13288 -4.22474 0
M  V30 2704 C 263.046 2.17917 -4.78956 0
M  V30 2705 O 262.072 1.77425 -5.40841 0
M  V30 2706 N 263.274 3.50382 -4.62832 0
M  V30 2707 H 266.039 -0.221603 -2.9888 0
M  V30 2708 H 263.6 -0.264342 -1.59727 0
M  V30 2709 H 265.592 2.28508 -3.34015 0
M  V30 2710 H 264.162 2.12849 -2.28941 0
M  V30 2711 H 263.382 0.263881 -3.93316 0
M  V30 2712 H 264.67 0.805542 -5.02383 0
M  V30 2713 H 264.068 3.86013 -4.13534 0
M  V30 2714 H 262.625 4.15895 -5.01871 0
M  V30 2715 N 266.058 1.56714 -0.166846 0
M  V30 2716 C 267.288 2.00828 0.48494 0
M  V30 2717 C 267.696 1.04612 1.57648 0
M  V30 2718 O 267.039 0.0383201 1.8366 0
M  V30 2719 C 267.101 3.4137 1.12723 0
M  V30 2720 C 266.765 4.56654 0.177886 0
M  V30 2721 C 267.762 5.16402 -0.60207 0
M  V30 2722 C 265.447 5.02244 0.0750139 0
M  V30 2723 C 267.441 6.20167 -1.47215 0
M  V30 2724 C 265.128 6.05859 -0.798649 0
M  V30 2725 C 266.126 6.64691 -1.57082 0
M  V30 2726 O 265.814 7.66297 -2.42989 0
M  V30 2727 H 265.546 0.663587 0.128953 0
M  V30 2728 H 268.1 2.03692 -0.264365 0
M  V30 2729 H 266.33 3.35406 1.92457 0
M  V30 2730 H 268.019 3.69466 1.68076 0
M  V30 2731 H 268.785 4.82065 -0.53274 0
M  V30 2732 H 264.664 4.56167 0.665812 0
M  V30 2733 H 268.208 6.66016 -2.07531 0
M  V30 2734 H 264.105 6.39621 -0.869199 0
M  V30 2735 H 264.873 7.83601 -2.36455 0
M  V30 2736 N 267.536 -0.106894 1.57237 0
M  V30 2737 C 268.952 -0.46078 1.52804 0
M  V30 2738 C 269.152 -1.81184 0.881746 0
M  V30 2739 O 268.208 -2.48102 0.469224 0
M  V30 2740 C 269.521 -0.434127 2.9755 0
M  V30 2741 C 271.069 -0.516821 3.08704 0
M  V30 2742 C 271.544 -0.520436 4.55033 0
M  V30 2743 N 273.035 -0.58153 4.59535 0
M  V30 2744 C 273.77 -0.605973 5.70189 0
M  V30 2745 N 273.266 -0.587331 6.90306 0
M  V30 2746 N 275.059 -0.649895 5.5833 0
M  V30 2747 H 267.21 0.778203 1.9763 0
M  V30 2748 H 269.473 0.288403 0.903066 0
M  V30 2749 H 269.179 0.491197 3.48253 0
M  V30 2750 H 269.053 -1.25748 3.55622 0
M  V30 2751 H 271.44 -1.43256 2.57995 0
M  V30 2752 H 271.521 0.334449 2.53604 0
M  V30 2753 H 271.165 0.391313 5.0639 0
M  V30 2754 H 271.095 -1.38876 5.07958 0
M  V30 2755 H 273.586 -0.60161 3.73081 0
M  V30 2756 H 273.899 -0.60894 7.70397 0
M  V30 2757 H 272.244 -0.554564 6.92784 0
M  V30 2758 H 275.435 -0.661907 4.63397 0
M  V30 2759 H 275.608 -0.665476 6.44574 0
M  V30 2760 N 269.014 -1.53014 -0.377408 0
M  V30 2761 C 269.944 -1.81589 -1.46791 0
M  V30 2762 C 270.925 -0.668622 -1.56408 0
M  V30 2763 O 272.11 -0.917337 -1.71168 0
M  V30 2764 C 269.24 -1.99519 -2.8427 0
M  V30 2765 C 268.194 -3.15249 -2.89486 0
M  V30 2766 C 267.52 -3.18451 -4.29527 0
M  V30 2767 C 268.82 -4.54084 -2.58079 0
M  V30 2768 H 270.514 -2.7291 -1.23127 0
M  V30 2769 H 268.06 -1.31319 -0.590883 0
M  V30 2770 H 270.013 -2.18092 -3.60575 0
M  V30 2771 H 268.737 -1.04897 -3.09296 0
M  V30 2772 H 267.396 -2.96477 -2.15631 0
M  V30 2773 H 267.044 -2.2149 -4.5161 0
M  V30 2774 H 266.744 -3.962 -4.33934 0
M  V30 2775 H 268.268 -3.39193 -5.07721 0
M  V30 2776 H 269.682 -4.72899 -3.24098 0
M  V30 2777 H 268.079 -5.33987 -2.7382 0
M  V30 2778 H 269.149 -4.60006 -1.53372 0
M  V30 2779 N 270.492 0.636531 -1.44174 0
M  V30 2780 C 271.402 1.77754 -1.53103 0
M  V30 2781 C 272.418 1.68928 -0.417034 0
M  V30 2782 O 273.594 1.89801 -0.6736 0
M  V30 2783 C 270.659 3.14115 -1.46741 0
M  V30 2784 C 269.72 3.34612 -2.68948 0
M  V30 2785 C 268.953 4.64467 -2.6288 0
M  V30 2786 O 269.176 5.44919 -1.68581 0
M  V30 2787 O 268.11 4.87049 -3.53648 0
M  V30 2788 H 271.936 1.73174 -2.49489 0
M  V30 2789 H 269.521 0.79709 -1.2636 0
M  V30 2790 H 271.403 3.95412 -1.45696 0
M  V30 2791 H 270.078 3.19249 -0.534975 0
M  V30 2792 H 268.985 2.53014 -2.75562 0
M  V30 2793 H 270.318 3.34336 -3.61221 0
M  V30 2794 N 271.97 1.30982 0.876444 0
M  V30 2795 C 273.247 1.10942 1.61094 0
M  V30 2796 C 273.627 -0.338223 2.08373 0
M  V30 2797 O 272.975 -1.33122 1.85717 0
M  V30 2798 C 273.185 2.11789 2.77392 0
M  V30 2799 C 274.533 2.43965 3.47514 0
M  V30 2800 O 275.557 2.10166 2.87591 0
M  V30 2801 O 274.416 3.01817 4.55597 0
M  V30 2802 H 271.51 0.42667 0.708436 0
M  V30 2803 H 274.056 1.42438 0.922474 0
M  V30 2804 H 272.828 3.09194 2.39823 0
M  V30 2805 H 272.451 1.81161 3.5393 0
M  V30 2806 N 273.449 -1.08991 1.13837 0
M  V30 2807 C 274.674 -1.85551 0.926585 0
M  V30 2808 C 275.099 -1.80782 -0.519566 0
M  V30 2809 O 274.457 -1.18855 -1.36906 0
M  V30 2810 C 274.505 -3.31266 1.42462 0
M  V30 2811 O 273.609 -4.07822 0.612789 0
M  V30 2812 H 272.95 -0.575192 0.331738 0
M  V30 2813 H 275.48 -1.37604 1.51414 0
M  V30 2814 H 275.49 -3.82112 1.43019 0
M  V30 2815 H 274.165 -3.34052 2.47754 0
M  V30 2816 H 272.742 -3.66731 0.675463 0
M  V30 2817 N 274.927 -0.932562 -1.27047 0
M  V30 2818 C 276.173 -0.576412 -1.94436 0
M  V30 2819 C 276.506 0.880891 -1.73072 0
M  V30 2820 O 275.781 1.62905 -1.06264 0
M  V30 2821 C 276.064 -0.909031 -3.48437 0
M  V30 2822 C 275.917 -2.42044 -3.79123 0
M  V30 2823 C 277.236 -0.418341 -4.38107 0
M  V30 2824 H 274.355 -0.210888 -0.706184 0
M  V30 2825 H 276.997 -1.16522 -1.50075 0
M  V30 2826 H 275.147 -0.407947 -3.86352 0
M  V30 2827 H 276.819 -2.99359 -3.50973 0
M  V30 2828 H 275.062 -2.86758 -3.25503 0
M  V30 2829 H 275.733 -2.6037 -4.86736 0
M  V30 2830 H 278.209 -0.847856 -4.0737 0
M  V30 2831 H 277.085 -0.679981 -5.44672 0
M  V30 2832 H 277.346 0.681642 -4.36814 0
M  V30 2833 N 276.405 1.4127 -0.698611 0
M  V30 2834 C 277.633 2.05503 -0.239992 0
M  V30 2835 C 278.048 1.52584 1.11191 0
M  V30 2836 O 277.405 0.675323 1.69545 0
M  V30 2837 C 277.456 3.60987 -0.192429 0
M  V30 2838 O 277.177 4.1195 -1.49094 0
M  V30 2839 C 278.678 4.42371 0.28681 0
M  V30 2840 H 275.898 0.661748 -0.111045 0
M  V30 2841 H 278.442 1.80987 -0.95205 0
M  V30 2842 H 276.597 3.84533 0.470472 0
M  V30 2843 H 277.011 5.06018 -1.38007 0
M  V30 2844 H 278.485 5.51344 0.26896 0
M  V30 2845 H 278.962 4.18699 1.32619 0
M  V30 2846 H 279.568 4.23897 -0.345201 0
M  V30 2847 N 277.883 0.443576 1.51229 0
M  V30 2848 C 279.113 -0.119117 2.06256 0
M  V30 2849 C 279.521 -1.36471 1.31043 0
M  V30 2850 O 278.864 -1.80034 0.365151 0
M  V30 2851 C 278.926 -0.500546 3.55998 0
M  V30 2852 C 278.59 0.639125 4.52509 0
M  V30 2853 C 279.587 1.51311 4.97394 0
M  V30 2854 C 277.272 0.821632 4.95535 0
M  V30 2855 C 279.266 2.55425 5.83984 0
M  V30 2856 C 276.953 1.86603 5.81913 0
M  V30 2857 C 277.951 2.73072 6.26036 0
M  V30 2858 O 277.639 3.75718 7.10698 0
M  V30 2859 H 277.371 -0.00857665 0.675946 0
M  V30 2860 H 279.925 0.623288 1.95715 0
M  V30 2861 H 278.155 -1.29575 3.64345 0
M  V30 2862 H 279.844 -0.995116 3.93513 0
M  V30 2863 H 280.61 1.38367 4.64844 0
M  V30 2864 H 276.489 0.158149 4.60729 0
M  V30 2865 H 280.033 3.22949 6.18344 0
M  V30 2866 H 275.93 1.99564 6.13876 0
M  V30 2867 H 276.698 3.72374 7.2889 0
M  V30 2868 N 279.361 -1.56624 0.175154 0
M  V30 2869 C 280.311 -2.14747 -0.766004 0
M  V30 2870 C 281.295 -1.08275 -1.19018 0
M  V30 2871 O 282.487 -1.34388 -1.15191 0
M  V30 2872 C 279.616 -2.79478 -1.99366 0
M  V30 2873 C 278.702 -3.93114 -1.5913 0
M  V30 2874 N 279.093 -4.97752 -0.89872 0
M  V30 2875 C 277.391 -4.04345 -1.88204 0
M  V30 2876 C 278.092 -5.77473 -0.700012 0
M  V30 2877 N 277.068 -5.29207 -1.24263 0
M  V30 2878 H 280.87 -2.93015 -0.22793 0
M  V30 2879 H 278.384 -1.6238 -0.0253843 0
M  V30 2880 H 280.381 -3.19498 -2.67818 0
M  V30 2881 H 279.041 -2.02692 -2.53665 0
M  V30 2882 H 280.052 -5.14903 -0.556347 0
M  V30 2883 H 276.729 -3.38667 -2.44153 0
M  V30 2884 H 278.119 -6.71728 -0.152047 0
M  V30 2885 N 280.839 0.0985539 -1.57292 0
M  V30 2886 C 282.079 0.808332 -1.87737 0
M  V30 2887 C 282.443 1.7607 -0.76572 0
M  V30 2888 O 283.644 2.51358 -0.952499 0
M  V30 2889 C 281.915 1.52093 -3.23423 0
M  V30 2890 S 283.474 2.26947 -3.75554 0
M  V30 2891 H 280.292 0.269377 -0.657995 0
M  V30 2892 H 282.894 0.0656269 -1.9539 0
M  V30 2893 H 281.598 0.81363 -4.02254 0
M  V30 2894 H 281.129 2.30361 -3.189 0
M  V30 2895 H 283.144 3.53027 -3.48692 0
M  V30 2896 N 282.317 1.53212 0.369288 0
M  V30 2897 C 283.542 1.73423 1.1375 0
M  V30 2898 C 283.967 0.460404 1.82378 0
M  V30 2899 O 283.325 -0.585298 1.71592 0
M  V30 2900 C 283.373 2.89769 2.1463 0
M  V30 2901 O 282.477 2.58119 3.21634 0
M  V30 2902 H 281.818 0.576061 0.330227 0
M  V30 2903 H 284.348 2.00083 0.427547 0
M  V30 2904 H 284.358 3.15829 2.58294 0
M  V30 2905 H 283.033 3.8217 1.64071 0
M  V30 2906 H 281.61 2.42864 2.82969 0
M  V30 2907 N 283.795 -0.628877 1.44509 0
M  V30 2908 C 285.211 -0.947305 1.28446 0
M  V30 2909 C 285.411 -2.00275 0.221872 0
M  V30 2910 O 284.467 -2.49447 -0.391471 0
M  V30 2911 C 285.78 -1.40843 2.65676 0
M  V30 2912 C 287.328 -1.52379 2.73404 0
M  V30 2913 C 287.803 -2.01875 4.11109 0
M  V30 2914 N 289.294 -2.09142 4.13296 0
M  V30 2915 C 290.029 -2.48615 5.16699 0
M  V30 2916 N 289.525 -2.87209 6.30462 0
M  V30 2917 N 291.318 -2.48768 5.04054 0
M  V30 2918 H 283.469 0.0690977 2.12288 0
M  V30 2919 H 285.732 -0.0317164 0.947469 0
M  V30 2920 H 285.438 -0.707206 3.44516 0
M  V30 2921 H 285.312 -2.37902 2.92716 0
M  V30 2922 H 287.699 -2.21598 1.9488 0
M  V30 2923 H 287.78 -0.536898 2.50102 0
M  V30 2924 H 287.424 -1.3325 4.90109 0
M  V30 2925 H 287.354 -3.0144 4.31789 0
M  V30 2926 H 289.845 -1.81991 3.31191 0
M  V30 2927 H 290.158 -3.16149 7.05174 0
M  V30 2928 H 288.503 -2.84955 6.33897 0
M  V30 2929 H 291.694 -2.18009 4.14234 0
M  V30 2930 H 291.867 -2.79207 5.84763 0
M  V30 2931 N 285.273 -1.31445 -0.869486 0
M  V30 2932 C 286.521 -1.20918 -1.61936 0
M  V30 2933 C 286.842 0.232683 -1.93607 0
M  V30 2934 O 286.112 1.15352 -1.58338 0
M  V30 2935 H 284.692 -0.44454 -0.600328 0
M  V30 2936 H 287.354 -1.64776 -1.0409 0
M  V30 2937 H 286.45 -1.78124 -2.56278 0
M  V30 2938 N 286.751 1.08385 -1.14413 0
M  V30 2939 C 287.681 2.17321 -0.854044 0
M  V30 2940 C 288.662 1.69024 0.191049 0
M  V30 2941 O 289.847 1.94141 0.0476779 0
M  V30 2942 C 286.977 3.45719 -0.330983 0
M  V30 2943 C 285.931 4.07409 -1.31155 0
M  V30 2944 C 285.257 5.30762 -0.64778 0
M  V30 2945 C 286.557 4.48665 -2.67388 0
M  V30 2946 H 288.251 2.41845 -1.76498 0
M  V30 2947 H 285.797 1.16233 -0.850051 0
M  V30 2948 H 287.75 4.21241 -0.115645 0
M  V30 2949 H 286.474 3.2075 0.615381 0
M  V30 2950 H 285.133 3.33919 -1.51306 0
M  V30 2951 H 284.781 5.02078 0.304398 0
M  V30 2952 H 284.481 5.72992 -1.30207 0
M  V30 2953 H 286.005 6.08998 -0.441972 0
M  V30 2954 H 287.419 5.15364 -2.51143 0
M  V30 2955 H 285.816 5.01814 -3.29093 0
M  V30 2956 H 286.886 3.60543 -3.24248 0
M  V30 2957 N 288.23 0.939286 1.26551 0
M  V30 2958 C 289.458 0.602536 1.97932 0
M  V30 2959 C 289.873 -0.82206 1.69964 0
M  V30 2960 O 289.23 -1.54789 0.966784 0
M  V30 2961 C 289.281 0.832946 3.51773 0
M  V30 2962 O 289.002 2.20151 3.78768 0
M  V30 2963 C 290.503 0.506483 4.40397 0
M  V30 2964 H 287.723 0.227248 0.631347 0
M  V30 2965 H 290.267 1.25948 1.61113 0
M  V30 2966 H 288.422 0.222644 3.8676 0
M  V30 2967 H 288.836 2.26013 4.73306 0
M  V30 2968 H 290.31 0.718333 5.47306 0
M  V30 2969 H 290.787 -0.558451 4.35635 0
M  V30 2970 H 291.393 1.09543 4.10951 0
M  V30 2971 N 289.708 -1.40897 0.706093 0
M  V30 2972 C 290.638 -2.33418 0.0620085 0
M  V30 2973 C 291.619 -1.52385 -0.755827 0
M  V30 2974 O 292.804 -1.80886 -0.706674 0
M  V30 2975 C 289.934 -3.36293 -0.867445 0
M  V30 2976 C 288.888 -4.27716 -0.155932 0
M  V30 2977 C 288.214 -5.2105 -1.20046 0
M  V30 2978 C 289.514 -5.12944 0.984149 0
M  V30 2979 H 291.208 -2.87527 0.83477 0
M  V30 2980 H 288.754 -1.38249 0.402875 0
M  V30 2981 H 290.707 -3.99949 -1.32735 0
M  V30 2982 H 289.431 -2.80556 -1.67199 0
M  V30 2983 H 288.09 -3.65498 0.284047 0
M  V30 2984 H 287.738 -4.61624 -1.99781 0
M  V30 2985 H 287.438 -5.83056 -0.729328 0
M  V30 2986 H 288.962 -5.87584 -1.66066 0
M  V30 2987 H 290.376 -5.70109 0.604048 0
M  V30 2988 H 288.773 -5.83945 1.38304 0
M  V30 2989 H 289.843 -4.49485 1.81911 0
M  V30 2990 N 291.186 -0.45159 -1.50991 0
M  V30 2991 C 292.602 -0.104647 -1.59257 0
M  V30 2992 C 292.802 1.38728 -1.4614 0
M  V30 2993 O 291.858 2.15866 -1.30989 0
M  V30 2994 C 293.171 -0.637468 -2.93865 0
M  V30 2995 C 294.719 -0.599166 -3.07212 0
M  V30 2996 C 295.194 -1.1092 -4.44366 0
M  V30 2997 N 296.685 -1.06778 -4.50725 0
M  V30 2998 C 297.42 -1.43314 -5.55201 0
M  V30 2999 N 296.916 -1.87204 -6.67028 0
M  V30 3000 N 298.709 -1.3504 -5.45638 0
M  V30 3001 H 290.86 -1.42214 -1.57762 0
M  V30 3002 H 293.123 -0.586921 -0.744465 0
M  V30 3003 H 292.829 -1.68187 -3.08879 0
M  V30 3004 H 292.703 -0.0702139 -3.77135 0
M  V30 3005 H 295.09 0.436277 -2.91857 0
M  V30 3006 H 295.171 -1.20299 -2.25747 0
M  V30 3007 H 294.815 -2.14318 -4.60467 0
M  V30 3008 H 294.745 -0.481773 -5.24392 0
M  V30 3009 H 297.236 -0.745643 -3.70471 0
M  V30 3010 H 297.549 -2.13282 -7.42786 0
M  V30 3011 H 295.894 -1.91142 -6.68199 0
M  V30 3012 H 299.085 -1.00607 -4.57161 0
M  V30 3013 H 299.258 -1.63841 -6.26945 0
M  V30 3014 N 292.664 1.56529 -0.183458 0
M  V30 3015 C 293.912 1.96855 0.457452 0
M  V30 3016 C 294.233 1.07104 1.62953 0
M  V30 3017 O 293.503 0.139887 1.954 0
M  V30 3018 H 292.083 0.72693 0.171992 0
M  V30 3019 H 294.745 1.93056 -0.267476 0
M  V30 3020 H 293.841 3.01423 0.809368 0
M  V30 3021 N 294.142 -0.090211 1.57342 0
M  V30 3022 C 295.367 -0.810082 1.90925 0
M  V30 3023 C 295.792 -1.71248 0.778187 0
M  V30 3024 O 295.15 -1.79278 -0.269991 0
M  V30 3025 C 295.198 -1.59529 3.23393 0
M  V30 3026 O 294.302 -2.70461 3.11327 0
M  V30 3027 H 293.643 -0.222231 0.625707 0
M  V30 3028 H 296.173 -0.0639716 2.045 0
M  V30 3029 H 296.183 -1.97847 3.5682 0
M  V30 3030 H 294.858 -0.933055 4.05299 0
M  V30 3031 H 293.435 -2.35135 2.89423 0
M  V30 3032 N 295.62 -1.53406 -0.361157 0
M  V30 3033 C 296.552 -1.76446 -1.46286 0
M  V30 3034 C 297.565 -0.645322 -1.49464 0
M  V30 3035 O 298.754 -0.921681 -1.52864 0
M  V30 3036 C 295.854 -1.83332 -2.85031 0
M  V30 3037 C 295.027 -3.13033 -3.05498 0
M  V30 3038 C 294.086 -3.11104 -4.24383 0
M  V30 3039 O 293.112 -3.84888 -4.19344 0
M  V30 3040 N 294.314 -2.32234 -5.32022 0
M  V30 3041 H 297.079 -2.71508 -1.26899 0
M  V30 3042 H 294.64 -1.52238 -0.550915 0
M  V30 3043 H 296.632 -1.79514 -3.62708 0
M  V30 3044 H 295.202 -0.955342 -2.97644 0
M  V30 3045 H 294.422 -3.30119 -2.15442 0
M  V30 3046 H 295.71 -3.9874 -3.16044 0
M  V30 3047 H 295.108 -1.71807 -5.38979 0
M  V30 3048 H 293.665 -2.3423 -6.08259 0
M  V30 3049 N 297.098 0.621204 -1.44841 0
M  V30 3050 C 298.514 0.94048 -1.28946 0
M  V30 3051 C 298.714 2.00154 -0.23249 0
M  V30 3052 O 297.77 2.49651 0.378237 0
M  V30 3053 C 299.083 1.39433 -2.66419 0
M  V30 3054 C 300.631 1.50927 -2.74208 0
M  V30 3055 C 301.106 1.99692 -4.12174 0
M  V30 3056 N 302.597 2.06947 -4.144 0
M  V30 3057 C 303.332 2.45871 -5.1801 0
M  V30 3058 N 302.828 2.83862 -6.31977 0
M  V30 3059 N 304.621 2.46092 -5.05366 0
M  V30 3060 H 296.772 -0.0803548 -2.12248 0
M  V30 3061 H 299.035 0.0266913 -0.947624 0
M  V30 3062 H 298.741 0.688925 -3.44887 0
M  V30 3063 H 298.615 2.36347 -2.93973 0
M  V30 3064 H 301.002 2.20561 -1.96053 0
M  V30 3065 H 301.083 0.523627 -2.50383 0
M  V30 3066 H 300.727 1.30649 -4.90809 0
M  V30 3067 H 300.657 2.99146 -4.33381 0
M  V30 3068 H 303.148 1.80232 -3.32152 0
M  V30 3069 H 303.461 3.12405 -7.0684 0
M  V30 3070 H 301.806 2.8159 -6.35399 0
M  V30 3071 H 304.997 2.1581 -4.15384 0
M  V30 3072 H 305.17 2.76102 -5.86235 0
M  V30 3073 N 298.576 1.31904 0.862503 0
M  V30 3074 C 299.992 1.10724 1.14945 0
M  V30 3075 C 300.192 -0.117421 2.01158 0
M  V30 3076 O 299.248 -0.804595 2.39338 0
M  V30 3077 C 300.561 2.38267 1.83437 0
M  V30 3078 C 302.109 2.43949 1.96106 0
M  V30 3079 C 302.584 3.71394 2.68013 0
M  V30 3080 N 304.075 3.72331 2.75543 0
M  V30 3081 C 304.81 4.67641 3.31812 0
M  V30 3082 N 304.306 5.73313 3.88953 0
M  V30 3083 N 306.099 4.5515 3.29841 0
M  V30 3084 H 298.25 2.10436 0.288191 0
M  V30 3085 H 300.513 0.928705 0.190292 0
M  V30 3086 H 300.219 3.27759 1.27542 0
M  V30 3087 H 300.093 2.48633 2.83657 0
M  V30 3088 H 302.48 1.54922 2.51164 0
M  V30 3089 H 302.561 2.37543 0.949059 0
M  V30 3090 H 302.205 4.60791 2.13621 0
M  V30 3091 H 302.135 3.75069 3.69636 0
M  V30 3092 H 304.626 2.95947 2.34997 0
M  V30 3093 H 304.939 6.42107 4.30022 0
M  V30 3094 H 303.284 5.77077 3.87308 0
M  V30 3095 H 306.475 3.71766 2.84443 0
M  V30 3096 H 306.648 5.29604 3.73394 0
M  V30 3097 N 300.054 -1.07777 1.14986 0
M  V30 3098 C 301.282 -1.84018 0.945773 0
M  V30 3099 C 301.697 -1.81897 -0.505863 0
M  V30 3100 O 301.054 -1.22726 -1.35072 0
M  V30 3101 C 301.105 -3.31287 1.44677 0
M  V30 3102 O 300.826 -3.33449 2.84154 0
M  V30 3103 C 302.327 -4.24311 1.28355 0
M  V30 3104 H 299.547 -0.580716 0.336169 0
M  V30 3105 H 302.091 -1.36077 1.52654 0
M  V30 3106 H 300.246 -3.76594 0.908625 0
M  V30 3107 H 300.66 -4.25427 3.06777 0
M  V30 3108 H 302.134 -5.2573 1.68261 0
M  V30 3109 H 302.611 -4.38612 0.227184 0
M  V30 3110 H 303.217 -3.84836 1.81056 0
M  V30 3111 N 301.532 -0.945985 -1.26051 0
M  V30 3112 C 302.772 -0.603665 -1.95282 0
M  V30 3113 C 303.136 0.842377 -1.72534 0
M  V30 3114 O 304.337 1.29387 -2.35611 0
M  V30 3115 C 302.608 -0.942292 -3.44754 0
M  V30 3116 S 304.167 -0.711242 -4.32997 0
M  V30 3117 H 300.985 -0.222176 -0.675395 0
M  V30 3118 H 303.587 -1.21832 -1.52896 0
M  V30 3119 H 302.291 -1.99203 -3.58812 0
M  V30 3120 H 301.822 -0.317546 -3.92116 0
M  V30 3121 H 303.837 0.422221 -4.944 0
M  V30 3122 N 303.011 1.40521 -0.713556 0
M  V30 3123 C 303.943 2.29191 -0.0203126 0
M  V30 3124 C 304.956 1.45723 0.725864 0
M  V30 3125 O 306.145 1.69033 0.573581 0
M  V30 3126 C 303.245 3.2395 0.995486 0
M  V30 3127 C 302.418 4.36262 0.315256 0
M  V30 3128 C 301.477 5.11474 1.23616 0
M  V30 3129 O 300.503 5.64606 0.721719 0
M  V30 3130 N 301.705 5.20638 2.56743 0
M  V30 3131 H 304.47 2.89327 -0.781652 0
M  V30 3132 H 302.031 1.51869 -0.561022 0
M  V30 3133 H 304.023 3.71137 1.61368 0
M  V30 3134 H 302.593 2.64995 1.6582 0
M  V30 3135 H 301.813 3.91228 -0.483106 0
M  V30 3136 H 303.101 5.08558 -0.157004 0
M  V30 3137 H 302.499 4.7895 3.01037 0
M  V30 3138 H 301.056 5.71339 3.13712 0
M  V30 3139 N 304.489 0.459591 1.5075 0
M  V30 3140 C 305.399 -0.34613 2.32033 0
M  V30 3141 C 306.415 -1.00686 1.41909 0
M  V30 3142 O 307.591 -0.997361 1.7497 0
M  V30 3143 C 304.656 -1.42029 3.16273 0
M  V30 3144 C 303.717 -0.777362 4.22203 0
M  V30 3145 C 302.95 -1.80034 5.02418 0
M  V30 3146 O 303.173 -3.02544 4.83553 0
M  V30 3147 O 302.107 -1.37853 5.85901 0
M  V30 3148 H 305.933 0.318054 3.0203 0
M  V30 3149 H 303.518 0.221663 1.47746 0
M  V30 3150 H 305.4 -2.04275 3.68578 0
M  V30 3151 H 304.075 -2.06815 2.49016 0
M  V30 3152 H 302.982 -0.116256 3.73919 0
M  V30 3153 H 304.315 -0.172634 4.91897 0
M  V30 3154 N 305.967 -1.56429 0.191757 0
M  V30 3155 C 307.215 -1.97095 -0.447006 0
M  V30 3156 C 307.536 -1.07967 -1.62383 0
M  V30 3157 O 306.806 -0.150248 -1.95323 0
M  V30 3158 H 305.386 -0.727832 -0.168135 0
M  V30 3159 H 308.048 -1.92911 0.27771 0
M  V30 3160 H 307.144 -3.01848 -0.793371 0
M  V30 3161 N 307.445 0.0818655 -1.57387 0
M  V30 3162 C 308.693 0.781368 -1.86384 0
M  V30 3163 C 309.014 1.78618 -0.782342 0
M  V30 3164 O 308.284 1.94976 0.190061 0
M  V30 3165 H 306.864 0.291562 -0.687751 0
M  V30 3166 H 309.526 0.060348 -1.94807 0
M  V30 3167 H 308.622 1.3038 -2.83562 0
M  V30 3168 N 308.923 1.53595 0.353017 0
M  V30 3169 C 310.148 1.7462 1.11904 0
M  V30 3170 C 310.573 0.479721 1.8188 0
M  V30 3171 O 309.931 -0.567066 1.72204 0
M  V30 3172 C 309.979 2.92029 2.11545 0
M  V30 3173 O 309.083 2.61516 3.18878 0
M  V30 3174 H 308.424 0.579531 0.324099 0
M  V30 3175 H 310.954 2.00525 0.406301 0
M  V30 3176 H 310.964 3.18551 2.5493 0
M  V30 3177 H 309.639 3.83888 1.60008 0
M  V30 3178 H 308.216 2.45852 2.80377 0
M  V30 3179 N 310.401 -0.613514 1.45168 0
M  V30 3180 C 311.647 -1.37279 1.50087 0
M  V30 3181 C 312.002 -1.91902 0.138294 0
M  V30 3182 O 311.295 -1.71764 -0.84899 0
M  V30 3183 C 311.489 -2.54347 2.51083 0
M  V30 3184 C 311.318 -2.11186 3.97027 0
M  V30 3185 C 310.088 -1.97636 4.65046 0
M  V30 3186 C 312.286 -1.69016 4.85735 0
M  V30 3187 N 310.268 -1.48224 5.95737 0
M  V30 3188 C 311.639 -1.30976 6.06008 0
M  V30 3189 C 313.694 -1.56555 4.72647 0
M  V30 3190 C 312.397 -0.817197 7.14643 0
M  V30 3191 C 314.423 -1.08702 5.81324 0
M  V30 3192 C 313.785 -0.716233 7.00749 0
M  V30 3193 H 309.884 -0.496478 0.60418 0
M  V30 3194 H 312.468 -0.701988 1.81605 0
M  V30 3195 H 310.639 -3.19031 2.21527 0
M  V30 3196 H 312.371 -3.21208 2.46187 0
M  V30 3197 H 309.126 -2.18638 4.20112 0
M  V30 3198 H 309.55 -1.25767 6.65216 0
M  V30 3199 H 314.192 -1.83849 3.80736 0
M  V30 3200 H 311.91 -0.531797 8.06348 0
M  V30 3201 H 315.496 -0.994943 5.7323 0
M  V30 3202 H 314.376 -0.351642 7.83411 0
M  V30 3203 N 311.879 -1.3236 -0.855495 0
M  V30 3204 C 313.104 -1.2601 -1.64731 0
M  V30 3205 C 313.529 0.169068 -1.87339 0
M  V30 3206 O 312.887 1.12016 -1.42556 0
M  V30 3207 C 312.935 -2.02417 -2.98429 0
M  V30 3208 O 312.039 -1.3714 -3.8893 0
M  V30 3209 H 311.38 -0.434325 -0.502253 0
M  V30 3210 H 313.91 -1.74661 -1.06558 0
M  V30 3211 H 313.92 -2.12559 -3.48257 0
M  V30 3212 H 312.595 -3.06343 -2.81295 0
M  V30 3213 H 311.172 -1.3554 -3.47395 0
M  V30 3214 N 313.357 1.07166 -1.15556 0
M  V30 3215 C 314.605 1.79443 -0.929764 0
M  V30 3216 C 314.926 1.87246 0.544414 0
M  V30 3217 O 314.196 1.37473 1.39564 0
M  V30 3218 H 312.776 0.664625 -0.341003 0
M  V30 3219 H 315.438 1.29499 -1.45657 0
M  V30 3220 H 314.534 2.81832 -1.34079 0
M  V30 3221 N 314.835 0.952656 1.25548 0
M  V30 3222 C 316.063 0.623496 1.97282 0
M  V30 3223 C 316.478 -0.803987 1.70826 0
M  V30 3224 O 315.835 -1.53755 0.983147 0
M  V30 3225 C 315.886 0.870209 3.5087 0
M  V30 3226 O 315.607 2.24156 3.76412 0
M  V30 3227 C 317.108 0.553164 4.39835 0
M  V30 3228 H 314.328 0.233931 0.628902 0
M  V30 3229 H 316.872 1.27649 1.59768 0
M  V30 3230 H 315.027 0.263652 3.86502 0
M  V30 3231 H 315.441 2.31021 4.70882 0
M  V30 3232 H 316.915 0.776342 5.46513 0
M  V30 3233 H 317.392 -0.512215 4.36203 0
M  V30 3234 H 317.998 1.13896 4.09766 0
M  V30 3235 N 316.313 -1.40141 0.720998 0
M  V30 3236 C 317.223 -2.34486 0.0731031 0
M  V30 3237 C 318.239 -1.57587 -0.737723 0
M  V30 3238 O 319.415 -1.89949 -0.669429 0
M  V30 3239 C 316.48 -3.36528 -0.833656 0
M  V30 3240 C 315.541 -4.29298 -0.0121673 0
M  V30 3241 C 314.774 -5.26466 -0.875742 0
M  V30 3242 O 314.997 -5.29745 -2.11485 0
M  V30 3243 O 313.931 -6.01092 -0.31185 0
M  V30 3244 H 317.757 -2.9152 0.851444 0
M  V30 3245 H 315.342 -1.41427 0.481527 0
M  V30 3246 H 317.224 -3.99093 -1.35289 0
M  V30 3247 H 315.899 -2.81899 -1.59105 0
M  V30 3248 H 314.806 -3.70001 0.552262 0
M  V30 3249 H 316.139 -4.87094 0.707129 0
M  V30 3250 N 317.792 -0.46758 -1.50504 0
M  V30 3251 C 319.203 -0.0116166 -1.86696 0
M  V30 3252 C 319.554 1.39202 -1.38265 0
M  V30 3253 O 318.679 2.0313 -0.746132 0
M  V30 3254 C 319.274 -0.0143044 -3.38797 0
M  V30 3255 C 317.833 0.386175 -3.74414 0
M  V30 3256 C 316.98 -0.401287 -2.74381 0
M  V30 3257 H 319.931 -0.682022 -1.43297 0
M  V30 3258 H 319.952 0.788641 -3.72237 0
M  V30 3259 H 319.464 -1.03602 -3.74016 0
M  V30 3260 H 317.565 1.41237 -3.44794 0
M  V30 3261 H 317.678 0.0899596 -4.79016 0
M  V30 3262 H 316.042 0.144536 -2.5429 0
M  V30 3263 H 316.825 -1.42244 -3.12444 0
M  V30 3264 N 319.27 1.56325 -0.20005 0
M  V30 3265 C 320.495 2.02548 0.44597 0
M  V30 3266 C 320.92 1.07922 1.5406 0
M  V30 3267 O 320.278 0.0635775 1.81188 0
M  V30 3268 C 320.326 3.47175 0.974761 0
M  V30 3269 O 319.43 3.55671 2.08739 0
M  V30 3270 H 318.771 0.655862 0.103638 0
M  V30 3271 H 321.301 2.02201 -0.312381 0
M  V30 3272 H 321.311 3.87067 1.2901 0
M  V30 3273 H 319.986 4.15538 0.17347 0
M  V30 3274 H 318.563 3.27657 1.78032 0
M  V30 3275 N 320.748 -0.0735177 1.57428 0
M  V30 3276 C 321.988 -0.778363 1.89 0
M  V30 3277 C 322.352 -1.7483 0.793634 0
M  V30 3278 O 323.553 -2.49811 0.992367 0
M  V30 3279 C 321.824 -1.46929 3.25802 0
M  V30 3280 S 323.383 -2.20943 3.79117 0
M  V30 3281 H 320.201 -0.258874 0.662197 0
M  V30 3282 H 322.803 -0.0345338 1.95469 0
M  V30 3283 H 321.507 -0.749532 4.03497 0
M  V30 3284 H 321.038 -2.25258 3.22525 0
M  V30 3285 H 323.053 -3.47435 3.54265 0
M  V30 3286 N 322.226 -1.5378 -0.344866 0
M  V30 3287 C 323.158 -1.77988 -1.44406 0
M  V30 3288 C 324.171 -0.661138 -1.48771 0
M  V30 3289 O 325.36 -0.937842 -1.51877 0
M  V30 3290 C 322.46 -1.86345 -2.8307 0
M  V30 3291 C 321.633 -3.16256 -3.0216 0
M  V30 3292 C 320.692 -3.15588 -4.21059 0
M  V30 3293 O 319.718 -3.89314 -4.15239 0
M  V30 3294 N 320.92 -2.37864 -5.29529 0
M  V30 3295 H 323.685 -2.72839 -1.24012 0
M  V30 3296 H 321.246 -1.52814 -0.534737 0
M  V30 3297 H 323.238 -1.83351 -3.60783 0
M  V30 3298 H 321.808 -0.986858 -2.96614 0
M  V30 3299 H 321.028 -3.32385 -2.11929 0
M  V30 3300 H 322.316 -4.0207 -3.11797 0
M  V30 3301 H 321.714 -1.77514 -5.37127 0
M  V30 3302 H 320.271 -2.40668 -6.05741 0
M  V30 3303 N 323.704 0.605807 -1.45491 0
M  V30 3304 C 324.981 1.36522 -1.40075 0
M  V30 3305 C 325.361 2.10976 -0.0722744 0
M  V30 3306 O 324.709 2.08007 0.945808 0
M  V30 3307 C 324.919 2.31056 -2.61561 0
M  V30 3308 C 326.267 2.93608 -3.06724 0
M  V30 3309 O 327.291 2.41376 -2.61946 0
M  V30 3310 O 326.15 3.88421 -3.84437 0
M  V30 3311 H 323.244 0.612248 -0.555951 0
M  V30 3312 H 325.79 0.628747 -1.57623 0
M  V30 3313 H 324.562 1.75311 -3.49831 0
M  V30 3314 H 324.185 3.12081 -2.46356 0
M  V30 3315 N 325.182 1.32811 0.848464 0
M  V30 3316 C 326.407 1.26882 1.6406 0
M  V30 3317 C 326.832 -0.15913 1.87426 0
M  V30 3318 O 326.19 -1.11258 1.43148 0
M  V30 3319 C 326.238 2.03997 2.97351 0
M  V30 3320 O 325.342 1.39201 3.88197 0
M  V30 3321 H 324.683 0.436982 0.499943 0
M  V30 3322 H 327.213 1.75224 1.0563 0
M  V30 3323 H 327.223 2.14403 3.47124 0
M  V30 3324 H 325.898 3.0783 2.79666 0
M  V30 3325 H 324.475 1.37381 3.46671 0
M  V30 3326 N 326.66 -1.06551 1.16123 0
M  V30 3327 C 327.907 -1.79302 0.941126 0
M  V30 3328 C 328.235 -1.87105 -0.531235 0
M  V30 3329 O 327.49 -1.35692 -1.41018 0
M  V30 3330 C 327.789 -3.23911 1.51052 0
M  V30 3331 C 327.455 -3.36193 3.00475 0
M  V30 3332 C 326.117 -3.39252 3.41265 0
M  V30 3333 C 328.469 -3.38326 3.96465 0
M  V30 3334 C 325.797 -3.42057 4.76669 0
M  V30 3335 C 328.149 -3.4267 5.31752 0
M  V30 3336 C 326.813 -3.4401 5.72026 0
M  V30 3337 H 326.083 -0.656111 0.344382 0
M  V30 3338 H 328.73 -1.25325 1.44796 0
M  V30 3339 H 327.035 -3.80723 0.925063 0
M  V30 3340 H 328.732 -3.78793 1.31593 0
M  V30 3341 H 325.322 -3.34516 2.6795 0
M  V30 3342 H 329.506 -3.35176 3.6602 0
M  V30 3343 H 324.762 -3.41398 5.07206 0
M  V30 3344 H 328.936 -3.43268 6.05921 0
M  V30 3345 H 326.563 -3.45937 6.76928 0
M  V30 3346 N 328.138 -0.959301 -1.25041 0
M  V30 3347 C 329.071 -0.427418 -2.24161 0
M  V30 3348 C 330.049 0.493837 -1.54919 0
M  V30 3349 O 331.233 0.427144 -1.83597 0
M  V30 3350 C 328.36 0.383893 -3.36517 0
M  V30 3351 C 327.406 -0.478431 -4.23808 0
M  V30 3352 S 328.239 -1.91353 -5.00144 0
M  V30 3353 C 329.395 -1.11077 -6.15965 0
M  V30 3354 H 329.628 -1.26743 -2.6893 0
M  V30 3355 H 327.161 -0.763714 -1.34189 0
M  V30 3356 H 329.119 0.846039 -4.01687 0
M  V30 3357 H 327.78 1.19878 -2.90324 0
M  V30 3358 H 326.973 0.14406 -5.03794 0
M  V30 3359 H 326.575 -0.87597 -3.63597 0
M  V30 3360 H 328.867 -0.361699 -6.76534 0
M  V30 3361 H 329.81 -1.88472 -6.82557 0
M  V30 3362 H 330.218 -0.638843 -5.60873 0
M  V30 3363 N 329.616 1.39756 -0.72842 0
M  V30 3364 C 330.846 2.04651 -0.283117 0
M  V30 3365 C 331.254 1.5502 1.08469 0
M  V30 3366 O 330.597 0.707343 1.69536 0
M  V30 3367 C 330.659 3.58947 -0.199309 0
M  V30 3368 C 330.323 4.31525 -1.5045 0
M  V30 3369 C 331.32 4.5861 -2.44894 0
M  V30 3370 C 329.005 4.70195 -1.76698 0
M  V30 3371 C 330.999 5.23366 -3.63822 0
M  V30 3372 C 328.686 5.3468 -2.95906 0
M  V30 3373 C 329.684 5.61198 -3.89289 0
M  V30 3374 O 329.372 6.24347 -5.06404 0
M  V30 3375 H 329.104 0.664777 -0.122666 0
M  V30 3376 H 331.658 1.79913 -0.990987 0
M  V30 3377 H 329.888 3.82556 0.56461 0
M  V30 3378 H 331.577 4.0534 0.213125 0
M  V30 3379 H 332.343 4.29187 -2.25883 0
M  V30 3380 H 328.222 4.48916 -1.04859 0
M  V30 3381 H 331.766 5.4398 -4.36728 0
M  V30 3382 H 327.663 5.63524 -3.14819 0
M  V30 3383 H 328.431 6.42842 -5.06652 0
M  V30 3384 N 331.094 0.475555 1.50254 0
M  V30 3385 C 332.371 -0.139685 1.95101 0
M  V30 3386 C 332.751 -1.56555 1.41611 0
M  V30 3387 O 332.099 -2.19956 0.618993 0
M  V30 3388 C 332.309 -0.0784298 3.48912 0
M  V30 3389 C 333.657 -0.265095 4.23772 0
M  V30 3390 O 334.681 -0.154808 3.55863 0
M  V30 3391 O 333.54 -0.488327 5.44314 0
M  V30 3392 H 330.634 -0.109236 0.819754 0
M  V30 3393 H 333.18 0.536276 1.61004 0
M  V30 3394 H 331.952 0.916918 3.80405 0
M  V30 3395 H 331.575 -0.795655 3.89558 0
M  V30 3396 N 332.573 -1.56217 0.208337 0
M  V30 3397 C 333.801 -2.02337 -0.43215 0
M  V30 3398 C 334.216 -1.08834 -1.54275 0
M  V30 3399 O 333.573 -0.0955462 -1.8225 0
M  V30 3400 C 333.624 -3.48072 -0.976138 0
M  V30 3401 O 333.345 -4.38007 0.0901621 0
M  V30 3402 C 334.846 -4.09773 -1.69119 0
M  V30 3403 H 332.066 -0.662385 -0.10718 0
M  V30 3404 H 334.61 -2.01966 0.320923 0
M  V30 3405 H 332.765 -3.49099 -1.67954 0
M  V30 3406 H 333.179 -5.23543 -0.316701 0
M  V30 3407 H 334.653 -5.13556 -2.02397 0
M  V30 3408 H 335.13 -3.53999 -2.59964 0
M  V30 3409 H 335.736 -4.12556 -1.03332 0
M  V30 3410 N 334.051 0.0651679 -1.57465 0
M  V30 3411 C 335.462 0.616213 -1.76238 0
M  V30 3412 C 335.813 1.7756 -0.834689 0
M  V30 3413 O 334.938 2.1639 -0.0204156 0
M  V30 3414 C 335.533 1.12462 -3.1959 0
M  V30 3415 C 334.092 1.62147 -3.39684 0
M  V30 3416 C 333.239 0.543739 -2.71917 0
M  V30 3417 H 336.19 -0.161022 -1.57881 0
M  V30 3418 H 336.211 1.99324 -3.24114 0
M  V30 3419 H 335.723 0.280592 -3.87084 0
M  V30 3420 H 333.824 2.48854 -2.77313 0
M  V30 3421 H 333.937 1.69385 -4.48158 0
M  V30 3422 H 332.301 0.990352 -2.34657 0
M  V30 3423 H 333.084 -0.290216 -3.42071 0
M  V30 3424 N 335.529 1.53961 0.336706 0
M  V30 3425 C 336.461 1.78751 1.4346 0
M  V30 3426 C 337.474 0.669019 1.48418 0
M  V30 3427 O 338.663 0.945884 1.51378 0
M  V30 3428 C 335.763 1.87844 2.82078 0
M  V30 3429 C 334.936 3.17854 3.00479 0
M  V30 3430 C 333.995 3.17816 4.19379 0
M  V30 3431 O 333.021 3.91511 4.13168 0
M  V30 3432 N 334.223 2.40669 5.2826 0
M  V30 3433 H 336.988 2.73493 1.22563 0
M  V30 3434 H 334.549 1.53096 0.526625 0
M  V30 3435 H 336.541 1.85261 3.59806 0
M  V30 3436 H 335.111 1.00257 2.96086 0
M  V30 3437 H 334.331 3.33504 2.10163 0
M  V30 3438 H 335.619 4.03718 3.0966 0
M  V30 3439 H 335.017 1.8036 5.36178 0
M  V30 3440 H 333.574 2.43877 6.04456 0
M  V30 3441 N 337.007 -0.598083 1.45811 0
M  V30 3442 C 337.917 -1.73632 1.57763 0
M  V30 3443 C 338.933 -1.67763 0.461676 0
M  V30 3444 O 340.109 -1.87949 0.723685 0
M  V30 3445 C 337.174 -3.10114 1.55018 0
M  V30 3446 C 336.235 -3.27364 2.77726 0
M  V30 3447 C 335.468 -4.57334 2.75102 0
M  V30 3448 O 335.691 -5.40258 1.8297 0
M  V30 3449 O 334.625 -4.77502 3.66437 0
M  V30 3450 H 338.451 -1.66498 2.53992 0
M  V30 3451 H 336.036 -0.763308 1.28429 0
M  V30 3452 H 337.918 -3.9141 1.56129 0
M  V30 3453 H 336.593 -3.17718 0.619431 0
M  V30 3454 H 335.5 -2.45619 2.82174 0
M  V30 3455 H 336.833 -3.24641 3.69958 0
M  V30 3456 N 338.485 -1.33259 -0.841409 0
M  V30 3457 C 339.731 -1.24757 -1.59886 0
M  V30 3458 C 340.064 0.186913 -1.93298 0
M  V30 3459 O 339.339 1.12757 -1.5848 0
M  V30 3460 C 339.622 -2.12036 -2.91055 0
M  V30 3461 C 339.475 -3.63929 -2.6434 0
M  V30 3462 C 340.794 -1.9916 -3.92458 0
M  V30 3463 H 337.913 -0.454542 -0.580138 0
M  V30 3464 H 340.555 -1.63335 -0.970647 0
M  V30 3465 H 338.705 -1.79265 -3.44669 0
M  V30 3466 H 340.377 -4.06978 -2.17178 0
M  V30 3467 H 338.62 -3.85935 -1.98082 0
M  V30 3468 H 339.291 -4.20341 -3.57796 0
M  V30 3469 H 341.767 -2.27895 -3.48143 0
M  V30 3470 H 340.643 -2.62484 -4.82072 0
M  V30 3471 H 340.904 -0.963082 -4.31482 0
M  V30 3472 N 339.963 1.05934 -1.16686 0
M  V30 3473 C 340.926 2.11669 -0.879144 0
M  V30 3474 C 341.926 1.60294 0.127445 0
M  V30 3475 O 343.116 1.7389 -0.103865 0
M  V30 3476 C 340.248 3.39438 -0.315425 0
M  V30 3477 H 341.441 2.38626 -1.81653 0
M  V30 3478 H 338.994 1.22058 -0.976299 0
M  V30 3479 H 339.729 3.18132 0.629468 0
M  V30 3480 H 339.514 3.78034 -1.04079 0
M  V30 3481 H 341.004 4.17391 -0.132189 0
M  V30 3482 N 341.441 0.965919 1.2453 0
M  V30 3483 C 342.351 0.502154 2.29163 0
M  V30 3484 C 343.367 -0.436017 1.68448 0
M  V30 3485 O 344.543 -0.309497 1.99008 0
M  V30 3486 C 341.608 -0.201956 3.46111 0
M  V30 3487 C 340.669 0.775821 4.22232 0
M  V30 3488 C 339.902 0.105217 5.33596 0
M  V30 3489 O 340.125 -1.10683 5.59558 0
M  V30 3490 O 339.059 0.796475 5.96607 0
M  V30 3491 H 342.885 1.37194 2.70946 0
M  V30 3492 H 340.47 0.732875 1.30189 0
M  V30 3493 H 342.352 -0.597564 4.17142 0
M  V30 3494 H 341.027 -1.04673 3.06309 0
M  V30 3495 H 339.934 1.22185 3.53584 0
M  V30 3496 H 341.267 1.58896 4.65846 0
M  V30 3497 N 342.919 -1.39368 0.735821 0
M  V30 3498 C 343.882 -2.2896 0.104874 0
M  V30 3499 C 344.882 -1.46347 -0.666274 0
M  V30 3500 O 346.072 -1.67014 -0.49517 0
M  V30 3501 C 343.204 -3.29857 -0.860656 0
M  V30 3502 H 344.397 -2.86259 0.894205 0
M  V30 3503 H 341.95 -1.48029 0.501704 0
M  V30 3504 H 342.685 -2.77615 -1.67631 0
M  V30 3505 H 342.47 -3.9087 -0.310327 0
M  V30 3506 H 343.96 -3.96893 -1.29867 0
M  V30 3507 N 344.397 -0.483516 -1.5 0
M  V30 3508 C 345.644 0.0671597 -2.02389 0
M  V30 3509 C 345.972 1.38597 -1.36459 0
M  V30 3510 O 345.227 1.89634 -0.483458 0
M  V30 3511 C 345.526 0.286226 -3.56252 0
M  V30 3512 C 345.192 -0.952416 -4.40726 0
M  V30 3513 C 343.854 -1.29199 -4.63531 0
M  V30 3514 C 346.206 -1.77655 -4.89988 0
M  V30 3515 C 343.534 -2.45553 -5.32842 0
M  V30 3516 C 345.886 -2.93147 -5.60578 0
M  V30 3517 C 344.55 -3.27505 -5.81633 0
M  V30 3518 H 343.82 0.0245755 -0.740592 0
M  V30 3519 H 346.467 -0.640124 -1.80485 0
M  V30 3520 H 344.772 1.07587 -3.76739 0
M  V30 3521 H 346.469 0.726473 -3.94365 0
M  V30 3522 H 343.059 -0.677881 -4.23205 0
M  V30 3523 H 347.243 -1.52737 -4.72213 0
M  V30 3524 H 342.499 -2.72431 -5.47349 0
M  V30 3525 H 346.673 -3.57344 -5.97727 0
M  V30 3526 H 344.3 -4.1777 -6.35116 0
M  V30 3527 N 345.875 1.56104 -0.216619 0
M  V30 3528 C 346.805 2.23063 0.690296 0
M  V30 3529 C 347.786 1.20072 1.20485 0
M  V30 3530 O 348.971 1.48643 1.24976 0
M  V30 3531 C 346.101 2.90672 1.90072 0
M  V30 3532 C 345.055 4.00092 1.5202 0
M  V30 3533 C 344.381 4.54972 2.80899 0
M  V30 3534 C 345.681 5.17398 0.71391 0
M  V30 3535 H 347.375 2.99109 0.132038 0
M  V30 3536 H 344.921 1.43866 0.0620664 0
M  V30 3537 H 346.874 3.36204 2.54057 0
M  V30 3538 H 345.598 2.12066 2.48386 0
M  V30 3539 H 344.257 3.55283 0.903839 0
M  V30 3540 H 343.905 3.73102 3.37348 0
M  V30 3541 H 343.605 5.28817 2.56176 0
M  V30 3542 H 345.129 5.0322 3.45836 0
M  V30 3543 H 346.543 5.59342 1.25735 0
M  V30 3544 H 344.94 5.97444 0.563951 0
M  V30 3545 H 346.01 4.84088 -0.280527 0
M  V30 3546 N 347.353 -0.0568162 1.57498 0
M  V30 3547 C 348.578 -0.769402 1.92601 0
M  V30 3548 C 349.003 -1.69559 0.814336 0
M  V30 3549 O 348.361 -1.79811 -0.231903 0
M  V30 3550 C 348.409 -1.52634 3.26704 0
M  V30 3551 O 347.513 -2.63797 3.16994 0
M  V30 3552 H 346.854 -0.208909 0.63028 0
M  V30 3553 H 349.384 -0.0205798 2.0459 0
M  V30 3554 H 349.394 -1.90234 3.60936 0
M  V30 3555 H 348.069 -0.846875 4.07186 0
M  V30 3556 H 346.646 -2.28943 2.94346 0
M  V30 3557 N 348.832 -1.54138 -0.328536 0
M  V30 3558 C 350.057 -1.76378 -1.09112 0
M  V30 3559 C 350.482 -0.508596 -1.81094 0
M  V30 3560 O 349.84 0.539598 -1.73084 0
M  V30 3561 C 349.888 -2.95358 -2.06872 0
M  V30 3562 O 348.992 -2.66556 -3.14677 0
M  V30 3563 H 348.333 -0.584614 -0.314838 0
M  V30 3564 H 350.863 -2.01146 -0.374348 0
M  V30 3565 H 350.873 -3.22566 -2.4983 0
M  V30 3566 H 349.548 -3.86385 -1.5388 0
M  V30 3567 H 348.125 -2.50282 -2.7643 0
M  V30 3568 N 350.31 0.590341 -1.46126 0
M  V30 3569 C 351.24 1.71032 -1.58966 0
M  V30 3570 C 352.221 1.64302 -0.440335 0
M  V30 3571 O 353.406 1.82436 -0.665634 0
M  V30 3572 C 350.536 3.09665 -1.57241 0
M  V30 3573 C 349.49 3.31221 -2.71066 0
M  V30 3574 C 348.816 4.70303 -2.54399 0
M  V30 3575 C 350.116 3.19796 -4.1295 0
M  V30 3576 H 351.81 1.60543 -2.52718 0
M  V30 3577 H 349.356 0.770933 -1.21625 0
M  V30 3578 H 351.309 3.87831 -1.64819 0
M  V30 3579 H 350.033 3.21036 -0.600289 0
M  V30 3580 H 348.692 2.55452 -2.62944 0
M  V30 3581 H 348.34 4.78429 -1.55288 0
M  V30 3582 H 348.04 4.85679 -3.30741 0
M  V30 3583 H 349.564 5.50647 -2.63857 0
M  V30 3584 H 350.978 3.87815 -4.22223 0
M  V30 3585 H 349.375 3.46696 -4.89818 0
M  V30 3586 H 350.445 2.16983 -4.33643 0
M  V30 3587 N 351.788 1.33704 0.83433 0
M  V30 3588 C 353.016 1.28467 1.62185 0
M  V30 3589 C 353.431 -0.143526 1.88254 0
M  V30 3590 O 352.788 -1.08709 1.4659 0
M  V30 3591 C 352.839 2.06174 2.96942 0
M  V30 3592 O 352.56 3.43422 2.72016 0
M  V30 3593 C 354.061 2.08201 3.91366 0
M  V30 3594 H 351.281 0.4424 0.504503 0
M  V30 3595 H 353.825 1.76145 1.03891 0
M  V30 3596 H 351.98 1.62167 3.51825 0
M  V30 3597 H 352.394 3.83453 3.57861 0
M  V30 3598 H 353.868 2.67017 4.83121 0
M  V30 3599 H 354.345 1.07343 4.2588 0
M  V30 3600 H 354.951 2.52246 3.42421 0
M  V30 3601 N 353.266 -1.05314 1.17247 0
M  V30 3602 C 354.176 -2.16538 0.90268 0
M  V30 3603 C 355.192 -1.73523 -0.128707 0
M  V30 3604 O 356.368 -2.01337 0.0502701 0
M  V30 3605 C 353.433 -3.44167 0.418356 0
M  V30 3606 C 352.494 -4.01635 1.51618 0
M  V30 3607 C 351.727 -5.23171 1.05487 0
M  V30 3608 O 351.95 -5.70327 -0.0914715 0
M  V30 3609 O 350.884 -5.72848 1.8474 0
M  V30 3610 H 354.71 -2.42145 1.83302 0
M  V30 3611 H 352.295 -1.15037 0.953246 0
M  V30 3612 H 354.177 -4.21112 0.155726 0
M  V30 3613 H 352.852 -3.20063 -0.48385 0
M  V30 3614 H 351.759 -3.26135 1.83268 0
M  V30 3615 H 353.092 -4.30053 2.39405 0
M  V30 3616 N 354.744 -0.972509 -1.24016 0
M  V30 3617 C 355.972 -0.654803 -1.96265 0
M  V30 3618 C 356.387 0.776708 -1.72083 0
M  V30 3619 O 355.744 1.52171 -1.00748 0
M  V30 3620 C 355.795 -0.92592 -3.49441 0
M  V30 3621 O 355.516 -2.30116 -3.72798 0
M  V30 3622 C 357.017 -0.623068 -4.38899 0
M  V30 3623 H 354.237 -0.243907 -0.6251 0
M  V30 3624 H 356.781 -1.30175 -1.57717 0
M  V30 3625 H 354.936 -0.325108 -3.86033 0
M  V30 3626 H 355.35 -2.38483 -4.67147 0
M  V30 3627 H 356.824 -0.863189 -5.45209 0
M  V30 3628 H 357.301 0.442754 -4.36963 0
M  V30 3629 H 357.907 -1.204 -4.07902 0
M  V30 3630 N 356.222 1.38976 -0.743202 0
M  V30 3631 C 357.471 1.99581 -0.291592 0
M  V30 3632 C 357.784 1.59656 1.13001 0
M  V30 3633 O 358.99 2.13157 1.68156 0
M  V30 3634 C 357.446 3.56813 -0.470391 0
M  V30 3635 C 357.054 4.05695 -1.90041 0
M  V30 3636 C 358.798 4.24423 -0.0809709 0
M  V30 3637 C 356.705 5.5553 -2.02832 0
M  V30 3638 H 355.635 0.746615 -0.105272 0
M  V30 3639 H 358.286 1.58872 -0.918258 0
M  V30 3640 H 356.668 3.95359 0.225299 0
M  V30 3641 H 357.842 3.78464 -2.62872 0
M  V30 3642 H 356.157 3.50775 -2.24379 0
M  V30 3643 H 358.754 5.34474 -0.155445 0
M  V30 3644 H 359.097 4.04962 0.96497 0
M  V30 3645 H 359.63 3.9108 -0.728124 0
M  V30 3646 H 356.369 5.79881 -3.05643 0
M  V30 3647 H 355.889 5.84537 -1.34448 0
M  V30 3648 H 357.568 6.21069 -1.81335 0
M  V30 3649 N 357.7 0.491464 1.49741 0
M  V30 3650 C 358.61 -0.296835 2.32715 0
M  V30 3651 C 359.626 -0.976536 1.44013 0
M  V30 3652 O 360.802 -0.960023 1.77047 0
M  V30 3653 C 357.867 -1.35288 3.19215 0
M  V30 3654 C 356.928 -0.687632 4.23757 0
M  V30 3655 C 356.161 -1.69336 5.06123 0
M  V30 3656 O 356.384 -2.92219 4.89861 0
M  V30 3657 O 355.318 -1.25394 5.88693 0
M  V30 3658 H 359.144 0.382048 3.01287 0
M  V30 3659 H 356.729 0.252953 1.47243 0
M  V30 3660 H 358.611 -1.96411 3.72828 0
M  V30 3661 H 357.286 -2.01487 2.53347 0
M  V30 3662 H 356.193 -0.0369159 3.74082 0
M  V30 3663 H 357.526 -0.0682566 4.92153 0
M  V30 3664 N 359.178 -1.55987 0.224894 0
M  V30 3665 C 360.426 -1.97998 -0.405099 0
M  V30 3666 C 360.747 -1.11387 -1.60056 0
M  V30 3667 O 360.017 -0.191645 -1.9496 0
M  V30 3668 H 358.597 -0.731235 -0.152658 0
M  V30 3669 H 361.259 -1.92279 0.318567 0
M  V30 3670 H 360.355 -3.03463 -0.729167 0
M  V30 3671 N 360.656 0.0484629 -1.57525 0
M  V30 3672 C 361.902 0.744226 -1.88651 0
M  V30 3673 C 362.235 1.76029 -0.820212 0
M  V30 3674 O 361.51 1.93782 0.166985 0
M  V30 3675 C 361.793 1.43128 -3.30434 0
M  V30 3676 C 361.646 0.43005 -4.47739 0
M  V30 3677 C 362.965 2.37031 -3.70816 0
M  V30 3678 H 360.084 0.269089 -0.68612 0
M  V30 3679 H 362.726 0.00713532 -1.89999 0
M  V30 3680 H 360.876 2.05956 -3.29415 0
M  V30 3681 H 362.548 -0.194816 -4.60888 0
M  V30 3682 H 360.791 -0.252522 -4.33064 0
M  V30 3683 H 361.462 0.948874 -5.43783 0
M  V30 3684 H 363.938 1.84263 -3.73077 0
M  V30 3685 H 362.814 2.82094 -4.70865 0
M  V30 3686 H 363.075 3.22864 -3.02012 0
M  V30 3687 N 362.134 1.5431 0.320358 0
M  V30 3688 C 363.411 1.63322 1.07635 0
M  V30 3689 C 363.791 0.46912 2.05821 0
M  V30 3690 O 363.139 -0.536274 2.22118 0
M  V30 3691 C 363.349 3.00465 1.77544 0
M  V30 3692 C 364.697 3.56621 2.30449 0
M  V30 3693 O 365.721 3.02791 1.87606 0
M  V30 3694 O 364.58 4.5083 3.08892 0
M  V30 3695 H 361.674 0.661502 0.496331 0
M  V30 3696 H 364.22 1.66656 0.319992 0
M  V30 3697 H 362.992 3.76629 1.06143 0
M  V30 3698 H 362.615 3.00824 2.59982 0
M  V30 3699 N 363.613 -0.582584 1.46437 0
M  V30 3700 C 364.576 -1.67366 1.56592 0
M  V30 3701 C 365.576 -1.54575 0.443072 0
M  V30 3702 O 366.766 -1.59191 0.707381 0
M  V30 3703 C 363.898 -3.06791 1.48634 0
M  V30 3704 H 365.091 -1.5972 2.5383 0
M  V30 3705 H 362.644 -0.800432 1.34249 0
M  V30 3706 H 363.379 -3.19993 0.526763 0
M  V30 3707 H 363.164 -3.17484 2.30101 0
M  V30 3708 H 364.654 -3.86218 1.58826 0
M  V30 3709 N 365.091 -1.34144 -0.827227 0
M  V30 3710 C 366.001 -1.27428 -1.96975 0
M  V30 3711 C 367.017 -0.182728 -1.73038 0
M  V30 3712 O 368.193 -0.408426 -1.97215 0
M  V30 3713 C 365.258 -1.02526 -3.31194 0
M  V30 3714 C 364.319 -2.20796 -3.68168 0
M  V30 3715 C 363.552 -1.97073 -4.95982 0
M  V30 3716 O 363.775 -0.926822 -5.6282 0
M  V30 3717 O 362.709 -2.83912 -5.30733 0
M  V30 3718 H 366.535 -2.23537 -2.05584 0
M  V30 3719 H 364.12 -1.14307 -0.961989 0
M  V30 3720 H 366.002 -0.904026 -4.11589 0
M  V30 3721 H 364.677 -0.0945389 -3.23562 0
M  V30 3722 H 363.584 -2.38477 -2.88235 0
M  V30 3723 H 364.917 -3.12243 -3.8048 0
M  V30 3724 N 366.569 1.04691 -1.17803 0
M  V30 3725 C 367.846 1.7472 -0.879328 0
M  V30 3726 C 368.226 2.01812 0.619271 0
M  V30 3727 O 367.574 1.65824 1.57209 0
M  V30 3728 C 367.784 3.03686 -1.71976 0
M  V30 3729 C 369.132 3.77542 -1.94286 0
M  V30 3730 O 370.156 3.13569 -1.68976 0
M  V30 3731 O 369.015 4.92506 -2.36855 0
M  V30 3732 H 366.109 0.760011 -0.326056 0
M  V30 3733 H 368.655 1.10813 -1.28525 0
M  V30 3734 H 367.427 2.79754 -2.73594 0
M  V30 3735 H 367.05 3.75332 -1.31194 0
M  V30 3736 N 368.047 0.979072 1.23499 0
M  V30 3737 C 369.295 0.645941 1.91499 0
M  V30 3738 C 369.616 -0.822948 1.76784 0
M  V30 3739 O 368.886 -1.58854 1.14639 0
M  V30 3740 H 367.466 0.235919 0.708767 0
M  V30 3741 H 370.128 1.2426 1.50152 0
M  V30 3742 H 369.224 0.896411 2.9895 0
M  V30 3743 N 369.525 -1.3858 0.750561 0
M  V30 3744 C 370.475 -2.27795 0.0965949 0
M  V30 3745 C 371.459 -1.45048 -0.696411 0
M  V30 3746 O 372.651 -1.67812 -0.562863 0
M  V30 3747 C 369.78 -3.33894 -0.798085 0
M  V30 3748 C 368.866 -4.241 0.0016067 0
M  V30 3749 N 369.257 -4.95067 1.03647 0
M  V30 3750 C 367.555 -4.45429 -0.225674 0
M  V30 3751 C 368.256 -5.61489 1.52004 0
M  V30 3752 N 367.232 -5.37135 0.835874 0
M  V30 3753 H 371.034 -2.80125 0.889228 0
M  V30 3754 H 368.548 -1.51446 0.586323 0
M  V30 3755 H 370.545 -3.96693 -1.28219 0
M  V30 3756 H 369.205 -2.83123 -1.5897 0
M  V30 3757 H 370.216 -4.98104 1.41819 0
M  V30 3758 H 366.893 -4.05571 -0.990872 0
M  V30 3759 H 368.283 -6.28264 2.38188 0
M  V30 3760 N 371.003 -0.499398 -1.49478 0
M  V30 3761 C 372.251 0.0455996 -2.02049 0
M  V30 3762 C 372.572 1.37633 -1.38138 0
M  V30 3763 O 371.842 1.8842 -0.536166 0
M  V30 3764 H 370.422 0.0198416 -0.746736 0
M  V30 3765 H 373.084 -0.656274 -1.83519 0
M  V30 3766 H 372.18 0.176445 -3.11601 0
M  V30 3767 N 372.481 1.55866 -0.233164 0
M  V30 3768 C 373.892 1.847 0.272554 0
M  V30 3769 C 374.243 1.15477 1.58617 0
M  V30 3770 O 373.368 0.42841 2.12117 0
M  V30 3771 C 373.963 3.35071 0.501299 0
M  V30 3772 C 372.522 3.6418 0.951304 0
M  V30 3773 C 371.669 2.77292 0.0208209 0
M  V30 3774 H 374.62 1.52005 -0.456074 0
M  V30 3775 H 374.641 3.55906 1.34577 0
M  V30 3776 H 374.153 3.85424 -0.454936 0
M  V30 3777 H 372.254 3.19293 1.92049 0
M  V30 3778 H 372.367 4.72071 0.817675 0
M  V30 3779 H 370.731 2.49131 0.529723 0
M  V30 3780 H 371.514 3.30448 -0.93054 0
M  V30 3781 N 373.959 -0.0401083 1.57549 0
M  V30 3782 C 375.207 -0.731677 1.8839 0
M  V30 3783 C 375.528 -1.76481 0.829425 0
M  V30 3784 O 374.798 -1.95411 -0.1383 0
M  V30 3785 H 373.378 -0.273225 0.695239 0
M  V30 3786 H 376.04 -0.00867725 1.94898 0
M  V30 3787 H 375.136 -1.22816 2.86919 0
M  V30 3788 N 375.437 -1.54477 -0.31217 0
M  V30 3789 C 376.347 -1.87695 -1.4074 0
M  V30 3790 C 377.363 -0.769975 -1.56036 0
M  V30 3791 O 378.539 -1.06537 -1.70915 0
M  V30 3792 C 375.604 -2.10755 -2.75287 0
M  V30 3793 C 374.665 -3.34514 -2.69071 0
M  V30 3794 C 373.898 -3.56465 -3.97201 0
M  V30 3795 O 374.121 -2.81637 -4.96021 0
M  V30 3796 O 373.055 -4.49964 -3.9977 0
M  V30 3797 H 376.881 -2.80849 -1.15574 0
M  V30 3798 H 374.466 -1.40526 -0.507228 0
M  V30 3799 H 376.348 -2.27188 -3.54913 0
M  V30 3800 H 375.023 -1.20788 -3.0032 0
M  V30 3801 H 373.93 -3.23456 -1.87955 0
M  V30 3802 H 375.263 -4.24575 -2.48992 0
M  V30 3803 N 376.915 0.57481 -1.46744 0
M  V30 3804 C 377.847 1.69804 -1.53946 0
M  V30 3805 C 378.86 1.57098 -0.427106 0
M  V30 3806 O 380.049 1.64378 -0.695863 0
M  V30 3807 C 377.149 3.08125 -1.4111 0
M  V30 3808 C 376.322 3.46757 -2.66605 0
M  V30 3809 C 375.381 4.6417 -2.47855 0
M  V30 3810 O 374.407 4.69634 -3.21609 0
M  V30 3811 N 375.609 5.59553 -1.54534 0
M  V30 3812 H 378.374 1.64077 -2.50796 0
M  V30 3813 H 375.935 0.761 -1.429 0
M  V30 3814 H 377.927 3.84478 -1.26328 0
M  V30 3815 H 376.497 3.08175 -0.524109 0
M  V30 3816 H 375.717 2.6003 -2.96274 0
M  V30 3817 H 377.005 3.69337 -3.49954 0
M  V30 3818 H 376.403 5.57881 -0.937304 0
M  V30 3819 H 374.96 6.35304 -1.45711 0
M  V30 3820 N 378.394 1.34581 0.820102 0
M  V30 3821 C 379.326 1.22236 1.93884 0
M  V30 3822 C 380.339 0.148776 1.62119 0
M  V30 3823 O 381.528 0.400877 1.7394 0
M  V30 3824 C 378.628 0.856542 3.27897 0
M  V30 3825 C 377.801 2.02569 3.87666 0
M  V30 3826 C 376.86 1.63782 5.00062 0
M  V30 3827 O 375.886 2.35477 5.18208 0
M  V30 3828 N 377.088 0.553611 5.77854 0
M  V30 3829 H 379.853 2.18615 2.05006 0
M  V30 3830 H 377.414 1.27573 0.99683 0
M  V30 3831 H 379.406 0.578806 4.0054 0
M  V30 3832 H 377.976 -0.0171518 3.12595 0
M  V30 3833 H 377.196 2.468 3.07382 0
M  V30 3834 H 378.484 2.80752 4.24329 0
M  V30 3835 H 377.882 -0.0423528 5.65684 0
M  V30 3836 H 376.439 0.335614 6.50935 0
M  V30 3837 N 379.872 -1.04064 1.18357 0
M  V30 3838 C 380.819 -2.12077 0.910603 0
M  V30 3839 C 381.789 -1.65421 -0.15 0
M  V30 3840 O 382.974 -1.90797 -0.0103614 0
M  V30 3841 C 380.114 -3.42252 0.442472 0
M  V30 3842 C 379.227 -4.0252 1.5685 0
M  V30 3843 C 378.362 -5.20657 1.05309 0
M  V30 3844 C 377.401 -5.72955 2.1538 0
M  V30 3845 N 376.538 -6.8238 1.65233 0
M  V30 3846 H 381.378 -2.34764 1.83548 0
M  V30 3847 H 378.915 -1.15157 0.915279 0
M  V30 3848 H 380.873 -4.16921 0.152534 0
M  V30 3849 H 379.503 -3.19712 -0.445428 0
M  V30 3850 H 378.555 -3.25178 1.97391 0
M  V30 3851 H 379.867 -4.37362 2.39824 0
M  V30 3852 H 379.021 -6.0244 0.717677 0
M  V30 3853 H 377.76 -4.87318 0.19293 0
M  V30 3854 H 376.765 -4.89793 2.49766 0
M  V30 3855 H 377.99 -6.08337 3.01832 0
M  V30 3856 H 375.936 -6.50917 0.815064 0
M  V30 3857 H 375.853 -7.16286 2.41805 0
M  V30 3858 H 377.121 -7.67788 1.34619 0
M  V30 3859 N 381.35 -0.985608 -1.22978 0
M  V30 3860 C 382.766 -0.695104 -1.43668 0
M  V30 3861 C 382.966 0.736866 -1.87543 0
M  V30 3862 O 382.022 1.50868 -2.02473 0
M  V30 3863 C 383.335 -1.69447 -2.48412 0
M  V30 3864 C 384.883 -1.70909 -2.62219 0
M  V30 3865 C 385.358 -2.6969 -3.70178 0
M  V30 3866 N 386.849 -2.6824 -3.77626 0
M  V30 3867 C 387.584 -3.41339 -4.60733 0
M  V30 3868 N 387.08 -4.24015 -5.4789 0
M  V30 3869 N 388.873 -3.30079 -4.54977 0
M  V30 3870 H 381.024 -1.91054 -0.928016 0
M  V30 3871 H 383.287 -0.823553 -0.469536 0
M  V30 3872 H 382.993 -2.7188 -2.23102 0
M  V30 3873 H 382.867 -1.48147 -3.46889 0
M  V30 3874 H 385.254 -0.691785 -2.86877 0
M  V30 3875 H 385.335 -1.96276 -1.6404 0
M  V30 3876 H 384.979 -3.71566 -3.46268 0
M  V30 3877 H 384.909 -2.41595 -4.67909 0
M  V30 3878 H 387.4 -2.08243 -3.15346 0
M  V30 3879 H 387.713 -4.76636 -6.08308 0
M  V30 3880 H 386.058 -4.28104 -5.47496 0
M  V30 3881 H 389.249 -2.64937 -3.85909 0
M  V30 3882 H 389.422 -3.87308 -5.19516 0
M  V30 3883 N 382.828 1.3818 -0.7579 0
M  V30 3884 C 383.775 2.30416 -0.133057 0
M  V30 3885 C 384.745 1.50398 0.704957 0
M  V30 3886 O 385.93 1.79014 0.660192 0
M  V30 3887 C 383.07 3.36834 0.750813 0
M  V30 3888 C 382.183 4.31879 -0.102297 0
M  V30 3889 C 381.318 5.25368 0.784979 0
M  V30 3890 C 380.357 6.12058 -0.0715046 0
M  V30 3891 N 379.494 6.97832 0.772972 0
M  V30 3892 H 384.334 2.83274 -0.925186 0
M  V30 3893 H 381.871 1.39461 -0.467866 0
M  V30 3894 H 383.829 3.97145 1.27794 0
M  V30 3895 H 382.459 2.85374 1.50868 0
M  V30 3896 H 381.511 3.72991 -0.747095 0
M  V30 3897 H 382.823 4.92921 -0.763552 0
M  V30 3898 H 381.977 5.90818 1.37911 0
M  V30 3899 H 380.716 4.64703 1.47996 0
M  V30 3900 H 379.721 5.456 -0.678272 0
M  V30 3901 H 380.946 6.74793 -0.763606 0
M  V30 3902 H 378.892 6.3971 1.45282 0
M  V30 3903 H 378.809 7.55812 0.168709 0
M  V30 3904 H 380.077 7.67687 1.35194 0
M  V30 3905 N 384.306 0.507319 1.49211 0
M  V30 3906 C 385.555 -0.0368315 2.01666 0
M  V30 3907 C 385.868 -1.37459 1.39156 0
M  V30 3908 O 387.074 -2.00579 1.82976 0
M  V30 3909 C 385.53 -0.116089 3.59713 0
M  V30 3910 C 385.138 1.2154 4.31198 0
M  V30 3911 C 386.882 -0.610268 4.2009 0
M  V30 3912 C 384.789 1.09796 5.81119 0
M  V30 3913 H 383.719 -0.0175376 0.753796 0
M  V30 3914 H 386.37 0.647691 1.71689 0
M  V30 3915 H 384.752 -0.8652 3.86433 0
M  V30 3916 H 385.926 1.9783 4.16173 0
M  V30 3917 H 384.241 1.64352 3.82593 0
M  V30 3918 H 386.838 -0.715742 5.29888 0
M  V30 3919 H 387.181 -1.61064 3.8388 0
M  V30 3920 H 387.714 0.0824916 3.97714 0
M  V30 3921 H 384.453 2.0728 6.21864 0
M  V30 3922 H 383.973 0.376058 5.9862 0
M  V30 3923 H 385.652 0.779281 6.4229 0
M  V30 3924 N 385.784 -1.5574 0.241426 0
M  V30 3925 C 387.03 -1.99104 -0.385406 0
M  V30 3926 C 387.363 -1.1293 -1.57988 0
M  V30 3927 O 386.638 -0.191449 -1.93555 0
M  V30 3928 C 386.921 -3.51087 -0.800616 0
M  V30 3929 C 386.774 -4.48028 0.398874 0
M  V30 3930 C 388.093 -4.08015 -1.64959 0
M  V30 3931 H 385.212 -0.723848 -0.138614 0
M  V30 3932 H 387.854 -1.86903 0.341642 0
M  V30 3933 H 386.004 -3.61615 -1.4201 0
M  V30 3934 H 387.676 -4.49487 1.03726 0
M  V30 3935 H 385.919 -4.21077 1.04293 0
M  V30 3936 H 386.59 -5.51962 0.0651056 0
M  V30 3937 H 389.066 -4.00555 -1.12672 0
M  V30 3938 H 387.942 -5.14635 -1.90898 0
M  V30 3939 H 388.203 -3.56131 -2.61961 0
M  V30 3940 N 387.262 0.0317525 -1.57568 0
M  V30 3941 C 388.192 1.03274 -2.0942 0
M  V30 3942 C 389.173 1.3788 -0.996143 0
M  V30 3943 O 390.358 1.46811 -1.27122 0
M  V30 3944 C 387.488 2.33448 -2.57137 0
M  V30 3945 C 386.442 2.13091 -3.71182 0
M  V30 3946 C 385.768 3.49001 -4.05095 0
M  V30 3947 C 387.068 1.51928 -4.99715 0
M  V30 3948 H 388.762 0.60112 -2.93303 0
M  V30 3949 H 386.308 0.287705 -1.41097 0
M  V30 3950 H 388.261 3.03802 -2.92032 0
M  V30 3951 H 386.985 2.78665 -1.70333 0
M  V30 3952 H 385.644 1.45171 -3.36632 0
M  V30 3953 H 385.292 3.91862 -3.15362 0
M  V30 3954 H 384.992 3.36207 -4.81911 0
M  V30 3955 H 386.516 4.20721 -4.42522 0
M  V30 3956 H 387.93 2.12196 -5.32584 0
M  V30 3957 H 386.327 1.49716 -5.81124 0
M  V30 3958 H 387.397 0.484811 -4.8247 0
M  V30 3959 N 388.74 1.54641 0.303973 0
M  V30 3960 C 390.017 1.64455 1.05896 0
M  V30 3961 C 390.397 0.490923 2.05312 0
M  V30 3962 O 389.745 -0.512685 2.22674 0
M  V30 3963 C 389.955 3.02331 1.74347 0
M  V30 3964 C 391.303 3.59045 2.26653 0
M  V30 3965 O 392.327 3.04764 1.84384 0
M  V30 3966 O 391.186 4.54081 3.04093 0
M  V30 3967 H 388.28 0.666729 0.489287 0
M  V30 3968 H 390.826 1.66986 0.302298 0
M  V30 3969 H 389.598 3.77734 1.02142 0
M  V30 3970 H 389.221 3.03565 2.56777 0
M  V30 3971 N 390.218 -0.567019 1.47046 0
M  V30 3972 C 391.629 -1.14916 1.47143 0
M  V30 3973 C 391.98 -1.94954 0.220767 0
M  V30 3974 O 391.105 -2.05602 -0.67505 0
M  V30 3975 C 391.7 -2.09069 2.666 0
M  V30 3976 C 390.259 -2.62575 2.69687 0
M  V30 3977 C 389.406 -1.38755 2.40088 0
M  V30 3978 H 392.357 -0.354126 1.54699 0
M  V30 3979 H 392.378 -2.92789 2.43011 0
M  V30 3980 H 391.89 -1.50789 3.57609 0
M  V30 3981 H 389.991 -3.24681 1.82792 0
M  V30 3982 H 390.104 -3.04239 3.70102 0
M  V30 3983 H 388.468 -1.69098 1.90468 0
M  V30 3984 H 389.251 -0.822822 3.33293 0
M  V30 3985 N 391.696 -1.35014 -0.812953 0
M  V30 3986 C 392.921 -1.31187 -1.60639 0
M  V30 3987 C 393.346 0.109382 -1.87782 0
M  V30 3988 O 392.704 1.07424 -1.46047 0
M  V30 3989 C 392.752 -2.11809 -2.91838 0
M  V30 3990 O 391.856 -1.49444 -3.8437 0
M  V30 3991 H 391.197 -0.450084 -0.488181 0
M  V30 3992 H 393.727 -1.77963 -1.00947 0
M  V30 3993 H 393.737 -2.23531 -3.41318 0
M  V30 3994 H 392.412 -3.15137 -2.71407 0
M  V30 3995 H 390.989 -1.46524 -3.42907 0
M  V30 3996 N 393.175 1.03435 -1.18907 0
M  V30 3997 C 394.423 1.76394 -0.986382 0
M  V30 3998 C 394.744 1.88883 0.484567 0
M  V30 3999 O 394.014 1.41843 1.3512 0
M  V30 4000 H 392.594 0.65344 -0.361975 0
M  V30 4001 H 395.256 1.248 -1.49703 0
M  V30 4002 H 394.352 2.77424 -1.42978 0
M  V30 4003 N 394.653 0.992116 1.22453 0
M  V30 4004 C 395.878 0.685644 1.95739 0
M  V30 4005 C 396.303 -0.743 1.72804 0
M  V30 4006 O 395.661 -1.50778 1.00676 0
M  V30 4007 C 395.709 0.996293 3.46564 0
M  V30 4008 O 394.813 0.0945512 4.12292 0
M  V30 4009 H 394.154 0.256694 0.612376 0
M  V30 4010 H 396.684 1.32888 1.5557 0
M  V30 4011 H 396.694 0.93781 3.97076 0
M  V30 4012 H 395.369 2.03733 3.62582 0
M  V30 4013 H 393.946 0.208451 3.72317 0
M  V30 4014 N 396.131 -1.37776 0.765217 0
M  V30 4015 C 397.064 -2.28008 0.0935025 0
M  V30 4016 C 398.042 -1.45985 -0.716047 0
M  V30 4017 O 399.226 -1.75331 -0.692203 0
M  V30 4018 C 396.353 -3.27228 -0.874052 0
M  V30 4019 C 395.399 -4.26239 -0.149307 0
M  V30 4020 S 396.232 -5.22827 1.15809 0
M  V30 4021 C 397.388 -6.256 0.193906 0
M  V30 4022 H 397.621 -2.84631 0.858637 0
M  V30 4023 H 395.154 -1.43952 0.558313 0
M  V30 4024 H 397.112 -3.84902 -1.42691 0
M  V30 4025 H 395.773 -2.69565 -1.61225 0
M  V30 4026 H 394.966 -4.96213 -0.88254 0
M  V30 4027 H 394.568 -3.7252 0.332366 0
M  V30 4028 H 396.86 -6.74508 -0.636011 0
M  V30 4029 H 397.803 -7.02838 0.861638 0
M  V30 4030 H 398.211 -5.64173 -0.191975 0
M  V30 4031 N 397.609 -0.515225 -1.4894 0
M  V30 4032 C 398.557 0.269115 -2.31038 0
M  V30 4033 C 399.551 0.949443 -1.40292 0
M  V30 4034 O 400.757 0.87551 -1.57273 0
M  V30 4035 H 397.132 0.10565 -0.744542 0
M  V30 4036 H 399.103 -0.443096 -2.95092 0
M  V30 4037 C 397.852 1.31213 -3.21991 0
M  V30 4038 H 397.175 0.798034 -3.91754 0
M  V30 4039 H 398.615 1.83263 -3.82349 0
M  V30 4040 C 397.074 2.33791 -2.42576 0
M  V30 4041 O 397.604 3.3995 -2.14003 0
M  V30 4042 N 395.81 2.06625 -2.0434 0
M  V30 4043 H 395.357 1.20314 -2.27777 0
M  V30 4044 H 395.315 2.75483 -1.51514 0
M  V30 4045 N 399.087 1.5561 -0.249682 0
M  V30 4046 C 400.336 1.98187 0.37479 0
M  V30 4047 C 400.649 1.14111 1.58865 0
M  V30 4048 O 401.855 1.46714 2.28445 0
M  V30 4049 C 400.311 3.52661 0.718192 0
M  V30 4050 C 399.919 4.45481 -0.474428 0
M  V30 4051 C 401.663 4.03888 1.3067 0
M  V30 4052 C 399.57 5.91303 -0.107026 0
M  V30 4053 H 398.5 0.740159 0.143808 0
M  V30 4054 H 401.151 1.80125 -0.350336 0
M  V30 4055 H 399.533 3.66429 1.50152 0
M  V30 4056 H 400.707 4.43473 -1.25172 0
M  V30 4057 H 399.022 4.04751 -0.978052 0
M  V30 4058 H 401.619 5.10358 1.59496 0
M  V30 4059 H 401.962 3.51401 2.23211 0
M  V30 4060 H 402.495 3.93457 0.586211 0
M  V30 4061 H 399.234 6.47833 -0.999642 0
M  V30 4062 H 398.754 5.9644 0.634013 0
M  V30 4063 H 400.433 6.46258 0.309807 0
M  V30 4064 N 400.565 -0.0233959 1.57583 0
M  V30 4065 C 401.795 -0.723631 1.93513 0
M  V30 4066 C 402.203 -1.69115 0.848333 0
M  V30 4067 O 401.546 -1.82781 -0.183484 0
M  V30 4068 C 401.608 -1.53075 3.25282 0
M  V30 4069 C 401.272 -0.727388 4.51174 0
M  V30 4070 C 402.269 -0.0251924 5.19894 0
M  V30 4071 C 399.954 -0.680256 4.97672 0
M  V30 4072 C 401.948 0.713374 6.33395 0
M  V30 4073 C 399.635 0.0620523 6.11068 0
M  V30 4074 C 400.633 0.757622 6.78785 0
M  V30 4075 O 400.321 1.48787 7.90011 0
M  V30 4076 H 400.053 -0.208051 0.643188 0
M  V30 4077 H 402.607 0.0167489 2.05393 0
M  V30 4078 H 400.837 -2.31508 3.09744 0
M  V30 4079 H 402.526 -2.11413 3.46496 0
M  V30 4080 H 403.292 -0.0526003 4.84971 0
M  V30 4081 H 399.171 -1.21116 4.44805 0
M  V30 4082 H 402.715 1.25683 6.86185 0
M  V30 4083 H 398.612 0.0913634 6.45435 0
M  V30 4084 H 399.38 1.40213 8.06401 0
M  V30 4085 N 402.043 -1.548 -0.295768 0
M  V30 4086 C 402.973 -1.89115 -1.36959 0
M  V30 4087 C 403.954 -0.75059 -1.52644 0
M  V30 4088 O 405.139 -1.00678 -1.66065 0
M  V30 4089 C 402.269 -2.14307 -2.73295 0
M  V30 4090 C 401.223 -3.30151 -2.72368 0
M  V30 4091 C 400.549 -3.40772 -4.12042 0
M  V30 4092 C 401.849 -4.67126 -2.33646 0
M  V30 4093 H 403.543 -2.79053 -1.08488 0
M  V30 4094 H 401.089 -1.34266 -0.520443 0
M  V30 4095 H 403.042 -2.36898 -3.48507 0
M  V30 4096 H 401.766 -1.21145 -3.03301 0
M  V30 4097 H 400.425 -3.0749 -1.99613 0
M  V30 4098 H 400.073 -2.45117 -4.39234 0
M  V30 4099 H 399.773 -4.18645 -4.12322 0
M  V30 4100 H 401.297 -3.6563 -4.89027 0
M  V30 4101 H 402.711 -4.89414 -2.98575 0
M  V30 4102 H 401.108 -5.47751 -2.45129 0
M  V30 4103 H 402.178 -4.67489 -1.28772 0
M  V30 4104 N 403.521 0.559213 -1.47345 0
M  V30 4105 C 404.767 1.31843 -1.54095 0
M  V30 4106 C 405.1 1.93149 -0.201726 0
M  V30 4107 O 404.375 1.77759 0.789428 0
M  V30 4108 C 404.658 2.43006 -2.65744 0
M  V30 4109 C 404.511 1.86581 -4.09277 0
M  V30 4110 C 405.83 3.44943 -2.73318 0
M  V30 4111 H 402.949 0.478012 -0.560957 0
M  V30 4112 H 405.591 0.625977 -1.79392 0
M  V30 4113 H 403.741 3.02072 -2.44305 0
M  V30 4114 H 405.413 1.31792 -4.42073 0
M  V30 4115 H 403.656 1.17268 -4.17649 0
M  V30 4116 H 404.327 2.66933 -4.83168 0
M  V30 4117 H 406.803 2.95793 -2.92653 0
M  V30 4118 H 405.679 4.20153 -3.53218 0
M  V30 4119 H 405.94 4.03665 -1.80296 0
M  V30 4120 N 404.999 1.35443 0.805782 0
M  V30 4121 C 405.929 1.31095 1.93226 0
M  V30 4122 C 406.91 0.185244 1.69088 0
M  V30 4123 O 408.095 0.380332 1.90439 0
M  V30 4124 C 405.225 1.08299 3.29983 0
M  V30 4125 C 404.179 2.17519 3.68605 0
M  V30 4126 C 403.505 1.79887 5.03532 0
M  V30 4127 C 404.805 3.5949 3.78898 0
M  V30 4128 H 406.499 2.25352 1.97122 0
M  V30 4129 H 404.045 1.0848 0.946996 0
M  V30 4130 H 405.998 1.03897 4.08391 0
M  V30 4131 H 404.722 0.104885 3.26432 0
M  V30 4132 H 403.381 2.2102 2.92482 0
M  V30 4133 H 403.029 0.80693 4.96485 0
M  V30 4134 H 402.729 2.53001 5.30344 0
M  V30 4135 H 404.253 1.77011 5.84379 0
M  V30 4136 H 405.667 3.58307 4.47536 0
M  V30 4137 H 404.064 4.31371 4.1718 0
M  V30 4138 H 405.134 3.95584 2.80431 0
M  V30 4139 N 406.477 -1.02803 1.19454 0
M  V30 4140 C 407.754 -1.73299 0.907013 0
M  V30 4141 C 408.134 -2.02772 -0.587086 0
M  V30 4142 O 407.482 -1.68304 -1.54551 0
M  V30 4143 C 407.692 -3.00912 1.76785 0
M  V30 4144 C 409.04 -3.74403 2.00268 0
M  V30 4145 O 410.064 -3.10841 1.73943 0
M  V30 4146 O 408.923 -4.88675 2.4466 0
M  V30 4147 H 406.017 -0.754727 0.338106 0
M  V30 4148 H 408.563 -1.08754 1.30271 0
M  V30 4149 H 407.335 -2.75366 2.7801 0
M  V30 4150 H 406.958 -3.73197 1.37149 0
M  V30 4151 N 407.956 -0.998596 -1.21925 0
M  V30 4152 C 409.204 -0.676325 -1.90448 0
M  V30 4153 C 409.525 0.794719 -1.78071 0
M  V30 4154 O 408.795 1.5701 -1.17152 0
M  V30 4155 H 407.375 -0.247165 -0.704925 0
M  V30 4156 H 410.037 -1.26633 -1.48156 0
M  V30 4157 H 409.133 -0.943858 -2.97486 0
M  V30 4158 N 409.434 1.37368 -0.772513 0
M  V30 4159 C 410.659 2.0447 -0.347386 0
M  V30 4160 C 411.084 1.57882 1.0225 0
M  V30 4161 O 410.442 0.73941 1.65537 0
M  V30 4162 C 410.49 3.58369 -0.400479 0
M  V30 4163 O 409.594 4.0803 0.598789 0
M  V30 4164 H 408.935 0.646773 -0.15027 0
M  V30 4165 H 411.465 1.75667 -1.04892 0
M  V30 4166 H 411.475 4.07183 -0.258045 0
M  V30 4167 H 410.15 3.91633 -1.39986 0
M  V30 4168 H 408.727 3.70534 0.419411 0
M  V30 4169 N 410.912 0.523116 1.48665 0
M  V30 4170 C 412.189 -0.0775449 1.95446 0
M  V30 4171 C 412.569 -1.5197 1.4652 0
M  V30 4172 O 411.917 -2.17876 0.688657 0
M  V30 4173 C 412.127 0.0326135 3.48985 0
M  V30 4174 C 413.475 -0.130141 4.24401 0
M  V30 4175 O 414.499 -0.0415142 3.56176 0
M  V30 4176 O 413.358 -0.31491 5.45592 0
M  V30 4177 H 410.452 -0.0831012 0.822814 0
M  V30 4178 H 412.998 0.587227 1.59216 0
M  V30 4179 H 411.77 1.03748 3.77296 0
M  V30 4180 H 411.393 -0.671317 3.91892 0
M  V30 4181 N 412.39 -1.55475 0.257931 0
M  V30 4182 C 413.615 -2.04064 -0.370488 0
M  V30 4183 C 414.04 -1.13565 -1.49948 0
M  V30 4184 O 413.398 -0.130781 -1.80828 0
M  V30 4185 C 413.446 -3.50554 -0.845237 0
M  V30 4186 O 412.55 -3.63173 -1.95394 0
M  V30 4187 H 411.891 -0.659257 -0.0792243 0
M  V30 4188 H 414.421 -2.00903 0.387212 0
M  V30 4189 H 414.431 -3.91588 -1.14555 0
M  V30 4190 H 413.106 -4.15896 -0.0191259 0
M  V30 4191 H 411.683 -3.34039 -1.65748 0
M  V30 4192 N 413.868 0.0150385 -1.57593 0
M  V30 4193 C 415.117 0.702115 -1.89085 0
M  V30 4194 C 415.43 1.75764 -0.858277 0
M  V30 4195 O 416.636 2.49829 -1.0629 0
M  V30 4196 C 415.092 1.29992 -3.35604 0
M  V30 4197 C 414.7 0.280007 -4.47124 0
M  V30 4198 C 416.444 1.96606 -3.76227 0
M  V30 4199 C 414.351 0.886949 -5.84711 0
M  V30 4200 H 413.281 0.265997 -0.705522 0
M  V30 4201 H 415.932 -0.0430408 -1.8345 0
M  V30 4202 H 414.314 2.09525 -3.36029 0
M  V30 4203 H 415.488 -0.489631 -4.58191 0
M  V30 4204 H 413.803 -0.284835 -4.15425 0
M  V30 4205 H 416.4 2.42893 -4.76347 0
M  V30 4206 H 416.743 2.79024 -3.08952 0
M  V30 4207 H 417.276 1.23828 -3.78036 0
M  V30 4208 H 414.015 0.101876 -6.55421 0
M  V30 4209 H 413.535 1.6261 -5.77337 0
M  V30 4210 H 415.214 1.39011 -6.3189 0
M  V30 4211 N 415.346 1.54954 0.287554 0
M  V30 4212 C 416.594 1.74528 1.01904 0
M  V30 4213 C 416.915 0.541349 1.87335 0
M  V30 4214 O 416.185 -0.444108 1.908 0
M  V30 4215 H 414.765 0.643576 0.379235 0
M  V30 4216 H 417.427 1.92333 0.315294 0
M  V30 4217 H 416.523 2.64015 1.6644 0
M  V30 4218 N 416.824 -0.551391 1.4764 0
M  V30 4219 C 417.787 -1.64007 1.60107 0
M  V30 4220 C 418.787 -1.53601 0.47576 0
M  V30 4221 O 419.977 -1.57655 0.740988 0
M  V30 4222 C 417.109 -3.03569 1.55108 0
M  V30 4223 H 418.302 -1.543 2.57161 0
M  V30 4224 H 415.855 -0.771776 1.35917 0
M  V30 4225 H 416.59 -3.18804 0.594519 0
M  V30 4226 H 416.375 -3.12532 2.36783 0
M  V30 4227 H 417.865 -3.82762 1.66982 0
M  V30 4228 N 418.302 -1.35869 -0.798587 0
M  V30 4229 C 419.527 -1.32883 -1.59238 0
M  V30 4230 C 419.952 0.0894587 -1.87887 0
M  V30 4231 O 419.31 1.05869 -1.47178 0
M  V30 4232 C 419.358 -2.14892 -2.89575 0
M  V30 4233 O 418.462 -1.53512 -3.82763 0
M  V30 4234 H 417.803 -0.455236 -0.48338 0
M  V30 4235 H 420.333 -1.79024 -0.990539 0
M  V30 4236 H 420.343 -2.27139 -3.38928 0
M  V30 4237 H 419.018 -3.17998 -2.68049 0
M  V30 4238 H 417.595 -1.50153 -3.41334 0
M  V30 4239 N 419.78 1.02168 -1.19998 0
M  V30 4240 C 420.728 2.12717 -0.940967 0
M  V30 4241 C 421.722 1.69069 0.105841 0
M  V30 4242 O 422.928 1.79946 -0.0440583 0
M  V30 4243 H 419.303 0.695108 -0.28693 0
M  V30 4244 H 421.274 2.3175 -1.87975 0
M  V30 4245 C 420.023 3.44027 -0.504049 0
M  V30 4246 H 419.346 3.78036 -1.30112 0
M  V30 4247 H 420.786 4.22452 -0.361991 0
M  V30 4248 C 419.245 3.27678 0.782878 0
M  V30 4249 O 419.775 3.56949 1.84256 0
M  V30 4250 N 417.981 2.80943 0.742921 0
M  V30 4251 H 417.528 2.57322 -0.119687 0
M  V30 4252 H 417.486 2.70385 1.60435 0
M  V30 4253 N 421.258 1.00505 1.21394 0
M  V30 4254 C 422.505 0.687774 1.90462 0
M  V30 4255 C 422.833 -0.78147 1.7811 0
M  V30 4256 O 422.088 -1.58208 1.1519 0
M  V30 4257 C 422.387 1.0546 3.41486 0
M  V30 4258 C 422.053 2.51812 3.74034 0
M  V30 4259 C 420.715 2.91804 3.82628 0
M  V30 4260 C 423.067 3.46614 3.8924 0
M  V30 4261 C 420.395 4.2556 4.03876 0
M  V30 4262 C 422.747 4.80044 4.11995 0
M  V30 4263 C 421.411 5.19759 4.18816 0
M  V30 4264 H 420.681 0.251674 0.696951 0
M  V30 4265 H 423.328 1.26349 1.43903 0
M  V30 4266 H 421.633 0.397133 3.89782 0
M  V30 4267 H 423.33 0.786976 3.93202 0
M  V30 4268 H 419.92 2.1982 3.67936 0
M  V30 4269 H 424.104 3.16883 3.81967 0
M  V30 4270 H 419.36 4.55901 4.07387 0
M  V30 4271 H 423.534 5.53439 4.22704 0
M  V30 4272 H 421.161 6.23418 4.35033 0
M  V30 4273 N 422.737 -1.36956 0.779787 0
M  V30 4274 C 423.965 -2.03755 0.359398 0
M  V30 4275 C 424.38 -1.58807 -1.02106 0
M  V30 4276 O 423.737 -0.773024 -1.6532 0
M  V30 4277 C 423.788 -3.59251 0.402568 0
M  V30 4278 O 423.509 -4.02557 1.72858 0
M  V30 4279 C 425.01 -4.43291 -0.0284068 0
M  V30 4280 H 422.23 -0.654148 0.149437 0
M  V30 4281 H 424.774 -1.75128 1.05595 0
M  V30 4282 H 422.929 -3.86621 -0.245478 0
M  V30 4283 H 423.343 -4.97111 1.67275 0
M  V30 4284 H 424.817 -5.51975 0.0529466 0
M  V30 4285 H 425.294 -4.25719 -1.07982 0
M  V30 4286 H 425.9 -4.21163 0.591758 0
M  V30 4287 N 424.215 -0.530993 -1.48385 0
M  V30 4288 C 425.463 0.00273189 -2.021 0
M  V30 4289 C 425.784 1.34672 -1.41027 0
M  V30 4290 O 425.054 1.8724 -0.576012 0
M  V30 4291 H 423.634 0.00399774 -0.746989 0
M  V30 4292 H 426.296 -0.695054 -1.82085 0
M  V30 4293 H 425.392 0.11031 -3.11905 0
M  V30 4294 N 425.693 1.55336 -0.266172 0
M  V30 4295 C 426.656 2.20878 0.612001 0
M  V30 4296 C 427.656 1.18388 1.08816 0
M  V30 4297 O 428.846 1.4335 0.989774 0
M  V30 4298 C 425.978 2.86765 1.84332 0
M  V30 4299 H 427.171 2.99873 0.0398718 0
M  V30 4300 H 424.724 1.56291 -0.0167309 0
M  V30 4301 H 425.459 2.11759 2.45619 0
M  V30 4302 H 425.244 3.61862 1.5099 0
M  V30 4303 H 426.734 3.36867 2.46801 0
M  V30 4304 N 427.171 -0.0066808 1.57599 0
M  V30 4305 C 428.118 -1.00024 2.08 0
M  V30 4306 C 429.088 -1.34549 0.973943 0
M  V30 4307 O 430.273 -1.44502 1.24595 0
M  V30 4308 C 427.413 -2.2891 2.58252 0
M  V30 4309 C 426.526 -2.00346 3.82734 0
M  V30 4310 C 425.661 -3.23265 4.21513 0
M  V30 4311 C 424.7 -2.90357 5.3885 0
M  V30 4312 N 423.837 -4.05793 5.72954 0
M  V30 4313 H 428.677 -0.563499 2.92624 0
M  V30 4314 H 426.214 -0.266592 1.44664 0
M  V30 4315 H 428.172 -3.04247 2.85464 0
M  V30 4316 H 426.802 -2.70265 1.76512 0
M  V30 4317 H 425.854 -1.15406 3.62471 0
M  V30 4318 H 427.166 -1.72086 4.68175 0
M  V30 4319 H 426.32 -4.06953 4.49971 0
M  V30 4320 H 425.059 -3.54657 3.34768 0
M  V30 4321 H 424.064 -2.05075 5.10122 0
M  V30 4322 H 425.289 -2.60219 6.27266 0
M  V30 4323 H 423.235 -4.37094 4.89167 0
M  V30 4324 H 423.152 -3.81034 6.52954 0
M  V30 4325 H 424.42 -4.90289 6.06001 0
M  V30 4326 N 428.649 -1.55105 -0.279332 0
M  V30 4327 C 429.596 -1.8755 -1.34513 0
M  V30 4328 C 430.566 -0.726384 -1.49375 0
M  V30 4329 O 431.751 -0.977063 -1.63884 0
M  V30 4330 C 428.891 -2.14738 -2.70151 0
M  V30 4331 C 428.004 -3.42285 -2.63562 0
M  V30 4332 C 427.139 -3.59206 -3.91337 0
M  V30 4333 C 426.178 -4.80467 -3.79233 0
M  V30 4334 N 425.315 -4.94079 -4.98829 0
M  V30 4335 H 430.155 -2.78456 -1.06143 0
M  V30 4336 H 427.692 -1.37867 -0.512936 0
M  V30 4337 H 429.65 -2.28501 -3.49061 0
M  V30 4338 H 428.28 -1.27075 -2.96735 0
M  V30 4339 H 427.332 -3.37029 -1.76397 0
M  V30 4340 H 428.644 -4.31328 -2.50515 0
M  V30 4341 H 427.798 -3.72751 -4.78687 0
M  V30 4342 H 426.537 -2.68337 -4.07243 0
M  V30 4343 H 425.542 -4.66932 -2.90266 0
M  V30 4344 H 426.767 -5.72765 -3.64852 0
M  V30 4345 H 424.713 -4.06139 -5.15158 0
M  V30 4346 H 424.63 -5.77156 -4.8829 0
M  V30 4347 H 425.898 -5.12003 -5.8777 0
M  V30 4348 N 430.127 0.543554 -1.4793 0
M  V30 4349 C 431.367 1.31072 -1.56843 0
M  V30 4350 C 431.731 1.90604 -0.231124 0
M  V30 4351 O 432.932 2.68091 -0.195165 0
M  V30 4352 C 431.203 2.38106 -2.66533 0
M  V30 4353 S 432.762 3.24729 -2.95122 0
M  V30 4354 H 429.58 0.446035 -0.553691 0
M  V30 4355 H 432.182 0.620777 -1.85382 0
M  V30 4356 H 430.886 1.92828 -3.62278 0
M  V30 4357 H 430.417 3.11824 -2.39852 0
M  V30 4358 H 432.432 4.37891 -2.3338 0
M  V30 4359 N 431.605 1.3629 0.791371 0
M  V30 4360 C 432.535 1.33137 1.91825 0
M  V30 4361 C 433.516 0.203168 1.68882 0
M  V30 4362 O 434.701 0.400509 1.90025 0
M  V30 4363 C 431.831 1.11793 3.28816 0
M  V30 4364 C 430.785 2.21417 3.66277 0
M  V30 4365 C 430.111 1.85218 5.01596 0
M  V30 4366 C 431.411 3.63489 3.75064 0
M  V30 4367 H 433.105 2.2743 1.9472 0
M  V30 4368 H 430.651 1.09479 0.935437 0
M  V30 4369 H 432.604 1.08222 4.07266 0
M  V30 4370 H 431.328 0.139501 3.26302 0
M  V30 4371 H 429.987 2.2411 2.90121 0
M  V30 4372 H 429.635 0.859544 4.95602 0
M  V30 4373 H 429.335 2.58611 5.27631 0
M  V30 4374 H 430.859 1.832 5.82469 0
M  V30 4375 H 432.273 3.63034 4.43711 0
M  V30 4376 H 430.67 4.35771 4.12582 0
M  V30 4377 H 431.74 3.98536 2.76219 0
M  V30 4378 N 433.083 -1.0153 1.20538 0
M  V30 4379 C 434.329 -1.75408 1.01783 0
M  V30 4380 C 434.662 -1.88943 -0.448814 0
M  V30 4381 O 433.937 -1.4162 -1.33319 0
M  V30 4382 C 434.22 -3.17255 1.70356 0
M  V30 4383 C 434.073 -3.11508 3.24473 0
M  V30 4384 C 435.392 -4.15955 1.43769 0
M  V30 4385 H 432.511 -0.636713 0.371167 0
M  V30 4386 H 435.153 -1.18436 1.4857 0
M  V30 4387 H 433.303 -3.65898 1.30578 0
M  V30 4388 H 434.975 -2.70658 3.73553 0
M  V30 4389 H 433.218 -2.4887 3.55311 0
M  V30 4390 H 433.889 -4.11784 3.67611 0
M  V30 4391 H 436.365 -3.75973 1.7828 0
M  V30 4392 H 435.241 -5.13368 1.94279 0
M  V30 4393 H 435.502 -4.40586 0.365564 0
M  V30 4394 N 434.561 -1.01147 -1.20859 0
M  V30 4395 C 435.509 -0.57059 -2.25493 0
M  V30 4396 C 436.503 0.388109 -1.64894 0
M  V30 4397 O 437.709 0.258592 -1.78133 0
M  V30 4398 H 434.084 -0.166191 -0.733406 0
M  V30 4399 H 436.055 -1.46411 -2.60012 0
M  V30 4400 C 434.804 0.0805241 -3.47607 0
M  V30 4401 H 434.127 -0.648156 -3.94511 0
M  V30 4402 H 435.567 0.352197 -4.22535 0
M  V30 4403 C 434.026 1.32175 -3.09889 0
M  V30 4404 O 434.556 2.41553 -3.20959 0
M  V30 4405 N 432.762 1.20392 -2.64488 0
M  V30 4406 H 432.309 0.313905 -2.5568 0
M  V30 4407 H 432.267 2.03541 -2.39621 0
M  V30 4408 N 436.039 1.36541 -0.78704 0
M  V30 4409 C 436.969 2.32659 -0.197992 0
M  V30 4410 C 437.95 1.56533 0.665697 0
M  V30 4411 O 439.135 1.84698 0.60001 0
M  V30 4412 C 436.265 3.40778 0.669901 0
M  V30 4413 C 435.219 4.27897 -0.0937039 0
M  V30 4414 C 434.545 5.27163 0.894629 0
M  V30 4415 C 435.845 5.06334 -1.28154 0
M  V30 4416 H 437.539 2.82171 -1.00099 0
M  V30 4417 H 435.085 1.35665 -0.482793 0
M  V30 4418 H 437.038 4.07008 1.09191 0
M  V30 4419 H 435.762 2.89827 1.50558 0
M  V30 4420 H 434.421 3.6322 -0.49666 0
M  V30 4421 H 434.069 4.72486 1.72527 0
M  V30 4422 H 433.769 5.86317 0.388149 0
M  V30 4423 H 435.293 5.96266 1.31525 0
M  V30 4424 H 436.707 5.65617 -0.93541 0
M  V30 4425 H 435.104 5.74888 -1.72115 0
M  V30 4426 H 436.174 4.38114 -2.07807 0
M  V30 4427 N 437.518 0.538854 1.48102 0
M  V30 4428 C 438.767 0.0059532 2.01699 0
M  V30 4429 C 439.08 -1.34476 1.42041 0
M  V30 4430 O 440.286 -1.96653 1.87189 0
M  V30 4431 C 438.742 -0.0397627 3.59878 0
M  V30 4432 C 438.35 1.30659 4.28523 0
M  V30 4433 C 440.094 -0.521024 4.2129 0
M  V30 4434 C 438.001 1.22098 5.78659 0
M  V30 4435 H 436.931 -0.00154456 0.753998 0
M  V30 4436 H 439.582 0.683963 1.70277 0
M  V30 4437 H 437.964 -0.783037 3.88181 0
M  V30 4438 H 439.138 2.06613 4.11883 0
M  V30 4439 H 437.453 1.7243 3.79021 0
M  V30 4440 H 440.05 -0.603184 5.31287 0
M  V30 4441 H 440.393 -1.52885 3.8721 0
M  V30 4442 H 440.926 0.166834 3.9745 0
M  V30 4443 H 437.665 2.20424 6.17328 0
M  V30 4444 H 437.185 0.50295 5.97688 0
M  V30 4445 H 438.864 0.915345 6.40492 0
M  V30 4446 N 438.996 -1.55193 0.274407 0
M  V30 4447 C 439.906 -2.26164 -0.623473 0
M  V30 4448 C 440.922 -1.28729 -1.17068 0
M  V30 4449 O 442.098 -1.61663 -1.20112 0
M  V30 4450 C 439.163 -2.96833 -1.7914 0
M  V30 4451 C 438.224 -4.09745 -1.28093 0
M  V30 4452 C 437.457 -4.77034 -2.3932 0
M  V30 4453 O 437.68 -4.4353 -3.5866 0
M  V30 4454 O 436.614 -5.64996 -2.07516 0
M  V30 4455 H 440.44 -3.03661 -0.0485661 0
M  V30 4456 H 438.025 -1.49341 0.0418382 0
M  V30 4457 H 439.907 -3.41248 -2.4724 0
M  V30 4458 H 438.582 -2.22253 -2.35341 0
M  V30 4459 H 437.489 -3.69787 -0.566416 0
M  V30 4460 H 438.822 -4.86224 -0.764683 0
M  V30 4461 N 440.474 -0.00167713 -1.576 0
M  V30 4462 C 441.421 0.989195 -2.08527 0
M  V30 4463 C 442.391 1.34031 -0.981065 0
M  V30 4464 O 443.576 1.43839 -1.2536 0
M  V30 4465 C 440.716 2.27537 -2.59463 0
M  V30 4466 C 439.829 1.98314 -3.83791 0
M  V30 4467 C 438.964 3.21025 -4.23222 0
M  V30 4468 C 438.003 2.87495 -5.40382 0
M  V30 4469 N 437.14 4.02749 -5.75098 0
M  V30 4470 H 441.98 0.547973 -2.92919 0
M  V30 4471 H 439.517 0.258917 -1.44803 0
M  V30 4472 H 441.475 3.02729 -2.87073 0
M  V30 4473 H 440.105 2.69325 -1.77943 0
M  V30 4474 H 439.157 1.13482 -3.63078 0
M  V30 4475 H 440.469 1.69601 -4.69081 0
M  V30 4476 H 439.623 4.04561 -4.52123 0
M  V30 4477 H 438.362 3.52877 -3.36644 0
M  V30 4478 H 437.367 2.02367 -5.11202 0
M  V30 4479 H 438.592 2.56889 -6.28637 0
M  V30 4480 H 436.538 4.34494 -4.91478 0
M  V30 4481 H 436.455 3.77566 -6.54966 0
M  V30 4482 H 437.723 4.87068 -6.08592 0
M  V30 4483 N 441.952 1.55251 0.271103 0
M  V30 4484 C 443.198 1.76207 1.00394 0
M  V30 4485 C 443.531 0.562604 1.85872 0
M  V30 4486 O 442.806 -0.439785 1.89463 0
M  V30 4487 C 443.089 3.06828 1.8849 0
M  V30 4488 C 442.942 4.37134 1.05992 0
M  V30 4489 C 444.261 3.33503 2.87165 0
M  V30 4490 H 441.38 0.641086 0.363562 0
M  V30 4491 H 444.022 1.87982 0.276189 0
M  V30 4492 H 442.172 2.96921 2.5054 0
M  V30 4493 H 443.844 4.59001 0.459978 0
M  V30 4494 H 442.087 4.32275 0.363443 0
M  V30 4495 H 442.758 5.2486 1.70955 0
M  V30 4496 H 445.234 3.43215 2.3525 0
M  V30 4497 H 444.11 4.2616 3.45946 0
M  V30 4498 H 444.371 2.53235 3.62387 0
M  V30 4499 N 443.43 -0.535701 1.48216 0
M  V30 4500 C 444.393 -1.623 1.61838 0
M  V30 4501 C 445.393 -1.53087 0.492024 0
M  V30 4502 O 446.583 -1.5686 0.757668 0
M  V30 4503 C 443.715 -3.01907 1.58319 0
M  V30 4504 H 444.908 -1.51564 2.58783 0
M  V30 4505 H 442.461 -0.757317 1.36727 0
M  V30 4506 H 443.196 -3.18155 0.628299 0
M  V30 4507 H 442.981 -3.10003 2.40085 0
M  V30 4508 H 444.471 -3.80969 1.71033 0
M  V30 4509 N 444.908 -1.36708 -0.784132 0
M  V30 4510 C 446.133 -1.34565 -1.5782 0
M  V30 4511 C 446.558 0.0695257 -1.87971 0
M  V30 4512 O 445.916 1.04302 -1.48293 0
M  V30 4513 C 445.964 -2.17952 -2.87279 0
M  V30 4514 O 445.068 -1.57563 -3.81114 0
M  V30 4515 H 444.409 -0.460337 -0.478524 0
M  V30 4516 H 446.939 -1.80064 -0.971495 0
M  V30 4517 H 446.949 -2.30721 -3.365 0
M  V30 4518 H 445.624 -3.20823 -2.64661 0
M  V30 4519 H 444.201 -1.53764 -3.39722 0
M  V30 4520 N 446.386 1.0089 -1.21074 0
M  V30 4521 C 447.616 1.77933 -1.04993 0
M  V30 4522 C 448.024 1.84847 0.403495 0
M  V30 4523 O 447.367 1.30606 1.29181 0
M  V30 4524 C 447.429 3.23541 -1.56722 0
M  V30 4525 C 447.093 3.40214 -3.05129 0
M  V30 4526 C 448.09 3.2881 -4.02716 0
M  V30 4527 C 445.775 3.65781 -3.44252 0
M  V30 4528 C 447.769 3.42732 -5.37414 0
M  V30 4529 C 445.456 3.79346 -4.79103 0
M  V30 4530 C 446.454 3.67827 -5.75493 0
M  V30 4531 O 446.142 3.80965 -7.07899 0
M  V30 4532 H 445.874 0.566157 -0.369381 0
M  V30 4533 H 448.428 1.27826 -1.60779 0
M  V30 4534 H 446.658 3.74766 -0.953285 0
M  V30 4535 H 448.347 3.82245 -1.36543 0
M  V30 4536 H 449.113 3.08986 -3.73835 0
M  V30 4537 H 444.992 3.73831 -2.69762 0
M  V30 4538 H 448.536 3.33658 -6.12632 0
M  V30 4539 H 444.433 3.98672 -5.07672 0
M  V30 4540 H 445.201 3.97937 -7.15254 0
M  V30 4541 N 447.864 1.01787 1.20321 0
M  V30 4542 C 449.112 0.706538 1.89347 0
M  V30 4543 C 449.433 -0.766289 1.79313 0
M  V30 4544 O 448.703 -1.55126 1.19635 0
M  V30 4545 H 447.283 0.258348 0.700903 0
M  V30 4546 H 449.945 1.28974 1.46122 0
M  V30 4547 H 449.041 0.991066 2.95946 0
M  V30 4548 N 449.342 -1.36122 0.79427 0
M  V30 4549 C 450.588 -1.99406 0.369452 0
M  V30 4550 C 450.921 -1.62886 -1.05743 0
M  V30 4551 O 450.196 -0.886053 -1.73145 0
M  V30 4552 C 450.479 -3.56046 0.538833 0
M  V30 4553 C 450.332 -4.02404 2.00976 0
M  V30 4554 C 451.651 -4.40079 -0.0431359 0
M  V30 4555 H 448.77 -0.724397 0.135712 0
M  V30 4556 H 451.412 -1.61461 1.00151 0
M  V30 4557 H 449.562 -3.885 0.000771004 0
M  V30 4558 H 451.234 -3.80415 2.60926 0
M  V30 4559 H 449.477 -3.53765 2.51063 0
M  V30 4560 H 450.148 -5.11344 2.07922 0
M  V30 4561 H 452.624 -4.14013 0.416228 0
M  V30 4562 H 451.5 -5.48799 0.105374 0
M  V30 4563 H 451.761 -4.27264 -1.13571 0
M  V30 4564 N 450.82 -0.546701 -1.47814 0
M  V30 4565 C 451.767 0.206854 -2.29871 0
M  V30 4566 C 452.737 0.918235 -1.38411 0
M  V30 4567 O 453.922 0.915991 -1.67375 0
M  V30 4568 C 451.062 1.23746 -3.22151 0
M  V30 4569 C 450.175 0.533216 -4.28697 0
M  V30 4570 C 449.31 1.5482 -5.08138 0
M  V30 4571 C 448.349 0.828347 -6.06469 0
M  V30 4572 N 447.486 1.78966 -6.78908 0
M  V30 4573 H 452.326 -0.499037 -2.93792 0
M  V30 4574 H 449.863 -0.25793 -1.44821 0
M  V30 4575 H 451.821 1.84746 -3.74065 0
M  V30 4576 H 450.451 1.91151 -2.60117 0
M  V30 4577 H 449.503 -0.191089 -3.7992 0
M  V30 4578 H 450.815 -0.0311987 -4.9879 0
M  V30 4579 H 449.969 2.23202 -5.6415 0
M  V30 4580 H 448.708 2.14652 -4.37922 0
M  V30 4581 H 447.713 0.130539 -5.49645 0
M  V30 4582 H 448.938 0.235907 -6.7869 0
M  V30 4583 H 446.884 2.37675 -6.1143 0
M  V30 4584 H 446.801 1.27712 -7.45135 0
M  V30 4585 H 448.069 2.46496 -7.395 0
M  V30 4586 N 452.299 1.55045 -0.282633 0
M  V30 4587 C 453.71 1.85473 0.213655 0
M  V30 4588 C 454.061 1.20465 1.54863 0
M  V30 4589 O 453.186 0.495676 2.10647 0
M  V30 4590 C 453.781 3.36496 0.394445 0
M  V30 4591 C 452.34 3.67022 0.834961 0
M  V30 4592 C 451.487 2.77218 -0.0674081 0
M  V30 4593 H 454.438 1.50478 -0.504202 0
M  V30 4594 H 454.459 3.60007 1.23186 0
M  V30 4595 H 453.971 3.83782 -0.577326 0
M  V30 4596 H 452.072 3.25241 1.81794 0
M  V30 4597 H 452.185 4.74433 0.667075 0
M  V30 4598 H 450.549 2.5069 0.450196 0
M  V30 4599 H 451.332 3.2732 -1.0352 0
M  V30 4600 N 453.777 0.010035 1.57597 0
M  V30 4601 C 455.193 -0.346164 1.55801 0
M  V30 4602 C 455.393 -1.74144 1.01371 0
M  V30 4603 O 454.449 -2.43938 0.651968 0
M  V30 4604 C 455.762 -0.212216 2.9995 0
M  V30 4605 C 457.31 -0.286409 3.11687 0
M  V30 4606 C 457.785 -0.18147 4.5764 0
M  V30 4607 N 459.276 -0.239056 4.62583 0
M  V30 4608 C 460.011 -0.181351 5.73113 0
M  V30 4609 N 459.507 -0.073661 6.92761 0
M  V30 4610 N 461.3 -0.233949 5.61613 0
M  V30 4611 H 453.451 0.922657 1.91313 0
M  V30 4612 H 455.714 0.354595 0.879185 0
M  V30 4613 H 455.42 0.748169 3.4365 0
M  V30 4614 H 455.294 -0.990224 3.6397 0
M  V30 4615 H 457.681 -1.23724 2.67911 0
M  V30 4616 H 457.762 0.521645 2.50425 0
M  V30 4617 H 457.406 0.765863 5.02093 0
M  V30 4618 H 457.336 -1.00814 5.1686 0
M  V30 4619 H 459.827 -0.32321 3.76515 0
M  V30 4620 H 460.14 -0.0358003 7.72792 0
M  V30 4621 H 458.485 -0.0391461 6.94989 0
M  V30 4622 H 461.676 -0.316347 4.6703 0
M  V30 4623 H 461.849 -0.185514 6.47734 0
M  V30 4624 N 455.255 -1.55392 -0.262866 0
M  V30 4625 C 456.485 -1.80251 -1.00961 0
M  V30 4626 C 456.893 -0.58117 -1.80053 0
M  V30 4627 O 456.236 0.459427 -1.77862 0
M  V30 4628 C 456.298 -2.98207 -2.00781 0
M  V30 4629 C 455.962 -4.34856 -1.40533 0
M  V30 4630 C 456.959 -5.13459 -0.815853 0
M  V30 4631 C 454.644 -4.8153 -1.42948 0
M  V30 4632 C 456.638 -6.36875 -0.258562 0
M  V30 4633 C 454.325 -6.04899 -0.868334 0
M  V30 4634 C 455.323 -6.8241 -0.283884 0
M  V30 4635 O 455.011 -8.03451 0.268644 0
M  V30 4636 H 454.743 -0.604049 -0.303482 0
M  V30 4637 H 457.297 -2.03257 -0.295926 0
M  V30 4638 H 455.527 -2.70917 -2.75936 0
M  V30 4639 H 457.216 -3.10299 -2.61667 0
M  V30 4640 H 457.982 -4.78526 -0.789812 0
M  V30 4641 H 453.861 -4.21201 -1.87378 0
M  V30 4642 H 457.405 -6.97318 0.198257 0
M  V30 4643 H 453.302 -6.39312 -0.891649 0
M  V30 4644 H 454.07 -8.18346 0.158974 0
M  V30 4645 N 456.733 0.527833 -1.48498 0
M  V30 4646 C 457.981 1.28101 -1.56316 0
M  V30 4647 C 458.302 1.9352 -0.239781 0
M  V30 4648 O 457.572 1.81433 0.738849 0
M  V30 4649 H 456.152 0.475793 -0.575873 0
M  V30 4650 H 458.814 0.614052 -1.84974 0
M  V30 4651 H 457.91 2.05916 -2.34532 0
M  V30 4652 N 458.211 1.37122 0.776871 0
M  V30 4653 C 459.141 1.35164 1.90402 0
M  V30 4654 C 460.122 0.221069 1.68657 0
M  V30 4655 O 461.307 0.420642 1.8959 0
M  V30 4656 C 458.437 1.15274 3.27611 0
M  V30 4657 C 457.391 2.25289 3.63908 0
M  V30 4658 C 456.717 1.90527 4.99603 0
M  V30 4659 C 458.017 3.67446 3.71188 0
M  V30 4660 H 459.711 2.29482 1.92297 0
M  V30 4661 H 457.257 1.10465 0.923773 0
M  V30 4662 H 459.21 1.12536 4.06096 0
M  V30 4663 H 457.934 0.174102 3.26136 0
M  V30 4664 H 456.593 2.27174 2.87728 0
M  V30 4665 H 456.241 0.91206 4.94662 0
M  V30 4666 H 455.941 2.64193 5.24858 0
M  V30 4667 H 457.465 1.89367 5.80493 0
M  V30 4668 H 458.879 3.67719 4.39836 0
M  V30 4669 H 457.276 4.40123 4.07936 0
M  V30 4670 H 458.346 4.01443 2.71977 0
M  V30 4671 N 459.689 -1.00246 1.21608 0
M  V30 4672 C 460.935 -1.74319 1.03638 0
M  V30 4673 C 461.268 -1.89408 -0.428749 0
M  V30 4674 O 460.543 -1.43026 -1.3181 0
M  V30 4675 C 460.826 -3.15431 1.73711 0
M  V30 4676 C 460.679 -3.08049 3.27759 0
M  V30 4677 C 461.998 -4.14407 1.48173 0
M  V30 4678 H 459.117 -0.632741 0.377899 0
M  V30 4679 H 461.759 -1.16853 1.49818 0
M  V30 4680 H 459.909 -3.64493 1.34452 0
M  V30 4681 H 461.581 -2.66681 3.76403 0
M  V30 4682 H 459.824 -2.45088 3.57931 0
M  V30 4683 H 460.495 -4.07862 3.71958 0
M  V30 4684 H 462.971 -3.74061 1.82258 0
M  V30 4685 H 461.847 -5.11279 1.99713 0
M  V30 4686 H 462.108 -4.40174 0.412273 0
M  V30 4687 N 461.167 -1.02423 -1.1978 0
M  V30 4688 C 462.395 -0.737456 -1.93311 0
M  V30 4689 C 462.81 0.703023 -1.75223 0
M  V30 4690 O 462.167 1.47761 -1.07112 0
M  V30 4691 C 462.218 -1.0733 -3.45199 0
M  V30 4692 O 461.939 -2.4572 -3.62702 0
M  V30 4693 C 463.44 -0.80866 -4.35862 0
M  V30 4694 H 460.66 -0.2702 -0.614193 0
M  V30 4695 H 463.204 -1.36747 -1.52054 0
M  V30 4696 H 461.359 -0.488545 -3.84307 0
M  V30 4697 H 461.773 -2.58081 -4.56612 0
M  V30 4698 H 463.247 -1.09365 -5.41057 0
M  V30 4699 H 463.724 0.257025 -4.38447 0
M  V30 4700 H 464.33 -1.37592 -4.02428 0
M  V30 4701 N 462.645 1.35699 -0.801477 0
M  V30 4702 C 463.875 2.02862 -0.3912 0
M  V30 4703 C 464.283 1.60552 1.00099 0
M  V30 4704 O 463.626 0.796215 1.65548 0
M  V30 4705 C 463.688 3.57386 -0.389299 0
M  V30 4706 C 463.352 4.22943 -1.73113 0
M  V30 4707 C 464.349 4.44984 -2.68859 0
M  V30 4708 C 462.034 4.60167 -2.01373 0
M  V30 4709 C 464.028 5.03345 -3.91053 0
M  V30 4710 C 461.715 5.18243 -3.23832 0
M  V30 4711 C 462.713 5.39773 -4.1849 0
M  V30 4712 O 462.401 5.96626 -5.38788 0
M  V30 4713 H 462.133 0.657341 -0.157732 0
M  V30 4714 H 464.687 1.74407 -1.08496 0
M  V30 4715 H 462.917 3.85011 0.361031 0
M  V30 4716 H 464.606 4.059 -0.0020365 0
M  V30 4717 H 465.372 4.1661 -2.48316 0
M  V30 4718 H 461.251 4.42726 -1.28508 0
M  V30 4719 H 464.795 5.20065 -4.64949 0
M  V30 4720 H 460.692 5.46044 -3.44248 0
M  V30 4721 H 461.46 6.15082 -5.40015 0
M  V30 4722 N 464.123 0.554532 1.47522 0
M  V30 4723 C 465.086 -0.184174 2.28459 0
M  V30 4724 C 466.086 -0.845195 1.36796 0
M  V30 4725 O 467.276 -0.701467 1.59452 0
M  V30 4726 C 464.408 -1.26903 3.16399 0
M  V30 4727 H 465.601 0.526751 2.95238 0
M  V30 4728 H 463.154 0.311375 1.53167 0
M  V30 4729 H 463.889 -2.01244 2.54306 0
M  V30 4730 H 463.674 -0.799883 3.83854 0
M  V30 4731 H 465.164 -1.78794 3.77389 0
M  V30 4732 N 465.601 -1.54893 0.290851 0
M  V30 4733 C 466.829 -2.04343 -0.324288 0
M  V30 4734 C 467.244 -1.16859 -1.48289 0
M  V30 4735 O 466.601 -0.192018 -1.81487 0
M  V30 4736 C 466.652 -3.52756 -0.79026 0
M  V30 4737 O 466.373 -4.36913 0.322213 0
M  V30 4738 C 467.874 -4.18161 -1.4716 0
M  V30 4739 H 465.094 -0.667135 -0.0719173 0
M  V30 4740 H 467.638 -1.99981 0.427529 0
M  V30 4741 H 465.793 -3.57511 -1.49213 0
M  V30 4742 H 466.207 -5.24486 -0.0387372 0
M  V30 4743 H 467.681 -5.23562 -1.7489 0
M  V30 4744 H 468.158 -3.67282 -2.40834 0
M  V30 4745 H 468.764 -4.17454 -0.813178 0
M  V30 4746 N 467.08 -0.0183926 -1.57589 0
M  V30 4747 C 468.31 0.67207 -1.95363 0
M  V30 4748 C 468.718 1.66807 -0.892872 0
M  V30 4749 O 468.061 1.83204 0.134958 0
M  V30 4750 C 468.123 1.44397 -3.29226 0
M  V30 4751 C 467.787 0.607511 -4.52944 0
M  V30 4752 C 468.784 -0.112657 -5.19778 0
M  V30 4753 C 466.469 0.548068 -4.99301 0
M  V30 4754 C 468.463 -0.881057 -6.31281 0
M  V30 4755 C 466.15 -0.224044 -6.10689 0
M  V30 4756 C 467.148 -0.937323 -6.76538 0
M  V30 4757 O 466.836 -1.6968 -7.85789 0
M  V30 4758 H 466.568 0.190925 -0.648478 0
M  V30 4759 H 469.122 -0.0711994 -2.05277 0
M  V30 4760 H 467.352 2.23214 -3.15773 0
M  V30 4761 H 469.041 2.02152 -3.51979 0
M  V30 4762 H 469.807 -0.0759998 -4.8494 0
M  V30 4763 H 465.686 1.09281 -4.4786 0
M  V30 4764 H 469.23 -1.43832 -6.82611 0
M  V30 4765 H 465.127 -0.262457 -6.44966 0
M  V30 4766 H 465.895 -1.61544 -8.024 0
M  V30 4767 N 468.558 1.5553 0.254621 0
M  V30 4768 C 469.969 1.67518 0.824286 0
M  V30 4769 C 470.32 0.614429 1.86331 0
M  V30 4770 O 469.445 -0.240736 2.15057 0
M  V30 4771 C 470.04 3.03692 1.50189 0
M  V30 4772 C 468.599 3.17646 2.01935 0
M  V30 4773 C 467.746 2.63373 0.867746 0
M  V30 4774 H 470.697 1.58671 0.0305843 0
M  V30 4775 H 470.718 2.97706 2.36962 0
M  V30 4776 H 470.23 3.80874 0.745431 0
M  V30 4777 H 468.331 2.45273 2.80485 0
M  V30 4778 H 468.444 4.24455 2.22204 0
M  V30 4779 H 466.808 2.20999 1.26616 0
M  V30 4780 H 467.591 3.43074 0.124498 0
M  V30 4781 N 470.036 -0.519951 1.48776 0
M  V30 4782 C 470.983 -1.62352 1.64044 0
M  V30 4783 C 471.953 -1.58945 0.482251 0
M  V30 4784 O 473.138 -1.77219 0.706971 0
M  V30 4785 C 470.278 -3.00579 1.69547 0
M  V30 4786 C 469.391 -3.14145 2.96541 0
M  V30 4787 C 468.526 -4.42991 2.93142 0
M  V30 4788 C 467.565 -4.50122 4.14797 0
M  V30 4789 N 466.702 -5.7037 4.09418 0
M  V30 4790 H 471.542 -1.48643 2.58281 0
M  V30 4791 H 469.079 -0.723516 1.28077 0
M  V30 4792 H 471.037 -3.80671 1.70719 0
M  V30 4793 H 469.667 -3.13036 0.787918 0
M  V30 4794 H 468.719 -2.27239 3.05068 0
M  V30 4795 H 470.031 -3.15275 3.86527 0
M  V30 4796 H 469.185 -5.31385 2.92772 0
M  V30 4797 H 467.924 -4.44398 2.00902 0
M  V30 4798 H 466.929 -3.60133 4.15433 0
M  V30 4799 H 468.154 -4.50445 5.08208 0
M  V30 4800 H 466.1 -5.72655 3.20004 0
M  V30 4801 H 466.017 -5.73036 4.93119 0
M  V30 4802 H 467.285 -6.61023 4.13121 0
M  V30 4803 N 471.514 -1.37532 -0.769588 0
M  V30 4804 C 472.763 -1.32183 -1.5235 0
M  V30 4805 C 473.076 0.0906555 -1.9539 0
M  V30 4806 O 474.282 0.266628 -2.70188 0
M  V30 4807 C 472.738 -2.32029 -2.75119 0
M  V30 4808 C 472.346 -3.78816 -2.3917 0
M  V30 4809 C 474.09 -2.35694 -3.53056 0
M  V30 4810 C 471.997 -4.70388 -3.58453 0
M  V30 4811 H 470.927 -0.491275 -0.571984 0
M  V30 4812 H 473.578 -1.63004 -0.842739 0
M  V30 4813 H 471.96 -1.94229 -3.45096 0
M  V30 4814 H 473.134 -4.25466 -1.76962 0
M  V30 4815 H 471.449 -3.78117 -1.74402 0
M  V30 4816 H 474.046 -3.01312 -4.41718 0
M  V30 4817 H 474.389 -1.37117 -3.93071 0
M  V30 4818 H 474.922 -2.72212 -2.90078 0
M  V30 4819 H 471.661 -5.70102 -3.23518 0
M  V30 4820 H 471.181 -4.28442 -4.19758 0
M  V30 4821 H 472.86 -4.87628 -4.25239 0
M  V30 4822 N 472.992 0.995999 -1.22138 0
M  V30 4823 C 474.238 1.7386 -1.05567 0
M  V30 4824 C 474.593 1.8808 0.405418 0
M  V30 4825 O 473.886 1.41062 1.29661 0
M  V30 4826 C 474.08 3.14553 -1.6968 0
M  V30 4827 C 473.909 3.14053 -3.21871 0
M  V30 4828 C 472.679 3.20121 -3.90961 0
M  V30 4829 C 474.877 2.98451 -4.18845 0
M  V30 4830 N 472.859 3.09342 -5.30265 0
M  V30 4831 C 474.23 2.95667 -5.4496 0
M  V30 4832 C 476.285 2.8282 -4.09777 0
M  V30 4833 C 474.988 2.78852 -6.63049 0
M  V30 4834 C 477.014 2.67364 -5.27513 0
M  V30 4835 C 476.376 2.65264 -6.52544 0
M  V30 4836 H 472.475 0.645989 -0.440706 0
M  V30 4837 H 475.059 1.1831 -1.54631 0
M  V30 4838 H 473.23 3.68353 -1.2317 0
M  V30 4839 H 474.962 3.77358 -1.4623 0
M  V30 4840 H 471.717 3.27679 -3.4194 0
M  V30 4841 H 472.141 3.0727 -6.03253 0
M  V30 4842 H 476.783 2.83243 -3.139 0
M  V30 4843 H 474.501 2.77175 -7.59078 0
M  V30 4844 H 478.087 2.56256 -5.22326 0
M  V30 4845 H 476.967 2.5345 -7.42114 0
M  V30 4846 N 474.47 1.03057 1.19235 0
M  V30 4847 C 475.716 0.729098 1.89241 0
M  V30 4848 C 476.049 -0.740573 1.79525 0
M  V30 4849 O 475.324 -1.53946 1.18874 0
M  V30 4850 C 475.607 1.18304 3.40112 0
M  V30 4851 C 475.46 2.71406 3.5869 0
M  V30 4852 C 476.779 0.765161 4.33397 0
M  V30 4853 H 473.898 0.266338 0.687192 0
M  V30 4854 H 476.54 1.28079 1.40341 0
M  V30 4855 H 474.69 0.713672 3.81889 0
M  V30 4856 H 476.362 3.26303 3.26074 0
M  V30 4857 H 474.605 3.11717 3.01687 0
M  V30 4858 H 475.276 2.98225 4.64506 0
M  V30 4859 H 477.752 1.16889 3.99345 0
M  V30 4860 H 476.628 1.11065 5.37546 0
M  V30 4861 H 476.889 -0.332372 4.40849 0
M  V30 4862 N 475.948 -1.35272 0.808662 0
M  V30 4863 C 476.895 -2.29764 0.218482 0
M  V30 4864 C 477.865 -1.52911 -0.648652 0
M  V30 4865 O 479.05 -1.81341 -0.593297 0
M  V30 4866 C 476.19 -3.39388 -0.625282 0
M  V30 4867 C 475.303 -4.31202 0.262516 0
M  V30 4868 C 474.438 -5.27919 -0.589451 0
M  V30 4869 C 473.477 -6.11371 0.298617 0
M  V30 4870 N 472.614 -7.0022 -0.513443 0
M  V30 4871 H 477.454 -2.79645 1.02968 0
M  V30 4872 H 474.991 -1.37629 0.519303 0
M  V30 4873 H 476.949 -4.01615 -1.12966 0
M  V30 4874 H 475.579 -2.90777 -1.40173 0
M  V30 4875 H 474.631 -3.69962 0.885013 0
M  V30 4876 H 475.943 -4.89748 0.945971 0
M  V30 4877 H 475.097 -5.95529 -1.15888 0
M  V30 4878 H 473.836 -4.69875 -1.30647 0
M  V30 4879 H 472.841 -5.42707 0.880301 0
M  V30 4880 H 474.066 -6.71494 1.01352 0
M  V30 4881 H 472.012 -6.44662 -1.21439 0
M  V30 4882 H 471.929 -7.55917 0.111922 0
M  V30 4883 H 473.197 -7.72175 -1.06608 0
M  V30 4884 N 477.426 -0.562348 -1.47226 0
M  V30 4885 C 478.672 -0.0402761 -2.0276 0
M  V30 4886 C 479.005 1.30823 -1.43523 0
M  V30 4887 O 478.28 1.85249 -0.592705 0
M  V30 4888 C 478.563 0.047311 -3.60069 0
M  V30 4889 C 478.416 -1.32865 -4.29729 0
M  V30 4890 C 479.735 0.758182 -4.3352 0
M  V30 4891 H 476.854 -0.0161105 -0.736824 0
M  V30 4892 H 479.496 -0.725628 -1.75598 0
M  V30 4893 H 477.646 0.630986 -3.83342 0
M  V30 4894 H 479.318 -1.95593 -4.17781 0
M  V30 4895 H 477.561 -1.90195 -3.89882 0
M  V30 4896 H 478.232 -1.22004 -5.38349 0
M  V30 4897 H 480.708 0.262546 -4.15271 0
M  V30 4898 H 479.584 0.78844 -5.43208 0
M  V30 4899 H 479.845 1.81537 -4.03109 0
M  V30 4900 N 478.904 1.54736 -0.299062 0
M  V30 4901 C 480.129 2.04975 0.316254 0
M  V30 4902 C 480.554 1.17501 1.46885 0
M  V30 4903 O 479.912 0.178678 1.80417 0
M  V30 4904 C 479.96 3.52672 0.751997 0
M  V30 4905 O 479.064 3.68226 1.85697 0
M  V30 4906 H 478.405 0.661126 0.0617175 0
M  V30 4907 H 480.935 1.99805 -0.440341 0
M  V30 4908 H 480.945 3.94488 1.04133 0
M  V30 4909 H 479.62 4.158 -0.0911482 0
M  V30 4910 H 478.197 3.38316 1.56834 0
M  V30 4911 N 480.382 0.0267497 1.57577 0
M  V30 4912 C 481.292 -0.971633 2.13533 0
M  V30 4913 C 482.308 -1.35868 1.08701 0
M  V30 4914 O 483.484 -1.44058 1.40746 0
M  V30 4915 C 480.549 -2.23622 2.64941 0
M  V30 4916 C 479.61 -1.90982 3.8448 0
M  V30 4917 C 478.843 -3.11411 4.33427 0
M  V30 4918 O 479.066 -4.23992 3.81558 0
M  V30 4919 O 478 -2.93848 5.25297 0
M  V30 4920 H 481.826 -0.525853 2.99113 0
M  V30 4921 H 479.411 -0.193712 1.48139 0
M  V30 4922 H 481.293 -2.97864 2.98086 0
M  V30 4923 H 479.968 -2.67386 1.82446 0
M  V30 4924 H 478.875 -1.14132 3.56265 0
M  V30 4925 H 480.208 -1.52036 4.6813 0
M  V30 4926 N 481.861 -1.55662 -0.24637 0
M  V30 4927 C 482.824 -1.89558 -1.28842 0
M  V30 4928 C 483.824 -0.772082 -1.41052 0
M  V30 4929 O 485.014 -1.04007 -1.39743 0
M  V30 4930 C 482.146 -2.12449 -2.66605 0
M  V30 4931 H 483.339 -2.82735 -1.00004 0
M  V30 4932 H 480.892 -1.48562 -0.485684 0
M  V30 4933 H 481.627 -1.21742 -3.00582 0
M  V30 4934 H 481.412 -2.94273 -2.59125 0
M  V30 4935 H 482.902 -2.39854 -3.41847 0
M  V30 4936 N 483.339 0.512053 -1.4905 0
M  V30 4937 C 484.616 1.27337 -1.48474 0
M  V30 4938 C 484.996 2.1009 -0.206301 0
M  V30 4939 O 484.344 2.136 0.811609 0
M  V30 4940 C 484.554 2.13954 -2.75726 0
M  V30 4941 C 485.902 2.73507 -3.24776 0
M  V30 4942 O 486.926 2.24229 -2.76767 0
M  V30 4943 O 485.785 3.63186 -4.08361 0
M  V30 4944 H 482.879 0.575652 -0.593762 0
M  V30 4945 H 485.425 0.527232 -1.61302 0
M  V30 4946 H 484.197 1.52709 -3.60272 0
M  V30 4947 H 483.82 2.95782 -2.65705 0
M  V30 4948 N 484.817 1.37938 0.762283 0
M  V30 4949 C 486.042 1.37059 1.55659 0
M  V30 4950 C 486.467 -0.0396123 1.88058 0
M  V30 4951 O 485.825 -1.01929 1.49934 0
M  V30 4952 C 485.873 2.22494 2.83776 0
M  V30 4953 O 484.977 1.63607 3.78559 0
M  V30 4954 H 484.318 0.467892 0.47114 0
M  V30 4955 H 486.848 1.81587 0.942725 0
M  V30 4956 H 486.858 2.36045 3.32786 0
M  V30 4957 H 485.533 3.24993 2.59524 0
M  V30 4958 H 484.11 1.5915 3.37233 0
M  V30 4959 N 486.295 -0.989507 1.22664 0
M  V30 4960 C 487.52 -1.77031 1.08051 0
M  V30 4961 C 487.945 -1.84535 -0.364483 0
M  V30 4962 O 487.303 -1.3003 -1.2634 0
M  V30 4963 C 487.351 -3.18 1.70024 0
M  V30 4964 O 486.455 -4.01161 0.956216 0
M  V30 4965 H 485.796 -0.545008 0.379292 0
M  V30 4966 H 488.326 -1.24277 1.62531 0
M  V30 4967 H 488.336 -3.68616 1.74888 0
M  V30 4968 H 487.011 -3.11853 2.75174 0
M  V30 4969 H 485.588 -3.59687 0.98384 0
M  V30 4970 N 487.773 -1.03688 -1.18687 0
M  V30 4971 C 488.721 -0.618292 -2.24232 0
M  V30 4972 C 489.715 0.353045 -1.6568 0
M  V30 4973 O 490.921 0.220749 -1.78641 0
M  V30 4974 H 487.296 -0.181711 -0.729716 0
M  V30 4975 H 489.267 -1.51893 -2.56848 0
M  V30 4976 C 488.016 0.00677342 -3.47699 0
M  V30 4977 H 487.339 -0.731692 -3.93047 0
M  V30 4978 H 488.779 0.262492 -4.23187 0
M  V30 4979 C 487.238 1.25572 -3.12623 0
M  V30 4980 O 487.768 2.34691 -3.26011 0
M  V30 4981 N 485.974 1.14755 -2.66982 0
M  V30 4982 H 485.521 0.259601 -2.56289 0
M  V30 4983 H 485.479 1.98412 -2.43885 0
M  V30 4984 N 489.251 1.34841 -0.815825 0
M  V30 4985 C 490.214 2.27959 -0.238185 0
M  V30 4986 C 491.214 1.49983 0.579816 0
M  V30 4987 O 492.404 1.69617 0.396953 0
M  V30 4988 C 489.536 3.34314 0.666876 0
M  V30 4989 H 490.729 2.80558 -1.05958 0
M  V30 4990 H 488.282 1.44852 -0.587156 0
M  V30 4991 H 489.017 2.86916 1.5116 0
M  V30 4992 H 488.802 3.92014 0.0819106 0
M  V30 4993 H 490.292 4.0379 1.06506 0
M  V30 4994 N 490.729 0.570148 1.46925 0
M  V30 4995 C 492.006 -0.0153259 1.95594 0
M  V30 4996 C 492.386 -1.47232 1.51281 0
M  V30 4997 O 491.734 -2.15574 0.757624 0
M  V30 4998 C 491.944 0.143624 3.48704 0
M  V30 4999 C 493.292 0.00494484 4.246 0
M  V30 5000 O 494.316 0.0718214 3.56128 0
M  V30 5001 O 493.175 -0.141175 5.46318 0
M  V30 5002 H 490.269 -0.0568819 0.825041 0
M  V30 5003 H 492.815 0.637583 1.57267 0
M  V30 5004 H 491.587 1.15699 3.73804 0
M  V30 5005 H 491.21 -0.5463 3.93829 0
M  V30 5006 N 492.207 -1.54576 0.307264 0
M  V30 5007 C 493.453 -2.01272 -0.293453 0
M  V30 5008 C 493.808 -1.19178 -1.51044 0
M  V30 5009 O 493.101 -0.261704 -1.89804 0
M  V30 5010 C 493.295 -3.50572 -0.695253 0
M  V30 5011 C 493.124 -4.47118 0.481249 0
M  V30 5012 C 491.894 -4.958 0.97524 0
M  V30 5013 C 494.092 -4.96853 1.32823 0
M  V30 5014 N 492.074 -5.76212 2.11785 0
M  V30 5015 C 493.445 -5.75028 2.31824 0
M  V30 5016 C 495.5 -4.79026 1.35788 0
M  V30 5017 C 494.203 -6.37276 3.33574 0
M  V30 5018 C 496.229 -5.42097 2.364 0
M  V30 5019 C 495.591 -6.2011 3.34129 0
M  V30 5020 H 491.69 -0.778709 -0.0716705 0
M  V30 5021 H 494.274 -1.89695 0.438602 0
M  V30 5022 H 492.445 -3.62427 -1.39647 0
M  V30 5023 H 494.177 -3.84056 -1.27604 0
M  V30 5024 H 490.932 -4.70405 0.549184 0
M  V30 5025 H 491.356 -6.21101 2.69375 0
M  V30 5026 H 495.998 -4.18288 0.616021 0
M  V30 5027 H 493.716 -6.97144 4.08676 0
M  V30 5028 H 497.302 -5.30229 2.39475 0
M  V30 5029 H 496.182 -6.68049 4.10707 0
M  V30 5030 N 493.685 -0.035106 -1.57561 0
M  V30 5031 C 494.931 0.64318 -1.92331 0
M  V30 5032 C 495.264 1.71434 -0.912368 0
M  V30 5033 O 494.539 1.94395 0.0640303 0
M  V30 5034 C 494.822 1.25411 -3.37556 0
M  V30 5035 C 494.675 0.192109 -4.4939 0
M  V30 5036 C 495.994 2.17041 -3.82859 0
M  V30 5037 H 493.113 0.232341 -0.699419 0
M  V30 5038 H 495.755 -0.0935889 -1.89769 0
M  V30 5039 H 493.905 1.88205 -3.39869 0
M  V30 5040 H 495.577 -0.438849 -4.59208 0
M  V30 5041 H 493.82 -0.481725 -4.31117 0
M  V30 5042 H 494.491 0.659292 -5.48049 0
M  V30 5043 H 496.967 1.64228 -3.8232 0
M  V30 5044 H 495.843 2.56738 -4.85157 0
M  V30 5045 H 496.104 3.06401 -3.18702 0
M  V30 5046 N 495.163 1.55791 0.238111 0
M  V30 5047 C 496.391 1.82098 0.982233 0
M  V30 5048 C 496.806 0.612025 1.78605 0
M  V30 5049 O 496.163 -0.419381 1.77616 0
M  V30 5050 C 496.214 3.0673 1.91309 0
M  V30 5051 O 495.935 4.2296 1.14179 0
M  V30 5052 C 497.436 3.45903 2.77248 0
M  V30 5053 H 494.656 0.605748 0.288635 0
M  V30 5054 H 497.2 2.02862 0.258341 0
M  V30 5055 H 495.355 2.87991 2.59114 0
M  V30 5056 H 495.769 4.93653 1.7722 0
M  V30 5057 H 497.243 4.36189 3.38295 0
M  V30 5058 H 497.72 2.66891 3.48806 0
M  V30 5059 H 498.326 3.67024 2.14881 0
M  V30 5060 N 496.642 -0.504142 1.49319 0
M  V30 5061 C 497.589 -1.60603 1.65756 0
M  V30 5062 C 498.559 -1.58425 0.499082 0
M  V30 5063 O 499.744 -1.76459 0.725728 0
M  V30 5064 C 496.884 -2.98764 1.72726 0
M  V30 5065 C 495.997 -3.10982 2.99857 0
M  V30 5066 C 495.132 -4.39857 2.97824 0
M  V30 5067 C 494.171 -4.45697 4.19548 0
M  V30 5068 N 493.308 -5.65995 4.15444 0
M  V30 5069 H 498.148 -1.45895 2.59843 0
M  V30 5070 H 495.685 -0.709891 1.28837 0
M  V30 5071 H 497.643 -3.78839 1.74747 0
M  V30 5072 H 496.273 -3.12183 0.821075 0
M  V30 5073 H 495.325 -2.23991 3.07461 0
M  V30 5074 H 496.637 -3.11157 3.89849 0
M  V30 5075 H 495.791 -5.2825 2.98391 0
M  V30 5076 H 494.53 -4.42242 2.05604 0
M  V30 5077 H 493.535 -3.55707 4.19229 0
M  V30 5078 H 494.76 -4.4503 5.12957 0
M  V30 5079 H 492.706 -5.69229 3.26059 0
M  V30 5080 H 492.623 -5.67773 4.99169 0
M  V30 5081 H 493.891 -6.56604 4.20109 0
M  V30 5082 N 498.12 -1.38341 -0.754957 0
M  V30 5083 C 499.052 -1.31347 -1.87831 0
M  V30 5084 C 500.065 -0.225955 -1.61224 0
M  V30 5085 O 501.254 -0.48341 -1.7183 0
M  V30 5086 C 498.354 -1.01201 -3.23437 0
M  V30 5087 C 497.527 -2.20834 -3.77559 0
M  V30 5088 C 496.586 -1.87454 -4.91678 0
M  V30 5089 O 495.612 -2.59934 -5.06382 0
M  V30 5090 N 496.814 -0.828682 -5.74555 0
M  V30 5091 H 499.579 -2.28147 -1.94342 0
M  V30 5092 H 497.14 -1.32184 -0.934828 0
M  V30 5093 H 499.132 -0.769249 -3.97322 0
M  V30 5094 H 497.702 -0.132011 -3.12321 0
M  V30 5095 H 496.922 -2.61184 -2.95256 0
M  V30 5096 H 498.21 -3.00678 -4.10451 0
M  V30 5097 H 497.608 -0.227591 -5.65242 0
M  V30 5098 H 496.165 -0.645802 -6.48593 0
M  V30 5099 N 499.598 0.982988 -1.23187 0
M  V30 5100 C 500.528 2.09301 -1.03515 0
M  V30 5101 C 501.509 1.70035 0.0471136 0
M  V30 5102 O 502.694 1.93847 -0.117029 0
M  V30 5103 C 499.824 3.4167 -0.622791 0
M  V30 5104 C 498.778 3.94828 -1.65211 0
M  V30 5105 C 498.104 5.23362 -1.09527 0
M  V30 5106 C 499.404 4.2439 -3.04451 0
M  V30 5107 H 501.098 2.26016 -1.96359 0
M  V30 5108 H 498.644 1.08611 -0.945501 0
M  V30 5109 H 500.597 4.18746 -0.472233 0
M  V30 5110 H 499.321 3.24811 0.341329 0
M  V30 5111 H 497.98 3.19895 -1.79061 0
M  V30 5112 H 497.628 5.02852 -0.122211 0
M  V30 5113 H 497.328 5.59895 -1.783 0
M  V30 5114 H 498.852 6.03062 -0.956511 0
M  V30 5115 H 500.266 4.92225 -2.93917 0
M  V30 5116 H 498.663 4.72118 -3.70438 0
M  V30 5117 H 499.733 3.31765 -3.53638 0
M  V30 5118 N 501.076 1.04316 1.18135 0
M  V30 5119 C 502.024 0.630175 2.23901 0
M  V30 5120 C 503.018 -0.344254 1.65865 0
M  V30 5121 O 504.224 -0.211273 1.78756 0
M  V30 5122 H 500.599 0.185578 0.728742 0
M  V30 5123 H 502.57 1.53253 2.56039 0
M  V30 5124 C 501.319 0.011666 3.47698 0
M  V30 5125 H 500.642 0.752526 3.92654 0
M  V30 5126 H 502.082 -0.240046 4.2332 0
M  V30 5127 C 500.541 -1.23913 3.13285 0
M  V30 5128 O 501.071 -2.32959 3.27251 0
M  V30 5129 N 499.277 -1.13338 2.67587 0
M  V30 5130 H 498.824 -0.246006 2.56423 0
M  V30 5131 H 498.782 -1.97116 2.44934 0
M  V30 5132 N 502.554 -1.34406 0.822964 0
M  V30 5133 C 503.464 -2.33298 0.246838 0
M  V30 5134 C 504.48 -1.62625 -0.618797 0
M  V30 5135 O 505.656 -1.94391 -0.526685 0
M  V30 5136 C 502.721 -3.41785 -0.581731 0
M  V30 5137 C 501.782 -4.28206 0.306309 0
M  V30 5138 C 501.015 -5.31512 -0.48281 0
M  V30 5139 O 501.238 -5.43973 -1.71607 0
M  V30 5140 O 500.172 -6.01749 0.134884 0
M  V30 5141 H 503.998 -2.84401 1.06534 0
M  V30 5142 H 501.583 -1.37466 0.585108 0
M  V30 5143 H 503.465 -4.08028 -1.05313 0
M  V30 5144 H 502.14 -2.92925 -1.37756 0
M  V30 5145 H 501.047 -3.64885 0.825199 0
M  V30 5146 H 502.38 -4.80507 1.06649 0
M  V30 5147 N 504.032 -0.577932 -1.46621 0
M  V30 5148 C 505.281 -0.0594281 -2.01612 0
M  V30 5149 C 505.594 1.30663 -1.45556 0
M  V30 5150 O 506.8 1.91621 -1.92337 0
M  V30 5151 C 505.256 -0.0556666 -3.59857 0
M  V30 5152 C 504.864 -1.41975 -4.24908 0
M  V30 5153 C 506.608 0.409143 -4.22524 0
M  V30 5154 C 504.515 -1.37397 -5.75218 0
M  V30 5155 H 503.445 -0.0184469 -0.753774 0
M  V30 5156 H 506.096 -0.728869 -1.68404 0
M  V30 5157 H 504.478 0.679843 -3.90121 0
M  V30 5158 H 505.652 -2.17461 -4.0626 0
M  V30 5159 H 503.967 -1.82419 -3.74316 0
M  V30 5160 H 506.564 0.46211 -5.32699 0
M  V30 5161 H 506.907 1.42565 -3.91128 0
M  V30 5162 H 507.44 -0.272152 -3.96868 0
M  V30 5163 H 504.179 -2.36714 -6.11267 0
M  V30 5164 H 503.699 -0.661239 -5.96144 0
M  V30 5165 H 505.378 -1.08484 -6.3784 0
M  V30 5166 N 505.51 1.54411 -0.315457 0
M  V30 5167 C 506.458 2.25514 0.569771 0
M  V30 5168 C 507.452 1.2663 1.12522 0
M  V30 5169 O 508.658 1.44434 1.07419 0
M  V30 5170 H 505.033 0.724257 0.202376 0
M  V30 5171 H 507.004 2.98354 -0.0522895 0
M  V30 5172 C 505.753 3.02004 1.72305 0
M  V30 5173 H 505.076 3.77906 1.30488 0
M  V30 5174 H 506.516 3.55014 2.31821 0
M  V30 5175 C 504.975 2.09822 2.63583 0
M  V30 5176 O 505.505 1.67574 3.65078 0
M  V30 5177 N 503.711 1.75478 2.31637 0
M  V30 5178 H 503.258 2.10032 1.49145 0
M  V30 5179 H 503.216 1.14079 2.92973 0
M  V30 5180 N 506.988 0.0434614 1.5754 0
M  V30 5181 C 508.218 -0.640905 1.96408 0
M  V30 5182 C 508.626 -1.65365 0.919297 0
M  V30 5183 O 507.969 -1.83395 -0.105795 0
M  V30 5184 C 508.031 -1.39141 3.31482 0
M  V30 5185 C 507.695 -0.535375 4.53853 0
M  V30 5186 C 508.692 0.195335 5.19533 0
M  V30 5187 C 506.377 -0.468564 5.0011 0
M  V30 5188 C 508.371 0.981377 6.298 0
M  V30 5189 C 506.058 0.321171 6.10255 0
M  V30 5190 C 507.056 1.04484 6.74961 0
M  V30 5191 O 506.744 1.8216 7.8299 0
M  V30 5192 H 506.476 -0.180584 0.651433 0
M  V30 5193 H 509.03 0.103848 2.05137 0
M  V30 5194 H 507.26 -2.18162 3.19284 0
M  V30 5195 H 508.949 -1.96526 3.55151 0
M  V30 5196 H 509.715 0.15314 4.84758 0
M  V30 5197 H 505.594 -1.02142 4.49542 0
M  V30 5198 H 509.138 1.54674 6.80237 0
M  V30 5199 H 505.035 0.365032 6.44467 0
M  V30 5200 H 505.803 1.74289 7.99728 0
M  V30 5201 N 508.466 -1.55915 -0.229846 0
M  V30 5202 C 509.376 -1.94891 -1.30593 0
M  V30 5203 C 510.392 -0.851604 -1.51736 0
M  V30 5204 O 511.568 -1.15447 -1.65027 0
M  V30 5205 C 508.633 -2.25052 -2.63728 0
M  V30 5206 C 507.694 -3.48306 -2.5096 0
M  V30 5207 C 506.927 -3.77019 -3.77747 0
M  V30 5208 O 507.15 -3.07534 -4.80395 0
M  V30 5209 O 506.084 -4.70523 -3.75356 0
M  V30 5210 H 509.91 -2.86581 -1.00525 0
M  V30 5211 H 507.495 -1.43017 -0.432025 0
M  V30 5212 H 509.377 -2.45682 -3.42372 0
M  V30 5213 H 508.052 -1.36538 -2.93495 0
M  V30 5214 H 506.959 -3.32964 -1.70546 0
M  V30 5215 H 508.292 -4.37177 -2.26136 0
M  V30 5216 N 509.944 0.496216 -1.49584 0
M  V30 5217 C 511.221 1.25755 -1.49816 0
M  V30 5218 C 511.601 2.09859 -0.228572 0
M  V30 5219 O 510.949 2.14449 0.788908 0
M  V30 5220 C 511.159 2.11017 -2.7798 0
M  V30 5221 C 512.507 2.70047 -3.27658 0
M  V30 5222 O 513.531 2.21281 -2.79129 0
M  V30 5223 O 512.39 3.58834 -4.1219 0
M  V30 5224 H 509.484 0.569322 -0.599834 0
M  V30 5225 H 512.03 0.510094 -1.61852 0
M  V30 5226 H 510.802 1.48879 -3.61871 0
M  V30 5227 H 510.425 2.92947 -2.68827 0
M  V30 5228 N 511.423 1.38739 0.74761 0
M  V30 5229 C 512.373 1.32948 1.85226 0
M  V30 5230 C 513.357 0.212642 1.59489 0
M  V30 5231 O 514.549 0.449121 1.71207 0
M  V30 5232 C 511.678 1.16279 3.23008 0
M  V30 5233 C 510.764 2.32611 3.54617 0
M  V30 5234 N 511.155 3.58065 3.57244 0
M  V30 5235 C 509.453 2.25293 3.84914 0
M  V30 5236 C 510.154 4.34919 3.8629 0
M  V30 5237 N 509.13 3.64348 4.03425 0
M  V30 5238 H 512.932 2.27927 1.85544 0
M  V30 5239 H 510.446 1.32056 0.945253 0
M  V30 5240 H 512.443 1.10214 4.02068 0
M  V30 5241 H 511.103 0.222394 3.23937 0
M  V30 5242 H 512.114 3.91656 3.3886 0
M  V30 5243 H 508.791 1.39446 3.93524 0
M  V30 5244 H 510.181 5.43605 3.94896 0
M  V30 5245 N 512.901 -0.976442 1.23707 0
M  V30 5246 C 513.848 -2.06952 1.02174 0
M  V30 5247 C 514.818 -1.65984 -0.0621034 0
M  V30 5248 O 516.003 -1.90584 0.0907906 0
M  V30 5249 C 513.143 -3.39425 0.62327 0
M  V30 5250 C 512.256 -3.9364 1.77966 0
M  V30 5251 C 511.391 -5.14343 1.3276 0
M  V30 5252 C 510.43 -5.60733 2.45449 0
M  V30 5253 N 509.567 -6.72662 2.01172 0
M  V30 5254 H 514.407 -2.24704 1.95734 0
M  V30 5255 H 511.944 -1.10143 0.975034 0
M  V30 5256 H 513.902 -4.15526 0.37332 0
M  V30 5257 H 512.532 -3.21624 -0.275329 0
M  V30 5258 H 511.584 -3.14258 2.14351 0
M  V30 5259 H 512.896 -4.24035 2.62671 0
M  V30 5260 H 512.05 -5.97789 1.03601 0
M  V30 5261 H 510.789 -4.8561 0.450975 0
M  V30 5262 H 509.794 -4.75865 2.75378 0
M  V30 5263 H 511.019 -5.91483 3.33654 0
M  V30 5264 H 508.965 -6.45681 1.15895 0
M  V30 5265 H 508.882 -7.02462 2.79434 0
M  V30 5266 H 510.15 -7.59572 1.75129 0
M  V30 5267 N 514.379 -1.04941 -1.1758 0
M  V30 5268 C 515.309 -0.669172 -2.23706 0
M  V30 5269 C 516.29 0.331835 -1.66832 0
M  V30 5270 O 517.475 0.209988 -1.93061 0
M  V30 5271 C 514.605 -0.0404889 -3.47276 0
M  V30 5272 C 513.559 -0.965983 -4.16957 0
M  V30 5273 C 512.885 -0.201312 -5.34321 0
M  V30 5274 C 514.185 -2.28902 -4.69469 0
M  V30 5275 H 515.879 -1.55639 -2.55767 0
M  V30 5276 H 513.425 -0.749793 -1.22939 0
M  V30 5277 H 515.378 0.237298 -4.20731 0
M  V30 5278 H 514.102 0.881658 -3.14475 0
M  V30 5279 H 512.761 -1.22829 -3.45411 0
M  V30 5280 H 512.409 0.723519 -4.97769 0
M  V30 5281 H 512.109 -0.817968 -5.81879 0
M  V30 5282 H 513.633 0.0692499 -6.10561 0
M  V30 5283 H 515.047 -2.07132 -5.34574 0
M  V30 5284 H 513.444 -2.85942 -5.27596 0
M  V30 5285 H 514.514 -2.92937 -3.86414 0
M  V30 5286 N 515.857 1.33968 -0.830081 0
M  V30 5287 C 516.804 2.29387 -0.255008 0
M  V30 5288 C 517.774 1.53923 0.624243 0
M  V30 5289 O 518.959 1.82262 0.564372 0
M  V30 5290 C 516.099 3.4034 0.571209 0
M  V30 5291 C 515.212 4.30729 -0.331083 0
M  V30 5292 C 514.347 5.2879 0.505389 0
M  V30 5293 C 513.386 6.10819 -0.395843 0
M  V30 5294 N 512.523 7.00948 0.401979 0
M  V30 5295 H 517.363 2.77972 -1.07404 0
M  V30 5296 H 514.9 1.36785 -0.541133 0
M  V30 5297 H 516.858 4.03361 1.06562 0
M  V30 5298 H 515.488 2.9297 1.35529 0
M  V30 5299 H 514.54 3.68507 -0.943759 0
M  V30 5300 H 515.852 4.88181 -1.02377 0
M  V30 5301 H 515.006 5.97297 1.06399 0
M  V30 5302 H 513.745 4.71894 1.23155 0
M  V30 5303 H 512.75 5.41238 -0.966529 0
M  V30 5304 H 513.975 6.69797 -1.12023 0
M  V30 5305 H 511.921 6.46512 1.11168 0
M  V30 5306 H 511.838 7.55643 -0.232167 0
M  V30 5307 H 513.106 7.73774 0.943102 0
M  V30 5308 N 517.335 0.585699 1.46312 0
M  V30 5309 C 518.56 0.0762461 2.0726 0
M  V30 5310 C 518.985 -1.22071 1.43109 0
M  V30 5311 O 518.343 -1.73804 0.515942 0
M  V30 5312 C 518.391 -0.0729404 3.60526 0
M  V30 5313 O 517.495 -1.1287 3.96654 0
M  V30 5314 H 516.836 0.0641558 0.660893 0
M  V30 5315 H 519.366 0.809492 1.87905 0
M  V30 5316 H 519.376 -0.278158 4.07051 0
M  V30 5317 H 518.051 0.874188 4.06609 0
M  V30 5318 H 516.628 -0.901703 3.61834 0
M  V30 5319 N 518.813 -1.54241 0.323641 0
M  V30 5320 C 520.061 -2.00174 -0.278359 0
M  V30 5321 C 520.382 -1.2134 -1.52648 0
M  V30 5322 O 519.652 -0.315244 -1.93347 0
M  V30 5323 H 518.232 -0.739463 -0.105845 0
M  V30 5324 H 520.894 -1.89864 0.440204 0
M  V30 5325 H 519.99 -3.07486 -0.5347 0
M  V30 5326 N 520.291 -0.0518155 -1.57515 0
M  V30 5327 C 521.519 0.631395 -1.9703 0
M  V30 5328 C 521.934 1.64341 -0.92938 0
M  V30 5329 O 521.291 1.82296 0.0863266 0
M  V30 5330 C 521.342 1.31774 -3.36627 0
M  V30 5331 O 521.063 0.346247 -4.3673 0
M  V30 5332 C 522.564 2.09065 -3.90905 0
M  V30 5333 H 519.784 0.172576 -0.648428 0
M  V30 5334 H 522.328 -0.118306 -2.04158 0
M  V30 5335 H 520.483 2.01867 -3.30649 0
M  V30 5336 H 520.897 0.836226 -5.17791 0
M  V30 5337 H 522.371 2.52508 -4.9086 0
M  V30 5338 H 522.848 2.93908 -3.26366 0
M  V30 5339 H 523.454 1.43882 -4.00223 0
M  V30 5340 N 521.769 1.56035 0.221574 0
M  V30 5341 C 522.717 1.93269 1.29421 0
M  V30 5342 C 523.711 0.814727 1.48521 0
M  V30 5343 O 524.917 0.999559 1.49696 0
M  V30 5344 H 521.292 0.614188 0.43391 0
M  V30 5345 H 523.263 2.82773 0.952987 0
M  V30 5346 C 522.012 2.26573 2.63742 0
M  V30 5347 H 521.335 3.12112 2.49853 0
M  V30 5348 H 522.775 2.5651 3.37607 0
M  V30 5349 C 521.234 1.09086 3.1875 0
M  V30 5350 O 521.764 0.351985 4.00155 0
M  V30 5351 N 519.97 0.874693 2.77124 0
M  V30 5352 H 519.517 1.47726 2.11033 0
M  V30 5353 H 519.475 0.0903349 3.1427 0
M  V30 5354 N 523.247 -0.488276 1.49845 0
M  V30 5355 C 524.475 -1.26527 1.63702 0
M  V30 5356 C 524.89 -1.8618 0.313447 0
M  V30 5357 O 524.247 -1.68432 -0.702624 0
M  V30 5358 C 524.298 -2.3864 2.71538 0
M  V30 5359 O 524.019 -1.81437 3.98763 0
M  V30 5360 C 525.52 -3.29805 2.96215 0
M  V30 5361 H 522.74 -0.383295 0.55075 0
M  V30 5362 H 525.284 -0.584779 1.95961 0
M  V30 5363 H 523.439 -3.02496 2.42023 0
M  V30 5364 H 523.853 -2.55135 4.58265 0
M  V30 5365 H 525.327 -4.04722 3.75372 0
M  V30 5366 H 525.804 -3.87563 2.06619 0
M  V30 5367 H 526.41 -2.71703 3.27196 0
M  V30 5368 N 524.725 -1.39134 -0.740242 0
M  V30 5369 C 525.672 -1.37434 -1.8542 0
M  V30 5370 C 526.642 -0.234822 -1.64432 0
M  V30 5371 O 527.827 -0.429125 -1.85912 0
M  V30 5372 C 524.967 -1.21844 -3.22875 0
M  V30 5373 C 524.08 -2.45296 -3.55603 0
M  V30 5374 C 523.215 -2.22334 -4.82432 0
M  V30 5375 C 522.254 -3.41488 -5.07988 0
M  V30 5376 N 521.391 -3.17877 -6.26018 0
M  V30 5377 H 526.231 -2.3266 -1.86207 0
M  V30 5378 H 523.768 -1.15578 -0.909946 0
M  V30 5379 H 525.726 -1.10818 -4.02213 0
M  V30 5380 H 524.356 -0.3025 -3.21379 0
M  V30 5381 H 523.408 -2.66945 -2.71006 0
M  V30 5382 H 524.72 -3.34063 -3.7041 0
M  V30 5383 H 523.874 -2.0852 -5.69741 0
M  V30 5384 H 522.613 -1.30954 -4.6979 0
M  V30 5385 H 521.618 -3.55807 -4.19144 0
M  V30 5386 H 522.843 -4.33763 -5.22519 0
M  V30 5387 H 520.789 -2.29156 -6.14673 0
M  V30 5388 H 520.706 -4.00198 -6.41387 0
M  V30 5389 H 521.974 -3.07746 -7.16179 0
M  V30 5390 N 526.204 0.969867 -1.24223 0
M  V30 5391 C 527.151 2.06407 -1.0327 0
M  V30 5392 C 528.121 1.66014 0.0533 0
M  V30 5393 O 529.306 1.90533 -0.100896 0
M  V30 5394 C 526.446 3.3909 -0.641262 0
M  V30 5395 C 525.559 3.9269 -1.80051 0
M  V30 5396 C 524.694 5.13631 -1.35486 0
M  V30 5397 C 523.733 5.59423 -2.48419 0
M  V30 5398 N 522.87 6.71586 -2.04737 0
M  V30 5399 H 527.71 2.23663 -1.96923 0
M  V30 5400 H 525.247 1.09624 -0.980862 0
M  V30 5401 H 527.205 4.15323 -0.395351 0
M  V30 5402 H 525.835 3.21765 0.258269 0
M  V30 5403 H 524.887 3.13116 -2.16014 0
M  V30 5404 H 526.199 4.22636 -2.64916 0
M  V30 5405 H 525.353 5.97231 -1.0677 0
M  V30 5406 H 524.092 4.85364 -0.476722 0
M  V30 5407 H 523.097 4.74398 -2.77897 0
M  V30 5408 H 524.322 5.89705 -3.36786 0
M  V30 5409 H 522.268 6.45058 -1.19318 0
M  V30 5410 H 522.185 7.0097 -2.83156 0
M  V30 5411 H 523.453 7.58633 -1.79154 0
M  V30 5412 N 527.682 1.05563 1.17022 0
M  V30 5413 C 528.645 0.664098 2.19368 0
M  V30 5414 C 529.645 -0.286358 1.5823 0
M  V30 5415 O 530.835 -0.069728 1.7406 0
M  V30 5416 C 527.967 -0.0239932 3.40892 0
M  V30 5417 H 529.16 1.57 2.55521 0
M  V30 5418 H 526.713 0.849964 1.31169 0
M  V30 5419 H 527.448 -0.942988 3.10287 0
M  V30 5420 H 527.233 0.659351 3.86516 0
M  V30 5421 H 528.723 -0.283909 4.16634 0
M  V30 5422 N 529.16 -1.33526 0.837174 0
M  V30 5423 C 530.09 -2.31764 0.284206 0
M  V30 5424 C 531.071 -1.58896 -0.607142 0
M  V30 5425 O 532.256 -1.86798 -0.531047 0
M  V30 5426 C 529.386 -3.43029 -0.542962 0
M  V30 5427 C 528.34 -4.27255 0.252451 0
M  V30 5428 C 527.666 -5.3012 -0.69836 0
M  V30 5429 C 528.966 -5.01229 1.46858 0
M  V30 5430 H 530.66 -2.78262 1.10502 0
M  V30 5431 H 528.206 -1.3378 0.532812 0
M  V30 5432 H 530.159 -4.1078 -0.940096 0
M  V30 5433 H 528.883 -2.95216 -1.39697 0
M  V30 5434 H 527.542 -3.61127 0.631124 0
M  V30 5435 H 527.19 -4.78564 -1.54872 0
M  V30 5436 H 526.89 -5.87353 -0.170274 0
M  V30 5437 H 528.414 -6.00737 -1.09305 0
M  V30 5438 H 529.828 -5.61756 1.14469 0
M  V30 5439 H 528.225 -5.68104 1.93333 0
M  V30 5440 H 529.295 -4.301 2.23924 0
M  V30 5441 N 530.638 -0.59345 -1.46 0
M  V30 5442 C 531.57 0.171569 -2.28557 0
M  V30 5443 C 532.583 0.845273 -1.39137 0
M  V30 5444 O 533.772 0.713033 -1.6364 0
M  V30 5445 C 530.872 1.26311 -3.14482 0
M  V30 5446 C 530.045 0.679258 -4.32094 0
M  V30 5447 C 529.104 1.65987 -4.99334 0
M  V30 5448 O 528.13 1.19171 -5.56585 0
M  V30 5449 N 529.332 2.99414 -4.97324 0
M  V30 5450 H 532.097 -0.536771 -2.94854 0
M  V30 5451 H 529.658 -0.431954 -1.56031 0
M  V30 5452 H 531.65 1.91863 -3.5633 0
M  V30 5453 H 530.22 1.87416 -2.50188 0
M  V30 5454 H 529.44 -0.153992 -3.93899 0
M  V30 5455 H 530.728 0.26916 -5.08088 0
M  V30 5456 H 530.126 3.40064 -4.52076 0
M  V30 5457 H 528.683 3.60426 -5.4308 0
M  V30 5458 N 532.116 1.54067 -0.331816 0
M  V30 5459 C 533.079 2.23275 0.517768 0
M  V30 5460 C 534.079 1.22897 1.03697 0
M  V30 5461 O 535.269 1.47419 0.928084 0
M  V30 5462 C 532.401 2.94326 1.72004 0
M  V30 5463 H 533.594 2.99773 -0.0873507 0
M  V30 5464 H 531.147 1.56079 -0.0830042 0
M  V30 5465 H 531.882 2.21986 2.36417 0
M  V30 5466 H 531.667 3.67941 1.35507 0
M  V30 5467 H 533.157 3.47031 2.32291 0
M  V30 5468 N 533.594 0.0601682 1.57485 0
M  V30 5469 C 534.84 -0.612501 1.93329 0
M  V30 5470 C 535.173 -1.6996 0.939526 0
M  V30 5471 O 534.448 -1.94472 -0.0330957 0
M  V30 5472 C 534.731 -1.20025 3.39508 0
M  V30 5473 C 534.584 -0.12059 4.49638 0
M  V30 5474 C 535.903 -2.10923 3.86264 0
M  V30 5475 H 533.022 -0.221185 0.703027 0
M  V30 5476 H 535.664 0.123768 1.89596 0
M  V30 5477 H 533.814 -1.82774 3.42821 0
M  V30 5478 H 535.486 0.51185 4.58452 0
M  V30 5479 H 533.729 0.550251 4.30296 0
M  V30 5480 H 534.4 -0.572019 5.49028 0
M  V30 5481 H 536.876 -1.58124 3.84884 0
M  V30 5482 H 535.752 -2.48987 4.8918 0
M  V30 5483 H 536.013 -3.01292 3.23536 0
M  V30 5484 N 535.072 -1.5615 -0.213296 0
M  V30 5485 C 536.302 -1.83372 -0.951757 0
M  V30 5486 C 536.71 -0.638158 -1.78113 0
M  V30 5487 O 536.053 0.402609 -1.79234 0
M  V30 5488 C 536.115 -3.04444 -1.91192 0
M  V30 5489 C 535.779 -4.39107 -1.26627 0
M  V30 5490 C 536.776 -5.15794 -0.652087 0
M  V30 5491 C 534.461 -4.85834 -1.27556 0
M  V30 5492 C 536.455 -6.37376 -0.055814 0
M  V30 5493 C 534.142 -6.07356 -0.675451 0
M  V30 5494 C 535.14 -6.82967 -0.0666367 0
M  V30 5495 O 534.828 -8.0219 0.524119 0
M  V30 5496 H 534.56 -0.613398 -0.284111 0
M  V30 5497 H 537.114 -2.04096 -0.231112 0
M  V30 5498 H 535.344 -2.79559 -2.67178 0
M  V30 5499 H 537.033 -3.18466 -2.51662 0
M  V30 5500 H 537.799 -4.80796 -0.637172 0
M  V30 5501 H 533.678 -4.26949 -1.73883 0
M  V30 5502 H 537.222 -6.96334 0.420004 0
M  V30 5503 H 533.119 -6.41825 -0.687806 0
M  V30 5504 H 533.887 -8.17426 0.419243 0
M  V30 5505 N 536.55 0.480323 -1.50102 0
M  V30 5506 C 537.775 1.26126 -1.64642 0
M  V30 5507 C 538.2 1.85257 -0.325823 0
M  V30 5508 O 537.558 1.66854 0.709194 0
M  V30 5509 C 537.606 2.35243 -2.73301 0
M  V30 5510 O 536.71 3.39646 -2.33911 0
M  V30 5511 H 536.051 0.371463 -0.550374 0
M  V30 5512 H 538.581 0.572696 -1.96421 0
M  V30 5513 H 538.591 2.80695 -2.96098 0
M  V30 5514 H 537.266 1.91574 -3.6915 0
M  V30 5515 H 535.843 2.99969 -2.21525 0
M  V30 5516 N 538.028 1.39524 0.732853 0
M  V30 5517 C 538.961 1.32806 1.85574 0
M  V30 5518 C 539.939 0.201354 1.61348 0
M  V30 5519 O 541.123 0.38216 1.84585 0
M  V30 5520 C 538.25 1.06271 3.21596 0
M  V30 5521 C 537.296 2.21161 3.64678 0
M  V30 5522 S 538.129 3.83454 3.73796 0
M  V30 5523 C 539.285 3.59149 5.12604 0
M  V30 5524 H 539.518 2.27838 1.9099 0
M  V30 5525 H 537.051 1.25605 0.897927 0
M  V30 5526 H 539.009 0.916461 4.00139 0
M  V30 5527 H 537.67 0.129223 3.13834 0
M  V30 5528 H 536.863 1.98193 4.63396 0
M  V30 5529 H 536.465 2.32 2.93346 0
M  V30 5530 H 538.757 3.16547 5.99003 0
M  V30 5531 H 539.7 4.57335 5.40602 0
M  V30 5532 H 540.108 2.93203 4.82382 0
M  V30 5533 N 539.506 -0.963266 1.24736 0
M  V30 5534 C 540.439 -2.05758 0.986852 0
M  V30 5535 C 541.417 -1.62398 -0.0809272 0
M  V30 5536 O 542.601 -1.88414 0.0569347 0
M  V30 5537 C 539.728 -3.35135 0.490095 0
M  V30 5538 C 538.774 -3.97451 1.54709 0
M  V30 5539 S 539.607 -4.34519 3.12976 0
M  V30 5540 C 540.763 -5.67026 2.65014 0
M  V30 5541 H 540.996 -2.27539 1.91346 0
M  V30 5542 H 538.529 -1.10176 1.08169 0
M  V30 5543 H 540.487 -4.09962 0.21012 0
M  V30 5544 H 539.148 -3.11335 -0.415873 0
M  V30 5545 H 538.341 -4.90704 1.15003 0
M  V30 5546 H 537.943 -3.29071 1.77731 0
M  V30 5547 H 540.235 -6.44748 2.08102 0
M  V30 5548 H 541.178 -6.11594 3.56873 0
M  V30 5549 H 541.586 -5.25847 2.05294 0
M  V30 5550 N 540.985 -1.06182 -1.16461 0
M  V30 5551 C 542.21 -0.798599 -1.91408 0
M  V30 5552 C 542.635 0.640987 -1.76842 0
M  V30 5553 O 541.993 1.44652 -1.09296 0
M  V30 5554 C 542.041 -1.19665 -3.40165 0
M  V30 5555 O 541.145 -0.334768 -4.11039 0
M  V30 5556 H 540.486 -0.291961 -0.596368 0
M  V30 5557 H 543.016 -1.41732 -1.47557 0
M  V30 5558 H 543.026 -1.16772 -3.90933 0
M  V30 5559 H 541.701 -2.24526 -3.50087 0
M  V30 5560 H 540.278 -0.425168 -3.70468 0
M  V30 5561 N 542.463 1.3308 -0.844243 0
M  V30 5562 C 543.709 1.98304 -0.452453 0
M  V30 5563 C 544.064 1.65645 0.978746 0
M  V30 5564 O 543.357 0.928849 1.6758 0
M  V30 5565 C 543.551 3.52045 -0.616354 0
M  V30 5566 C 543.38 3.99643 -2.06193 0
M  V30 5567 C 542.15 4.27224 -2.69829 0
M  V30 5568 C 544.348 4.15471 -3.03131 0
M  V30 5569 N 542.33 4.60998 -4.05406 0
M  V30 5570 C 543.701 4.52665 -4.23668 0
M  V30 5571 C 545.756 3.97776 -2.99465 0
M  V30 5572 C 544.459 4.74011 -5.41023 0
M  V30 5573 C 546.485 4.20301 -4.16055 0
M  V30 5574 C 545.847 4.57801 -5.35348 0
M  V30 5575 H 541.946 0.752122 -0.214096 0
M  V30 5576 H 544.53 1.61096 -1.09344 0
M  V30 5577 H 542.701 3.884 -0.00513205 0
M  V30 5578 H 544.433 4.04228 -0.19548 0
M  V30 5579 H 541.188 4.18911 -2.20931 0
M  V30 5580 H 541.612 4.82087 -4.75312 0
M  V30 5581 H 546.254 3.67893 -2.08362 0
M  V30 5582 H 543.972 5.02753 -6.32665 0
M  V30 5583 H 547.558 4.08122 -4.14641 0
M  V30 5584 H 546.438 4.74884 -6.24063 0
M  V30 5585 N 543.941 0.601185 1.45683 0
M  V30 5586 C 545.352 0.179659 1.85834 0
M  V30 5587 C 545.703 -1.26189 1.50236 0
M  V30 5588 O 544.828 -1.95587 0.925987 0
M  V30 5589 C 545.423 0.319277 3.37292 0
M  V30 5590 C 543.982 -0.0475092 3.7637 0
M  V30 5591 C 543.129 0.646692 2.69654 0
M  V30 5592 H 546.08 0.808268 1.36575 0
M  V30 5593 H 546.101 -0.4503 3.77826 0
M  V30 5594 H 545.613 1.36855 3.6317 0
M  V30 5595 H 543.714 -1.0962 3.5611 0
M  V30 5596 H 543.827 0.34168 4.7788 0
M  V30 5597 H 542.191 0.0849971 2.54558 0
M  V30 5598 H 542.974 1.69797 2.98369 0
M  V30 5599 N 545.419 -1.53889 0.339982 0
M  V30 5600 C 546.696 -1.93084 -0.312719 0
M  V30 5601 C 547.076 -1.2712 -1.68534 0
M  V30 5602 O 546.424 -0.420835 -2.24591 0
M  V30 5603 C 546.634 -3.4683 -0.388558 0
M  V30 5604 C 547.982 -4.19732 -0.641088 0
M  V30 5605 O 549.006 -3.53075 -0.470818 0
M  V30 5606 O 547.865 -5.3781 -0.970685 0
M  V30 5607 H 544.959 -0.806784 -0.18174 0
M  V30 5608 H 547.505 -1.65137 0.390898 0
M  V30 5609 H 546.277 -3.87055 0.574821 0
M  V30 5610 H 545.9 -3.80933 -1.1391 0
M  V30 5611 N 546.897 -0.0685191 -1.57451 0
M  V30 5612 C 548.174 0.642167 -1.84758 0
M  V30 5613 C 548.554 1.87991 -0.960344 0
M  V30 5614 O 547.902 2.28485 -0.0257894 0
M  V30 5615 C 548.112 0.982946 -3.34872 0
M  V30 5616 C 549.46 1.35784 -4.02303 0
M  V30 5617 O 550.484 1.07477 -3.39598 0
M  V30 5618 O 549.343 1.88681 -5.12895 0
M  V30 5619 H 546.437 0.318625 -0.763156 0
M  V30 5620 H 548.983 -0.0992015 -1.6941 0
M  V30 5621 H 547.755 0.10372 -3.91163 0
M  V30 5622 H 547.378 1.78119 -3.55471 0
M  V30 5623 N 548.375 1.56261 0.205012 0
M  V30 5624 C 549.621 1.80306 0.9283 0
M  V30 5625 C 549.954 0.640932 1.83319 0
M  V30 5626 O 549.229 -0.359032 1.91158 0
M  V30 5627 C 549.512 3.14547 1.75306 0
M  V30 5628 C 549.365 4.41236 0.873562 0
M  V30 5629 C 550.684 3.45382 2.72762 0
M  V30 5630 H 547.803 0.655929 0.336044 0
M  V30 5631 H 550.445 1.88984 0.196211 0
M  V30 5632 H 548.595 3.0728 2.37721 0
M  V30 5633 H 550.267 4.60539 0.264887 0
M  V30 5634 H 548.51 4.33427 0.179773 0
M  V30 5635 H 549.181 5.31639 1.48541 0
M  V30 5636 H 551.657 3.52884 2.20481 0
M  V30 5637 H 550.533 4.40449 3.2756 0
M  V30 5638 H 550.794 2.68377 3.51321 0
M  V30 5639 N 549.853 -0.472356 1.50355 0
M  V30 5640 C 551.264 -1.05326 1.54154 0
M  V30 5641 C 551.615 -1.93155 0.344303 0
M  V30 5642 O 550.74 -2.09479 -0.542928 0
M  V30 5643 C 551.335 -1.91691 2.79356 0
M  V30 5644 C 549.894 -2.44892 2.8584 0
M  V30 5645 C 549.041 -1.23205 2.48426 0
M  V30 5646 H 551.992 -0.255027 1.56637 0
M  V30 5647 H 552.013 -2.76742 2.6114 0
M  V30 5648 H 551.525 -1.27741 3.66475 0
M  V30 5649 H 549.626 -3.12399 2.0307 0
M  V30 5650 H 549.739 -2.80086 3.88701 0
M  V30 5651 H 548.103 -1.56643 2.00836 0
M  V30 5652 H 548.886 -0.609194 3.37852 0
M  V30 5653 N 551.331 -1.39911 -0.725443 0
M  V30 5654 C 552.742 -1.33599 -1.30415 0
M  V30 5655 C 553.093 -0.00481792 -1.96199 0
M  V30 5656 O 552.218 0.897275 -1.96921 0
M  V30 5657 C 552.813 -2.41965 -2.37146 0
M  V30 5658 C 551.372 -2.39144 -2.90667 0
M  V30 5659 C 550.519 -2.23355 -1.64341 0
M  V30 5660 H 553.47 -1.4986 -0.522267 0
M  V30 5661 H 553.491 -2.09304 -3.17761 0
M  V30 5662 H 553.003 -3.38837 -1.89238 0
M  V30 5663 H 551.104 -1.4594 -3.4283 0
M  V30 5664 H 551.217 -3.34362 -3.43131 0
M  V30 5665 H 549.581 -1.70696 -1.89037 0
M  V30 5666 H 550.364 -3.2221 -1.18471 0
M  V30 5667 N 552.809 0.956637 -1.25245 0
M  V30 5668 C 553.719 2.0868 -1.0719 0
M  V30 5669 C 554.735 1.73997 -0.00959074 0
M  V30 5670 O 555.911 2.00301 -0.210104 0
M  V30 5671 C 552.976 3.39754 -0.690526 0
M  V30 5672 C 552.037 3.88316 -1.83055 0
M  V30 5673 C 551.27 5.13134 -1.46728 0
M  V30 5674 O 551.493 5.6925 -0.362029 0
M  V30 5675 O 550.427 5.56356 -2.29677 0
M  V30 5676 H 554.253 2.26813 -2.01965 0
M  V30 5677 H 551.838 1.07098 -1.04165 0
M  V30 5678 H 553.72 4.18543 -0.489871 0
M  V30 5679 H 552.395 3.22896 0.227981 0
M  V30 5680 H 551.302 3.1054 -2.08604 0
M  V30 5681 H 552.635 4.09669 -2.72822 0
M  V30 5682 N 554.287 1.06798 1.15896 0
M  V30 5683 C 555.535 0.786211 1.8618 0
M  V30 5684 C 555.856 -0.689547 1.82401 0
M  V30 5685 O 555.126 -1.49913 1.26107 0
M  V30 5686 H 553.706 0.287843 0.689315 0
M  V30 5687 H 556.368 1.35055 1.40521 0
M  V30 5688 H 555.464 1.1157 2.91477 0
M  V30 5689 N 555.766 -1.3263 0.851289 0
M  V30 5690 C 557.012 -1.98061 0.462963 0
M  V30 5691 C 557.367 -1.66162 -0.969948 0
M  V30 5692 O 556.66 -0.937723 -1.67085 0
M  V30 5693 C 556.854 -3.51713 0.635015 0
M  V30 5694 C 556.683 -3.98544 2.0831 0
M  V30 5695 C 555.453 -4.25787 2.72091 0
M  V30 5696 C 557.651 -4.13858 3.0533 0
M  V30 5697 N 555.633 -4.58842 4.07845 0
M  V30 5698 C 557.004 -4.50412 4.26063 0
M  V30 5699 C 559.059 -3.96182 3.0157 0
M  V30 5700 C 557.762 -4.71136 5.43529 0
M  V30 5701 C 559.788 -4.18088 4.18278 0
M  V30 5702 C 559.15 -4.54956 5.37768 0
M  V30 5703 H 555.249 -0.750976 0.218082 0
M  V30 5704 H 557.833 -1.60514 1.10197 0
M  V30 5705 H 556.004 -3.88391 0.0257298 0
M  V30 5706 H 557.736 -4.04118 0.216915 0
M  V30 5707 H 554.491 -4.17734 2.23149 0
M  V30 5708 H 554.915 -4.7956 4.77862 0
M  V30 5709 H 559.557 -3.66783 2.1031 0
M  V30 5710 H 557.275 -4.9939 6.35323 0
M  V30 5711 H 560.861 -4.05918 4.168 0
M  V30 5712 H 559.741 -4.71567 6.26573 0
M  V30 5713 N 557.244 -0.608902 -1.45362 0
M  V30 5714 C 558.192 0.121639 -2.32282 0
M  V30 5715 C 559.186 0.858301 -1.46046 0
M  V30 5716 O 560.392 0.773718 -1.62523 0
M  V30 5717 H 556.767 0.058086 -0.749753 0
M  V30 5718 H 558.738 -0.629866 -2.91677 0
M  V30 5719 C 557.487 1.1047 -3.29684 0
M  V30 5720 H 556.81 0.547278 -3.96036 0
M  V30 5721 H 558.25 1.58576 -3.9323 0
M  V30 5722 C 556.709 2.17891 -2.56954 0
M  V30 5723 O 557.239 3.25652 -2.35189 0
M  V30 5724 N 555.445 1.93211 -2.17066 0
M  V30 5725 H 554.992 1.05584 -2.34967 0
M  V30 5726 H 554.95 2.6529 -1.68727 0
M  V30 5727 N 558.722 1.53707 -0.348139 0
M  V30 5728 C 560.138 1.596 0.00361134 0
M  V30 5729 C 560.338 1.36394 1.4832 0
M  V30 5730 O 559.394 1.16046 2.24253 0
M  V30 5731 C 560.707 2.97512 -0.436682 0
M  V30 5732 C 562.255 3.10568 -0.389416 0
M  V30 5733 C 562.73 4.50866 -0.805249 0
M  V30 5734 N 564.221 4.56929 -0.759616 0
M  V30 5735 C 564.956 5.63643 -1.05327 0
M  V30 5736 N 564.452 6.78189 -1.41531 0
M  V30 5737 N 566.245 5.5354 -0.977207 0
M  V30 5738 H 558.396 1.67044 -1.31187 0
M  V30 5739 H 560.659 0.782559 -0.535075 0
M  V30 5740 H 560.365 3.19575 -1.46849 0
M  V30 5741 H 560.239 3.76742 0.185744 0
M  V30 5742 H 562.626 2.88226 0.633228 0
M  V30 5743 H 562.707 2.33387 -1.04711 0
M  V30 5744 H 562.351 4.73943 -1.82593 0
M  V30 5745 H 562.281 5.26452 -0.124989 0
M  V30 5746 H 564.772 3.74675 -0.49265 0
M  V30 5747 H 565.085 7.55541 -1.62411 0
M  V30 5748 H 563.43 6.79624 -1.45381 0
M  V30 5749 H 566.621 4.62932 -0.693675 0
M  V30 5750 H 566.794 6.36614 -1.2094 0
M  V30 5751 N 560.2 0.0768682 1.57412 0
M  V30 5752 C 561.428 -0.59997 1.9801 0
M  V30 5753 C 561.843 -1.62842 0.955408 0
M  V30 5754 O 561.2 -1.8241 -0.057314 0
M  V30 5755 C 561.251 -1.26401 3.38681 0
M  V30 5756 O 560.972 -0.276723 4.37225 0
M  V30 5757 C 562.473 -2.0282 3.94182 0
M  V30 5758 H 559.693 -0.162239 0.651091 0
M  V30 5759 H 562.237 0.150771 2.03943 0
M  V30 5760 H 560.392 -1.96581 3.33819 0
M  V30 5761 H 560.806 -0.753744 5.19056 0
M  V30 5762 H 562.28 -2.44667 4.94815 0
M  V30 5763 H 562.757 -2.88678 3.31001 0
M  V30 5764 H 563.363 -1.37496 4.02461 0
M  V30 5765 N 561.678 -1.56367 -0.196722 0
M  V30 5766 C 563.094 -1.49916 -0.54749 0
M  V30 5767 C 563.294 -0.77659 -1.85934 0
M  V30 5768 O 562.35 -0.32644 -2.50381 0
M  V30 5769 C 563.663 -2.94577 -0.603734 0
M  V30 5770 C 565.211 -3.05239 -0.692677 0
M  V30 5771 C 565.686 -4.51308 -0.780046 0
M  V30 5772 N 567.177 -4.55453 -0.843616 0
M  V30 5773 C 567.912 -5.65786 -0.931358 0
M  V30 5774 N 567.408 -6.85812 -0.981503 0
M  V30 5775 N 569.201 -5.53695 -0.968421 0
M  V30 5776 H 561.352 -2.01761 0.663803 0
M  V30 5777 H 563.615 -0.918094 0.236238 0
M  V30 5778 H 563.321 -3.50494 0.29105 0
M  V30 5779 H 563.195 -3.47841 -1.45898 0
M  V30 5780 H 565.582 -2.49372 -1.57789 0
M  V30 5781 H 565.663 -2.55103 0.188736 0
M  V30 5782 H 565.307 -5.078 0.100811 0
M  V30 5783 H 565.237 -4.99176 -1.67724 0
M  V30 5784 H 567.728 -3.69025 -0.814176 0
M  V30 5785 H 568.041 -7.65648 -1.04892 0
M  V30 5786 H 566.386 -6.88474 -0.950208 0
M  V30 5787 H 569.577 -4.58848 -0.926072 0
M  V30 5788 H 569.75 -6.39708 -1.03334 0
M  V30 5789 N 563.156 0.464375 -1.50603 0
M  V30 5790 C 564.106 1.55929 -1.66343 0
M  V30 5791 C 565.09 1.52338 -0.517887 0
M  V30 5792 O 566.282 1.59248 -0.772601 0
M  V30 5793 C 563.411 2.94327 -1.7671 0
M  V30 5794 C 562.497 3.02777 -2.96962 0
M  V30 5795 N 562.888 2.81026 -4.20545 0
M  V30 5796 C 561.186 3.33919 -2.95659 0
M  V30 5797 C 561.887 2.94618 -5.01573 0
M  V30 5798 N 560.863 3.25112 -4.35664 0
M  V30 5799 H 564.665 1.37822 -2.59581 0
M  V30 5800 H 562.179 0.671227 -1.47879 0
M  V30 5801 H 564.176 3.73063 -1.86091 0
M  V30 5802 H 562.836 3.13476 -0.846353 0
M  V30 5803 H 563.847 2.56477 -4.49933 0
M  V30 5804 H 560.524 3.59013 -2.13111 0
M  V30 5805 H 561.914 2.81984 -6.09865 0
M  V30 5806 N 564.634 1.40294 0.718013 0
M  V30 5807 C 565.88 1.38645 1.48005 0
M  V30 5808 C 566.213 -0.0121202 1.94196 0
M  V30 5809 O 565.488 -0.980309 1.67989 0
M  V30 5810 C 565.771 2.37379 2.70782 0
M  V30 5811 C 565.624 3.8625 2.30501 0
M  V30 5812 C 566.943 2.33685 3.72933 0
M  V30 5813 H 564.062 0.504928 0.536858 0
M  V30 5814 H 566.704 1.71411 0.819649 0
M  V30 5815 H 564.854 2.09568 3.27129 0
M  V30 5816 H 566.526 4.24879 1.79655 0
M  V30 5817 H 564.769 4.02202 1.6253 0
M  V30 5818 H 565.44 4.50847 3.18498 0
M  V30 5819 H 567.916 2.58314 3.2621 0
M  V30 5820 H 566.792 3.0482 4.56482 0
M  V30 5821 H 567.053 1.34765 4.21059 0
M  V30 5822 N 566.112 -0.949982 1.2575 0
M  V30 5823 C 567.361 -1.68956 1.10168 0
M  V30 5824 C 567.674 -1.92327 -0.356309 0
M  V30 5825 O 568.88 -2.64026 -0.632657 0
M  V30 5826 C 567.336 -3.04196 1.92336 0
M  V30 5827 C 566.944 -2.88603 3.42655 0
M  V30 5828 C 568.688 -3.81904 1.85336 0
M  V30 5829 C 566.595 -4.19262 4.17101 0
M  V30 5830 H 565.525 -0.633645 0.408668 0
M  V30 5831 H 568.176 -1.05719 1.49986 0
M  V30 5832 H 566.558 -3.68363 1.45344 0
M  V30 5833 H 567.732 -2.3334 3.97353 0
M  V30 5834 H 566.047 -2.24345 3.50796 0
M  V30 5835 H 568.644 -4.78688 2.38248 0
M  V30 5836 H 568.987 -4.08099 0.822226 0
M  V30 5837 H 569.52 -3.24495 2.30104 0
M  V30 5838 H 566.259 -3.98254 5.20648 0
M  V30 5839 H 565.779 -4.74273 3.67186 0
M  V30 5840 H 567.458 -4.87775 4.25071 0
M  V30 5841 N 567.59 -1.07411 -1.15328 0
M  V30 5842 C 568.839 -0.792643 -1.85473 0
M  V30 5843 C 569.152 0.683789 -1.83259 0
M  V30 5844 O 570.358 1.08005 -2.49093 0
M  V30 5845 C 568.814 -1.36787 -3.32892 0
M  V30 5846 C 568.422 -2.87536 -3.43551 0
M  V30 5847 C 570.166 -1.16444 -4.08217 0
M  V30 5848 C 568.073 -3.38247 -4.85122 0
M  V30 5849 H 567.003 -0.292838 -0.694811 0
M  V30 5850 H 569.654 -1.29426 -1.30082 0
M  V30 5851 H 568.036 -0.793993 -3.87958 0
M  V30 5852 H 569.21 -3.50973 -2.98588 0
M  V30 5853 H 567.525 -3.06676 -2.81672 0
M  V30 5854 H 570.122 -1.51808 -5.12697 0
M  V30 5855 H 570.465 -0.10353 -4.16171 0
M  V30 5856 H 570.998 -1.70472 -3.59422 0
M  V30 5857 H 567.737 -4.43866 -4.82351 0
M  V30 5858 H 567.257 -2.79564 -5.30664 0
M  V30 5859 H 568.936 -3.34238 -5.5398 0
M  V30 5860 N 569.068 1.32177 -0.85831 0
M  V30 5861 C 569.998 2.31282 -0.321041 0
M  V30 5862 C 570.979 1.59841 0.581786 0
M  V30 5863 O 572.164 1.87619 0.501262 0
M  V30 5864 C 569.294 3.4385 0.48832 0
M  V30 5865 C 568.248 4.26799 -0.320391 0
M  V30 5866 C 567.574 5.31164 0.613934 0
M  V30 5867 C 568.874 4.98829 -1.54813 0
M  V30 5868 H 570.568 2.76469 -1.14915 0
M  V30 5869 H 568.114 1.32916 -0.554028 0
M  V30 5870 H 570.067 4.12224 0.874626 0
M  V30 5871 H 568.791 2.97401 1.34983 0
M  V30 5872 H 567.45 3.60077 -0.688497 0
M  V30 5873 H 567.098 4.80967 1.47239 0
M  V30 5874 H 566.798 5.8755 0.0768097 0
M  V30 5875 H 568.322 6.024 0.997336 0
M  V30 5876 H 569.736 5.59864 -1.23392 0
M  V30 5877 H 568.133 5.64957 -2.02346 0
M  V30 5878 H 569.203 4.26483 -2.30739 0
M  V30 5879 N 570.547 0.616602 1.45037 0
M  V30 5880 C 571.48 -0.145984 2.27733 0
M  V30 5881 C 572.458 -0.865108 1.37676 0
M  V30 5882 O 573.642 -0.872152 1.6711 0
M  V30 5883 C 570.769 -1.2122 3.16265 0
M  V30 5884 C 569.815 -0.595218 4.22326 0
M  V30 5885 S 570.648 0.603744 5.32086 0
M  V30 5886 C 571.804 -0.462842 6.24186 0
M  V30 5887 H 572.037 0.555591 2.92062 0
M  V30 5888 H 569.57 0.404364 1.49011 0
M  V30 5889 H 571.528 -1.82247 3.67827 0
M  V30 5890 H 570.189 -1.88589 2.51183 0
M  V30 5891 H 569.382 -1.39775 4.8423 0
M  V30 5892 H 568.984 -0.0598965 3.73952 0
M  V30 5893 H 571.276 -1.33945 6.64127 0
M  V30 5894 H 572.219 0.120259 7.07998 0
M  V30 5895 H 572.627 -0.782219 5.59054 0
M  V30 5896 N 572.025 -1.5352 0.356285 0
M  V30 5897 C 573.253 -2.05534 -0.237328 0
M  V30 5898 C 573.668 -1.23043 -1.43199 0
M  V30 5899 O 573.025 -0.268821 -1.80509 0
M  V30 5900 C 573.076 -3.55791 -0.639933 0
M  V30 5901 O 572.797 -4.35154 0.507233 0
M  V30 5902 C 574.298 -4.24027 -1.29292 0
M  V30 5903 H 571.518 -0.669585 -0.0435572 0
M  V30 5904 H 574.062 -1.97988 0.511963 0
M  V30 5905 H 572.217 -3.63518 -1.33915 0
M  V30 5906 H 572.631 -5.24178 0.18375 0
M  V30 5907 H 574.105 -5.30509 -1.52527 0
M  V30 5908 H 574.582 -3.77166 -2.25039 0
M  V30 5909 H 575.188 -4.20527 -0.63539 0
M  V30 5910 N 573.503 -0.0852151 -1.57369 0
M  V30 5911 C 574.78 0.622534 -1.85429 0
M  V30 5912 C 575.16 1.86962 -0.980229 0
M  V30 5913 O 574.508 2.28445 -0.0500219 0
M  V30 5914 C 574.718 0.947374 -3.35896 0
M  V30 5915 C 576.066 1.31509 -4.03721 0
M  V30 5916 O 577.09 1.03869 -3.40719 0
M  V30 5917 O 575.949 1.83231 -5.14868 0
M  V30 5918 H 573.043 0.310513 -0.766492 0
M  V30 5919 H 575.589 -0.117164 -1.69295 0
M  V30 5920 H 574.361 0.0622264 -3.91251 0
M  V30 5921 H 573.984 1.74338 -3.5734 0
M  V30 5922 N 574.981 1.5647 0.188427 0
M  V30 5923 C 576.229 1.80655 0.905986 0
M  V30 5924 C 576.55 0.659391 1.83513 0
M  V30 5925 O 575.82 -0.321868 1.93238 0
M  V30 5926 H 574.4 0.666391 0.337538 0
M  V30 5927 H 577.062 1.93949 0.192339 0
M  V30 5928 H 576.158 2.74066 1.49313 0
M  V30 5929 N 576.459 -0.456382 1.50847 0
M  V30 5930 C 577.389 -1.56025 1.73719 0
M  V30 5931 C 578.37 -1.5967 0.586473 0
M  V30 5932 O 579.555 -1.75702 0.827185 0
M  V30 5933 C 576.685 -2.94251 1.84483 0
M  V30 5934 C 575.639 -3.05471 2.99786 0
M  V30 5935 C 574.965 -4.45489 2.95709 0
M  V30 5936 C 576.265 -2.81318 4.40065 0
M  V30 5937 H 577.959 -1.37138 2.66146 0
M  V30 5938 H 575.505 -0.658299 1.28072 0
M  V30 5939 H 577.458 -3.71417 1.99067 0
M  V30 5940 H 576.182 -3.14328 0.886891 0
M  V30 5941 H 574.841 -2.30741 2.84876 0
M  V30 5942 H 574.489 -4.62505 1.97732 0
M  V30 5943 H 574.189 -4.53929 3.73125 0
M  V30 5944 H 575.713 -5.24655 3.12362 0
M  V30 5945 H 577.127 -3.48226 4.55425 0
M  V30 5946 H 575.524 -3.01188 5.19043 0
M  V30 5947 H 576.594 -1.7706 4.51418 0
M  V30 5948 N 577.937 -1.40673 -0.710563 0
M  V30 5949 C 578.887 -1.37812 -1.81636 0
M  V30 5950 C 579.871 -0.254853 -1.58869 0
M  V30 5951 O 581.063 -0.494356 -1.69956 0
M  V30 5952 C 578.192 -1.24802 -3.19811 0
M  V30 5953 C 577.278 -2.41931 -3.48325 0
M  V30 5954 N 577.669 -3.67411 -3.47625 0
M  V30 5955 C 575.967 -2.35419 -3.78806 0
M  V30 5956 C 576.668 -4.45008 -3.74623 0
M  V30 5957 N 575.644 -3.74916 -3.93623 0
M  V30 5958 H 579.446 -2.32766 -1.79436 0
M  V30 5959 H 576.96 -1.34516 -0.909909 0
M  V30 5960 H 578.957 -1.20835 -3.99004 0
M  V30 5961 H 577.617 -0.308202 -3.23234 0
M  V30 5962 H 578.628 -4.00503 -3.28356 0
M  V30 5963 H 575.305 -1.4983 -3.89689 0
M  V30 5964 H 576.695 -5.53884 -3.80344 0
M  V30 5965 N 579.415 0.9433 -1.26252 0
M  V30 5966 C 580.363 2.06302 -1.07434 0
M  V30 5967 C 581.357 1.694 -0.00189471 0
M  V30 5968 O 582.563 1.79302 -0.158408 0
M  V30 5969 H 578.938 0.675453 -0.330556 0
M  V30 5970 H 580.909 2.19326 -2.02333 0
M  V30 5971 C 579.658 3.40125 -0.721817 0
M  V30 5972 H 578.981 3.68996 -1.5389 0
M  V30 5973 H 580.421 4.19295 -0.629922 0
M  V30 5974 C 578.88 3.31993 0.572902 0
M  V30 5975 O 579.41 3.67945 1.61182 0
M  V30 5976 N 577.616 2.85099 0.562748 0
M  V30 5977 H 577.163 2.5604 -0.283092 0
M  V30 5978 H 577.121 2.80041 1.42915 0
M  V30 5979 N 580.893 1.08022 1.14757 0
M  V30 5980 C 581.826 0.650738 2.18725 0
M  V30 5981 C 582.804 -0.335496 1.59101 0
M  V30 5982 O 583.988 -0.240295 1.86962 0
M  V30 5983 C 581.115 -0.0434377 3.38672 0
M  V30 5984 C 580.161 0.90232 4.16846 0
M  V30 5985 S 580.994 2.40693 4.78359 0
M  V30 5986 C 582.15 1.72475 6.01667 0
M  V30 5987 H 582.383 1.53152 2.54817 0
M  V30 5988 H 579.916 0.894823 1.25826 0
M  V30 5989 H 581.874 -0.437684 4.0816 0
M  V30 5990 H 580.535 -0.900659 3.0091 0
M  V30 5991 H 579.728 0.363445 5.02688 0
M  V30 5992 H 579.33 1.23728 3.52941 0
M  V30 5993 H 581.622 1.0404 6.69464 0
M  V30 5994 H 582.565 2.56175 6.60136 0
M  V30 5995 H 582.973 1.19979 5.51602 0
M  V30 5996 N 582.371 -1.3172 0.865308 0
M  V30 5997 C 583.619 -1.96487 0.472995 0
M  V30 5998 C 583.94 -1.68761 -0.976975 0
M  V30 5999 O 583.21 -1.00051 -1.68424 0
M  V30 6000 H 581.79 -0.726947 0.171922 0
M  V30 6001 H 584.452 -1.60612 1.10407 0
M  V30 6002 H 583.548 -3.0574 0.62687 0
M  V30 6003 N 583.85 -0.624285 -1.44708 0
M  V30 6004 C 585.098 -0.125802 -2.01708 0
M  V30 6005 C 585.418 1.2543 -1.49306 0
M  V30 6006 O 584.689 1.83198 -0.693924 0
M  V30 6007 H 583.269 -0.0435161 -0.745731 0
M  V30 6008 H 585.931 -0.809446 -1.77296 0
M  V30 6009 H 585.027 -0.0882734 -3.11975 0
M  V30 6010 N 585.328 1.53329 -0.364422 0
M  V30 6011 C 586.605 1.93557 0.281962 0
M  V30 6012 C 586.985 1.29786 1.6649 0
M  V30 6013 O 586.333 0.456512 2.23893 0
M  V30 6014 C 586.543 3.47405 0.333331 0
M  V30 6015 C 587.891 4.20699 0.574231 0
M  V30 6016 O 588.915 3.53779 0.414588 0
M  V30 6017 O 587.774 5.39287 0.885002 0
M  V30 6018 H 584.868 0.809573 0.168881 0
M  V30 6019 H 587.414 1.64494 -0.417121 0
M  V30 6020 H 586.186 3.86091 -0.636326 0
M  V30 6021 H 585.809 3.82697 1.07836 0
M  V30 6022 N 586.806 0.0935595 1.57322 0
M  V30 6023 C 588.217 -0.435807 1.81542 0
M  V30 6024 C 588.568 -1.68263 1.00907 0
M  V30 6025 O 587.693 -2.15087 0.237983 0
M  V30 6026 C 588.288 -0.797436 3.29282 0
M  V30 6027 C 586.847 -1.27155 3.54272 0
M  V30 6028 C 585.994 -0.267455 2.76007 0
M  V30 6029 H 588.945 0.31902 1.5546 0
M  V30 6030 H 588.966 -1.6571 3.42521 0
M  V30 6031 H 588.478 0.110206 3.87943 0
M  V30 6032 H 586.579 -2.19696 3.00939 0
M  V30 6033 H 586.692 -1.23445 4.62923 0
M  V30 6034 H 585.056 -0.749282 2.43429 0
M  V30 6035 H 585.839 0.632839 3.37417 0
M  V30 6036 N 588.284 -1.56567 -0.180126 0
M  V30 6037 C 589.533 -1.80685 -0.896426 0
M  V30 6038 C 589.846 -0.669335 -1.83791 0
M  V30 6039 O 591.052 -0.795209 -2.59593 0
M  V30 6040 C 589.508 -3.20132 -1.6445 0
M  V30 6041 C 589.116 -4.41727 -0.747088 0
M  V30 6042 C 590.86 -3.53549 -2.34955 0
M  V30 6043 C 588.767 -5.72195 -1.49489 0
M  V30 6044 H 587.697 -0.673758 -0.338477 0
M  V30 6045 H 590.348 -1.8289 -0.149467 0
M  V30 6046 H 588.73 -3.12218 -2.43589 0
M  V30 6047 H 589.904 -4.608 0.00671129 0
M  V30 6048 H 588.219 -4.16122 -0.152134 0
M  V30 6049 H 590.816 -4.48267 -2.91481 0
M  V30 6050 H 591.159 -2.78006 -3.09868 0
M  V30 6051 H 591.692 -3.62976 -1.62768 0
M  V30 6052 H 588.431 -6.50743 -0.788251 0
M  V30 6053 H 587.951 -5.57115 -2.22224 0
M  V30 6054 H 589.63 -6.1384 -2.04472 0
M  V30 6055 N 589.762 0.448376 -1.51087 0
M  V30 6056 C 590.99 1.22143 -1.66999 0
M  V30 6057 C 591.405 1.85283 -0.362699 0
M  V30 6058 O 590.762 1.70236 0.65772 0
M  V30 6059 C 590.813 2.31357 -2.7777 0
M  V30 6060 O 590.534 1.70801 -4.03434 0
M  V30 6061 C 592.035 3.21836 -3.04855 0
M  V30 6062 H 589.255 0.368558 -0.560719 0
M  V30 6063 H 591.799 0.532618 -1.97442 0
M  V30 6064 H 589.954 2.95973 -2.49958 0
M  V30 6065 H 590.368 2.42895 -4.64868 0
M  V30 6066 H 591.842 3.94627 -3.85971 0
M  V30 6067 H 592.319 3.81949 -2.16821 0
M  V30 6068 H 592.925 2.62933 -3.34285 0
M  V30 6069 N 591.24 1.41047 0.703093 0
M  V30 6070 C 592.486 1.40207 1.46526 0
M  V30 6071 C 592.819 0.00847763 1.94198 0
M  V30 6072 O 592.094 -0.962437 1.69019 0
M  V30 6073 C 592.377 2.40238 2.6825 0
M  V30 6074 C 592.23 3.88674 2.26391 0
M  V30 6075 C 593.549 2.37627 3.70434 0
M  V30 6076 H 590.668 0.510594 0.531472 0
M  V30 6077 H 593.31 1.72271 0.801422 0
M  V30 6078 H 591.46 2.13026 3.24888 0
M  V30 6079 H 593.132 4.2676 1.75138 0
M  V30 6080 H 591.375 4.03903 1.58255 0
M  V30 6081 H 592.046 4.542 3.13698 0
M  V30 6082 H 594.522 2.61759 3.23452 0
M  V30 6083 H 593.398 3.09645 4.53223 0
M  V30 6084 H 593.659 1.39223 4.19606 0
M  V30 6085 N 592.718 -0.936591 1.26751 0
M  V30 6086 C 593.967 -1.67778 1.11953 0
M  V30 6087 C 594.28 -1.92694 -0.33589 0
M  V30 6088 O 595.486 -2.64682 -0.604618 0
M  V30 6089 C 593.942 -3.02138 1.95551 0
M  V30 6090 C 593.55 -2.84953 3.45696 0
M  V30 6091 C 595.294 -3.79917 1.89377 0
M  V30 6092 C 593.201 -4.14814 4.21525 0
M  V30 6093 H 592.131 -0.629275 0.415366 0
M  V30 6094 H 594.782 -1.04122 1.51099 0
M  V30 6095 H 593.164 -3.668 1.49243 0
M  V30 6096 H 594.338 -2.29112 3.99805 0
M  V30 6097 H 592.653 -2.20612 3.53156 0
M  V30 6098 H 595.25 -4.76134 2.43312 0
M  V30 6099 H 595.593 -4.07204 0.865464 0
M  V30 6100 H 596.126 -3.22037 2.33532 0
M  V30 6101 H 592.865 -3.92709 5.24843 0
M  V30 6102 H 592.385 -4.70352 3.72195 0
M  V30 6103 H 594.064 -4.83239 4.3022 0
M  V30 6104 N 594.196 -1.08629 -1.14182 0
M  V30 6105 C 595.473 -0.73002 -1.81466 0
M  V30 6106 C 595.853 0.785996 -1.95922 0
M  V30 6107 O 595.201 1.70535 -1.52086 0
M  V30 6108 C 595.411 -1.45957 -3.17014 0
M  V30 6109 C 596.759 -1.62008 -3.92477 0
M  V30 6110 O 597.783 -1.42141 -3.26611 0
M  V30 6111 O 596.642 -1.94806 -5.106 0
M  V30 6112 H 593.736 -0.261307 -0.784632 0
M  V30 6113 H 596.282 -1.188 -1.2118 0
M  V30 6114 H 595.054 -2.49221 -3.01669 0
M  V30 6115 H 594.677 -0.993222 -3.84995 0
M  V30 6116 N 595.674 1.31259 -0.872281 0
M  V30 6117 C 596.584 2.32221 -0.333255 0
M  V30 6118 C 597.6 1.6481 0.558013 0
M  V30 6119 O 598.776 1.96212 0.454175 0
M  V30 6120 C 595.841 3.43708 0.454479 0
M  V30 6121 C 594.902 4.26774 -0.465024 0
M  V30 6122 C 594.135 5.32937 0.28521 0
M  V30 6123 O 594.358 5.49968 1.513 0
M  V30 6124 O 593.292 6.00834 -0.358126 0
M  V30 6125 H 597.118 2.80252 -1.17016 0
M  V30 6126 H 594.703 1.352 -0.635724 0
M  V30 6127 H 596.585 4.11656 0.900963 0
M  V30 6128 H 595.26 2.97836 1.26789 0
M  V30 6129 H 594.167 3.61571 -0.960055 0
M  V30 6130 H 595.5 4.76217 -1.2441 0
M  V30 6131 N 597.152 0.631951 1.44375 0
M  V30 6132 C 598.401 0.134214 2.01253 0
M  V30 6133 C 598.714 -1.25171 1.50305 0
M  V30 6134 O 599.92 -1.8435 1.99317 0
M  V30 6135 C 598.376 0.189187 3.59402 0
M  V30 6136 C 597.984 1.57647 4.19346 0
M  V30 6137 C 599.728 -0.252044 4.23751 0
M  V30 6138 C 597.635 1.58651 5.69722 0
M  V30 6139 H 596.565 0.0464101 0.75257 0
M  V30 6140 H 599.216 0.790868 1.65582 0
M  V30 6141 H 597.598 -0.534584 3.92375 0
M  V30 6142 H 598.772 2.32389 3.97909 0
M  V30 6143 H 597.087 1.96186 3.67288 0
M  V30 6144 H 599.684 -0.264084 5.34047 0
M  V30 6145 H 600.027 -1.27951 3.96149 0
M  V30 6146 H 600.56 0.41926 3.95584 0
M  V30 6147 H 597.299 2.59237 6.0206 0
M  V30 6148 H 596.819 0.882039 5.93279 0
M  V30 6149 H 598.498 1.32082 6.33375 0
M  V30 6150 N 598.631 -1.53133 0.372548 0
M  V30 6151 C 600.047 -1.59585 0.02178 0
M  V30 6152 C 600.247 -1.38736 -1.46132 0
M  V30 6153 O 599.303 -1.19599 -2.22379 0
M  V30 6154 C 600.616 -2.9678 0.483959 0
M  V30 6155 C 602.164 -3.09909 0.438775 0
M  V30 6156 C 602.639 -4.49527 0.876876 0
M  V30 6157 N 604.13 -4.55663 0.832214 0
M  V30 6158 C 604.865 -5.61896 1.14281 0
M  V30 6159 N 604.361 -6.75852 1.52303 0
M  V30 6160 N 606.154 -5.51916 1.06515 0
M  V30 6161 H 598.305 -1.64936 1.33827 0
M  V30 6162 H 600.568 -0.773947 0.547458 0
M  V30 6163 H 600.274 -3.17198 1.51915 0
M  V30 6164 H 600.148 -3.7699 -0.125784 0
M  V30 6165 H 602.535 -2.89197 -0.587294 0
M  V30 6166 H 602.616 -2.31691 1.0841 0
M  V30 6167 H 602.26 -4.70979 1.90109 0
M  V30 6168 H 602.19 -5.26186 0.208727 0
M  V30 6169 H 604.681 -3.73844 0.552195 0
M  V30 6170 H 604.994 -7.52862 1.7441 0
M  V30 6171 H 603.339 -6.77226 1.56175 0
M  V30 6172 H 606.53 -4.6177 0.767235 0
M  V30 6173 H 606.703 -6.34609 1.31053 0
M  V30 6174 N 600.109 -0.101901 -1.5727 0
M  V30 6175 C 601.386 0.602832 -1.86079 0
M  V30 6176 C 601.766 1.85912 -1 0
M  V30 6177 O 601.114 2.28379 -0.0742488 0
M  V30 6178 C 601.324 0.911694 -3.36881 0
M  V30 6179 C 602.672 1.2722 -4.05093 0
M  V30 6180 O 603.696 1.0025 -3.41802 0
M  V30 6181 O 602.555 1.7776 -5.16782 0
M  V30 6182 H 599.649 0.302366 -0.769743 0
M  V30 6183 H 602.195 -0.135113 -1.69161 0
M  V30 6184 H 600.967 0.0207256 -3.91295 0
M  V30 6185 H 600.59 1.70538 -3.59169 0
M  V30 6186 N 601.587 1.56661 0.17182 0
M  V30 6187 C 602.517 1.99401 1.21498 0
M  V30 6188 C 603.498 0.869516 1.46197 0
M  V30 6189 O 604.683 1.13556 1.57539 0
M  V30 6190 C 601.813 2.35346 2.55401 0
M  V30 6191 C 600.767 3.5075 2.45272 0
M  V30 6192 C 600.093 3.72437 3.8366 0
M  V30 6193 C 601.393 4.84216 1.95787 0
M  V30 6194 H 603.087 2.86792 0.859699 0
M  V30 6195 H 600.633 1.37977 0.412103 0
M  V30 6196 H 602.586 2.63843 3.2858 0
M  V30 6197 H 601.31 1.44864 2.92715 0
M  V30 6198 H 599.969 3.2238 1.74547 0
M  V30 6199 H 599.617 2.79246 4.18367 0
M  V30 6200 H 599.317 4.50087 3.77751 0
M  V30 6201 H 600.841 4.03334 4.58426 0
M  V30 6202 H 602.255 5.11592 2.5874 0
M  V30 6203 H 600.652 5.65498 2.00827 0
M  V30 6204 H 601.722 4.76243 0.912159 0
M  V30 6205 N 603.065 -0.440357 1.51323 0
M  V30 6206 C 603.995 -1.54174 1.75364 0
M  V30 6207 C 604.976 -1.59039 0.603375 0
M  V30 6208 O 606.161 -1.74815 0.845774 0
M  V30 6209 C 603.291 -2.92277 1.87593 0
M  V30 6210 C 602.245 -3.02274 3.03009 0
M  V30 6211 C 601.571 -4.42327 3.00418 0
M  V30 6212 C 602.871 -2.76634 4.43024 0
M  V30 6213 H 604.565 -1.34307 2.67585 0
M  V30 6214 H 602.111 -0.644678 1.28763 0
M  V30 6215 H 604.064 -3.69284 2.02995 0
M  V30 6216 H 602.788 -3.13369 0.920179 0
M  V30 6217 H 601.447 -2.27706 2.87307 0
M  V30 6218 H 601.095 -4.60382 2.02626 0
M  V30 6219 H 600.795 -4.49946 3.77918 0
M  V30 6220 H 602.319 -5.21312 3.17909 0
M  V30 6221 H 603.733 -3.43376 4.59093 0
M  V30 6222 H 602.13 -2.95666 5.22208 0
M  V30 6223 H 603.2 -1.72262 4.5327 0
M  V30 6224 N 604.543 -1.41418 -0.695603 0
M  V30 6225 C 605.773 -1.43921 -1.48224 0
M  V30 6226 C 606.181 -0.0428855 -1.89151 0
M  V30 6227 O 605.524 0.948138 -1.5734 0
M  V30 6228 C 605.586 -2.28466 -2.77567 0
M  V30 6229 C 605.25 -3.76629 -2.58844 0
M  V30 6230 C 606.247 -4.6879 -2.24793 0
M  V30 6231 C 603.932 -4.2067 -2.74485 0
M  V30 6232 C 605.926 -6.02981 -2.06622 0
M  V30 6233 C 603.613 -5.54926 -2.55931 0
M  V30 6234 C 604.611 -6.45897 -2.2205 0
M  V30 6235 O 604.299 -7.77675 -2.03657 0
M  V30 6236 H 604.031 -0.492252 -0.463318 0
M  V30 6237 H 606.585 -1.86347 -0.863952 0
M  V30 6238 H 604.815 -1.80853 -3.41802 0
M  V30 6239 H 606.504 -2.2267 -3.39371 0
M  V30 6240 H 607.27 -4.36055 -2.12323 0
M  V30 6241 H 603.149 -3.50167 -2.9984 0
M  V30 6242 H 606.693 -6.73951 -1.80099 0
M  V30 6243 H 602.59 -5.8724 -2.67991 0
M  V30 6244 H 603.358 -7.88819 -2.1842 0
M  V30 6245 N 606.021 0.929856 -1.27246 0
M  V30 6246 C 607.27 1.67182 -1.12842 0
M  V30 6247 C 607.583 1.9287 0.325666 0
M  V30 6248 O 608.789 2.64999 0.590572 0
M  V30 6249 C 607.245 3.01097 -1.97151 0
M  V30 6250 C 606.853 2.83115 -3.47203 0
M  V30 6251 C 608.597 3.78907 -1.91389 0
M  V30 6252 C 606.504 4.12573 -4.23719 0
M  V30 6253 H 605.434 0.627064 -0.418697 0
M  V30 6254 H 608.085 1.0332 -1.51649 0
M  V30 6255 H 606.467 3.66004 -1.51186 0
M  V30 6256 H 607.641 2.26989 -4.01015 0
M  V30 6257 H 605.956 2.18736 -3.54321 0
M  V30 6258 H 608.553 4.74837 -2.45834 0
M  V30 6259 H 608.896 4.0674 -0.887047 0
M  V30 6260 H 609.429 3.20794 -2.35237 0
M  V30 6261 H 606.168 3.8992 -5.26918 0
M  V30 6262 H 605.688 4.68371 -3.74685 0
M  V30 6263 H 607.367 4.8095 -4.32777 0
M  V30 6264 N 607.499 1.09233 1.13605 0
M  V30 6265 C 608.747 0.825525 1.84471 0
M  V30 6266 C 609.068 -0.650702 1.83823 0
M  V30 6267 O 608.338 -1.47204 1.29259 0
M  V30 6268 H 606.918 0.3024 0.683054 0
M  V30 6269 H 609.58 1.38006 1.37624 0
M  V30 6270 H 608.676 1.17727 2.89045 0
M  V30 6271 N 608.977 -1.30795 0.87923 0
M  V30 6272 C 609.924 -2.28282 0.339968 0
M  V30 6273 C 610.894 -1.56134 -0.566685 0
M  V30 6274 O 612.079 -1.84231 -0.496338 0
M  V30 6275 C 609.219 -3.42225 -0.444501 0
M  V30 6276 C 608.332 -4.29204 0.490717 0
M  V30 6277 C 607.467 -5.30302 -0.308784 0
M  V30 6278 C 606.506 -6.08929 0.622272 0
M  V30 6279 N 605.643 -7.01957 -0.14155 0
M  V30 6280 H 610.483 -2.73794 1.17647 0
M  V30 6281 H 608.02 -1.34682 0.591527 0
M  V30 6282 H 609.978 -4.07038 -0.915186 0
M  V30 6283 H 608.608 -2.97799 -1.24562 0
M  V30 6284 H 607.66 -3.6475 1.07988 0
M  V30 6285 H 608.972 -4.84045 1.20425 0
M  V30 6286 H 608.126 -6.00835 -0.841575 0
M  V30 6287 H 606.865 -4.7614 -1.05556 0
M  V30 6288 H 605.87 -5.37278 1.16674 0
M  V30 6289 H 607.095 -6.65178 1.36804 0
M  V30 6290 H 605.041 -6.50192 -0.870966 0
M  V30 6291 H 604.958 -7.54261 0.51246 0
M  V30 6292 H 606.226 -7.76741 -0.655271 0
M  V30 6293 N 610.455 -0.639598 -1.44038 0
M  V30 6294 C 611.732 -0.078012 -1.95444 0
M  V30 6295 C 612.112 1.39847 -1.58133 0
M  V30 6296 O 611.46 2.11714 -0.859614 0
M  V30 6297 C 611.67 -0.309832 -3.47622 0
M  V30 6298 C 613.018 -0.207521 -4.24093 0
M  V30 6299 O 614.042 -0.241653 -3.55379 0
M  V30 6300 O 612.901 -0.119641 -5.46369 0
M  V30 6301 H 609.995 0.0174534 -0.826816 0
M  V30 6302 H 612.541 -0.711891 -1.54046 0
M  V30 6303 H 611.313 -1.33401 -3.67858 0
M  V30 6304 H 610.936 0.357777 -3.95987 0
M  V30 6305 N 611.933 1.52934 -0.380664 0
M  V30 6306 C 613.349 1.59571 -0.0302429 0
M  V30 6307 C 613.549 1.39509 1.45394 0
M  V30 6308 O 612.605 1.20777 2.21741 0
M  V30 6309 C 613.918 2.96519 -0.499691 0
M  V30 6310 C 615.466 3.09672 -0.455204 0
M  V30 6311 C 615.941 4.49056 -0.900703 0
M  V30 6312 N 617.432 4.55215 -0.856367 0
M  V30 6313 C 618.167 5.61282 -1.17259 0
M  V30 6314 N 617.663 6.75035 -1.55885 0
M  V30 6315 N 619.456 5.51343 -1.0944 0
M  V30 6316 H 611.607 1.64224 -1.347 0
M  V30 6317 H 613.87 0.771033 -0.551554 0
M  V30 6318 H 613.576 3.16388 -1.53595 0
M  V30 6319 H 613.45 3.77052 0.105789 0
M  V30 6320 H 615.837 2.89504 0.571949 0
M  V30 6321 H 615.918 2.31113 -1.09638 0
M  V30 6322 H 615.562 4.69964 -1.92604 0
M  V30 6323 H 615.492 5.26068 -0.236629 0
M  V30 6324 H 617.983 3.73546 -0.572013 0
M  V30 6325 H 618.296 7.51926 -1.784 0
M  V30 6326 H 616.641 6.76388 -1.59764 0
M  V30 6327 H 619.832 4.61356 -0.791713 0
M  V30 6328 H 620.005 6.33905 -1.34417 0
M  V30 6329 N 613.412 0.11024 1.57214 0
M  V30 6330 C 614.359 -0.843195 2.14846 0
M  V30 6331 C 615.329 -1.26954 1.07107 0
M  V30 6332 O 616.514 -1.34861 1.34971 0
M  V30 6333 C 613.654 -2.09123 2.74521 0
M  V30 6334 C 612.767 -1.71404 3.96541 0
M  V30 6335 C 611.902 -2.91107 4.44331 0
M  V30 6336 C 610.941 -2.49586 5.58903 0
M  V30 6337 N 610.078 -3.62175 6.01477 0
M  V30 6338 H 614.918 -0.344886 2.95998 0
M  V30 6339 H 612.455 -0.15855 1.46243 0
M  V30 6340 H 614.413 -2.82234 3.07246 0
M  V30 6341 H 613.043 -2.56427 1.96074 0
M  V30 6342 H 612.095 -0.88201 3.70033 0
M  V30 6343 H 613.407 -1.36884 4.7965 0
M  V30 6344 H 612.561 -3.72454 4.78919 0
M  V30 6345 H 611.3 -3.28848 3.60153 0
M  V30 6346 H 610.305 -1.6667 5.23929 0
M  V30 6347 H 611.53 -2.12973 6.4484 0
M  V30 6348 H 609.476 -3.99605 5.20242 0
M  V30 6349 H 609.393 -3.3155 6.79419 0
M  V30 6350 H 610.661 -4.43987 6.407 0
M  V30 6351 N 614.89 -1.56749 -0.16351 0
M  V30 6352 C 615.838 -1.97939 -1.22159 0
M  V30 6353 C 616.832 -0.869288 -1.45395 0
M  V30 6354 O 618.038 -1.05443 -1.45883 0
M  V30 6355 H 614.413 -0.629869 -0.410815 0
M  V30 6356 H 616.384 -2.86115 -0.847381 0
M  V30 6357 C 615.133 -2.36206 -2.55151 0
M  V30 6358 H 614.456 -3.2117 -2.38097 0
M  V30 6359 H 615.896 -2.68863 -3.27854 0
M  V30 6360 C 614.355 -1.20841 -3.14482 0
M  V30 6361 O 614.885 -0.500258 -3.98573 0
M  V30 6362 N 613.091 -0.976943 -2.73686 0
M  V30 6363 H 612.638 -1.55457 -2.05404 0
M  V30 6364 H 612.596 -0.206912 -3.13718 0
M  V30 6365 N 616.368 0.432326 -1.51554 0
M  V30 6366 C 617.779 1.01202 -1.56892 0
M  V30 6367 C 618.13 1.92175 -0.395394 0
M  V30 6368 O 617.255 2.10844 0.487198 0
M  V30 6369 C 617.85 1.84217 -2.8434 0
M  V30 6370 C 616.409 2.37228 -2.92233 0
M  V30 6371 C 615.556 1.16576 -2.51606 0
M  V30 6372 H 618.507 0.213407 -1.57259 0
M  V30 6373 H 618.528 2.69721 -2.68385 0
M  V30 6374 H 618.04 1.17979 -3.69733 0
M  V30 6375 H 616.141 3.06905 -2.11282 0
M  V30 6376 H 616.254 2.69682 -3.95991 0
M  V30 6377 H 614.618 1.51263 -2.04919 0
M  V30 6378 H 615.401 0.519404 -3.39348 0
M  V30 6379 N 617.846 1.41785 0.688094 0
M  V30 6380 C 619.262 1.24419 0.999608 0
M  V30 6381 C 619.462 0.138868 2.01021 0
M  V30 6382 O 618.518 -0.494283 2.47615 0
M  V30 6383 C 619.831 2.59625 1.51709 0
M  V30 6384 C 621.379 2.66869 1.63554 0
M  V30 6385 C 621.854 4.0241 2.18702 0
M  V30 6386 N 623.345 4.04295 2.26053 0
M  V30 6387 C 624.08 5.05977 2.69768 0
M  V30 6388 N 623.576 6.18047 3.13033 0
M  V30 6389 N 625.369 4.93336 2.69398 0
M  V30 6390 H 617.52 2.12392 0.0187427 0
M  V30 6391 H 619.783 0.945347 0.0708673 0
M  V30 6392 H 619.489 3.41297 0.849059 0
M  V30 6393 H 619.363 2.82628 2.49803 0
M  V30 6394 H 621.75 1.8555 2.29467 0
M  V30 6395 H 621.831 2.47668 0.639857 0
M  V30 6396 H 621.475 4.8418 1.53402 0
M  V30 6397 H 621.405 4.18955 3.19037 0
M  V30 6398 H 623.896 3.23383 1.9553 0
M  V30 6399 H 624.209 6.91498 3.45038 0
M  V30 6400 H 622.554 6.21572 3.10923 0
M  V30 6401 H 625.745 4.04865 2.34952 0
M  V30 6402 H 625.918 5.72717 3.03148 0
M  V30 6403 N 619.324 -0.923095 1.27737 0
M  V30 6404 C 620.234 -2.05765 1.12685 0
M  V30 6405 C 621.25 -1.73911 0.0557197 0
M  V30 6406 O 622.426 -1.99674 0.263137 0
M  V30 6407 C 619.491 -3.37804 0.780363 0
M  V30 6408 C 618.552 -3.83326 1.93286 0
M  V30 6409 C 617.785 -5.09064 1.60281 0
M  V30 6410 O 618.008 -5.6809 0.512828 0
M  V30 6411 O 616.942 -5.50071 2.44347 0
M  V30 6412 H 620.768 -2.21378 2.07907 0
M  V30 6413 H 618.353 -1.04299 1.06968 0
M  V30 6414 H 620.235 -4.17097 0.600668 0
M  V30 6415 H 618.91 -3.23387 -0.142291 0
M  V30 6416 H 617.817 -3.049 2.16764 0
M  V30 6417 H 619.15 -4.02292 2.83588 0
M  V30 6418 N 620.802 -1.09834 -1.13024 0
M  V30 6419 C 622.079 -0.749225 -1.80682 0
M  V30 6420 C 622.459 0.765171 -1.96744 0
M  V30 6421 O 621.807 1.68912 -1.53886 0
M  V30 6422 C 622.017 -1.49311 -3.15448 0
M  V30 6423 C 623.365 -1.66162 -3.90737 0
M  V30 6424 O 624.389 -1.45597 -3.25085 0
M  V30 6425 O 623.248 -2.00211 -5.08505 0
M  V30 6426 H 620.342 -0.269614 -0.781817 0
M  V30 6427 H 622.888 -1.20078 -1.19914 0
M  V30 6428 H 621.66 -2.52407 -2.99009 0
M  V30 6429 H 621.283 -1.034 -3.8392 0
M  V30 6430 N 622.28 1.30327 -0.886154 0
M  V30 6431 C 623.51 1.99964 -0.519421 0
M  V30 6432 C 623.918 1.66593 0.89686 0
M  V30 6433 O 623.261 0.899886 1.60149 0
M  V30 6434 C 623.323 3.54187 -0.615795 0
M  V30 6435 C 622.987 4.11078 -1.9966 0
M  V30 6436 C 623.984 4.26985 -2.96614 0
M  V30 6437 C 621.669 4.46429 -2.30231 0
M  V30 6438 C 623.663 4.77456 -4.22273 0
M  V30 6439 C 621.35 4.966 -3.56135 0
M  V30 6440 C 622.348 5.12066 -4.5197 0
M  V30 6441 O 622.036 5.61154 -5.7564 0
M  V30 6442 H 621.768 0.645979 -0.199217 0
M  V30 6443 H 624.322 1.67154 -1.19368 0
M  V30 6444 H 622.552 3.86528 0.115448 0
M  V30 6445 H 624.241 4.05065 -0.26017 0
M  V30 6446 H 625.007 3.99975 -2.74308 0
M  V30 6447 H 620.886 4.33658 -1.56404 0
M  V30 6448 H 624.43 4.89444 -4.97082 0
M  V30 6449 H 620.327 5.23045 -3.78277 0
M  V30 6450 H 621.095 5.79494 -5.78039 0
M  V30 6451 N 623.758 0.647228 1.43697 0
M  V30 6452 C 624.688 -0.0345631 2.33474 0
M  V30 6453 C 625.669 -0.818193 1.4913 0
M  V30 6454 O 626.854 -0.780867 1.77809 0
M  V30 6455 C 623.984 -1.00576 3.32418 0
M  V30 6456 C 622.938 -0.33266 4.26705 0
M  V30 6457 C 622.264 -1.41489 5.1564 0
M  V30 6458 C 623.564 0.771204 5.16575 0
M  V30 6459 H 625.258 0.715163 2.90733 0
M  V30 6460 H 622.804 0.345364 1.39797 0
M  V30 6461 H 624.757 -1.49159 3.94119 0
M  V30 6462 H 623.481 -1.78657 2.73403 0
M  V30 6463 H 622.14 0.13267 3.6636 0
M  V30 6464 H 621.788 -2.18698 4.52968 0
M  V30 6465 H 621.488 -0.969799 5.79542 0
M  V30 6466 H 623.012 -1.9022 5.80214 0
M  V30 6467 H 624.426 0.36779 5.72119 0
M  V30 6468 H 622.823 1.1404 5.89165 0
M  V30 6469 H 623.893 1.63169 4.56622 0
M  V30 6470 N 625.236 -1.5273 0.388769 0
M  V30 6471 C 626.513 -1.93981 -0.251133 0
M  V30 6472 C 626.893 -1.32418 -1.64404 0
M  V30 6473 O 626.241 -0.492074 -2.23139 0
M  V30 6474 C 626.451 -3.47891 -0.27802 0
M  V30 6475 C 627.799 -4.21559 -0.507229 0
M  V30 6476 O 628.823 -3.54394 -0.358252 0
M  V30 6477 O 627.682 -5.40626 -0.799094 0
M  V30 6478 H 624.776 -0.812157 -0.15598 0
M  V30 6479 H 627.322 -1.63809 0.443237 0
M  V30 6480 H 626.094 -3.8503 0.697669 0
M  V30 6481 H 625.717 -3.84364 -1.01733 0
M  V30 6482 N 626.714 -0.118576 -1.57153 0
M  V30 6483 C 627.96 0.540326 -1.95469 0
M  V30 6484 C 628.293 1.66356 -1.00196 0
M  V30 6485 O 627.568 1.94461 -0.039104 0
M  V30 6486 C 627.851 1.07342 -3.43729 0
M  V30 6487 C 627.704 -0.0463732 -4.49776 0
M  V30 6488 C 629.023 1.96442 -3.93826 0
M  V30 6489 H 626.142 0.19494 -0.710751 0
M  V30 6490 H 628.784 -0.19405 -1.89006 0
M  V30 6491 H 626.934 1.69925 -3.49368 0
M  V30 6492 H 628.606 -0.681648 -4.56236 0
M  V30 6493 H 626.849 -0.709574 -4.27957 0
M  V30 6494 H 627.52 0.367856 -5.50773 0
M  V30 6495 H 629.996 1.43731 -3.90488 0
M  V30 6496 H 628.872 2.3066 -4.98084 0
M  V30 6497 H 629.133 2.89077 -3.34495 0
M  V30 6498 N 628.193 1.56834 0.155195 0
M  V30 6499 C 629.423 1.86778 0.883044 0
M  V30 6500 C 629.831 0.703824 1.75622 0
M  V30 6501 O 629.174 -0.33581 1.80605 0
M  V30 6502 C 629.236 3.1133 1.79761 0
M  V30 6503 C 628.9 4.43504 1.10242 0
M  V30 6504 C 629.897 5.17859 0.460204 0
M  V30 6505 C 627.582 4.90233 1.09437 0
M  V30 6506 C 629.576 6.37144 -0.180782 0
M  V30 6507 C 627.263 6.09444 0.449569 0
M  V30 6508 C 628.261 6.82744 -0.186888 0
M  V30 6509 O 627.949 7.99692 -0.821486 0
M  V30 6510 H 627.681 0.62352 0.261149 0
M  V30 6511 H 630.235 2.04813 0.155204 0
M  V30 6512 H 628.465 2.89282 2.56618 0
M  V30 6513 H 630.154 3.27587 2.39669 0
M  V30 6514 H 630.92 4.8283 0.458289 0
M  V30 6515 H 626.799 4.33109 1.57917 0
M  V30 6516 H 630.343 6.94296 -0.678154 0
M  V30 6517 H 626.24 6.43936 0.449123 0
M  V30 6518 H 627.008 8.15306 -0.722337 0
M  V30 6519 N 629.671 -0.424282 1.51781 0
M  V30 6520 C 630.917 -1.17434 1.6534 0
M  V30 6521 C 631.25 -1.90549 0.374806 0
M  V30 6522 O 630.525 -1.84145 -0.626179 0
M  V30 6523 C 630.808 -2.18093 2.86544 0
M  V30 6524 C 630.661 -1.48975 4.24413 0
M  V30 6525 C 631.98 -3.18934 3.03264 0
M  V30 6526 H 629.099 -0.425566 0.601716 0
M  V30 6527 H 631.741 -0.461921 1.84299 0
M  V30 6528 H 629.891 -2.78849 2.7051 0
M  V30 6529 H 631.563 -0.914551 4.52143 0
M  V30 6530 H 629.806 -0.791893 4.26511 0
M  V30 6531 H 630.477 -2.22347 5.05238 0
M  V30 6532 H 632.953 -2.68243 3.18096 0
M  V30 6533 H 631.829 -3.86645 3.89611 0
M  V30 6534 H 632.09 -3.85793 2.15908 0
M  V30 6535 N 631.149 -1.42148 -0.680565 0
M  V30 6536 C 632.396 -1.4231 -1.44063 0
M  V30 6537 C 632.724 -0.037488 -1.94464 0
M  V30 6538 O 631.979 0.953184 -1.70918 0
M  V30 6539 C 632.278 -2.38945 -2.65782 0
M  V30 6540 C 631.944 -3.85455 -2.33956 0
M  V30 6541 C 630.606 -4.25364 -2.24987 0
M  V30 6542 C 632.958 -4.77895 -2.08004 0
M  V30 6543 C 630.286 -5.55701 -1.88184 0
M  V30 6544 C 632.638 -6.08568 -1.72706 0
M  V30 6545 C 631.302 -6.47482 -1.62244 0
M  V30 6546 H 630.572 -0.520748 -0.527164 0
M  V30 6547 H 633.219 -1.7505 -0.776524 0
M  V30 6548 H 631.524 -1.99511 -3.37198 0
M  V30 6549 H 633.221 -2.36336 -3.23954 0
M  V30 6550 H 629.811 -3.53855 -2.41836 0
M  V30 6551 H 633.995 -4.47854 -2.1387 0
M  V30 6552 H 629.251 -5.84718 -1.78648 0
M  V30 6553 H 633.425 -6.79688 -1.5165 0
M  V30 6554 H 631.052 -7.48387 -1.33496 0
M  V30 6555 N 632.627 0.916307 -1.28225 0
M  V30 6556 C 633.875 1.6619 -1.15002 0
M  V30 6557 C 634.196 1.92642 0.302329 0
M  V30 6558 O 633.466 1.54076 1.20985 0
M  V30 6559 H 632.046 0.615964 -0.422608 0
M  V30 6560 H 634.708 1.09963 -1.60917 0
M  V30 6561 H 633.804 2.62533 -1.68769 0
M  V30 6562 N 634.105 1.10431 1.1244 0
M  V30 6563 C 635.351 0.847972 1.84221 0
M  V30 6564 C 635.684 -0.624903 1.83871 0
M  V30 6565 O 634.959 -1.46074 1.28423 0
M  V30 6566 C 635.242 1.39695 3.319 0
M  V30 6567 C 635.095 2.93668 3.40704 0
M  V30 6568 C 636.414 1.03924 4.27654 0
M  V30 6569 H 633.533 0.309502 0.668863 0
M  V30 6570 H 636.175 1.36745 1.31912 0
M  V30 6571 H 634.325 0.955095 3.76577 0
M  V30 6572 H 635.997 3.46379 3.04662 0
M  V30 6573 H 634.24 3.30272 2.81252 0
M  V30 6574 H 634.911 3.27162 4.446 0
M  V30 6575 H 637.387 1.42049 3.91102 0
M  V30 6576 H 636.263 1.45027 5.29394 0
M  V30 6577 H 636.524 -0.051336 4.4207 0
M  V30 6578 N 635.583 -1.29855 0.893053 0
M  V30 6579 C 636.831 -1.9544 0.514566 0
M  V30 6580 C 637.152 -1.70795 -0.940959 0
M  V30 6581 O 636.422 -1.03601 -1.66264 0
M  V30 6582 H 635.002 -0.723137 0.187302 0
M  V30 6583 H 637.664 -1.58234 1.13789 0
M  V30 6584 H 636.76 -3.04341 0.691581 0
M  V30 6585 N 637.061 -0.65484 -1.43351 0
M  V30 6586 C 638.472 -0.248506 -1.85039 0
M  V30 6587 C 638.823 1.20526 -1.54816 0
M  V30 6588 O 637.948 1.92016 -0.99794 0
M  V30 6589 C 638.543 -0.444241 -3.35875 0
M  V30 6590 C 637.102 -0.0922108 -3.76287 0
M  V30 6591 C 636.249 -0.746327 -2.67068 0
M  V30 6592 H 639.2 -0.8584 -1.33481 0
M  V30 6593 H 639.221 0.309762 -3.79237 0
M  V30 6594 H 638.733 -1.50239 -3.5784 0
M  V30 6595 H 636.834 0.96328 -3.59933 0
M  V30 6596 H 636.947 -0.518807 -4.76283 0
M  V30 6597 H 635.311 -0.179416 -2.54067 0
M  V30 6598 H 636.094 -1.80754 -2.91861 0
M  V30 6599 N 638.539 1.52521 -0.396863 0
M  V30 6600 C 639.469 2.29582 0.425941 0
M  V30 6601 C 640.45 1.33281 1.05689 0
M  V30 6602 O 641.635 1.62181 1.06823 0
M  V30 6603 C 638.765 3.10821 1.54943 0
M  V30 6604 C 637.719 4.15069 1.04413 0
M  V30 6605 C 637.045 4.84578 2.26028 0
M  V30 6606 C 638.345 5.22191 0.106767 0
M  V30 6607 H 640.039 2.98612 -0.217045 0
M  V30 6608 H 637.585 1.43611 -0.105826 0
M  V30 6609 H 639.538 3.63492 2.13193 0
M  V30 6610 H 638.262 2.39538 2.22011 0
M  V30 6611 H 636.921 3.63389 0.484118 0
M  V30 6612 H 636.569 4.09835 2.91623 0
M  V30 6613 H 636.269 5.55043 1.92876 0
M  V30 6614 H 637.793 5.40056 2.84906 0
M  V30 6615 H 639.207 5.70176 0.597685 0
M  V30 6616 H 637.604 5.99947 -0.135352 0
M  V30 6617 H 638.674 4.77531 -0.842134 0
M  V30 6618 N 640.017 0.126909 1.57088 0
M  V30 6619 C 641.263 -0.529952 1.95753 0
M  V30 6620 C 641.596 -1.65823 1.01077 0
M  V30 6621 O 640.871 -1.94437 0.0494162 0
M  V30 6622 C 641.154 -1.05517 3.44294 0
M  V30 6623 C 641.007 0.0702253 4.49745 0
M  V30 6624 C 642.326 -1.9435 3.94862 0
M  V30 6625 H 639.445 -0.191168 0.711775 0
M  V30 6626 H 642.087 0.204071 1.88901 0
M  V30 6627 H 640.237 -1.68069 3.50264 0
M  V30 6628 H 641.909 0.705834 4.55868 0
M  V30 6629 H 640.152 0.732259 4.27575 0
M  V30 6630 H 640.823 -0.338642 5.5096 0
M  V30 6631 H 643.299 -1.41658 3.91244 0
M  V30 6632 H 642.175 -2.28015 4.993 0
M  V30 6633 H 642.436 -2.87299 3.36024 0
M  V30 6634 N 641.495 -1.56914 -0.146875 0
M  V30 6635 C 642.443 -1.99224 -1.20053 0
M  V30 6636 C 643.437 -0.884661 -1.44465 0
M  V30 6637 O 644.643 -1.06984 -1.44756 0
M  V30 6638 H 641.018 -0.634191 -0.404112 0
M  V30 6639 H 642.989 -2.86998 -0.816987 0
M  V30 6640 C 641.738 -2.38899 -2.52632 0
M  V30 6641 H 641.061 -3.23677 -2.34677 0
M  V30 6642 H 642.501 -2.72326 -3.24984 0
M  V30 6643 C 640.96 -1.2417 -3.13183 0
M  V30 6644 O 641.49 -0.542503 -3.9802 0
M  V30 6645 N 639.696 -1.00592 -2.72635 0
M  V30 6646 H 639.243 -1.57627 -2.03744 0
M  V30 6647 H 639.201 -0.240174 -3.13481 0
M  V30 6648 N 642.974 0.416227 -1.52004 0
M  V30 6649 C 643.906 1.52552 -1.71058 0
M  V30 6650 C 644.919 1.51693 -0.59102 0
M  V30 6651 O 646.108 1.56087 -0.865973 0
M  V30 6652 C 643.208 2.91455 -1.72937 0
M  V30 6653 C 642.381 3.16584 -3.01816 0
M  V30 6654 C 641.44 4.35322 -2.95603 0
M  V30 6655 O 640.466 4.32947 -3.6952 0
M  V30 6656 N 641.668 5.40049 -2.12903 0
M  V30 6657 H 644.433 1.36604 -2.66757 0
M  V30 6658 H 641.994 0.60544 -1.50153 0
M  V30 6659 H 643.986 3.68944 -1.66321 0
M  V30 6660 H 642.556 3.00895 -0.847418 0
M  V30 6661 H 641.776 2.27203 -3.22137 0
M  V30 6662 H 643.064 3.30213 -3.87088 0
M  V30 6663 H 642.462 5.44823 -1.52265 0
M  V30 6664 H 641.019 6.16308 -2.1215 0
M  V30 6665 N 644.452 1.42507 0.673017 0
M  V30 6666 C 645.698 1.43284 1.43519 0
M  V30 6667 C 646.031 0.049668 1.94136 0
M  V30 6668 O 645.306 -0.926369 1.71022 0
M  V30 6669 C 645.589 2.45874 2.63093 0
M  V30 6670 C 645.442 3.93388 2.18096 0
M  V30 6671 C 646.761 2.45431 3.6531 0
M  V30 6672 H 643.88 0.521752 0.520522 0
M  V30 6673 H 646.522 1.73932 0.764701 0
M  V30 6674 H 644.672 2.19869 3.20296 0
M  V30 6675 H 646.344 4.30379 1.66046 0
M  V30 6676 H 644.587 4.07169 1.49652 0
M  V30 6677 H 645.258 4.60752 3.03993 0
M  V30 6678 H 647.734 2.68561 3.17827 0
M  V30 6679 H 646.61 3.19189 4.46553 0
M  V30 6680 H 646.871 1.48092 4.16559 0
M  V30 6681 N 645.93 -0.909495 1.28709 0
M  V30 6682 C 646.878 -2.03381 1.12866 0
M  V30 6683 C 647.872 -1.69335 0.0468074 0
M  V30 6684 O 649.078 -1.78819 0.205891 0
M  V30 6685 H 645.453 -0.666452 0.348348 0
M  V30 6686 H 647.424 -2.13885 2.08077 0
M  V30 6687 C 646.173 -3.38092 0.811742 0
M  V30 6688 H 645.496 -3.64786 1.63619 0
M  V30 6689 H 646.936 -4.17477 0.740869 0
M  V30 6690 C 645.395 -3.33395 -0.484679 0
M  V30 6691 O 645.925 -3.72089 -1.5137 0
M  V30 6692 N 644.131 -2.86491 -0.486961 0
M  V30 6693 H 643.678 -2.55199 0.350877 0
M  V30 6694 H 643.636 -2.83731 -1.3544 0
M  V30 6695 N 647.408 -1.11026 -1.11852 0
M  V30 6696 C 648.657 -0.851249 -1.82857 0
M  V30 6697 C 648.97 0.62514 -1.85341 0
M  V30 6698 O 650.176 1.00026 -2.52403 0
M  V30 6699 C 648.632 -1.47309 -3.28372 0
M  V30 6700 C 648.24 -2.9832 -3.34229 0
M  V30 6701 C 649.984 -1.29373 -4.04306 0
M  V30 6702 C 647.891 -3.53509 -4.74115 0
M  V30 6703 H 646.821 -0.314794 -0.685143 0
M  V30 6704 H 649.472 -1.33499 -1.25898 0
M  V30 6705 H 647.854 -0.917017 -3.85236 0
M  V30 6706 H 649.028 -3.60295 -2.87271 0
M  V30 6707 H 647.343 -3.15482 -2.71772 0
M  V30 6708 H 649.94 -1.68042 -5.07608 0
M  V30 6709 H 650.283 -0.235879 -4.15631 0
M  V30 6710 H 650.816 -1.8182 -3.53817 0
M  V30 6711 H 647.555 -4.58987 -4.67986 0
M  V30 6712 H 647.075 -2.96305 -5.21501 0
M  V30 6713 H 648.754 -3.51693 -5.43066 0
M  V30 6714 N 648.886 1.2938 -0.899927 0
M  V30 6715 C 649.834 2.29675 -0.367698 0
M  V30 6716 C 650.828 1.60787 0.533282 0
M  V30 6717 O 652.034 1.75126 0.416058 0
M  V30 6718 H 648.409 0.745284 -0.100279 0
M  V30 6719 H 650.38 2.72008 -1.22696 0
M  V30 6720 C 649.129 3.45512 0.389483 0
M  V30 6721 H 648.452 3.98713 -0.294575 0
M  V30 6722 H 649.892 4.17725 0.726744 0
M  V30 6723 C 648.351 2.969 1.59223 0
M  V30 6724 O 648.881 2.98195 2.69152 0
M  V30 6725 N 647.087 2.52728 1.43447 0
M  V30 6726 H 646.634 2.51873 0.540148 0
M  V30 6727 H 646.592 2.20561 2.24054 0
M  V30 6728 N 650.364 0.662433 1.43002 0
M  V30 6729 C 651.327 -0.0142016 2.29196 0
M  V30 6730 C 652.327 -0.741394 1.42688 0
M  V30 6731 O 653.517 -0.581257 1.64216 0
M  V30 6732 C 650.649 -1.03084 3.24941 0
M  V30 6733 H 651.842 0.7443 2.90517 0
M  V30 6734 H 649.395 0.424133 1.50435 0
M  V30 6735 H 650.13 -1.81826 2.68533 0
M  V30 6736 H 649.915 -0.512946 3.8873 0
M  V30 6737 H 651.405 -1.50308 3.89612 0
M  V30 6738 N 651.842 -1.52309 0.404946 0
M  V30 6739 C 652.772 -2.29805 -0.41376 0
M  V30 6740 C 653.753 -1.3384 -1.0498 0
M  V30 6741 O 654.938 -1.62745 -1.05961 0
M  V30 6742 C 652.068 -3.11639 -1.53292 0
M  V30 6743 C 651.022 -4.15616 -1.02211 0
M  V30 6744 C 650.348 -4.8577 -2.23455 0
M  V30 6745 C 651.648 -5.2224 -0.0790725 0
M  V30 6746 H 653.342 -2.98493 0.232878 0
M  V30 6747 H 650.888 -1.43552 0.113441 0
M  V30 6748 H 652.841 -3.64618 -2.11262 0
M  V30 6749 H 651.565 -2.40712 -2.20738 0
M  V30 6750 H 650.224 -3.63641 -0.46484 0
M  V30 6751 H 649.872 -4.11376 -2.89445 0
M  V30 6752 H 649.572 -5.56058 -1.89929 0
M  V30 6753 H 651.096 -5.4156 -2.82038 0
M  V30 6754 H 652.51 -5.70485 -0.567438 0
M  V30 6755 H 650.907 -5.99867 0.167167 0
M  V30 6756 H 651.977 -4.77078 0.867447 0
M  V30 6757 N 653.32 -0.135238 -1.57019 0
M  V30 6758 C 654.283 0.794707 -2.14981 0
M  V30 6759 C 655.283 1.18342 -1.08866 0
M  V30 6760 O 656.473 1.10627 -1.34563 0
M  V30 6761 C 653.605 2.07685 -2.70333 0
M  V30 6762 H 654.798 0.290696 -2.98488 0
M  V30 6763 H 652.351 0.114128 -1.55883 0
M  V30 6764 H 653.086 2.6248 -1.9046 0
M  V30 6765 H 652.871 1.80745 -3.47957 0
M  V30 6766 H 654.361 2.74127 -3.1503 0
M  V30 6767 N 654.798 1.5699 0.138552 0
M  V30 6768 C 656.023 1.88344 0.86841 0
M  V30 6769 C 656.448 0.725159 1.7356 0
M  V30 6770 O 655.806 -0.324992 1.78363 0
M  V30 6771 C 655.854 3.18334 1.69398 0
M  V30 6772 O 654.958 3.02863 2.79907 0
M  V30 6773 H 654.299 0.618577 0.241367 0
M  V30 6774 H 656.829 2.04207 0.126826 0
M  V30 6775 H 656.839 3.50567 2.08726 0
M  V30 6776 H 655.514 4.02238 1.05725 0
M  V30 6777 H 654.091 2.82056 2.43924 0
M  V30 6778 N 656.276 -0.40816 1.52223 0
M  V30 6779 C 657.223 -1.49737 1.75635 0
M  V30 6780 C 658.193 -1.5493 0.598824 0
M  V30 6781 O 659.378 -1.71487 0.83648 0
M  V30 6782 C 656.518 -2.87174 1.91376 0
M  V30 6783 C 655.631 -2.91283 3.19027 0
M  V30 6784 C 654.766 -4.20026 3.25195 0
M  V30 6785 C 653.805 -4.18113 4.47044 0
M  V30 6786 N 652.942 -5.38429 4.50598 0
M  V30 6787 H 657.782 -1.29075 2.68596 0
M  V30 6788 H 655.319 -0.626518 1.33091 0
M  V30 6789 H 657.277 -3.66959 1.98486 0
M  V30 6790 H 655.907 -3.06329 1.01795 0
M  V30 6791 H 654.959 -2.03984 3.21084 0
M  V30 6792 H 656.271 -2.85734 4.08849 0
M  V30 6793 H 655.425 -5.08204 3.31382 0
M  V30 6794 H 654.164 -4.28271 2.33313 0
M  V30 6795 H 653.169 -3.28325 4.41002 0
M  V30 6796 H 654.394 -4.11507 5.40221 0
M  V30 6797 H 652.34 -5.4734 3.616 0
M  V30 6798 H 652.257 -5.34879 5.34266 0
M  V30 6799 H 653.525 -6.28557 4.61016 0
M  V30 6800 N 657.755 -1.42862 -0.66545 0
M  V30 6801 C 658.702 -1.4707 -1.77874 0
M  V30 6802 C 659.672 -0.321654 -1.62956 0
M  V30 6803 O 660.857 -0.52707 -1.83376 0
M  V30 6804 C 657.997 -1.38788 -3.15962 0
M  V30 6805 C 657.11 -2.63801 -3.42101 0
M  V30 6806 C 656.245 -2.47594 -4.69969 0
M  V30 6807 C 655.284 -3.67936 -4.89172 0
M  V30 6808 N 654.421 -3.50614 -6.08288 0
M  V30 6809 H 659.261 -2.42204 -1.73613 0
M  V30 6810 H 656.798 -1.20239 -0.847401 0
M  V30 6811 H 658.756 -1.31982 -3.95773 0
M  V30 6812 H 657.386 -0.472431 -3.19324 0
M  V30 6813 H 656.438 -2.80935 -2.56475 0
M  V30 6814 H 657.75 -3.53228 -3.52181 0
M  V30 6815 H 656.904 -2.38427 -5.57886 0
M  V30 6816 H 655.643 -1.55672 -4.62188 0
M  V30 6817 H 654.648 -3.77525 -3.99694 0
M  V30 6818 H 655.873 -4.60851 -4.98792 0
M  V30 6819 H 653.819 -2.61417 -6.01662 0
M  V30 6820 H 653.736 -4.33634 -6.19272 0
M  V30 6821 H 655.004 -3.45276 -6.98859 0
M  V30 6822 N 659.233 0.902656 -1.29189 0
M  V30 6823 C 660.51 1.63296 -1.07674 0
M  V30 6824 C 660.89 2.07649 0.380137 0
M  V30 6825 O 660.238 1.82997 1.36837 0
M  V30 6826 C 660.448 2.81603 -2.06158 0
M  V30 6827 C 661.796 3.52359 -2.36914 0
M  V30 6828 O 662.82 2.91767 -2.04329 0
M  V30 6829 O 661.679 4.61586 -2.92576 0
M  V30 6830 H 658.773 0.716889 -0.41231 0
M  V30 6831 H 661.319 0.950984 -1.4055 0
M  V30 6832 H 660.091 2.46004 -3.04299 0
M  V30 6833 H 659.714 3.57508 -1.73993 0
M  V30 6834 N 660.711 1.11618 1.11262 0
M  V30 6835 C 661.659 0.771291 2.1944 0
M  V30 6836 C 662.653 -0.238073 1.67719 0
M  V30 6837 O 663.859 -0.0971628 1.79738 0
M  V30 6838 H 660.234 0.231548 0.715465 0
M  V30 6839 H 662.205 1.69226 2.45775 0
M  V30 6840 C 660.954 0.232765 3.4692 0
M  V30 6841 H 660.277 1.00072 3.87073 0
M  V30 6842 H 661.717 0.0296561 4.2399 0
M  V30 6843 C 660.176 -1.03738 3.20531 0
M  V30 6844 O 660.706 -2.11675 3.41404 0
M  V30 6845 N 658.912 -0.960906 2.74253 0
M  V30 6846 H 658.459 -0.0824323 2.57468 0
M  V30 6847 H 658.417 -1.8114 2.56974 0
M  V30 6848 N 662.189 -1.289 0.906776 0
M  V30 6849 C 663.099 -2.31256 0.394707 0
M  V30 6850 C 664.115 -1.66231 -0.514121 0
M  V30 6851 O 665.291 -1.97347 -0.401994 0
M  V30 6852 C 662.356 -3.44792 -0.363191 0
M  V30 6853 C 661.417 -4.25391 0.578012 0
M  V30 6854 C 660.65 -5.33506 -0.143811 0
M  V30 6855 O 660.873 -5.53786 -1.36665 0
M  V30 6856 O 659.807 -5.99673 0.5173 0
M  V30 6857 H 663.633 -2.77051 1.24405 0
M  V30 6858 H 661.218 -1.33466 0.671346 0
M  V30 6859 H 663.1 -4.139 -0.791503 0
M  V30 6860 H 661.775 -3.01093 -1.18848 0
M  V30 6861 H 660.682 -3.58899 1.05558 0
M  V30 6862 H 662.015 -4.72752 1.36992 0
M  V30 6863 N 663.667 -0.670007 -1.42649 0
M  V30 6864 C 664.599 0.0501746 -2.29145 0
M  V30 6865 C 665.612 0.770331 -1.43422 0
M  V30 6866 O 666.801 0.625288 -1.6719 0
M  V30 6867 C 663.901 1.09463 -3.20735 0
M  V30 6868 C 663.074 0.44926 -4.35087 0
M  V30 6869 C 662.133 1.39285 -5.07431 0
M  V30 6870 O 661.159 0.894997 -5.6212 0
M  V30 6871 N 662.361 2.72631 -5.12496 0
M  V30 6872 H 665.126 -0.692312 -2.91594 0
M  V30 6873 H 662.687 -0.514056 -1.53522 0
M  V30 6874 H 664.679 1.72705 -3.65999 0
M  V30 6875 H 663.249 1.73891 -2.59771 0
M  V30 6876 H 662.469 -0.362573 -3.92529 0
M  V30 6877 H 663.757 -0.000544776 -5.088 0
M  V30 6878 H 663.155 3.15623 -4.69467 0
M  V30 6879 H 661.712 3.31132 -5.61422 0
M  V30 6880 N 665.145 1.52092 -0.413018 0
M  V30 6881 C 666.095 2.23947 0.427993 0
M  V30 6882 C 667.079 1.25229 1.01027 0
M  V30 6883 O 668.271 1.50448 0.932444 0
M  V30 6884 C 665.4 3.0672 1.542 0
M  V30 6885 C 664.486 4.12851 0.970307 0
M  V30 6886 N 664.877 5.05644 0.125611 0
M  V30 6887 C 663.175 4.28404 1.24042 0
M  V30 6888 C 663.876 5.8138 -0.192876 0
M  V30 6889 N 662.852 5.41996 0.417273 0
M  V30 6890 H 666.654 2.93048 -0.223628 0
M  V30 6891 H 664.168 1.60852 -0.223664 0
M  V30 6892 H 666.165 3.56754 2.15714 0
M  V30 6893 H 664.825 2.39159 2.19621 0
M  V30 6894 H 665.836 5.17348 -0.238995 0
M  V30 6895 H 662.513 3.72071 1.89391 0
M  V30 6896 H 663.903 6.66129 -0.878762 0
M  V30 6897 N 666.623 0.143563 1.56945 0
M  V30 6898 C 667.869 -0.50916 1.96304 0
M  V30 6899 C 668.202 -1.64741 1.0283 0
M  V30 6900 O 667.477 -1.94374 0.0700361 0
M  V30 6901 C 667.76 -1.0186 3.45393 0
M  V30 6902 C 667.613 0.117923 4.49645 0
M  V30 6903 C 668.932 -1.90151 3.96901 0
M  V30 6904 H 666.051 -0.183608 0.713763 0
M  V30 6905 H 668.693 0.224095 1.88674 0
M  V30 6906 H 666.843 -1.64345 3.52027 0
M  V30 6907 H 668.515 0.754145 4.55094 0
M  V30 6908 H 666.758 0.777568 4.26774 0
M  V30 6909 H 667.429 -0.280187 5.51288 0
M  V30 6910 H 669.905 -1.375 3.92725 0
M  V30 6911 H 668.781 -2.22707 5.0169 0
M  V30 6912 H 669.042 -2.83718 3.39052 0
M  V30 6913 N 668.101 -1.57061 -0.130224 0
M  V30 6914 C 669.348 -1.84257 -0.839972 0
M  V30 6915 C 669.676 -0.726986 -1.80403 0
M  V30 6916 O 668.931 0.282632 -1.93648 0
M  V30 6917 C 669.23 -3.17878 -1.63365 0
M  V30 6918 C 668.896 -4.43475 -0.814891 0
M  V30 6919 C 667.558 -4.77581 -0.589066 0
M  V30 6920 C 669.91 -5.20631 -0.243437 0
M  V30 6921 C 667.238 -5.86292 0.218648 0
M  V30 6922 C 669.59 -6.30192 0.551408 0
M  V30 6923 C 668.254 -6.62837 0.787653 0
M  V30 6924 H 667.524 -0.674245 -0.307367 0
M  V30 6925 H 670.171 -1.91224 -0.102832 0
M  V30 6926 H 668.476 -3.06437 -2.44138 0
M  V30 6927 H 670.173 -3.3614 -2.18658 0
M  V30 6928 H 666.763 -4.16747 -1.00098 0
M  V30 6929 H 670.947 -4.94644 -0.405145 0
M  V30 6930 H 666.203 -6.10017 0.411016 0
M  V30 6931 H 670.377 -6.89165 1.00126 0
M  V30 6932 H 668.004 -7.46908 1.41537 0
M  V30 6933 N 669.579 0.400081 -1.52437 0
M  V30 6934 C 670.526 1.48803 -1.76426 0
M  V30 6935 C 671.496 1.5461 -0.607032 0
M  V30 6936 O 672.681 1.71041 -0.845563 0
M  V30 6937 C 669.821 2.86156 -1.92896 0
M  V30 6938 C 668.934 2.89587 -3.20567 0
M  V30 6939 C 668.069 4.18296 -3.27417 0
M  V30 6940 C 667.108 4.15736 -4.49255 0
M  V30 6941 N 666.245 5.36032 -4.53447 0
M  V30 6942 H 671.085 1.27649 -2.69276 0
M  V30 6943 H 668.622 0.619451 -1.33421 0
M  V30 6944 H 670.58 3.65901 -2.00429 0
M  V30 6945 H 669.21 3.05785 -1.03418 0
M  V30 6946 H 668.262 2.02278 -3.22161 0
M  V30 6947 H 669.574 2.83562 -4.10358 0
M  V30 6948 H 668.728 5.06439 -3.34072 0
M  V30 6949 H 667.467 4.27028 -2.35581 0
M  V30 6950 H 666.472 3.25982 -4.42737 0
M  V30 6951 H 667.697 4.08636 -5.42396 0
M  V30 6952 H 665.643 5.45415 -3.64498 0
M  V30 6953 H 665.56 5.32038 -5.37096 0
M  V30 6954 H 666.828 6.26104 -4.64343 0
M  V30 6955 N 671.057 1.43213 0.657864 0
M  V30 6956 C 672.303 1.44798 1.41991 0
M  V30 6957 C 672.636 0.070256 1.94073 0
M  V30 6958 O 671.911 -0.908177 1.71995 0
M  V30 6959 C 672.194 2.4865 2.60471 0
M  V30 6960 C 672.047 3.95679 2.13911 0
M  V30 6961 C 673.366 2.49292 3.62686 0
M  V30 6962 H 670.485 0.527244 0.514959 0
M  V30 6963 H 673.127 1.74733 0.74621 0
M  V30 6964 H 671.277 2.23254 3.17946 0
M  V30 6965 H 672.949 4.32116 1.61472 0
M  V30 6966 H 671.192 4.08733 1.45325 0
M  V30 6967 H 671.863 4.6395 2.99089 0
M  V30 6968 H 674.339 2.71917 3.14961 0
M  V30 6969 H 673.215 3.23907 4.43143 0
M  V30 6970 H 673.476 1.52502 4.14964 0
M  V30 6971 N 672.536 -0.895792 1.29666 0
M  V30 6972 C 673.483 -2.00035 1.15129 0
M  V30 6973 C 674.453 -1.66043 0.0435819 0
M  V30 6974 O 675.638 -1.89621 0.211811 0
M  V30 6975 C 672.778 -3.34774 0.83787 0
M  V30 6976 C 671.891 -3.81525 2.0264 0
M  V30 6977 C 671.026 -5.04858 1.65201 0
M  V30 6978 C 670.065 -5.43988 2.80612 0
M  V30 6979 N 669.202 -6.58507 2.43544 0
M  V30 6980 H 674.042 -2.11802 2.09628 0
M  V30 6981 H 671.579 -1.03719 1.04311 0
M  V30 6982 H 673.537 -4.12311 0.636824 0
M  V30 6983 H 672.167 -3.22724 -0.0702314 0
M  V30 6984 H 671.219 -2.9999 2.33903 0
M  V30 6985 H 672.531 -4.06472 2.89106 0
M  V30 6986 H 671.685 -5.8999 1.41408 0
M  V30 6987 H 670.424 -4.81759 0.758893 0
M  V30 6988 H 669.429 -4.57388 3.05083 0
M  V30 6989 H 670.654 -5.69066 3.70595 0
M  V30 6990 H 668.6 -6.37004 1.56724 0
M  V30 6991 H 668.517 -6.83269 3.23542 0
M  V30 6992 H 669.785 -7.46897 2.2308 0
M  V30 6993 N 674.014 -1.12206 -1.10668 0
M  V30 6994 C 675.291 -0.787382 -1.79052 0
M  V30 6995 C 675.671 0.723267 -1.98323 0
M  V30 6996 O 675.019 1.6561 -1.57434 0
M  V30 6997 C 675.229 -1.55968 -3.1221 0
M  V30 6998 C 676.577 -1.74413 -3.87125 0
M  V30 6999 O 677.601 -1.5246 -3.21923 0
M  V30 7000 O 676.46 -2.10952 -5.04144 0
M  V30 7001 H 673.554 -0.286137 -0.775922 0
M  V30 7002 H 676.1 -1.22595 -1.1734 0
M  V30 7003 H 674.872 -2.58692 -2.93588 0
M  V30 7004 H 674.495 -1.1152 -3.8164 0
M  V30 7005 N 675.492 1.28418 -0.913599 0
M  V30 7006 C 676.425 2.25557 -0.346328 0
M  V30 7007 C 677.403 1.53038 0.549366 0
M  V30 7008 O 678.587 1.81937 0.493055 0
M  V30 7009 C 675.714 3.34915 0.504961 0
M  V30 7010 C 674.76 4.25257 -0.325334 0
M  V30 7011 S 675.593 5.06718 -1.73198 0
M  V30 7012 C 676.749 6.19569 -0.887988 0
M  V30 7013 H 676.982 2.73325 -1.16965 0
M  V30 7014 H 674.515 1.36855 -0.714841 0
M  V30 7015 H 676.473 3.98376 0.990301 0
M  V30 7016 H 675.134 2.85814 1.30267 0
M  V30 7017 H 674.327 5.02947 0.325589 0
M  V30 7018 H 673.929 3.66519 -0.744321 0
M  V30 7019 H 676.221 6.77398 -0.117568 0
M  V30 7020 H 677.164 6.88908 -1.63742 0
M  V30 7021 H 677.572 5.62812 -0.436228 0
M  V30 7022 N 676.97 0.677563 1.42291 0
M  V30 7023 C 677.88 0.000962654 2.346 0
M  V30 7024 C 678.896 -0.785833 1.55244 0
M  V30 7025 O 680.072 -0.727523 1.87801 0
M  V30 7026 C 677.137 -0.936746 3.33805 0
M  V30 7027 C 676.198 -0.144173 4.29058 0
M  V30 7028 C 675.431 -1.03722 5.23524 0
M  V30 7029 O 675.654 -2.27675 5.22992 0
M  V30 7030 O 674.588 -0.496542 5.99848 0
M  V30 7031 H 678.414 0.761397 2.94001 0
M  V30 7032 H 675.999 0.43781 1.42841 0
M  V30 7033 H 677.881 -1.47497 3.94744 0
M  V30 7034 H 676.556 -1.67698 2.76874 0
M  V30 7035 H 675.463 0.438224 3.71524 0
M  V30 7036 H 676.796 0.55701 4.89038 0
M  V30 7037 N 678.448 -1.51871 0.421078 0
M  V30 7038 C 679.396 -2.28903 -0.413066 0
M  V30 7039 C 680.39 -1.3408 -1.03532 0
M  V30 7040 O 681.596 -1.5149 -0.972146 0
M  V30 7041 H 677.971 -0.736478 -0.152003 0
M  V30 7042 H 679.942 -2.97285 0.257695 0
M  V30 7043 C 678.691 -3.13156 -1.51091 0
M  V30 7044 H 678.014 -3.85997 -1.04145 0
M  V30 7045 H 679.454 -3.7014 -2.06814 0
M  V30 7046 C 677.913 -2.27482 -2.48503 0
M  V30 7047 O 678.443 -1.92325 -3.52667 0
M  V30 7048 N 676.649 -1.91019 -2.18998 0
M  V30 7049 H 676.196 -2.19808 -1.34322 0
M  V30 7050 H 676.154 -1.3399 -2.84419 0
M  V30 7051 N 679.926 -0.151884 -1.56866 0
M  V30 7052 C 680.856 0.781943 -2.20018 0
M  V30 7053 C 681.837 1.25347 -1.14987 0
M  V30 7054 O 683.022 1.31015 -1.43348 0
M  V30 7055 C 680.152 2.01928 -2.82564 0
M  V30 7056 C 679.106 1.68434 -3.93464 0
M  V30 7057 C 678.432 2.99472 -4.42968 0
M  V30 7058 C 679.732 0.927244 -5.14003 0
M  V30 7059 H 681.426 0.255607 -2.98307 0
M  V30 7060 H 678.972 0.121502 -1.43486 0
M  V30 7061 H 680.925 2.67741 -3.25411 0
M  V30 7062 H 679.649 2.56943 -2.01614 0
M  V30 7063 H 678.308 1.04998 -3.51242 0
M  V30 7064 H 677.956 3.52488 -3.58834 0
M  V30 7065 H 677.656 2.77823 -5.17772 0
M  V30 7066 H 679.18 3.66348 -4.88489 0
M  V30 7067 H 680.594 1.48756 -5.53665 0
M  V30 7068 H 678.991 0.810513 -5.94601 0
M  V30 7069 H 680.061 -0.0801163 -4.84834 0
M  V30 7070 N 681.404 1.57128 0.121893 0
M  V30 7071 C 682.314 2.03425 1.16857 0
M  V30 7072 C 683.33 0.954108 1.45509 0
M  V30 7073 O 684.506 1.26541 1.56682 0
M  V30 7074 C 681.571 2.42685 2.47599 0
M  V30 7075 C 680.632 3.64767 2.2637 0
M  V30 7076 C 679.865 4.02145 3.50878 0
M  V30 7077 O 680.088 3.39897 4.58068 0
M  V30 7078 O 679.022 4.95262 3.42051 0
M  V30 7079 H 682.848 2.92825 0.80544 0
M  V30 7080 H 680.433 1.45654 0.332477 0
M  V30 7081 H 682.315 2.68684 3.24634 0
M  V30 7082 H 680.99 1.56432 2.83392 0
M  V30 7083 H 679.897 3.43922 1.47203 0
M  V30 7084 H 681.23 4.51716 1.95482 0
M  V30 7085 N 682.882 -0.391992 1.52647 0
M  V30 7086 C 684.159 -1.15136 1.58123 0
M  V30 7087 C 684.539 -2.07786 0.372597 0
M  V30 7088 O 683.887 -2.19374 -0.639304 0
M  V30 7089 C 684.097 -1.91367 2.91856 0
M  V30 7090 C 685.445 -2.46833 3.45483 0
M  V30 7091 O 686.469 -2.01527 2.9371 0
M  V30 7092 O 685.328 -3.29587 4.3593 0
M  V30 7093 H 682.422 -0.526649 0.637629 0
M  V30 7094 H 684.968 -0.397386 1.64982 0
M  V30 7095 H 683.74 -1.23597 3.71268 0
M  V30 7096 H 683.363 -2.73732 2.88369 0
M  V30 7097 N 684.36 -1.4356 -0.65026 0
M  V30 7098 C 685.606 -1.45549 -1.41221 0
M  V30 7099 C 685.939 -0.0805472 -1.94033 0
M  V30 7100 O 685.214 0.899043 -1.72475 0
M  V30 7101 C 685.497 -2.50028 -2.59148 0
M  V30 7102 C 685.35 -3.96808 -2.1181 0
M  V30 7103 C 686.669 -2.51212 -3.61359 0
M  V30 7104 H 683.788 -0.529967 -0.512156 0
M  V30 7105 H 686.43 -1.75127 -0.736933 0
M  V30 7106 H 684.58 -2.24937 -3.16758 0
M  V30 7107 H 686.252 -4.32966 -1.59178 0
M  V30 7108 H 684.495 -4.09498 -1.43156 0
M  V30 7109 H 685.166 -4.6553 -2.96625 0
M  V30 7110 H 687.642 -2.73583 -3.13515 0
M  V30 7111 H 686.518 -3.26252 -4.41419 0
M  V30 7112 H 686.779 -1.54701 -4.1415 0
M  V30 7113 N 685.838 0.888903 -1.30139 0
M  V30 7114 C 687.085 1.64037 -1.18736 0
M  V30 7115 C 687.413 1.92771 0.258801 0
M  V30 7116 O 686.668 1.54427 1.20212 0
M  V30 7117 C 686.967 2.99041 -1.95728 0
M  V30 7118 C 686.633 2.89874 -3.45375 0
M  V30 7119 C 685.295 2.87082 -3.86183 0
M  V30 7120 C 687.647 2.78289 -4.40687 0
M  V30 7121 C 684.975 2.70536 -5.20603 0
M  V30 7122 C 687.327 2.63282 -5.75209 0
M  V30 7123 C 685.991 2.58861 -6.15262 0
M  V30 7124 H 685.261 0.600253 -0.434485 0
M  V30 7125 H 687.908 1.0338 -1.61198 0
M  V30 7126 H 686.213 3.63626 -1.45888 0
M  V30 7127 H 687.91 3.56139 -1.843 0
M  V30 7128 H 684.5 2.92856 -3.12943 0
M  V30 7129 H 688.684 2.79516 -4.10103 0
M  V30 7130 H 683.94 2.65526 -5.50732 0
M  V30 7131 H 688.114 2.5329 -6.48704 0
M  V30 7132 H 685.741 2.45799 -7.19366 0
M  V30 7133 N 687.317 1.12792 1.10072 0
M  V30 7134 C 688.547 0.907189 1.85617 0
M  V30 7135 C 688.955 -0.547181 1.81115 0
M  V30 7136 O 688.298 -1.39024 1.20075 0
M  V30 7137 C 688.36 1.30872 3.34832 0
M  V30 7138 C 688.024 2.77516 3.6309 0
M  V30 7139 C 689.021 3.75696 3.59373 0
M  V30 7140 C 686.706 3.14513 3.91646 0
M  V30 7141 C 688.7 5.08888 3.83812 0
M  V30 7142 C 686.387 4.47886 4.15742 0
M  V30 7143 C 687.385 5.44882 4.11816 0
M  V30 7144 O 687.073 6.7585 4.35295 0
M  V30 7145 H 686.805 0.323855 0.593375 0
M  V30 7146 H 689.359 1.50262 1.40038 0
M  V30 7147 H 687.589 0.656518 3.81086 0
M  V30 7148 H 689.278 1.06153 3.91773 0
M  V30 7149 H 690.044 3.48458 3.37345 0
M  V30 7150 H 685.923 2.39622 3.93831 0
M  V30 7151 H 689.467 5.84586 3.80663 0
M  V30 7152 H 685.364 4.74851 4.37249 0
M  V30 7153 H 686.132 6.81853 4.52791 0
M  V30 7154 N 688.795 -1.27931 0.920396 0
M  V30 7155 C 689.727 -2.26175 0.371169 0
M  V30 7156 C 690.74 -1.55122 -0.494065 0
M  V30 7157 O 691.929 -1.75825 -0.30787 0
M  V30 7158 C 689.029 -3.35376 -0.487481 0
M  V30 7159 C 688.202 -4.35943 0.356772 0
M  V30 7160 C 687.261 -5.24374 -0.438042 0
M  V30 7161 O 686.287 -5.68998 0.151715 0
M  V30 7162 N 687.489 -5.53823 -1.73956 0
M  V30 7163 H 690.254 -2.73938 1.21564 0
M  V30 7164 H 687.815 -1.41482 0.787047 0
M  V30 7165 H 689.807 -3.91476 -1.02609 0
M  V30 7166 H 688.377 -2.87269 -1.23269 0
M  V30 7167 H 687.597 -3.7921 1.07672 0
M  V30 7168 H 688.885 -5.0015 0.934206 0
M  V30 7169 H 688.283 -5.19413 -2.24114 0
M  V30 7170 H 686.84 -6.12653 -2.22486 0
M  V30 7171 N 690.273 -0.685099 -1.4193 0
M  V30 7172 C 691.206 0.0371639 -2.2817 0
M  V30 7173 C 692.184 0.798436 -1.41647 0
M  V30 7174 O 693.368 0.791428 -1.71081 0
M  V30 7175 C 690.495 1.05993 -3.21688 0
M  V30 7176 C 689.541 0.393043 -4.24685 0
M  V30 7177 S 690.374 -0.856921 -5.28599 0
M  V30 7178 C 691.53 0.164508 -6.25684 0
M  V30 7179 H 691.763 -0.694305 -2.89079 0
M  V30 7180 H 689.296 -0.474999 -1.46912 0
M  V30 7181 H 691.254 1.64489 -3.76103 0
M  V30 7182 H 689.915 1.7639 -2.59895 0
M  V30 7183 H 689.108 1.16513 -4.90348 0
M  V30 7184 H 688.71 -0.118589 -3.73812 0
M  V30 7185 H 691.002 1.02106 -6.69762 0
M  V30 7186 H 691.945 -0.457917 -7.06618 0
M  V30 7187 H 692.353 0.514596 -5.6215 0
M  V30 7188 N 691.751 1.51645 -0.429126 0
M  V30 7189 C 693 2.01203 0.141538 0
M  V30 7190 C 693.313 1.31828 1.44502 0
M  V30 7191 O 694.519 1.7231 2.09813 0
M  V30 7192 C 692.975 3.58624 0.302786 0
M  V30 7193 C 692.583 4.3693 -0.989775 0
M  V30 7194 C 694.327 4.16353 0.827661 0
M  V30 7195 C 692.234 5.86037 -0.794619 0
M  V30 7196 H 691.164 0.751867 0.05667 0
M  V30 7197 H 693.815 1.74822 -0.557633 0
M  V30 7198 H 692.197 3.81417 1.06476 0
M  V30 7199 H 693.371 4.25887 -1.75945 0
M  V30 7200 H 691.686 3.90614 -1.44256 0
M  V30 7201 H 694.283 5.25455 0.990026 0
M  V30 7202 H 694.626 3.74995 1.80787 0
M  V30 7203 H 695.159 3.97606 0.124213 0
M  V30 7204 H 691.898 6.31792 -1.74697 0
M  V30 7205 H 691.418 5.99765 -0.0645968 0
M  V30 7206 H 693.097 6.45471 -0.444591 0
M  V30 7207 N 693.229 0.160201 1.56784 0
M  V30 7208 C 694.506 -0.533355 1.88188 0
M  V30 7209 C 694.886 -1.82072 1.06831 0
M  V30 7210 O 694.234 -2.27946 0.158959 0
M  V30 7211 C 694.444 -0.786034 3.40033 0
M  V30 7212 C 695.792 -1.12097 4.09536 0
M  V30 7213 O 696.816 -0.874949 3.45287 0
M  V30 7214 O 695.675 -1.58457 5.23023 0
M  V30 7215 H 692.769 -0.273589 0.780434 0
M  V30 7216 H 695.315 0.197803 1.68543 0
M  V30 7217 H 694.087 0.124515 3.91102 0
M  V30 7218 H 693.71 -1.57091 3.65251 0
M  V30 7219 N 694.707 -1.5719 -0.113559 0
M  V30 7220 C 695.617 -2.04041 -1.15777 0
M  V30 7221 C 696.633 -0.961812 -1.45001 0
M  V30 7222 O 697.809 -1.2737 -1.56009 0
M  V30 7223 C 694.874 -2.43994 -2.46308 0
M  V30 7224 C 693.935 -3.65962 -2.24433 0
M  V30 7225 C 693.168 -4.04 -3.4874 0
M  V30 7226 O 693.391 -3.42321 -4.56259 0
M  V30 7227 O 692.325 -4.97069 -3.3942 0
M  V30 7228 H 696.151 -2.93248 -0.789899 0
M  V30 7229 H 693.736 -1.45828 -0.324748 0
M  V30 7230 H 695.618 -2.70401 -3.23204 0
M  V30 7231 H 694.293 -1.57932 -2.82558 0
M  V30 7232 H 693.2 -3.44697 -1.45377 0
M  V30 7233 H 694.533 -4.52746 -1.93084 0
M  V30 7234 N 696.185 0.383891 -1.52853 0
M  V30 7235 C 697.41 1.154 -1.7233 0
M  V30 7236 C 697.835 1.82809 -0.44298 0
M  V30 7237 O 697.193 1.71026 0.601645 0
M  V30 7238 C 697.241 2.17386 -2.87708 0
M  V30 7239 O 696.345 3.24082 -2.55038 0
M  V30 7240 H 695.686 0.335709 -0.572883 0
M  V30 7241 H 698.216 0.44662 -1.99666 0
M  V30 7242 H 698.226 2.61296 -3.1335 0
M  V30 7243 H 696.901 1.6771 -3.80587 0
M  V30 7244 H 695.478 2.85273 -2.40153 0
M  V30 7245 N 697.663 1.43903 0.642637 0
M  V30 7246 C 698.595 1.45857 1.768 0
M  V30 7247 C 699.608 0.353358 1.58919 0
M  V30 7248 O 700.797 0.618426 1.67445 0
M  V30 7249 C 697.897 1.26583 3.14372 0
M  V30 7250 C 697.07 2.50139 3.58817 0
M  V30 7251 C 696.129 2.25933 4.75227 0
M  V30 7252 O 695.155 2.99351 4.84125 0
M  V30 7253 N 696.357 1.28263 5.66153 0
M  V30 7254 H 699.122 2.42869 1.75598 0
M  V30 7255 H 696.683 1.39194 0.826832 0
M  V30 7256 H 698.675 1.08255 3.89953 0
M  V30 7257 H 697.245 0.37978 3.10284 0
M  V30 7258 H 696.465 2.83821 2.73568 0
M  V30 7259 H 697.753 3.32344 3.8526 0
M  V30 7260 H 697.151 0.676041 5.61646 0
M  V30 7261 H 695.708 1.15916 6.4141 0
M  V30 7262 N 699.141 -0.881989 1.30609 0
M  V30 7263 C 700.366 -1.67236 1.22665 0
M  V30 7264 C 700.791 -1.8696 -0.206777 0
M  V30 7265 O 700.149 -1.4027 -1.14865 0
M  V30 7266 C 700.197 -3.02446 1.96363 0
M  V30 7267 O 699.301 -3.91614 1.29276 0
M  V30 7268 H 698.642 -0.510902 0.424117 0
M  V30 7269 H 701.172 -1.10055 1.72479 0
M  V30 7270 H 701.182 -3.52468 2.055 0
M  V30 7271 H 699.857 -2.8741 3.00613 0
M  V30 7272 H 698.434 -3.50055 1.28514 0
M  V30 7273 N 700.619 -1.13374 -1.09472 0
M  V30 7274 C 701.549 -0.833268 -2.18126 0
M  V30 7275 C 702.53 0.207169 -1.68834 0
M  V30 7276 O 703.715 0.0662012 -1.94087 0
M  V30 7277 C 700.845 -0.297979 -3.46019 0
M  V30 7278 C 699.799 -1.27261 -4.08642 0
M  V30 7279 C 699.125 -0.597104 -5.31356 0
M  V30 7280 C 700.425 -2.63095 -4.51197 0
M  V30 7281 H 702.119 -1.74182 -2.43518 0
M  V30 7282 H 699.665 -0.838921 -1.17039 0
M  V30 7283 H 701.618 -0.0754444 -4.21332 0
M  V30 7284 H 700.342 0.645959 -3.20148 0
M  V30 7285 H 699.001 -1.48113 -3.35348 0
M  V30 7286 H 698.649 0.352293 -5.01765 0
M  V30 7287 H 698.349 -1.24734 -5.74208 0
M  V30 7288 H 699.873 -0.38384 -6.09392 0
M  V30 7289 H 701.287 -2.46214 -5.17737 0
M  V30 7290 H 699.684 -3.2429 -5.04932 0
M  V30 7291 H 700.754 -3.20793 -3.6362 0
M  V30 7292 N 702.098 1.27442 -0.927168 0
M  V30 7293 C 703.323 1.99036 -0.583042 0
M  V30 7294 C 703.748 1.68711 0.83176 0
M  V30 7295 O 703.106 0.927081 1.55804 0
M  V30 7296 C 703.154 3.51271 -0.814925 0
M  V30 7297 O 702.258 4.12226 0.119742 0
M  V30 7298 H 701.599 0.624883 -0.224538 0
M  V30 7299 H 704.129 1.62263 -1.24628 0
M  V30 7300 H 704.139 4.01411 -0.730282 0
M  V30 7301 H 702.814 3.72676 -1.84623 0
M  V30 7302 H 701.391 3.72897 -0.0147688 0
M  V30 7303 N 703.576 0.692616 1.41565 0
M  V30 7304 C 704.506 0.0397325 2.33466 0
M  V30 7305 C 705.487 -0.770334 1.51657 0
M  V30 7306 O 706.672 -0.723903 1.80203 0
M  V30 7307 C 703.802 -0.899495 3.3545 0
M  V30 7308 C 702.756 -0.196738 4.27548 0
M  V30 7309 C 702.082 -1.25012 5.19881 0
M  V30 7310 C 703.382 0.935158 5.1386 0
M  V30 7311 H 705.076 0.807296 2.88311 0
M  V30 7312 H 702.622 0.389665 1.38628 0
M  V30 7313 H 704.575 -1.36545 3.98665 0
M  V30 7314 H 703.299 -1.69869 2.78948 0
M  V30 7315 H 701.958 0.249158 3.65752 0
M  V30 7316 H 701.606 -2.04177 4.59696 0
M  V30 7317 H 701.306 -0.784931 5.82334 0
M  V30 7318 H 702.83 -1.71665 5.85972 0
M  V30 7319 H 704.244 0.549619 5.70659 0
M  V30 7320 H 702.641 1.32726 5.85238 0
M  V30 7321 H 703.711 1.77613 4.512 0
M  V30 7322 N 705.054 -1.51416 0.437162 0
M  V30 7323 C 706.294 -2.03995 -0.128538 0
M  V30 7324 C 706.658 -1.31417 -1.39977 0
M  V30 7325 O 707.859 -1.74369 -2.0457 0
M  V30 7326 C 706.13 -3.55757 -0.342317 0
M  V30 7327 S 707.689 -4.3006 -0.871446 0
M  V30 7328 H 704.507 -0.710283 -0.0319322 0
M  V30 7329 H 707.109 -1.86177 0.596526 0
M  V30 7330 H 705.813 -4.06148 0.589233 0
M  V30 7331 H 705.344 -3.77869 -1.09447 0
M  V30 7332 H 707.359 -4.47248 -2.14903 0
M  V30 7333 N 706.532 -0.168513 -1.56696 0
M  V30 7334 C 707.78 0.476216 -1.96409 0
M  V30 7335 C 708.101 1.63968 -1.05544 0
M  V30 7336 O 707.371 1.95525 -0.121235 0
M  V30 7337 H 705.951 0.178921 -0.725256 0
M  V30 7338 H 708.613 -0.249042 -1.93302 0
M  V30 7339 H 707.709 0.838094 -3.00637 0
M  V30 7340 N 708.01 1.57248 0.105221 0
M  V30 7341 C 708.943 1.96567 1.15916 0
M  V30 7342 C 709.921 0.837355 1.39381 0
M  V30 7343 O 711.105 1.09676 1.53308 0
M  V30 7344 C 708.232 2.27375 2.51035 0
M  V30 7345 C 707.278 3.49869 2.43913 0
M  V30 7346 S 708.111 5.01958 1.86543 0
M  V30 7347 C 709.267 5.35932 3.23307 0
M  V30 7348 H 709.5 2.85655 0.823931 0
M  V30 7349 H 707.033 1.51204 0.312515 0
M  V30 7350 H 708.991 2.45801 3.28774 0
M  V30 7351 H 707.652 1.38876 2.81731 0
M  V30 7352 H 706.845 3.68835 3.43477 0
M  V30 7353 H 706.447 3.30901 1.743 0
M  V30 7354 H 708.739 5.31958 4.19556 0
M  V30 7355 H 709.682 6.37047 3.09155 0
M  V30 7356 H 710.09 4.63397 3.22372 0
M  V30 7357 N 709.488 -0.375779 1.53054 0
M  V30 7358 C 710.734 -1.12114 1.68992 0
M  V30 7359 C 711.067 -1.8926 0.435238 0
M  V30 7360 O 710.342 -1.86044 -0.567278 0
M  V30 7361 C 710.625 -2.08867 2.93337 0
M  V30 7362 C 710.478 -1.35397 4.28938 0
M  V30 7363 C 711.797 -3.09124 3.13257 0
M  V30 7364 H 708.916 -0.406207 0.614951 0
M  V30 7365 H 711.558 -0.403054 1.85676 0
M  V30 7366 H 709.708 -2.70102 2.79244 0
M  V30 7367 H 711.38 -0.770242 4.54824 0
M  V30 7368 H 709.623 -0.655801 4.28814 0
M  V30 7369 H 710.294 -2.06161 5.12056 0
M  V30 7370 H 712.77 -2.57987 3.26469 0
M  V30 7371 H 711.646 -3.74054 4.01715 0
M  V30 7372 H 711.907 -3.78729 2.28072 0
M  V30 7373 N 710.966 -1.44241 -0.634997 0
M  V30 7374 C 712.212 -1.48033 -1.39492 0
M  V30 7375 C 712.567 -0.109791 -1.92086 0
M  V30 7376 O 711.86 0.874394 -1.70484 0
M  V30 7377 C 712.054 -2.47279 -2.58046 0
M  V30 7378 C 711.883 -3.93848 -2.17057 0
M  V30 7379 C 710.653 -4.62061 -2.04518 0
M  V30 7380 C 712.851 -4.83172 -1.76208 0
M  V30 7381 N 710.833 -5.93471 -1.57051 0
M  V30 7382 C 712.204 -6.03996 -1.39958 0
M  V30 7383 C 714.259 -4.70271 -1.63554 0
M  V30 7384 C 712.962 -7.13351 -0.923196 0
M  V30 7385 C 714.988 -5.79646 -1.1732 0
M  V30 7386 C 714.35 -6.99609 -0.820181 0
M  V30 7387 H 710.449 -0.596743 -0.505392 0
M  V30 7388 H 713.033 -1.80542 -0.72887 0
M  V30 7389 H 711.204 -2.16766 -3.22284 0
M  V30 7390 H 712.936 -2.41391 -3.24827 0
M  V30 7391 H 709.691 -4.1682 -2.24851 0
M  V30 7392 H 710.115 -6.63275 -1.35628 0
M  V30 7393 H 714.757 -3.77964 -1.8948 0
M  V30 7394 H 712.475 -8.0547 -0.651441 0
M  V30 7395 H 716.061 -5.71689 -1.07993 0
M  V30 7396 H 714.941 -7.82803 -0.467901 0
M  V30 7397 N 712.444 0.87505 -1.31075 0
M  V30 7398 C 713.354 2.01441 -1.20244 0
M  V30 7399 C 714.37 1.73584 -0.120227 0
M  V30 7400 O 715.546 1.98559 -0.337063 0
M  V30 7401 C 712.611 3.34675 -0.905199 0
M  V30 7402 C 711.672 3.75889 -2.0738 0
M  V30 7403 C 710.905 5.02764 -1.79064 0
M  V30 7404 O 711.128 5.65795 -0.723318 0
M  V30 7405 O 710.062 5.40623 -2.64594 0
M  V30 7406 H 713.888 2.13509 -2.1598 0
M  V30 7407 H 711.473 1.00257 -1.10765 0
M  V30 7408 H 713.355 4.1458 -0.755057 0
M  V30 7409 H 712.03 3.23692 0.0221695 0
M  V30 7410 H 710.937 2.96645 -2.27931 0
M  V30 7411 H 712.27 3.91489 -2.98324 0
M  V30 7412 N 713.922 1.13953 1.08869 0
M  V30 7413 C 714.872 0.790812 2.13846 0
M  V30 7414 C 715.856 -0.217819 1.59419 0
M  V30 7415 O 717.048 -0.0208723 1.76988 0
M  V30 7416 C 714.177 0.26479 3.42277 0
M  V30 7417 C 713.263 1.30267 4.03598 0
M  V30 7418 N 713.654 2.50535 4.39393 0
M  V30 7419 C 711.952 1.15178 4.30871 0
M  V30 7420 C 712.653 3.16938 4.87776 0
M  V30 7421 N 711.629 2.44349 4.85587 0
M  V30 7422 H 715.431 1.70577 2.39334 0
M  V30 7423 H 712.945 1.02268 1.26154 0
M  V30 7424 H 714.942 -0.00330398 4.169 0
M  V30 7425 H 713.602 -0.644419 3.18241 0
M  V30 7426 H 714.613 2.87798 4.30572 0
M  V30 7427 H 711.29 0.301204 4.16412 0
M  V30 7428 H 712.68 4.19453 5.2489 0
M  V30 7429 N 715.4 -1.26948 0.933913 0
M  V30 7430 C 716.816 -1.46419 0.635103 0
M  V30 7431 C 717.016 -1.84336 -0.813785 0
M  V30 7432 O 716.072 -1.96061 -1.59111 0
M  V30 7433 C 717.385 -2.55206 1.5903 0
M  V30 7434 C 718.933 -2.69062 1.5992 0
M  V30 7435 C 719.408 -3.81013 2.54152 0
M  V30 7436 N 720.899 -3.88395 2.52395 0
M  V30 7437 C 721.634 -4.74454 3.21996 0
M  V30 7438 N 721.13 -5.64954 4.00997 0
M  V30 7439 N 722.923 -4.68237 3.10983 0
M  V30 7440 H 715.074 -1.00622 1.87053 0
M  V30 7441 H 717.337 -0.503189 0.803433 0
M  V30 7442 H 717.043 -2.34153 2.62422 0
M  V30 7443 H 716.917 -3.52719 1.33677 0
M  V30 7444 H 719.304 -2.89492 0.572569 0
M  V30 7445 H 719.385 -1.72016 1.89325 0
M  V30 7446 H 719.029 -3.61336 3.5693 0
M  V30 7447 H 718.959 -4.77499 2.22041 0
M  V30 7448 H 721.45 -3.23687 1.95025 0
M  V30 7449 H 721.763 -6.27496 4.51074 0
M  V30 7450 H 720.108 -5.6473 4.05099 0
M  V30 7451 H 723.299 -3.96535 2.48753 0
M  V30 7452 H 723.472 -5.35087 3.65494 0
M  V30 7453 N 716.879 -0.700114 -1.41195 0
M  V30 7454 C 717.826 -0.0376652 -2.30769 0
M  V30 7455 C 718.796 0.766544 -1.47354 0
M  V30 7456 O 719.981 0.73365 -1.76131 0
M  V30 7457 C 717.121 0.889452 -3.33441 0
M  V30 7458 C 716.234 0.076373 -4.31932 0
M  V30 7459 C 715.369 1.00155 -5.21673 0
M  V30 7460 C 714.408 0.181644 -6.1183 0
M  V30 7461 N 713.545 1.06087 -6.94039 0
M  V30 7462 H 718.385 -0.80726 -2.86858 0
M  V30 7463 H 715.922 -0.409798 -1.41277 0
M  V30 7464 H 717.88 1.44107 -3.91522 0
M  V30 7465 H 716.51 1.6254 -2.78892 0
M  V30 7466 H 715.562 -0.592223 -3.75762 0
M  V30 7467 H 716.874 -0.559076 -4.95657 0
M  V30 7468 H 716.028 1.62223 -5.8461 0
M  V30 7469 H 714.767 1.67085 -4.58186 0
M  V30 7470 H 713.772 -0.452085 -5.47938 0
M  V30 7471 H 714.997 -0.483925 -6.77374 0
M  V30 7472 H 712.943 1.7161 -6.33156 0
M  V30 7473 H 712.86 0.481094 -7.54468 0
M  V30 7474 H 714.128 1.66822 -7.6144 0
M  V30 7475 N 718.357 1.51182 -0.445186 0
M  V30 7476 C 719.605 2.01753 0.11841 0
M  V30 7477 C 719.926 1.33087 1.42523 0
M  V30 7478 O 719.196 0.467891 1.9023 0
M  V30 7479 H 717.776 0.745536 0.0467492 0
M  V30 7480 H 720.438 1.85765 -0.589688 0
M  V30 7481 H 719.534 3.10762 0.288665 0
M  V30 7482 N 719.835 0.176821 1.56605 0
M  V30 7483 C 721.063 -0.472828 2.01425 0
M  V30 7484 C 721.478 -1.56436 1.05703 0
M  V30 7485 O 720.835 -1.82405 0.058808 0
M  V30 7486 C 720.886 -1.04607 3.46034 0
M  V30 7487 O 720.607 0.00189608 4.381 0
M  V30 7488 C 722.108 -1.7734 4.06282 0
M  V30 7489 H 719.328 -0.120503 0.660091 0
M  V30 7490 H 721.872 0.280166 2.02572 0
M  V30 7491 H 720.027 -1.74953 3.45645 0
M  V30 7492 H 720.441 -0.422118 5.22799 0
M  V30 7493 H 721.915 -2.12703 5.09374 0
M  V30 7494 H 722.392 -2.67043 3.4869 0
M  V30 7495 H 722.998 -1.11623 4.10391 0
M  V30 7496 N 721.313 -1.57302 -0.09688 0
M  V30 7497 C 722.59 -1.7701 -0.832272 0
M  V30 7498 C 722.97 -0.758025 -1.97021 0
M  V30 7499 O 722.318 0.213824 -2.27497 0
M  V30 7500 C 722.528 -3.22725 -1.32851 0
M  V30 7501 C 723.876 -3.85856 -1.772 0
M  V30 7502 O 724.9 -3.26464 -1.42478 0
M  V30 7503 O 723.759 -4.90295 -2.41398 0
M  V30 7504 H 720.853 -0.725558 -0.396856 0
M  V30 7505 H 723.399 -1.69516 -0.0789005 0
M  V30 7506 H 722.171 -3.87921 -0.51312 0
M  V30 7507 H 721.794 -3.34845 -2.14394 0
M  V30 7508 N 722.791 0.367657 -1.53252 0
M  V30 7509 C 724.021 1.12955 -1.72988 0
M  V30 7510 C 724.429 1.8358 -0.457708 0
M  V30 7511 O 723.772 1.74336 0.579006 0
M  V30 7512 C 723.834 2.20545 -2.83902 0
M  V30 7513 C 723.498 1.69704 -4.24323 0
M  V30 7514 C 724.495 1.16223 -5.06743 0
M  V30 7515 C 722.18 1.7528 -4.70725 0
M  V30 7516 C 724.174 0.689935 -6.33655 0
M  V30 7517 C 721.861 1.27662 -5.97617 0
M  V30 7518 C 722.859 0.746083 -6.78913 0
M  V30 7519 O 722.547 0.276925 -8.03423 0
M  V30 7520 H 722.279 0.343753 -0.582074 0
M  V30 7521 H 724.833 0.433106 -2.00782 0
M  V30 7522 H 723.063 2.93676 -2.51577 0
M  V30 7523 H 724.752 2.82111 -2.91836 0
M  V30 7524 H 725.518 1.11256 -4.72067 0
M  V30 7525 H 721.397 2.15515 -4.07522 0
M  V30 7526 H 724.941 0.275164 -6.97057 0
M  V30 7527 H 720.838 1.32322 -6.31792 0
M  V30 7528 H 721.606 0.396445 -8.17539 0
M  V30 7529 N 724.269 1.44576 0.627338 0
M  V30 7530 C 725.219 1.48168 1.73293 0
M  V30 7531 C 726.203 0.347045 1.57113 0
M  V30 7532 O 727.395 0.592605 1.66785 0
M  V30 7533 C 724.524 1.43236 3.11991 0
M  V30 7534 C 723.61 2.61828 3.33627 0
M  V30 7535 N 724.001 3.87053 3.25612 0
M  V30 7536 C 722.299 2.57104 3.64436 0
M  V30 7537 C 723 4.66093 3.48041 0
M  V30 7538 N 721.976 3.97228 3.71095 0
M  V30 7539 H 725.778 2.42832 1.6556 0
M  V30 7540 H 723.292 1.39592 0.829934 0
M  V30 7541 H 725.289 1.43893 3.91281 0
M  V30 7542 H 723.949 0.496133 3.20887 0
M  V30 7543 H 724.96 4.18966 3.04447 0
M  V30 7544 H 721.637 1.72295 3.8029 0
M  V30 7545 H 723.027 5.75117 3.47404 0
M  V30 7546 N 725.747 -0.868086 1.31537 0
M  V30 7547 C 726.694 -1.97548 1.19346 0
M  V30 7548 C 727.664 -1.65913 0.0787922 0
M  V30 7549 O 728.849 -1.89129 0.251985 0
M  V30 7550 C 725.989 -3.32922 0.908692 0
M  V30 7551 C 725.102 -3.77141 2.10687 0
M  V30 7552 C 724.237 -5.01241 1.75873 0
M  V30 7553 C 723.276 -5.37914 2.92088 0
M  V30 7554 N 722.413 -6.53192 2.57457 0
M  V30 7555 H 727.253 -2.07307 2.14074 0
M  V30 7556 H 724.79 -1.01483 1.06487 0
M  V30 7557 H 726.748 -4.10867 0.724138 0
M  V30 7558 H 725.378 -3.228 -0.0017611 0
M  V30 7559 H 724.43 -2.94961 2.40213 0
M  V30 7560 H 725.742 -4.00248 2.97663 0
M  V30 7561 H 724.896 -5.86858 1.53891 0
M  V30 7562 H 723.635 -4.80041 0.86091 0
M  V30 7563 H 722.64 -4.50814 3.14717 0
M  V30 7564 H 723.865 -5.61077 3.82582 0
M  V30 7565 H 721.811 -6.33536 1.702 0
M  V30 7566 H 721.728 -6.76252 3.37963 0
M  V30 7567 H 722.996 -7.41997 2.38873 0
M  V30 7568 N 727.225 -1.14528 -1.08264 0
M  V30 7569 C 728.157 -0.791325 -2.15106 0
M  V30 7570 C 729.17 0.192449 -1.61659 0
M  V30 7571 O 730.359 -0.0294704 -1.78476 0
M  V30 7572 C 727.459 -0.154183 -3.38549 0
M  V30 7573 C 726.632 -1.17305 -4.21377 0
M  V30 7574 C 725.691 -0.559401 -5.23218 0
M  V30 7575 O 724.717 -1.22277 -5.55911 0
M  V30 7576 N 725.919 0.663159 -5.767 0
M  V30 7577 H 728.684 -1.71076 -2.46075 0
M  V30 7578 H 726.245 -1.0399 -1.24087 0
M  V30 7579 H 728.237 0.268884 -4.03806 0
M  V30 7580 H 726.807 0.668418 -3.0537 0
M  V30 7581 H 726.027 -1.773 -3.52077 0
M  V30 7582 H 727.315 -1.86128 -4.73533 0
M  V30 7583 H 726.713 1.22066 -5.52373 0
M  V30 7584 H 725.27 1.02871 -6.43631 0
M  V30 7585 N 728.703 1.26451 -0.940633 0
M  V30 7586 C 730.114 1.75726 -0.630653 0
M  V30 7587 C 730.465 1.76631 0.854167 0
M  V30 7588 O 729.59 1.37807 1.66848 0
M  V30 7589 C 730.185 3.19114 -1.13805 0
M  V30 7590 C 728.744 3.66005 -0.878497 0
M  V30 7591 C 727.891 2.45505 -1.28928 0
M  V30 7592 H 730.842 1.12535 -1.119 0
M  V30 7593 H 730.863 3.77311 -0.491625 0
M  V30 7594 H 730.375 3.18424 -2.21874 0
M  V30 7595 H 728.476 3.72126 0.187833 0
M  V30 7596 H 728.589 4.54844 -1.50512 0
M  V30 7597 H 726.953 2.4467 -0.707713 0
M  V30 7598 H 727.736 2.47516 -2.37888 0
M  V30 7599 N 730.181 0.707592 1.40822 0
M  V30 7600 C 731.427 0.252828 2.01823 0
M  V30 7601 C 731.782 -1.13876 1.55081 0
M  V30 7602 O 731.075 -1.75993 0.757439 0
M  V30 7603 C 731.269 0.262892 3.56432 0
M  V30 7604 C 731.098 1.65392 4.18181 0
M  V30 7605 C 729.868 2.25966 4.5196 0
M  V30 7606 C 732.066 2.60272 4.4358 0
M  V30 7607 N 730.048 3.57508 4.9906 0
M  V30 7608 C 731.419 3.76509 4.92586 0
M  V30 7609 C 733.474 2.58386 4.25607 0
M  V30 7610 C 732.177 4.91157 5.25507 0
M  V30 7611 C 734.203 3.72155 4.59625 0
M  V30 7612 C 733.565 4.87123 5.08813 0
M  V30 7613 H 729.664 0.138172 0.769696 0
M  V30 7614 H 732.248 0.927667 1.7118 0
M  V30 7615 H 730.419 -0.381479 3.86522 0
M  V30 7616 H 732.151 -0.20783 4.04166 0
M  V30 7617 H 728.906 1.78138 4.38821 0
M  V30 7618 H 729.33 4.24968 5.27002 0
M  V30 7619 H 733.972 1.7071 3.86805 0
M  V30 7620 H 731.69 5.79483 5.63227 0
M  V30 7621 H 735.276 3.71961 4.47366 0
M  V30 7622 H 734.156 5.73698 5.3464 0
M  V30 7623 N 731.66 -1.50943 0.453197 0
M  V30 7624 C 732.592 -2.25922 -0.38623 0
M  V30 7625 C 733.605 -1.3055 -0.972652 0
M  V30 7626 O 734.794 -1.56191 -0.864097 0
M  V30 7627 C 731.894 -3.01176 -1.5539 0
M  V30 7628 C 731.067 -4.23768 -1.0835 0
M  V30 7629 C 730.126 -4.81466 -2.12313 0
M  V30 7630 O 729.152 -5.42875 -1.71101 0
M  V30 7631 N 730.354 -4.66889 -3.44956 0
M  V30 7632 H 733.119 -2.98601 0.256468 0
M  V30 7633 H 730.68 -1.59408 0.282965 0
M  V30 7634 H 732.672 -3.36659 -2.24594 0
M  V30 7635 H 731.242 -2.31409 -2.10163 0
M  V30 7636 H 730.462 -3.93597 -0.217961 0
M  V30 7637 H 731.75 -5.03289 -0.746857 0
M  V30 7638 H 731.148 -4.18011 -3.81161 0
M  V30 7639 H 729.705 -5.06691 -4.1001 0
M  V30 7640 N 733.138 -0.185124 -1.56509 0
M  V30 7641 C 734.101 0.72591 -2.17401 0
M  V30 7642 C 735.101 1.14819 -1.12575 0
M  V30 7643 O 736.291 1.0629 -1.38015 0
M  V30 7644 C 733.423 1.98979 -2.76803 0
M  V30 7645 H 734.616 0.195588 -2.99262 0
M  V30 7646 H 732.169 0.0644772 -1.56167 0
M  V30 7647 H 732.904 2.56287 -1.98714 0
M  V30 7648 H 732.689 1.69583 -3.53531 0
M  V30 7649 H 734.179 2.63966 -3.23592 0
M  V30 7650 N 734.616 1.57351 0.0885366 0
M  V30 7651 C 735.563 2.02523 1.10693 0
M  V30 7652 C 736.533 0.902736 1.39427 0
M  V30 7653 O 737.718 1.16921 1.50779 0
M  V30 7654 C 734.858 2.46013 2.42016 0
M  V30 7655 C 733.971 3.7181 2.19957 0
M  V30 7656 C 733.106 4.04152 3.44724 0
M  V30 7657 C 732.145 5.2304 3.17956 0
M  V30 7658 N 731.282 5.51102 4.35007 0
M  V30 7659 H 736.122 2.89302 0.714742 0
M  V30 7660 H 733.659 1.43084 0.341378 0
M  V30 7661 H 735.617 2.69274 3.18665 0
M  V30 7662 H 734.247 1.62235 2.79069 0
M  V30 7663 H 733.299 3.55987 1.34079 0
M  V30 7664 H 734.611 4.58604 1.96173 0
M  V30 7665 H 733.765 4.28225 4.29777 0
M  V30 7666 H 732.504 3.15893 3.71568 0
M  V30 7667 H 731.509 4.98781 2.31296 0
M  V30 7668 H 732.734 6.12902 2.92451 0
M  V30 7669 H 730.68 4.65802 4.61914 0
M  V30 7670 H 730.597 6.3228 4.14437 0
M  V30 7671 H 731.865 5.79714 5.21106 0
M  V30 7672 N 736.094 -0.359525 1.53444 0
M  V30 7673 C 737.343 -1.09886 1.69139 0
M  V30 7674 C 737.656 -1.90285 0.452863 0
M  V30 7675 O 738.862 -2.67033 0.490459 0
M  V30 7676 C 737.318 -2.0028 2.99025 0
M  V30 7677 C 736.926 -1.25164 4.30161 0
M  V30 7678 C 738.67 -2.74168 3.24086 0
M  V30 7679 C 736.577 -2.14494 5.51132 0
M  V30 7680 H 735.507 -0.413936 0.630217 0
M  V30 7681 H 738.158 -0.359434 1.79945 0
M  V30 7682 H 736.54 -2.77978 2.82036 0
M  V30 7683 H 737.714 -0.524867 4.57801 0
M  V30 7684 H 736.029 -0.631116 4.11589 0
M  V30 7685 H 738.626 -3.41243 4.11652 0
M  V30 7686 H 738.969 -3.39868 2.40407 0
M  V30 7687 H 739.502 -2.0355 3.41778 0
M  V30 7688 H 736.241 -1.53362 6.37307 0
M  V30 7689 H 735.761 -2.85004 5.27762 0
M  V30 7690 H 737.44 -2.73914 5.86157 0
M  V30 7691 N 737.572 -1.44907 -0.619662 0
M  V30 7692 C 738.797 -1.52021 -1.41083 0
M  V30 7693 C 739.222 -0.14976 -1.87503 0
M  V30 7694 O 738.58 0.863303 -1.59426 0
M  V30 7695 C 738.628 -2.49911 -2.59955 0
M  V30 7696 O 737.732 -2.00857 -3.60181 0
M  V30 7697 H 737.073 -0.512912 -0.421684 0
M  V30 7698 H 739.603 -1.90149 -0.755282 0
M  V30 7699 H 739.613 -2.68323 -3.07354 0
M  V30 7700 H 738.288 -3.4945 -2.25516 0
M  V30 7701 H 736.865 -1.92265 -3.19513 0
M  V30 7702 N 739.05 0.861098 -1.31996 0
M  V30 7703 C 740.296 1.61721 -1.22369 0
M  V30 7704 C 740.629 1.93 0.215587 0
M  V30 7705 O 739.904 1.56789 1.15098 0
M  V30 7706 C 740.187 2.9417 -2.07691 0
M  V30 7707 C 740.04 2.69714 -3.59965 0
M  V30 7708 C 741.359 3.95372 -1.93312 0
M  V30 7709 H 738.478 0.586822 -0.44588 0
M  V30 7710 H 741.12 0.994788 -1.61876 0
M  V30 7711 H 739.27 3.47292 -1.74128 0
M  V30 7712 H 740.942 2.23196 -4.03709 0
M  V30 7713 H 739.185 2.03789 -3.82952 0
M  V30 7714 H 739.856 3.63996 -4.14983 0
M  V30 7715 H 742.332 3.51487 -2.22701 0
M  V30 7716 H 741.208 4.85916 -2.55298 0
M  V30 7717 H 741.469 4.32865 -0.898922 0
M  V30 7718 N 740.528 1.15101 1.07655 0
M  V30 7719 C 741.777 0.918528 1.79572 0
M  V30 7720 C 742.09 -0.555922 1.87534 0
M  V30 7721 O 743.296 -0.905893 2.55941 0
M  V30 7722 C 741.752 1.59394 3.22679 0
M  V30 7723 C 741.36 3.1052 3.22927 0
M  V30 7724 C 743.104 1.44289 3.99225 0
M  V30 7725 C 741.011 3.70862 4.60668 0
M  V30 7726 H 739.941 0.340006 0.672987 0
M  V30 7727 H 742.592 1.38079 1.20857 0
M  V30 7728 H 740.974 1.05936 3.81567 0
M  V30 7729 H 742.148 3.70708 2.737 0
M  V30 7730 H 740.463 3.25351 2.59876 0
M  V30 7731 H 743.06 1.86766 5.01022 0
M  V30 7732 H 743.403 0.389975 4.14469 0
M  V30 7733 H 743.936 1.94826 3.46825 0
M  V30 7734 H 740.675 4.7604 4.50628 0
M  V30 7735 H 740.195 3.15456 5.10145 0
M  V30 7736 H 741.874 3.71607 5.29639 0
M  V30 7737 N 742.006 -1.2595 0.947325 0
M  V30 7738 C 743.422 -1.45737 0.650597 0
M  V30 7739 C 743.622 -1.85189 -0.794188 0
M  V30 7740 O 742.678 -1.97738 -1.57022 0
M  V30 7741 C 743.991 -2.53505 1.61728 0
M  V30 7742 C 745.539 -2.67351 1.62765 0
M  V30 7743 C 746.014 -3.78296 2.58179 0
M  V30 7744 N 747.505 -3.85696 2.56501 0
M  V30 7745 C 748.24 -4.71012 3.2701 0
M  V30 7746 N 747.736 -5.60669 4.06966 0
M  V30 7747 N 749.529 -4.64912 3.15932 0
M  V30 7748 H 741.68 -0.986327 1.8811 0
M  V30 7749 H 743.943 -0.494639 0.808725 0
M  V30 7750 H 743.649 -2.31357 2.6489 0
M  V30 7751 H 743.523 -3.51281 1.3741 0
M  V30 7752 H 745.91 -2.88869 0.603241 0
M  V30 7753 H 745.991 -1.69998 1.91139 0
M  V30 7754 H 745.635 -3.5753 3.60742 0
M  V30 7755 H 745.565 -4.75117 2.27093 0
M  V30 7756 H 748.056 -3.21601 1.98447 0
M  V30 7757 H 748.369 -6.22677 4.57704 0
M  V30 7758 H 746.714 -5.60402 4.11066 0
M  V30 7759 H 749.905 -3.93874 2.52945 0
M  V30 7760 H 750.078 -5.3118 3.71149 0
M  V30 7761 N 743.484 -0.715051 -1.40445 0
M  V30 7762 C 744.895 -0.326763 -1.83818 0
M  V30 7763 C 745.246 1.13851 -1.59789 0
M  V30 7764 O 744.371 1.87611 -1.07848 0
M  V30 7765 C 744.966 -0.586297 -3.33688 0
M  V30 7766 C 743.525 -0.251724 -3.75557 0
M  V30 7767 C 742.672 -0.858928 -2.63662 0
M  V30 7768 H 745.623 -0.914241 -1.2972 0
M  V30 7769 H 745.644 0.148636 -3.8021 0
M  V30 7770 H 745.156 -1.65281 -3.51146 0
M  V30 7771 H 743.257 0.809754 -3.63695 0
M  V30 7772 H 743.37 -0.720348 -4.73654 0
M  V30 7773 H 741.734 -0.287013 -2.53078 0
M  V30 7774 H 742.517 -1.9297 -2.83932 0
M  V30 7775 N 744.962 1.50701 -0.461195 0
M  V30 7776 C 746.187 2.07171 0.0974773 0
M  V30 7777 C 746.612 1.32391 1.3362 0
M  V30 7778 O 745.97 0.368676 1.77512 0
M  V30 7779 C 746.018 3.58651 0.374409 0
M  V30 7780 O 745.122 3.85816 1.4567 0
M  V30 7781 H 744.463 0.663944 -0.00862047 0
M  V30 7782 H 746.993 1.94021 -0.649394 0
M  V30 7783 H 747.003 4.03295 0.617843 0
M  V30 7784 H 745.678 4.12498 -0.530829 0
M  V30 7785 H 744.255 3.53018 1.20136 0
M  V30 7786 N 746.441 0.193421 1.56409 0
M  V30 7787 C 747.388 -0.728124 2.19014 0
M  V30 7788 C 748.358 -1.21098 1.13686 0
M  V30 7789 O 749.543 -1.27517 1.4193 0
M  V30 7790 C 746.683 -1.94277 2.8522 0
M  V30 7791 C 745.796 -1.50143 4.05069 0
M  V30 7792 C 744.931 -2.67145 4.59137 0
M  V30 7793 C 743.97 -2.19609 5.71348 0
M  V30 7794 N 743.107 -3.29782 6.19829 0
M  V30 7795 H 747.947 -0.187499 2.9741 0
M  V30 7796 H 745.484 -0.0808064 1.46878 0
M  V30 7797 H 747.442 -2.65551 3.21774 0
M  V30 7798 H 746.072 -2.45673 2.09391 0
M  V30 7799 H 745.124 -0.684624 3.74189 0
M  V30 7800 H 746.436 -1.11266 4.86232 0
M  V30 7801 H 745.59 -3.46544 4.97988 0
M  V30 7802 H 744.329 -3.09295 3.77078 0
M  V30 7803 H 743.334 -1.38664 5.32027 0
M  V30 7804 H 744.559 -1.78492 6.55223 0
M  V30 7805 H 742.505 -3.71466 5.40693 0
M  V30 7806 H 742.422 -2.95069 6.96039 0
M  V30 7807 H 743.69 -4.094 6.63334 0
M  V30 7808 N 747.919 -1.57396 -0.0801906 0
M  V30 7809 C 749.167 -1.86467 -0.779384 0
M  V30 7810 C 749.488 -0.784243 -1.78535 0
M  V30 7811 O 748.758 0.187986 -1.94996 0
M  V30 7812 H 747.338 -0.68806 -0.29083 0
M  V30 7813 H 750 -1.94813 -0.0582749 0
M  V30 7814 H 749.096 -2.83701 -1.30078 0
M  V30 7815 N 749.397 0.351382 -1.53633 0
M  V30 7816 C 750.347 1.4316 -1.77452 0
M  V30 7817 C 751.331 1.48076 -0.62946 0
M  V30 7818 O 752.523 1.53078 -0.888599 0
M  V30 7819 C 749.652 2.80409 -1.98055 0
M  V30 7820 C 748.738 2.79915 -3.18604 0
M  V30 7821 N 749.129 2.49057 -4.40232 0
M  V30 7822 C 747.427 3.11067 -3.19614 0
M  V30 7823 C 748.128 2.566 -5.22045 0
M  V30 7824 N 747.104 2.919 -4.5858 0
M  V30 7825 H 750.906 1.18188 -2.69089 0
M  V30 7826 H 748.42 0.559684 -1.52451 0
M  V30 7827 H 750.417 3.58231 -2.13251 0
M  V30 7828 H 749.077 3.06334 -1.07655 0
M  V30 7829 H 750.088 2.22395 -4.67719 0
M  V30 7830 H 746.765 3.42215 -2.39154 0
M  V30 7831 H 748.155 2.35968 -6.29101 0
M  V30 7832 N 750.875 1.45233 0.611969 0
M  V30 7833 C 751.785 1.56098 1.7513 0
M  V30 7834 C 752.801 0.445646 1.68196 0
M  V30 7835 O 753.977 0.705718 1.88631 0
M  V30 7836 C 751.042 1.52052 3.11579 0
M  V30 7837 C 750.103 2.74589 3.29999 0
M  V30 7838 C 749.336 2.70726 4.59938 0
M  V30 7839 O 749.559 1.77806 5.41979 0
M  V30 7840 O 748.493 3.61864 4.80976 0
M  V30 7841 H 752.319 2.52392 1.68914 0
M  V30 7842 H 749.904 1.27695 0.775528 0
M  V30 7843 H 751.786 1.52387 3.92882 0
M  V30 7844 H 750.461 0.589085 3.18295 0
M  V30 7845 H 749.368 2.79817 2.48301 0
M  V30 7846 H 750.701 3.66843 3.28157 0
M  V30 7847 N 752.353 -0.854086 1.3245 0
M  V30 7848 C 753.578 -1.64597 1.26185 0
M  V30 7849 C 754.003 -1.87357 -0.167074 0
M  V30 7850 O 753.361 -1.42675 -1.11864 0
M  V30 7851 C 753.409 -2.98213 2.02734 0
M  V30 7852 O 752.513 -3.88784 1.37554 0
M  V30 7853 H 751.854 -0.50179 0.434859 0
M  V30 7854 H 754.384 -1.06372 1.74775 0
M  V30 7855 H 754.394 -3.4803 2.1293 0
M  V30 7856 H 753.069 -2.80969 3.06642 0
M  V30 7857 H 751.646 -3.4725 1.3591 0
M  V30 7858 N 753.831 -1.1567 -1.07043 0
M  V30 7859 C 755.071 -0.944089 -1.81291 0
M  V30 7860 C 755.435 0.519305 -1.84844 0
M  V30 7861 O 756.636 0.850357 -2.54995 0
M  V30 7862 C 754.907 -1.54528 -3.22267 0
M  V30 7863 S 756.466 -1.47623 -4.13223 0
M  V30 7864 H 753.284 -0.339696 -0.624602 0
M  V30 7865 H 755.886 -1.47277 -1.28568 0
M  V30 7866 H 754.59 -2.60321 -3.17271 0
M  V30 7867 H 754.121 -1.0156 -3.80065 0
M  V30 7868 H 756.136 -0.471261 -4.93957 0
M  V30 7869 N 755.309 1.25446 -0.953992 0
M  V30 7870 C 756.242 2.24341 -0.417912 0
M  V30 7871 C 757.22 1.54709 0.5004 0
M  V30 7872 O 758.404 1.83414 0.434923 0
M  V30 7873 C 755.531 3.36352 0.398155 0
M  V30 7874 C 754.577 4.24007 -0.460461 0
M  V30 7875 S 755.41 5.00951 -1.89231 0
M  V30 7876 C 756.566 6.1643 -1.08465 0
M  V30 7877 H 756.799 2.69465 -1.25602 0
M  V30 7878 H 754.332 1.34512 -0.758018 0
M  V30 7879 H 756.29 4.01325 0.863059 0
M  V30 7880 H 754.951 2.89813 1.21108 0
M  V30 7881 H 754.144 5.03728 0.165415 0
M  V30 7882 H 753.746 3.63965 -0.860549 0
M  V30 7883 H 756.038 6.76681 -0.333017 0
M  V30 7884 H 756.981 6.8335 -1.85577 0
M  V30 7885 H 757.389 5.61139 -0.615062 0
M  V30 7886 N 756.787 0.722489 1.40064 0
M  V30 7887 C 758.035 0.264455 2.00362 0
M  V30 7888 C 758.356 -1.14847 1.57592 0
M  V30 7889 O 757.626 -1.77982 0.818477 0
M  V30 7890 H 756.206 0.0947846 0.740962 0
M  V30 7891 H 758.868 0.929659 1.71299 0
M  V30 7892 H 757.964 0.302977 3.10626 0
M  V30 7893 N 758.265 -1.50454 0.469181 0
M  V30 7894 C 759.228 -2.2703 -0.314643 0
M  V30 7895 C 760.228 -1.31734 -0.922111 0
M  V30 7896 O 761.418 -1.55176 -0.791588 0
M  V30 7897 C 758.55 -3.08616 -1.44806 0
M  V30 7898 H 759.743 -2.97769 0.356892 0
M  V30 7899 H 757.296 -1.54698 0.223191 0
M  V30 7900 H 758.031 -2.42369 -2.1547 0
M  V30 7901 H 757.816 -3.78647 -1.01829 0
M  V30 7902 H 759.306 -3.66536 -2.00103 0
M  V30 7903 N 759.743 -0.201713 -1.56304 0
M  V30 7904 C 760.989 0.435952 -1.98059 0
M  V30 7905 C 761.322 1.60811 -1.08873 0
M  V30 7906 O 760.597 1.9398 -0.142128 0
M  V30 7907 C 760.88 0.889706 -3.48936 0
M  V30 7908 C 760.733 -0.284725 -4.48898 0
M  V30 7909 C 762.052 1.7529 -4.03685 0
M  V30 7910 H 759.171 0.15699 -0.720085 0
M  V30 7911 H 761.813 -0.293965 -1.87712 0
M  V30 7912 H 759.963 1.51166 -3.57884 0
M  V30 7913 H 761.635 -0.922531 -4.51981 0
M  V30 7914 H 759.878 -0.935427 -4.23594 0
M  V30 7915 H 760.549 0.0753865 -5.51949 0
M  V30 7916 H 763.025 1.2283 -3.97558 0
M  V30 7917 H 761.901 2.03933 -5.0961 0
M  V30 7918 H 762.162 2.70939 -3.49348 0
M  V30 7919 N 761.222 1.57436 0.0718424 0
M  V30 7920 C 762.468 1.87525 0.772149 0
M  V30 7921 C 762.801 0.79399 1.77227 0
M  V30 7922 O 762.076 -0.195733 1.93513 0
M  V30 7923 C 762.359 3.28272 1.48018 0
M  V30 7924 C 762.212 4.47052 0.49647 0
M  V30 7925 C 763.531 3.67256 2.42509 0
M  V30 7926 H 760.65 0.682049 0.279245 0
M  V30 7927 H 763.292 1.89967 0.03534 0
M  V30 7928 H 761.442 3.26321 2.10824 0
M  V30 7929 H 763.114 4.61127 -0.126375 0
M  V30 7930 H 761.357 4.33392 -0.188205 0
M  V30 7931 H 762.028 5.42315 1.02949 0
M  V30 7932 H 764.504 3.70301 1.89781 0
M  V30 7933 H 763.38 4.66626 2.89053 0
M  V30 7934 H 763.641 2.97186 3.27312 0
M  V30 7935 N 762.7 -0.34323 1.53817 0
M  V30 7936 C 763.925 -1.1079 1.75329 0
M  V30 7937 C 764.35 -1.81571 0.491293 0
M  V30 7938 O 763.708 -1.72561 -0.556089 0
M  V30 7939 C 763.756 -2.09681 2.9337 0
M  V30 7940 O 762.86 -3.17207 2.63541 0
M  V30 7941 H 762.201 -0.320402 0.581583 0
M  V30 7942 H 764.731 -0.393525 2.0078 0
M  V30 7943 H 764.741 -2.52897 3.20168 0
M  V30 7944 H 763.416 -1.5756 3.84899 0
M  V30 7945 H 761.993 -2.78806 2.47632 0
M  V30 7946 N 764.178 -1.45556 -0.604258 0
M  V30 7947 C 765.088 -1.57025 -1.74299 0
M  V30 7948 C 766.104 -0.45456 -1.67958 0
M  V30 7949 O 767.28 -0.715711 -1.88254 0
M  V30 7950 C 764.345 -1.53702 -3.10768 0
M  V30 7951 C 763.406 -2.76335 -3.28538 0
M  V30 7952 C 762.639 -2.73161 -4.58496 0
M  V30 7953 O 762.862 -1.80678 -5.41028 0
M  V30 7954 O 761.796 -3.64409 -4.79051 0
M  V30 7955 H 765.622 -2.53284 -1.67573 0
M  V30 7956 H 763.207 -1.28104 -0.768745 0
M  V30 7957 H 765.089 -1.54468 -3.92068 0
M  V30 7958 H 763.764 -0.605957 -3.17978 0
M  V30 7959 H 762.671 -2.8113 -2.46813 0
M  V30 7960 H 764.004 -3.68578 -3.26207 0
M  V30 7961 N 765.656 0.84705 -1.32902 0
M  V30 7962 C 766.886 1.63166 -1.26729 0
M  V30 7963 C 767.294 1.88474 0.165595 0
M  V30 7964 O 766.637 1.45947 1.11558 0
M  V30 7965 C 766.699 3.0103 -1.96522 0
M  V30 7966 C 766.363 2.9873 -3.45846 0
M  V30 7967 C 767.36 2.75032 -4.41196 0
M  V30 7968 C 765.045 3.19125 -3.87898 0
M  V30 7969 C 767.039 2.71743 -5.76571 0
M  V30 7970 C 764.726 3.15462 -5.2338 0
M  V30 7971 C 765.724 2.91801 -6.17528 0
M  V30 7972 O 765.412 2.88027 -7.5053 0
M  V30 7973 H 765.144 0.51469 -0.438258 0
M  V30 7974 H 767.698 1.06383 -1.75704 0
M  V30 7975 H 765.928 3.59634 -1.42128 0
M  V30 7976 H 767.617 3.61821 -1.83958 0
M  V30 7977 H 768.383 2.59034 -4.10032 0
M  V30 7978 H 764.262 3.36565 -3.15032 0
M  V30 7979 H 767.806 2.53194 -6.5003 0
M  V30 7980 H 763.703 3.31006 -5.54171 0
M  V30 7981 H 764.471 3.03927 -7.59981 0
M  V30 7982 N 767.134 1.16236 1.06428 0
M  V30 7983 C 768.381 0.943034 1.79201 0
M  V30 7984 C 768.709 -0.529243 1.87161 0
M  V30 7985 O 767.964 -1.40874 1.35842 0
M  V30 7986 C 768.263 1.51396 3.2375 0
M  V30 7987 C 767.929 3.00833 3.35873 0
M  V30 7988 C 766.591 3.41626 3.38888 0
M  V30 7989 C 768.943 3.96825 3.37904 0
M  V30 7990 C 766.271 4.77033 3.4155 0
M  V30 7991 C 768.623 5.32116 3.42104 0
M  V30 7992 C 767.287 5.72392 3.43401 0
M  V30 7993 H 766.557 0.34508 0.655744 0
M  V30 7994 H 769.204 1.44929 1.25171 0
M  V30 7995 H 767.509 0.929114 3.80624 0
M  V30 7996 H 769.206 1.31996 3.78653 0
M  V30 7997 H 765.796 2.68306 3.3423 0
M  V30 7998 H 769.98 3.66376 3.34787 0
M  V30 7999 H 765.236 5.07569 3.40858 0
M  V30 8000 H 769.41 6.06286 3.42623 0
M  V30 8001 H 767.037 6.77296 3.45216 0
M  V30 8002 N 768.612 -1.24939 0.960631 0
M  V30 8003 C 769.858 -1.93104 0.61958 0
M  V30 8004 C 770.191 -1.74991 -0.84212 0
M  V30 8005 O 769.466 -1.09867 -1.60498 0
M  V30 8006 C 769.749 -3.46326 0.986422 0
M  V30 8007 C 769.602 -3.73638 2.50429 0
M  V30 8008 C 770.921 -4.37067 0.515827 0
M  V30 8009 H 768.04 -0.701311 0.226566 0
M  V30 8010 H 770.682 -1.47442 1.19836 0
M  V30 8011 H 768.832 -3.85348 0.493907 0
M  V30 8012 H 770.504 -3.44217 3.07103 0
M  V30 8013 H 768.747 -3.19035 2.93937 0
M  V30 8014 H 769.418 -4.80815 2.71147 0
M  V30 8015 H 771.894 -4.05381 0.938389 0
M  V30 8016 H 770.77 -5.43022 0.80114 0
M  V30 8017 H 771.031 -4.38224 -0.584171 0
M  V30 8018 N 770.09 -0.729906 -1.39679 0
M  V30 8019 C 771.02 -0.101618 -2.33279 0
M  V30 8020 C 772.001 0.729854 -1.53646 0
M  V30 8021 O 773.186 0.67587 -1.82059 0
M  V30 8022 C 770.316 0.81024 -3.37716 0
M  V30 8023 C 769.27 0.0833126 -4.27919 0
M  V30 8024 C 768.596 1.11185 -5.23012 0
M  V30 8025 C 769.896 -1.07107 -5.112 0
M  V30 8026 H 771.59 -0.883452 -2.86069 0
M  V30 8027 H 769.136 -0.426283 -1.37546 0
M  V30 8028 H 771.089 1.25927 -4.02145 0
M  V30 8029 H 769.813 1.62413 -2.83354 0
M  V30 8030 H 768.472 -0.346043 -3.64963 0
M  V30 8031 H 768.12 1.91917 -4.64948 0
M  V30 8032 H 767.82 0.63026 -5.8421 0
M  V30 8033 H 769.344 1.56068 -5.90318 0
M  V30 8034 H 770.758 -0.700726 -5.69002 0
M  V30 8035 H 769.155 -1.48196 -5.81514 0
M  V30 8036 H 770.225 -1.89513 -4.46332 0
M  V30 8037 N 771.568 1.50203 -0.477153 0
M  V30 8038 C 772.796 2.0677 0.0732489 0
M  V30 8039 C 773.211 1.34033 1.32968 0
M  V30 8040 O 772.568 0.411412 1.77802 0
M  V30 8041 C 772.619 3.59751 0.35518 0
M  V30 8042 O 772.34 4.29747 -0.851425 0
M  V30 8043 C 773.841 4.3296 0.951877 0
M  V30 8044 H 771.061 0.670929 -0.00978923 0
M  V30 8045 H 773.605 1.93293 -0.667676 0
M  V30 8046 H 771.76 3.7301 1.04605 0
M  V30 8047 H 772.174 5.2106 -0.599708 0
M  V30 8048 H 773.648 5.40952 1.09888 0
M  V30 8049 H 774.125 3.93856 1.94356 0
M  V30 8050 H 774.731 4.24246 0.299208 0
M  V30 8051 N 773.046 0.209999 1.56195 0
M  V30 8052 C 774.009 -0.691232 2.18528 0
M  V30 8053 C 775.009 -1.13013 1.14388 0
M  V30 8054 O 776.199 -1.04081 1.39688 0
M  V30 8055 C 773.331 -1.94551 2.79934 0
M  V30 8056 H 774.524 -0.147953 2.99535 0
M  V30 8057 H 772.077 -0.0396243 1.5625 0
M  V30 8058 H 772.812 -2.53094 2.02766 0
M  V30 8059 H 772.597 -1.63938 3.56184 0
M  V30 8060 H 774.087 -2.58785 3.2775 0
M  V30 8061 N 774.524 -1.57472 -0.0634922 0
M  V30 8062 C 775.487 -2.03268 -1.059 0
M  V30 8063 C 776.487 -0.931028 -1.31105 0
M  V30 8064 O 777.677 -1.19567 -1.26686 0
M  V30 8065 C 774.809 -2.42039 -2.40062 0
M  V30 8066 H 776.002 -2.92454 -0.664119 0
M  V30 8067 H 773.555 -1.53206 -0.309444 0
M  V30 8068 H 774.29 -1.55904 -2.84367 0
M  V30 8069 H 774.075 -3.22437 -2.23108 0
M  V30 8070 H 775.565 -2.78017 -3.11603 0
M  V30 8071 N 776.003 0.335068 -1.53997 0
M  V30 8072 C 776.953 1.4127 -1.7896 0
M  V30 8073 C 777.937 1.474 -0.64513 0
M  V30 8074 O 779.129 1.52127 -0.904785 0
M  V30 8075 C 776.258 2.78292 -2.01018 0
M  V30 8076 C 775.344 2.7652 -3.21555 0
M  V30 8077 N 775.735 2.44374 -4.42849 0
M  V30 8078 C 774.033 3.0766 -3.22895 0
M  V30 8079 C 774.734 2.51049 -5.24737 0
M  V30 8080 N 773.71 2.8702 -4.6165 0
M  V30 8081 H 777.512 1.15327 -2.70327 0
M  V30 8082 H 775.026 0.543483 -1.53036 0
M  V30 8083 H 777.023 3.55949 -2.17039 0
M  V30 8084 H 775.683 3.05175 -1.10898 0
M  V30 8085 H 776.694 2.17422 -4.70051 0
M  V30 8086 H 773.371 3.3966 -2.42771 0
M  V30 8087 H 774.761 2.29283 -6.31569 0
M  V30 8088 N 777.481 1.45874 0.596531 0
M  V30 8089 C 778.721 1.52015 1.36641 0
M  V30 8090 C 779.085 0.16226 1.91313 0
M  V30 8091 O 780.286 0.0983889 2.6862 0
M  V30 8092 C 778.557 2.57776 2.4756 0
M  V30 8093 S 780.116 2.83223 3.35157 0
M  V30 8094 H 776.934 0.537251 0.465706 0
M  V30 8095 H 779.536 1.83024 0.687205 0
M  V30 8096 H 778.24 3.55091 2.05764 0
M  V30 8097 H 777.771 2.28455 3.20269 0
M  V30 8098 H 779.786 2.17442 4.4602 0
M  V30 8099 N 778.959 -0.83999 1.33349 0
M  V30 8100 C 780.206 -1.59517 1.24742 0
M  V30 8101 C 780.534 -1.93598 -0.187077 0
M  V30 8102 O 779.789 -1.58782 -1.14398 0
M  V30 8103 C 780.088 -2.91571 2.06691 0
M  V30 8104 C 779.754 -2.76856 3.55895 0
M  V30 8105 C 778.416 -2.72551 3.96572 0
M  V30 8106 C 780.768 -2.61741 4.50712 0
M  V30 8107 C 778.096 -2.51028 5.30285 0
M  V30 8108 C 780.448 -2.41752 5.84584 0
M  V30 8109 C 779.112 -2.35848 6.24445 0
M  V30 8110 H 778.382 -0.583714 0.456463 0
M  V30 8111 H 781.029 -0.973261 1.64924 0
M  V30 8112 H 779.334 -3.57961 1.59284 0
M  V30 8113 H 781.031 -3.49053 1.9739 0
M  V30 8114 H 777.621 -2.81039 3.23597 0
M  V30 8115 H 781.805 -2.64102 4.20195 0
M  V30 8116 H 777.061 -2.44903 5.60208 0
M  V30 8117 H 781.235 -2.2904 6.57658 0
M  V30 8118 H 778.862 -2.18931 7.27993 0
M  V30 8119 N 780.437 -1.16799 -1.0581 0
M  V30 8120 C 781.665 -0.97687 -1.82387 0
M  V30 8121 C 782.08 0.474917 -1.82729 0
M  V30 8122 O 781.437 1.3297 -1.25001 0
M  V30 8123 C 781.488 -1.50279 -3.28783 0
M  V30 8124 O 781.209 -2.89772 -3.28578 0
M  V30 8125 C 782.71 -1.35538 -4.22071 0
M  V30 8126 H 779.93 -0.345977 -0.574927 0
M  V30 8127 H 782.474 -1.54942 -1.33466 0
M  V30 8128 H 780.629 -0.972414 -3.74997 0
M  V30 8129 H 781.043 -3.13954 -4.20159 0
M  V30 8130 H 782.517 -1.7716 -5.22799 0
M  V30 8131 H 782.994 -0.301598 -4.38163 0
M  V30 8132 H 783.6 -1.87562 -3.81708 0
M  V30 8133 N 781.915 1.24427 -0.967243 0
M  V30 8134 C 783.161 1.92772 -0.629812 0
M  V30 8135 C 783.494 1.75436 0.832827 0
M  V30 8136 O 782.769 1.10716 1.59913 0
M  V30 8137 C 783.052 3.45798 -1.00477 0
M  V30 8138 C 782.905 3.72304 -2.52407 0
M  V30 8139 C 784.224 4.36787 -0.538999 0
M  V30 8140 H 781.343 0.700099 -0.230282 0
M  V30 8141 H 783.985 1.46805 -1.20616 0
M  V30 8142 H 782.135 3.8508 -0.514336 0
M  V30 8143 H 783.807 3.42584 -3.08924 0
M  V30 8144 H 782.05 3.17472 -2.95625 0
M  V30 8145 H 782.721 4.7937 -2.73693 0
M  V30 8146 H 785.197 4.04877 -0.959874 0
M  V30 8147 H 784.073 5.4259 -0.829926 0
M  V30 8148 H 784.334 4.38527 0.560923 0
M  V30 8149 N 783.393 0.737304 1.3929 0
M  V30 8150 C 784.67 0.212464 1.94443 0
M  V30 8151 C 785.05 -1.28621 1.67391 0
M  V30 8152 O 784.398 -2.0529 1.00342 0
M  V30 8153 C 784.608 0.548565 3.44662 0
M  V30 8154 C 785.956 0.499177 4.21656 0
M  V30 8155 O 786.98 0.485892 3.5287 0
M  V30 8156 O 785.839 0.495739 5.44247 0
M  V30 8157 H 782.933 0.0395457 0.826054 0
M  V30 8158 H 785.479 0.816319 1.48776 0
M  V30 8159 H 784.251 1.58426 3.57795 0
M  V30 8160 H 783.874 -0.0841399 3.97511 0
M  V30 8161 N 784.871 -1.49948 0.485112 0
M  V30 8162 C 786.148 -1.95186 -0.12726 0
M  V30 8163 C 786.528 -1.42605 -1.5565 0
M  V30 8164 O 785.876 -0.632986 -2.19558 0
M  V30 8165 C 786.086 -3.48955 -0.0562117 0
M  V30 8166 C 787.434 -4.23932 -0.238106 0
M  V30 8167 O 788.458 -3.55955 -0.132145 0
M  V30 8168 O 787.317 -5.44614 -0.453658 0
M  V30 8169 H 784.411 -0.820433 -0.104014 0
M  V30 8170 H 786.957 -1.60659 0.546517 0
M  V30 8171 H 785.729 -3.79814 0.941122 0
M  V30 8172 H 785.352 -3.90056 -0.770834 0
M  V30 8173 N 786.349 -0.21828 -1.56081 0
M  V30 8174 C 787.296 0.693189 -2.20144 0
M  V30 8175 C 788.266 1.19274 -1.15598 0
M  V30 8176 O 789.451 1.25243 -1.4394 0
M  V30 8177 C 786.591 1.89715 -2.88275 0
M  V30 8178 C 785.704 1.4368 -4.07407 0
M  V30 8179 C 784.839 2.59807 -4.63329 0
M  V30 8180 C 783.878 2.10492 -5.74769 0
M  V30 8181 N 783.015 3.1988 -6.24997 0
M  V30 8182 H 787.855 0.14016 -2.9767 0
M  V30 8183 H 785.392 0.0574292 -1.46988 0
M  V30 8184 H 787.35 2.60398 -3.25958 0
M  V30 8185 H 785.98 2.42311 -2.13273 0
M  V30 8186 H 785.032 0.625007 -3.7523 0
M  V30 8187 H 786.344 1.03517 -4.8794 0
M  V30 8188 H 785.498 3.38577 -5.03438 0
M  V30 8189 H 784.237 3.03256 -3.81951 0
M  V30 8190 H 783.242 1.30182 -5.34165 0
M  V30 8191 H 784.467 1.68045 -6.5798 0
M  V30 8192 H 782.413 3.62817 -5.46534 0
M  V30 8193 H 782.33 2.83958 -7.00645 0
M  V30 8194 H 783.598 3.98796 -6.69763 0
M  V30 8195 N 787.827 1.57504 0.0551401 0
M  V30 8196 C 788.737 2.08198 1.08124 0
M  V30 8197 C 789.753 1.01496 1.41331 0
M  V30 8198 O 790.929 1.33073 1.51174 0
M  V30 8199 C 787.994 2.52968 2.37083 0
M  V30 8200 C 787.055 3.7404 2.10696 0
M  V30 8201 C 786.288 4.16665 3.33505 0
M  V30 8202 O 786.511 3.59019 4.4324 0
M  V30 8203 O 785.445 5.09324 3.20737 0
M  V30 8204 H 789.271 2.95977 0.680518 0
M  V30 8205 H 786.856 1.46933 0.270401 0
M  V30 8206 H 788.738 2.82211 3.12946 0
M  V30 8207 H 787.413 1.6831 2.76502 0
M  V30 8208 H 786.32 3.49855 1.32484 0
M  V30 8209 H 787.653 4.59601 1.76148 0
M  V30 8210 N 789.305 -0.326896 1.54172 0
M  V30 8211 C 790.255 -1.40319 1.79707 0
M  V30 8212 C 791.239 -1.47056 0.652938 0
M  V30 8213 O 792.431 -1.51645 0.91284 0
M  V30 8214 C 789.56 -2.77222 2.02491 0
M  V30 8215 C 788.646 -2.74811 3.23016 0
M  V30 8216 N 789.037 -2.42022 4.44138 0
M  V30 8217 C 787.335 -3.05943 3.24522 0
M  V30 8218 C 788.036 -2.48263 5.26061 0
M  V30 8219 N 787.012 -2.84567 4.63166 0
M  V30 8220 H 790.814 -1.13892 2.70935 0
M  V30 8221 H 788.328 -0.53536 1.53322 0
M  V30 8222 H 790.325 -3.54793 2.18923 0
M  V30 8223 H 788.985 -3.04582 1.12515 0
M  V30 8224 H 789.996 -2.14926 4.71197 0
M  V30 8225 H 786.673 -3.38367 2.44569 0
M  V30 8226 H 788.063 -2.2593 6.32776 0
M  V30 8227 N 790.784 -1.46188 -0.588786 0
M  V30 8228 C 792.009 -1.5498 -1.37826 0
M  V30 8229 C 792.434 -0.189498 -1.87143 0
M  V30 8230 O 791.792 0.829293 -1.61222 0
M  V30 8231 C 791.84 -2.55369 -2.54596 0
M  V30 8232 O 790.944 -2.08452 -3.55839 0
M  V30 8233 H 790.285 -0.521741 -0.41071 0
M  V30 8234 H 792.815 -1.91708 -0.714779 0
M  V30 8235 H 792.825 -2.74782 -3.01594 0
M  V30 8236 H 791.5 -3.54155 -2.18052 0
M  V30 8237 H 790.077 -1.98999 -3.15363 0
M  V30 8238 N 792.262 0.832906 -1.33792 0
M  V30 8239 C 793.511 1.58351 -1.24932 0
M  V30 8240 C 793.824 1.94754 0.181703 0
M  V30 8241 O 795.03 2.6865 0.392375 0
M  V30 8242 C 793.486 2.85643 -2.18943 0
M  V30 8243 C 793.094 2.56581 -3.67247 0
M  V30 8244 C 794.838 3.63667 -2.18968 0
M  V30 8245 C 792.745 3.80006 -4.53155 0
M  V30 8246 H 791.675 0.594278 -0.464058 0
M  V30 8247 H 794.326 0.91786 -1.58895 0
M  V30 8248 H 792.708 3.53781 -1.77919 0
M  V30 8249 H 793.882 1.96617 -4.16747 0
M  V30 8250 H 792.197 1.91851 -3.6957 0
M  V30 8251 H 794.794 4.55293 -2.80379 0
M  V30 8252 H 795.137 3.99039 -1.18631 0
M  V30 8253 H 795.67 3.0246 -2.58384 0
M  V30 8254 H 792.409 3.4976 -5.5439 0
M  V30 8255 H 791.929 4.39288 -4.08395 0
M  V30 8256 H 793.608 4.47523 -4.6726 0
M  V30 8257 N 793.74 1.17359 1.05189 0
M  V30 8258 C 794.687 0.890325 2.12936 0
M  V30 8259 C 795.657 -0.165779 1.65271 0
M  V30 8260 O 796.842 -0.0285672 1.90779 0
M  V30 8261 C 793.982 0.409793 3.42658 0
M  V30 8262 C 793.095 1.53002 4.03998 0
M  V30 8263 C 792.23 1.00336 5.21638 0
M  V30 8264 C 791.269 2.09903 5.74984 0
M  V30 8265 N 790.406 1.58714 6.83926 0
M  V30 8266 H 795.246 1.81299 2.36505 0
M  V30 8267 H 792.783 0.904249 1.16025 0
M  V30 8268 H 794.741 0.112743 4.17048 0
M  V30 8269 H 793.371 -0.475915 3.19272 0
M  V30 8270 H 792.423 1.9428 3.27047 0
M  V30 8271 H 793.735 2.3564 4.39631 0
M  V30 8272 H 792.889 0.660158 6.03098 0
M  V30 8273 H 791.628 0.14642 4.8748 0
M  V30 8274 H 790.633 2.45081 4.92154 0
M  V30 8275 H 791.858 2.96013 6.1119 0
M  V30 8276 H 789.804 0.752915 6.51665 0
M  V30 8277 H 789.721 2.34959 7.18561 0
M  V30 8278 H 790.989 1.27287 7.69037 0
M  V30 8279 N 795.218 -1.23913 0.973828 0
M  V30 8280 C 796.464 -1.92436 0.640026 0
M  V30 8281 C 796.797 -1.75875 -0.823512 0
M  V30 8282 O 796.072 -1.11563 -1.59323 0
M  V30 8283 C 796.355 -3.4526 1.0231 0
M  V30 8284 C 796.208 -3.70961 2.54378 0
M  V30 8285 C 797.527 -4.36495 0.562155 0
M  V30 8286 H 794.646 -0.698868 0.233992 0
M  V30 8287 H 797.288 -1.46163 1.21393 0
M  V30 8288 H 795.438 -3.84802 0.534751 0
M  V30 8289 H 797.11 -3.40941 3.10737 0
M  V30 8290 H 795.353 -3.15899 2.97305 0
M  V30 8291 H 796.024 -4.77912 2.76232 0
M  V30 8292 H 798.5 -4.04363 0.981333 0
M  V30 8293 H 797.376 -5.42142 0.858689 0
M  V30 8294 H 797.637 -4.38818 -0.537659 0
M  V30 8295 N 796.696 -0.74468 -1.38897 0
M  V30 8296 C 797.921 -0.306119 -2.05128 0
M  V30 8297 C 798.346 1.0541 -1.55789 0
M  V30 8298 O 797.704 1.66993 -0.705909 0
M  V30 8299 C 797.752 -0.328195 -3.59103 0
M  V30 8300 O 796.856 0.680876 -4.06741 0
M  V30 8301 H 796.197 -0.137209 -0.649669 0
M  V30 8302 H 798.727 -1.01331 -1.77745 0
M  V30 8303 H 798.737 -0.175956 -4.0762 0
M  V30 8304 H 797.412 -1.32067 -3.94374 0
M  V30 8305 H 795.989 0.49398 -3.69614 0
M  V30 8306 N 798.174 1.49689 -0.493057 0
M  V30 8307 C 799.42 2.02727 0.0543518 0
M  V30 8308 C 799.753 1.37264 1.37376 0
M  V30 8309 O 799.028 0.505644 1.87812 0
M  V30 8310 C 799.311 3.59456 0.215226 0
M  V30 8311 C 799.164 4.35459 -1.12675 0
M  V30 8312 C 800.483 4.29511 0.959586 0
M  V30 8313 H 797.602 0.736773 0.0182786 0
M  V30 8314 H 800.244 1.78792 -0.642924 0
M  V30 8315 H 798.394 3.79981 0.809122 0
M  V30 8316 H 800.066 4.2645 -1.75891 0
M  V30 8317 H 798.309 3.9833 -1.71801 0
M  V30 8318 H 798.98 5.43454 -0.967578 0
M  V30 8319 H 801.456 4.13594 0.455977 0
M  V30 8320 H 800.332 5.38939 1.04098 0
M  V30 8321 H 800.593 3.94202 2.00144 0
M  V30 8322 N 799.652 0.226554 1.55963 0
M  V30 8323 C 800.9 -0.402991 1.98041 0
M  V30 8324 C 801.221 -1.59938 1.11557 0
M  V30 8325 O 800.491 -1.9494 0.193719 0
M  V30 8326 H 799.071 -0.15188 0.731397 0
M  V30 8327 H 801.733 0.320613 1.92245 0
M  V30 8328 H 800.829 -0.725937 3.0354 0
M  V30 8329 N 801.13 -1.57531 -0.0467866 0
M  V30 8330 C 802.378 -1.88078 -0.739656 0
M  V30 8331 C 802.699 -0.821936 -1.76831 0
M  V30 8332 O 801.969 0.146582 -1.95351 0
M  V30 8333 H 800.549 -0.694075 -0.276169 0
M  V30 8334 H 803.211 -1.94893 -0.0169391 0
M  V30 8335 H 802.307 -2.86396 -1.24031 0
M  V30 8336 N 802.608 0.318715 -1.54344 0
M  V30 8337 C 803.518 1.41535 -1.87097 0
M  V30 8338 C 804.534 1.56361 -0.763353 0
M  V30 8339 O 805.71 1.71365 -1.05811 0
M  V30 8340 C 802.775 2.76178 -2.09587 0
M  V30 8341 C 801.836 2.70486 -3.3337 0
M  V30 8342 C 801.069 3.98708 -3.54778 0
M  V30 8343 O 801.292 4.9721 -2.79532 0
M  V30 8344 O 800.226 4.01674 -4.48266 0
M  V30 8345 H 804.052 1.16764 -2.80357 0
M  V30 8346 H 801.637 0.51318 -1.4031 0
M  V30 8347 H 803.519 3.55873 -2.25682 0
M  V30 8348 H 802.194 3.00829 -1.19514 0
M  V30 8349 H 801.101 1.89325 -3.22656 0
M  V30 8350 H 802.434 2.50789 -4.23516 0
M  V30 8351 N 804.086 1.46499 0.581025 0
M  V30 8352 C 805.033 1.5719 1.68997 0
M  V30 8353 C 806.003 0.416114 1.60803 0
M  V30 8354 O 807.188 0.633086 1.79991 0
M  V30 8355 C 804.328 1.56973 3.07333 0
M  V30 8356 C 803.441 2.83298 3.26139 0
M  V30 8357 C 802.576 2.74574 4.54734 0
M  V30 8358 C 801.615 3.9583 4.66889 0
M  V30 8359 N 800.752 3.85482 5.86811 0
M  V30 8360 H 805.592 2.51914 1.59196 0
M  V30 8361 H 803.129 1.24975 0.775857 0
M  V30 8362 H 805.087 1.54832 3.87405 0
M  V30 8363 H 803.717 0.657803 3.16027 0
M  V30 8364 H 802.769 2.95411 2.3966 0
M  V30 8365 H 804.081 3.7316 3.30988 0
M  V30 8366 H 803.235 2.70548 5.43036 0
M  V30 8367 H 801.974 1.82354 4.52325 0
M  V30 8368 H 800.979 4.00186 3.77003 0
M  V30 8369 H 802.204 4.89148 4.71075 0
M  V30 8370 H 800.15 2.96051 5.85397 0
M  V30 8371 H 800.067 4.69002 5.92936 0
M  V30 8372 H 801.335 3.85434 6.7754 0
M  V30 8373 N 805.565 -0.825799 1.34232 0
M  V30 8374 C 806.981 -1.11848 1.13851 0
M  V30 8375 C 807.181 -2.01405 -0.0619031 0
M  V30 8376 O 806.237 -2.41465 -0.738287 0
M  V30 8377 C 807.55 -1.76797 2.43235 0
M  V30 8378 C 809.098 -1.89304 2.49265 0
M  V30 8379 C 809.573 -2.57669 3.78643 0
M  V30 8380 N 811.064 -2.65171 3.79788 0
M  V30 8381 C 811.799 -3.1879 4.76614 0
M  V30 8382 N 811.295 -3.72995 5.83821 0
M  V30 8383 N 813.088 -3.17164 4.64073 0
M  V30 8384 H 805.239 -0.230049 2.11151 0
M  V30 8385 H 807.502 -0.164609 0.9336 0
M  V30 8386 H 807.208 -1.18455 3.31152 0
M  V30 8387 H 807.082 -2.76693 2.56361 0
M  V30 8388 H 809.469 -2.46796 1.6179 0
M  V30 8389 H 809.55 -0.883191 2.4007 0
M  V30 8390 H 809.194 -2.00833 4.66507 0
M  V30 8391 H 809.124 -3.59152 3.8512 0
M  V30 8392 H 811.615 -2.26746 3.02315 0
M  V30 8393 H 811.928 -4.12151 6.53721 0
M  V30 8394 H 810.273 -3.71246 5.87538 0
M  V30 8395 H 813.464 -2.74082 3.79469 0
M  V30 8396 H 813.637 -3.58647 5.397 0
M  V30 8397 N 807.043 -1.17915 -1.04565 0
M  V30 8398 C 808.32 -0.881187 -1.74627 0
M  V30 8399 C 808.7 0.617123 -2.01878 0
M  V30 8400 O 808.048 1.57032 -1.65991 0
M  V30 8401 C 808.258 -1.72299 -3.03503 0
M  V30 8402 C 809.606 -1.94688 -3.77335 0
M  V30 8403 O 810.63 -1.6931 -3.13389 0
M  V30 8404 O 809.489 -2.37379 -4.92253 0
M  V30 8405 H 806.583 -0.326864 -0.759664 0
M  V30 8406 H 809.129 -1.28642 -1.10676 0
M  V30 8407 H 807.901 -2.73891 -2.79462 0
M  V30 8408 H 807.524 -1.31593 -3.75192 0
M  V30 8409 N 808.521 1.23394 -0.980386 0
M  V30 8410 C 809.451 2.2717 -0.540024 0
M  V30 8411 C 810.432 1.64659 0.426787 0
M  V30 8412 O 811.617 1.91543 0.320153 0
M  V30 8413 C 808.747 3.46939 0.15836 0
M  V30 8414 C 807.701 4.21802 -0.725732 0
M  V30 8415 C 807.027 5.34597 0.104866 0
M  V30 8416 C 808.327 4.81802 -2.01654 0
M  V30 8417 H 810.021 2.64257 -1.40743 0
M  V30 8418 H 807.567 1.2703 -0.678193 0
M  V30 8419 H 809.52 4.18683 0.477737 0
M  V30 8420 H 808.244 3.08912 1.06022 0
M  V30 8421 H 806.903 3.51875 -1.02857 0
M  V30 8422 H 806.551 4.92812 1.00726 0
M  V30 8423 H 806.251 5.85607 -0.483557 0
M  V30 8424 H 807.775 6.09163 0.418624 0
M  V30 8425 H 809.189 5.45554 -1.76193 0
M  V30 8426 H 807.586 5.43098 -2.55273 0
M  V30 8427 H 808.656 4.02549 -2.70338 0
M  V30 8428 N 809.999 0.752036 1.385 0
M  V30 8429 C 810.909 0.125318 2.34265 0
M  V30 8430 C 811.925 -0.702437 1.59191 0
M  V30 8431 O 813.101 -0.626951 1.91393 0
M  V30 8432 C 810.166 -0.758486 3.38301 0
M  V30 8433 C 809.227 0.0834636 4.29219 0
M  V30 8434 C 808.46 -0.758252 5.28286 0
M  V30 8435 O 808.683 -1.99632 5.34325 0
M  V30 8436 O 807.617 -0.177878 6.01637 0
M  V30 8437 H 811.443 0.91617 2.89551 0
M  V30 8438 H 809.028 0.512911 1.4032 0
M  V30 8439 H 810.91 -1.26365 4.02007 0
M  V30 8440 H 809.585 -1.52786 2.85374 0
M  V30 8441 H 808.492 0.634545 3.68679 0
M  V30 8442 H 809.825 0.815455 4.85398 0
M  V30 8443 N 811.477 -1.49425 0.500989 0
M  V30 8444 C 812.726 -2.01649 -0.04538 0
M  V30 8445 C 813.039 -1.38572 -1.38047 0
M  V30 8446 O 814.245 -1.82124 -2.01353 0
M  V30 8447 C 812.701 -3.5966 -0.131337 0
M  V30 8448 C 812.309 -4.3171 1.19711 0
M  V30 8449 C 814.053 -4.19828 -0.628071 0
M  V30 8450 C 811.96 -5.81579 1.07332 0
M  V30 8451 H 810.89 -0.753715 -0.0207329 0
M  V30 8452 H 813.541 -1.71962 0.640407 0
M  V30 8453 H 811.923 -3.86063 -0.881574 0
M  V30 8454 H 813.097 -4.17008 1.96064 0
M  V30 8455 H 811.412 -3.83286 1.62729 0
M  V30 8456 H 814.009 -5.2958 -0.738198 0
M  V30 8457 H 814.352 -3.83194 -1.6269 0
M  V30 8458 H 814.885 -3.97746 0.0656314 0
M  V30 8459 H 811.624 -6.22738 2.04642 0
M  V30 8460 H 811.144 -5.98774 0.350679 0
M  V30 8461 H 812.823 -6.42614 0.752047 0
M  V30 8462 N 812.955 -0.234822 -1.55841 0
M  V30 8463 C 813.865 0.680828 -2.24504 0
M  V30 8464 C 814.881 1.20306 -1.25708 0
M  V30 8465 O 816.057 1.24188 -1.58554 0
M  V30 8466 C 813.122 1.86636 -2.92178 0
M  V30 8467 C 812.183 1.3848 -4.06352 0
M  V30 8468 C 811.416 2.51382 -4.70789 0
M  V30 8469 O 811.639 3.69831 -4.34259 0
M  V30 8470 O 810.573 2.21828 -5.59532 0
M  V30 8471 H 814.399 0.12583 -3.03439 0
M  V30 8472 H 811.984 -0.00381817 -1.494 0
M  V30 8473 H 813.866 2.55845 -3.34845 0
M  V30 8474 H 812.541 2.40921 -2.16192 0
M  V30 8475 H 811.448 0.660341 -3.68226 0
M  V30 8476 H 812.781 0.888177 -4.8412 0
M  V30 8477 N 814.433 1.57553 0.0384317 0
M  V30 8478 C 815.679 1.89121 0.732199 0
M  V30 8479 C 816.012 0.831404 1.75503 0
M  V30 8480 O 815.287 -0.154642 1.93884 0
M  V30 8481 C 815.57 3.31338 1.41021 0
M  V30 8482 C 815.423 4.48004 0.401532 0
M  V30 8483 C 816.742 3.72318 2.34665 0
M  V30 8484 H 813.861 0.687819 0.264715 0
M  V30 8485 H 816.503 1.89999 -0.00496279 0
M  V30 8486 H 814.653 3.3072 2.03854 0
M  V30 8487 H 816.325 4.60755 -0.224159 0
M  V30 8488 H 814.568 4.32895 -0.280092 0
M  V30 8489 H 815.239 5.44377 0.91423 0
M  V30 8490 H 817.715 3.74243 1.81883 0
M  V30 8491 H 816.591 4.72652 2.7909 0
M  V30 8492 H 816.852 3.04062 3.20934 0
M  V30 8493 N 815.911 -0.310526 1.54511 0
M  V30 8494 C 817.157 -1.04846 1.73595 0
M  V30 8495 C 817.49 -1.87244 0.515118 0
M  V30 8496 O 816.765 -1.88282 -0.48786 0
M  V30 8497 C 817.048 -1.96237 3.01932 0
M  V30 8498 C 816.901 -1.17082 4.34295 0
M  V30 8499 C 818.22 -2.9556 3.26086 0
M  V30 8500 H 815.339 -0.37976 0.631626 0
M  V30 8501 H 817.981 -0.32394 1.87218 0
M  V30 8502 H 816.131 -2.58015 2.90449 0
M  V30 8503 H 817.803 -0.576643 4.57682 0
M  V30 8504 H 816.046 -0.473336 4.3121 0
M  V30 8505 H 816.717 -1.84257 5.20339 0
M  V30 8506 H 819.193 -2.43908 3.37117 0
M  V30 8507 H 818.069 -3.5668 4.17218 0
M  V30 8508 H 818.33 -3.68715 2.4393 0
M  V30 8509 N 817.389 -1.46805 -0.573248 0
M  V30 8510 C 818.319 -1.60951 -1.69165 0
M  V30 8511 C 819.3 -0.45948 -1.63777 0
M  V30 8512 O 820.485 -0.68688 -1.81647 0
M  V30 8513 C 817.615 -1.60844 -3.07809 0
M  V30 8514 C 816.569 -2.74913 -3.28035 0
M  V30 8515 C 815.895 -2.59871 -4.67302 0
M  V30 8516 C 817.195 -4.16654 -3.14955 0
M  V30 8517 H 818.889 -2.54574 -1.57582 0
M  V30 8518 H 816.435 -1.22516 -0.756686 0
M  V30 8519 H 818.388 -1.69334 -3.85881 0
M  V30 8520 H 817.112 -0.637714 -3.20314 0
M  V30 8521 H 815.771 -2.65908 -2.52366 0
M  V30 8522 H 815.419 -1.60861 -4.76585 0
M  V30 8523 H 815.119 -3.36386 -4.81786 0
M  V30 8524 H 816.643 -2.70265 -5.4753 0
M  V30 8525 H 818.057 -4.26721 -3.82861 0
M  V30 8526 H 816.454 -4.93831 -3.40956 0
M  V30 8527 H 817.524 -4.36146 -2.11908 0
M  V30 8528 N 818.867 0.818669 -1.34668 0
M  V30 8529 C 820.114 1.57512 -1.27264 0
M  V30 8530 C 820.442 1.93871 0.156254 0
M  V30 8531 O 819.697 1.60582 1.11857 0
M  V30 8532 C 819.996 2.88245 -2.11304 0
M  V30 8533 C 819.662 2.71159 -3.60255 0
M  V30 8534 C 818.324 2.66207 -4.00858 0
M  V30 8535 C 820.676 2.54538 -4.54819 0
M  V30 8536 C 818.004 2.4256 -5.34211 0
M  V30 8537 C 820.356 2.32421 -5.88356 0
M  V30 8538 C 819.02 2.25884 -6.28118 0
M  V30 8539 H 818.29 0.576378 -0.465692 0
M  V30 8540 H 820.937 0.9469 -1.66451 0
M  V30 8541 H 819.242 3.55381 -1.64958 0
M  V30 8542 H 820.939 3.45869 -2.02919 0
M  V30 8543 H 817.529 2.75856 -3.28027 0
M  V30 8544 H 821.713 2.57384 -4.24343 0
M  V30 8545 H 816.969 2.35959 -5.64033 0
M  V30 8546 H 821.143 2.18548 -6.61218 0
M  V30 8547 H 818.77 2.07322 -7.31383 0
M  V30 8548 N 820.346 1.18468 1.03938 0
M  V30 8549 C 821.296 0.880799 2.103 0
M  V30 8550 C 822.28 -0.150008 1.60199 0
M  V30 8551 O 823.472 0.054213 1.76917 0
M  V30 8552 C 820.601 0.409723 3.40846 0
M  V30 8553 C 819.687 1.47267 3.9771 0
M  V30 8554 N 820.078 2.68945 4.28371 0
M  V30 8555 C 818.376 1.33349 4.25598 0
M  V30 8556 C 819.077 3.37341 4.73894 0
M  V30 8557 N 818.053 2.64725 4.74786 0
M  V30 8558 H 821.855 1.80574 2.31884 0
M  V30 8559 H 819.369 1.07527 1.21703 0
M  V30 8560 H 821.366 0.17352 4.16539 0
M  V30 8561 H 820.026 -0.508862 3.20688 0
M  V30 8562 H 821.037 3.05801 4.17978 0
M  V30 8563 H 817.714 0.477548 4.1476 0
M  V30 8564 H 819.104 4.41338 5.06627 0
M  V30 8565 N 821.824 -1.22873 0.986916 0
M  V30 8566 C 823.235 -1.73264 0.695438 0
M  V30 8567 C 823.586 -1.79679 -0.788023 0
M  V30 8568 O 822.711 -1.43905 -1.61618 0
M  V30 8569 C 823.306 -3.14671 1.2557 0
M  V30 8570 C 821.865 -3.62492 1.01373 0
M  V30 8571 C 821.012 -2.40551 1.37951 0
M  V30 8572 H 823.963 -1.08304 1.15999 0
M  V30 8573 H 823.984 -3.75226 0.631322 0
M  V30 8574 H 823.496 -3.0997 2.33539 0
M  V30 8575 H 821.597 -3.72567 -0.0495917 0
M  V30 8576 H 821.71 -4.48944 1.67289 0
M  V30 8577 H 820.074 -2.41875 0.798033 0
M  V30 8578 H 820.857 -2.38516 2.46911 0
M  V30 8579 N 823.302 -0.75937 -1.38099 0
M  V30 8580 C 824.25 -0.124954 -2.32264 0
M  V30 8581 C 825.244 0.698863 -1.54312 0
M  V30 8582 O 826.45 0.597312 -1.698 0
M  V30 8583 H 822.825 -0.0216142 -0.751689 0
M  V30 8584 H 824.796 -0.935115 -2.83369 0
M  V30 8585 C 823.545 0.749463 -3.39527 0
M  V30 8586 H 822.868 0.124932 -3.99605 0
M  V30 8587 H 824.308 1.16055 -4.07808 0
M  V30 8588 C 822.767 1.89464 -2.78577 0
M  V30 8589 O 823.297 2.98923 -2.68343 0
M  V30 8590 N 821.503 1.69145 -2.36301 0
M  V30 8591 H 821.05 0.801157 -2.44825 0
M  V30 8592 H 821.008 2.45936 -1.95864 0
M  V30 8593 N 824.78 1.49157 -0.508906 0
M  V30 8594 C 826.01 2.06579 0.0293308 0
M  V30 8595 C 826.418 1.36852 1.30645 0
M  V30 8596 O 825.761 0.443079 1.78276 0
M  V30 8597 C 825.823 3.57838 0.345296 0
M  V30 8598 C 825.487 4.49302 -0.835256 0
M  V30 8599 C 826.484 4.90345 -1.72793 0
M  V30 8600 C 824.169 4.91494 -1.0363 0
M  V30 8601 C 826.163 5.72327 -2.80573 0
M  V30 8602 C 823.85 5.7325 -2.11726 0
M  V30 8603 C 824.848 6.13572 -3.00032 0
M  V30 8604 O 824.536 6.93691 -4.06261 0
M  V30 8605 H 824.268 0.675679 -0.0208193 0
M  V30 8606 H 826.822 1.9282 -0.707789 0
M  V30 8607 H 825.052 3.69634 1.13612 0
M  V30 8608 H 826.741 3.97467 0.823089 0
M  V30 8609 H 827.507 4.58388 -1.58446 0
M  V30 8610 H 823.386 4.59605 -0.358308 0
M  V30 8611 H 826.93 6.03719 -3.49527 0
M  V30 8612 H 822.827 6.0462 -2.26065 0
M  V30 8613 H 823.595 7.12011 -4.03711 0
M  V30 8614 N 826.258 0.243083 1.55714 0
M  V30 8615 C 827.206 -0.674349 2.2261 0
M  V30 8616 C 828.2 -1.18307 1.21243 0
M  V30 8617 O 829.406 -1.1404 1.39265 0
M  V30 8618 H 825.781 -0.235941 0.714028 0
M  V30 8619 H 827.752 -0.0869446 2.98273 0
M  V30 8620 C 826.501 -1.86206 2.93637 0
M  V30 8621 H 825.824 -1.47975 3.71407 0
M  V30 8622 H 827.264 -2.4813 3.43813 0
M  V30 8623 C 825.723 -2.73084 1.97298 0
M  V30 8624 O 826.253 -3.72497 1.50361 0
M  V30 8625 N 824.459 -2.39571 1.64482 0
M  V30 8626 H 824.006 -1.5878 2.02846 0
M  V30 8627 H 823.964 -2.97976 1.00288 0
M  V30 8628 N 827.736 -1.57571 -0.0300757 0
M  V30 8629 C 828.985 -1.88407 -0.720126 0
M  V30 8630 C 829.298 -0.841466 -1.76575 0
M  V30 8631 O 830.504 -1.03902 -2.50832 0
M  V30 8632 C 828.96 -3.34348 -1.33188 0
M  V30 8633 C 828.568 -4.46837 -0.32266 0
M  V30 8634 C 830.312 -3.74333 -2.00187 0
M  V30 8635 C 828.219 -5.83838 -0.942703 0
M  V30 8636 H 827.149 -0.702952 -0.272718 0
M  V30 8637 H 829.8 -1.83482 0.0255337 0
M  V30 8638 H 828.182 -3.34014 -2.12721 0
M  V30 8639 H 829.356 -4.58638 0.445887 0
M  V30 8640 H 827.671 -4.15678 0.245181 0
M  V30 8641 H 830.268 -4.74008 -2.47428 0
M  V30 8642 H 830.611 -3.06275 -2.81959 0
M  V30 8643 H 831.144 -3.76837 -1.2743 0
M  V30 8644 H 827.883 -6.55294 -0.164413 0
M  V30 8645 H 827.403 -5.75759 -1.68111 0
M  V30 8646 H 829.082 -6.30535 -1.45034 0
M  V30 8647 N 829.214 0.302327 -1.54673 0
M  V30 8648 C 830.162 1.39286 -1.86285 0
M  V30 8649 C 831.156 1.52553 -0.736478 0
M  V30 8650 O 832.362 1.54686 -0.92045 0
M  V30 8651 H 828.737 0.465228 -0.590819 0
M  V30 8652 H 830.708 1.09859 -2.77441 0
M  V30 8653 C 829.457 2.75155 -2.12567 0
M  V30 8654 H 828.78 2.65728 -2.98712 0
M  V30 8655 H 830.22 3.50476 -2.38627 0
M  V30 8656 C 828.679 3.23987 -0.923813 0
M  V30 8657 O 829.209 4.01443 -0.143649 0
M  V30 8658 N 827.415 2.81293 -0.72956 0
M  V30 8659 H 826.962 2.18421 -1.36565 0
M  V30 8660 H 826.92 3.14315 0.0730351 0
M  V30 8661 N 830.692 1.47107 0.565454 0
M  V30 8662 C 831.94 1.53005 1.32038 0
M  V30 8663 C 832.261 0.190453 1.94068 0
M  V30 8664 O 831.531 -0.784783 1.79494 0
M  V30 8665 H 830.111 0.563578 0.490294 0
M  V30 8666 H 832.773 1.83351 0.660928 0
M  V30 8667 H 831.869 2.29215 2.11818 0
M  V30 8668 N 832.17 -0.811516 1.35101 0
M  V30 8669 C 833.117 -1.92308 1.27617 0
M  V30 8670 C 834.087 -1.6543 0.149091 0
M  V30 8671 O 835.272 -1.8789 0.331974 0
M  V30 8672 C 832.412 -3.28768 1.04908 0
M  V30 8673 C 831.525 -3.67865 2.26493 0
M  V30 8674 C 830.66 -4.9333 1.96974 0
M  V30 8675 C 829.699 -5.25041 3.1464 0
M  V30 8676 N 828.836 -6.41685 2.84929 0
M  V30 8677 H 833.676 -1.98041 2.22674 0
M  V30 8678 H 831.213 -0.968755 1.10696 0
M  V30 8679 H 833.171 -4.07426 0.897749 0
M  V30 8680 H 831.801 -3.22517 0.135151 0
M  V30 8681 H 830.853 -2.84507 2.52507 0
M  V30 8682 H 832.165 -3.87263 3.14371 0
M  V30 8683 H 831.319 -5.79803 1.78643 0
M  V30 8684 H 830.058 -4.75958 1.06374 0
M  V30 8685 H 829.063 -4.3706 3.33554 0
M  V30 8686 H 830.288 -5.44346 4.06035 0
M  V30 8687 H 828.234 -6.25747 1.96918 0
M  V30 8688 H 828.151 -6.6131 3.66341 0
M  V30 8689 H 829.419 -7.31198 2.70128 0
M  V30 8690 N 833.648 -1.19017 -1.03309 0
M  V30 8691 C 834.595 -0.924088 -2.11493 0
M  V30 8692 C 835.565 0.139464 -1.65513 0
M  V30 8693 O 836.75 -0.00178761 -1.908 0
M  V30 8694 C 833.89 -0.464255 -3.41963 0
M  V30 8695 C 833.003 -1.5941 -4.01513 0
M  V30 8696 C 832.138 -1.08622 -5.19976 0
M  V30 8697 C 831.177 -2.19024 -5.71572 0
M  V30 8698 N 830.314 -1.69575 -6.81314 0
M  V30 8699 H 835.154 -1.85039 -2.33591 0
M  V30 8700 H 832.691 -0.922593 -1.14572 0
M  V30 8701 H 834.649 -0.179078 -4.16815 0
M  V30 8702 H 833.279 0.425062 -3.19989 0
M  V30 8703 H 832.331 -1.99458 -3.23915 0
M  V30 8704 H 833.643 -2.42604 -4.35826 0
M  V30 8705 H 832.797 -0.756022 -6.01971 0
M  V30 8706 H 831.536 -0.223955 -4.87186 0
M  V30 8707 H 830.541 -2.5288 -4.88193 0
M  V30 8708 H 831.766 -3.05699 -6.06403 0
M  V30 8709 H 829.712 -0.856494 -6.50385 0
M  V30 8710 H 829.629 -2.46361 -7.14732 0
M  V30 8711 H 830.897 -1.39505 -7.66915 0
M  V30 8712 N 835.127 1.22348 -0.993418 0
M  V30 8713 C 836.037 2.27987 -0.553076 0
M  V30 8714 C 837.053 1.69378 0.398386 0
M  V30 8715 O 838.229 1.99648 0.26509 0
M  V30 8716 C 835.294 3.46475 0.124809 0
M  V30 8717 C 834.355 4.20399 -0.869682 0
M  V30 8718 C 833.588 5.33229 -0.224052 0
M  V30 8719 O 833.811 5.61885 0.981915 0
M  V30 8720 O 832.745 5.94685 -0.929174 0
M  V30 8721 H 836.571 2.67822 -1.43195 0
M  V30 8722 H 834.156 1.28525 -0.761694 0
M  V30 8723 H 836.038 4.18369 0.504496 0
M  V30 8724 H 834.713 3.08565 0.978243 0
M  V30 8725 H 833.62 3.50774 -1.30031 0
M  V30 8726 H 834.953 4.62191 -1.69233 0
M  V30 8727 N 836.605 0.766683 1.37694 0
M  V30 8728 C 837.568 0.155849 2.2867 0
M  V30 8729 C 838.568 -0.633509 1.47795 0
M  V30 8730 O 839.758 -0.457844 1.68076 0
M  V30 8731 C 836.89 -0.786965 3.31692 0
M  V30 8732 H 838.083 0.957748 2.84196 0
M  V30 8733 H 835.636 0.534554 1.46875 0
M  V30 8734 H 836.371 -1.61406 2.8128 0
M  V30 8735 H 836.156 -0.223182 3.91464 0
M  V30 8736 H 837.646 -1.20994 3.99688 0
M  V30 8737 N 838.083 -1.48885 0.516809 0
M  V30 8738 C 839.331 -2.02088 -0.0220166 0
M  V30 8739 C 839.652 -1.39735 -1.36011 0
M  V30 8740 O 838.922 -0.558119 -1.87781 0
M  V30 8741 H 837.502 -0.746917 -0.0111255 0
M  V30 8742 H 840.164 -1.8274 0.677647 0
M  V30 8743 H 839.26 -3.11786 -0.140067 0
M  V30 8744 N 839.561 -0.251338 -1.55583 0
M  V30 8745 C 840.81 0.372681 -1.98227 0
M  V30 8746 C 841.123 1.58743 -1.1428 0
M  V30 8747 O 842.329 2.28289 -1.46957 0
M  V30 8748 C 840.785 0.714439 -3.52738 0
M  V30 8749 C 840.393 -0.479168 -4.4543 0
M  V30 8750 C 842.137 1.3024 -4.04027 0
M  V30 8751 C 840.044 -0.113318 -5.91291 0
M  V30 8752 H 838.974 0.14302 -0.740312 0
M  V30 8753 H 841.625 -0.352253 -1.80087 0
M  V30 8754 H 840.007 1.49762 -3.66589 0
M  V30 8755 H 841.181 -1.25644 -4.4334 0
M  V30 8756 H 839.496 -0.982359 -4.04646 0
M  V30 8757 H 842.093 1.58953 -5.10527 0
M  V30 8758 H 842.436 2.22837 -3.51638 0
M  V30 8759 H 842.969 0.582024 -3.93519 0
M  V30 8760 H 839.708 -1.00654 -6.47726 0
M  V30 8761 H 839.228 0.627666 -5.96507 0
M  V30 8762 H 840.907 0.30293 -6.4629 0
M  V30 8763 N 841.039 1.57585 0.0217189 0
M  V30 8764 C 842.45 1.7787 0.567377 0
M  V30 8765 C 842.801 0.883337 1.7519 0
M  V30 8766 O 841.926 0.0800819 2.16252 0
M  V30 8767 C 842.521 3.2257 1.03606 0
M  V30 8768 C 841.08 3.44026 1.52718 0
M  V30 8769 C 840.227 2.73313 0.468545 0
M  V30 8770 H 843.178 1.57377 -0.2045 0
M  V30 8771 H 843.199 3.29488 1.9031 0
M  V30 8772 H 842.711 3.87711 0.173739 0
M  V30 8773 H 840.812 2.8407 2.41111 0
M  V30 8774 H 840.925 4.52659 1.56962 0
M  V30 8775 H 839.289 2.37299 0.925263 0
M  V30 8776 H 840.072 3.41141 -0.384438 0
M  V30 8777 N 842.517 -0.29412 1.54831 0
M  V30 8778 C 843.427 -1.3854 1.89325 0
M  V30 8779 C 844.443 -1.55127 0.788133 0
M  V30 8780 O 845.619 -1.6966 1.08524 0
M  V30 8781 C 842.684 -2.72809 2.13954 0
M  V30 8782 C 841.745 -2.65148 3.37631 0
M  V30 8783 C 840.978 -3.93014 3.61076 0
M  V30 8784 O 841.201 -4.927 2.87406 0
M  V30 8785 O 840.135 -3.94491 4.54599 0
M  V30 8786 H 843.961 -1.12289 2.82179 0
M  V30 8787 H 841.546 -0.490793 1.41108 0
M  V30 8788 H 843.428 -3.52238 2.31315 0
M  V30 8789 H 842.103 -2.9889 1.24285 0
M  V30 8790 H 841.01 -1.84168 3.25627 0
M  V30 8791 H 842.343 -2.4402 4.27452 0
M  V30 8792 N 843.995 -1.47404 -0.557645 0
M  V30 8793 C 845.242 -1.54007 -1.31484 0
M  V30 8794 C 845.57 -0.202162 -1.93447 0
M  V30 8795 O 844.825 0.804901 -1.78381 0
M  V30 8796 C 845.124 -2.6061 -2.44575 0
M  V30 8797 C 844.79 -4.03896 -2.00446 0
M  V30 8798 C 843.452 -4.42901 -1.88127 0
M  V30 8799 C 845.804 -4.93804 -1.66754 0
M  V30 8800 C 843.132 -5.6965 -1.40411 0
M  V30 8801 C 845.484 -6.21016 -1.20509 0
M  V30 8802 C 844.148 -6.58903 -1.06786 0
M  V30 8803 H 843.418 -0.563552 -0.481134 0
M  V30 8804 H 846.065 -1.81001 -0.625375 0
M  V30 8805 H 844.37 -2.27371 -3.19076 0
M  V30 8806 H 846.067 -2.62941 -3.02759 0
M  V30 8807 H 842.657 -3.73077 -2.10977 0
M  V30 8808 H 846.841 -4.64369 -1.75144 0
M  V30 8809 H 842.097 -5.97755 -1.2845 0
M  V30 8810 H 846.271 -6.90095 -0.935001 0
M  V30 8811 H 843.898 -7.57008 -0.695891 0
M  V30 8812 N 845.473 0.80434 -1.35529 0
M  V30 8813 C 846.703 1.59052 -1.31856 0
M  V30 8814 C 847.111 1.88905 0.105549 0
M  V30 8815 O 846.454 1.49422 1.06858 0
M  V30 8816 C 846.516 2.94626 -2.06 0
M  V30 8817 C 846.18 2.87576 -3.55175 0
M  V30 8818 C 847.177 2.60856 -4.49722 0
M  V30 8819 C 844.862 3.06623 -3.97854 0
M  V30 8820 C 846.856 2.53262 -5.84925 0
M  V30 8821 C 844.543 2.98652 -5.33151 0
M  V30 8822 C 845.541 2.72007 -6.26499 0
M  V30 8823 O 845.229 2.64003 -7.59314 0
M  V30 8824 H 844.961 0.500486 -0.454411 0
M  V30 8825 H 847.515 1.0074 -1.78999 0
M  V30 8826 H 845.745 3.5493 -1.53498 0
M  V30 8827 H 847.434 3.55785 -1.95376 0
M  V30 8828 H 848.2 2.45858 -4.18066 0
M  V30 8829 H 844.079 3.26372 -3.2558 0
M  V30 8830 H 847.623 2.32386 -6.57756 0
M  V30 8831 H 843.52 3.13208 -5.64421 0
M  V30 8832 H 844.288 2.79595 -7.69265 0
M  V30 8833 N 846.951 1.19563 1.02676 0
M  V30 8834 C 848.228 0.908857 1.73203 0
M  V30 8835 C 848.608 -0.584928 2.02834 0
M  V30 8836 O 847.956 -1.54372 1.68469 0
M  V30 8837 C 848.166 1.77105 3.00724 0
M  V30 8838 C 849.514 2.00667 3.7419 0
M  V30 8839 O 850.538 1.74274 3.10656 0
M  V30 8840 O 849.397 2.4518 4.88415 0
M  V30 8841 H 846.491 0.338909 0.754367 0
M  V30 8842 H 849.037 1.30387 1.08616 0
M  V30 8843 H 847.809 2.78303 2.7507 0
M  V30 8844 H 847.432 1.37546 3.73051 0
M  V30 8845 N 848.429 -1.21819 0.999893 0
M  V30 8846 C 849.659 -1.94475 0.697346 0
M  V30 8847 C 850.067 -1.73991 -0.743228 0
M  V30 8848 O 849.41 -1.04042 -1.51397 0
M  V30 8849 C 849.472 -3.47204 0.932181 0
M  V30 8850 C 849.136 -3.91432 2.3586 0
M  V30 8851 C 850.133 -3.98545 3.33853 0
M  V30 8852 C 847.818 -4.23888 2.69489 0
M  V30 8853 C 849.812 -4.37499 4.63545 0
M  V30 8854 C 847.499 -4.62519 3.99399 0
M  V30 8855 C 848.497 -4.69294 4.96238 0
M  V30 8856 O 848.185 -5.07048 6.23825 0
M  V30 8857 H 847.917 -0.625419 0.256567 0
M  V30 8858 H 850.471 -1.55728 1.33933 0
M  V30 8859 H 848.701 -3.85997 0.233025 0
M  V30 8860 H 850.39 -4.01078 0.623807 0
M  V30 8861 H 851.156 -3.73654 3.09205 0
M  V30 8862 H 847.035 -4.17815 1.94812 0
M  V30 8863 H 850.579 -4.42702 5.3913 0
M  V30 8864 H 846.476 -4.86864 4.23833 0
M  V30 8865 H 847.244 -5.25098 6.27865 0
M  V30 8866 N 849.908 -0.773975 -1.37286 0
M  V30 8867 C 851.185 -0.263942 -1.93811 0
M  V30 8868 C 851.565 1.24138 -1.70743 0
M  V30 8869 O 850.913 2.02557 -1.05749 0
M  V30 8870 C 851.123 -0.639753 -3.43086 0
M  V30 8871 C 852.471 -0.610796 -4.20184 0
M  V30 8872 O 853.495 -0.579278 -3.51458 0
M  V30 8873 O 852.354 -0.639862 -5.42741 0
M  V30 8874 H 849.448 -0.0614331 -0.824715 0
M  V30 8875 H 851.994 -0.855477 -1.46559 0
M  V30 8876 H 850.766 -1.67856 -3.53469 0
M  V30 8877 H 850.389 -0.0212827 -3.97594 0
M  V30 8878 N 851.386 1.48609 -0.524698 0
M  V30 8879 C 852.632 2.02797 0.0113382 0
M  V30 8880 C 852.965 1.40147 1.34433 0
M  V30 8881 O 852.24 0.545368 1.86698 0
M  V30 8882 C 852.523 3.59832 0.138931 0
M  V30 8883 C 852.376 4.32971 -1.21886 0
M  V30 8884 C 853.695 4.3145 0.868265 0
M  V30 8885 H 850.814 0.736995 0.00264645 0
M  V30 8886 H 853.456 1.77388 -0.680704 0
M  V30 8887 H 851.606 3.81612 0.72834 0
M  V30 8888 H 853.278 4.22624 -1.84897 0
M  V30 8889 H 851.521 3.94597 -1.80211 0
M  V30 8890 H 852.192 5.41279 -1.08263 0
M  V30 8891 H 854.668 4.14468 0.368145 0
M  V30 8892 H 853.544 5.41025 0.926428 0
M  V30 8893 H 853.805 3.98358 1.91737 0
M  V30 8894 N 852.864 0.259585 1.55447 0
M  V30 8895 C 853.827 -0.621359 2.20617 0
M  V30 8896 C 854.827 -1.09317 1.17925 0
M  V30 8897 O 856.017 -0.995842 1.42929 0
M  V30 8898 C 853.149 -1.85546 2.85982 0
M  V30 8899 H 854.342 -0.0525833 2.99854 0
M  V30 8900 H 851.895 0.0101055 1.56297 0
M  V30 8901 H 852.63 -2.46515 2.10715 0
M  V30 8902 H 852.415 -1.52523 3.61219 0
M  V30 8903 H 853.905 -2.48227 3.35817 0
M  V30 8904 N 854.342 -1.57594 -0.0133615 0
M  V30 8905 C 855.272 -2.10611 -1.00823 0
M  V30 8906 C 856.253 -1.01217 -1.36708 0
M  V30 8907 O 857.438 -1.28827 -1.45318 0
M  V30 8908 C 854.568 -2.59844 -2.30431 0
M  V30 8909 C 853.522 -3.73644 -2.08745 0
M  V30 8910 C 852.848 -4.09141 -3.4425 0
M  V30 8911 C 854.148 -5.01454 -1.46086 0
M  V30 8912 H 855.842 -2.93985 -0.566849 0
M  V30 8913 H 853.388 -1.41423 -0.271219 0
M  V30 8914 H 855.341 -2.95557 -3.00373 0
M  V30 8915 H 854.065 -1.73573 -2.76658 0
M  V30 8916 H 852.724 -3.38303 -1.41232 0
M  V30 8917 H 852.372 -3.19914 -3.88155 0
M  V30 8918 H 852.072 -4.85802 -3.3056 0
M  V30 8919 H 853.596 -4.47402 -4.15528 0
M  V30 8920 H 855.01 -5.35024 -2.05966 0
M  V30 8921 H 853.407 -5.82832 -1.42924 0
M  V30 8922 H 854.477 -4.83003 -0.428471 0
M  V30 8923 N 855.82 0.285905 -1.54985 0
M  V30 8924 C 857.069 1.01691 -1.74189 0
M  V30 8925 C 857.382 1.87908 -0.543135 0
M  V30 8926 O 858.588 2.64389 -0.617305 0
M  V30 8927 C 857.044 1.85785 -3.0824 0
M  V30 8928 C 856.652 1.04497 -4.35642 0
M  V30 8929 C 858.396 2.58393 -3.36798 0
M  V30 8930 C 856.303 1.87955 -5.60738 0
M  V30 8931 H 855.233 0.383396 -0.649248 0
M  V30 8932 H 857.884 0.27317 -1.81455 0
M  V30 8933 H 856.266 2.64205 -2.94978 0
M  V30 8934 H 857.44 0.305847 -4.59784 0
M  V30 8935 H 855.755 0.434023 -4.14132 0
M  V30 8936 H 858.352 3.21214 -4.27464 0
M  V30 8937 H 858.695 3.28011 -2.56349 0
M  V30 8938 H 859.228 1.87012 -3.511 0
M  V30 8939 H 855.967 1.22781 -6.43898 0
M  V30 8940 H 855.487 2.59499 -5.40759 0
M  V30 8941 H 857.166 2.45636 -5.98558 0
M  V30 8942 N 857.298 1.47698 0.54982 0
M  V30 8943 C 858.245 1.60739 1.65625 0
M  V30 8944 C 859.215 0.450129 1.59884 0
M  V30 8945 O 860.4 0.671123 1.78607 0
M  V30 8946 C 857.54 1.63457 3.03934 0
M  V30 8947 C 856.653 2.90152 3.20056 0
M  V30 8948 C 855.788 2.84157 4.48807 0
M  V30 8949 C 854.827 4.05644 4.58387 0
M  V30 8950 N 853.964 3.97843 5.78503 0
M  V30 8951 H 858.804 2.55234 1.53817 0
M  V30 8952 H 856.341 1.26593 0.749173 0
M  V30 8953 H 858.299 1.63015 3.84034 0
M  V30 8954 H 856.929 0.724689 3.1456 0
M  V30 8955 H 855.981 3.00428 2.33339 0
M  V30 8956 H 857.293 3.80097 3.22998 0
M  V30 8957 H 856.447 2.82006 5.37175 0
M  V30 8958 H 855.186 1.91908 4.48356 0
M  V30 8959 H 854.191 4.08092 3.6843 0
M  V30 8960 H 855.416 4.9903 4.60593 0
M  V30 8961 H 853.362 3.08401 5.78986 0
M  V30 8962 H 853.279 4.81473 5.82855 0
M  V30 8963 H 854.547 3.99719 6.69212 0
M  V30 8964 N 858.776 -0.797141 1.35954 0
M  V30 8965 C 859.706 -1.92387 1.32323 0
M  V30 8966 C 860.687 -1.68967 0.196007 0
M  V30 8967 O 861.872 -1.90193 0.39245 0
M  V30 8968 C 859.002 -3.29286 1.10398 0
M  V30 8969 C 857.956 -3.67212 2.19862 0
M  V30 8970 C 857.282 -5.02377 1.8309 0
M  V30 8971 C 858.582 -3.76602 3.61896 0
M  V30 8972 H 860.276 -1.95683 2.26602 0
M  V30 8973 H 857.822 -0.94007 1.09081 0
M  V30 8974 H 859.775 -4.07721 1.06495 0
M  V30 8975 H 858.499 -3.26358 0.125668 0
M  V30 8976 H 857.158 -2.91069 2.22878 0
M  V30 8977 H 856.806 -4.95961 0.838527 0
M  V30 8978 H 856.506 -5.28722 2.56372 0
M  V30 8979 H 858.03 -5.8324 1.80729 0
M  V30 8980 H 859.444 -4.45246 3.6115 0
M  V30 8981 H 857.841 -4.14425 4.34018 0
M  V30 8982 H 858.911 -2.77906 3.97361 0
M  V30 8983 N 860.254 -1.20106 -1.0204 0
M  V30 8984 C 861.201 -0.946468 -2.10501 0
M  V30 8985 C 862.171 0.121902 -1.65652 0
M  V30 8986 O 863.356 -0.0220244 -1.90787 0
M  V30 8987 C 860.496 -0.500499 -3.41451 0
M  V30 8988 C 859.609 -1.63659 -3.998 0
M  V30 8989 C 858.744 -1.14131 -5.18794 0
M  V30 8990 C 857.783 -2.25074 -5.69217 0
M  V30 8991 N 856.92 -1.76791 -6.79477 0
M  V30 8992 H 861.76 -1.87506 -2.31615 0
M  V30 8993 H 859.297 -0.934693 -1.13587 0
M  V30 8994 H 861.255 -0.223276 -4.16602 0
M  V30 8995 H 859.885 0.391099 -3.20422 0
M  V30 8996 H 858.937 -2.02882 -3.21781 0
M  V30 8997 H 860.249 -2.47213 -4.33229 0
M  V30 8998 H 859.403 -0.819826 -6.01135 0
M  V30 8999 H 858.142 -0.275615 -4.86921 0
M  V30 9000 H 857.147 -2.58043 -4.85483 0
M  V30 9001 H 858.372 -3.12114 -6.03127 0
M  V30 9002 H 856.318 -0.925428 -6.4944 0
M  V30 9003 H 856.235 -2.53928 -7.12079 0
M  V30 9004 H 857.503 -1.47631 -7.65392 0
M  V30 9005 N 861.732 1.21287 -1.00634 0
M  V30 9006 C 862.68 2.25733 -0.561026 0
M  V30 9007 C 863.674 1.64728 0.395095 0
M  V30 9008 O 864.88 1.78022 0.266141 0
M  V30 9009 H 861.255 0.734104 -0.163081 0
M  V30 9010 H 863.226 2.60631 -1.45307 0
M  V30 9011 C 861.975 3.47569 0.0952587 0
M  V30 9012 H 861.298 3.94782 -0.631427 0
M  V30 9013 H 862.738 4.22382 0.370105 0
M  V30 9014 C 861.197 3.09326 1.33488 0
M  V30 9015 O 861.727 3.19933 2.42912 0
M  V30 9016 N 859.933 2.63976 1.21512 0
M  V30 9017 H 859.48 2.55545 0.324741 0
M  V30 9018 H 859.438 2.38757 2.04555 0
M  V30 9019 N 863.21 0.781244 1.36873 0
M  V30 9020 C 864.157 0.172146 2.30157 0
M  V30 9021 C 865.127 -0.679328 1.51573 0
M  V30 9022 O 866.312 -0.629713 1.80109 0
M  V30 9023 C 863.452 -0.693534 3.38059 0
M  V30 9024 C 862.565 0.175586 4.31643 0
M  V30 9025 C 861.7 -0.695695 5.26625 0
M  V30 9026 C 860.739 0.17538 6.11849 0
M  V30 9027 N 859.876 -0.654416 6.99043 0
M  V30 9028 H 864.716 0.973133 2.81663 0
M  V30 9029 H 862.253 0.491469 1.38647 0
M  V30 9030 H 864.211 -1.21035 3.99257 0
M  V30 9031 H 862.841 -1.46003 2.87894 0
M  V30 9032 H 861.893 0.810295 3.7167 0
M  V30 9033 H 863.205 0.847107 4.91554 0
M  V30 9034 H 862.359 -1.27863 5.93073 0
M  V30 9035 H 861.098 -1.40087 4.67148 0
M  V30 9036 H 860.103 0.77078 5.4437 0
M  V30 9037 H 861.328 0.87803 6.734 0
M  V30 9038 H 859.274 -1.34403 6.42084 0
M  V30 9039 H 859.191 -0.0403998 7.55989 0
M  V30 9040 H 860.459 -1.22144 7.69871 0
M  V30 9041 N 864.689 -1.48329 0.532571 0
M  V30 9042 C 865.619 -2.32485 -0.217511 0
M  V30 9043 C 866.6 -1.42255 -0.932598 0
M  V30 9044 O 867.785 -1.7114 -0.917873 0
M  V30 9045 C 864.915 -3.23509 -1.26329 0
M  V30 9046 C 863.869 -4.22784 -0.666191 0
M  V30 9047 C 863.195 -5.0296 -1.81482 0
M  V30 9048 C 864.495 -5.21031 0.363813 0
M  V30 9049 H 866.189 -2.95445 0.485014 0
M  V30 9050 H 863.735 -1.42075 0.234694 0
M  V30 9051 H 865.688 -3.81211 -1.79601 0
M  V30 9052 H 864.412 -2.58554 -1.99543 0
M  V30 9053 H 863.071 -3.66272 -0.15498 0
M  V30 9054 H 862.719 -4.34427 -2.5354 0
M  V30 9055 H 862.419 -5.70154 -1.4212 0
M  V30 9056 H 863.943 -5.63514 -2.35126 0
M  V30 9057 H 865.357 -5.73241 -0.0819079 0
M  V30 9058 H 863.754 -5.96292 0.674956 0
M  V30 9059 H 864.824 -4.6801 1.26865 0
M  V30 9060 N 866.167 -0.267825 -1.55308 0
M  V30 9061 C 867.114 0.6228 -2.22238 0
M  V30 9062 C 868.084 1.15536 -1.19334 0
M  V30 9063 O 869.269 1.206 -1.47852 0
M  V30 9064 C 866.409 1.80447 -2.94164 0
M  V30 9065 C 865.522 1.30646 -4.11771 0
M  V30 9066 C 864.657 2.44935 -4.7136 0
M  V30 9067 C 863.696 1.92099 -5.81175 0
M  V30 9068 N 862.833 2.99834 -6.34857 0
M  V30 9069 H 867.673 0.0453874 -2.97965 0
M  V30 9070 H 865.21 0.0106371 -1.47096 0
M  V30 9071 H 867.168 2.49896 -3.34078 0
M  V30 9072 H 865.798 2.35403 -2.20874 0
M  V30 9073 H 864.85 0.505314 -3.77029 0
M  V30 9074 H 866.162 0.879409 -4.90987 0
M  V30 9075 H 865.316 3.2239 -5.13955 0
M  V30 9076 H 864.055 2.90951 -3.91406 0
M  V30 9077 H 863.06 1.13122 -5.38037 0
M  V30 9078 H 864.285 1.47027 -6.62993 0
M  V30 9079 H 862.231 3.45246 -5.578 0
M  V30 9080 H 862.148 2.61524 -7.09324 0
M  V30 9081 H 863.416 3.77286 -6.82111 0
M  V30 9082 N 867.645 1.57599 0.00500368 0
M  V30 9083 C 868.875 1.94344 0.700998 0
M  V30 9084 C 869.283 0.868011 1.68114 0
M  V30 9085 O 868.626 -0.16214 1.82983 0
M  V30 9086 C 868.688 3.27046 1.49268 0
M  V30 9087 C 868.352 4.51992 0.674684 0
M  V30 9088 C 869.349 5.19888 -0.0354833 0
M  V30 9089 C 867.034 4.98432 0.622129 0
M  V30 9090 C 869.028 6.3252 -0.787246 0
M  V30 9091 C 866.715 6.10954 -0.133362 0
M  V30 9092 C 867.713 6.77855 -0.836788 0
M  V30 9093 O 867.401 7.88221 -1.57996 0
M  V30 9094 H 867.133 0.645572 0.20053 0
M  V30 9095 H 869.687 2.0536 -0.040718 0
M  V30 9096 H 867.917 3.12424 2.27877 0
M  V30 9097 H 869.606 3.4894 2.07355 0
M  V30 9098 H 870.372 4.85 -0.00400159 0
M  V30 9099 H 866.251 4.46189 1.15917 0
M  V30 9100 H 869.795 6.84671 -1.33683 0
M  V30 9101 H 865.692 6.45285 -0.166682 0
M  V30 9102 H 866.46 8.0471 -1.49615 0
M  V30 9103 N 869.123 -0.277682 1.55134 0
M  V30 9104 C 870.371 -1.00791 1.75173 0
M  V30 9105 C 870.692 -1.86987 0.553266 0
M  V30 9106 O 869.962 -1.91079 -0.43195 0
M  V30 9107 H 868.542 -0.375129 0.645978 0
M  V30 9108 H 871.204 -0.303041 1.9253 0
M  V30 9109 H 870.3 -1.64756 2.6507 0
M  V30 9110 N 870.601 -1.47988 -0.541979 0
M  V30 9111 C 871.533 -1.5769 -1.66332 0
M  V30 9112 C 872.546 -0.461994 -1.56107 0
M  V30 9113 O 873.735 -0.732306 -1.62787 0
M  V30 9114 C 870.835 -1.47939 -3.04905 0
M  V30 9115 C 870.008 -2.74263 -3.40733 0
M  V30 9116 C 869.067 -2.58133 -4.58534 0
M  V30 9117 O 868.093 -3.31991 -4.62354 0
M  V30 9118 N 869.295 -1.6696 -5.55972 0
M  V30 9119 H 872.06 -2.54389 -1.5845 0
M  V30 9120 H 869.621 -1.4456 -0.728979 0
M  V30 9121 H 871.613 -1.34861 -3.81569 0
M  V30 9122 H 870.183 -0.592626 -3.06931 0
M  V30 9123 H 869.403 -3.01992 -2.53366 0
M  V30 9124 H 870.691 -3.58094 -3.6145 0
M  V30 9125 H 870.089 -1.06134 -5.55655 0
M  V30 9126 H 868.646 -1.59826 -6.31901 0
M  V30 9127 N 872.079 0.78992 -1.36375 0
M  V30 9128 C 873.307 1.57873 -1.3373 0
M  V30 9129 C 873.722 1.88624 0.0815544 0
M  V30 9130 O 873.079 1.50085 1.03831 0
M  V30 9131 C 873.13 2.90003 -2.15825 0
M  V30 9132 O 872.851 2.60578 -3.5218 0
M  V30 9133 C 874.352 3.84309 -2.20955 0
M  V30 9134 H 871.572 0.489685 -0.458748 0
M  V30 9135 H 874.116 0.980436 -1.79465 0
M  V30 9136 H 872.271 3.46303 -1.73646 0
M  V30 9137 H 872.685 3.4506 -3.95011 0
M  V30 9138 H 874.159 4.74081 -2.82756 0
M  V30 9139 H 874.636 4.22121 -1.21287 0
M  V30 9140 H 875.242 3.33942 -2.63368 0
M  V30 9141 N 873.557 1.20646 1.01402 0
M  V30 9142 C 874.806 1.01242 1.7445 0
M  V30 9143 C 875.119 -0.455732 1.90217 0
M  V30 9144 O 876.325 -0.768951 2.60383 0
M  V30 9145 C 874.781 1.76275 3.13776 0
M  V30 9146 C 874.389 3.27201 3.06013 0
M  V30 9147 C 876.133 1.65248 3.91016 0
M  V30 9148 C 874.04 3.9476 4.40362 0
M  V30 9149 H 872.97 0.375202 0.654018 0
M  V30 9150 H 875.621 1.44292 1.13367 0
M  V30 9151 H 874.003 1.26013 3.75415 0
M  V30 9152 H 875.177 3.84695 2.53665 0
M  V30 9153 H 873.492 3.38669 2.42265 0
M  V30 9154 H 876.089 2.13061 4.90417 0
M  V30 9155 H 876.432 0.609128 4.1182 0
M  V30 9156 H 876.965 2.12937 3.3601 0
M  V30 9157 H 873.704 4.99258 4.24761 0
M  V30 9158 H 873.224 3.42054 4.92706 0
M  V30 9159 H 874.903 3.99159 5.09196 0
M  V30 9160 N 875.035 -1.20752 1.01276 0
M  V30 9161 C 876.451 -1.42084 0.726934 0
M  V30 9162 C 876.651 -1.89138 -0.694907 0
M  V30 9163 O 875.707 -2.05783 -1.4632 0
M  V30 9164 C 877.02 -2.44575 1.74938 0
M  V30 9165 C 878.568 -2.58347 1.76708 0
M  V30 9166 C 879.043 -3.64078 2.77869 0
M  V30 9167 N 880.534 -3.71558 2.76585 0
M  V30 9168 C 881.269 -4.53016 3.51517 0
M  V30 9169 N 880.765 -5.38309 4.36114 0
M  V30 9170 N 882.558 -4.47512 3.40132 0
M  V30 9171 H 874.709 -0.885228 1.93074 0
M  V30 9172 H 876.972 -0.451075 0.833808 0
M  V30 9173 H 876.678 -2.1699 2.76782 0
M  V30 9174 H 876.552 -3.43503 1.55838 0
M  V30 9175 H 878.939 -2.85265 0.755516 0
M  V30 9176 H 879.02 -1.59628 1.99882 0
M  V30 9177 H 878.664 -3.37905 3.79187 0
M  V30 9178 H 878.594 -4.62412 2.51958 0
M  V30 9179 H 881.085 -3.10629 2.15216 0
M  V30 9180 H 881.398 -5.9754 4.90068 0
M  V30 9181 H 879.743 -5.37824 4.40194 0
M  V30 9182 H 882.934 -3.79912 2.73467 0
M  V30 9183 H 883.107 -5.10759 3.98784 0
M  V30 9184 N 876.513 -0.788492 -1.36457 0
M  V30 9185 C 877.924 -0.423742 -1.81828 0
M  V30 9186 C 878.275 1.05221 -1.65599 0
M  V30 9187 O 877.4 1.8163 -1.17641 0
M  V30 9188 C 877.995 -0.762354 -3.30112 0
M  V30 9189 C 876.554 -0.450445 -3.73695 0
M  V30 9190 C 875.701 -0.997482 -2.58738 0
M  V30 9191 H 878.652 -0.981718 -1.24692 0
M  V30 9192 H 878.673 -0.0531136 -3.80463 0
M  V30 9193 H 878.185 -1.83662 -3.41891 0
M  V30 9194 H 876.286 0.615829 -3.67476 0
M  V30 9195 H 876.399 -0.970408 -4.69169 0
M  V30 9196 H 874.763 -0.420761 -2.51201 0
M  V30 9197 H 875.546 -2.07749 -2.73304 0
M  V30 9198 N 877.991 1.48044 -0.54043 0
M  V30 9199 C 879.24 2.01698 -0.00809961 0
M  V30 9200 C 879.553 1.42184 1.34325 0
M  V30 9201 O 880.759 1.87398 1.96454 0
M  V30 9202 C 879.215 3.59882 0.035933 0
M  V30 9203 C 878.823 4.28384 -1.31115 0
M  V30 9204 C 880.567 4.21346 0.51654 0
M  V30 9205 C 878.474 5.78529 -1.22714 0
M  V30 9206 H 877.404 0.754 0.000742174 0
M  V30 9207 H 880.055 1.70204 -0.685775 0
M  V30 9208 H 878.437 3.88264 0.778906 0
M  V30 9209 H 879.611 4.11663 -2.07051 0
M  V30 9210 H 877.926 3.78837 -1.72834 0
M  V30 9211 H 880.523 5.31351 0.597529 0
M  V30 9212 H 880.866 3.87373 1.52473 0
M  V30 9213 H 881.399 3.97432 -0.171064 0
M  V30 9214 H 878.138 6.17093 -2.21081 0
M  V30 9215 H 877.658 5.97634 -0.50931 0
M  V30 9216 H 879.337 6.40395 -0.92216 0
M  V30 9217 N 879.47 0.276058 1.55163 0
M  V30 9218 C 880.71 -0.341634 2.01525 0
M  V30 9219 C 881.074 -1.52979 1.16023 0
M  V30 9220 O 882.275 -2.21718 1.51968 0
M  V30 9221 C 880.546 -0.713294 3.5021 0
M  V30 9222 S 882.105 -1.31739 4.18558 0
M  V30 9223 H 878.923 -0.1062 0.703024 0
M  V30 9224 H 881.525 0.398112 1.91404 0
M  V30 9225 H 880.229 0.160311 4.10087 0
M  V30 9226 H 879.76 -1.48448 3.64317 0
M  V30 9227 H 881.775 -2.60595 4.22261 0
M  V30 9228 N 880.948 -1.576 0.00335426 0
M  V30 9229 C 881.878 -2.11668 -0.985839 0
M  V30 9230 C 882.859 -1.02661 -1.35627 0
M  V30 9231 O 884.044 -1.30361 -1.43943 0
M  V30 9232 C 881.174 -2.62273 -2.27662 0
M  V30 9233 C 880.128 -3.75837 -2.0477 0
M  V30 9234 C 879.454 -4.12769 -3.39891 0
M  V30 9235 C 880.754 -5.02975 -1.40759 0
M  V30 9236 H 882.448 -2.9457 -0.535637 0
M  V30 9237 H 879.994 -1.41702 -0.256204 0
M  V30 9238 H 881.947 -2.98727 -2.97221 0
M  V30 9239 H 880.671 -1.76498 -2.74802 0
M  V30 9240 H 879.33 -3.39782 -1.37636 0
M  V30 9241 H 878.978 -3.24013 -3.8474 0
M  V30 9242 H 878.678 -4.89281 -3.25389 0
M  V30 9243 H 880.202 -4.51784 -4.1076 0
M  V30 9244 H 881.616 -5.37179 -2.00279 0
M  V30 9245 H 880.013 -5.84315 -1.36734 0
M  V30 9246 H 881.083 -4.83431 -0.377218 0
M  V30 9247 N 882.426 0.269451 -1.5528 0
M  V30 9248 C 883.837 0.840233 -1.66724 0
M  V30 9249 C 884.188 1.86909 -0.596621 0
M  V30 9250 O 883.313 2.14817 0.261246 0
M  V30 9251 C 883.908 1.5308 -3.02245 0
M  V30 9252 C 882.467 2.04957 -3.15705 0
M  V30 9253 C 881.614 0.892838 -2.62533 0
M  V30 9254 H 884.565 0.0457236 -1.58634 0
M  V30 9255 H 884.586 2.39792 -2.95432 0
M  V30 9256 H 884.098 0.781741 -3.80145 0
M  V30 9257 H 882.199 2.82813 -2.42585 0
M  V30 9258 H 882.312 2.26244 -4.22316 0
M  V30 9259 H 880.676 1.28719 -2.19781 0
M  V30 9260 H 881.459 0.157229 -3.4294 0
M  V30 9261 N 883.904 1.48273 0.534124 0
M  V30 9262 C 885.144 1.57674 1.3007 0
M  V30 9263 C 885.508 0.243256 1.90453 0
M  V30 9264 O 886.709 0.212231 2.67961 0
M  V30 9265 C 884.98 2.68044 2.36405 0
M  V30 9266 S 886.539 2.97183 3.22843 0
M  V30 9267 H 883.357 0.55652 0.442501 0
M  V30 9268 H 885.959 1.85774 0.60896 0
M  V30 9269 H 884.663 3.63498 1.90518 0
M  V30 9270 H 884.194 2.41833 3.10291 0
M  V30 9271 H 886.209 2.36164 4.36396 0
M  V30 9272 N 885.382 -0.782676 1.36792 0
M  V30 9273 C 886.61 -1.57162 1.34565 0
M  V30 9274 C 887.025 -1.88664 -0.0715501 0
M  V30 9275 O 886.382 -1.50633 -1.03033 0
M  V30 9276 C 886.433 -2.88854 2.1736 0
M  V30 9277 O 886.154 -2.58707 3.53557 0
M  V30 9278 C 887.655 -3.83132 2.2299 0
M  V30 9279 H 884.875 -0.487245 0.461338 0
M  V30 9280 H 887.419 -0.970905 1.79982 0
M  V30 9281 H 885.574 -3.45377 1.7548 0
M  V30 9282 H 885.988 -3.42961 3.96835 0
M  V30 9283 H 887.462 -4.72575 2.85266 0
M  V30 9284 H 887.939 -4.21472 1.23524 0
M  V30 9285 H 888.545 -3.32541 2.65135 0
M  V30 9286 N 886.86 -1.21182 -1.00761 0
M  V30 9287 C 887.77 -0.984691 -2.12934 0
M  V30 9288 C 888.786 0.0623657 -1.73888 0
M  V30 9289 O 889.962 -0.1271 -2.00999 0
M  V30 9290 C 887.027 -0.549447 -3.42319 0
M  V30 9291 C 886.088 -1.66841 -3.95553 0
M  V30 9292 C 885.321 -1.25384 -5.18763 0
M  V30 9293 O 885.544 -0.126333 -5.7026 0
M  V30 9294 O 884.478 -2.06475 -5.65377 0
M  V30 9295 H 888.304 -1.92413 -2.3497 0
M  V30 9296 H 885.889 -0.99647 -1.11314 0
M  V30 9297 H 887.771 -0.316384 -4.20211 0
M  V30 9298 H 886.446 0.361304 -3.21677 0
M  V30 9299 H 885.353 -1.95585 -3.189 0
M  V30 9300 H 886.686 -2.55649 -4.206 0
M  V30 9301 N 888.338 1.20213 -1.01915 0
M  V30 9302 C 889.586 1.89272 -0.708552 0
M  V30 9303 C 889.907 1.79394 0.76438 0
M  V30 9304 O 889.177 1.198 1.54999 0
M  V30 9305 H 887.757 0.700628 -0.259094 0
M  V30 9306 H 890.419 1.45985 -1.29129 0
M  V30 9307 H 889.515 2.95841 -0.994215 0
M  V30 9308 N 889.816 0.795718 1.36037 0
M  V30 9309 C 891.044 0.383153 2.03321 0
M  V30 9310 C 891.459 -1.00246 1.59988 0
M  V30 9311 O 890.816 -1.64406 0.792265 0
M  V30 9312 C 890.867 0.444467 3.58757 0
M  V30 9313 O 890.588 1.77544 4.00512 0
M  V30 9314 C 892.089 0.0233291 4.43294 0
M  V30 9315 H 889.309 0.157061 0.652359 0
M  V30 9316 H 891.853 1.07632 1.73884 0
M  V30 9317 H 890.008 -0.200341 3.86882 0
M  V30 9318 H 890.422 1.73065 4.95125 0
M  V30 9319 H 891.896 0.117361 5.51875 0
M  V30 9320 H 892.373 -1.03007 4.2695 0
M  V30 9321 H 892.979 0.64087 4.20444 0
M  V30 9322 N 891.294 -1.47756 0.548274 0
M  V30 9323 C 892.522 -2.06884 0.0254873 0
M  V30 9324 C 892.937 -1.40225 -1.26422 0
M  V30 9325 O 892.294 -0.495776 -1.75637 0
M  V30 9326 C 892.345 -3.61036 -0.183134 0
M  V30 9327 O 892.066 -4.25195 1.05549 0
M  V30 9328 C 893.567 -4.37008 -0.744222 0
M  V30 9329 H 890.787 -0.669697 0.041789 0
M  V30 9330 H 893.331 -1.89888 0.759138 0
M  V30 9331 H 891.486 -3.77576 -0.866886 0
M  V30 9332 H 891.9 -5.17606 0.847629 0
M  V30 9333 H 893.374 -5.45579 -0.839529 0
M  V30 9334 H 893.851 -4.0268 -1.75344 0
M  V30 9335 H 894.457 -4.25191 -0.0964542 0
M  V30 9336 N 892.772 -0.284283 -1.55015 0
M  V30 9337 C 894.188 0.069603 -1.59448 0
M  V30 9338 C 894.388 1.53833 -1.30144 0
M  V30 9339 O 893.444 2.2886 -1.06674 0
M  V30 9340 C 894.757 -0.313287 -2.99064 0
M  V30 9341 C 896.305 -0.260662 -3.11913 0
M  V30 9342 C 896.78 -0.618127 -4.5381 0
M  V30 9343 N 898.271 -0.570026 -4.59679 0
M  V30 9344 C 899.006 -0.8193 -5.67517 0
M  V30 9345 N 898.502 -1.13367 -6.83462 0
M  V30 9346 N 900.295 -0.747482 -5.57108 0
M  V30 9347 H 892.446 -1.24167 -1.72326 0
M  V30 9348 H 894.709 -0.502259 -0.804015 0
M  V30 9349 H 894.415 -1.33509 -3.25374 0
M  V30 9350 H 894.289 0.341369 -3.75652 0
M  V30 9351 H 896.676 0.751869 -2.85361 0
M  V30 9352 H 896.757 -0.949706 -2.37517 0
M  V30 9353 H 896.401 -1.62839 -4.81088 0
M  V30 9354 H 896.331 0.092807 -5.26518 0
M  V30 9355 H 898.822 -0.3373 -3.76392 0
M  V30 9356 H 899.135 -1.3103 -7.61611 0
M  V30 9357 H 897.48 -1.17154 -6.85055 0
M  V30 9358 H 900.671 -0.501658 -4.65404 0
M  V30 9359 H 900.844 -0.945128 -6.4107 0
M  V30 9360 N 894.251 1.57596 -0.0117121 0
M  V30 9361 C 895.214 2.08089 0.960816 0
M  V30 9362 C 896.214 0.992519 1.26514 0
M  V30 9363 O 897.404 1.25475 1.20837 0
M  V30 9364 C 894.536 2.53217 2.28241 0
M  V30 9365 H 895.729 2.9529 0.523829 0
M  V30 9366 H 893.282 1.54508 0.235995 0
M  V30 9367 H 894.017 1.69294 2.76604 0
M  V30 9368 H 893.802 3.32714 2.0747 0
M  V30 9369 H 895.292 2.92568 2.97983 0
M  V30 9370 N 895.729 -0.261212 1.5542 0
M  V30 9371 C 896.659 -1.32712 1.92119 0
M  V30 9372 C 897.64 -1.50934 0.784406 0
M  V30 9373 O 898.825 -1.63781 1.04352 0
M  V30 9374 C 895.955 -2.68453 2.20341 0
M  V30 9375 C 894.909 -2.64947 3.36136 0
M  V30 9376 C 894.235 -4.04349 3.49865 0
M  V30 9377 C 895.535 -2.23182 4.72215 0
M  V30 9378 H 897.229 -1.02245 2.81401 0
M  V30 9379 H 894.775 -0.490406 1.35392 0
M  V30 9380 H 896.728 -3.43144 2.44603 0
M  V30 9381 H 895.452 -3.00527 1.27871 0
M  V30 9382 H 894.111 -1.92714 3.11861 0
M  V30 9383 H 893.759 -4.33665 2.5484 0
M  V30 9384 H 893.459 -4.02895 4.27726 0
M  V30 9385 H 894.983 -4.80761 3.76432 0
M  V30 9386 H 896.397 -2.87599 4.95943 0
M  V30 9387 H 894.794 -2.32867 5.53076 0
M  V30 9388 H 895.864 -1.18327 4.70241 0
M  V30 9389 N 897.207 -1.48554 -0.526253 0
M  V30 9390 C 898.623 -1.34757 -0.855138 0
M  V30 9391 C 898.823 -0.36142 -1.98232 0
M  V30 9392 O 897.879 0.216026 -2.51574 0
M  V30 9393 C 899.192 -2.74877 -1.21915 0
M  V30 9394 C 900.74 -2.83393 -1.32882 0
M  V30 9395 C 901.215 -4.24223 -1.72624 0
M  V30 9396 N 902.706 -4.26913 -1.7972 0
M  V30 9397 C 903.441 -5.32824 -2.11863 0
M  V30 9398 N 902.937 -6.49008 -2.42405 0
M  V30 9399 N 904.73 -5.20221 -2.12901 0
M  V30 9400 H 896.881 -2.11284 0.217422 0
M  V30 9401 H 899.144 -0.947367 0.0346362 0
M  V30 9402 H 898.85 -3.48619 -0.464486 0
M  V30 9403 H 898.724 -3.0864 -2.16844 0
M  V30 9404 H 901.111 -2.09904 -2.07424 0
M  V30 9405 H 901.192 -2.53245 -0.360638 0
M  V30 9406 H 900.836 -4.98229 -0.986411 0
M  V30 9407 H 900.766 -4.51817 -2.70498 0
M  V30 9408 H 903.257 -3.4311 -1.58379 0
M  V30 9409 H 903.57 -7.25561 -2.66048 0
M  V30 9410 H 901.915 -6.52277 -2.39917 0
M  V30 9411 H 905.106 -4.28469 -1.885 0
M  V30 9412 H 905.279 -6.02861 -2.37619 0
M  V30 9413 N 898.685 0.775411 -1.37205 0
M  V30 9414 C 899.615 1.90258 -1.35367 0
M  V30 9415 C 900.596 1.68634 -0.222864 0
M  V30 9416 O 901.781 1.89545 -0.422659 0
M  V30 9417 C 898.911 3.27488 -1.15623 0
M  V30 9418 C 897.865 3.63668 -2.25676 0
M  V30 9419 C 897.191 4.994 -1.91059 0
M  V30 9420 C 898.491 3.70797 -3.67841 0
M  V30 9421 H 900.185 1.92053 -2.29687 0
M  V30 9422 H 897.731 0.922597 -1.10563 0
M  V30 9423 H 899.684 4.05976 -1.12968 0
M  V30 9424 H 898.408 3.26117 -0.177573 0
M  V30 9425 H 897.067 2.87486 -2.2748 0
M  V30 9426 H 896.715 4.94565 -0.917324 0
M  V30 9427 H 896.415 5.24576 -2.64751 0
M  V30 9428 H 897.939 5.80291 -1.89985 0
M  V30 9429 H 899.353 4.39444 -3.68187 0
M  V30 9430 H 897.75 4.07468 -4.40556 0
M  V30 9431 H 898.82 2.71549 -4.01732 0
M  V30 9432 N 900.163 1.21714 1.00117 0
M  V30 9433 C 901.574 1.03477 1.55401 0
M  V30 9434 C 901.925 -0.40429 1.91989 0
M  V30 9435 O 901.05 -1.28807 1.7389 0
M  V30 9436 C 901.645 1.87213 2.82377 0
M  V30 9437 C 900.204 1.73297 3.34133 0
M  V30 9438 C 899.351 1.84189 2.07291 0
M  V30 9439 H 902.302 1.3568 0.823195 0
M  V30 9440 H 902.323 1.38465 3.54412 0
M  V30 9441 H 901.835 2.91944 2.55715 0
M  V30 9442 H 899.936 0.712662 3.65721 0
M  V30 9443 H 900.049 2.55486 4.05294 0
M  V30 9444 H 898.413 1.27538 2.20468 0
M  V30 9445 H 899.196 2.90435 1.83037 0
M  V30 9446 N 901.641 -1.19671 1.02551 0
M  V30 9447 C 903.052 -1.70964 0.750208 0
M  V30 9448 C 903.403 -1.82095 -0.730461 0
M  V30 9449 O 902.528 -1.48974 -1.56958 0
M  V30 9450 C 903.123 -3.10516 1.35518 0
M  V30 9451 C 901.682 -3.59083 1.12854 0
M  V30 9452 C 900.829 -2.36041 1.45534 0
M  V30 9453 H 903.78 -1.04559 1.19386 0
M  V30 9454 H 903.801 -3.73028 0.750378 0
M  V30 9455 H 903.313 -3.02383 2.43282 0
M  V30 9456 H 901.414 -3.72536 0.0689627 0
M  V30 9457 H 901.527 -4.43395 1.81488 0
M  V30 9458 H 899.891 -2.39214 0.87458 0
M  V30 9459 H 900.674 -2.3054 2.54374 0
M  V30 9460 N 903.119 -0.802921 -1.35613 0
M  V30 9461 C 904.347 -0.39393 -2.03115 0
M  V30 9462 C 904.762 0.993961 -1.60517 0
M  V30 9463 O 904.119 1.63984 -0.800973 0
M  V30 9464 C 904.17 -0.463486 -3.58516 0
M  V30 9465 O 903.891 -1.79666 -3.99565 0
M  V30 9466 C 905.392 -0.0468377 -4.43275 0
M  V30 9467 H 902.612 -0.160519 -0.651517 0
M  V30 9468 H 905.156 -1.08552 -1.73311 0
M  V30 9469 H 903.311 0.179821 -3.86982 0
M  V30 9470 H 903.725 -1.75688 -4.942 0
M  V30 9471 H 905.199 -0.146626 -5.51805 0
M  V30 9472 H 905.676 1.00741 -4.2749 0
M  V30 9473 H 906.282 -0.663158 -4.20098 0
M  V30 9474 N 904.597 1.47463 -0.556102 0
M  V30 9475 C 905.825 2.06868 -0.0364585 0
M  V30 9476 C 906.24 1.40893 1.25677 0
M  V30 9477 O 905.597 0.505083 1.75371 0
M  V30 9478 C 905.648 3.61128 0.163984 0
M  V30 9479 O 905.369 4.24629 -1.07803 0
M  V30 9480 C 906.87 4.37397 0.721036 0
M  V30 9481 H 904.09 0.669466 -0.0453399 0
M  V30 9482 H 906.634 1.89482 -0.769198 0
M  V30 9483 H 904.789 3.78031 0.84685 0
M  V30 9484 H 905.203 5.17149 -0.875067 0
M  V30 9485 H 906.677 5.46016 0.810584 0
M  V30 9486 H 907.154 4.03604 1.73206 0
M  V30 9487 H 907.76 4.25236 0.073904 0
M  V30 9488 N 906.075 0.2925 1.54862 0
M  V30 9489 C 907.303 -0.322113 2.04377 0
M  V30 9490 C 907.718 -1.48164 1.17016 0
M  V30 9491 O 907.075 -1.81466 0.19395 0
M  V30 9492 C 907.126 -0.786506 3.5284 0
M  V30 9493 O 906.847 0.326863 4.36879 0
M  V30 9494 C 908.348 -1.46715 4.18318 0
M  V30 9495 H 905.568 -0.0712074 0.667211 0
M  V30 9496 H 908.112 0.429657 1.99935 0
M  V30 9497 H 906.267 -1.48832 3.5767 0
M  V30 9498 H 906.681 -0.0331558 5.2449 0
M  V30 9499 H 908.155 -1.74333 5.23748 0
M  V30 9500 H 908.632 -2.40443 3.67538 0
M  V30 9501 H 909.238 -0.808735 4.1754 0
M  V30 9502 N 907.553 -1.57587 0.0200696 0
M  V30 9503 C 908.793 -1.93287 -0.66479 0
M  V30 9504 C 909.157 -0.896022 -1.6981 0
M  V30 9505 O 910.358 -1.13892 -2.43479 0
M  V30 9506 C 908.629 -3.33949 -1.27328 0
M  V30 9507 S 910.188 -3.91564 -1.98047 0
M  V30 9508 H 907.006 -0.676397 -0.219106 0
M  V30 9509 H 909.608 -1.9533 0.081568 0
M  V30 9510 H 908.312 -4.07235 -0.508673 0
M  V30 9511 H 907.843 -3.35329 -2.05714 0
M  V30 9512 H 909.858 -3.74265 -3.25791 0
M  V30 9513 N 909.032 0.252966 -1.55557 0
M  V30 9514 C 909.964 1.33585 -1.86246 0
M  V30 9515 C 910.977 1.44584 -0.748291 0
M  V30 9516 O 912.166 1.46042 -1.02635 0
M  V30 9517 C 909.266 2.71509 -2.02821 0
M  V30 9518 C 908.439 2.82853 -3.33636 0
M  V30 9519 C 907.498 4.01581 -3.40028 0
M  V30 9520 O 906.524 3.91394 -4.13278 0
M  V30 9521 N 907.726 5.14474 -2.6888 0
M  V30 9522 H 910.491 1.07596 -2.7972 0
M  V30 9523 H 908.052 0.443075 -1.55719 0
M  V30 9524 H 910.044 3.49262 -2.04445 0
M  V30 9525 H 908.614 2.90232 -1.1612 0
M  V30 9526 H 907.834 1.91823 -3.4438 0
M  V30 9527 H 909.122 2.87378 -4.19871 0
M  V30 9528 H 908.52 5.25641 -2.09087 0
M  V30 9529 H 907.077 5.90385 -2.76204 0
M  V30 9530 N 910.51 1.48831 0.518367 0
M  V30 9531 C 911.442 1.60317 1.63802 0
M  V30 9532 C 912.455 0.486771 1.55352 0
M  V30 9533 O 913.644 0.758111 1.61601 0
M  V30 9534 C 910.744 1.52771 3.02513 0
M  V30 9535 C 909.917 2.79649 3.36326 0
M  V30 9536 C 908.976 2.65396 4.54369 0
M  V30 9537 O 908.002 3.39304 4.57013 0
M  V30 9538 N 909.204 1.75784 5.53245 0
M  V30 9539 H 911.969 2.56878 1.54383 0
M  V30 9540 H 909.53 1.45701 0.705889 0
M  V30 9541 H 911.522 1.40914 3.79375 0
M  V30 9542 H 910.092 0.641381 3.05949 0
M  V30 9543 H 909.312 3.05985 2.48529 0
M  V30 9544 H 910.6 3.63799 3.55707 0
M  V30 9545 H 909.998 1.14961 5.53896 0
M  V30 9546 H 908.555 1.69859 6.29278 0
M  V30 9547 N 911.988 -0.768124 1.37614 0
M  V30 9548 C 912.92 -1.89076 1.29548 0
M  V30 9549 C 913.933 -1.61433 0.21056 0
M  V30 9550 O 915.122 -1.72283 0.466992 0
M  V30 9551 C 912.222 -3.24388 0.981102 0
M  V30 9552 C 911.395 -3.79649 2.17222 0
M  V30 9553 C 910.454 -4.93444 1.82754 0
M  V30 9554 O 909.48 -5.0884 2.5509 0
M  V30 9555 N 910.682 -5.75319 0.773819 0
M  V30 9556 H 913.447 -1.9651 2.26283 0
M  V30 9557 H 911.008 -0.947399 1.31286 0
M  V30 9558 H 913 -3.98038 0.731301 0
M  V30 9559 H 911.57 -3.12433 0.102203 0
M  V30 9560 H 910.79 -2.97735 2.58355 0
M  V30 9561 H 912.078 -4.13302 2.96748 0
M  V30 9562 H 911.476 -5.65433 0.173644 0
M  V30 9563 H 910.033 -6.4918 0.583882 0
M  V30 9564 N 913.466 -1.22244 -0.994698 0
M  V30 9565 C 914.413 -0.990906 -2.08446 0
M  V30 9566 C 915.383 0.086737 -1.65873 0
M  V30 9567 O 916.568 -0.0624882 -1.90698 0
M  V30 9568 C 913.708 -0.572813 -3.40313 0
M  V30 9569 C 912.821 -1.72103 -3.96238 0
M  V30 9570 C 911.956 -1.2511 -5.16257 0
M  V30 9571 C 910.995 -2.37098 -5.64315 0
M  V30 9572 N 910.132 -1.91164 -6.75574 0
M  V30 9573 H 914.972 -1.92377 -2.27585 0
M  V30 9574 H 912.509 -0.958576 -1.11578 0
M  V30 9575 H 914.467 -0.311594 -4.16035 0
M  V30 9576 H 913.097 0.323044 -3.21179 0
M  V30 9577 H 912.149 -2.09662 -3.17405 0
M  V30 9578 H 913.461 -2.56347 -4.27888 0
M  V30 9579 H 912.615 -0.947152 -5.99261 0
M  V30 9580 H 911.354 -0.378836 -4.86226 0
M  V30 9581 H 910.359 -2.68283 -4.799 0
M  V30 9582 H 911.584 -3.24837 -5.96371 0
M  V30 9583 H 909.53 -1.06298 -6.47331 0
M  V30 9584 H 909.447 -2.68975 -7.06533 0
M  V30 9585 H 910.715 -1.63833 -7.62088 0
M  V30 9586 N 914.944 1.19125 -1.03184 0
M  V30 9587 C 915.854 2.26112 -0.625329 0
M  V30 9588 C 916.87 1.7056 0.344298 0
M  V30 9589 O 918.046 2.0039 0.20144 0
M  V30 9590 C 915.111 3.46697 0.0145169 0
M  V30 9591 C 914.172 4.17419 -1.00299 0
M  V30 9592 C 913.405 5.32247 -0.393581 0
M  V30 9593 O 913.628 5.64724 0.802659 0
M  V30 9594 O 912.562 5.91428 -1.1179 0
M  V30 9595 H 916.388 2.63131 -1.51643 0
M  V30 9596 H 913.973 1.26036 -0.802197 0
M  V30 9597 H 915.855 4.19762 0.371139 0
M  V30 9598 H 914.53 3.11521 0.879581 0
M  V30 9599 H 913.437 3.4646 -1.41125 0
M  V30 9600 H 914.77 4.56573 -1.83852 0
M  V30 9601 N 916.422 0.810101 1.35185 0
M  V30 9602 C 917.332 0.224565 2.33523 0
M  V30 9603 C 918.348 -0.634287 1.62027 0
M  V30 9604 O 919.524 -0.545211 1.9388 0
M  V30 9605 C 916.589 -0.614319 3.41214 0
M  V30 9606 C 915.65 0.265435 4.28479 0
M  V30 9607 C 914.883 -0.533506 5.31027 0
M  V30 9608 O 915.106 -1.7679 5.42311 0
M  V30 9609 O 914.04 0.0774573 6.0185 0
M  V30 9610 H 917.866 1.03815 2.85405 0
M  V30 9611 H 915.451 0.571964 1.38018 0
M  V30 9612 H 917.333 -1.09201 4.07005 0
M  V30 9613 H 916.008 -1.40545 2.91597 0
M  V30 9614 H 914.915 0.790343 3.65656 0
M  V30 9615 H 916.248 1.0206 4.81503 0
M  V30 9616 N 917.9 -1.47166 0.563914 0
M  V30 9617 C 918.83 -2.32894 -0.168148 0
M  V30 9618 C 919.811 -1.44202 -0.902214 0
M  V30 9619 O 920.996 -1.73048 -0.881365 0
M  V30 9620 C 918.126 -3.26116 -1.19439 0
M  V30 9621 C 917.08 -4.24101 -0.576363 0
M  V30 9622 C 916.406 -5.06696 -1.70772 0
M  V30 9623 C 917.706 -5.20142 0.47425 0
M  V30 9624 H 919.4 -2.9435 0.547573 0
M  V30 9625 H 916.946 -1.41545 0.264778 0
M  V30 9626 H 918.899 -3.84935 -1.71474 0
M  V30 9627 H 917.623 -2.62728 -1.94014 0
M  V30 9628 H 916.282 -3.66519 -0.0772534 0
M  V30 9629 H 915.93 -4.39707 -2.44268 0
M  V30 9630 H 915.63 -5.7304 -1.29994 0
M  V30 9631 H 917.154 -5.68375 -2.2312 0
M  V30 9632 H 918.568 -5.73286 0.0397035 0
M  V30 9633 H 916.965 -5.94726 0.801287 0
M  V30 9634 H 918.035 -4.65214 1.36764 0
M  V30 9635 N 919.378 -0.300708 -1.54705 0
M  V30 9636 C 920.308 0.568675 -2.26469 0
M  V30 9637 C 921.289 1.13817 -1.26411 0
M  V30 9638 O 922.474 1.16756 -1.55183 0
M  V30 9639 C 919.604 1.74077 -3.00524 0
M  V30 9640 C 918.558 1.30165 -4.07727 0
M  V30 9641 C 917.884 2.55888 -4.69495 0
M  V30 9642 C 919.184 0.433106 -5.20501 0
M  V30 9643 H 920.878 -0.0298851 -2.99385 0
M  V30 9644 H 918.424 -0.0158135 -1.43991 0
M  V30 9645 H 920.377 2.35506 -3.49449 0
M  V30 9646 H 919.101 2.36556 -2.25186 0
M  V30 9647 H 917.76 0.710414 -3.59651 0
M  V30 9648 H 917.408 3.16681 -3.90797 0
M  V30 9649 H 917.108 2.27207 -5.41895 0
M  V30 9650 H 918.632 3.18121 -5.21183 0
M  V30 9651 H 920.046 0.95307 -5.65322 0
M  V30 9652 H 918.443 0.240085 -5.9962 0
M  V30 9653 H 919.513 -0.541866 -4.81863 0
M  V30 9654 N 920.856 1.57574 -0.0284266 0
M  V30 9655 C 922.267 1.79585 0.510502 0
M  V30 9656 C 922.618 0.938625 1.72291 0
M  V30 9657 O 921.743 0.14884 2.15888 0
M  V30 9658 C 922.338 3.25703 0.932912 0
M  V30 9659 C 920.897 3.48711 1.41696 0
M  V30 9660 C 920.044 2.74665 0.381356 0
M  V30 9661 H 922.995 1.56647 -0.254464 0
M  V30 9662 H 923.016 3.35376 1.79731 0
M  V30 9663 H 922.528 3.88067 0.0503036 0
M  V30 9664 H 920.629 2.91597 2.31952 0
M  V30 9665 H 920.742 4.57423 1.42481 0
M  V30 9666 H 919.106 2.40123 0.8493 0
M  V30 9667 H 919.889 3.39745 -0.492775 0
M  V30 9668 N 922.334 -0.244713 1.55689 0
M  V30 9669 C 923.297 -1.2864 1.89695 0
M  V30 9670 C 924.297 -1.40969 0.773583 0
M  V30 9671 O 925.487 -1.39632 1.04156 0
M  V30 9672 C 922.619 -2.66379 2.12732 0
M  V30 9673 H 923.812 -0.997033 2.82841 0
M  V30 9674 H 921.365 -0.484103 1.48614 0
M  V30 9675 H 922.1 -3.00452 1.22062 0
M  V30 9676 H 921.885 -2.58812 2.94549 0
M  V30 9677 H 923.375 -3.41592 2.40218 0
M  V30 9678 N 923.813 -1.49104 -0.510467 0
M  V30 9679 C 924.745 -1.61183 -1.6295 0
M  V30 9680 C 925.758 -0.495003 -1.55092 0
M  V30 9681 O 926.947 -0.766671 -1.61197 0
M  V30 9682 C 924.047 -1.54373 -3.01699 0
M  V30 9683 C 923.22 -2.81428 -3.34838 0
M  V30 9684 C 922.279 -2.67802 -4.52956 0
M  V30 9685 O 921.305 -3.41723 -4.55208 0
M  V30 9686 N 922.507 -1.78715 -5.52305 0
M  V30 9687 H 925.272 -2.57693 -1.53018 0
M  V30 9688 H 922.833 -1.46073 -0.698152 0
M  V30 9689 H 924.825 -1.42924 -3.78622 0
M  V30 9690 H 923.395 -0.657597 -3.05605 0
M  V30 9691 H 922.615 -3.07299 -2.46903 0
M  V30 9692 H 923.903 -3.6568 -3.53773 0
M  V30 9693 H 923.301 -1.17897 -5.53278 0
M  V30 9694 H 921.858 -1.73194 -6.28369 0
M  V30 9695 N 925.291 0.760815 -1.38019 0
M  V30 9696 C 926.568 1.5098 -1.24356 0
M  V30 9697 C 926.948 2.10507 0.158169 0
M  V30 9698 O 926.296 1.96455 1.16695 0
M  V30 9699 C 926.506 2.58195 -2.34811 0
M  V30 9700 C 927.854 3.25297 -2.72886 0
M  V30 9701 O 928.878 2.68496 -2.34069 0
M  V30 9702 O 927.737 4.28018 -3.39799 0
M  V30 9703 H 924.831 0.66921 -0.485888 0
M  V30 9704 H 927.377 0.796844 -1.49828 0
M  V30 9705 H 926.149 2.12406 -3.28633 0
M  V30 9706 H 925.772 3.37079 -2.10864 0
M  V30 9707 N 926.769 1.22769 0.988202 0
M  V30 9708 C 928.018 1.0492 1.72263 0
M  V30 9709 C 928.331 -0.415282 1.91141 0
M  V30 9710 O 929.537 -0.713547 2.61956 0
M  V30 9711 C 927.993 1.82891 3.09966 0
M  V30 9712 C 927.601 3.33618 2.99003 0
M  V30 9713 C 929.345 1.73505 3.87423 0
M  V30 9714 C 927.252 4.04012 4.3189 0
M  V30 9715 H 926.182 0.38899 0.645912 0
M  V30 9716 H 928.833 1.46664 1.10281 0
M  V30 9717 H 927.215 1.33948 3.72658 0
M  V30 9718 H 928.389 3.8999 2.45448 0
M  V30 9719 H 926.704 3.43732 2.35027 0
M  V30 9720 H 929.301 2.23416 4.85787 0
M  V30 9721 H 929.644 0.696344 4.10435 0
M  V30 9722 H 930.177 2.20016 3.31418 0
M  V30 9723 H 926.916 5.08155 4.14075 0
M  V30 9724 H 926.436 3.52428 4.8534 0
M  V30 9725 H 928.115 4.0987 5.00615 0
M  V30 9726 N 928.247 -1.18576 1.03814 0
M  V30 9727 C 929.194 -2.2212 0.626988 0
M  V30 9728 C 930.164 -1.62064 -0.363912 0
M  V30 9729 O 931.349 -1.89041 -0.258469 0
M  V30 9730 C 928.489 -3.45099 -0.00650133 0
M  V30 9731 C 927.602 -4.19503 1.03156 0
M  V30 9732 C 926.737 -5.29932 0.366852 0
M  V30 9733 C 925.776 -5.96104 1.39018 0
M  V30 9734 N 924.913 -6.98076 0.750625 0
M  V30 9735 H 929.753 -2.56646 1.51449 0
M  V30 9736 H 927.29 -1.26084 0.757702 0
M  V30 9737 H 929.248 -4.15363 -0.391108 0
M  V30 9738 H 927.878 -3.11201 -0.857536 0
M  V30 9739 H 926.93 -3.48092 1.53414 0
M  V30 9740 H 928.242 -4.64843 1.80893 0
M  V30 9741 H 927.396 -6.06657 -0.0720979 0
M  V30 9742 H 926.135 -4.85687 -0.442631 0
M  V30 9743 H 925.14 -5.18122 1.8393 0
M  V30 9744 H 926.365 -6.42432 2.20132 0
M  V30 9745 H 924.311 -6.55989 -0.0385981 0
M  V30 9746 H 924.228 -7.41655 1.46574 0
M  V30 9747 H 925.496 -7.78776 0.335986 0
M  V30 9748 N 929.725 -0.817259 -1.34754 0
M  V30 9749 C 930.688 -0.240611 -2.27934 0
M  V30 9750 C 931.688 0.578219 -1.50044 0
M  V30 9751 O 932.878 0.395148 -1.69659 0
M  V30 9752 C 930.01 0.663318 -3.34384 0
M  V30 9753 H 931.203 -1.06257 -2.80445 0
M  V30 9754 H 928.756 -0.588697 -1.4479 0
M  V30 9755 H 929.491 1.50855 -2.87077 0
M  V30 9756 H 929.276 0.0777388 -3.92023 0
M  V30 9757 H 930.766 1.06076 -4.03903 0
M  V30 9758 N 931.203 1.46865 -0.571711 0
M  V30 9759 C 932.133 2.3298 0.155795 0
M  V30 9760 C 933.114 1.44678 0.894553 0
M  V30 9761 O 934.299 1.73513 0.872176 0
M  V30 9762 C 931.429 3.26745 1.17708 0
M  V30 9763 C 930.383 4.24401 0.553863 0
M  V30 9764 C 929.709 5.07595 1.68083 0
M  V30 9765 C 931.009 5.19884 -0.501827 0
M  V30 9766 H 932.703 2.94056 -0.563176 0
M  V30 9767 H 930.249 1.41402 -0.27228 0
M  V30 9768 H 932.202 3.85838 1.6943 0
M  V30 9769 H 930.926 2.63753 1.92618 0
M  V30 9770 H 929.585 3.66554 0.057815 0
M  V30 9771 H 929.233 4.40996 2.41933 0
M  V30 9772 H 928.933 5.73722 1.26953 0
M  V30 9773 H 930.457 5.6955 2.20103 0
M  V30 9774 H 931.871 5.73257 -0.0701057 0
M  V30 9775 H 930.268 5.94293 -0.832815 0
M  V30 9776 H 931.338 4.64482 -1.39229 0
M  V30 9777 N 932.681 0.308908 1.54543 0
M  V30 9778 C 933.928 -0.298036 2.00295 0
M  V30 9779 C 934.256 -1.53285 1.19724 0
M  V30 9780 O 933.511 -1.93917 0.263551 0
M  V30 9781 C 933.81 -0.691522 3.50646 0
M  V30 9782 C 933.476 0.442454 4.48724 0
M  V30 9783 C 932.138 0.753739 4.7526 0
M  V30 9784 C 934.49 1.20488 5.07082 0
M  V30 9785 C 931.818 1.83044 5.57415 0
M  V30 9786 C 934.17 2.27156 5.90409 0
M  V30 9787 C 932.834 2.58882 6.15253 0
M  V30 9788 H 932.104 -0.109059 0.73293 0
M  V30 9789 H 934.751 0.429647 1.86618 0
M  V30 9790 H 933.056 -1.49941 3.61974 0
M  V30 9791 H 934.753 -1.17244 3.83477 0
M  V30 9792 H 931.343 0.189744 4.2818 0
M  V30 9793 H 935.527 0.977653 4.86575 0
M  V30 9794 H 930.783 2.08088 5.749 0
M  V30 9795 H 934.957 2.86687 6.34652 0
M  V30 9796 H 932.584 3.42443 6.78702 0
M  V30 9797 N 934.159 -1.57557 0.0367827 0
M  V30 9798 C 935.405 -1.92399 -0.641133 0
M  V30 9799 C 935.738 -0.914191 -1.71336 0
M  V30 9800 O 935.013 0.0619616 -1.94401 0
M  V30 9801 C 935.296 -3.37689 -1.25052 0
M  V30 9802 C 935.149 -4.4941 -0.187326 0
M  V30 9803 C 936.468 -3.8309 -2.16634 0
M  V30 9804 H 933.587 -0.699666 -0.231597 0
M  V30 9805 H 936.229 -1.89759 0.0956083 0
M  V30 9806 H 934.379 -3.40069 -1.87843 0
M  V30 9807 H 936.051 -4.59161 0.443736 0
M  V30 9808 H 934.294 -4.31065 0.486313 0
M  V30 9809 H 934.965 -5.48119 -0.653459 0
M  V30 9810 H 937.441 -3.82494 -1.63821 0
M  V30 9811 H 936.317 -4.85429 -2.56222 0
M  V30 9812 H 936.578 -3.19028 -3.06062 0
M  V30 9813 N 935.637 0.236453 -1.55816 0
M  V30 9814 C 936.862 0.98449 -1.82545 0
M  V30 9815 C 937.287 1.77755 -0.615206 0
M  V30 9816 O 936.645 1.75982 0.435895 0
M  V30 9817 C 936.693 1.88973 -3.07118 0
M  V30 9818 O 935.797 2.98298 -2.84766 0
M  V30 9819 H 935.138 0.279577 -0.602273 0
M  V30 9820 H 937.668 0.254277 -2.03014 0
M  V30 9821 H 937.678 2.3024 -3.36829 0
M  V30 9822 H 936.353 1.30671 -3.94839 0
M  V30 9823 H 934.93 2.61085 -2.6625 0
M  V30 9824 N 937.115 1.49373 0.502552 0
M  V30 9825 C 938.025 1.68659 1.63068 0
M  V30 9826 C 939.041 0.569182 1.64427 0
M  V30 9827 O 940.217 0.843695 1.82876 0
M  V30 9828 C 937.282 1.74745 2.99441 0
M  V30 9829 C 936.343 2.98311 3.08721 0
M  V30 9830 C 935.576 3.04097 4.38589 0
M  V30 9831 O 935.799 2.17519 5.27297 0
M  V30 9832 O 934.733 3.96544 4.52809 0
M  V30 9833 H 938.559 2.64226 1.49727 0
M  V30 9834 H 936.144 1.33096 0.67867 0
M  V30 9835 H 938.026 1.8111 3.80496 0
M  V30 9836 H 936.701 0.823565 3.13048 0
M  V30 9837 H 935.608 2.97465 2.2686 0
M  V30 9838 H 936.941 3.90174 3.00041 0
M  V30 9839 N 938.594 -0.753485 1.38421 0
M  V30 9840 C 939.504 -1.89797 1.37892 0
M  V30 9841 C 940.52 -1.71797 0.276023 0
M  V30 9842 O 941.696 -1.94718 0.514464 0
M  V30 9843 C 938.761 -3.25166 1.20284 0
M  V30 9844 C 937.822 -3.55691 2.4038 0
M  V30 9845 C 937.055 -4.84601 2.23602 0
M  V30 9846 O 937.278 -5.56985 1.22979 0
M  V30 9847 O 936.212 -5.14605 3.12194 0
M  V30 9848 H 940.038 -1.93197 2.34326 0
M  V30 9849 H 937.623 -0.898775 1.19342 0
M  V30 9850 H 939.505 -4.06099 1.12525 0
M  V30 9851 H 938.18 -3.22577 0.269352 0
M  V30 9852 H 937.087 -2.74919 2.53714 0
M  V30 9853 H 938.42 -3.6304 3.32359 0
M  V30 9854 N 940.072 -1.23292 -0.981677 0
M  V30 9855 C 940.982 -1.02964 -2.10798 0
M  V30 9856 C 941.998 0.0254674 -1.73981 0
M  V30 9857 O 943.174 -0.169706 -2.00684 0
M  V30 9858 C 940.239 -0.621934 -3.41076 0
M  V30 9859 C 939.3 -1.75194 -3.91926 0
M  V30 9860 C 938.533 -1.36359 -5.15986 0
M  V30 9861 O 938.756 -0.247265 -5.69864 0
M  V30 9862 O 937.69 -2.18421 -5.60871 0
M  V30 9863 H 941.516 -1.97354 -2.30836 0
M  V30 9864 H 939.101 -1.01986 -1.09175 0
M  V30 9865 H 940.983 -0.405446 -4.19445 0
M  V30 9866 H 939.658 0.29299 -3.22371 0
M  V30 9867 H 938.565 -2.02305 -3.1468 0
M  V30 9868 H 939.898 -2.64513 -4.15083 0
M  V30 9869 N 941.55 1.18024 -1.04442 0
M  V30 9870 C 942.497 2.21785 -0.638759 0
M  V30 9871 C 943.467 1.62255 0.355312 0
M  V30 9872 O 944.652 1.89176 0.24844 0
M  V30 9873 C 941.792 3.45098 -0.0118002 0
M  V30 9874 C 940.905 4.1895 -1.05379 0
M  V30 9875 C 940.04 5.2973 -0.394951 0
M  V30 9876 C 939.079 5.95359 -1.42178 0
M  V30 9877 N 938.216 6.97668 -0.787635 0
M  V30 9878 H 943.056 2.55839 -1.52808 0
M  V30 9879 H 940.593 1.25681 -0.764378 0
M  V30 9880 H 942.551 4.15564 0.369075 0
M  V30 9881 H 941.181 3.11652 0.84102 0
M  V30 9882 H 940.233 3.47274 -1.55258 0
M  V30 9883 H 941.545 4.63877 -1.83355 0
M  V30 9884 H 940.699 6.06687 0.0399244 0
M  V30 9885 H 939.438 4.85915 0.416867 0
M  V30 9886 H 938.443 5.17139 -1.86675 0
M  V30 9887 H 939.668 6.41255 -2.23536 0
M  V30 9888 H 937.614 6.56 0.00380893 0
M  V30 9889 H 937.531 7.40867 -1.50505 0
M  V30 9890 H 938.799 7.78586 -0.377282 0
M  V30 9891 N 943.028 0.824394 1.34319 0
M  V30 9892 C 943.975 0.245282 2.29493 0
M  V30 9893 C 944.945 -0.630762 1.53657 0
M  V30 9894 O 946.13 -0.572094 1.82021 0
M  V30 9895 C 943.27 -0.585631 3.40095 0
M  V30 9896 C 942.383 0.312821 4.30866 0
M  V30 9897 C 941.518 -0.527801 5.28571 0
M  V30 9898 C 940.557 0.369946 6.10981 0
M  V30 9899 N 939.694 -0.43169 7.00772 0
M  V30 9900 H 944.534 1.06225 2.78425 0
M  V30 9901 H 942.071 0.53533 1.37013 0
M  V30 9902 H 944.029 -1.08271 4.02906 0
M  V30 9903 H 942.659 -1.3677 2.92393 0
M  V30 9904 H 941.711 0.928129 3.68904 0
M  V30 9905 H 943.023 1.00306 4.8861 0
M  V30 9906 H 942.177 -1.0893 5.96841 0
M  V30 9907 H 940.916 -1.25154 4.71368 0
M  V30 9908 H 939.921 0.943577 5.41643 0
M  V30 9909 H 941.146 1.09182 6.70266 0
M  V30 9910 H 939.092 -1.13908 6.46035 0
M  V30 9911 H 939.009 0.200133 7.55735 0
M  V30 9912 H 940.277 -0.975894 7.73367 0
M  V30 9913 N 944.506 -1.46559 0.579492 0
M  V30 9914 C 945.436 -2.33059 -0.143437 0
M  V30 9915 C 946.417 -1.4515 -0.886868 0
M  V30 9916 O 947.602 -1.73973 -0.862961 0
M  V30 9917 C 944.732 -3.27364 -1.15973 0
M  V30 9918 C 943.686 -4.24689 -0.531348 0
M  V30 9919 C 943.012 -5.08479 -1.65388 0
M  V30 9920 C 944.312 -5.1961 0.529391 0
M  V30 9921 H 946.006 -2.93753 0.578762 0
M  V30 9922 H 943.552 -1.41256 0.279775 0
M  V30 9923 H 945.505 -3.86732 -1.67382 0
M  V30 9924 H 944.229 -2.64771 -1.91217 0
M  V30 9925 H 942.888 -3.6658 -0.0383749 0
M  V30 9926 H 942.536 -4.42273 -2.3959 0
M  V30 9927 H 942.236 -5.74387 -1.23909 0
M  V30 9928 H 943.76 -5.70709 -2.17079 0
M  V30 9929 H 945.174 -5.73212 0.100506 0
M  V30 9930 H 943.571 -5.93843 0.86432 0
M  V30 9931 H 944.641 -4.63737 1.4169 0
M  V30 9932 N 945.984 -0.3171 -1.54377 0
M  V30 9933 C 947.212 0.289558 -2.04864 0
M  V30 9934 C 947.627 1.46284 -1.19359 0
M  V30 9935 O 946.984 1.81135 -0.222795 0
M  V30 9936 C 947.035 0.730273 -3.54047 0
M  V30 9937 O 946.756 -0.396325 -4.36304 0
M  V30 9938 C 948.257 1.40041 -4.20599 0
M  V30 9939 H 945.477 0.0605836 -0.668259 0
M  V30 9940 H 948.021 -0.461411 -1.99227 0
M  V30 9941 H 946.176 1.43123 -3.59992 0
M  V30 9942 H 946.59 -0.0502901 -5.24476 0
M  V30 9943 H 948.064 1.65979 -5.26455 0
M  V30 9944 H 948.541 2.34565 -3.71316 0
M  V30 9945 H 949.147 0.742206 -4.18774 0
M  V30 9946 N 947.462 1.57535 -0.0451378 0
M  V30 9947 C 948.878 1.56533 0.311373 0
M  V30 9948 C 949.078 1.05225 1.71843 0
M  V30 9949 O 948.134 0.706144 2.42425 0
M  V30 9950 C 949.447 3.00349 0.145348 0
M  V30 9951 C 950.995 3.12248 0.216908 0
M  V30 9952 C 951.47 4.57931 0.0794834 0
M  V30 9953 N 952.961 4.63 0.135954 0
M  V30 9954 C 953.696 5.73375 0.0536426 0
M  V30 9955 N 953.192 6.92753 -0.0806725 0
M  V30 9956 N 954.985 5.61995 0.108789 0
M  V30 9957 H 947.136 1.89211 -0.965044 0
M  V30 9958 H 949.399 0.871068 -0.374091 0
M  V30 9959 H 949.105 3.41898 -0.824533 0
M  V30 9960 H 948.979 3.66086 0.908903 0
M  V30 9961 H 951.366 2.70601 1.17726 0
M  V30 9962 H 951.447 2.49201 -0.577299 0
M  V30 9963 H 951.091 5.00262 -0.877516 0
M  V30 9964 H 951.021 5.18977 0.892758 0
M  V30 9965 H 953.512 3.77142 0.23926 0
M  V30 9966 H 953.825 7.7268 -0.136351 0
M  V30 9967 H 952.17 6.94904 -0.115675 0
M  V30 9968 H 955.361 4.67619 0.212235 0
M  V30 9969 H 955.534 6.47987 0.0411822 0
M  V30 9970 N 948.94 -0.228186 1.55939 0
M  V30 9971 C 949.887 -1.28274 1.91871 0
M  V30 9972 C 950.857 -1.46906 0.775103 0
M  V30 9973 O 952.042 -1.60583 1.03042 0
M  V30 9974 C 949.182 -2.62945 2.23504 0
M  V30 9975 C 948.295 -2.52166 3.50766 0
M  V30 9976 C 947.43 -3.79316 3.71878 0
M  V30 9977 C 946.469 -3.63231 4.92676 0
M  V30 9978 N 945.606 -4.82315 5.10212 0
M  V30 9979 H 950.446 -0.96931 2.81795 0
M  V30 9980 H 947.983 -0.467331 1.39479 0
M  V30 9981 H 949.941 -3.41359 2.39854 0
M  V30 9982 H 948.571 -2.92397 1.36762 0
M  V30 9983 H 947.623 -1.65221 3.42646 0
M  V30 9984 H 948.935 -2.36199 4.39331 0
M  V30 9985 H 948.089 -4.66173 3.88288 0
M  V30 9986 H 946.828 -3.982 2.81581 0
M  V30 9987 H 945.833 -2.74757 4.76223 0
M  V30 9988 H 947.058 -3.45823 5.84451 0
M  V30 9989 H 945.004 -5.01526 4.22856 0
M  V30 9990 H 944.921 -4.6905 5.92898 0
M  V30 9991 H 946.189 -5.70618 5.31051 0
M  V30 9992 N 950.418 -1.49637 -0.494624 0
M  V30 9993 C 951.328 -1.69522 -1.62172 0
M  V30 9994 C 952.344 -0.577894 -1.64123 0
M  V30 9995 O 953.52 -0.853382 -1.82426 0
M  V30 9996 C 950.585 -1.7633 -2.9851 0
M  V30 9997 C 949.646 -2.99944 -3.07135 0
M  V30 9998 C 948.879 -3.06419 -4.36971 0
M  V30 9999 O 949.102 -2.20312 -5.26136 0
M  V30 10000 O 948.036 -3.9894 -4.507 0
M  V30 10001 H 951.862 -2.65017 -1.48324 0
M  V30 10002 H 949.447 -1.33454 -0.671603 0
M  V30 10003 H 951.329 -1.83125 -3.7953 0
M  V30 10004 H 950.004 -0.840155 -3.12607 0
M  V30 10005 H 948.911 -2.98664 -2.2528 0
M  V30 10006 H 950.244 -3.9176 -2.97968 0
M  V30 10007 N 951.896 0.746133 -1.38819 0
M  V30 10008 C 953.142 1.50768 -1.35635 0
M  V30 10009 C 953.475 1.94132 0.0512435 0
M  V30 10010 O 952.75 1.65979 1.01396 0
M  V30 10011 C 953.033 2.7551 -2.31875 0
M  V30 10012 C 952.886 2.38236 -3.81528 0
M  V30 10013 C 954.205 3.77566 -2.26124 0
M  V30 10014 H 951.324 0.546922 -0.494009 0
M  V30 10015 H 953.966 0.854017 -1.69725 0
M  V30 10016 H 952.116 3.31285 -2.02935 0
M  V30 10017 H 953.788 1.88178 -4.21173 0
M  V30 10018 H 952.031 1.70601 -3.98846 0
M  V30 10019 H 952.702 3.27517 -4.44339 0
M  V30 10020 H 955.178 3.31349 -2.51689 0
M  V30 10021 H 954.054 4.62531 -2.95561 0
M  V30 10022 H 954.315 4.23689 -1.26254 0
M  V30 10023 N 953.375 1.23811 0.975125 0
M  V30 10024 C 954.605 1.0986 1.7497 0
M  V30 10025 C 955.013 -0.352366 1.8589 0
M  V30 10026 O 954.356 -1.2553 1.34119 0
M  V30 10027 C 954.418 1.65584 3.19096 0
M  V30 10028 C 954.082 3.14395 3.3167 0
M  V30 10029 C 955.079 4.1163 3.17579 0
M  V30 10030 C 952.764 3.54208 3.56149 0
M  V30 10031 C 954.758 5.46661 3.27781 0
M  V30 10032 C 952.445 4.89382 3.65989 0
M  V30 10033 C 953.443 5.85418 3.51817 0
M  V30 10034 O 953.131 7.18135 3.61299 0
M  V30 10035 H 952.863 0.384854 0.555755 0
M  V30 10036 H 955.417 1.64242 1.23343 0
M  V30 10037 H 953.647 1.05627 3.71994 0
M  V30 10038 H 955.336 1.47032 3.78334 0
M  V30 10039 H 956.102 3.82214 2.98559 0
M  V30 10040 H 951.981 2.79968 3.66249 0
M  V30 10041 H 955.525 6.21601 3.16636 0
M  V30 10042 H 951.422 5.18473 3.84521 0
M  V30 10043 H 952.19 7.25956 3.78061 0
M  V30 10044 N 954.853 -1.17469 1.05066 0
M  V30 10045 C 956.102 -1.87032 0.755114 0
M  V30 10046 C 956.415 -1.81844 -0.720572 0
M  V30 10047 O 957.621 -2.46866 -1.13002 0
M  V30 10048 C 956.077 -3.35581 1.30052 0
M  V30 10049 C 955.685 -3.49274 2.80556 0
M  V30 10050 C 957.429 -4.1048 1.08196 0
M  V30 10051 C 955.336 -4.91838 3.28404 0
M  V30 10052 H 954.266 -0.70057 0.278779 0
M  V30 10053 H 956.917 -1.32663 1.26779 0
M  V30 10054 H 955.299 -3.89479 0.715667 0
M  V30 10055 H 956.473 -3.05598 3.44886 0
M  V30 10056 H 954.788 -2.87793 3.00939 0
M  V30 10057 H 957.385 -5.15652 1.41447 0
M  V30 10058 H 957.728 -4.16295 0.0196603 0
M  V30 10059 H 958.261 -3.62784 1.63195 0
M  V30 10060 H 955 -4.91196 4.34058 0
M  V30 10061 H 954.52 -5.36189 2.68815 0
M  V30 10062 H 956.199 -5.60602 3.23009 0
M  V30 10063 N 956.331 -0.831506 -1.3388 0
M  V30 10064 C 957.278 -0.257449 -2.2936 0
M  V30 10065 C 958.248 0.622604 -1.5399 0
M  V30 10066 O 959.433 0.562432 -1.82322 0
M  V30 10067 C 956.573 0.567587 -3.404 0
M  V30 10068 C 955.686 -0.335666 -4.30694 0
M  V30 10069 C 954.821 0.499762 -5.28844 0
M  V30 10070 C 953.86 -0.402343 -6.10776 0
M  V30 10071 N 952.997 0.39452 -7.00991 0
M  V30 10072 H 957.837 -1.077 -2.77857 0
M  V30 10073 H 955.374 -0.542589 -1.36727 0
M  V30 10074 H 957.332 1.06133 -4.03474 0
M  V30 10075 H 955.962 1.35217 -2.93115 0
M  V30 10076 H 955.014 -0.94768 -3.68406 0
M  V30 10077 H 956.326 -1.02896 -4.88072 0
M  V30 10078 H 955.48 1.05763 -5.9741 0
M  V30 10079 H 954.219 1.22652 -4.72025 0
M  V30 10080 H 953.224 -0.972288 -5.41135 0
M  V30 10081 H 954.449 -1.12735 -6.69677 0
M  V30 10082 H 952.395 1.1048 -6.4663 0
M  V30 10083 H 952.312 -0.240209 -7.55618 0
M  V30 10084 H 953.58 0.934867 -7.73874 0
M  V30 10085 N 957.809 1.4625 -0.587256 0
M  V30 10086 C 958.757 2.32076 0.156108 0
M  V30 10087 C 959.751 1.44756 0.879887 0
M  V30 10088 O 960.957 1.61356 0.797759 0
M  V30 10089 H 957.332 0.748808 0.0692098 0
M  V30 10090 H 959.303 2.9258 -0.586497 0
M  V30 10091 C 958.052 3.28008 1.15352 0
M  V30 10092 H 957.375 3.9518 0.60601 0
M  V30 10093 H 958.815 3.90832 1.64396 0
M  V30 10094 C 957.274 2.53691 2.21681 0
M  V30 10095 O 957.804 2.30329 3.29107 0
M  V30 10096 N 956.01 2.14174 1.96412 0
M  V30 10097 H 955.557 2.33374 1.09061 0
M  V30 10098 H 955.515 1.6477 2.67765 0
M  V30 10099 N 959.287 0.325282 1.54207 0
M  V30 10100 C 960.535 -0.276229 2.00203 0
M  V30 10101 C 960.856 -1.52519 1.21503 0
M  V30 10102 O 960.126 -1.93313 0.317302 0
M  V30 10103 H 958.706 -0.105059 0.739575 0
M  V30 10104 H 961.368 0.442225 1.89817 0
M  V30 10105 H 960.464 -0.531427 3.07542 0
M  V30 10106 N 960.765 -1.57509 0.0534917 0
M  V30 10107 C 962.042 -1.84137 -0.659767 0
M  V30 10108 C 962.422 -0.942362 -1.88899 0
M  V30 10109 O 961.77 -0.00398566 -2.285 0
M  V30 10110 C 961.98 -3.33919 -1.01486 0
M  V30 10111 C 963.328 -4.00989 -1.39616 0
M  V30 10112 O 964.352 -3.38557 -1.10713 0
M  V30 10113 O 963.211 -5.11071 -1.93567 0
M  V30 10114 H 960.305 -0.760081 -0.325893 0
M  V30 10115 H 962.851 -1.69497 0.0830315 0
M  V30 10116 H 961.623 -3.91046 -0.141041 0
M  V30 10117 H 961.246 -3.53755 -1.81503 0
M  V30 10118 N 962.243 0.219913 -1.56058 0
M  V30 10119 C 963.19 1.27254 -1.92549 0
M  V30 10120 C 964.16 1.46493 -0.782883 0
M  V30 10121 O 965.345 1.60035 -1.03892 0
M  V30 10122 C 962.485 2.61756 -2.24896 0
M  V30 10123 C 961.598 2.50302 -3.52098 0
M  V30 10124 C 960.733 3.77338 -3.73884 0
M  V30 10125 C 959.772 3.60613 -4.94595 0
M  V30 10126 N 958.909 4.79603 -5.12763 0
M  V30 10127 H 963.749 0.954352 -2.82305 0
M  V30 10128 H 961.286 0.459928 -1.39725 0
M  V30 10129 H 963.244 3.40082 -2.4166 0
M  V30 10130 H 961.874 2.91668 -1.38311 0
M  V30 10131 H 960.926 1.63401 -3.43517 0
M  V30 10132 H 962.238 2.33866 -4.40577 0
M  V30 10133 H 961.392 4.64108 -3.90754 0
M  V30 10134 H 960.131 3.96702 -2.83689 0
M  V30 10135 H 959.136 2.72228 -4.77674 0
M  V30 10136 H 960.361 3.42719 -5.86277 0
M  V30 10137 H 958.307 4.99277 -4.2551 0
M  V30 10138 H 958.224 4.65899 -5.95377 0
M  V30 10139 H 959.492 5.67794 -5.34069 0
M  V30 10140 N 963.721 1.49897 0.486681 0
M  V30 10141 C 964.668 1.67619 1.58658 0
M  V30 10142 C 965.638 0.517537 1.57831 0
M  V30 10143 O 966.823 0.746272 1.756 0
M  V30 10144 C 963.963 1.762 2.96728 0
M  V30 10145 C 963.076 3.03465 3.07462 0
M  V30 10146 C 962.211 3.02937 4.36351 0
M  V30 10147 C 961.25 4.24721 4.4077 0
M  V30 10148 N 960.387 4.22021 5.61108 0
M  V30 10149 H 965.227 2.61528 1.42853 0
M  V30 10150 H 962.764 1.29657 0.694807 0
M  V30 10151 H 964.722 1.79156 3.76774 0
M  V30 10152 H 963.352 0.857452 3.11203 0
M  V30 10153 H 962.404 3.10054 2.20387 0
M  V30 10154 H 963.716 3.93454 3.06586 0
M  V30 10155 H 962.87 3.04536 5.24731 0
M  V30 10156 H 961.609 2.10751 4.39813 0
M  V30 10157 H 960.614 4.23352 3.5079 0
M  V30 10158 H 961.839 5.18116 4.39013 0
M  V30 10159 H 959.785 3.3268 5.65385 0
M  V30 10160 H 959.702 5.05761 5.61909 0
M  V30 10161 H 960.97 4.27743 6.51656 0
M  V30 10162 N 965.199 -0.738761 1.39212 0
M  V30 10163 C 966.447 -1.49529 1.35962 0
M  V30 10164 C 966.768 -1.94948 -0.0450152 0
M  V30 10165 O 966.038 -1.68717 -0.995552 0
M  V30 10166 H 964.618 -0.554692 0.500326 0
M  V30 10167 H 967.28 -0.877255 1.74041 0
M  V30 10168 H 966.376 -2.37919 2.01993 0
M  V30 10169 N 966.677 -1.24326 -0.968545 0
M  V30 10170 C 967.902 -1.1104 -1.75171 0
M  V30 10171 C 968.327 0.333109 -1.85127 0
M  V30 10172 O 967.685 1.24115 -1.32156 0
M  V30 10173 C 967.733 -1.75397 -3.15068 0
M  V30 10174 O 966.837 -1.02417 -3.9948 0
M  V30 10175 H 966.178 -0.388488 -0.538491 0
M  V30 10176 H 968.708 -1.64617 -1.215 0
M  V30 10177 H 968.718 -1.8112 -3.65595 0
M  V30 10178 H 967.393 -2.80427 -3.07138 0
M  V30 10179 H 965.97 -1.04475 -3.57966 0
M  V30 10180 N 968.156 1.1691 -1.05688 0
M  V30 10181 C 969.396 1.88972 -0.779044 0
M  V30 10182 C 969.76 1.7949 0.681708 0
M  V30 10183 O 970.961 2.46418 1.07386 0
M  V30 10184 C 969.232 3.34737 -1.25242 0
M  V30 10185 S 970.791 4.24718 -1.10272 0
M  V30 10186 H 967.609 0.652349 -0.282776 0
M  V30 10187 H 970.211 1.41162 -1.35254 0
M  V30 10188 H 968.915 3.39175 -2.3106 0
M  V30 10189 H 968.446 3.87593 -0.673417 0
M  V30 10190 H 970.461 4.96191 -0.0299004 0
M  V30 10191 N 969.634 0.838594 1.33437 0
M  V30 10192 C 970.544 0.274048 2.32994 0
M  V30 10193 C 971.56 -0.599776 1.63336 0
M  V30 10194 O 972.736 -0.503963 1.94993 0
M  V30 10195 C 969.801 -0.541804 3.4244 0
M  V30 10196 C 968.862 0.356262 4.27819 0
M  V30 10197 C 968.095 -0.420747 5.32039 0
M  V30 10198 O 968.318 -1.65247 5.45939 0
M  V30 10199 O 967.252 0.205101 6.0155 0
M  V30 10200 H 971.078 1.09846 2.83139 0
M  V30 10201 H 968.663 0.601111 1.36774 0
M  V30 10202 H 970.545 -1.00544 4.0923 0
M  V30 10203 H 969.22 -1.34328 2.94513 0
M  V30 10204 H 968.127 0.867726 3.63897 0
M  V30 10205 H 969.46 1.1225 4.79229 0
M  V30 10206 N 971.112 -1.45937 0.595003 0
M  V30 10207 C 972.528 -1.57507 0.257641 0
M  V30 10208 C 972.728 -1.58829 -1.23998 0
M  V30 10209 O 971.784 -1.51183 -2.02237 0
M  V30 10210 C 973.097 -2.86354 0.917708 0
M  V30 10211 C 974.645 -3.00007 0.892446 0
M  V30 10212 C 975.12 -4.31607 1.53229 0
M  V30 10213 N 976.611 -4.38336 1.49719 0
M  V30 10214 C 977.346 -5.38805 1.96154 0
M  V30 10215 N 976.842 -6.45882 2.50617 0
M  V30 10216 N 978.635 -5.30084 1.86997 0
M  V30 10217 H 970.786 -1.43322 1.56756 0
M  V30 10218 H 973.049 -0.684436 0.655936 0
M  V30 10219 H 972.755 -2.91233 1.97171 0
M  V30 10220 H 972.629 -3.74703 0.433344 0
M  V30 10221 H 975.016 -2.94703 -0.152975 0
M  V30 10222 H 975.097 -2.13103 1.41495 0
M  V30 10223 H 974.741 -4.3767 2.57697 0
M  V30 10224 H 974.671 -5.17308 0.984903 0
M  V30 10225 H 977.162 -3.6156 1.09921 0
M  V30 10226 H 977.475 -7.18774 2.83874 0
M  V30 10227 H 975.82 -6.46668 2.54649 0
M  V30 10228 H 979.011 -4.45337 1.44196 0
M  V30 10229 H 979.184 -6.08237 2.23499 0
M  V30 10230 N 972.59 -0.333456 -1.54032 0
M  V30 10231 C 973.867 0.320902 -1.9295 0
M  V30 10232 C 974.247 1.69071 -1.26405 0
M  V30 10233 O 973.595 2.24768 -0.411311 0
M  V30 10234 C 973.805 0.403257 -3.46662 0
M  V30 10235 C 975.153 0.658875 -4.19457 0
M  V30 10236 O 976.177 0.485781 -3.52872 0
M  V30 10237 O 975.036 0.993475 -5.37394 0
M  V30 10238 H 972.13 0.185158 -0.806006 0
M  V30 10239 H 974.676 -0.383895 -1.65301 0
M  V30 10240 H 973.448 -0.558409 -3.87295 0
M  V30 10241 H 973.071 1.15524 -3.80447 0
M  V30 10242 N 974.068 1.57479 -0.061844 0
M  V30 10243 C 975.031 2.1104 0.894127 0
M  V30 10244 C 976.031 1.03227 1.23292 0
M  V30 10245 O 977.221 1.29256 1.16784 0
M  V30 10246 C 974.353 2.6035 2.20069 0
M  V30 10247 H 975.546 2.96807 0.429619 0
M  V30 10248 H 973.099 1.55181 0.18672 0
M  V30 10249 H 973.834 1.78008 2.71079 0
M  V30 10250 H 973.619 3.39146 1.9678 0
M  V30 10251 H 975.109 3.019 2.88525 0
M  V30 10252 N 975.546 -0.211634 1.56173 0
M  V30 10253 C 976.478 -1.286 1.89723 0
M  V30 10254 C 977.491 -1.42549 0.786361 0
M  V30 10255 O 978.68 -1.4327 1.06471 0
M  V30 10256 C 975.78 -2.66036 2.09948 0
M  V30 10257 C 974.953 -2.73908 3.41018 0
M  V30 10258 C 974.012 -3.92425 3.50555 0
M  V30 10259 O 973.038 -3.803 4.2351 0
M  V30 10260 N 974.24 -5.07165 2.82426 0
M  V30 10261 H 977.005 -1.00142 2.82474 0
M  V30 10262 H 974.566 -0.401633 1.56839 0
M  V30 10263 H 976.558 -3.43719 2.13634 0
M  V30 10264 H 975.128 -2.87052 1.23774 0
M  V30 10265 H 974.348 -1.82625 3.49345 0
M  V30 10266 H 975.636 -2.76145 4.27342 0
M  V30 10267 H 975.034 -5.19913 2.2295 0
M  V30 10268 H 973.591 -5.82855 2.9176 0
M  V30 10269 N 977.024 -1.50153 -0.478725 0
M  V30 10270 C 978.254 -1.64266 -1.253 0
M  V30 10271 C 978.662 -0.322256 -1.86435 0
M  V30 10272 O 978.005 0.704925 -1.69636 0
M  V30 10273 C 978.067 -2.67017 -2.40712 0
M  V30 10274 C 977.731 -4.10779 -2.00274 0
M  V30 10275 C 978.728 -4.96889 -1.52963 0
M  V30 10276 C 976.413 -4.5665 -2.09228 0
M  V30 10277 C 978.407 -6.26914 -1.15139 0
M  V30 10278 C 976.094 -5.86683 -1.71015 0
M  V30 10279 C 977.092 -6.71641 -1.24048 0
M  V30 10280 O 976.78 -7.99248 -0.863617 0
M  V30 10281 H 976.512 -0.555382 -0.385392 0
M  V30 10282 H 979.066 -1.97078 -0.578751 0
M  V30 10283 H 977.296 -2.29432 -3.11284 0
M  V30 10284 H 978.985 -2.70428 -3.02694 0
M  V30 10285 H 979.751 -4.62669 -1.45474 0
M  V30 10286 H 975.63 -3.90674 -2.44735 0
M  V30 10287 H 979.174 -6.93179 -0.784089 0
M  V30 10288 H 975.071 -6.20426 -1.78162 0
M  V30 10289 H 975.839 -8.12452 -0.993139 0
M  V30 10290 N 978.502 0.731368 -1.39602 0
M  V30 10291 C 979.465 1.8271 -1.38383 0
M  V30 10292 C 980.465 1.58338 -0.280309 0
M  V30 10293 O 981.655 1.65671 -0.538402 0
M  V30 10294 C 978.787 3.20556 -1.16002 0
M  V30 10295 H 979.98 1.85193 -2.35889 0
M  V30 10296 H 977.533 0.935396 -1.2522 0
M  V30 10297 H 978.268 3.23732 -0.191927 0
M  V30 10298 H 978.053 3.39643 -1.9592 0
M  V30 10299 H 979.543 4.00612 -1.17899 0
M  V30 10300 N 979.98 1.24838 0.961938 0
M  V30 10301 C 981.391 1.08369 1.5203 0
M  V30 10302 C 981.742 -0.343005 1.93178 0
M  V30 10303 O 980.867 -1.2321 1.779 0
M  V30 10304 C 981.462 1.96102 2.76278 0
M  V30 10305 C 980.021 1.8384 3.28451 0
M  V30 10306 C 979.168 1.9069 2.01327 0
M  V30 10307 H 982.119 1.38231 0.779613 0
M  V30 10308 H 982.14 1.4967 3.49827 0
M  V30 10309 H 981.652 2.99931 2.46298 0
M  V30 10310 H 979.753 0.828653 3.63269 0
M  V30 10311 H 979.866 2.68251 3.96961 0
M  V30 10312 H 978.23 1.34488 2.16299 0
M  V30 10313 H 979.013 2.96111 1.73705 0
M  V30 10314 N 981.458 -1.16348 1.06306 0
M  V30 10315 C 982.706 -1.86512 0.778311 0
M  V30 10316 C 983.027 -1.82107 -0.697273 0
M  V30 10317 O 982.297 -1.2547 -1.50446 0
M  V30 10318 H 980.877 -0.690529 0.284919 0
M  V30 10319 H 983.539 -1.41092 1.34458 0
M  V30 10320 H 982.635 -2.91947 1.10333 0
M  V30 10321 N 982.937 -0.845659 -1.3299 0
M  V30 10322 C 984.167 -0.457686 -2.01467 0
M  V30 10323 C 984.575 0.947664 -1.63756 0
M  V30 10324 O 983.918 1.62841 -0.850213 0
M  V30 10325 C 983.98 -0.506589 -3.55913 0
M  V30 10326 C 983.644 -1.86924 -4.17023 0
M  V30 10327 C 984.641 -2.83344 -4.35904 0
M  V30 10328 C 982.326 -2.16394 -4.53298 0
M  V30 10329 C 984.32 -4.07391 -4.90216 0
M  V30 10330 C 982.007 -3.40695 -5.07316 0
M  V30 10331 C 983.005 -4.3601 -5.25722 0
M  V30 10332 O 982.693 -5.58112 -5.7859 0
M  V30 10333 H 982.425 -0.179258 -0.651799 0
M  V30 10334 H 984.979 -1.14172 -1.70745 0
M  V30 10335 H 983.209 0.234253 -3.8599 0
M  V30 10336 H 984.898 -0.135487 -4.05674 0
M  V30 10337 H 985.664 -2.61879 -4.08221 0
M  V30 10338 H 981.543 -1.42994 -4.38262 0
M  V30 10339 H 985.087 -4.81796 -5.04498 0
M  V30 10340 H 980.984 -3.62014 -5.3443 0
M  V30 10341 H 981.752 -5.59946 -5.96995 0
M  V30 10342 N 984.415 1.45619 -0.602734 0
M  V30 10343 C 985.692 1.9558 -0.0282472 0
M  V30 10344 C 986.072 1.54523 1.43826 0
M  V30 10345 O 985.42 0.805456 2.13833 0
M  V30 10346 C 985.63 3.48298 -0.221263 0
M  V30 10347 C 986.978 4.24483 -0.0995249 0
M  V30 10348 O 988.002 3.55879 -0.151132 0
M  V30 10349 O 986.861 5.46497 0.0194454 0
M  V30 10350 H 983.955 0.826104 0.0384897 0
M  V30 10351 H 986.501 1.55808 -0.672456 0
M  V30 10352 H 985.273 3.71134 -1.23997 0
M  V30 10353 H 984.896 3.94948 0.458437 0
M  V30 10354 N 985.893 0.34162 1.53853 0
M  V30 10355 C 986.84 -0.516058 2.24957 0
M  V30 10356 C 987.81 -1.09711 1.2471 0
M  V30 10357 O 988.995 -1.13409 1.53438 0
M  V30 10358 C 986.135 -1.66207 3.02439 0
M  V30 10359 C 985.248 -1.10851 4.17536 0
M  V30 10360 C 984.383 -2.22167 4.82509 0
M  V30 10361 C 983.422 -1.64152 5.89678 0
M  V30 10362 N 982.559 -2.69203 6.4844 0
M  V30 10363 H 987.399 0.0968275 2.97843 0
M  V30 10364 H 984.936 0.0595565 1.46979 0
M  V30 10365 H 986.894 -2.33672 3.4562 0
M  V30 10366 H 985.524 -2.24597 2.31853 0
M  V30 10367 H 984.576 -0.324853 3.7901 0
M  V30 10368 H 985.888 -0.644151 4.94623 0
M  V30 10369 H 985.042 -2.97501 5.28751 0
M  V30 10370 H 983.781 -2.71946 4.04842 0
M  V30 10371 H 982.786 -0.873228 5.42821 0
M  V30 10372 H 984.011 -1.15228 6.69253 0
M  V30 10373 H 981.957 -3.1824 5.73637 0
M  V30 10374 H 981.874 -2.27383 7.20994 0
M  V30 10375 H 983.142 -3.44312 6.99335 0
M  V30 10376 N 987.371 -1.57444 0.0701946 0
M  V30 10377 C 988.617 -1.93716 -0.600178 0
M  V30 10378 C 988.95 -0.950329 -1.69359 0
M  V30 10379 O 988.225 0.0207123 -1.94489 0
M  V30 10380 C 988.508 -3.40266 -1.17861 0
M  V30 10381 C 988.361 -4.49706 -0.0919575 0
M  V30 10382 C 989.68 -3.87599 -2.08459 0
M  V30 10383 H 986.799 -0.704421 -0.216704 0
M  V30 10384 H 989.441 -1.89514 0.135838 0
M  V30 10385 H 987.591 -3.43977 -1.80587 0
M  V30 10386 H 989.263 -4.58116 0.541031 0
M  V30 10387 H 987.506 -4.29937 0.577639 0
M  V30 10388 H 988.177 -5.49381 -0.537048 0
M  V30 10389 H 990.653 -3.85883 -1.5567 0
M  V30 10390 H 989.529 -4.90755 -2.45867 0
M  V30 10391 H 989.79 -3.25448 -2.99226 0
M  V30 10392 N 988.849 0.203349 -1.56283 0
M  V30 10393 C 989.796 1.25205 -1.93888 0
M  V30 10394 C 990.766 1.45654 -0.798376 0
M  V30 10395 O 991.951 1.58924 -1.05583 0
M  V30 10396 C 989.091 2.59355 -2.27659 0
M  V30 10397 C 988.204 2.46553 -3.54733 0
M  V30 10398 C 987.339 3.73351 -3.77865 0
M  V30 10399 C 986.378 3.55347 -4.98392 0
M  V30 10400 N 985.515 4.74137 -5.17821 0
M  V30 10401 H 990.355 0.924356 -2.83301 0
M  V30 10402 H 987.892 0.445082 -1.40205 0
M  V30 10403 H 989.85 3.375 -2.45254 0
M  V30 10404 H 988.48 2.90184 -1.41396 0
M  V30 10405 H 987.532 1.59749 -3.45231 0
M  V30 10406 H 988.844 2.2918 -4.43033 0
M  V30 10407 H 987.998 4.59937 -3.95655 0
M  V30 10408 H 986.737 3.9367 -2.8788 0
M  V30 10409 H 985.742 2.67146 -4.80534 0
M  V30 10410 H 986.967 3.36482 -5.89879 0
M  V30 10411 H 984.913 4.94735 -4.30782 0
M  V30 10412 H 984.83 4.59558 -6.00285 0
M  V30 10413 H 986.098 5.62098 -5.40061 0
M  V30 10414 N 990.327 1.50405 0.470755 0
M  V30 10415 C 991.604 1.51929 1.23195 0
M  V30 10416 C 991.984 0.264159 2.09441 0
M  V30 10417 O 991.332 -0.752395 2.15757 0
M  V30 10418 C 991.542 2.81521 2.06269 0
M  V30 10419 C 992.89 3.32195 2.64446 0
M  V30 10420 O 993.914 2.82845 2.16511 0
M  V30 10421 O 992.773 4.18221 3.51786 0
M  V30 10422 H 989.867 0.609411 0.559059 0
M  V30 10423 H 992.413 1.62695 0.482549 0
M  V30 10424 H 991.185 3.64346 1.42715 0
M  V30 10425 H 990.808 2.7376 2.88342 0
M  V30 10426 N 991.805 -0.723954 1.39988 0
M  V30 10427 C 993.054 -1.47922 1.3712 0
M  V30 10428 C 993.367 -1.95582 -0.0263665 0
M  V30 10429 O 994.573 -2.70918 -0.177652 0
M  V30 10430 C 993.029 -2.67342 2.40949 0
M  V30 10431 C 992.637 -2.26586 3.86475 0
M  V30 10432 C 994.381 -3.45116 2.47174 0
M  V30 10433 C 992.288 -3.42794 4.81919 0
M  V30 10434 H 991.218 -0.555522 0.509815 0
M  V30 10435 H 993.869 -0.788692 1.65686 0
M  V30 10436 H 992.251 -3.38524 2.0547 0
M  V30 10437 H 993.425 -1.62878 4.31054 0
M  V30 10438 H 991.74 -1.61876 3.83647 0
M  V30 10439 H 994.337 -4.31573 3.15672 0
M  V30 10440 H 994.68 -3.8835 1.49966 0
M  V30 10441 H 995.213 -2.80971 2.81602 0
M  V30 10442 H 991.952 -3.046 5.8043 0
M  V30 10443 H 991.472 -4.05445 4.42012 0
M  V30 10444 H 993.151 -4.08977 5.01345 0
M  V30 10445 N 993.283 -1.25346 -0.955304 0
M  V30 10446 C 994.508 -1.12892 -1.73983 0
M  V30 10447 C 994.933 0.313455 -1.8547 0
M  V30 10448 O 994.291 1.22706 -1.33465 0
M  V30 10449 C 994.339 -1.78729 -3.1319 0
M  V30 10450 O 993.443 -1.06648 -3.98372 0
M  V30 10451 H 992.784 -0.394178 -0.534341 0
M  V30 10452 H 995.314 -1.65897 -1.19747 0
M  V30 10453 H 995.324 -1.84987 -3.63653 0
M  V30 10454 H 993.999 -2.83669 -3.04146 0
M  V30 10455 H 992.576 -1.08266 -3.56837 0
M  V30 10456 N 994.761 1.15782 -1.06922 0
M  V30 10457 C 995.671 2.24008 -0.696948 0
M  V30 10458 C 996.687 1.71569 0.289862 0
M  V30 10459 O 997.863 2.00929 0.137585 0
M  V30 10460 C 994.928 3.46568 -0.0957895 0
M  V30 10461 C 993.989 4.14017 -1.13528 0
M  V30 10462 C 993.222 5.30725 -0.562713 0
M  V30 10463 O 993.445 5.66992 0.62259 0
M  V30 10464 O 992.379 5.87572 -1.30549 0
M  V30 10465 H 996.205 2.58174 -1.59938 0
M  V30 10466 H 993.79 1.2342 -0.841889 0
M  V30 10467 H 995.672 4.20731 0.237407 0
M  V30 10468 H 994.347 3.14161 0.780027 0
M  V30 10469 H 993.254 3.41795 -1.52076 0
M  V30 10470 H 994.587 4.50493 -1.98285 0
M  V30 10471 N 996.239 0.8527 1.3254 0
M  V30 10472 C 997.485 0.455798 1.97612 0
M  V30 10473 C 997.818 -0.985616 1.6733 0
M  V30 10474 O 997.093 -1.69129 0.960493 0
M  V30 10475 C 997.376 0.69312 3.53366 0
M  V30 10476 C 997.229 2.18281 3.93285 0
M  V30 10477 C 998.548 0.148236 4.3985 0
M  V30 10478 H 995.667 0.167078 0.717812 0
M  V30 10479 H 998.309 1.07076 1.56954 0
M  V30 10480 H 996.459 0.169677 3.88129 0
M  V30 10481 H 998.131 2.77218 3.68711 0
M  V30 10482 H 996.374 2.66206 3.42515 0
M  V30 10483 H 997.045 2.29957 5.01821 0
M  V30 10484 H 999.521 0.595834 4.11812 0
M  V30 10485 H 998.397 0.343873 5.47822 0
M  V30 10486 H 998.658 -0.948872 4.31797 0
M  V30 10487 N 997.718 -1.45297 0.610449 0
M  V30 10488 C 998.964 -2.02518 0.106917 0
M  V30 10489 C 999.297 -1.47747 -1.26034 0
M  V30 10490 O 998.572 -0.65329 -1.832 0
M  V30 10491 C 998.855 -3.6003 0.0710975 0
M  V30 10492 C 998.708 -4.25128 1.46922 0
M  V30 10493 C 1000.03 -4.35778 -0.61524 0
M  V30 10494 H 997.146 -0.735896 0.040327 0
M  V30 10495 H 999.788 -1.73117 0.782968 0
M  V30 10496 H 997.938 -3.85209 -0.504611 0
M  V30 10497 H 999.61 -4.11125 2.09223 0
M  V30 10498 H 997.853 -3.83418 2.02911 0
M  V30 10499 H 998.524 -5.34046 1.39637 0
M  V30 10500 H 1001 -4.1591 -0.125871 0
M  V30 10501 H 999.876 -5.45506 -0.609419 0
M  V30 10502 H 1000.14 -4.08859 -1.68186 0
M  V30 10503 N 999.196 -0.349774 -1.5367 0
M  V30 10504 C 1000.42 0.246038 -2.05432 0
M  V30 10505 C 1000.84 1.43719 -1.22435 0
M  V30 10506 O 1000.2 1.80622 -0.261166 0
M  V30 10507 C 1000.25 0.65501 -3.55516 0
M  V30 10508 O 999.968 -0.488782 -4.35365 0
M  V30 10509 C 1001.47 1.31088 -4.23475 0
M  V30 10510 H 998.689 0.0463952 -0.669394 0
M  V30 10511 H 1001.23 -0.503566 -1.98203 0
M  V30 10512 H 999.388 1.35455 -3.62947 0
M  V30 10513 H 999.802 -0.161528 -5.24251 0
M  V30 10514 H 1001.28 1.54774 -5.29857 0
M  V30 10515 H 1001.75 2.26636 -3.76208 0
M  V30 10516 H 1002.36 0.653211 -4.20254 0
M  V30 10517 N 1000.67 1.57404 -0.0785433 0
M  V30 10518 C 1002.08 1.81118 0.45311 0
M  V30 10519 C 1002.44 0.992963 1.69218 0
M  V30 10520 O 1001.56 0.217448 2.15305 0
M  V30 10521 C 1002.16 3.28506 0.82882 0
M  V30 10522 C 1000.71 3.53042 1.3053 0
M  V30 10523 C 999.862 2.75739 0.29378 0
M  V30 10524 H 1002.81 1.55758 -0.304171 0
M  V30 10525 H 1002.83 3.40924 1.68971 0
M  V30 10526 H 1002.35 3.88031 -0.0731826 0
M  V30 10527 H 1000.45 2.98829 2.22558 0
M  V30 10528 H 1000.56 4.61724 1.27857 0
M  V30 10529 H 998.924 2.42703 0.772477 0
M  V30 10530 H 999.707 3.38005 -0.600613 0
M  V30 10531 N 1002.15 -0.195058 1.56388 0
M  V30 10532 C 1003.57 -0.545894 1.49974 0
M  V30 10533 C 1003.77 -1.85851 0.778568 0
M  V30 10534 O 1002.82 -2.50346 0.329105 0
M  V30 10535 C 1004.14 -0.600599 2.94641 0
M  V30 10536 C 1005.68 -0.689429 3.05313 0
M  V30 10537 C 1006.16 -0.775243 4.51391 0
M  V30 10538 N 1007.65 -0.838769 4.55542 0
M  V30 10539 C 1008.39 -0.925337 5.65884 0
M  V30 10540 N 1007.88 -0.974204 6.85916 0
M  V30 10541 N 1009.67 -0.962528 5.53798 0
M  V30 10542 H 1001.83 0.66595 2.0169 0
M  V30 10543 H 1004.09 0.237215 0.917842 0
M  V30 10544 H 1003.79 0.29478 3.50462 0
M  V30 10545 H 1003.67 -1.45528 3.47996 0
M  V30 10546 H 1006.06 -1.57524 2.4954 0
M  V30 10547 H 1006.14 0.191451 2.55083 0
M  V30 10548 H 1005.78 0.106215 5.07789 0
M  V30 10549 H 1005.71 -1.67193 4.99354 0
M  V30 10550 H 1008.2 -0.810249 3.69112 0
M  V30 10551 H 1008.51 -1.04077 7.6576 0
M  V30 10552 H 1006.86 -0.942881 6.88574 0
M  V30 10553 H 1010.05 -0.921188 4.58946 0
M  V30 10554 H 1010.22 -1.02653 6.39817 0
M  V30 10555 N 1003.63 -1.50653 -0.462772 0
M  V30 10556 C 1004.88 -1.62057 -1.21424 0
M  V30 10557 C 1005.2 -0.324778 -1.91769 0
M  V30 10558 O 1004.46 0.689828 -1.83139 0
M  V30 10559 C 1004.76 -2.75637 -2.27507 0
M  V30 10560 C 1004.42 -4.15826 -1.74354 0
M  V30 10561 C 1003.09 -4.53969 -1.5958 0
M  V30 10562 C 1005.44 -5.03409 -1.35012 0
M  V30 10563 C 1002.77 -5.77427 -1.03899 0
M  V30 10564 C 1005.12 -6.27422 -0.807704 0
M  V30 10565 C 1003.78 -6.6436 -0.646657 0
M  V30 10566 H 1003.05 -0.59301 -0.44432 0
M  V30 10567 H 1005.7 -1.84612 -0.508999 0
M  V30 10568 H 1004 -2.47203 -3.0397 0
M  V30 10569 H 1005.7 -2.81663 -2.85424 0
M  V30 10570 H 1002.29 -3.85739 -1.86823 0
M  V30 10571 H 1006.48 -4.74567 -1.45258 0
M  V30 10572 H 1001.73 -6.04713 -0.901751 0
M  V30 10573 H 1005.91 -6.94644 -0.494234 0
M  V30 10574 H 1003.53 -7.59901 -0.213053 0
M  V30 10575 N 1005.11 0.71652 -1.4037 0
M  V30 10576 C 1006.04 1.84345 -1.43315 0
M  V30 10577 C 1007.02 1.67537 -0.294186 0
M  V30 10578 O 1008.2 1.87582 -0.502671 0
M  V30 10579 C 1005.33 3.2229 -1.29408 0
M  V30 10580 C 1004.29 3.53769 -2.40897 0
M  V30 10581 C 1003.61 4.90847 -2.12068 0
M  V30 10582 C 1004.91 3.54862 -3.83237 0
M  V30 10583 H 1006.61 1.82138 -2.37626 0
M  V30 10584 H 1004.15 0.874873 -1.14376 0
M  V30 10585 H 1006.11 4.00819 -1.30085 0
M  V30 10586 H 1004.83 3.2507 -0.31573 0
M  V30 10587 H 1003.49 2.77579 -2.39469 0
M  V30 10588 H 1003.14 4.90229 -1.12626 0
M  V30 10589 H 1002.84 5.12875 -2.86762 0
M  V30 10590 H 1004.36 5.71711 -2.14426 0
M  V30 10591 H 1005.78 4.23432 -3.86494 0
M  V30 10592 H 1004.17 3.88416 -4.57442 0
M  V30 10593 H 1005.24 2.54266 -4.12888 0
M  V30 10594 N 1006.59 1.25851 0.948643 0
M  V30 10595 C 1007.83 1.12166 1.70874 0
M  V30 10596 C 1008.19 -0.330734 1.8913 0
M  V30 10597 O 1009.39 -0.58954 2.62255 0
M  V30 10598 C 1007.66 1.86162 3.05088 0
M  V30 10599 S 1009.22 1.88441 3.96277 0
M  V30 10600 H 1006.04 0.400803 0.587263 0
M  V30 10601 H 1008.64 1.59463 1.13101 0
M  V30 10602 H 1007.35 2.90916 2.89476 0
M  V30 10603 H 1006.88 1.39276 3.67921 0
M  V30 10604 H 1008.89 0.96575 4.86711 0
M  V30 10605 N 1008.06 -1.15214 1.07534 0
M  V30 10606 C 1009.29 -1.89922 0.820804 0
M  V30 10607 C 1009.71 -1.78114 -0.626177 0
M  V30 10608 O 1009.06 -1.13435 -1.42964 0
M  V30 10609 C 1009.12 -3.40207 1.22236 0
M  V30 10610 O 1008.84 -3.51676 2.61257 0
M  V30 10611 C 1010.34 -4.31934 0.997393 0
M  V30 10612 H 1007.56 -0.601865 0.296647 0
M  V30 10613 H 1010.1 -1.45965 1.43229 0
M  V30 10614 H 1008.26 -3.8182 0.655167 0
M  V30 10615 H 1008.67 -4.44959 2.77689 0
M  V30 10616 H 1010.14 -5.35791 1.32785 0
M  V30 10617 H 1010.62 -4.3915 -0.0661599 0
M  V30 10618 H 1011.23 -3.96066 1.54958 0
M  V30 10619 N 1009.54 -0.859717 -1.32086 0
M  V30 10620 C 1010.79 -0.464662 -1.96686 0
M  V30 10621 C 1011.11 0.98412 -1.68345 0
M  V30 10622 O 1010.38 1.68847 -0.993361 0
M  V30 10623 H 1008.96 -0.168838 -0.727669 0
M  V30 10624 H 1011.62 -1.09726 -1.61079 0
M  V30 10625 H 1010.72 -0.613904 -3.06003 0
M  V30 10626 N 1011.02 1.44971 -0.618145 0
M  V30 10627 C 1012.27 2.0176 -0.11725 0
M  V30 10628 C 1012.59 1.48773 1.26062 0
M  V30 10629 O 1011.86 0.686152 1.83491 0
M  V30 10630 H 1010.44 0.745909 -0.0403545 0
M  V30 10631 H 1013.1 1.77638 -0.801923 0
M  V30 10632 H 1012.2 3.1201 -0.0750477 0
M  V30 10633 N 1012.5 0.357919 1.53482 0
M  V30 10634 C 1013.74 -0.23451 2.0144 0
M  V30 10635 C 1014.08 -1.49044 1.24497 0
M  V30 10636 O 1013.35 -1.91566 0.336535 0
M  V30 10637 C 1013.64 -0.534193 3.56116 0
M  V30 10638 C 1013.49 0.734834 4.43757 0
M  V30 10639 C 1014.81 -1.33793 4.1927 0
M  V30 10640 H 1011.93 -0.0837595 0.732225 0
M  V30 10641 H 1014.57 0.481297 1.83803 0
M  V30 10642 H 1012.72 -1.144 3.71275 0
M  V30 10643 H 1014.39 1.37251 4.40409 0
M  V30 10644 H 1012.63 1.35678 4.12036 0
M  V30 10645 H 1013.3 0.48021 5.49907 0
M  V30 10646 H 1015.78 -0.822158 4.07897 0
M  V30 10647 H 1014.66 -1.51636 5.27539 0
M  V30 10648 H 1014.92 -2.34423 3.74831 0
M  V30 10649 N 1013.98 -1.5736 0.0868897 0
M  V30 10650 C 1015.2 -1.98809 -0.590757 0
M  V30 10651 C 1015.63 -0.965407 -1.61436 0
M  V30 10652 O 1014.98 0.067143 -1.81176 0
M  V30 10653 C 1015.03 -3.39249 -1.22238 0
M  V30 10654 O 1014.14 -3.39706 -2.33824 0
M  V30 10655 H 1013.48 -0.64669 -0.150626 0
M  V30 10656 H 1016.01 -2.03927 0.165873 0
M  V30 10657 H 1016.02 -3.76765 -1.56564 0
M  V30 10658 H 1014.69 -4.13208 -0.472434 0
M  V30 10659 H 1013.27 -3.13977 -2.01178 0
M  V30 10660 N 1015.45 0.186762 -1.56489 0
M  V30 10661 C 1016.87 0.750675 -1.70944 0
M  V30 10662 C 1017.22 1.83483 -0.694858 0
M  V30 10663 O 1016.34 2.159 0.147009 0
M  V30 10664 C 1016.94 1.36843 -3.09934 0
M  V30 10665 C 1015.5 1.87934 -3.26125 0
M  V30 10666 C 1014.64 0.75242 -2.66897 0
M  V30 10667 H 1017.59 -0.0384292 -1.58653 0
M  V30 10668 H 1017.61 2.23795 -3.07727 0
M  V30 10669 H 1017.13 0.579135 -3.83755 0
M  V30 10670 H 1015.23 2.69556 -2.57235 0
M  V30 10671 H 1015.34 2.0354 -4.33715 0
M  V30 10672 H 1013.7 1.16888 -2.26295 0
M  V30 10673 H 1014.49 -0.0247769 -3.43291 0
M  V30 10674 N 1016.93 1.50896 0.454776 0
M  V30 10675 C 1018.16 1.66239 1.22671 0
M  V30 10676 C 1018.57 0.351876 1.85899 0
M  V30 10677 O 1017.91 -0.677848 1.70736 0
M  V30 10678 C 1017.98 2.70812 2.36434 0
M  V30 10679 C 1017.64 4.13913 1.93714 0
M  V30 10680 C 1018.64 4.99259 1.45039 0
M  V30 10681 C 1016.32 4.59921 2.01937 0
M  V30 10682 C 1018.32 6.28667 1.05151 0
M  V30 10683 C 1016 5.89329 1.6166 0
M  V30 10684 C 1017 6.73529 1.13347 0
M  V30 10685 O 1016.69 8.0052 0.736354 0
M  V30 10686 H 1016.42 0.561443 0.376508 0
M  V30 10687 H 1018.97 1.97974 0.547325 0
M  V30 10688 H 1017.2 2.34355 3.07595 0
M  V30 10689 H 1018.89 2.7521 2.98353 0
M  V30 10690 H 1019.66 4.64925 1.38095 0
M  V30 10691 H 1015.54 3.94518 2.38488 0
M  V30 10692 H 1019.08 6.94339 0.673711 0
M  V30 10693 H 1014.98 6.23182 1.68269 0
M  V30 10694 H 1015.75 8.1393 0.863759 0
M  V30 10695 N 1018.41 -0.709066 1.40748 0
M  V30 10696 C 1019.37 -1.80485 1.41272 0
M  V30 10697 C 1020.37 -1.57872 0.305463 0
M  V30 10698 O 1021.56 -1.64793 0.564691 0
M  V30 10699 C 1018.7 -3.1867 1.21087 0
M  V30 10700 H 1019.89 -1.81417 2.38805 0
M  V30 10701 H 1017.44 -0.915356 1.26692 0
M  V30 10702 H 1018.18 -3.23385 0.243406 0
M  V30 10703 H 1017.96 -3.36484 2.01299 0
M  V30 10704 H 1019.45 -3.98685 1.24257 0
M  V30 10705 N 1019.89 -1.26353 -0.941956 0
M  V30 10706 C 1021.17 -1.02601 -1.6653 0
M  V30 10707 C 1021.55 0.44381 -2.06382 0
M  V30 10708 O 1020.89 1.42399 -1.78703 0
M  V30 10709 C 1021.1 -1.97401 -2.87809 0
M  V30 10710 C 1022.45 -2.25967 -3.59478 0
M  V30 10711 O 1023.48 -1.95261 -2.97912 0
M  V30 10712 O 1022.34 -2.78244 -4.70364 0
M  V30 10713 H 1019.43 -0.39007 -0.729228 0
M  V30 10714 H 1021.98 -1.37559 -0.993754 0
M  V30 10715 H 1020.75 -2.9659 -2.55245 0
M  V30 10716 H 1020.37 -1.62918 -3.62689 0
M  V30 10717 N 1021.37 1.14642 -1.08144 0
M  V30 10718 C 1022.78 1.6719 -0.830923 0
M  V30 10719 C 1023.13 1.85373 0.642749 0
M  V30 10720 O 1022.25 1.56293 1.49671 0
M  V30 10721 C 1022.85 3.03697 -1.50179 0
M  V30 10722 C 1021.41 3.5329 -1.29858 0
M  V30 10723 C 1020.56 2.28828 -1.5663 0
M  V30 10724 H 1023.51 0.987441 -1.24239 0
M  V30 10725 H 1023.53 3.69023 -0.9275 0
M  V30 10726 H 1023.04 2.90431 -2.57432 0
M  V30 10727 H 1021.14 3.71783 -0.246626 0
M  V30 10728 H 1021.25 4.34231 -2.02436 0
M  V30 10729 H 1019.62 2.34769 -0.987716 0
M  V30 10730 H 1020.4 2.18141 -2.65084 0
M  V30 10731 N 1022.85 0.866709 1.31628 0
M  V30 10732 C 1023.79 0.309128 2.30537 0
M  V30 10733 C 1024.79 -0.574028 1.59378 0
M  V30 10734 O 1025.99 -0.460491 1.7401 0
M  V30 10735 H 1022.37 0.081279 0.747595 0
M  V30 10736 H 1024.34 1.15734 2.75042 0
M  V30 10737 C 1023.09 -0.477287 3.44409 0
M  V30 10738 H 1022.41 0.19301 3.99334 0
M  V30 10739 H 1023.85 -0.832818 4.1574 0
M  V30 10740 C 1022.31 -1.66727 2.92752 0
M  V30 10741 O 1022.84 -2.76654 2.91248 0
M  V30 10742 N 1021.05 -1.49833 2.48995 0
M  V30 10743 H 1020.59 -0.604073 2.50417 0
M  V30 10744 H 1020.55 -2.29594 2.14788 0
M  V30 10745 N 1024.32 -1.44642 0.625825 0
M  V30 10746 C 1025.55 -2.06458 0.135116 0
M  V30 10747 C 1025.97 -1.46729 -1.18811 0
M  V30 10748 O 1025.32 -0.58818 -1.72762 0
M  V30 10749 C 1025.37 -3.61499 0.00850114 0
M  V30 10750 O 1025.1 -4.19002 1.2794 0
M  V30 10751 C 1026.6 -4.40339 -0.511527 0
M  V30 10752 H 1023.82 -0.666541 0.0772294 0
M  V30 10753 H 1026.36 -1.85597 0.858726 0
M  V30 10754 H 1024.52 -3.81641 -0.665522 0
M  V30 10755 H 1024.93 -5.12385 1.12081 0
M  V30 10756 H 1026.4 -5.49262 -0.549149 0
M  V30 10757 H 1026.88 -4.11409 -1.53752 0
M  V30 10758 H 1027.49 -4.25104 0.129066 0
M  V30 10759 N 1025.8 -0.366053 -1.5329 0
M  V30 10760 C 1027.04 0.223558 -2.03174 0
M  V30 10761 C 1027.41 1.45955 -1.24745 0
M  V30 10762 O 1028.61 2.12481 -1.64637 0
M  V30 10763 C 1026.88 0.507899 -3.53773 0
M  V30 10764 S 1028.44 1.07111 -4.25526 0
M  V30 10765 H 1025.25 0.0650309 -0.70802 0
M  V30 10766 H 1027.86 -0.509028 -1.88757 0
M  V30 10767 H 1026.56 -0.39913 -4.08455 0
M  V30 10768 H 1026.09 1.26954 -3.72352 0
M  V30 10769 H 1028.11 2.35533 -4.36737 0
M  V30 10770 N 1027.28 1.57312 -0.0952337 0
M  V30 10771 C 1028.7 1.57445 0.261416 0
M  V30 10772 C 1028.9 1.10639 1.68408 0
M  V30 10773 O 1027.95 0.782912 2.40056 0
M  V30 10774 C 1029.26 3.00659 0.0497206 0
M  V30 10775 C 1030.81 3.1278 0.117459 0
M  V30 10776 C 1031.29 4.57952 -0.0662441 0
M  V30 10777 N 1032.78 4.63199 -0.0114146 0
M  V30 10778 C 1033.51 5.73255 -0.128799 0
M  V30 10779 N 1033.01 6.92146 -0.301026 0
M  V30 10780 N 1034.8 5.62056 -0.0700599 0
M  V30 10781 H 1026.95 1.86045 -1.02475 0
M  V30 10782 H 1029.22 0.858726 -0.401614 0
M  V30 10783 H 1028.92 3.39102 -0.932888 0
M  V30 10784 H 1028.8 3.68792 0.791975 0
M  V30 10785 H 1031.18 2.74209 1.09057 0
M  V30 10786 H 1031.26 2.47238 -0.656288 0
M  V30 10787 H 1030.91 4.97217 -1.03623 0
M  V30 10788 H 1030.84 5.21555 0.727198 0
M  V30 10789 H 1033.33 3.77712 0.119154 0
M  V30 10790 H 1033.64 7.71855 -0.382104 0
M  V30 10791 H 1031.99 6.94184 -0.336695 0
M  V30 10792 H 1035.18 4.68057 0.0633587 0
M  V30 10793 H 1035.35 6.4779 -0.164991 0
M  V30 10794 N 1028.76 -0.17846 1.56586 0
M  V30 10795 C 1030.01 -0.894464 1.81228 0
M  V30 10796 C 1030.33 -1.83089 0.671062 0
M  V30 10797 O 1029.6 -1.93439 -0.309557 0
M  V30 10798 H 1028.18 -0.333288 0.668527 0
M  V30 10799 H 1030.84 -0.179986 1.94067 0
M  V30 10800 H 1029.93 -1.47565 2.75011 0
M  V30 10801 N 1030.24 -1.51135 -0.446768 0
M  V30 10802 C 1031.51 -1.5387 -1.20762 0
M  V30 10803 C 1031.89 -0.297446 -2.08994 0
M  V30 10804 O 1031.24 0.717975 -2.16927 0
M  V30 10805 C 1031.45 -2.84767 -2.01764 0
M  V30 10806 C 1032.8 -3.3636 -2.59128 0
M  V30 10807 O 1033.82 -2.86254 -2.11984 0
M  V30 10808 O 1032.68 -4.23765 -3.45088 0
M  V30 10809 H 1029.78 -0.618228 -0.549293 0
M  V30 10810 H 1032.32 -1.63442 -0.456605 0
M  V30 10811 H 1031.09 -3.6657 -1.36901 0
M  V30 10812 H 1030.72 -2.78313 -2.8395 0
M  V30 10813 N 1031.71 0.701592 -1.41122 0
M  V30 10814 C 1032.94 1.49553 -1.43696 0
M  V30 10815 C 1033.36 1.88053 -0.0421865 0
M  V30 10816 O 1032.72 1.54223 0.953144 0
M  V30 10817 C 1032.77 2.73834 -2.34622 0
M  V30 10818 O 1031.87 3.71088 -1.7991 0
M  V30 10819 H 1031.21 0.450352 -0.487933 0
M  V30 10820 H 1033.74 0.862886 -1.85514 0
M  V30 10821 H 1033.75 3.22209 -2.5029 0
M  V30 10822 H 1032.43 2.45149 -3.35969 0
M  V30 10823 H 1031.01 3.29994 -1.73661 0
M  V30 10824 N 1033.19 1.2685 0.935242 0
M  V30 10825 C 1034.44 1.12522 1.67878 0
M  V30 10826 C 1034.76 -0.330894 1.92172 0
M  V30 10827 O 1034.03 -1.23259 1.52263 0
M  V30 10828 H 1032.61 0.413418 0.622169 0
M  V30 10829 H 1035.27 1.59267 1.12339 0
M  V30 10830 H 1034.37 1.64853 2.65009 0
M  V30 10831 N 1034.67 -1.14067 1.0875 0
M  V30 10832 C 1035.92 -1.84819 0.817698 0
M  V30 10833 C 1036.24 -1.83545 -0.658488 0
M  V30 10834 O 1035.51 -1.28633 -1.47751 0
M  V30 10835 H 1034.09 -0.68433 0.299502 0
M  V30 10836 H 1036.75 -1.38208 1.37421 0
M  V30 10837 H 1035.85 -2.89541 1.16501 0
M  V30 10838 N 1036.15 -0.873678 -1.31166 0
M  V30 10839 C 1037.56 -0.53852 -1.78765 0
M  V30 10840 C 1037.91 0.944765 -1.71955 0
M  V30 10841 O 1037.04 1.73781 -1.28954 0
M  V30 10842 C 1037.63 -0.970749 -3.24595 0
M  V30 10843 C 1036.19 -0.687189 -3.70074 0
M  V30 10844 C 1035.34 -1.16001 -2.51871 0
M  V30 10845 H 1038.29 -1.05903 -1.18196 0
M  V30 10846 H 1038.31 -0.294966 -3.79355 0
M  V30 10847 H 1037.82 -2.05034 -3.29519 0
M  V30 10848 H 1035.92 0.380881 -3.70648 0
M  V30 10849 H 1036.03 -1.26682 -4.62048 0
M  V30 10850 H 1034.4 -0.579663 -2.48016 0
M  V30 10851 H 1035.18 -2.2471 -2.59539 0
M  V30 10852 N 1037.63 1.44308 -0.633487 0
M  V30 10853 C 1038.56 2.33431 0.0568402 0
M  V30 10854 C 1039.54 1.48342 0.832386 0
M  V30 10855 O 1040.72 1.77056 0.797798 0
M  V30 10856 C 1037.85 3.31443 1.03743 0
M  V30 10857 C 1036.81 4.26368 0.373362 0
M  V30 10858 C 1036.13 5.14267 1.46403 0
M  V30 10859 C 1037.43 5.17287 -0.721876 0
M  V30 10860 H 1039.13 2.91402 -0.687388 0
M  V30 10861 H 1036.67 1.4012 -0.332009 0
M  V30 10862 H 1038.63 3.92677 1.52913 0
M  V30 10863 H 1037.35 2.71686 1.81258 0
M  V30 10864 H 1036.01 3.6647 -0.0977053 0
M  V30 10865 H 1035.66 4.50861 2.23011 0
M  V30 10866 H 1035.36 5.7859 1.02506 0
M  V30 10867 H 1036.88 5.78373 1.95748 0
M  V30 10868 H 1038.29 5.72444 -0.313181 0
M  V30 10869 H 1036.69 5.90226 -1.08413 0
M  V30 10870 H 1037.76 4.58159 -1.58804 0
M  V30 10871 N 1039.1 0.374177 1.53094 0
M  V30 10872 C 1040.35 -0.213981 2.00562 0
M  V30 10873 C 1040.67 -1.4916 1.26533 0
M  V30 10874 O 1041.87 -2.15889 1.64634 0
M  V30 10875 C 1040.33 -0.431876 3.57299 0
M  V30 10876 C 1039.94 0.831615 4.40214 0
M  V30 10877 C 1041.68 -0.977222 4.13099 0
M  V30 10878 C 1039.59 0.582831 5.88521 0
M  V30 10879 H 1038.52 -0.0837386 0.749336 0
M  V30 10880 H 1041.17 0.494245 1.76719 0
M  V30 10881 H 1039.55 -1.20158 3.7733 0
M  V30 10882 H 1040.72 1.60477 4.31953 0
M  V30 10883 H 1039.04 1.30081 3.9556 0
M  V30 10884 H 1041.64 -1.17881 5.21544 0
M  V30 10885 H 1041.98 -1.94189 3.68234 0
M  V30 10886 H 1042.51 -0.267473 3.969 0
M  V30 10887 H 1039.25 1.51807 6.37679 0
M  V30 10888 H 1038.77 -0.151666 5.99608 0
M  V30 10889 H 1040.45 0.211604 6.46654 0
M  V30 10890 N 1040.58 -1.57259 0.103575 0
M  V30 10891 C 1041.83 -1.94945 -0.558953 0
M  V30 10892 C 1042.16 -0.986038 -1.67305 0
M  V30 10893 O 1041.44 -0.0205464 -1.94489 0
M  V30 10894 C 1041.72 -3.42689 -1.10617 0
M  V30 10895 C 1041.57 -4.498 0.00345246 0
M  V30 10896 C 1042.89 -3.91933 -2.00191 0
M  V30 10897 H 1040.01 -0.708859 -0.201713 0
M  V30 10898 H 1042.65 -1.89183 0.176006 0
M  V30 10899 H 1040.8 -3.4773 -1.73251 0
M  V30 10900 H 1042.47 -4.56866 0.638082 0
M  V30 10901 H 1040.72 -4.28615 0.668705 0
M  V30 10902 H 1041.39 -5.50397 -0.420396 0
M  V30 10903 H 1043.86 -3.89098 -1.4745 0
M  V30 10904 H 1042.74 -4.9586 -2.35402 0
M  V30 10905 H 1043 -3.31722 -2.92255 0
M  V30 10906 N 1042.06 0.170153 -1.56679 0
M  V30 10907 C 1043.01 1.21531 -1.9291 0
M  V30 10908 C 1043.99 1.39742 -0.797553 0
M  V30 10909 O 1045.19 1.41693 -1.06075 0
M  V30 10910 C 1042.32 2.55447 -2.29351 0
M  V30 10911 C 1041.4 2.40925 -3.49022 0
M  V30 10912 N 1041.79 1.96118 -4.66231 0
M  V30 10913 C 1040.09 2.71747 -3.53652 0
M  V30 10914 C 1040.79 1.94086 -5.48366 0
M  V30 10915 N 1039.77 2.36533 -4.89441 0
M  V30 10916 H 1043.57 0.860602 -2.81018 0
M  V30 10917 H 1041.08 0.378415 -1.5793 0
M  V30 10918 H 1043.08 3.30972 -2.53502 0
M  V30 10919 H 1041.74 2.9172 -1.42583 0
M  V30 10920 H 1042.75 1.66438 -4.90427 0
M  V30 10921 H 1039.43 3.1205 -2.77365 0
M  V30 10922 H 1040.82 1.61132 -6.52293 0
M  V30 10923 N 1043.54 1.5137 0.438746 0
M  V30 10924 C 1044.49 1.72582 1.53245 0
M  V30 10925 C 1045.46 0.567488 1.56105 0
M  V30 10926 O 1046.64 0.80176 1.73137 0
M  V30 10927 C 1043.78 1.85551 2.90972 0
M  V30 10928 C 1042.89 3.13094 2.97652 0
M  V30 10929 C 1042.03 3.16666 4.26493 0
M  V30 10930 C 1041.07 4.38529 4.27035 0
M  V30 10931 N 1040.2 4.39659 5.47398 0
M  V30 10932 H 1045.04 2.65941 1.3446 0
M  V30 10933 H 1042.58 1.31801 0.653206 0
M  V30 10934 H 1044.54 1.91053 3.70884 0
M  V30 10935 H 1043.17 0.956025 3.08318 0
M  V30 10936 H 1042.22 3.16909 2.10412 0
M  V30 10937 H 1043.53 4.03009 2.93914 0
M  V30 10938 H 1042.69 3.21075 5.14777 0
M  V30 10939 H 1041.43 2.24637 4.32885 0
M  V30 10940 H 1040.43 4.34297 3.37144 0
M  V30 10941 H 1041.66 5.31821 4.22307 0
M  V30 10942 H 1039.6 3.50499 5.54514 0
M  V30 10943 H 1039.52 5.23382 5.45534 0
M  V30 10944 H 1040.79 4.48259 6.37718 0
M  V30 10945 N 1045.02 -0.694098 1.41492 0
M  V30 10946 C 1046.43 -1.00487 1.23994 0
M  V30 10947 C 1046.63 -2.01078 0.130346 0
M  V30 10948 O 1045.69 -2.47403 -0.504775 0
M  V30 10949 C 1047 -1.52808 2.58979 0
M  V30 10950 C 1048.55 -1.64684 2.66173 0
M  V30 10951 C 1049.02 -2.20406 4.01479 0
M  V30 10952 N 1050.52 -2.27765 4.03333 0
M  V30 10953 C 1051.25 -2.7191 5.04829 0
M  V30 10954 N 1050.75 -3.1565 6.16714 0
M  V30 10955 N 1052.54 -2.71487 4.9219 0
M  V30 10956 H 1044.69 -0.027746 2.12382 0
M  V30 10957 H 1046.95 -0.0748741 0.945039 0
M  V30 10958 H 1046.66 -0.863519 3.40934 0
M  V30 10959 H 1046.53 -2.50998 2.81566 0
M  V30 10960 H 1048.92 -2.30251 1.84576 0
M  V30 10961 H 1049 -0.65035 2.47395 0
M  V30 10962 H 1048.65 -1.55454 4.83525 0
M  V30 10963 H 1048.58 -3.2081 4.17599 0
M  V30 10964 H 1051.07 -1.96899 3.22551 0
M  V30 10965 H 1051.38 -3.47966 6.90029 0
M  V30 10966 H 1049.72 -3.13555 6.20248 0
M  V30 10967 H 1052.92 -2.36666 4.03865 0
M  V30 10968 H 1053.09 -3.05573 5.71427 0
M  V30 10969 N 1046.49 -1.27344 -0.928501 0
M  V30 10970 C 1047.72 -1.16557 -1.7155 0
M  V30 10971 C 1048.14 0.274044 -1.86093 0
M  V30 10972 O 1047.5 1.19847 -1.36038 0
M  V30 10973 C 1047.55 -1.85332 -3.09329 0
M  V30 10974 O 1046.65 -1.15074 -3.9602 0
M  V30 10975 H 1046 -0.405423 -0.525859 0
M  V30 10976 H 1048.53 -1.68399 -1.16202 0
M  V30 10977 H 1048.54 -1.92659 -3.59648 0
M  V30 10978 H 1047.21 -2.90056 -2.98061 0
M  V30 10979 H 1045.79 -1.1581 -3.54461 0
M  V30 10980 N 1047.97 1.13488 -1.09353 0
M  V30 10981 C 1049.39 1.36739 -0.823086 0
M  V30 10982 C 1049.59 1.93476 0.562963 0
M  V30 10983 O 1048.64 2.15374 1.31796 0
M  V30 10984 C 1049.96 2.31943 -1.91371 0
M  V30 10985 C 1051.51 2.4556 -1.94085 0
M  V30 10986 C 1051.98 3.44072 -3.02289 0
M  V30 10987 N 1053.47 3.51622 -3.01524 0
M  V30 10988 C 1054.21 4.27724 -3.8189 0
M  V30 10989 N 1053.7 5.06987 -4.72161 0
M  V30 10990 N 1055.5 4.23018 -3.70152 0
M  V30 10991 H 1047.65 0.75012 -1.98713 0
M  V30 10992 H 1049.91 0.392564 -0.862901 0
M  V30 10993 H 1049.62 1.97408 -2.91072 0
M  V30 10994 H 1049.49 3.31952 -1.79131 0
M  V30 10995 H 1051.88 2.79382 -0.950234 0
M  V30 10996 H 1051.96 1.45479 -2.10403 0
M  V30 10997 H 1051.6 3.10981 -4.01564 0
M  V30 10998 H 1051.53 4.43956 -2.83214 0
M  V30 10999 H 1054.02 2.95066 -2.36103 0
M  V30 11000 H 1054.34 5.6236 -5.30067 0
M  V30 11001 H 1052.68 5.06222 -4.76197 0
M  V30 11002 H 1055.87 3.60171 -2.98989 0
M  V30 11003 H 1056.04 4.82075 -4.33022 0
M  V30 11004 N 1049.45 0.880621 1.30701 0
M  V30 11005 C 1050.7 0.496875 1.96309 0
M  V30 11006 C 1051.03 -0.953064 1.69549 0
M  V30 11007 O 1050.28 -1.68782 0.990507 0
M  V30 11008 C 1050.58 0.713203 3.50212 0
M  V30 11009 C 1050.25 2.13756 3.97013 0
M  V30 11010 C 1048.91 2.52706 4.09503 0
M  V30 11011 C 1051.26 3.066 4.21481 0
M  V30 11012 C 1048.59 3.8372 4.43819 0
M  V30 11013 C 1050.94 4.3714 4.57265 0
M  V30 11014 C 1049.6 4.7599 4.67963 0
M  V30 11015 H 1048.87 0.18182 0.718347 0
M  V30 11016 H 1051.52 1.11564 1.55646 0
M  V30 11017 H 1049.83 0.0113694 3.91798 0
M  V30 11018 H 1051.52 0.39595 3.9904 0
M  V30 11019 H 1048.11 1.8252 3.87794 0
M  V30 11020 H 1052.3 2.77729 4.11315 0
M  V30 11021 H 1047.55 4.13568 4.50301 0
M  V30 11022 H 1051.73 5.09123 4.75149 0
M  V30 11023 H 1049.35 5.77549 4.94309 0
M  V30 11024 N 1050.93 -1.4397 0.641131 0
M  V30 11025 C 1052.18 -2.01163 0.147026 0
M  V30 11026 C 1052.49 -1.51099 -1.24211 0
M  V30 11027 O 1053.7 -2.00487 -1.83078 0
M  V30 11028 C 1052.15 -3.59275 0.212068 0
M  V30 11029 C 1051.76 -4.18334 1.60314 0
M  V30 11030 C 1053.51 -4.23903 -0.225057 0
M  V30 11031 C 1051.41 -5.68701 1.62276 0
M  V30 11032 H 1050.34 -0.75226 0.051201 0
M  V30 11033 H 1052.99 -1.65075 0.801396 0
M  V30 11034 H 1051.38 -3.92708 -0.509589 0
M  V30 11035 H 1052.55 -3.96422 2.34918 0
M  V30 11036 H 1050.86 -3.66031 1.9852 0
M  V30 11037 H 1053.46 -5.34205 -0.230074 0
M  V30 11038 H 1053.8 -3.96956 -1.25426 0
M  V30 11039 H 1054.34 -3.95309 0.44444 0
M  V30 11040 H 1051.08 -6.00397 2.63066 0
M  V30 11041 H 1050.6 -5.92705 0.919797 0
M  V30 11042 H 1052.28 -6.32521 1.36112 0
M  V30 11043 N 1052.41 -0.382291 -1.52893 0
M  V30 11044 C 1053.34 0.491199 -2.23875 0
M  V30 11045 C 1054.35 1.03249 -1.25871 0
M  V30 11046 O 1055.54 0.936016 -1.5199 0
M  V30 11047 C 1052.64 1.6927 -2.936 0
M  V30 11048 C 1051.81 1.28 -4.18252 0
M  V30 11049 C 1050.87 2.34541 -4.71038 0
M  V30 11050 O 1049.9 1.96239 -5.34302 0
M  V30 11051 N 1051.1 3.6636 -4.50289 0
M  V30 11052 H 1053.87 -0.116897 -2.99472 0
M  V30 11053 H 1051.43 -0.208296 -1.60554 0
M  V30 11054 H 1053.42 2.40054 -3.25816 0
M  V30 11055 H 1051.99 2.20729 -2.21354 0
M  V30 11056 H 1051.21 0.40133 -3.92152 0
M  V30 11057 H 1052.5 0.98082 -4.99257 0
M  V30 11058 H 1051.9 4.00245 -3.99775 0
M  V30 11059 H 1050.45 4.332 -4.87013 0
M  V30 11060 N 1053.89 1.57202 -0.111913 0
M  V30 11061 C 1055.13 1.95239 0.548607 0
M  V30 11062 C 1055.46 0.994897 1.6678 0
M  V30 11063 O 1054.74 0.0308603 1.94476 0
M  V30 11064 C 1055.02 3.43271 1.08798 0
M  V30 11065 C 1054.88 4.49792 -0.0273064 0
M  V30 11066 C 1056.19 3.92989 1.98109 0
M  V30 11067 H 1053.31 0.709919 0.197951 0
M  V30 11068 H 1055.96 1.89087 -0.186036 0
M  V30 11069 H 1054.11 3.48644 1.71404 0
M  V30 11070 H 1055.78 4.56521 -0.662302 0
M  V30 11071 H 1054.02 4.28254 -0.691426 0
M  V30 11072 H 1054.69 5.50612 0.391201 0
M  V30 11073 H 1057.17 3.89875 1.45385 0
M  V30 11074 H 1056.04 4.97101 2.32769 0
M  V30 11075 H 1056.3 3.33267 2.90492 0
M  V30 11076 N 1055.36 -0.161842 1.56767 0
M  V30 11077 C 1056.61 -0.875192 1.82167 0
M  V30 11078 C 1056.93 -1.82367 0.690444 0
M  V30 11079 O 1056.2 -1.93756 -0.289023 0
M  V30 11080 H 1054.78 -0.326178 0.672024 0
M  V30 11081 H 1057.44 -0.159392 1.94247 0
M  V30 11082 H 1056.54 -1.44639 2.76561 0
M  V30 11083 N 1056.84 -1.516 -0.430713 0
M  V30 11084 C 1058.09 -1.6484 -1.18134 0
M  V30 11085 C 1058.42 -0.366725 -1.90706 0
M  V30 11086 O 1057.7 0.63398 -1.83878 0
M  V30 11087 C 1057.98 -2.85617 -2.19306 0
M  V30 11088 C 1057.83 -4.23778 -1.50773 0
M  V30 11089 C 1059.15 -3.01909 -3.20217 0
M  V30 11090 H 1056.27 -0.599907 -0.428113 0
M  V30 11091 H 1058.91 -1.84102 -0.46973 0
M  V30 11092 H 1057.06 -2.69325 -2.79993 0
M  V30 11093 H 1058.73 -4.51752 -0.93371 0
M  V30 11094 H 1056.98 -4.26171 -0.809966 0
M  V30 11095 H 1057.65 -5.04291 -2.24487 0
M  V30 11096 H 1060.12 -3.16956 -2.69589 0
M  V30 11097 H 1059 -3.87968 -3.88293 0
M  V30 11098 H 1059.26 -2.1427 -3.86705 0
M  V30 11099 N 1058.32 0.686584 -1.41858 0
M  V30 11100 C 1059.57 1.44235 -1.40994 0
M  V30 11101 C 1059.88 1.95583 -0.0254979 0
M  V30 11102 O 1061.09 2.71294 0.10576 0
M  V30 11103 C 1059.54 2.6086 -2.47952 0
M  V30 11104 C 1059.15 2.16259 -3.92347 0
M  V30 11105 C 1060.9 3.38441 -2.56237 0
M  V30 11106 C 1058.8 3.29896 -4.90838 0
M  V30 11107 H 1057.73 0.54181 -0.524364 0
M  V30 11108 H 1060.38 0.744486 -1.67719 0
M  V30 11109 H 1058.77 3.32957 -2.14373 0
M  V30 11110 H 1059.94 1.51392 -4.35221 0
M  V30 11111 H 1058.25 1.51648 -3.87804 0
M  V30 11112 H 1060.85 4.23052 -3.27003 0
M  V30 11113 H 1061.19 3.84238 -1.6021 0
M  V30 11114 H 1061.73 2.73406 -2.88953 0
M  V30 11115 H 1058.47 2.89104 -5.88302 0
M  V30 11116 H 1057.99 3.93584 -4.52606 0
M  V30 11117 H 1059.67 3.95541 -5.12012 0
M  V30 11118 N 1059.8 1.27835 0.921735 0
M  V30 11119 C 1061.02 1.17465 1.70929 0
M  V30 11120 C 1061.45 -0.264171 1.86236 0
M  V30 11121 O 1060.81 -1.19124 1.36671 0
M  V30 11122 C 1060.85 1.8697 3.08342 0
M  V30 11123 O 1059.96 1.17173 3.95404 0
M  V30 11124 H 1059.3 0.408206 0.523702 0
M  V30 11125 H 1061.83 1.69013 1.15307 0
M  V30 11126 H 1061.84 1.94564 3.58621 0
M  V30 11127 H 1060.51 2.91633 2.96518 0
M  V30 11128 H 1059.09 1.17688 3.53842 0
M  V30 11129 N 1061.28 -1.12907 1.09954 0
M  V30 11130 C 1062.52 -1.84786 0.850039 0
M  V30 11131 C 1062.88 -1.82214 -0.617724 0
M  V30 11132 O 1062.17 -1.25319 -1.44934 0
M  V30 11133 C 1062.36 -3.31885 1.32616 0
M  V30 11134 C 1062.19 -3.48782 2.83868 0
M  V30 11135 C 1060.96 -3.62708 3.51811 0
M  V30 11136 C 1063.16 -3.44367 3.8199 0
M  V30 11137 N 1061.14 -3.67921 4.91434 0
M  V30 11138 C 1062.51 -3.56015 5.07596 0
M  V30 11139 C 1064.57 -3.27801 3.74768 0
M  V30 11140 C 1063.27 -3.52807 6.26833 0
M  V30 11141 C 1065.3 -3.25904 4.93499 0
M  V30 11142 C 1064.66 -3.38108 6.1795 0
M  V30 11143 H 1060.76 -0.692126 0.363986 0
M  V30 11144 H 1063.34 -1.35208 1.40096 0
M  V30 11145 H 1061.51 -3.80016 0.802625 0
M  V30 11146 H 1063.25 -3.91598 1.02142 0
M  V30 11147 H 1060 -3.64613 3.02248 0
M  V30 11148 H 1060.42 -3.74204 5.64181 0
M  V30 11149 H 1065.07 -3.17264 2.7947 0
M  V30 11150 H 1062.78 -3.62116 7.22425 0
M  V30 11151 H 1066.37 -3.14275 4.89615 0
M  V30 11152 H 1065.25 -3.36607 7.08283 0
M  V30 11153 N 1062.75 -0.88754 -1.30232 0
M  V30 11154 C 1064 -0.506277 -1.95656 0
M  V30 11155 C 1064.32 0.948191 -1.70395 0
M  V30 11156 O 1063.59 1.66701 -1.02895 0
M  V30 11157 H 1062.17 -0.184235 -0.723924 0
M  V30 11158 H 1064.83 -1.13118 -1.58715 0
M  V30 11159 H 1063.93 -0.678673 -3.04632 0
M  V30 11160 N 1064.23 1.43628 -0.648757 0
M  V30 11161 C 1065.48 2.02163 -0.160574 0
M  V30 11162 C 1065.81 1.51037 1.22072 0
M  V30 11163 O 1065.09 0.701633 1.81404 0
M  V30 11164 C 1065.37 3.59715 -0.166528 0
M  V30 11165 C 1065.22 4.21083 -1.58142 0
M  V30 11166 C 1066.54 4.37256 0.499485 0
M  V30 11167 H 1063.66 0.734568 -0.0598238 0
M  V30 11168 H 1066.3 1.70981 -0.828592 0
M  V30 11169 H 1064.45 3.86411 0.402302 0
M  V30 11170 H 1066.12 4.05433 -2.2005 0
M  V30 11171 H 1064.37 3.77904 -2.13005 0
M  V30 11172 H 1065.04 5.30156 -1.53748 0
M  V30 11173 H 1067.51 4.16097 0.0155561 0
M  V30 11174 H 1066.39 5.4693 0.464574 0
M  V30 11175 H 1066.65 4.13175 1.57286 0
M  V30 11176 N 1065.71 0.390394 1.52688 0
M  V30 11177 C 1066.96 -0.191729 2.01892 0
M  V30 11178 C 1067.29 -1.4637 1.27631 0
M  V30 11179 O 1066.56 -1.90809 0.377094 0
M  V30 11180 C 1066.85 -0.458535 3.57169 0
M  V30 11181 C 1066.7 0.828796 4.42098 0
M  V30 11182 C 1068.02 -1.2487 4.22014 0
M  V30 11183 H 1065.14 -0.0682091 0.733837 0
M  V30 11184 H 1067.78 0.520176 1.82741 0
M  V30 11185 H 1065.93 -1.06498 3.73618 0
M  V30 11186 H 1067.6 1.46562 4.37398 0
M  V30 11187 H 1065.85 1.44388 4.09066 0
M  V30 11188 H 1066.52 0.596746 5.48765 0
M  V30 11189 H 1068.99 -0.735452 4.09549 0
M  V30 11190 H 1067.87 -1.40412 5.30637 0
M  V30 11191 H 1068.13 -2.2642 3.79719 0
M  V30 11192 N 1067.19 -1.57141 0.120249 0
M  V30 11193 C 1068.47 -1.8677 -0.581075 0
M  V30 11194 C 1068.85 -1.02163 -1.84732 0
M  V30 11195 O 1068.19 -0.100897 -2.28277 0
M  V30 11196 C 1068.4 -3.37923 -0.872316 0
M  V30 11197 C 1069.75 -4.0655 -1.22483 0
M  V30 11198 O 1070.78 -3.42948 -0.962539 0
M  V30 11199 O 1069.63 -5.18821 -1.71717 0
M  V30 11200 H 1066.73 -0.773219 -0.293362 0
M  V30 11201 H 1069.27 -1.68992 0.154846 0
M  V30 11202 H 1068.05 -3.91292 0.0249416 0
M  V30 11203 H 1067.67 -3.61135 -1.66335 0
M  V30 11204 N 1068.67 0.153526 -1.5685 0
M  V30 11205 C 1069.91 0.868517 -1.83261 0
M  V30 11206 C 1070.25 1.81112 -0.700857 0
M  V30 11207 O 1069.52 1.92235 0.295989 0
M  V30 11208 C 1069.8 1.6487 -3.2014 0
M  V30 11209 C 1069.66 0.728021 -4.43869 0
M  V30 11210 C 1070.98 2.61259 -3.54163 0
M  V30 11211 H 1068.09 0.314297 -0.666623 0
M  V30 11212 H 1070.74 0.133971 -1.89527 0
M  V30 11213 H 1068.89 2.2749 -3.1493 0
M  V30 11214 H 1070.56 0.113328 -4.61161 0
M  V30 11215 H 1068.8 0.0371744 -4.33784 0
M  V30 11216 H 1069.47 1.30981 -5.36235 0
M  V30 11217 H 1071.95 2.0876 -3.59942 0
M  V30 11218 H 1070.82 3.12902 -4.50981 0
M  V30 11219 H 1071.09 3.42307 -2.79782 0
M  V30 11220 N 1070.14 1.51827 0.422667 0
M  V30 11221 C 1071.38 1.66888 1.18016 0
M  V30 11222 C 1071.75 0.383859 1.88124 0
M  V30 11223 O 1072.95 0.410413 2.65648 0
M  V30 11224 C 1071.22 2.84842 2.1587 0
M  V30 11225 S 1072.78 3.20312 2.99909 0
M  V30 11226 H 1069.6 0.58781 0.4 0
M  V30 11227 H 1072.2 1.89779 0.46948 0
M  V30 11228 H 1070.9 3.76629 1.63029 0
M  V30 11229 H 1070.43 2.64183 2.91497 0
M  V30 11230 H 1072.45 2.67884 4.17675 0
M  V30 11231 N 1071.62 -0.679052 1.4222 0
M  V30 11232 C 1072.57 -1.79269 1.45366 0
M  V30 11233 C 1073.54 -1.63255 0.306089 0
M  V30 11234 O 1074.72 -1.8387 0.509548 0
M  V30 11235 C 1071.86 -3.17272 1.35766 0
M  V30 11236 C 1070.98 -3.44603 2.60525 0
M  V30 11237 C 1070.11 -4.7231 2.43098 0
M  V30 11238 C 1069.15 -4.92661 3.63251 0
M  V30 11239 N 1068.29 -6.11606 3.44794 0
M  V30 11240 H 1073.13 -1.75916 2.40536 0
M  V30 11241 H 1070.67 -0.858836 1.19425 0
M  V30 11242 H 1072.62 -3.97015 1.282 0
M  V30 11243 H 1071.25 -3.1976 0.441939 0
M  V30 11244 H 1070.31 -2.59144 2.78475 0
M  V30 11245 H 1071.62 -3.55536 3.49851 0
M  V30 11246 H 1070.77 -5.60136 2.33093 0
M  V30 11247 H 1069.51 -4.63652 1.51255 0
M  V30 11248 H 1068.52 -4.03278 3.73693 0
M  V30 11249 H 1069.74 -5.03167 4.5607 0
M  V30 11250 H 1067.69 -6.04129 2.55663 0
M  V30 11251 H 1067.6 -6.23381 4.27705 0
M  V30 11252 H 1068.87 -7.02122 3.38592 0
M  V30 11253 N 1073.1 -1.28322 -0.914942 0
M  V30 11254 C 1074.05 -1.12003 -2.03858 0
M  V30 11255 C 1075.04 -0.0396287 -1.69354 0
M  V30 11256 O 1076.25 -0.198309 -1.78904 0
M  V30 11257 H 1072.62 -0.34552 -0.667922 0
M  V30 11258 H 1074.59 -2.07168 -2.14765 0
M  V30 11259 C 1073.34 -0.797402 -3.38433 0
M  V30 11260 H 1072.67 -1.62071 -3.65476 0
M  V30 11261 H 1074.11 -0.723165 -4.17787 0
M  V30 11262 C 1072.57 0.498807 -3.33187 0
M  V30 11263 O 1073.1 1.52946 -3.71444 0
M  V30 11264 N 1071.3 0.499101 -2.86282 0
M  V30 11265 H 1070.85 -0.340056 -2.55346 0
M  V30 11266 H 1070.81 1.36641 -2.83155 0
M  V30 11267 N 1074.58 1.12322 -1.10551 0
M  V30 11268 C 1075.51 2.17819 -0.713263 0
M  V30 11269 C 1076.52 1.6086 0.250604 0
M  V30 11270 O 1077.71 1.78466 0.0348909 0
M  V30 11271 C 1074.81 3.38885 -0.0320325 0
M  V30 11272 C 1073.99 4.25332 -1.02038 0
M  V30 11273 C 1073.04 5.24895 -0.370412 0
M  V30 11274 O 1072.07 5.59958 -1.02157 0
M  V30 11275 N 1073.27 5.73934 0.870633 0
M  V30 11276 H 1076.04 2.52083 -1.62094 0
M  V30 11277 H 1073.6 1.27755 -0.994492 0
M  V30 11278 H 1075.59 4.02574 0.414285 0
M  V30 11279 H 1074.16 3.02762 0.778072 0
M  V30 11280 H 1073.38 3.5824 -1.64492 0
M  V30 11281 H 1074.67 4.79936 -1.68936 0
M  V30 11282 H 1074.07 5.47614 1.419 0
M  V30 11283 H 1072.62 6.39504 1.26008 0
M  V30 11284 N 1076.06 0.894434 1.2976 0
M  V30 11285 C 1077 0.366586 2.2787 0
M  V30 11286 C 1077.97 -0.548425 1.56785 0
M  V30 11287 O 1079.16 -0.474804 1.84798 0
M  V30 11288 C 1076.3 -0.404531 3.42721 0
M  V30 11289 C 1075.41 0.540774 4.28602 0
M  V30 11290 C 1074.55 -0.246875 5.30626 0
M  V30 11291 C 1073.59 0.693294 6.08161 0
M  V30 11292 N 1072.72 -0.059619 7.02075 0
M  V30 11293 H 1077.56 1.20834 2.72402 0
M  V30 11294 H 1075.1 0.607205 1.33983 0
M  V30 11295 H 1077.06 -0.86762 4.08079 0
M  V30 11296 H 1075.69 -1.21078 2.99232 0
M  V30 11297 H 1074.74 1.12237 3.63465 0
M  V30 11298 H 1076.05 1.26065 4.82606 0
M  V30 11299 H 1075.21 -0.771398 6.01776 0
M  V30 11300 H 1073.94 -0.999918 4.77339 0
M  V30 11301 H 1072.95 1.22936 5.35879 0
M  V30 11302 H 1074.17 1.44558 6.63536 0
M  V30 11303 H 1072.12 -0.795026 6.51165 0
M  V30 11304 H 1072.04 0.60045 7.53612 0
M  V30 11305 H 1073.31 -0.564577 7.77453 0
M  V30 11306 N 1077.53 -1.43282 0.656365 0
M  V30 11307 C 1078.95 -1.56272 0.324213 0
M  V30 11308 C 1079.15 -1.63946 -1.1715 0
M  V30 11309 O 1078.21 -1.59625 -1.95643 0
M  V30 11310 C 1079.52 -2.82204 1.03833 0
M  V30 11311 C 1081.07 -2.95952 1.01889 0
M  V30 11312 C 1081.54 -4.2472 1.71397 0
M  V30 11313 N 1083.03 -4.31591 1.68176 0
M  V30 11314 C 1083.77 -5.30001 2.1883 0
M  V30 11315 N 1083.26 -6.34671 2.77785 0
M  V30 11316 N 1085.06 -5.21676 2.09311 0
M  V30 11317 H 1077.21 -1.36544 1.62694 0
M  V30 11318 H 1079.47 -0.655999 0.684375 0
M  V30 11319 H 1079.18 -2.82608 2.09346 0
M  V30 11320 H 1079.05 -3.72527 0.591878 0
M  V30 11321 H 1081.44 -2.95087 -0.0278431 0
M  V30 11322 H 1081.52 -2.0691 1.50406 0
M  V30 11323 H 1081.16 -4.26346 2.76028 0
M  V30 11324 H 1081.09 -5.12665 1.20342 0
M  V30 11325 H 1083.58 -3.56573 1.25157 0
M  V30 11326 H 1083.9 -7.06087 3.14104 0
M  V30 11327 H 1082.24 -6.35285 2.81847 0
M  V30 11328 H 1085.43 -4.3882 1.62955 0
M  V30 11329 H 1085.61 -5.9821 2.49095 0
M  V30 11330 N 1079.01 -0.398486 -1.52479 0
M  V30 11331 C 1079.95 0.467426 -2.24383 0
M  V30 11332 C 1080.96 1.01908 -1.26959 0
M  V30 11333 O 1082.15 0.919843 -1.52974 0
M  V30 11334 C 1079.25 1.66146 -2.95379 0
M  V30 11335 C 1078.42 1.23557 -4.19586 0
M  V30 11336 C 1077.48 2.29532 -4.73499 0
M  V30 11337 O 1076.51 1.90561 -5.36354 0
M  V30 11338 N 1077.71 3.61564 -4.5415 0
M  V30 11339 H 1080.47 -0.148653 -2.99331 0
M  V30 11340 H 1078.03 -0.225313 -1.60325 0
M  V30 11341 H 1080.03 2.36585 -3.28344 0
M  V30 11342 H 1078.6 2.18369 -2.23682 0
M  V30 11343 H 1077.82 0.359715 -3.92555 0
M  V30 11344 H 1079.1 0.927812 -5.00269 0
M  V30 11345 H 1078.5 3.95983 -4.03998 0
M  V30 11346 H 1077.06 4.2801 -4.9158 0
M  V30 11347 N 1080.49 1.57075 -0.12858 0
M  V30 11348 C 1081.44 2.15816 0.818064 0
M  V30 11349 C 1082.41 1.08581 1.25696 0
M  V30 11350 O 1083.59 1.36535 1.33277 0
M  V30 11351 C 1080.73 2.76943 2.05905 0
M  V30 11352 C 1079.85 3.98514 1.66764 0
M  V30 11353 C 1078.98 4.47698 2.85902 0
M  V30 11354 C 1078.02 5.61778 2.43047 0
M  V30 11355 N 1077.16 6.05662 3.5513 0
M  V30 11356 H 1082 2.9638 0.310318 0
M  V30 11357 H 1079.53 1.46418 0.141472 0
M  V30 11358 H 1081.49 3.10519 2.78629 0
M  V30 11359 H 1080.12 1.99053 2.54122 0
M  V30 11360 H 1079.17 3.71038 0.838766 0
M  V30 11361 H 1080.49 4.81215 1.31277 0
M  V30 11362 H 1079.64 4.83233 3.66839 0
M  V30 11363 H 1078.38 3.63967 3.24622 0
M  V30 11364 H 1077.38 5.25838 1.60544 0
M  V30 11365 H 1078.61 6.47282 2.05433 0
M  V30 11366 H 1076.56 5.2487 3.93506 0
M  V30 11367 H 1076.47 6.83242 3.23598 0
M  V30 11368 H 1077.74 6.45838 4.36479 0
M  V30 11369 N 1081.97 -0.145205 1.5693 0
M  V30 11370 C 1082.9 -1.20438 1.95006 0
M  V30 11371 C 1083.91 -1.39085 0.846114 0
M  V30 11372 O 1085.1 -1.38625 1.12452 0
M  V30 11373 C 1082.2 -2.56892 2.21043 0
M  V30 11374 C 1081.38 -2.59197 3.52329 0
M  V30 11375 C 1080.44 -3.77204 3.66884 0
M  V30 11376 O 1079.46 -3.61995 4.39259 0
M  V30 11377 N 1080.66 -4.9473 3.03682 0
M  V30 11378 H 1083.43 -0.880709 2.86467 0
M  V30 11379 H 1080.99 -0.334751 1.58401 0
M  V30 11380 H 1082.98 -3.34349 2.2802 0
M  V30 11381 H 1081.55 -2.81544 1.35838 0
M  V30 11382 H 1080.77 -1.67644 3.56776 0
M  V30 11383 H 1082.06 -2.57771 4.3867 0
M  V30 11384 H 1081.46 -5.09989 2.44801 0
M  V30 11385 H 1080.01 -5.69956 3.16218 0
M  V30 11386 N 1083.45 -1.52049 -0.414609 0
M  V30 11387 C 1084.69 -1.66084 -1.16379 0
M  V30 11388 C 1085.03 -0.386932 -1.90306 0
M  V30 11389 O 1084.3 0.614441 -1.8454 0
M  V30 11390 C 1084.58 -2.87927 -2.16264 0
M  V30 11391 C 1084.44 -4.25353 -1.46269 0
M  V30 11392 C 1085.76 -3.05289 -3.16996 0
M  V30 11393 H 1082.88 -0.604414 -0.421726 0
M  V30 11394 H 1085.52 -1.8459 -0.450177 0
M  V30 11395 H 1083.67 -2.7228 -2.77121 0
M  V30 11396 H 1085.34 -4.52717 -0.885743 0
M  V30 11397 H 1083.58 -4.27006 -0.76472 0
M  V30 11398 H 1084.25 -5.06644 -2.19126 0
M  V30 11399 H 1086.73 -3.19798 -2.66212 0
M  V30 11400 H 1085.61 -3.92065 -3.84156 0
M  V30 11401 H 1085.87 -2.1836 -3.84411 0
M  V30 11402 N 1084.93 0.6715 -1.42579 0
M  V30 11403 C 1086.34 1.2522 -1.38481 0
M  V30 11404 C 1086.69 1.96038 -0.079719 0
M  V30 11405 O 1085.81 2.00203 0.821441 0
M  V30 11406 C 1086.41 2.27736 -2.50842 0
M  V30 11407 C 1084.97 2.81325 -2.50067 0
M  V30 11408 C 1084.11 1.55694 -2.29466 0
M  V30 11409 H 1087.06 0.464673 -1.51745 0
M  V30 11410 H 1087.09 3.09539 -2.21283 0
M  V30 11411 H 1086.6 1.76164 -3.45815 0
M  V30 11412 H 1084.7 3.37008 -1.58922 0
M  V30 11413 H 1084.81 3.30116 -3.47218 0
M  V30 11414 H 1083.18 1.82383 -1.77788 0
M  V30 11415 H 1083.96 1.06084 -3.26498 0
M  V30 11416 N 1086.4 1.28806 0.908124 0
M  V30 11417 C 1087.37 1.13228 1.99279 0
M  V30 11418 C 1088.37 0.0702456 1.60646 0
M  V30 11419 O 1089.56 0.316494 1.71301 0
M  V30 11420 C 1086.69 0.729629 3.33 0
M  V30 11421 H 1087.88 2.09566 2.14528 0
M  V30 11422 H 1085.43 1.11872 1.09153 0
M  V30 11423 H 1086.17 -0.234268 3.23453 0
M  V30 11424 H 1085.95 1.49688 3.62403 0
M  V30 11425 H 1087.44 0.643449 4.12613 0
M  V30 11426 N 1087.88 -1.11734 1.11145 0
M  V30 11427 C 1088.83 -2.15789 0.736133 0
M  V30 11428 C 1089.82 -1.58813 -0.25832 0
M  V30 11429 O 1091.01 -1.76877 -0.0659078 0
M  V30 11430 C 1088.14 -3.4284 0.177597 0
M  V30 11431 C 1087.22 -4.06783 1.19953 0
M  V30 11432 N 1087.61 -4.45626 2.39271 0
M  V30 11433 C 1085.91 -4.33663 1.04176 0
M  V30 11434 C 1086.61 -4.95684 3.04422 0
M  V30 11435 N 1085.59 -4.91648 2.31912 0
M  V30 11436 H 1089.39 -2.43598 1.6443 0
M  V30 11437 H 1086.9 -1.28716 0.990247 0
M  V30 11438 H 1088.9 -4.16756 -0.109402 0
M  V30 11439 H 1087.56 -3.16498 -0.725201 0
M  V30 11440 H 1088.57 -4.37757 2.76747 0
M  V30 11441 H 1085.25 -4.17044 0.195132 0
M  V30 11442 H 1086.64 -5.35394 4.05959 0
M  V30 11443 N 1089.36 -0.901303 -1.29284 0
M  V30 11444 C 1090.32 -0.385081 -2.25942 0
M  V30 11445 C 1091.32 0.481626 -1.53418 0
M  V30 11446 O 1092.51 0.286451 -1.71829 0
M  V30 11447 C 1089.64 0.449319 -3.37926 0
M  V30 11448 H 1090.84 -1.23877 -2.7312 0
M  V30 11449 H 1088.39 -0.679586 -1.40753 0
M  V30 11450 H 1089.13 1.32292 -2.9609 0
M  V30 11451 H 1088.91 -0.171731 -3.91724 0
M  V30 11452 H 1090.4 0.801746 -4.09831 0
M  V30 11453 N 1090.84 1.42931 -0.663954 0
M  V30 11454 C 1092.25 1.56098 -0.332496 0
M  V30 11455 C 1092.45 1.64564 1.16279 0
M  V30 11456 O 1091.51 1.6066 1.94794 0
M  V30 11457 C 1092.82 2.81649 -1.05329 0
M  V30 11458 C 1094.37 2.95408 -1.03457 0
M  V30 11459 C 1094.85 4.23805 -1.73647 0
M  V30 11460 N 1096.34 4.30693 -1.70462 0
M  V30 11461 C 1097.07 5.28833 -2.21637 0
M  V30 11462 N 1096.57 6.33189 -2.81147 0
M  V30 11463 N 1098.36 5.20558 -2.12075 0
M  V30 11464 H 1090.51 1.3568 -1.63416 0
M  V30 11465 H 1092.77 0.652361 -0.687844 0
M  V30 11466 H 1092.48 2.81494 -2.10842 0
M  V30 11467 H 1092.35 3.72208 -0.611626 0
M  V30 11468 H 1094.74 2.95097 0.0121936 0
M  V30 11469 H 1094.82 2.06109 -1.51502 0
M  V30 11470 H 1094.47 4.24876 -2.78285 0
M  V30 11471 H 1094.4 5.12019 -1.2306 0
M  V30 11472 H 1096.89 3.55904 -1.27046 0
M  V30 11473 H 1097.2 7.04411 -3.17844 0
M  V30 11474 H 1095.55 6.33781 -2.85212 0
M  V30 11475 H 1098.74 4.3795 -1.6528 0
M  V30 11476 H 1098.91 5.96881 -2.52264 0
M  V30 11477 N 1092.32 0.406567 1.52266 0
M  V30 11478 C 1093.59 -0.228477 1.94261 0
M  V30 11479 C 1093.97 -1.62848 1.34328 0
M  V30 11480 O 1093.32 -2.22549 0.518082 0
M  V30 11481 C 1093.53 -0.237401 3.48192 0
M  V30 11482 C 1094.88 -0.457997 4.22123 0
M  V30 11483 O 1095.9 -0.316868 3.54788 0
M  V30 11484 O 1094.76 -0.735946 5.41522 0
M  V30 11485 H 1091.86 -0.146492 0.813922 0
M  V30 11486 H 1094.4 0.462325 1.63281 0
M  V30 11487 H 1093.17 0.742556 3.8419 0
M  V30 11488 H 1092.8 -0.972408 3.85526 0
M  V30 11489 N 1093.79 -1.57004 0.136909 0
M  V30 11490 C 1095.04 -1.95797 -0.516711 0
M  V30 11491 C 1095.37 -1.02123 -1.65533 0
M  V30 11492 O 1094.62 -0.0484835 -1.9564 0
M  V30 11493 C 1094.92 -3.40903 -1.07331 0
M  V30 11494 C 1094.59 -4.50867 -0.0541941 0
M  V30 11495 C 1093.25 -4.80669 0.225988 0
M  V30 11496 C 1095.6 -5.17264 0.639361 0
M  V30 11497 C 1092.93 -5.74177 1.2057 0
M  V30 11498 C 1095.28 -6.11827 1.60783 0
M  V30 11499 C 1093.95 -6.40012 1.89581 0
M  V30 11500 H 1093.22 -0.716471 -0.189078 0
M  V30 11501 H 1095.86 -1.90213 0.221605 0
M  V30 11502 H 1094.17 -3.43268 -1.88876 0
M  V30 11503 H 1095.87 -3.6824 -1.58745 0
M  V30 11504 H 1092.46 -4.27666 -0.282754 0
M  V30 11505 H 1096.64 -4.9438 0.436085 0
M  V30 11506 H 1091.9 -5.94312 1.43538 0
M  V30 11507 H 1096.07 -6.62354 2.15081 0
M  V30 11508 H 1093.7 -7.12274 2.65649 0
M  V30 11509 N 1095.27 0.136881 -1.57004 0
M  V30 11510 C 1096.22 1.17411 -1.95445 0
M  V30 11511 C 1097.21 1.38019 -0.827015 0
M  V30 11512 O 1098.4 1.39412 -1.09057 0
M  V30 11513 C 1095.53 2.50525 -2.34717 0
M  V30 11514 C 1094.61 2.33467 -3.54054 0
M  V30 11515 N 1095 1.86184 -4.70286 0
M  V30 11516 C 1093.3 2.64185 -3.59336 0
M  V30 11517 C 1094 1.82411 -5.5236 0
M  V30 11518 N 1092.98 2.26098 -4.94349 0
M  V30 11519 H 1096.78 0.8008 -2.8278 0
M  V30 11520 H 1094.3 0.344831 -1.58697 0
M  V30 11521 H 1096.29 3.2552 -2.60465 0
M  V30 11522 H 1094.95 2.8863 -1.48738 0
M  V30 11523 H 1095.96 1.55998 -4.93847 0
M  V30 11524 H 1092.64 3.06096 -2.83922 0
M  V30 11525 H 1094.03 1.4726 -6.55564 0
M  V30 11526 N 1096.75 1.52266 0.40654 0
M  V30 11527 C 1098 1.6568 1.15035 0
M  V30 11528 C 1098.31 0.394135 1.91588 0
M  V30 11529 O 1099.52 0.408113 2.68415 0
M  V30 11530 C 1097.97 2.92725 2.0938 0
M  V30 11531 C 1097.58 4.26108 1.38332 0
M  V30 11532 C 1099.33 3.15502 2.84004 0
M  V30 11533 C 1097.23 5.44275 2.3134 0
M  V30 11534 H 1096.16 0.61719 0.43312 0
M  V30 11535 H 1098.81 1.78755 0.414598 0
M  V30 11536 H 1097.2 2.73355 2.86519 0
M  V30 11537 H 1098.37 4.55971 0.665396 0
M  V30 11538 H 1096.69 4.09454 0.757384 0
M  V30 11539 H 1099.28 4.00964 3.5374 0
M  V30 11540 H 1099.63 2.29842 3.471 0
M  V30 11541 H 1100.16 3.35357 2.13964 0
M  V30 11542 H 1096.9 6.3229 1.72887 0
M  V30 11543 H 1096.42 5.18749 3.01098 0
M  V30 11544 H 1098.1 5.77457 2.91809 0
M  V30 11545 N 1098.23 -0.663929 1.42933 0
M  V30 11546 C 1099.18 -1.79843 1.4751 0
M  V30 11547 C 1100.17 -1.65751 0.349727 0
M  V30 11548 O 1101.38 -1.72227 0.523239 0
M  V30 11549 H 1097.75 -0.593176 0.462219 0
M  V30 11550 H 1099.72 -1.73102 2.4306 0
M  V30 11551 C 1098.47 -3.18053 1.4049 0
M  V30 11552 H 1097.79 -3.29529 2.26386 0
M  V30 11553 H 1099.23 -3.97423 1.47754 0
M  V30 11554 C 1097.69 -3.36682 0.121076 0
M  V30 11555 O 1098.22 -3.93202 -0.821874 0
M  V30 11556 N 1096.43 -2.90579 0.0347141 0
M  V30 11557 H 1095.98 -2.44769 0.802852 0
M  V30 11558 H 1095.93 -3.03421 -0.823607 0
M  V30 11559 N 1099.71 -1.29285 -0.901281 0
M  V30 11560 C 1100.64 -1.16832 -2.0217 0
M  V30 11561 C 1101.62 -0.0629265 -1.69984 0
M  V30 11562 O 1102.8 -0.242123 -1.92685 0
M  V30 11563 C 1099.93 -0.842406 -3.36929 0
M  V30 11564 C 1098.89 -1.90394 -3.8332 0
M  V30 11565 C 1098.21 -1.43138 -5.15185 0
M  V30 11566 C 1099.51 -3.31254 -4.03817 0
M  V30 11567 H 1101.21 -2.10562 -2.12847 0
M  V30 11568 H 1098.75 -1.01375 -1.0227 0
M  V30 11569 H 1100.71 -0.741999 -4.14816 0
M  V30 11570 H 1099.43 0.130598 -3.26339 0
M  V30 11571 H 1098.09 -1.99371 -3.07647 0
M  V30 11572 H 1097.74 -0.447091 -5.01009 0
M  V30 11573 H 1097.44 -2.14129 -5.47195 0
M  V30 11574 H 1098.96 -1.34444 -5.95615 0
M  V30 11575 H 1100.37 -3.25129 -4.72191 0
M  V30 11576 H 1098.77 -4.00189 -4.47178 0
M  V30 11577 H 1099.84 -3.74349 -3.08206 0
M  V30 11578 N 1101.18 1.11143 -1.11736 0
M  V30 11579 C 1102.43 1.82948 -0.868127 0
M  V30 11580 C 1102.76 1.84813 0.606182 0
M  V30 11581 O 1102.01 1.29901 1.4637 0
M  V30 11582 C 1102.31 3.29733 -1.3788 0
M  V30 11583 C 1101.98 3.48025 -2.86687 0
M  V30 11584 C 1100.64 3.52725 -3.2732 0
M  V30 11585 C 1102.99 3.54024 -3.82513 0
M  V30 11586 C 1100.32 3.60983 -4.62502 0
M  V30 11587 C 1102.67 3.63814 -5.17515 0
M  V30 11588 C 1101.34 3.66776 -5.57702 0
M  V30 11589 H 1100.61 0.669452 -0.31767 0
M  V30 11590 H 1103.25 1.31057 -1.3963 0
M  V30 11591 H 1101.56 3.8414 -0.77093 0
M  V30 11592 H 1103.26 3.83787 -1.16225 0
M  V30 11593 H 1099.85 3.45039 -2.54256 0
M  V30 11594 H 1104.03 3.4965 -3.52219 0
M  V30 11595 H 1099.29 3.61554 -4.9304 0
M  V30 11596 H 1103.46 3.674 -5.916 0
M  V30 11597 H 1101.09 3.72927 -6.62442 0
M  V30 11598 N 1102.66 0.908147 1.28804 0
M  V30 11599 C 1103.59 0.34957 2.26519 0
M  V30 11600 C 1104.61 -0.508845 1.54643 0
M  V30 11601 O 1105.8 -0.324633 1.75523 0
M  V30 11602 C 1102.9 -0.519461 3.34895 0
M  V30 11603 C 1102.07 0.315157 4.36263 0
M  V30 11604 C 1101.13 -0.488059 5.23932 0
M  V30 11605 O 1100.15 0.0974133 5.69117 0
M  V30 11606 N 1101.36 -1.79233 5.52137 0
M  V30 11607 H 1104.12 1.18945 2.75086 0
M  V30 11608 H 1101.68 0.77351 1.42227 0
M  V30 11609 H 1103.67 -1.0634 3.90479 0
M  V30 11610 H 1102.24 -1.26004 2.8608 0
M  V30 11611 H 1101.46 1.04049 3.8022 0
M  V30 11612 H 1102.75 0.886438 5.01019 0
M  V30 11613 H 1102.15 -2.2906 5.1725 0
M  V30 11614 H 1100.71 -2.28322 6.10502 0
M  V30 11615 N 1104.14 -1.42577 0.671525 0
M  V30 11616 C 1105.39 -2.01882 0.192716 0
M  V30 11617 C 1105.72 -1.52959 -1.19654 0
M  V30 11618 O 1104.99 -0.730404 -1.80265 0
M  V30 11619 C 1105.28 -3.59404 0.223734 0
M  V30 11620 C 1105.13 -4.18514 1.64821 0
M  V30 11621 C 1106.45 -4.37996 -0.429858 0
M  V30 11622 H 1103.57 -0.733523 0.0715026 0
M  V30 11623 H 1106.21 -1.69641 0.855689 0
M  V30 11624 H 1104.36 -3.87003 -0.340776 0
M  V30 11625 H 1106.03 -4.01881 2.26472 0
M  V30 11626 H 1104.28 -3.74467 2.1899 0
M  V30 11627 H 1104.95 -5.27643 1.62162 0
M  V30 11628 H 1107.42 -4.16069 0.0506433 0
M  V30 11629 H 1106.3 -5.476 -0.377503 0
M  V30 11630 H 1106.56 -4.15625 -1.50693 0
M  V30 11631 N 1105.62 -0.414636 -1.52048 0
M  V30 11632 C 1106.55 0.399119 -2.30064 0
M  V30 11633 C 1107.53 1.04126 -1.34506 0
M  V30 11634 O 1108.71 1.04923 -1.63416 0
M  V30 11635 C 1105.84 1.51305 -3.12608 0
M  V30 11636 C 1104.8 0.995621 -4.16259 0
M  V30 11637 C 1104.12 2.20357 -4.87183 0
M  V30 11638 C 1105.42 0.0458178 -5.2228 0
M  V30 11639 H 1107.12 -0.251879 -2.98339 0
M  V30 11640 H 1104.66 -0.122579 -1.43477 0
M  V30 11641 H 1106.62 2.08936 -3.65956 0
M  V30 11642 H 1105.34 2.19201 -2.42113 0
M  V30 11643 H 1104 0.441676 -3.6393 0
M  V30 11644 H 1103.65 2.8682 -4.13211 0
M  V30 11645 H 1103.35 1.86385 -5.57256 0
M  V30 11646 H 1104.87 2.78584 -5.43345 0
M  V30 11647 H 1106.29 0.531102 -5.70835 0
M  V30 11648 H 1104.68 -0.20536 -5.99749 0
M  V30 11649 H 1105.75 -0.897807 -4.76516 0
M  V30 11650 N 1107.1 1.56929 -0.145233 0
M  V30 11651 C 1108.51 1.82877 0.375884 0
M  V30 11652 C 1108.86 1.06384 1.64854 0
M  V30 11653 O 1107.98 0.30857 2.14189 0
M  V30 11654 C 1108.58 3.31725 0.688744 0
M  V30 11655 C 1107.14 3.58261 1.15439 0
M  V30 11656 C 1106.28 2.76737 0.176565 0
M  V30 11657 H 1109.24 1.54328 -0.36996 0
M  V30 11658 H 1109.26 3.47784 1.54359 0
M  V30 11659 H 1108.77 3.87371 -0.237694 0
M  V30 11660 H 1106.87 3.08 2.09683 0
M  V30 11661 H 1106.98 4.66732 1.08158 0
M  V30 11662 H 1105.35 2.45761 0.668843 0
M  V30 11663 H 1106.13 3.35154 -0.743432 0
M  V30 11664 N 1108.58 -0.128553 1.57075 0
M  V30 11665 C 1109.82 -0.834322 1.85501 0
M  V30 11666 C 1110.18 -1.77943 0.731725 0
M  V30 11667 O 1109.47 -1.89702 -0.269003 0
M  V30 11668 C 1109.66 -1.63027 3.18052 0
M  V30 11669 C 1109.49 -0.763737 4.43167 0
M  V30 11670 C 1108.26 -0.42224 5.03533 0
M  V30 11671 C 1110.46 -0.0856773 5.14229 0
M  V30 11672 N 1108.44 0.455954 6.12204 0
M  V30 11673 C 1109.81 0.651902 6.16563 0
M  V30 11674 C 1111.87 -0.00826404 4.97899 0
M  V30 11675 C 1110.57 1.45961 7.04335 0
M  V30 11676 C 1112.6 0.786239 5.8615 0
M  V30 11677 C 1111.96 1.51204 6.8798 0
M  V30 11678 H 1108.06 -0.282535 0.729176 0
M  V30 11679 H 1110.64 -0.0985924 1.9445 0
M  V30 11680 H 1108.81 -2.3371 3.10216 0
M  V30 11681 H 1110.55 -2.28063 3.34319 0
M  V30 11682 H 1107.3 -0.76229 4.67425 0
M  V30 11683 H 1107.72 0.886619 6.71169 0
M  V30 11684 H 1112.37 -0.555051 4.19141 0
M  V30 11685 H 1110.08 2.01759 7.82508 0
M  V30 11686 H 1113.67 0.848372 5.75581 0
M  V30 11687 H 1112.55 2.11694 7.55086 0
M  V30 11688 N 1110.05 -1.5248 -0.398459 0
M  V30 11689 C 1110.98 -1.79549 -1.49279 0
M  V30 11690 C 1111.96 -0.647004 -1.57315 0
M  V30 11691 O 1113.15 -0.893661 -1.72416 0
M  V30 11692 C 1110.28 -1.95582 -2.86993 0
M  V30 11693 C 1109.23 -3.1123 -2.93803 0
M  V30 11694 C 1108.56 -3.12501 -4.33874 0
M  V30 11695 C 1109.86 -4.50485 -2.64312 0
M  V30 11696 H 1111.55 -2.71187 -1.26877 0
M  V30 11697 H 1109.1 -1.30492 -0.608924 0
M  V30 11698 H 1111.05 -2.13102 -3.63546 0
M  V30 11699 H 1109.78 -1.00625 -3.10712 0
M  V30 11700 H 1108.44 -2.93477 -2.19697 0
M  V30 11701 H 1108.08 -2.15245 -4.54619 0
M  V30 11702 H 1107.78 -3.90183 -4.39353 0
M  V30 11703 H 1109.31 -3.32164 -5.12347 0
M  V30 11704 H 1110.72 -4.68387 -3.30585 0
M  V30 11705 H 1109.12 -5.30163 -2.81153 0
M  V30 11706 H 1110.19 -4.57848 -1.59696 0
M  V30 11707 N 1111.53 0.65634 -1.43283 0
M  V30 11708 C 1112.48 1.76934 -1.48199 0
M  V30 11709 C 1113.45 1.62748 -0.332023 0
M  V30 11710 O 1114.63 1.83036 -0.538735 0
M  V30 11711 C 1111.77 3.15072 -1.40797 0
M  V30 11712 C 1110.89 3.40414 -2.65974 0
M  V30 11713 C 1110.02 4.68383 -2.50582 0
M  V30 11714 C 1109.06 4.8682 -3.71043 0
M  V30 11715 N 1108.2 6.06043 -3.5448 0
M  V30 11716 H 1113.04 1.72067 -2.43304 0
M  V30 11717 H 1110.57 0.839728 -1.20777 0
M  V30 11718 H 1112.53 3.94925 -1.345 0
M  V30 11719 H 1111.16 3.19017 -0.492754 0
M  V30 11720 H 1110.21 2.54681 -2.82563 0
M  V30 11721 H 1111.53 3.49925 -3.55463 0
M  V30 11722 H 1110.68 5.56357 -2.41975 0
M  V30 11723 H 1109.42 4.61187 -1.58612 0
M  V30 11724 H 1108.42 3.97282 -3.80062 0
M  V30 11725 H 1109.65 4.95847 -4.64017 0
M  V30 11726 H 1107.6 5.99985 -2.65242 0
M  V30 11727 H 1107.51 6.16498 -4.37568 0
M  V30 11728 H 1108.78 6.96647 -3.49719 0
M  V30 11729 N 1113.01 1.29761 0.894412 0
M  V30 11730 C 1113.92 1.1724 2.03204 0
M  V30 11731 C 1114.94 0.0944452 1.73743 0
M  V30 11732 O 1116.11 0.307549 1.99038 0
M  V30 11733 C 1113.18 0.855416 3.35981 0
M  V30 11734 C 1112.24 2.01777 3.78926 0
M  V30 11735 C 1111.47 1.71581 5.05367 0
M  V30 11736 O 1111.69 0.639245 5.66807 0
M  V30 11737 O 1110.63 2.56539 5.44492 0
M  V30 11738 H 1114.45 2.12787 2.16692 0
M  V30 11739 H 1112.04 1.09264 1.0189 0
M  V30 11740 H 1113.92 0.693429 4.15656 0
M  V30 11741 H 1112.6 -0.0702195 3.23624 0
M  V30 11742 H 1111.5 2.23502 2.99996 0
M  V30 11743 H 1112.84 2.92479 3.95875 0
M  V30 11744 N 1114.49 -1.10549 1.12324 0
M  V30 11745 C 1115.43 -2.16858 0.790024 0
M  V30 11746 C 1116.4 -1.64317 -0.242694 0
M  V30 11747 O 1117.59 -1.90438 -0.117531 0
M  V30 11748 C 1114.73 -3.44197 0.249503 0
M  V30 11749 C 1113.84 -4.10696 1.33989 0
M  V30 11750 C 1112.98 -5.25751 0.758932 0
M  V30 11751 C 1112.02 -5.8415 1.82853 0
M  V30 11752 N 1111.15 -6.90585 1.26637 0
M  V30 11753 H 1115.99 -2.44705 1.7007 0
M  V30 11754 H 1113.53 -1.20117 0.849141 0
M  V30 11755 H 1115.49 -4.1712 -0.0819251 0
M  V30 11756 H 1114.12 -3.16705 -0.624332 0
M  V30 11757 H 1113.17 -3.35754 1.78812 0
M  V30 11758 H 1114.48 -4.50144 2.14875 0
M  V30 11759 H 1113.64 -6.05521 0.378104 0
M  V30 11760 H 1112.38 -4.87632 -0.0811405 0
M  V30 11761 H 1111.38 -5.03051 2.21856 0
M  V30 11762 H 1112.61 -6.24333 2.6718 0
M  V30 11763 H 1110.55 -6.54468 0.448105 0
M  V30 11764 H 1110.47 -7.28739 2.01184 0
M  V30 11765 H 1111.74 -7.74138 0.912737 0
M  V30 11766 N 1115.97 -0.914965 -1.28321 0
M  V30 11767 C 1116.9 -0.421292 -2.29668 0
M  V30 11768 C 1117.88 0.511743 -1.6222 0
M  V30 11769 O 1119.06 0.419218 -1.89621 0
M  V30 11770 C 1116.19 0.338364 -3.45648 0
M  V30 11771 C 1115.15 -0.505646 -4.25003 0
M  V30 11772 C 1114.47 0.382421 -5.33331 0
M  V30 11773 C 1115.77 -1.76354 -4.91626 0
M  V30 11774 H 1117.47 -1.26826 -2.71211 0
M  V30 11775 H 1115.01 -0.611291 -1.30381 0
M  V30 11776 H 1116.96 0.694578 -4.15636 0
M  V30 11777 H 1115.69 1.21925 -3.02988 0
M  V30 11778 H 1114.35 -0.844395 -3.56743 0
M  V30 11779 H 1114 1.26189 -4.86914 0
M  V30 11780 H 1113.7 -0.17871 -5.87328 0
M  V30 11781 H 1115.22 0.73449 -6.06166 0
M  V30 11782 H 1116.63 -1.47616 -5.5397 0
M  V30 11783 H 1115.03 -2.26717 -5.55625 0
M  V30 11784 H 1116.1 -2.49063 -4.16048 0
M  V30 11785 N 1117.44 1.42219 -0.679077 0
M  V30 11786 C 1118.38 2.29172 0.035583 0
M  V30 11787 C 1119.39 1.43909 0.761183 0
M  V30 11788 O 1120.58 1.67584 0.61463 0
M  V30 11789 C 1117.68 3.21426 1.07419 0
M  V30 11790 C 1116.85 4.35364 0.421547 0
M  V30 11791 C 1115.91 5.08307 1.36051 0
M  V30 11792 O 1114.94 5.62678 0.859186 0
M  V30 11793 N 1116.14 5.14222 2.69362 0
M  V30 11794 H 1118.9 2.91147 -0.710865 0
M  V30 11795 H 1116.46 1.53192 -0.523821 0
M  V30 11796 H 1118.46 3.67091 1.70371 0
M  V30 11797 H 1117.03 2.60873 1.72233 0
M  V30 11798 H 1116.25 3.9229 -0.387559 0
M  V30 11799 H 1117.53 5.08789 -0.0329421 0
M  V30 11800 H 1116.93 4.71467 3.12627 0
M  V30 11801 H 1115.49 5.63519 3.27551 0
M  V30 11802 N 1118.92 0.422693 1.51826 0
M  V30 11803 C 1120.2 -0.20786 1.94492 0
M  V30 11804 C 1120.58 -1.61414 1.36047 0
M  V30 11805 O 1119.93 -2.21987 0.541657 0
M  V30 11806 C 1120.14 -0.200457 3.48424 0
M  V30 11807 C 1121.48 -0.413199 4.22585 0
M  V30 11808 O 1122.51 -0.27922 3.55104 0
M  V30 11809 O 1121.37 -0.678469 5.42272 0
M  V30 11810 H 1118.46 -0.137851 0.81543 0
M  V30 11811 H 1121.01 0.479617 1.62781 0
M  V30 11812 H 1119.78 0.783263 3.83381 0
M  V30 11813 H 1119.4 -0.931464 3.86535 0
M  V30 11814 N 1120.4 -1.5685 0.153553 0
M  V30 11815 C 1121.31 -2.20664 -0.796528 0
M  V30 11816 C 1122.33 -1.19289 -1.26674 0
M  V30 11817 O 1123.5 -1.51889 -1.32256 0
M  V30 11818 C 1120.57 -2.82088 -2.01561 0
M  V30 11819 C 1119.63 -3.9861 -1.59401 0
M  V30 11820 C 1118.86 -4.57096 -2.75498 0
M  V30 11821 O 1119.08 -4.14462 -3.9189 0
M  V30 11822 O 1118.02 -5.47254 -2.50593 0
M  V30 11823 H 1121.84 -3.02376 -0.283282 0
M  V30 11824 H 1119.43 -1.49218 -0.0737927 0
M  V30 11825 H 1121.31 -3.21103 -2.72893 0
M  V30 11826 H 1119.99 -2.03385 -2.51826 0
M  V30 11827 H 1118.89 -3.64299 -0.850725 0
M  V30 11828 H 1120.23 -4.78853 -1.13845 0
M  V30 11829 N 1121.88 0.120221 -1.57141 0
M  V30 11830 C 1123.15 0.858458 -1.75755 0
M  V30 11831 C 1123.53 1.98124 -0.728693 0
M  V30 11832 O 1122.88 2.27155 0.247573 0
M  V30 11833 C 1123.09 1.37627 -3.20718 0
M  V30 11834 C 1124.44 1.82909 -3.83183 0
M  V30 11835 O 1125.46 1.47309 -3.24312 0
M  V30 11836 O 1124.32 2.4865 -4.86657 0
M  V30 11837 H 1121.42 0.407583 -0.719587 0
M  V30 11838 H 1123.96 0.104057 -1.69381 0
M  V30 11839 H 1122.74 0.570651 -3.87117 0
M  V30 11840 H 1122.36 2.19341 -3.31625 0
M  V30 11841 N 1123.36 1.52689 0.390367 0
M  V30 11842 C 1124.29 1.80338 1.48325 0
M  V30 11843 C 1125.27 0.655338 1.56969 0
M  V30 11844 O 1126.45 0.902792 1.7194 0
M  V30 11845 C 1123.58 1.97101 2.85952 0
M  V30 11846 C 1122.54 3.12783 2.92148 0
M  V30 11847 C 1121.86 3.14798 4.32211 0
M  V30 11848 C 1123.16 4.5188 2.61919 0
M  V30 11849 H 1124.86 2.71857 1.25437 0
M  V30 11850 H 1122.4 1.30813 0.601995 0
M  V30 11851 H 1124.36 2.15027 3.62411 0
M  V30 11852 H 1123.08 1.02271 3.10174 0
M  V30 11853 H 1121.74 2.94638 2.18137 0
M  V30 11854 H 1121.39 2.17653 4.53471 0
M  V30 11855 H 1121.09 3.92507 4.37278 0
M  V30 11856 H 1122.61 3.34877 5.10578 0
M  V30 11857 H 1124.02 4.70134 3.28096 0
M  V30 11858 H 1122.42 5.31647 2.78337 0
M  V30 11859 H 1123.49 4.58689 1.57266 0
M  V30 11860 N 1124.83 -0.648732 1.43629 0
M  V30 11861 C 1126.08 -1.40579 1.45196 0
M  V30 11862 C 1126.4 -1.9484 0.0790556 0
M  V30 11863 O 1125.67 -1.74707 -0.886239 0
M  V30 11864 H 1124.25 -0.52175 0.53459 0
M  V30 11865 H 1126.92 -0.764796 1.79268 0
M  V30 11866 H 1126.01 -2.24591 2.16715 0
M  V30 11867 N 1126.31 -1.30234 -0.887518 0
M  V30 11868 C 1127.56 -1.1891 -1.6391 0
M  V30 11869 C 1127.89 0.256749 -1.92798 0
M  V30 11870 O 1127.14 1.20047 -1.54555 0
M  V30 11871 C 1127.44 -1.96046 -2.98832 0
M  V30 11872 C 1127.11 -3.45683 -2.89507 0
M  V30 11873 C 1125.77 -3.86489 -2.8667 0
M  V30 11874 C 1128.12 -4.40983 -2.7782 0
M  V30 11875 C 1125.45 -5.2089 -2.69982 0
M  V30 11876 C 1127.8 -5.75489 -2.6267 0
M  V30 11877 C 1126.47 -6.15537 -2.58207 0
M  V30 11878 H 1125.74 -0.435123 -0.599791 0
M  V30 11879 H 1128.38 -1.61308 -1.03209 0
M  V30 11880 H 1126.69 -1.46275 -3.6347 0
M  V30 11881 H 1128.38 -1.84678 -3.55942 0
M  V30 11882 H 1124.97 -3.13255 -2.92523 0
M  V30 11883 H 1129.16 -4.10401 -2.79079 0
M  V30 11884 H 1124.41 -5.51014 -2.6494 0
M  V30 11885 H 1128.59 -6.48973 -2.526 0
M  V30 11886 H 1126.22 -7.19627 -2.45034 0
M  V30 11887 N 1127.79 1.09952 -1.12909 0
M  V30 11888 C 1128.72 2.18477 -0.824014 0
M  V30 11889 C 1129.7 1.68744 0.214324 0
M  V30 11890 O 1130.89 1.94057 0.0744281 0
M  V30 11891 C 1128.02 3.46143 -0.283308 0
M  V30 11892 C 1126.97 4.09178 -1.25528 0
M  V30 11893 C 1126.3 5.31604 -0.574574 0
M  V30 11894 C 1127.6 4.52308 -2.6118 0
M  V30 11895 H 1129.29 2.44254 -1.73148 0
M  V30 11896 H 1126.84 1.17394 -0.833952 0
M  V30 11897 H 1128.79 4.21361 -0.057583 0
M  V30 11898 H 1127.51 3.19872 0.659525 0
M  V30 11899 H 1126.17 3.35973 -1.4669 0
M  V30 11900 H 1125.82 5.01611 0.37356 0
M  V30 11901 H 1125.52 5.74732 -1.22299 0
M  V30 11902 H 1127.04 6.0955 -0.358004 0
M  V30 11903 H 1128.46 5.18776 -2.44017 0
M  V30 11904 H 1126.86 5.06302 -3.22147 0
M  V30 11905 H 1127.93 3.64977 -3.19249 0
M  V30 11906 O 1129.31 1.05328 1.22427 0
M  V30 11907 H 1130 0.730081 1.79414 0
M  V30 END ATOM
M  V30 BEGIN BOND
M  V30 END BOND
M  V30 END CTAB
M  END
$$$$
