drugbank_target|P20339 Ras-related protein Rab-5A (DB02467; DB04137; DB04315)
 OpenBabel12092120553D

  0  0  0     0  0            999 V3000
M  V30 BEGIN CTAB
M  V30 COUNTS 3299 3328 0 0 0
M  V30 BEGIN ATOM
M  V30 1 H -0.908 1.98254 -0.117106 0
M  V30 2 N 0 1.576 0 0
M  V30 3 C 0.933 2.03868 1.02534 0
M  V30 4 C 1.911 0.928543 1.3348 0
M  V30 5 O 3.095 1.19667 1.45644 0
M  V30 6 C 0.222 2.43627 2.35294 0
M  V30 7 C -0.732 3.65373 2.2001 0
M  V30 8 S 0.101 5.13292 1.52614 0
M  V30 9 C 1.257 5.56322 2.86805 0
M  V30 10 H 1.49 2.90518 0.631377 0
M  V30 11 H -0.977 1.52953 0.210867 0
M  V30 12 H 0.981 2.67203 3.11629 0
M  V30 13 H -0.358 1.57376 2.7183 0
M  V30 14 H -1.165 3.90944 3.18086 0
M  V30 15 H -1.563 3.418 1.51819 0
M  V30 16 H 0.729 5.58782 3.83104 0
M  V30 17 H 1.672 6.56266 2.65933 0
M  V30 18 H 2.08 4.83886 2.90714 0
M  V30 19 N 1.4781 -0.272755 1.55222 0
M  V30 20 C 2.4411 -1.32041 1.87344 0
M  V30 21 C 3.4411 -1.42342 0.74803 0
M  V30 22 O 4.6311 -1.41488 1.0162 0
M  V30 23 C 1.7631 -2.70173 2.07893 0
M  V30 24 H 2.9561 -1.04789 2.80997 0
M  V30 25 H 0.5091 -0.51083 1.47717 0
M  V30 26 H 1.2441 -3.02605 1.16622 0
M  V30 27 H 1.0291 -2.64082 2.89833 0
M  V30 28 H 2.5191 -3.45869 2.34017 0
M  V30 29 N 2.9562 -1.48159 -0.537278 0
M  V30 30 C 4.1812 -1.59707 -1.32319 0
M  V30 31 C 4.6062 -0.254859 -1.86365 0
M  V30 32 O 3.9642 0.772378 -1.64024 0
M  V30 33 C 4.0122 -2.6412 -2.45505 0
M  V30 34 O 3.1162 -2.20774 -3.48328 0
M  V30 35 H 2.4572 -0.535791 -0.392204 0
M  V30 36 H 4.9872 -1.94092 -0.647268 0
M  V30 37 H 4.9972 -2.85166 -2.91795 0
M  V30 38 H 3.6722 -3.61567 -2.05528 0
M  V30 39 H 2.2492 -2.09911 -3.08207 0
M  V30 40 N 4.4343 0.785586 -1.36625 0
M  V30 41 C 5.8503 1.08419 -1.17122 0
M  V30 42 C 6.0503 2.015 0.00208491 0
M  V30 43 O 5.1063 2.43551 0.666278 0
M  V30 44 C 6.4193 1.69498 -2.48377 0
M  V30 45 C 7.9673 1.81821 -2.54775 0
M  V30 46 C 8.4423 2.46315 -3.86126 0
M  V30 47 N 9.9333 2.53779 -3.87492 0
M  V30 48 C 10.6683 3.045 -4.85868 0
M  V30 49 N 10.1643 3.55499 -5.94637 0
M  V30 50 N 11.9573 3.03247 -4.73284 0
M  V30 51 H 4.1083 0.167264 -2.1174 0
M  V30 52 H 6.3713 0.13682 -0.938075 0
M  V30 53 H 6.0773 1.08571 -3.34522 0
M  V30 54 H 5.9513 2.6896 -2.64462 0
M  V30 55 H 8.3383 2.41884 -1.69045 0
M  V30 56 H 8.4193 0.811532 -2.42586 0
M  V30 57 H 8.0633 1.86895 -4.72263 0
M  V30 58 H 7.9933 3.47561 -3.95612 0
M  V30 59 H 10.4843 2.17672 -3.08913 0
M  V30 60 H 10.7973 3.92562 -6.65669 0
M  V30 61 H 9.1423 3.5364 -5.98301 0
M  V30 62 H 12.3333 2.62696 -3.87438 0
M  V30 63 H 12.5063 3.42467 -5.50109 0
M  V30 64 N 5.9124 1.20967 1.01018 0
M  V30 65 C 7.1604 1.02172 1.74371 0
M  V30 66 C 7.4814 -0.446414 1.89821 0
M  V30 67 O 6.7514 -1.32234 1.44537 0
M  V30 68 H 5.3314 0.375066 0.646014 0
M  V30 69 H 7.9934 1.52187 1.21758 0
M  V30 70 H 7.0894 1.48538 2.74487 0
M  V30 71 N 7.3905 -1.2043 1.01659 0
M  V30 72 C 8.3535 -2.21433 0.591616 0
M  V30 73 C 9.3535 -1.57203 -0.338226 0
M  V30 74 O 10.5435 -1.73737 -0.126918 0
M  V30 75 C 7.6755 -3.40628 -0.136058 0
M  V30 76 H 8.8685 -2.60545 1.48514 0
M  V30 77 H 6.4215 -1.33893 0.806379 0
M  V30 78 H 7.1565 -3.07019 -1.04449 0
M  V30 79 H 6.9415 -3.88475 0.531917 0
M  V30 80 H 8.4315 -4.15475 -0.420735 0
M  V30 81 N 8.8686 -0.792821 -1.36206 0
M  V30 82 C 10.0966 -0.378825 -2.03402 0
M  V30 83 C 10.5116 1.00586 -1.59774 0
M  V30 84 O 9.8686 1.64574 -0.788764 0
M  V30 85 C 9.9196 -0.43683 -3.58851 0
M  V30 86 O 9.6406 -1.76691 -4.00889 0
M  V30 87 C 11.1416 -0.0138943 -4.43298 0
M  V30 88 H 8.3616 -0.155673 -0.652692 0
M  V30 89 H 10.9056 -1.07261 -1.74113 0
M  V30 90 H 9.0606 0.208575 -3.86838 0
M  V30 91 H 9.4746 -1.72011 -4.95492 0
M  V30 92 H 10.9486 -0.105615 -5.51899 0
M  V30 93 H 11.4256 1.03915 -4.2673 0
M  V30 94 H 12.0316 -0.63192 -4.20579 0
M  V30 95 N 10.3467 1.47872 -0.545128 0
M  V30 96 C 11.7627 1.5829 -0.204032 0
M  V30 97 C 11.9627 1.54529 1.29317 0
M  V30 98 O 11.0187 1.44232 2.07252 0
M  V30 99 C 12.3317 2.89304 -0.819987 0
M  V30 100 C 13.8797 3.02864 -0.790105 0
M  V30 101 C 14.3547 4.3656 -1.38491 0
M  V30 102 N 15.8457 4.43165 -1.34755 0
M  V30 103 C 16.5807 5.45153 -1.77753 0
M  V30 104 N 16.0767 6.54016 -2.2855 0
M  V30 105 N 17.8697 5.36125 -1.68897 0
M  V30 106 H 10.0207 1.4856 -1.51802 0
M  V30 107 H 12.2837 0.706305 -0.632327 0
M  V30 108 H 11.9897 2.97757 -1.87173 0
M  V30 109 H 11.8637 3.75957 -0.305915 0
M  V30 110 H 14.2507 2.94014 0.252913 0
M  V30 111 H 14.3317 2.17782 -1.34181 0
M  V30 112 H 13.9757 4.46164 -2.42693 0
M  V30 113 H 13.9057 5.20353 -0.808754 0
M  V30 114 H 16.3967 3.65083 -0.975855 0
M  V30 115 H 16.7097 7.27994 -2.59314 0
M  V30 116 H 15.0547 6.54938 -2.32553 0
M  V30 117 H 18.2457 4.49975 -1.28998 0
M  V30 118 H 18.4187 6.15472 -2.02726 0
M  V30 119 N 11.8248 0.280983 1.55075 0
M  V30 120 C 13.2358 -0.215629 1.85451 0
M  V30 121 C 13.5868 -1.54991 1.203 0
M  V30 122 O 12.7118 -2.10699 0.493435 0
M  V30 123 C 13.3068 -0.398026 3.36454 0
M  V30 124 C 11.8658 -0.838866 3.66933 0
M  V30 125 C 11.0128 0.064458 2.77225 0
M  V30 126 H 13.9638 0.502601 1.50531 0
M  V30 127 H 13.9848 -1.23569 3.59876 0
M  V30 128 H 13.4968 0.573241 3.83843 0
M  V30 129 H 11.5978 -1.8214 3.25048 0
M  V30 130 H 11.7108 -0.672123 4.74362 0
M  V30 131 H 10.0748 -0.452863 2.50642 0
M  V30 132 H 10.8578 1.03172 3.2743 0
M  V30 133 N 13.3029 -1.57598 0.00835791 0
M  V30 134 C 14.2509 -2.10078 -0.998508 0
M  V30 135 C 15.2449 -1.02262 -1.35051 0
M  V30 136 O 16.4509 -1.20719 -1.33518 0
M  V30 137 H 12.8259 -0.670903 -0.339696 0
M  V30 138 H 14.7969 -2.93648 -0.530398 0
M  V30 139 C 13.5459 -2.62615 -2.27879 0
M  V30 140 H 12.8689 -3.45213 -2.01662 0
M  V30 141 H 14.3089 -3.03004 -2.96588 0
M  V30 142 C 12.7679 -1.54407 -2.99433 0
M  V30 143 O 13.2979 -0.931812 -3.90743 0
M  V30 144 N 11.5039 -1.2695 -2.61404 0
M  V30 145 H 11.0509 -1.76924 -1.87232 0
M  V30 146 H 11.0089 -0.547704 -3.09593 0
M  V30 147 N 14.781 0.264519 -1.55364 0
M  V30 148 C 16.029 0.993021 -1.76021 0
M  V30 149 C 16.35 1.86511 -0.569099 0
M  V30 150 O 15.62 1.91438 0.415735 0
M  V30 151 H 14.2 0.369639 -0.649135 0
M  V30 152 H 16.862 0.286707 -1.9278 0
M  V30 153 H 15.958 1.62502 -2.66457 0
M  V30 154 N 16.2591 1.48442 0.529413 0
M  V30 155 C 17.6701 1.5002 1.11134 0
M  V30 156 C 18.0211 0.27031 1.94329 0
M  V30 157 O 17.1461 -0.622507 2.07253 0
M  V30 158 C 17.7411 2.71834 2.02217 0
M  V30 159 C 16.3001 2.76283 2.55627 0
M  V30 160 C 15.4471 2.43542 1.326 0
M  V30 161 H 18.3981 1.5555 0.314641 0
M  V30 162 H 18.4191 2.50384 2.8651 0
M  V30 163 H 17.9311 3.61331 1.41639 0
M  V30 164 H 16.0321 1.90995 3.19924 0
M  V30 165 H 16.1451 3.77725 2.94721 0
M  V30 166 H 14.5091 1.94709 1.64196 0
M  V30 167 H 15.2921 3.3528 0.737734 0
M  V30 168 N 17.7372 -0.778329 1.37039 0
M  V30 169 C 18.6852 -1.91278 1.32345 0
M  V30 170 C 19.6792 -1.68051 0.213331 0
M  V30 171 O 20.8852 -1.75922 0.38098 0
M  V30 172 H 17.2602 -0.628909 0.412283 0
M  V30 173 H 19.2312 -1.92355 2.28127 0
M  V30 174 C 17.9802 -3.28455 1.14073 0
M  V30 175 H 17.3032 -3.46901 1.98746 0
M  V30 176 H 18.7432 -4.08152 1.14837 0
M  V30 177 C 17.2022 -3.36548 -0.154015 0
M  V30 178 O 17.7322 -3.85186 -1.13993 0
M  V30 179 N 15.9382 -2.89894 -0.202475 0
M  V30 180 H 15.4852 -2.50504 0.600476 0
M  V30 181 H 15.4432 -2.9569 -1.06841 0
M  V30 182 N 19.2153 -1.21501 -1.00376 0
M  V30 183 C 20.4433 -1.059 -1.77744 0
M  V30 184 C 20.8583 0.391125 -1.84704 0
M  V30 185 O 20.2153 1.27133 -1.30933 0
M  V30 186 C 20.2663 -1.65111 -3.21591 0
M  V30 187 O 19.9873 -3.0445 -3.15027 0
M  V30 188 C 21.4883 -1.54637 -4.15454 0
M  V30 189 H 18.7083 -0.371825 -0.558558 0
M  V30 190 H 21.2523 -1.60865 -1.26264 0
M  V30 191 H 19.4073 -1.14235 -3.70175 0
M  V30 192 H 19.8213 -3.3278 -4.0541 0
M  V30 193 H 21.2953 -2.00808 -5.14179 0
M  V30 194 H 21.7723 -0.501022 -4.36333 0
M  V30 195 H 22.3783 -2.04767 -3.72761 0
M  V30 196 N 20.6934 1.19889 -1.02296 0
M  V30 197 C 21.9414 1.89046 -0.714558 0
M  V30 198 C 22.2624 1.79636 0.758681 0
M  V30 199 O 21.5324 1.20292 1.54618 0
M  V30 200 H 20.1124 0.699802 -0.261317 0
M  V30 201 H 22.7744 1.45574 -1.29592 0
M  V30 202 H 21.8704 2.95524 -1.0036 0
M  V30 203 N 22.1715 0.800033 1.35784 0
M  V30 204 C 23.1195 0.193851 2.31791 0
M  V30 205 C 24.1135 -0.652744 1.56319 0
M  V30 206 O 25.3195 -0.546641 1.71499 0
M  V30 207 H 21.6945 0.04392 0.750716 0
M  V30 208 H 23.6655 1.01883 2.80468 0
M  V30 209 C 22.4145 -0.648338 3.41602 0
M  V30 210 H 21.7375 -0.00624665 3.998 0
M  V30 211 H 23.1775 -1.03898 4.11073 0
M  V30 212 C 21.6365 -1.8111 2.84079 0
M  V30 213 O 22.1665 -2.90825 2.77099 0
M  V30 214 N 20.3725 -1.62056 2.41218 0
M  V30 215 H 19.9195 -0.728123 2.47095 0
M  V30 216 H 19.8775 -2.40013 2.03079 0
M  V30 217 N 23.6496 -1.47581 0.552962 0
M  V30 218 C 24.5966 -2.29957 -0.197108 0
M  V30 219 C 25.5666 -1.38799 -0.912359 0
M  V30 220 O 26.7516 -1.67761 -0.908888 0
M  V30 221 C 23.8916 -3.22672 -1.22379 0
M  V30 222 C 23.0046 -4.28919 -0.515038 0
M  V30 223 C 22.1396 -5.0879 -1.52664 0
M  V30 224 C 21.1786 -6.06815 -0.802631 0
M  V30 225 N 20.3156 -6.7966 -1.76086 0
M  V30 226 H 25.1556 -2.93578 0.511486 0
M  V30 227 H 22.6926 -1.4471 0.264067 0
M  V30 228 H 24.6506 -3.74845 -1.83159 0
M  V30 229 H 23.2806 -2.60925 -1.90047 0
M  V30 230 H 22.3326 -3.79835 0.207192 0
M  V30 231 H 23.6446 -4.98773 0.0523425 0
M  V30 232 H 22.7986 -5.65091 -2.20809 0
M  V30 233 H 21.5376 -4.38828 -2.12794 0
M  V30 234 H 20.5426 -5.49695 -0.107238 0
M  V30 235 H 21.7676 -6.78784 -0.207135 0
M  V30 236 H 19.7136 -6.12432 -2.35081 0
M  V30 237 H 19.6306 -7.45669 -1.24552 0
M  V30 238 H 20.8986 -7.40538 -2.43359 0
M  V30 239 N 25.1277 -0.289203 -1.54924 0
M  V30 240 C 26.3767 0.324231 -1.99077 0
M  V30 241 C 26.6897 1.5591 -1.18117 0
M  V30 242 O 27.8957 2.24637 -1.52481 0
M  V30 243 C 26.3517 0.628209 -3.54375 0
M  V30 244 C 25.9597 -0.587647 -4.44129 0
M  V30 245 C 27.7037 1.20349 -4.07083 0
M  V30 246 C 25.6107 -0.257475 -5.90839 0
M  V30 247 H 24.5407 0.124924 -0.743579 0
M  V30 248 H 27.1917 -0.396063 -1.79175 0
M  V30 249 H 25.5737 1.40778 -3.70132 0
M  V30 250 H 26.7477 -1.36418 -4.40144 0
M  V30 251 H 25.0627 -1.08074 -4.0213 0
M  V30 252 H 27.6597 1.46456 -5.14252 0
M  V30 253 H 28.0027 2.14195 -3.56968 0
M  V30 254 H 28.5357 0.485889 -3.94821 0
M  V30 255 H 25.2747 -1.16419 -6.45079 0
M  V30 256 H 24.7947 0.482018 -5.9786 0
M  V30 257 H 26.4737 0.145238 -6.46837 0
M  V30 258 N 26.6058 1.57591 -0.0167156 0
M  V30 259 C 27.8458 1.93145 0.668902 0
M  V30 260 C 28.2098 0.892406 1.7 0
M  V30 261 O 29.4108 1.13373 2.43721 0
M  V30 262 C 27.6818 3.33678 1.28039 0
M  V30 263 S 29.2408 3.91142 1.9888 0
M  V30 264 H 26.0588 0.67593 0.220545 0
M  V30 265 H 28.6608 1.95347 -0.0774105 0
M  V30 266 H 27.3648 4.07126 0.517339 0
M  V30 267 H 26.8958 3.3489 2.06427 0
M  V30 268 H 28.9108 3.73571 3.26587 0
M  V30 269 N 28.0839 -0.256276 1.55502 0
M  V30 270 C 29.0159 -1.33981 1.85962 0
M  V30 271 C 30.0289 -1.44743 0.745212 0
M  V30 272 O 31.2179 -1.4626 1.02324 0
M  V30 273 C 28.3179 -2.7194 2.02242 0
M  V30 274 C 27.4909 -2.83562 3.33033 0
M  V30 275 C 26.5499 -4.02304 3.39172 0
M  V30 276 O 25.5759 -3.92273 4.12444 0
M  V30 277 N 26.7779 -5.15045 2.67784 0
M  V30 278 H 29.5429 -1.08191 2.7949 0
M  V30 279 H 27.1039 -0.446388 1.55624 0
M  V30 280 H 29.0959 -3.49697 2.03701 0
M  V30 281 H 27.6659 -2.90479 1.15502 0
M  V30 282 H 26.8859 -1.92555 3.43971 0
M  V30 283 H 28.1739 -2.88271 4.19258 0
M  V30 284 H 27.5719 -5.26085 2.07968 0
M  V30 285 H 26.1289 -5.90972 2.74947 0
M  V30 286 N 29.562 -1.4872 -0.521534 0
M  V30 287 C 30.809 -1.57168 -1.27689 0
M  V30 288 C 31.137 -0.249275 -1.92896 0
M  V30 289 O 30.392 0.761162 -1.80291 0
M  V30 290 C 30.691 -2.66497 -2.38148 0
M  V30 291 C 30.357 -4.08664 -1.90538 0
M  V30 292 C 29.019 -4.47357 -1.77271 0
M  V30 293 C 31.371 -4.97724 -1.54663 0
M  V30 294 C 28.699 -5.72905 -1.26478 0
M  V30 295 C 31.051 -6.2377 -1.05329 0
M  V30 296 C 29.715 -6.61311 -0.906861 0
M  V30 297 H 28.985 -0.575117 -0.467249 0
M  V30 298 H 31.632 -1.82472 -0.581051 0
M  V30 299 H 29.937 -2.35085 -3.13437 0
M  V30 300 H 31.634 -2.70246 -2.96257 0
M  V30 301 H 28.224 -3.78111 -2.01816 0
M  V30 302 H 32.408 -4.68501 -1.63768 0
M  V30 303 H 27.664 -6.00709 -1.13835 0
M  V30 304 H 31.838 -6.9217 -0.76644 0
M  V30 305 H 29.465 -7.5848 -0.511083 0
M  V30 306 N 31.0401 0.771051 -1.3745 0
M  V30 307 C 31.9871 1.88435 -1.3327 0
M  V30 308 C 32.9571 1.64914 -0.198136 0
M  V30 309 O 34.1421 1.86821 -0.387606 0
M  V30 310 C 31.2821 3.25509 -1.14622 0
M  V30 311 C 30.3951 3.60979 -2.37314 0
M  V30 312 C 29.5301 4.87265 -2.11533 0
M  V30 313 C 28.5691 5.15469 -3.30088 0
M  V30 314 N 27.7061 6.32944 -3.03853 0
M  V30 315 H 32.5461 1.91344 -2.28455 0
M  V30 316 H 30.0831 0.935466 -1.13523 0
M  V30 317 H 32.0411 4.04582 -1.01831 0
M  V30 318 H 30.6711 3.21974 -0.230837 0
M  V30 319 H 29.7231 2.76885 -2.60842 0
M  V30 320 H 31.0351 3.77759 -3.25729 0
M  V30 321 H 30.1891 5.74244 -1.95777 0
M  V30 322 H 28.9281 4.7259 -1.20457 0
M  V30 323 H 27.9331 4.26966 -3.46382 0
M  V30 324 H 29.1581 5.32052 -4.22016 0
M  V30 325 H 27.1041 6.19625 -2.15407 0
M  V30 326 H 27.0211 6.50143 -3.85812 0
M  V30 327 H 28.2891 7.22857 -2.91716 0
M  V30 328 N 32.5182 1.22032 0.997298 0
M  V30 329 C 33.4482 1.01065 2.10495 0
M  V30 330 C 34.4292 -0.0669542 1.69968 0
M  V30 331 O 35.6142 0.0943987 1.9397 0
M  V30 332 C 32.7442 0.582874 3.42374 0
M  V30 333 C 31.6982 1.60592 3.96729 0
M  V30 334 C 31.0242 1.03412 5.24605 0
M  V30 335 C 32.3242 2.99478 4.27914 0
M  V30 336 H 34.0182 1.93708 2.28292 0
M  V30 337 H 31.5642 0.932761 1.09707 0
M  V30 338 H 33.5172 0.423332 4.19268 0
M  V30 339 H 32.2412 -0.379213 3.24391 0
M  V30 340 H 30.9002 1.75316 3.21963 0
M  V30 341 H 30.5482 0.063518 5.0296 0
M  V30 342 H 30.2482 1.71754 5.61938 0
M  V30 343 H 31.7722 0.886066 6.04137 0
M  V30 344 H 33.1862 2.88153 4.95622 0
M  V30 345 H 31.5832 3.64903 4.76409 0
M  V30 346 H 32.6532 3.49742 3.3587 0
M  V30 347 N 33.9963 -1.19345 1.0293 0
M  V30 348 C 35.2423 -1.89318 0.727083 0
M  V30 349 C 35.5753 -1.79446 -0.742483 0
M  V30 350 O 34.8503 -1.1871 -1.54072 0
M  V30 351 C 35.1333 -3.40238 1.17942 0
M  V30 352 C 34.9863 -3.58979 2.71024 0
M  V30 353 C 36.3053 -4.33479 0.760548 0
M  V30 354 H 33.4243 -0.687475 0.265606 0
M  V30 355 H 36.0663 -1.40477 1.2793 0
M  V30 356 H 34.2163 -3.81964 0.709608 0
M  V30 357 H 35.8883 -3.26421 3.25955 0
M  V30 358 H 34.1313 -3.02018 3.11396 0
M  V30 359 H 34.8023 -4.64823 2.9773 0
M  V30 360 H 37.2783 -3.99469 1.16464 0
M  V30 361 H 36.1543 -5.37664 1.10493 0
M  V30 362 H 36.4153 -4.40813 -0.337063 0
M  V30 363 N 35.4744 -0.807222 -1.35358 0
M  V30 364 C 36.4044 -0.232509 -2.3234 0
M  V30 365 C 37.3854 0.642386 -1.57504 0
M  V30 366 O 38.5704 0.572526 -1.85569 0
M  V30 367 C 35.7004 0.619238 -3.41735 0
M  V30 368 C 34.6544 -0.157215 -4.27711 0
M  V30 369 C 33.9804 0.816273 -5.28433 0
M  V30 370 C 35.2804 -1.35656 -5.04376 0
M  V30 371 H 36.9744 -1.04276 -2.80654 0
M  V30 372 H 34.5204 -0.50288 -1.34934 0
M  V30 373 H 36.4734 1.03137 -4.08584 0
M  V30 374 H 35.1974 1.46239 -2.92031 0
M  V30 375 H 33.8564 -0.550525 -3.62443 0
M  V30 376 H 33.5044 1.65494 -4.74996 0
M  V30 377 H 33.2044 0.301067 -5.86828 0
M  V30 378 H 34.7284 1.22659 -5.98153 0
M  V30 379 H 36.1424 -1.01927 -5.64166 0
M  V30 380 H 34.5394 -1.8063 -5.7227 0
M  V30 381 H 35.6094 -2.14288 -4.34981 0
M  V30 382 N 36.9525 1.47285 -0.560781 0
M  V30 383 C 37.8825 2.32857 0.173105 0
M  V30 384 C 38.8635 1.44009 0.905281 0
M  V30 385 O 40.0485 1.7286 0.885046 0
M  V30 386 C 37.1785 3.25861 1.20133 0
M  V30 387 C 36.1325 4.23978 0.585388 0
M  V30 388 C 35.4585 5.06332 1.7185 0
M  V30 389 C 36.7585 5.20242 -0.463178 0
M  V30 390 H 38.4525 2.94466 -0.541307 0
M  V30 391 H 35.9985 1.41601 -0.261764 0
M  V30 392 H 37.9515 3.84569 1.72293 0
M  V30 393 H 36.6755 2.62315 1.94573 0
M  V30 394 H 35.3345 3.66501 0.085054 0
M  V30 395 H 34.9825 4.39186 2.45203 0
M  V30 396 H 34.6825 5.72762 1.31213 0
M  V30 397 H 36.2065 5.67899 2.24329 0
M  V30 398 H 37.6205 5.73293 -0.027502 0
M  V30 399 H 36.0175 5.94896 -0.788627 0
M  V30 400 H 37.0875 4.65504 -1.35773 0
M  V30 401 N 38.4306 0.297415 1.54768 0
M  V30 402 C 39.6786 -0.312295 1.99673 0
M  V30 403 C 39.9996 -1.54686 1.18732 0
M  V30 404 O 39.2696 -1.93854 0.282382 0
M  V30 405 H 37.8496 -0.118381 0.73756 0
M  V30 406 H 40.5116 0.407915 1.90583 0
M  V30 407 H 39.6076 -0.586813 3.06534 0
M  V30 408 N 39.9087 -1.5758 0.0250728 0
M  V30 409 C 40.8187 -2.1343 -0.973905 0
M  V30 410 C 41.8347 -1.08556 -1.35984 0
M  V30 411 O 43.0107 -1.40592 -1.44207 0
M  V30 412 C 40.0757 -2.64703 -2.23904 0
M  V30 413 C 39.1367 -3.84276 -1.91391 0
M  V30 414 C 38.3697 -4.33095 -3.11873 0
M  V30 415 O 38.5927 -3.81107 -4.24398 0
M  V30 416 O 37.5267 -5.24984 -2.94406 0
M  V30 417 H 41.3527 -2.99057 -0.529036 0
M  V30 418 H 38.9377 -1.48118 -0.195288 0
M  V30 419 H 40.8197 -2.97769 -2.98181 0
M  V30 420 H 39.4947 -1.82161 -2.6758 0
M  V30 421 H 38.4017 -3.56143 -1.14511 0
M  V30 422 H 39.7347 -4.67968 -1.52534 0
M  V30 423 N 41.3868 0.248026 -1.55636 0
M  V30 424 C 42.6118 0.998028 -1.81808 0
M  V30 425 C 43.0368 1.78207 -0.601979 0
M  V30 426 O 42.3948 1.75653 0.448961 0
M  V30 427 C 42.4428 1.9125 -3.05705 0
M  V30 428 O 41.5468 3.00406 -2.82542 0
M  V30 429 H 40.8878 0.284045 -0.600179 0
M  V30 430 H 43.4178 0.269357 -2.02819 0
M  V30 431 H 43.4278 2.32737 -3.35108 0
M  V30 432 H 42.1028 1.33602 -3.93857 0
M  V30 433 H 40.6798 2.63056 -2.64303 0
M  V30 434 N 42.8649 1.48995 0.513639 0
M  V30 435 C 43.8279 1.64229 1.59879 0
M  V30 436 C 44.8279 0.514696 1.5234 0
M  V30 437 O 46.0179 0.78087 1.55718 0
M  V30 438 C 43.1499 1.62783 2.99524 0
M  V30 439 H 44.3429 2.61004 1.47705 0
M  V30 440 H 41.8959 1.37837 0.736936 0
M  V30 441 H 42.6309 0.675461 3.17188 0
M  V30 442 H 42.4159 2.4466 3.06404 0
M  V30 443 H 43.9059 1.76669 3.78388 0
M  V30 444 N 44.343 -0.763751 1.37857 0
M  V30 445 C 45.589 -1.52483 1.33704 0
M  V30 446 C 45.922 -1.94051 -0.0759612 0
M  V30 447 O 45.197 -1.64675 -1.03501 0
M  V30 448 C 45.48 -2.78441 2.28348 0
M  V30 449 C 45.333 -2.43075 3.78463 0
M  V30 450 C 46.652 -3.80415 2.21298 0
M  V30 451 H 43.771 -0.553169 0.487005 0
M  V30 452 H 46.413 -0.875562 1.68624 0
M  V30 453 H 44.563 -3.33842 1.987 0
M  V30 454 H 46.235 -1.93527 4.18742 0
M  V30 455 H 44.478 -1.75666 3.96641 0
M  V30 456 H 45.149 -3.33149 4.40132 0
M  V30 457 H 47.625 -3.34527 2.47449 0
M  V30 458 H 46.501 -4.66257 2.89647 0
M  V30 459 H 46.762 -4.25262 1.20849 0
M  V30 460 N 45.8211 -1.22559 -0.990812 0
M  V30 461 C 47.0691 -1.04933 -1.72724 0
M  V30 462 C 47.3901 0.416158 -1.90508 0
M  V30 463 O 46.6601 1.29918 -1.46622 0
M  V30 464 H 45.2401 -0.385296 -0.639965 0
M  V30 465 H 47.9021 -1.54105 -1.19322 0
M  V30 466 H 46.9981 -1.52886 -2.72089 0
M  V30 467 N 47.2992 1.18797 -1.03562 0
M  V30 468 C 48.2462 2.22253 -0.622259 0
M  V30 469 C 49.2162 1.61987 0.36736 0
M  V30 470 O 50.4012 1.88986 0.262492 0
M  V30 471 C 47.5412 3.45097 0.0138462 0
M  V30 472 C 46.6542 4.19722 -1.02263 0
M  V30 473 C 45.7892 5.30009 -0.355573 0
M  V30 474 C 44.8282 5.96399 -1.37749 0
M  V30 475 N 43.9652 6.98234 -0.735766 0
M  V30 476 H 48.8052 2.56968 -1.50903 0
M  V30 477 H 46.3422 1.26245 -0.755017 0
M  V30 478 H 48.3002 4.15279 0.399948 0
M  V30 479 H 46.9302 3.11018 0.864158 0
M  V30 480 H 45.9822 3.48418 -1.52673 0
M  V30 481 H 47.2942 4.65227 -1.79903 0
M  V30 482 H 46.4482 6.0664 0.0850095 0
M  V30 483 H 45.1872 4.85592 0.452967 0
M  V30 484 H 44.1922 5.18512 -1.82826 0
M  V30 485 H 45.4172 6.42899 -2.18764 0
M  V30 486 H 43.3632 6.55979 0.0525597 0
M  V30 487 H 43.2802 7.41965 -1.44995 0
M  V30 488 H 44.5482 7.78845 -0.31941 0
M  V30 489 N 48.7773 0.814389 1.34928 0
M  V30 490 C 50.0023 0.410097 2.03305 0
M  V30 491 C 50.4273 -0.973464 1.60951 0
M  V30 492 O 49.7853 -1.63185 0.789964 0
M  V30 493 C 49.8333 0.51049 3.56968 0
M  V30 494 O 48.9373 -0.473035 4.09678 0
M  V30 495 H 48.2783 0.170088 0.641846 0
M  V30 496 H 50.8083 1.10244 1.72358 0
M  V30 497 H 50.8183 0.383135 4.06197 0
M  V30 498 H 49.4933 1.51963 3.87144 0
M  V30 499 H 48.0703 -0.305272 3.71648 0
M  V30 500 N 50.2554 -1.46986 0.568584 0
M  V30 501 C 51.4804 -2.07335 0.0520528 0
M  V30 502 C 51.9054 -1.41675 -1.23733 0
M  V30 503 O 51.2634 -0.495623 -1.74394 0
M  V30 504 C 51.3114 -3.60417 -0.11501 0
M  V30 505 O 50.4154 -3.95309 -1.17492 0
M  V30 506 H 49.7564 -0.661597 0.0564385 0
M  V30 507 H 52.2864 -1.88837 0.787507 0
M  V30 508 H 52.2964 -4.06698 -0.325644 0
M  V30 509 H 50.9714 -4.07601 0.826675 0
M  V30 510 H 49.5484 -3.60757 -0.943869 0
M  V30 511 N 51.7335 -0.305618 -1.54608 0
M  V30 512 C 52.6635 0.561482 -2.26649 0
M  V30 513 C 53.6445 1.13415 -1.26772 0
M  V30 514 O 54.8295 1.16262 -1.55553 0
M  V30 515 C 51.9595 1.73122 -3.01075 0
M  V30 516 C 50.9135 1.2887 -4.08138 0
M  V30 517 C 50.2395 2.54396 -4.70305 0
M  V30 518 C 51.5395 0.416578 -5.20636 0
M  V30 519 H 53.2335 -0.0393902 -2.99374 0
M  V30 520 H 50.7795 -0.020385 -1.43986 0
M  V30 521 H 52.7325 2.34396 -3.50195 0
M  V30 522 H 51.4565 2.3584 -2.25936 0
M  V30 523 H 50.1155 0.698991 -3.59875 0
M  V30 524 H 49.7635 3.15439 -3.918 0
M  V30 525 H 49.4635 2.25486 -5.42614 0
M  V30 526 H 50.9875 3.16464 -5.2219 0
M  V30 527 H 52.4015 0.935116 -5.65622 0
M  V30 528 H 50.7985 0.221046 -5.99693 0
M  V30 529 H 51.8685 -0.557162 -4.81688 0
M  V30 530 N 53.2116 1.57565 -0.0334293 0
M  V30 531 C 54.4576 1.92262 0.645226 0
M  V30 532 C 54.7906 0.910543 1.71531 0
M  V30 533 O 54.0656 -0.066099 1.94388 0
M  V30 534 C 54.3486 3.37422 1.2577 0
M  V30 535 C 54.2016 4.49369 0.196891 0
M  V30 536 C 55.5206 3.82628 2.17449 0
M  V30 537 H 52.6396 0.699171 0.233085 0
M  V30 538 H 55.2816 1.89779 -0.0915694 0
M  V30 539 H 53.4316 3.39669 1.88566 0
M  V30 540 H 55.1036 4.59254 -0.433962 0
M  V30 541 H 53.3466 4.31168 -0.477137 0
M  V30 542 H 54.0176 5.47978 0.665124 0
M  V30 543 H 56.4936 3.82145 1.64634 0
M  V30 544 H 55.3696 4.84883 2.57254 0
M  V30 545 H 55.6306 3.18376 3.0674 0
M  V30 546 N 54.6897 -0.239769 1.55765 0
M  V30 547 C 55.6197 -1.30052 1.9393 0
M  V30 548 C 56.6007 -1.49839 0.805132 0
M  V30 549 O 57.7857 -1.62328 1.06599 0
M  V30 550 C 54.9157 -2.65391 2.2402 0
M  V30 551 C 53.8697 -2.60289 3.39755 0
M  V30 552 C 53.1957 -3.99489 3.55405 0
M  V30 553 C 54.4957 -2.16654 4.75246 0
M  V30 554 H 56.1897 -0.983573 2.82783 0
M  V30 555 H 53.7357 -0.471701 1.36055 0
M  V30 556 H 55.6887 -3.3974 2.49308 0
M  V30 557 H 54.4127 -2.98736 1.32 0
M  V30 558 H 53.0717 -1.88398 3.14487 0
M  V30 559 H 52.7197 -4.30112 2.60793 0
M  V30 560 H 52.4197 -3.96962 4.33238 0
M  V30 561 H 53.9437 -4.75528 3.83022 0
M  V30 562 H 55.3577 -2.80737 4.99859 0
M  V30 563 H 53.7547 -2.25223 5.56232 0
M  V30 564 H 54.8247 -1.11835 4.71827 0
M  V30 565 N 56.1678 -1.49265 -0.50573 0
M  V30 566 C 57.5838 -1.35923 -0.836486 0
M  V30 567 C 57.7838 -0.388704 -1.97715 0
M  V30 568 O 56.8398 0.181336 -2.51848 0
M  V30 569 C 58.1528 -2.76531 -1.18115 0
M  V30 570 C 59.7008 -2.85197 -1.28964 0
M  V30 571 C 60.1758 -4.26561 -1.66761 0
M  V30 572 N 61.6668 -4.2935 -1.73819 0
M  V30 573 C 62.4018 -5.35693 -2.045 0
M  V30 574 N 61.8978 -6.52287 -2.33438 0
M  V30 575 N 63.6908 -5.23105 -2.05711 0
M  V30 576 H 55.8418 -2.10965 0.246519 0
M  V30 577 H 58.1048 -0.9468 0.0476887 0
M  V30 578 H 57.8108 -3.49226 -0.416398 0
M  V30 579 H 57.6848 -3.11599 -2.1257 0
M  V30 580 H 60.0718 -2.12742 -2.04511 0
M  V30 581 H 60.1528 -2.53718 -0.325704 0
M  V30 582 H 59.7968 -4.99541 -0.917656 0
M  V30 583 H 59.7268 -4.55502 -2.64246 0
M  V30 584 H 62.2178 -3.4526 -1.53635 0
M  V30 585 H 62.5308 -7.29158 -2.56024 0
M  V30 586 H 60.8758 -6.55521 -2.30905 0
M  V30 587 H 64.0668 -4.31026 -1.82577 0
M  V30 588 H 64.2398 -6.06078 -2.29289 0
M  V30 589 N 57.6459 0.756429 -1.3826 0
M  V30 590 C 58.8929 1.51547 -1.34312 0
M  V30 591 C 59.2209 1.94382 0.0677144 0
M  V30 592 O 58.4759 1.65514 1.04421 0
M  V30 593 C 58.7749 2.78313 -2.24224 0
M  V30 594 C 58.4409 2.54455 -3.72241 0
M  V30 595 C 57.1029 2.47657 -4.12576 0
M  V30 596 C 59.4549 2.3354 -4.65949 0
M  V30 597 C 56.7829 2.17956 -5.44713 0
M  V30 598 C 59.1349 2.05359 -5.9834 0
M  V30 599 C 57.7989 1.97016 -6.37762 0
M  V30 600 H 57.0689 0.55455 -0.491482 0
M  V30 601 H 59.7159 0.870039 -1.70595 0
M  V30 602 H 58.0209 3.47492 -1.80987 0
M  V30 603 H 59.7179 3.36259 -2.18474 0
M  V30 604 H 56.3079 2.60616 -3.40261 0
M  V30 605 H 60.4919 2.37772 -4.35635 0
M  V30 606 H 55.7479 2.10003 -5.74203 0
M  V30 607 H 59.9219 1.88179 -6.70494 0
M  V30 608 H 57.5489 1.73766 -7.40074 0
M  V30 609 N 59.124 1.23083 0.984299 0
M  V30 610 C 60.37 1.06214 1.72761 0
M  V30 611 C 60.703 -0.400584 1.90024 0
M  V30 612 O 59.978 -1.29672 1.44967 0
M  V30 613 C 60.261 1.78375 3.12817 0
M  V30 614 C 60.114 3.32296 3.03149 0
M  V30 615 C 61.433 1.54309 4.12161 0
M  V30 616 H 58.552 0.387251 0.627061 0
M  V30 617 H 61.194 1.51536 1.14616 0
M  V30 618 H 59.344 1.39848 3.62457 0
M  V30 619 H 61.016 3.8032 2.61064 0
M  V30 620 H 59.259 3.6153 2.39747 0
M  V30 621 H 59.93 3.77972 4.02295 0
M  V30 622 H 62.406 1.87791 3.71314 0
M  V30 623 H 61.282 2.07281 5.08258 0
M  V30 624 H 61.543 0.477572 4.39513 0
M  V30 625 N 60.6021 -1.18246 1.0419 0
M  V30 626 C 61.5491 -2.2192 0.634037 0
M  V30 627 C 62.5191 -1.62179 -0.358765 0
M  V30 628 O 63.7041 -1.89122 -0.252466 0
M  V30 629 C 60.8441 -3.451 0.00445535 0
M  V30 630 C 59.9571 -4.19174 1.04487 0
M  V30 631 C 59.0921 -5.29813 0.383676 0
M  V30 632 C 58.1311 -5.9566 1.4091 0
M  V30 633 N 57.2681 -6.97834 0.772784 0
M  V30 634 H 62.1081 -2.56164 1.52263 0
M  V30 635 H 59.6451 -1.25843 0.761701 0
M  V30 636 H 61.6031 -4.15485 -0.377919 0
M  V30 637 H 60.2331 -3.11472 -0.847652 0
M  V30 638 H 59.2851 -3.47604 1.54518 0
M  V30 639 H 60.5971 -4.64267 1.82368 0
M  V30 640 H 59.7511 -6.06677 -0.0528366 0
M  V30 641 H 58.4901 -4.85825 -0.427208 0
M  V30 642 H 57.4951 -5.17535 1.85574 0
M  V30 643 H 58.7201 -6.4173 2.22171 0
M  V30 644 H 56.6661 -6.55998 -0.0177708 0
M  V30 645 H 56.5831 -7.41186 1.48928 0
M  V30 646 H 57.8511 -7.78665 0.36071 0
M  V30 647 N 62.0802 -0.821533 -1.34494 0
M  V30 648 C 63.3282 -0.408139 -1.97936 0
M  V30 649 C 63.6492 1.03193 -1.65457 0
M  V30 650 O 62.9192 1.71622 -0.944595 0
M  V30 651 H 61.4992 -0.147928 -0.732206 0
M  V30 652 H 64.1612 -1.05067 -1.64155 0
M  V30 653 H 63.2572 -0.52601 -3.07635 0
M  V30 654 N 63.5583 1.46682 -0.576371 0
M  V30 655 C 64.4903 2.28341 0.198231 0
M  V30 656 C 65.5033 1.38141 0.861453 0
M  V30 657 O 66.6923 1.62797 0.732082 0
M  V30 658 C 63.7923 3.12986 1.29972 0
M  V30 659 C 62.9653 4.31271 0.729639 0
M  V30 660 C 62.0243 4.97363 1.71803 0
M  V30 661 O 61.0503 5.55156 1.25658 0
M  V30 662 N 62.2523 4.93796 3.05198 0
M  V30 663 H 65.0173 2.9546 -0.502324 0
M  V30 664 H 62.5783 1.56525 -0.413715 0
M  V30 665 H 64.5703 3.54066 1.96008 0
M  V30 666 H 63.1403 2.47984 1.90323 0
M  V30 667 H 62.3603 3.94052 -0.108012 0
M  V30 668 H 63.6483 5.07739 0.328438 0
M  V30 669 H 63.0463 4.48077 3.45317 0
M  V30 670 H 61.6033 5.38837 3.6674 0
M  V30 671 N 65.0364 0.313813 1.54444 0
M  V30 672 C 66.2834 -0.291675 2.00388 0
M  V30 673 C 66.6114 -1.52904 1.2021 0
M  V30 674 O 65.8664 -1.93833 0.269707 0
M  V30 675 C 66.1654 -0.680386 3.50864 0
M  V30 676 C 65.8314 0.456699 4.48581 0
M  V30 677 C 64.4934 0.768824 4.75018 0
M  V30 678 C 66.8454 1.22098 5.06697 0
M  V30 679 C 64.1734 1.84812 5.56831 0
M  V30 680 C 66.5254 2.29029 5.89685 0
M  V30 681 C 65.1894 2.60834 6.14428 0
M  V30 682 H 64.4594 -0.106732 0.733273 0
M  V30 683 H 67.1064 0.43557 1.86481 0
M  V30 684 H 65.4114 -1.48791 3.62448 0
M  V30 685 H 67.1084 -1.16026 3.83847 0
M  V30 686 H 63.6984 0.203337 4.28117 0
M  V30 687 H 67.8824 0.993096 4.86263 0
M  V30 688 H 63.1384 2.09912 5.74236 0
M  V30 689 H 67.3124 2.887 6.33739 0
M  V30 690 H 64.9394 3.44596 6.77612 0
M  V30 691 N 66.5145 -1.57545 0.0417849 0
M  V30 692 C 67.4645 -2.07483 -0.945247 0
M  V30 693 C 68.4485 -0.977983 -1.27767 0
M  V30 694 O 69.6405 -1.24142 -1.26166 0
M  V30 695 C 66.7695 -2.61576 -2.22335 0
M  V30 696 C 65.8555 -3.78213 -1.91874 0
M  V30 697 N 66.2465 -4.88344 -1.31733 0
M  V30 698 C 64.5445 -3.8694 -2.21796 0
M  V30 699 C 65.2455 -5.69462 -1.1869 0
M  V30 700 N 64.2215 -5.16771 -1.68666 0
M  V30 701 H 68.0235 -2.90029 -0.475441 0
M  V30 702 H 65.5375 -1.61581 -0.162911 0
M  V30 703 H 67.5345 -2.95651 -2.93932 0
M  V30 704 H 66.1945 -1.80465 -2.69931 0
M  V30 705 H 67.2055 -5.08335 -0.990729 0
M  V30 706 H 63.8825 -3.16757 -2.71977 0
M  V30 707 H 65.2725 -6.68023 -0.720793 0
M  V30 708 N 67.9926 0.231505 -1.5589 0
M  V30 709 C 68.9026 1.308 -1.94752 0
M  V30 710 C 69.9186 1.51826 -0.849989 0
M  V30 711 O 71.0946 1.6515 -1.15271 0
M  V30 712 C 68.1596 2.63968 -2.24771 0
M  V30 713 C 67.2206 2.51331 -3.48039 0
M  V30 714 C 66.4536 3.78148 -3.76616 0
M  V30 715 O 66.6766 4.80722 -3.07022 0
M  V30 716 O 65.6106 3.75857 -4.70123 0
M  V30 717 H 69.4366 1.0083 -2.86474 0
M  V30 718 H 67.0216 0.433547 -1.42971 0
M  V30 719 H 68.9036 3.42633 -2.45318 0
M  V30 720 H 67.5786 2.9364 -1.36225 0
M  V30 721 H 66.4856 1.709 -3.32782 0
M  V30 722 H 67.8186 2.26601 -4.36936 0
M  V30 723 N 69.4707 1.49531 0.497807 0
M  V30 724 C 70.7177 1.59179 1.25173 0
M  V30 725 C 71.0457 0.279932 1.92475 0
M  V30 726 O 70.3007 -0.732383 1.81479 0
M  V30 727 C 70.5997 2.70252 2.33878 0
M  V30 728 C 70.2657 4.11644 1.84012 0
M  V30 729 C 68.9277 4.50121 1.70132 0
M  V30 730 C 71.2797 5.00121 1.46725 0
M  V30 731 C 68.6077 5.74845 1.17348 0
M  V30 732 C 70.9597 6.25366 0.95392 0
M  V30 733 C 69.6237 6.6267 0.801538 0
M  V30 734 H 68.8937 0.582478 0.45804 0
M  V30 735 H 71.5407 1.83373 0.551948 0
M  V30 736 H 69.8457 2.40041 3.09657 0
M  V30 737 H 71.5427 2.74925 2.9192 0
M  V30 738 H 68.1327 3.81274 1.95775 0
M  V30 739 H 72.3167 4.71048 1.56294 0
M  V30 740 H 67.5727 6.02444 1.04264 0
M  V30 741 H 71.7467 6.93301 0.656225 0
M  V30 742 H 69.3737 7.59197 0.390351 0
M  V30 743 N 70.9488 -0.749086 1.3866 0
M  V30 744 C 71.8808 -1.87273 1.32142 0
M  V30 745 C 72.8938 -1.61127 0.232787 0
M  V30 746 O 74.0828 -1.71623 0.49069 0
M  V30 747 C 71.1828 -3.23005 1.02571 0
M  V30 748 C 70.3558 -3.7662 2.22433 0
M  V30 749 C 69.4148 -4.90879 1.89537 0
M  V30 750 O 68.4408 -5.05276 2.62078 0
M  V30 751 N 69.6428 -5.74198 0.853031 0
M  V30 752 H 72.4078 -1.93373 2.28969 0
M  V30 753 H 69.9688 -0.929216 1.32579 0
M  V30 754 H 71.9608 -3.96992 0.786085 0
M  V30 755 H 70.5308 -3.12262 0.145249 0
M  V30 756 H 69.7508 -2.94147 2.62434 0
M  V30 757 H 71.0388 -4.09173 3.02415 0
M  V30 758 H 70.4368 -5.6514 0.25155 0
M  V30 759 H 68.9938 -6.48313 0.67329 0
M  V30 760 N 72.4269 -1.23603 -0.977757 0
M  V30 761 C 73.3369 -1.03632 -2.1047 0
M  V30 762 C 74.3529 0.0199435 -1.73989 0
M  V30 763 O 75.5289 -0.176076 -2.00629 0
M  V30 764 C 72.5939 -0.63276 -3.40877 0
M  V30 765 C 71.6549 -1.76437 -3.91367 0
M  V30 766 C 70.8879 -1.37997 -5.15551 0
M  V30 767 O 71.1109 -0.265357 -5.69782 0
M  V30 768 O 70.0449 -2.20201 -5.60174 0
M  V30 769 H 73.8709 -1.98086 -2.30208 0
M  V30 770 H 71.4559 -1.02332 -1.08851 0
M  V30 771 H 73.3379 -0.418761 -4.19314 0
M  V30 772 H 72.0129 0.282754 -3.22463 0
M  V30 773 H 70.9199 -2.03304 -3.14036 0
M  V30 774 H 72.2529 -2.6583 -4.14241 0
M  V30 775 N 73.905 1.17692 -1.04816 0
M  V30 776 C 75.13 1.92327 -0.776207 0
M  V30 777 C 75.555 1.76082 0.661581 0
M  V30 778 O 74.913 1.076 1.45917 0
M  V30 779 C 74.961 3.41539 -1.15687 0
M  V30 780 O 74.065 4.11402 -0.286775 0
M  V30 781 H 73.406 0.599735 -0.284981 0
M  V30 782 H 75.936 1.49201 -1.4 0
M  V30 783 H 75.946 3.92269 -1.12202 0
M  V30 784 H 74.621 3.52684 -2.20425 0
M  V30 785 H 73.198 3.70939 -0.381903 0
M  V30 786 N 75.3831 0.828654 1.34056 0
M  V30 787 C 76.6111 0.43262 2.02326 0
M  V30 788 C 77.0261 -0.963147 1.62385 0
M  V30 789 O 76.3831 -1.62425 0.832121 0
M  V30 790 C 76.4341 0.53182 3.57567 0
M  V30 791 O 76.1551 1.87258 3.96063 0
M  V30 792 C 77.6561 0.131422 4.43105 0
M  V30 793 H 74.8761 0.172923 0.648335 0
M  V30 794 H 77.4201 1.1184 1.71208 0
M  V30 795 H 75.5751 -0.105938 3.87255 0
M  V30 796 H 75.9891 1.85087 4.90758 0
M  V30 797 H 77.4631 0.251904 5.51425 0
M  V30 798 H 77.9401 -0.925645 4.29335 0
M  V30 799 H 78.5461 0.743207 4.18756 0
M  V30 800 N 76.8612 -1.46375 0.584142 0
M  V30 801 C 78.1102 -2.01585 0.0679741 0
M  V30 802 C 78.4232 -1.46109 -1.30045 0
M  V30 803 O 79.6292 -1.93148 -1.90804 0
M  V30 804 C 78.0852 -3.5983 0.0709207 0
M  V30 805 C 77.6932 -4.24303 1.43775 0
M  V30 806 C 79.4372 -4.22693 -0.391228 0
M  V30 807 C 77.3442 -5.74631 1.39834 0
M  V30 808 H 76.2742 -0.753689 0.0216421 0
M  V30 809 H 78.9252 -1.68093 0.736001 0
M  V30 810 H 77.3072 -3.90405 -0.663299 0
M  V30 811 H 78.4812 -4.05335 2.19181 0
M  V30 812 H 76.7962 -3.73539 1.84004 0
M  V30 813 H 79.3932 -5.3289 -0.439524 0
M  V30 814 H 79.7362 -3.91728 -1.40906 0
M  V30 815 H 80.2692 -3.96749 0.288974 0
M  V30 816 H 77.0082 -6.10258 2.39303 0
M  V30 817 H 76.5282 -5.95858 0.686505 0
M  V30 818 H 78.2072 -6.37375 1.11187 0
M  V30 819 N 78.3393 -0.321999 -1.54275 0
M  V30 820 C 79.5873 0.280489 -2.00144 0
M  V30 821 C 79.9083 1.52777 -1.21178 0
M  V30 822 O 79.1783 1.9338 -0.313187 0
M  V30 823 H 77.7583 0.106632 -0.73935 0
M  V30 824 H 80.4203 -0.438184 -1.8991 0
M  V30 825 H 79.5163 0.537972 -3.07428 0
M  V30 826 N 79.8174 1.5752 -0.0501392 0
M  V30 827 C 80.7804 2.1037 0.909786 0
M  V30 828 C 81.7804 1.02308 1.24056 0
M  V30 829 O 82.9704 1.28385 1.17741 0
M  V30 830 C 80.1024 2.58708 2.21998 0
M  V30 831 H 81.2954 2.96479 0.451665 0
M  V30 832 H 78.8484 1.55038 0.198248 0
M  V30 833 H 79.5834 1.75989 2.72394 0
M  V30 834 H 79.3684 3.37675 1.99295 0
M  V30 835 H 80.8584 2.99747 2.9076 0
M  V30 836 N 81.2955 -0.223234 1.56011 0
M  V30 837 C 82.2585 -1.26014 1.9145 0
M  V30 838 C 83.2585 -1.3989 0.792937 0
M  V30 839 O 84.4485 -1.38184 1.0607 0
M  V30 840 C 81.5805 -2.63422 2.16383 0
M  V30 841 H 82.7735 -0.95796 2.84189 0
M  V30 842 H 80.3265 -0.463576 1.49267 0
M  V30 843 H 81.0615 -2.98741 1.2619 0
M  V30 844 H 80.8465 -2.54728 2.98088 0
M  V30 845 H 82.3365 -3.38249 2.44903 0
M  V30 846 N 82.7736 -1.49793 -0.48987 0
M  V30 847 C 84.0206 -1.59841 -1.24327 0
M  V30 848 C 84.3486 -0.290135 -1.92324 0
M  V30 849 O 83.6036 0.722749 -1.81865 0
M  V30 850 C 83.9026 -2.71488 -2.32441 0
M  V30 851 C 83.5686 -4.12614 -1.81826 0
M  V30 852 C 82.2306 -4.51017 -1.67742 0
M  V30 853 C 84.5826 -5.00892 -1.4407 0
M  V30 854 C 81.9106 -5.75459 -1.14297 0
M  V30 855 C 84.2626 -6.25863 -0.920742 0
M  V30 856 C 82.9266 -6.63086 -0.766383 0
M  V30 857 H 82.1966 -0.584899 -0.454944 0
M  V30 858 H 84.8436 -1.83663 -0.542215 0
M  V30 859 H 83.1486 -2.4168 -3.0838 0
M  V30 860 H 84.8456 -2.76469 -2.90458 0
M  V30 861 H 81.4356 -3.82307 -1.93751 0
M  V30 862 H 85.6196 -4.7187 -1.53794 0
M  V30 863 H 80.8756 -6.02989 -1.01068 0
M  V30 864 H 85.0496 -6.9364 -0.619448 0
M  V30 865 H 82.6766 -7.59393 -0.350083 0
M  V30 866 N 84.2517 0.741722 -1.39055 0
M  V30 867 C 85.1817 1.869 -1.39966 0
M  V30 868 C 86.1627 1.6804 -0.26392 0
M  V30 869 O 87.3477 1.88458 -0.468755 0
M  V30 870 C 84.4777 3.24572 -1.23574 0
M  V30 871 C 83.4317 3.58056 -2.34477 0
M  V30 872 C 82.7577 4.94593 -2.0318 0
M  V30 873 C 84.0577 3.61716 -3.76774 0
M  V30 874 H 85.7517 1.86395 -2.34302 0
M  V30 875 H 83.2977 0.895361 -1.1278 0
M  V30 876 H 85.2507 4.031 -1.22834 0
M  V30 877 H 83.9747 3.25587 -0.257045 0
M  V30 878 H 82.6337 2.81854 -2.34423 0
M  V30 879 H 82.2817 4.92181 -1.03765 0
M  V30 880 H 81.9817 5.17964 -2.77465 0
M  V30 881 H 83.5057 5.75486 -2.04079 0
M  V30 882 H 84.9197 4.30335 -3.78794 0
M  V30 883 H 83.3167 3.96603 -4.50362 0
M  V30 884 H 84.3867 2.61672 -4.08235 0
M  V30 885 N 85.7298 1.2412 0.971189 0
M  V30 886 C 86.9578 1.10575 1.74874 0
M  V30 887 C 87.3728 -0.342017 1.85676 0
M  V30 888 O 86.7298 -1.23617 1.34258 0
M  V30 889 C 86.7808 1.73579 3.171 0
M  V30 890 O 86.5018 3.12695 3.06844 0
M  V30 891 C 88.0028 1.65598 4.11208 0
M  V30 892 H 85.2228 0.386504 0.548503 0
M  V30 893 H 87.7668 1.64156 1.21955 0
M  V30 894 H 85.9218 1.24009 3.67016 0
M  V30 895 H 86.3358 3.43412 3.96445 0
M  V30 896 H 87.8098 2.1437 5.08674 0
M  V30 897 H 88.2868 0.616532 4.34851 0
M  V30 898 H 88.8928 2.14578 3.67201 0
M  V30 899 N 87.2079 -1.17134 1.05439 0
M  V30 900 C 88.1399 -2.2078 0.615539 0
M  V30 901 C 89.1529 -1.59584 -0.322001 0
M  V30 902 O 90.3419 -1.78133 -0.114344 0
M  V30 903 C 87.4419 -3.38691 -0.118938 0
M  V30 904 C 86.6149 -4.29454 0.829924 0
M  V30 905 C 85.6739 -5.26024 0.136258 0
M  V30 906 O 84.6999 -5.63952 0.77115 0
M  V30 907 N 85.9019 -5.69487 -1.1254 0
M  V30 908 H 88.6669 -2.59052 1.50705 0
M  V30 909 H 86.2279 -1.32058 0.936603 0
M  V30 910 H 88.2199 -4.00329 -0.593179 0
M  V30 911 H 86.7899 -2.98996 -0.91215 0
M  V30 912 H 86.0099 -3.65211 1.48373 0
M  V30 913 H 87.2979 -4.86984 1.47392 0
M  V30 914 H 86.6959 -5.4075 -1.6615 0
M  V30 915 H 85.2529 -6.33257 -1.54366 0
M  V30 916 N 88.686 -0.835752 -1.33615 0
M  V30 917 C 89.914 -0.443344 -2.02094 0
M  V30 918 C 90.329 0.954522 -1.62894 0
M  V30 919 O 89.686 1.61982 -0.840723 0
M  V30 920 C 89.737 -0.550775 -3.5728 0
M  V30 921 O 89.458 -1.89356 -3.95065 0
M  V30 922 C 90.959 -0.154919 -4.43029 0
M  V30 923 H 88.179 -0.176359 -0.647409 0
M  V30 924 H 90.723 -1.12746 -1.70612 0
M  V30 925 H 88.878 0.0853997 -3.87306 0
M  V30 926 H 89.292 -1.87687 -4.89769 0
M  V30 927 H 90.766 -0.281144 -5.51284 0
M  V30 928 H 91.243 0.902863 -4.2982 0
M  V30 929 H 91.849 -0.765404 -4.18356 0
M  V30 930 N 90.1641 1.46063 -0.591896 0
M  V30 931 C 91.4101 2.02638 -0.0811191 0
M  V30 932 C 91.7431 1.4613 1.27905 0
M  V30 933 O 91.0181 0.629908 1.84017 0
M  V30 934 C 91.3011 3.60091 -0.0252436 0
M  V30 935 C 91.1541 4.26965 -1.41496 0
M  V30 936 C 92.4731 4.3496 0.670685 0
M  V30 937 H 89.5921 0.73635 -0.0309524 0
M  V30 938 H 92.2341 1.741 -0.760859 0
M  V30 939 H 90.3841 3.84535 0.553624 0
M  V30 940 H 92.0561 4.13756 -2.0397 0
M  V30 941 H 90.2991 3.85971 -1.98011 0
M  V30 942 H 90.9701 5.35781 -1.32825 0
M  V30 943 H 93.4461 4.15716 0.178825 0
M  V30 944 H 92.3221 5.44686 0.678837 0
M  V30 945 H 92.5831 4.06685 1.73379 0
M  V30 946 N 91.6422 0.330177 1.54103 0
M  V30 947 C 92.8822 -0.270916 2.02597 0
M  V30 948 C 93.2462 -1.48826 1.21304 0
M  V30 949 O 94.4472 -2.16266 1.59633 0
M  V30 950 C 92.7182 -0.590328 3.52491 0
M  V30 951 S 94.2772 -1.17014 4.2291 0
M  V30 952 H 91.0952 -0.0815379 0.706309 0
M  V30 953 H 93.6972 0.464835 1.89893 0
M  V30 954 H 92.4012 0.303691 4.09275 0
M  V30 955 H 91.9322 -1.3561 3.69288 0
M  V30 956 H 93.9472 -2.45662 4.3112 0
M  V30 957 N 93.1203 -1.57491 0.0584922 0
M  V30 958 C 94.0503 -2.14988 -0.911178 0
M  V30 959 C 95.0313 -1.07343 -1.31952 0
M  V30 960 O 96.2163 -1.35318 -1.39294 0
M  V30 961 C 93.3463 -2.70078 -2.18347 0
M  V30 962 C 92.3003 -3.82771 -1.91495 0
M  V30 963 C 91.6263 -4.24408 -3.25241 0
M  V30 964 C 92.9263 -5.07592 -1.23075 0
M  V30 965 H 94.6203 -2.96263 -0.432246 0
M  V30 966 H 92.1663 -1.42512 -0.206469 0
M  V30 967 H 94.1193 -3.08943 -2.86587 0
M  V30 968 H 92.8433 -1.86005 -2.68458 0
M  V30 969 H 91.5023 -3.44389 -1.25664 0
M  V30 970 H 91.1503 -3.37275 -3.73168 0
M  V30 971 H 90.8503 -5.00366 -3.08071 0
M  V30 972 H 92.3743 -4.65879 -3.94701 0
M  V30 973 H 93.7883 -5.43857 -1.81362 0
M  V30 974 H 92.1853 -5.88741 -1.16207 0
M  V30 975 H 93.2553 -4.84454 -0.207847 0
M  V30 976 N 94.5984 0.214957 -1.56127 0
M  V30 977 C 95.8754 0.963093 -1.70247 0
M  V30 978 C 96.2554 2.02166 -0.60764 0
M  V30 979 O 95.6034 2.25244 0.384385 0
M  V30 980 C 95.8134 1.56756 -3.11815 0
M  V30 981 C 97.1614 2.0573 -3.7143 0
M  V30 982 O 98.1854 1.66637 -3.14818 0
M  V30 983 O 97.0444 2.77603 -4.70743 0
M  V30 984 H 94.1384 0.450321 -0.693643 0
M  V30 985 H 96.6844 0.206219 -1.68442 0
M  V30 986 H 95.4564 0.803533 -3.82961 0
M  V30 987 H 95.0794 2.3898 -3.17765 0
M  V30 988 N 96.0765 1.50051 0.48192 0
M  V30 989 C 97.3535 1.51009 1.2432 0
M  V30 990 C 97.7335 0.248587 2.09631 0
M  V30 991 O 97.0815 -0.768409 2.15192 0
M  V30 992 C 97.2915 2.79981 2.08355 0
M  V30 993 C 98.6395 3.3022 2.66908 0
M  V30 994 O 99.6635 2.81228 2.18607 0
M  V30 995 O 98.5225 4.15595 3.54884 0
M  V30 996 H 95.6165 0.605239 0.563573 0
M  V30 997 H 98.1625 1.62332 0.494627 0
M  V30 998 H 96.9345 3.63275 1.45419 0
M  V30 999 H 96.5575 2.7161 2.90368 0
M  V30 1000 N 97.5546 -0.734337 1.39446 0
M  V30 1001 C 98.7826 -1.52358 1.39981 0
M  V30 1002 C 99.1976 -1.88799 -0.0054975 0
M  V30 1003 O 98.5546 -1.54146 -0.976998 0
M  V30 1004 C 98.6056 -2.81072 2.27333 0
M  V30 1005 O 98.3266 -2.46178 3.62392 0
M  V30 1006 C 99.8276 -3.75096 2.36259 0
M  V30 1007 H 97.0476 -0.470806 0.478103 0
M  V30 1008 H 99.5916 -0.907339 1.83269 0
M  V30 1009 H 97.7466 -3.39026 1.87457 0
M  V30 1010 H 98.1606 -3.28866 4.08592 0
M  V30 1011 H 99.6346 -4.62305 3.01626 0
M  V30 1012 H 100.112 -4.16892 1.38194 0
M  V30 1013 H 100.718 -3.23061 2.76608 0
M  V30 1014 N 99.0327 -1.24633 -0.964593 0
M  V30 1015 C 100.261 -1.11501 -1.74285 0
M  V30 1016 C 100.676 0.332165 -1.85855 0
M  V30 1017 O 100.033 1.22903 -1.34911 0
M  V30 1018 C 100.084 -1.75258 -3.16175 0
M  V30 1019 O 99.8047 -3.14318 -3.05182 0
M  V30 1020 C 101.306 -1.67776 -4.10324 0
M  V30 1021 H 98.5257 -0.389407 -0.546446 0
M  V30 1022 H 101.07 -1.64801 -1.21083 0
M  V30 1023 H 99.2247 -1.25954 -3.66353 0
M  V30 1024 H 99.6387 -3.4551 -3.94618 0
M  V30 1025 H 101.113 -2.17064 -5.0753 0
M  V30 1026 H 101.59 -0.639584 -4.34518 0
M  V30 1027 H 102.196 -2.16522 -3.66058 0
M  V30 1028 N 100.511 1.16574 -1.06058 0
M  V30 1029 C 101.757 1.87324 -0.777022 0
M  V30 1030 C 102.09 1.81351 0.694645 0
M  V30 1031 O 101.365 1.22753 1.50871 0
M  V30 1032 C 101.648 3.36991 -1.26922 0
M  V30 1033 C 101.501 3.51667 -2.80447 0
M  V30 1034 C 102.82 4.3131 -0.87521 0
M  V30 1035 H 99.9388 0.680191 -0.28374 0
M  V30 1036 H 102.581 1.37036 -1.3161 0
M  V30 1037 H 100.731 3.79949 -0.81063 0
M  V30 1038 H 102.403 3.17664 -3.34495 0
M  V30 1039 H 100.646 2.93656 -3.19294 0
M  V30 1040 H 101.317 4.56766 -3.0995 0
M  V30 1041 H 103.793 3.9624 -1.27014 0
M  V30 1042 H 102.669 5.34545 -1.2471 0
M  V30 1043 H 102.93 4.41552 0.220071 0
M  V30 1044 N 101.989 0.842826 1.3317 0
M  V30 1045 C 102.936 0.276885 2.29133 0
M  V30 1046 C 103.906 -0.609527 1.54512 0
M  V30 1047 O 105.091 -0.546955 1.82792 0
M  V30 1048 C 102.231 -0.538707 3.40869 0
M  V30 1049 C 101.344 0.372169 4.30394 0
M  V30 1050 C 100.479 -0.454908 5.29249 0
M  V30 1051 C 99.5179 0.45411 6.10413 0
M  V30 1052 N 98.6549 -0.335075 7.013 0
M  V30 1053 H 103.495 1.10052 2.76934 0
M  V30 1054 H 101.032 0.554161 1.36262 0
M  V30 1055 H 102.99 -1.02709 4.0436 0
M  V30 1056 H 101.62 -1.32727 2.9425 0
M  V30 1057 H 100.672 0.97888 3.6759 0
M  V30 1058 H 101.984 1.0703 4.87182 0
M  V30 1059 H 101.138 -1.00695 5.98285 0
M  V30 1060 H 99.8769 -1.18646 4.73048 0
M  V30 1061 H 98.8819 1.01813 5.40291 0
M  V30 1062 H 100.107 1.18409 6.68697 0
M  V30 1063 H 98.0529 -1.04994 6.47543 0
M  V30 1064 H 97.9699 0.304262 7.55387 0
M  V30 1065 H 99.2379 -0.869224 7.74638 0
M  V30 1066 N 103.467 -1.45747 0.599634 0
M  V30 1067 C 104.714 -2.02292 0.0917284 0
M  V30 1068 C 105.042 -1.46906 -1.27472 0
M  V30 1069 O 104.297 -0.630652 -1.8526 0
M  V30 1070 C 104.596 -3.57399 -0.00602758 0
M  V30 1071 C 104.262 -4.31902 1.29503 0
M  V30 1072 C 102.924 -4.51974 1.65144 0
M  V30 1073 C 105.276 -4.74551 2.15525 0
M  V30 1074 C 102.604 -5.11949 2.86574 0
M  V30 1075 C 104.956 -5.35868 3.36196 0
M  V30 1076 C 103.62 -5.54165 3.72099 0
M  V30 1077 H 102.89 -0.740239 0.0335658 0
M  V30 1078 H 105.537 -1.7491 0.779661 0
M  V30 1079 H 103.842 -3.84014 -0.777183 0
M  V30 1080 H 105.539 -3.98846 -0.415038 0
M  V30 1081 H 102.129 -4.16588 1.00761 0
M  V30 1082 H 106.313 -4.58784 1.8929 0
M  V30 1083 H 101.569 -5.24305 3.14507 0
M  V30 1084 H 105.743 -5.6787 4.03109 0
M  V30 1085 H 103.37 -6.00406 4.6628 0
M  V30 1086 N 104.945 -0.338344 -1.53925 0
M  V30 1087 C 105.855 0.529421 -2.28548 0
M  V30 1088 C 106.871 1.11645 -1.3346 0
M  V30 1089 O 108.047 1.13325 -1.66492 0
M  V30 1090 C 105.112 1.66713 -3.03987 0
M  V30 1091 C 104.173 1.11041 -4.14691 0
M  V30 1092 C 103.406 2.19389 -4.86522 0
M  V30 1093 O 103.629 3.40013 -4.57982 0
M  V30 1094 O 102.563 1.83976 -5.73094 0
M  V30 1095 H 106.389 -0.0770399 -3.03602 0
M  V30 1096 H 103.974 -0.103555 -1.49041 0
M  V30 1097 H 105.856 2.32918 -3.5118 0
M  V30 1098 H 104.531 2.25949 -2.31794 0
M  V30 1099 H 103.438 0.413024 -3.71813 0
M  V30 1100 H 104.771 0.562975 -4.8897 0
M  V30 1101 N 106.423 1.57458 -0.0668435 0
M  V30 1102 C 107.672 1.92477 0.602947 0
M  V30 1103 C 107.985 0.948419 1.71068 0
M  V30 1104 O 109.191 1.19124 2.43971 0
M  V30 1105 C 107.647 3.41903 1.12383 0
M  V30 1106 C 107.255 4.47975 0.04737 0
M  V30 1107 C 108.999 3.85931 1.76797 0
M  V30 1108 C 106.906 5.88529 0.582022 0
M  V30 1109 H 105.836 0.718387 0.22899 0
M  V30 1110 H 108.487 1.82978 -0.138276 0
M  V30 1111 H 106.869 3.46459 1.91787 0
M  V30 1112 H 108.043 4.55029 -0.726978 0
M  V30 1113 H 106.358 4.13384 -0.500243 0
M  V30 1114 H 108.955 4.88322 2.17821 0
M  V30 1115 H 109.298 3.23029 2.62599 0
M  V30 1116 H 109.831 3.83958 1.04024 0
M  V30 1117 H 106.57 6.55065 -0.238721 0
M  V30 1118 H 106.09 5.85004 1.324 0
M  V30 1119 H 107.769 6.38258 1.05999 0
M  V30 1120 N 107.901 -0.206675 1.56239 0
M  V30 1121 C 109.147 -0.925733 1.81113 0
M  V30 1122 C 109.502 -1.81368 0.642135 0
M  V30 1123 O 108.795 -1.88126 -0.363211 0
M  V30 1124 C 108.989 -1.78675 3.09532 0
M  V30 1125 C 108.818 -0.98365 4.3881 0
M  V30 1126 C 107.588 -0.672661 5.00803 0
M  V30 1127 C 109.786 -0.341847 5.13163 0
M  V30 1128 N 107.768 0.150283 6.13716 0
M  V30 1129 C 109.139 0.343815 6.19046 0
M  V30 1130 C 111.194 -0.256392 4.97239 0
M  V30 1131 C 109.897 1.10678 7.10734 0
M  V30 1132 C 111.923 0.493142 5.8934 0
M  V30 1133 C 111.285 1.16729 6.94661 0
M  V30 1134 H 107.384 -0.318524 0.714189 0
M  V30 1135 H 109.968 -0.195378 1.93717 0
M  V30 1136 H 108.139 -2.4888 2.98183 0
M  V30 1137 H 109.871 -2.44441 3.22538 0
M  V30 1138 H 106.626 -0.994294 4.63045 0
M  V30 1139 H 107.05 0.551026 6.74754 0
M  V30 1140 H 111.692 -0.763249 4.15854 0
M  V30 1141 H 109.41 1.6251 7.91591 0
M  V30 1142 H 112.996 0.560465 5.79094 0
M  V30 1143 H 111.876 1.738 7.64698 0
M  V30 1144 N 109.379 -1.50304 -0.473955 0
M  V30 1145 C 110.656 -1.51667 -1.23518 0
M  V30 1146 C 111.036 -0.259701 -2.09496 0
M  V30 1147 O 110.384 0.756986 -2.15597 0
M  V30 1148 C 110.594 -2.81082 -2.06868 0
M  V30 1149 C 111.942 -3.31631 -2.65153 0
M  V30 1150 O 112.966 -2.82384 -2.17113 0
M  V30 1151 O 111.825 -4.17471 -3.52675 0
M  V30 1152 H 108.919 -0.60822 -0.560355 0
M  V30 1153 H 111.465 -1.62592 -0.486011 0
M  V30 1154 H 110.237 -3.64041 -1.4349 0
M  V30 1155 H 109.86 -2.73146 -2.88924 0
M  V30 1156 N 110.857 0.726932 -1.39834 0
M  V30 1157 C 112.085 1.51613 -1.40787 0
M  V30 1158 C 112.5 1.88799 -0.00451505 0
M  V30 1159 O 111.857 1.54662 0.968809 0
M  V30 1160 C 111.908 2.79863 -2.28821 0
M  V30 1161 O 111.629 2.44253 -3.63692 0
M  V30 1162 C 113.13 3.73837 -2.38245 0
M  V30 1163 H 110.35 0.468264 -0.480593 0
M  V30 1164 H 112.894 0.897607 -1.83748 0
M  V30 1165 H 111.049 3.38027 -1.89252 0
M  V30 1166 H 111.463 3.26695 -4.1033 0
M  V30 1167 H 112.937 4.60699 -3.04073 0
M  V30 1168 H 113.414 4.16153 -1.40403 0
M  V30 1169 H 114.02 3.21589 -2.78317 0
M  V30 1170 N 112.336 1.25143 0.95797 0
M  V30 1171 C 113.299 1.05321 2.03569 0
M  V30 1172 C 114.299 0.007152 1.60798 0
M  V30 1173 O 115.489 0.24903 1.72411 0
M  V30 1174 C 112.621 0.598394 3.35607 0
M  V30 1175 H 113.814 2.00986 2.22586 0
M  V30 1176 H 111.367 1.07502 1.13459 0
M  V30 1177 H 112.102 -0.361014 3.22284 0
M  V30 1178 H 111.887 1.35351 3.67998 0
M  V30 1179 H 113.377 0.48104 4.1482 0
M  V30 1180 N 113.814 -1.1601 1.06675 0
M  V30 1181 C 115.062 -1.86264 0.784229 0
M  V30 1182 C 115.383 -1.82328 -0.691488 0
M  V30 1183 O 114.653 -1.25947 -1.50047 0
M  V30 1184 H 113.233 -0.689621 0.28711 0
M  V30 1185 H 115.895 -1.40664 1.34906 0
M  V30 1186 H 114.991 -2.91595 1.11259 0
M  V30 1187 N 115.292 -0.849877 -1.32721 0
M  V30 1188 C 116.224 -0.248332 -2.27851 0
M  V30 1189 C 117.237 0.577218 -1.52224 0
M  V30 1190 O 118.426 0.402489 -1.73903 0
M  V30 1191 C 115.526 0.668107 -3.32249 0
M  V30 1192 C 114.699 -0.120534 -4.37234 0
M  V30 1193 C 113.758 0.720932 -5.21238 0
M  V30 1194 O 112.784 0.156166 -5.68986 0
M  V30 1195 N 113.986 2.03647 -5.43607 0
M  V30 1196 H 116.751 -1.06575 -2.80111 0
M  V30 1197 H 114.312 -0.709395 -1.45531 0
M  V30 1198 H 116.304 1.23627 -3.85355 0
M  V30 1199 H 114.874 1.38621 -2.80184 0
M  V30 1200 H 114.094 -0.870108 -3.84477 0
M  V30 1201 H 115.382 -0.662406 -5.0447 0
M  V30 1202 H 114.78 2.51871 -5.06535 0
M  V30 1203 H 113.337 2.55287 -5.99727 0
M  V30 1204 N 116.77 1.45427 -0.607355 0
M  V30 1205 C 117.68 2.34325 0.113463 0
M  V30 1206 C 118.696 1.51226 0.860617 0
M  V30 1207 O 119.872 1.84029 0.818255 0
M  V30 1208 C 116.937 3.28839 1.09844 0
M  V30 1209 C 115.998 4.27844 0.353271 0
M  V30 1210 C 115.231 5.17842 1.29133 0
M  V30 1211 O 115.454 5.11264 2.52913 0
M  V30 1212 O 114.388 5.96713 0.788523 0
M  V30 1213 H 118.214 2.97364 -0.617094 0
M  V30 1214 H 115.799 1.44807 -0.367619 0
M  V30 1215 H 117.681 3.8708 1.66575 0
M  V30 1216 H 116.356 2.68365 1.81003 0
M  V30 1217 H 115.263 3.7322 -0.256494 0
M  V30 1218 H 116.596 4.91173 -0.317822 0
M  V30 1219 N 118.248 0.346503 1.53744 0
M  V30 1220 C 119.664 -0.00530975 1.59599 0
M  V30 1221 C 119.864 -1.48465 1.36236 0
M  V30 1222 O 118.92 -2.24376 1.15808 0
M  V30 1223 C 120.233 0.433516 2.97559 0
M  V30 1224 C 121.781 0.386111 3.10609 0
M  V30 1225 C 122.256 0.800451 4.50951 0
M  V30 1226 N 123.747 0.754753 4.5701 0
M  V30 1227 C 124.482 1.04727 5.63755 0
M  V30 1228 N 123.978 1.4081 6.7834 0
M  V30 1229 N 125.771 0.971316 5.53644 0
M  V30 1230 H 117.922 1.31009 1.67184 0
M  V30 1231 H 120.185 0.534242 0.783128 0
M  V30 1232 H 119.891 1.46509 3.19731 0
M  V30 1233 H 119.765 -0.189753 3.76722 0
M  V30 1234 H 122.152 -0.636295 2.88158 0
M  V30 1235 H 122.233 1.04462 2.33498 0
M  V30 1236 H 121.877 1.82088 4.74137 0
M  V30 1237 H 121.807 0.119386 5.26465 0
M  V30 1238 H 124.298 0.488662 3.74727 0
M  V30 1239 H 124.611 1.61607 7.55714 0
M  V30 1240 H 122.956 1.44657 6.79779 0
M  V30 1241 H 126.147 0.688748 4.63005 0
M  V30 1242 H 126.32 1.20263 6.36742 0
M  V30 1243 N 119.726 -1.57421 0.075193 0
M  V30 1244 C 120.956 -1.97659 -0.601203 0
M  V30 1245 C 121.364 -0.952427 -1.63479 0
M  V30 1246 O 120.707 0.0688241 -1.83571 0
M  V30 1247 C 120.769 -3.34218 -1.32434 0
M  V30 1248 C 120.433 -4.5484 -0.443826 0
M  V30 1249 C 121.43 -5.19034 0.299969 0
M  V30 1250 C 119.115 -5.00952 -0.367709 0
M  V30 1251 C 121.109 -6.27695 1.10807 0
M  V30 1252 C 118.796 -6.09484 0.444058 0
M  V30 1253 C 119.794 -6.72719 1.18061 0
M  V30 1254 O 119.482 -7.79161 1.97898 0
M  V30 1255 H 119.214 -0.65494 -0.167422 0
M  V30 1256 H 121.768 -2.04886 0.145157 0
M  V30 1257 H 119.998 -3.23615 -2.11685 0
M  V30 1258 H 121.687 -3.59038 -1.89331 0
M  V30 1259 H 122.453 -4.84351 0.250776 0
M  V30 1260 H 118.332 -4.51509 -0.930638 0
M  V30 1261 H 121.876 -6.76982 1.68347 0
M  V30 1262 H 117.773 -6.43601 0.494803 0
M  V30 1263 H 118.541 -7.96055 1.90367 0
M  V30 1264 N 121.204 0.198386 -1.56346 0
M  V30 1265 C 122.154 1.2499 -1.90687 0
M  V30 1266 C 123.138 1.41158 -0.772217 0
M  V30 1267 O 124.33 1.43584 -1.03502 0
M  V30 1268 C 121.459 2.59542 -2.24706 0
M  V30 1269 C 120.545 2.47181 -3.44619 0
M  V30 1270 N 120.936 2.04495 -4.62618 0
M  V30 1271 C 119.234 2.78082 -3.48692 0
M  V30 1272 C 119.935 2.03945 -5.44776 0
M  V30 1273 N 118.911 2.45323 -4.85095 0
M  V30 1274 H 122.713 0.911149 -2.7942 0
M  V30 1275 H 120.227 0.40684 -1.57221 0
M  V30 1276 H 122.224 3.3549 -2.47491 0
M  V30 1277 H 120.884 2.94244 -1.37298 0
M  V30 1278 H 121.895 1.75256 -4.87345 0
M  V30 1279 H 118.572 3.17002 -2.71691 0
M  V30 1280 H 119.962 1.72872 -6.4928 0
M  V30 1281 N 122.682 1.50554 0.465978 0
M  V30 1282 C 123.907 1.65838 1.24549 0
M  V30 1283 C 124.332 0.343486 1.84937 0
M  V30 1284 O 123.69 -0.69324 1.67523 0
M  V30 1285 C 123.738 2.75533 2.32624 0
M  V30 1286 O 122.842 2.37142 3.37398 0
M  V30 1287 H 122.183 0.553893 0.366194 0
M  V30 1288 H 124.713 1.96959 0.553927 0
M  V30 1289 H 124.723 2.98763 2.77857 0
M  V30 1290 H 123.398 3.70962 1.88043 0
M  V30 1291 H 121.975 2.24377 2.97841 0
M  V30 1292 N 124.16 -0.719506 1.40217 0
M  V30 1293 C 125.09 -1.8465 1.42922 0
M  V30 1294 C 126.071 -1.67599 0.29062 0
M  V30 1295 O 127.256 -1.87688 0.498677 0
M  V30 1296 C 124.386 -3.22565 1.28722 0
M  V30 1297 C 123.34 -3.54281 2.40144 0
M  V30 1298 C 122.666 -4.91298 2.11023 0
M  V30 1299 C 123.966 -3.55676 3.82481 0
M  V30 1300 H 125.66 -1.82644 2.37237 0
M  V30 1301 H 123.206 -0.877305 1.1419 0
M  V30 1302 H 125.159 -4.01095 1.29232 0
M  V30 1303 H 123.883 -3.25137 0.308811 0
M  V30 1304 H 122.542 -2.78088 2.38877 0
M  V30 1305 H 122.19 -4.90468 1.11582 0
M  V30 1306 H 121.89 -5.13485 2.8567 0
M  V30 1307 H 123.414 -5.72166 2.13209 0
M  V30 1308 H 124.828 -4.24254 3.85592 0
M  V30 1309 H 123.225 -3.89388 4.56614 0
M  V30 1310 H 124.295 -2.55144 4.12346 0
M  V30 1311 N 125.638 -1.25649 -0.95132 0
M  V30 1312 C 126.601 -1.06399 -2.03007 0
M  V30 1313 C 127.601 -0.0156794 -1.60792 0
M  V30 1314 O 128.791 -0.25817 -1.72276 0
M  V30 1315 C 125.923 -0.616184 -3.35285 0
M  V30 1316 H 127.116 -2.02164 -2.21517 0
M  V30 1317 H 124.669 -1.08103 -1.12887 0
M  V30 1318 H 125.404 0.343917 -3.22471 0
M  V30 1319 H 125.189 -1.37301 -3.67275 0
M  V30 1320 H 126.679 -0.503032 -4.14559 0
M  V30 1321 N 127.117 1.15442 -1.07289 0
M  V30 1322 C 128.528 1.67803 -0.818475 0
M  V30 1323 C 128.879 1.8489 0.656507 0
M  V30 1324 O 128.004 1.55176 1.50829 0
M  V30 1325 C 128.599 3.04805 -1.47917 0
M  V30 1326 C 127.158 3.54245 -1.27229 0
M  V30 1327 C 126.305 2.29986 -1.54925 0
M  V30 1328 H 129.256 0.996646 -1.23502 0
M  V30 1329 H 129.277 3.69702 -0.90005 0
M  V30 1330 H 128.789 2.92336 -2.55267 0
M  V30 1331 H 126.89 3.71956 -0.21899 0
M  V30 1332 H 127.003 4.35723 -1.99203 0
M  V30 1333 H 125.367 2.35496 -0.970242 0
M  V30 1334 H 126.15 2.20105 -2.63455 0
M  V30 1335 N 128.595 0.856903 1.32268 0
M  V30 1336 C 129.528 0.247937 2.26849 0
M  V30 1337 C 130.506 -0.615382 1.50505 0
M  V30 1338 O 131.69 -0.571689 1.79622 0
M  V30 1339 C 128.817 -0.650093 3.32403 0
M  V30 1340 C 127.863 0.140138 4.2627 0
M  V30 1341 S 128.696 1.51004 5.13769 0
M  V30 1342 C 129.852 0.61778 6.22844 0
M  V30 1343 H 130.085 1.04971 2.78152 0
M  V30 1344 H 127.618 0.654665 1.39834 0
M  V30 1345 H 129.576 -1.16256 3.93694 0
M  V30 1346 H 128.237 -1.4257 2.7988 0
M  V30 1347 H 127.43 -0.543945 5.01056 0
M  V30 1348 H 127.032 0.584267 3.69408 0
M  V30 1349 H 129.324 -0.177053 6.77269 0
M  V30 1350 H 130.267 1.33636 6.95375 0
M  V30 1351 H 130.675 0.191124 5.64176 0
M  V30 1352 N 130.073 -1.45103 0.615059 0
M  V30 1353 C 131.303 -2.06254 0.119596 0
M  V30 1354 C 131.711 -1.4591 -1.20445 0
M  V30 1355 O 131.054 -0.570384 -1.7462 0
M  V30 1356 C 131.116 -3.59396 -0.0865591 0
M  V30 1357 C 130.78 -4.42116 1.15683 0
M  V30 1358 C 131.777 -4.7662 2.07676 0
M  V30 1359 C 129.462 -4.82749 1.38775 0
M  V30 1360 C 131.456 -5.50622 3.21082 0
M  V30 1361 C 129.143 -5.56504 2.52481 0
M  V30 1362 C 130.141 -5.90358 3.43463 0
M  V30 1363 O 129.829 -6.62615 4.55189 0
M  V30 1364 H 129.561 -0.672423 0.0694512 0
M  V30 1365 H 132.115 -1.87219 0.844885 0
M  V30 1366 H 130.345 -3.76859 -0.866823 0
M  V30 1367 H 132.034 -4.02365 -0.534555 0
M  V30 1368 H 132.8 -4.4578 1.91063 0
M  V30 1369 H 128.679 -4.55829 0.688545 0
M  V30 1370 H 132.223 -5.76965 3.92119 0
M  V30 1371 H 128.12 -5.86759 2.69043 0
M  V30 1372 H 128.888 -6.81071 4.53966 0
M  V30 1373 N 131.551 -0.354651 -1.53558 0
M  V30 1374 C 132.781 0.239167 -2.05211 0
M  V30 1375 C 133.189 1.43879 -1.22863 0
M  V30 1376 O 132.532 1.81857 -0.259565 0
M  V30 1377 C 132.594 0.707251 -3.52474 0
M  V30 1378 C 132.258 -0.374212 -4.55465 0
M  V30 1379 C 133.255 -1.22054 -5.0537 0
M  V30 1380 C 130.94 -0.531323 -4.99482 0
M  V30 1381 C 132.934 -2.20942 -5.97882 0
M  V30 1382 C 130.621 -1.52358 -5.91802 0
M  V30 1383 C 131.619 -2.36108 -6.40892 0
M  V30 1384 O 131.307 -3.33643 -7.31394 0
M  V30 1385 H 131.039 0.0479716 -0.674296 0
M  V30 1386 H 133.593 -0.508121 -1.99016 0
M  V30 1387 H 131.823 1.50596 -3.56171 0
M  V30 1388 H 133.512 1.22285 -3.87042 0
M  V30 1389 H 134.278 -1.1103 -4.7212 0
M  V30 1390 H 130.157 0.110738 -4.60867 0
M  V30 1391 H 133.701 -2.86348 -6.36121 0
M  V30 1392 H 129.598 -1.63434 -6.24467 0
M  V30 1393 H 130.366 -3.29244 -7.4936 0
M  V30 1394 N 133.029 1.57378 -0.0835403 0
M  V30 1395 C 134.445 1.57246 0.273109 0
M  V30 1396 C 134.645 1.09385 1.69225 0
M  V30 1397 O 133.701 0.765051 2.40631 0
M  V30 1398 C 135.014 3.00614 0.0720628 0
M  V30 1399 C 136.562 3.12684 0.1407 0
M  V30 1400 C 137.037 4.57989 -0.0322094 0
M  V30 1401 N 138.528 4.63194 0.0230085 0
M  V30 1402 C 139.263 5.73335 -0.0861941 0
M  V30 1403 N 138.759 6.9235 -0.24958 0
M  V30 1404 N 140.552 5.62093 -0.0282886 0
M  V30 1405 H 132.703 1.86801 -1.0109 0
M  V30 1406 H 134.966 0.861687 -0.395222 0
M  V30 1407 H 134.672 3.39786 -0.907662 0
M  V30 1408 H 134.546 3.68193 0.81936 0
M  V30 1409 H 136.933 2.73391 1.11092 0
M  V30 1410 H 137.014 2.47719 -0.637896 0
M  V30 1411 H 136.658 4.97973 -0.999247 0
M  V30 1412 H 136.588 5.21 0.765937 0
M  V30 1413 H 139.079 3.77613 0.14722 0
M  V30 1414 H 139.392 7.72117 -0.324733 0
M  V30 1415 H 137.737 6.94415 -0.285097 0
M  V30 1416 H 140.928 4.67997 0.0981408 0
M  V30 1417 H 141.101 6.47895 -0.116845 0
M  V30 1418 N 134.507 -0.190092 1.56449 0
M  V30 1419 C 135.755 -0.907908 1.80559 0
M  V30 1420 C 136.076 -1.83583 0.657438 0
M  V30 1421 O 135.346 -1.93203 -0.323924 0
M  V30 1422 H 133.926 -0.338247 0.666032 0
M  V30 1423 H 136.588 -0.194403 1.93928 0
M  V30 1424 H 135.684 -1.49604 2.73907 0
M  V30 1425 N 135.985 -1.50799 -0.457987 0
M  V30 1426 C 136.948 -1.7005 -1.53674 0
M  V30 1427 C 137.948 -0.570881 -1.50325 0
M  V30 1428 O 139.138 -0.838126 -1.52712 0
M  V30 1429 C 136.27 -1.73788 -2.93276 0
M  V30 1430 H 137.463 -2.66306 -1.37917 0
M  V30 1431 H 135.016 -1.40477 -0.685271 0
M  V30 1432 H 135.751 -0.792717 -3.14462 0
M  V30 1433 H 135.536 -2.55864 -2.97113 0
M  V30 1434 H 137.026 -1.90591 -3.71571 0
M  V30 1435 N 137.463 0.71206 -1.40597 0
M  V30 1436 C 138.395 1.83704 -1.37061 0
M  V30 1437 C 139.408 1.60453 -0.275426 0
M  V30 1438 O 140.597 1.70262 -0.53602 0
M  V30 1439 C 137.697 3.20172 -1.11099 0
M  V30 1440 C 136.87 3.7059 -2.3234 0
M  V30 1441 C 135.929 4.85681 -2.02485 0
M  V30 1442 O 134.955 4.9815 -2.75382 0
M  V30 1443 N 136.157 5.71735 -1.00497 0
M  V30 1444 H 138.922 1.87235 -2.34016 0
M  V30 1445 H 136.483 0.893739 -1.34996 0
M  V30 1446 H 138.475 3.94768 -0.891064 0
M  V30 1447 H 137.045 3.11767 -0.227989 0
M  V30 1448 H 136.265 2.87085 -2.7014 0
M  V30 1449 H 137.553 4.01011 -3.13157 0
M  V30 1450 H 136.951 5.64275 -0.401298 0
M  V30 1451 H 135.508 6.463 -0.844942 0
M  V30 1452 N 138.941 1.26152 0.944643 0
M  V30 1453 C 139.904 1.07474 2.0244 0
M  V30 1454 C 140.904 0.0242064 1.60782 0
M  V30 1455 O 142.094 0.267302 1.72137 0
M  V30 1456 C 139.226 0.633956 3.34953 0
M  V30 1457 H 140.419 2.03336 2.20442 0
M  V30 1458 H 137.972 1.087 1.12312 0
M  V30 1459 H 138.707 -0.326811 3.22649 0
M  V30 1460 H 138.492 1.39247 3.66542 0
M  V30 1461 H 139.982 0.52501 4.14287 0
M  V30 1462 N 140.419 -1.14872 1.07899 0
M  V30 1463 C 141.382 -2.17986 0.708161 0
M  V30 1464 C 142.382 -1.58775 -0.25442 0
M  V30 1465 O 143.572 -1.74166 -0.034645 0
M  V30 1466 C 140.704 -3.40871 0.0446929 0
M  V30 1467 H 141.897 -2.52306 1.62116 0
M  V30 1468 H 139.45 -1.2943 0.876218 0
M  V30 1469 H 140.185 -3.12124 -0.880281 0
M  V30 1470 H 139.97 -3.8511 0.737091 0
M  V30 1471 H 141.46 -4.17121 -0.19991 0
M  V30 1472 N 141.898 -0.863906 -1.31812 0
M  V30 1473 C 143.147 -0.46801 -1.96195 0
M  V30 1474 C 143.46 0.983474 -1.69077 0
M  V30 1475 O 144.666 1.48523 -2.27273 0
M  V30 1476 C 143.122 -0.785995 -3.51212 0
M  V30 1477 C 142.73 -2.25383 -3.87178 0
M  V30 1478 C 144.474 -0.458274 -4.22019 0
M  V30 1479 C 142.381 -2.51455 -5.3528 0
M  V30 1480 H 141.311 -0.171283 -0.734287 0
M  V30 1481 H 143.962 -1.05597 -1.50072 0
M  V30 1482 H 142.344 -0.127359 -3.95795 0
M  V30 1483 H 143.518 -2.95502 -3.53575 0
M  V30 1484 H 141.833 -2.54698 -3.2942 0
M  V30 1485 H 144.43 -0.630369 -5.30971 0
M  V30 1486 H 144.773 0.600834 -4.11941 0
M  V30 1487 H 145.306 -1.07319 -3.8305 0
M  V30 1488 H 142.045 -3.56025 -5.50387 0
M  V30 1489 H 141.565 -1.85923 -5.70257 0
M  V30 1490 H 143.244 -2.35874 -6.02472 0
M  V30 1491 N 143.376 1.44774 -0.622745 0
M  V30 1492 C 144.622 2.0242 -0.124083 0
M  V30 1493 C 144.955 1.4881 1.24777 0
M  V30 1494 O 144.23 0.668799 1.8264 0
M  V30 1495 C 144.513 3.59957 -0.101619 0
M  V30 1496 C 144.366 4.23867 -1.50521 0
M  V30 1497 C 145.685 4.36284 0.578272 0
M  V30 1498 H 142.804 0.735528 -0.0465645 0
M  V30 1499 H 145.446 1.72447 -0.797617 0
M  V30 1500 H 143.596 3.85623 0.471934 0
M  V30 1501 H 145.268 4.09336 -2.12701 0
M  V30 1502 H 143.511 3.81684 -2.06154 0
M  V30 1503 H 144.182 5.32843 -1.4416 0
M  V30 1504 H 146.658 4.16001 0.0906057 0
M  V30 1505 H 145.534 5.46004 0.563149 0
M  V30 1506 H 145.795 4.10271 1.64713 0
M  V30 1507 N 144.854 0.36279 1.53368 0
M  V30 1508 C 146.1 -0.228113 2.01513 0
M  V30 1509 C 146.433 -1.48648 1.2497 0
M  V30 1510 O 145.708 -1.91459 0.342616 0
M  V30 1511 C 145.991 -0.522884 3.56284 0
M  V30 1512 C 145.844 0.74892 4.43521 0
M  V30 1513 C 147.163 -1.32461 4.19693 0
M  V30 1514 H 144.282 -0.0814343 0.732487 0
M  V30 1515 H 146.924 0.48713 1.83649 0
M  V30 1516 H 145.074 -1.1322 3.71636 0
M  V30 1517 H 146.746 1.38648 4.39971 0
M  V30 1518 H 144.989 1.36986 4.11603 0
M  V30 1519 H 145.66 0.497667 5.49752 0
M  V30 1520 H 148.136 -0.809203 4.08156 0
M  V30 1521 H 147.012 -1.49961 5.28018 0
M  V30 1522 H 147.273 -2.33232 3.75573 0
M  V30 1523 N 146.332 -1.57332 0.0918853 0
M  V30 1524 C 147.562 -1.98286 -0.580205 0
M  V30 1525 C 147.97 -0.969713 -1.6246 0
M  V30 1526 O 147.313 0.0493501 -1.83634 0
M  V30 1527 C 147.375 -3.35603 -1.28882 0
M  V30 1528 C 147.039 -4.55285 -0.395559 0
M  V30 1529 C 148.036 -5.18687 0.355002 0
M  V30 1530 C 145.721 -5.01314 -0.314556 0
M  V30 1531 C 147.715 -6.26484 1.17458 0
M  V30 1532 C 145.402 -6.08979 0.508677 0
M  V30 1533 C 146.4 -6.71429 1.2519 0
M  V30 1534 O 146.088 -7.77018 2.06151 0
M  V30 1535 H 145.82 -0.656678 -0.160466 0
M  V30 1536 H 148.374 -2.04721 0.16688 0
M  V30 1537 H 146.604 -3.25842 -2.08241 0
M  V30 1538 H 148.293 -3.61026 -1.85512 0
M  V30 1539 H 149.059 -4.84058 0.302134 0
M  V30 1540 H 144.938 -4.5247 -0.882697 0
M  V30 1541 H 148.482 -6.75159 1.75518 0
M  V30 1542 H 144.379 -6.4304 0.563037 0
M  V30 1543 H 145.147 -7.93991 1.98799 0
M  V30 1544 N 147.81 0.181792 -1.56548 0
M  V30 1545 C 149.087 0.926765 -1.72251 0
M  V30 1546 C 149.467 2.00831 -0.650386 0
M  V30 1547 O 148.815 2.26008 0.336521 0
M  V30 1548 C 149.025 1.50106 -3.1507 0
M  V30 1549 C 150.373 1.97805 -3.75711 0
M  V30 1550 O 151.397 1.59922 -3.18282 0
M  V30 1551 O 150.256 2.67555 -4.76525 0
M  V30 1552 H 147.35 0.435506 -0.703039 0
M  V30 1553 H 149.896 0.170443 -1.68842 0
M  V30 1554 H 148.668 0.72212 -3.84579 0
M  V30 1555 H 148.291 2.32186 -3.22763 0
M  V30 1556 N 149.288 1.51039 0.449983 0
M  V30 1557 C 150.537 1.62317 1.19733 0
M  V30 1558 C 150.85 0.339101 1.92638 0
M  V30 1559 O 152.056 0.331069 2.69474 0
M  V30 1560 C 150.512 2.86608 2.17678 0
M  V30 1561 C 150.12 4.21972 1.50479 0
M  V30 1562 C 151.864 3.07239 2.92924 0
M  V30 1563 C 149.771 5.37426 2.46834 0
M  V30 1564 H 148.701 0.604532 0.450619 0
M  V30 1565 H 151.352 1.77494 0.465625 0
M  V30 1566 H 149.734 2.65037 2.94231 0
M  V30 1567 H 150.908 4.53878 0.795716 0
M  V30 1568 H 149.223 4.07117 0.874344 0
M  V30 1569 H 151.82 3.90668 3.65079 0
M  V30 1570 H 152.163 2.19807 3.5354 0
M  V30 1571 H 152.696 3.29091 2.23481 0
M  V30 1572 H 149.435 6.27079 1.90926 0
M  V30 1573 H 148.955 5.09912 3.15832 0
M  V30 1574 H 150.634 5.68862 3.08228 0
M  V30 1575 N 150.766 -0.704594 1.40972 0
M  V30 1576 C 151.994 -1.49354 1.43182 0
M  V30 1577 C 152.409 -1.88768 0.0345508 0
M  V30 1578 O 151.766 -1.56184 -0.944081 0
M  V30 1579 C 151.817 -2.76187 2.33244 0
M  V30 1580 O 151.538 -2.38436 3.67532 0
M  V30 1581 C 153.039 -3.7 2.44162 0
M  V30 1582 H 150.259 -0.460559 0.487982 0
M  V30 1583 H 152.803 -0.868261 1.85153 0
M  V30 1584 H 150.958 -3.34974 1.94606 0
M  V30 1585 H 151.372 -3.20126 4.15475 0
M  V30 1586 H 152.846 -4.55803 3.11364 0
M  V30 1587 H 153.323 -4.13867 1.47006 0
M  V30 1588 H 153.929 -3.17121 2.83398 0
M  V30 1589 N 152.244 -1.26651 -0.937939 0
M  V30 1590 C 153.192 -1.08308 -2.05845 0
M  V30 1591 C 154.186 -0.0090757 -1.69398 0
M  V30 1592 O 155.392 -0.166007 -1.79233 0
M  V30 1593 H 151.767 -0.333416 -0.674046 0
M  V30 1594 H 153.738 -2.03261 -2.18467 0
M  V30 1595 C 152.487 -0.736229 -3.39816 0
M  V30 1596 H 151.81 -1.55453 -3.6834 0
M  V30 1597 H 153.25 -0.64769 -4.19024 0
M  V30 1598 C 151.709 0.558824 -3.32233 0
M  V30 1599 O 152.239 1.59621 -3.68624 0
M  V30 1600 N 150.445 0.550657 -2.85335 0
M  V30 1601 H 149.992 -0.293943 -2.55917 0
M  V30 1602 H 149.95 1.41726 -2.80644 0
M  V30 1603 N 153.722 1.14298 -1.08507 0
M  V30 1604 C 154.632 2.23027 -0.727753 0
M  V30 1605 C 155.648 1.71952 0.26619 0
M  V30 1606 O 156.824 2.011 0.109882 0
M  V30 1607 C 153.889 3.46403 -0.143541 0
M  V30 1608 C 152.95 4.12413 -1.19223 0
M  V30 1609 C 152.183 5.29899 -0.635798 0
M  V30 1610 O 152.406 5.67796 0.544393 0
M  V30 1611 O 151.34 5.85717 -1.38634 0
M  V30 1612 H 155.166 2.55945 -1.63481 0
M  V30 1613 H 152.751 1.22248 -0.858817 0
M  V30 1614 H 154.633 4.21018 0.179404 0
M  V30 1615 H 153.308 3.15206 0.736659 0
M  V30 1616 H 152.215 3.39667 -1.56772 0
M  V30 1617 H 153.548 4.47718 -2.04474 0
M  V30 1618 N 155.201 0.870884 1.31352 0
M  V30 1619 C 156.111 0.330783 2.32256 0
M  V30 1620 C 157.127 -0.559767 1.6475 0
M  V30 1621 O 158.303 -0.456263 1.96164 0
M  V30 1622 C 155.368 -0.458137 3.4366 0
M  V30 1623 C 154.429 0.460482 4.26823 0
M  V30 1624 C 153.662 -0.290881 5.32907 0
M  V30 1625 O 153.885 -1.51885 5.49806 0
M  V30 1626 O 152.819 0.351732 6.00871 0
M  V30 1627 H 156.645 1.16718 2.80376 0
M  V30 1628 H 154.23 0.634285 1.35267 0
M  V30 1629 H 156.112 -0.905343 4.1156 0
M  V30 1630 H 154.787 -1.27106 2.97701 0
M  V30 1631 H 153.694 0.956207 3.61673 0
M  V30 1632 H 155.027 1.23903 4.7635 0
M  V30 1633 N 156.679 -1.44442 0.630414 0
M  V30 1634 C 157.904 -2.06927 0.139944 0
M  V30 1635 C 158.329 -1.46795 -1.17613 0
M  V30 1636 O 157.687 -0.569144 -1.72135 0
M  V30 1637 C 157.735 -3.6058 0.0379581 0
M  V30 1638 O 156.839 -3.99937 -1.0062 0
M  V30 1639 H 156.18 -0.658608 0.0844483 0
M  V30 1640 H 158.71 -1.85327 0.866891 0
M  V30 1641 H 158.72 -4.07714 -0.152856 0
M  V30 1642 H 157.395 -4.03728 0.998809 0
M  V30 1643 H 155.972 -3.64436 -0.79001 0
M  V30 1644 N 158.157 -0.370918 -1.53173 0
M  V30 1645 C 159.404 0.217102 -2.01333 0
M  V30 1646 C 159.732 1.48338 -1.25802 0
M  V30 1647 O 158.987 1.92698 -0.34146 0
M  V30 1648 C 159.286 0.549696 -3.53147 0
M  V30 1649 C 158.952 -0.622872 -4.46577 0
M  V30 1650 C 157.614 -0.944595 -4.71838 0
M  V30 1651 C 159.966 -1.40819 -5.01816 0
M  V30 1652 C 157.294 -2.05351 -5.49589 0
M  V30 1653 C 159.646 -2.50757 -5.80778 0
M  V30 1654 C 158.31 -2.83458 -6.04324 0
M  V30 1655 H 157.58 0.0794431 -0.736729 0
M  V30 1656 H 160.227 -0.504481 -1.84736 0
M  V30 1657 H 158.532 1.35237 -3.6772 0
M  V30 1658 H 160.229 1.017 -3.87889 0
M  V30 1659 H 156.819 -0.36209 -4.27068 0
M  V30 1660 H 161.003 -1.17289 -4.82242 0
M  V30 1661 H 156.259 -2.3108 -5.6605 0
M  V30 1662 H 160.433 -3.12022 -6.22588 0
M  V30 1663 H 158.06 -3.69508 -6.64355 0
M  V30 1664 N 159.635 1.57281 -0.100228 0
M  V30 1665 C 160.598 2.13158 0.842398 0
M  V30 1666 C 161.598 1.06202 1.20738 0
M  V30 1667 O 162.788 1.32066 1.13597 0
M  V30 1668 C 159.92 2.65639 2.13655 0
M  V30 1669 H 161.113 2.97766 0.357114 0
M  V30 1670 H 158.666 1.5559 0.148823 0
M  V30 1671 H 159.401 1.84566 2.66657 0
M  V30 1672 H 159.186 3.43844 1.88451 0
M  V30 1673 H 160.676 3.08846 2.81077 0
M  V30 1674 N 161.113 -0.173488 1.56642 0
M  V30 1675 C 162.529 -0.525174 1.50712 0
M  V30 1676 C 162.729 -1.8476 0.804107 0
M  V30 1677 O 161.785 -2.49869 0.363574 0
M  V30 1678 C 163.098 -0.559937 2.95441 0
M  V30 1679 C 164.646 -0.647288 3.06234 0
M  V30 1680 C 165.121 -0.712963 4.52417 0
M  V30 1681 N 166.612 -0.775911 4.56655 0
M  V30 1682 C 167.347 -0.847264 5.67106 0
M  V30 1683 N 166.843 -0.879585 6.87194 0
M  V30 1684 N 168.636 -0.886117 5.55071 0
M  V30 1685 H 160.787 0.693681 2.00753 0
M  V30 1686 H 163.05 0.249841 0.914485 0
M  V30 1687 H 162.756 0.343049 3.50023 0
M  V30 1688 H 162.63 -1.40718 3.49969 0
M  V30 1689 H 165.017 -1.5407 2.51687 0
M  V30 1690 H 165.098 0.226586 2.54794 0
M  V30 1691 H 164.742 0.176183 5.07594 0
M  V30 1692 H 164.672 -1.60295 5.0161 0
M  V30 1693 H 167.163 -0.759304 3.70193 0
M  V30 1694 H 167.476 -0.935144 7.67121 0
M  V30 1695 H 165.821 -0.847898 6.89808 0
M  V30 1696 H 169.012 -0.857853 4.60172 0
M  V30 1697 H 169.185 -0.938263 6.41171 0
M  V30 1698 N 162.591 -1.51276 -0.441967 0
M  V30 1699 C 163.554 -1.7167 -1.51862 0
M  V30 1700 C 164.554 -0.586793 -1.49711 0
M  V30 1701 O 165.744 -0.854276 -1.51815 0
M  V30 1702 C 162.876 -1.76889 -2.91416 0
M  V30 1703 H 164.069 -2.67754 -1.35084 0
M  V30 1704 H 161.622 -1.41196 -0.670333 0
M  V30 1705 H 162.357 -0.826026 -3.13604 0
M  V30 1706 H 162.142 -2.59001 -2.94382 0
M  V30 1707 H 163.632 -1.94522 -3.69528 0
M  V30 1708 N 164.069 0.697108 -1.41344 0
M  V30 1709 C 165.016 1.81106 -1.43071 0
M  V30 1710 C 165.986 1.63632 -0.285275 0
M  V30 1711 O 167.171 1.84504 -0.486091 0
M  V30 1712 C 164.311 3.18975 -1.31715 0
M  V30 1713 C 163.424 3.47892 -2.56115 0
M  V30 1714 C 162.559 4.75367 -2.37064 0
M  V30 1715 C 161.598 4.97247 -3.56948 0
M  V30 1716 N 160.735 6.15947 -3.36977 0
M  V30 1717 H 165.575 1.78965 -2.38276 0
M  V30 1718 H 163.112 0.873975 -1.18322 0
M  V30 1719 H 165.07 3.98615 -1.23133 0
M  V30 1720 H 163.7 3.20297 -0.401183 0
M  V30 1721 H 162.752 2.62669 -2.75153 0
M  V30 1722 H 164.064 3.59962 -3.45295 0
M  V30 1723 H 163.218 5.63059 -2.25941 0
M  V30 1724 H 161.957 4.65541 -1.45338 0
M  V30 1725 H 160.962 4.08004 -3.68527 0
M  V30 1726 H 162.187 5.08934 -4.49626 0
M  V30 1727 H 160.133 6.07336 -2.47949 0
M  V30 1728 H 160.05 6.28777 -4.19732 0
M  V30 1729 H 161.318 7.06377 -3.29623 0
M  V30 1730 N 165.547 1.27147 0.931209 0
M  V30 1731 C 166.495 1.09398 2.05268 0
M  V30 1732 C 167.489 0.0180591 1.6939 0
M  V30 1733 O 168.695 0.17551 1.79142 0
M  V30 1734 H 165.07 0.336986 0.672268 0
M  V30 1735 H 167.041 2.04416 2.17386 0
M  V30 1736 C 165.79 0.75424 3.39421 0
M  V30 1737 H 165.113 1.57404 3.67511 0
M  V30 1738 H 166.553 0.669903 4.18674 0
M  V30 1739 C 165.012 -0.541197 3.32525 0
M  V30 1740 O 165.542 -1.57664 3.69466 0
M  V30 1741 N 163.748 -0.535517 2.85623 0
M  V30 1742 H 163.295 0.307511 2.55758 0
M  V30 1743 H 163.253 -1.40236 2.81392 0
M  V30 1744 N 167.025 -1.13721 1.09112 0
M  V30 1745 C 168.271 -1.85413 0.836283 0
M  V30 1746 C 168.626 -1.8175 -0.631249 0
M  V30 1747 O 167.919 -1.24238 -1.45861 0
M  V30 1748 C 168.113 -3.32861 1.30146 0
M  V30 1749 C 167.942 -3.50882 2.81268 0
M  V30 1750 C 166.712 -3.65312 3.49106 0
M  V30 1751 C 168.91 -3.47196 3.7942 0
M  V30 1752 N 166.892 -3.71563 4.88686 0
M  V30 1753 C 168.263 -3.59777 5.04936 0
M  V30 1754 C 170.318 -3.30577 3.72321 0
M  V30 1755 C 169.021 -3.57455 6.24194 0
M  V30 1756 C 171.047 -3.29562 4.91063 0
M  V30 1757 C 170.409 -3.42691 6.15421 0
M  V30 1758 H 166.508 -0.694812 0.358832 0
M  V30 1759 H 169.092 -1.36246 1.39087 0
M  V30 1760 H 167.263 -3.80602 0.774361 0
M  V30 1761 H 168.995 -3.92346 0.99229 0
M  V30 1762 H 165.75 -3.6685 2.9953 0
M  V30 1763 H 166.174 -3.78387 5.61384 0
M  V30 1764 H 170.816 -3.19332 2.77105 0
M  V30 1765 H 168.534 -3.67475 7.19714 0
M  V30 1766 H 172.12 -3.17905 4.87266 0
M  V30 1767 H 171 -3.41862 7.05762 0
M  V30 1768 N 168.503 -0.877838 -1.30888 0
M  V30 1769 C 169.749 -0.493426 -1.96706 0
M  V30 1770 C 170.082 0.953504 -1.6918 0
M  V30 1771 O 169.357 1.67266 -0.992594 0
M  V30 1772 C 169.64 -0.760429 -3.51979 0
M  V30 1773 C 169.493 -2.25747 -3.89048 0
M  V30 1774 C 170.812 -0.232148 -4.39487 0
M  V30 1775 H 167.931 -0.180746 -0.714493 0
M  V30 1776 H 170.573 -1.10052 -1.54882 0
M  V30 1777 H 168.723 -0.243715 -3.87735 0
M  V30 1778 H 170.395 -2.84204 -3.63354 0
M  V30 1779 H 168.638 -2.72694 -3.37373 0
M  V30 1780 H 169.309 -2.39491 -4.97341 0
M  V30 1781 H 171.785 -0.674314 -4.106 0
M  V30 1782 H 170.661 -0.448355 -5.47066 0
M  V30 1783 H 170.922 0.866297 -4.33529 0
M  V30 1784 N 169.982 1.44106 -0.638065 0
M  V30 1785 C 170.929 2.30715 0.062701 0
M  V30 1786 C 171.899 1.43882 0.829883 0
M  V30 1787 O 173.084 1.72775 0.809532 0
M  V30 1788 C 170.224 3.29258 1.03358 0
M  V30 1789 C 169.337 4.31192 0.26409 0
M  V30 1790 C 168.472 5.16825 1.22741 0
M  V30 1791 C 167.511 6.10462 0.447475 0
M  V30 1792 N 166.648 6.8877 1.36161 0
M  V30 1793 H 171.488 2.90096 -0.681781 0
M  V30 1794 H 169.025 1.42925 -0.347988 0
M  V30 1795 H 170.983 3.84886 1.60992 0
M  V30 1796 H 169.613 2.71562 1.74511 0
M  V30 1797 H 168.665 3.77981 -0.428295 0
M  V30 1798 H 169.977 4.97619 -0.343052 0
M  V30 1799 H 169.131 5.77004 1.87487 0
M  V30 1800 H 167.87 4.50488 1.86847 0
M  V30 1801 H 166.875 5.49386 -0.213433 0
M  V30 1802 H 168.1 6.78837 -0.188968 0
M  V30 1803 H 166.046 6.25096 1.98975 0
M  V30 1804 H 165.963 7.51663 0.808656 0
M  V30 1805 H 167.231 7.53467 1.99769 0
M  V30 1806 N 171.46 0.379036 1.52974 0
M  V30 1807 C 172.37 -0.468639 2.29872 0
M  V30 1808 C 173.386 -1.08067 1.36373 0
M  V30 1809 O 174.562 -1.08871 1.69438 0
M  V30 1810 C 171.627 -1.58594 3.083 0
M  V30 1811 C 170.688 -1.00007 4.17489 0
M  V30 1812 C 169.921 -2.06413 4.92168 0
M  V30 1813 O 170.144 -3.27751 4.66835 0
M  V30 1814 O 169.078 -1.68717 5.7777 0
M  V30 1815 H 172.904 0.157508 3.03291 0
M  V30 1816 H 170.489 0.143035 1.48714 0
M  V30 1817 H 172.371 -2.23525 3.57232 0
M  V30 1818 H 171.046 -2.19724 2.37703 0
M  V30 1819 H 169.953 -0.314299 3.72777 0
M  V30 1820 H 171.286 -0.433135 4.90291 0
M  V30 1821 N 172.938 -1.57226 0.108567 0
M  V30 1822 C 173.868 -2.17778 -0.84232 0
M  V30 1823 C 174.849 -1.11487 -1.2847 0
M  V30 1824 O 176.034 -1.39681 -1.34918 0
M  V30 1825 C 173.164 -2.76888 -2.09644 0
M  V30 1826 C 172.118 -3.88669 -1.79221 0
M  V30 1827 C 171.444 -4.34541 -3.11574 0
M  V30 1828 C 172.744 -5.11251 -1.06864 0
M  V30 1829 H 174.438 -2.97489 -0.337774 0
M  V30 1830 H 171.984 -1.43097 -0.161025 0
M  V30 1831 H 173.937 -3.17904 -2.76614 0
M  V30 1832 H 172.661 -1.94451 -2.62405 0
M  V30 1833 H 171.32 -3.48213 -1.14644 0
M  V30 1834 H 170.968 -3.48977 -3.62249 0
M  V30 1835 H 170.668 -5.09914 -2.91996 0
M  V30 1836 H 172.192 -4.782 -3.7968 0
M  V30 1837 H 173.606 -5.49352 -1.63968 0
M  V30 1838 H 172.003 -5.9214 -0.974178 0
M  V30 1839 H 173.073 -4.8487 -0.0536168 0
M  V30 1840 N 174.416 0.165178 -1.56732 0
M  V30 1841 C 175.348 1.22911 -1.93457 0
M  V30 1842 C 176.361 1.40152 -0.828333 0
M  V30 1843 O 177.55 1.40046 -1.10677 0
M  V30 1844 C 174.65 2.59686 -2.17753 0
M  V30 1845 C 173.823 2.63663 -3.48999 0
M  V30 1846 C 172.882 3.81845 -3.62051 0
M  V30 1847 O 171.908 3.67559 -4.34613 0
M  V30 1848 N 173.11 4.98557 -2.97357 0
M  V30 1849 H 175.875 0.917118 -2.85323 0
M  V30 1850 H 173.436 0.354895 -1.57962 0
M  V30 1851 H 175.428 3.37225 -2.23743 0
M  V30 1852 H 173.998 2.83251 -1.32242 0
M  V30 1853 H 173.218 1.72173 -3.54612 0
M  V30 1854 H 174.506 2.63336 -4.35352 0
M  V30 1855 H 173.904 5.13065 -2.38287 0
M  V30 1856 H 172.461 5.73936 -3.08934 0
M  V30 1857 N 175.894 1.51508 0.433938 0
M  V30 1858 C 177.31 1.39759 0.770682 0
M  V30 1859 C 177.51 0.482594 1.95636 0
M  V30 1860 O 176.566 -0.0609691 2.52426 0
M  V30 1861 C 177.879 2.81851 1.04787 0
M  V30 1862 C 179.427 2.91025 1.1521 0
M  V30 1863 C 179.902 4.34032 1.46219 0
M  V30 1864 N 181.393 4.37154 1.53136 0
M  V30 1865 C 182.128 5.4484 1.78709 0
M  V30 1866 N 181.624 6.62682 2.02051 0
M  V30 1867 N 183.417 5.32324 1.80519 0
M  V30 1868 H 175.568 2.09548 -0.346892 0
M  V30 1869 H 177.831 0.943446 -0.0928074 0
M  V30 1870 H 177.537 3.50815 0.249304 0
M  V30 1871 H 177.411 3.21386 1.97461 0
M  V30 1872 H 179.798 2.22257 1.94128 0
M  V30 1873 H 179.879 2.54983 0.204281 0
M  V30 1874 H 179.523 5.03351 0.678274 0
M  V30 1875 H 179.453 4.6759 2.42212 0
M  V30 1876 H 181.944 3.52197 1.36987 0
M  V30 1877 H 182.257 7.40543 2.20943 0
M  V30 1878 H 180.602 6.65791 1.99366 0
M  V30 1879 H 183.793 4.39246 1.61805 0
M  V30 1880 H 183.966 6.16328 2.00111 0
M  V30 1881 N 177.372 -0.689602 1.41712 0
M  V30 1882 C 178.304 -1.815 1.39966 0
M  V30 1883 C 179.317 -1.59995 0.300917 0
M  V30 1884 O 180.506 -1.69387 0.563039 0
M  V30 1885 C 177.606 -3.18364 1.16179 0
M  V30 1886 C 176.779 -3.66847 2.38206 0
M  V30 1887 C 175.838 -4.82398 2.10186 0
M  V30 1888 O 174.864 -4.93706 2.83272 0
M  V30 1889 N 176.066 -5.70064 1.0958 0
M  V30 1890 H 178.831 -1.83488 2.36965 0
M  V30 1891 H 176.392 -0.872149 1.36401 0
M  V30 1892 H 178.384 -3.93301 0.953756 0
M  V30 1893 H 176.954 -3.11365 0.27756 0
M  V30 1894 H 176.174 -2.82751 2.74673 0
M  V30 1895 H 177.462 -3.95978 3.19498 0
M  V30 1896 H 176.86 -5.63565 0.491019 0
M  V30 1897 H 175.417 -6.44874 0.947656 0
M  V30 1898 N 178.85 -1.27639 -0.924453 0
M  V30 1899 C 179.813 -1.10681 -2.00705 0
M  V30 1900 C 180.813 -0.0497823 -1.60723 0
M  V30 1901 O 182.003 -0.294654 -1.7169 0
M  V30 1902 C 179.135 -0.687164 -3.33902 0
M  V30 1903 H 180.328 -2.06817 -2.17179 0
M  V30 1904 H 177.881 -1.10473 -1.10569 0
M  V30 1905 H 178.616 0.275439 -3.23128 0
M  V30 1906 H 178.401 -1.45061 -3.6428 0
M  V30 1907 H 179.891 -0.590853 -4.13399 0
M  V30 1908 N 180.328 1.1314 -1.09713 0
M  V30 1909 C 181.553 1.88862 -0.857081 0
M  V30 1910 C 181.978 1.78729 0.586304 0
M  V30 1911 O 181.336 1.13692 1.41222 0
M  V30 1912 C 181.384 3.36325 -1.30069 0
M  V30 1913 O 180.488 4.09815 -0.461007 0
M  V30 1914 H 179.829 0.587108 -0.310162 0
M  V30 1915 H 182.359 1.43129 -1.46203 0
M  V30 1916 H 182.369 3.87157 -1.28738 0
M  V30 1917 H 181.044 3.43017 -2.35185 0
M  V30 1918 H 179.621 3.68986 -0.538888 0
M  V30 1919 N 181.806 0.884767 1.30421 0
M  V30 1920 C 183.217 0.553656 1.78302 0
M  V30 1921 C 183.568 -0.930153 1.7275 0
M  V30 1922 O 182.693 -1.72681 1.30423 0
M  V30 1923 C 183.288 0.998234 3.2376 0
M  V30 1924 C 181.847 0.71854 3.69478 0
M  V30 1925 C 180.994 1.18132 2.50879 0
M  V30 1926 H 183.945 1.06901 1.17294 0
M  V30 1927 H 183.966 0.327118 3.79091 0
M  V30 1928 H 183.478 2.0782 3.27769 0
M  V30 1929 H 181.579 -0.349444 3.70958 0
M  V30 1930 H 181.692 1.30595 4.60958 0
M  V30 1931 H 180.056 0.600669 2.47516 0
M  V30 1932 H 180.839 2.26902 2.57624 0
M  V30 1933 N 183.284 -1.43765 0.645699 0
M  V30 1934 C 184.232 -2.32516 -0.0624849 0
M  V30 1935 C 185.226 -1.48183 -0.820855 0
M  V30 1936 O 186.432 -1.64439 -0.732106 0
M  V30 1937 H 182.807 -0.750989 -0.0389864 0
M  V30 1938 H 184.778 -2.89979 0.703892 0
M  V30 1939 C 183.527 -3.32389 -1.02044 0
M  V30 1940 H 182.85 -3.97301 -0.446312 0
M  V30 1941 H 184.29 -3.97138 -1.48517 0
M  V30 1942 C 182.749 -2.62416 -2.11281 0
M  V30 1943 O 183.279 -2.434 -3.19561 0
M  V30 1944 N 181.485 -2.21913 -1.87624 0
M  V30 1945 H 181.032 -2.37578 -0.995703 0
M  V30 1946 H 180.99 -1.75424 -2.6091 0
M  V30 1947 N 184.763 -0.387143 -1.52771 0
M  V30 1948 C 186.012 0.19697 -2.00736 0
M  V30 1949 C 186.325 1.48082 -1.27793 0
M  V30 1950 O 187.531 2.14485 -1.66458 0
M  V30 1951 C 185.987 0.401568 -3.57653 0
M  V30 1952 C 185.595 -0.868907 -4.39493 0
M  V30 1953 C 187.339 0.942164 -4.13912 0
M  V30 1954 C 185.246 -0.632705 -5.88006 0
M  V30 1955 H 184.176 0.0773827 -0.750019 0
M  V30 1956 H 186.827 -0.50921 -1.76293 0
M  V30 1957 H 185.209 1.16954 -3.78335 0
M  V30 1958 H 186.383 -1.64133 -4.30577 0
M  V30 1959 H 184.698 -1.33429 -3.94443 0
M  V30 1960 H 187.295 1.13455 -5.22525 0
M  V30 1961 H 187.638 1.9106 -3.69867 0
M  V30 1962 H 188.171 0.233814 -3.97112 0
M  V30 1963 H 184.91 -1.57208 -6.36369 0
M  V30 1964 H 184.43 0.100825 -5.99715 0
M  V30 1965 H 186.109 -0.26642 -6.46451 0
M  V30 1966 N 186.241 1.57166 -0.116904 0
M  V30 1967 C 187.487 1.95412 0.542405 0
M  V30 1968 C 187.82 1.00019 1.66463 0
M  V30 1969 O 187.095 0.0370346 1.94465 0
M  V30 1970 C 187.378 3.43615 1.07708 0
M  V30 1971 C 187.231 4.49781 -0.0415868 0
M  V30 1972 C 188.55 3.93616 1.96861 0
M  V30 1973 H 185.669 0.710543 0.195696 0
M  V30 1974 H 188.311 1.89027 -0.192038 0
M  V30 1975 H 186.461 3.49187 1.70296 0
M  V30 1976 H 188.133 4.56308 -0.676793 0
M  V30 1977 H 186.376 4.28033 -0.705019 0
M  V30 1978 H 187.047 5.50733 0.373717 0
M  V30 1979 H 189.523 3.90335 1.44146 0
M  V30 1980 H 188.399 4.97838 2.3119 0
M  V30 1981 H 188.66 3.34188 2.89432 0
M  V30 1982 N 187.719 -0.156864 1.56817 0
M  V30 1983 C 188.968 -0.869504 1.81996 0
M  V30 1984 C 189.281 -1.82777 0.696545 0
M  V30 1985 O 190.487 -2.58384 0.833658 0
M  V30 1986 C 188.943 -1.59679 3.22538 0
M  V30 1987 C 188.551 -0.681431 4.42787 0
M  V30 1988 C 190.295 -2.2968 3.56997 0
M  V30 1989 C 188.202 -1.40978 5.74351 0
M  V30 1990 H 187.132 -0.328438 0.678708 0
M  V30 1991 H 189.783 -0.1223 1.83092 0
M  V30 1992 H 188.165 -2.38927 3.158 0
M  V30 1993 H 189.339 0.0751166 4.60739 0
M  V30 1994 H 187.654 -0.0903431 4.16302 0
M  V30 1995 H 190.251 -2.84794 4.52544 0
M  V30 1996 H 190.594 -3.05707 2.82576 0
M  V30 1997 H 191.127 -1.57361 3.65352 0
M  V30 1998 H 187.866 -0.691561 6.51842 0
M  V30 1999 H 187.386 -2.13929 5.60352 0
M  V30 2000 H 189.065 -1.95337 6.16808 0
M  V30 2001 N 189.197 -1.51736 -0.425897 0
M  V30 2002 C 190.16 -1.73271 -1.50032 0
M  V30 2003 C 191.16 -0.602639 -1.4908 0
M  V30 2004 O 192.35 -0.87033 -1.509 0
M  V30 2005 C 189.482 -1.79969 -2.89523 0
M  V30 2006 H 190.675 -2.69172 -1.32237 0
M  V30 2007 H 188.228 -1.41899 -0.65532 0
M  V30 2008 H 188.963 -0.859241 -3.1271 0
M  V30 2009 H 188.748 -2.62109 -2.91619 0
M  V30 2010 H 190.238 -1.9843 -3.67444 0
M  V30 2011 N 190.675 0.682077 -1.42076 0
M  V30 2012 C 191.605 1.80796 -1.47767 0
M  V30 2013 C 192.586 1.6677 -0.334954 0
M  V30 2014 O 193.771 1.863 -0.548264 0
M  V30 2015 C 190.901 3.19038 -1.37229 0
M  V30 2016 C 189.855 3.47789 -2.49453 0
M  V30 2017 C 189.181 4.8553 -2.23975 0
M  V30 2018 C 190.481 3.45411 -3.91776 0
M  V30 2019 H 192.175 1.7629 -2.41997 0
M  V30 2020 H 189.721 0.846721 -1.16476 0
M  V30 2021 H 191.674 3.97528 -1.39821 0
M  V30 2022 H 190.398 3.24204 -0.394907 0
M  V30 2023 H 189.057 2.71657 -2.46166 0
M  V30 2024 H 188.705 4.87337 -1.24547 0
M  V30 2025 H 188.405 5.0573 -2.99184 0
M  V30 2026 H 189.929 5.66312 -2.28304 0
M  V30 2027 H 191.343 4.13882 -3.96705 0
M  V30 2028 H 189.74 3.77145 -4.66778 0
M  V30 2029 H 190.81 2.44122 -4.18966 0
M  V30 2030 N 192.153 1.28127 0.917671 0
M  V30 2031 C 193.378 1.18007 1.70555 0
M  V30 2032 C 193.803 -0.258257 1.86319 0
M  V30 2033 O 193.161 -1.1869 1.37049 0
M  V30 2034 C 193.209 1.87948 3.07746 0
M  V30 2035 O 192.313 1.18427 3.9503 0
M  V30 2036 H 191.654 0.409867 0.522403 0
M  V30 2037 H 194.184 1.69379 1.1477 0
M  V30 2038 H 194.194 1.95701 3.58001 0
M  V30 2039 H 192.869 2.92573 2.95591 0
M  V30 2040 H 191.446 1.18811 3.53466 0
M  V30 2041 N 193.631 -1.12557 1.10312 0
M  V30 2042 C 194.879 -1.83675 0.843091 0
M  V30 2043 C 195.2 -1.84435 -0.633131 0
M  V30 2044 O 194.47 -1.30657 -1.45964 0
M  V30 2045 H 193.05 -0.680138 0.308904 0
M  V30 2046 H 195.712 -1.36301 1.39313 0
M  V30 2047 H 194.808 -2.87908 1.2048 0
M  V30 2048 N 195.109 -0.891671 -1.2995 0
M  V30 2049 C 196.057 -0.353066 -2.29905 0
M  V30 2050 C 197.051 0.543509 -1.60444 0
M  V30 2051 O 198.257 0.4272 -1.74857 0
M  V30 2052 H 194.632 -0.095531 -0.745907 0
M  V30 2053 H 196.603 -1.20961 -2.72784 0
M  V30 2054 C 195.352 0.411475 -3.45257 0
M  V30 2055 H 194.675 -0.269182 -3.98893 0
M  V30 2056 H 196.115 0.753328 -4.17254 0
M  V30 2057 C 194.574 1.6111 -2.9588 0
M  V30 2058 O 195.104 2.71045 -2.96475 0
M  V30 2059 N 193.31 1.45054 -2.51809 0
M  V30 2060 H 192.857 0.556175 -2.51524 0
M  V30 2061 H 192.815 2.25453 -2.1913 0
M  V30 2062 N 196.587 1.43421 -0.653314 0
M  V30 2063 C 197.534 2.30768 0.0382271 0
M  V30 2064 C 198.504 1.44755 0.814576 0
M  V30 2065 O 199.689 1.73624 0.791162 0
M  V30 2066 C 196.829 3.30336 0.998599 0
M  V30 2067 C 195.942 4.31448 0.218342 0
M  V30 2068 C 195.077 5.18098 1.17252 0
M  V30 2069 C 194.116 6.10902 0.382702 0
M  V30 2070 N 193.253 6.90176 1.28848 0
M  V30 2071 H 198.093 2.89357 -0.712511 0
M  V30 2072 H 195.63 1.42548 -0.363128 0
M  V30 2073 H 197.588 3.86572 1.56901 0
M  V30 2074 H 196.218 2.73397 1.71621 0
M  V30 2075 H 195.27 3.77506 -0.46836 0
M  V30 2076 H 196.582 4.97227 -0.395812 0
M  V30 2077 H 195.736 5.7896 1.81356 0
M  V30 2078 H 194.475 4.52444 1.82058 0
M  V30 2079 H 193.48 5.49128 -0.27169 0
M  V30 2080 H 194.705 6.78598 -0.260957 0
M  V30 2081 H 192.651 6.27171 1.92334 0
M  V30 2082 H 192.568 7.52478 0.728887 0
M  V30 2083 H 193.836 7.55543 1.91766 0
M  V30 2084 N 198.065 0.39524 1.52563 0
M  V30 2085 C 199.028 -0.425001 2.25225 0
M  V30 2086 C 200.028 -0.985266 1.27079 0
M  V30 2087 O 201.218 -0.866332 1.5113 0
M  V30 2088 C 198.35 -1.59686 3.01186 0
M  V30 2089 H 199.543 0.211233 2.99155 0
M  V30 2090 H 197.096 0.147472 1.55603 0
M  V30 2091 H 197.831 -2.27035 2.31572 0
M  V30 2092 H 197.616 -1.20176 3.73229 0
M  V30 2093 H 199.106 -2.17743 3.5634 0
M  V30 2094 N 199.544 -1.57102 0.125237 0
M  V30 2095 C 200.821 -1.86953 -0.575142 0
M  V30 2096 C 201.201 -1.02749 -1.84407 0
M  V30 2097 O 200.549 -0.108144 -2.28244 0
M  V30 2098 C 200.759 -3.38198 -0.861583 0
M  V30 2099 C 202.107 -4.06937 -1.21192 0
M  V30 2100 O 203.131 -3.43252 -0.951645 0
M  V30 2101 O 201.99 -5.19364 -1.70068 0
M  V30 2102 H 199.084 -0.774147 -0.290906 0
M  V30 2103 H 201.63 -1.68942 0.160211 0
M  V30 2104 H 200.402 -3.91282 0.0373647 0
M  V30 2105 H 200.025 -3.61661 -1.65188 0
M  V30 2106 N 201.022 0.148545 -1.56898 0
M  V30 2107 C 201.952 1.18524 -2.01182 0
M  V30 2108 C 202.933 1.4489 -0.891123 0
M  V30 2109 O 204.118 1.55836 -1.15882 0
M  V30 2110 C 201.248 2.51879 -2.39112 0
M  V30 2111 C 200.202 2.40038 -3.54353 0
M  V30 2112 C 199.528 3.78089 -3.78091 0
M  V30 2113 C 200.828 1.88577 -4.87069 0
M  V30 2114 H 202.522 0.817029 -2.88036 0
M  V30 2115 H 200.068 0.391575 -1.38574 0
M  V30 2116 H 202.021 3.24627 -2.68692 0
M  V30 2117 H 200.745 2.90532 -1.49193 0
M  V30 2118 H 199.404 1.69742 -3.24936 0
M  V30 2119 H 199.052 4.14175 -2.85426 0
M  V30 2120 H 198.752 3.71028 -4.55645 0
M  V30 2121 H 200.276 4.52387 -4.10095 0
M  V30 2122 H 201.69 2.51117 -5.15377 0
M  V30 2123 H 200.087 1.9241 -5.68417 0
M  V30 2124 H 201.157 0.84136 -4.77545 0
M  V30 2125 N 202.5 1.5196 0.417844 0
M  V30 2126 C 203.463 1.74065 1.49111 0
M  V30 2127 C 204.463 0.610537 1.48758 0
M  V30 2128 O 205.653 0.87832 1.50437 0
M  V30 2129 C 202.785 1.81502 2.88565 0
M  V30 2130 H 203.978 2.69869 1.30807 0
M  V30 2131 H 201.531 1.42244 0.647785 0
M  V30 2132 H 202.266 0.875813 3.1225 0
M  V30 2133 H 202.051 2.63651 2.90225 0
M  V30 2134 H 203.541 2.00376 3.66387 0
M  V30 2135 N 203.978 -0.674533 1.42435 0
M  V30 2136 C 204.926 -1.80934 1.46169 0
M  V30 2137 C 205.92 -1.66006 0.3374 0
M  V30 2138 O 207.126 -1.72611 0.510425 0
M  V30 2139 H 203.501 -0.596594 0.457798 0
M  V30 2140 H 205.472 -1.74903 2.41767 0
M  V30 2141 C 204.221 -3.19088 1.38123 0
M  V30 2142 H 203.544 -3.31203 2.23931 0
M  V30 2143 H 204.984 -3.9851 1.44797 0
M  V30 2144 C 203.443 -3.36763 0.0960517 0
M  V30 2145 O 203.973 -3.92581 -0.851073 0
M  V30 2146 N 202.179 -2.90597 0.0131186 0
M  V30 2147 H 201.726 -2.45359 0.784639 0
M  V30 2148 H 201.684 -3.028 -0.846133 0
M  V30 2149 N 205.456 -1.28612 -0.910864 0
M  V30 2150 C 206.403 -1.12786 -2.01365 0
M  V30 2151 C 207.373 -0.024201 -1.66082 0
M  V30 2152 O 208.558 -0.189667 -1.89855 0
M  V30 2153 C 205.698 -0.798743 -3.35729 0
M  V30 2154 C 204.811 -1.98173 -3.83864 0
M  V30 2155 C 203.946 -1.59298 -5.06752 0
M  V30 2156 C 202.985 -2.74245 -5.47226 0
M  V30 2157 N 202.122 -2.35842 -6.61304 0
M  V30 2158 H 206.962 -2.07142 -2.14234 0
M  V30 2159 H 204.499 -1.03093 -1.0493 0
M  V30 2160 H 206.457 -0.588662 -4.13026 0
M  V30 2161 H 205.087 0.10789 -3.2262 0
M  V30 2162 H 204.139 -2.30386 -3.02699 0
M  V30 2163 H 205.451 -2.84343 -4.09818 0
M  V30 2164 H 204.605 -1.34513 -5.916 0
M  V30 2165 H 203.344 -0.702618 -4.82612 0
M  V30 2166 H 202.349 -2.99725 -4.60918 0
M  V30 2167 H 203.574 -3.63928 -5.73353 0
M  V30 2168 H 201.52 -1.49279 -6.38789 0
M  V30 2169 H 201.437 -3.15546 -6.86998 0
M  V30 2170 H 202.705 -2.14348 -7.4945 0
M  V30 2171 N 206.934 1.1197 -1.10907 0
M  V30 2172 C 208.35 1.35591 -0.841852 0
M  V30 2173 C 208.55 1.94233 0.536246 0
M  V30 2174 O 207.606 2.1717 1.28816 0
M  V30 2175 C 208.919 2.29284 -1.94549 0
M  V30 2176 C 210.467 2.42862 -1.97451 0
M  V30 2177 C 210.942 3.39873 -3.07002 0
M  V30 2178 N 212.433 3.47433 -3.06341 0
M  V30 2179 C 213.168 4.22421 -3.87748 0
M  V30 2180 N 212.664 5.00432 -4.79103 0
M  V30 2181 N 214.457 4.17876 -3.75946 0
M  V30 2182 H 206.608 0.722664 -1.99728 0
M  V30 2183 H 208.871 0.380635 -0.868229 0
M  V30 2184 H 208.577 1.93378 -2.93765 0
M  V30 2185 H 208.451 3.29452 -1.83688 0
M  V30 2186 H 210.838 2.78046 -0.988645 0
M  V30 2187 H 210.919 1.42566 -2.12388 0
M  V30 2188 H 210.563 3.05417 -4.05811 0
M  V30 2189 H 210.493 4.40011 -2.89306 0
M  V30 2190 H 212.984 2.91784 -2.40147 0
M  V30 2191 H 213.297 5.55002 -5.37766 0
M  V30 2192 H 211.642 4.99612 -4.83128 0
M  V30 2193 H 214.833 3.56016 -3.03924 0
M  V30 2194 H 215.006 4.76061 -4.39624 0
M  V30 2195 N 208.412 0.89855 1.29475 0
M  V30 2196 C 209.375 0.380272 2.26023 0
M  V30 2197 C 210.375 -0.484891 1.53315 0
M  V30 2198 O 211.565 -0.290108 1.71767 0
M  V30 2199 C 208.697 -0.45651 3.3783 0
M  V30 2200 H 209.89 1.23295 2.73383 0
M  V30 2201 H 207.443 0.676589 1.40897 0
M  V30 2202 H 208.178 -1.32922 2.95808 0
M  V30 2203 H 207.963 0.163393 3.91759 0
M  V30 2204 H 209.453 -0.810466 4.0966 0
M  V30 2205 N 209.89 -1.43072 0.660911 0
M  V30 2206 C 211.136 -2.0202 0.177708 0
M  V30 2207 C 211.469 -1.52066 -1.20787 0
M  V30 2208 O 210.744 -0.716987 -1.80802 0
M  V30 2209 C 211.027 -3.59561 0.197019 0
M  V30 2210 C 210.88 -4.19727 1.61706 0
M  V30 2211 C 212.199 -4.37664 -0.462396 0
M  V30 2212 H 209.318 -0.734034 0.0660494 0
M  V30 2213 H 211.96 -1.70272 0.843058 0
M  V30 2214 H 210.11 -3.86739 -0.369527 0
M  V30 2215 H 211.782 -4.03553 2.23479 0
M  V30 2216 H 210.025 -3.76084 2.16201 0
M  V30 2217 H 210.696 -5.28834 1.58237 0
M  V30 2218 H 213.172 -4.16095 0.0197215 0
M  V30 2219 H 212.048 -5.47305 -0.418188 0
M  V30 2220 H 212.309 -4.14493 -1.53778 0
M  V30 2221 N 211.368 -0.403325 -1.52352 0
M  V30 2222 C 212.645 0.232611 -1.94212 0
M  V30 2223 C 213.025 1.63133 -1.33981 0
M  V30 2224 O 212.373 2.22659 -0.513344 0
M  V30 2225 C 212.583 0.244811 -3.4814 0
M  V30 2226 C 213.931 0.46698 -4.22024 0
M  V30 2227 O 214.955 0.324419 -3.5472 0
M  V30 2228 O 213.814 0.74747 -5.41364 0
M  V30 2229 H 210.908 0.148223 -0.813609 0
M  V30 2230 H 213.454 -0.458848 -1.63379 0
M  V30 2231 H 212.226 -0.734378 -3.84347 0
M  V30 2232 H 211.849 0.980611 -3.85318 0
M  V30 2233 N 212.846 1.57033 -0.133567 0
M  V30 2234 C 214.093 1.95686 0.520877 0
M  V30 2235 C 214.421 1.0177 1.6575 0
M  V30 2236 O 213.676 0.0443195 1.9565 0
M  V30 2237 C 213.975 3.40674 1.08057 0
M  V30 2238 C 213.641 4.50855 0.0637899 0
M  V30 2239 C 212.303 4.80716 -0.215757 0
M  V30 2240 C 214.655 5.17398 -0.62835 0
M  V30 2241 C 211.983 5.74433 -1.19348 0
M  V30 2242 C 214.335 6.12167 -1.5948 0
M  V30 2243 C 212.999 6.40414 -1.88218 0
M  V30 2244 H 212.269 0.716067 0.190602 0
M  V30 2245 H 214.916 1.9026 -0.217556 0
M  V30 2246 H 213.221 3.42865 1.89606 0
M  V30 2247 H 214.918 3.67902 1.59529 0
M  V30 2248 H 211.508 4.27605 0.291855 0
M  V30 2249 H 215.692 4.94472 -0.425562 0
M  V30 2250 H 210.948 5.94616 -1.42272 0
M  V30 2251 H 215.122 6.6281 -2.13671 0
M  V30 2252 H 212.749 7.12838 -2.64133 0
M  V30 2253 N 214.325 -0.140222 1.56975 0
M  V30 2254 C 215.257 -1.19818 1.95388 0
M  V30 2255 C 216.27 -1.38816 0.850525 0
M  V30 2256 O 217.459 -1.38267 1.12891 0
M  V30 2257 C 214.559 -2.56189 2.21857 0
M  V30 2258 C 213.732 -2.58077 3.5315 0
M  V30 2259 C 212.791 -3.76037 3.6808 0
M  V30 2260 O 211.817 -3.60598 4.40406 0
M  V30 2261 N 213.019 -4.93763 3.05251 0
M  V30 2262 H 215.784 -0.871609 2.86746 0
M  V30 2263 H 213.345 -0.32972 1.58507 0
M  V30 2264 H 215.337 -3.33623 2.2908 0
M  V30 2265 H 213.907 -2.81111 1.36731 0
M  V30 2266 H 213.127 -1.6651 3.57307 0
M  V30 2267 H 214.415 -2.56377 4.39486 0
M  V30 2268 H 213.813 -5.09209 2.46419 0
M  V30 2269 H 212.37 -5.68949 3.18026 0
M  V30 2270 N 215.803 -1.52179 -0.40978 0
M  V30 2271 C 216.713 -1.78364 -1.52392 0
M  V30 2272 C 217.729 -0.669183 -1.60617 0
M  V30 2273 O 218.905 -0.954518 -1.77344 0
M  V30 2274 C 215.97 -1.92822 -2.88133 0
M  V30 2275 C 215.031 -3.16725 -2.898 0
M  V30 2276 C 214.264 -3.30483 -4.19067 0
M  V30 2277 O 214.487 -2.49522 -5.12928 0
M  V30 2278 O 213.421 -4.2363 -4.27576 0
M  V30 2279 H 217.247 -2.72931 -1.33201 0
M  V30 2280 H 214.832 -1.37016 -0.59557 0
M  V30 2281 H 216.714 -2.04157 -3.68643 0
M  V30 2282 H 215.389 -1.01444 -3.07393 0
M  V30 2283 H 214.296 -3.10848 -2.08146 0
M  V30 2284 H 215.629 -4.07881 -2.75489 0
M  V30 2285 N 217.281 0.66697 -1.42791 0
M  V30 2286 C 218.244 1.76211 -1.46568 0
M  V30 2287 C 219.244 1.56896 -0.352196 0
M  V30 2288 O 220.434 1.63044 -0.613364 0
M  V30 2289 C 217.566 3.14935 -1.30494 0
M  V30 2290 H 218.759 1.74247 -2.44086 0
M  V30 2291 H 216.312 0.877342 -1.29354 0
M  V30 2292 H 217.047 3.2252 -0.339301 0
M  V30 2293 H 216.832 3.30359 -2.11199 0
M  V30 2294 H 218.322 3.94821 -1.36038 0
M  V30 2295 N 218.759 1.29093 0.90403 0
M  V30 2296 C 219.691 1.09658 2.01266 0
M  V30 2297 C 220.704 0.0453729 1.62737 0
M  V30 2298 O 221.893 0.289446 1.76138 0
M  V30 2299 C 218.993 0.646278 3.32681 0
M  V30 2300 C 218.166 1.77505 3.99763 0
M  V30 2301 C 217.225 1.31649 5.09465 0
M  V30 2302 O 216.251 2.02045 5.32134 0
M  V30 2303 N 217.453 0.184997 5.80205 0
M  V30 2304 H 220.218 2.05135 2.18494 0
M  V30 2305 H 217.779 1.20975 1.07594 0
M  V30 2306 H 219.771 0.322906 4.0341 0
M  V30 2307 H 218.341 -0.215916 3.11853 0
M  V30 2308 H 217.561 2.26752 3.22455 0
M  V30 2309 H 218.849 2.53198 4.41325 0
M  V30 2310 H 218.247 -0.402021 5.6427 0
M  V30 2311 H 216.804 -0.0790358 6.51752 0
M  V30 2312 N 220.237 -1.11381 1.11499 0
M  V30 2313 C 221.462 -1.87475 0.887019 0
M  V30 2314 C 221.887 -1.79639 -0.557796 0
M  V30 2315 O 221.245 -1.15924 -1.39396 0
M  V30 2316 C 221.293 -3.34213 1.35403 0
M  V30 2317 O 220.397 -4.0903 0.526146 0
M  V30 2318 H 219.738 -0.582099 0.319463 0
M  V30 2319 H 222.268 -1.40785 1.48461 0
M  V30 2320 H 222.278 -3.8506 1.34881 0
M  V30 2321 H 220.953 -3.39232 2.40612 0
M  V30 2322 H 219.53 -3.68082 0.597522 0
M  V30 2323 N 221.715 -0.905404 -1.28997 0
M  V30 2324 C 222.945 -0.549049 -1.99171 0
M  V30 2325 C 223.353 0.87203 -1.67906 0
M  V30 2326 O 222.696 1.58796 -0.923561 0
M  V30 2327 C 222.758 -0.668306 -3.53234 0
M  V30 2328 C 222.422 -2.0574 -4.08069 0
M  V30 2329 C 223.419 -3.0292 -4.22534 0
M  V30 2330 C 221.104 -2.36833 -4.42962 0
M  V30 2331 C 223.098 -4.29314 -4.71135 0
M  V30 2332 C 220.785 -3.63467 -4.91258 0
M  V30 2333 C 221.783 -4.59522 -5.053 0
M  V30 2334 O 221.471 -5.83907 -5.52546 0
M  V30 2335 H 221.203 -0.208784 -0.64295 0
M  V30 2336 H 223.757 -1.21836 -1.65363 0
M  V30 2337 H 221.987 0.0580547 -3.86656 0
M  V30 2338 H 223.676 -0.320273 -4.04634 0
M  V30 2339 H 224.442 -2.80216 -3.95859 0
M  V30 2340 H 220.321 -1.62824 -4.31288 0
M  V30 2341 H 223.865 -5.04293 -4.8201 0
M  V30 2342 H 219.762 -3.86 -5.17372 0
M  V30 2343 H 220.53 -5.86578 -5.70849 0
M  V30 2344 N 223.193 1.4272 -0.668489 0
M  V30 2345 C 224.156 2.292 0.00448567 0
M  V30 2346 C 225.156 1.43001 0.735339 0
M  V30 2347 O 226.346 1.64461 0.57429 0
M  V30 2348 C 223.478 3.25375 1.01705 0
M  V30 2349 H 224.671 2.90199 -0.756608 0
M  V30 2350 H 222.224 1.50254 -0.430506 0
M  V30 2351 H 222.959 2.69301 1.80686 0
M  V30 2352 H 222.744 3.88944 0.496463 0
M  V30 2353 H 224.234 3.90245 1.48655 0
M  V30 2354 N 224.671 0.411399 1.52136 0
M  V30 2355 C 225.948 -0.222308 1.94333 0
M  V30 2356 C 226.328 -1.6242 1.34844 0
M  V30 2357 O 225.676 -2.22384 0.525145 0
M  V30 2358 C 225.886 -0.226345 3.48265 0
M  V30 2359 C 227.234 -0.444592 4.22266 0
M  V30 2360 O 228.258 -0.305602 3.54887 0
M  V30 2361 O 227.117 -0.718749 5.41753 0
M  V30 2362 H 224.211 -0.143907 0.814383 0
M  V30 2363 H 226.757 0.467506 1.63133 0
M  V30 2364 H 225.529 0.75475 3.83952 0
M  V30 2365 H 225.152 -0.960163 3.85832 0
M  V30 2366 N 226.149 -1.5696 0.141893 0
M  V30 2367 C 227.426 -1.87553 -0.555281 0
M  V30 2368 C 227.806 -1.04699 -1.83306 0
M  V30 2369 O 227.154 -0.132346 -2.28116 0
M  V30 2370 C 227.364 -3.39093 -0.825664 0
M  V30 2371 C 228.712 -4.08199 -1.16869 0
M  V30 2372 O 229.736 -3.44242 -0.915185 0
M  V30 2373 O 228.595 -5.21139 -1.6455 0
M  V30 2374 H 225.689 -0.777188 -0.282679 0
M  V30 2375 H 228.235 -1.68763 0.17812 0
M  V30 2376 H 227.007 -3.91221 0.0788633 0
M  V30 2377 H 226.63 -3.63393 -1.61343 0
M  V30 2378 N 227.627 0.131896 -1.57047 0
M  V30 2379 C 228.575 1.18146 -2.0036 0
M  V30 2380 C 229.569 1.43614 -0.898406 0
M  V30 2381 O 230.775 1.43729 -1.08361 0
M  V30 2382 H 227.15 0.398042 -0.638018 0
M  V30 2383 H 229.121 0.789564 -2.87765 0
M  V30 2384 C 227.87 2.50341 -2.41298 0
M  V30 2385 H 227.193 2.31578 -3.25902 0
M  V30 2386 H 228.633 3.22371 -2.75414 0
M  V30 2387 C 227.092 3.11984 -1.27153 0
M  V30 2388 O 227.622 3.97484 -0.580459 0
M  V30 2389 N 225.828 2.71662 -1.03189 0
M  V30 2390 H 225.375 2.02231 -1.59564 0
M  V30 2391 H 225.333 3.13238 -0.270077 0
M  V30 2392 N 229.106 1.52395 0.401703 0
M  V30 2393 C 230.331 1.70972 1.17403 0
M  V30 2394 C 230.756 0.421615 1.83314 0
M  V30 2395 O 230.114 -0.621564 1.70312 0
M  V30 2396 C 230.162 2.85151 2.20728 0
M  V30 2397 O 229.266 2.51238 3.27037 0
M  V30 2398 H 228.607 0.568927 0.342372 0
M  V30 2399 H 231.137 1.99131 0.469891 0
M  V30 2400 H 231.147 3.10279 2.64936 0
M  V30 2401 H 229.822 3.78603 1.7214 0
M  V30 2402 H 228.399 2.36808 2.88057 0
M  V30 2403 N 230.584 -0.659388 1.43143 0
M  V30 2404 C 231.514 -1.78422 1.50625 0
M  V30 2405 C 232.495 -1.66216 0.361443 0
M  V30 2406 O 233.68 -1.85404 0.577834 0
M  V30 2407 C 230.81 -3.16815 1.42287 0
M  V30 2408 C 229.764 -3.43777 2.54954 0
M  V30 2409 C 229.09 -4.81905 2.31671 0
M  V30 2410 C 230.39 -3.39134 3.97222 0
M  V30 2411 H 232.084 -1.72417 2.44771 0
M  V30 2412 H 229.63 -0.828084 1.17808 0
M  V30 2413 H 231.583 -3.95253 1.46127 0
M  V30 2414 H 230.307 -3.23534 0.446435 0
M  V30 2415 H 228.966 -2.67707 2.50457 0
M  V30 2416 H 228.614 -4.85294 1.32284 0
M  V30 2417 H 228.314 -5.00906 3.07192 0
M  V30 2418 H 229.838 -5.62609 2.37284 0
M  V30 2419 H 231.252 -4.07518 4.03239 0
M  V30 2420 H 229.649 -3.69671 4.72719 0
M  V30 2421 H 230.719 -2.37426 4.22797 0
M  V30 2422 N 232.062 -1.29571 -0.897171 0
M  V30 2423 C 232.992 -1.17473 -2.01798 0
M  V30 2424 C 233.973 -0.068323 -1.69963 0
M  V30 2425 O 235.158 -0.248239 -1.92607 0
M  V30 2426 C 232.288 -0.853099 -3.36659 0
M  V30 2427 C 231.242 -1.9161 -3.82713 0
M  V30 2428 C 230.568 -1.44773 -5.14728 0
M  V30 2429 C 231.868 -3.32535 -4.02763 0
M  V30 2430 H 233.562 -2.11237 -2.12177 0
M  V30 2431 H 231.108 -1.01699 -1.01948 0
M  V30 2432 H 233.061 -0.755165 -4.14578 0
M  V30 2433 H 231.785 0.120236 -3.26379 0
M  V30 2434 H 230.444 -2.00346 -3.07013 0
M  V30 2435 H 230.092 -0.462995 -5.00865 0
M  V30 2436 H 229.792 -2.15865 -5.46513 0
M  V30 2437 H 231.316 -1.36334 -5.95185 0
M  V30 2438 H 232.73 -3.26626 -4.71156 0
M  V30 2439 H 231.127 -4.01607 -4.45905 0
M  V30 2440 H 232.197 -3.75326 -3.07016 0
M  V30 2441 N 233.54 1.10788 -1.12088 0
M  V30 2442 C 234.787 1.82671 -0.873931 0
M  V30 2443 C 235.115 1.85004 0.600311 0
M  V30 2444 O 234.37 1.30365 1.45957 0
M  V30 2445 C 234.669 3.29294 -1.38926 0
M  V30 2446 C 234.335 3.47113 -2.87791 0
M  V30 2447 C 232.997 3.51684 -3.28439 0
M  V30 2448 C 235.349 3.52808 -3.83635 0
M  V30 2449 C 232.677 3.59513 -4.63646 0
M  V30 2450 C 235.029 3.62169 -5.18668 0
M  V30 2451 C 233.693 3.65003 -5.58864 0
M  V30 2452 H 232.963 0.668441 -0.319794 0
M  V30 2453 H 235.61 1.30613 -1.40045 0
M  V30 2454 H 233.915 3.83894 -0.783122 0
M  V30 2455 H 235.612 3.83416 -1.17443 0
M  V30 2456 H 232.202 3.4423 -2.5535 0
M  V30 2457 H 236.386 3.4853 -3.53328 0
M  V30 2458 H 231.642 3.59987 -4.94185 0
M  V30 2459 H 235.816 3.6552 -5.92763 0
M  V30 2460 H 233.443 3.70822 -6.63623 0
M  V30 2461 N 235.018 0.912232 1.28515 0
M  V30 2462 C 235.951 0.343928 2.25593 0
M  V30 2463 C 236.929 -0.550994 1.5298 0
M  V30 2464 O 238.113 -0.494991 1.81885 0
M  V30 2465 C 235.24 -0.508525 3.34861 0
M  V30 2466 C 234.286 0.320808 4.25292 0
M  V30 2467 S 235.119 1.72658 5.06902 0
M  V30 2468 C 236.275 0.881394 6.19663 0
M  V30 2469 H 236.508 1.16674 2.73449 0
M  V30 2470 H 234.041 0.713384 1.36931 0
M  V30 2471 H 235.999 -0.994539 3.9827 0
M  V30 2472 H 234.66 -1.30571 2.85675 0
M  V30 2473 H 233.853 -0.330941 5.02912 0
M  V30 2474 H 233.455 0.74042 3.66598 0
M  V30 2475 H 235.747 0.110359 6.7741 0
M  V30 2476 H 236.69 1.63009 6.89082 0
M  V30 2477 H 237.098 0.430239 5.62858 0
M  V30 2478 N 236.496 -1.42363 0.676048 0
M  V30 2479 C 237.406 -2.346 -0.00153389 0
M  V30 2480 C 238.422 -1.5516 -0.787485 0
M  V30 2481 O 239.598 -1.87723 -0.729521 0
M  V30 2482 C 236.663 -3.33705 -0.940298 0
M  V30 2483 C 235.724 -4.29042 -0.148739 0
M  V30 2484 C 234.957 -5.23413 -1.04279 0
M  V30 2485 O 235.18 -5.22749 -2.28232 0
M  V30 2486 O 234.114 -5.99795 -0.502925 0
M  V30 2487 H 237.94 -2.94082 0.758268 0
M  V30 2488 H 235.525 -1.42888 0.436289 0
M  V30 2489 H 237.407 -3.94586 -1.47917 0
M  V30 2490 H 236.082 -2.76695 -1.67993 0
M  V30 2491 H 234.989 -3.71571 0.43427 0
M  V30 2492 H 236.322 -4.89097 0.551805 0
M  V30 2493 N 237.974 -0.419461 -1.51915 0
M  V30 2494 C 239.202 0.152136 -2.0634 0
M  V30 2495 C 239.617 1.37988 -1.28859 0
M  V30 2496 O 238.974 1.79243 -0.343232 0
M  V30 2497 C 239.025 0.492266 -3.58133 0
M  V30 2498 O 238.746 -0.686736 -4.32684 0
M  V30 2499 C 240.247 1.11648 -4.2901 0
M  V30 2500 H 237.467 0.0158325 -0.670813 0
M  V30 2501 H 240.011 -0.593394 -1.95702 0
M  V30 2502 H 238.166 1.18769 -3.68745 0
M  V30 2503 H 238.58 -0.400341 -5.2297 0
M  V30 2504 H 240.054 1.3046 -5.36362 0
M  V30 2505 H 240.531 2.09251 -3.86148 0
M  V30 2506 H 241.137 0.460958 -4.22795 0
M  V30 2507 N 239.452 1.56882 -0.150215 0
M  V30 2508 C 240.677 2.01027 0.510184 0
M  V30 2509 C 241.102 1.02966 1.57415 0
M  V30 2510 O 240.46 0.00590158 1.81299 0
M  V30 2511 C 240.508 3.43899 1.08472 0
M  V30 2512 O 239.612 3.4885 2.19948 0
M  V30 2513 H 238.953 0.652233 0.124451 0
M  V30 2514 H 241.483 2.03093 -0.247894 0
M  V30 2515 H 241.493 3.82766 1.41259 0
M  V30 2516 H 240.168 4.14776 0.305582 0
M  V30 2517 H 238.745 3.21827 1.88366 0
M  V30 2518 N 240.93 -0.123565 1.57115 0
M  V30 2519 C 241.893 -1.13583 1.99076 0
M  V30 2520 C 242.893 -1.34564 0.880296 0
M  V30 2521 O 244.083 -1.31158 1.14644 0
M  V30 2522 C 241.215 -2.49128 2.32698 0
M  V30 2523 H 242.408 -0.775287 2.89706 0
M  V30 2524 H 239.961 -0.36771 1.51913 0
M  V30 2525 H 240.696 -2.90111 1.44934 0
M  V30 2526 H 240.481 -2.35255 3.13684 0
M  V30 2527 H 241.971 -3.2199 2.65918 0
M  V30 2528 N 242.408 -1.52605 -0.393616 0
M  V30 2529 C 243.355 -1.77055 -1.48054 0
M  V30 2530 C 244.325 -0.61358 -1.54352 0
M  V30 2531 O 245.51 -0.852806 -1.70681 0
M  V30 2532 C 242.65 -1.94108 -2.85335 0
M  V30 2533 C 241.763 -3.21792 -2.88226 0
M  V30 2534 C 240.898 -3.29188 -4.16904 0
M  V30 2535 C 239.937 -4.51013 -4.13828 0
M  V30 2536 N 239.074 -4.55716 -5.34105 0
M  V30 2537 H 243.914 -2.69815 -1.26506 0
M  V30 2538 H 241.451 -1.33683 -0.61379 0
M  V30 2539 H 243.409 -2.01979 -3.65049 0
M  V30 2540 H 242.039 -1.04713 -3.05344 0
M  V30 2541 H 241.091 -3.23015 -2.00911 0
M  V30 2542 H 242.403 -4.11557 -2.8182 0
M  V30 2543 H 241.557 -3.36216 -5.05018 0
M  V30 2544 H 240.296 -2.37389 -4.26026 0
M  V30 2545 H 239.301 -4.44115 -3.24102 0
M  V30 2546 H 240.526 -5.44123 -4.06333 0
M  V30 2547 H 238.472 -3.66807 -5.43865 0
M  V30 2548 H 238.389 -5.39346 -5.29756 0
M  V30 2549 H 239.657 -4.66993 -6.2413 0
M  V30 2550 N 243.887 0.651787 -1.4349 0
M  V30 2551 C 245.115 1.43937 -1.48626 0
M  V30 2552 C 245.53 1.8851 -0.104587 0
M  V30 2553 O 244.887 1.5958 0.885464 0
M  V30 2554 C 244.938 2.6734 -2.43334 0
M  V30 2555 O 244.659 2.24631 -3.76128 0
M  V30 2556 C 246.16 3.60683 -2.57726 0
M  V30 2557 H 243.38 0.44213 -0.504739 0
M  V30 2558 H 245.924 0.798944 -1.88248 0
M  V30 2559 H 244.079 3.2752 -2.06904 0
M  V30 2560 H 244.493 3.04485 -4.2707 0
M  V30 2561 H 245.967 4.43933 -3.28067 0
M  V30 2562 H 246.444 4.08126 -1.62265 0
M  V30 2563 H 247.05 3.06384 -2.94973 0
M  V30 2564 N 245.365 1.30045 0.890287 0
M  V30 2565 C 246.59 1.21598 1.68014 0
M  V30 2566 C 247.015 -0.218678 1.86825 0
M  V30 2567 O 246.373 -1.15756 1.39536 0
M  V30 2568 C 246.421 1.94434 3.03691 0
M  V30 2569 O 245.525 1.2678 3.92429 0
M  V30 2570 H 244.866 0.420856 0.513592 0
M  V30 2571 H 247.396 1.71775 1.11151 0
M  V30 2572 H 247.406 2.03251 3.5377 0
M  V30 2573 H 246.081 2.98777 2.89318 0
M  V30 2574 H 244.658 1.26282 3.50866 0
M  V30 2575 N 246.843 -1.10192 1.12674 0
M  V30 2576 C 247.776 -2.15847 0.740625 0
M  V30 2577 C 248.754 -1.60352 -0.269421 0
M  V30 2578 O 249.938 -1.87796 -0.16278 0
M  V30 2579 C 247.065 -3.38562 0.096641 0
M  V30 2580 C 246.111 -4.12758 1.07391 0
M  V30 2581 S 246.944 -4.67997 2.60267 0
M  V30 2582 C 248.1 -5.94021 1.97206 0
M  V30 2583 H 248.333 -2.48266 1.63558 0
M  V30 2584 H 245.866 -1.22019 0.946087 0
M  V30 2585 H 247.824 -4.09621 -0.268535 0
M  V30 2586 H 246.485 -3.04377 -0.775462 0
M  V30 2587 H 245.678 -5.00755 0.570997 0
M  V30 2588 H 245.28 -3.47523 1.38216 0
M  V30 2589 H 247.572 -6.64589 1.31634 0
M  V30 2590 H 248.515 -6.48979 2.83253 0
M  V30 2591 H 248.923 -5.46169 1.42686 0
M  V30 2592 N 248.321 -0.919034 -1.28029 0
M  V30 2593 C 249.269 -0.401753 -2.29104 0
M  V30 2594 C 250.263 0.509354 -1.61561 0
M  V30 2595 O 251.469 0.390014 -1.75724 0
M  V30 2596 H 247.844 -0.111331 -0.743713 0
M  V30 2597 H 249.815 -1.2672 -2.70156 0
M  V30 2598 C 248.564 0.338148 -3.46052 0
M  V30 2599 H 247.887 -0.353732 -3.98232 0
M  V30 2600 H 249.327 0.664653 -4.18758 0
M  V30 2601 C 247.786 1.54798 -2.99231 0
M  V30 2602 O 248.316 2.64696 -3.02157 0
M  V30 2603 N 246.522 1.3968 -2.54829 0
M  V30 2604 H 246.069 0.502698 -2.52647 0
M  V30 2605 H 246.027 2.20755 -2.23863 0
M  V30 2606 N 249.799 1.42003 -0.683588 0
M  V30 2607 C 251.045 2.01712 -0.209825 0
M  V30 2608 C 251.378 1.53968 1.18353 0
M  V30 2609 O 250.653 0.745661 1.79639 0
M  V30 2610 C 250.936 3.59202 -0.254197 0
M  V30 2611 C 250.789 4.17102 -1.68363 0
M  V30 2612 C 252.108 4.38344 0.392709 0
M  V30 2613 H 249.227 0.732891 -0.0777189 0
M  V30 2614 H 251.869 1.68909 -0.87004 0
M  V30 2615 H 250.019 3.87278 0.307954 0
M  V30 2616 H 251.691 3.99946 -2.29871 0
M  V30 2617 H 249.934 3.72597 -2.22157 0
M  V30 2618 H 250.605 5.26249 -1.6663 0
M  V30 2619 H 253.081 4.16011 -0.0859162 0
M  V30 2620 H 251.957 5.47901 0.331063 0
M  V30 2621 H 252.218 4.16887 1.47164 0
M  V30 2622 N 251.277 0.427512 1.51691 0
M  V30 2623 C 252.225 -0.403359 2.29076 0
M  V30 2624 C 253.219 -1.02962 1.34518 0
M  V30 2625 O 254.425 -0.965715 1.51901 0
M  V30 2626 H 250.8 -0.148879 0.737115 0
M  V30 2627 H 252.771 0.270295 2.97173 0
M  V30 2628 C 251.52 -1.49763 3.13794 0
M  V30 2629 H 250.843 -1.02508 3.86435 0
M  V30 2630 H 252.283 -2.05244 3.71014 0
M  V30 2631 C 250.742 -2.47536 2.28533 0
M  V30 2632 O 251.272 -3.51848 1.93819 0
M  V30 2633 N 249.478 -2.18187 1.91945 0
M  V30 2634 H 249.025 -1.33389 2.20375 0
M  V30 2635 H 248.983 -2.83848 1.35195 0
M  V30 2636 N 252.755 -1.56801 0.158532 0
M  V30 2637 C 253.665 -2.20916 -0.789518 0
M  V30 2638 C 254.681 -1.1969 -1.26294 0
M  V30 2639 O 255.857 -1.52308 -1.31773 0
M  V30 2640 C 252.922 -2.82727 -2.00665 0
M  V30 2641 C 251.983 -3.99114 -1.58134 0
M  V30 2642 C 251.216 -4.57968 -2.74045 0
M  V30 2643 O 251.439 -4.15704 -3.90572 0
M  V30 2644 O 250.373 -5.48047 -2.48855 0
M  V30 2645 H 254.199 -3.02464 -0.273681 0
M  V30 2646 H 251.784 -1.4924 -0.0690548 0
M  V30 2647 H 253.666 -3.21968 -2.71872 0
M  V30 2648 H 252.341 -2.04184 -2.51179 0
M  V30 2649 H 251.248 -3.64567 -0.839155 0
M  V30 2650 H 252.581 -4.79212 -1.12325 0
M  V30 2651 N 254.233 0.115231 -1.57178 0
M  V30 2652 C 255.482 0.820945 -1.84237 0
M  V30 2653 C 255.795 1.80866 -0.744761 0
M  V30 2654 O 257.001 2.56083 -0.901871 0
M  V30 2655 C 255.457 1.51072 -3.26658 0
M  V30 2656 C 255.065 0.563795 -4.44438 0
M  V30 2657 C 256.809 2.20134 -3.62962 0
M  V30 2658 C 254.716 1.25701 -5.77887 0
M  V30 2659 H 253.646 0.310328 -0.687177 0
M  V30 2660 H 256.297 0.0737134 -1.83352 0
M  V30 2661 H 254.679 2.30471 -3.22024 0
M  V30 2662 H 255.853 -0.197247 -4.60378 0
M  V30 2663 H 254.168 -0.0200638 -4.16395 0
M  V30 2664 H 256.765 2.72696 -4.59936 0
M  V30 2665 H 257.108 2.98107 -2.90582 0
M  V30 2666 H 257.641 1.47619 -3.69396 0
M  V30 2667 H 254.38 0.518493 -6.53446 0
M  V30 2668 H 253.9 1.98997 -5.65827 0
M  V30 2669 H 255.579 1.78915 -6.2177 0
M  V30 2670 N 255.711 1.52812 0.385517 0
M  V30 2671 C 256.958 1.68026 1.1302 0
M  V30 2672 C 257.286 0.421934 1.89868 0
M  V30 2673 O 256.541 -0.595749 1.86412 0
M  V30 2674 C 256.84 2.86856 2.13187 0
M  V30 2675 C 256.506 4.24159 1.5297 0
M  V30 2676 C 255.168 4.61501 1.36274 0
M  V30 2677 C 257.52 5.09627 1.09223 0
M  V30 2678 C 254.848 5.81966 0.743837 0
M  V30 2679 C 257.2 6.30719 0.487411 0
M  V30 2680 C 255.864 6.6679 0.307777 0
M  V30 2681 H 255.134 0.614849 0.413571 0
M  V30 2682 H 257.781 1.86962 0.414405 0
M  V30 2683 H 256.086 2.6235 2.90998 0
M  V30 2684 H 257.783 2.95821 2.70722 0
M  V30 2685 H 254.373 3.94746 1.66954 0
M  V30 2686 H 258.557 4.81343 1.20922 0
M  V30 2687 H 253.813 6.08519 0.592891 0
M  V30 2688 H 257.987 6.96259 0.140143 0
M  V30 2689 H 255.614 7.60001 -0.173879 0
M  V30 2690 N 257.189 -0.644168 1.43834 0
M  V30 2691 C 258.122 -1.76906 1.44151 0
M  V30 2692 C 259.1 -1.59774 0.301857 0
M  V30 2693 O 260.284 -1.81834 0.496841 0
M  V30 2694 C 257.411 -3.14321 1.26174 0
M  V30 2695 C 256.457 -3.50134 2.43533 0
M  V30 2696 S 257.29 -3.49085 4.06079 0
M  V30 2697 C 258.446 -4.89142 3.90501 0
M  V30 2698 H 258.679 -1.76368 2.39336 0
M  V30 2699 H 256.212 -0.817624 1.30974 0
M  V30 2700 H 258.17 -3.93625 1.16489 0
M  V30 2701 H 256.831 -3.12412 0.325224 0
M  V30 2702 H 256.024 -4.50095 2.26783 0
M  V30 2703 H 255.626 -2.78264 2.4989 0
M  V30 2704 H 257.918 -5.78036 3.53385 0
M  V30 2705 H 258.861 -5.10945 4.90246 0
M  V30 2706 H 259.269 -4.63102 3.22795 0
M  V30 2707 N 258.668 -1.30515 -0.883378 0
M  V30 2708 C 259.631 -1.1701 -1.97082 0
M  V30 2709 C 260.631 -0.10089 -1.60483 0
M  V30 2710 O 261.821 -0.349127 -1.70666 0
M  V30 2711 C 258.953 -0.793045 -3.31547 0
M  V30 2712 H 260.146 -2.13622 -2.10489 0
M  V30 2713 H 257.699 -1.13935 -1.06998 0
M  V30 2714 H 258.434 0.172499 -3.23841 0
M  V30 2715 H 258.219 -1.56576 -3.5948 0
M  V30 2716 H 259.709 -0.722073 -4.1131 0
M  V30 2717 N 260.146 1.09593 -1.13257 0
M  V30 2718 C 261.395 1.81105 -0.887917 0
M  V30 2719 C 261.708 1.86563 0.587672 0
M  V30 2720 O 262.914 2.54367 0.949204 0
M  V30 2721 C 261.37 3.25338 -1.53895 0
M  V30 2722 C 260.978 3.28151 -3.04994 0
M  V30 2723 C 262.722 4.01617 -1.37492 0
M  V30 2724 C 260.629 4.66897 -3.6299 0
M  V30 2725 H 259.559 0.678661 -0.328534 0
M  V30 2726 H 262.21 1.23183 -1.36008 0
M  V30 2727 H 260.592 3.8331 -0.994446 0
M  V30 2728 H 261.766 2.79953 -3.66009 0
M  V30 2729 H 260.081 2.65361 -3.20893 0
M  V30 2730 H 262.678 5.04119 -1.78235 0
M  V30 2731 H 263.021 4.15072 -0.31957 0
M  V30 2732 H 263.554 3.50082 -1.88912 0
M  V30 2733 H 260.293 4.58643 -4.68323 0
M  V30 2734 H 259.813 5.15426 -3.06752 0
M  V30 2735 H 261.492 5.3587 -3.62563 0
M  V30 2736 N 261.624 0.925811 1.2754 0
M  V30 2737 C 262.587 0.428129 2.25166 0
M  V30 2738 C 263.587 -0.452261 1.54309 0
M  V30 2739 O 264.777 -0.253608 1.72344 0
M  V30 2740 C 261.909 -0.384749 3.38722 0
M  V30 2741 H 263.102 1.29066 2.70706 0
M  V30 2742 H 260.655 0.706323 1.3943 0
M  V30 2743 H 261.39 -1.26618 2.98561 0
M  V30 2744 H 261.175 0.246454 3.91325 0
M  V30 2745 H 262.665 -0.723389 4.11287 0
M  V30 2746 N 263.102 -1.41638 0.69111 0
M  V30 2747 C 264.049 -2.30789 0.0229705 0
M  V30 2748 C 265.019 -1.46863 -0.775911 0
M  V30 2749 O 266.204 -1.75661 -0.74485 0
M  V30 2750 C 263.344 -3.32868 -0.910666 0
M  V30 2751 C 262.457 -4.31875 -0.103874 0
M  V30 2752 C 261.592 -5.21024 -1.03475 0
M  V30 2753 C 260.631 -6.11702 -0.220598 0
M  V30 2754 N 259.768 -6.93349 -1.10504 0
M  V30 2755 H 264.608 -2.87366 0.788978 0
M  V30 2756 H 262.145 -1.41535 0.400794 0
M  V30 2757 H 264.103 -3.90596 -1.46597 0
M  V30 2758 H 262.733 -2.77851 -1.64312 0
M  V30 2759 H 261.785 -3.76131 0.568285 0
M  V30 2760 H 263.097 -4.96003 0.527504 0
M  V30 2761 H 262.251 -5.83565 -1.65943 0
M  V30 2762 H 260.99 -4.57112 -1.69999 0
M  V30 2763 H 259.995 -5.48215 0.417187 0
M  V30 2764 H 261.22 -6.77668 0.440784 0
M  V30 2765 H 259.166 -6.3205 -1.75638 0
M  V30 2766 H 259.083 -7.54146 -0.529125 0
M  V30 2767 H 260.351 -7.60362 -1.71667 0
M  V30 2768 N 264.58 -0.43555 -1.51462 0
M  V30 2769 C 265.527 0.376797 -2.27703 0
M  V30 2770 C 266.497 1.01838 -1.31219 0
M  V30 2771 O 267.682 1.03762 -1.60119 0
M  V30 2772 C 264.822 1.47301 -3.12084 0
M  V30 2773 C 263.935 0.849744 -4.2356 0
M  V30 2774 C 263.07 1.92086 -4.95254 0
M  V30 2775 C 262.109 1.27593 -5.98654 0
M  V30 2776 N 261.246 2.28833 -6.63762 0
M  V30 2777 H 266.086 -0.279734 -2.96684 0
M  V30 2778 H 263.623 -0.149795 -1.46335 0
M  V30 2779 H 265.581 2.11984 -3.59331 0
M  V30 2780 H 264.211 2.0992 -2.45221 0
M  V30 2781 H 263.263 0.0912529 -3.80291 0
M  V30 2782 H 264.575 0.338878 -4.97648 0
M  V30 2783 H 263.729 2.64435 -5.46039 0
M  V30 2784 H 262.468 2.46545 -4.20793 0
M  V30 2785 H 261.473 0.537893 -5.47162 0
M  V30 2786 H 262.698 0.738693 -6.7507 0
M  V30 2787 H 260.644 2.82375 -5.92115 0
M  V30 2788 H 260.561 1.82632 -7.33608 0
M  V30 2789 H 261.829 3.00671 -7.19178 0
M  V30 2790 N 266.058 1.56714 -0.166846 0
M  V30 2791 C 266.988 2.20754 0.760913 0
M  V30 2792 C 267.969 1.16178 1.24244 0
M  V30 2793 O 269.154 1.44592 1.29641 0
M  V30 2794 C 266.284 2.84478 1.99223 0
M  V30 2795 C 265.238 3.95053 1.64672 0
M  V30 2796 C 264.564 4.45805 2.95232 0
M  V30 2797 C 265.864 5.14865 0.878155 0
M  V30 2798 H 267.558 2.98537 0.22713 0
M  V30 2799 H 265.104 1.43596 0.107805 0
M  V30 2800 H 267.057 3.27951 2.64624 0
M  V30 2801 H 265.781 2.04056 2.55007 0
M  V30 2802 H 264.44 3.52228 1.01641 0
M  V30 2803 H 264.088 3.62181 3.49047 0
M  V30 2804 H 263.788 5.204 2.7287 0
M  V30 2805 H 265.312 4.91962 3.6167 0
M  V30 2806 H 266.726 5.55059 1.43466 0
M  V30 2807 H 265.123 5.95348 0.753738 0
M  V30 2808 H 266.193 4.84735 -0.126377 0
M  V30 2809 N 267.536 -0.106894 1.57237 0
M  V30 2810 C 268.947 -0.662723 1.74542 0
M  V30 2811 C 269.298 -1.7971 0.787319 0
M  V30 2812 O 268.423 -2.16368 -0.0369636 0
M  V30 2813 C 269.018 -1.20896 3.16496 0
M  V30 2814 C 267.577 -1.71096 3.35266 0
M  V30 2815 C 266.724 -0.615642 2.7038 0
M  V30 2816 H 269.675 0.119106 1.58252 0
M  V30 2817 H 269.696 -2.07847 3.18716 0
M  V30 2818 H 269.208 -0.383122 3.86204 0
M  V30 2819 H 267.309 -2.56119 2.70618 0
M  V30 2820 H 267.422 -1.81208 4.43509 0
M  V30 2821 H 265.786 -1.05222 2.31949 0
M  V30 2822 H 266.569 0.199419 3.4272 0
M  V30 2823 N 269.014 -1.53014 -0.377408 0
M  V30 2824 C 269.961 -1.78616 -1.46168 0
M  V30 2825 C 270.931 -0.629917 -1.53692 0
M  V30 2826 O 272.116 -0.870861 -1.69766 0
M  V30 2827 C 269.256 -1.97123 -2.8326 0
M  V30 2828 C 268.369 -3.24831 -2.84796 0
M  V30 2829 C 267.504 -3.33591 -4.13389 0
M  V30 2830 C 266.543 -4.55377 -4.09021 0
M  V30 2831 N 265.68 -4.61355 -5.29241 0
M  V30 2832 H 270.52 -2.71142 -1.23637 0
M  V30 2833 H 268.057 -1.34326 -0.599577 0
M  V30 2834 H 270.015 -2.05839 -3.62886 0
M  V30 2835 H 268.645 -1.07946 -3.04216 0
M  V30 2836 H 267.697 -3.25128 -1.97474 0
M  V30 2837 H 269.009 -4.14523 -2.77439 0
M  V30 2838 H 268.163 -3.41554 -5.01424 0
M  V30 2839 H 266.902 -2.41894 -4.23484 0
M  V30 2840 H 265.907 -4.47527 -3.19373 0
M  V30 2841 H 267.132 -5.48402 -4.00539 0
M  V30 2842 H 265.078 -3.72554 -5.39944 0
M  V30 2843 H 264.995 -5.44935 -5.24006 0
M  V30 2844 H 266.263 -4.73586 -6.19141 0
M  V30 2845 N 270.492 0.636531 -1.44174 0
M  V30 2846 C 271.44 1.76995 -1.50915 0
M  V30 2847 C 272.434 1.65053 -0.381295 0
M  V30 2848 O 273.64 1.71197 -0.55601 0
M  V30 2849 H 270.015 0.584247 -0.473455 0
M  V30 2850 H 271.986 1.68432 -2.4632 0
M  V30 2851 C 270.735 3.15314 -1.46534 0
M  V30 2852 H 270.058 3.25149 -2.32633 0
M  V30 2853 H 271.498 3.9453 -1.55312 0
M  V30 2854 C 269.957 3.3639 -0.185305 0
M  V30 2855 O 270.487 3.94699 0.746688 0
M  V30 2856 N 268.693 2.9046 -0.0901606 0
M  V30 2857 H 268.24 2.43193 -0.849416 0
M  V30 2858 H 268.198 3.04937 0.765553 0
M  V30 2859 N 271.97 1.30982 0.876444 0
M  V30 2860 C 272.88 1.2003 2.01569 0
M  V30 2861 C 273.896 0.11838 1.73597 0
M  V30 2862 O 275.072 0.33495 1.98595 0
M  V30 2863 C 272.137 0.901637 3.34771 0
M  V30 2864 C 271.198 2.06979 3.76109 0
M  V30 2865 C 270.431 1.78529 5.02954 0
M  V30 2866 O 270.654 0.717296 5.65872 0
M  V30 2867 O 269.588 2.64019 5.40905 0
M  V30 2868 H 273.414 2.15753 2.13739 0
M  V30 2869 H 270.999 1.10658 1.00375 0
M  V30 2870 H 272.881 0.750645 4.1466 0
M  V30 2871 H 271.556 -0.0256141 3.2369 0
M  V30 2872 H 270.463 2.27616 2.96887 0
M  V30 2873 H 271.796 2.97907 3.91807 0
M  V30 2874 N 273.449 -1.08991 1.13837 0
M  V30 2875 C 274.86 -1.62746 0.914917 0
M  V30 2876 C 275.211 -1.88403 -0.547594 0
M  V30 2877 O 274.336 -1.63706 -1.41525 0
M  V30 2878 C 274.931 -2.95662 1.65437 0
M  V30 2879 C 273.49 -3.46225 1.47666 0
M  V30 2880 C 272.637 -2.20562 1.6807 0
M  V30 2881 H 275.588 -0.922946 1.29102 0
M  V30 2882 H 275.609 -3.63825 1.11407 0
M  V30 2883 H 275.121 -2.76956 2.71877 0
M  V30 2884 H 273.222 -3.70046 0.435478 0
M  V30 2885 H 273.335 -4.23368 2.24268 0
M  V30 2886 H 271.699 -2.29439 1.10589 0
M  V30 2887 H 272.482 -2.0437 2.7584 0
M  V30 2888 N 274.927 -0.932562 -1.27047 0
M  V30 2889 C 275.859 -0.392734 -2.2581 0
M  V30 2890 C 276.872 0.479241 -1.55586 0
M  V30 2891 O 278.061 0.291078 -1.76111 0
M  V30 2892 C 275.161 0.455456 -3.35826 0
M  V30 2893 C 274.334 -0.398355 -4.35582 0
M  V30 2894 C 273.393 0.387985 -5.24768 0
M  V30 2895 O 272.419 -0.206003 -5.68827 0
M  V30 2896 N 273.621 1.68664 -5.55457 0
M  V30 2897 H 276.386 -1.24173 -2.72766 0
M  V30 2898 H 273.947 -0.800511 -1.40725 0
M  V30 2899 H 275.939 0.988692 -3.92437 0
M  V30 2900 H 274.509 1.20522 -2.88432 0
M  V30 2901 H 273.729 -1.11286 -3.78165 0
M  V30 2902 H 275.017 -0.981889 -4.99236 0
M  V30 2903 H 274.415 2.19147 -5.21528 0
M  V30 2904 H 272.972 2.1663 -6.14748 0
M  V30 2905 N 276.405 1.4127 -0.698611 0
M  V30 2906 C 277.353 2.32588 -0.023855 0
M  V30 2907 C 278.347 1.51128 0.765292 0
M  V30 2908 O 279.553 1.67043 0.670571 0
M  V30 2909 H 275.928 0.751918 0.0110871 0
M  V30 2910 H 277.899 2.87167 -0.811031 0
M  V30 2911 C 276.648 3.35947 0.896369 0
M  V30 2912 H 275.971 3.98684 0.298548 0
M  V30 2913 H 277.411 4.02376 1.33676 0
M  V30 2914 C 275.87 2.70076 2.01396 0
M  V30 2915 O 276.4 2.55093 3.10307 0
M  V30 2916 N 274.606 2.28724 1.79259 0
M  V30 2917 H 274.153 2.4111 0.906841 0
M  V30 2918 H 274.111 1.84986 2.54219 0
M  V30 2919 N 277.883 0.443576 1.51229 0
M  V30 2920 C 279.294 -0.0180867 1.86691 0
M  V30 2921 C 279.645 -1.41384 1.36033 0
M  V30 2922 O 278.77 -2.04291 0.713722 0
M  V30 2923 C 279.365 -0.039597 3.38777 0
M  V30 2924 C 277.924 -0.445692 3.73752 0
M  V30 2925 C 277.071 0.357584 2.74985 0
M  V30 2926 H 280.022 0.659138 1.44364 0
M  V30 2927 H 280.043 -0.847761 3.70936 0
M  V30 2928 H 279.555 0.976382 3.75617 0
M  V30 2929 H 277.656 -1.46704 3.42503 0
M  V30 2930 H 277.769 -0.166155 4.78812 0
M  V30 2931 H 276.133 -0.184973 2.54027 0
M  V30 2932 H 276.916 1.37256 3.14668 0
M  V30 2933 N 279.361 -1.56624 0.175154 0
M  V30 2934 C 280.609 -1.96609 -0.467885 0
M  V30 2935 C 280.93 -1.06238 -1.63519 0
M  V30 2936 O 280.2 -0.129523 -1.95471 0
M  V30 2937 H 278.78 -0.726008 -0.175845 0
M  V30 2938 H 281.442 -1.93195 0.257234 0
M  V30 2939 H 280.538 -3.00989 -0.825342 0
M  V30 2940 N 280.839 0.0985539 -1.57292 0
M  V30 2941 C 281.802 1.10402 -2.00858 0
M  V30 2942 C 282.802 1.33146 -0.901593 0
M  V30 2943 O 283.992 1.29318 -1.16716 0
M  V30 2944 C 281.124 2.45394 -2.36632 0
M  V30 2945 H 282.317 0.729099 -2.90902 0
M  V30 2946 H 279.87 0.343495 -1.52479 0
M  V30 2947 H 280.605 2.87769 -1.49531 0
M  V30 2948 H 280.39 2.30235 -3.17387 0
M  V30 2949 H 281.88 3.17718 -2.71007 0
M  V30 2950 N 282.317 1.53212 0.369288 0
M  V30 2951 C 283.265 1.80054 1.47253 0
M  V30 2952 C 284.259 0.669456 1.55611 0
M  V30 2953 O 285.465 0.852328 1.58541 0
M  V30 2954 H 281.84 0.570034 0.490475 0
M  V30 2955 H 283.811 2.72403 1.21817 0
M  V30 2956 C 282.56 2.00403 2.84137 0
M  V30 2957 H 281.883 2.86876 2.78464 0
M  V30 2958 H 283.323 2.23164 3.60519 0
M  V30 2959 C 281.782 0.782081 3.27697 0
M  V30 2960 O 282.312 -0.0310205 4.01688 0
M  V30 2961 N 280.518 0.606573 2.84199 0
M  V30 2962 H 280.065 1.26939 2.24152 0
M  V30 2963 H 280.023 -0.20962 3.137 0
M  V30 2964 N 283.795 -0.628877 1.44509 0
M  V30 2965 C 285.02 -1.42048 1.5112 0
M  V30 2966 C 285.445 -1.87594 0.137818 0
M  V30 2967 O 284.803 -1.58873 -0.873437 0
M  V30 2968 C 284.851 -2.61541 2.48251 0
M  V30 2969 O 283.955 -3.61453 1.98559 0
M  V30 2970 H 283.296 -0.424942 0.510216 0
M  V30 2971 H 285.826 -0.767374 1.89664 0
M  V30 2972 H 285.836 -3.09057 2.66361 0
M  V30 2973 H 284.511 -2.27736 3.48007 0
M  V30 2974 H 283.088 -3.20731 1.90227 0
M  V30 2975 N 285.273 -1.31445 -0.869486 0
M  V30 2976 C 286.236 -1.19094 -1.9583 0
M  V30 2977 C 287.236 -0.117906 -1.60367 0
M  V30 2978 O 288.426 -0.367208 -1.70286 0
M  V30 2979 C 285.558 -0.828165 -3.30688 0
M  V30 2980 H 286.751 -2.15842 -2.08212 0
M  V30 2981 H 284.304 -1.15063 -1.05784 0
M  V30 2982 H 285.039 0.138142 -3.24006 0
M  V30 2983 H 284.824 -1.6038 -3.578 0
M  V30 2984 H 286.314 -0.765658 -4.10521 0
M  V30 2985 N 286.751 1.08385 -1.14413 0
M  V30 2986 C 288.167 1.32844 -0.884563 0
M  V30 2987 C 288.367 1.95841 0.474181 0
M  V30 2988 O 287.423 2.21158 1.21842 0
M  V30 2989 C 288.736 2.22978 -2.01745 0
M  V30 2990 C 290.284 2.36458 -2.05077 0
M  V30 2991 C 290.759 3.29934 -3.1766 0
M  V30 2992 N 292.25 3.37511 -3.17239 0
M  V30 2993 C 292.985 4.09871 -4.0099 0
M  V30 2994 N 292.481 4.84936 -4.94781 0
M  V30 2995 N 294.274 4.05704 -3.89051 0
M  V30 2996 H 286.425 0.658756 -2.01926 0
M  V30 2997 H 288.688 0.352821 -0.879899 0
M  V30 2998 H 288.394 1.83934 -2.99769 0
M  V30 2999 H 288.268 3.23441 -1.94077 0
M  V30 3000 H 290.655 2.7476 -1.0766 0
M  V30 3001 H 290.736 1.35736 -2.16816 0
M  V30 3002 H 290.38 2.92352 -4.15322 0
M  V30 3003 H 290.31 4.30584 -3.03158 0
M  V30 3004 H 292.801 2.83996 -2.49308 0
M  V30 3005 H 293.114 5.37612 -5.55151 0
M  V30 3006 H 291.459 4.83988 -4.98779 0
M  V30 3007 H 294.65 3.46167 -3.15097 0
M  V30 3008 H 294.823 4.61834 -4.54547 0
M  V30 3009 N 288.23 0.939286 1.26551 0
M  V30 3010 C 289.478 0.58469 1.93457 0
M  V30 3011 C 289.799 -0.878774 1.74076 0
M  V30 3012 O 289.069 -1.62421 1.09528 0
M  V30 3013 H 287.649 0.21325 0.715914 0
M  V30 3014 H 290.311 1.1942 1.54029 0
M  V30 3015 H 289.407 0.800849 3.0165 0
M  V30 3016 N 289.708 -1.40897 0.706093 0
M  V30 3017 C 291.124 -1.55042 0.37869 0
M  V30 3018 C 291.324 -1.67944 -1.11342 0
M  V30 3019 O 290.38 -1.66372 -1.89938 0
M  V30 3020 C 291.693 -2.78398 1.13643 0
M  V30 3021 C 293.241 -2.92206 1.12181 0
M  V30 3022 C 293.716 -4.18463 1.86152 0
M  V30 3023 N 295.207 -4.25443 1.83173 0
M  V30 3024 C 295.942 -5.2202 2.37239 0
M  V30 3025 N 295.438 -6.24563 2.99821 0
M  V30 3026 N 297.231 -5.14033 2.27435 0
M  V30 3027 H 289.382 -1.30769 1.67372 0
M  V30 3028 H 291.645 -0.631653 0.706907 0
M  V30 3029 H 291.351 -2.7511 2.19106 0
M  V30 3030 H 291.225 -3.70228 0.721853 0
M  V30 3031 H 293.612 -2.95004 0.0754171 0
M  V30 3032 H 293.693 -2.01521 1.57554 0
M  V30 3033 H 293.337 -4.16427 2.90776 0
M  V30 3034 H 293.267 -5.08141 1.38206 0
M  V30 3035 H 295.758 -3.51976 1.37556 0
M  V30 3036 H 296.071 -6.94665 3.38616 0
M  V30 3037 H 294.416 -6.25035 3.03902 0
M  V30 3038 H 297.607 -4.3285 1.78208 0
M  V30 3039 H 297.78 -5.89129 2.69873 0
M  V30 3040 N 291.186 -0.45159 -1.50991 0
M  V30 3041 C 292.434 0.109857 -2.01801 0
M  V30 3042 C 292.755 1.41958 -1.3369 0
M  V30 3043 O 292.025 1.9003 -0.475951 0
M  V30 3044 H 290.605 0.0435884 -0.745727 0
M  V30 3045 H 293.267 -0.597557 -1.85514 0
M  V30 3046 H 292.363 0.275489 -3.10882 0
M  V30 3047 N 292.664 1.56529 -0.183458 0
M  V30 3048 C 293.91 1.97537 0.459036 0
M  V30 3049 C 294.243 1.06989 1.62071 0
M  V30 3050 O 293.518 0.11948 1.94133 0
M  V30 3051 C 293.801 3.47874 0.930368 0
M  V30 3052 C 293.654 4.492 -0.232317 0
M  V30 3053 C 294.973 4.01612 1.79989 0
M  V30 3054 H 292.092 0.718204 0.165383 0
M  V30 3055 H 294.734 1.88042 -0.272038 0
M  V30 3056 H 292.884 3.56095 1.55333 0
M  V30 3057 H 294.556 4.53027 -0.86972 0
M  V30 3058 H 292.799 4.24657 -0.885928 0
M  V30 3059 H 293.47 5.51823 0.139796 0
M  V30 3060 H 295.946 3.96097 1.27461 0
M  V30 3061 H 294.822 5.07195 2.09867 0
M  V30 3062 H 295.083 3.46163 2.74998 0
M  V30 3063 N 294.142 -0.090211 1.57342 0
M  V30 3064 C 295.419 -0.824761 1.77361 0
M  V30 3065 C 295.799 -1.96698 0.76637 0
M  V30 3066 O 295.147 -2.27586 -0.204179 0
M  V30 3067 C 295.357 -1.31481 3.23286 0
M  V30 3068 C 296.705 -1.75563 3.86604 0
M  V30 3069 O 297.729 -1.41093 3.27065 0
M  V30 3070 O 296.588 -2.39317 4.91314 0
M  V30 3071 H 293.682 -0.393776 0.727234 0
M  V30 3072 H 296.228 -0.0717138 1.69548 0
M  V30 3073 H 295 -0.496671 3.88135 0
M  V30 3074 H 294.623 -2.12973 3.35751 0
M  V30 3075 N 295.62 -1.53406 -0.361157 0
M  V30 3076 C 296.55 -1.83136 -1.44857 0
M  V30 3077 C 297.531 -0.685174 -1.5569 0
M  V30 3078 O 298.716 -0.93544 -1.70186 0
M  V30 3079 C 295.846 -2.02522 -2.82138 0
M  V30 3080 C 294.8 -3.18302 -2.86126 0
M  V30 3081 C 294.126 -3.22989 -4.26125 0
M  V30 3082 C 295.426 -4.56796 -2.53248 0
M  V30 3083 H 297.12 -2.74201 -1.20226 0
M  V30 3084 H 294.666 -1.31938 -0.576922 0
M  V30 3085 H 296.619 -2.21904 -3.58241 0
M  V30 3086 H 295.343 -1.08172 -3.08166 0
M  V30 3087 H 294.002 -2.98747 -2.12475 0
M  V30 3088 H 293.65 -2.26267 -4.49235 0
M  V30 3089 H 293.35 -4.00781 -4.29708 0
M  V30 3090 H 294.874 -3.44559 -5.04094 0
M  V30 3091 H 296.288 -4.7631 -3.19064 0
M  V30 3092 H 294.685 -5.36862 -2.68141 0
M  V30 3093 H 295.755 -4.61606 -1.48484 0
M  V30 3094 N 297.098 0.621204 -1.44841 0
M  V30 3095 C 298.326 1.40752 -1.51646 0
M  V30 3096 C 298.741 1.88246 -0.144549 0
M  V30 3097 O 298.098 1.61422 0.851416 0
M  V30 3098 C 298.149 2.62119 -2.4895 0
M  V30 3099 O 297.87 2.16602 -3.80808 0
M  V30 3100 C 299.371 3.55135 -2.65319 0
M  V30 3101 H 296.591 0.431325 -0.514004 0
M  V30 3102 H 299.135 0.758835 -1.899 0
M  V30 3103 H 297.29 3.23058 -2.13805 0
M  V30 3104 H 297.704 2.95358 -4.33433 0
M  V30 3105 H 299.178 4.36874 -3.37409 0
M  V30 3106 H 299.655 4.04592 -1.70886 0
M  V30 3107 H 300.261 3.00058 -3.01405 0
M  V30 3108 N 298.576 1.31904 0.862503 0
M  V30 3109 C 299.486 1.22161 2.00285 0
M  V30 3110 C 300.502 0.136785 1.73462 0
M  V30 3111 O 301.678 0.355994 1.98229 0
M  V30 3112 C 298.743 0.937093 3.33796 0
M  V30 3113 C 297.804 2.10957 3.73893 0
M  V30 3114 C 297.037 1.83853 5.01033 0
M  V30 3115 O 297.26 0.777274 5.65079 0
M  V30 3116 O 296.194 2.69741 5.38074 0
M  V30 3117 H 300.02 2.18008 2.11439 0
M  V30 3118 H 297.605 1.11716 0.991957 0
M  V30 3119 H 299.487 0.794583 4.13841 0
M  V30 3120 H 298.162 0.00871894 3.23699 0
M  V30 3121 H 297.069 2.30752 2.94456 0
M  V30 3122 H 298.402 3.02046 3.88625 0
M  V30 3123 N 300.054 -1.07777 1.14986 0
M  V30 3124 C 301.465 -1.61766 0.932127 0
M  V30 3125 C 301.816 -1.88974 -0.527581 0
M  V30 3126 O 300.941 -1.65198 -1.39781 0
M  V30 3127 C 301.536 -2.93891 1.68563 0
M  V30 3128 C 300.095 -3.44639 1.5133 0
M  V30 3129 C 299.242 -2.18767 1.704 0
M  V30 3130 H 302.193 -0.909201 1.30074 0
M  V30 3131 H 302.214 -3.62623 1.15259 0
M  V30 3132 H 301.726 -2.74057 2.74799 0
M  V30 3133 H 299.827 -3.69564 0.474702 0
M  V30 3134 H 299.94 -4.20966 2.28746 0
M  V30 3135 H 298.304 -2.28253 1.13016 0
M  V30 3136 H 299.087 -2.01433 2.77992 0
M  V30 3137 N 301.532 -0.945985 -1.26051 0
M  V30 3138 C 302.76 -0.613025 -1.9761 0
M  V30 3139 C 303.175 0.813035 -1.70397 0
M  V30 3140 O 302.532 1.54274 -0.974979 0
M  V30 3141 C 302.583 -0.85159 -3.51326 0
M  V30 3142 O 302.304 -2.22157 -3.77595 0
M  V30 3143 C 303.805 -0.529831 -4.40122 0
M  V30 3144 H 301.025 -0.230593 -0.630133 0
M  V30 3145 H 303.569 -1.268 -1.60443 0
M  V30 3146 H 301.724 -0.243151 -3.86636 0
M  V30 3147 H 302.138 -2.2852 -4.721 0
M  V30 3148 H 303.612 -0.747348 -5.46917 0
M  V30 3149 H 304.089 0.535341 -4.35925 0
M  V30 3150 H 304.695 -1.11721 -4.10364 0
M  V30 3151 N 303.011 1.40521 -0.713556 0
M  V30 3152 C 303.943 2.29191 -0.0203126 0
M  V30 3153 C 304.956 1.45723 0.725864 0
M  V30 3154 O 306.145 1.69033 0.573581 0
M  V30 3155 C 303.245 3.2395 0.995486 0
M  V30 3156 C 302.418 4.36262 0.315256 0
M  V30 3157 C 301.477 5.11474 1.23616 0
M  V30 3158 O 300.503 5.64606 0.721719 0
M  V30 3159 N 301.705 5.20638 2.56743 0
M  V30 3160 H 304.47 2.89327 -0.781652 0
M  V30 3161 H 302.031 1.51869 -0.561022 0
M  V30 3162 H 304.023 3.71137 1.61368 0
M  V30 3163 H 302.593 2.64995 1.6582 0
M  V30 3164 H 301.813 3.91228 -0.483106 0
M  V30 3165 H 303.101 5.08558 -0.157004 0
M  V30 3166 H 302.499 4.7895 3.01037 0
M  V30 3167 H 301.056 5.71339 3.13712 0
M  V30 3168 N 304.489 0.459591 1.5075 0
M  V30 3169 C 305.9 0.00171547 1.867 0
M  V30 3170 C 306.251 -1.39934 1.37525 0
M  V30 3171 O 305.376 -2.03523 0.735349 0
M  V30 3172 C 305.971 -0.00366298 3.388 0
M  V30 3173 C 304.53 -0.406026 3.74204 0
M  V30 3174 C 303.677 0.38673 2.7459 0
M  V30 3175 H 306.628 0.674413 1.43657 0
M  V30 3176 H 306.649 -0.808371 3.71814 0
M  V30 3177 H 306.161 1.01617 3.74561 0
M  V30 3178 H 304.262 -1.43063 3.4404 0
M  V30 3179 H 304.375 -0.115362 4.78961 0
M  V30 3180 H 302.739 -0.158019 2.54209 0
M  V30 3181 H 303.522 1.40585 3.13194 0
M  V30 3182 N 305.967 -1.56429 0.191757 0
M  V30 3183 C 307.195 -2.01867 -0.453586 0
M  V30 3184 C 307.61 -1.07191 -1.5542 0
M  V30 3185 O 306.967 -0.0762108 -1.82341 0
M  V30 3186 C 307.018 -3.47017 -1.013 0
M  V30 3187 O 306.739 -4.38078 0.0437005 0
M  V30 3188 C 308.24 -4.07956 -1.73456 0
M  V30 3189 H 305.46 -0.661211 -0.114199 0
M  V30 3190 H 308.004 -2.02295 0.299483 0
M  V30 3191 H 306.159 -3.47298 -1.71647 0
M  V30 3192 H 306.573 -5.23178 -0.372212 0
M  V30 3193 H 308.047 -5.1138 -2.07833 0
M  V30 3194 H 308.524 -3.51222 -2.63704 0
M  V30 3195 H 309.13 -4.11437 -1.07702 0
M  V30 3196 N 307.445 0.0818655 -1.57387 0
M  V30 3197 C 308.861 0.436412 -1.53517 0
M  V30 3198 C 309.061 1.79758 -0.910459 0
M  V30 3199 O 308.117 2.47324 -0.508636 0
M  V30 3200 C 309.43 0.386734 -2.98203 0
M  V30 3201 C 310.978 0.467644 -3.09487 0
M  V30 3202 C 311.453 0.447978 -4.55804 0
M  V30 3203 N 312.944 0.508348 -4.60402 0
M  V30 3204 C 313.679 0.515184 -5.71081 0
M  V30 3205 N 313.175 0.477435 -6.91153 0
M  V30 3206 N 314.968 0.560988 -5.59294 0
M  V30 3207 H 307.119 -0.809546 -1.96367 0
M  V30 3208 H 309.382 -0.302733 -0.898363 0
M  V30 3209 H 309.088 -0.546539 -3.47427 0
M  V30 3210 H 308.962 1.20075 -3.57578 0
M  V30 3211 H 311.349 1.39134 -2.60242 0
M  V30 3212 H 311.43 -0.374753 -2.5304 0
M  V30 3213 H 311.074 -0.471826 -5.05704 0
M  V30 3214 H 311.004 1.30777 -5.10103 0
M  V30 3215 H 313.495 0.54218 -3.7399 0
M  V30 3216 H 313.808 0.486299 -7.71268 0
M  V30 3217 H 312.153 0.444278 -6.93579 0
M  V30 3218 H 315.344 0.5881 -4.64391 0
M  V30 3219 H 315.517 0.562846 -6.45551 0
M  V30 3220 N 308.923 1.53595 0.353017 0
M  V30 3221 C 309.871 1.81605 1.45335 0
M  V30 3222 C 310.865 0.685923 1.54892 0
M  V30 3223 O 312.071 0.869095 1.57628 0
M  V30 3224 H 308.446 0.575204 0.484401 0
M  V30 3225 H 310.417 2.73679 1.18921 0
M  V30 3226 C 309.166 2.03406 2.81995 0
M  V30 3227 H 308.489 2.89814 2.75405 0
M  V30 3228 H 309.929 2.26975 3.58132 0
M  V30 3229 C 308.388 0.816794 3.26849 0
M  V30 3230 O 308.918 0.0115856 4.01698 0
M  V30 3231 N 307.124 0.636682 2.8354 0
M  V30 3232 H 306.671 1.2931 2.22793 0
M  V30 3233 H 306.629 -0.176336 3.13905 0
M  V30 3234 N 310.401 -0.613514 1.45168 0
M  V30 3235 C 311.333 -1.73825 1.4939 0
M  V30 3236 C 312.346 -1.58175 0.385304 0
M  V30 3237 O 313.535 -1.66165 0.652036 0
M  V30 3238 C 310.635 -3.11758 1.32891 0
M  V30 3239 C 309.808 -3.53704 2.57317 0
M  V30 3240 C 308.867 -4.70579 2.35462 0
M  V30 3241 O 307.893 -4.77996 3.09044 0
M  V30 3242 N 309.095 -5.63454 1.39644 0
M  V30 3243 H 311.86 -1.70669 2.46358 0
M  V30 3244 H 309.421 -0.79862 1.40832 0
M  V30 3245 H 311.413 -3.87692 1.1609 0
M  V30 3246 H 309.983 -3.09456 0.442218 0
M  V30 3247 H 309.203 -2.67794 2.89275 0
M  V30 3248 H 310.491 -3.78486 3.40038 0
M  V30 3249 H 309.889 -5.6017 0.789062 0
M  V30 3250 H 308.446 -6.38944 1.28816 0
M  V30 3251 N 311.879 -1.3236 -0.855495 0
M  V30 3252 C 313.119 -1.24187 -1.62348 0
M  V30 3253 C 313.483 0.193597 -1.91021 0
M  V30 3254 O 314.684 0.39904 -2.65822 0
M  V30 3255 C 312.955 -2.07661 -2.90881 0
M  V30 3256 S 314.514 -2.16505 -3.81669 0
M  V30 3257 H 311.332 -0.442076 -0.556857 0
M  V30 3258 H 313.934 -1.67198 -1.01317 0
M  V30 3259 H 312.638 -3.11018 -2.67761 0
M  V30 3260 H 312.169 -1.65425 -3.56929 0
M  V30 3261 H 314.184 -1.31394 -4.78487 0
M  V30 3262 N 313.357 1.07166 -1.15556 0
M  V30 3263 C 314.597 1.81391 -0.94216 0
M  V30 3264 C 314.961 1.84788 0.521272 0
M  V30 3265 O 316.162 2.54904 0.85307 0
M  V30 3266 C 314.433 3.22431 -1.54185 0
M  V30 3267 S 315.992 4.13379 -1.47183 0
M  V30 3268 H 312.81 0.624963 -0.339031 0
M  V30 3269 H 315.412 1.28725 -1.4714 0
M  V30 3270 H 314.116 3.17548 -2.59984 0
M  V30 3271 H 313.647 3.80172 -1.01156 0
M  V30 3272 H 315.662 4.94007 -0.466004 0
M  V30 3273 N 314.835 0.952656 1.25548 0
M  V30 3274 C 316.06 0.623025 1.97821 0
M  V30 3275 C 316.485 -0.7976 1.70352 0
M  V30 3276 O 315.843 -1.53905 0.958283 0
M  V30 3277 C 315.891 0.885532 3.49558 0
M  V30 3278 O 314.995 -0.0366641 4.12384 0
M  V30 3279 H 314.336 0.237082 0.620232 0
M  V30 3280 H 316.866 1.27871 1.59719 0
M  V30 3281 H 316.876 0.811009 3.99858 0
M  V30 3282 H 315.551 1.92094 3.6888 0
M  V30 3283 H 314.128 0.0898954 3.72792 0
M  V30 3284 N 316.313 -1.40141 0.720998 0
M  V30 3285 C 317.261 -2.3252 0.0608547 0
M  V30 3286 C 318.255 -1.52326 -0.741152 0
M  V30 3287 O 319.461 -1.68089 -0.643911 0
M  V30 3288 H 315.836 -0.751999 0.000876664 0
M  V30 3289 H 317.807 -2.8584 0.856614 0
M  V30 3290 C 316.556 -3.37331 -0.842809 0
M  V30 3291 H 315.879 -3.99108 -0.235084 0
M  V30 3292 H 317.319 -4.04452 -1.27257 0
M  V30 3293 C 315.778 -2.73246 -1.97074 0
M  V30 3294 O 316.308 -2.59998 -3.06209 0
M  V30 3295 N 314.514 -2.31547 -1.75597 0
M  V30 3296 H 314.061 -2.42522 -0.868368 0
M  V30 3297 H 314.019 -1.89007 -2.51244 0
M  V30 3298 O 317.83 -0.609464 -1.49559 0
M  V30 3299 H 318.521 -0.121877 -1.93316 0
M  V30 END ATOM
M  V30 BEGIN BOND
M  V30 END BOND
M  V30 END CTAB
M  END
$$$$
