4034
  -OEChem-10051719223D

 55 58  0     1  0  0  0  0  0999 V2000
   -6.5085    3.3198   -0.2186 Cl  0  0  0  0  0  0  0  0  0  0  0  0
   -0.6116    0.1454   -0.1554 N   0  0  0  0  0  0  0  0  0  0  0  0
    2.0638    1.2361   -0.2621 N   0  0  0  0  0  0  0  0  0  0  0  0
    0.5584   -0.6699    0.1933 C   0  0  0  0  0  0  0  0  0  0  0  0
   -0.3538    1.5613    0.1341 C   0  0  0  0  0  0  0  0  0  0  0  0
    1.8055   -0.1800   -0.5507 C   0  0  0  0  0  0  0  0  0  0  0  0
    0.8936    2.0519   -0.6088 C   0  0  0  0  0  0  0  0  0  0  0  0
   -1.8002   -0.3218    0.5551 C   0  0  1  0  0  0  0  0  0  0  0  0
    3.2516    1.7028   -0.9746 C   0  0  0  0  0  0  0  0  0  0  0  0
   -2.9932    0.6020    0.3586 C   0  0  0  0  0  0  0  0  0  0  0  0
   -2.1426   -1.7672    0.2253 C   0  0  0  0  0  0  0  0  0  0  0  0
    4.4815    0.9279   -0.5823 C   0  0  0  0  0  0  0  0  0  0  0  0
   -3.1854    1.6419    1.2452 C   0  0  0  0  0  0  0  0  0  0  0  0
   -3.8481    0.3718   -0.7002 C   0  0  0  0  0  0  0  0  0  0  0  0
   -2.7695   -2.5394    1.1821 C   0  0  0  0  0  0  0  0  0  0  0  0
   -1.8165   -2.2627   -1.0208 C   0  0  0  0  0  0  0  0  0  0  0  0
    4.7271    0.6678    0.7587 C   0  0  0  0  0  0  0  0  0  0  0  0
    5.3531    0.4855   -1.5677 C   0  0  0  0  0  0  0  0  0  0  0  0
   -4.2797    2.4880    1.0656 C   0  0  0  0  0  0  0  0  0  0  0  0
   -4.9424    1.2180   -0.8800 C   0  0  0  0  0  0  0  0  0  0  0  0
   -3.0836   -3.8644    0.8799 C   0  0  0  0  0  0  0  0  0  0  0  0
   -2.1307   -3.5878   -1.3230 C   0  0  0  0  0  0  0  0  0  0  0  0
    5.8672   -0.0493    1.1215 C   0  0  0  0  0  0  0  0  0  0  0  0
   -5.1582    2.2762    0.0029 C   0  0  0  0  0  0  0  0  0  0  0  0
   -2.7644   -4.3886   -0.3726 C   0  0  0  0  0  0  0  0  0  0  0  0
    6.4931   -0.2318   -1.2048 C   0  0  0  0  0  0  0  0  0  0  0  0
    6.7502   -0.4991    0.1398 C   0  0  0  0  0  0  0  0  0  0  0  0
    6.1429   -0.3346    2.5594 C   0  0  0  0  0  0  0  0  0  0  0  0
    0.4456   -1.7279   -0.0576 H   0  0  0  0  0  0  0  0  0  0  0  0
    0.7491   -0.6264    1.2753 H   0  0  0  0  0  0  0  0  0  0  0  0
   -0.2244    1.7349    1.2109 H   0  0  0  0  0  0  0  0  0  0  0  0
   -1.1589    2.2055   -0.2321 H   0  0  0  0  0  0  0  0  0  0  0  0
    1.6724   -0.3403   -1.6299 H   0  0  0  0  0  0  0  0  0  0  0  0
    2.6323   -0.8230   -0.2307 H   0  0  0  0  0  0  0  0  0  0  0  0
    1.0747    3.0966   -0.3277 H   0  0  0  0  0  0  0  0  0  0  0  0
    0.7097    2.0322   -1.6919 H   0  0  0  0  0  0  0  0  0  0  0  0
   -1.5678   -0.3111    1.6329 H   0  0  0  0  0  0  0  0  0  0  0  0
    3.4422    2.7573   -0.7357 H   0  0  0  0  0  0  0  0  0  0  0  0
    3.0944    1.6455   -2.0601 H   0  0  0  0  0  0  0  0  0  0  0  0
   -2.5188    1.8109    2.0854 H   0  0  0  0  0  0  0  0  0  0  0  0
   -3.7062   -0.4217   -1.4239 H   0  0  0  0  0  0  0  0  0  0  0  0
   -3.0235   -2.1397    2.1592 H   0  0  0  0  0  0  0  0  0  0  0  0
   -1.3499   -1.6607   -1.7944 H   0  0  0  0  0  0  0  0  0  0  0  0
    4.0516    1.0251    1.5319 H   0  0  0  0  0  0  0  0  0  0  0  0
    5.1649    0.6880   -2.6182 H   0  0  0  0  0  0  0  0  0  0  0  0
   -4.4371    3.3066    1.7633 H   0  0  0  0  0  0  0  0  0  0  0  0
   -5.6160    1.0445   -1.7154 H   0  0  0  0  0  0  0  0  0  0  0  0
   -3.5777   -4.4878    1.6195 H   0  0  0  0  0  0  0  0  0  0  0  0
   -1.8884   -3.9943   -2.3005 H   0  0  0  0  0  0  0  0  0  0  0  0
   -3.0106   -5.4197   -0.6087 H   0  0  0  0  0  0  0  0  0  0  0  0
    7.1804   -0.5822   -1.9693 H   0  0  0  0  0  0  0  0  0  0  0  0
    7.6410   -1.0604    0.4091 H   0  0  0  0  0  0  0  0  0  0  0  0
    5.6144   -1.2412    2.8703 H   0  0  0  0  0  0  0  0  0  0  0  0
    7.2141   -0.4761    2.7392 H   0  0  0  0  0  0  0  0  0  0  0  0
    5.8190    0.4978    3.1935 H   0  0  0  0  0  0  0  0  0  0  0  0
  1 24  1  0  0  0  0
  2  4  1  0  0  0  0
  2  5  1  0  0  0  0
  2  8  1  0  0  0  0
  3  6  1  0  0  0  0
  3  7  1  0  0  0  0
  3  9  1  0  0  0  0
  4  6  1  0  0  0  0
  4 29  1  0  0  0  0
  4 30  1  0  0  0  0
  5  7  1  0  0  0  0
  5 31  1  0  0  0  0
  5 32  1  0  0  0  0
  6 33  1  0  0  0  0
  6 34  1  0  0  0  0
  7 35  1  0  0  0  0
  7 36  1  0  0  0  0
  8 10  1  0  0  0  0
  8 11  1  0  0  0  0
  8 37  1  0  0  0  0
  9 12  1  0  0  0  0
  9 38  1  0  0  0  0
  9 39  1  0  0  0  0
 10 13  2  0  0  0  0
 10 14  1  0  0  0  0
 11 15  2  0  0  0  0
 11 16  1  0  0  0  0
 12 17  1  0  0  0  0
 12 18  2  0  0  0  0
 13 19  1  0  0  0  0
 13 40  1  0  0  0  0
 14 20  2  0  0  0  0
 14 41  1  0  0  0  0
 15 21  1  0  0  0  0
 15 42  1  0  0  0  0
 16 22  2  0  0  0  0
 16 43  1  0  0  0  0
 17 23  2  0  0  0  0
 17 44  1  0  0  0  0
 18 26  1  0  0  0  0
 18 45  1  0  0  0  0
 19 24  2  0  0  0  0
 19 46  1  0  0  0  0
 20 24  1  0  0  0  0
 20 47  1  0  0  0  0
 21 25  2  0  0  0  0
 21 48  1  0  0  0  0
 22 25  1  0  0  0  0
 22 49  1  0  0  0  0
 23 27  1  0  0  0  0
 23 28  1  0  0  0  0
 25 50  1  0  0  0  0
 26 27  2  0  0  0  0
 26 51  1  0  0  0  0
 27 52  1  0  0  0  0
 28 53  1  0  0  0  0
 28 54  1  0  0  0  0
 28 55  1  0  0  0  0
M  END
> <DATABASE_ID>
DB00737

> <DATABASE_NAME>
drugbank

> <ORIGINAL_SOURCE>
PUBCHEM

> <ORIGINAL_SOURCE_URL>
https://pubchem.ncbi.nlm.nih.gov/rest/pug/compound/inchikey/OCJYIGYOJCODJL-UHFFFAOYSA-N/SDF?record_type=3d

> <SMILES>
CC1=CC(CN2CCN(CC2)C(C2=CC=CC=C2)C2=CC=C(Cl)C=C2)=CC=C1

> <INCHI_IDENTIFIER>
InChI=1S/C25H27ClN2/c1-20-6-5-7-21(18-20)19-27-14-16-28(17-15-27)25(22-8-3-2-4-9-22)23-10-12-24(26)13-11-23/h2-13,18,25H,14-17,19H2,1H3

> <INCHI_KEY>
OCJYIGYOJCODJL-UHFFFAOYSA-N

> <FORMULA>
C25H27ClN2

> <MOLECULAR_WEIGHT>
390.948

> <EXACT_MASS>
390.186276581

> <JCHEM_ACCEPTOR_COUNT>
2

> <JCHEM_AVERAGE_POLARIZABILITY>
44.86953307259893

> <JCHEM_BIOAVAILABILITY>
1

> <JCHEM_DONOR_COUNT>
0

> <JCHEM_FORMAL_CHARGE>
0

> <JCHEM_GHOSE_FILTER>
0

> <JCHEM_IUPAC>
1-[(4-chlorophenyl)(phenyl)methyl]-4-[(3-methylphenyl)methyl]piperazine

> <ALOGPS_LOGP>
5.59

> <JCHEM_LOGP>
6.387941532333333

> <ALOGPS_LOGS>
-5.58

> <JCHEM_MDDR_LIKE_RULE>
0

> <JCHEM_NUMBER_OF_RINGS>
4

> <JCHEM_PHYSIOLOGICAL_CHARGE>
1

> <JCHEM_PKA_STRONGEST_BASIC>
8.160772842506658

> <JCHEM_POLAR_SURFACE_AREA>
6.48

> <JCHEM_REFRACTIVITY>
119.39220000000003

> <JCHEM_ROTATABLE_BOND_COUNT>
5

> <JCHEM_RULE_OF_FIVE>
0

> <ALOGPS_SOLUBILITY>
1.03e-03 g/l

> <JCHEM_TRADITIONAL_IUPAC>
meclizine

> <JCHEM_VEBER_RULE>
1

> <DRUGBANK_ID>
DB00737

> <SECONDARY_ACCESSION_NUMBERS>
APRD00354

> <DRUG_GROUPS>
approved

> <GENERIC_NAME>
Meclizine

> <SYNONYMS>
Meclizine; Meclozina; Meclozine

> <PRODUCTS>
Antivert; Antivert Tab; Bonamine; Bonamine Tab 25mg Chewable; Bonine; CVS Motion Sickness Fast Melting; CVS Motion Sickness Strips; Dramamine; Dramamine - N; Dramamine Less Drowsy; Dramamine Less Drowsy Formula; Jet-Avert Motion Sickness Aid; Less Drowsy Formula Motion Sickness Relief; Less Drowsy Motion Sickness Relief; Meclinzine Hydorchloride; Meclizine; Meclizine 25; Meclizine HCL; Meclizine HCL 12.5 mg; Meclizine HCL 25 mg; Meclizine HCl; Meclizine HCl 25 mg; Meclizine Hydrochloride; Meclizine Hydrocloride; Meclizine hydrochloride; Medique Medi-Meclizine; Motion Relief - Less Drowsy Formula; Motion Sickness; Motion Sickness All Day Less Drowsy; Motion Sickness II; Motion Sickness Less Drowsy; Motion Sickness Less Drowsy Formula; Motion Sickness Relief; Motion Sickness Relief Less Drowsy; Motion sickness; Motion sickness Relief; Motion sickness less drowsy formula; Motion-Time Chewable; Naus-ease; RUGBY Meclizine HCl, 12.5 mg Each Antiemetic; Rugby; Rugby Meclizine HCl; Rugby Meclizine HCl, 12.5 mg Each Antiemetic; Rugby Travel Sickness; Rugby Travel Sickness Meclizine HCl 25 mg Each (Antiemetic); Rugby Travel Sickness Meclizine HCl, 25 mg Each (ANTIEMETIC); Rugby Travel Sickness Meclizine HCl, 25 mg Each (Antiemetic); Rugby Travel SicknessMeclizine HCl, 25 mg Each (ANTIEMETIC); RugbyMeclizine HCl, 12.5 mg Each ANTIEMETIC Meclizine HCl, 12.5 mg Each ANTIEMETIC; Sea-calm; Trav-L-tabs; Travel Ease; Travel Sickness Meclizine HCl; Travel Time; Travel-Ease; Verticalm; Wal Dram; Wal-Dram 2 Quick-Dissolving; Welly Travel Medicine Kit; Zentrip

> <INTERNATIONAL_BRANDS>
Chiclida; Meclicot; Navicalm; Nevidoxine; Postafen; Sea-Legs

> <SALTS>
Meclizine hydrochloride

$$$$