drugbank_target|O00591 Gamma-aminobutyric acid receptor subunit pi (DB00186; DB00189; DB00228; DB00231; DB00237; DB00241; DB00252; DB00292; DB00306; DB00312; DB00349; DB00371; DB00402; DB00404; DB00463; DB00475; DB00543; DB00546; DB00555; DB00603; DB00628; DB00659; DB00683; DB00690; DB00753; DB00794; DB00801; DB00818; DB00829; DB00842; DB00897; DB01028; DB01043; DB01068; DB01107; DB01159; DB01189; DB01205; DB01215; DB01236; DB01437; DB01489; DB01511; DB01544; DB01545; DB01553; DB01558; DB01559; DB01587; DB01588; DB01589; DB01594; DB01595; DB01708; DB01956; DB09017; DB09118; DB09166; DB11582; DB11859; DB11901; DB12404; DB12537; DB13335; DB13437; DB13643; DB13837; DB13872; DB14028; DB14672; DB14715; DB14719; DB15489)
 OpenBabel12092120353D

  0  0  0     0  0            999 V3000
M  V30 BEGIN CTAB
M  V30 COUNTS 7114 7196 0 0 0
M  V30 BEGIN ATOM
M  V30 1 H -0.908 1.98254 -0.117106 0
M  V30 2 N 0 1.576 0 0
M  V30 3 C 0.933 2.03868 1.02534 0
M  V30 4 C 1.911 0.928543 1.3348 0
M  V30 5 O 3.095 1.19667 1.45644 0
M  V30 6 C 0.222 2.43627 2.35294 0
M  V30 7 C -0.732 3.65373 2.2001 0
M  V30 8 S 0.101 5.13292 1.52614 0
M  V30 9 C 1.257 5.56322 2.86805 0
M  V30 10 H 1.49 2.90518 0.631377 0
M  V30 11 H -0.977 1.52953 0.210867 0
M  V30 12 H 0.981 2.67203 3.11629 0
M  V30 13 H -0.358 1.57376 2.7183 0
M  V30 14 H -1.165 3.90944 3.18086 0
M  V30 15 H -1.563 3.418 1.51819 0
M  V30 16 H 0.729 5.58782 3.83104 0
M  V30 17 H 1.672 6.56266 2.65933 0
M  V30 18 H 2.08 4.83886 2.90714 0
M  V30 19 N 1.4781 -0.272755 1.55222 0
M  V30 20 C 2.4261 -1.35705 1.88909 0
M  V30 21 C 3.4201 -1.5112 0.765456 0
M  V30 22 O 4.6261 -1.52901 0.949802 0
M  V30 23 H 1.0011 -0.453868 0.59959 0
M  V30 24 H 2.9721 -1.04544 2.79487 0
M  V30 25 C 1.7211 -2.71049 2.17779 0
M  V30 26 H 1.0441 -2.59979 3.03728 0
M  V30 27 H 2.4841 -3.45858 2.45272 0
M  V30 28 C 0.9431 -3.22165 0.985473 0
M  V30 29 O 1.4731 -4.01096 0.220233 0
M  V30 30 N -0.3209 -2.7985 0.783108 0
M  V30 31 H -0.7739 -2.15775 1.40708 0
M  V30 32 H -0.8159 -3.14397 -0.0130392 0
M  V30 33 N 2.9562 -1.48159 -0.537278 0
M  V30 34 C 4.1862 -1.59223 -1.3165 0
M  V30 35 C 4.5942 -0.248849 -1.87556 0
M  V30 36 O 3.9372 0.770949 -1.6674 0
M  V30 37 C 3.9992 -2.57365 -2.51005 0
M  V30 38 C 3.6632 -4.02603 -2.16239 0
M  V30 39 C 4.6602 -4.90503 -1.72344 0
M  V30 40 C 2.3452 -4.48088 -2.26986 0
M  V30 41 C 4.3392 -6.21913 -1.39651 0
M  V30 42 C 2.0262 -5.7952 -1.93906 0
M  V30 43 C 3.0242 -6.66255 -1.50309 0
M  V30 44 O 2.7122 -7.95243 -1.17659 0
M  V30 45 H 2.4442 -0.539831 -0.406889 0
M  V30 46 H 4.9982 -1.94655 -0.655641 0
M  V30 47 H 3.2282 -2.1704 -3.20048 0
M  V30 48 H 4.9172 -2.58342 -3.13072 0
M  V30 49 H 5.6832 -4.56604 -1.63517 0
M  V30 50 H 1.5622 -3.80769 -2.59877 0
M  V30 51 H 5.1062 -6.89569 -1.0555 0
M  V30 52 H 1.0032 -6.12957 -2.02371 0
M  V30 53 H 1.7712 -8.0793 -1.31119 0
M  V30 54 N 4.4343 0.785586 -1.36625 0
M  V30 55 C 5.6593 1.57963 -1.34397 0
M  V30 56 C 6.0843 1.87964 0.071526 0
M  V30 57 O 5.4423 1.48182 1.0446 0
M  V30 58 C 5.4903 2.87511 -2.17646 0
M  V30 59 O 4.5943 3.81281 -1.57158 0
M  V30 60 H 3.9353 0.479014 -0.459828 0
M  V30 61 H 6.4653 0.973411 -1.79961 0
M  V30 62 H 6.4753 3.36745 -2.30362 0
M  V30 63 H 5.1503 2.65002 -3.20541 0
M  V30 64 H 3.7273 3.39885 -1.53403 0
M  V30 65 N 5.9124 1.20967 1.01018 0
M  V30 66 C 6.8424 0.988272 2.11555 0
M  V30 67 C 7.8234 -0.0849778 1.69888 0
M  V30 68 O 9.0084 0.0738202 1.9406 0
M  V30 69 C 6.1384 0.546528 3.42973 0
M  V30 70 C 5.0924 1.56375 3.9841 0
M  V30 71 C 4.4184 0.97842 5.25672 0
M  V30 72 C 5.7184 2.94922 4.31066 0
M  V30 73 H 7.4124 1.91276 2.30334 0
M  V30 74 H 4.9584 0.921073 1.1069 0
M  V30 75 H 6.9114 0.378839 4.19694 0
M  V30 76 H 5.6354 -0.413598 3.23971 0
M  V30 77 H 4.2944 1.71891 3.23804 0
M  V30 78 H 3.9424 0.0101688 5.02999 0
M  V30 79 H 3.6424 1.65784 5.63728 0
M  V30 80 H 5.1664 0.821939 6.05043 0
M  V30 81 H 6.5804 2.8288 4.9865 0
M  V30 82 H 4.9774 3.5983 4.80253 0
M  V30 83 H 6.0474 3.4616 3.39561 0
M  V30 84 N 7.3905 -1.2043 1.01659 0
M  V30 85 C 8.3405 -2.21076 0.557623 0
M  V30 86 C 9.3245 -1.56176 -0.387029 0
M  V30 87 O 10.5165 -1.7575 -0.209996 0
M  V30 88 C 7.6455 -3.43146 -0.102707 0
M  V30 89 C 6.7315 -4.15213 0.863652 0
M  V30 90 N 7.1225 -4.63662 2.02117 0
M  V30 91 C 5.4205 -4.40716 0.684472 0
M  V30 92 C 6.1215 -5.18868 2.62966 0
M  V30 93 N 5.0975 -5.0893 1.91027 0
M  V30 94 H 8.8995 -2.56201 1.44008 0
M  V30 95 H 6.4135 -1.36366 0.881931 0
M  V30 96 H 8.4105 -4.14475 -0.449054 0
M  V30 97 H 7.0705 -3.09526 -0.981003 0
M  V30 98 H 8.0815 -4.58877 2.40109 0
M  V30 99 H 4.7585 -4.17245 -0.14577 0
M  V30 100 H 6.1485 -5.6673 3.60924 0
M  V30 101 N 8.8686 -0.792821 -1.36206 0
M  V30 102 C 9.7986 -0.207853 -2.32573 0
M  V30 103 C 10.7796 0.659055 -1.56813 0
M  V30 104 O 11.9646 0.592176 -1.84951 0
M  V30 105 C 9.0946 0.655449 -3.41059 0
M  V30 106 C 8.0486 -0.111842 -4.27854 0
M  V30 107 C 7.3746 0.872274 -5.27537 0
M  V30 108 C 8.6746 -1.30299 -5.05786 0
M  V30 109 H 10.3686 -1.01294 -2.81744 0
M  V30 110 H 7.9146 -0.48854 -1.3546 0
M  V30 111 H 9.8676 1.07464 -4.07467 0
M  V30 112 H 8.5916 1.49328 -2.90463 0
M  V30 113 H 7.2506 -0.512053 -3.63006 0
M  V30 114 H 6.8986 1.70523 -4.73214 0
M  V30 115 H 6.5986 0.363291 -5.86476 0
M  V30 116 H 8.1226 1.28996 -5.96818 0
M  V30 117 H 9.5366 -0.959379 -5.65216 0
M  V30 118 H 7.9336 -1.7455 -5.74154 0
M  V30 119 H 9.0036 -2.09663 -4.37229 0
M  V30 120 N 10.3467 1.47872 -0.545128 0
M  V30 121 C 11.3097 2.28337 0.198717 0
M  V30 122 C 12.3097 1.36255 0.853888 0
M  V30 123 O 13.4997 1.59003 0.711606 0
M  V30 124 C 10.6317 3.15585 1.28915 0
M  V30 125 H 11.8247 2.95567 -0.507941 0
M  V30 126 H 9.3777 1.53362 -0.301616 0
M  V30 127 H 10.1127 2.53019 2.02859 0
M  V30 128 H 9.8977 3.83337 0.824309 0
M  V30 129 H 11.3877 3.76243 1.81194 0
M  V30 130 N 11.8248 0.280983 1.55075 0
M  V30 131 C 13.0718 -0.334115 1.99725 0
M  V30 132 C 13.3998 -1.5542 1.1694 0
M  V30 133 O 12.6548 -1.94361 0.228531 0
M  V30 134 C 12.9538 -0.754656 3.49342 0
M  V30 135 C 12.6198 0.361445 4.49449 0
M  V30 136 C 11.2818 0.667893 4.76542 0
M  V30 137 C 13.6338 1.11322 5.09173 0
M  V30 138 C 10.9618 1.7296 5.60626 0
M  V30 139 C 13.3138 2.1647 5.9441 0
M  V30 140 C 11.9778 2.47742 6.19822 0
M  V30 141 H 11.2478 -0.122261 0.730844 0
M  V30 142 H 13.8948 0.395917 1.87363 0
M  V30 143 H 12.1998 -1.56446 3.5921 0
M  V30 144 H 13.8968 -1.24142 3.813 0
M  V30 145 H 10.4868 0.112481 4.28452 0
M  V30 146 H 14.6708 0.88973 4.8826 0
M  V30 147 H 9.9268 1.97684 5.78559 0
M  V30 148 H 14.1008 2.75193 6.3972 0
M  V30 149 H 11.7278 3.30145 6.84769 0
M  V30 150 N 13.3029 -1.57598 0.00835791 0
M  V30 151 C 14.5489 -1.91211 -0.675732 0
M  V30 152 C 14.8819 -0.883139 -1.72958 0
M  V30 153 O 14.1569 0.097016 -1.94258 0
M  V30 154 C 14.4399 -3.35379 -1.31123 0
M  V30 155 C 14.2929 -4.48999 -0.268356 0
M  V30 156 C 15.6119 -3.7912 -2.23508 0
M  V30 157 H 12.7309 -0.695374 -0.244179 0
M  V30 158 H 15.3729 -1.89901 0.0613655 0
M  V30 159 H 13.5229 -3.36626 -1.93946 0
M  V30 160 H 15.1949 -4.59887 0.360844 0
M  V30 161 H 13.4379 -4.31873 0.408482 0
M  V30 162 H 14.1089 -5.46851 -0.752218 0
M  V30 163 H 16.5849 -3.79477 -1.70693 0
M  V30 164 H 15.4609 -4.80729 -2.64936 0
M  V30 165 H 15.7219 -3.13455 -3.11766 0
M  V30 166 N 14.781 0.264519 -1.55364 0
M  V30 167 C 16.021 1.00254 -1.78125 0
M  V30 168 C 16.385 1.83187 -0.575017 0
M  V30 169 O 17.586 2.60029 -0.681042 0
M  V30 170 C 15.857 1.85478 -3.05504 0
M  V30 171 S 17.416 2.6543 -3.49417 0
M  V30 172 H 14.234 0.337522 -0.625779 0
M  V30 173 H 16.836 0.272111 -1.93597 0
M  V30 174 H 15.54 1.23491 -3.9138 0
M  V30 175 H 15.071 2.62827 -2.92721 0
M  V30 176 H 17.086 3.87958 -3.09359 0
M  V30 177 N 16.2591 1.48442 0.529413 0
M  V30 178 C 17.1891 1.65902 1.64313 0
M  V30 179 C 18.1701 0.507897 1.6234 0
M  V30 180 O 19.3551 0.740503 1.79528 0
M  V30 181 C 16.4851 1.69911 3.02898 0
M  V30 182 C 15.4391 2.8453 3.19729 0
M  V30 183 C 14.7651 2.73629 4.59381 0
M  V30 184 C 16.0651 4.25821 3.02447 0
M  V30 185 H 17.7591 2.5914 1.49955 0
M  V30 186 H 15.3051 1.24709 0.719982 0
M  V30 187 H 17.2581 1.80715 3.80684 0
M  V30 188 H 15.9821 0.732524 3.18279 0
M  V30 189 H 14.6411 2.73283 2.44361 0
M  V30 190 H 14.2891 1.74938 4.71599 0
M  V30 191 H 13.9891 3.50541 4.71588 0
M  V30 192 H 15.5131 2.86401 5.39265 0
M  V30 193 H 16.9271 4.37898 3.70024 0
M  V30 194 H 15.3241 5.03735 3.26146 0
M  V30 195 H 16.3941 4.42244 1.98867 0
M  V30 196 N 17.7372 -0.778329 1.37039 0
M  V30 197 C 18.9622 -1.57248 1.35233 0
M  V30 198 C 19.3872 -1.87999 -0.0615568 0
M  V30 199 O 18.7452 -1.48734 -1.03672 0
M  V30 200 C 18.7932 -2.86353 2.19167 0
M  V30 201 O 17.8972 -3.80442 1.59178 0
M  V30 202 H 17.2382 -0.476569 0.462362 0
M  V30 203 H 19.7682 -0.963853 1.80474 0
M  V30 204 H 19.7782 -3.35519 2.32145 0
M  V30 205 H 18.4532 -2.63299 3.21942 0
M  V30 206 H 17.0302 -3.39067 1.55203 0
M  V30 207 N 19.2153 -1.21501 -1.00376 0
M  V30 208 C 20.1453 -0.999478 -2.11028 0
M  V30 209 C 21.1263 0.0759671 -1.6993 0
M  V30 210 O 22.3113 -0.0841106 -1.94018 0
M  V30 211 C 19.4413 -0.564709 -3.42678 0
M  V30 212 C 18.3953 -1.58486 -3.97576 0
M  V30 213 C 17.7213 -1.00628 -5.25146 0
M  V30 214 C 19.0213 -2.97204 -4.29496 0
M  V30 215 H 20.7153 -1.92495 -2.29317 0
M  V30 216 H 18.2613 -0.92693 -1.102 0
M  V30 217 H 20.2143 -0.401091 -4.19487 0
M  V30 218 H 18.9383 0.396411 -3.24185 0
M  V30 219 H 17.5973 -1.73606 -3.22888 0
M  V30 220 H 17.2453 -0.0368439 -5.02987 0
M  V30 221 H 16.9453 -1.68771 -5.62841 0
M  V30 222 H 18.4693 -0.854015 -6.04598 0
M  V30 223 H 19.8833 -2.8552 -4.97143 0
M  V30 224 H 18.2803 -3.62372 -4.78338 0
M  V30 225 H 19.3503 -3.47956 -3.3772 0
M  V30 226 N 20.6934 1.19889 -1.02296 0
M  V30 227 C 21.9404 1.8942 -0.715972 0
M  V30 228 C 22.2684 1.79251 0.754944 0
M  V30 229 O 21.5234 1.17526 1.56481 0
M  V30 230 C 21.8224 3.39883 -1.10518 0
M  V30 231 C 21.4884 3.70254 -2.57337 0
M  V30 232 C 20.1504 3.78254 -2.97452 0
M  V30 233 C 22.5024 3.84052 -3.52354 0
M  V30 234 C 19.8304 3.97514 -4.31509 0
M  V30 235 C 22.1824 4.04824 -4.86108 0
M  V30 236 C 20.8464 4.11054 -5.25919 0
M  V30 237 H 20.1164 0.693138 -0.261993 0
M  V30 238 H 22.7634 1.42012 -1.28472 0
M  V30 239 H 21.0684 3.8915 -0.454953 0
M  V30 240 H 22.7654 3.9199 -0.845261 0
M  V30 241 H 19.3554 3.64632 -2.25258 0
M  V30 242 H 23.5394 3.77221 -3.22518 0
M  V30 243 H 18.7954 4.00574 -4.61898 0
M  V30 244 H 22.9694 4.14442 -5.59653 0
M  V30 245 H 20.5964 4.2573 -6.29808 0
M  V30 246 N 22.1715 0.800033 1.35784 0
M  V30 247 C 23.3995 0.389606 2.03199 0
M  V30 248 C 23.8145 -0.997375 1.60306 0
M  V30 249 O 23.1715 -1.64154 0.797481 0
M  V30 250 C 23.2225 0.455855 3.58614 0
M  V30 251 O 22.9435 1.78815 3.99946 0
M  V30 252 C 24.4445 0.0374032 4.43284 0
M  V30 253 H 21.6645 0.159132 0.651857 0
M  V30 254 H 24.2085 1.08183 1.73541 0
M  V30 255 H 22.3635 -0.188057 3.86943 0
M  V30 256 H 22.7775 1.74636 4.94573 0
M  V30 257 H 24.2515 0.134882 5.51835 0
M  V30 258 H 24.7285 -1.01651 4.27275 0
M  V30 259 H 25.3345 0.654215 4.20238 0
M  V30 260 N 23.6496 -1.47581 0.552962 0
M  V30 261 C 24.5596 -2.33743 -0.200353 0
M  V30 262 C 25.5756 -1.47928 -0.916151 0
M  V30 263 O 26.7516 -1.80865 -0.885993 0
M  V30 264 C 23.8166 -3.24536 -1.21973 0
M  V30 265 C 22.8776 -4.26238 -0.511819 0
M  V30 266 C 22.1106 -5.12693 -1.48263 0
M  V30 267 O 22.3336 -5.01525 -2.71714 0
M  V30 268 O 21.2676 -5.93375 -1.00945 0
M  V30 269 H 25.0936 -2.9945 0.506304 0
M  V30 270 H 22.6786 -1.46071 0.313622 0
M  V30 271 H 24.5606 -3.80631 -1.80827 0
M  V30 272 H 23.2356 -2.61462 -1.90839 0
M  V30 273 H 22.1426 -3.73914 0.117799 0
M  V30 274 H 23.4756 -4.92014 0.135308 0
M  V30 275 N 25.1277 -0.289203 -1.54924 0
M  V30 276 C 26.5437 0.0645403 -1.59469 0
M  V30 277 C 26.7437 1.53419 -1.30632 0
M  V30 278 O 25.7997 2.2852 -1.074 0
M  V30 279 C 27.1127 -0.32278 -2.98963 0
M  V30 280 C 28.6607 -0.270564 -3.11828 0
M  V30 281 C 29.1357 -0.632532 -4.53611 0
M  V30 282 N 30.6267 -0.584617 -4.59496 0
M  V30 283 C 31.3617 -0.837314 -5.67254 0
M  V30 284 N 30.8577 -1.15536 -6.83098 0
M  V30 285 N 32.6507 -0.765166 -5.56868 0
M  V30 286 H 24.8017 -1.24714 -1.71931 0
M  V30 287 H 27.0647 -0.504809 -0.802416 0
M  V30 288 H 26.7707 -1.34541 -3.24948 0
M  V30 289 H 26.6447 0.32944 -3.75759 0
M  V30 290 H 29.0317 0.742805 -2.85598 0
M  V30 291 H 29.1127 -0.957242 -2.37214 0
M  V30 292 H 28.7567 -1.64365 -4.80569 0
M  V30 293 H 28.6867 0.07609 -5.26545 0
M  V30 294 H 31.1777 -0.349248 -3.76283 0
M  V30 295 H 31.4907 -1.33447 -7.61191 0
M  V30 296 H 29.8357 -1.19328 -6.84679 0
M  V30 297 H 33.0267 -0.516432 -4.65243 0
M  V30 298 H 33.1997 -0.965477 -6.40767 0
M  V30 299 N 26.6058 1.57591 -0.0167156 0
M  V30 300 C 27.5388 2.04944 1.00366 0
M  V30 301 C 28.5168 0.942648 1.32487 0
M  V30 302 O 29.7008 1.21205 1.44367 0
M  V30 303 C 26.8278 2.46109 2.32697 0
M  V30 304 C 25.8738 3.67686 2.16123 0
M  V30 305 S 26.7068 5.14882 1.47161 0
M  V30 306 C 27.8628 5.59332 2.80888 0
M  V30 307 H 28.0958 2.91172 0.600528 0
M  V30 308 H 25.6288 1.53168 0.194632 0
M  V30 309 H 27.5868 2.70493 3.08778 0
M  V30 310 H 26.2478 1.6025 2.70146 0
M  V30 311 H 25.4408 3.94296 3.13922 0
M  V30 312 H 25.0428 3.43391 1.48185 0
M  V30 313 H 27.3348 5.62814 3.77156 0
M  V30 314 H 28.2778 6.5905 2.58958 0
M  V30 315 H 28.6858 4.86942 2.85565 0
M  V30 316 N 28.0839 -0.256276 1.55502 0
M  V30 317 C 29.3239 -0.993081 1.78654 0
M  V30 318 C 29.6879 -1.8288 0.584724 0
M  V30 319 O 30.8889 -2.59665 0.694822 0
M  V30 320 C 29.1599 -1.83856 3.06483 0
M  V30 321 S 30.7189 -2.63573 3.5082 0
M  V30 322 H 27.5369 -0.334199 0.62756 0
M  V30 323 H 30.1389 -0.26184 1.93739 0
M  V30 324 H 28.8429 -1.21414 3.92029 0
M  V30 325 H 28.3739 -2.61271 2.94111 0
M  V30 326 H 30.3889 -3.86312 3.11412 0
M  V30 327 N 29.562 -1.4872 -0.521534 0
M  V30 328 C 30.811 -1.56419 -1.27341 0
M  V30 329 C 31.124 -0.246805 -1.94037 0
M  V30 330 O 32.33 -0.202122 -2.70747 0
M  V30 331 C 30.786 -2.75896 -2.31105 0
M  V30 332 C 30.394 -4.14311 -1.70441 0
M  V30 333 C 32.138 -2.92913 -3.07249 0
M  V30 334 C 30.045 -5.25038 -2.72194 0
M  V30 335 H 28.975 -0.582344 -0.478949 0
M  V30 336 H 31.626 -1.75071 -0.549779 0
M  V30 337 H 30.008 -2.50697 -3.06541 0
M  V30 338 H 31.182 -4.49564 -1.01136 0
M  V30 339 H 29.497 -4.02482 -1.06759 0
M  V30 340 H 32.094 -3.72805 -3.83302 0
M  V30 341 H 32.437 -2.02689 -3.63625 0
M  V30 342 H 32.97 -3.18054 -2.38928 0
M  V30 343 H 29.709 -6.17255 -2.20627 0
M  V30 344 H 29.229 -4.94263 -3.39801 0
M  V30 345 H 30.908 -5.53508 -3.35019 0
M  V30 346 N 31.0401 0.771051 -1.3745 0
M  V30 347 C 31.9721 1.89352 -1.29146 0
M  V30 348 C 32.9851 1.61477 -0.207124 0
M  V30 349 O 34.1741 1.72382 -0.463324 0
M  V30 350 C 31.2741 3.24596 -0.974195 0
M  V30 351 C 30.4471 3.80111 -2.16413 0
M  V30 352 C 29.5061 4.93832 -1.81703 0
M  V30 353 O 28.5321 5.09382 -2.54006 0
M  V30 354 N 29.7341 5.75483 -0.761573 0
M  V30 355 H 32.4991 1.96991 -2.25864 0
M  V30 356 H 30.0601 0.950191 -1.31084 0
M  V30 357 H 32.0521 3.98193 -0.722828 0
M  V30 358 H 30.6221 3.12454 -0.0955527 0
M  V30 359 H 29.8421 2.98284 -2.57721 0
M  V30 360 H 31.1301 4.13932 -2.95867 0
M  V30 361 H 30.5281 5.65469 -0.161609 0
M  V30 362 H 29.0851 6.49302 -0.570064 0
M  V30 363 N 32.5182 1.22032 0.997298 0
M  V30 364 C 33.7662 1.04016 1.73278 0
M  V30 365 C 34.0872 -0.426255 1.90284 0
M  V30 366 O 33.3572 -1.30694 1.45931 0
M  V30 367 H 31.9372 0.381897 0.642 0
M  V30 368 H 34.5992 1.5347 1.20137 0
M  V30 369 H 33.6952 1.51441 2.72896 0
M  V30 370 N 33.9963 -1.19345 1.0293 0
M  V30 371 C 35.2213 -1.93538 0.745511 0
M  V30 372 C 35.6463 -1.75007 -0.689511 0
M  V30 373 O 35.0043 -1.05265 -1.47611 0
M  V30 374 C 35.0523 -3.43336 1.10239 0
M  V30 375 O 34.1563 -4.11806 0.221289 0
M  V30 376 H 33.4973 -0.604193 0.275404 0
M  V30 377 H 36.0273 -1.5141 1.37609 0
M  V30 378 H 36.0373 -3.94004 1.05947 0
M  V30 379 H 34.7123 -3.56146 2.14786 0
M  V30 380 H 33.2893 -3.715 0.322842 0
M  V30 381 N 35.4744 -0.807222 -1.35358 0
M  V30 382 C 36.4064 -0.175717 -2.28525 0
M  V30 383 C 37.4194 0.625354 -1.5031 0
M  V30 384 O 38.6084 0.457611 -1.72535 0
M  V30 385 C 35.7084 0.773471 -3.29956 0
M  V30 386 C 34.8814 0.0186296 -4.37396 0
M  V30 387 C 33.9404 0.886395 -5.18681 0
M  V30 388 O 32.9664 0.337106 -5.68201 0
M  V30 389 N 34.1684 2.20839 -5.36852 0
M  V30 390 H 36.9334 -0.976091 -2.83359 0
M  V30 391 H 34.4944 -0.662737 -1.47714 0
M  V30 392 H 36.4864 1.35824 -3.81227 0
M  V30 393 H 35.0564 1.47465 -2.75632 0
M  V30 394 H 34.2764 -0.747349 -3.87051 0
M  V30 395 H 35.5644 -0.501577 -5.06322 0
M  V30 396 H 34.9624 2.67858 -4.98265 0
M  V30 397 H 33.5194 2.74237 -5.91301 0
M  V30 398 N 36.9525 1.47285 -0.560781 0
M  V30 399 C 38.1995 2.02464 -0.038062 0
M  V30 400 C 38.5275 1.43474 1.31322 0
M  V30 401 O 37.7825 0.581311 1.86867 0
M  V30 402 C 38.0815 3.57258 0.100784 0
M  V30 403 C 37.7475 4.35184 -1.18007 0
M  V30 404 C 36.4095 4.56194 -1.53103 0
M  V30 405 C 38.7615 4.80098 -2.02867 0
M  V30 406 C 36.0895 5.19367 -2.729 0
M  V30 407 C 38.4415 5.44593 -3.21871 0
M  V30 408 C 37.1055 5.63835 -3.57276 0
M  V30 409 H 36.3755 0.740869 -0.0139279 0
M  V30 410 H 39.0225 1.76916 -0.733012 0
M  V30 411 H 37.3275 3.81819 0.878724 0
M  V30 412 H 39.0245 3.97606 0.520639 0
M  V30 413 H 35.6145 4.19113 -0.8968 0
M  V30 414 H 39.7985 4.63642 -1.7706 0
M  V30 415 H 35.0545 5.32459 -3.00496 0
M  V30 416 H 39.2285 5.78358 -3.87911 0
M  V30 417 H 36.8555 6.12557 -4.50197 0
M  V30 418 N 38.4306 0.297415 1.54768 0
M  V30 419 C 39.3786 -0.596051 2.24833 0
M  V30 420 C 40.3726 -1.13992 1.25308 0
M  V30 421 O 41.5786 -1.09098 1.4317 0
M  V30 422 H 37.9536 -0.210814 0.721846 0
M  V30 423 H 39.9246 0.0174667 2.98395 0
M  V30 424 C 38.6736 -1.75818 2.99972 0
M  V30 425 H 37.9966 -1.3489 3.76357 0
M  V30 426 H 39.4366 -2.35949 3.52284 0
M  V30 427 C 37.8956 -2.66014 2.06732 0
M  V30 428 O 38.4256 -3.67009 1.63302 0
M  V30 429 N 36.6316 -2.33669 1.72763 0
M  V30 430 H 36.1786 -1.51586 2.08277 0
M  V30 431 H 36.1366 -2.94285 1.10652 0
M  V30 432 N 39.9087 -1.5758 0.0250728 0
M  V30 433 C 41.1547 -1.91917 -0.655413 0
M  V30 434 C 41.4877 -0.901433 -1.72011 0
M  V30 435 O 40.7627 0.0764069 -1.9435 0
M  V30 436 C 41.0457 -3.36751 -1.27558 0
M  V30 437 C 40.8987 -4.49258 -0.220719 0
M  V30 438 C 42.2177 -3.81469 -2.19475 0
M  V30 439 H 39.3367 -0.697925 -0.23679 0
M  V30 440 H 41.9787 -1.89825 0.0815036 0
M  V30 441 H 40.1287 -3.38664 -1.90365 0
M  V30 442 H 41.8007 -4.59478 0.409601 0
M  V30 443 H 40.0437 -4.31415 0.454264 0
M  V30 444 H 40.7147 -5.47618 -0.694175 0
M  V30 445 H 43.1907 -3.81266 -1.66659 0
M  V30 446 H 42.0667 -4.83512 -2.59822 0
M  V30 447 H 42.3277 -3.16744 -3.08424 0
M  V30 448 N 41.3868 0.248026 -1.55636 0
M  V30 449 C 42.2968 1.32859 -1.93354 0
M  V30 450 C 43.3128 1.52719 -0.833838 0
M  V30 451 O 44.4888 1.66363 -1.13513 0
M  V30 452 C 41.5538 2.66337 -2.21958 0
M  V30 453 C 40.6148 2.55008 -3.45354 0
M  V30 454 C 39.8478 3.82121 -3.72584 0
M  V30 455 O 40.0708 4.83951 -3.01907 0
M  V30 456 O 39.0048 3.80822 -4.6611 0
M  V30 457 H 42.8308 1.03862 -2.85388 0
M  V30 458 H 40.4158 0.448686 -1.42503 0
M  V30 459 H 42.2978 3.45216 -2.4167 0
M  V30 460 H 40.9728 2.95068 -1.33103 0
M  V30 461 H 39.8798 1.7442 -3.30951 0
M  V30 462 H 41.2128 2.31222 -4.34508 0
M  V30 463 N 42.8649 1.48995 0.513639 0
M  V30 464 C 44.1109 1.58076 1.27042 0
M  V30 465 C 44.4439 0.261026 1.92438 0
M  V30 466 O 43.7189 -0.734393 1.80103 0
M  V30 467 C 44.0019 2.73091 2.34719 0
M  V30 468 C 43.8549 4.14821 1.73907 0
M  V30 469 C 45.1739 2.83796 3.36375 0
M  V30 470 H 42.2929 0.575391 0.460536 0
M  V30 471 H 44.9349 1.81232 0.570516 0
M  V30 472 H 43.0849 2.53479 2.94416 0
M  V30 473 H 44.7569 4.45917 1.18135 0
M  V30 474 H 42.9999 4.21058 1.0437 0
M  V30 475 H 43.6709 4.91147 2.51949 0
M  V30 476 H 46.1469 3.01611 2.86653 0
M  V30 477 H 45.0229 3.65971 4.09093 0
M  V30 478 H 45.2839 1.92624 3.9793 0
M  V30 479 N 44.343 -0.763751 1.37857 0
M  V30 480 C 45.591 -1.51957 1.33243 0
M  V30 481 C 45.912 -1.94835 -0.0801709 0
M  V30 482 O 45.182 -1.66894 -1.02582 0
M  V30 483 H 43.762 -0.563626 0.49024 0
M  V30 484 H 46.424 -0.908504 1.7243 0
M  V30 485 H 45.52 -2.41523 1.97669 0
M  V30 486 N 45.8211 -1.22559 -0.990812 0
M  V30 487 C 47.2371 -0.985996 -1.255 0
M  V30 488 C 47.4371 0.319173 -1.98956 0
M  V30 489 O 46.4931 1.04127 -2.3003 0
M  V30 490 C 47.8061 -2.18607 -2.06474 0
M  V30 491 C 49.3541 -2.22985 -2.19651 0
M  V30 492 C 49.8291 -3.4255 -3.04012 0
M  V30 493 N 51.3201 -3.42725 -3.11599 0
M  V30 494 C 52.0551 -4.31892 -3.7717 0
M  V30 495 N 51.5511 -5.31279 -4.44651 0
M  V30 496 N 53.3441 -4.19662 -3.73952 0
M  V30 497 H 45.4951 -2.06469 -0.49841 0
M  V30 498 H 47.7581 -0.904853 -0.282747 0
M  V30 499 H 47.4641 -3.13267 -1.59865 0
M  V30 500 H 47.3381 -2.18838 -3.07229 0
M  V30 501 H 49.7251 -1.28871 -2.65474 0
M  V30 502 H 49.8061 -2.26791 -1.18319 0
M  V30 503 H 49.4501 -4.36965 -2.58889 0
M  V30 504 H 49.3801 -3.35984 -4.0549 0
M  V30 505 H 51.8711 -2.70807 -2.63575 0
M  V30 506 H 52.1841 -5.95593 -4.92431 0
M  V30 507 H 50.5291 -5.3519 -4.43392 0
M  V30 508 H 53.7201 -3.41268 -3.20396 0
M  V30 509 H 53.8931 -4.89358 -4.24774 0
M  V30 510 N 47.2992 1.18797 -1.03562 0
M  V30 511 C 48.5242 1.9314 -0.755764 0
M  V30 512 C 48.9492 1.7537 0.68022 0
M  V30 513 O 48.3072 1.06046 1.47051 0
M  V30 514 C 48.3552 3.42747 -1.12058 0
M  V30 515 O 47.4592 4.11683 -0.243124 0
M  V30 516 H 46.8002 0.602724 -0.278604 0
M  V30 517 H 49.3302 1.50678 -1.3841 0
M  V30 518 H 49.3402 3.93437 -1.08035 0
M  V30 519 H 48.0152 3.55002 -2.16672 0
M  V30 520 H 46.5922 3.71323 -0.342539 0
M  V30 521 N 48.7773 0.814389 1.34928 0
M  V30 522 C 50.0543 0.321363 1.92942 0
M  V30 523 C 50.4343 -1.19014 1.74353 0
M  V30 524 O 49.7823 -1.99328 1.11716 0
M  V30 525 C 49.9923 0.741323 3.41036 0
M  V30 526 C 51.3403 0.735266 4.18185 0
M  V30 527 O 52.3643 0.68336 3.49584 0
M  V30 528 O 51.2233 0.800703 5.40602 0
M  V30 529 H 48.3173 0.0858893 0.822528 0
M  V30 530 H 50.8633 0.898609 1.43955 0
M  V30 531 H 49.6353 1.78276 3.4833 0
M  V30 532 H 49.2583 0.139307 3.97356 0
M  V30 533 N 50.2554 -1.46986 0.568584 0
M  V30 534 C 51.2024 -2.30153 -0.172707 0
M  V30 535 C 52.1724 -1.39759 -0.897586 0
M  V30 536 O 53.3574 -1.68716 -0.891044 0
M  V30 537 C 50.4974 -3.23952 -1.1895 0
M  V30 538 C 49.6104 -4.29441 -0.469517 0
M  V30 539 C 48.7454 -5.1038 -1.47259 0
M  V30 540 C 47.7844 -6.07632 -0.738225 0
M  V30 541 N 46.9214 -6.8149 -1.68868 0
M  V30 542 H 51.7614 -2.93019 0.542596 0
M  V30 543 H 49.2984 -1.44422 0.279401 0
M  V30 544 H 51.2564 -3.76767 -1.79173 0
M  V30 545 H 49.8864 -2.62926 -1.87269 0
M  V30 546 H 48.9384 -3.79594 0.247467 0
M  V30 547 H 50.2504 -4.98689 0.105241 0
M  V30 548 H 49.4044 -5.67402 -2.14803 0
M  V30 549 H 48.1434 -4.4106 -2.08128 0
M  V30 550 H 47.1484 -5.49778 -0.0489293 0
M  V30 551 H 48.3734 -6.78966 -0.135129 0
M  V30 552 H 46.3194 -6.14891 -2.28573 0
M  V30 553 H 46.2364 -7.46948 -1.16636 0
M  V30 554 H 47.5044 -7.43078 -2.3549 0
M  V30 555 N 51.7335 -0.305618 -1.54608 0
M  V30 556 C 52.6635 0.561482 -2.26649 0
M  V30 557 C 53.6445 1.13415 -1.26772 0
M  V30 558 O 54.8295 1.16262 -1.55553 0
M  V30 559 C 51.9595 1.73122 -3.01075 0
M  V30 560 C 50.9135 1.2887 -4.08138 0
M  V30 561 C 50.2395 2.54396 -4.70305 0
M  V30 562 C 51.5395 0.416578 -5.20636 0
M  V30 563 H 53.2335 -0.0393902 -2.99374 0
M  V30 564 H 50.7795 -0.020385 -1.43986 0
M  V30 565 H 52.7325 2.34396 -3.50195 0
M  V30 566 H 51.4565 2.3584 -2.25936 0
M  V30 567 H 50.1155 0.698991 -3.59875 0
M  V30 568 H 49.7635 3.15439 -3.918 0
M  V30 569 H 49.4635 2.25486 -5.42614 0
M  V30 570 H 50.9875 3.16464 -5.2219 0
M  V30 571 H 52.4015 0.935116 -5.65622 0
M  V30 572 H 50.7985 0.221046 -5.99693 0
M  V30 573 H 51.8685 -0.557162 -4.81688 0
M  V30 574 N 53.2116 1.57565 -0.0334293 0
M  V30 575 C 54.4366 1.96689 0.657895 0
M  V30 576 C 54.8616 0.910057 1.64619 0
M  V30 577 O 54.2196 -0.128598 1.80843 0
M  V30 578 C 54.2676 3.34905 1.33683 0
M  V30 579 O 53.3716 3.31574 2.45219 0
M  V30 580 H 52.7126 0.641205 0.172489 0
M  V30 581 H 55.2426 2.04372 -0.0965621 0
M  V30 582 H 55.2526 3.71234 1.69262 0
M  V30 583 H 53.9276 4.11366 0.612411 0
M  V30 584 H 52.5046 3.06968 2.11719 0
M  V30 585 N 54.6897 -0.239769 1.55765 0
M  V30 586 C 55.6197 -1.30052 1.9393 0
M  V30 587 C 56.6007 -1.49839 0.805132 0
M  V30 588 O 57.7857 -1.62328 1.06599 0
M  V30 589 C 54.9157 -2.65391 2.2402 0
M  V30 590 C 53.8697 -2.60289 3.39755 0
M  V30 591 C 53.1957 -3.99489 3.55405 0
M  V30 592 C 54.4957 -2.16654 4.75246 0
M  V30 593 H 56.1897 -0.983573 2.82783 0
M  V30 594 H 53.7357 -0.471701 1.36055 0
M  V30 595 H 55.6887 -3.3974 2.49308 0
M  V30 596 H 54.4127 -2.98736 1.32 0
M  V30 597 H 53.0717 -1.88398 3.14487 0
M  V30 598 H 52.7197 -4.30112 2.60793 0
M  V30 599 H 52.4197 -3.96962 4.33238 0
M  V30 600 H 53.9437 -4.75528 3.83022 0
M  V30 601 H 55.3577 -2.80737 4.99859 0
M  V30 602 H 53.7547 -2.25223 5.56232 0
M  V30 603 H 54.8247 -1.11835 4.71827 0
M  V30 604 N 56.1678 -1.49265 -0.50573 0
M  V30 605 C 57.5788 -1.51769 -1.08734 0
M  V30 606 C 57.9298 -0.301192 -1.93874 0
M  V30 607 O 57.0548 0.589456 -2.08217 0
M  V30 608 C 57.6498 -2.75017 -1.97867 0
M  V30 609 C 56.2088 -2.80314 -2.51199 0
M  V30 610 C 55.3558 -2.4562 -1.28709 0
M  V30 611 H 58.3068 -1.56031 -0.289855 0
M  V30 612 H 58.3278 -2.5491 -2.82491 0
M  V30 613 H 57.8398 -3.63539 -1.35873 0
M  V30 614 H 55.9408 -1.96061 -3.16845 0
M  V30 615 H 56.0538 -3.82366 -2.88675 0
M  V30 616 H 54.4178 -1.97297 -1.61078 0
M  V30 617 H 55.2008 -3.36411 -0.6843 0
M  V30 618 N 57.6459 0.756429 -1.3826 0
M  V30 619 C 58.8939 1.51248 -1.34047 0
M  V30 620 C 59.2149 1.94875 0.0698372 0
M  V30 621 O 58.4849 1.67436 1.01696 0
M  V30 622 H 57.0649 0.561018 -0.493222 0
M  V30 623 H 59.7269 0.899347 -1.7291 0
M  V30 624 H 58.8229 2.40472 -1.98947 0
M  V30 625 N 59.124 1.23083 0.984299 0
M  V30 626 C 60.371 1.06057 1.72505 0
M  V30 627 C 60.699 -0.403105 1.90277 0
M  V30 628 O 59.954 -1.3149 1.44944 0
M  V30 629 C 60.253 1.72673 3.1292 0
M  V30 630 C 59.919 3.22586 3.15038 0
M  V30 631 C 58.581 3.63489 3.15324 0
M  V30 632 C 60.933 4.185 3.10657 0
M  V30 633 C 58.261 4.98772 3.08939 0
M  V30 634 C 60.613 5.53769 3.05814 0
M  V30 635 C 59.277 5.94041 3.04419 0
M  V30 636 H 58.547 0.388091 0.631242 0
M  V30 637 H 61.194 1.52963 1.15215 0
M  V30 638 H 59.499 1.18116 3.73572 0
M  V30 639 H 61.196 1.56982 3.68996 0
M  V30 640 H 57.786 2.90022 3.15571 0
M  V30 641 H 61.97 3.87911 3.09579 0
M  V30 642 H 57.226 5.29193 3.0621 0
M  V30 643 H 61.4 6.27808 3.0138 0
M  V30 644 H 59.027 6.98833 2.99227 0
M  V30 645 N 60.6021 -1.18246 1.0419 0
M  V30 646 C 61.5121 -2.25574 0.644476 0
M  V30 647 C 62.5281 -1.70845 -0.329826 0
M  V30 648 O 63.7041 -2.00554 -0.184443 0
M  V30 649 C 60.7691 -3.46697 0.014877 0
M  V30 650 C 59.8301 -4.16554 1.03834 0
M  V30 651 C 59.0631 -5.31894 0.438692 0
M  V30 652 O 59.2861 -5.65385 -0.754752 0
M  V30 653 O 58.2201 -5.90459 1.168 0
M  V30 654 H 62.0461 -2.61836 1.53869 0
M  V30 655 H 59.6311 -1.25352 0.812854 0
M  V30 656 H 61.5131 -4.20062 -0.335538 0
M  V30 657 H 60.1881 -3.12255 -0.853138 0
M  V30 658 H 59.0951 -3.45251 1.44057 0
M  V30 659 H 60.4281 -4.54998 1.87716 0
M  V30 660 N 62.0802 -0.821533 -1.34494 0
M  V30 661 C 63.0282 -0.230702 -2.31453 0
M  V30 662 C 64.0222 0.627793 -1.57338 0
M  V30 663 O 65.2282 0.519288 -1.72347 0
M  V30 664 H 61.6032 -0.0558577 -0.749923 0
M  V30 665 H 63.5742 -1.06332 -2.78812 0
M  V30 666 C 62.3232 0.59391 -3.4259 0
M  V30 667 H 61.6462 -0.0573588 -3.99759 0
M  V30 668 H 63.0862 0.973446 -4.12674 0
M  V30 669 C 61.5452 1.76568 -2.86924 0
M  V30 670 O 62.0752 2.8638 -2.81691 0
M  V30 671 N 60.2812 1.58198 -2.43766 0
M  V30 672 H 59.8282 0.68872 -2.48222 0
M  V30 673 H 59.7862 2.36752 -2.06871 0
M  V30 674 N 63.5583 1.46682 -0.576371 0
M  V30 675 C 64.4883 2.33028 0.148397 0
M  V30 676 C 65.4693 1.44961 0.889956 0
M  V30 677 O 66.6543 1.73789 0.866662 0
M  V30 678 C 63.7843 3.27117 1.1667 0
M  V30 679 C 62.7383 4.24575 0.540386 0
M  V30 680 C 62.0643 5.08126 1.6647 0
M  V30 681 C 63.3643 5.19722 -0.518331 0
M  V30 682 H 65.0583 2.93875 -0.572509 0
M  V30 683 H 62.6043 1.41315 -0.276768 0
M  V30 684 H 64.5573 3.86374 1.68204 0
M  V30 685 H 63.2813 2.64364 1.9178 0
M  V30 686 H 61.9403 3.66571 0.0461769 0
M  V30 687 H 61.5883 4.41762 2.40531 0
M  V30 688 H 61.2883 5.74122 1.25131 0
M  V30 689 H 62.8123 5.70246 2.18293 0
M  V30 690 H 64.2263 5.73232 -0.0883058 0
M  V30 691 H 62.6233 5.94026 -0.851679 0
M  V30 692 H 63.6933 4.64037 -1.40703 0
M  V30 693 N 65.0364 0.313813 1.54444 0
M  V30 694 C 66.2644 -0.293918 2.04802 0
M  V30 695 C 66.6794 -1.46537 1.19047 0
M  V30 696 O 66.0364 -1.81182 0.218939 0
M  V30 697 C 66.0874 -0.737806 3.53891 0
M  V30 698 O 65.8084 0.387038 4.36387 0
M  V30 699 C 67.3094 -1.40936 4.203 0
M  V30 700 H 64.5294 -0.0620057 0.668129 0
M  V30 701 H 67.0734 0.457169 1.99324 0
M  V30 702 H 65.2284 -1.43889 3.59687 0
M  V30 703 H 65.6424 0.0391274 5.24485 0
M  V30 704 H 67.1164 -1.67099 5.26101 0
M  V30 705 H 67.5934 -2.35355 3.70816 0
M  V30 706 H 68.1994 -0.751117 4.18615 0
M  V30 707 N 66.5145 -1.57545 0.0417849 0
M  V30 708 C 67.4775 -2.09885 -0.92093 0
M  V30 709 C 68.4775 -1.01648 -1.24596 0
M  V30 710 O 69.6675 -1.27759 -1.1842 0
M  V30 711 C 66.7995 -2.57527 -2.23367 0
M  V30 712 H 67.9925 -2.96236 -0.467382 0
M  V30 713 H 65.5455 -1.5493 -0.206467 0
M  V30 714 H 66.2805 -1.74542 -2.73323 0
M  V30 715 H 66.0655 -3.36613 -2.01083 0
M  V30 716 H 67.5555 -2.98201 -2.92346 0
M  V30 717 N 67.9926 0.231505 -1.5589 0
M  V30 718 C 69.2406 0.955461 -1.78088 0
M  V30 719 C 69.5616 1.85262 -0.608533 0
M  V30 720 O 68.8316 1.92277 0.375035 0
M  V30 721 H 67.4116 0.355787 -0.656829 0
M  V30 722 H 70.0736 0.245751 -1.93344 0
M  V30 723 H 69.1696 1.56814 -2.69844 0
M  V30 724 N 69.4707 1.49531 0.497807 0
M  V30 725 C 70.7007 1.62657 1.27382 0
M  V30 726 C 71.1087 0.298488 1.86831 0
M  V30 727 O 70.4517 -0.72647 1.68725 0
M  V30 728 C 70.5137 2.6393 2.44093 0
M  V30 729 C 70.1777 4.08195 2.05489 0
M  V30 730 C 71.1747 4.949 1.59279 0
M  V30 731 C 68.8597 4.53948 2.15026 0
M  V30 732 C 70.8537 6.25397 1.23113 0
M  V30 733 C 68.5407 5.84458 1.78473 0
M  V30 734 C 69.5387 6.70006 1.32591 0
M  V30 735 O 69.2267 7.98083 0.965327 0
M  V30 736 H 68.9587 0.550429 0.392434 0
M  V30 737 H 71.5127 1.96325 0.603801 0
M  V30 738 H 69.7427 2.25449 3.14181 0
M  V30 739 H 71.4317 2.66552 3.06113 0
M  V30 740 H 72.1977 4.60779 1.51354 0
M  V30 741 H 68.0767 3.87525 2.4969 0
M  V30 742 H 71.6207 6.92125 0.872299 0
M  V30 743 H 67.5177 6.18107 1.86048 0
M  V30 744 H 68.2857 8.11122 1.09652 0
M  V30 745 N 70.9488 -0.749086 1.3866 0
M  V30 746 C 71.8968 -1.88428 1.36373 0
M  V30 747 C 72.8908 -1.67561 0.248929 0
M  V30 748 O 74.0968 -1.75074 0.41821 0
M  V30 749 H 70.4718 -0.620023 0.42553 0
M  V30 750 H 72.4428 -1.87473 2.32156 0
M  V30 751 C 71.1918 -3.25961 1.21014 0
M  V30 752 H 70.5148 -3.42607 2.06059 0
M  V30 753 H 71.9548 -4.05625 1.23469 0
M  V30 754 C 70.4138 -3.36799 -0.0825941 0
M  V30 755 O 70.9438 -3.87517 -1.05797 0
M  V30 756 N 69.1498 -2.90258 -0.140939 0
M  V30 757 H 68.6968 -2.49174 0.653477 0
M  V30 758 H 68.6548 -2.97889 -1.00545 0
M  V30 759 N 72.4269 -1.23603 -0.977757 0
M  V30 760 C 73.3739 -1.01954 -2.07061 0
M  V30 761 C 74.3439 0.0638697 -1.65977 0
M  V30 762 O 75.5289 -0.0887624 -1.90593 0
M  V30 763 C 72.6689 -0.619658 -3.39491 0
M  V30 764 C 71.7819 -1.77547 -3.93829 0
M  V30 765 C 70.9169 -1.32212 -5.14484 0
M  V30 766 C 69.9559 -2.44852 -5.60994 0
M  V30 767 N 69.0929 -2.00456 -6.72876 0
M  V30 768 H 73.9329 -1.95495 -2.24913 0
M  V30 769 H 71.4699 -0.973861 -1.10247 0
M  V30 770 H 73.4279 -0.368898 -4.15566 0
M  V30 771 H 72.0579 0.278752 -3.21594 0
M  V30 772 H 71.1099 -2.14016 -3.14486 0
M  V30 773 H 72.4219 -2.62219 -4.24314 0
M  V30 774 H 71.5759 -1.02965 -5.97899 0
M  V30 775 H 70.3149 -0.445808 -4.85658 0
M  V30 776 H 69.3199 -2.74871 -4.76157 0
M  V30 777 H 70.5449 -3.33024 -5.91837 0
M  V30 778 H 68.4909 -1.15208 -6.45804 0
M  V30 779 H 68.4079 -2.78687 -7.02759 0
M  V30 780 H 69.6759 -1.7432 -7.59758 0
M  V30 781 N 73.905 1.17692 -1.04816 0
M  V30 782 C 75.152 1.87859 -0.75599 0
M  V30 783 C 75.48 1.80812 0.716752 0
M  V30 784 O 74.735 1.20819 1.53952 0
M  V30 785 C 75.034 3.37462 -1.17703 0
M  V30 786 C 74.7 3.64713 -2.65133 0
M  V30 787 C 73.362 3.71859 -3.05408 0
M  V30 788 C 75.714 3.76492 -3.60421 0
M  V30 789 C 73.042 3.88271 -4.39843 0
M  V30 790 C 75.394 3.94421 -4.94585 0
M  V30 791 C 74.058 3.99806 -5.3452 0
M  V30 792 H 73.328 0.687425 -0.276636 0
M  V30 793 H 75.975 1.39255 -1.31455 0
M  V30 794 H 74.28 3.88097 -0.537395 0
M  V30 795 H 75.977 3.90109 -0.928218 0
M  V30 796 H 72.567 3.59772 -2.32942 0
M  V30 797 H 76.751 3.70295 -3.30447 0
M  V30 798 H 72.007 3.90687 -4.70291 0
M  V30 799 H 76.181 4.02477 -5.68318 0
M  V30 800 H 73.808 4.12276 -6.38696 0
M  V30 801 N 75.3831 0.828654 1.34056 0
M  V30 802 C 76.3131 0.269443 2.3194 0
M  V30 803 C 77.2941 -0.617247 1.58506 0
M  V30 804 O 78.4791 -0.542931 1.86456 0
M  V30 805 C 75.6091 -0.564793 3.42677 0
M  V30 806 C 74.5631 0.225241 4.27407 0
M  V30 807 C 73.8891 -0.7321 5.29664 0
M  V30 808 C 75.1891 1.43663 5.02154 0
M  V30 809 H 76.8831 1.08728 2.7896 0
M  V30 810 H 74.4291 0.524283 1.34117 0
M  V30 811 H 76.3821 -0.966233 4.10173 0
M  V30 812 H 75.1061 -1.41574 2.9432 0
M  V30 813 H 73.7651 0.608117 3.61521 0
M  V30 814 H 73.4131 -1.57916 4.77568 0
M  V30 815 H 73.1131 -0.20767 5.87233 0
M  V30 816 H 74.6371 -1.13128 6.00029 0
M  V30 817 H 76.0511 1.1089 5.62473 0
M  V30 818 H 74.4481 1.89711 5.69324 0
M  V30 819 H 75.5181 2.21181 4.31517 0
M  V30 820 N 76.8612 -1.46375 0.584142 0
M  V30 821 C 78.2772 -1.57694 0.245929 0
M  V30 822 C 78.4772 -1.57903 -1.25175 0
M  V30 823 O 77.5332 -1.49676 -2.03355 0
M  V30 824 C 78.8462 -2.87028 0.896402 0
M  V30 825 C 80.3942 -3.00662 0.870127 0
M  V30 826 C 80.8692 -4.32734 1.50017 0
M  V30 827 N 82.3602 -4.39436 1.46458 0
M  V30 828 C 83.0952 -5.40248 1.92144 0
M  V30 829 N 82.5912 -6.47726 2.4581 0
M  V30 830 N 84.3842 -5.31459 1.83052 0
M  V30 831 H 76.5352 -1.44483 1.55687 0
M  V30 832 H 78.7982 -0.689291 0.650831 0
M  V30 833 H 78.5042 -2.9269 1.95002 0
M  V30 834 H 78.3782 -3.75014 0.405486 0
M  V30 835 H 80.7652 -2.94581 -0.174871 0
M  V30 836 H 80.8462 -2.14148 1.39908 0
M  V30 837 H 80.4902 -4.39573 2.54437 0
M  V30 838 H 80.4202 -5.18025 0.946432 0
M  V30 839 H 82.9112 -3.62367 1.07231 0
M  V30 840 H 83.2242 -7.20863 2.78525 0
M  V30 841 H 81.5692 -6.48542 2.49836 0
M  V30 842 H 84.7602 -4.46396 1.40883 0
M  V30 843 H 84.9332 -6.09881 2.18973 0
M  V30 844 N 78.3393 -0.321999 -1.54275 0
M  V30 845 C 79.7503 0.166384 -1.85957 0
M  V30 846 C 80.1013 1.51747 -1.24367 0
M  V30 847 O 79.2263 2.09317 -0.549124 0
M  V30 848 C 79.8213 0.308681 -3.37391 0
M  V30 849 C 78.3803 0.741286 -3.69028 0
M  V30 850 C 77.5273 -0.137937 -2.76957 0
M  V30 851 H 80.4783 -0.542335 -1.49146 0
M  V30 852 H 80.4993 1.13984 -3.63026 0
M  V30 853 H 80.0113 -0.674809 -3.82188 0
M  V30 854 H 78.1123 1.73458 -3.29762 0
M  V30 855 H 78.2253 0.546118 -4.75977 0
M  V30 856 H 76.5893 0.386251 -2.51754 0
M  V30 857 H 77.3723 -1.11816 -3.2458 0
M  V30 858 N 79.8174 1.5752 -0.0501392 0
M  V30 859 C 80.7654 2.12651 0.942459 0
M  V30 860 C 81.7594 1.05807 1.32292 0
M  V30 861 O 82.9654 1.24217 1.3027 0
M  V30 862 H 79.3404 0.679673 0.321789 0
M  V30 863 H 81.3114 2.94951 0.452356 0
M  V30 864 C 80.0604 2.68565 2.20836 0
M  V30 865 H 79.3834 3.50439 1.92439 0
M  V30 866 H 80.8234 3.10761 2.8845 0
M  V30 867 C 79.2824 1.62291 2.95234 0
M  V30 868 O 79.8124 1.03508 3.88135 0
M  V30 869 N 78.0184 1.33836 2.57946 0
M  V30 870 H 77.5654 1.81826 1.82475 0
M  V30 871 H 77.5234 0.629595 3.08032 0
M  V30 872 N 81.2955 -0.223234 1.56011 0
M  V30 873 C 82.5425 -0.947875 1.78946 0
M  V30 874 C 82.8705 -1.844 0.618608 0
M  V30 875 O 82.1255 -1.91629 -0.397093 0
M  V30 876 C 82.4245 -1.81948 3.0762 0
M  V30 877 C 82.0905 -1.07672 4.37856 0
M  V30 878 C 80.7525 -0.871544 4.73242 0
M  V30 879 C 83.1045 -0.552081 5.18268 0
M  V30 880 C 80.4325 -0.129791 5.86556 0
M  V30 881 C 82.7845 0.17632 6.32354 0
M  V30 882 C 81.4485 0.39277 6.66343 0
M  V30 883 H 80.7185 -0.346852 0.654809 0
M  V30 884 H 83.3655 -0.216171 1.90276 0
M  V30 885 H 81.6705 -2.61899 2.91404 0
M  V30 886 H 83.3675 -2.38227 3.22566 0
M  V30 887 H 79.9575 -1.24662 4.1007 0
M  V30 888 H 84.1415 -0.698076 4.91366 0
M  V30 889 H 79.3975 0.048153 6.11381 0
M  V30 890 H 83.5715 0.590367 6.93893 0
M  V30 891 H 81.1985 0.969466 7.53993 0
M  V30 892 N 82.7736 -1.49793 -0.48987 0
M  V30 893 C 84.0216 -1.59525 -1.24081 0
M  V30 894 C 84.3426 -0.288953 -1.92847 0
M  V30 895 O 83.6126 0.692436 -1.83254 0
M  V30 896 H 82.1926 -0.587796 -0.460983 0
M  V30 897 H 84.8546 -1.86477 -0.566778 0
M  V30 898 H 83.9506 -2.39696 -1.99881 0
M  V30 899 N 84.2517 0.741722 -1.39055 0
M  V30 900 C 85.4997 1.49818 -1.35643 0
M  V30 901 C 85.8207 1.94938 0.0491642 0
M  V30 902 O 85.0907 1.68505 0.999141 0
M  V30 903 H 83.6707 0.555755 -0.499144 0
M  V30 904 H 86.3327 0.880957 -1.73854 0
M  V30 905 H 85.4287 2.38348 -2.01486 0
M  V30 906 N 85.7298 1.2412 0.971189 0
M  V30 907 C 86.6398 1.04747 2.09917 0
M  V30 908 C 87.6558 -0.0107162 1.73997 0
M  V30 909 O 88.8318 0.186714 2.00533 0
M  V30 910 C 85.8968 0.650828 3.40537 0
M  V30 911 C 84.9578 1.7851 3.90426 0
M  V30 912 C 84.1908 1.40729 5.14812 0
M  V30 913 O 84.4138 0.29557 5.69634 0
M  V30 914 O 83.3478 2.23168 5.58999 0
M  V30 915 H 87.1738 1.99304 2.29154 0
M  V30 916 H 84.7588 1.02908 1.08307 0
M  V30 917 H 86.6408 0.440992 4.19086 0
M  V30 918 H 85.3158 -0.265649 3.22608 0
M  V30 919 H 84.2228 2.04966 3.12953 0
M  V30 920 H 85.5558 2.68023 4.12825 0
M  V30 921 N 87.2079 -1.17134 1.05439 0
M  V30 922 C 88.6189 -1.69084 0.791676 0
M  V30 923 C 88.9699 -1.83822 -0.685839 0
M  V30 924 O 88.0949 -1.52757 -1.53278 0
M  V30 925 C 88.6899 -3.07119 1.4305 0
M  V30 926 C 87.2489 -3.56225 1.21577 0
M  V30 927 C 86.3959 -2.32421 1.51247 0
M  V30 928 H 89.3469 -1.01617 1.219 0
M  V30 929 H 89.3679 -3.71087 0.84112 0
M  V30 930 H 88.8799 -2.9636 2.50584 0
M  V30 931 H 86.9809 -3.72257 0.159787 0
M  V30 932 H 87.0939 -4.38837 1.92246 0
M  V30 933 H 85.4579 -2.3701 0.932653 0
M  V30 934 H 86.2409 -2.24268 2.5992 0
M  V30 935 N 88.686 -0.835752 -1.33615 0
M  V30 936 C 89.932 -0.430596 -1.98176 0
M  V30 937 C 90.265 1.00684 -1.66061 0
M  V30 938 O 89.54 1.70339 -0.938877 0
M  V30 939 C 89.823 -0.648065 -3.5422 0
M  V30 940 C 89.676 -2.13255 -3.96033 0
M  V30 941 C 90.995 -0.0922113 -4.40003 0
M  V30 942 H 88.114 -0.157924 -0.719881 0
M  V30 943 H 90.756 -1.05069 -1.58305 0
M  V30 944 H 88.906 -0.120237 -3.88314 0
M  V30 945 H 90.578 -2.725 -3.72211 0
M  V30 946 H 88.821 -2.61823 -3.45878 0
M  V30 947 H 89.492 -2.23547 -5.04708 0
M  V30 948 H 91.968 -0.543343 -4.12537 0
M  V30 949 H 90.844 -0.274083 -5.48215 0
M  V30 950 H 91.105 1.00378 -4.30554 0
M  V30 951 N 90.1641 1.46063 -0.591896 0
M  V30 952 C 91.0961 2.28539 0.174001 0
M  V30 953 C 92.1091 1.39047 0.846753 0
M  V30 954 O 93.2981 1.63564 0.714774 0
M  V30 955 C 90.3981 3.14347 1.26645 0
M  V30 956 C 89.5711 4.32021 0.683856 0
M  V30 957 C 88.6301 4.99157 1.66518 0
M  V30 958 O 87.6561 5.56458 1.19763 0
M  V30 959 N 88.8581 4.97005 2.99943 0
M  V30 960 H 91.6231 2.94911 -0.533633 0
M  V30 961 H 89.1841 1.56077 -0.430294 0
M  V30 962 H 91.1761 3.56125 1.92242 0
M  V30 963 H 89.7461 2.49988 1.87682 0
M  V30 964 H 88.9661 3.93915 -0.1498 0
M  V30 965 H 90.2541 5.08059 0.274567 0
M  V30 966 H 89.6521 4.51714 3.40545 0
M  V30 967 H 88.2091 5.42696 3.61004 0
M  V30 968 N 91.6422 0.330177 1.54103 0
M  V30 969 C 92.8912 -0.271336 1.99867 0
M  V30 970 C 93.2042 -1.52723 1.22209 0
M  V30 971 O 94.4102 -2.20515 1.58383 0
M  V30 972 C 92.8662 -0.534032 3.55916 0
M  V30 973 C 92.4742 0.705193 4.42415 0
M  V30 974 C 94.2182 -1.09514 4.1013 0
M  V30 975 C 92.1252 0.414035 5.89949 0
M  V30 976 H 91.0552 -0.105166 0.74663 0
M  V30 977 H 93.7062 0.443429 1.78062 0
M  V30 978 H 92.0882 -1.30915 3.73734 0
M  V30 979 H 93.2622 1.4804 4.36372 0
M  V30 980 H 91.5772 1.18698 3.99124 0
M  V30 981 H 94.1742 -1.3277 5.17954 0
M  V30 982 H 94.5172 -2.04656 3.62521 0
M  V30 983 H 95.0502 -0.381038 3.95971 0
M  V30 984 H 91.7892 1.33481 6.41766 0
M  V30 985 H 91.3092 -0.323336 5.98928 0
M  V30 986 H 92.9882 0.0263105 6.46995 0
M  V30 987 N 93.1203 -1.57491 0.0584922 0
M  V30 988 C 94.0833 -2.1085 -0.898617 0
M  V30 989 C 95.0833 -1.02964 -1.23511 0
M  V30 990 O 96.2733 -1.29007 -1.17059 0
M  V30 991 C 93.4053 -2.59881 -2.20623 0
M  V30 992 H 94.5983 -2.96715 -0.435936 0
M  V30 993 H 92.1513 -1.55141 -0.190023 0
M  V30 994 H 92.8863 -1.77431 -2.71457 0
M  V30 995 H 92.6713 -3.38727 -1.97501 0
M  V30 996 H 94.1613 -3.01285 -2.89166 0
M  V30 997 N 94.5984 0.214957 -1.56127 0
M  V30 998 C 95.5284 1.2695 -1.95974 0
M  V30 999 C 96.5094 1.48539 -0.828868 0
M  V30 1000 O 97.6944 1.60611 -1.09168 0
M  V30 1001 C 94.8244 2.61794 -2.28214 0
M  V30 1002 C 93.7784 2.54851 -3.43853 0
M  V30 1003 C 93.1044 3.93785 -3.61715 0
M  V30 1004 C 94.4044 2.09065 -4.78632 0
M  V30 1005 H 96.0984 0.93846 -2.84312 0
M  V30 1006 H 93.6444 0.449996 -1.36788 0
M  V30 1007 H 95.5974 3.35731 -2.54682 0
M  V30 1008 H 94.3214 2.96599 -1.36736 0
M  V30 1009 H 92.9804 1.8337 -3.17444 0
M  V30 1010 H 92.6284 4.25908 -2.67602 0
M  V30 1011 H 92.3284 3.90019 -4.39498 0
M  V30 1012 H 93.8524 4.69374 -3.90539 0
M  V30 1013 H 95.2664 2.7275 -5.04262 0
M  V30 1014 H 93.6634 2.16346 -5.59745 0
M  V30 1015 H 94.7334 1.04315 -4.73547 0
M  V30 1016 N 96.0765 1.50051 0.48192 0
M  V30 1017 C 97.3045 1.64237 1.25832 0
M  V30 1018 C 97.7195 0.321336 1.86045 0
M  V30 1019 O 97.0765 -0.695478 1.68729 0
M  V30 1020 C 97.1275 2.72548 2.37487 0
M  V30 1021 O 96.8485 3.99529 1.79745 0
M  V30 1022 C 98.3495 2.9761 3.28547 0
M  V30 1023 H 95.5695 0.55237 0.380957 0
M  V30 1024 H 98.1135 1.96207 0.576467 0
M  V30 1025 H 96.2685 2.43303 3.01467 0
M  V30 1026 H 96.6825 4.59342 2.5319 0
M  V30 1027 H 98.1565 3.77084 4.03127 0
M  V30 1028 H 98.6335 2.0826 3.86684 0
M  V30 1029 H 99.2395 3.28345 2.70314 0
M  V30 1030 N 97.5546 -0.734337 1.39446 0
M  V30 1031 C 98.4846 -1.86155 1.40955 0
M  V30 1032 C 99.4656 -1.67898 0.272827 0
M  V30 1033 O 100.651 -1.88207 0.478743 0
M  V30 1034 C 97.7806 -3.23912 1.25294 0
M  V30 1035 C 96.7346 -3.56808 2.36373 0
M  V30 1036 C 96.0606 -4.93508 2.058 0
M  V30 1037 C 97.3606 -3.59713 3.78687 0
M  V30 1038 H 99.0546 -1.8515 2.35287 0
M  V30 1039 H 96.6006 -0.889367 1.13253 0
M  V30 1040 H 98.5536 -4.02443 1.2497 0
M  V30 1041 H 97.2776 -3.25446 0.274308 0
M  V30 1042 H 95.9366 -2.80606 2.35914 0
M  V30 1043 H 95.5846 -4.91623 1.06374 0
M  V30 1044 H 95.2846 -5.16486 2.80208 0
M  V30 1045 H 96.8086 -5.74396 2.07128 0
M  V30 1046 H 98.2226 -4.2832 3.81071 0
M  V30 1047 H 96.6196 -3.94209 4.52459 0
M  V30 1048 H 97.6896 -2.59504 4.09617 0
M  V30 1049 N 99.0327 -1.24633 -0.964593 0
M  V30 1050 C 100.31 -0.995809 -1.68354 0
M  V30 1051 C 100.69 0.480964 -2.05548 0
M  V30 1052 O 100.038 1.45599 -1.76105 0
M  V30 1053 C 100.248 -1.92177 -2.91323 0
M  V30 1054 C 101.596 -2.19446 -3.63495 0
M  V30 1055 O 102.62 -1.89855 -3.01386 0
M  V30 1056 O 101.479 -2.69714 -4.75307 0
M  V30 1057 H 98.5727 -0.376854 -0.736146 0
M  V30 1058 H 101.119 -1.35745 -1.0184 0
M  V30 1059 H 99.8907 -2.91938 -2.60553 0
M  V30 1060 H 99.5137 -1.56349 -3.65569 0
M  V30 1061 N 100.511 1.16574 -1.06058 0
M  V30 1062 C 101.76 1.86385 -0.770944 0
M  V30 1063 C 102.073 1.82448 0.705129 0
M  V30 1064 O 103.279 2.47815 1.10905 0
M  V30 1065 C 101.735 3.34466 -1.32893 0
M  V30 1066 C 101.343 3.46883 -2.83507 0
M  V30 1067 C 103.087 4.09548 -1.11672 0
M  V30 1068 C 100.994 4.89036 -3.32562 0
M  V30 1069 H 99.9238 0.698181 -0.284709 0
M  V30 1070 H 102.575 1.31583 -1.27899 0
M  V30 1071 H 100.957 3.88859 -0.748662 0
M  V30 1072 H 102.131 3.02663 -3.47465 0
M  V30 1073 H 100.446 2.85232 -3.03368 0
M  V30 1074 H 103.043 5.14434 -1.45814 0
M  V30 1075 H 103.386 4.16264 -0.0549535 0
M  V30 1076 H 103.919 3.61387 -1.66265 0
M  V30 1077 H 100.658 4.87499 -4.38207 0
M  V30 1078 H 100.178 5.3389 -2.73351 0
M  V30 1079 H 101.857 5.57843 -3.2775 0
M  V30 1080 N 101.989 0.842826 1.3317 0
M  V30 1081 C 102.952 0.284065 2.27433 0
M  V30 1082 C 103.952 -0.54948 1.5112 0
M  V30 1083 O 105.142 -0.362699 1.70382 0
M  V30 1084 C 102.274 -0.599384 3.35589 0
M  V30 1085 H 103.467 1.11589 2.78366 0
M  V30 1086 H 101.02 0.616221 1.4364 0
M  V30 1087 H 101.755 -1.45349 2.89904 0
M  V30 1088 H 101.54 -0.00291266 3.921 0
M  V30 1089 H 103.03 -0.983488 4.05854 0
M  V30 1090 N 103.467 -1.45747 0.599634 0
M  V30 1091 C 104.692 -2.07178 0.0960198 0
M  V30 1092 C 105.117 -1.44268 -1.207 0
M  V30 1093 O 104.475 -0.532503 -1.73303 0
M  V30 1094 C 104.523 -3.60579 -0.0385348 0
M  V30 1095 O 103.627 -3.97713 -1.0908 0
M  V30 1096 H 102.968 -0.660251 0.0704593 0
M  V30 1097 H 105.498 -1.87124 0.827385 0
M  V30 1098 H 105.508 -4.07298 -0.239304 0
M  V30 1099 H 104.183 -4.05756 0.912947 0
M  V30 1100 H 102.76 -3.62678 -0.867135 0
M  V30 1101 N 104.945 -0.338344 -1.53925 0
M  V30 1102 C 106.194 0.260732 -2.00008 0
M  V30 1103 C 106.507 1.52073 -1.23017 0
M  V30 1104 O 107.713 2.19672 -1.5955 0
M  V30 1105 C 106.169 0.51515 -3.56194 0
M  V30 1106 C 105.777 -0.728645 -4.42035 0
M  V30 1107 C 107.521 1.07337 -4.10706 0
M  V30 1108 C 105.428 -0.445315 -5.89721 0
M  V30 1109 H 104.358 0.101205 -0.747177 0
M  V30 1110 H 107.009 -0.452866 -1.77824 0
M  V30 1111 H 105.391 1.28932 -3.74423 0
M  V30 1112 H 106.565 -1.50352 -4.35581 0
M  V30 1113 H 104.88 -1.20813 -3.98489 0
M  V30 1114 H 107.477 1.30022 -5.18651 0
M  V30 1115 H 107.82 2.0273 -3.63602 0
M  V30 1116 H 108.353 0.360034 -3.96167 0
M  V30 1117 H 105.092 -1.36883 -6.41049 0
M  V30 1118 H 104.612 0.291569 -5.99091 0
M  V30 1119 H 106.291 -0.0606218 -6.46972 0
M  V30 1120 N 106.423 1.57458 -0.0668435 0
M  V30 1121 C 107.648 1.9804 0.616027 0
M  V30 1122 C 108.073 0.944771 1.62652 0
M  V30 1123 O 107.431 -0.0902094 1.81075 0
M  V30 1124 C 107.479 3.37665 1.26549 0
M  V30 1125 O 106.583 3.36701 2.38131 0
M  V30 1126 H 105.924 0.644719 0.158849 0
M  V30 1127 H 108.454 2.04121 -0.139891 0
M  V30 1128 H 108.464 3.7474 1.6135 0
M  V30 1129 H 107.139 4.12573 0.525016 0
M  V30 1130 H 105.716 3.1139 2.0516 0
M  V30 1131 N 107.901 -0.206675 1.56239 0
M  V30 1132 C 109.126 -0.949474 1.8439 0
M  V30 1133 C 109.551 -1.76549 0.649016 0
M  V30 1134 O 108.909 -1.76782 -0.402231 0
M  V30 1135 C 108.957 -1.83078 3.10668 0
M  V30 1136 O 108.061 -2.9281 2.90407 0
M  V30 1137 H 107.402 -0.268033 0.607499 0
M  V30 1138 H 109.932 -0.215488 2.03462 0
M  V30 1139 H 109.942 -2.2377 3.41161 0
M  V30 1140 H 108.617 -1.23112 3.97261 0
M  V30 1141 H 107.194 -2.55956 2.71184 0
M  V30 1142 N 109.379 -1.50304 -0.473955 0
M  V30 1143 C 110.628 -1.60392 -1.22301 0
M  V30 1144 C 110.941 -0.308411 -1.93153 0
M  V30 1145 O 112.147 -0.288156 -2.69966 0
M  V30 1146 C 110.603 -2.83109 -2.2221 0
M  V30 1147 C 110.211 -4.19524 -1.57173 0
M  V30 1148 C 111.955 -3.0254 -2.97775 0
M  V30 1149 C 109.862 -5.33431 -2.55353 0
M  V30 1150 H 108.792 -0.597286 -0.460179 0
M  V30 1151 H 111.443 -1.76731 -0.493803 0
M  V30 1152 H 109.825 -2.60322 -2.9841 0
M  V30 1153 H 110.999 -4.52554 -0.867824 0
M  V30 1154 H 109.314 -4.05674 -0.939002 0
M  V30 1155 H 111.911 -3.84811 -3.71248 0
M  V30 1156 H 112.254 -2.14154 -3.56992 0
M  V30 1157 H 112.787 -3.25494 -2.28688 0
M  V30 1158 H 109.526 -6.23962 -2.00878 0
M  V30 1159 H 109.046 -5.04823 -3.23904 0
M  V30 1160 H 110.725 -5.63887 -3.17239 0
M  V30 1161 N 110.857 0.726932 -1.39834 0
M  V30 1162 C 112.082 1.52121 -1.40976 0
M  V30 1163 C 112.507 1.88098 -0.00826029 0
M  V30 1164 O 111.865 1.52479 0.980807 0
M  V30 1165 C 111.913 2.78021 -2.29644 0
M  V30 1166 O 111.017 3.74272 -1.73188 0
M  V30 1167 H 110.358 0.45908 -0.479731 0
M  V30 1168 H 112.888 0.896207 -1.83927 0
M  V30 1169 H 112.898 3.26671 -2.44438 0
M  V30 1170 H 111.573 2.51169 -3.31492 0
M  V30 1171 H 110.15 3.33073 -1.6768 0
M  V30 1172 N 112.336 1.25143 0.95797 0
M  V30 1173 C 113.246 1.06968 2.08794 0
M  V30 1174 C 114.262 0.00773911 1.73998 0
M  V30 1175 O 115.438 0.207972 2.00323 0
M  V30 1176 C 112.503 0.68691 3.39827 0
M  V30 1177 C 111.564 1.82641 3.88511 0
M  V30 1178 C 110.797 1.46181 5.1329 0
M  V30 1179 O 111.02 0.355971 5.69288 0
M  V30 1180 O 109.954 2.29085 5.566 0
M  V30 1181 H 113.78 2.01723 2.27027 0
M  V30 1182 H 111.365 1.04051 1.07209 0
M  V30 1183 H 113.247 0.485417 4.18595 0
M  V30 1184 H 111.922 -0.231417 3.22872 0
M  V30 1185 H 110.829 2.08274 3.10762 0
M  V30 1186 H 112.162 2.72386 4.09959 0
M  V30 1187 N 113.814 -1.1601 1.06675 0
M  V30 1188 C 115.039 -1.91068 0.806706 0
M  V30 1189 C 115.464 -1.77112 -0.633485 0
M  V30 1190 O 114.822 -1.09908 -1.44187 0
M  V30 1191 C 114.87 -3.39655 1.21106 0
M  V30 1192 O 113.974 -4.10893 0.352189 0
M  V30 1193 H 113.315 -0.595125 0.294486 0
M  V30 1194 H 115.845 -1.46955 1.42356 0
M  V30 1195 H 115.855 -3.90434 1.18428 0
M  V30 1196 H 114.53 -3.49132 2.26008 0
M  V30 1197 H 113.107 -3.70285 0.440868 0
M  V30 1198 N 115.292 -0.849877 -1.32721 0
M  V30 1199 C 116.24 -0.279745 -2.30912 0
M  V30 1200 C 117.234 0.594278 -1.58634 0
M  V30 1201 O 118.44 0.482613 -1.73409 0
M  V30 1202 H 114.815 -0.0717521 -0.748569 0
M  V30 1203 H 116.786 -1.12222 -2.76494 0
M  V30 1204 C 115.535 0.521108 -3.43773 0
M  V30 1205 H 114.858 -0.142141 -3.99547 0
M  V30 1206 H 116.298 0.885693 -4.14646 0
M  V30 1207 C 114.757 1.70442 -2.90605 0
M  V30 1208 O 115.287 2.8034 -2.87702 0
M  V30 1209 N 113.493 1.52991 -2.47067 0
M  V30 1210 H 113.04 0.635914 -2.49628 0
M  V30 1211 H 112.998 2.32311 -2.11847 0
M  V30 1212 N 116.77 1.45427 -0.607355 0
M  V30 1213 C 117.703 2.27635 0.160482 0
M  V30 1214 C 118.681 1.37122 0.873857 0
M  V30 1215 O 119.865 1.66551 0.882775 0
M  V30 1216 C 116.992 3.15486 1.23231 0
M  V30 1217 C 116.038 4.21939 0.622097 0
M  V30 1218 S 116.871 5.32459 -0.569852 0
M  V30 1219 C 118.027 6.23879 0.502577 0
M  V30 1220 H 118.26 2.9241 -0.536983 0
M  V30 1221 H 115.793 1.49265 -0.394868 0
M  V30 1222 H 117.751 3.66659 1.84585 0
M  V30 1223 H 116.412 2.49977 1.90185 0
M  V30 1224 H 115.605 4.8333 1.42856 0
M  V30 1225 H 115.207 3.73906 0.0837063 0
M  V30 1226 H 117.499 6.63261 1.38171 0
M  V30 1227 H 118.442 7.0806 -0.0751759 0
M  V30 1228 H 118.85 5.58545 0.8178 0
M  V30 1229 N 118.248 0.346503 1.53744 0
M  V30 1230 C 119.525 -0.304532 1.93215 0
M  V30 1231 C 119.905 -1.67993 1.27834 0
M  V30 1232 O 119.253 -2.24411 0.430352 0
M  V30 1233 C 119.463 -0.373852 3.46992 0
M  V30 1234 C 120.811 -0.62329 4.2 0
M  V30 1235 O 121.835 -0.455847 3.53271 0
M  V30 1236 O 120.694 -0.947879 5.38217 0
M  V30 1237 H 117.788 -0.178318 0.807547 0
M  V30 1238 H 120.334 0.397895 1.64969 0
M  V30 1239 H 119.106 0.591224 3.86808 0
M  V30 1240 H 118.729 -1.12294 3.81413 0
M  V30 1241 N 119.726 -1.57421 0.075193 0
M  V30 1242 C 120.956 -1.97659 -0.601203 0
M  V30 1243 C 121.364 -0.952427 -1.63479 0
M  V30 1244 O 120.707 0.0688241 -1.83571 0
M  V30 1245 C 120.769 -3.34218 -1.32434 0
M  V30 1246 C 120.433 -4.5484 -0.443826 0
M  V30 1247 C 121.43 -5.19034 0.299969 0
M  V30 1248 C 119.115 -5.00952 -0.367709 0
M  V30 1249 C 121.109 -6.27695 1.10807 0
M  V30 1250 C 118.796 -6.09484 0.444058 0
M  V30 1251 C 119.794 -6.72719 1.18061 0
M  V30 1252 O 119.482 -7.79161 1.97898 0
M  V30 1253 H 119.214 -0.65494 -0.167422 0
M  V30 1254 H 121.768 -2.04886 0.145157 0
M  V30 1255 H 119.998 -3.23615 -2.11685 0
M  V30 1256 H 121.687 -3.59038 -1.89331 0
M  V30 1257 H 122.453 -4.84351 0.250776 0
M  V30 1258 H 118.332 -4.51509 -0.930638 0
M  V30 1259 H 121.876 -6.76982 1.68347 0
M  V30 1260 H 117.773 -6.43601 0.494803 0
M  V30 1261 H 118.541 -7.96055 1.90367 0
M  V30 1262 N 121.204 0.198386 -1.56346 0
M  V30 1263 C 122.432 0.935572 -1.84539 0
M  V30 1264 C 122.847 1.76989 -0.657281 0
M  V30 1265 O 122.204 1.78626 0.374043 0
M  V30 1266 C 122.255 1.8344 -3.11499 0
M  V30 1267 O 121.976 1.03377 -4.25728 0
M  V30 1268 C 123.477 2.68355 -3.52846 0
M  V30 1269 H 120.697 0.273126 -0.612897 0
M  V30 1270 H 123.241 0.20663 -2.03453 0
M  V30 1271 H 121.396 2.51701 -2.94492 0
M  V30 1272 H 121.81 1.64599 -4.98003 0
M  V30 1273 H 123.284 3.27085 -4.44657 0
M  V30 1274 H 123.761 3.41901 -2.75681 0
M  V30 1275 H 124.367 2.05471 -3.72373 0
M  V30 1276 N 122.682 1.50554 0.465978 0
M  V30 1277 C 123.645 1.69233 1.54574 0
M  V30 1278 C 124.645 0.562901 1.50626 0
M  V30 1279 O 125.835 0.830016 1.53155 0
M  V30 1280 C 122.967 1.7223 2.94193 0
M  V30 1281 H 124.16 2.65571 1.39327 0
M  V30 1282 H 121.713 1.40111 0.692711 0
M  V30 1283 H 122.448 0.77603 3.14878 0
M  V30 1284 H 122.233 2.54285 2.98466 0
M  V30 1285 H 123.723 1.88618 3.72576 0
M  V30 1286 N 124.16 -0.719506 1.40217 0
M  V30 1287 C 125.388 -1.50864 1.41589 0
M  V30 1288 C 125.803 -1.88794 0.0145275 0
M  V30 1289 O 125.16 -1.55174 -0.960594 0
M  V30 1290 C 125.211 -2.78646 2.30302 0
M  V30 1291 O 124.932 -2.42321 3.64983 0
M  V30 1292 C 126.433 -3.72569 2.40224 0
M  V30 1293 H 123.653 -0.465709 0.48307 0
M  V30 1294 H 126.197 -0.88785 1.84221 0
M  V30 1295 H 124.352 -3.37019 1.91042 0
M  V30 1296 H 124.766 -3.24514 4.12057 0
M  V30 1297 H 126.24 -4.5908 3.06512 0
M  V30 1298 H 126.717 -4.15403 1.42608 0
M  V30 1299 H 127.323 -3.20109 2.80019 0
M  V30 1300 N 125.638 -1.25649 -0.95132 0
M  V30 1301 C 126.887 -1.09988 -1.69073 0
M  V30 1302 C 127.2 0.358355 -1.92289 0
M  V30 1303 O 128.406 0.635466 -2.63958 0
M  V30 1304 C 126.862 -1.92012 -3.044 0
M  V30 1305 C 126.47 -3.42347 -2.88968 0
M  V30 1306 C 128.214 -1.8493 -3.82101 0
M  V30 1307 C 126.121 -4.16655 -4.19705 0
M  V30 1308 H 125.051 -0.407993 -0.63408 0
M  V30 1309 H 127.702 -1.49873 -1.05879 0
M  V30 1310 H 126.084 -1.44952 -3.68517 0
M  V30 1311 H 127.258 -3.97104 -2.33762 0
M  V30 1312 H 125.573 -3.50557 -2.24719 0
M  V30 1313 H 128.17 -2.37739 -4.78941 0
M  V30 1314 H 128.513 -0.817883 -4.08187 0
M  V30 1315 H 129.046 -2.29758 -3.2474 0
M  V30 1316 H 125.785 -5.20224 -3.98807 0
M  V30 1317 H 125.305 -3.66681 -4.74663 0
M  V30 1318 H 126.984 -4.24551 -4.88227 0
M  V30 1319 N 127.117 1.15442 -1.07289 0
M  V30 1320 C 128.347 1.89821 -0.815576 0
M  V30 1321 C 128.755 1.7823 0.634867 0
M  V30 1322 O 128.098 1.13152 1.44715 0
M  V30 1323 C 128.16 3.40817 -1.14385 0
M  V30 1324 C 127.824 3.76193 -2.59476 0
M  V30 1325 C 128.821 3.77269 -3.57721 0
M  V30 1326 C 126.506 4.0652 -2.95037 0
M  V30 1327 C 128.5 4.08176 -4.89562 0
M  V30 1328 C 126.187 4.37092 -4.27076 0
M  V30 1329 C 127.185 4.37902 -5.24148 0
M  V30 1330 O 126.873 4.67741 -6.53815 0
M  V30 1331 H 126.605 0.608465 -0.294528 0
M  V30 1332 H 129.159 1.472 -1.43252 0
M  V30 1333 H 127.389 3.83835 -0.469865 0
M  V30 1334 H 129.078 3.96485 -0.869179 0
M  V30 1335 H 129.844 3.5394 -3.3159 0
M  V30 1336 H 125.723 4.05049 -2.20128 0
M  V30 1337 H 129.267 4.08723 -5.65324 0
M  V30 1338 H 125.164 4.59889 -4.5296 0
M  V30 1339 H 125.932 4.85509 -6.58957 0
M  V30 1340 N 128.595 0.856903 1.32268 0
M  V30 1341 C 129.525 0.31858 2.31316 0
M  V30 1342 C 130.506 -0.583487 1.59779 0
M  V30 1343 O 131.691 -0.503259 1.87566 0
M  V30 1344 C 128.821 -0.491979 3.43798 0
M  V30 1345 C 127.775 0.315849 4.26833 0
M  V30 1346 C 127.101 -0.619586 5.31098 0
M  V30 1347 C 128.401 1.54282 4.98993 0
M  V30 1348 H 130.095 1.14621 2.76591 0
M  V30 1349 H 127.641 0.552613 1.32974 0
M  V30 1350 H 129.594 -0.879012 4.1213 0
M  V30 1351 H 128.318 -1.35299 2.97257 0
M  V30 1352 H 126.977 0.684664 3.6015 0
M  V30 1353 H 126.625 -1.47751 4.8081 0
M  V30 1354 H 126.325 -0.0830621 5.87541 0
M  V30 1355 H 127.849 -1.00375 6.02293 0
M  V30 1356 H 129.263 1.22796 5.59995 0
M  V30 1357 H 127.66 2.01745 5.65172 0
M  V30 1358 H 128.73 2.30285 4.26728 0
M  V30 1359 N 130.073 -1.45103 0.615059 0
M  V30 1360 C 131.489 -1.57137 0.279322 0
M  V30 1361 C 131.689 -1.60523 -1.21797 0
M  V30 1362 O 130.745 -1.53956 -2.00134 0
M  V30 1363 C 132.058 -2.85062 0.957083 0
M  V30 1364 C 133.606 -2.98749 0.933706 0
M  V30 1365 C 134.081 -4.29455 1.59162 0
M  V30 1366 N 135.572 -4.36231 1.55746 0
M  V30 1367 C 136.307 -5.36051 2.0356 0
M  V30 1368 N 135.803 -6.42367 2.59494 0
M  V30 1369 N 137.596 -5.27456 1.94284 0
M  V30 1370 H 129.747 -1.41148 1.58717 0
M  V30 1371 H 132.01 -0.675331 0.665306 0
M  V30 1372 H 131.716 -2.88488 2.01166 0
M  V30 1373 H 131.59 -3.7407 0.48494 0
M  V30 1374 H 133.977 -2.94886 -0.112347 0
M  V30 1375 H 134.058 -2.11132 1.44419 0
M  V30 1376 H 133.702 -4.34077 2.63704 0
M  V30 1377 H 133.632 -5.15901 1.0561 0
M  V30 1378 H 136.123 -3.60011 1.14893 0
M  V30 1379 H 136.436 -7.14793 2.93752 0
M  V30 1380 H 134.781 -6.43097 2.63537 0
M  V30 1381 H 137.972 -4.43308 1.5032 0
M  V30 1382 H 138.145 -6.05099 2.3186 0
M  V30 1383 N 131.551 -0.354651 -1.53558 0
M  V30 1384 C 132.483 0.5315 -2.22952 0
M  V30 1385 C 133.496 1.05503 -1.23988 0
M  V30 1386 O 134.685 0.963279 -1.50277 0
M  V30 1387 C 131.785 1.74538 -2.90499 0
M  V30 1388 C 130.958 1.35524 -4.15875 0
M  V30 1389 C 130.017 2.42999 -4.66731 0
M  V30 1390 O 129.043 2.05844 -5.30676 0
M  V30 1391 N 130.245 3.74423 -4.43608 0
M  V30 1392 H 133.01 -0.0628615 -2.99634 0
M  V30 1393 H 130.571 -0.179302 -1.60904 0
M  V30 1394 H 132.563 2.45892 -3.21433 0
M  V30 1395 H 131.133 2.24686 -2.17336 0
M  V30 1396 H 130.353 0.471998 -3.91364 0
M  V30 1397 H 131.641 1.07071 -4.97406 0
M  V30 1398 H 131.039 4.07391 -3.92491 0
M  V30 1399 H 129.596 4.41913 -4.7912 0
M  V30 1400 N 133.029 1.57378 -0.0835403 0
M  V30 1401 C 134.445 1.57246 0.273109 0
M  V30 1402 C 134.645 1.09385 1.69225 0
M  V30 1403 O 133.701 0.765051 2.40631 0
M  V30 1404 C 135.014 3.00614 0.0720628 0
M  V30 1405 C 136.562 3.12684 0.1407 0
M  V30 1406 C 137.037 4.57989 -0.0322094 0
M  V30 1407 N 138.528 4.63194 0.0230085 0
M  V30 1408 C 139.263 5.73335 -0.0861941 0
M  V30 1409 N 138.759 6.9235 -0.24958 0
M  V30 1410 N 140.552 5.62093 -0.0282886 0
M  V30 1411 H 132.703 1.86801 -1.0109 0
M  V30 1412 H 134.966 0.861687 -0.395222 0
M  V30 1413 H 134.672 3.39786 -0.907662 0
M  V30 1414 H 134.546 3.68193 0.81936 0
M  V30 1415 H 136.933 2.73391 1.11092 0
M  V30 1416 H 137.014 2.47719 -0.637896 0
M  V30 1417 H 136.658 4.97973 -0.999247 0
M  V30 1418 H 136.588 5.21 0.765937 0
M  V30 1419 H 139.079 3.77613 0.14722 0
M  V30 1420 H 139.392 7.72117 -0.324733 0
M  V30 1421 H 137.737 6.94415 -0.285097 0
M  V30 1422 H 140.928 4.67997 0.0981408 0
M  V30 1423 H 141.101 6.47895 -0.116845 0
M  V30 1424 N 134.507 -0.190092 1.56449 0
M  V30 1425 C 135.753 -0.906472 1.82084 0
M  V30 1426 C 136.108 -1.80677 0.661335 0
M  V30 1427 O 135.401 -1.88501 -0.343237 0
M  V30 1428 C 135.595 -1.75382 3.1141 0
M  V30 1429 C 135.424 -0.937053 4.39829 0
M  V30 1430 C 134.194 -0.619507 5.01488 0
M  V30 1431 C 136.392 -0.2874 5.13496 0
M  V30 1432 N 134.374 0.215367 6.13522 0
M  V30 1433 C 135.745 0.409454 6.18646 0
M  V30 1434 C 137.8 -0.203639 4.97483 0
M  V30 1435 C 136.503 1.1821 7.0952 0
M  V30 1436 C 138.529 0.555622 5.88784 0
M  V30 1437 C 137.891 1.24091 6.93384 0
M  V30 1438 H 133.99 -0.310931 0.717528 0
M  V30 1439 H 136.574 -0.174821 1.93914 0
M  V30 1440 H 134.745 -2.45703 3.00806 0
M  V30 1441 H 136.477 -2.41006 3.25112 0
M  V30 1442 H 133.232 -0.945126 4.64074 0
M  V30 1443 H 133.656 0.622562 6.74131 0
M  V30 1444 H 138.298 -0.719099 4.1664 0
M  V30 1445 H 136.016 1.70897 7.89823 0
M  V30 1446 H 139.602 0.621854 5.78467 0
M  V30 1447 H 138.482 1.81901 7.62812 0
M  V30 1448 N 135.985 -1.50799 -0.457987 0
M  V30 1449 C 136.918 -1.65273 -1.57353 0
M  V30 1450 C 137.896 -0.500578 -1.54703 0
M  V30 1451 O 139.08 -0.721781 -1.74134 0
M  V30 1452 C 136.207 -1.64737 -2.95938 0
M  V30 1453 C 135.253 -2.8567 -3.16693 0
M  V30 1454 S 136.086 -4.46791 -2.95191 0
M  V30 1455 C 137.242 -4.48968 -4.36095 0
M  V30 1456 H 137.475 -2.59633 -1.44838 0
M  V30 1457 H 135.008 -1.40225 -0.64625 0
M  V30 1458 H 136.966 -1.65112 -3.7583 0
M  V30 1459 H 135.627 -0.715899 -3.05833 0
M  V30 1460 H 134.82 -2.81637 -4.17967 0
M  V30 1461 H 134.422 -2.8293 -2.44594 0
M  V30 1462 H 136.714 -4.23337 -5.28954 0
M  V30 1463 H 137.657 -5.50664 -4.45168 0
M  V30 1464 H 138.065 -3.78522 -4.18786 0
M  V30 1465 N 137.463 0.71206 -1.40597 0
M  V30 1466 C 138.74 1.46536 -1.29563 0
M  V30 1467 C 139.12 2.10931 0.0844217 0
M  V30 1468 O 138.468 2.00418 1.0975 0
M  V30 1469 C 138.678 2.49821 -2.43701 0
M  V30 1470 C 140.026 3.15551 -2.841 0
M  V30 1471 O 141.05 2.60142 -2.4332 0
M  V30 1472 O 139.909 4.15867 -3.54566 0
M  V30 1473 H 137.003 0.651801 -0.509004 0
M  V30 1474 H 139.549 0.743935 -1.52524 0
M  V30 1475 H 138.321 2.00778 -3.35863 0
M  V30 1476 H 137.944 3.29495 -2.22528 0
M  V30 1477 N 138.941 1.26152 0.944643 0
M  V30 1478 C 139.873 1.03199 2.04652 0
M  V30 1479 C 140.886 -0.00642356 1.62799 0
M  V30 1480 O 142.075 0.233263 1.76969 0
M  V30 1481 C 139.175 0.540111 3.34568 0
M  V30 1482 C 138.348 1.64697 4.05208 0
M  V30 1483 C 137.407 1.15374 5.13396 0
M  V30 1484 O 136.433 1.85013 5.38293 0
M  V30 1485 N 137.635 0.00031529 5.805 0
M  V30 1486 H 140.4 1.9808 2.2491 0
M  V30 1487 H 137.961 1.17491 1.11389 0
M  V30 1488 H 139.953 0.194401 4.04233 0
M  V30 1489 H 138.523 -0.315021 3.11009 0
M  V30 1490 H 137.743 2.16379 3.29506 0
M  V30 1491 H 139.031 2.3903 4.49157 0
M  V30 1492 H 138.429 -0.581336 5.62705 0
M  V30 1493 H 136.986 -0.286346 6.51171 0
M  V30 1494 N 140.419 -1.14872 1.07899 0
M  V30 1495 C 141.835 -1.37776 0.805606 0
M  V30 1496 C 142.035 -1.92743 -0.587555 0
M  V30 1497 O 141.091 -2.13678 -1.34528 0
M  V30 1498 C 142.404 -2.34361 1.88402 0
M  V30 1499 C 143.952 -2.48012 1.90942 0
M  V30 1500 C 144.427 -3.47893 2.97883 0
M  V30 1501 N 145.918 -3.55433 2.97021 0
M  V30 1502 C 146.653 -4.32553 3.76412 0
M  V30 1503 N 146.149 -5.12959 4.65666 0
M  V30 1504 N 147.942 -4.27697 3.64735 0
M  V30 1505 H 140.093 -0.775365 1.97742 0
M  V30 1506 H 142.356 -0.403521 0.857831 0
M  V30 1507 H 142.062 -2.01098 2.88535 0
M  V30 1508 H 141.936 -3.34206 1.74889 0
M  V30 1509 H 144.323 -2.8057 0.914579 0
M  V30 1510 H 144.404 -1.48147 2.08534 0
M  V30 1511 H 144.048 -3.16069 3.97571 0
M  V30 1512 H 143.978 -4.47527 2.77538 0
M  V30 1513 H 146.469 -2.98048 2.32326 0
M  V30 1514 H 146.782 -5.69065 5.22862 0
M  V30 1515 H 145.127 -5.12245 4.69712 0
M  V30 1516 H 148.318 -3.63949 2.94378 0
M  V30 1517 H 148.491 -4.8755 4.26848 0
M  V30 1518 N 141.898 -0.863906 -1.31812 0
M  V30 1519 C 142.828 -0.330843 -2.31144 0
M  V30 1520 C 143.809 0.575005 -1.60087 0
M  V30 1521 O 144.994 0.493304 -1.8783 0
M  V30 1522 C 142.124 0.47374 -3.44054 0
M  V30 1523 C 141.078 -0.338481 -4.26659 0
M  V30 1524 C 140.404 0.591412 -5.31419 0
M  V30 1525 C 141.704 -1.56926 -4.98168 0
M  V30 1526 H 143.398 -1.16086 -2.75979 0
M  V30 1527 H 140.944 -0.559657 -1.32679 0
M  V30 1528 H 142.897 0.857143 -4.12591 0
M  V30 1529 H 141.621 1.33721 -2.9797 0
M  V30 1530 H 140.28 -0.703754 -3.59782 0
M  V30 1531 H 139.928 1.45199 -4.81587 0
M  V30 1532 H 139.628 0.0519022 -5.87577 0
M  V30 1533 H 141.152 0.97179 -6.02817 0
M  V30 1534 H 142.566 -1.25764 -5.59336 0
M  V30 1535 H 140.963 -2.04739 -5.64094 0
M  V30 1536 H 142.033 -2.32544 -4.25501 0
M  V30 1537 N 143.376 1.44774 -0.622745 0
M  V30 1538 C 144.622 2.0242 -0.124083 0
M  V30 1539 C 144.955 1.4881 1.24777 0
M  V30 1540 O 144.23 0.668799 1.8264 0
M  V30 1541 C 144.513 3.59957 -0.101619 0
M  V30 1542 C 144.366 4.23867 -1.50521 0
M  V30 1543 C 145.685 4.36284 0.578272 0
M  V30 1544 H 142.804 0.735528 -0.0465645 0
M  V30 1545 H 145.446 1.72447 -0.797617 0
M  V30 1546 H 143.596 3.85623 0.471934 0
M  V30 1547 H 145.268 4.09336 -2.12701 0
M  V30 1548 H 143.511 3.81684 -2.06154 0
M  V30 1549 H 144.182 5.32843 -1.4416 0
M  V30 1550 H 146.658 4.16001 0.0906057 0
M  V30 1551 H 145.534 5.46004 0.563149 0
M  V30 1552 H 145.795 4.10271 1.64713 0
M  V30 1553 N 144.854 0.36279 1.53368 0
M  V30 1554 C 146.101 -0.227776 2.01215 0
M  V30 1555 C 146.429 -1.49003 1.25014 0
M  V30 1556 O 145.684 -1.92876 0.331236 0
M  V30 1557 C 145.983 -0.568417 3.52851 0
M  V30 1558 C 145.649 0.59918 4.46901 0
M  V30 1559 C 144.311 0.919559 4.72332 0
M  V30 1560 C 146.663 1.38156 5.02556 0
M  V30 1561 C 143.991 2.02434 5.5067 0
M  V30 1562 C 146.343 2.47674 5.821 0
M  V30 1563 C 145.007 2.8025 6.05819 0
M  V30 1564 H 144.277 -0.083349 0.736297 0
M  V30 1565 H 146.924 0.494677 1.85001 0
M  V30 1566 H 145.229 -1.37185 3.66998 0
M  V30 1567 H 146.926 -1.03756 3.87344 0
M  V30 1568 H 143.516 0.339437 4.27254 0
M  V30 1569 H 147.7 1.14729 4.82857 0
M  V30 1570 H 142.956 2.28075 5.67267 0
M  V30 1571 H 147.13 3.08716 6.24234 0
M  V30 1572 H 144.757 3.65979 6.66306 0
M  V30 1573 N 146.332 -1.57332 0.0918853 0
M  V30 1574 C 147.242 -2.17368 -0.882505 0
M  V30 1575 C 148.258 -1.14226 -1.31257 0
M  V30 1576 O 149.434 -1.46582 -1.38115 0
M  V30 1577 C 146.499 -2.73962 -2.12476 0
M  V30 1578 C 145.56 -3.92048 -1.7492 0
M  V30 1579 C 144.793 -4.45933 -2.93223 0
M  V30 1580 O 145.016 -3.98764 -4.07852 0
M  V30 1581 O 143.95 -5.36999 -2.71875 0
M  V30 1582 H 147.776 -3.01031 -0.40172 0
M  V30 1583 H 145.361 -1.48813 -0.132291 0
M  V30 1584 H 147.243 -3.10147 -2.85283 0
M  V30 1585 H 145.918 -1.93347 -2.59613 0
M  V30 1586 H 144.825 -3.6068 -0.993025 0
M  V30 1587 H 146.158 -4.74017 -1.32548 0
M  V30 1588 N 147.81 0.181792 -1.56548 0
M  V30 1589 C 149.058 0.89832 -1.81038 0
M  V30 1590 C 149.379 1.83232 -0.667164 0
M  V30 1591 O 148.649 1.93372 0.313673 0
M  V30 1592 H 147.229 0.33471 -0.667816 0
M  V30 1593 H 149.891 0.184116 -1.94028 0
M  V30 1594 H 148.987 1.4815 -2.74696 0
M  V30 1595 N 149.288 1.51039 0.449983 0
M  V30 1596 C 150.236 1.71995 1.5659 0
M  V30 1597 C 151.23 0.586029 1.5894 0
M  V30 1598 O 152.436 0.76709 1.62837 0
M  V30 1599 H 148.811 0.543233 0.520001 0
M  V30 1600 H 150.782 2.65562 1.36085 0
M  V30 1601 C 149.531 1.8506 2.9436 0
M  V30 1602 H 148.854 2.71712 2.93279 0
M  V30 1603 H 150.294 2.0374 3.71842 0
M  V30 1604 C 148.753 0.607277 3.31382 0
M  V30 1605 O 149.283 -0.243903 4.00959 0
M  V30 1606 N 147.489 0.455073 2.87015 0
M  V30 1607 H 147.036 1.14879 2.30566 0
M  V30 1608 H 146.994 -0.375611 3.12148 0
M  V30 1609 N 150.766 -0.704594 1.40972 0
M  V30 1610 C 151.713 -1.81862 1.42109 0
M  V30 1611 C 152.683 -1.63781 0.276593 0
M  V30 1612 O 153.868 -1.84759 0.4763 0
M  V30 1613 C 151.008 -3.19669 1.30022 0
M  V30 1614 C 150.121 -3.49246 2.54267 0
M  V30 1615 C 149.256 -4.76618 2.3454 0
M  V30 1616 C 148.295 -4.99133 3.54306 0
M  V30 1617 N 147.432 -6.17726 3.33706 0
M  V30 1618 H 152.272 -1.80226 2.37324 0
M  V30 1619 H 149.809 -0.880238 1.17857 0
M  V30 1620 H 151.767 -3.99263 1.21018 0
M  V30 1621 H 150.397 -3.20506 0.384192 0
M  V30 1622 H 149.449 -2.64125 2.73756 0
M  V30 1623 H 150.761 -3.61788 3.43381 0
M  V30 1624 H 149.915 -5.64249 2.22952 0
M  V30 1625 H 148.654 -4.66305 1.42867 0
M  V30 1626 H 147.659 -4.09953 3.66359 0
M  V30 1627 H 148.884 -5.11311 4.4692 0
M  V30 1628 H 146.83 -6.08642 2.44725 0
M  V30 1629 H 146.747 -6.30995 4.16391 0
M  V30 1630 H 148.015 -7.08115 3.25873 0
M  V30 1631 N 152.244 -1.26651 -0.937939 0
M  V30 1632 C 153.469 -1.15279 -1.72411 0
M  V30 1633 C 153.894 0.287866 -1.85884 0
M  V30 1634 O 153.252 1.20855 -1.35143 0
M  V30 1635 C 153.3 -1.83028 -3.10698 0
M  V30 1636 O 152.404 -1.12128 -3.96864 0
M  V30 1637 H 151.745 -0.401504 -0.528858 0
M  V30 1638 H 154.275 -1.67531 -1.1745 0
M  V30 1639 H 154.285 -1.89981 -3.6107 0
M  V30 1640 H 152.96 -2.87833 -3.00208 0
M  V30 1641 H 151.537 -1.13173 -3.55312 0
M  V30 1642 N 153.722 1.14298 -1.08507 0
M  V30 1643 C 154.969 1.85359 -0.815373 0
M  V30 1644 C 155.297 1.83001 0.658865 0
M  V30 1645 O 154.552 1.25655 1.50031 0
M  V30 1646 C 154.851 3.33547 -1.28379 0
M  V30 1647 C 154.517 3.56093 -2.76602 0
M  V30 1648 C 153.179 3.61955 -3.17084 0
M  V30 1649 C 155.531 3.64834 -3.72217 0
M  V30 1650 C 152.859 3.74082 -4.51973 0
M  V30 1651 C 155.211 3.78487 -5.06883 0
M  V30 1652 C 153.875 3.82598 -5.46969 0
M  V30 1653 H 153.145 0.678276 -0.298366 0
M  V30 1654 H 155.792 1.35002 -1.35819 0
M  V30 1655 H 154.097 3.86191 -0.660593 0
M  V30 1656 H 155.794 3.86959 -1.05186 0
M  V30 1657 H 152.384 3.52179 -2.4427 0
M  V30 1658 H 156.568 3.59595 -3.42061 0
M  V30 1659 H 151.824 3.75527 -4.82483 0
M  V30 1660 H 155.998 3.84193 -5.80834 0
M  V30 1661 H 153.625 3.91747 -6.51489 0
M  V30 1662 N 155.201 0.870884 1.31352 0
M  V30 1663 C 156.429 0.49677 2.00848 0
M  V30 1664 C 156.844 -0.910998 1.65367 0
M  V30 1665 O 156.201 -1.59696 0.883374 0
M  V30 1666 C 156.252 0.645308 3.55694 0
M  V30 1667 O 155.973 1.99764 3.89905 0
M  V30 1668 C 157.474 0.272326 4.42463 0
M  V30 1669 H 154.694 0.193462 0.642506 0
M  V30 1670 H 157.238 1.1723 1.67563 0
M  V30 1671 H 155.393 0.0173176 3.87396 0
M  V30 1672 H 155.807 2.00607 4.84621 0
M  V30 1673 H 157.281 0.427208 5.50344 0
M  V30 1674 H 157.758 -0.788587 4.32062 0
M  V30 1675 H 158.364 0.876054 4.1618 0
M  V30 1676 N 156.679 -1.44442 0.630414 0
M  V30 1677 C 157.609 -2.33418 -0.0618083 0
M  V30 1678 C 158.59 -1.48165 -0.835541 0
M  V30 1679 O 159.775 -1.76886 -0.801564 0
M  V30 1680 C 156.905 -3.31222 -1.04449 0
M  V30 1681 C 155.859 -4.26288 -0.382436 0
M  V30 1682 C 155.185 -5.13954 -1.47497 0
M  V30 1683 C 156.485 -5.1744 0.710865 0
M  V30 1684 H 158.179 -2.91548 0.681184 0
M  V30 1685 H 155.725 -1.40191 0.329026 0
M  V30 1686 H 157.678 -3.92351 -1.53748 0
M  V30 1687 H 156.402 -2.71299 -1.81836 0
M  V30 1688 H 155.061 -3.6649 0.0899054 0
M  V30 1689 H 154.709 -4.50385 -2.2397 0
M  V30 1690 H 154.409 -5.7837 -1.03737 0
M  V30 1691 H 155.933 -5.77955 -1.96979 0
M  V30 1692 H 157.347 -5.72509 0.300996 0
M  V30 1693 H 155.744 -5.90455 1.07156 0
M  V30 1694 H 156.814 -4.58496 1.57829 0
M  V30 1695 N 158.157 -0.370918 -1.53173 0
M  V30 1696 C 159.434 0.273754 -1.93675 0
M  V30 1697 C 159.814 1.65938 -1.3049 0
M  V30 1698 O 159.162 2.23698 -0.465999 0
M  V30 1699 C 159.372 0.318602 -3.47543 0
M  V30 1700 C 160.72 0.556392 -4.20939 0
M  V30 1701 O 161.744 0.399587 -3.53952 0
M  V30 1702 O 160.603 0.862133 -5.39657 0
M  V30 1703 H 157.697 0.165448 -0.810281 0
M  V30 1704 H 160.243 -0.42409 -1.64315 0
M  V30 1705 H 159.015 -0.652687 -3.85818 0
M  V30 1706 H 158.638 1.06212 -3.83151 0
M  V30 1707 N 159.635 1.57281 -0.100228 0
M  V30 1708 C 160.598 2.13158 0.842398 0
M  V30 1709 C 161.598 1.06202 1.20738 0
M  V30 1710 O 162.788 1.32066 1.13597 0
M  V30 1711 C 159.92 2.65639 2.13655 0
M  V30 1712 H 161.113 2.97766 0.357114 0
M  V30 1713 H 158.666 1.5559 0.148823 0
M  V30 1714 H 159.401 1.84566 2.66657 0
M  V30 1715 H 159.186 3.43844 1.88451 0
M  V30 1716 H 160.676 3.08846 2.81077 0
M  V30 1717 N 161.113 -0.173488 1.56642 0
M  V30 1718 C 162.529 -0.525174 1.50712 0
M  V30 1719 C 162.729 -1.8476 0.804107 0
M  V30 1720 O 161.785 -2.49869 0.363574 0
M  V30 1721 C 163.098 -0.559937 2.95441 0
M  V30 1722 C 164.646 -0.647288 3.06234 0
M  V30 1723 C 165.121 -0.712963 4.52417 0
M  V30 1724 N 166.612 -0.775911 4.56655 0
M  V30 1725 C 167.347 -0.847264 5.67106 0
M  V30 1726 N 166.843 -0.879585 6.87194 0
M  V30 1727 N 168.636 -0.886117 5.55071 0
M  V30 1728 H 160.787 0.693681 2.00753 0
M  V30 1729 H 163.05 0.249841 0.914485 0
M  V30 1730 H 162.756 0.343049 3.50023 0
M  V30 1731 H 162.63 -1.40718 3.49969 0
M  V30 1732 H 165.017 -1.5407 2.51687 0
M  V30 1733 H 165.098 0.226586 2.54794 0
M  V30 1734 H 164.742 0.176183 5.07594 0
M  V30 1735 H 164.672 -1.60295 5.0161 0
M  V30 1736 H 167.163 -0.759304 3.70193 0
M  V30 1737 H 167.476 -0.935144 7.67121 0
M  V30 1738 H 165.821 -0.847898 6.89808 0
M  V30 1739 H 169.012 -0.857853 4.60172 0
M  V30 1740 H 169.185 -0.938263 6.41171 0
M  V30 1741 N 162.591 -1.51276 -0.441967 0
M  V30 1742 C 163.521 -1.752 -1.54361 0
M  V30 1743 C 164.502 -0.601682 -1.59103 0
M  V30 1744 O 165.687 -0.843913 -1.74905 0
M  V30 1745 C 162.817 -1.87282 -2.92477 0
M  V30 1746 C 161.771 -3.02687 -3.02596 0
M  V30 1747 C 161.097 -2.99947 -4.42647 0
M  V30 1748 C 162.397 -4.4273 -2.77106 0
M  V30 1749 H 164.091 -2.67442 -1.34592 0
M  V30 1750 H 161.637 -1.28694 -0.646048 0
M  V30 1751 H 163.59 -2.02602 -3.695 0
M  V30 1752 H 162.314 -0.916844 -3.13467 0
M  V30 1753 H 160.973 -2.87065 -2.28012 0
M  V30 1754 H 160.621 -2.02136 -4.60597 0
M  V30 1755 H 160.321 -3.77439 -4.50348 0
M  V30 1756 H 161.845 -3.17354 -5.2165 0
M  V30 1757 H 163.259 -4.58727 -3.43864 0
M  V30 1758 H 161.656 -5.21893 -2.96222 0
M  V30 1759 H 162.726 -4.53087 -1.72744 0
M  V30 1760 N 164.069 0.697108 -1.41344 0
M  V30 1761 C 165.315 1.4593 -1.40827 0
M  V30 1762 C 165.648 1.94193 -0.0167098 0
M  V30 1763 O 164.923 1.69425 0.955263 0
M  V30 1764 C 165.206 2.67229 -2.41373 0
M  V30 1765 C 165.059 2.24741 -3.8963 0
M  V30 1766 C 166.378 3.69423 -2.39196 0
M  V30 1767 H 163.497 0.529303 -0.512842 0
M  V30 1768 H 166.139 0.794112 -1.72609 0
M  V30 1769 H 164.289 3.23982 -2.14401 0
M  V30 1770 H 165.961 1.73327 -4.27499 0
M  V30 1771 H 164.204 1.56542 -4.0457 0
M  V30 1772 H 164.875 3.1177 -4.55525 0
M  V30 1773 H 167.351 3.2234 -2.63128 0
M  V30 1774 H 166.227 4.51907 -3.11563 0
M  V30 1775 H 166.488 4.19012 -1.41001 0
M  V30 1776 N 165.547 1.27147 0.931209 0
M  V30 1777 C 166.457 1.11372 2.06478 0
M  V30 1778 C 167.473 0.044645 1.73943 0
M  V30 1779 O 168.649 0.250417 1.99837 0
M  V30 1780 C 165.714 0.758838 3.38294 0
M  V30 1781 C 164.775 1.90841 3.84549 0
M  V30 1782 C 164.008 1.57036 5.10074 0
M  V30 1783 O 164.231 0.476645 5.68405 0
M  V30 1784 O 163.165 2.40839 5.51616 0
M  V30 1785 H 166.991 2.06493 2.22698 0
M  V30 1786 H 164.576 1.06301 1.04978 0
M  V30 1787 H 166.458 0.574098 4.17471 0
M  V30 1788 H 165.133 -0.162879 3.2329 0
M  V30 1789 H 164.04 2.14819 3.06274 0
M  V30 1790 H 165.373 2.81021 4.04089 0
M  V30 1791 N 167.025 -1.13721 1.09112 0
M  V30 1792 C 168.272 -1.84924 0.825192 0
M  V30 1793 C 168.6 -1.83347 -0.649151 0
M  V30 1794 O 167.855 -1.26449 -1.49362 0
M  V30 1795 C 168.154 -3.32861 1.30146 0
M  V30 1796 C 167.82 -3.54621 2.78486 0
M  V30 1797 C 166.482 -3.60268 3.18999 0
M  V30 1798 C 168.834 -3.62855 3.74146 0
M  V30 1799 C 166.162 -3.71679 4.53951 0
M  V30 1800 C 168.514 -3.75793 5.08883 0
M  V30 1801 C 167.178 -3.79692 5.4899 0
M  V30 1802 H 166.448 -0.676684 0.301959 0
M  V30 1803 H 169.095 -1.3428 1.36533 0
M  V30 1804 H 167.4 -3.85835 0.681064 0
M  V30 1805 H 169.097 -3.86395 1.07236 0
M  V30 1806 H 165.687 -3.50879 2.46134 0
M  V30 1807 H 169.871 -3.57775 3.43963 0
M  V30 1808 H 165.127 -3.72963 4.84467 0
M  V30 1809 H 169.301 -3.81107 5.82864 0
M  V30 1810 H 166.928 -3.88287 6.53558 0
M  V30 1811 N 168.503 -0.877838 -1.30888 0
M  V30 1812 C 169.433 -0.35534 -2.3078 0
M  V30 1813 C 170.414 0.557994 -1.60687 0
M  V30 1814 O 171.599 0.473355 -1.88343 0
M  V30 1815 C 168.729 0.437221 -3.44537 0
M  V30 1816 C 167.683 -0.383715 -4.26276 0
M  V30 1817 C 167.009 0.535014 -5.32017 0
M  V30 1818 C 168.309 -1.62201 -4.96476 0
M  V30 1819 H 170.003 -1.19007 -2.74732 0
M  V30 1820 H 167.549 -0.573698 -1.32078 0
M  V30 1821 H 169.502 0.813334 -4.13477 0
M  V30 1822 H 168.226 1.30553 -2.99372 0
M  V30 1823 H 166.885 -0.741874 -3.59015 0
M  V30 1824 H 166.533 1.40083 -4.831 0
M  V30 1825 H 166.233 -0.0104211 -5.87599 0
M  V30 1826 H 167.757 0.907799 -6.03814 0
M  V30 1827 H 169.171 -1.31689 -5.5797 0
M  V30 1828 H 167.568 -2.10711 -5.61891 0
M  V30 1829 H 168.638 -2.37044 -4.23011 0
M  V30 1830 N 169.982 1.44106 -0.638065 0
M  V30 1831 C 171.228 2.02815 -0.15409 0
M  V30 1832 C 171.583 1.49342 1.21304 0
M  V30 1833 O 170.876 0.670699 1.79478 0
M  V30 1834 C 171.07 3.5729 -0.0887327 0
M  V30 1835 C 170.899 4.2575 -1.44799 0
M  V30 1836 C 169.669 4.62443 -2.03653 0
M  V30 1837 C 171.867 4.55746 -2.38327 0
M  V30 1838 N 169.849 5.15903 -3.32741 0
M  V30 1839 C 171.22 5.10364 -3.52036 0
M  V30 1840 C 173.275 4.37703 -2.3732 0
M  V30 1841 C 171.978 5.48837 -4.64941 0
M  V30 1842 C 174.004 4.77229 -3.49294 0
M  V30 1843 C 173.366 5.31966 -4.61726 0
M  V30 1844 H 169.465 0.775519 -0.100466 0
M  V30 1845 H 172.049 1.755 -0.843071 0
M  V30 1846 H 170.22 3.84201 0.569548 0
M  V30 1847 H 171.952 4.02671 0.404711 0
M  V30 1848 H 168.707 4.46987 -1.56523 0
M  V30 1849 H 169.131 5.47102 -3.98758 0
M  V30 1850 H 173.773 3.94671 -1.51641 0
M  V30 1851 H 171.491 5.9082 -5.51323 0
M  V30 1852 H 175.077 4.64976 -3.49698 0
M  V30 1853 H 173.957 5.61986 -5.46939 0
M  V30 1854 N 171.46 0.379036 1.52974 0
M  V30 1855 C 172.706 -0.206727 2.01744 0
M  V30 1856 C 173.039 -1.47314 1.26539 0
M  V30 1857 O 172.314 -1.91084 0.362903 0
M  V30 1858 C 172.597 -0.485066 3.56818 0
M  V30 1859 C 172.45 0.795919 4.42702 0
M  V30 1860 C 173.769 -1.28003 4.21074 0
M  V30 1861 H 170.888 -0.0736607 0.73331 0
M  V30 1862 H 173.53 0.506581 1.83122 0
M  V30 1863 H 171.68 -1.09272 3.72816 0
M  V30 1864 H 173.352 1.43307 4.38476 0
M  V30 1865 H 171.595 1.41344 4.10127 0
M  V30 1866 H 172.266 0.555947 5.49193 0
M  V30 1867 H 174.742 -0.765867 4.08991 0
M  V30 1868 H 173.618 -1.44352 5.29579 0
M  V30 1869 H 173.879 -2.29236 3.78026 0
M  V30 1870 N 172.938 -1.57226 0.108567 0
M  V30 1871 C 174.349 -1.8195 -0.418464 0
M  V30 1872 C 174.7 -1.02508 -1.67292 0
M  V30 1873 O 173.825 -0.258496 -2.14851 0
M  V30 1874 C 174.42 -3.30028 -0.765979 0
M  V30 1875 C 172.979 -3.55469 -1.23769 0
M  V30 1876 C 172.126 -2.7625 -0.241106 0
M  V30 1877 H 175.077 -1.55149 0.33384 0
M  V30 1878 H 175.098 -3.44086 -1.62434 0
M  V30 1879 H 174.61 -3.87821 0.147219 0
M  V30 1880 H 172.711 -3.03022 -2.16814 0
M  V30 1881 H 172.824 -4.6408 -1.19022 0
M  V30 1882 H 171.188 -2.44133 -0.72602 0
M  V30 1883 H 171.971 -3.36797 0.665007 0
M  V30 1884 N 174.416 0.165178 -1.56732 0
M  V30 1885 C 175.693 0.908443 -1.73224 0
M  V30 1886 C 176.073 2.0013 -0.67165 0
M  V30 1887 O 175.421 2.26353 0.31253 0
M  V30 1888 C 175.631 1.46756 -3.16644 0
M  V30 1889 C 176.979 1.93809 -3.77787 0
M  V30 1890 O 178.003 1.56537 -3.1996 0
M  V30 1891 O 176.862 2.62486 -4.79336 0
M  V30 1892 H 173.956 0.428025 -0.707618 0
M  V30 1893 H 176.502 0.152526 -1.69013 0
M  V30 1894 H 175.274 0.68129 -3.85323 0
M  V30 1895 H 174.897 2.28749 -3.25207 0
M  V30 1896 N 175.894 1.51508 0.433938 0
M  V30 1897 C 177.122 1.68157 1.20543 0
M  V30 1898 C 177.537 0.380362 1.84929 0
M  V30 1899 O 176.894 -0.641446 1.70856 0
M  V30 1900 C 176.945 2.79965 2.28696 0
M  V30 1901 O 176.666 4.05045 1.66943 0
M  V30 1902 C 178.167 3.07912 3.18912 0
M  V30 1903 H 175.387 0.56421 0.363191 0
M  V30 1904 H 177.931 1.97941 0.513754 0
M  V30 1905 H 176.086 2.5277 2.93574 0
M  V30 1906 H 176.5 4.67165 2.38448 0
M  V30 1907 H 177.974 3.89719 3.90926 0
M  V30 1908 H 178.451 2.20456 3.79863 0
M  V30 1909 H 179.057 3.36779 2.59731 0
M  V30 1910 N 177.372 -0.689602 1.41712 0
M  V30 1911 C 178.602 -1.47613 1.44548 0
M  V30 1912 C 179.01 -1.89132 0.0509034 0
M  V30 1913 O 178.353 -1.57741 -0.94146 0
M  V30 1914 C 178.415 -2.76596 2.2964 0
M  V30 1915 C 178.079 -2.57245 3.77722 0
M  V30 1916 C 179.076 -2.22804 4.69739 0
M  V30 1917 C 176.761 -2.727 4.2183 0
M  V30 1918 C 178.755 -2.04064 6.03851 0
M  V30 1919 C 176.442 -2.53576 5.56006 0
M  V30 1920 C 177.44 -2.1931 6.46832 0
M  V30 1921 O 177.128 -2.00359 7.78532 0
M  V30 1922 H 176.86 -0.461227 0.494212 0
M  V30 1923 H 179.414 -0.856045 1.86711 0
M  V30 1924 H 177.644 -3.41033 1.82301 0
M  V30 1925 H 179.333 -3.38424 2.24107 0
M  V30 1926 H 180.099 -2.10473 4.36951 0
M  V30 1927 H 175.978 -2.98353 3.51435 0
M  V30 1928 H 179.522 -1.77241 6.74708 0
M  V30 1929 H 175.419 -2.65499 5.88371 0
M  V30 1930 H 176.187 -2.15075 7.89737 0
M  V30 1931 N 178.85 -1.27639 -0.924453 0
M  V30 1932 C 180.099 -1.13549 -1.66702 0
M  V30 1933 C 180.412 0.317487 -1.93006 0
M  V30 1934 O 181.618 0.579333 -2.65247 0
M  V30 1935 C 180.074 -1.98426 -3.00259 0
M  V30 1936 C 179.682 -3.484 -2.81641 0
M  V30 1937 C 181.426 -1.92993 -3.78092 0
M  V30 1938 C 179.333 -4.25464 -4.10773 0
M  V30 1939 H 178.263 -0.421351 -0.625283 0
M  V30 1940 H 180.914 -1.52085 -1.02676 0
M  V30 1941 H 179.296 -1.52736 -3.6536 0
M  V30 1942 H 180.47 -4.01973 -2.25287 0
M  V30 1943 H 178.785 -3.55245 -2.17232 0
M  V30 1944 H 181.382 -2.47844 -4.7379 0
M  V30 1945 H 181.725 -0.904281 -4.0636 0
M  V30 1946 H 182.258 -2.36595 -3.19793 0
M  V30 1947 H 178.997 -5.28566 -3.87683 0
M  V30 1948 H 178.517 -3.76667 -4.66779 0
M  V30 1949 H 180.196 -4.34812 -4.79111 0
M  V30 1950 N 180.328 1.1314 -1.09713 0
M  V30 1951 C 181.574 1.84757 -0.836224 0
M  V30 1952 C 181.907 1.8347 0.636598 0
M  V30 1953 O 181.182 1.27491 1.46889 0
M  V30 1954 C 181.465 3.32782 -1.37578 0
M  V30 1955 C 181.318 3.42567 -2.91493 0
M  V30 1956 C 182.637 4.28307 -1.01198 0
M  V30 1957 H 179.756 0.67082 -0.305236 0
M  V30 1958 H 182.398 1.3278 -1.35903 0
M  V30 1959 H 180.548 3.77177 -0.931097 0
M  V30 1960 H 182.22 3.06862 -3.44432 0
M  V30 1961 H 180.463 2.83349 -3.28475 0
M  V30 1962 H 181.134 4.46674 -3.24324 0
M  V30 1963 H 183.61 3.91999 -1.39556 0
M  V30 1964 H 182.486 5.30307 -1.41653 0
M  V30 1965 H 182.747 4.42029 0.0794833 0
M  V30 1966 N 181.806 0.884767 1.30421 0
M  V30 1967 C 182.716 0.355398 2.31892 0
M  V30 1968 C 183.732 -0.542261 1.65335 0
M  V30 1969 O 184.908 -0.435432 1.96637 0
M  V30 1970 C 181.973 -0.421661 3.44126 0
M  V30 1971 C 181.034 0.505727 4.26311 0
M  V30 1972 C 180.267 -0.234343 5.33185 0
M  V30 1973 O 180.49 -1.46045 5.51386 0
M  V30 1974 O 179.424 0.415443 6.00465 0
M  V30 1975 H 183.25 1.19685 2.79122 0
M  V30 1976 H 180.835 0.648596 1.34587 0
M  V30 1977 H 182.717 -0.861641 4.12497 0
M  V30 1978 H 181.392 -1.23942 2.99032 0
M  V30 1979 H 180.299 0.994513 3.60639 0
M  V30 1980 H 181.632 1.28948 4.75009 0
M  V30 1981 N 183.284 -1.43765 0.645699 0
M  V30 1982 C 184.509 -2.06767 0.161883 0
M  V30 1983 C 184.934 -1.48034 -1.16049 0
M  V30 1984 O 184.292 -0.587369 -1.71522 0
M  V30 1985 C 184.34 -3.60519 0.0762003 0
M  V30 1986 O 183.444 -4.00982 -0.963721 0
M  V30 1987 H 182.785 -0.657675 0.091429 0
M  V30 1988 H 185.315 -1.84397 0.886499 0
M  V30 1989 H 185.325 -4.07853 -0.109604 0
M  V30 1990 H 184 -4.02646 1.04157 0
M  V30 1991 H 182.577 -3.65253 -0.751312 0
M  V30 1992 N 184.763 -0.387143 -1.52771 0
M  V30 1993 C 185.71 0.449048 -2.26389 0
M  V30 1994 C 186.68 1.05961 -1.27912 0
M  V30 1995 O 187.865 1.08804 -1.56737 0
M  V30 1996 C 185.005 1.57155 -3.0724 0
M  V30 1997 C 184.118 0.984066 -4.20643 0
M  V30 1998 C 183.253 2.07745 -4.88892 0
M  V30 1999 C 182.292 1.46574 -5.94292 0
M  V30 2000 N 181.429 2.49834 -6.56146 0
M  V30 2001 H 186.269 -0.185205 -2.97424 0
M  V30 2002 H 183.806 -0.103164 -1.46738 0
M  V30 2003 H 185.764 2.23309 -3.52405 0
M  V30 2004 H 184.394 2.17615 -2.38419 0
M  V30 2005 H 183.446 0.212193 -3.79808 0
M  V30 2006 H 184.758 0.497029 -4.96318 0
M  V30 2007 H 183.912 2.81673 -5.3735 0
M  V30 2008 H 182.651 2.59807 -4.12737 0
M  V30 2009 H 181.656 0.711696 -5.45174 0
M  V30 2010 H 182.881 0.953088 -6.72379 0
M  V30 2011 H 180.827 3.0107 -5.82832 0
M  V30 2012 H 180.744 2.05879 -7.27427 0
M  V30 2013 H 182.012 3.23399 -7.09249 0
M  V30 2014 N 186.241 1.57166 -0.116904 0
M  V30 2015 C 187.188 2.15202 0.83408 0
M  V30 2016 C 188.158 1.07644 1.26499 0
M  V30 2017 O 189.343 1.35541 1.34288 0
M  V30 2018 C 186.483 2.75405 2.07957 0
M  V30 2019 C 185.596 3.97264 1.69721 0
M  V30 2020 C 184.731 4.45561 2.89221 0
M  V30 2021 C 183.77 5.59956 2.47215 0
M  V30 2022 N 182.907 6.03006 3.59622 0
M  V30 2023 H 187.747 2.96141 0.332335 0
M  V30 2024 H 185.284 1.46309 0.152349 0
M  V30 2025 H 187.242 3.08439 2.80929 0
M  V30 2026 H 185.872 1.97159 2.55594 0
M  V30 2027 H 184.924 3.70404 0.866316 0
M  V30 2028 H 186.236 4.80226 1.34849 0
M  V30 2029 H 185.39 4.80493 3.7042 0
M  V30 2030 H 184.129 3.61544 3.27318 0
M  V30 2031 H 183.134 5.2463 1.64448 0
M  V30 2032 H 184.359 6.45738 2.10238 0
M  V30 2033 H 182.305 5.21931 3.97396 0
M  V30 2034 H 182.222 6.80819 3.28667 0
M  V30 2035 H 183.49 6.42576 4.41267 0
M  V30 2036 N 187.719 -0.156864 1.56817 0
M  V30 2037 C 188.944 -0.890331 1.87318 0
M  V30 2038 C 189.369 -1.74394 0.704855 0
M  V30 2039 O 188.727 -1.77972 -0.345786 0
M  V30 2040 C 188.775 -1.73102 3.16336 0
M  V30 2041 O 187.879 -2.83422 2.99576 0
M  V30 2042 H 187.22 -0.24857 0.615718 0
M  V30 2043 H 189.75 -0.150649 2.04045 0
M  V30 2044 H 189.76 -2.12803 3.48107 0
M  V30 2045 H 188.435 -1.10412 4.00976 0
M  V30 2046 H 187.012 -2.47199 2.7919 0
M  V30 2047 N 189.197 -1.51736 -0.425897 0
M  V30 2048 C 190.444 -1.6497 -1.17436 0
M  V30 2049 C 190.772 -0.371445 -1.9092 0
M  V30 2050 O 190.027 0.644963 -1.84767 0
M  V30 2051 C 190.326 -2.81103 -2.20717 0
M  V30 2052 C 189.992 -4.19954 -1.64162 0
M  V30 2053 C 188.654 -4.57725 -1.48462 0
M  V30 2054 C 191.006 -5.06552 -1.22696 0
M  V30 2055 C 188.334 -5.79789 -0.897873 0
M  V30 2056 C 190.686 -6.29205 -0.654464 0
M  V30 2057 C 189.35 -6.6574 -0.484456 0
M  V30 2058 H 188.62 -0.603668 -0.429727 0
M  V30 2059 H 191.267 -1.85798 -0.463829 0
M  V30 2060 H 189.572 -2.54542 -2.97852 0
M  V30 2061 H 191.269 -2.8854 -2.78471 0
M  V30 2062 H 187.859 -3.90181 -1.77361 0
M  V30 2063 H 192.043 -4.77968 -1.33642 0
M  V30 2064 H 187.299 -6.06733 -0.75402 0
M  V30 2065 H 191.473 -6.95643 -0.324694 0
M  V30 2066 H 189.1 -7.60195 -0.0276833 0
M  V30 2067 N 190.675 0.682077 -1.42076 0
M  V30 2068 C 191.605 1.80796 -1.47767 0
M  V30 2069 C 192.586 1.6677 -0.334954 0
M  V30 2070 O 193.771 1.863 -0.548264 0
M  V30 2071 C 190.901 3.19038 -1.37229 0
M  V30 2072 C 189.855 3.47789 -2.49453 0
M  V30 2073 C 189.181 4.8553 -2.23975 0
M  V30 2074 C 190.481 3.45411 -3.91776 0
M  V30 2075 H 192.175 1.7629 -2.41997 0
M  V30 2076 H 189.721 0.846721 -1.16476 0
M  V30 2077 H 191.674 3.97528 -1.39821 0
M  V30 2078 H 190.398 3.24204 -0.394907 0
M  V30 2079 H 189.057 2.71657 -2.46166 0
M  V30 2080 H 188.705 4.87337 -1.24547 0
M  V30 2081 H 188.405 5.0573 -2.99184 0
M  V30 2082 H 189.929 5.66312 -2.28304 0
M  V30 2083 H 191.343 4.13882 -3.96705 0
M  V30 2084 H 189.74 3.77145 -4.66778 0
M  V30 2085 H 190.81 2.44122 -4.18966 0
M  V30 2086 N 192.153 1.28127 0.917671 0
M  V30 2087 C 193.103 1.08361 2.00604 0
M  V30 2088 C 194.087 0.00847518 1.60898 0
M  V30 2089 O 195.279 0.228167 1.75523 0
M  V30 2090 C 192.408 0.743376 3.35155 0
M  V30 2091 C 191.494 1.85716 3.81275 0
M  V30 2092 N 191.885 3.09822 3.99805 0
M  V30 2093 C 190.183 1.74612 4.10398 0
M  V30 2094 C 190.884 3.82368 4.38372 0
M  V30 2095 N 189.86 3.10192 4.4641 0
M  V30 2096 H 193.662 2.02531 2.12975 0
M  V30 2097 H 191.176 1.18989 1.10523 0
M  V30 2098 H 193.173 0.582859 4.12805 0
M  V30 2099 H 191.833 -0.190595 3.2414 0
M  V30 2100 H 192.844 3.45475 3.85833 0
M  V30 2101 H 189.521 0.883657 4.08041 0
M  V30 2102 H 190.911 4.89082 4.60704 0
M  V30 2103 N 193.631 -1.12557 1.10312 0
M  V30 2104 C 194.541 -2.21841 0.763142 0
M  V30 2105 C 195.557 -1.72354 -0.238801 0
M  V30 2106 O 196.733 -2.01249 -0.0778746 0
M  V30 2107 C 193.798 -3.46131 0.198632 0
M  V30 2108 C 192.859 -4.10464 1.25769 0
M  V30 2109 C 192.092 -5.28821 0.72002 0
M  V30 2110 O 192.315 -5.6859 -0.453993 0
M  V30 2111 O 191.249 -5.83437 1.47935 0
M  V30 2112 H 195.075 -2.53312 1.67532 0
M  V30 2113 H 192.66 -1.20867 0.878157 0
M  V30 2114 H 194.542 -4.2125 -0.112401 0
M  V30 2115 H 193.217 -3.16338 -0.686419 0
M  V30 2116 H 192.124 -3.3713 1.62156 0
M  V30 2117 H 193.457 -4.44408 2.11571 0
M  V30 2118 N 195.109 -0.891671 -1.2995 0
M  V30 2119 C 196.355 -0.514261 -1.96171 0
M  V30 2120 C 196.688 0.935506 -1.70182 0
M  V30 2121 O 195.963 1.66204 -1.01028 0
M  V30 2122 C 196.246 -0.797719 -3.51153 0
M  V30 2123 C 196.099 -2.2986 -3.86632 0
M  V30 2124 C 197.418 -0.278749 -4.39216 0
M  V30 2125 H 194.537 -0.188314 -0.712535 0
M  V30 2126 H 197.179 -1.11689 -1.53706 0
M  V30 2127 H 195.329 -0.284826 -3.87455 0
M  V30 2128 H 197.001 -2.88042 -3.60319 0
M  V30 2129 H 195.244 -2.76257 -3.34462 0
M  V30 2130 H 195.915 -2.44753 -4.94773 0
M  V30 2131 H 198.391 -0.717825 -4.09862 0
M  V30 2132 H 197.267 -0.506353 -5.46559 0
M  V30 2133 H 197.528 0.820266 -4.34424 0
M  V30 2134 N 196.587 1.43421 -0.653314 0
M  V30 2135 C 197.815 2.06163 -0.174491 0
M  V30 2136 C 198.23 1.48969 1.1599 0
M  V30 2137 O 197.587 0.621042 1.71608 0
M  V30 2138 C 197.638 3.61417 -0.0774865 0
M  V30 2139 O 197.359 4.16485 -1.35912 0
M  V30 2140 C 198.86 4.41235 0.427402 0
M  V30 2141 H 196.08 0.664946 -0.0899353 0
M  V30 2142 H 198.624 1.83924 -0.893988 0
M  V30 2143 H 196.779 3.82841 0.59257 0
M  V30 2144 H 197.193 5.10153 -1.21839 0
M  V30 2145 H 198.667 5.5021 0.44423 0
M  V30 2146 H 199.144 4.14268 1.45873 0
M  V30 2147 H 199.75 4.2478 -0.210167 0
M  V30 2148 N 198.065 0.39524 1.52563 0
M  V30 2149 C 199.311 -0.185318 2.01952 0
M  V30 2150 C 199.644 -1.45964 1.28095 0
M  V30 2151 O 198.919 -1.90689 0.38315 0
M  V30 2152 C 199.202 -0.447193 3.57312 0
M  V30 2153 C 199.055 0.842828 4.41833 0
M  V30 2154 C 200.374 -1.23529 4.22408 0
M  V30 2155 H 197.493 -0.0658788 0.73405 0
M  V30 2156 H 200.135 0.525975 1.82575 0
M  V30 2157 H 198.285 -1.05312 3.73954 0
M  V30 2158 H 199.957 1.4795 4.36931 0
M  V30 2159 H 198.2 1.45686 4.08605 0
M  V30 2160 H 198.871 0.614165 5.48573 0
M  V30 2161 H 201.347 -0.722445 4.0978 0
M  V30 2162 H 200.223 -1.38727 5.3108 0
M  V30 2163 H 200.484 -2.25213 3.80436 0
M  V30 2164 N 199.544 -1.57102 0.125237 0
M  V30 2165 C 200.792 -1.95021 -0.530198 0
M  V30 2166 C 201.113 -1.00982 -1.66816 0
M  V30 2167 O 200.383 -0.0672693 -1.95784 0
M  V30 2168 H 198.963 -0.720046 -0.198853 0
M  V30 2169 H 201.625 -1.93916 0.19564 0
M  V30 2170 H 200.721 -2.98211 -0.920681 0
M  V30 2171 N 201.022 0.148545 -1.56898 0
M  V30 2172 C 201.97 1.20265 -1.99096 0
M  V30 2173 C 202.964 1.44559 -0.883123 0
M  V30 2174 O 204.17 1.4487 -1.0683 0
M  V30 2175 H 200.545 0.404786 -0.63376 0
M  V30 2176 H 202.516 0.82004 -2.86911 0
M  V30 2177 C 201.265 2.52886 -2.3863 0
M  V30 2178 H 200.588 2.35021 -3.23427 0
M  V30 2179 H 202.028 3.25274 -2.7198 0
M  V30 2180 C 200.487 3.13315 -1.23837 0
M  V30 2181 O 201.017 3.98077 -0.538268 0
M  V30 2182 N 199.223 2.72742 -1.00301 0
M  V30 2183 H 198.77 2.03912 -1.5741 0
M  V30 2184 H 198.728 3.13507 -0.236838 0
M  V30 2185 N 202.5 1.5196 0.417844 0
M  V30 2186 C 203.916 1.40569 0.755816 0
M  V30 2187 C 204.116 0.503316 1.95113 0
M  V30 2188 O 203.172 -0.0341925 2.52477 0
M  V30 2189 C 204.485 2.82947 1.01791 0
M  V30 2190 C 206.033 2.92231 1.12116 0
M  V30 2191 C 206.508 4.35559 1.41608 0
M  V30 2192 N 207.999 4.38753 1.48491 0
M  V30 2193 C 208.734 5.46705 1.7292 0
M  V30 2194 N 208.23 6.64788 1.95011 0
M  V30 2195 N 210.023 5.34209 1.74863 0
M  V30 2196 H 202.174 2.09168 -0.369098 0
M  V30 2197 H 204.437 0.942409 -0.102809 0
M  V30 2198 H 204.143 3.5106 0.212081 0
M  V30 2199 H 204.017 3.23462 1.94042 0
M  V30 2200 H 206.404 2.24304 1.9176 0
M  V30 2201 H 206.485 2.55185 0.177225 0
M  V30 2202 H 206.129 5.04042 0.624848 0
M  V30 2203 H 206.059 4.70133 2.37239 0
M  V30 2204 H 208.55 3.5363 1.33244 0
M  V30 2205 H 208.863 7.42845 2.13076 0
M  V30 2206 H 207.208 6.67869 1.92293 0
M  V30 2207 H 210.399 4.40937 1.57137 0
M  V30 2208 H 210.572 6.18415 1.93563 0
M  V30 2209 N 203.978 -0.674533 1.42435 0
M  V30 2210 C 204.908 -1.80009 1.48724 0
M  V30 2211 C 205.889 -1.6659 0.343793 0
M  V30 2212 O 207.074 -1.86007 0.558137 0
M  V30 2213 C 204.204 -3.18306 1.38919 0
M  V30 2214 C 203.158 -3.46461 2.51294 0
M  V30 2215 C 202.484 -4.84335 2.26547 0
M  V30 2216 C 203.784 -3.43328 3.93603 0
M  V30 2217 H 205.478 -1.75004 2.42928 0
M  V30 2218 H 203.024 -0.840533 1.16923 0
M  V30 2219 H 204.977 -3.9678 1.41927 0
M  V30 2220 H 203.701 -3.2399 0.412094 0
M  V30 2221 H 202.36 -2.70348 2.47604 0
M  V30 2222 H 202.008 -4.86669 1.2713 0
M  V30 2223 H 201.708 -5.04136 3.01861 0
M  V30 2224 H 203.232 -5.65094 2.31304 0
M  V30 2225 H 204.646 -4.11772 3.98894 0
M  V30 2226 H 203.043 -3.74664 4.68771 0
M  V30 2227 H 204.113 -2.41897 4.20255 0
M  V30 2228 N 205.456 -1.28612 -0.910864 0
M  V30 2229 C 206.705 -1.15311 -1.65488 0
M  V30 2230 C 207.018 0.296999 -1.93332 0
M  V30 2231 O 208.224 0.551168 -2.65847 0
M  V30 2232 C 206.68 -2.01599 -2.98137 0
M  V30 2233 C 206.288 -3.51367 -2.7793 0
M  V30 2234 C 208.032 -1.96993 -3.76024 0
M  V30 2235 C 205.939 -4.29797 -4.06237 0
M  V30 2236 H 204.869 -0.42796 -0.620779 0
M  V30 2237 H 207.52 -1.53166 -1.01057 0
M  V30 2238 H 205.902 -1.56603 -3.63719 0
M  V30 2239 H 207.076 -4.0434 -2.21011 0
M  V30 2240 H 205.391 -3.57529 -2.13452 0
M  V30 2241 H 207.988 -2.52856 -4.71135 0
M  V30 2242 H 208.331 -0.94733 -4.05378 0
M  V30 2243 H 208.864 -2.39973 -3.17266 0
M  V30 2244 H 205.603 -5.32648 -3.82055 0
M  V30 2245 H 205.123 -3.81596 -4.62757 0
M  V30 2246 H 206.802 -4.39869 -4.74473 0
M  V30 2247 N 206.934 1.1197 -1.10907 0
M  V30 2248 C 208.35 1.35591 -0.841852 0
M  V30 2249 C 208.55 1.94233 0.536246 0
M  V30 2250 O 207.606 2.1717 1.28816 0
M  V30 2251 C 208.919 2.29284 -1.94549 0
M  V30 2252 C 210.467 2.42862 -1.97451 0
M  V30 2253 C 210.942 3.39873 -3.07002 0
M  V30 2254 N 212.433 3.47433 -3.06341 0
M  V30 2255 C 213.168 4.22421 -3.87748 0
M  V30 2256 N 212.664 5.00432 -4.79103 0
M  V30 2257 N 214.457 4.17876 -3.75946 0
M  V30 2258 H 206.608 0.722664 -1.99728 0
M  V30 2259 H 208.871 0.380635 -0.868229 0
M  V30 2260 H 208.577 1.93378 -2.93765 0
M  V30 2261 H 208.451 3.29452 -1.83688 0
M  V30 2262 H 210.838 2.78046 -0.988645 0
M  V30 2263 H 210.919 1.42566 -2.12388 0
M  V30 2264 H 210.563 3.05417 -4.05811 0
M  V30 2265 H 210.493 4.40011 -2.89306 0
M  V30 2266 H 212.984 2.91784 -2.40147 0
M  V30 2267 H 213.297 5.55002 -5.37766 0
M  V30 2268 H 211.642 4.99612 -4.83128 0
M  V30 2269 H 214.833 3.56016 -3.03924 0
M  V30 2270 H 215.006 4.76061 -4.39624 0
M  V30 2271 N 208.412 0.89855 1.29475 0
M  V30 2272 C 209.342 0.39201 2.30186 0
M  V30 2273 C 210.323 -0.532359 1.61555 0
M  V30 2274 O 211.508 -0.443331 1.89072 0
M  V30 2275 C 208.638 -0.382353 3.45189 0
M  V30 2276 C 207.592 0.451483 4.25612 0
M  V30 2277 C 206.918 -0.450307 5.328 0
M  V30 2278 C 208.218 1.70079 4.93832 0
M  V30 2279 H 209.912 1.23362 2.72804 0
M  V30 2280 H 207.458 0.594638 1.31149 0
M  V30 2281 H 209.411 -0.747451 4.14718 0
M  V30 2282 H 208.135 -1.25774 3.01411 0
M  V30 2283 H 206.794 0.798897 3.57789 0
M  V30 2284 H 206.442 -1.32379 4.85268 0
M  V30 2285 H 206.142 0.103902 5.87508 0
M  V30 2286 H 207.666 -0.811623 6.05182 0
M  V30 2287 H 209.08 1.40549 5.55805 0
M  V30 2288 H 207.477 2.19623 5.58467 0
M  V30 2289 H 208.547 2.43744 4.19186 0
M  V30 2290 N 209.89 -1.43072 0.660911 0
M  V30 2291 C 211.137 -2.01721 0.177445 0
M  V30 2292 C 211.465 -1.5218 -1.21126 0
M  V30 2293 O 210.72 -0.708659 -1.82419 0
M  V30 2294 C 211.019 -3.57103 0.145563 0
M  V30 2295 C 210.685 -4.26021 1.47705 0
M  V30 2296 C 209.347 -4.44563 1.84165 0
M  V30 2297 C 211.699 -4.64983 2.35458 0
M  V30 2298 C 209.027 -4.99334 3.0803 0
M  V30 2299 C 211.379 -5.21127 3.58622 0
M  V30 2300 C 210.043 -5.37884 3.95268 0
M  V30 2301 H 209.313 -0.73815 0.0649317 0
M  V30 2302 H 211.96 -1.71446 0.853144 0
M  V30 2303 H 210.265 -3.86965 -0.61361 0
M  V30 2304 H 211.962 -4.00248 -0.2455 0
M  V30 2305 H 208.552 -4.11939 1.18339 0
M  V30 2306 H 212.736 -4.50343 2.08579 0
M  V30 2307 H 207.992 -5.10493 3.36462 0
M  V30 2308 H 212.166 -5.50262 4.26831 0
M  V30 2309 H 209.793 -5.80089 4.91325 0
M  V30 2310 N 211.368 -0.403325 -1.52352 0
M  V30 2311 C 212.593 0.176499 -2.06648 0
M  V30 2312 C 213.018 1.38577 -1.27193 0
M  V30 2313 O 212.376 1.7879 -0.300637 0
M  V30 2314 C 212.424 0.511061 -3.5696 0
M  V30 2315 O 211.528 1.60294 -3.79973 0
M  V30 2316 H 210.869 0.0167337 -0.663789 0
M  V30 2317 H 213.399 -0.574848 -1.96359 0
M  V30 2318 H 213.409 0.771362 -4.00642 0
M  V30 2319 H 212.084 -0.37296 -4.14224 0
M  V30 2320 H 210.661 1.33526 -3.48174 0
M  V30 2321 N 212.846 1.57033 -0.133567 0
M  V30 2322 C 213.794 2.17348 0.828412 0
M  V30 2323 C 214.788 1.12671 1.26498 0
M  V30 2324 O 215.994 1.30947 1.23502 0
M  V30 2325 H 212.369 0.695775 0.285309 0
M  V30 2326 H 214.34 2.96935 0.295372 0
M  V30 2327 C 213.089 2.79893 2.06289 0
M  V30 2328 H 212.412 3.60147 1.73592 0
M  V30 2329 H 213.852 3.25615 2.71572 0
M  V30 2330 C 212.311 1.77713 2.86216 0
M  V30 2331 O 212.841 1.23937 3.82103 0
M  V30 2332 N 211.047 1.47321 2.50489 0
M  V30 2333 H 210.594 1.91243 1.7258 0
M  V30 2334 H 210.552 0.79199 3.04261 0
M  V30 2335 N 214.325 -0.140222 1.56975 0
M  V30 2336 C 215.573 -0.850005 1.83356 0
M  V30 2337 C 215.894 -1.81399 0.71551 0
M  V30 2338 O 215.164 -1.94136 -0.262294 0
M  V30 2339 H 213.744 -0.316886 0.676456 0
M  V30 2340 H 216.406 -0.132608 1.94448 0
M  V30 2341 H 215.502 -1.40814 2.78528 0
M  V30 2342 N 215.803 -1.52179 -0.40978 0
M  V30 2343 C 217.031 -1.70054 -1.17853 0
M  V30 2344 C 217.446 -0.409735 -1.843 0
M  V30 2345 O 216.803 0.614183 -1.71855 0
M  V30 2346 C 216.854 -2.83568 -2.24213 0
M  V30 2347 O 216.575 -4.0765 -1.60478 0
M  V30 2348 C 218.076 -3.12947 -3.13973 0
M  V30 2349 H 215.296 -0.569917 -0.354169 0
M  V30 2350 H 217.84 -1.98734 -0.482198 0
M  V30 2351 H 215.995 -2.57409 -2.89516 0
M  V30 2352 H 216.409 -4.70899 -2.30986 0
M  V30 2353 H 217.883 -3.95889 -3.84677 0
M  V30 2354 H 218.36 -2.26472 -3.76307 0
M  V30 2355 H 218.966 -3.40868 -2.5434 0
M  V30 2356 N 217.281 0.66697 -1.42791 0
M  V30 2357 C 218.527 1.4291 -1.43891 0
M  V30 2358 C 218.86 1.94114 -0.0578972 0
M  V30 2359 O 218.135 1.71414 0.91911 0
M  V30 2360 C 218.418 2.62049 -2.46987 0
M  V30 2361 C 218.271 2.16426 -3.94309 0
M  V30 2362 C 219.59 3.64266 -2.46978 0
M  V30 2363 H 216.709 0.518306 -0.523954 0
M  V30 2364 H 219.351 0.757321 -1.74255 0
M  V30 2365 H 217.501 3.19361 -2.21225 0
M  V30 2366 H 219.173 1.64221 -4.31079 0
M  V30 2367 H 217.416 1.47925 -4.078 0
M  V30 2368 H 218.087 3.02038 -4.62036 0
M  V30 2369 H 220.563 3.16686 -2.69906 0
M  V30 2370 H 219.439 4.45196 -3.21079 0
M  V30 2371 H 219.7 4.15927 -1.49857 0
M  V30 2372 N 218.759 1.29093 0.90403 0
M  V30 2373 C 219.689 1.16401 2.02418 0
M  V30 2374 C 220.67 0.0593085 1.69997 0
M  V30 2375 O 221.855 0.238021 1.92736 0
M  V30 2376 C 218.985 0.835233 3.37107 0
M  V30 2377 C 217.939 1.89578 3.83724 0
M  V30 2378 C 217.265 1.42041 5.15489 0
M  V30 2379 C 218.565 3.30394 4.04521 0
M  V30 2380 H 220.259 2.10109 2.13295 0
M  V30 2381 H 217.805 1.01157 1.02486 0
M  V30 2382 H 219.758 0.733169 4.14973 0
M  V30 2383 H 218.482 -0.137543 3.2631 0
M  V30 2384 H 217.141 1.98715 3.08071 0
M  V30 2385 H 216.789 0.436426 5.01103 0
M  V30 2386 H 216.489 2.12964 5.4765 0
M  V30 2387 H 218.013 1.33176 5.959 0
M  V30 2388 H 219.427 3.24123 4.72882 0
M  V30 2389 H 217.824 3.99237 4.48029 0
M  V30 2390 H 218.894 3.73692 3.09002 0
M  V30 2391 N 220.237 -1.11381 1.11499 0
M  V30 2392 C 221.467 -1.86663 0.885464 0
M  V30 2393 C 221.875 -1.80464 -0.568281 0
M  V30 2394 O 221.218 -1.18445 -1.40415 0
M  V30 2395 C 221.28 -3.36337 1.26956 0
M  V30 2396 C 220.944 -3.66304 2.73259 0
M  V30 2397 C 221.941 -3.63733 3.71476 0
M  V30 2398 C 219.626 -3.9529 3.09921 0
M  V30 2399 C 221.62 -3.89725 5.04374 0
M  V30 2400 C 219.307 -4.20941 4.43004 0
M  V30 2401 C 220.305 -4.18147 5.40039 0
M  V30 2402 O 219.993 -4.43153 6.70724 0
M  V30 2403 H 219.725 -0.597114 0.316908 0
M  V30 2404 H 222.279 -1.41782 1.48617 0
M  V30 2405 H 220.509 -3.81826 0.611999 0
M  V30 2406 H 222.198 -3.92986 1.01573 0
M  V30 2407 H 222.964 -3.41389 3.44498 0
M  V30 2408 H 218.843 -3.966 2.35009 0
M  V30 2409 H 222.387 -3.8746 5.80104 0
M  V30 2410 H 218.284 -4.42761 4.69716 0
M  V30 2411 H 219.052 -4.60717 6.76522 0
M  V30 2412 N 221.715 -0.905404 -1.28997 0
M  V30 2413 C 222.678 -0.392253 -2.25819 0
M  V30 2414 C 223.678 0.476753 -1.5357 0
M  V30 2415 O 224.868 0.280994 -1.71919 0
M  V30 2416 C 222 0.438588 -3.38067 0
M  V30 2417 H 223.193 -1.24743 -2.72725 0
M  V30 2418 H 220.746 -0.684051 -1.40536 0
M  V30 2419 H 221.481 1.31352 -2.96508 0
M  V30 2420 H 221.266 -0.184167 -3.91667 0
M  V30 2421 H 222.756 0.78873 -4.10084 0
M  V30 2422 N 223.193 1.4272 -0.668489 0
M  V30 2423 C 224.123 2.335 -0.000100175 0
M  V30 2424 C 225.104 1.50328 0.795964 0
M  V30 2425 O 226.289 1.78949 0.754385 0
M  V30 2426 C 223.419 3.33874 0.956302 0
M  V30 2427 C 222.373 4.27152 0.269278 0
M  V30 2428 C 221.699 5.17684 1.33818 0
M  V30 2429 C 222.999 5.15373 -0.847805 0
M  V30 2430 H 224.693 2.89639 -0.758244 0
M  V30 2431 H 222.239 1.39269 -0.366079 0
M  V30 2432 H 224.192 3.9629 1.43292 0
M  V30 2433 H 222.916 2.76025 1.74579 0
M  V30 2434 H 221.575 3.66123 -0.187042 0
M  V30 2435 H 221.223 4.56165 2.1195 0
M  V30 2436 H 220.923 5.80918 0.883659 0
M  V30 2437 H 222.447 5.82974 1.81586 0
M  V30 2438 H 223.861 5.7151 -0.452681 0
M  V30 2439 H 222.258 5.87407 -1.22773 0
M  V30 2440 H 223.328 4.5415 -1.69929 0
M  V30 2441 N 224.671 0.411399 1.52136 0
M  V30 2442 C 226.087 0.0623865 1.59478 0
M  V30 2443 C 226.287 -1.42554 1.4241 0
M  V30 2444 O 225.343 -2.19263 1.2522 0
M  V30 2445 C 226.656 0.559331 2.95452 0
M  V30 2446 C 228.204 0.517503 3.08692 0
M  V30 2447 C 228.679 0.990994 4.4715 0
M  V30 2448 N 230.17 0.947908 4.53397 0
M  V30 2449 C 230.905 1.28544 5.58806 0
M  V30 2450 N 230.401 1.69454 6.71757 0
M  V30 2451 N 232.194 1.20526 5.49026 0
M  V30 2452 H 224.345 1.37982 1.61477 0
M  V30 2453 H 226.608 0.566977 0.759764 0
M  V30 2454 H 226.314 1.59938 3.1323 0
M  V30 2455 H 226.188 -0.0298014 3.77188 0
M  V30 2456 H 228.575 -0.513505 2.90598 0
M  V30 2457 H 228.656 1.14272 2.28857 0
M  V30 2458 H 228.3 2.02034 4.65988 0
M  V30 2459 H 228.23 0.34257 5.25485 0
M  V30 2460 H 230.721 0.647157 3.72317 0
M  V30 2461 H 231.034 1.93513 7.48179 0
M  V30 2462 H 229.379 1.73359 6.73032 0
M  V30 2463 H 232.57 0.884505 4.59667 0
M  V30 2464 H 232.743 1.47161 6.31069 0
M  V30 2465 N 226.149 -1.5696 0.141893 0
M  V30 2466 C 227.398 -1.95135 -0.510427 0
M  V30 2467 C 227.711 -1.02896 -1.66348 0
M  V30 2468 O 228.917 -1.30629 -2.38009 0
M  V30 2469 C 227.373 -3.46876 -0.959427 0
M  V30 2470 C 226.981 -4.47691 0.166419 0
M  V30 2471 C 228.725 -3.93927 -1.58183 0
M  V30 2472 C 226.632 -5.90636 -0.300565 0
M  V30 2473 H 225.562 -0.728494 -0.194454 0
M  V30 2474 H 228.213 -1.8211 0.22542 0
M  V30 2475 H 226.595 -3.55215 -1.75038 0
M  V30 2476 H 227.769 -4.51043 0.94325 0
M  V30 2477 H 226.084 -4.10527 0.696905 0
M  V30 2478 H 228.681 -4.98158 -1.94275 0
M  V30 2479 H 229.024 -3.3519 -2.46888 0
M  V30 2480 H 229.557 -3.88484 -0.855863 0
M  V30 2481 H 226.296 -6.5318 0.550989 0
M  V30 2482 H 225.816 -5.90655 -1.04338 0
M  V30 2483 H 227.495 -6.42588 -0.754265 0
M  V30 2484 N 227.627 0.131896 -1.57047 0
M  V30 2485 C 228.855 0.856461 -1.88341 0
M  V30 2486 C 229.27 1.74042 -0.731757 0
M  V30 2487 O 228.627 1.80051 0.297945 0
M  V30 2488 C 228.678 1.70064 -3.18999 0
M  V30 2489 O 228.399 0.852278 -4.2973 0
M  V30 2490 C 229.9 2.53148 -3.63911 0
M  V30 2491 H 227.12 0.246885 -0.62393 0
M  V30 2492 H 229.664 0.120152 -2.04147 0
M  V30 2493 H 227.819 2.38984 -3.04902 0
M  V30 2494 H 228.233 1.43329 -5.04537 0
M  V30 2495 H 229.707 3.07931 -4.58129 0
M  V30 2496 H 230.184 3.29901 -2.89935 0
M  V30 2497 H 230.79 1.89492 -3.80753 0
M  V30 2498 N 229.106 1.52395 0.401703 0
M  V30 2499 C 230.334 1.70676 1.16949 0
M  V30 2500 C 230.749 0.419503 1.8408 0
M  V30 2501 O 230.106 -0.605061 1.72178 0
M  V30 2502 C 230.157 2.84753 2.22706 0
M  V30 2503 O 229.878 4.08495 1.58314 0
M  V30 2504 C 231.379 3.14608 3.12309 0
M  V30 2505 H 228.599 0.571787 0.351142 0
M  V30 2506 H 231.143 1.98987 0.471652 0
M  V30 2507 H 229.298 2.58941 2.88147 0
M  V30 2508 H 229.712 4.72117 2.28485 0
M  V30 2509 H 231.186 3.97923 3.82572 0
M  V30 2510 H 231.663 2.28464 3.75101 0
M  V30 2511 H 232.269 3.42212 2.52529 0
M  V30 2512 N 230.584 -0.659388 1.43143 0
M  V30 2513 C 231.812 -1.44723 1.47861 0
M  V30 2514 C 232.227 -1.88563 0.0945886 0
M  V30 2515 O 231.584 -1.59108 -0.893915 0
M  V30 2516 C 231.635 -2.68627 2.41913 0
M  V30 2517 O 231.356 -2.26623 3.74932 0
M  V30 2518 C 232.857 -3.62045 2.55809 0
M  V30 2519 H 230.077 -0.444801 0.502387 0
M  V30 2520 H 232.621 -0.808916 1.87821 0
M  V30 2521 H 230.776 -3.28613 2.05164 0
M  V30 2522 H 231.19 -3.06745 4.2545 0
M  V30 2523 H 232.664 -4.45666 3.25708 0
M  V30 2524 H 233.141 -4.08981 1.60099 0
M  V30 2525 H 233.747 -3.07944 2.93344 0
M  V30 2526 N 232.062 -1.29571 -0.897171 0
M  V30 2527 C 233.308 -1.17863 -1.65034 0
M  V30 2528 C 233.641 0.268729 -1.92332 0
M  V30 2529 O 232.916 1.19378 -1.53555 0
M  V30 2530 C 233.199 -1.995 -2.99786 0
M  V30 2531 C 233.052 -3.5239 -2.79538 0
M  V30 2532 C 234.371 -1.82335 -4.00552 0
M  V30 2533 H 231.49 -0.429528 -0.598895 0
M  V30 2534 H 234.132 -1.59072 -1.03905 0
M  V30 2535 H 232.282 -1.64485 -3.51962 0
M  V30 2536 H 233.954 -3.97401 -2.34244 0
M  V30 2537 H 232.197 -3.77187 -2.14273 0
M  V30 2538 H 232.868 -4.04787 -3.75302 0
M  V30 2539 H 235.344 -2.12924 -3.57495 0
M  V30 2540 H 234.22 -2.41801 -4.92771 0
M  V30 2541 H 234.481 -0.779209 -4.35179 0
M  V30 2542 N 233.54 1.10788 -1.12088 0
M  V30 2543 C 234.503 2.15207 -0.788577 0
M  V30 2544 C 235.503 1.59609 0.195317 0
M  V30 2545 O 236.693 1.74174 -0.0300193 0
M  V30 2546 C 233.825 3.4047 -0.171174 0
M  V30 2547 H 235.018 2.46116 -1.71368 0
M  V30 2548 H 232.571 1.26089 -0.923652 0
M  V30 2549 H 233.306 3.15176 0.763832 0
M  V30 2550 H 233.091 3.82109 -0.879514 0
M  V30 2551 H 234.581 4.17576 0.04496 0
M  V30 2552 N 235.018 0.912232 1.28515 0
M  V30 2553 C 236.258 0.551677 1.96814 0
M  V30 2554 C 236.622 -0.887825 1.7024 0
M  V30 2555 O 237.823 -1.35588 2.32098 0
M  V30 2556 C 236.094 0.850555 3.47132 0
M  V30 2557 S 237.653 0.59619 4.34731 0
M  V30 2558 H 234.471 0.204191 0.681049 0
M  V30 2559 H 237.073 1.17736 1.56072 0
M  V30 2560 H 235.777 1.8962 3.63968 0
M  V30 2561 H 235.308 0.213471 3.9282 0
M  V30 2562 H 237.323 -0.553154 4.93107 0
M  V30 2563 N 236.496 -1.42363 0.676048 0
M  V30 2564 C 237.444 -2.32596 -0.0131507 0
M  V30 2565 C 238.438 -1.49891 -0.789238 0
M  V30 2566 O 239.644 -1.65955 -0.697061 0
M  V30 2567 H 236.019 -0.751647 -0.0230481 0
M  V30 2568 H 237.99 -2.88421 0.765243 0
M  V30 2569 C 236.739 -3.34479 -0.949702 0
M  V30 2570 H 236.062 -3.98158 -0.361938 0
M  V30 2571 H 237.502 -4.00199 -1.4006 0
M  V30 2572 C 235.961 -2.66838 -2.05667 0
M  V30 2573 O 236.491 -2.50124 -3.14326 0
M  V30 2574 N 234.697 -2.25843 -1.82875 0
M  V30 2575 H 234.244 -2.39637 -0.945085 0
M  V30 2576 H 234.202 -1.80918 -2.5713 0
M  V30 2577 N 237.974 -0.419461 -1.51915 0
M  V30 2578 C 238.907 0.445751 -2.23804 0
M  V30 2579 C 239.885 1.03951 -1.25031 0
M  V30 2580 O 241.069 1.08541 -1.54114 0
M  V30 2581 C 238.196 1.61964 -2.97465 0
M  V30 2582 C 237.242 1.14828 -4.10751 0
M  V30 2583 S 238.075 0.104938 -5.35397 0
M  V30 2584 C 239.231 1.28391 -6.1259 0
M  V30 2585 H 239.464 -0.164627 -2.96844 0
M  V30 2586 H 236.997 -0.203833 -1.53049 0
M  V30 2587 H 238.955 2.29271 -3.40507 0
M  V30 2588 H 237.616 2.20139 -2.24048 0
M  V30 2589 H 236.809 2.02561 -4.61503 0
M  V30 2590 H 236.411 0.553712 -3.69878 0
M  V30 2591 H 238.703 2.20563 -6.40592 0
M  V30 2592 H 239.646 0.816724 -7.03374 0
M  V30 2593 H 240.054 1.51439 -5.43807 0
M  V30 2594 N 239.452 1.56882 -0.150215 0
M  V30 2595 C 240.729 1.87844 0.545327 0
M  V30 2596 C 241.109 1.0567 1.82749 0
M  V30 2597 O 240.457 0.144442 2.28043 0
M  V30 2598 C 240.667 3.39526 0.80767 0
M  V30 2599 C 242.015 4.08814 1.14703 0
M  V30 2600 O 243.039 3.44723 0.896917 0
M  V30 2601 O 241.898 5.22004 1.61784 0
M  V30 2602 H 238.992 0.778677 0.278553 0
M  V30 2603 H 241.538 1.68666 -0.187068 0
M  V30 2604 H 240.31 3.91173 -0.0996096 0
M  V30 2605 H 239.933 3.64243 1.59413 0
M  V30 2606 N 240.93 -0.123565 1.57115 0
M  V30 2607 C 241.86 -1.15309 2.03042 0
M  V30 2608 C 242.841 -1.43454 0.914061 0
M  V30 2609 O 244.026 -1.53973 1.18347 0
M  V30 2610 C 241.156 -2.48043 2.43089 0
M  V30 2611 C 240.11 -2.3437 3.58127 0
M  V30 2612 C 239.436 -3.72026 3.84059 0
M  V30 2613 C 240.736 -1.80804 4.90007 0
M  V30 2614 H 242.43 -0.771102 2.893 0
M  V30 2615 H 239.976 -0.369479 1.39179 0
M  V30 2616 H 241.929 -3.20311 2.73823 0
M  V30 2617 H 240.653 -2.88122 1.53796 0
M  V30 2618 H 239.312 -1.64551 3.27595 0
M  V30 2619 H 238.96 -4.09582 2.91979 0
M  V30 2620 H 238.66 -3.63732 4.6149 0
M  V30 2621 H 240.184 -4.45806 4.1724 0
M  V30 2622 H 241.598 -2.42886 5.19307 0
M  V30 2623 H 239.995 -1.83343 5.71407 0
M  V30 2624 H 241.065 -0.76528 4.78823 0
M  V30 2625 N 242.408 -1.52605 -0.393616 0
M  V30 2626 C 243.633 -1.71592 -1.16495 0
M  V30 2627 C 244.058 -0.43133 -1.83088 0
M  V30 2628 O 243.416 0.612523 -1.7064 0
M  V30 2629 C 243.464 -2.86318 -2.19213 0
M  V30 2630 O 242.568 -2.52969 -3.257 0
M  V30 2631 H 241.909 -0.570734 -0.33935 0
M  V30 2632 H 244.439 -1.99377 -0.459324 0
M  V30 2633 H 244.449 -3.1168 -2.63286 0
M  V30 2634 H 243.124 -3.79511 -1.7013 0
M  V30 2635 H 241.701 -2.38332 -2.86797 0
M  V30 2636 N 243.887 0.651787 -1.4349 0
M  V30 2637 C 244.834 1.76462 -1.4876 0
M  V30 2638 C 245.804 1.62641 -0.337189 0
M  V30 2639 O 246.989 1.82864 -0.544544 0
M  V30 2640 C 244.129 3.14623 -1.41796 0
M  V30 2641 C 243.242 3.39568 -2.67053 0
M  V30 2642 C 242.377 4.67585 -2.52068 0
M  V30 2643 C 241.416 4.85639 -3.72587 0
M  V30 2644 N 240.553 6.04915 -3.56402 0
M  V30 2645 H 245.393 1.71293 -2.43849 0
M  V30 2646 H 242.93 0.835889 -1.21043 0
M  V30 2647 H 244.888 3.94496 -1.35753 0
M  V30 2648 H 243.518 3.18859 -0.50288 0
M  V30 2649 H 242.57 2.53783 -2.8337 0
M  V30 2650 H 243.882 3.48795 -3.56572 0
M  V30 2651 H 243.036 5.55586 -2.4374 0
M  V30 2652 H 241.775 4.60681 -1.60075 0
M  V30 2653 H 240.78 3.96073 -3.81321 0
M  V30 2654 H 242.005 4.94372 -4.65589 0
M  V30 2655 H 239.951 5.9914 -2.67146 0
M  V30 2656 H 239.868 6.15106 -4.39524 0
M  V30 2657 H 241.136 6.95533 -3.51929 0
M  V30 2658 N 245.365 1.30045 0.890287 0
M  V30 2659 C 246.595 1.21296 1.67245 0
M  V30 2660 C 247.003 -0.227471 1.87828 0
M  V30 2661 O 246.346 -1.16296 1.422 0
M  V30 2662 C 246.408 1.86519 3.07329 0
M  V30 2663 C 246.072 3.35837 3.09939 0
M  V30 2664 C 247.069 4.31915 2.89389 0
M  V30 2665 C 244.754 3.77196 3.31706 0
M  V30 2666 C 246.748 5.67325 2.90552 0
M  V30 2667 C 244.435 5.12725 3.32499 0
M  V30 2668 C 245.433 6.076 3.11947 0
M  V30 2669 O 245.121 7.40655 3.12547 0
M  V30 2670 H 244.853 0.4211 0.528821 0
M  V30 2671 H 247.407 1.72111 1.12103 0
M  V30 2672 H 245.637 1.30228 3.64112 0
M  V30 2673 H 247.326 1.71963 3.67673 0
M  V30 2674 H 248.092 4.01294 2.72375 0
M  V30 2675 H 243.971 3.03796 3.4674 0
M  V30 2676 H 247.515 6.41354 2.74429 0
M  V30 2677 H 243.412 5.42988 3.49047 0
M  V30 2678 H 244.18 7.49577 3.28749 0
M  V30 2679 N 246.843 -1.10192 1.12674 0
M  V30 2680 C 248.254 -1.63707 0.897604 0
M  V30 2681 C 248.605 -1.87812 -0.567546 0
M  V30 2682 O 247.73 -1.62196 -1.43253 0
M  V30 2683 C 248.325 -2.974 1.62292 0
M  V30 2684 C 246.884 -3.47772 1.43986 0
M  V30 2685 C 246.031 -2.22332 1.65722 0
M  V30 2686 H 248.982 -0.936587 1.28116 0
M  V30 2687 H 249.003 -3.64986 1.07541 0
M  V30 2688 H 248.515 -2.79824 2.68924 0
M  V30 2689 H 246.616 -3.70487 0.396206 0
M  V30 2690 H 246.729 -4.25723 2.19765 0
M  V30 2691 H 245.093 -2.30599 1.08149 0
M  V30 2692 H 245.876 -2.07285 2.73657 0
M  V30 2693 N 248.321 -0.919034 -1.28029 0
M  V30 2694 C 249.254 -0.355887 -2.25408 0
M  V30 2695 C 250.232 0.542874 -1.5327 0
M  V30 2696 O 251.416 0.485338 -1.82145 0
M  V30 2697 C 248.543 0.490759 -3.35126 0
M  V30 2698 C 247.589 -0.343358 -4.25116 0
M  V30 2699 S 248.422 -1.75344 -5.05979 0
M  V30 2700 C 249.578 -0.914244 -6.19187 0
M  V30 2701 H 249.811 -1.18123 -2.72826 0
M  V30 2702 H 247.344 -0.720636 -1.36551 0
M  V30 2703 H 249.302 0.973404 -3.98792 0
M  V30 2704 H 247.963 1.29054 -2.86363 0
M  V30 2705 H 247.156 0.304266 -5.03081 0
M  V30 2706 H 246.758 -0.759851 -3.662 0
M  V30 2707 H 249.05 -0.146282 -6.77342 0
M  V30 2708 H 249.993 -1.66661 -6.88208 0
M  V30 2709 H 250.401 -0.460082 -5.62622 0
M  V30 2710 N 249.799 1.42003 -0.683588 0
M  V30 2711 C 251.076 1.95112 -0.138075 0
M  V30 2712 C 251.456 1.62359 1.34918 0
M  V30 2713 O 250.804 0.924311 2.08971 0
M  V30 2714 C 251.014 3.46505 -0.416581 0
M  V30 2715 C 252.362 4.23254 -0.337834 0
M  V30 2716 O 253.386 3.54468 -0.35082 0
M  V30 2717 O 252.245 5.45743 -0.287596 0
M  V30 2718 H 249.339 0.826961 -0.00797996 0
M  V30 2719 H 251.885 1.51784 -0.758924 0
M  V30 2720 H 250.657 3.63582 -1.4465 0
M  V30 2721 H 250.28 3.969 0.235839 0
M  V30 2722 N 251.277 0.427512 1.51691 0
M  V30 2723 C 252.505 -0.141191 2.06418 0
M  V30 2724 C 252.92 -1.37303 1.29589 0
M  V30 2725 O 252.277 -1.79059 0.352732 0
M  V30 2726 C 252.328 -0.473266 3.58389 0
M  V30 2727 O 252.049 0.709673 4.32314 0
M  V30 2728 C 253.55 -1.09371 4.29596 0
M  V30 2729 H 250.77 -0.0122747 0.670888 0
M  V30 2730 H 253.314 0.603764 1.95384 0
M  V30 2731 H 251.469 -1.16812 3.69369 0
M  V30 2732 H 251.883 0.42807 5.2275 0
M  V30 2733 H 253.357 -1.27613 5.37046 0
M  V30 2734 H 253.834 -2.072 3.87253 0
M  V30 2735 H 254.44 -0.43853 4.23033 0
M  V30 2736 N 252.755 -1.56801 0.158532 0
M  V30 2737 C 253.687 -2.14488 -0.807923 0
M  V30 2738 C 254.7 -1.09721 -1.20271 0
M  V30 2739 O 255.889 -1.36956 -1.14478 0
M  V30 2740 C 252.989 -2.66217 -2.09718 0
M  V30 2741 C 252.162 -3.95507 -1.86796 0
M  V30 2742 C 251.221 -4.3243 -2.99818 0
M  V30 2743 O 250.247 -5.00543 -2.71008 0
M  V30 2744 N 251.449 -3.92947 -4.27285 0
M  V30 2745 H 254.214 -2.98042 -0.314816 0
M  V30 2746 H 251.775 -1.61881 -0.0246692 0
M  V30 2747 H 253.767 -2.87924 -2.84398 0
M  V30 2748 H 252.337 -1.87324 -2.50257 0
M  V30 2749 H 251.557 -3.82309 -0.96089 0
M  V30 2750 H 252.845 -4.79972 -1.68833 0
M  V30 2751 H 252.243 -3.38087 -4.53557 0
M  V30 2752 H 250.8 -4.19681 -4.9871 0
M  V30 2753 N 254.233 0.115231 -1.57178 0
M  V30 2754 C 255.461 0.836437 -1.89239 0
M  V30 2755 C 255.876 1.73256 -0.750175 0
M  V30 2756 O 255.233 1.80357 0.278832 0
M  V30 2757 C 255.284 1.66671 -3.20785 0
M  V30 2758 O 255.005 0.806652 -4.3061 0
M  V30 2759 C 256.506 2.49274 -3.66575 0
M  V30 2760 H 253.726 0.240253 -0.626514 0
M  V30 2761 H 256.27 0.0984932 -2.04263 0
M  V30 2762 H 254.425 2.35737 -3.0742 0
M  V30 2763 H 254.839 1.37969 -5.06028 0
M  V30 2764 H 256.313 3.03055 -4.6137 0
M  V30 2765 H 256.79 3.26807 -2.93417 0
M  V30 2766 H 257.396 1.85443 -3.82741 0
M  V30 2767 N 255.711 1.52812 0.385517 0
M  V30 2768 C 256.951 1.69716 1.13911 0
M  V30 2769 C 257.315 0.42962 1.87132 0
M  V30 2770 O 258.516 0.475071 2.64569 0
M  V30 2771 C 256.787 2.90021 2.0886 0
M  V30 2772 S 258.346 3.27531 2.92009 0
M  V30 2773 H 255.164 0.59739 0.385547 0
M  V30 2774 H 257.766 1.90868 0.423061 0
M  V30 2775 H 256.47 3.80493 1.53797 0
M  V30 2776 H 256.001 2.71213 2.84969 0
M  V30 2777 H 258.016 2.77989 4.11019 0
M  V30 2778 N 257.189 -0.644168 1.43834 0
M  V30 2779 C 258.136 -1.75671 1.49694 0
M  V30 2780 C 259.106 -1.6246 0.345809 0
M  V30 2781 O 260.291 -1.82573 0.554234 0
M  V30 2782 C 257.431 -3.13867 1.43463 0
M  V30 2783 C 256.544 -3.38147 2.6885 0
M  V30 2784 C 255.679 -4.66241 2.54544 0
M  V30 2785 C 254.718 -4.83657 3.75157 0
M  V30 2786 N 253.855 -6.03016 3.59605 0
M  V30 2787 H 258.695 -1.69998 2.44754 0
M  V30 2788 H 256.232 -0.829458 1.21484 0
M  V30 2789 H 258.19 -3.9377 1.37843 0
M  V30 2790 H 256.82 -3.18588 0.519783 0
M  V30 2791 H 255.872 -2.52276 2.84712 0
M  V30 2792 H 257.184 -3.46899 3.58417 0
M  V30 2793 H 256.338 -5.54285 2.46683 0
M  V30 2794 H 255.077 -4.59826 1.62516 0
M  V30 2795 H 254.082 -3.94046 3.83416 0
M  V30 2796 H 255.307 -4.91896 4.68204 0
M  V30 2797 H 253.253 -5.97715 2.7032 0
M  V30 2798 H 253.17 -6.12766 4.42779 0
M  V30 2799 H 254.438 -6.93657 3.55613 0
M  V30 2800 N 258.668 -1.30515 -0.883378 0
M  V30 2801 C 259.598 -1.19607 -2.00541 0
M  V30 2802 C 260.579 -0.086346 -1.69881 0
M  V30 2803 O 261.764 -0.268654 -1.92333 0
M  V30 2804 C 258.894 -0.888758 -3.35736 0
M  V30 2805 C 257.848 -1.95659 -3.8066 0
M  V30 2806 C 257.174 -1.50224 -5.13164 0
M  V30 2807 C 258.474 -3.36788 -3.99213 0
M  V30 2808 H 260.168 -2.13476 -2.09925 0
M  V30 2809 H 257.714 -1.02775 -1.00863 0
M  V30 2810 H 259.667 -0.799094 -4.13754 0
M  V30 2811 H 258.391 0.0856125 -3.26488 0
M  V30 2812 H 257.05 -2.03591 -3.04871 0
M  V30 2813 H 256.698 -0.516092 -5.00345 0
M  V30 2814 H 256.398 -2.2165 -5.44192 0
M  V30 2815 H 257.922 -1.42639 -5.93706 0
M  V30 2816 H 259.336 -3.31605 -4.67665 0
M  V30 2817 H 257.733 -4.06314 -4.41621 0
M  V30 2818 H 258.803 -3.78561 -3.03017 0
M  V30 2819 N 260.146 1.09593 -1.13257 0
M  V30 2820 C 261.078 2.16015 -0.766167 0
M  V30 2821 C 262.091 1.61423 0.211303 0
M  V30 2822 O 263.28 1.78498 -0.00863946 0
M  V30 2823 C 260.38 3.38706 -0.114662 0
M  V30 2824 C 259.553 4.22717 -1.12379 0
M  V30 2825 C 258.612 5.23835 -0.498301 0
M  V30 2826 O 257.638 5.573 -1.15781 0
M  V30 2827 N 258.84 5.75886 0.730417 0
M  V30 2828 H 261.605 2.48055 -1.68193 0
M  V30 2829 H 259.166 1.25292 -1.02535 0
M  V30 2830 H 261.158 4.03464 0.315991 0
M  V30 2831 H 259.728 3.04569 0.704011 0
M  V30 2832 H 258.948 3.54122 -1.73179 0
M  V30 2833 H 260.236 4.75673 -1.80589 0
M  V30 2834 H 259.634 5.50911 1.28504 0
M  V30 2835 H 258.191 6.42387 1.10376 0
M  V30 2836 N 261.624 0.925811 1.2754 0
M  V30 2837 C 262.554 0.440748 2.29303 0
M  V30 2838 C 263.535 -0.497971 1.62648 0
M  V30 2839 O 264.72 -0.403126 1.8997 0
M  V30 2840 C 261.85 -0.309048 3.45922 0
M  V30 2841 C 260.804 0.54166 4.24559 0
M  V30 2842 C 260.13 -0.337191 5.33636 0
M  V30 2843 C 261.43 1.80516 4.90114 0
M  V30 2844 H 263.124 1.29121 2.70126 0
M  V30 2845 H 260.67 0.622323 1.29858 0
M  V30 2846 H 262.623 -0.659315 4.1621 0
M  V30 2847 H 261.347 -1.19352 3.04011 0
M  V30 2848 H 260.006 0.874609 3.56014 0
M  V30 2849 H 259.654 -1.22056 4.87966 0
M  V30 2850 H 259.354 0.228497 5.87156 0
M  V30 2851 H 260.878 -0.683072 6.06767 0
M  V30 2852 H 262.292 1.52307 5.52698 0
M  V30 2853 H 260.689 2.3142 5.53683 0
M  V30 2854 H 261.759 2.52581 4.13921 0
M  V30 2855 N 263.102 -1.41638 0.69111 0
M  V30 2856 C 264.012 -2.34588 0.0233487 0
M  V30 2857 C 265.028 -1.55987 -0.770984 0
M  V30 2858 O 266.204 -1.88486 -0.709569 0
M  V30 2859 C 263.269 -3.34684 -0.904851 0
M  V30 2860 C 262.33 -4.29176 -0.103225 0
M  V30 2861 C 261.563 -5.2449 -0.987216 0
M  V30 2862 O 261.786 -5.2514 -2.22674 0
M  V30 2863 O 260.72 -6.00295 -0.439281 0
M  V30 2864 H 264.546 -2.93261 0.789416 0
M  V30 2865 H 262.131 -1.42417 0.45142 0
M  V30 2866 H 264.013 -3.96133 -1.43724 0
M  V30 2867 H 262.688 -2.78461 -1.65049 0
M  V30 2868 H 261.595 -3.71089 0.473655 0
M  V30 2869 H 262.928 -4.88484 0.60365 0
M  V30 2870 N 264.58 -0.43555 -1.51462 0
M  V30 2871 C 265.805 0.132627 -2.06976 0
M  V30 2872 C 266.23 1.35848 -1.30104 0
M  V30 2873 O 265.588 1.78112 -0.338493 0
M  V30 2874 C 265.636 0.43523 -3.57964 0
M  V30 2875 O 264.74 1.52198 -3.83288 0
M  V30 2876 H 264.081 0.00265 -0.663995 0
M  V30 2877 H 266.611 -0.616369 -1.95095 0
M  V30 2878 H 266.621 0.686206 -4.02188 0
M  V30 2879 H 265.296 -0.460739 -4.1334 0
M  V30 2880 H 263.873 1.2611 -3.50928 0
M  V30 2881 N 266.058 1.56714 -0.166846 0
M  V30 2882 C 267.304 1.97813 0.473473 0
M  V30 2883 C 267.659 1.05095 1.61161 0
M  V30 2884 O 266.952 0.0897541 1.9139 0
M  V30 2885 C 267.146 3.42889 1.00806 0
M  V30 2886 C 266.975 4.49635 -0.0767392 0
M  V30 2887 C 265.745 5.02566 -0.524894 0
M  V30 2888 C 267.943 5.06793 -0.875504 0
M  V30 2889 N 265.925 5.9294 -1.59047 0
M  V30 2890 C 267.296 5.93565 -1.79111 0
M  V30 2891 C 269.351 4.89306 -0.921083 0
M  V30 2892 C 268.054 6.64721 -2.74843 0
M  V30 2893 C 270.08 5.61179 -1.86633 0
M  V30 2894 C 269.442 6.47675 -2.76942 0
M  V30 2895 H 265.541 0.769093 0.141489 0
M  V30 2896 H 268.125 1.92874 -0.266031 0
M  V30 2897 H 266.296 3.48382 1.7171 0
M  V30 2898 H 268.028 3.71008 1.61664 0
M  V30 2899 H 264.783 4.73439 -0.123432 0
M  V30 2900 H 265.207 6.42831 -2.12361 0
M  V30 2901 H 269.849 4.22136 -0.23692 0
M  V30 2902 H 267.567 7.31107 -3.44249 0
M  V30 2903 H 271.153 5.49636 -1.90764 0
M  V30 2904 H 270.033 7.02313 -3.48893 0
M  V30 2905 N 267.536 -0.106894 1.57237 0
M  V30 2906 C 268.784 -0.810921 1.85117 0
M  V30 2907 C 269.105 -1.7984 0.753827 0
M  V30 2908 O 268.375 -1.94649 -0.221056 0
M  V30 2909 H 266.955 -0.302466 0.683025 0
M  V30 2910 H 269.617 -0.0913324 1.94686 0
M  V30 2911 H 268.713 -1.34875 2.81452 0
M  V30 2912 N 269.014 -1.53014 -0.377408 0
M  V30 2913 C 270.244 -1.72265 -1.14054 0
M  V30 2914 C 270.652 -0.44601 -1.83868 0
M  V30 2915 O 269.995 0.590095 -1.73964 0
M  V30 2916 C 270.057 -2.82492 -2.22348 0
M  V30 2917 C 269.721 -4.23233 -1.72402 0
M  V30 2918 C 270.718 -5.05992 -1.19448 0
M  V30 2919 C 268.403 -4.696 -1.78273 0
M  V30 2920 C 270.397 -6.33203 -0.730268 0
M  V30 2921 C 268.084 -5.96792 -1.31464 0
M  V30 2922 C 269.082 -6.78424 -0.789297 0
M  V30 2923 O 268.77 -8.0323 -0.328077 0
M  V30 2924 H 268.502 -0.579873 -0.347453 0
M  V30 2925 H 271.056 -2.00502 -0.445882 0
M  V30 2926 H 269.286 -2.49702 -2.95272 0
M  V30 2927 H 270.975 -2.90034 -2.83963 0
M  V30 2928 H 271.741 -4.71349 -1.14259 0
M  V30 2929 H 267.62 -4.06142 -2.18106 0
M  V30 2930 H 271.164 -6.96868 -0.319542 0
M  V30 2931 H 267.061 -6.30937 -1.36342 0
M  V30 2932 H 267.829 -8.1727 -0.448493 0
M  V30 2933 N 270.492 0.636531 -1.44174 0
M  V30 2934 C 271.769 1.39463 -1.37148 0
M  V30 2935 C 272.149 2.11082 -0.027507 0
M  V30 2936 O 271.497 2.05954 0.989716 0
M  V30 2937 C 271.707 2.36552 -2.56601 0
M  V30 2938 C 273.055 3.00048 -3.00427 0
M  V30 2939 O 274.079 2.46878 -2.56767 0
M  V30 2940 O 272.938 3.96488 -3.76111 0
M  V30 2941 H 270.032 0.623903 -0.542839 0
M  V30 2942 H 272.578 0.662039 -1.56253 0
M  V30 2943 H 271.35 1.82692 -3.46034 0
M  V30 2944 H 270.973 3.17236 -2.39681 0
M  V30 2945 N 271.97 1.30982 0.876444 0
M  V30 2946 C 273.218 1.20058 1.62575 0
M  V30 2947 C 273.539 -0.242947 1.93481 0
M  V30 2948 O 272.809 -1.1619 1.57724 0
M  V30 2949 H 271.389 0.44135 0.602677 0
M  V30 2950 H 274.051 1.64222 1.04962 0
M  V30 2951 H 273.147 1.76762 2.57219 0
M  V30 2952 N 273.449 -1.08991 1.13837 0
M  V30 2953 C 274.397 -2.17841 0.815347 0
M  V30 2954 C 275.391 -1.68164 -0.204233 0
M  V30 2955 O 276.597 -1.79897 -0.0609304 0
M  V30 2956 H 272.972 -0.710654 0.245915 0
M  V30 2957 H 274.943 -2.42315 1.74143 0
M  V30 2958 C 273.692 -3.46381 0.302614 0
M  V30 2959 H 273.015 -3.84979 1.0785 0
M  V30 2960 H 274.455 -4.23844 0.115074 0
M  V30 2961 C 272.914 -3.22556 -0.972591 0
M  V30 2962 O 273.444 -3.45599 -2.04754 0
M  V30 2963 N 271.65 -2.76134 -0.905455 0
M  V30 2964 H 271.197 -2.57582 -0.0305421 0
M  V30 2965 H 271.155 -2.60571 -1.75926 0
M  V30 2966 N 274.927 -0.932562 -1.27047 0
M  V30 2967 C 276.204 -0.49377 -1.89265 0
M  V30 2968 C 276.584 1.02833 -1.8436 0
M  V30 2969 O 275.932 1.88461 -1.29209 0
M  V30 2970 C 276.142 -1.04536 -3.32976 0
M  V30 2971 C 277.49 -1.10879 -4.09867 0
M  V30 2972 O 278.514 -0.995327 -3.42011 0
M  V30 2973 O 277.373 -1.28417 -5.31198 0
M  V30 2974 H 274.467 -0.159596 -0.811454 0
M  V30 2975 H 277.013 -1.02457 -1.3528 0
M  V30 2976 H 275.785 -2.08913 -3.30864 0
M  V30 2977 H 275.408 -0.496494 -3.94488 0
M  V30 2978 N 276.405 1.4127 -0.698611 0
M  V30 2979 C 277.651 2.01478 -0.231207 0
M  V30 2980 C 277.984 1.55215 1.16713 0
M  V30 2981 O 277.259 0.764672 1.78838 0
M  V30 2982 C 277.542 3.58912 -0.292281 0
M  V30 2983 C 277.395 4.15293 -1.72778 0
M  V30 2984 C 278.714 4.38736 0.346194 0
M  V30 2985 H 275.833 0.732025 -0.0854878 0
M  V30 2986 H 278.475 1.67977 -0.887906 0
M  V30 2987 H 276.625 3.87582 0.26686 0
M  V30 2988 H 278.297 3.97486 -2.341 0
M  V30 2989 H 276.54 3.7022 -2.26096 0
M  V30 2990 H 277.211 5.24452 -1.72202 0
M  V30 2991 H 279.687 4.15897 -0.130035 0
M  V30 2992 H 278.563 5.48221 0.272932 0
M  V30 2993 H 278.824 4.18425 1.42734 0
M  V30 2994 N 277.883 0.443576 1.51229 0
M  V30 2995 C 278.793 -0.370721 2.31652 0
M  V30 2996 C 279.809 -1.02186 1.40833 0
M  V30 2997 O 280.985 -1.01586 1.73903 0
M  V30 2998 C 278.05 -1.45376 3.14749 0
M  V30 2999 C 277.111 -0.822099 4.21355 0
M  V30 3000 C 276.344 -1.85353 5.0048 0
M  V30 3001 O 276.567 -3.07656 4.80316 0
M  V30 3002 O 275.501 -1.4406 5.84406 0
M  V30 3003 H 279.327 0.286002 3.0235 0
M  V30 3004 H 276.912 0.20598 1.47973 0
M  V30 3005 H 278.794 -2.08173 3.66391 0
M  V30 3006 H 277.469 -2.09445 2.46809 0
M  V30 3007 H 276.376 -0.155909 3.73775 0
M  V30 3008 H 277.709 -0.224797 4.91686 0
M  V30 3009 N 279.361 -1.56624 0.175154 0
M  V30 3010 C 280.608 -1.96999 -0.468811 0
M  V30 3011 C 280.936 -1.06129 -1.62994 0
M  V30 3012 O 280.191 -0.0961771 -1.95464 0
M  V30 3013 C 280.49 -3.43419 -0.989864 0
M  V30 3014 C 280.156 -4.50866 0.0557687 0
M  V30 3015 C 278.818 -4.79975 0.343134 0
M  V30 3016 C 281.17 -5.15551 0.765308 0
M  V30 3017 C 278.498 -5.71066 1.34536 0
M  V30 3018 C 280.85 -6.07724 1.75654 0
M  V30 3019 C 279.514 -6.35199 2.05132 0
M  V30 3020 H 278.784 -0.720869 -0.17155 0
M  V30 3021 H 281.431 -1.89616 0.267924 0
M  V30 3022 H 279.736 -3.47772 -1.80449 0
M  V30 3023 H 281.433 -3.72002 -1.49719 0
M  V30 3024 H 278.023 -4.28229 -0.178381 0
M  V30 3025 H 282.207 -4.9317 0.556513 0
M  V30 3026 H 277.463 -5.90635 1.57988 0
M  V30 3027 H 281.637 -6.56912 2.31169 0
M  V30 3028 H 279.264 -7.05584 2.8294 0
M  V30 3029 N 280.839 0.0985539 -1.57292 0
M  V30 3030 C 282.067 0.816318 -1.90115 0
M  V30 3031 C 282.482 1.72451 -0.768509 0
M  V30 3032 O 281.839 1.80643 0.259687 0
M  V30 3033 C 281.89 1.63259 -3.22535 0
M  V30 3034 O 281.611 0.760934 -4.31441 0
M  V30 3035 C 283.112 2.45372 -3.69199 0
M  V30 3036 H 280.332 0.233595 -0.629027 0
M  V30 3037 H 282.876 0.0768229 -2.04356 0
M  V30 3038 H 281.031 2.32463 -3.09903 0
M  V30 3039 H 281.445 1.32595 -5.07463 0
M  V30 3040 H 282.919 2.98144 -4.64558 0
M  V30 3041 H 283.396 3.23677 -2.96867 0
M  V30 3042 H 284.002 1.81373 -3.84687 0
M  V30 3043 N 282.317 1.53212 0.369288 0
M  V30 3044 C 283.563 1.70413 1.11046 0
M  V30 3045 C 283.918 0.448509 1.87099 0
M  V30 3046 O 283.211 -0.558382 1.83283 0
M  V30 3047 C 283.405 2.89101 2.10132 0
M  V30 3048 C 283.234 4.26084 1.43814 0
M  V30 3049 C 282.004 4.90994 1.19384 0
M  V30 3050 C 284.202 5.06754 0.877802 0
M  V30 3051 N 282.184 6.11911 0.49377 0
M  V30 3052 C 283.555 6.1924 0.306891 0
M  V30 3053 C 285.61 4.91814 0.776129 0
M  V30 3054 C 284.313 7.1842 -0.355774 0
M  V30 3055 C 286.339 5.91263 0.127252 0
M  V30 3056 C 285.701 7.03069 -0.432801 0
M  V30 3057 H 281.8 0.676872 0.391623 0
M  V30 3058 H 284.384 1.90603 0.397334 0
M  V30 3059 H 282.555 2.70456 2.78761 0
M  V30 3060 H 284.287 2.95142 2.76899 0
M  V30 3061 H 281.042 4.50074 1.47413 0
M  V30 3062 H 281.466 6.76813 0.159207 0
M  V30 3063 H 286.108 4.05564 1.19489 0
M  V30 3064 H 283.826 8.04264 -0.786499 0
M  V30 3065 H 287.412 5.81779 0.0495613 0
M  V30 3066 H 286.292 7.78702 -0.926958 0
M  V30 3067 N 283.795 -0.628877 1.44509 0
M  V30 3068 C 284.725 -1.75187 1.54376 0
M  V30 3069 C 285.706 -1.65411 0.396618 0
M  V30 3070 O 286.891 -1.84137 0.617031 0
M  V30 3071 C 284.021 -3.13725 1.48976 0
M  V30 3072 C 282.975 -3.38291 2.62189 0
M  V30 3073 C 282.301 -4.76883 2.41841 0
M  V30 3074 C 283.601 -3.30632 4.04326 0
M  V30 3075 H 285.295 -1.67187 2.48373 0
M  V30 3076 H 282.841 -0.802909 1.19538 0
M  V30 3077 H 284.794 -3.92064 1.54478 0
M  V30 3078 H 283.518 -3.22515 0.514961 0
M  V30 3079 H 282.177 -2.62334 2.56079 0
M  V30 3080 H 281.825 -4.82378 1.42548 0
M  V30 3081 H 281.525 -4.94278 3.17747 0
M  V30 3082 H 283.049 -5.57449 2.49165 0
M  V30 3083 H 284.463 -3.98873 4.11793 0
M  V30 3084 H 282.86 -3.59561 4.80454 0
M  V30 3085 H 283.93 -2.28404 4.27738 0
M  V30 3086 N 285.273 -1.31445 -0.869486 0
M  V30 3087 C 286.689 -1.10113 -1.15531 0
M  V30 3088 C 286.889 0.128087 -2.01092 0
M  V30 3089 O 285.945 0.817276 -2.38908 0
M  V30 3090 C 287.258 -2.37291 -1.84698 0
M  V30 3091 C 288.806 -2.42906 -1.97397 0
M  V30 3092 C 289.281 -3.69967 -2.69979 0
M  V30 3093 N 290.772 -3.70864 -2.77514 0
M  V30 3094 C 291.507 -4.65875 -3.34287 0
M  V30 3095 N 291.003 -5.71242 -3.91988 0
M  V30 3096 N 292.796 -4.53394 -3.3225 0
M  V30 3097 H 284.947 -2.1028 -0.299347 0
M  V30 3098 H 287.21 -0.927683 -0.195214 0
M  V30 3099 H 286.916 -3.27078 -1.29278 0
M  V30 3100 H 286.79 -2.47125 -2.84972 0
M  V30 3101 H 289.177 -1.53588 -2.51982 0
M  V30 3102 H 289.258 -2.37036 -0.961643 0
M  V30 3103 H 288.902 -4.59652 -2.16062 0
M  V30 3104 H 288.832 -3.73103 -3.7162 0
M  V30 3105 H 291.323 -2.94697 -2.36563 0
M  V30 3106 H 291.636 -6.39817 -4.33421 0
M  V30 3107 H 289.981 -5.75015 -3.90362 0
M  V30 3108 H 293.172 -3.70252 -2.8641 0
M  V30 3109 H 293.345 -5.27617 -3.76197 0
M  V30 3110 N 286.751 1.08385 -1.14413 0
M  V30 3111 C 287.999 1.80419 -0.910679 0
M  V30 3112 C 288.32 1.86658 0.564243 0
M  V30 3113 O 287.59 1.35985 1.41014 0
M  V30 3114 H 286.17 0.668204 -0.333934 0
M  V30 3115 H 288.832 1.31037 -1.44275 0
M  V30 3116 H 287.928 2.83238 -1.31082 0
M  V30 3117 N 288.23 0.939286 1.26551 0
M  V30 3118 C 289.178 0.43815 2.28436 0
M  V30 3119 C 290.172 -0.483587 1.62351 0
M  V30 3120 O 291.378 -0.362009 1.76322 0
M  V30 3121 H 287.753 0.123149 0.741848 0
M  V30 3122 H 289.724 1.31002 2.68106 0
M  V30 3123 C 288.473 -0.283052 3.46546 0
M  V30 3124 H 287.796 0.417043 3.97619 0
M  V30 3125 H 289.236 -0.597948 4.19763 0
M  V30 3126 C 287.695 -1.50018 3.01656 0
M  V30 3127 O 288.225 -2.59855 3.0633 0
M  V30 3128 N 286.431 -1.35608 2.57019 0
M  V30 3129 H 285.978 -0.46244 2.53415 0
M  V30 3130 H 285.936 -2.17165 2.27347 0
M  V30 3131 N 289.708 -1.40897 0.706093 0
M  V30 3132 C 290.985 -1.94868 0.169099 0
M  V30 3133 C 291.365 -1.64485 -1.32318 0
M  V30 3134 O 290.713 -0.95744 -2.07474 0
M  V30 3135 C 290.923 -3.45798 0.471654 0
M  V30 3136 C 292.271 -4.22663 0.405127 0
M  V30 3137 O 293.295 -3.53865 0.407168 0
M  V30 3138 O 292.154 -5.45216 0.374383 0
M  V30 3139 H 289.248 -0.82673 0.0211352 0
M  V30 3140 H 291.794 -1.50558 0.782976 0
M  V30 3141 H 290.566 -3.61235 1.50416 0
M  V30 3142 H 290.189 -3.97225 -0.172666 0
M  V30 3143 N 291.186 -0.45159 -1.50991 0
M  V30 3144 C 292.411 0.110667 -2.07105 0
M  V30 3145 C 292.836 1.3446 -1.31538 0
M  V30 3146 O 292.194 1.77743 -0.357365 0
M  V30 3147 C 292.242 0.397238 -3.58405 0
M  V30 3148 O 291.346 1.48124 -3.84881 0
M  V30 3149 H 290.687 -0.00439271 -0.663985 0
M  V30 3150 H 293.217 -0.637026 -1.9443 0
M  V30 3151 H 293.227 0.64351 -4.02893 0
M  V30 3152 H 291.902 -0.504553 -4.12828 0
M  V30 3153 H 290.479 1.22381 -3.52246 0
M  V30 3154 N 292.664 1.56529 -0.183458 0
M  V30 3155 C 293.91 1.97537 0.459036 0
M  V30 3156 C 294.243 1.06989 1.62071 0
M  V30 3157 O 293.518 0.11948 1.94133 0
M  V30 3158 C 293.801 3.47874 0.930368 0
M  V30 3159 C 293.654 4.492 -0.232317 0
M  V30 3160 C 294.973 4.01612 1.79989 0
M  V30 3161 H 292.092 0.718204 0.165383 0
M  V30 3162 H 294.734 1.88042 -0.272038 0
M  V30 3163 H 292.884 3.56095 1.55333 0
M  V30 3164 H 294.556 4.53027 -0.86972 0
M  V30 3165 H 292.799 4.24657 -0.885928 0
M  V30 3166 H 293.47 5.51823 0.139796 0
M  V30 3167 H 295.946 3.96097 1.27461 0
M  V30 3168 H 294.822 5.07195 2.09867 0
M  V30 3169 H 295.083 3.46163 2.74998 0
M  V30 3170 N 294.142 -0.090211 1.57342 0
M  V30 3171 C 295.558 -0.444547 1.53284 0
M  V30 3172 C 295.758 -1.80238 0.900914 0
M  V30 3173 O 294.814 -2.4759 0.495513 0
M  V30 3174 C 296.127 -0.402543 2.97993 0
M  V30 3175 C 297.675 -0.48405 3.09234 0
M  V30 3176 C 298.15 -0.472144 4.5556 0
M  V30 3177 N 299.641 -0.532757 4.60126 0
M  V30 3178 C 300.376 -0.545462 5.708 0
M  V30 3179 N 299.872 -0.514082 6.9089 0
M  V30 3180 N 301.665 -0.59064 5.58988 0
M  V30 3181 H 293.816 0.799121 1.96794 0
M  V30 3182 H 296.079 0.297965 0.899956 0
M  V30 3183 H 295.785 0.528106 3.47712 0
M  V30 3184 H 295.659 -1.21969 3.56936 0
M  V30 3185 H 298.046 -1.40512 2.595 0
M  V30 3186 H 298.127 0.361328 2.53235 0
M  V30 3187 H 297.771 0.445 5.05947 0
M  V30 3188 H 297.701 -1.3348 5.09402 0
M  V30 3189 H 300.192 -0.562006 3.73698 0
M  V30 3190 H 300.505 -0.527195 7.71 0
M  V30 3191 H 298.85 -0.481054 6.93333 0
M  V30 3192 H 302.041 -0.61272 4.64073 0
M  V30 3193 H 302.214 -0.597073 6.45243 0
M  V30 3194 N 295.62 -1.53406 -0.361157 0
M  V30 3195 C 296.868 -1.69467 -1.10115 0
M  V30 3196 C 297.189 -0.451352 -1.89705 0
M  V30 3197 O 296.459 0.534636 -1.88463 0
M  V30 3198 H 295.039 -0.624749 -0.409508 0
M  V30 3199 H 297.701 -1.90609 -0.406699 0
M  V30 3200 H 296.797 -2.55774 -1.78847 0
M  V30 3201 N 297.098 0.621204 -1.44841 0
M  V30 3202 C 298.028 1.74366 -1.55303 0
M  V30 3203 C 299.009 1.65199 -0.405385 0
M  V30 3204 O 300.194 1.83807 -0.626787 0
M  V30 3205 C 297.324 3.12931 -1.50637 0
M  V30 3206 C 296.278 3.36896 -2.63979 0
M  V30 3207 C 295.604 4.75594 -2.44366 0
M  V30 3208 C 296.904 3.28483 -4.06074 0
M  V30 3209 H 298.598 1.65867 -2.49256 0
M  V30 3210 H 296.144 0.796558 -1.19962 0
M  V30 3211 H 298.097 3.9124 -1.56555 0
M  V30 3212 H 296.821 3.22237 -0.532057 0
M  V30 3213 H 295.48 2.60972 -2.57467 0
M  V30 3214 H 295.128 4.81616 -1.45105 0
M  V30 3215 H 294.828 4.92586 -3.20364 0
M  V30 3216 H 296.352 5.5612 -2.52117 0
M  V30 3217 H 297.766 3.96684 -4.13902 0
M  V30 3218 H 296.163 3.57008 -4.82354 0
M  V30 3219 H 297.233 2.26133 -4.28943 0
M  V30 3220 N 298.576 1.31904 0.862503 0
M  V30 3221 C 299.486 1.22161 2.00285 0
M  V30 3222 C 300.502 0.136785 1.73462 0
M  V30 3223 O 301.678 0.355994 1.98229 0
M  V30 3224 C 298.743 0.937093 3.33796 0
M  V30 3225 C 297.804 2.10957 3.73893 0
M  V30 3226 C 297.037 1.83853 5.01033 0
M  V30 3227 O 297.26 0.777274 5.65079 0
M  V30 3228 O 296.194 2.69741 5.38074 0
M  V30 3229 H 300.02 2.18008 2.11439 0
M  V30 3230 H 297.605 1.11716 0.991957 0
M  V30 3231 H 299.487 0.794583 4.13841 0
M  V30 3232 H 298.162 0.00871894 3.23699 0
M  V30 3233 H 297.069 2.30752 2.94456 0
M  V30 3234 H 298.402 3.02046 3.88625 0
M  V30 3235 N 300.054 -1.07777 1.14986 0
M  V30 3236 C 301.004 -2.13082 0.811181 0
M  V30 3237 C 301.988 -1.59619 -0.202597 0
M  V30 3238 O 303.18 -1.77 -0.00398275 0
M  V30 3239 C 300.309 -3.42009 0.297439 0
M  V30 3240 C 299.395 -4.02337 1.34112 0
M  V30 3241 N 299.786 -4.36982 2.54716 0
M  V30 3242 C 298.084 -4.29752 1.19285 0
M  V30 3243 C 298.785 -4.84729 3.21578 0
M  V30 3244 N 297.761 -4.83233 2.48972 0
M  V30 3245 H 301.563 -2.37696 1.72853 0
M  V30 3246 H 299.077 -1.25173 1.03468 0
M  V30 3247 H 301.074 -4.16884 0.0364777 0
M  V30 3248 H 299.734 -3.18841 -0.614022 0
M  V30 3249 H 300.745 -4.27807 2.91894 0
M  V30 3250 H 297.422 -4.16106 0.340926 0
M  V30 3251 H 298.812 -5.20863 4.24442 0
M  V30 3252 N 301.532 -0.945985 -1.26051 0
M  V30 3253 C 302.462 -0.477172 -2.28572 0
M  V30 3254 C 303.443 0.472032 -1.63419 0
M  V30 3255 O 304.628 0.372853 -1.90587 0
M  V30 3256 C 301.758 0.253975 -3.4637 0
M  V30 3257 C 300.712 -0.609135 -4.23643 0
M  V30 3258 C 300.038 0.252252 -5.34105 0
M  V30 3259 C 301.338 -1.8829 -4.8718 0
M  V30 3260 H 303.032 -1.33402 -2.68038 0
M  V30 3261 H 300.578 -0.642904 -1.28852 0
M  V30 3262 H 302.531 0.593016 -4.17207 0
M  V30 3263 H 301.255 1.145 -3.05871 0
M  V30 3264 H 299.914 -0.931138 -3.54578 0
M  V30 3265 H 299.562 1.14278 -4.89846 0
M  V30 3266 H 299.262 -0.32188 -5.86718 0
M  V30 3267 H 300.786 0.586454 -6.07777 0
M  V30 3268 H 302.2 -1.61081 -5.50205 0
M  V30 3269 H 300.597 -2.40199 -5.49931 0
M  V30 3270 H 301.667 -2.59134 -4.09851 0
M  V30 3271 N 303.011 1.40521 -0.713556 0
M  V30 3272 C 304.427 1.54839 -0.386907 0
M  V30 3273 C 304.627 1.68532 1.1045 0
M  V30 3274 O 303.683 1.67377 1.89053 0
M  V30 3275 C 304.996 2.77792 -1.15118 0
M  V30 3276 C 306.544 2.91607 -1.13729 0
M  V30 3277 C 307.019 4.1747 -1.88368 0
M  V30 3278 N 308.51 4.24466 -1.85427 0
M  V30 3279 C 309.245 5.20755 -2.40004 0
M  V30 3280 N 308.741 6.22965 -3.03129 0
M  V30 3281 N 310.534 5.1282 -2.30158 0
M  V30 3282 H 302.685 1.29879 -1.68063 0
M  V30 3283 H 304.948 0.627896 -0.710247 0
M  V30 3284 H 304.654 2.73944 -2.20561 0
M  V30 3285 H 304.528 3.6984 -0.741477 0
M  V30 3286 H 306.915 2.94959 -0.0910608 0
M  V30 3287 H 306.996 2.00682 -1.5862 0
M  V30 3288 H 306.64 4.1488 -2.9298 0
M  V30 3289 H 306.57 5.074 -1.40898 0
M  V30 3290 H 309.061 3.51241 -1.3942 0
M  V30 3291 H 309.374 6.92859 -3.42295 0
M  V30 3292 H 307.719 6.23415 -3.07212 0
M  V30 3293 H 310.91 4.31899 -1.80501 0
M  V30 3294 H 311.083 5.87689 -2.72993 0
M  V30 3295 N 304.489 0.459591 1.5075 0
M  V30 3296 C 305.419 -0.330644 2.31147 0
M  V30 3297 C 306.4 -1.00087 1.37538 0
M  V30 3298 O 307.585 -1.00025 1.66459 0
M  V30 3299 C 304.715 -1.41958 3.16962 0
M  V30 3300 C 303.669 -0.871608 4.19031 0
M  V30 3301 C 302.995 -2.05797 4.9351 0
M  V30 3302 C 304.295 0.109251 5.22186 0
M  V30 3303 H 305.989 0.340336 2.97459 0
M  V30 3304 H 303.535 0.165119 1.4305 0
M  V30 3305 H 305.488 -1.9798 3.71997 0
M  V30 3306 H 304.212 -2.11917 2.48513 0
M  V30 3307 H 302.871 -0.333442 3.6508 0
M  V30 3308 H 302.519 -2.74427 4.21544 0
M  V30 3309 H 302.219 -1.6976 5.62544 0
M  V30 3310 H 303.743 -2.62331 5.51375 0
M  V30 3311 H 305.157 -0.361405 5.7216 0
M  V30 3312 H 303.554 0.383316 5.98875 0
M  V30 3313 H 304.624 1.03887 4.73641 0
M  V30 3314 N 305.967 -1.56429 0.191757 0
M  V30 3315 C 306.93 -2.17707 -0.716688 0
M  V30 3316 C 307.93 -1.13061 -1.14341 0
M  V30 3317 O 309.12 -1.38464 -1.05704 0
M  V30 3318 C 306.252 -2.77644 -1.97804 0
M  V30 3319 H 307.445 -2.99342 -0.1829 0
M  V30 3320 H 304.998 -1.56193 -0.0578566 0
M  V30 3321 H 305.733 -1.99799 -2.55443 0
M  V30 3322 H 305.518 -3.54246 -1.68083 0
M  V30 3323 H 307.008 -3.24708 -2.62592 0
M  V30 3324 N 307.445 0.0818655 -1.57387 0
M  V30 3325 C 308.377 1.12484 -1.997 0
M  V30 3326 C 309.39 1.35564 -0.90146 0
M  V30 3327 O 310.579 1.33982 -1.17945 0
M  V30 3328 C 307.679 2.47778 -2.31213 0
M  V30 3329 C 306.852 2.44793 -3.62485 0
M  V30 3330 C 305.911 3.62117 -3.81782 0
M  V30 3331 O 304.937 3.44005 -4.53486 0
M  V30 3332 N 306.139 4.82094 -3.23367 0
M  V30 3333 H 308.904 0.764585 -2.89783 0
M  V30 3334 H 306.465 0.270664 -1.59621 0
M  V30 3335 H 308.457 3.24891 -2.41304 0
M  V30 3336 H 307.027 2.75843 -1.4707 0
M  V30 3337 H 306.247 1.53134 -3.6324 0
M  V30 3338 H 307.535 2.39889 -4.48699 0
M  V30 3339 H 306.933 4.99713 -2.65148 0
M  V30 3340 H 305.49 5.56753 -3.38923 0
M  V30 3341 N 308.923 1.53595 0.353017 0
M  V30 3342 C 310.153 1.74058 1.11299 0
M  V30 3343 C 310.561 0.475205 1.83135 0
M  V30 3344 O 309.904 -0.562344 1.74881 0
M  V30 3345 C 309.966 2.85994 2.17825 0
M  V30 3346 C 309.63 4.25923 1.65647 0
M  V30 3347 C 310.627 5.07829 1.11383 0
M  V30 3348 C 308.312 4.72377 1.7078 0
M  V30 3349 C 310.306 6.34285 0.629439 0
M  V30 3350 C 307.993 5.98808 1.21953 0
M  V30 3351 C 308.991 6.79594 0.681265 0
M  V30 3352 O 308.679 8.03651 0.200248 0
M  V30 3353 H 308.411 0.585327 0.338183 0
M  V30 3354 H 310.965 2.01186 0.413927 0
M  V30 3355 H 309.195 2.54368 2.91262 0
M  V30 3356 H 310.884 2.94515 2.79313 0
M  V30 3357 H 311.65 4.73107 1.06746 0
M  V30 3358 H 307.529 4.0956 2.11617 0
M  V30 3359 H 311.073 6.97288 0.208636 0
M  V30 3360 H 306.97 6.33026 1.26287 0
M  V30 3361 H 307.738 8.1788 0.318416 0
M  V30 3362 N 310.401 -0.613514 1.45168 0
M  V30 3363 C 311.629 -1.39946 1.5239 0
M  V30 3364 C 312.044 -1.88167 0.154531 0
M  V30 3365 O 311.401 -1.61872 -0.842843 0
M  V30 3366 C 311.452 -2.60795 2.50337 0
M  V30 3367 O 311.173 -2.1458 3.81952 0
M  V30 3368 C 312.674 -3.53723 2.67198 0
M  V30 3369 H 309.894 -0.428593 0.516284 0
M  V30 3370 H 312.438 -0.748753 1.903 0
M  V30 3371 H 310.593 -3.21919 2.15515 0
M  V30 3372 H 311.007 -2.93055 4.34993 0
M  V30 3373 H 312.481 -4.35079 3.39721 0
M  V30 3374 H 312.958 -4.0368 1.73029 0
M  V30 3375 H 313.564 -2.98456 3.02992 0
M  V30 3376 N 311.879 -1.3236 -0.855495 0
M  V30 3377 C 313.128 -1.22226 -1.60448 0
M  V30 3378 C 313.441 0.214733 -1.94418 0
M  V30 3379 O 314.647 0.437917 -2.67945 0
M  V30 3380 C 313.103 -2.14063 -2.89318 0
M  V30 3381 C 312.711 -3.62839 -2.62777 0
M  V30 3382 C 314.455 -2.12764 -3.67331 0
M  V30 3383 C 312.362 -4.4664 -3.87643 0
M  V30 3384 H 311.292 -0.453904 -0.602069 0
M  V30 3385 H 313.943 -1.57314 -0.944698 0
M  V30 3386 H 312.325 -1.71889 -3.5675 0
M  V30 3387 H 313.499 -4.1335 -2.03662 0
M  V30 3388 H 311.814 -3.66261 -1.98096 0
M  V30 3389 H 314.411 -2.72611 -4.59987 0
M  V30 3390 H 314.754 -1.11841 -4.00995 0
M  V30 3391 H 315.287 -2.53214 -3.06802 0
M  V30 3392 H 312.026 -5.48373 -3.5912 0
M  V30 3393 H 311.546 -4.0088 -4.46156 0
M  V30 3394 H 313.225 -4.59597 -4.55389 0
M  V30 3395 N 313.357 1.07166 -1.15556 0
M  V30 3396 C 314.267 2.17947 -0.868116 0
M  V30 3397 C 315.283 1.73297 0.156297 0
M  V30 3398 O 316.459 2.01392 -0.0182327 0
M  V30 3399 C 313.524 3.44789 -0.36355 0
M  V30 3400 C 312.585 4.03996 -1.45209 0
M  V30 3401 C 311.818 5.24783 -0.971508 0
M  V30 3402 O 312.041 5.70109 0.182194 0
M  V30 3403 O 310.975 5.75715 -1.75603 0
M  V30 3404 H 314.801 2.4503 -1.79427 0
M  V30 3405 H 312.386 1.16539 -0.934824 0
M  V30 3406 H 314.268 4.21307 -0.0887113 0
M  V30 3407 H 312.943 3.19253 0.534708 0
M  V30 3408 H 311.85 3.29009 -1.78056 0
M  V30 3409 H 313.183 4.33808 -2.32533 0
M  V30 3410 N 314.835 0.952656 1.25548 0
M  V30 3411 C 316.251 0.656769 1.4546 0
M  V30 3412 C 316.451 -0.78633 1.85524 0
M  V30 3413 O 315.507 -1.56183 1.98402 0
M  V30 3414 C 316.82 1.62801 2.52817 0
M  V30 3415 C 318.368 1.63897 2.66659 0
M  V30 3416 C 318.843 2.5978 3.77198 0
M  V30 3417 N 320.334 2.58133 3.84606 0
M  V30 3418 C 321.069 3.29003 4.69621 0
M  V30 3419 N 320.565 4.09339 5.58939 0
M  V30 3420 N 322.358 3.179 4.63569 0
M  V30 3421 H 314.509 1.88526 0.978344 0
M  V30 3422 H 316.772 0.810815 0.491206 0
M  V30 3423 H 316.478 2.65869 2.30232 0
M  V30 3424 H 316.352 1.38898 3.50695 0
M  V30 3425 H 318.739 0.615481 2.8861 0
M  V30 3426 H 318.82 1.91858 1.69187 0
M  V30 3427 H 318.464 3.62254 3.55997 0
M  V30 3428 H 318.394 2.29105 4.7415 0
M  V30 3429 H 320.885 1.99809 3.20757 0
M  V30 3430 H 321.198 4.6034 6.20731 0
M  V30 3431 H 319.543 4.13438 5.58654 0
M  V30 3432 H 322.734 2.54612 3.92798 0
M  V30 3433 H 322.907 3.73398 5.29602 0
M  V30 3434 N 316.313 -1.40141 0.720998 0
M  V30 3435 C 317.543 -2.04798 0.27226 0
M  V30 3436 C 317.951 -1.54442 -1.09289 0
M  V30 3437 O 317.294 -0.698342 -1.69908 0
M  V30 3438 C 317.356 -3.59048 0.18027 0
M  V30 3439 C 317.02 -4.32317 1.48159 0
M  V30 3440 C 318.017 -4.59902 2.42458 0
M  V30 3441 C 315.702 -4.71125 1.74202 0
M  V30 3442 C 317.696 -5.25288 3.61042 0
M  V30 3443 C 315.383 -5.36242 2.93066 0
M  V30 3444 C 316.381 -5.63254 3.86308 0
M  V30 3445 O 316.069 -6.27024 5.03086 0
M  V30 3446 H 315.801 -0.665419 0.119139 0
M  V30 3447 H 318.355 -1.80436 0.981432 0
M  V30 3448 H 316.585 -3.82251 -0.58489 0
M  V30 3449 H 318.274 -4.05221 -0.234618 0
M  V30 3450 H 319.04 -4.30379 2.23604 0
M  V30 3451 H 314.919 -4.49466 1.02477 0
M  V30 3452 H 318.463 -5.46289 4.33837 0
M  V30 3453 H 314.36 -5.65185 3.11826 0
M  V30 3454 H 315.128 -6.4552 5.03235 0
M  V30 3455 N 317.792 -0.46758 -1.50504 0
M  V30 3456 C 319.039 0.0886219 -2.02306 0
M  V30 3457 C 319.367 1.40037 -1.34981 0
M  V30 3458 O 318.622 1.90136 -0.463318 0
M  V30 3459 C 318.921 0.323995 -3.55928 0
M  V30 3460 C 318.587 -0.905618 -4.41712 0
M  V30 3461 C 317.249 -1.24275 -4.64875 0
M  V30 3462 C 319.601 -1.72448 -4.91845 0
M  V30 3463 C 316.929 -2.39888 -5.35417 0
M  V30 3464 C 319.281 -2.87185 -5.63656 0
M  V30 3465 C 317.945 -3.21317 -5.85074 0
M  V30 3466 H 317.215 0.0324291 -0.74029 0
M  V30 3467 H 319.862 -0.620945 -1.81153 0
M  V30 3468 H 318.167 1.11577 -3.75577 0
M  V30 3469 H 319.864 0.76826 -3.93572 0
M  V30 3470 H 316.454 -0.632956 -4.239 0
M  V30 3471 H 320.638 -1.4772 -4.73806 0
M  V30 3472 H 315.894 -2.66611 -5.50208 0
M  V30 3473 H 320.068 -3.50985 -6.01484 0
M  V30 3474 H 317.695 -4.1101 -6.39511 0
M  V30 3475 N 319.27 1.56325 -0.20005 0
M  V30 3476 C 320.498 2.02105 0.442874 0
M  V30 3477 C 320.913 1.08014 1.5485 0
M  V30 3478 O 320.27 0.0858797 1.82298 0
M  V30 3479 C 320.321 3.47549 0.994583 0
M  V30 3480 O 320.042 4.38049 -0.0669322 0
M  V30 3481 C 321.543 4.0887 1.7129 0
M  V30 3482 H 318.763 0.661807 0.110691 0
M  V30 3483 H 321.307 2.02134 -0.310207 0
M  V30 3484 H 319.462 3.48204 1.69803 0
M  V30 3485 H 319.876 5.23368 0.344462 0
M  V30 3486 H 321.35 5.12475 2.05118 0
M  V30 3487 H 321.827 3.52615 2.61838 0
M  V30 3488 H 322.433 4.12002 1.05518 0
M  V30 3489 N 320.748 -0.0735177 1.57428 0
M  V30 3490 C 321.678 -1.0879 2.06608 0
M  V30 3491 C 322.659 -1.40473 0.959237 0
M  V30 3492 O 323.844 -1.5013 1.23185 0
M  V30 3493 C 320.974 -2.40183 2.50857 0
M  V30 3494 C 319.928 -2.22858 3.65402 0
M  V30 3495 C 319.254 -3.59619 3.957 0
M  V30 3496 C 320.554 -1.65123 4.95511 0
M  V30 3497 H 322.248 -0.678673 2.91607 0
M  V30 3498 H 319.794 -0.325013 1.40284 0
M  V30 3499 H 321.747 -3.11437 2.83874 0
M  V30 3500 H 320.471 -2.83083 1.62885 0
M  V30 3501 H 319.13 -1.54045 3.32664 0
M  V30 3502 H 318.778 -4.00086 3.04861 0
M  V30 3503 H 318.478 -3.48866 4.72828 0
M  V30 3504 H 320.002 -4.32306 4.31212 0
M  V30 3505 H 321.416 -2.26241 5.26771 0
M  V30 3506 H 319.813 -1.65071 5.7695 0
M  V30 3507 H 320.883 -0.612559 4.81015 0
M  V30 3508 N 322.226 -1.5378 -0.344866 0
M  V30 3509 C 323.472 -1.71216 -1.08687 0
M  V30 3510 C 323.805 -0.473281 -1.88345 0
M  V30 3511 O 323.08 0.52968 -1.87149 0
M  V30 3512 C 323.363 -2.97486 -2.02914 0
M  V30 3513 C 323.216 -4.31579 -1.26727 0
M  V30 3514 C 324.535 -3.19422 -3.0275 0
M  V30 3515 H 321.654 -0.62301 -0.393735 0
M  V30 3516 H 324.296 -1.8645 -0.365563 0
M  V30 3517 H 322.446 -2.84629 -2.64421 0
M  V30 3518 H 324.118 -4.56284 -0.67845 0
M  V30 3519 H 322.361 -4.30049 -0.569273 0
M  V30 3520 H 323.032 -5.16106 -1.95803 0
M  V30 3521 H 325.508 -3.316 -2.51357 0
M  V30 3522 H 324.384 -4.09169 -3.65885 0
M  V30 3523 H 324.645 -2.35656 -3.74057 0
M  V30 3524 N 323.704 0.605807 -1.45491 0
M  V30 3525 C 324.932 1.39136 -1.5313 0
M  V30 3526 C 325.347 1.88082 -0.164507 0
M  V30 3527 O 324.704 1.62316 0.834247 0
M  V30 3528 C 324.755 2.59463 -2.51716 0
M  V30 3529 O 324.476 2.12551 -3.83084 0
M  V30 3530 C 325.977 3.52301 -2.6907 0
M  V30 3531 H 323.197 0.425849 -0.51855 0
M  V30 3532 H 325.741 0.73865 -1.90694 0
M  V30 3533 H 323.896 3.20772 -2.17219 0
M  V30 3534 H 324.31 2.90744 -4.36541 0
M  V30 3535 H 325.784 4.33271 -3.42024 0
M  V30 3536 H 326.261 4.02757 -1.75167 0
M  V30 3537 H 326.867 2.96845 -3.04571 0
M  V30 3538 N 325.182 1.32811 0.848464 0
M  V30 3539 C 326.598 1.11937 1.13764 0
M  V30 3540 C 326.798 -0.0960789 2.01271 0
M  V30 3541 O 325.854 -0.779165 2.40178 0
M  V30 3542 C 327.167 2.402 1.809 0
M  V30 3543 C 328.715 2.46016 1.93508 0
M  V30 3544 C 329.19 3.74215 2.64059 0
M  V30 3545 N 330.681 3.75232 2.71579 0
M  V30 3546 C 331.416 4.71134 3.26833 0
M  V30 3547 N 330.912 5.77406 3.8285 0
M  V30 3548 N 332.705 4.58623 3.24995 0
M  V30 3549 H 324.856 2.1073 0.265855 0
M  V30 3550 H 327.119 0.930671 0.180431 0
M  V30 3551 H 326.825 3.29093 1.24058 0
M  V30 3552 H 326.699 2.51628 2.81004 0
M  V30 3553 H 329.086 1.57577 2.49506 0
M  V30 3554 H 329.167 2.38536 0.923811 0
M  V30 3555 H 328.811 4.63031 2.08722 0
M  V30 3556 H 328.741 3.78968 3.65637 0
M  V30 3557 H 331.232 2.98423 2.31845 0
M  V30 3558 H 331.545 6.46632 4.23187 0
M  V30 3559 H 329.89 5.81152 3.81165 0
M  V30 3560 H 333.081 3.74762 2.80484 0
M  V30 3561 H 333.254 5.33535 3.67756 0
M  V30 3562 N 326.66 -1.06551 1.16123 0
M  V30 3563 C 327.885 -1.83544 0.965735 0
M  V30 3564 C 328.31 -1.81843 -0.481102 0
M  V30 3565 O 327.668 -1.21732 -1.34354 0
M  V30 3566 C 327.716 -3.28169 1.49457 0
M  V30 3567 O 326.82 -4.0643 0.699157 0
M  V30 3568 H 326.161 -0.568026 0.343864 0
M  V30 3569 H 328.691 -1.34362 1.54299 0
M  V30 3570 H 328.701 -3.78992 1.51092 0
M  V30 3571 H 327.376 -3.28722 2.54784 0
M  V30 3572 H 325.953 -3.65216 0.7531 0
M  V30 3573 N 328.138 -0.959301 -1.25041 0
M  V30 3574 C 329.07 -0.440543 -2.24926 0
M  V30 3575 C 330.083 0.446131 -1.56568 0
M  V30 3576 O 331.272 0.253657 -1.76689 0
M  V30 3577 C 328.372 0.38412 -3.36716 0
M  V30 3578 C 327.545 -0.490658 -4.34639 0
M  V30 3579 C 326.604 0.276587 -5.25473 0
M  V30 3580 O 325.63 -0.326614 -5.68262 0
M  V30 3581 N 326.832 1.56844 -5.5891 0
M  V30 3582 H 329.597 -1.29931 -2.70071 0
M  V30 3583 H 327.158 -0.830181 -1.38995 0
M  V30 3584 H 329.15 0.905228 -3.94446 0
M  V30 3585 H 327.72 1.14377 -2.90924 0
M  V30 3586 H 326.94 -1.19282 -3.7572 0
M  V30 3587 H 328.228 -1.08756 -4.97041 0
M  V30 3588 H 327.626 2.08036 -5.26059 0
M  V30 3589 H 326.183 2.03541 -6.19205 0
M  V30 3590 N 329.616 1.39756 -0.72842 0
M  V30 3591 C 330.548 2.29157 -0.0446202 0
M  V30 3592 C 331.561 1.46484 0.710367 0
M  V30 3593 O 332.75 1.69632 0.55562 0
M  V30 3594 C 329.85 3.24987 0.961071 0
M  V30 3595 C 329.023 4.36572 0.268967 0
M  V30 3596 C 328.082 5.12756 1.18184 0
M  V30 3597 O 327.108 5.6534 0.661794 0
M  V30 3598 N 328.31 5.23331 2.51206 0
M  V30 3599 H 331.075 2.88482 -0.812295 0
M  V30 3600 H 328.636 1.51265 -0.577098 0
M  V30 3601 H 330.628 3.72827 1.57423 0
M  V30 3602 H 329.198 2.66739 1.63 0
M  V30 3603 H 328.418 3.90694 -0.524574 0
M  V30 3604 H 329.706 5.08363 -0.210934 0
M  V30 3605 H 329.104 4.82116 2.9594 0
M  V30 3606 H 327.661 5.74634 3.07634 0
M  V30 3607 N 331.094 0.475555 1.50254 0
M  V30 3608 C 332.004 -0.321501 2.32387 0
M  V30 3609 C 333.02 -0.991755 1.42969 0
M  V30 3610 O 334.196 -0.978747 1.76018 0
M  V30 3611 C 331.261 -1.38667 3.17762 0
M  V30 3612 C 330.322 -0.732538 4.23004 0
M  V30 3613 C 329.555 -1.74695 5.04299 0
M  V30 3614 O 329.778 -2.97399 4.86734 0
M  V30 3615 O 328.712 -1.31631 5.8733 0
M  V30 3616 H 332.538 0.350071 3.01676 0
M  V30 3617 H 330.123 0.237321 1.47503 0
M  V30 3618 H 332.005 -2.00354 3.70724 0
M  V30 3619 H 330.68 -2.04163 2.51196 0
M  V30 3620 H 329.587 -0.0765902 3.74022 0
M  V30 3621 H 330.92 -0.120452 4.92053 0
M  V30 3622 N 332.573 -1.56217 0.208337 0
M  V30 3623 C 333.801 -2.02337 -0.43215 0
M  V30 3624 C 334.216 -1.08834 -1.54275 0
M  V30 3625 O 333.573 -0.0955462 -1.8225 0
M  V30 3626 C 333.624 -3.48072 -0.976138 0
M  V30 3627 O 333.345 -4.38007 0.0901621 0
M  V30 3628 C 334.846 -4.09773 -1.69119 0
M  V30 3629 H 332.066 -0.662385 -0.10718 0
M  V30 3630 H 334.61 -2.01966 0.320923 0
M  V30 3631 H 332.765 -3.49099 -1.67954 0
M  V30 3632 H 333.179 -5.23543 -0.316701 0
M  V30 3633 H 334.653 -5.13556 -2.02397 0
M  V30 3634 H 335.13 -3.53999 -2.59964 0
M  V30 3635 H 335.736 -4.12556 -1.03332 0
M  V30 3636 N 334.051 0.0651679 -1.57465 0
M  V30 3637 C 335.299 0.761555 -1.87202 0
M  V30 3638 C 335.62 1.77778 -0.801243 0
M  V30 3639 O 334.89 1.95166 0.16937 0
M  V30 3640 H 333.47 0.284251 -0.690804 0
M  V30 3641 H 336.132 0.0396827 -1.9486 0
M  V30 3642 H 335.228 1.27365 -2.84929 0
M  V30 3643 N 335.529 1.53961 0.336706 0
M  V30 3644 C 336.477 1.83136 1.43401 0
M  V30 3645 C 337.471 0.702313 1.54156 0
M  V30 3646 O 338.677 0.885765 1.56698 0
M  V30 3647 H 335.052 0.580309 0.478273 0
M  V30 3648 H 337.023 2.74925 1.16012 0
M  V30 3649 C 335.772 2.06385 2.79822 0
M  V30 3650 H 335.095 2.92718 2.72316 0
M  V30 3651 H 336.535 2.30761 3.55704 0
M  V30 3652 C 334.994 0.851414 3.25964 0
M  V30 3653 O 335.524 0.0541904 4.01663 0
M  V30 3654 N 333.73 0.66672 2.82848 0
M  V30 3655 H 333.277 1.31665 2.21409 0
M  V30 3656 H 333.235 -0.143032 3.14074 0
M  V30 3657 N 337.007 -0.598083 1.45811 0
M  V30 3658 C 338.237 -1.38121 1.53643 0
M  V30 3659 C 338.645 -1.88425 0.171081 0
M  V30 3660 O 337.988 -1.63409 -0.839237 0
M  V30 3661 C 338.05 -2.61432 2.46766 0
M  V30 3662 C 337.714 -2.32702 3.93318 0
M  V30 3663 C 338.711 -1.92479 4.82957 0
M  V30 3664 C 336.396 -2.45321 4.38318 0
M  V30 3665 C 338.39 -1.65248 6.15607 0
M  V30 3666 C 336.077 -2.17703 5.71007 0
M  V30 3667 C 337.075 -1.7773 6.5947 0
M  V30 3668 O 336.763 -1.50441 7.89698 0
M  V30 3669 H 336.495 -0.428863 0.522544 0
M  V30 3670 H 339.049 -0.73557 1.91777 0
M  V30 3671 H 337.279 -3.28749 2.0362 0
M  V30 3672 H 338.968 -3.23487 2.45175 0
M  V30 3673 H 339.734 -1.82258 4.49452 0
M  V30 3674 H 335.613 -2.75399 3.69697 0
M  V30 3675 H 339.157 -1.33973 6.84614 0
M  V30 3676 H 335.054 -2.27544 6.04065 0
M  V30 3677 H 335.822 -1.64415 8.01817 0
M  V30 3678 N 338.485 -1.33259 -0.841409 0
M  V30 3679 C 339.713 -1.27605 -1.62864 0
M  V30 3680 C 340.128 0.153507 -1.88175 0
M  V30 3681 O 339.485 1.09485 -1.46011 0
M  V30 3682 C 339.536 -2.04596 -2.98031 0
M  V30 3683 O 339.257 -3.41975 -2.73834 0
M  V30 3684 C 340.758 -2.06122 -3.92465 0
M  V30 3685 H 337.978 -0.439718 -0.506842 0
M  V30 3686 H 340.522 -1.75591 -1.04824 0
M  V30 3687 H 338.677 -1.60299 -3.5268 0
M  V30 3688 H 339.091 -3.81549 -3.59889 0
M  V30 3689 H 340.565 -2.64451 -4.84531 0
M  V30 3690 H 341.042 -1.05083 -4.26444 0
M  V30 3691 H 341.648 -2.50427 -3.43753 0
M  V30 3692 N 339.963 1.05934 -1.16686 0
M  V30 3693 C 341.379 1.30938 -0.912542 0
M  V30 3694 C 341.579 1.96803 0.432533 0
M  V30 3695 O 340.635 2.23693 1.17123 0
M  V30 3696 C 341.948 2.18649 -2.06429 0
M  V30 3697 C 343.496 2.32055 -2.10047 0
M  V30 3698 C 343.971 3.23122 -3.24586 0
M  V30 3699 N 345.462 3.30706 -3.24327 0
M  V30 3700 C 346.197 4.01273 -4.09594 0
M  V30 3701 N 345.693 4.74332 -5.04956 0
M  V30 3702 N 347.486 3.97361 -3.97569 0
M  V30 3703 H 339.637 0.615777 -2.03278 0
M  V30 3704 H 341.9 0.334077 -0.887185 0
M  V30 3705 H 341.606 1.77534 -3.03603 0
M  V30 3706 H 341.48 3.19252 -2.00894 0
M  V30 3707 H 343.867 2.72415 -1.13464 0
M  V30 3708 H 343.948 1.31107 -2.19647 0
M  V30 3709 H 343.592 2.83477 -4.2143 0
M  V30 3710 H 343.522 4.24057 -3.12223 0
M  V30 3711 H 346.013 2.78644 -2.55276 0
M  V30 3712 H 346.326 5.25716 -5.6643 0
M  V30 3713 H 344.671 4.733 -5.08933 0
M  V30 3714 H 347.862 3.39405 -3.22369 0
M  V30 3715 H 348.035 4.52089 -4.64241 0
M  V30 3716 N 341.441 0.965919 1.2453 0
M  V30 3717 C 342.371 0.513476 2.27784 0
M  V30 3718 C 343.352 -0.445974 1.6415 0
M  V30 3719 O 344.537 -0.342485 1.91156 0
M  V30 3720 C 341.667 -0.198839 3.4673 0
M  V30 3721 C 340.621 0.676456 4.2262 0
M  V30 3722 C 339.947 -0.167248 5.34438 0
M  V30 3723 C 341.247 1.96017 4.84123 0
M  V30 3724 H 342.941 1.3765 2.65881 0
M  V30 3725 H 340.487 0.663321 1.27813 0
M  V30 3726 H 342.44 -0.526567 4.18097 0
M  V30 3727 H 341.164 -1.0962 3.07654 0
M  V30 3728 H 339.823 0.98743 3.53052 0
M  V30 3729 H 339.471 -1.0647 4.91603 0
M  V30 3730 H 339.171 0.415181 5.86131 0
M  V30 3731 H 340.695 -0.489688 6.08633 0
M  V30 3732 H 342.109 1.69814 5.47573 0
M  V30 3733 H 340.506 2.48918 5.4604 0
M  V30 3734 H 341.576 2.65622 4.05676 0
M  V30 3735 N 342.919 -1.39368 0.735821 0
M  V30 3736 C 344.165 -2.00794 0.284544 0
M  V30 3737 C 344.498 -1.58255 -1.12557 0
M  V30 3738 O 343.773 -0.811819 -1.76748 0
M  V30 3739 C 344.056 -3.58011 0.387337 0
M  V30 3740 C 343.909 -4.10566 1.83728 0
M  V30 3741 C 345.228 -4.395 -0.22975 0
M  V30 3742 H 342.347 -0.729501 0.104866 0
M  V30 3743 H 344.989 -1.65564 0.93213 0
M  V30 3744 H 343.139 -3.88154 -0.164006 0
M  V30 3745 H 344.811 -3.91139 2.44556 0
M  V30 3746 H 343.054 -3.64095 2.35833 0
M  V30 3747 H 343.725 -5.19702 1.86047 0
M  V30 3748 H 346.201 -4.15406 0.240257 0
M  V30 3749 H 345.077 -5.48752 -0.127485 0
M  V30 3750 H 345.338 -4.22062 -1.3159 0
M  V30 3751 N 344.397 -0.483516 -1.5 0
M  V30 3752 C 345.327 0.293829 -2.31644 0
M  V30 3753 C 346.308 0.978864 -1.39112 0
M  V30 3754 O 347.493 0.973644 -1.68029 0
M  V30 3755 C 344.623 1.36897 -3.19181 0
M  V30 3756 C 343.577 0.804833 -4.20365 0
M  V30 3757 C 342.903 1.9792 -4.96721 0
M  V30 3758 C 344.203 -0.192313 -5.21946 0
M  V30 3759 H 345.897 -0.387616 -2.9688 0
M  V30 3760 H 343.443 -0.187856 -1.42769 0
M  V30 3761 H 345.396 1.92037 -3.751 0
M  V30 3762 H 344.12 2.07936 -2.51853 0
M  V30 3763 H 342.779 0.275319 -3.65565 0
M  V30 3764 H 342.427 2.67686 -4.25856 0
M  V30 3765 H 342.127 1.60789 -5.65173 0
M  V30 3766 H 343.651 2.53526 -5.55479 0
M  V30 3767 H 345.065 0.270333 -5.72662 0
M  V30 3768 H 343.462 -0.478543 -5.98189 0
M  V30 3769 H 344.532 -1.11409 -4.71928 0
M  V30 3770 N 345.875 1.56104 -0.216619 0
M  V30 3771 C 346.807 2.17339 0.72776 0
M  V30 3772 C 347.82 1.14109 1.16116 0
M  V30 3773 O 349.009 1.4111 1.09317 0
M  V30 3774 C 346.109 2.73818 1.99693 0
M  V30 3775 C 345.282 4.02168 1.71988 0
M  V30 3776 C 344.341 4.43259 2.83562 0
M  V30 3777 O 343.367 5.10257 2.52244 0
M  V30 3778 N 344.569 4.08535 4.12407 0
M  V30 3779 H 347.334 2.99005 0.203983 0
M  V30 3780 H 344.895 1.61861 -0.0354289 0
M  V30 3781 H 346.887 2.9828 2.73516 0
M  V30 3782 H 345.457 1.96483 2.43132 0
M  V30 3783 H 344.677 3.85612 0.818337 0
M  V30 3784 H 345.965 4.85907 1.50903 0
M  V30 3785 H 345.363 3.54687 4.40696 0
M  V30 3786 H 343.92 4.37901 4.8279 0
M  V30 3787 N 347.353 -0.0568162 1.57498 0
M  V30 3788 C 348.6 -0.753104 1.87975 0
M  V30 3789 C 348.928 -1.76815 0.81035 0
M  V30 3790 O 348.183 -1.94756 -0.19199 0
M  V30 3791 C 348.482 -1.48359 3.25153 0
M  V30 3792 C 348.148 -0.60713 4.46794 0
M  V30 3793 C 346.81 -0.365642 4.79809 0
M  V30 3794 C 349.162 -0.000305978 5.212 0
M  V30 3795 C 346.49 0.491905 5.84634 0
M  V30 3796 C 348.842 0.844781 6.26934 0
M  V30 3797 C 347.506 1.096 6.58441 0
M  V30 3798 H 346.776 -0.27558 0.687849 0
M  V30 3799 H 349.423 -0.0135173 1.91495 0
M  V30 3800 H 347.728 -2.29577 3.17492 0
M  V30 3801 H 349.425 -2.02739 3.45974 0
M  V30 3802 H 346.015 -0.805487 4.20963 0
M  V30 3803 H 350.199 -0.173961 4.95995 0
M  V30 3804 H 345.455 0.695131 6.07436 0
M  V30 3805 H 349.629 1.32165 6.83744 0
M  V30 3806 H 347.256 1.76224 7.39492 0
M  V30 3807 N 348.832 -1.54138 -0.328536 0
M  V30 3808 C 349.742 -1.86192 -1.42723 0
M  V30 3809 C 350.758 -0.753382 -1.56844 0
M  V30 3810 O 351.934 -1.04718 -1.72035 0
M  V30 3811 C 348.999 -2.07824 -2.77507 0
M  V30 3812 C 348.06 -3.31641 -2.72603 0
M  V30 3813 C 347.293 -3.52232 -4.00959 0
M  V30 3814 O 347.516 -2.7636 -4.9898 0
M  V30 3815 O 346.45 -4.45699 -4.0452 0
M  V30 3816 H 350.276 -2.79608 -1.18547 0
M  V30 3817 H 347.861 -1.3998 -0.522104 0
M  V30 3818 H 349.743 -2.23411 -3.57303 0
M  V30 3819 H 348.418 -1.17596 -3.01584 0
M  V30 3820 H 347.325 -3.21444 -1.91376 0
M  V30 3821 H 348.658 -4.2191 -2.53481 0
M  V30 3822 N 350.31 0.590341 -1.46126 0
M  V30 3823 C 351.24 1.71032 -1.58966 0
M  V30 3824 C 352.221 1.64302 -0.440335 0
M  V30 3825 O 353.406 1.82436 -0.665634 0
M  V30 3826 C 350.536 3.09665 -1.57241 0
M  V30 3827 C 349.49 3.31221 -2.71066 0
M  V30 3828 C 348.816 4.70303 -2.54399 0
M  V30 3829 C 350.116 3.19796 -4.1295 0
M  V30 3830 H 351.81 1.60543 -2.52718 0
M  V30 3831 H 349.356 0.770933 -1.21625 0
M  V30 3832 H 351.309 3.87831 -1.64819 0
M  V30 3833 H 350.033 3.21036 -0.600289 0
M  V30 3834 H 348.692 2.55452 -2.62944 0
M  V30 3835 H 348.34 4.78429 -1.55288 0
M  V30 3836 H 348.04 4.85679 -3.30741 0
M  V30 3837 H 349.564 5.50647 -2.63857 0
M  V30 3838 H 350.978 3.87815 -4.22223 0
M  V30 3839 H 349.375 3.46696 -4.89818 0
M  V30 3840 H 350.445 2.16983 -4.33643 0
M  V30 3841 N 351.788 1.33704 0.83433 0
M  V30 3842 C 353.204 1.13137 1.12571 0
M  V30 3843 C 353.404 -0.0747261 2.01361 0
M  V30 3844 O 352.46 -0.753647 2.4099 0
M  V30 3845 C 353.773 2.42105 1.78342 0
M  V30 3846 C 355.321 2.48054 1.90888 0
M  V30 3847 C 355.796 3.76995 2.60075 0
M  V30 3848 N 357.287 3.78092 2.67584 0
M  V30 3849 C 358.022 4.74574 3.21818 0
M  V30 3850 N 357.518 5.81434 3.76705 0
M  V30 3851 N 359.311 4.62044 3.20112 0
M  V30 3852 H 351.462 2.11 0.243489 0
M  V30 3853 H 353.725 0.932532 0.17055 0
M  V30 3854 H 353.431 3.30391 1.20561 0
M  V30 3855 H 353.305 2.54594 2.7832 0
M  V30 3856 H 355.692 1.60215 2.47821 0
M  V30 3857 H 355.773 2.39502 0.898459 0
M  V30 3858 H 355.417 4.65219 2.03799 0
M  V30 3859 H 355.347 3.82825 3.61597 0
M  V30 3860 H 357.838 3.00865 2.28667 0
M  V30 3861 H 358.151 6.51084 4.16305 0
M  V30 3862 H 356.496 5.85163 3.7498 0
M  V30 3863 H 359.687 3.77716 2.76493 0
M  V30 3864 H 359.86 5.37406 3.62076 0
M  V30 3865 N 353.266 -1.05314 1.17247 0
M  V30 3866 C 354.682 -1.30452 0.919473 0
M  V30 3867 C 354.882 -1.9703 -0.42209 0
M  V30 3868 O 353.938 -2.24311 -1.15935 0
M  V30 3869 C 355.251 -2.17551 2.07586 0
M  V30 3870 C 356.799 -2.30937 2.11275 0
M  V30 3871 C 357.274 -3.21396 3.26296 0
M  V30 3872 N 358.765 -3.28981 3.26076 0
M  V30 3873 C 359.5 -3.99095 4.11716 0
M  V30 3874 N 358.996 -4.71648 5.07465 0
M  V30 3875 N 360.789 -3.95247 3.9967 0
M  V30 3876 H 352.94 -0.604988 2.03602 0
M  V30 3877 H 355.203 -0.329368 0.888944 0
M  V30 3878 H 354.909 -1.75921 3.0454 0
M  V30 3879 H 354.783 -3.18182 2.02584 0
M  V30 3880 H 357.17 -2.71809 1.14907 0
M  V30 3881 H 357.251 -1.2994 2.20339 0
M  V30 3882 H 356.895 -2.81238 4.22927 0
M  V30 3883 H 356.825 -4.22395 3.14467 0
M  V30 3884 H 359.316 -2.77286 2.5675 0
M  V30 3885 H 359.629 -5.22705 5.6921 0
M  V30 3886 H 357.974 -4.70594 5.11435 0
M  V30 3887 H 361.165 -3.37691 3.24164 0
M  V30 3888 H 361.338 -4.4962 4.66632 0
M  V30 3889 N 354.744 -0.972509 -1.24016 0
M  V30 3890 C 355.692 -0.498562 -2.27194 0
M  V30 3891 C 356.686 0.440372 -1.63576 0
M  V30 3892 O 357.892 0.315133 -1.7722 0
M  V30 3893 H 354.267 -0.142775 -0.738322 0
M  V30 3894 H 356.238 -1.38065 -2.64539 0
M  V30 3895 C 354.987 0.191072 -3.47175 0
M  V30 3896 H 354.31 -0.522318 -3.96373 0
M  V30 3897 H 355.75 0.486445 -4.212 0
M  V30 3898 C 354.209 1.41967 -3.05527 0
M  V30 3899 O 354.739 2.51642 -3.13112 0
M  V30 3900 N 352.945 1.28746 -2.60524 0
M  V30 3901 H 352.492 0.395089 -2.54552 0
M  V30 3902 H 352.45 2.11061 -2.33025 0
M  V30 3903 N 356.222 1.38976 -0.743202 0
M  V30 3904 C 357.468 2.0064 -0.295189 0
M  V30 3905 C 357.801 1.5885 1.11716 0
M  V30 3906 O 357.076 0.821181 1.76315 0
M  V30 3907 C 357.359 3.578 -0.406318 0
M  V30 3908 C 357.212 4.09586 -1.85903 0
M  V30 3909 C 358.531 4.39616 0.206439 0
M  V30 3910 H 355.65 0.728935 -0.108733 0
M  V30 3911 H 358.292 1.65067 -0.940897 0
M  V30 3912 H 356.442 3.88235 0.143419 0
M  V30 3913 H 358.114 3.89837 -2.46627 0
M  V30 3914 H 356.357 3.6284 -2.3776 0
M  V30 3915 H 357.028 5.18708 -1.888 0
M  V30 3916 H 359.504 4.15273 -0.262283 0
M  V30 3917 H 358.38 5.48812 0.0983819 0
M  V30 3918 H 358.641 4.22754 1.2935 0
M  V30 3919 N 357.7 0.491464 1.49741 0
M  V30 3920 C 358.63 -0.28154 2.31796 0
M  V30 3921 C 359.611 -0.971473 1.3963 0
M  V30 3922 O 360.796 -0.964719 1.68543 0
M  V30 3923 C 357.926 -1.35203 3.19902 0
M  V30 3924 C 356.88 -0.782529 4.20786 0
M  V30 3925 C 356.206 -1.95283 4.97764 0
M  V30 3926 C 357.506 0.21999 5.21837 0
M  V30 3927 H 359.2 0.403355 2.96671 0
M  V30 3928 H 356.746 0.195425 1.42668 0
M  V30 3929 H 358.699 -1.90045 3.76113 0
M  V30 3930 H 357.423 -2.06598 2.52953 0
M  V30 3931 H 356.082 -0.255928 3.65706 0
M  V30 3932 H 355.73 -2.65423 4.2727 0
M  V30 3933 H 355.43 -1.57789 5.66018 0
M  V30 3934 H 356.954 -2.50577 5.56816 0
M  V30 3935 H 358.368 -0.23996 5.72798 0
M  V30 3936 H 356.765 0.51026 5.97927 0
M  V30 3937 H 357.835 1.13911 4.7133 0
M  V30 3938 N 359.178 -1.55987 0.224894 0
M  V30 3939 C 360.408 -2.02489 -0.41007 0
M  V30 3940 C 360.816 -1.10391 -1.53657 0
M  V30 3941 O 360.159 -0.106458 -1.83391 0
M  V30 3942 C 360.221 -3.45319 -0.999757 0
M  V30 3943 C 359.885 -4.56999 -0.00827976 0
M  V30 3944 C 360.882 -5.13812 0.793314 0
M  V30 3945 C 358.567 -5.02176 0.111442 0
M  V30 3946 C 360.561 -6.14276 1.7013 0
M  V30 3947 C 358.248 -6.02477 1.02296 0
M  V30 3948 C 359.246 -6.58403 1.81643 0
M  V30 3949 O 358.934 -7.56751 2.71262 0
M  V30 3950 H 358.666 -0.667915 -0.104235 0
M  V30 3951 H 361.22 -2.0257 0.339782 0
M  V30 3952 H 359.45 -3.42318 -1.79876 0
M  V30 3953 H 361.139 -3.7545 -1.54248 0
M  V30 3954 H 361.905 -4.79756 0.711288 0
M  V30 3955 H 357.784 -4.58323 -0.49605 0
M  V30 3956 H 361.328 -6.57854 2.32107 0
M  V30 3957 H 357.225 -6.35954 1.10599 0
M  V30 3958 H 357.993 -7.74286 2.65375 0
M  V30 3959 N 360.656 0.0484629 -1.57525 0
M  V30 3960 C 361.903 0.743125 -1.88372 0
M  V30 3961 C 362.231 1.76383 -0.819715 0
M  V30 3962 O 361.486 1.94855 0.181659 0
M  V30 3963 C 361.785 1.46632 -3.25935 0
M  V30 3964 C 361.451 0.583427 -4.4711 0
M  V30 3965 C 360.113 0.340191 -4.79996 0
M  V30 3966 C 362.465 -0.0273345 -5.21193 0
M  V30 3967 C 359.793 -0.522903 -5.84365 0
M  V30 3968 C 362.145 -0.878017 -6.26477 0
M  V30 3969 C 360.809 -1.1309 -6.5785 0
M  V30 3970 H 360.079 0.271929 -0.689301 0
M  V30 3971 H 362.726 0.00336166 -1.915 0
M  V30 3972 H 361.031 2.2789 -3.18706 0
M  V30 3973 H 362.728 2.00902 -3.47044 0
M  V30 3974 H 359.318 0.783151 -4.21384 0
M  V30 3975 H 363.502 0.147654 -4.9608 0
M  V30 3976 H 358.758 -0.727335 -6.07058 0
M  V30 3977 H 362.932 -1.35789 -6.83033 0
M  V30 3978 H 360.559 -1.80144 -7.38547 0
M  V30 3979 N 362.134 1.5431 0.320358 0
M  V30 3980 C 363.383 1.7188 1.05546 0
M  V30 3981 C 363.696 0.501143 1.89071 0
M  V30 3982 O 364.902 0.558258 2.65699 0
M  V30 3983 C 363.358 3.04025 1.92605 0
M  V30 3984 C 362.966 4.33207 1.14176 0
M  V30 3985 C 364.71 3.30959 2.65832 0
M  V30 3986 C 362.617 5.56412 2.00399 0
M  V30 3987 H 361.547 0.640547 0.397763 0
M  V30 3988 H 364.198 1.80802 0.313522 0
M  V30 3989 H 362.58 2.89019 2.7071 0
M  V30 3990 H 363.754 4.58989 0.40819 0
M  V30 3991 H 362.069 4.13062 0.526165 0
M  V30 3992 H 364.666 4.20203 3.30656 0
M  V30 3993 H 365.009 2.48979 3.33639 0
M  V30 3994 H 365.542 3.46847 1.94787 0
M  V30 3995 H 362.281 6.41004 1.37094 0
M  V30 3996 H 361.801 5.34844 2.7148 0
M  V30 3997 H 363.48 5.92938 2.58908 0
M  V30 3998 N 363.613 -0.582584 1.46437 0
M  V30 3999 C 364.543 -1.70187 1.59871 0
M  V30 4000 C 365.524 -1.64066 0.449042 0
M  V30 4001 O 366.709 -1.82081 0.6753 0
M  V30 4002 C 363.839 -3.08827 1.58881 0
M  V30 4003 C 362.793 -3.29779 2.72819 0
M  V30 4004 C 362.119 -4.68947 2.5689 0
M  V30 4005 C 363.419 -3.17601 4.1464 0
M  V30 4006 H 365.113 -1.592 2.53566 0
M  V30 4007 H 362.659 -0.764472 1.22032 0
M  V30 4008 H 364.612 -3.86951 1.66873 0
M  V30 4009 H 363.336 -3.20713 0.617306 0
M  V30 4010 H 361.995 -2.54054 2.64296 0
M  V30 4011 H 361.643 -4.77599 1.57823 0
M  V30 4012 H 361.343 -4.83919 3.33312 0
M  V30 4013 H 362.867 -5.4924 2.66773 0
M  V30 4014 H 364.281 -3.8557 4.24274 0
M  V30 4015 H 362.678 -3.44094 4.9165 0
M  V30 4016 H 363.748 -2.14681 4.34788 0
M  V30 4017 N 365.091 -1.34144 -0.827227 0
M  V30 4018 C 366.001 -1.27428 -1.96975 0
M  V30 4019 C 367.017 -0.182728 -1.73038 0
M  V30 4020 O 368.193 -0.408426 -1.97215 0
M  V30 4021 C 365.258 -1.02526 -3.31194 0
M  V30 4022 C 364.319 -2.20796 -3.68168 0
M  V30 4023 C 363.552 -1.97073 -4.95982 0
M  V30 4024 O 363.775 -0.926822 -5.6282 0
M  V30 4025 O 362.709 -2.83912 -5.30733 0
M  V30 4026 H 366.535 -2.23537 -2.05584 0
M  V30 4027 H 364.12 -1.14307 -0.961989 0
M  V30 4028 H 366.002 -0.904026 -4.11589 0
M  V30 4029 H 364.677 -0.0945389 -3.23562 0
M  V30 4030 H 363.584 -2.38477 -2.88235 0
M  V30 4031 H 364.917 -3.12243 -3.8048 0
M  V30 4032 N 366.569 1.04691 -1.17803 0
M  V30 4033 C 367.797 1.81446 -0.99423 0
M  V30 4034 C 368.212 1.83174 0.457459 0
M  V30 4035 O 367.569 1.26265 1.31771 0
M  V30 4036 C 367.62 3.27334 -1.5341 0
M  V30 4037 O 367.341 3.25798 -2.92895 0
M  V30 4038 C 368.842 4.20759 -1.39559 0
M  V30 4039 H 366.062 0.571599 -0.351447 0
M  V30 4040 H 368.606 1.31982 -1.56208 0
M  V30 4041 H 366.761 3.74052 -1.00815 0
M  V30 4042 H 367.175 4.17144 -3.17949 0
M  V30 4043 H 368.649 5.21084 -1.82141 0
M  V30 4044 H 369.126 4.37856 -0.343394 0
M  V30 4045 H 369.732 3.79901 -1.91195 0
M  V30 4046 N 368.047 0.979072 1.23499 0
M  V30 4047 C 369.277 0.664237 1.95631 0
M  V30 4048 C 369.685 -0.772653 1.72704 0
M  V30 4049 O 369.028 -1.53141 1.01457 0
M  V30 4050 C 369.09 0.873115 3.48736 0
M  V30 4051 C 368.754 2.29182 3.95379 0
M  V30 4052 C 369.751 3.2704 4.04155 0
M  V30 4053 C 367.436 2.62256 4.28401 0
M  V30 4054 C 369.43 4.56052 4.45304 0
M  V30 4055 C 367.117 3.91491 4.69231 0
M  V30 4056 C 368.115 4.88201 4.77649 0
M  V30 4057 O 367.803 6.15129 5.17563 0
M  V30 4058 H 367.535 0.245915 0.629684 0
M  V30 4059 H 370.089 1.3127 1.57979 0
M  V30 4060 H 368.319 0.167476 3.86337 0
M  V30 4061 H 370.008 0.555642 4.02079 0
M  V30 4062 H 370.774 3.02819 3.78848 0
M  V30 4063 H 366.653 1.87692 4.21061 0
M  V30 4064 H 370.197 5.31538 4.51789 0
M  V30 4065 H 366.094 4.15508 4.93987 0
M  V30 4066 H 366.862 6.18862 5.35679 0
M  V30 4067 N 369.525 -1.3858 0.750561 0
M  V30 4068 C 370.771 -2.00481 0.305825 0
M  V30 4069 C 371.104 -1.5944 -1.10872 0
M  V30 4070 O 370.379 -0.83052 -1.75877 0
M  V30 4071 C 370.662 -3.5758 0.425287 0
M  V30 4072 C 370.515 -4.08594 1.88072 0
M  V30 4073 C 371.834 -4.39719 -0.183122 0
M  V30 4074 H 368.953 -0.728348 0.112598 0
M  V30 4075 H 371.595 -1.64566 0.949638 0
M  V30 4076 H 369.745 -3.88306 -0.122828 0
M  V30 4077 H 371.417 -3.88523 2.48691 0
M  V30 4078 H 369.66 -3.61574 2.39681 0
M  V30 4079 H 370.331 -5.177 1.91548 0
M  V30 4080 H 372.807 -4.15128 0.284303 0
M  V30 4081 H 371.683 -5.48856 -0.0692757 0
M  V30 4082 H 371.944 -4.23434 -1.27106 0
M  V30 4083 N 371.003 -0.499398 -1.49478 0
M  V30 4084 C 372.414 -0.051215 -1.8663 0
M  V30 4085 C 372.765 1.36238 -1.41186 0
M  V30 4086 O 371.89 2.01502 -0.789051 0
M  V30 4087 C 372.485 -0.0861651 -3.3869 0
M  V30 4088 C 371.044 0.30667 -3.75149 0
M  V30 4089 C 370.191 -0.459397 -2.73468 0
M  V30 4090 H 373.142 -0.712264 -1.41818 0
M  V30 4091 H 373.163 0.709507 -3.73826 0
M  V30 4092 H 372.675 -1.11512 -3.71735 0
M  V30 4093 H 370.776 1.33892 -3.47712 0
M  V30 4094 H 370.889 -0.0116669 -4.79099 0
M  V30 4095 H 369.253 0.0905645 -2.54539 0
M  V30 4096 H 370.036 -1.4884 -3.09357 0
M  V30 4097 N 372.481 1.55866 -0.233164 0
M  V30 4098 C 373.706 2.03449 0.402906 0
M  V30 4099 C 374.131 1.11166 1.51736 0
M  V30 4100 O 373.489 0.101996 1.81013 0
M  V30 4101 C 373.537 3.49165 0.9009 0
M  V30 4102 O 372.641 3.60019 2.01147 0
M  V30 4103 H 371.982 0.657913 0.0897025 0
M  V30 4104 H 374.512 2.01493 -0.355201 0
M  V30 4105 H 374.522 3.89716 1.2077 0
M  V30 4106 H 373.197 4.15813 0.0852889 0
M  V30 4107 H 371.774 3.3136 1.71042 0
M  V30 4108 N 373.959 -0.0401083 1.57549 0
M  V30 4109 C 375.187 -0.745196 1.93014 0
M  V30 4110 C 375.602 -1.6948 0.831984 0
M  V30 4111 O 374.959 -1.81482 -0.192463 0
M  V30 4112 C 375.01 -1.51176 3.28372 0
M  V30 4113 O 374.731 -0.600284 4.33968 0
M  V30 4114 C 376.232 -2.315 3.78051 0
M  V30 4115 H 373.452 -0.210088 0.637263 0
M  V30 4116 H 375.996 -0.000924689 2.045 0
M  V30 4117 H 374.151 -2.20801 3.18317 0
M  V30 4118 H 374.565 -1.13669 5.12035 0
M  V30 4119 H 376.039 -2.80697 4.75303 0
M  V30 4120 H 376.516 -3.12436 3.08675 0
M  V30 4121 H 377.122 -1.66971 3.91153 0
M  V30 4122 N 375.437 -1.54477 -0.31217 0
M  V30 4123 C 376.684 -1.73227 -1.04875 0
M  V30 4124 C 377.012 -0.512042 -1.87639 0
M  V30 4125 O 376.267 0.506131 -1.89042 0
M  V30 4126 C 376.566 -2.967 -1.99258 0
M  V30 4127 C 376.232 -4.30974 -1.32559 0
M  V30 4128 C 374.894 -4.67477 -1.141 0
M  V30 4129 C 377.246 -5.14258 -0.847835 0
M  V30 4130 C 374.574 -5.84852 -0.465326 0
M  V30 4131 C 376.926 -6.32327 -0.185931 0
M  V30 4132 C 375.59 -6.67499 0.0107077 0
M  V30 4133 H 374.86 -0.633881 -0.383765 0
M  V30 4134 H 377.507 -1.88727 -0.324731 0
M  V30 4135 H 375.812 -2.75935 -2.7815 0
M  V30 4136 H 377.509 -3.08401 -2.563 0
M  V30 4137 H 374.099 -4.02262 -1.4793 0
M  V30 4138 H 378.283 -4.86565 -0.978192 0
M  V30 4139 H 373.539 -6.10654 -0.301883 0
M  V30 4140 H 377.713 -6.96135 0.192211 0
M  V30 4141 H 375.34 -7.58306 0.536287 0
M  V30 4142 N 376.915 0.57481 -1.46744 0
M  V30 4143 C 377.845 1.69337 -1.60771 0
M  V30 4144 C 378.826 1.63825 -0.457736 0
M  V30 4145 O 380.011 1.8172 -0.684947 0
M  V30 4146 C 377.141 3.0798 -1.60517 0
M  V30 4147 C 376.095 3.28327 -2.74564 0
M  V30 4148 C 375.421 4.67578 -2.59373 0
M  V30 4149 C 376.721 3.15398 -4.16319 0
M  V30 4150 H 378.415 1.57853 -2.54407 0
M  V30 4151 H 375.961 0.75799 -1.22436 0
M  V30 4152 H 377.914 3.86061 -1.68923 0
M  V30 4153 H 376.638 3.20381 -0.634305 0
M  V30 4154 H 375.297 2.52649 -2.65639 0
M  V30 4155 H 374.945 4.76755 -1.60353 0
M  V30 4156 H 374.645 4.82144 -3.35873 0
M  V30 4157 H 376.169 5.47817 -2.69682 0
M  V30 4158 H 377.583 3.83315 -4.26313 0
M  V30 4159 H 375.98 3.41482 -4.93468 0
M  V30 4160 H 377.05 2.12372 -4.3592 0
M  V30 4161 N 378.394 1.34581 0.820102 0
M  V30 4162 C 379.64 1.27285 1.57881 0
M  V30 4163 C 379.973 -0.156137 1.93571 0
M  V30 4164 O 379.248 -1.10222 1.60254 0
M  V30 4165 C 379.531 2.16639 2.87645 0
M  V30 4166 C 379.384 3.68088 2.58517 0
M  V30 4167 C 380.703 2.05378 3.8924 0
M  V30 4168 H 377.822 0.463714 0.572833 0
M  V30 4169 H 380.464 1.64859 0.944539 0
M  V30 4170 H 378.614 1.84725 3.41773 0
M  V30 4171 H 380.286 4.10382 2.10676 0
M  V30 4172 H 378.529 3.89038 1.91917 0
M  V30 4173 H 379.2 4.2598 3.51063 0
M  V30 4174 H 381.676 2.33404 3.44473 0
M  V30 4175 H 380.552 2.7012 4.77835 0
M  V30 4176 H 380.813 1.0316 4.29896 0
M  V30 4177 N 379.872 -1.04064 1.18357 0
M  V30 4178 C 381.118 -1.77528 0.980397 0
M  V30 4179 C 381.451 -1.87948 -0.48879 0
M  V30 4180 O 380.726 -1.3876 -1.36293 0
M  V30 4181 C 381.009 -3.20797 1.63588 0
M  V30 4182 C 380.862 -3.1832 3.17793 0
M  V30 4183 C 382.181 -4.18911 1.34914 0
M  V30 4184 H 379.3 -0.644443 0.357578 0
M  V30 4185 H 381.942 -1.2156 1.46024 0
M  V30 4186 H 380.092 -3.68586 1.22788 0
M  V30 4187 H 381.764 -2.78521 3.67728 0
M  V30 4188 H 380.007 -2.56351 3.49952 0
M  V30 4189 H 380.678 -4.19489 3.58794 0
M  V30 4190 H 383.154 -3.7967 1.70265 0
M  V30 4191 H 382.03 -5.17374 1.83346 0
M  V30 4192 H 382.291 -4.41262 0.272027 0
M  V30 4193 N 381.35 -0.985608 -1.22978 0
M  V30 4194 C 382.28 -0.549649 -2.26939 0
M  V30 4195 C 383.261 0.419803 -1.64838 0
M  V30 4196 O 384.446 0.31203 -1.91677 0
M  V30 4197 C 381.576 0.143652 -3.47003 0
M  V30 4198 C 380.53 -0.743606 -4.21491 0
M  V30 4199 C 379.856 0.0822027 -5.34637 0
M  V30 4200 C 381.156 -2.03694 -4.80943 0
M  V30 4201 H 382.85 -1.41862 -2.63658 0
M  V30 4202 H 380.396 -0.683571 -1.26741 0
M  V30 4203 H 382.349 0.459985 -4.18882 0
M  V30 4204 H 381.073 1.04711 -3.09359 0
M  V30 4205 H 379.732 -1.04347 -3.51436 0
M  V30 4206 H 379.38 0.986359 -4.93234 0
M  V30 4207 H 379.08 -0.508377 -5.85397 0
M  V30 4208 H 380.604 0.392797 -6.09335 0
M  V30 4209 H 382.018 -1.78504 -5.44802 0
M  V30 4210 H 380.415 -2.57573 -5.42011 0
M  V30 4211 H 381.485 -2.72042 -4.01399 0
M  V30 4212 N 382.828 1.3818 -0.7579 0
M  V30 4213 C 384.053 2.04827 -0.325679 0
M  V30 4214 C 384.478 1.56788 1.03919 0
M  V30 4215 O 383.836 0.721811 1.66312 0
M  V30 4216 C 383.884 3.58774 -0.362447 0
M  V30 4217 O 382.988 4.07372 0.642033 0
M  V30 4218 H 382.329 0.64833 -0.143402 0
M  V30 4219 H 384.859 1.7677 -1.03023 0
M  V30 4220 H 384.869 4.07434 -0.214844 0
M  V30 4221 H 383.544 3.93096 -1.35824 0
M  V30 4222 H 382.121 3.70068 0.458688 0
M  V30 4223 N 384.306 0.507319 1.49211 0
M  V30 4224 C 385.552 -0.0269732 2.03382 0
M  V30 4225 C 385.907 -1.34111 1.37957 0
M  V30 4226 O 385.2 -1.84733 0.508351 0
M  V30 4227 C 385.394 -0.229513 3.56662 0
M  V30 4228 C 385.223 1.06344 4.36945 0
M  V30 4229 C 383.993 1.617 4.78729 0
M  V30 4230 C 386.191 1.96833 4.75143 0
M  V30 4231 N 384.173 2.8552 5.43463 0
M  V30 4232 C 385.544 3.0523 5.39661 0
M  V30 4233 C 387.599 1.97434 4.57082 0
M  V30 4234 C 386.302 4.14265 5.88028 0
M  V30 4235 C 388.328 3.05448 5.06414 0
M  V30 4236 C 387.69 4.12564 5.70938 0
M  V30 4237 H 383.789 0.0310673 0.781383 0
M  V30 4238 H 386.373 0.683579 1.82305 0
M  V30 4239 H 384.544 -0.909127 3.7761 0
M  V30 4240 H 386.276 -0.761377 3.97473 0
M  V30 4241 H 383.031 1.16132 4.59141 0
M  V30 4242 H 383.455 3.48499 5.80412 0
M  V30 4243 H 388.097 1.15924 4.06597 0
M  V30 4244 H 385.815 4.96569 6.3753 0
M  V30 4245 H 389.401 3.06941 4.94246 0
M  V30 4246 H 388.281 4.94767 6.0842 0
M  V30 4247 N 385.784 -1.5574 0.241426 0
M  V30 4248 C 387.03 -1.99104 -0.385406 0
M  V30 4249 C 387.363 -1.1293 -1.57988 0
M  V30 4250 O 386.638 -0.191449 -1.93555 0
M  V30 4251 C 386.921 -3.51087 -0.800616 0
M  V30 4252 C 386.774 -4.48028 0.398874 0
M  V30 4253 C 388.093 -4.08015 -1.64959 0
M  V30 4254 H 385.212 -0.723848 -0.138614 0
M  V30 4255 H 387.854 -1.86903 0.341642 0
M  V30 4256 H 386.004 -3.61615 -1.4201 0
M  V30 4257 H 387.676 -4.49487 1.03726 0
M  V30 4258 H 385.919 -4.21077 1.04293 0
M  V30 4259 H 386.59 -5.51962 0.0651056 0
M  V30 4260 H 389.066 -4.00555 -1.12672 0
M  V30 4261 H 387.942 -5.14635 -1.90898 0
M  V30 4262 H 388.203 -3.56131 -2.61961 0
M  V30 4263 N 387.262 0.0317525 -1.57568 0
M  V30 4264 C 388.487 0.738664 -1.938 0
M  V30 4265 C 388.912 1.68242 -0.841208 0
M  V30 4266 O 388.27 1.80157 0.203267 0
M  V30 4267 C 388.318 1.47417 -3.29091 0
M  V30 4268 O 387.422 2.5872 -3.2115 0
M  V30 4269 H 386.763 0.198856 -0.633524 0
M  V30 4270 H 389.293 -0.0119713 -2.04596 0
M  V30 4271 H 389.303 1.84468 -3.63917 0
M  V30 4272 H 387.978 0.781988 -4.08482 0
M  V30 4273 H 386.555 2.24231 -2.97951 0
M  V30 4274 N 388.74 1.54641 0.303973 0
M  V30 4275 C 389.987 1.7378 1.03955 0
M  V30 4276 C 390.315 0.521986 1.87365 0
M  V30 4277 O 389.57 -0.496099 1.89308 0
M  V30 4278 C 389.869 2.97753 1.97681 0
M  V30 4279 C 389.535 4.31671 1.30271 0
M  V30 4280 C 388.197 4.68075 1.11619 0
M  V30 4281 C 390.549 5.147 0.82055 0
M  V30 4282 C 387.877 5.8509 0.434304 0
M  V30 4283 C 390.229 6.32416 0.152395 0
M  V30 4284 C 388.893 6.67484 -0.0461067 0
M  V30 4285 H 388.163 0.635908 0.380398 0
M  V30 4286 H 390.81 1.88896 0.314718 0
M  V30 4287 H 389.115 2.77406 2.76682 0
M  V30 4288 H 390.812 3.09756 2.54661 0
M  V30 4289 H 387.402 4.03041 1.45795 0
M  V30 4290 H 391.586 4.87077 0.952374 0
M  V30 4291 H 386.842 6.10806 0.269495 0
M  V30 4292 H 391.016 6.96023 -0.229126 0
M  V30 4293 H 388.643 7.58011 -0.576494 0
M  V30 4294 N 390.218 -0.567019 1.47046 0
M  V30 4295 C 391.464 -1.32434 1.54379 0
M  V30 4296 C 391.819 -1.91365 0.199276 0
M  V30 4297 O 391.112 -1.74378 -0.793915 0
M  V30 4298 C 391.306 -2.4623 2.59047 0
M  V30 4299 C 391.135 -1.98448 4.03545 0
M  V30 4300 C 389.905 -1.82741 4.71098 0
M  V30 4301 C 392.103 -1.53477 4.90866 0
M  V30 4302 N 390.085 -1.29196 6.00151 0
M  V30 4303 C 391.456 -1.1163 6.09868 0
M  V30 4304 C 393.511 -1.41438 4.77388 0
M  V30 4305 C 392.214 -0.589425 7.16881 0
M  V30 4306 C 394.24 -0.901528 5.84488 0
M  V30 4307 C 393.602 -0.492932 7.02673 0
M  V30 4308 H 389.701 -0.477005 0.61967 0
M  V30 4309 H 392.285 -0.643856 1.83746 0
M  V30 4310 H 390.456 -3.11821 2.31564 0
M  V30 4311 H 392.188 -3.13213 2.56281 0
M  V30 4312 H 388.943 -2.05162 4.26855 0
M  V30 4313 H 389.367 -1.0454 6.6888 0
M  V30 4314 H 394.009 -1.71643 3.86392 0
M  V30 4315 H 391.727 -0.274994 8.07632 0
M  V30 4316 H 395.313 -0.812071 5.76105 0
M  V30 4317 H 394.193 -0.102227 7.84133 0
M  V30 4318 N 391.696 -1.35014 -0.812953 0
M  V30 4319 C 392.945 -1.27269 -1.56479 0
M  V30 4320 C 393.258 0.152771 -1.95002 0
M  V30 4321 O 394.464 0.352451 -2.69203 0
M  V30 4322 C 392.92 -2.23159 -2.82362 0
M  V30 4323 C 392.528 -3.71016 -2.511 0
M  V30 4324 C 394.272 -2.24342 -3.60376 0
M  V30 4325 C 392.179 -4.58746 -3.73237 0
M  V30 4326 H 391.109 -0.472829 -0.587324 0
M  V30 4327 H 393.76 -1.6024 -0.894171 0
M  V30 4328 H 392.142 -1.83151 -3.51101 0
M  V30 4329 H 393.316 -4.1962 -1.90409 0
M  V30 4330 H 391.631 -3.72378 -1.86343 0
M  V30 4331 H 394.228 -2.87107 -4.51081 0
M  V30 4332 H 394.571 -1.24542 -3.97234 0
M  V30 4333 H 395.104 -2.62846 -2.98591 0
M  V30 4334 H 391.843 -5.59521 -3.41492 0
M  V30 4335 H 391.363 -4.14871 -4.33176 0
M  V30 4336 H 393.042 -4.73852 -4.40537 0
M  V30 4337 N 393.175 1.03435 -1.18907 0
M  V30 4338 C 394.4 1.80919 -1.01406 0
M  V30 4339 C 394.825 1.83055 0.432721 0
M  V30 4340 O 394.183 1.25252 1.31079 0
M  V30 4341 C 394.231 3.24091 -1.58105 0
M  V30 4342 O 393.335 4.04434 -0.806669 0
M  V30 4343 H 392.676 0.558709 -0.358803 0
M  V30 4344 H 395.206 1.30223 -1.57807 0
M  V30 4345 H 395.216 3.74853 -1.61087 0
M  V30 4346 H 393.891 3.21851 -2.6341 0
M  V30 4347 H 392.468 3.63091 -0.849666 0
M  V30 4348 N 394.653 0.992116 1.22453 0
M  V30 4349 C 395.583 0.561677 2.26644 0
M  V30 4350 C 396.564 -0.411055 1.65059 0
M  V30 4351 O 397.749 -0.301861 1.9184 0
M  V30 4352 C 394.879 -0.125247 3.47074 0
M  V30 4353 C 393.833 0.765948 4.21091 0
M  V30 4354 C 393.159 -0.0538484 5.34673 0
M  V30 4355 C 394.459 2.06242 4.79856 0
M  V30 4356 H 396.153 1.43259 2.62902 0
M  V30 4357 H 393.699 0.690283 1.26377 0
M  V30 4358 H 395.652 -0.437764 4.1912 0
M  V30 4359 H 394.376 -1.03069 3.0991 0
M  V30 4360 H 393.035 1.0621 3.50878 0
M  V30 4361 H 392.683 -0.960188 4.9375 0
M  V30 4362 H 392.383 0.539415 5.85119 0
M  V30 4363 H 393.907 -0.360477 6.09535 0
M  V30 4364 H 395.321 1.8139 5.43848 0
M  V30 4365 H 393.718 2.60444 5.40638 0
M  V30 4366 H 394.788 2.74167 3.99951 0
M  V30 4367 N 396.131 -1.37776 0.765217 0
M  V30 4368 C 397.408 -1.93975 0.251596 0
M  V30 4369 C 397.788 -1.69949 -1.25222 0
M  V30 4370 O 397.136 -1.04457 -2.03226 0
M  V30 4371 C 397.346 -3.43487 0.617895 0
M  V30 4372 C 398.694 -4.20564 0.584029 0
M  V30 4373 O 399.718 -3.5182 0.556888 0
M  V30 4374 O 398.577 -5.43138 0.605291 0
M  V30 4375 H 395.671 -0.82509 0.0561806 0
M  V30 4376 H 398.217 -1.47101 0.846128 0
M  V30 4377 H 396.989 -3.5453 1.65602 0
M  V30 4378 H 396.612 -3.976 -0.00403411 0
M  V30 4379 N 397.609 -0.515225 -1.4894 0
M  V30 4380 C 398.834 0.022727 -2.07388 0
M  V30 4381 C 399.259 1.2876 -1.37122 0
M  V30 4382 O 398.617 1.76067 -0.432431 0
M  V30 4383 C 398.665 0.244869 -3.59768 0
M  V30 4384 O 397.769 1.31667 -3.90817 0
M  V30 4385 H 397.11 -0.0325506 -0.663202 0
M  V30 4386 H 399.64 -0.718918 -1.91553 0
M  V30 4387 H 399.65 0.47205 -4.0526 0
M  V30 4388 H 398.325 -0.679194 -4.10317 0
M  V30 4389 H 396.902 1.07331 -3.5712 0
M  V30 4390 N 399.087 1.5561 -0.249682 0
M  V30 4391 C 400.333 1.99306 0.374841 0
M  V30 4392 C 400.666 1.13767 1.57387 0
M  V30 4393 O 399.941 0.201711 1.93451 0
M  V30 4394 C 400.224 3.51507 0.781986 0
M  V30 4395 C 400.077 4.4781 -0.422629 0
M  V30 4396 C 401.396 4.08884 1.62793 0
M  V30 4397 H 398.515 0.724572 0.134773 0
M  V30 4398 H 401.157 1.86719 -0.351549 0
M  V30 4399 H 399.307 3.62363 1.4009 0
M  V30 4400 H 400.979 4.48931 -1.06108 0
M  V30 4401 H 399.222 4.20518 -1.06524 0
M  V30 4402 H 399.893 5.51919 -0.0943766 0
M  V30 4403 H 402.369 4.01147 1.10547 0
M  V30 4404 H 401.245 5.1564 1.88166 0
M  V30 4405 H 401.506 3.57515 2.60068 0
M  V30 4406 N 400.565 -0.0233959 1.57583 0
M  V30 4407 C 401.976 -0.56927 1.77809 0
M  V30 4408 C 402.327 -1.75284 0.881472 0
M  V30 4409 O 401.452 -2.1626 0.0777805 0
M  V30 4410 C 402.047 -1.03949 3.22459 0
M  V30 4411 C 400.606 -1.53084 3.43864 0
M  V30 4412 C 399.753 -0.471454 2.73263 0
M  V30 4413 H 402.704 0.202825 1.57399 0
M  V30 4414 H 402.725 -1.90661 3.29285 0
M  V30 4415 H 402.237 -0.177865 3.87692 0
M  V30 4416 H 400.338 -2.41414 2.83814 0
M  V30 4417 H 400.451 -1.57443 4.52491 0
M  V30 4418 H 398.815 -0.927788 2.37201 0
M  V30 4419 H 399.598 0.380808 3.41181 0
M  V30 4420 N 402.043 -1.548 -0.295768 0
M  V30 4421 C 403.006 -1.85363 -1.34808 0
M  V30 4422 C 404.006 -0.726817 -1.43436 0
M  V30 4423 O 405.196 -0.995088 -1.42981 0
M  V30 4424 C 402.328 -2.03859 -2.73229 0
M  V30 4425 H 403.521 -2.7941 -1.08949 0
M  V30 4426 H 401.074 -1.46942 -0.532702 0
M  V30 4427 H 401.809 -1.12117 -3.04303 0
M  V30 4428 H 401.594 -2.8588 -2.68356 0
M  V30 4429 H 403.084 -2.28857 -3.49305 0
M  V30 4430 N 403.521 0.559213 -1.47345 0
M  V30 4431 C 404.937 0.884943 -1.32819 0
M  V30 4432 C 405.137 1.98988 -0.317173 0
M  V30 4433 O 404.193 2.51031 0.272011 0
M  V30 4434 C 405.506 1.28007 -2.72093 0
M  V30 4435 C 407.054 1.39161 -2.80363 0
M  V30 4436 C 407.529 1.82031 -4.20272 0
M  V30 4437 N 409.02 1.89185 -4.22804 0
M  V30 4438 C 409.755 2.2368 -5.27973 0
M  V30 4439 N 409.251 2.56802 -6.43447 0
M  V30 4440 N 411.044 2.24436 -5.15349 0
M  V30 4441 H 403.195 -0.170304 -2.11716 0
M  V30 4442 H 405.458 -0.0135247 -0.947904 0
M  V30 4443 H 405.164 0.542027 -3.47498 0
M  V30 4444 H 405.038 2.23665 -3.03733 0
M  V30 4445 H 407.425 2.12048 -2.05231 0
M  V30 4446 H 407.506 0.41696 -2.52379 0
M  V30 4447 H 407.15 1.09715 -4.95908 0
M  V30 4448 H 407.08 2.80495 -4.45679 0
M  V30 4449 H 409.571 1.65982 -3.39497 0
M  V30 4450 H 409.884 2.82144 -7.19454 0
M  V30 4451 H 408.229 2.54387 -6.46771 0
M  V30 4452 H 411.42 1.97998 -4.24163 0
M  V30 4453 H 411.593 2.50989 -5.97418 0
M  V30 4454 N 404.999 1.35443 0.805782 0
M  V30 4455 C 406.227 1.31878 1.59423 0
M  V30 4456 C 406.642 -0.103562 1.88516 0
M  V30 4457 O 405.999 -1.05575 1.48863 0
M  V30 4458 C 406.05 2.12426 2.92502 0
M  V30 4459 O 405.771 3.49115 2.6467 0
M  V30 4460 C 407.272 2.16455 3.86862 0
M  V30 4461 H 404.492 0.453002 0.495005 0
M  V30 4462 H 407.036 1.78309 1.00131 0
M  V30 4463 H 405.191 1.69593 3.48306 0
M  V30 4464 H 405.605 3.90957 3.49647 0
M  V30 4465 H 407.079 2.77204 4.77349 0
M  V30 4466 H 407.556 1.16352 4.23508 0
M  V30 4467 H 408.162 2.59453 3.36993 0
M  V30 4468 N 406.477 -1.02803 1.19454 0
M  V30 4469 C 407.717 -1.77769 1.00883 0
M  V30 4470 C 408.081 -1.86596 -0.45233 0
M  V30 4471 O 409.282 -2.57895 -0.757877 0
M  V30 4472 C 407.553 -3.16486 1.66046 0
M  V30 4473 S 409.112 -4.07632 1.62424 0
M  V30 4474 H 405.93 -0.611949 0.361993 0
M  V30 4475 H 408.532 -1.23175 1.51816 0
M  V30 4476 H 407.236 -3.0768 2.7159 0
M  V30 4477 H 406.767 -3.76156 1.15196 0
M  V30 4478 H 408.782 -4.91937 0.64903 0
M  V30 4479 N 407.956 -0.998596 -1.21925 0
M  V30 4480 C 409.205 -0.673085 -1.90138 0
M  V30 4481 C 409.518 0.79895 -1.78539 0
M  V30 4482 O 410.724 1.23628 -2.4172 0
M  V30 4483 C 409.18 -1.15339 -3.40918 0
M  V30 4484 C 408.788 -2.65106 -3.61141 0
M  V30 4485 C 410.532 -0.902476 -4.14796 0
M  V30 4486 C 408.439 -3.0671 -5.05651 0
M  V30 4487 H 407.369 -0.248057 -0.712028 0
M  V30 4488 H 410.02 -1.20891 -1.38049 0
M  V30 4489 H 408.402 -0.545658 -3.92223 0
M  V30 4490 H 409.576 -3.31274 -3.20304 0
M  V30 4491 H 407.891 -2.88142 -3.00605 0
M  V30 4492 H 410.488 -1.18895 -5.21314 0
M  V30 4493 H 410.831 0.161349 -4.15987 0
M  V30 4494 H 411.364 -1.47269 -3.69536 0
M  V30 4495 H 408.103 -4.12292 -5.09603 0
M  V30 4496 H 407.623 -2.45249 -5.47369 0
M  V30 4497 H 409.302 -2.9833 -5.74115 0
M  V30 4498 N 409.434 1.37368 -0.772513 0
M  V30 4499 C 410.682 1.99279 -0.336516 0
M  V30 4500 C 411.003 1.6163 1.09091 0
M  V30 4501 O 410.273 0.882109 1.74916 0
M  V30 4502 H 408.853 0.737063 -0.121435 0
M  V30 4503 H 411.515 1.67836 -0.990809 0
M  V30 4504 H 410.611 3.09332 -0.414763 0
M  V30 4505 N 410.912 0.523116 1.48665 0
M  V30 4506 C 412.158 -0.0134963 2.02796 0
M  V30 4507 C 412.491 -1.34582 1.40004 0
M  V30 4508 O 411.766 -1.86756 0.543381 0
M  V30 4509 C 412.049 -0.14276 3.59817 0
M  V30 4510 C 411.902 1.21425 4.331 0
M  V30 4511 C 413.221 -0.872856 4.31357 0
M  V30 4512 H 410.34 -0.00343074 0.736992 0
M  V30 4513 H 412.982 0.678816 1.7746 0
M  V30 4514 H 411.132 -0.732401 3.81534 0
M  V30 4515 H 412.804 1.84447 4.2282 0
M  V30 4516 H 411.047 1.79791 3.94788 0
M  V30 4517 H 411.718 1.07687 5.41394 0
M  V30 4518 H 414.194 -0.372555 4.14429 0
M  V30 4519 H 413.07 -0.932185 5.40927 0
M  V30 4520 H 413.331 -1.92161 3.98154 0
M  V30 4521 N 412.39 -1.55475 0.257931 0
M  V30 4522 C 413.618 -2.03609 -0.367559 0
M  V30 4523 C 414.033 -1.13687 -1.50734 0
M  V30 4524 O 413.39 -0.153479 -1.81853 0
M  V30 4525 C 413.441 -3.51001 -0.864908 0
M  V30 4526 O 413.162 -4.37499 0.229465 0
M  V30 4527 C 414.663 -4.14946 -1.55997 0
M  V30 4528 H 411.883 -0.665459 -0.0860521 0
M  V30 4529 H 414.427 -2.00843 0.385014 0
M  V30 4530 H 412.582 -3.54266 -1.56762 0
M  V30 4531 H 412.996 -5.24286 -0.14998 0
M  V30 4532 H 414.47 -5.19735 -1.85956 0
M  V30 4533 H 414.947 -3.6209 -2.4857 0
M  V30 4534 H 415.553 -4.15635 -0.901543 0
M  V30 4535 N 413.868 0.0150385 -1.57593 0
M  V30 4536 C 415.096 0.714395 -1.94175 0
M  V30 4537 C 415.511 1.68135 -0.858841 0
M  V30 4538 O 414.868 1.81766 0.163567 0
M  V30 4539 C 414.919 1.45933 -3.30735 0
M  V30 4540 O 414.64 0.531167 -4.34868 0
M  V30 4541 C 416.141 2.25456 -3.81686 0
M  V30 4542 H 413.361 0.199923 -0.640525 0
M  V30 4543 H 415.905 -0.0316096 -2.04476 0
M  V30 4544 H 414.06 2.15709 -3.21789 0
M  V30 4545 H 414.474 1.05509 -5.13778 0
M  V30 4546 H 415.948 2.731 -4.79709 0
M  V30 4547 H 416.425 3.07485 -3.13607 0
M  V30 4548 H 417.031 1.60727 -3.9376 0
M  V30 4549 N 415.346 1.54954 0.287554 0
M  V30 4550 C 416.592 1.75132 1.02257 0
M  V30 4551 C 416.925 0.542858 1.86458 0
M  V30 4552 O 416.2 -0.459856 1.88986 0
M  V30 4553 C 416.483 3.04812 1.91733 0
M  V30 4554 C 416.336 4.35985 1.10622 0
M  V30 4555 C 417.655 3.30438 2.90687 0
M  V30 4556 H 414.774 0.637194 0.370341 0
M  V30 4557 H 417.416 1.87678 0.296111 0
M  V30 4558 H 415.566 2.94247 2.53675 0
M  V30 4559 H 417.238 4.58487 0.508636 0
M  V30 4560 H 415.481 4.31865 0.409271 0
M  V30 4561 H 416.152 5.23017 1.76513 0
M  V30 4562 H 418.628 3.40701 2.38877 0
M  V30 4563 H 417.504 4.22467 3.50447 0
M  V30 4564 H 417.765 2.49377 3.65053 0
M  V30 4565 N 416.824 -0.551391 1.4764 0
M  V30 4566 C 417.754 -1.66757 1.63445 0
M  V30 4567 C 418.735 -1.63077 0.483742 0
M  V30 4568 O 419.92 -1.80607 0.71377 0
M  V30 4569 C 417.05 -3.05387 1.65396 0
M  V30 4570 C 416.004 -3.23918 2.79752 0
M  V30 4571 C 415.33 -4.63393 2.66779 0
M  V30 4572 C 416.63 -3.08735 4.21284 0
M  V30 4573 H 418.324 -1.53786 2.56886 0
M  V30 4574 H 415.87 -0.738415 1.23626 0
M  V30 4575 H 417.823 -3.83325 1.75043 0
M  V30 4576 H 416.547 -3.19332 0.685195 0
M  V30 4577 H 415.206 -2.48391 2.69625 0
M  V30 4578 H 414.854 -4.74144 1.67918 0
M  V30 4579 H 414.554 -4.7674 3.43501 0
M  V30 4580 H 416.078 -5.43458 2.78364 0
M  V30 4581 H 417.492 -3.76484 4.32357 0
M  V30 4582 H 415.889 -3.33588 4.98838 0
M  V30 4583 H 416.959 -2.0541 4.39243 0
M  V30 4584 N 418.302 -1.35869 -0.798587 0
M  V30 4585 C 419.527 -1.32883 -1.59238 0
M  V30 4586 C 419.952 0.0894587 -1.87887 0
M  V30 4587 O 419.31 1.05869 -1.47178 0
M  V30 4588 C 419.358 -2.14892 -2.89575 0
M  V30 4589 O 418.462 -1.53512 -3.82763 0
M  V30 4590 H 417.803 -0.455236 -0.48338 0
M  V30 4591 H 420.333 -1.79024 -0.990539 0
M  V30 4592 H 420.343 -2.27139 -3.38928 0
M  V30 4593 H 419.018 -3.17998 -2.68049 0
M  V30 4594 H 417.595 -1.50153 -3.41334 0
M  V30 4595 N 419.78 1.02168 -1.19998 0
M  V30 4596 C 420.713 2.10232 -0.887558 0
M  V30 4597 C 421.691 1.61827 0.158317 0
M  V30 4598 O 422.875 1.88471 0.0330249 0
M  V30 4599 C 420.002 3.37092 -0.32964 0
M  V30 4600 C 419.048 4.0438 -1.3557 0
M  V30 4601 S 419.881 4.48956 -2.91888 0
M  V30 4602 C 421.037 5.79024 -2.37658 0
M  V30 4603 H 421.27 2.36409 -1.80272 0
M  V30 4604 H 418.803 1.15211 -1.0279 0
M  V30 4605 H 420.761 4.10498 -0.0142824 0
M  V30 4606 H 419.422 3.08996 0.563941 0
M  V30 4607 H 418.615 4.95632 -0.9146 0
M  V30 4608 H 418.217 3.37176 -1.61828 0
M  V30 4609 H 420.509 6.53942 -1.77103 0
M  V30 4610 H 421.452 6.27924 -3.27287 0
M  V30 4611 H 421.86 5.35043 -1.79971 0
M  V30 4612 N 421.258 1.00505 1.21394 0
M  V30 4613 C 422.486 0.706609 1.9446 0
M  V30 4614 C 422.901 -0.73081 1.74082 0
M  V30 4615 O 422.258 -1.49446 1.04747 0
M  V30 4616 C 422.309 1.01824 3.46863 0
M  V30 4617 O 422.03 2.39919 3.66566 0
M  V30 4618 C 423.531 0.739216 4.37093 0
M  V30 4619 H 420.751 0.260394 0.618414 0
M  V30 4620 H 423.295 1.34311 1.54211 0
M  V30 4621 H 421.45 0.427343 3.85036 0
M  V30 4622 H 421.864 2.50784 4.6066 0
M  V30 4623 H 423.338 1.00744 5.42729 0
M  V30 4624 H 423.815 -0.326746 4.37983 0
M  V30 4625 H 424.421 1.31173 4.04566 0
M  V30 4626 N 422.737 -1.36956 0.779787 0
M  V30 4627 C 423.965 -2.03755 0.359398 0
M  V30 4628 C 424.38 -1.58807 -1.02106 0
M  V30 4629 O 423.737 -0.773024 -1.6532 0
M  V30 4630 C 423.788 -3.59251 0.402568 0
M  V30 4631 O 423.509 -4.02557 1.72858 0
M  V30 4632 C 425.01 -4.43291 -0.0284068 0
M  V30 4633 H 422.23 -0.654148 0.149437 0
M  V30 4634 H 424.774 -1.75128 1.05595 0
M  V30 4635 H 422.929 -3.86621 -0.245478 0
M  V30 4636 H 423.343 -4.97111 1.67275 0
M  V30 4637 H 424.817 -5.51975 0.0529466 0
M  V30 4638 H 425.294 -4.25719 -1.07982 0
M  V30 4639 H 425.9 -4.21163 0.591758 0
M  V30 4640 N 424.215 -0.530993 -1.48385 0
M  V30 4641 C 425.145 0.219985 -2.32461 0
M  V30 4642 C 426.126 0.934111 -1.42156 0
M  V30 4643 O 427.311 0.919694 -1.71042 0
M  V30 4644 C 424.441 1.26674 -3.23375 0
M  V30 4645 C 423.395 0.67069 -4.22712 0
M  V30 4646 C 422.721 1.82017 -5.02766 0
M  V30 4647 C 424.021 -0.358268 -5.2107 0
M  V30 4648 H 425.715 -0.48187 -2.95497 0
M  V30 4649 H 423.261 -0.233182 -1.42099 0
M  V30 4650 H 425.214 1.80006 -3.81019 0
M  V30 4651 H 423.938 1.99818 -2.58341 0
M  V30 4652 H 422.597 0.158878 -3.66256 0
M  V30 4653 H 422.245 2.54002 -4.34157 0
M  V30 4654 H 421.945 1.42727 -5.70003 0
M  V30 4655 H 423.469 2.35725 -5.63264 0
M  V30 4656 H 424.883 0.0880081 -5.73232 0
M  V30 4657 H 423.28 -0.66861 -5.96364 0
M  V30 4658 H 424.35 -1.26367 -4.68145 0
M  V30 4659 N 425.693 1.55336 -0.266172 0
M  V30 4660 C 426.626 2.18256 0.666296 0
M  V30 4661 C 427.604 1.14064 1.1588 0
M  V30 4662 O 428.788 1.42546 1.23341 0
M  V30 4663 C 425.915 2.79867 1.90768 0
M  V30 4664 C 424.961 3.97283 1.55141 0
M  V30 4665 S 425.794 5.31694 0.637313 0
M  V30 4666 C 426.95 5.96769 1.88727 0
M  V30 4667 H 427.183 2.97008 0.131647 0
M  V30 4668 H 424.716 1.54317 -0.0504869 0
M  V30 4669 H 426.674 3.15996 2.62025 0
M  V30 4670 H 425.335 2.01025 2.41346 0
M  V30 4671 H 424.528 4.3905 2.4749 0
M  V30 4672 H 424.13 3.6253 0.919113 0
M  V30 4673 H 426.422 6.15458 2.83227 0
M  V30 4674 H 427.365 6.91752 1.51276 0
M  V30 4675 H 427.773 5.26034 2.04814 0
M  V30 4676 N 427.171 -0.0066808 1.57599 0
M  V30 4677 C 428.42 -0.692078 1.89455 0
M  V30 4678 C 428.733 -1.75306 0.867586 0
M  V30 4679 O 429.939 -2.49262 1.07614 0
M  V30 4680 C 428.395 -1.2821 3.36289 0
M  V30 4681 C 428.003 -0.256291 4.47266 0
M  V30 4682 C 429.747 -1.94608 3.77264 0
M  V30 4683 C 427.654 -0.855927 5.85173 0
M  V30 4684 H 426.584 -0.262252 0.706923 0
M  V30 4685 H 429.235 0.052769 1.83424 0
M  V30 4686 H 427.617 -2.0774 3.37135 0
M  V30 4687 H 428.791 0.513923 4.57925 0
M  V30 4688 H 427.106 0.306862 4.15268 0
M  V30 4689 H 429.703 -2.40364 4.77629 0
M  V30 4690 H 430.046 -2.77382 3.10427 0
M  V30 4691 H 430.579 -1.21822 3.78688 0
M  V30 4692 H 427.318 -0.0671161 6.55466 0
M  V30 4693 H 426.838 -1.59546 5.78191 0
M  V30 4694 H 428.517 -1.35658 6.32618 0
M  V30 4695 N 428.649 -1.55105 -0.279332 0
M  V30 4696 C 429.897 -1.75066 -1.00977 0
M  V30 4697 C 430.218 -0.551276 -1.87045 0
M  V30 4698 O 429.488 0.433984 -1.91032 0
M  V30 4699 H 428.068 -0.645578 -0.375816 0
M  V30 4700 H 430.73 -1.92497 -0.305089 0
M  V30 4701 H 429.826 -2.64894 -1.65038 0
M  V30 4702 N 430.127 0.543554 -1.4793 0
M  V30 4703 C 431.352 1.32995 -1.59145 0
M  V30 4704 C 431.777 1.86472 -0.246956 0
M  V30 4705 O 431.135 1.63696 0.779324 0
M  V30 4706 C 431.183 2.46623 -2.63077 0
M  V30 4707 O 430.287 3.49261 -2.19295 0
M  V30 4708 H 429.628 0.394472 -0.534124 0
M  V30 4709 H 432.158 0.655489 -1.93816 0
M  V30 4710 H 432.168 2.93001 -2.83926 0
M  V30 4711 H 430.843 2.07059 -3.60693 0
M  V30 4712 H 429.42 3.09094 -2.08603 0
M  V30 4713 N 431.605 1.3629 0.791371 0
M  V30 4714 C 433.021 1.16661 1.08914 0
M  V30 4715 C 433.221 -0.0106266 2.01497 0
M  V30 4716 O 432.277 -0.676596 2.43266 0
M  V30 4717 C 433.59 2.47656 1.70549 0
M  V30 4718 C 435.138 2.54002 1.82899 0
M  V30 4719 C 435.613 3.85078 2.47949 0
M  V30 4720 N 437.104 3.86413 2.5542 0
M  V30 4721 C 437.839 4.84572 3.06557 0
M  V30 4722 N 437.335 5.93124 3.58016 0
M  V30 4723 N 439.128 4.71994 3.05251 0
M  V30 4724 H 431.279 2.11668 0.176238 0
M  V30 4725 H 433.542 0.937486 0.140796 0
M  V30 4726 H 433.248 3.34059 1.09989 0
M  V30 4727 H 433.122 2.63319 2.70079 0
M  V30 4728 H 435.509 1.68018 2.42598 0
M  V30 4729 H 435.59 2.42239 0.821808 0
M  V30 4730 H 435.234 4.71467 1.88895 0
M  V30 4731 H 435.164 3.94135 3.49235 0
M  V30 4732 H 437.655 3.07988 2.18979 0
M  V30 4733 H 437.968 6.63999 3.95381 0
M  V30 4734 H 436.313 5.96796 3.56173 0
M  V30 4735 H 439.504 3.86321 2.64336 0
M  V30 4736 H 439.677 5.48653 3.44796 0
M  V30 4737 N 433.083 -1.0153 1.20538 0
M  V30 4738 C 434.311 -1.78746 1.04199 0
M  V30 4739 C 434.726 -1.84323 -0.408733 0
M  V30 4740 O 434.083 -1.29714 -1.28377 0
M  V30 4741 C 434.134 -3.23152 1.62035 0
M  V30 4742 O 433.855 -3.17918 3.0143 0
M  V30 4743 C 435.356 -4.16911 1.50666 0
M  V30 4744 H 432.576 -0.56208 0.366479 0
M  V30 4745 H 435.12 -1.27794 1.59653 0
M  V30 4746 H 433.275 -3.71248 1.10697 0
M  V30 4747 H 433.689 -4.08567 3.28897 0
M  V30 4748 H 435.163 -5.16072 1.95892 0
M  V30 4749 H 435.64 -4.36791 0.459363 0
M  V30 4750 H 436.246 -3.74698 2.01201 0
M  V30 4751 N 434.561 -1.01147 -1.20859 0
M  V30 4752 C 435.786 -0.716698 -1.94623 0
M  V30 4753 C 436.211 0.715415 -1.73964 0
M  V30 4754 O 435.569 1.49157 -1.03062 0
M  V30 4755 C 435.617 -1.0513 -3.44935 0
M  V30 4756 O 434.721 -0.160131 -4.12089 0
M  V30 4757 H 434.062 -0.266404 -0.608214 0
M  V30 4758 H 436.592 -1.35346 -1.53436 0
M  V30 4759 H 436.602 -1.00086 -3.95533 0
M  V30 4760 H 435.277 -2.09475 -3.59295 0
M  V30 4761 H 433.854 -0.267657 -3.71938 0
M  V30 4762 N 436.039 1.36541 -0.78704 0
M  V30 4763 C 436.969 2.32659 -0.197992 0
M  V30 4764 C 437.95 1.56533 0.665697 0
M  V30 4765 O 439.135 1.84698 0.60001 0
M  V30 4766 C 436.265 3.40778 0.669901 0
M  V30 4767 C 435.219 4.27897 -0.0937039 0
M  V30 4768 C 434.545 5.27163 0.894629 0
M  V30 4769 C 435.845 5.06334 -1.28154 0
M  V30 4770 H 437.539 2.82171 -1.00099 0
M  V30 4771 H 435.085 1.35665 -0.482793 0
M  V30 4772 H 437.038 4.07008 1.09191 0
M  V30 4773 H 435.762 2.89827 1.50558 0
M  V30 4774 H 434.421 3.6322 -0.49666 0
M  V30 4775 H 434.069 4.72486 1.72527 0
M  V30 4776 H 433.769 5.86317 0.388149 0
M  V30 4777 H 435.293 5.96266 1.31525 0
M  V30 4778 H 436.707 5.65617 -0.93541 0
M  V30 4779 H 435.104 5.74888 -1.72115 0
M  V30 4780 H 436.174 4.38114 -2.07807 0
M  V30 4781 N 437.518 0.538854 1.48102 0
M  V30 4782 C 438.929 0.100679 1.86428 0
M  V30 4783 C 439.28 -1.32447 1.44749 0
M  V30 4784 O 438.405 -1.99339 0.842199 0
M  V30 4785 C 439 0.175933 3.38343 0
M  V30 4786 C 437.559 -0.207098 3.7583 0
M  V30 4787 C 436.706 0.531741 2.72154 0
M  V30 4788 H 439.657 0.749614 1.3988 0
M  V30 4789 H 439.678 -0.610144 3.75576 0
M  V30 4790 H 439.19 1.21328 3.68648 0
M  V30 4791 H 437.291 -1.24626 3.5114 0
M  V30 4792 H 437.404 0.138687 4.78899 0
M  V30 4793 H 435.768 -0.0230462 2.5469 0
M  V30 4794 H 436.551 1.56989 3.05302 0
M  V30 4795 N 438.996 -1.55193 0.274407 0
M  V30 4796 C 439.944 -2.23924 -0.629362 0
M  V30 4797 C 440.938 -1.23602 -1.1584 0
M  V30 4798 O 442.144 -1.41535 -1.11211 0
M  V30 4799 H 438.519 -0.718637 -0.221507 0
M  V30 4800 H 440.49 -2.98388 -0.0268322 0
M  V30 4801 C 439.239 -2.97329 -1.80252 0
M  V30 4802 H 438.562 -3.74313 -1.40462 0
M  V30 4803 H 440.002 -3.48743 -2.41152 0
M  V30 4804 C 438.461 -2.0276 -2.69054 0
M  V30 4805 O 438.991 -1.57836 -3.69392 0
M  V30 4806 N 437.197 -1.69275 -2.36208 0
M  V30 4807 H 436.744 -2.06004 -1.54661 0
M  V30 4808 H 436.702 -1.06271 -2.95895 0
M  V30 4809 N 440.474 -0.00167713 -1.576 0
M  V30 4810 C 441.702 0.693759 -1.94922 0
M  V30 4811 C 442.117 1.67215 -0.876626 0
M  V30 4812 O 441.474 1.81929 0.144279 0
M  V30 4813 C 441.525 1.42416 -3.32265 0
M  V30 4814 O 441.246 0.485014 -4.35407 0
M  V30 4815 C 442.747 2.21395 -3.84056 0
M  V30 4816 H 439.967 0.193118 -0.642609 0
M  V30 4817 H 442.511 -0.0532952 -2.04431 0
M  V30 4818 H 440.666 2.12284 -3.24059 0
M  V30 4819 H 441.08 1.00053 -5.14868 0
M  V30 4820 H 442.554 2.67996 -4.82578 0
M  V30 4821 H 443.031 3.04142 -3.16851 0
M  V30 4822 H 443.637 1.56542 -3.95443 0
M  V30 4823 N 441.952 1.55251 0.271103 0
M  V30 4824 C 442.9 1.89054 1.35504 0
M  V30 4825 C 443.894 0.767064 1.51038 0
M  V30 4826 O 445.1 0.951429 1.528 0
M  V30 4827 H 441.475 0.600072 0.45323 0
M  V30 4828 H 443.446 2.79598 1.04247 0
M  V30 4829 C 442.195 2.18068 2.70817 0
M  V30 4830 H 441.518 3.04005 2.59656 0
M  V30 4831 H 442.958 2.4564 3.45597 0
M  V30 4832 C 441.417 0.988901 3.2206 0
M  V30 4833 O 441.947 0.224501 4.01072 0
M  V30 4834 N 440.153 0.786085 2.79766 0
M  V30 4835 H 439.7 1.40937 2.15626 0
M  V30 4836 H 439.658 -0.00969349 3.14399 0
M  V30 4837 N 443.43 -0.535701 1.48216 0
M  V30 4838 C 444.67 -1.30238 1.57536 0
M  V30 4839 C 445.034 -1.90479 0.241229 0
M  V30 4840 O 446.235 -2.67983 0.20938 0
M  V30 4841 C 444.506 -2.3669 2.67792 0
M  V30 4842 S 446.065 -3.23159 2.9684 0
M  V30 4843 H 442.883 -0.443093 0.556048 0
M  V30 4844 H 445.485 -0.610937 1.85709 0
M  V30 4845 H 444.189 -1.90905 3.63296 0
M  V30 4846 H 443.72 -3.10548 2.41502 0
M  V30 4847 H 445.735 -4.36647 2.35699 0
M  V30 4848 N 444.908 -1.36708 -0.784132 0
M  V30 4849 C 446.155 -1.31231 -1.54222 0
M  V30 4850 C 446.483 0.106864 -1.94206 0
M  V30 4851 O 445.738 1.07734 -1.63376 0
M  V30 4852 C 446.037 -2.18571 -2.82774 0
M  V30 4853 C 445.703 -3.67039 -2.61903 0
M  V30 4854 C 444.365 -4.07503 -2.55919 0
M  V30 4855 C 446.717 -4.61149 -2.4288 0
M  V30 4856 C 444.045 -5.40211 -2.28886 0
M  V30 4857 C 446.397 -5.94081 -2.17373 0
M  V30 4858 C 445.061 -6.33664 -2.09825 0
M  V30 4859 H 444.331 -0.48021 -0.56434 0
M  V30 4860 H 446.978 -1.68807 -0.904233 0
M  V30 4861 H 445.283 -1.73949 -3.51068 0
M  V30 4862 H 446.98 -2.11655 -3.40592 0
M  V30 4863 H 443.57 -3.34941 -2.67418 0
M  V30 4864 H 447.754 -4.30756 -2.46501 0
M  V30 4865 H 443.01 -5.69855 -2.21529 0
M  V30 4866 H 447.184 -6.66566 -2.01649 0
M  V30 4867 H 444.811 -7.36423 -1.88641 0
M  V30 4868 N 446.386 1.0089 -1.21074 0
M  V30 4869 C 447.635 1.74019 -1.01981 0
M  V30 4870 C 447.948 1.90408 0.447665 0
M  V30 4871 O 449.154 2.60707 0.757906 0
M  V30 4872 C 447.61 3.13026 -1.77603 0
M  V30 4873 C 447.218 3.04623 -3.28495 0
M  V30 4874 C 448.962 3.90312 -1.66904 0
M  V30 4875 C 446.869 4.38685 -3.96623 0
M  V30 4876 H 445.799 0.652422 -0.377971 0
M  V30 4877 H 448.45 1.12755 -1.44771 0
M  V30 4878 H 446.832 3.74878 -1.27604 0
M  V30 4879 H 448.006 2.52032 -3.85767 0
M  V30 4880 H 446.321 2.40827 -3.39693 0
M  V30 4881 H 448.918 4.8951 -2.15138 0
M  V30 4882 H 449.261 4.11558 -0.62658 0
M  V30 4883 H 449.794 3.35104 -2.14359 0
M  V30 4884 H 446.533 4.22641 -5.01054 0
M  V30 4885 H 446.053 4.91252 -3.4414 0
M  V30 4886 H 447.732 5.075 -4.01314 0
M  V30 4887 N 447.864 1.01787 1.20321 0
M  V30 4888 C 448.811 0.589197 2.23153 0
M  V30 4889 C 449.781 -0.391367 1.61423 0
M  V30 4890 O 450.966 -0.290518 1.88575 0
M  V30 4891 C 448.106 -0.0650747 3.45039 0
M  V30 4892 C 447.219 0.960207 4.21194 0
M  V30 4893 C 446.354 0.276854 5.30478 0
M  V30 4894 C 445.393 1.2888 5.98378 0
M  V30 4895 N 444.53 0.632031 6.99249 0
M  V30 4896 H 449.37 1.47071 2.59179 0
M  V30 4897 H 446.907 0.736192 1.27352 0
M  V30 4898 H 448.865 -0.461552 4.14639 0
M  V30 4899 H 447.495 -0.910233 3.09701 0
M  V30 4900 H 446.547 1.47484 3.50646 0
M  V30 4901 H 447.859 1.72977 4.67847 0
M  V30 4902 H 447.013 -0.175056 6.06447 0
M  V30 4903 H 445.752 -0.525004 4.84866 0
M  V30 4904 H 444.757 1.75109 5.21169 0
M  V30 4905 H 445.982 2.09196 6.46076 0
M  V30 4906 H 443.928 -0.149935 6.55829 0
M  V30 4907 H 443.845 1.33964 7.44036 0
M  V30 4908 H 445.113 0.203755 7.79234 0
M  V30 4909 N 449.342 -1.36122 0.79427 0
M  V30 4910 C 450.305 -2.28309 0.201889 0
M  V30 4911 C 451.305 -1.49041 -0.603603 0
M  V30 4912 O 452.495 -1.68964 -0.423888 0
M  V30 4913 C 449.627 -3.3321 -0.719978 0
M  V30 4914 H 450.82 -2.82208 1.01481 0
M  V30 4915 H 448.373 -1.45768 0.564037 0
M  V30 4916 H 449.108 -2.84475 -1.55706 0
M  V30 4917 H 448.893 -3.91835 -0.144266 0
M  V30 4918 H 450.383 -4.02044 -1.12916 0
M  V30 4919 N 450.82 -0.546701 -1.47814 0
M  V30 4920 C 452.069 -0.0166497 -2.01693 0
M  V30 4921 C 452.382 1.33721 -1.42752 0
M  V30 4922 O 453.588 1.95658 -1.8823 0
M  V30 4923 C 452.044 0.0206769 -3.59894 0
M  V30 4924 C 451.652 -1.3293 -4.27824 0
M  V30 4925 C 453.396 0.498674 -4.21561 0
M  V30 4926 C 451.303 -1.25165 -5.78003 0
M  V30 4927 H 450.233 -0.0024541 -0.753996 0
M  V30 4928 H 452.884 -0.692984 -1.69912 0
M  V30 4929 H 451.266 0.76244 -3.88591 0
M  V30 4930 H 452.44 -2.08795 -4.10781 0
M  V30 4931 H 450.755 -1.74438 -3.78101 0
M  V30 4932 H 453.352 0.575 -5.31599 0
M  V30 4933 H 453.695 1.5083 -3.88016 0
M  V30 4934 H 454.228 -0.18791 -3.97356 0
M  V30 4935 H 450.967 -2.23695 -6.1615 0
M  V30 4936 H 450.487 -0.53464 -5.97412 0
M  V30 4937 H 452.166 -0.949299 -6.39998 0
M  V30 4938 N 452.299 1.55045 -0.282633 0
M  V30 4939 C 453.576 1.9179 0.384166 0
M  V30 4940 C 453.956 1.20778 1.73136 0
M  V30 4941 O 453.304 0.33719 2.25998 0
M  V30 4942 C 453.514 3.45149 0.517014 0
M  V30 4943 C 454.862 4.17064 0.796427 0
M  V30 4944 O 455.886 3.51084 0.601535 0
M  V30 4945 O 454.745 5.33837 1.16962 0
M  V30 4946 H 451.839 0.799483 0.211558 0
M  V30 4947 H 454.385 1.66474 -0.32934 0
M  V30 4948 H 453.157 3.88922 -0.430772 0
M  V30 4949 H 452.78 3.76443 1.2797 0
M  V30 4950 N 453.777 0.010035 1.57597 0
M  V30 4951 C 455.023 -0.673697 1.91283 0
M  V30 4952 C 455.356 -1.72863 0.884979 0
M  V30 4953 O 454.631 -1.94268 -0.0949487 0
M  V30 4954 C 454.914 -1.30766 3.35518 0
M  V30 4955 C 454.767 -0.263578 4.49027 0
M  V30 4956 C 456.086 -2.23105 3.79358 0
M  V30 4957 H 453.205 -0.243439 0.695634 0
M  V30 4958 H 455.847 0.0633864 1.89894 0
M  V30 4959 H 453.997 -1.93588 3.36832 0
M  V30 4960 H 455.669 0.365738 4.59848 0
M  V30 4961 H 453.912 0.413077 4.31829 0
M  V30 4962 H 454.583 -0.746398 5.4693 0
M  V30 4963 H 457.059 -1.70289 3.79659 0
M  V30 4964 H 455.935 -2.64424 4.81011 0
M  V30 4965 H 456.196 -3.11433 3.13787 0
M  V30 4966 N 455.255 -1.55392 -0.262866 0
M  V30 4967 C 456.485 -1.80251 -1.00961 0
M  V30 4968 C 456.893 -0.58117 -1.80053 0
M  V30 4969 O 456.236 0.459427 -1.77862 0
M  V30 4970 C 456.298 -2.98207 -2.00781 0
M  V30 4971 C 455.962 -4.34856 -1.40533 0
M  V30 4972 C 456.959 -5.13459 -0.815853 0
M  V30 4973 C 454.644 -4.8153 -1.42948 0
M  V30 4974 C 456.638 -6.36875 -0.258562 0
M  V30 4975 C 454.325 -6.04899 -0.868334 0
M  V30 4976 C 455.323 -6.8241 -0.283884 0
M  V30 4977 O 455.011 -8.03451 0.268644 0
M  V30 4978 H 454.743 -0.604049 -0.303482 0
M  V30 4979 H 457.297 -2.03257 -0.295926 0
M  V30 4980 H 455.527 -2.70917 -2.75936 0
M  V30 4981 H 457.216 -3.10299 -2.61667 0
M  V30 4982 H 457.982 -4.78526 -0.789812 0
M  V30 4983 H 453.861 -4.21201 -1.87378 0
M  V30 4984 H 457.405 -6.97318 0.198257 0
M  V30 4985 H 453.302 -6.39312 -0.891649 0
M  V30 4986 H 454.07 -8.18346 0.158974 0
M  V30 4987 N 456.733 0.527833 -1.48498 0
M  V30 4988 C 457.663 1.64136 -1.66077 0
M  V30 4989 C 458.644 1.62286 -0.509625 0
M  V30 4990 O 459.829 1.79449 -0.742413 0
M  V30 4991 C 456.959 3.02717 -1.70234 0
M  V30 4992 C 455.913 3.19426 -2.8487 0
M  V30 4993 C 455.239 4.5909 -2.74118 0
M  V30 4994 C 456.539 3.01993 -4.26142 0
M  V30 4995 H 458.233 1.4968 -2.593 0
M  V30 4996 H 455.779 0.718654 -1.24785 0
M  V30 4997 H 457.732 3.80491 -1.8112 0
M  V30 4998 H 456.456 3.18201 -0.735911 0
M  V30 4999 H 455.115 2.4407 -2.73542 0
M  V30 5000 H 454.763 4.71413 -1.7544 0
M  V30 5001 H 454.463 4.71214 -3.51042 0
M  V30 5002 H 455.987 5.3896 -2.86974 0
M  V30 5003 H 457.401 3.69558 -4.38292 0
M  V30 5004 H 455.798 3.2561 -5.04082 0
M  V30 5005 H 456.868 1.98396 -4.42456 0
M  V30 5006 N 458.211 1.37122 0.776871 0
M  V30 5007 C 459.459 1.31787 1.53221 0
M  V30 5008 C 459.78 -0.0987589 1.9475 0
M  V30 5009 O 459.05 -1.0417 1.65908 0
M  V30 5010 H 457.63 0.484839 0.568278 0
M  V30 5011 H 460.292 1.71556 0.924917 0
M  V30 5012 H 459.388 1.95355 2.43398 0
M  V30 5013 N 459.689 -1.00246 1.21608 0
M  V30 5014 C 460.938 -1.73476 1.02902 0
M  V30 5015 C 461.251 -1.90643 -0.437561 0
M  V30 5016 O 462.457 -2.61105 -0.74407 0
M  V30 5017 C 460.913 -3.12079 1.79261 0
M  V30 5018 C 460.521 -3.02877 3.30106 0
M  V30 5019 C 462.265 -3.89421 1.68972 0
M  V30 5020 C 460.172 -4.36575 3.98944 0
M  V30 5021 H 459.102 -0.650408 0.381425 0
M  V30 5022 H 461.753 -1.11985 1.45367 0
M  V30 5023 H 460.135 -3.74196 1.2959 0
M  V30 5024 H 461.309 -2.49983 3.87098 0
M  V30 5025 H 459.624 -2.39022 3.40965 0
M  V30 5026 H 462.221 -4.88362 2.17731 0
M  V30 5027 H 462.564 -4.1122 0.648397 0
M  V30 5028 H 463.097 -3.33963 2.16133 0
M  V30 5029 H 459.836 -4.19978 5.03288 0
M  V30 5030 H 459.356 -4.8942 3.4674 0
M  V30 5031 H 461.035 -5.05364 4.04 0
M  V30 5032 N 461.167 -1.02423 -1.1978 0
M  V30 5033 C 462.407 -0.726635 -1.91048 0
M  V30 5034 C 462.771 0.730947 -1.77542 0
M  V30 5035 O 463.972 1.14141 -2.43362 0
M  V30 5036 C 462.243 -1.15964 -3.38064 0
M  V30 5037 S 463.802 -0.985172 -4.27598 0
M  V30 5038 H 460.62 -0.264679 -0.659899 0
M  V30 5039 H 463.222 -1.31309 -1.44838 0
M  V30 5040 H 461.926 -2.21619 -3.45417 0
M  V30 5041 H 461.457 -0.566274 -3.89303 0
M  V30 5042 H 463.472 0.106946 -4.96085 0
M  V30 5043 N 462.645 1.35699 -0.801477 0
M  V30 5044 C 463.892 1.98913 -0.379459 0
M  V30 5045 C 464.22 1.63592 1.05204 0
M  V30 5046 O 463.475 0.888563 1.74365 0
M  V30 5047 C 463.774 3.53828 -0.504041 0
M  V30 5048 C 463.44 4.09002 -1.8981 0
M  V30 5049 C 462.102 4.23783 -2.27951 0
M  V30 5050 C 464.454 4.38939 -2.81038 0
M  V30 5051 C 461.782 4.65816 -3.56696 0
M  V30 5052 C 464.134 4.82409 -4.09224 0
M  V30 5053 C 462.798 4.95395 -4.4737 0
M  V30 5054 H 462.068 0.727874 -0.138854 0
M  V30 5055 H 464.715 1.61994 -1.02128 0
M  V30 5056 H 463.02 3.91175 0.221242 0
M  V30 5057 H 464.717 4.00687 -0.158361 0
M  V30 5058 H 461.307 3.97946 -1.59176 0
M  V30 5059 H 465.491 4.27077 -2.52821 0
M  V30 5060 H 460.747 4.74059 -3.86106 0
M  V30 5061 H 464.921 5.04535 -4.80018 0
M  V30 5062 H 462.548 5.27724 -5.47185 0
M  V30 5063 N 464.123 0.554532 1.47522 0
M  V30 5064 C 465.348 0.0322661 2.07375 0
M  V30 5065 C 465.773 -1.25079 1.40488 0
M  V30 5066 O 465.131 -1.74859 0.47896 0
M  V30 5067 C 465.179 -0.149397 3.6029 0
M  V30 5068 O 464.283 -1.21259 3.9417 0
M  V30 5069 H 463.624 0.0501228 0.662106 0
M  V30 5070 H 466.154 0.769452 1.8958 0
M  V30 5071 H 466.164 -0.364437 4.06369 0
M  V30 5072 H 464.839 0.787743 4.08372 0
M  V30 5073 H 463.416 -0.97825 3.5984 0
M  V30 5074 N 465.601 -1.54893 0.290851 0
M  V30 5075 C 466.848 -1.99933 -0.321391 0
M  V30 5076 C 467.176 -1.17927 -1.54672 0
M  V30 5077 O 466.431 -0.240902 -1.94212 0
M  V30 5078 C 466.73 -3.49815 -0.732397 0
M  V30 5079 C 466.396 -4.4921 0.390056 0
M  V30 5080 C 465.058 -4.76107 0.698223 0
M  V30 5081 C 467.41 -5.08453 1.14562 0
M  V30 5082 C 464.738 -5.59514 1.76526 0
M  V30 5083 C 467.09 -5.9302 2.2025 0
M  V30 5084 C 465.754 -6.18232 2.51684 0
M  V30 5085 H 465.024 -0.731608 -0.117605 0
M  V30 5086 H 467.671 -1.87107 0.407839 0
M  V30 5087 H 465.976 -3.60199 -1.54155 0
M  V30 5088 H 467.673 -3.82083 -1.21712 0
M  V30 5089 H 464.263 -4.28372 0.13976 0
M  V30 5090 H 468.447 -4.87683 0.920801 0
M  V30 5091 H 463.703 -5.77289 2.01364 0
M  V30 5092 H 467.877 -6.37955 2.7926 0
M  V30 5093 H 465.504 -6.82653 3.34499 0
M  V30 5094 N 467.08 -0.0183926 -1.57589 0
M  V30 5095 C 468.326 0.663543 -1.91638 0
M  V30 5096 C 468.659 1.72392 -0.894134 0
M  V30 5097 O 467.934 1.94316 0.0846449 0
M  V30 5098 C 468.217 1.28984 -3.36207 0
M  V30 5099 C 468.07 0.239761 -4.49161 0
M  V30 5100 C 469.389 2.2109 -3.80536 0
M  V30 5101 H 466.508 0.239746 -0.696915 0
M  V30 5102 H 469.15 -0.073456 -1.89858 0
M  V30 5103 H 467.3 1.91799 -3.37854 0
M  V30 5104 H 468.972 -0.390119 -4.59647 0
M  V30 5105 H 467.215 -0.435972 -4.31604 0
M  V30 5106 H 467.886 0.717383 -5.47319 0
M  V30 5107 H 470.362 1.68273 -3.80557 0
M  V30 5108 H 469.238 2.61869 -4.82406 0
M  V30 5109 H 469.499 3.09764 -3.15434 0
M  V30 5110 N 468.558 1.5553 0.254621 0
M  V30 5111 C 469.805 1.77 0.983736 0
M  V30 5112 C 470.133 0.58133 1.85609 0
M  V30 5113 O 469.388 -0.435621 1.9079 0
M  V30 5114 C 469.687 3.03891 1.88109 0
M  V30 5115 C 469.353 4.35597 1.16472 0
M  V30 5116 C 468.015 4.7139 0.966714 0
M  V30 5117 C 470.367 5.1705 0.656387 0
M  V30 5118 C 467.695 5.86176 0.247942 0
M  V30 5119 C 470.047 6.32581 -0.0488807 0
M  V30 5120 C 468.711 6.67 -0.258438 0
M  V30 5121 H 467.981 0.647688 0.359974 0
M  V30 5122 H 470.628 1.89802 0.254463 0
M  V30 5123 H 468.933 2.86068 2.67717 0
M  V30 5124 H 470.63 3.17701 2.44677 0
M  V30 5125 H 467.22 4.07475 1.32899 0
M  V30 5126 H 471.404 4.8986 0.796933 0
M  V30 5127 H 466.66 6.11354 0.075035 0
M  V30 5128 H 470.834 6.94942 -0.450444 0
M  V30 5129 H 468.461 7.55793 -0.817358 0
M  V30 5130 N 470.036 -0.519951 1.48776 0
M  V30 5131 C 471.284 -1.2727 1.56993 0
M  V30 5132 C 471.605 -1.9339 0.25004 0
M  V30 5133 O 470.875 -1.81822 -0.729216 0
M  V30 5134 H 469.455 -0.472732 0.578389 0
M  V30 5135 H 472.117 -0.604234 1.85297 0
M  V30 5136 H 471.213 -2.04669 2.3562 0
M  V30 5137 N 471.514 -1.37532 -0.769588 0
M  V30 5138 C 472.477 -1.33292 -1.86456 0
M  V30 5139 C 473.477 -0.236537 -1.59051 0
M  V30 5140 O 474.667 -0.492511 -1.67093 0
M  V30 5141 C 471.799 -1.07118 -3.23633 0
M  V30 5142 H 472.992 -2.30692 -1.91628 0
M  V30 5143 H 470.545 -1.22593 -0.969572 0
M  V30 5144 H 471.28 -0.102578 -3.24138 0
M  V30 5145 H 471.065 -1.86479 -3.44917 0
M  V30 5146 H 472.555 -1.06806 -4.03711 0
M  V30 5147 N 472.992 0.995999 -1.22138 0
M  V30 5148 C 473.922 2.10387 -1.01289 0
M  V30 5149 C 474.903 1.69975 0.0651454 0
M  V30 5150 O 476.088 1.9396 -0.0964628 0
M  V30 5151 C 473.218 3.42312 -0.586517 0
M  V30 5152 C 472.172 3.96558 -1.61014 0
M  V30 5153 C 471.498 5.24494 -1.0397 0
M  V30 5154 C 472.798 4.27595 -2.99933 0
M  V30 5155 H 474.492 2.28086 -1.93951 0
M  V30 5156 H 472.038 1.09607 -0.933928 0
M  V30 5157 H 473.991 4.19223 -0.427793 0
M  V30 5158 H 472.715 3.24431 0.375761 0
M  V30 5159 H 471.374 3.21776 -1.75658 0
M  V30 5160 H 471.022 5.02953 -0.0688703 0
M  V30 5161 H 470.722 5.61755 -1.72352 0
M  V30 5162 H 472.246 6.04042 -0.892494 0
M  V30 5163 H 473.66 4.95315 -2.8868 0
M  V30 5164 H 472.057 4.76021 -3.6541 0
M  V30 5165 H 473.127 3.35498 -3.50099 0
M  V30 5166 N 474.47 1.03057 1.19235 0
M  V30 5167 C 475.4 0.633497 2.24742 0
M  V30 5168 C 476.381 -0.358335 1.66283 0
M  V30 5169 O 477.566 -0.240676 1.92703 0
M  V30 5170 C 474.696 -0.0147648 3.47297 0
M  V30 5171 C 473.65 0.899527 4.18441 0
M  V30 5172 C 472.976 0.116281 5.34574 0
M  V30 5173 C 474.276 2.21404 4.73051 0
M  V30 5174 H 475.97 1.5155 2.58211 0
M  V30 5175 H 473.516 0.73014 1.24117 0
M  V30 5176 H 475.469 -0.304202 4.20301 0
M  V30 5177 H 474.193 -0.931577 3.13032 0
M  V30 5178 H 472.852 1.17319 3.47321 0
M  V30 5179 H 472.5 -0.802619 4.96555 0
M  V30 5180 H 472.2 0.725293 5.83107 0
M  V30 5181 H 473.724 -0.166376 6.10373 0
M  V30 5182 H 475.138 1.98601 5.37802 0
M  V30 5183 H 473.535 2.77512 5.32078 0
M  V30 5184 H 474.605 2.86752 3.91026 0
M  V30 5185 N 475.948 -1.35272 0.808662 0
M  V30 5186 C 476.858 -2.33546 0.222079 0
M  V30 5187 C 477.874 -1.6196 -0.636011 0
M  V30 5188 O 479.05 -1.93822 -0.547274 0
M  V30 5189 C 476.115 -3.41148 -0.61795 0
M  V30 5190 C 475.176 -4.28507 0.260875 0
M  V30 5191 C 474.409 -5.3097 -0.539156 0
M  V30 5192 O 474.632 -5.42123 -1.77367 0
M  V30 5193 O 473.566 -6.01858 0.0710526 0
M  V30 5194 H 477.392 -2.85515 1.03512 0
M  V30 5195 H 474.977 -1.38079 0.570495 0
M  V30 5196 H 476.859 -4.06889 -1.09634 0
M  V30 5197 H 475.534 -2.91447 -1.40855 0
M  V30 5198 H 474.441 -3.6574 0.786451 0
M  V30 5199 H 475.774 -4.81611 1.01547 0
M  V30 5200 N 477.426 -0.562348 -1.47226 0
M  V30 5201 C 478.656 -0.0451619 -2.06551 0
M  V30 5202 C 479.064 1.25626 -1.41473 0
M  V30 5203 O 478.407 1.76563 -0.507061 0
M  V30 5204 C 478.469 0.216068 -3.5885 0
M  V30 5205 C 478.133 -0.996691 -4.45999 0
M  V30 5206 C 479.13 -1.90358 -4.83797 0
M  V30 5207 C 476.815 -1.21281 -4.87438 0
M  V30 5208 C 478.809 -3.01023 -5.6184 0
M  V30 5209 C 476.496 -2.32255 -5.65244 0
M  V30 5210 C 477.494 -3.21956 -6.02356 0
M  V30 5211 O 477.182 -4.31005 -6.78594 0
M  V30 5212 H 476.914 -0.0451646 -0.67449 0
M  V30 5213 H 479.468 -0.776842 -1.90143 0
M  V30 5214 H 477.698 1.00212 -3.7349 0
M  V30 5215 H 479.387 0.679264 -4.00176 0
M  V30 5216 H 480.153 -1.74868 -4.52378 0
M  V30 5217 H 476.032 -0.523767 -4.58015 0
M  V30 5218 H 479.576 -3.71064 -5.90726 0
M  V30 5219 H 475.473 -2.47715 -5.96077 0
M  V30 5220 H 476.241 -4.29118 -6.96994 0
M  V30 5221 N 478.904 1.54736 -0.299062 0
M  V30 5222 C 479.867 2.22127 0.565012 0
M  V30 5223 C 480.867 1.20669 1.06281 0
M  V30 5224 O 482.057 1.45417 0.959145 0
M  V30 5225 C 479.189 2.90611 1.78208 0
M  V30 5226 H 480.382 2.99891 -0.0237448 0
M  V30 5227 H 477.935 1.5622 -0.0498788 0
M  V30 5228 H 478.67 2.16921 2.41072 0
M  V30 5229 H 478.455 3.64984 1.43281 0
M  V30 5230 H 479.945 3.42026 2.396 0
M  V30 5231 N 480.382 0.0267497 1.57577 0
M  V30 5232 C 481.628 -0.653371 1.91987 0
M  V30 5233 C 481.961 -1.71915 0.903263 0
M  V30 5234 O 481.236 -1.94358 -0.0743387 0
M  V30 5235 C 481.519 -1.272 3.36886 0
M  V30 5236 C 481.372 -0.215938 4.49281 0
M  V30 5237 C 482.691 -2.19069 3.81703 0
M  V30 5238 H 479.81 -0.236047 0.698177 0
M  V30 5239 H 482.452 0.0835236 1.89816 0
M  V30 5240 H 480.602 -1.90005 3.38866 0
M  V30 5241 H 482.274 0.41449 4.59434 0
M  V30 5242 H 480.517 0.458855 4.31366 0
M  V30 5243 H 481.188 -0.688347 5.47691 0
M  V30 5244 H 483.664 -1.66253 3.81444 0
M  V30 5245 H 482.54 -2.59307 4.83788 0
M  V30 5246 H 482.801 -3.08087 3.17072 0
M  V30 5247 N 481.861 -1.55662 -0.24637 0
M  V30 5248 C 482.824 -1.89558 -1.28842 0
M  V30 5249 C 483.824 -0.772082 -1.41052 0
M  V30 5250 O 485.014 -1.04007 -1.39743 0
M  V30 5251 C 482.146 -2.12449 -2.66605 0
M  V30 5252 H 483.339 -2.82735 -1.00004 0
M  V30 5253 H 480.892 -1.48562 -0.485684 0
M  V30 5254 H 481.627 -1.21742 -3.00582 0
M  V30 5255 H 481.412 -2.94273 -2.59125 0
M  V30 5256 H 482.902 -2.39854 -3.41847 0
M  V30 5257 N 483.339 0.512053 -1.4905 0
M  V30 5258 C 484.289 1.61142 -1.61298 0
M  V30 5259 C 485.273 1.53908 -0.46916 0
M  V30 5260 O 486.465 1.61625 -0.721547 0
M  V30 5261 C 483.594 2.998 -1.67256 0
M  V30 5262 C 482.68 3.12072 -2.87179 0
M  V30 5263 N 483.071 2.94263 -4.11391 0
M  V30 5264 C 481.369 3.43156 -2.84886 0
M  V30 5265 C 482.07 3.10426 -4.91946 0
M  V30 5266 N 481.046 3.38808 -4.251 0
M  V30 5267 H 484.848 1.46011 -2.55065 0
M  V30 5268 H 482.362 0.717934 -1.45669 0
M  V30 5269 H 484.359 3.78794 -1.74128 0
M  V30 5270 H 483.019 3.1601 -0.746195 0
M  V30 5271 H 484.03 2.70661 -4.41546 0
M  V30 5272 H 480.707 3.65611 -2.01581 0
M  V30 5273 H 482.097 3.01243 -6.00585 0
M  V30 5274 N 484.817 1.37938 0.762283 0
M  V30 5275 C 486.047 1.36685 1.54922 0
M  V30 5276 C 486.455 -0.0474099 1.89141 0
M  V30 5277 O 485.798 -1.02213 1.52638 0
M  V30 5278 C 485.86 2.14963 2.88152 0
M  V30 5279 C 485.524 3.6385 2.76518 0
M  V30 5280 C 486.521 4.57531 2.46904 0
M  V30 5281 C 484.206 4.07095 2.94243 0
M  V30 5282 C 486.2 5.92436 2.35156 0
M  V30 5283 C 483.887 5.42083 2.82116 0
M  V30 5284 C 484.885 6.34567 2.52614 0
M  V30 5285 O 484.573 7.67073 2.40529 0
M  V30 5286 H 484.305 0.469586 0.486276 0
M  V30 5287 H 486.859 1.82012 0.951876 0
M  V30 5288 H 485.089 1.6434 3.50042 0
M  V30 5289 H 486.778 2.06224 3.49609 0
M  V30 5290 H 487.544 4.25428 2.32886 0
M  V30 5291 H 483.423 3.35462 3.16206 0
M  V30 5292 H 486.967 6.64591 2.12049 0
M  V30 5293 H 482.864 5.73785 2.95704 0
M  V30 5294 H 483.632 7.77499 2.55807 0
M  V30 5295 N 486.295 -0.989507 1.22664 0
M  V30 5296 C 487.52 -1.77031 1.08051 0
M  V30 5297 C 487.945 -1.84535 -0.364483 0
M  V30 5298 O 487.303 -1.3003 -1.2634 0
M  V30 5299 C 487.351 -3.18 1.70024 0
M  V30 5300 O 486.455 -4.01161 0.956216 0
M  V30 5301 H 485.796 -0.545008 0.379292 0
M  V30 5302 H 488.326 -1.24277 1.62531 0
M  V30 5303 H 488.336 -3.68616 1.74888 0
M  V30 5304 H 487.011 -3.11853 2.75174 0
M  V30 5305 H 485.588 -3.59687 0.98384 0
M  V30 5306 N 487.773 -1.03688 -1.18687 0
M  V30 5307 C 488.998 -0.757819 -1.93059 0
M  V30 5308 C 489.423 0.678353 -1.75442 0
M  V30 5309 O 488.781 1.46938 -1.06203 0
M  V30 5310 C 488.829 -1.12423 -3.42627 0
M  V30 5311 O 487.933 -0.247505 -4.11657 0
M  V30 5312 H 487.274 -0.279245 -0.602427 0
M  V30 5313 H 489.804 -1.3857 -1.5053 0
M  V30 5314 H 489.814 -1.08454 -3.93322 0
M  V30 5315 H 488.489 -2.17049 -3.54771 0
M  V30 5316 H 487.066 -0.34649 -3.71287 0
M  V30 5317 N 489.251 1.34841 -0.815825 0
M  V30 5318 C 490.181 2.32187 -0.247298 0
M  V30 5319 C 491.162 1.5791 0.632344 0
M  V30 5320 O 492.347 1.8593 0.560698 0
M  V30 5321 C 489.477 3.42122 0.597466 0
M  V30 5322 C 488.431 4.27602 -0.184446 0
M  V30 5323 C 487.757 5.28942 0.782609 0
M  V30 5324 C 489.057 5.03502 -1.38865 0
M  V30 5325 H 490.751 2.79985 -1.06061 0
M  V30 5326 H 488.297 1.34611 -0.511461 0
M  V30 5327 H 490.25 4.09232 1.00533 0
M  V30 5328 H 488.974 2.92956 1.44376 0
M  V30 5329 H 487.633 3.62085 -0.573592 0
M  V30 5330 H 487.281 4.7604 1.62466 0
M  V30 5331 H 486.981 5.87008 0.263695 0
M  V30 5332 H 488.505 5.98922 1.18848 0
M  V30 5333 H 489.919 5.63506 -1.05518 0
M  V30 5334 H 488.316 5.71108 -1.8427 0
M  V30 5335 H 489.386 4.33608 -2.17054 0
M  V30 5336 N 490.729 0.570148 1.46925 0
M  V30 5337 C 491.661 -0.207909 2.28255 0
M  V30 5338 C 492.674 -0.867301 1.37774 0
M  V30 5339 O 493.863 -0.738976 1.62485 0
M  V30 5340 C 490.963 -1.31298 3.12433 0
M  V30 5341 C 490.136 -0.747915 4.30958 0
M  V30 5342 C 489.195 -1.7391 4.9663 0
M  V30 5343 O 488.221 -1.2801 5.54619 0
M  V30 5344 N 489.423 -3.07288 4.92498 0
M  V30 5345 H 492.188 0.489794 2.95671 0
M  V30 5346 H 489.749 0.407076 1.56699 0
M  V30 5347 H 491.741 -1.97507 3.53232 0
M  V30 5348 H 490.311 -1.91373 2.47175 0
M  V30 5349 H 489.531 0.0913066 3.94094 0
M  V30 5350 H 490.819 -0.349958 5.07595 0
M  V30 5351 H 490.217 -3.47213 4.46609 0
M  V30 5352 H 488.774 -3.69021 5.37277 0
M  V30 5353 N 492.207 -1.54576 0.307264 0
M  V30 5354 C 493.139 -2.21212 -0.599807 0
M  V30 5355 C 494.152 -1.20685 -1.09266 0
M  V30 5356 O 495.341 -1.47244 -1.00903 0
M  V30 5357 C 492.441 -2.84994 -1.83389 0
M  V30 5358 C 491.614 -4.11511 -1.48248 0
M  V30 5359 C 490.673 -4.59038 -2.57237 0
M  V30 5360 O 489.699 -5.24095 -2.22065 0
M  V30 5361 N 490.901 -4.31884 -3.87887 0
M  V30 5362 H 493.666 -2.99686 -0.0293075 0
M  V30 5363 H 491.227 -1.61379 0.129738 0
M  V30 5364 H 493.219 -3.1372 -2.5566 0
M  V30 5365 H 491.789 -2.10324 -2.31263 0
M  V30 5366 H 491.009 -3.89728 -0.592122 0
M  V30 5367 H 492.297 -4.93879 -1.22316 0
M  V30 5368 H 491.695 -3.79778 -4.19268 0
M  V30 5369 H 490.252 -4.65304 -4.56438 0
M  V30 5370 N 493.685 -0.035106 -1.57561 0
M  V30 5371 C 494.618 0.979673 -2.06101 0
M  V30 5372 C 495.596 1.31378 -0.958046 0
M  V30 5373 O 496.78 1.42942 -1.22881 0
M  V30 5374 C 493.907 2.29809 -2.48808 0
M  V30 5375 C 492.953 2.11817 -3.70184 0
M  V30 5376 S 493.786 1.41143 -5.16565 0
M  V30 5377 C 494.942 2.74341 -5.62572 0
M  V30 5378 H 495.175 0.566506 -2.91853 0
M  V30 5379 H 492.708 0.176744 -1.53385 0
M  V30 5380 H 494.666 3.056 -2.74078 0
M  V30 5381 H 493.327 2.68257 -1.63392 0
M  V30 5382 H 492.52 3.09299 -3.97933 0
M  V30 5383 H 492.122 1.44168 -3.45097 0
M  V30 5384 H 494.414 3.70562 -5.67177 0
M  V30 5385 H 495.357 2.51249 -6.62027 0
M  V30 5386 H 495.765 2.79863 -4.90242 0
M  V30 5387 N 495.163 1.55791 0.238111 0
M  V30 5388 C 496.126 1.90239 1.27835 0
M  V30 5389 C 497.126 0.779552 1.4064 0
M  V30 5390 O 498.316 1.04747 1.3919 0
M  V30 5391 C 495.448 2.13859 2.65475 0
M  V30 5392 H 496.641 2.83262 0.985034 0
M  V30 5393 H 494.194 1.48818 0.477799 0
M  V30 5394 H 494.929 1.23334 2.99932 0
M  V30 5395 H 494.714 2.95643 2.57561 0
M  V30 5396 H 496.204 2.41664 3.40571 0
M  V30 5397 N 496.642 -0.504142 1.49319 0
M  V30 5398 C 497.605 -1.5883 1.65244 0
M  V30 5399 C 498.605 -1.52009 0.524386 0
M  V30 5400 O 499.795 -1.55218 0.79077 0
M  V30 5401 C 496.927 -2.98481 1.64687 0
M  V30 5402 H 498.12 -1.4604 2.61939 0
M  V30 5403 H 495.673 -0.728144 1.38303 0
M  V30 5404 H 496.408 -3.16751 0.695644 0
M  V30 5405 H 496.193 -3.0484 2.46607 0
M  V30 5406 H 497.683 -3.77256 1.79075 0
M  V30 5407 N 498.12 -1.38341 -0.754957 0
M  V30 5408 C 499.067 -1.3546 -1.86867 0
M  V30 5409 C 500.037 -0.217369 -1.64672 0
M  V30 5410 O 501.222 -0.409383 -1.86356 0
M  V30 5411 C 498.362 -1.18413 -3.24149 0
M  V30 5412 C 497.475 -2.41511 -3.58185 0
M  V30 5413 C 496.61 -2.17205 -4.84763 0
M  V30 5414 C 495.649 -3.36081 -5.11582 0
M  V30 5415 N 494.786 -3.11219 -6.29354 0
M  V30 5416 H 499.626 -2.30672 -1.88664 0
M  V30 5417 H 497.163 -1.14607 -0.922154 0
M  V30 5418 H 499.121 -1.06545 -4.03366 0
M  V30 5419 H 497.751 -0.268397 -3.21682 0
M  V30 5420 H 496.803 -2.64056 -2.73822 0
M  V30 5421 H 498.115 -3.30115 -3.73932 0
M  V30 5422 H 497.269 -2.02465 -5.7192 0
M  V30 5423 H 496.008 -1.25964 -4.71152 0
M  V30 5424 H 495.013 -3.51341 -4.22894 0
M  V30 5425 H 496.238 -4.28196 -5.27091 0
M  V30 5426 H 494.184 -2.22624 -6.17069 0
M  V30 5427 H 494.101 -3.93373 -6.45596 0
M  V30 5428 H 495.369 -3.00132 -7.19403 0
M  V30 5429 N 499.598 0.982988 -1.23187 0
M  V30 5430 C 500.875 1.69814 -0.970707 0
M  V30 5431 C 501.255 2.04811 0.511424 0
M  V30 5432 O 500.603 1.73924 1.48198 0
M  V30 5433 C 500.813 2.94143 -1.87831 0
M  V30 5434 C 502.161 3.66712 -2.14026 0
M  V30 5435 O 503.185 3.04171 -1.8536 0
M  V30 5436 O 502.044 4.79258 -2.62629 0
M  V30 5437 H 499.138 0.741659 -0.365884 0
M  V30 5438 H 501.684 1.03844 -1.34218 0
M  V30 5439 H 500.456 2.64858 -2.88038 0
M  V30 5440 H 500.079 3.6785 -1.50905 0
M  V30 5441 N 501.076 1.04316 1.18135 0
M  V30 5442 C 502.492 0.762858 1.40188 0
M  V30 5443 C 502.692 -0.646547 1.90846 0
M  V30 5444 O 501.748 -1.41036 2.0944 0
M  V30 5445 C 503.061 1.81106 2.40044 0
M  V30 5446 C 504.609 1.83226 2.53766 0
M  V30 5447 C 505.084 2.87044 3.56889 0
M  V30 5448 N 506.575 2.85951 3.64398 0
M  V30 5449 C 507.31 3.62932 4.43923 0
M  V30 5450 N 506.806 4.49672 5.27036 0
M  V30 5451 N 508.599 3.51411 4.38711 0
M  V30 5452 H 500.75 1.95264 0.835805 0
M  V30 5453 H 503.013 0.845017 0.429709 0
M  V30 5454 H 502.719 2.82214 2.09876 0
M  V30 5455 H 502.593 1.64529 3.39426 0
M  V30 5456 H 504.98 0.827869 2.8325 0
M  V30 5457 H 505.061 2.03879 1.54489 0
M  V30 5458 H 504.705 3.87663 3.28145 0
M  V30 5459 H 504.635 2.63645 4.5585 0
M  V30 5460 H 507.126 2.23051 3.05052 0
M  V30 5461 H 507.439 5.05116 5.84874 0
M  V30 5462 H 505.784 4.53738 5.26447 0
M  V30 5463 H 508.975 2.83047 3.72829 0
M  V30 5464 H 509.148 4.11654 5.00445 0
M  V30 5465 N 502.554 -1.34406 0.822964 0
M  V30 5466 C 503.802 -1.97892 0.410245 0
M  V30 5467 C 504.123 -1.65567 -1.03017 0
M  V30 5468 O 503.393 -0.94642 -1.71522 0
M  V30 5469 H 501.973 -0.732049 0.148707 0
M  V30 5470 H 504.635 -1.64043 1.05242 0
M  V30 5471 H 503.731 -3.07579 0.529284 0
M  V30 5472 N 504.032 -0.577932 -1.46621 0
M  V30 5473 C 505.26 -0.0671642 -2.06791 0
M  V30 5474 C 505.675 1.23571 -1.42743 0
M  V30 5475 O 505.032 1.74602 -0.531062 0
M  V30 5476 C 505.083 0.110357 -3.61332 0
M  V30 5477 O 504.804 -1.14095 -4.22982 0
M  V30 5478 C 506.305 0.656025 -4.38419 0
M  V30 5479 H 503.525 -0.0552732 -0.66872 0
M  V30 5480 H 506.069 -0.797242 -1.8832 0
M  V30 5481 H 504.224 0.790637 -3.79246 0
M  V30 5482 H 504.638 -0.951742 -5.15793 0
M  V30 5483 H 506.112 0.729438 -5.47159 0
M  V30 5484 H 506.589 1.67195 -4.06131 0
M  V30 5485 H 507.195 0.0107692 -4.25299 0
M  V30 5486 N 505.51 1.54411 -0.315457 0
M  V30 5487 C 506.738 2.04833 0.291738 0
M  V30 5488 C 507.153 1.19203 1.46411 0
M  V30 5489 O 506.51 0.220867 1.81159 0
M  V30 5490 C 506.561 3.53969 0.73404 0
M  V30 5491 O 506.282 4.36346 -0.391682 0
M  V30 5492 C 507.783 4.2045 1.40489 0
M  V30 5493 H 505.003 0.668195 0.0612947 0
M  V30 5494 H 507.547 1.99276 -0.45929 0
M  V30 5495 H 505.702 3.5984 1.43506 0
M  V30 5496 H 506.116 5.24481 -0.0447088 0
M  V30 5497 H 507.59 5.26278 1.66539 0
M  V30 5498 H 508.067 3.71067 2.3496 0
M  V30 5499 H 508.673 4.18694 0.746662 0
M  V30 5500 N 506.988 0.0434614 1.5754 0
M  V30 5501 C 507.935 -0.93356 2.11077 0
M  V30 5502 C 508.905 -1.31383 1.01626 0
M  V30 5503 O 510.09 -1.40465 1.29129 0
M  V30 5504 C 507.23 -2.20578 2.65404 0
M  V30 5505 C 506.343 -1.88068 3.88914 0
M  V30 5506 C 505.478 -3.09691 4.31584 0
M  V30 5507 C 504.517 -2.73067 5.47815 0
M  V30 5508 N 503.654 -3.87359 5.85574 0
M  V30 5509 H 508.494 -0.470118 2.94268 0
M  V30 5510 H 506.031 -0.220434 1.45439 0
M  V30 5511 H 507.989 -2.95011 2.94999 0
M  V30 5512 H 506.619 -2.64513 1.85021 0
M  V30 5513 H 505.671 -1.03816 3.6596 0
M  V30 5514 H 506.983 -1.57104 4.73413 0
M  V30 5515 H 506.137 -3.92431 4.62691 0
M  V30 5516 H 504.876 -3.43827 3.45882 0
M  V30 5517 H 503.881 -1.88742 5.16388 0
M  V30 5518 H 505.106 -2.40131 6.35227 0
M  V30 5519 H 503.052 -4.21311 5.02825 0
M  V30 5520 H 502.969 -3.60068 6.64746 0
M  V30 5521 H 504.237 -4.70761 6.21292 0
M  V30 5522 N 508.466 -1.55915 -0.229846 0
M  V30 5523 C 509.376 -1.94891 -1.30593 0
M  V30 5524 C 510.392 -0.851604 -1.51736 0
M  V30 5525 O 511.568 -1.15447 -1.65027 0
M  V30 5526 C 508.633 -2.25052 -2.63728 0
M  V30 5527 C 507.694 -3.48306 -2.5096 0
M  V30 5528 C 506.927 -3.77019 -3.77747 0
M  V30 5529 O 507.15 -3.07534 -4.80395 0
M  V30 5530 O 506.084 -4.70523 -3.75356 0
M  V30 5531 H 509.91 -2.86581 -1.00525 0
M  V30 5532 H 507.495 -1.43017 -0.432025 0
M  V30 5533 H 509.377 -2.45682 -3.42372 0
M  V30 5534 H 508.052 -1.36538 -2.93495 0
M  V30 5535 H 506.959 -3.32964 -1.70546 0
M  V30 5536 H 508.292 -4.37177 -2.26136 0
M  V30 5537 N 509.944 0.496216 -1.49584 0
M  V30 5538 C 511.19 1.25189 -1.59548 0
M  V30 5539 C 511.523 1.9212 -0.283466 0
M  V30 5540 O 510.798 1.80947 0.713324 0
M  V30 5541 C 511.081 2.31516 -2.75812 0
M  V30 5542 C 510.934 1.69054 -4.16822 0
M  V30 5543 C 512.253 3.3304 -2.87702 0
M  V30 5544 H 509.372 0.45379 -0.580727 0
M  V30 5545 H 512.014 0.549327 -1.81886 0
M  V30 5546 H 510.164 2.91438 -2.56897 0
M  V30 5547 H 511.836 1.12923 -4.47265 0
M  V30 5548 H 510.079 0.994485 -4.22247 0
M  V30 5549 H 510.75 2.462 -4.94054 0
M  V30 5550 H 513.226 2.83114 -3.04936 0
M  V30 5551 H 512.102 4.04794 -3.7072 0
M  V30 5552 H 512.363 3.95655 -1.97255 0
M  V30 5553 N 511.423 1.38739 0.74761 0
M  V30 5554 C 512.333 1.38696 1.89211 0
M  V30 5555 C 513.349 0.283303 1.71678 0
M  V30 5556 O 514.525 0.522713 1.94498 0
M  V30 5557 C 511.59 1.21662 3.24653 0
M  V30 5558 C 510.651 2.41886 3.54669 0
M  V30 5559 C 509.884 2.25655 4.83648 0
M  V30 5560 O 510.107 1.25339 5.56459 0
M  V30 5561 O 509.041 3.14372 5.13277 0
M  V30 5562 H 512.867 2.35143 1.92202 0
M  V30 5563 H 510.452 1.19721 0.893708 0
M  V30 5564 H 512.334 1.14246 4.05618 0
M  V30 5565 H 511.009 0.283024 3.2246 0
M  V30 5566 H 509.916 2.54877 2.73841 0
M  V30 5567 H 511.249 3.33895 3.61628 0
M  V30 5568 N 512.901 -0.976442 1.23707 0
M  V30 5569 C 513.811 -2.10359 1.03856 0
M  V30 5570 C 514.827 -1.73991 -0.0180919 0
M  V30 5571 O 516.003 -2.0061 0.178211 0
M  V30 5572 C 513.068 -3.40809 0.636387 0
M  V30 5573 C 512.129 -3.91179 1.76854 0
M  V30 5574 C 511.362 -5.15404 1.38546 0
M  V30 5575 O 511.585 -5.69754 0.27142 0
M  V30 5576 O 510.519 -5.5994 2.20797 0
M  V30 5577 H 514.345 -2.29997 1.98331 0
M  V30 5578 H 511.93 -1.08742 1.02448 0
M  V30 5579 H 513.812 -4.19269 0.423223 0
M  V30 5580 H 512.487 -3.22493 -0.279322 0
M  V30 5581 H 511.394 -3.13819 2.03638 0
M  V30 5582 H 512.727 -4.13958 2.6627 0
M  V30 5583 N 514.379 -1.04941 -1.1758 0
M  V30 5584 C 515.625 -0.759112 -1.88057 0
M  V30 5585 C 515.958 0.711918 -1.8068 0
M  V30 5586 O 515.233 1.52035 -1.21308 0
M  V30 5587 C 515.516 -1.237 -3.38187 0
M  V30 5588 C 515.369 -2.77078 -3.54327 0
M  V30 5589 C 516.688 -0.834014 -4.32125 0
M  V30 5590 H 513.807 -0.277237 -0.682868 0
M  V30 5591 H 516.449 -1.30296 -1.38286 0
M  V30 5592 H 514.599 -0.774337 -3.80705 0
M  V30 5593 H 516.271 -3.31449 -3.20842 0
M  V30 5594 H 514.514 -3.16477 -2.96689 0
M  V30 5595 H 515.185 -3.05577 -4.59703 0
M  V30 5596 H 517.661 -1.23228 -3.97434 0
M  V30 5597 H 516.537 -1.19603 -5.35711 0
M  V30 5598 H 516.798 0.262195 -4.41322 0
M  V30 5599 N 515.857 1.33968 -0.830081 0
M  V30 5600 C 517.082 2.02813 -0.433796 0
M  V30 5601 C 517.507 1.62076 0.954614 0
M  V30 5602 O 516.865 0.808955 1.62252 0
M  V30 5603 C 516.913 3.56348 -0.552115 0
M  V30 5604 O 516.017 4.10202 0.425191 0
M  V30 5605 H 515.358 0.639817 -0.177567 0
M  V30 5606 H 517.888 1.7106 -1.12248 0
M  V30 5607 H 517.898 4.05722 -0.430513 0
M  V30 5608 H 516.573 3.85344 -1.56471 0
M  V30 5609 H 515.15 3.71979 0.261878 0
M  V30 5610 N 517.335 0.585699 1.46312 0
M  V30 5611 C 518.584 0.0701192 2.01578 0
M  V30 5612 C 518.897 -1.29889 1.46247 0
M  V30 5613 O 520.103 -1.90598 1.93351 0
M  V30 5614 C 518.559 0.0747499 3.59822 0
M  V30 5615 C 518.167 1.44226 4.24149 0
M  V30 5616 C 519.911 -0.38673 4.22735 0
M  V30 5617 C 517.818 1.40446 5.74481 0
M  V30 5618 H 516.748 0.0224441 0.753666 0
M  V30 5619 H 519.399 0.737789 1.68015 0
M  V30 5620 H 517.781 -0.659144 3.90476 0
M  V30 5621 H 518.955 2.19612 4.05101 0
M  V30 5622 H 517.27 1.84401 3.73343 0
M  V30 5623 H 519.867 -0.433853 5.32937 0
M  V30 5624 H 520.21 -1.40489 3.91878 0
M  V30 5625 H 520.743 0.293195 3.96718 0
M  V30 5626 H 517.482 2.39952 6.10003 0
M  V30 5627 H 517.002 0.692845 5.95785 0
M  V30 5628 H 518.681 1.11865 6.37256 0
M  V30 5629 N 518.813 -1.54241 0.323641 0
M  V30 5630 C 520.041 -2.04985 -0.280871 0
M  V30 5631 C 520.456 -1.19978 -1.45777 0
M  V30 5632 O 519.813 -0.230471 -1.81039 0
M  V30 5633 C 519.864 -3.54353 -0.715258 0
M  V30 5634 O 519.585 -4.36132 0.414817 0
M  V30 5635 C 521.086 -4.21189 -1.38257 0
M  V30 5636 H 518.306 -0.66851 -0.0577502 0
M  V30 5637 H 520.85 -1.99029 0.469852 0
M  V30 5638 H 519.005 -3.60596 -1.41596 0
M  V30 5639 H 519.419 -5.2445 0.0725227 0
M  V30 5640 H 520.893 -5.27154 -1.63745 0
M  V30 5641 H 521.37 -3.72307 -2.32989 0
M  V30 5642 H 521.976 -4.19085 -0.724447 0
M  V30 5643 N 520.291 -0.0518155 -1.57515 0
M  V30 5644 C 521.239 0.940195 -2.12751 0
M  V30 5645 C 522.233 1.3218 -1.05948 0
M  V30 5646 O 523.439 1.30138 -1.24355 0
M  V30 5647 H 519.814 0.321066 -0.680015 0
M  V30 5648 H 521.785 0.449217 -2.94999 0
M  V30 5649 C 520.534 2.2055 -2.68799 0
M  V30 5650 H 519.857 1.92066 -3.50643 0
M  V30 5651 H 521.297 2.88119 -3.11068 0
M  V30 5652 C 519.756 2.95061 -1.62605 0
M  V30 5653 O 520.286 3.88025 -1.03921 0
M  V30 5654 N 518.492 2.57804 -1.34111 0
M  V30 5655 H 518.039 1.82281 -1.8202 0
M  V30 5656 H 517.997 3.07964 -0.632872 0
M  V30 5657 N 521.769 1.56035 0.221574 0
M  V30 5658 C 523.018 1.78245 0.944016 0
M  V30 5659 C 523.331 0.620371 1.85501 0
M  V30 5660 O 524.537 0.726103 2.6161 0
M  V30 5661 C 522.993 3.15659 1.7288 0
M  V30 5662 C 522.601 4.39591 0.863942 0
M  V30 5663 C 524.345 3.47195 2.44246 0
M  V30 5664 C 522.252 5.6803 1.64607 0
M  V30 5665 H 521.182 0.664547 0.356222 0
M  V30 5666 H 523.833 1.8243 0.197904 0
M  V30 5667 H 522.215 3.0565 2.51781 0
M  V30 5668 H 523.389 4.60655 0.115464 0
M  V30 5669 H 521.704 4.15572 0.262407 0
M  V30 5670 H 524.301 4.40381 3.03263 0
M  V30 5671 H 524.644 2.69693 3.1713 0
M  V30 5672 H 525.177 3.58533 1.72334 0
M  V30 5673 H 521.916 6.48425 0.960507 0
M  V30 5674 H 521.436 5.51027 2.36917 0
M  V30 5675 H 523.115 6.08203 2.20675 0
M  V30 5676 N 523.247 -0.488276 1.49845 0
M  V30 5677 C 524.496 -1.23826 1.59217 0
M  V30 5678 C 524.809 -1.93439 0.289966 0
M  V30 5679 O 526.015 -2.70229 0.262382 0
M  V30 5680 C 524.471 -2.24902 2.80976 0
M  V30 5681 C 524.079 -1.6117 4.18005 0
M  V30 5682 C 525.823 -3.00648 2.99685 0
M  V30 5683 C 523.73 -2.60431 5.3097 0
M  V30 5684 H 522.66 -0.465858 0.592868 0
M  V30 5685 H 525.311 -0.510645 1.76252 0
M  V30 5686 H 523.693 -3.0088 2.57463 0
M  V30 5687 H 524.867 -0.910968 4.51706 0
M  V30 5688 H 523.182 -0.97767 4.0476 0
M  V30 5689 H 525.779 -3.74903 3.81251 0
M  V30 5690 H 526.122 -3.5902 2.10738 0
M  V30 5691 H 526.655 -2.31784 3.23297 0
M  V30 5692 H 523.394 -2.06823 6.22017 0
M  V30 5693 H 522.914 -3.28707 5.01709 0
M  V30 5694 H 524.593 -3.22606 5.60834 0
M  V30 5695 N 524.725 -1.39134 -0.740242 0
M  V30 5696 C 525.673 -1.3757 -1.87556 0
M  V30 5697 C 526.667 -0.259593 -1.67399 0
M  V30 5698 O 527.873 -0.429349 -1.74804 0
M  V30 5699 H 524.248 -0.42947 -0.6173 0
M  V30 5700 H 526.219 -2.33345 -1.85991 0
M  V30 5701 C 524.968 -1.23087 -3.25184 0
M  V30 5702 H 524.291 -2.08237 -3.41288 0
M  V30 5703 H 525.731 -1.26049 -4.0483 0
M  V30 5704 C 524.19 0.0611471 -3.36845 0
M  V30 5705 O 524.72 1.03328 -3.88183 0
M  V30 5706 N 522.926 0.122454 -2.90342 0
M  V30 5707 H 522.473 -0.669329 -2.48752 0
M  V30 5708 H 522.431 0.986463 -2.98523 0
M  V30 5709 N 526.204 0.969867 -1.24223 0
M  V30 5710 C 527.429 1.75289 -1.10853 0
M  V30 5711 C 527.854 1.85091 0.335079 0
M  V30 5712 O 527.212 1.32024 1.24255 0
M  V30 5713 C 527.26 3.15255 -1.75062 0
M  V30 5714 O 526.364 3.99589 -1.01992 0
M  V30 5715 H 525.705 0.538904 -0.387915 0
M  V30 5716 H 528.235 1.21675 -1.64488 0
M  V30 5717 H 528.245 3.65787 -1.80731 0
M  V30 5718 H 526.92 3.07436 -2.801 0
M  V30 5719 H 525.497 3.58077 -1.04094 0
M  V30 5720 N 527.682 1.05563 1.17022 0
M  V30 5721 C 528.907 0.788437 1.91829 0
M  V30 5722 C 529.332 -0.650356 1.76499 0
M  V30 5723 O 528.69 -1.45229 1.08527 0
M  V30 5724 C 528.738 1.1786 3.40795 0
M  V30 5725 O 527.842 0.312965 4.11211 0
M  V30 5726 H 527.183 0.288794 0.597908 0
M  V30 5727 H 529.713 1.40948 1.48307 0
M  V30 5728 H 529.723 1.14697 3.91546 0
M  V30 5729 H 528.398 2.22666 3.51273 0
M  V30 5730 H 526.975 0.405515 3.70689 0
M  V30 5731 N 529.16 -1.33526 0.837174 0
M  V30 5732 C 530.409 -1.97098 0.428387 0
M  V30 5733 C 530.722 -1.67062 -1.01734 0
M  V30 5734 O 531.928 -2.24235 -1.53072 0
M  V30 5735 C 530.384 -3.52725 0.715075 0
M  V30 5736 C 529.992 -3.9164 2.17537 0
M  V30 5737 C 531.736 -4.22857 0.373154 0
M  V30 5738 C 529.643 -5.40237 2.40619 0
M  V30 5739 H 528.573 -0.737589 0.156455 0
M  V30 5740 H 531.224 -1.52169 1.02552 0
M  V30 5741 H 529.606 -3.95971 0.0475904 0
M  V30 5742 H 530.78 -3.59456 2.88319 0
M  V30 5743 H 529.095 -3.34485 2.4801 0
M  V30 5744 H 531.692 -5.32133 0.523264 0
M  V30 5745 H 532.035 -4.10647 -0.683708 0
M  V30 5746 H 532.568 -3.85135 0.995801 0
M  V30 5747 H 529.307 -5.57449 3.44864 0
M  V30 5748 H 528.827 -5.73887 1.74396 0
M  V30 5749 H 530.506 -6.07102 2.23688 0
M  V30 5750 N 530.638 -0.59345 -1.46 0
M  V30 5751 C 531.863 -0.0872365 -2.07216 0
M  V30 5752 C 532.288 1.2131 -1.43755 0
M  V30 5753 O 531.646 1.73528 -0.525152 0
M  V30 5754 C 531.694 0.0538197 -3.6056 0
M  V30 5755 O 530.798 1.10765 -3.97247 0
M  V30 5756 H 530.139 -0.0676598 -0.660544 0
M  V30 5757 H 532.669 -0.819445 -1.87473 0
M  V30 5758 H 532.679 0.256567 -4.07193 0
M  V30 5759 H 531.354 -0.895739 -4.0614 0
M  V30 5760 H 529.931 0.882501 -3.62307 0
M  V30 5761 N 532.116 1.54067 -0.331816 0
M  V30 5762 C 533.341 2.05599 0.272705 0
M  V30 5763 C 533.766 1.2059 1.44359 0
M  V30 5764 O 533.124 0.216907 1.79998 0
M  V30 5765 C 533.172 3.54188 0.677021 0
M  V30 5766 O 532.276 3.72082 1.77844 0
M  V30 5767 H 531.617 0.662286 0.0476801 0
M  V30 5768 H 534.147 1.98826 -0.482624 0
M  V30 5769 H 534.157 3.96608 0.957415 0
M  V30 5770 H 532.832 4.15513 -0.179325 0
M  V30 5771 H 531.409 3.41566 1.49622 0
M  V30 5772 N 533.594 0.0601682 1.57485 0
M  V30 5773 C 534.841 -0.611594 1.93043 0
M  V30 5774 C 535.169 -1.70317 0.939274 0
M  V30 5775 O 534.424 -1.95644 -0.046996 0
M  V30 5776 C 534.723 -1.23831 3.35262 0
M  V30 5777 C 534.389 -0.274037 4.50066 0
M  V30 5778 C 533.051 -0.00872394 4.81199 0
M  V30 5779 C 535.403 0.386308 5.19766 0
M  V30 5780 C 532.731 0.924218 5.79375 0
M  V30 5781 C 535.083 1.3075 6.1894 0
M  V30 5782 C 533.747 1.58139 6.48497 0
M  V30 5783 H 533.017 -0.223798 0.706396 0
M  V30 5784 H 535.664 0.128566 1.91068 0
M  V30 5785 H 533.969 -2.05394 3.33647 0
M  V30 5786 H 535.666 -1.76517 3.60059 0
M  V30 5787 H 532.256 -0.491008 4.25778 0
M  V30 5788 H 536.44 0.194436 4.95919 0
M  V30 5789 H 531.696 1.1438 6.00606 0
M  V30 5790 H 535.87 1.82519 6.72056 0
M  V30 5791 H 533.497 2.30593 7.24383 0
M  V30 5792 N 535.072 -1.5615 -0.213296 0
M  V30 5793 C 536.019 -1.93086 -1.26437 0
M  V30 5794 C 536.989 -0.789086 -1.4616 0
M  V30 5795 O 538.174 -1.04569 -1.59593 0
M  V30 5796 C 535.314 -2.26003 -2.608 0
M  V30 5797 C 534.427 -3.53156 -2.48807 0
M  V30 5798 C 533.562 -3.7548 -3.7575 0
M  V30 5799 C 532.601 -4.96119 -3.58514 0
M  V30 5800 N 531.738 -5.14791 -4.77425 0
M  V30 5801 H 536.578 -2.82707 -0.942376 0
M  V30 5802 H 534.115 -1.39919 -0.454001 0
M  V30 5803 H 536.073 -2.431 -3.39055 0
M  V30 5804 H 534.703 -1.39546 -2.91079 0
M  V30 5805 H 533.755 -3.44207 -1.61944 0
M  V30 5806 H 535.067 -4.41565 -2.31996 0
M  V30 5807 H 534.221 -3.92718 -4.62447 0
M  V30 5808 H 532.96 -2.85368 -3.95495 0
M  V30 5809 H 531.965 -4.78823 -2.70201 0
M  V30 5810 H 533.19 -5.87724 -3.40231 0
M  V30 5811 H 531.136 -4.27623 -4.97468 0
M  V30 5812 H 531.053 -5.97347 -4.63371 0
M  V30 5813 H 532.321 -5.36471 -5.65525 0
M  V30 5814 N 536.55 0.480323 -1.50102 0
M  V30 5815 C 537.966 0.813295 -1.37323 0
M  V30 5816 C 538.166 1.97027 -0.422206 0
M  V30 5817 O 537.222 2.5212 0.138563 0
M  V30 5818 C 538.535 1.13404 -2.78496 0
M  V30 5819 C 540.083 1.24104 -2.87345 0
M  V30 5820 C 540.558 1.59497 -4.29331 0
M  V30 5821 N 542.049 1.66507 -4.32238 0
M  V30 5822 C 542.784 1.95378 -5.39087 0
M  V30 5823 N 542.28 2.22333 -6.56155 0
M  V30 5824 N 544.073 1.96803 -5.26522 0
M  V30 5825 H 536.224 -0.282291 -2.10516 0
M  V30 5826 H 538.487 -0.063752 -0.945854 0
M  V30 5827 H 538.193 0.357064 -3.49883 0
M  V30 5828 H 538.067 2.07251 -3.15162 0
M  V30 5829 H 540.454 2.00871 -2.16183 0
M  V30 5830 H 540.535 0.282593 -2.54234 0
M  V30 5831 H 540.179 0.832736 -5.01027 0
M  V30 5832 H 540.109 2.56477 -4.59921 0
M  V30 5833 H 542.6 1.47753 -3.47818 0
M  V30 5834 H 542.913 2.43611 -7.33399 0
M  V30 5835 H 541.258 2.19745 -6.59346 0
M  V30 5836 H 544.449 1.75235 -4.34062 0
M  V30 5837 H 544.622 2.18969 -6.09883 0
M  V30 5838 N 538.028 1.39524 0.732853 0
M  V30 5839 C 538.975 1.38416 1.84688 0
M  V30 5840 C 539.945 0.243539 1.64305 0
M  V30 5841 O 541.13 0.438979 1.85681 0
M  V30 5842 C 538.27 1.23555 3.22224 0
M  V30 5843 C 537.383 2.47179 3.54298 0
M  V30 5844 C 536.518 2.2489 4.81246 0
M  V30 5845 C 535.557 3.44178 5.0617 0
M  V30 5846 N 534.694 3.21192 6.24323 0
M  V30 5847 H 539.534 2.33645 1.84971 0
M  V30 5848 H 537.071 1.16059 0.903804 0
M  V30 5849 H 539.029 1.12949 4.0162 0
M  V30 5850 H 537.659 0.31954 3.21215 0
M  V30 5851 H 536.711 2.68379 2.69587 0
M  V30 5852 H 538.023 3.36022 3.68633 0
M  V30 5853 H 537.177 2.11538 5.68627 0
M  V30 5854 H 535.916 1.33443 4.69089 0
M  V30 5855 H 534.921 3.58025 4.17251 0
M  V30 5856 H 536.146 4.36528 5.20212 0
M  V30 5857 H 534.092 2.32413 6.1345 0
M  V30 5858 H 534.009 4.03594 6.39256 0
M  V30 5859 H 535.277 3.1154 7.14537 0
M  V30 5860 N 539.506 -0.963266 1.24736 0
M  V30 5861 C 540.755 -1.70115 1.08369 0
M  V30 5862 C 541.068 -1.91939 -0.376688 0
M  V30 5863 O 542.274 -2.6334 -0.660624 0
M  V30 5864 C 540.73 -3.06218 1.89099 0
M  V30 5865 C 540.338 -2.92221 3.39574 0
M  V30 5866 C 542.082 -3.83848 1.81275 0
M  V30 5867 C 539.989 -4.23662 4.12631 0
M  V30 5868 H 538.919 -0.637944 0.401924 0
M  V30 5869 H 541.57 -1.07304 1.48856 0
M  V30 5870 H 539.952 -3.69884 1.41429 0
M  V30 5871 H 541.126 -2.37541 3.94856 0
M  V30 5872 H 539.441 -2.28054 3.48397 0
M  V30 5873 H 542.038 -4.81188 2.33158 0
M  V30 5874 H 542.381 -4.08949 0.778895 0
M  V30 5875 H 542.914 -3.26918 2.26649 0
M  V30 5876 H 539.653 -4.03753 5.16395 0
M  V30 5877 H 539.173 -4.78141 3.62135 0
M  V30 5878 H 540.852 -4.92256 4.19873 0
M  V30 5879 N 540.985 -1.06182 -1.16461 0
M  V30 5880 C 542.21 -0.798599 -1.91408 0
M  V30 5881 C 542.635 0.640987 -1.76842 0
M  V30 5882 O 541.993 1.44652 -1.09296 0
M  V30 5883 C 542.041 -1.19665 -3.40165 0
M  V30 5884 O 541.145 -0.334768 -4.11039 0
M  V30 5885 H 540.486 -0.291961 -0.596368 0
M  V30 5886 H 543.016 -1.41732 -1.47557 0
M  V30 5887 H 543.026 -1.16772 -3.90933 0
M  V30 5888 H 541.701 -2.24526 -3.50087 0
M  V30 5889 H 540.278 -0.425168 -3.70468 0
M  V30 5890 N 542.463 1.3308 -0.844243 0
M  V30 5891 C 543.71 1.97605 -0.44255 0
M  V30 5892 C 544.038 1.66856 0.999458 0
M  V30 5893 O 543.293 0.943586 1.7145 0
M  V30 5894 C 543.592 3.52045 -0.616354 0
M  V30 5895 C 543.258 4.02757 -2.02726 0
M  V30 5896 C 541.92 4.16316 -2.41317 0
M  V30 5897 C 544.272 4.29776 -2.9486 0
M  V30 5898 C 541.6 4.54232 -3.71335 0
M  V30 5899 C 543.952 4.69146 -4.24364 0
M  V30 5900 C 542.616 4.80911 -4.62904 0
M  V30 5901 H 541.886 0.723088 -0.161941 0
M  V30 5902 H 544.533 1.58663 -1.0723 0
M  V30 5903 H 542.838 3.91681 0.0966812 0
M  V30 5904 H 544.535 3.99981 -0.285756 0
M  V30 5905 H 541.125 3.9268 -1.71756 0
M  V30 5906 H 545.309 4.18818 -2.6628 0
M  V30 5907 H 540.565 4.61535 -4.00993 0
M  V30 5908 H 544.739 4.89008 -4.95827 0
M  V30 5909 H 542.366 5.10048 -5.63698 0
M  V30 5910 N 543.941 0.601185 1.45683 0
M  V30 5911 C 544.904 -0.111398 2.28929 0
M  V30 5912 C 545.904 -0.801246 1.39416 0
M  V30 5913 O 547.094 -0.650383 1.61603 0
M  V30 5914 C 544.226 -1.16773 3.20276 0
M  V30 5915 H 545.419 0.620412 2.93413 0
M  V30 5916 H 542.972 0.359946 1.52099 0
M  V30 5917 H 543.707 -1.93051 2.60579 0
M  V30 5918 H 543.492 -0.677358 3.86205 0
M  V30 5919 H 544.982 -1.66698 3.82886 0
M  V30 5920 N 545.419 -1.53889 0.339982 0
M  V30 5921 C 546.644 -2.05741 -0.261798 0
M  V30 5922 C 547.069 -1.21354 -1.43718 0
M  V30 5923 O 546.427 -0.22645 -1.7988 0
M  V30 5924 C 546.475 -3.54542 -0.658228 0
M  V30 5925 O 545.579 -3.7302 -1.75869 0
M  V30 5926 H 544.92 -0.662529 -0.0441672 0
M  V30 5927 H 547.45 -1.98568 0.493161 0
M  V30 5928 H 547.46 -3.9711 -0.936368 0
M  V30 5929 H 546.135 -4.15412 0.201358 0
M  V30 5930 H 544.712 -3.42355 -1.47809 0
M  V30 5931 N 546.897 -0.0685191 -1.57451 0
M  V30 5932 C 548.146 0.600898 -1.92541 0
M  V30 5933 C 548.459 1.70967 -0.950239 0
M  V30 5934 O 549.665 2.43844 -1.19384 0
M  V30 5935 C 548.121 1.12019 -3.42023 0
M  V30 5936 C 547.729 0.0426028 -4.4798 0
M  V30 5937 C 549.473 1.76386 -3.86119 0
M  V30 5938 C 547.38 0.575759 -5.88591 0
M  V30 5939 H 546.31 0.228225 -0.71863 0
M  V30 5940 H 548.961 -0.140223 -1.82963 0
M  V30 5941 H 547.343 1.91418 -3.46663 0
M  V30 5942 H 548.517 -0.73182 -4.54952 0
M  V30 5943 H 546.832 -0.504642 -4.13331 0
M  V30 5944 H 549.429 2.17302 -4.88553 0
M  V30 5945 H 549.772 2.62255 -3.23308 0
M  V30 5946 H 550.305 1.03615 -3.84069 0
M  V30 5947 H 547.044 -0.245691 -6.55039 0
M  V30 5948 H 546.564 1.31778 -5.85145 0
M  V30 5949 H 548.243 1.0532 -6.3837 0
M  V30 5950 N 548.375 1.56261 0.205012 0
M  V30 5951 C 549.285 1.96944 1.27476 0
M  V30 5952 C 550.301 0.875636 1.50362 0
M  V30 5953 O 551.477 1.18058 1.6317 0
M  V30 5954 C 548.542 2.29219 2.60115 0
M  V30 5955 C 547.603 3.52255 2.45387 0
M  V30 5956 C 546.836 3.8298 3.71701 0
M  V30 5957 O 547.059 3.15138 4.75441 0
M  V30 5958 O 545.993 4.76435 3.67823 0
M  V30 5959 H 549.819 2.88144 0.959527 0
M  V30 5960 H 547.404 1.43686 0.409217 0
M  V30 5961 H 549.286 2.51098 3.3842 0
M  V30 5962 H 547.961 1.4119 2.91285 0
M  V30 5963 H 546.868 3.35635 1.65227 0
M  V30 5964 H 548.201 4.40719 2.19152 0
M  V30 5965 N 549.853 -0.472356 1.50355 0
M  V30 5966 C 551.102 -1.2213 1.60522 0
M  V30 5967 C 551.415 -1.9312 0.310466 0
M  V30 5968 O 552.621 -2.69936 0.291029 0
M  V30 5969 C 551.077 -2.21909 2.83345 0
M  V30 5970 C 550.685 -1.56727 4.19691 0
M  V30 5971 C 552.429 -2.97453 3.02856 0
M  V30 5972 C 550.336 -2.54785 5.33703 0
M  V30 5973 H 549.266 -0.459543 0.597776 0
M  V30 5974 H 551.917 -0.491922 1.76783 0
M  V30 5975 H 550.299 -2.98133 2.60639 0
M  V30 5976 H 551.473 -0.863007 4.52646 0
M  V30 5977 H 549.788 -0.934685 4.05774 0
M  V30 5978 H 552.385 -3.70838 3.85205 0
M  V30 5979 H 552.728 -3.56764 2.14534 0
M  V30 5980 H 553.261 -2.28342 3.25737 0
M  V30 5981 H 550 -2.00214 6.24175 0
M  V30 5982 H 549.52 -3.23367 5.05167 0
M  V30 5983 H 551.199 -3.16639 5.64224 0
M  V30 5984 N 551.331 -1.39911 -0.725443 0
M  V30 5985 C 552.556 -1.41137 -1.5197 0
M  V30 5986 C 552.981 -0.010262 -1.88097 0
M  V30 5987 O 552.339 0.979184 -1.52583 0
M  V30 5988 C 552.387 -2.2994 -2.77777 0
M  V30 5989 O 551.491 -1.73586 -3.74088 0
M  V30 5990 H 550.832 -0.480219 -0.458569 0
M  V30 5991 H 553.362 -1.84023 -0.894249 0
M  V30 5992 H 553.372 -2.44785 -3.26411 0
M  V30 5993 H 552.047 -3.31759 -2.50816 0
M  V30 5994 H 550.624 -1.68035 -3.32894 0
M  V30 5995 N 552.809 0.956637 -1.25245 0
M  V30 5996 C 554.034 1.74104 -1.12706 0
M  V30 5997 C 554.459 1.85436 0.315429 0
M  V30 5998 O 553.817 1.33334 1.22848 0
M  V30 5999 C 553.865 3.1338 -1.78396 0
M  V30 6000 O 552.969 3.98485 -1.06224 0
M  V30 6001 H 552.31 0.53476 -0.393609 0
M  V30 6002 H 554.84 1.19924 -1.65769 0
M  V30 6003 H 554.85 3.6385 -1.846 0
M  V30 6004 H 553.525 3.04448 -2.83345 0
M  V30 6005 H 552.102 3.56952 -1.07886 0
M  V30 6006 N 554.287 1.06798 1.15896 0
M  V30 6007 C 555.564 0.701057 1.82605 0
M  V30 6008 C 555.944 -0.817066 1.94646 0
M  V30 6009 O 555.292 -1.72933 1.49353 0
M  V30 6010 C 555.502 1.40895 3.19296 0
M  V30 6011 C 556.85 1.55744 3.95005 0
M  V30 6012 O 557.874 1.36927 3.28831 0
M  V30 6013 O 556.733 1.86658 5.13635 0
M  V30 6014 H 553.827 0.248791 0.78869 0
M  V30 6015 H 556.373 1.16857 1.23055 0
M  V30 6016 H 555.145 2.4439 3.05596 0
M  V30 6017 H 554.768 0.931847 3.86526 0
M  V30 6018 N 555.766 -1.3263 0.851289 0
M  V30 6019 C 556.714 -2.30882 0.282202 0
M  V30 6020 C 557.708 -1.58697 -0.592589 0
M  V30 6021 O 558.914 -1.73461 -0.480768 0
M  V30 6022 H 555.289 -0.748492 0.0725487 0
M  V30 6023 H 557.26 -2.76374 1.12516 0
M  V30 6024 C 556.009 -3.43828 -0.517449 0
M  V30 6025 H 555.332 -3.99532 0.146392 0
M  V30 6026 H 556.772 -4.1474 -0.88128 0
M  V30 6027 C 555.231 -2.90786 -1.70133 0
M  V30 6028 O 555.761 -2.88 -2.80034 0
M  V30 6029 N 553.967 -2.4723 -1.52728 0
M  V30 6030 H 553.514 -2.49695 -0.633257 0
M  V30 6031 H 553.472 -2.12094 -2.32085 0
M  V30 6032 N 557.244 -0.608902 -1.45362 0
M  V30 6033 C 558.49 -0.104762 -2.02529 0
M  V30 6034 C 558.823 1.26191 -1.47613 0
M  V30 6035 O 558.098 1.8327 -0.65134 0
M  V30 6036 C 558.381 -0.0672661 -3.60037 0
M  V30 6037 C 558.234 -1.4647 -4.25284 0
M  V30 6038 C 559.553 0.619877 -4.35713 0
M  V30 6039 H 556.672 -0.0395438 -0.735938 0
M  V30 6040 H 559.314 -0.781126 -1.73201 0
M  V30 6041 H 557.464 0.50871 -3.85155 0
M  V30 6042 H 559.136 -2.08785 -4.11347 0
M  V30 6043 H 557.379 -2.02502 -3.83634 0
M  V30 6044 H 558.05 -1.39069 -5.34195 0
M  V30 6045 H 560.526 0.130297 -4.15896 0
M  V30 6046 H 559.402 0.615224 -5.45441 0
M  V30 6047 H 559.663 1.68621 -4.0868 0
M  V30 6048 N 558.722 1.53707 -0.348139 0
M  V30 6049 C 559.999 1.93247 0.302475 0
M  V30 6050 C 560.379 1.28012 1.67857 0
M  V30 6051 O 559.727 0.43274 2.24365 0
M  V30 6052 C 559.937 3.47031 0.370159 0
M  V30 6053 C 561.285 4.20066 0.61882 0
M  V30 6054 O 562.309 3.53319 0.452087 0
M  V30 6055 O 561.168 5.38318 0.94215 0
M  V30 6056 H 558.262 0.807736 0.177458 0
M  V30 6057 H 560.808 1.64927 -0.399651 0
M  V30 6058 H 559.58 3.86745 -0.59534 0
M  V30 6059 H 559.203 3.81532 1.11888 0
M  V30 6060 N 560.2 0.0768682 1.57412 0
M  V30 6061 C 561.43 -0.5991 1.97723 0
M  V30 6062 C 561.838 -1.63378 0.954166 0
M  V30 6063 O 561.181 -1.83578 -0.0668706 0
M  V30 6064 C 561.243 -1.32078 3.34358 0
M  V30 6065 C 560.907 -0.438985 4.54887 0
M  V30 6066 C 561.904 0.305492 5.19002 0
M  V30 6067 C 559.589 -0.362378 5.00991 0
M  V30 6068 C 561.583 1.11475 6.27576 0
M  V30 6069 C 559.27 0.450543 6.09437 0
M  V30 6070 C 560.268 1.18777 6.72593 0
M  V30 6071 O 559.956 1.98727 7.7895 0
M  V30 6072 H 559.688 -0.166725 0.655117 0
M  V30 6073 H 562.242 0.147337 2.04871 0
M  V30 6074 H 560.472 -2.1134 3.2384 0
M  V30 6075 H 562.161 -1.88949 3.5924 0
M  V30 6076 H 562.927 0.25593 4.84324 0
M  V30 6077 H 558.806 -0.925832 4.51608 0
M  V30 6078 H 562.35 1.69068 6.76803 0
M  V30 6079 H 558.247 0.501651 6.43548 0
M  V30 6080 H 559.015 1.91214 7.95851 0
M  V30 6081 N 561.678 -1.56367 -0.196722 0
M  V30 6082 C 562.903 -1.84991 -0.937714 0
M  V30 6083 C 563.328 -0.660244 -1.76132 0
M  V30 6084 O 562.686 0.390967 -1.77034 0
M  V30 6085 C 562.734 -3.11828 -1.81096 0
M  V30 6086 O 561.838 -2.92266 -2.90955 0
M  V30 6087 H 561.179 -0.609193 -0.264159 0
M  V30 6088 H 563.709 -2.03595 -0.202529 0
M  V30 6089 H 563.719 -3.42579 -2.21594 0
M  V30 6090 H 562.394 -3.98037 -1.2058 0
M  V30 6091 H 560.971 -2.72809 -2.54224 0
M  V30 6092 N 563.156 0.464375 -1.50603 0
M  V30 6093 C 564.433 1.22549 -1.5245 0
M  V30 6094 C 564.813 2.09327 -0.273035 0
M  V30 6095 O 564.161 2.16074 0.743242 0
M  V30 6096 C 564.371 2.05074 -2.82393 0
M  V30 6097 C 565.719 2.63036 -3.33313 0
M  V30 6098 O 566.743 2.1531 -2.8376 0
M  V30 6099 O 565.602 3.5001 -4.19709 0
M  V30 6100 H 562.696 0.556471 -0.611775 0
M  V30 6101 H 565.242 0.475648 -1.62898 0
M  V30 6102 H 564.014 1.41169 -3.64948 0
M  V30 6103 H 563.637 2.87179 -2.7498 0
M  V30 6104 N 564.634 1.40294 0.718013 0
M  V30 6105 C 565.564 1.43118 1.84498 0
M  V30 6106 C 566.545 0.292403 1.67568 0
M  V30 6107 O 567.73 0.500675 1.87635 0
M  V30 6108 C 564.86 1.29065 3.22427 0
M  V30 6109 C 563.814 2.40521 3.54025 0
M  V30 6110 C 563.14 2.11546 4.91073 0
M  V30 6111 C 564.44 3.82859 3.55269 0
M  V30 6112 H 566.134 2.37432 1.82391 0
M  V30 6113 H 563.68 1.14283 0.87609 0
M  V30 6114 H 565.633 1.29658 4.00957 0
M  V30 6115 H 564.357 0.312271 3.25104 0
M  V30 6116 H 563.016 2.39173 2.77834 0
M  V30 6117 H 562.664 1.12104 4.90348 0
M  V30 6118 H 562.364 2.86216 5.1318 0
M  V30 6119 H 563.888 2.13817 5.71939 0
M  V30 6120 H 565.302 3.86044 4.23843 0
M  V30 6121 H 563.699 4.57029 3.88902 0
M  V30 6122 H 564.769 4.12617 2.54706 0
M  V30 6123 N 566.112 -0.949982 1.2575 0
M  V30 6124 C 567.34 -1.72972 1.13527 0
M  V30 6125 C 567.755 -1.8623 -0.310453 0
M  V30 6126 O 567.112 -1.36336 -1.2132 0
M  V30 6127 C 567.163 -3.14108 1.78936 0
M  V30 6128 O 566.884 -3.01493 3.17858 0
M  V30 6129 C 568.385 -4.08338 1.72554 0
M  V30 6130 H 565.605 -0.541864 0.395758 0
M  V30 6131 H 568.149 -1.19151 1.66202 0
M  V30 6132 H 566.304 -3.64858 1.30221 0
M  V30 6133 H 566.718 -3.90559 3.50092 0
M  V30 6134 H 568.192 -5.04963 2.22973 0
M  V30 6135 H 568.669 -4.33742 0.690251 0
M  V30 6136 H 569.275 -3.63506 2.2078 0
M  V30 6137 N 567.59 -1.07411 -1.15328 0
M  V30 6138 C 568.523 -0.63913 -2.19067 0
M  V30 6139 C 569.501 0.343929 -1.58921 0
M  V30 6140 O 570.685 0.250207 -1.86832 0
M  V30 6141 C 567.812 0.0613977 -3.38644 0
M  V30 6142 C 566.858 -0.880201 -4.17318 0
M  V30 6143 S 567.691 -2.38152 -4.79629 0
M  V30 6144 C 568.847 -1.69281 -6.02573 0
M  V30 6145 H 569.08 -1.51799 -2.55626 0
M  V30 6146 H 566.613 -0.888138 -1.26299 0
M  V30 6147 H 568.571 0.459323 -4.07922 0
M  V30 6148 H 567.232 0.916605 -3.00428 0
M  V30 6149 H 566.425 -0.336781 -5.02874 0
M  V30 6150 H 566.027 -1.21854 -3.53592 0
M  V30 6151 H 568.319 -1.00488 -6.70006 0
M  V30 6152 H 569.262 -2.52671 -6.61485 0
M  V30 6153 H 569.67 -1.17053 -5.52231 0
M  V30 6154 N 569.068 1.32177 -0.85831 0
M  V30 6155 C 570.015 2.28794 -0.303607 0
M  V30 6156 C 570.985 1.55213 0.591453 0
M  V30 6157 O 572.17 1.83418 0.525585 0
M  V30 6158 C 569.31 3.41475 0.49889 0
M  V30 6159 C 568.423 4.2993 -0.422373 0
M  V30 6160 C 567.558 5.29743 0.393111 0
M  V30 6161 C 566.597 6.09842 -0.525317 0
M  V30 6162 N 565.734 7.01643 0.253208 0
M  V30 6163 H 570.574 2.75631 -1.13276 0
M  V30 6164 H 568.111 1.35606 -0.570026 0
M  V30 6165 H 570.069 4.05531 0.979826 0
M  V30 6166 H 568.699 2.95779 1.29284 0
M  V30 6167 H 567.751 3.66422 -1.02171 0
M  V30 6168 H 569.063 4.85899 -1.12709 0
M  V30 6169 H 568.217 5.9942 0.937056 0
M  V30 6170 H 566.956 4.744 1.13117 0
M  V30 6171 H 565.961 5.39066 -1.08112 0
M  V30 6172 H 567.186 6.6727 -1.26205 0
M  V30 6173 H 565.132 6.48725 0.974295 0
M  V30 6174 H 565.049 7.54981 -0.392398 0
M  V30 6175 H 566.317 7.756 0.778761 0
M  V30 6176 N 570.547 0.616602 1.45037 0
M  V30 6177 C 571.775 0.121968 2.0654 0
M  V30 6178 C 572.19 -1.19743 1.45969 0
M  V30 6179 O 571.547 -1.73133 0.577168 0
M  V30 6180 C 571.598 -0.0145171 3.61497 0
M  V30 6181 O 571.319 1.25269 4.19809 0
M  V30 6182 C 572.82 -0.539555 4.40004 0
M  V30 6183 H 570.04 0.0729837 0.667019 0
M  V30 6184 H 572.584 0.846891 1.8614 0
M  V30 6185 H 570.739 -0.689809 3.81209 0
M  V30 6186 H 571.153 1.08816 5.13088 0
M  V30 6187 H 572.627 -0.584112 5.48901 0
M  V30 6188 H 573.104 -1.56368 4.10421 0
M  V30 6189 H 573.71 0.101995 4.25178 0
M  V30 6190 N 572.025 -1.5352 0.356285 0
M  V30 6191 C 573.25 -2.06007 -0.239961 0
M  V30 6192 C 573.675 -1.22872 -1.42422 0
M  V30 6193 O 573.033 -0.245516 -1.7963 0
M  V30 6194 C 573.081 -3.5522 -0.620587 0
M  V30 6195 O 572.185 -3.74864 -1.71902 0
M  V30 6196 H 571.526 -0.662961 -0.0371377 0
M  V30 6197 H 574.056 -1.98033 0.514194 0
M  V30 6198 H 574.066 -3.98081 -0.894197 0
M  V30 6199 H 572.741 -4.15175 0.245407 0
M  V30 6200 H 571.318 -3.43904 -1.44169 0
M  V30 6201 N 573.503 -0.0852151 -1.57369 0
M  V30 6202 C 574.78 0.622534 -1.85429 0
M  V30 6203 C 575.16 1.86962 -0.980229 0
M  V30 6204 O 574.508 2.28445 -0.0500219 0
M  V30 6205 C 574.718 0.947374 -3.35896 0
M  V30 6206 C 576.066 1.31509 -4.03721 0
M  V30 6207 O 577.09 1.03869 -3.40719 0
M  V30 6208 O 575.949 1.83231 -5.14868 0
M  V30 6209 H 573.043 0.310513 -0.766492 0
M  V30 6210 H 575.589 -0.117164 -1.69295 0
M  V30 6211 H 574.361 0.0622264 -3.91251 0
M  V30 6212 H 573.984 1.74338 -3.5734 0
M  V30 6213 N 574.981 1.5647 0.188427 0
M  V30 6214 C 575.928 1.95073 1.23349 0
M  V30 6215 C 576.898 0.812238 1.44886 0
M  V30 6216 O 578.083 1.07095 1.57909 0
M  V30 6217 C 575.223 2.30124 2.57171 0
M  V30 6218 C 574.336 3.57069 2.43157 0
M  V30 6219 C 573.471 3.81411 3.69729 0
M  V30 6220 C 572.51 5.0176 3.50575 0
M  V30 6221 N 571.647 5.22321 4.69175 0
M  V30 6222 H 576.487 2.84171 0.89728 0
M  V30 6223 H 574.024 1.40623 0.431683 0
M  V30 6224 H 575.982 2.48463 3.35145 0
M  V30 6225 H 574.612 1.44159 2.88822 0
M  V30 6226 H 573.664 3.4674 1.56447 0
M  V30 6227 H 574.976 4.452 2.24942 0
M  V30 6228 H 574.13 4.00026 4.56141 0
M  V30 6229 H 572.869 2.91624 3.90905 0
M  V30 6230 H 571.874 4.83061 2.62549 0
M  V30 6231 H 573.099 5.93063 3.30837 0
M  V30 6232 H 571.045 4.35483 4.90602 0
M  V30 6233 H 570.962 6.04643 4.53809 0
M  V30 6234 H 572.23 5.45401 5.56919 0
M  V30 6235 N 576.459 -0.456382 1.50847 0
M  V30 6236 C 577.706 -1.20736 1.62571 0
M  V30 6237 C 578.034 -1.9163 0.332904 0
M  V30 6238 O 577.289 -1.8343 -0.682058 0
M  V30 6239 C 577.588 -2.26336 2.76599 0
M  V30 6240 C 577.254 -1.7259 4.16562 0
M  V30 6241 C 575.916 -1.57654 4.54641 0
M  V30 6242 C 578.268 -1.32877 5.03977 0
M  V30 6243 C 575.596 -1.0145 5.77862 0
M  V30 6244 C 577.948 -0.7811 6.27759 0
M  V30 6245 C 576.612 -0.618488 6.64628 0
M  V30 6246 H 575.882 -0.441803 0.594888 0
M  V30 6247 H 578.529 -0.501169 1.84826 0
M  V30 6248 H 576.834 -3.0292 2.48489 0
M  V30 6249 H 578.531 -2.84227 2.82871 0
M  V30 6250 H 575.121 -1.85187 3.86528 0
M  V30 6251 H 579.305 -1.43245 4.75179 0
M  V30 6252 H 574.561 -0.876109 6.0509 0
M  V30 6253 H 578.735 -0.464783 6.94847 0
M  V30 6254 H 576.362 -0.180838 7.59985 0
M  V30 6255 N 577.937 -1.40673 -0.710563 0
M  V30 6256 C 578.884 -1.41336 -1.82463 0
M  V30 6257 C 579.854 -0.269648 -1.63897 0
M  V30 6258 O 581.039 -0.468463 -1.8496 0
M  V30 6259 C 578.179 -1.28665 -3.20218 0
M  V30 6260 C 577.292 -2.52784 -3.5032 0
M  V30 6261 C 576.427 -2.32517 -4.77608 0
M  V30 6262 C 575.466 -3.52187 -5.0063 0
M  V30 6263 N 574.603 -3.31084 -6.19135 0
M  V30 6264 H 579.443 -2.36558 -1.8123 0
M  V30 6265 H 576.98 -1.17483 -0.885226 0
M  V30 6266 H 578.938 -1.19324 -3.99772 0
M  V30 6267 H 577.568 -0.370602 -3.20666 0
M  V30 6268 H 576.62 -2.72634 -2.65283 0
M  V30 6269 H 577.932 -3.41845 -3.63241 0
M  V30 6270 H 577.086 -2.20558 -5.65189 0
M  V30 6271 H 575.825 -1.40889 -4.66906 0
M  V30 6272 H 574.83 -3.64617 -4.11502 0
M  V30 6273 H 576.055 -4.44749 -5.13201 0
M  V30 6274 H 574.001 -2.42143 -6.09674 0
M  V30 6275 H 573.918 -4.13713 -6.32754 0
M  V30 6276 H 575.186 -3.22868 -7.0949 0
M  V30 6277 N 579.415 0.9433 -1.26252 0
M  V30 6278 C 580.662 1.68925 -1.11672 0
M  V30 6279 C 580.99 1.91499 0.340329 0
M  V30 6280 O 580.245 1.49189 1.26653 0
M  V30 6281 C 580.544 3.07073 -1.82868 0
M  V30 6282 C 580.21 3.04262 -3.32769 0
M  V30 6283 C 578.872 3.03203 -3.7366 0
M  V30 6284 C 581.224 2.96729 -4.28487 0
M  V30 6285 C 578.552 2.92373 -5.0866 0
M  V30 6286 C 580.904 2.87442 -5.63525 0
M  V30 6287 C 579.568 2.84724 -6.03729 0
M  V30 6288 H 578.838 0.618141 -0.408635 0
M  V30 6289 H 581.485 1.10124 -1.56668 0
M  V30 6290 H 579.79 3.69486 -1.30335 0
M  V30 6291 H 581.487 3.63635 -1.69029 0
M  V30 6292 H 578.077 3.05865 -3.00241 0
M  V30 6293 H 582.261 2.96658 -3.97879 0
M  V30 6294 H 577.517 2.88645 -5.38975 0
M  V30 6295 H 581.691 2.80576 -6.37377 0
M  V30 6296 H 579.318 2.76089 -7.08293 0
M  V30 6297 N 580.893 1.08022 1.14757 0
M  V30 6298 C 582.139 0.808705 1.85978 0
M  V30 6299 C 582.472 -0.663764 1.82504 0
M  V30 6300 O 581.747 -1.48765 1.25296 0
M  V30 6301 C 582.03 1.32623 3.34788 0
M  V30 6302 C 581.883 2.86375 3.46856 0
M  V30 6303 C 583.202 0.948291 4.29762 0
M  V30 6304 H 580.321 0.295244 0.675278 0
M  V30 6305 H 582.963 1.33917 1.34783 0
M  V30 6306 H 581.113 0.875002 3.78518 0
M  V30 6307 H 582.785 3.39839 3.11941 0
M  V30 6308 H 581.028 3.24232 2.88194 0
M  V30 6309 H 581.699 3.17658 4.51439 0
M  V30 6310 H 584.175 1.33722 3.94028 0
M  V30 6311 H 583.051 1.33765 5.32352 0
M  V30 6312 H 583.312 -0.145094 4.41862 0
M  V30 6313 N 582.371 -1.3172 0.865308 0
M  V30 6314 C 583.618 -1.96876 0.473931 0
M  V30 6315 C 583.946 -1.68425 -0.972786 0
M  V30 6316 O 583.201 -0.970742 -1.69927 0
M  V30 6317 C 583.5 -3.5102 0.672283 0
M  V30 6318 C 583.166 -3.9948 2.09108 0
M  V30 6319 C 581.828 -4.12425 2.4791 0
M  V30 6320 C 584.18 -4.2503 3.0166 0
M  V30 6321 C 581.508 -4.48267 3.78515 0
M  V30 6322 C 583.86 -4.62335 4.31774 0
M  V30 6323 C 582.524 -4.73486 4.70497 0
M  V30 6324 H 581.794 -0.72042 0.173424 0
M  V30 6325 H 584.441 -1.56937 1.0974 0
M  V30 6326 H 582.746 -3.91785 -0.034356 0
M  V30 6327 H 584.443 -3.99475 0.349353 0
M  V30 6328 H 581.033 -3.89898 1.77981 0
M  V30 6329 H 585.217 -4.14529 2.7291 0
M  V30 6330 H 580.473 -4.55097 4.08285 0
M  V30 6331 H 584.647 -4.81058 5.03543 0
M  V30 6332 H 582.274 -5.01016 5.71741 0
M  V30 6333 N 583.85 -0.624285 -1.44708 0
M  V30 6334 C 585.266 -0.289322 -1.56956 0
M  V30 6335 C 585.466 1.20773 -1.61295 0
M  V30 6336 O 584.522 1.9915 -1.55227 0
M  V30 6337 C 585.835 -0.975215 -2.84447 0
M  V30 6338 C 587.383 -0.952709 -2.98148 0
M  V30 6339 C 587.858 -1.61893 -4.28433 0
M  V30 6340 N 589.349 -1.5852 -4.35231 0
M  V30 6341 C 590.084 -2.06969 -5.34744 0
M  V30 6342 N 589.58 -2.63579 -6.40701 0
M  V30 6343 N 591.373 -1.97638 -5.26209 0
M  V30 6344 H 583.524 -1.59612 -1.40135 0
M  V30 6345 H 585.787 -0.669592 -0.671081 0
M  V30 6346 H 585.493 -2.02999 -2.87201 0
M  V30 6347 H 585.367 -0.508749 -3.73753 0
M  V30 6348 H 587.754 0.093568 -2.94952 0
M  V30 6349 H 587.835 -1.4576 -2.10209 0
M  V30 6350 H 587.479 -2.66463 -4.32389 0
M  V30 6351 H 587.409 -1.08893 -5.15218 0
M  V30 6352 H 589.899 -1.17183 -3.59272 0
M  V30 6353 H 590.213 -2.98298 -7.12908 0
M  V30 6354 H 588.558 -2.67626 -6.41406 0
M  V30 6355 H 591.749 -1.5314 -4.42341 0
M  V30 6356 H 591.922 -2.35708 -6.03611 0
M  V30 6357 N 585.328 1.53329 -0.364422 0
M  V30 6358 C 586.238 2.29414 0.490552 0
M  V30 6359 C 587.254 1.35335 1.09363 0
M  V30 6360 O 588.43 1.68391 1.10483 0
M  V30 6361 C 585.495 3.06772 1.61529 0
M  V30 6362 C 584.556 4.16516 1.03986 0
M  V30 6363 C 583.789 4.90176 2.111 0
M  V30 6364 O 584.012 4.63687 3.32191 0
M  V30 6365 O 582.946 5.76134 1.74222 0
M  V30 6366 H 586.772 3.03428 -0.12856 0
M  V30 6367 H 584.357 1.48843 -0.128837 0
M  V30 6368 H 586.239 3.55082 2.26924 0
M  V30 6369 H 584.914 2.35596 2.21983 0
M  V30 6370 H 583.821 3.7246 0.349856 0
M  V30 6371 H 585.154 4.89855 0.4799 0
M  V30 6372 N 586.806 0.0935595 1.57322 0
M  V30 6373 C 587.753 -0.865935 2.1394 0
M  V30 6374 C 588.723 -1.28083 1.05754 0
M  V30 6375 O 589.908 -1.36285 1.33533 0
M  V30 6376 C 587.048 -2.12023 2.72287 0
M  V30 6377 C 586.161 -1.756 3.94701 0
M  V30 6378 C 585.296 -2.95804 4.41218 0
M  V30 6379 C 584.335 -2.555 5.56225 0
M  V30 6380 N 583.472 -3.68534 5.97601 0
M  V30 6381 H 588.312 -0.376261 2.95615 0
M  V30 6382 H 585.849 -0.174052 1.46067 0
M  V30 6383 H 587.807 -2.85477 3.04235 0
M  V30 6384 H 586.437 -2.58492 1.93343 0
M  V30 6385 H 585.489 -0.921208 3.69077 0
M  V30 6386 H 586.801 -1.41964 4.78171 0
M  V30 6387 H 585.955 -3.77513 4.74941 0
M  V30 6388 H 584.694 -3.32649 3.56645 0
M  V30 6389 H 583.699 -1.72218 5.22131 0
M  V30 6390 H 584.924 -2.19801 6.42545 0
M  V30 6391 H 582.87 -4.051 5.15974 0
M  V30 6392 H 582.787 -3.38737 6.75865 0
M  V30 6393 H 584.055 -4.50757 6.35955 0
M  V30 6394 N 588.284 -1.56567 -0.180126 0
M  V30 6395 C 589.217 -1.90813 -1.25163 0
M  V30 6396 C 590.195 -0.7699 -1.43218 0
M  V30 6397 O 591.379 -1.02236 -1.58367 0
M  V30 6398 C 588.506 -2.15138 -2.61597 0
M  V30 6399 C 587.552 -3.37834 -2.60328 0
M  V30 6400 S 588.385 -4.92486 -2.1028 0
M  V30 6401 C 589.541 -5.19896 -3.48509 0
M  V30 6402 H 589.774 -2.81398 -0.959283 0
M  V30 6403 H 587.307 -1.49541 -0.3843 0
M  V30 6404 H 589.265 -2.29835 -3.40127 0
M  V30 6405 H 587.926 -1.25276 -2.88036 0
M  V30 6406 H 587.119 -3.52027 -3.60684 0
M  V30 6407 H 586.721 -3.22208 -1.8989 0
M  V30 6408 H 589.013 -5.11334 -4.44459 0
M  V30 6409 H 589.956 -6.21571 -3.39198 0
M  V30 6410 H 590.364 -4.47489 -3.44114 0
M  V30 6411 N 589.762 0.448376 -1.51087 0
M  V30 6412 C 591.01 1.19635 -1.62886 0
M  V30 6413 C 591.331 1.91977 -0.342024 0
M  V30 6414 O 590.601 1.85094 0.641636 0
M  V30 6415 H 589.181 0.444598 -0.600285 0
M  V30 6416 H 591.843 0.515138 -1.87969 0
M  V30 6417 H 590.939 1.93194 -2.45117 0
M  V30 6418 N 591.24 1.41047 0.703093 0
M  V30 6419 C 592.656 1.23351 1.01275 0
M  V30 6420 C 592.856 0.11754 2.01157 0
M  V30 6421 O 591.912 -0.520518 2.47077 0
M  V30 6422 C 593.225 2.58001 1.54454 0
M  V30 6423 C 594.773 2.65119 1.66376 0
M  V30 6424 C 595.248 4.00067 2.22958 0
M  V30 6425 N 596.739 4.01875 2.30328 0
M  V30 6426 C 597.474 5.03087 2.75119 0
M  V30 6427 N 596.97 6.14692 3.19571 0
M  V30 6428 N 598.763 4.90451 2.74616 0
M  V30 6429 H 590.914 2.1236 0.0412686 0
M  V30 6430 H 593.177 0.944543 0.08089 0
M  V30 6431 H 592.883 3.40378 0.88521 0
M  V30 6432 H 592.757 2.79962 2.52786 0
M  V30 6433 H 595.144 1.83106 2.31422 0
M  V30 6434 H 595.225 2.46975 0.666089 0
M  V30 6435 H 594.869 4.82526 1.58529 0
M  V30 6436 H 594.799 4.15547 3.23462 0
M  V30 6437 H 597.29 3.21291 1.98949 0
M  V30 6438 H 597.603 6.87799 3.52352 0
M  V30 6439 H 595.948 6.18239 3.17498 0
M  V30 6440 H 599.139 4.0235 2.39233 0
M  V30 6441 H 599.312 5.6947 3.09206 0
M  V30 6442 N 592.718 -0.936591 1.26751 0
M  V30 6443 C 593.967 -1.67778 1.11953 0
M  V30 6444 C 594.28 -1.92694 -0.33589 0
M  V30 6445 O 595.486 -2.64682 -0.604618 0
M  V30 6446 C 593.942 -3.02138 1.95551 0
M  V30 6447 C 593.55 -2.84953 3.45696 0
M  V30 6448 C 595.294 -3.79917 1.89377 0
M  V30 6449 C 593.201 -4.14814 4.21525 0
M  V30 6450 H 592.131 -0.629275 0.415366 0
M  V30 6451 H 594.782 -1.04122 1.51099 0
M  V30 6452 H 593.164 -3.668 1.49243 0
M  V30 6453 H 594.338 -2.29112 3.99805 0
M  V30 6454 H 592.653 -2.20612 3.53156 0
M  V30 6455 H 595.25 -4.76134 2.43312 0
M  V30 6456 H 595.593 -4.07204 0.865464 0
M  V30 6457 H 596.126 -3.22037 2.33532 0
M  V30 6458 H 592.865 -3.92709 5.24843 0
M  V30 6459 H 592.385 -4.70352 3.72195 0
M  V30 6460 H 594.064 -4.83239 4.3022 0
M  V30 6461 N 594.196 -1.08629 -1.14182 0
M  V30 6462 C 595.442 -0.818556 -1.85546 0
M  V30 6463 C 595.775 0.654076 -1.82854 0
M  V30 6464 O 595.05 1.48099 -1.26083 0
M  V30 6465 C 595.333 -1.34397 -3.3408 0
M  V30 6466 C 595.186 -2.8821 -3.45333 0
M  V30 6467 C 596.505 -0.971069 -4.29253 0
M  V30 6468 H 593.624 -0.298821 -0.673702 0
M  V30 6469 H 596.266 -1.34629 -1.34071 0
M  V30 6470 H 594.416 -0.895064 -3.78049 0
M  V30 6471 H 596.088 -3.41488 -3.10134 0
M  V30 6472 H 594.331 -3.25756 -2.86471 0
M  V30 6473 H 595.002 -3.20047 -4.49749 0
M  V30 6474 H 597.478 -1.35809 -3.93313 0
M  V30 6475 H 596.354 -1.36586 -5.31635 0
M  V30 6476 H 596.615 0.121659 -4.41933 0
M  V30 6477 N 595.674 1.31259 -0.872281 0
M  V30 6478 C 596.951 1.91362 -0.404943 0
M  V30 6479 C 597.331 1.79362 1.11321 0
M  V30 6480 O 596.679 1.20277 1.94283 0
M  V30 6481 C 596.889 3.3749 -0.888893 0
M  V30 6482 C 598.237 4.14593 -0.916384 0
M  V30 6483 O 599.261 3.46282 -0.834701 0
M  V30 6484 O 598.12 5.3661 -1.03498 0
M  V30 6485 H 595.214 0.818016 -0.121569 0
M  V30 6486 H 597.76 1.39912 -0.960346 0
M  V30 6487 H 596.532 3.40249 -1.93251 0
M  V30 6488 H 596.155 3.96375 -0.311932 0
M  V30 6489 N 597.152 0.631951 1.44375 0
M  V30 6490 C 598.382 0.143658 2.061 0
M  V30 6491 C 598.79 -1.18733 1.47306 0
M  V30 6492 O 598.133 -1.73943 0.590724 0
M  V30 6493 C 598.195 -0.0446102 3.59472 0
M  V30 6494 C 597.859 1.20835 4.40736 0
M  V30 6495 C 598.856 2.13224 4.74164 0
M  V30 6496 C 596.541 1.44399 4.81097 0
M  V30 6497 C 598.535 3.27487 5.46838 0
M  V30 6498 C 596.222 2.58959 5.53519 0
M  V30 6499 C 597.22 3.50329 5.86309 0
M  V30 6500 O 596.908 4.62891 6.57257 0
M  V30 6501 H 596.64 0.0772939 0.671567 0
M  V30 6502 H 599.194 0.866677 1.8622 0
M  V30 6503 H 597.424 -0.822783 3.77845 0
M  V30 6504 H 599.113 -0.487561 4.02961 0
M  V30 6505 H 599.879 1.96253 4.4352 0
M  V30 6506 H 595.758 0.741696 4.54994 0
M  V30 6507 H 599.302 3.98826 5.72349 0
M  V30 6508 H 595.199 2.75873 5.83579 0
M  V30 6509 H 595.967 4.61883 6.75726 0
M  V30 6510 N 598.631 -1.53133 0.372548 0
M  V30 6511 C 599.878 -2.01356 -0.214959 0
M  V30 6512 C 600.206 -1.2596 -1.48204 0
M  V30 6513 O 599.461 -0.343511 -1.92662 0
M  V30 6514 C 599.76 -3.53206 -0.545938 0
M  V30 6515 C 599.426 -4.46511 0.627624 0
M  V30 6516 C 598.088 -4.71737 0.949615 0
M  V30 6517 C 600.44 -5.01666 1.41353 0
M  V30 6518 C 597.768 -5.4937 2.05936 0
M  V30 6519 C 600.12 -5.80511 2.51375 0
M  V30 6520 C 598.784 -6.04022 2.84101 0
M  V30 6521 H 598.054 -0.736813 -0.078659 0
M  V30 6522 H 600.701 -1.84682 0.506447 0
M  V30 6523 H 599.006 -3.67864 -1.34845 0
M  V30 6524 H 600.703 -3.87997 -1.01287 0
M  V30 6525 H 597.293 -4.27029 0.366635 0
M  V30 6526 H 601.477 -4.82117 1.17802 0
M  V30 6527 H 596.733 -5.65803 2.31682 0
M  V30 6528 H 600.907 -6.22255 3.12684 0
M  V30 6529 H 598.534 -6.63962 3.70214 0
M  V30 6530 N 600.109 -0.101901 -1.5727 0
M  V30 6531 C 601.337 0.568392 -1.98939 0
M  V30 6532 C 601.752 1.61301 -0.981194 0
M  V30 6533 O 601.109 1.82478 0.0282869 0
M  V30 6534 C 601.16 1.20997 -3.40649 0
M  V30 6535 O 600.881 0.207129 -4.3761 0
M  V30 6536 C 602.382 1.96523 -3.97358 0
M  V30 6537 H 599.602 0.15186 -0.65359 0
M  V30 6538 H 602.146 -0.183198 -2.03678 0
M  V30 6539 H 600.301 1.91245 -3.36904 0
M  V30 6540 H 600.715 0.671071 -5.20189 0
M  V30 6541 H 602.189 2.36764 -4.98645 0
M  V30 6542 H 602.666 2.83376 -3.35552 0
M  V30 6543 H 603.272 1.31076 -4.04598 0
M  V30 6544 N 601.587 1.56661 0.17182 0
M  V30 6545 C 602.836 1.81158 0.886831 0
M  V30 6546 C 603.149 0.679072 1.83434 0
M  V30 6547 O 604.355 0.808964 2.59168 0
M  V30 6548 C 602.811 3.20999 1.6275 0
M  V30 6549 C 602.419 4.42117 0.723652 0
M  V30 6550 C 604.163 3.5479 2.33076 0
M  V30 6551 C 602.07 5.7298 1.46452 0
M  V30 6552 H 601 0.675543 0.334899 0
M  V30 6553 H 603.651 1.82967 0.139765 0
M  V30 6554 H 602.033 3.13506 2.4193 0
M  V30 6555 H 603.207 4.60789 -0.0311485 0
M  V30 6556 H 601.522 4.16197 0.130063 0
M  V30 6557 H 604.119 4.49806 2.89099 0
M  V30 6558 H 604.462 2.79646 3.08389 0
M  V30 6559 H 604.995 3.63834 1.6084 0
M  V30 6560 H 601.734 6.51152 0.753729 0
M  V30 6561 H 601.254 5.58285 2.19266 0
M  V30 6562 H 602.933 6.14916 2.01214 0
M  V30 6563 N 603.065 -0.440357 1.51323 0
M  V30 6564 C 603.997 -1.55254 1.68609 0
M  V30 6565 C 605.01 -1.52614 0.566812 0
M  V30 6566 O 606.199 -1.57445 0.841032 0
M  V30 6567 C 603.299 -2.94169 1.68279 0
M  V30 6568 C 602.472 -3.21346 2.96742 0
M  V30 6569 C 601.531 -4.3997 2.8864 0
M  V30 6570 O 600.557 -4.38771 3.62586 0
M  V30 6571 N 601.759 -5.43367 2.04285 0
M  V30 6572 H 604.524 -1.40831 2.6455 0
M  V30 6573 H 602.085 -0.629251 1.49171 0
M  V30 6574 H 604.077 -3.71543 1.60431 0
M  V30 6575 H 602.647 -3.02205 0.799441 0
M  V30 6576 H 601.867 -2.32299 3.18482 0
M  V30 6577 H 603.155 -3.3633 3.81785 0
M  V30 6578 H 602.553 -5.47176 1.43578 0
M  V30 6579 H 601.11 -6.19605 2.02318 0
M  V30 6580 N 604.543 -1.41418 -0.695603 0
M  V30 6581 C 605.491 -1.43467 -1.83084 0
M  V30 6582 C 606.485 -0.312719 -1.66489 0
M  V30 6583 O 607.691 -0.484744 -1.7335 0
M  V30 6584 H 604.066 -0.448891 -0.603325 0
M  V30 6585 H 606.037 -2.39144 -1.78473 0
M  V30 6586 C 604.786 -1.3337 -3.21104 0
M  V30 6587 H 604.109 -2.18989 -3.3449 0
M  V30 6588 H 605.549 -1.38865 -4.00615 0
M  V30 6589 C 604.008 -0.0460484 -3.36869 0
M  V30 6590 O 604.538 0.909258 -3.91274 0
M  V30 6591 N 602.744 0.0300222 -2.90584 0
M  V30 6592 H 602.291 -0.748129 -2.46497 0
M  V30 6593 H 602.249 0.890991 -3.01511 0
M  V30 6594 N 606.021 0.929856 -1.27246 0
M  V30 6595 C 607.432 1.49223 -1.12203 0
M  V30 6596 C 607.783 1.93989 0.293731 0
M  V30 6597 O 606.908 1.80978 1.18642 0
M  V30 6598 C 607.503 2.71198 -2.0307 0
M  V30 6599 C 606.062 3.23666 -1.92139 0
M  V30 6600 C 605.209 1.96409 -1.95752 0
M  V30 6601 H 608.16 0.744181 -1.4017 0
M  V30 6602 H 608.181 3.45905 -1.58524 0
M  V30 6603 H 607.693 2.38585 -3.06102 0
M  V30 6604 H 605.794 3.61042 -0.920834 0
M  V30 6605 H 605.907 3.90006 -2.78267 0
M  V30 6606 H 604.271 2.12806 -1.39949 0
M  V30 6607 H 605.054 1.66113 -3.00436 0
M  V30 6608 N 607.499 1.09233 1.13605 0
M  V30 6609 C 608.724 0.849067 1.89224 0
M  V30 6610 C 609.149 -0.593875 1.78479 0
M  V30 6611 O 608.507 -1.41703 1.13092 0
M  V30 6612 C 608.555 1.28642 3.36873 0
M  V30 6613 O 607.659 0.44363 4.10007 0
M  V30 6614 H 607 0.30767 0.588417 0
M  V30 6615 H 609.53 1.45595 1.43748 0
M  V30 6616 H 609.54 1.27096 3.87699 0
M  V30 6617 H 608.215 2.33729 3.44011 0
M  V30 6618 H 606.792 0.523241 3.69211 0
M  V30 6619 N 608.977 -1.30795 0.87923 0
M  V30 6620 C 609.925 -2.30231 0.331112 0
M  V30 6621 C 610.919 -1.59918 -0.558794 0
M  V30 6622 O 612.125 -1.74441 -0.443866 0
M  V30 6623 H 608.5 -0.746785 0.088409 0
M  V30 6624 H 610.471 -2.73925 1.18353 0
M  V30 6625 C 609.22 -3.44848 -0.444401 0
M  V30 6626 H 608.543 -3.99131 0.231106 0
M  V30 6627 H 609.983 -4.16516 -0.793109 0
M  V30 6628 C 608.442 -2.94329 -1.63926 0
M  V30 6629 O 608.972 -2.93875 -2.73862 0
M  V30 6630 N 607.178 -2.50413 -1.4745 0
M  V30 6631 H 606.725 -2.50982 -0.58015 0
M  V30 6632 H 606.683 -2.16969 -2.27534 0
M  V30 6633 N 610.455 -0.639598 -1.44038 0
M  V30 6634 C 611.701 -0.147698 -2.02261 0
M  V30 6635 C 612.034 1.23031 -1.50256 0
M  V30 6636 O 611.309 1.81847 -0.690068 0
M  V30 6637 C 611.592 -0.14362 -3.59813 0
M  V30 6638 C 611.445 -1.55458 -4.22082 0
M  V30 6639 C 612.764 0.527317 -4.36929 0
M  V30 6640 H 609.883 -0.0551453 -0.734934 0
M  V30 6641 H 612.525 -0.817688 -1.71505 0
M  V30 6642 H 610.675 0.426898 -3.86147 0
M  V30 6643 H 612.347 -2.17464 -4.06826 0
M  V30 6644 H 610.59 -2.10594 -3.79253 0
M  V30 6645 H 611.261 -1.50369 -5.31124 0
M  V30 6646 H 613.737 0.0420504 -4.16079 0
M  V30 6647 H 612.613 0.499389 -5.46624 0
M  V30 6648 H 612.874 1.59914 -4.12165 0
M  V30 6649 N 611.933 1.52934 -0.380664 0
M  V30 6650 C 613.21 1.93845 0.261417 0
M  V30 6651 C 613.59 1.31544 1.65104 0
M  V30 6652 O 612.938 0.480234 2.23397 0
M  V30 6653 C 613.148 3.47739 0.296466 0
M  V30 6654 C 614.496 4.21284 0.529578 0
M  V30 6655 O 615.52 3.54199 0.377041 0
M  V30 6656 O 614.379 5.40195 0.827753 0
M  V30 6657 H 611.473 0.811318 0.160285 0
M  V30 6658 H 614.019 1.64042 -0.434544 0
M  V30 6659 H 612.791 3.85395 -0.67724 0
M  V30 6660 H 612.414 3.8382 1.0377 0
M  V30 6661 N 613.412 0.11024 1.57214 0
M  V30 6662 C 614.362 -0.854147 2.11396 0
M  V30 6663 C 615.346 -1.23394 1.03261 0
M  V30 6664 O 616.538 -1.20649 1.2951 0
M  V30 6665 C 613.667 -2.10752 2.70995 0
M  V30 6666 C 612.753 -1.75249 3.86198 0
M  V30 6667 N 613.144 -1.10377 4.9361 0
M  V30 6668 C 611.442 -2.04763 3.96217 0
M  V30 6669 C 612.143 -0.938199 5.74084 0
M  V30 6670 N 611.119 -1.46039 5.23616 0
M  V30 6671 H 614.921 -0.348897 2.91822 0
M  V30 6672 H 612.435 -0.0925071 1.62136 0
M  V30 6673 H 614.432 -2.80801 3.0815 0
M  V30 6674 H 613.092 -2.61829 1.9203 0
M  V30 6675 H 614.103 -0.768785 5.12162 0
M  V30 6676 H 610.78 -2.57948 3.28282 0
M  V30 6677 H 612.17 -0.429678 6.70525 0
M  V30 6678 N 614.89 -1.56749 -0.16351 0
M  V30 6679 C 616.12 -1.86307 -0.892936 0
M  V30 6680 C 616.528 -0.6945 -1.75992 0
M  V30 6681 O 615.871 0.345384 -1.80424 0
M  V30 6682 C 615.933 -3.10372 -1.81409 0
M  V30 6683 C 615.597 -4.42913 -1.12593 0
M  V30 6684 C 616.594 -5.17608 -0.487661 0
M  V30 6685 C 614.279 -4.89646 -1.12035 0
M  V30 6686 C 616.273 -6.3723 0.14699 0
M  V30 6687 C 613.96 -6.09197 -0.481883 0
M  V30 6688 C 614.958 -6.82834 0.150678 0
M  V30 6689 O 614.646 -8.00116 0.779065 0
M  V30 6690 H 614.378 -0.622126 -0.264452 0
M  V30 6691 H 616.932 -2.04728 -0.166063 0
M  V30 6692 H 615.162 -2.87917 -2.58148 0
M  V30 6693 H 616.851 -3.26312 -2.41403 0
M  V30 6694 H 617.617 -4.8258 -0.483888 0
M  V30 6695 H 613.496 -4.32265 -1.60212 0
M  V30 6696 H 617.04 -6.94646 0.641325 0
M  V30 6697 H 612.937 -6.43688 -0.483266 0
M  V30 6698 H 613.705 -8.15678 0.679089 0
M  V30 6699 N 616.368 0.432326 -1.51554 0
M  V30 6700 C 617.593 1.20824 -1.68571 0
M  V30 6701 C 618.018 1.84126 -0.384596 0
M  V30 6702 O 617.376 1.69025 0.655751 0
M  V30 6703 C 617.424 2.26429 -2.80646 0
M  V30 6704 O 616.528 3.32032 -2.44598 0
M  V30 6705 H 615.869 0.353765 -0.561913 0
M  V30 6706 H 618.399 0.509916 -1.98144 0
M  V30 6707 H 618.409 2.71133 -3.04878 0
M  V30 6708 H 617.084 1.79733 -3.75058 0
M  V30 6709 H 615.661 2.92769 -2.30956 0
M  V30 6710 N 617.846 1.41785 0.688094 0
M  V30 6711 C 618.793 1.44221 1.80191 0
M  V30 6712 C 619.763 0.295688 1.63447 0
M  V30 6713 O 620.948 0.49783 1.84191 0
M  V30 6714 C 618.088 1.33743 3.1813 0
M  V30 6715 C 617.201 2.58325 3.46254 0
M  V30 6716 C 616.336 2.40086 4.73848 0
M  V30 6717 C 615.375 3.60107 4.94964 0
M  V30 6718 N 614.512 3.40892 6.13789 0
M  V30 6719 H 619.352 2.39411 1.77444 0
M  V30 6720 H 616.889 1.18876 0.866423 0
M  V30 6721 H 618.847 1.25669 3.97823 0
M  V30 6722 H 617.477 0.42157 3.20035 0
M  V30 6723 H 616.529 2.7682 2.60912 0
M  V30 6724 H 617.841 3.4758 3.57756 0
M  V30 6725 H 616.995 2.29522 5.61609 0
M  V30 6726 H 615.734 1.483 4.64606 0
M  V30 6727 H 614.739 3.71118 4.05649 0
M  V30 6728 H 615.964 4.52857 5.06061 0
M  V30 6729 H 613.91 2.51812 6.05745 0
M  V30 6730 H 613.827 4.23727 6.26092 0
M  V30 6731 H 615.095 3.34114 7.04264 0
M  V30 6732 N 619.324 -0.923095 1.27737 0
M  V30 6733 C 620.254 -2.04124 1.13383 0
M  V30 6734 C 621.235 -1.70066 0.0340658 0
M  V30 6735 O 622.42 -1.93068 0.209383 0
M  V30 6736 C 619.55 -3.3831 0.785097 0
M  V30 6737 C 618.504 -3.86496 1.8386 0
M  V30 6738 C 617.83 -5.1754 1.34373 0
M  V30 6739 C 619.13 -4.09381 3.24353 0
M  V30 6740 H 620.824 -2.1639 2.06919 0
M  V30 6741 H 618.37 -1.03976 0.996243 0
M  V30 6742 H 620.323 -4.16016 0.671485 0
M  V30 6743 H 619.047 -3.2607 -0.185969 0
M  V30 6744 H 617.706 -3.10987 1.9412 0
M  V30 6745 H 617.354 -5.01696 0.361989 0
M  V30 6746 H 617.054 -5.50751 2.04811 0
M  V30 6747 H 618.578 -5.97811 1.24315 0
M  V30 6748 H 619.992 -4.77641 3.17067 0
M  V30 6749 H 618.389 -4.53906 3.92542 0
M  V30 6750 H 619.459 -3.14515 3.69064 0
M  V30 6751 N 620.802 -1.09834 -1.13024 0
M  V30 6752 C 621.732 -0.763451 -2.20666 0
M  V30 6753 C 622.713 0.260778 -1.68089 0
M  V30 6754 O 623.898 0.127915 -1.93778 0
M  V30 6755 C 621.028 -0.187744 -3.46792 0
M  V30 6756 C 619.982 -1.14196 -4.12484 0
M  V30 6757 C 619.308 -0.427755 -5.32986 0
M  V30 6758 C 620.608 -2.48607 -4.59338 0
M  V30 6759 H 622.302 -1.66347 -2.48936 0
M  V30 6760 H 619.848 -0.801261 -1.19649 0
M  V30 6761 H 621.801 0.0586375 -4.21359 0
M  V30 6762 H 620.525 0.747485 -3.17931 0
M  V30 6763 H 619.184 -1.37369 -3.3989 0
M  V30 6764 H 618.832 0.511747 -5.0039 0
M  V30 6765 H 618.532 -1.06403 -5.77886 0
M  V30 6766 H 620.056 -0.189772 -6.10305 0
M  V30 6767 H 621.47 -2.29618 -5.25308 0
M  V30 6768 H 619.867 -3.08062 -5.14993 0
M  V30 6769 H 620.937 -3.09062 -3.73642 0
M  V30 6770 N 622.28 1.30327 -0.886154 0
M  V30 6771 C 623.527 1.96097 -0.505192 0
M  V30 6772 C 623.855 1.69952 0.945868 0
M  V30 6773 O 623.11 0.997653 1.68361 0
M  V30 6774 C 623.409 3.49906 -0.728042 0
M  V30 6775 C 623.075 3.96103 -2.15437 0
M  V30 6776 C 621.737 4.08428 -2.5444 0
M  V30 6777 C 624.089 4.20177 -3.08384 0
M  V30 6778 C 621.417 4.42189 -3.85598 0
M  V30 6779 C 623.769 4.55407 -4.39075 0
M  V30 6780 C 622.433 4.65941 -4.7797 0
M  V30 6781 H 621.703 0.71757 -0.184863 0
M  V30 6782 H 624.35 1.55171 -1.12223 0
M  V30 6783 H 622.655 3.9179 -0.027978 0
M  V30 6784 H 624.352 3.98869 -0.412862 0
M  V30 6785 H 620.942 3.87017 -1.84162 0
M  V30 6786 H 625.126 4.10134 -2.7947 0
M  V30 6787 H 620.382 4.48544 -4.15473 0
M  V30 6788 H 624.556 4.72986 -5.11133 0
M  V30 6789 H 622.183 4.91856 -5.79639 0
M  V30 6790 N 623.758 0.647228 1.43697 0
M  V30 6791 C 625.169 0.238689 1.85168 0
M  V30 6792 C 625.52 -1.21345 1.54175 0
M  V30 6793 O 624.645 -1.92542 0.987743 0
M  V30 6794 C 625.24 0.426422 3.36106 0
M  V30 6795 C 623.799 0.0722541 3.76331 0
M  V30 6796 C 622.946 0.732153 2.6746 0
M  V30 6797 H 625.897 0.851309 1.33934 0
M  V30 6798 H 625.918 -0.32987 3.79067 0
M  V30 6799 H 625.43 1.48339 3.58632 0
M  V30 6800 H 623.531 -0.982355 3.59417 0
M  V30 6801 H 623.644 0.493541 4.76551 0
M  V30 6802 H 622.008 0.16594 2.54159 0
M  V30 6803 H 622.791 1.79204 2.92816 0
M  V30 6804 N 625.236 -1.5273 0.388769 0
M  V30 6805 C 626.166 -2.29353 -0.438111 0
M  V30 6806 C 627.147 -1.32719 -1.06394 0
M  V30 6807 O 628.332 -1.61612 -1.07681 0
M  V30 6808 C 625.462 -3.09995 -1.56589 0
M  V30 6809 C 624.416 -4.14509 -1.06613 0
M  V30 6810 C 623.742 -4.83372 -2.28594 0
M  V30 6811 C 625.042 -5.22127 -0.134459 0
M  V30 6812 H 626.736 -2.98723 0.201206 0
M  V30 6813 H 624.282 -1.43665 0.0982089 0
M  V30 6814 H 626.235 -3.62357 -2.15118 0
M  V30 6815 H 624.959 -2.38357 -2.23279 0
M  V30 6816 H 623.618 -3.63128 -0.503383 0
M  V30 6817 H 623.266 -4.08283 -2.93792 0
M  V30 6818 H 622.966 -5.54012 -1.95817 0
M  V30 6819 H 624.49 -5.38538 -2.87766 0
M  V30 6820 H 625.904 -5.69851 -0.627914 0
M  V30 6821 H 624.301 -6.00011 0.103534 0
M  V30 6822 H 625.371 -4.77971 0.816798 0
M  V30 6823 N 626.714 -0.118576 -1.57153 0
M  V30 6824 C 627.963 0.539339 -1.94355 0
M  V30 6825 C 628.276 1.67858 -1.00415 0
M  V30 6826 O 629.482 2.39922 -1.27081 0
M  V30 6827 C 627.938 1.01082 -3.45414 0
M  V30 6828 C 627.546 -0.0999402 -4.47889 0
M  V30 6829 C 629.29 1.64013 -3.91535 0
M  V30 6830 C 627.197 0.388212 -5.90124 0
M  V30 6831 H 626.127 0.205247 -0.725527 0
M  V30 6832 H 628.778 -0.19836 -1.82425 0
M  V30 6833 H 627.16 1.80292 -3.52577 0
M  V30 6834 H 628.334 -0.876189 -4.52393 0
M  V30 6835 H 626.649 -0.635885 -4.11516 0
M  V30 6836 H 629.246 2.01649 -4.95219 0
M  V30 6837 H 629.589 2.51836 -3.31488 0
M  V30 6838 H 630.122 0.913439 -3.87171 0
M  V30 6839 H 626.861 -0.453963 -6.53926 0
M  V30 6840 H 626.381 1.13095 -5.89041 0
M  V30 6841 H 628.06 0.849574 -6.41398 0
M  V30 6842 N 628.193 1.56834 0.155195 0
M  V30 6843 C 629.44 1.82898 0.869179 0
M  V30 6844 C 629.768 0.698194 1.81537 0
M  V30 6845 O 629.023 -0.313404 1.93174 0
M  V30 6846 C 629.322 3.15239 1.68402 0
M  V30 6847 C 628.988 4.42123 0.885341 0
M  V30 6848 C 627.65 4.76583 0.664971 0
M  V30 6849 C 630.002 5.20178 0.326234 0
M  V30 6850 C 627.33 5.86566 -0.125346 0
M  V30 6851 C 629.682 6.3099 -0.45108 0
M  V30 6852 C 628.346 6.64006 -0.682102 0
M  V30 6853 H 627.616 0.66927 0.318055 0
M  V30 6854 H 630.263 1.91036 0.133241 0
M  V30 6855 H 628.568 3.02515 2.48982 0
M  V30 6856 H 630.265 3.32618 2.23978 0
M  V30 6857 H 626.855 4.15102 1.06716 0
M  V30 6858 H 631.039 4.93936 0.483787 0
M  V30 6859 H 626.295 6.10594 -0.313915 0
M  V30 6860 H 630.469 6.9067 -0.89149 0
M  V30 6861 H 628.096 7.49065 -1.29636 0
M  V30 6862 N 629.671 -0.424282 1.51781 0
M  V30 6863 C 630.604 -1.53633 1.68737 0
M  V30 6864 C 631.582 -1.53549 0.534915 0
M  V30 6865 O 632.766 -1.72483 0.760391 0
M  V30 6866 C 629.893 -2.92195 1.71288 0
M  V30 6867 C 628.939 -3.10251 2.92654 0
M  V30 6868 S 629.772 -2.85166 4.53256 0
M  V30 6869 C 630.928 -4.25986 4.58571 0
M  V30 6870 H 631.161 -1.39018 2.62795 0
M  V30 6871 H 628.694 -0.614854 1.41629 0
M  V30 6872 H 630.652 -3.72059 1.73443 0
M  V30 6873 H 629.313 -3.04162 0.783847 0
M  V30 6874 H 628.506 -4.1159 2.90877 0
M  V30 6875 H 628.108 -2.38231 2.88308 0
M  V30 6876 H 630.4 -5.19392 4.35015 0
M  V30 6877 H 631.343 -4.32792 5.60444 0
M  V30 6878 H 631.751 -4.1025 3.87757 0
M  V30 6879 N 631.149 -1.42148 -0.680565 0
M  V30 6880 C 632.079 -1.4796 -1.80638 0
M  V30 6881 C 633.06 -0.336728 -1.66734 0
M  V30 6882 O 634.245 -0.550247 -1.86242 0
M  V30 6883 C 631.375 -1.37569 -3.18892 0
M  V30 6884 C 630.329 -2.49823 -3.47524 0
M  V30 6885 C 629.655 -2.24491 -4.85291 0
M  V30 6886 C 630.955 -3.92144 -3.44994 0
M  V30 6887 H 632.649 -2.42184 -1.76032 0
M  V30 6888 H 630.195 -1.16566 -0.845481 0
M  V30 6889 H 632.148 -1.40243 -3.97379 0
M  V30 6890 H 630.872 -0.398357 -3.24162 0
M  V30 6891 H 629.531 -2.46455 -2.71395 0
M  V30 6892 H 629.179 -1.25066 -4.87204 0
M  V30 6893 H 628.879 -2.99722 -5.05411 0
M  V30 6894 H 630.403 -2.28906 -5.66069 0
M  V30 6895 H 631.817 -3.97145 -4.13459 0
M  V30 6896 H 630.214 -4.67179 -3.76648 0
M  V30 6897 H 631.284 -4.19225 -2.43676 0
M  V30 6898 N 632.627 0.916307 -1.28225 0
M  V30 6899 C 633.59 1.99996 -1.11957 0
M  V30 6900 C 634.59 1.60688 -0.0600152 0
M  V30 6901 O 635.78 1.71499 -0.30558 0
M  V30 6902 C 632.912 3.33458 -0.708411 0
M  V30 6903 H 634.105 2.15858 -2.08196 0
M  V30 6904 H 631.658 1.09863 -1.11175 0
M  V30 6905 H 632.393 3.23297 0.254859 0
M  V30 6906 H 632.178 3.63349 -1.47377 0
M  V30 6907 H 633.668 4.13014 -0.617164 0
M  V30 6908 N 634.105 1.10431 1.1244 0
M  V30 6909 C 635.053 0.747974 2.20246 0
M  V30 6910 C 636.047 -0.255848 1.67457 0
M  V30 6911 O 637.253 -0.116221 1.79624 0
M  V30 6912 H 633.628 0.223946 0.71788 0
M  V30 6913 H 635.599 1.6661 2.47556 0
M  V30 6914 C 634.348 0.195957 3.47147 0
M  V30 6915 H 633.671 0.959606 3.88113 0
M  V30 6916 H 635.111 -0.0153154 4.23997 0
M  V30 6917 C 633.57 -1.07132 3.19413 0
M  V30 6918 O 634.1 -2.15284 3.3914 0
M  V30 6919 N 632.306 -0.98994 2.73219 0
M  V30 6920 H 631.853 -0.109736 2.57366 0
M  V30 6921 H 631.811 -1.83856 2.55038 0
M  V30 6922 N 635.583 -1.29855 0.893053 0
M  V30 6923 C 636.829 -1.96116 0.516349 0
M  V30 6924 C 637.162 -1.70281 -0.933695 0
M  V30 6925 O 636.437 -1.01205 -1.66096 0
M  V30 6926 C 636.72 -3.51068 0.801455 0
M  V30 6927 C 636.573 -3.86387 2.30272 0
M  V30 6928 C 637.892 -4.39186 0.283423 0
M  V30 6929 H 635.011 -0.712335 0.189072 0
M  V30 6930 H 637.653 -1.53587 1.11852 0
M  V30 6931 H 635.803 -3.87424 0.288949 0
M  V30 6932 H 637.475 -3.60012 2.88425 0
M  V30 6933 H 635.718 -3.34167 2.76613 0
M  V30 6934 H 636.389 -4.94512 2.45279 0
M  V30 6935 H 638.865 -4.09785 0.722187 0
M  V30 6936 H 637.741 -5.46505 0.512169 0
M  V30 6937 H 638.002 -4.34511 -0.815643 0
M  V30 6938 N 637.061 -0.65484 -1.43351 0
M  V30 6939 C 638.308 -0.168892 -2.01794 0
M  V30 6940 C 638.636 1.2177 -1.51665 0
M  V30 6941 O 637.891 1.82717 -0.70092 0
M  V30 6942 C 638.19 -0.130424 -3.57162 0
M  V30 6943 C 637.856 -1.45898 -4.26643 0
M  V30 6944 C 636.518 -1.82279 -4.4534 0
M  V30 6945 C 638.87 -2.33485 -4.65976 0
M  V30 6946 C 636.198 -3.0591 -5.00635 0
M  V30 6947 C 638.55 -3.5641 -5.22642 0
M  V30 6948 C 637.214 -3.92985 -5.39555 0
M  V30 6949 H 636.484 -0.061802 -0.738418 0
M  V30 6950 H 639.131 -0.845869 -1.71806 0
M  V30 6951 H 637.436 0.630008 -3.86702 0
M  V30 6952 H 639.133 0.262465 -4.0014 0
M  V30 6953 H 635.723 -1.16591 -4.12437 0
M  V30 6954 H 639.907 -2.06668 -4.51223 0
M  V30 6955 H 635.163 -3.34295 -5.11915 0
M  V30 6956 H 639.337 -4.24495 -5.52066 0
M  V30 6957 H 636.964 -4.88862 -5.82167 0
M  V30 6958 N 638.539 1.52521 -0.396863 0
M  V30 6959 C 639.769 2.05792 0.182485 0
M  V30 6960 C 640.177 1.26784 1.40436 0
M  V30 6961 O 639.52 0.309617 1.81072 0
M  V30 6962 C 639.582 3.54291 0.609781 0
M  V30 6963 C 639.246 4.5426 -0.499674 0
M  V30 6964 C 640.243 5.01812 -1.35944 0
M  V30 6965 C 637.928 4.97827 -0.668864 0
M  V30 6966 C 639.922 5.91562 -2.37346 0
M  V30 6967 C 637.609 5.87376 -1.68621 0
M  V30 6968 C 638.607 6.34137 -2.53692 0
M  V30 6969 O 638.295 7.21915 -3.53686 0
M  V30 6970 H 638.027 0.675362 0.0293583 0
M  V30 6971 H 640.581 1.97539 -0.56281 0
M  V30 6972 H 638.811 3.60188 1.40717 0
M  V30 6973 H 640.5 3.90267 1.11565 0
M  V30 6974 H 641.266 4.68879 -1.24008 0
M  V30 6975 H 637.145 4.60997 -0.0163971 0
M  V30 6976 H 640.689 6.27983 -3.03782 0
M  V30 6977 H 636.586 6.19723 -1.80593 0
M  V30 6978 H 637.354 7.39996 -3.49784 0
M  V30 6979 N 640.017 0.126909 1.57088 0
M  V30 6980 C 641.263 -0.523662 1.96543 0
M  V30 6981 C 641.618 -1.63783 1.0096 0
M  V30 6982 O 640.911 -1.91556 0.0410175 0
M  V30 6983 C 641.105 -1.095 3.40212 0
M  V30 6984 C 640.934 -0.037715 4.49684 0
M  V30 6985 C 639.704 0.396823 5.03739 0
M  V30 6986 C 641.902 0.746245 5.08857 0
M  V30 6987 N 639.884 1.43905 5.96795 0
M  V30 6988 C 641.255 1.63947 5.97931 0
M  V30 6989 C 643.31 0.796259 4.91492 0
M  V30 6990 C 642.013 2.57837 6.715 0
M  V30 6991 C 644.039 1.7229 5.65747 0
M  V30 6992 C 643.401 2.60369 6.54513 0
M  V30 6993 H 639.5 -0.161016 0.765244 0
M  V30 6994 H 642.084 0.21686 1.93489 0
M  V30 6995 H 640.255 -1.80521 3.43899 0
M  V30 6996 H 641.987 -1.71054 3.66773 0
M  V30 6997 H 638.742 0.00290406 4.736 0
M  V30 6998 H 639.166 1.95932 6.48027 0
M  V30 6999 H 643.808 0.129412 4.22602 0
M  V30 7000 H 641.526 3.25532 7.39631 0
M  V30 7001 H 645.112 1.76715 5.54313 0
M  V30 7002 H 643.992 3.30906 7.10965 0
M  V30 7003 N 641.495 -1.56914 -0.146875 0
M  V30 7004 C 642.458 -1.97368 -1.16526 0
M  V30 7005 C 643.458 -0.860223 -1.35856 0
M  V30 7006 O 644.648 -1.12684 -1.32846 0
M  V30 7007 C 641.78 -2.28974 -2.52555 0
M  V30 7008 H 642.973 -2.88523 -0.818209 0
M  V30 7009 H 640.526 -1.5135 -0.390221 0
M  V30 7010 H 641.261 -1.40611 -2.92231 0
M  V30 7011 H 641.046 -3.10157 -2.39886 0
M  V30 7012 H 642.536 -2.61109 -3.25902 0
M  V30 7013 N 642.974 0.416227 -1.52004 0
M  V30 7014 C 644.204 1.18401 -1.69307 0
M  V30 7015 C 644.612 1.84943 -0.399072 0
M  V30 7016 O 643.955 1.72406 0.634177 0
M  V30 7017 C 644.017 2.29465 -2.76742 0
M  V30 7018 C 643.681 1.83117 -4.18709 0
M  V30 7019 C 644.678 1.32286 -5.02789 0
M  V30 7020 C 642.363 1.90167 -4.64911 0
M  V30 7021 C 644.357 0.891178 -6.31139 0
M  V30 7022 C 642.044 1.4661 -5.93253 0
M  V30 7023 C 643.042 0.961696 -6.76196 0
M  V30 7024 O 642.73 0.532388 -8.02135 0
M  V30 7025 H 642.462 0.362098 -0.570843 0
M  V30 7026 H 645.016 0.496764 -1.99302 0
M  V30 7027 H 643.246 3.01531 -2.42107 0
M  V30 7028 H 644.935 2.91252 -2.82713 0
M  V30 7029 H 645.701 1.26218 -4.68288 0
M  V30 7030 H 641.58 2.28371 -4.00459 0
M  V30 7031 H 645.124 0.496788 -6.95829 0
M  V30 7032 H 641.021 1.52355 -6.27263 0
M  V30 7033 H 641.789 0.656339 -8.15864 0
M  V30 7034 N 644.452 1.42507 0.673017 0
M  V30 7035 C 645.682 1.46261 1.45916 0
M  V30 7036 C 646.09 0.0729724 1.89059 0
M  V30 7037 O 645.433 -0.922987 1.58829 0
M  V30 7038 C 645.495 2.32853 2.73898 0
M  V30 7039 C 645.159 3.80699 2.52819 0
M  V30 7040 C 646.156 4.72307 2.17306 0
M  V30 7041 C 643.841 4.24983 2.67758 0
M  V30 7042 C 645.835 6.06192 1.97003 0
M  V30 7043 C 643.522 5.58927 2.4707 0
M  V30 7044 C 644.52 6.49348 2.11746 0
M  V30 7045 O 644.208 7.80817 1.91259 0
M  V30 7046 H 643.94 0.499561 0.455428 0
M  V30 7047 H 646.494 1.87697 0.834196 0
M  V30 7048 H 644.724 1.86268 3.38882 0
M  V30 7049 H 646.413 2.28041 3.35786 0
M  V30 7050 H 647.179 4.39378 2.05359 0
M  V30 7051 H 643.058 3.54893 2.94231 0
M  V30 7052 H 646.602 6.76731 1.69355 0
M  V30 7053 H 642.499 5.91429 2.58615 0
M  V30 7054 H 643.267 7.92194 2.05843 0
M  V30 7055 N 645.93 -0.909495 1.28709 0
M  V30 7056 C 646.863 -2.01388 1.07323 0
M  V30 7057 C 647.841 -1.62596 -0.0119757 0
M  V30 7058 O 649.025 -1.88003 0.136796 0
M  V30 7059 C 646.152 -3.32755 0.631797 0
M  V30 7060 C 645.198 -3.90532 1.71428 0
M  V30 7061 S 646.031 -4.20853 3.31124 0
M  V30 7062 C 647.187 -5.55276 2.88825 0
M  V30 7063 H 647.42 -2.19219 2.00824 0
M  V30 7064 H 644.953 -1.05489 1.12745 0
M  V30 7065 H 646.911 -4.08702 0.38381 0
M  V30 7066 H 645.572 -3.12818 -0.283451 0
M  V30 7067 H 644.765 -4.85385 1.35712 0
M  V30 7068 H 644.367 -3.21237 1.91528 0
M  V30 7069 H 646.659 -6.35341 2.3526 0
M  V30 7070 H 647.602 -5.95907 3.82492 0
M  V30 7071 H 648.01 -5.16666 2.27412 0
M  V30 7072 N 647.408 -1.11026 -1.11852 0
M  V30 7073 C 648.638 -0.877544 -1.87037 0
M  V30 7074 C 649.046 0.575925 -1.80221 0
M  V30 7075 O 648.389 1.40916 -1.17849 0
M  V30 7076 C 648.451 -1.25529 -3.36872 0
M  V30 7077 C 648.115 -2.71704 -3.67459 0
M  V30 7078 C 649.112 -3.69931 -3.65304 0
M  V30 7079 C 646.797 -3.08243 -3.966 0
M  V30 7080 C 648.791 -5.02717 -3.9186 0
M  V30 7081 C 646.478 -4.41215 -4.22815 0
M  V30 7082 C 647.476 -5.38262 -4.20432 0
M  V30 7083 O 647.164 -6.68839 -4.45992 0
M  V30 7084 H 646.896 -0.314374 -0.598452 0
M  V30 7085 H 649.45 -1.48015 -1.42411 0
M  V30 7086 H 647.68 -0.595808 -3.82082 0
M  V30 7087 H 649.369 -0.999064 -3.93413 0
M  V30 7088 H 650.135 -3.43047 -3.42846 0
M  V30 7089 H 646.014 -2.33326 -3.97593 0
M  V30 7090 H 649.558 -5.78456 -3.89916 0
M  V30 7091 H 645.455 -4.67835 -4.44748 0
M  V30 7092 H 646.223 -6.74563 -4.63581 0
M  V30 7093 N 648.886 1.2938 -0.899927 0
M  V30 7094 C 650.133 1.9555 -0.525963 0
M  V30 7095 C 650.461 1.70945 0.927789 0
M  V30 7096 O 649.716 1.01545 1.67293 0
M  V30 7097 C 650.015 3.49114 -0.765113 0
M  V30 7098 C 649.681 3.93796 -2.19626 0
M  V30 7099 C 648.343 4.05707 -2.58758 0
M  V30 7100 C 650.695 4.16883 -3.12823 0
M  V30 7101 C 648.023 4.38074 -3.90267 0
M  V30 7102 C 650.375 4.50725 -4.4388 0
M  V30 7103 C 649.039 4.60845 -4.82885 0
M  V30 7104 H 648.309 0.715569 -0.192463 0
M  V30 7105 H 650.956 1.53972 -1.13863 0
M  V30 7106 H 649.261 3.91738 -0.069531 0
M  V30 7107 H 650.958 3.98409 -0.455144 0
M  V30 7108 H 647.548 3.85042 -1.88256 0
M  V30 7109 H 651.732 4.07147 -2.83804 0
M  V30 7110 H 646.988 4.44112 -4.20207 0
M  V30 7111 H 651.162 4.67538 -5.16121 0
M  V30 7112 H 648.789 4.85681 -5.84823 0
M  V30 7113 O 650.403 0.801822 1.40189 0
M  V30 7114 H 651.094 0.376359 1.90008 0
M  V30 END ATOM
M  V30 BEGIN BOND
M  V30 END BOND
M  V30 END CTAB
M  END
$$$$
