drugbank_target|P0A108 1,2-dihydroxynaphthalene dioxygenase (DB02923; DB07478; DB07610)
 OpenBabel12092120443D

  0  0  0     0  0            999 V3000
M  V30 BEGIN CTAB
M  V30 COUNTS 4696 4761 0 0 0
M  V30 BEGIN ATOM
M  V30 1 H -0.908 1.98254 -0.117106 0
M  V30 2 N 0 1.576 0 0
M  V30 3 C 0.933 2.03868 1.02534 0
M  V30 4 C 1.911 0.928543 1.3348 0
M  V30 5 O 3.095 1.19667 1.45644 0
M  V30 6 C 0.222 2.43627 2.35294 0
M  V30 7 C -0.732 3.65373 2.2001 0
M  V30 8 S 0.101 5.13292 1.52614 0
M  V30 9 C 1.257 5.56322 2.86805 0
M  V30 10 H 1.49 2.90518 0.631377 0
M  V30 11 H -0.977 1.52953 0.210867 0
M  V30 12 H 0.981 2.67203 3.11629 0
M  V30 13 H -0.358 1.57376 2.7183 0
M  V30 14 H -1.165 3.90944 3.18086 0
M  V30 15 H -1.563 3.418 1.51819 0
M  V30 16 H 0.729 5.58782 3.83104 0
M  V30 17 H 1.672 6.56266 2.65933 0
M  V30 18 H 2.08 4.83886 2.90714 0
M  V30 19 N 1.4781 -0.272755 1.55222 0
M  V30 20 C 2.7031 -1.02683 1.80197 0
M  V30 21 C 3.1281 -1.79142 0.573551 0
M  V30 22 O 2.4861 -1.74917 -0.476849 0
M  V30 23 C 2.5341 -1.9609 3.02624 0
M  V30 24 O 1.6381 -3.04863 2.77727 0
M  V30 25 H 0.9791 -0.293557 0.595584 0
M  V30 26 H 3.5091 -0.30159 2.02365 0
M  V30 27 H 3.5191 -2.38039 3.31363 0
M  V30 28 H 2.1941 -1.39851 3.91682 0
M  V30 29 H 0.7711 -2.67228 2.60084 0
M  V30 30 N 2.9562 -1.48159 -0.537278 0
M  V30 31 C 3.9032 -1.62138 -1.64256 0
M  V30 32 C 4.8732 -0.463668 -1.59497 0
M  V30 33 O 6.0582 -0.686241 -1.78032 0
M  V30 34 C 3.1982 -1.66028 -3.02537 0
M  V30 35 C 2.3112 -2.92855 -3.17585 0
M  V30 36 C 1.4462 -2.87952 -4.46382 0
M  V30 37 C 0.4852 -4.09516 -4.54932 0
M  V30 38 N -0.3778 -4.02733 -5.75109 0
M  V30 39 H 4.4622 -2.56529 -1.51647 0
M  V30 40 H 1.9992 -1.27224 -0.738414 0
M  V30 41 H 3.9572 -1.66265 -3.82638 0
M  V30 42 H 2.5872 -0.751331 -3.13934 0
M  V30 43 H 1.6392 -3.02395 -2.30784 0
M  V30 44 H 2.9512 -3.82822 -3.19764 0
M  V30 45 H 2.1052 -2.8655 -5.34765 0
M  V30 46 H 0.8442 -1.95702 -4.46712 0
M  V30 47 H -0.1508 -4.11201 -3.64957 0
M  V30 48 H 1.0742 -5.02917 -4.56346 0
M  V30 49 H -0.9798 -3.13299 -5.76351 0
M  V30 50 H -1.0628 -4.86397 -5.78752 0
M  V30 51 H 0.2052 -4.05379 -6.65799 0
M  V30 52 N 4.4343 0.785586 -1.36625 0
M  V30 53 C 5.3663 1.90711 -1.2713 0
M  V30 54 C 6.3793 1.61688 -0.189986 0
M  V30 55 O 7.5683 1.72864 -0.445014 0
M  V30 56 C 4.6683 3.25611 -0.939713 0
M  V30 57 C 3.8413 3.82385 -2.12369 0
M  V30 58 C 2.9003 4.95732 -1.76456 0
M  V30 59 O 1.9263 5.12047 -2.48589 0
M  V30 60 N 3.1283 5.76258 -0.700492 0
M  V30 61 H 5.8933 1.99376 -2.23762 0
M  V30 62 H 3.4543 0.964041 -1.30069 0
M  V30 63 H 5.4463 3.98937 -0.680554 0
M  V30 64 H 4.0163 3.12538 -0.0624074 0
M  V30 65 H 3.2363 3.01001 -2.54543 0
M  V30 66 H 4.5243 4.17047 -2.9146 0
M  V30 67 H 3.9223 5.65609 -0.101624 0
M  V30 68 H 2.4793 6.4987 -0.501165 0
M  V30 69 N 5.9124 1.20967 1.01018 0
M  V30 70 C 6.8754 0.965918 2.07853 0
M  V30 71 C 7.8754 -0.0610545 1.60684 0
M  V30 72 O 9.0654 0.175681 1.73312 0
M  V30 73 C 6.1974 0.455513 3.37843 0
M  V30 74 H 7.3904 1.91365 2.3091 0
M  V30 75 H 4.9434 1.02594 1.17916 0
M  V30 76 H 5.6784 -0.497381 3.20463 0
M  V30 77 H 5.4634 1.19622 3.73407 0
M  V30 78 H 6.9534 0.304667 4.16487 0
M  V30 79 N 7.3905 -1.2043 1.01659 0
M  V30 80 C 8.3535 -2.21433 0.591616 0
M  V30 81 C 9.3535 -1.57203 -0.338226 0
M  V30 82 O 10.5435 -1.73737 -0.126918 0
M  V30 83 C 7.6755 -3.40628 -0.136058 0
M  V30 84 H 8.8685 -2.60545 1.48514 0
M  V30 85 H 6.4215 -1.33893 0.806379 0
M  V30 86 H 7.1565 -3.07019 -1.04449 0
M  V30 87 H 6.9415 -3.88475 0.531917 0
M  V30 88 H 8.4315 -4.15475 -0.420735 0
M  V30 89 N 8.8686 -0.792821 -1.36206 0
M  V30 90 C 10.1146 -0.36733 -1.99446 0
M  V30 91 C 10.4476 1.05917 -1.62774 0
M  V30 92 O 9.7226 1.7324 -0.88421 0
M  V30 93 C 10.0056 -0.535044 -3.56103 0
M  V30 94 C 9.8586 -2.00548 -4.02617 0
M  V30 95 C 11.1776 0.0478191 -4.40074 0
M  V30 96 H 8.2966 -0.134941 -0.724541 0
M  V30 97 H 10.9386 -0.999794 -1.61568 0
M  V30 98 H 9.0886 0.00336329 -3.885 0
M  V30 99 H 10.7606 -2.60521 -3.80692 0
M  V30 100 H 9.0036 -2.50686 -3.54032 0
M  V30 101 H 9.6746 -2.07377 -5.11565 0
M  V30 102 H 12.1506 -0.411822 -4.14057 0
M  V30 103 H 11.0266 -0.0995336 -5.4881 0
M  V30 104 H 11.2876 1.14025 -4.27142 0
M  V30 105 N 10.3467 1.47872 -0.545128 0
M  V30 106 C 11.5957 2.01695 -0.0145033 0
M  V30 107 C 11.9087 1.42609 1.33873 0
M  V30 108 O 13.1147 1.88021 1.95858 0
M  V30 109 C 11.5707 3.59892 0.0245068 0
M  V30 110 C 11.1787 4.27966 -1.32475 0
M  V30 111 C 12.9227 4.21507 0.50316 0
M  V30 112 C 10.8297 5.78136 -1.2455 0
M  V30 113 H 9.7597 0.753998 -0.00165172 0
M  V30 114 H 12.4107 1.69985 -0.691175 0
M  V30 115 H 10.7927 3.88509 0.766575 0
M  V30 116 H 11.9667 4.11003 -2.08357 0
M  V30 117 H 10.2817 3.78286 -1.74036 0
M  V30 118 H 12.8787 5.31538 0.580656 0
M  V30 119 H 13.2217 3.87855 1.51243 0
M  V30 120 H 13.7547 3.97376 -0.183681 0
M  V30 121 H 10.4937 6.16388 -2.23039 0
M  V30 122 H 10.0137 5.97469 -0.528282 0
M  V30 123 H 11.6927 6.40099 -0.942488 0
M  V30 124 N 11.8248 0.280983 1.55075 0
M  V30 125 C 12.7348 -0.61388 2.26426 0
M  V30 126 C 13.7508 -1.16521 1.29224 0
M  V30 127 O 14.9268 -1.19426 1.62171 0
M  V30 128 C 11.9918 -1.7788 2.9759 0
M  V30 129 C 11.0528 -1.26355 4.10284 0
M  V30 130 C 10.2858 -2.37295 4.78045 0
M  V30 131 O 10.5088 -3.56777 4.45047 0
M  V30 132 O 9.4428 -2.05119 5.65871 0
M  V30 133 H 13.2688 -0.0356932 3.03679 0
M  V30 134 H 10.8538 0.0481686 1.49322 0
M  V30 135 H 12.7358 -2.45791 3.42293 0
M  V30 136 H 11.4108 -2.34397 2.23249 0
M  V30 137 H 10.3178 -0.550735 3.70024 0
M  V30 138 H 11.6508 -0.744065 4.86543 0
M  V30 139 N 13.3029 -1.57598 0.00835791 0
M  V30 140 C 14.2329 -2.1198 -0.979113 0
M  V30 141 C 15.2139 -1.03091 -1.35301 0
M  V30 142 O 16.3989 -1.30818 -1.43528 0
M  V30 143 C 13.5289 -2.62995 -2.26828 0
M  V30 144 C 12.4829 -3.76485 -2.03576 0
M  V30 145 C 11.8089 -4.13846 -3.38579 0
M  V30 146 C 13.1089 -5.0342 -1.39161 0
M  V30 147 H 14.8029 -2.94738 -0.526281 0
M  V30 148 H 12.3489 -1.41783 -0.251704 0
M  V30 149 H 14.3019 -2.99669 -2.96271 0
M  V30 150 H 13.0259 -1.7737 -2.7424 0
M  V30 151 H 11.6849 -3.40217 -1.36557 0
M  V30 152 H 11.3329 -3.25232 -3.83709 0
M  V30 153 H 11.0329 -4.90312 -3.23834 0
M  V30 154 H 12.5569 -4.53086 -4.09323 0
M  V30 155 H 13.9709 -5.37812 -1.98573 0
M  V30 156 H 12.3679 -5.84746 -1.34878 0
M  V30 157 H 13.4379 -4.83548 -0.361868 0
M  V30 158 N 14.781 0.264519 -1.55364 0
M  V30 159 C 16.029 0.993021 -1.76021 0
M  V30 160 C 16.35 1.86511 -0.569099 0
M  V30 161 O 15.62 1.91438 0.415735 0
M  V30 162 H 14.2 0.369639 -0.649135 0
M  V30 163 H 16.862 0.286707 -1.9278 0
M  V30 164 H 15.958 1.62502 -2.66457 0
M  V30 165 N 16.2591 1.48442 0.529413 0
M  V30 166 C 17.4891 1.59919 1.30804 0
M  V30 167 C 17.8971 0.258792 1.87422 0
M  V30 168 O 17.2401 -0.762096 1.67146 0
M  V30 169 C 17.3021 2.58693 2.49636 0
M  V30 170 C 16.9661 4.03745 2.14101 0
M  V30 171 C 17.9631 4.9141 1.6974 0
M  V30 172 C 15.6481 4.49285 2.24607 0
M  V30 173 C 17.6421 6.22645 1.36351 0
M  V30 174 C 15.3291 5.8054 1.9083 0
M  V30 175 C 16.3271 6.67043 1.46773 0
M  V30 176 O 16.0151 7.95856 1.1344 0
M  V30 177 H 15.7471 0.541981 0.404021 0
M  V30 178 H 18.3011 1.95 0.645309 0
M  V30 179 H 16.5311 2.18734 3.18892 0
M  V30 180 H 18.2201 2.59999 3.11698 0
M  V30 181 H 18.9861 4.57465 1.61094 0
M  V30 182 H 14.8651 3.82142 2.57854 0
M  V30 183 H 18.4091 6.90119 1.01891 0
M  V30 184 H 14.3061 6.14022 1.99117 0
M  V30 185 H 15.0741 8.08613 1.26832 0
M  V30 186 N 17.7372 -0.778329 1.37039 0
M  V30 187 C 18.6702 -1.8984 1.26633 0
M  V30 188 C 19.6482 -1.61923 0.148197 0
M  V30 189 O 20.8322 -1.85742 0.321265 0
M  V30 190 C 17.9592 -3.24916 0.956403 0
M  V30 191 C 17.0052 -3.71752 2.09051 0
M  V30 192 S 17.8382 -3.86201 3.70957 0
M  V30 193 C 18.9942 -5.24135 3.42101 0
M  V30 194 H 19.2272 -1.98377 2.21436 0
M  V30 195 H 16.7602 -0.938738 1.22585 0
M  V30 196 H 18.7182 -4.02936 0.784409 0
M  V30 197 H 17.3792 -3.14089 0.0259713 0
M  V30 198 H 16.5722 -4.69661 1.8285 0
M  V30 199 H 16.1742 -3.00815 2.2223 0
M  V30 200 H 18.4662 -6.09086 2.96682 0
M  V30 201 H 19.4092 -5.55346 4.39314 0
M  V30 202 H 19.8172 -4.91761 2.77185 0
M  V30 203 N 19.2153 -1.21501 -1.00376 0
M  V30 204 C 20.4633 -1.03095 -1.73827 0
M  V30 205 C 20.7843 0.436341 -1.90055 0
M  V30 206 O 20.0543 1.31466 -1.45236 0
M  V30 207 H 18.6343 -0.378487 -0.644016 0
M  V30 208 H 21.2963 -1.52831 -1.20949 0
M  V30 209 H 20.3923 -1.49991 -2.73695 0
M  V30 210 N 20.6934 1.19889 -1.02296 0
M  V30 211 C 21.9424 1.88743 -0.711257 0
M  V30 212 C 22.2554 1.80112 0.762817 0
M  V30 213 O 23.4614 2.44161 1.18733 0
M  V30 214 C 21.9174 3.38525 -1.22185 0
M  V30 215 C 21.5254 3.55727 -2.72328 0
M  V30 216 C 23.2694 4.12893 -0.985864 0
M  V30 217 C 21.1764 4.99369 -3.16835 0
M  V30 218 H 20.1064 0.706885 -0.262353 0
M  V30 219 H 22.7574 1.35586 -1.23648 0
M  V30 220 H 21.1394 3.91044 -0.624571 0
M  V30 221 H 22.3134 3.13564 -3.3766 0
M  V30 222 H 20.6284 2.94739 -2.9414 0
M  V30 223 H 23.2254 5.18813 -1.29374 0
M  V30 224 H 23.5684 4.16228 0.0775055 0
M  V30 225 H 24.1014 3.66494 -1.54684 0
M  V30 226 H 20.8404 5.01193 -4.22476 0
M  V30 227 H 20.3604 5.42317 -2.56228 0
M  V30 228 H 22.0394 5.67988 -3.09837 0
M  V30 229 N 22.1715 0.800033 1.35784 0
M  V30 230 C 23.3965 0.388511 2.03729 0
M  V30 231 C 23.8215 -0.990481 1.5991 0
M  V30 232 O 23.1795 -1.64013 0.772612 0
M  V30 233 C 23.2275 0.4726 3.5749 0
M  V30 234 O 22.3315 -0.51646 4.09153 0
M  V30 235 H 21.6725 0.163271 0.643614 0
M  V30 236 H 24.2025 1.0841 1.73518 0
M  V30 237 H 24.2125 0.34003 4.06581 0
M  V30 238 H 22.8875 1.47848 3.88734 0
M  V30 239 H 21.4645 -0.344673 3.71304 0
M  V30 240 N 23.6496 -1.47581 0.552962 0
M  V30 241 C 24.8956 -2.02782 0.0273648 0
M  V30 242 C 25.2286 -1.42687 -1.31734 0
M  V30 243 O 24.5036 -0.580897 -1.85623 0
M  V30 244 C 24.7866 -3.60031 -0.0702371 0
M  V30 245 C 24.6396 -4.30566 1.30126 0
M  V30 246 C 25.9586 -4.33028 -0.785771 0
M  V30 247 H 23.0776 -0.736912 0.0114185 0
M  V30 248 H 25.7196 -1.76056 0.714432 0
M  V30 249 H 23.8696 -3.82932 -0.655382 0
M  V30 250 H 25.5416 -4.19018 1.92929 0
M  V30 251 H 23.7846 -3.91086 1.87709 0
M  V30 252 H 24.4556 -5.39114 1.18573 0
M  V30 253 H 26.9316 -4.15095 -0.288982 0
M  V30 254 H 25.8076 -5.42695 -0.823013 0
M  V30 255 H 26.0686 -4.01945 -1.841 0
M  V30 256 N 25.1277 -0.289203 -1.54924 0
M  V30 257 C 26.0747 0.592115 -2.23075 0
M  V30 258 C 27.0447 1.13881 -1.20915 0
M  V30 259 O 28.2297 1.18551 -1.495 0
M  V30 260 C 25.3697 1.76376 -2.96623 0
M  V30 261 C 24.4827 1.24959 -4.13533 0
M  V30 262 C 23.6177 2.38416 -4.74691 0
M  V30 263 C 22.6567 1.84072 -5.83767 0
M  V30 264 N 21.7937 2.91057 -6.38929 0
M  V30 265 H 26.6337 0.00432038 -2.98 0
M  V30 266 H 24.1707 -0.00963529 -1.47097 0
M  V30 267 H 26.1287 2.45268 -3.3749 0
M  V30 268 H 24.7587 2.32337 -2.24097 0
M  V30 269 H 23.8107 0.453307 -3.77689 0
M  V30 270 H 25.1227 0.811662 -4.92152 0
M  V30 271 H 24.2767 3.15276 -5.18349 0
M  V30 272 H 23.0157 2.8553 -3.95378 0
M  V30 273 H 22.0207 1.05697 -5.39545 0
M  V30 274 H 23.2457 1.37877 -6.64956 0
M  V30 275 H 21.1917 3.37526 -5.62505 0
M  V30 276 H 21.1087 2.51724 -7.12861 0
M  V30 277 H 22.3767 3.6785 -6.87246 0
M  V30 278 N 26.6058 1.57591 -0.0167156 0
M  V30 279 C 27.8828 1.82547 0.702564 0
M  V30 280 C 28.2628 0.898018 1.91047 0
M  V30 281 O 27.6108 -0.0493456 2.28447 0
M  V30 282 C 27.8208 3.31459 1.09251 0
M  V30 283 C 29.1688 3.97622 1.48937 0
M  V30 284 O 30.1928 3.35881 1.18584 0
M  V30 285 O 29.0518 5.06415 2.05442 0
M  V30 286 H 26.1458 0.752268 0.343544 0
M  V30 287 H 28.6918 1.69644 -0.0434495 0
M  V30 288 H 27.4638 3.9061 0.23227 0
M  V30 289 H 27.0868 3.49422 1.89709 0
M  V30 290 N 28.0839 -0.256276 1.55502 0
M  V30 291 C 29.4949 -0.826068 1.67431 0
M  V30 292 C 29.8459 -1.86396 0.612446 0
M  V30 293 O 28.9709 -2.15031 -0.243025 0
M  V30 294 C 29.5659 -1.50512 3.03532 0
M  V30 295 C 28.1249 -2.02273 3.17431 0
M  V30 296 C 27.2719 -0.870548 2.63281 0
M  V30 297 H 30.2229 -0.0322728 1.58667 0
M  V30 298 H 30.2439 -2.37279 2.97454 0
M  V30 299 H 29.7559 -0.749484 3.80794 0
M  V30 300 H 27.8569 -2.80746 2.44974 0
M  V30 301 H 27.9699 -2.22655 4.24219 0
M  V30 302 H 26.3339 -1.26851 2.20864 0
M  V30 303 H 27.1169 -0.128149 3.43061 0
M  V30 304 N 29.562 -1.4872 -0.521534 0
M  V30 305 C 30.839 -1.4766 -1.2828 0
M  V30 306 C 31.219 -0.19292 -2.10217 0
M  V30 307 O 30.567 0.825193 -2.13079 0
M  V30 308 C 30.777 -2.74358 -2.15705 0
M  V30 309 C 32.125 -3.23028 -2.75569 0
M  V30 310 O 33.149 -2.75333 -2.25987 0
M  V30 311 O 32.008 -4.0604 -3.65778 0
M  V30 312 H 29.102 -0.590085 -0.579421 0
M  V30 313 H 31.648 -1.60963 -0.537492 0
M  V30 314 H 30.42 -3.59292 -1.54999 0
M  V30 315 H 30.043 -2.63816 -2.97467 0
M  V30 316 N 31.0401 0.771051 -1.3745 0
M  V30 317 C 32.0031 1.86598 -1.33093 0
M  V30 318 C 33.0031 1.59076 -0.234845 0
M  V30 319 O 34.1931 1.67145 -0.490732 0
M  V30 320 C 31.3251 3.23747 -1.06773 0
M  V30 321 H 32.5181 1.91873 -2.30488 0
M  V30 322 H 30.0711 0.970876 -1.2249 0
M  V30 323 H 30.8061 3.24148 -0.099129 0
M  V30 324 H 30.5911 3.45115 -1.86112 0
M  V30 325 H 32.0811 4.03824 -1.06377 0
M  V30 326 N 32.5182 1.22032 0.997298 0
M  V30 327 C 33.7642 1.05382 1.73972 0
M  V30 328 C 34.1192 -0.407419 1.88037 0
M  V30 329 O 33.4122 -1.29811 1.40924 0
M  V30 330 C 33.6062 1.69345 3.14733 0
M  V30 331 C 33.4352 3.21537 3.14395 0
M  V30 332 C 32.2052 3.9062 3.20537 0
M  V30 333 C 34.4032 4.18527 2.98897 0
M  V30 334 N 32.3852 5.29935 3.09906 0
M  V30 335 C 33.7562 5.44645 2.96247 0
M  V30 336 C 35.8112 4.09476 2.83255 0
M  V30 337 C 34.5142 6.62752 2.79557 0
M  V30 338 C 36.5402 5.27228 2.67926 0
M  V30 339 C 35.9022 6.52262 2.65959 0
M  V30 340 H 32.0012 0.440018 0.646458 0
M  V30 341 H 34.5852 1.54505 1.18475 0
M  V30 342 H 32.7562 1.22778 3.68484 0
M  V30 343 H 34.4882 1.45828 3.77513 0
M  V30 344 H 31.2432 3.41592 3.28043 0
M  V30 345 H 31.6672 6.02926 3.07912 0
M  V30 346 H 36.3092 3.13598 2.83577 0
M  V30 347 H 34.0272 7.58783 2.77982 0
M  V30 348 H 37.6132 5.22053 2.56812 0
M  V30 349 H 36.4932 7.41844 2.54239 0
M  V30 350 N 33.9963 -1.19345 1.0293 0
M  V30 351 C 34.9433 -2.2258 0.610464 0
M  V30 352 C 35.9133 -1.6179 -0.375946 0
M  V30 353 O 37.0983 -1.88844 -0.272511 0
M  V30 354 C 34.2383 -3.45085 -0.0321473 0
M  V30 355 C 33.3513 -4.20258 1.00035 0
M  V30 356 C 32.4863 -5.3019 0.32746 0
M  V30 357 C 31.5253 -5.97121 1.34584 0
M  V30 358 N 30.6623 -6.98615 0.698726 0
M  V30 359 H 35.5023 -2.57764 1.49538 0
M  V30 360 H 33.0393 -1.26644 0.748311 0
M  V30 361 H 34.9973 -4.15061 -0.421966 0
M  V30 362 H 33.6273 -3.10555 -0.88064 0
M  V30 363 H 32.6793 -3.49223 1.50823 0
M  V30 364 H 33.9913 -4.66175 1.77433 0
M  V30 365 H 33.1453 -6.06587 -0.11718 0
M  V30 366 H 31.8843 -4.85345 -0.478713 0
M  V30 367 H 30.8893 -5.19474 1.80074 0
M  V30 368 H 32.1143 -6.4405 2.15352 0
M  V30 369 H 30.0603 -6.55942 -0.0873471 0
M  V30 370 H 29.9773 -7.42724 1.41058 0
M  V30 371 H 31.2453 -7.79004 0.278102 0
M  V30 372 N 35.4744 -0.807222 -1.35358 0
M  V30 373 C 36.6994 -0.399309 -2.0352 0
M  V30 374 C 37.1244 0.981986 -1.60433 0
M  V30 375 O 36.4824 1.63601 -0.781299 0
M  V30 376 C 36.5304 -0.491552 -3.57234 0
M  V30 377 O 35.6344 0.494754 -4.09421 0
M  V30 378 H 34.9754 -0.166682 -0.642739 0
M  V30 379 H 37.5054 -1.09328 -1.72941 0
M  V30 380 H 37.5154 -0.361588 -4.06395 0
M  V30 381 H 36.1904 -1.49907 -3.87944 0
M  V30 382 H 34.7674 0.324977 -3.71481 0
M  V30 383 N 36.9525 1.47285 -0.560781 0
M  V30 384 C 38.1995 2.02464 -0.038062 0
M  V30 385 C 38.5275 1.43474 1.31322 0
M  V30 386 O 37.7825 0.581311 1.86867 0
M  V30 387 C 38.0815 3.57258 0.100784 0
M  V30 388 C 37.7475 4.35184 -1.18007 0
M  V30 389 C 36.4095 4.56194 -1.53103 0
M  V30 390 C 38.7615 4.80098 -2.02867 0
M  V30 391 C 36.0895 5.19367 -2.729 0
M  V30 392 C 38.4415 5.44593 -3.21871 0
M  V30 393 C 37.1055 5.63835 -3.57276 0
M  V30 394 H 36.3755 0.740869 -0.0139279 0
M  V30 395 H 39.0225 1.76916 -0.733012 0
M  V30 396 H 37.3275 3.81819 0.878724 0
M  V30 397 H 39.0245 3.97606 0.520639 0
M  V30 398 H 35.6145 4.19113 -0.8968 0
M  V30 399 H 39.7985 4.63642 -1.7706 0
M  V30 400 H 35.0545 5.32459 -3.00496 0
M  V30 401 H 39.2285 5.78358 -3.87911 0
M  V30 402 H 36.8555 6.12557 -4.50197 0
M  V30 403 N 38.4306 0.297415 1.54768 0
M  V30 404 C 39.3936 -0.567375 2.22066 0
M  V30 405 C 40.3936 -1.06409 1.20556 0
M  V30 406 O 41.5836 -0.960691 1.45315 0
M  V30 407 C 38.7156 -1.78517 2.90421 0
M  V30 408 H 39.9086 0.0205534 2.99893 0
M  V30 409 H 37.4616 0.0482163 1.56226 0
M  V30 410 H 38.1966 -2.41303 2.16664 0
M  V30 411 H 37.9816 -1.43669 3.64831 0
M  V30 412 H 39.4716 -2.39964 3.41771 0
M  V30 413 N 39.9087 -1.5758 0.0250728 0
M  V30 414 C 41.1367 -1.9593 -0.664747 0
M  V30 415 C 41.5517 -0.901352 -1.65895 0
M  V30 416 O 40.9087 0.117255 -1.82123 0
M  V30 417 C 40.9597 -3.34342 -1.37468 0
M  V30 418 O 40.6807 -4.36079 -0.420324 0
M  V30 419 C 42.1817 -3.873 -2.1567 0
M  V30 420 H 39.4017 -0.645405 -0.183557 0
M  V30 421 H 41.9457 -2.04329 0.0836372 0
M  V30 422 H 40.1007 -3.27175 -2.0745 0
M  V30 423 H 40.5147 -5.16297 -0.923991 0
M  V30 424 H 41.9887 -4.86504 -2.60803 0
M  V30 425 H 42.4657 -3.21331 -2.99405 0
M  V30 426 H 43.0717 -3.97723 -1.50654 0
M  V30 427 N 41.3868 0.248026 -1.55636 0
M  V30 428 C 42.6638 0.998988 -1.68165 0
M  V30 429 C 43.0438 2.03409 -0.564621 0
M  V30 430 O 42.3918 2.24378 0.432076 0
M  V30 431 C 42.6018 1.63334 -3.0842 0
M  V30 432 C 43.9498 2.13562 -3.66983 0
M  V30 433 O 44.9738 1.73277 -3.11213 0
M  V30 434 O 43.8328 2.87526 -4.64749 0
M  V30 435 H 40.9268 0.464933 -0.683935 0
M  V30 436 H 43.4728 0.241902 -1.67967 0
M  V30 437 H 42.2448 0.884583 -3.8117 0
M  V30 438 H 41.8678 2.45666 -3.12624 0
M  V30 439 N 42.8649 1.48995 0.513639 0
M  V30 440 C 43.7979 1.59319 1.63379 0
M  V30 441 C 44.7759 0.442816 1.56454 0
M  V30 442 O 45.9599 0.656655 1.76693 0
M  V30 443 C 43.0869 1.5364 3.01848 0
M  V30 444 C 42.1329 2.7372 3.27078 0
M  V30 445 S 42.9659 4.35528 3.1157 0
M  V30 446 C 44.1219 4.32473 4.52458 0
M  V30 447 H 44.3549 2.54079 1.54374 0
M  V30 448 H 41.8879 1.3773 0.697849 0
M  V30 449 H 43.8459 1.51049 3.81699 0
M  V30 450 H 42.5069 0.601898 3.08279 0
M  V30 451 H 41.6999 2.6593 4.28132 0
M  V30 452 H 41.3019 2.73657 2.54927 0
M  V30 453 H 43.5939 4.03414 5.44301 0
M  V30 454 H 44.5369 5.33762 4.65299 0
M  V30 455 H 44.9449 3.62718 4.32546 0
M  V30 456 N 44.343 -0.763751 1.37857 0
M  V30 457 C 45.273 -1.89103 1.36975 0
M  V30 458 C 46.254 -1.68439 0.237152 0
M  V30 459 O 47.439 -1.8918 0.438713 0
M  V30 460 C 44.569 -3.26496 1.18395 0
M  V30 461 C 43.523 -3.61741 2.28751 0
M  V30 462 C 42.849 -4.97762 1.95286 0
M  V30 463 C 44.149 -3.67665 3.70972 0
M  V30 464 H 45.843 -1.90099 2.31307 0
M  V30 465 H 43.389 -0.91319 1.11341 0
M  V30 466 H 45.342 -4.05003 1.16406 0
M  V30 467 H 44.066 -3.25955 0.205215 0
M  V30 468 H 42.725 -2.85547 2.29909 0
M  V30 469 H 42.373 -4.93769 0.959221 0
M  V30 470 H 42.073 -5.22313 2.69189 0
M  V30 471 H 43.597 -5.7866 1.94898 0
M  V30 472 H 45.011 -4.36307 3.719 0
M  V30 473 H 43.408 -4.03718 4.43995 0
M  V30 474 H 44.478 -2.68134 4.0402 0
M  V30 475 N 45.8211 -1.22559 -0.990812 0
M  V30 476 C 47.0691 -1.04933 -1.72724 0
M  V30 477 C 47.3901 0.416158 -1.90508 0
M  V30 478 O 46.6601 1.29918 -1.46622 0
M  V30 479 H 45.2401 -0.385296 -0.639965 0
M  V30 480 H 47.9021 -1.54105 -1.19322 0
M  V30 481 H 46.9981 -1.52886 -2.72089 0
M  V30 482 N 47.2992 1.18797 -1.03562 0
M  V30 483 C 48.2292 2.24472 -0.643019 0
M  V30 484 C 49.2102 1.66433 0.351283 0
M  V30 485 O 50.3952 1.92803 0.232505 0
M  V30 486 C 47.5252 3.473 4.24935e-05 0
M  V30 487 C 46.4792 4.18055 -0.917257 0
M  V30 488 C 45.8052 5.34519 -0.138941 0
M  V30 489 C 47.1052 4.72109 -2.23407 0
M  V30 490 H 48.7992 2.57566 -1.52643 0
M  V30 491 H 46.3452 1.23806 -0.735394 0
M  V30 492 H 48.2982 4.20426 0.286383 0
M  V30 493 H 47.0222 3.13424 0.918299 0
M  V30 494 H 45.6812 3.46821 -1.1879 0
M  V30 495 H 45.3292 4.96891 0.781562 0
M  V30 496 H 45.0292 5.82794 -0.750005 0
M  V30 497 H 46.5532 6.10438 0.1405 0
M  V30 498 H 47.9672 5.36955 -2.00879 0
M  V30 499 H 46.3642 5.30897 -2.79765 0
M  V30 500 H 47.4342 3.89807 -2.88407 0
M  V30 501 N 48.7773 0.814389 1.34928 0
M  V30 502 C 49.7093 0.187834 2.28429 0
M  V30 503 C 50.7223 -0.617374 1.5064 0
M  V30 504 O 51.9113 -0.448454 1.72775 0
M  V30 505 C 49.0113 -0.755962 3.30361 0
M  V30 506 C 48.1843 0.00456686 4.374 0
M  V30 507 C 47.2433 -0.858876 5.19143 0
M  V30 508 O 46.2693 -0.306968 5.68372 0
M  V30 509 N 47.4713 -2.17988 5.38016 0
M  V30 510 H 50.2363 0.991105 2.82838 0
M  V30 511 H 47.7973 0.670561 1.4736 0
M  V30 512 H 49.7893 -1.338 3.81942 0
M  V30 513 H 48.3593 -1.46001 2.7641 0
M  V30 514 H 47.5793 0.767865 3.86649 0
M  V30 515 H 48.8673 0.528422 5.06049 0
M  V30 516 H 48.2653 -2.65212 4.99679 0
M  V30 517 H 46.8223 -2.71098 5.92747 0
M  V30 518 N 50.2554 -1.46986 0.568584 0
M  V30 519 C 51.5014 -2.02741 0.0488709 0
M  V30 520 C 51.8344 -1.44077 -1.30214 0
M  V30 521 O 51.1094 -0.600552 -1.84996 0
M  V30 522 C 51.3924 -3.60086 -0.032047 0
M  V30 523 C 51.2454 -4.29162 1.34686 0
M  V30 524 C 52.5644 -4.33838 -0.739798 0
M  V30 525 H 49.6834 -0.736749 0.0192338 0
M  V30 526 H 52.3254 -1.75289 0.733065 0
M  V30 527 H 50.4754 -3.83606 -0.61473 0
M  V30 528 H 52.1474 -4.16948 1.97362 0
M  V30 529 H 50.3904 -3.89073 1.91846 0
M  V30 530 H 51.0614 -5.37826 1.24285 0
M  V30 531 H 53.5374 -4.15378 -0.244939 0
M  V30 532 H 52.4134 -5.43537 -0.765406 0
M  V30 533 H 52.6744 -4.03875 -1.79827 0
M  V30 534 N 51.7335 -0.305618 -1.54608 0
M  V30 535 C 52.6635 0.561482 -2.26649 0
M  V30 536 C 53.6445 1.13415 -1.26772 0
M  V30 537 O 54.8295 1.16262 -1.55553 0
M  V30 538 C 51.9595 1.73122 -3.01075 0
M  V30 539 C 50.9135 1.2887 -4.08138 0
M  V30 540 C 50.2395 2.54396 -4.70305 0
M  V30 541 C 51.5395 0.416578 -5.20636 0
M  V30 542 H 53.2335 -0.0393902 -2.99374 0
M  V30 543 H 50.7795 -0.020385 -1.43986 0
M  V30 544 H 52.7325 2.34396 -3.50195 0
M  V30 545 H 51.4565 2.3584 -2.25936 0
M  V30 546 H 50.1155 0.698991 -3.59875 0
M  V30 547 H 49.7635 3.15439 -3.918 0
M  V30 548 H 49.4635 2.25486 -5.42614 0
M  V30 549 H 50.9875 3.16464 -5.2219 0
M  V30 550 H 52.4015 0.935116 -5.65622 0
M  V30 551 H 50.7985 0.221046 -5.99693 0
M  V30 552 H 51.8685 -0.557162 -4.81688 0
M  V30 553 N 53.2116 1.57565 -0.0334293 0
M  V30 554 C 54.4886 1.83282 0.683163 0
M  V30 555 C 54.8686 0.91823 1.90084 0
M  V30 556 O 54.2166 -0.025113 2.28486 0
M  V30 557 C 54.4266 3.32599 1.0573 0
M  V30 558 C 55.7746 3.99179 1.44711 0
M  V30 559 O 56.7986 3.3712 1.15015 0
M  V30 560 O 55.6576 5.08565 2.0006 0
M  V30 561 H 52.7516 0.755869 0.335546 0
M  V30 562 H 55.2976 1.69589 -0.0614402 0
M  V30 563 H 54.0696 3.90834 0.190828 0
M  V30 564 H 53.6926 3.51415 1.85993 0
M  V30 565 N 54.6897 -0.239769 1.55765 0
M  V30 566 C 55.5997 -1.31831 1.94056 0
M  V30 567 C 56.6157 -1.52275 0.841925 0
M  V30 568 O 57.7917 -1.65759 1.14394 0
M  V30 569 C 54.8567 -2.65156 2.23368 0
M  V30 570 C 53.9177 -2.53173 3.46701 0
M  V30 571 C 53.1507 -3.8014 3.74606 0
M  V30 572 O 53.3737 -4.82343 3.04469 0
M  V30 573 O 52.3077 -3.78344 4.68123 0
M  V30 574 H 56.1337 -1.02347 2.85935 0
M  V30 575 H 53.7187 -0.441123 1.42739 0
M  V30 576 H 55.6007 -3.43929 2.43497 0
M  V30 577 H 54.2757 -2.94358 1.34666 0
M  V30 578 H 53.1827 -1.72662 3.31871 0
M  V30 579 H 54.5157 -2.28915 4.35728 0
M  V30 580 N 56.1678 -1.49265 -0.50573 0
M  V30 581 C 57.4158 -1.582 -1.25766 0
M  V30 582 C 57.7368 -0.268482 -1.93143 0
M  V30 583 O 57.0068 0.711833 -1.8251 0
M  V30 584 H 55.5868 -0.582873 -0.467191 0
M  V30 585 H 58.2488 -1.85865 -0.586525 0
M  V30 586 H 57.3448 -2.37563 -2.02412 0
M  V30 587 N 57.6459 0.756429 -1.3826 0
M  V30 588 C 58.5559 1.9009 -1.37488 0
M  V30 589 C 59.5719 1.71855 -0.272366 0
M  V30 590 O 60.7479 1.94827 -0.510318 0
M  V30 591 C 57.8129 3.25421 -1.19592 0
M  V30 592 C 56.8739 3.56202 -2.39622 0
M  V30 593 C 56.1069 4.85075 -2.2257 0
M  V30 594 O 56.3299 5.57246 -1.21793 0
M  V30 595 O 55.2639 5.15269 -3.11098 0
M  V30 596 H 59.0899 1.93695 -2.33914 0
M  V30 597 H 56.6749 0.901313 -1.1915 0
M  V30 598 H 58.5569 4.06337 -1.11661 0
M  V30 599 H 57.2319 3.22634 -0.262486 0
M  V30 600 H 56.1389 2.75458 -2.53128 0
M  V30 601 H 57.4719 3.63747 -3.31586 0
M  V30 602 N 59.124 1.23083 0.984299 0
M  V30 603 C 60.071 1.00854 2.07598 0
M  V30 604 C 61.041 -0.0726709 1.65941 0
M  V30 605 O 62.226 0.0786535 1.90638 0
M  V30 606 C 59.366 0.601645 3.39815 0
M  V30 607 C 58.479 1.75456 3.94765 0
M  V30 608 C 57.614 1.29482 5.15177 0
M  V30 609 C 56.653 2.41873 5.62284 0
M  V30 610 N 55.79 1.96885 6.73929 0
M  V30 611 H 60.63 1.943 2.25946 0
M  V30 612 H 58.167 0.968001 1.10762 0
M  V30 613 H 60.125 0.346854 4.15756 0
M  V30 614 H 58.755 -0.295803 3.21442 0
M  V30 615 H 57.807 2.12346 3.15616 0
M  V30 616 H 59.119 2.59965 4.25699 0
M  V30 617 H 58.273 0.997923 5.98437 0
M  V30 618 H 57.012 0.420046 4.85888 0
M  V30 619 H 56.017 2.72342 4.77608 0
M  V30 620 H 57.242 3.29881 5.93595 0
M  V30 621 H 55.188 1.11782 6.46406 0
M  V30 622 H 55.105 2.74956 7.04227 0
M  V30 623 H 56.373 1.70289 7.60672 0
M  V30 624 N 60.6021 -1.18246 1.0419 0
M  V30 625 C 61.8791 -1.84121 0.660208 0
M  V30 626 C 62.2591 -1.92778 -0.860221 0
M  V30 627 O 61.6071 -1.45464 -1.76217 0
M  V30 628 C 61.8171 -3.22355 1.33747 0
M  V30 629 C 63.1651 -3.98376 1.46906 0
M  V30 630 O 64.1891 -3.31799 1.29568 0
M  V30 631 O 63.0481 -5.17665 1.75171 0
M  V30 632 H 60.1421 -0.794036 0.231161 0
M  V30 633 H 62.6881 -1.25628 1.14087 0
M  V30 634 H 61.4601 -3.10964 2.37522 0
M  V30 635 H 61.0831 -3.88506 0.845515 0
M  V30 636 N 62.0802 -0.821533 -1.34494 0
M  V30 637 C 63.4962 -0.507117 -1.51329 0
M  V30 638 C 63.6962 0.968964 -1.76673 0
M  V30 639 O 62.7522 1.75348 -1.81685 0
M  V30 640 C 64.0652 -1.36544 -2.67911 0
M  V30 641 C 65.6132 -1.36242 -2.81793 0
M  V30 642 C 66.0882 -2.2052 -4.01416 0
M  V30 643 N 67.5792 -2.18136 -4.08621 0
M  V30 644 C 68.3142 -2.80095 -5.00334 0
M  V30 645 N 67.8102 -3.51039 -5.9728 0
M  V30 646 N 69.6032 -2.69656 -4.93196 0
M  V30 647 H 61.7542 -1.77729 -1.16302 0
M  V30 648 H 64.0172 -0.757291 -0.570276 0
M  V30 649 H 63.7232 -2.41361 -2.55808 0
M  V30 650 H 63.5972 -1.02917 -3.62888 0
M  V30 651 H 65.9842 -0.322041 -2.93338 0
M  V30 652 H 66.0652 -1.73866 -1.87628 0
M  V30 653 H 65.7092 -3.24607 -3.90631 0
M  V30 654 H 65.6392 -1.80247 -4.94791 0
M  V30 655 H 68.1302 -1.6653 -3.39229 0
M  V30 656 H 68.4432 -3.95565 -6.63889 0
M  V30 657 H 66.7882 -3.55145 -5.97409 0
M  V30 658 H 69.9792 -2.13808 -4.16418 0
M  V30 659 H 70.1522 -3.1823 -5.64476 0
M  V30 660 N 63.5583 1.46682 -0.576371 0
M  V30 661 C 64.8053 2.02412 -0.0595339 0
M  V30 662 C 65.1333 1.44859 1.29793 0
M  V30 663 O 64.3883 0.601099 1.8624 0
M  V30 664 C 64.6873 3.57345 0.062886 0
M  V30 665 C 64.3533 4.33908 -1.22616 0
M  V30 666 C 63.0153 4.54544 -1.57933 0
M  V30 667 C 65.3673 4.77919 -2.07948 0
M  V30 668 C 62.6953 5.16444 -2.78393 0
M  V30 669 C 65.0473 5.41149 -3.27629 0
M  V30 670 C 63.7113 5.60014 -3.63236 0
M  V30 671 H 62.9813 0.74068 -0.021785 0
M  V30 672 H 65.6283 1.76128 -0.751735 0
M  V30 673 H 63.9333 3.82729 0.838178 0
M  V30 674 H 65.6303 3.98136 0.478439 0
M  V30 675 H 62.2203 4.18138 -0.941202 0
M  V30 676 H 66.4043 4.61738 -1.81967 0
M  V30 677 H 61.6603 5.29242 -3.06126 0
M  V30 678 H 65.8343 5.74211 -3.94023 0
M  V30 679 H 63.4613 6.07748 -4.56669 0
M  V30 680 N 65.0364 0.313813 1.54444 0
M  V30 681 C 66.2664 -0.293491 2.04505 0
M  V30 682 C 66.6744 -1.47086 1.19005 0
M  V30 683 O 66.0174 -1.82481 0.211257 0
M  V30 684 C 66.0794 -0.800455 3.50475 0
M  V30 685 C 65.7434 0.253322 4.56297 0
M  V30 686 C 66.7404 1.08612 5.08428 0
M  V30 687 C 64.4254 0.398708 5.00715 0
M  V30 688 C 66.4194 2.05013 6.0353 0
M  V30 689 C 64.1064 1.36614 5.95634 0
M  V30 690 C 65.1044 2.19033 6.46926 0
M  V30 691 O 64.7924 3.14134 7.39983 0
M  V30 692 H 64.5244 -0.0658325 0.672787 0
M  V30 693 H 67.0784 0.455177 2.00293 0
M  V30 694 H 65.3084 -1.59987 3.52053 0
M  V30 695 H 66.9974 -1.32504 3.83663 0
M  V30 696 H 67.7634 0.984736 4.74898 0
M  V30 697 H 63.6424 -0.23289 4.60411 0
M  V30 698 H 67.1864 2.69382 6.4349 0
M  V30 699 H 63.0834 1.4682 6.28581 0
M  V30 700 H 63.8514 3.0926 7.57826 0
M  V30 701 N 66.5145 -1.57545 0.0417849 0
M  V30 702 C 67.4445 -2.14009 -0.933929 0
M  V30 703 C 68.4255 -1.05938 -1.33083 0
M  V30 704 O 69.6105 -1.33833 -1.40721 0
M  V30 705 C 66.7405 -2.67747 -2.21199 0
M  V30 706 C 65.6945 -3.80718 -1.95544 0
M  V30 707 C 65.0205 -4.20935 -3.29724 0
M  V30 708 C 66.3205 -5.06258 -1.28452 0
M  V30 709 H 68.0145 -2.95788 -0.463645 0
M  V30 710 H 65.5605 -1.42285 -0.221573 0
M  V30 711 H 67.5135 -3.05886 -2.89848 0
M  V30 712 H 66.2375 -1.83147 -2.70416 0
M  V30 713 H 64.8965 -3.43037 -1.2931 0
M  V30 714 H 64.5445 -3.33298 -3.76724 0
M  V30 715 H 64.2445 -4.9707 -3.13361 0
M  V30 716 H 65.7685 -4.61666 -3.9962 0
M  V30 717 H 67.1825 -5.41903 -1.8712 0
M  V30 718 H 65.5795 -5.87475 -1.22445 0
M  V30 719 H 66.6495 -4.84207 -0.259219 0
M  V30 720 N 67.9926 0.231505 -1.5589 0
M  V30 721 C 69.4086 0.580748 -1.48659 0
M  V30 722 C 69.6086 1.87617 -0.73498 0
M  V30 723 O 68.6646 2.51046 -0.270586 0
M  V30 724 C 69.9776 0.669202 -2.93159 0
M  V30 725 C 71.5256 0.760499 -3.03621 0
M  V30 726 C 72.0006 0.880383 -4.49459 0
M  V30 727 N 73.4916 0.944861 -4.53461 0
M  V30 728 C 74.2266 1.05716 -5.63571 0
M  V30 729 N 73.7226 1.13403 -6.83456 0
M  V30 730 N 75.5156 1.09152 -5.514 0
M  V30 731 H 67.6666 -0.618695 -2.03189 0
M  V30 732 H 69.9296 -0.215728 -0.923128 0
M  V30 733 H 69.6356 -0.212904 -3.51055 0
M  V30 734 H 69.5096 1.5361 -3.44505 0
M  V30 735 H 71.8966 1.63305 -2.45796 0
M  V30 736 H 71.9776 -0.131864 -2.5546 0
M  V30 737 H 71.6216 0.0123284 -5.07899 0
M  V30 738 H 71.5516 1.78802 -4.95316 0
M  V30 739 H 74.0426 0.896176 -3.6712 0
M  V30 740 H 74.3556 1.21921 -7.63122 0
M  V30 741 H 72.7006 1.10333 -6.86186 0
M  V30 742 H 75.8916 1.02805 -4.56671 0
M  V30 743 H 76.0646 1.17558 -6.37247 0
M  V30 744 N 69.4707 1.49531 0.497807 0
M  V30 745 C 70.4037 1.61043 1.6168 0
M  V30 746 C 71.3817 0.459386 1.55976 0
M  V30 747 O 72.5657 0.675358 1.75986 0
M  V30 748 C 69.6927 1.56833 3.00202 0
M  V30 749 C 68.7387 2.77173 3.24156 0
M  V30 750 S 69.5717 4.38808 3.06933 0
M  V30 751 C 70.7277 4.37248 4.47845 0
M  V30 752 H 70.9607 2.55702 1.51671 0
M  V30 753 H 68.4937 1.38462 0.683201 0
M  V30 754 H 70.4517 1.55089 3.80076 0
M  V30 755 H 69.1127 0.634561 3.07623 0
M  V30 756 H 68.3057 2.70456 4.25288 0
M  V30 757 H 67.9077 2.76346 2.5201 0
M  V30 758 H 70.1997 4.09164 5.39992 0
M  V30 759 H 71.1427 5.38668 4.59612 0
M  V30 760 H 71.5507 3.67286 4.28674 0
M  V30 761 N 70.9488 -0.749086 1.3866 0
M  V30 762 C 72.2258 -1.4992 1.25632 0
M  V30 763 C 72.6058 -2.10633 -0.140317 0
M  V30 764 O 71.9538 -1.97437 -1.15025 0
M  V30 765 C 72.1638 -2.56195 2.36992 0
M  V30 766 C 73.5118 -3.22972 2.75634 0
M  V30 767 O 74.5358 -2.66502 2.36337 0
M  V30 768 O 73.3948 -4.25122 3.43415 0
M  V30 769 H 70.4888 -0.665067 0.491544 0
M  V30 770 H 73.0348 -0.784113 1.50498 0
M  V30 771 H 71.8068 -2.09612 3.30422 0
M  V30 772 H 71.4298 -3.35279 2.13714 0
M  V30 773 N 72.4269 -1.23603 -0.977757 0
M  V30 774 C 73.6569 -1.09487 -1.75203 0
M  V30 775 C 74.0649 0.356321 -1.85814 0
M  V30 776 O 73.4079 1.25816 -1.33851 0
M  V30 777 C 73.4699 -1.64905 -3.19447 0
M  V30 778 C 73.1339 -3.13688 -3.32338 0
M  V30 779 C 74.1309 -4.10953 -3.18455 0
M  V30 780 C 71.8159 -3.53449 -3.56902 0
M  V30 781 C 73.8099 -5.45962 -3.28944 0
M  V30 782 C 71.4969 -4.88602 -3.6703 0
M  V30 783 C 72.4949 -5.84668 -3.53062 0
M  V30 784 O 72.1829 -7.17365 -3.62826 0
M  V30 785 H 71.9149 -0.38367 -0.556573 0
M  V30 786 H 74.4689 -1.6398 -1.23693 0
M  V30 787 H 72.6989 -1.04835 -3.72218 0
M  V30 788 H 74.3879 -1.46226 -3.78646 0
M  V30 789 H 75.1539 -3.81577 -2.99372 0
M  V30 790 H 71.0329 -2.79188 -3.66844 0
M  V30 791 H 74.5769 -6.20925 -3.17958 0
M  V30 792 H 70.4739 -5.17653 -3.85623 0
M  V30 793 H 71.2419 -7.2515 -3.79605 0
M  V30 794 N 73.905 1.17692 -1.04816 0
M  V30 795 C 75.151 1.88389 -0.766892 0
M  V30 796 C 75.506 1.79282 0.698269 0
M  V30 797 O 74.799 1.18739 1.50372 0
M  V30 798 C 74.993 3.37462 -1.17703 0
M  V30 799 C 74.822 3.6108 -2.68051 0
M  V30 800 C 73.592 3.78018 -3.35307 0
M  V30 801 C 75.79 3.61039 -3.66273 0
M  V30 802 N 73.772 3.89444 -4.74559 0
M  V30 803 C 75.143 3.78269 -4.91235 0
M  V30 804 C 77.198 3.44168 -3.59796 0
M  V30 805 C 75.901 3.80376 -6.10497 0
M  V30 806 C 77.927 3.4756 -4.78493 0
M  V30 807 C 77.289 3.65295 -6.02278 0
M  V30 808 H 73.388 0.707651 -0.332798 0
M  V30 809 H 75.972 1.41314 -1.33934 0
M  V30 810 H 74.143 3.83214 -0.63257 0
M  V30 811 H 75.875 3.95759 -0.845989 0
M  V30 812 H 72.63 3.77714 -2.85708 0
M  V30 813 H 73.054 3.98962 -5.46954 0
M  V30 814 H 77.696 3.29396 -2.65062 0
M  V30 815 H 75.414 3.93933 -7.05579 0
M  V30 816 H 79 3.3577 -4.75131 0
M  V30 817 H 77.88 3.6782 -6.92588 0
M  V30 818 N 75.3831 0.828654 1.34056 0
M  V30 819 C 76.3331 0.226828 2.26869 0
M  V30 820 C 77.3171 -0.612243 1.48796 0
M  V30 821 O 78.5091 -0.465884 1.70759 0
M  V30 822 C 75.6381 -0.605654 3.37915 0
M  V30 823 C 74.7241 0.244361 4.23395 0
M  V30 824 N 75.1151 1.31815 4.88322 0
M  V30 825 C 73.4131 0.0296616 4.4599 0
M  V30 826 C 74.1141 1.83895 5.51867 0
M  V30 827 N 73.0901 1.14196 5.3147 0
M  V30 828 H 76.8921 1.04811 2.74576 0
M  V30 829 H 74.4061 0.67205 1.47842 0
M  V30 830 H 76.4031 -1.05302 4.03382 0
M  V30 831 H 75.0631 -1.42504 2.91758 0
M  V30 832 H 76.0741 1.70099 4.8917 0
M  V30 833 H 72.7511 -0.757097 4.10578 0
M  V30 834 H 74.1411 2.7376 6.136 0
M  V30 835 N 76.8612 -1.46375 0.584142 0
M  V30 836 C 77.8112 -2.27371 -0.169232 0
M  V30 837 C 78.7952 -1.35955 -0.860523 0
M  V30 838 O 79.9872 -1.60119 -0.754382 0
M  V30 839 C 77.1162 -3.22334 -1.18134 0
M  V30 840 C 76.2022 -4.21235 -0.492088 0
M  V30 841 N 76.5932 -5.03766 0.453129 0
M  V30 842 C 74.8912 -4.39773 -0.742652 0
M  V30 843 C 75.5922 -5.75366 0.85609 0
M  V30 844 N 74.5682 -5.43214 0.204926 0
M  V30 845 H 78.3702 -2.88572 0.557097 0
M  V30 846 H 75.8842 -1.57242 0.406042 0
M  V30 847 H 77.8812 -3.79071 -1.73525 0
M  V30 848 H 76.5412 -2.62693 -1.90847 0
M  V30 849 H 77.5522 -5.11227 0.828723 0
M  V30 850 H 74.2292 -3.91279 -1.45625 0
M  V30 851 H 75.6192 -6.5172 1.63434 0
M  V30 852 N 78.3393 -0.321999 -1.54275 0
M  V30 853 C 79.7553 0.0306999 -1.5957 0
M  V30 854 C 79.9553 1.50614 -1.33857 0
M  V30 855 O 79.0113 2.2619 -1.12223 0
M  V30 856 C 80.3243 -0.386122 -2.98211 0
M  V30 857 C 81.8723 -0.336647 -3.11184 0
M  V30 858 C 82.3473 -0.728607 -4.52167 0
M  V30 859 N 83.8383 -0.681952 -4.58152 0
M  V30 860 C 84.5733 -0.957449 -5.6535 0
M  V30 861 N 84.0693 -1.3 -6.80494 0
M  V30 862 N 85.8623 -0.883113 -5.55119 0
M  V30 863 H 78.0133 -1.28332 -1.69247 0
M  V30 864 H 80.2763 -0.521716 -0.791528 0
M  V30 865 H 79.9823 -1.41404 -3.22022 0
M  V30 866 H 79.8563 0.249662 -3.76373 0
M  V30 867 H 82.2433 0.682058 -2.8711 0
M  V30 868 H 82.3243 -1.00734 -2.3513 0
M  V30 869 H 81.9683 -1.74522 -4.76974 0
M  V30 870 H 81.8983 -0.0356152 -5.26588 0
M  V30 871 H 84.3893 -0.428985 -3.75457 0
M  V30 872 H 84.7023 -1.49563 -7.58189 0
M  V30 873 H 83.0473 -1.33824 -6.81994 0
M  V30 874 H 86.2383 -0.615001 -4.64042 0
M  V30 875 H 86.4113 -1.10118 -6.38575 0
M  V30 876 N 79.8174 1.5752 -0.0501392 0
M  V30 877 C 81.0664 1.91827 0.623328 0
M  V30 878 C 81.3794 0.930222 1.72065 0
M  V30 879 O 82.5854 1.1653 2.4522 0
M  V30 880 C 81.0414 3.40692 1.16003 0
M  V30 881 C 80.6494 4.479 0.0948811 0
M  V30 882 C 82.3934 3.84034 1.80881 0
M  V30 883 C 80.3004 5.87879 0.644411 0
M  V30 884 H 79.2304 0.715918 0.236596 0
M  V30 885 H 81.8814 1.83115 -0.118861 0
M  V30 886 H 80.2634 3.44405 1.9545 0
M  V30 887 H 81.4374 4.55775 -0.678675 0
M  V30 888 H 79.7524 4.13892 -0.45637 0
M  V30 889 H 82.3494 4.85984 2.22988 0
M  V30 890 H 82.6924 3.20225 2.6601 0
M  V30 891 H 83.2254 3.82833 1.0809 0
M  V30 892 H 79.9644 6.55282 -0.169229 0
M  V30 893 H 79.4844 5.83567 1.38598 0
M  V30 894 H 81.1634 6.37098 1.12763 0
M  V30 895 N 81.2955 -0.223234 1.56011 0
M  V30 896 C 82.5415 -0.949279 1.79211 0
M  V30 897 C 82.8745 -1.84054 0.619494 0
M  V30 898 O 82.1495 -1.90726 -0.381317 0
M  V30 899 C 82.4325 -1.78965 3.12479 0
M  V30 900 C 82.2855 -0.924997 4.40186 0
M  V30 901 C 83.6045 -2.76774 3.42175 0
M  V30 902 H 80.7235 -0.343676 0.651963 0
M  V30 903 H 83.3655 -0.218253 1.88742 0
M  V30 904 H 81.5155 -2.41291 3.04485 0
M  V30 905 H 83.1875 -0.318615 4.60198 0
M  V30 906 H 81.4305 -0.230344 4.33188 0
M  V30 907 H 82.1015 -1.54735 5.29869 0
M  V30 908 H 84.5775 -2.24584 3.50287 0
M  V30 909 H 83.4535 -3.32678 4.36597 0
M  V30 910 H 83.7145 -3.54429 2.64258 0
M  V30 911 N 82.7736 -1.49793 -0.48987 0
M  V30 912 C 84.0196 -1.60078 -1.24511 0
M  V30 913 C 84.3526 -0.291608 -1.91998 0
M  V30 914 O 83.6276 0.705647 -1.81248 0
M  V30 915 C 83.9106 -2.76791 -2.30345 0
M  V30 916 C 83.7636 -4.17535 -1.67286 0
M  V30 917 C 85.0826 -2.89111 -3.31817 0
M  V30 918 H 82.2016 -0.582645 -0.451324 0
M  V30 919 H 84.8436 -1.82117 -0.541612 0
M  V30 920 H 82.9936 -2.5813 -2.90346 0
M  V30 921 H 84.6656 -4.4774 -1.11026 0
M  V30 922 H 82.9086 -4.22665 -0.976577 0
M  V30 923 H 83.5796 -4.95094 -2.44103 0
M  V30 924 H 86.0556 -3.06133 -2.81819 0
M  V30 925 H 84.9316 -3.72433 -4.03219 0
M  V30 926 H 85.1926 -1.9893 -3.94815 0
M  V30 927 N 84.2517 0.741722 -1.39055 0
M  V30 928 C 85.2017 1.84661 -1.33732 0
M  V30 929 C 86.1857 1.59397 -0.219401 0
M  V30 930 O 87.3777 1.71015 -0.456375 0
M  V30 931 C 84.5067 3.22512 -1.17647 0
M  V30 932 C 83.5927 3.53628 -2.34112 0
M  V30 933 N 83.9837 3.55723 -3.59576 0
M  V30 934 C 82.2817 3.83956 -2.26923 0
M  V30 935 C 82.9827 3.84443 -4.36553 0
M  V30 936 N 81.9587 4.01877 -3.66055 0
M  V30 937 H 85.7607 1.84576 -2.28711 0
M  V30 938 H 83.2747 0.939647 -1.32455 0
M  V30 939 H 85.2717 4.01597 -1.11917 0
M  V30 940 H 83.9317 3.2384 -0.236124 0
M  V30 941 H 84.9427 3.37196 -3.93089 0
M  V30 942 H 81.6197 3.92929 -1.41113 0
M  V30 943 H 83.0097 3.92588 -5.45274 0
M  V30 944 N 85.7298 1.2412 0.971189 0
M  V30 945 C 86.6798 0.997551 2.05019 0
M  V30 946 C 87.6638 -0.0597747 1.60789 0
M  V30 947 O 88.8558 0.153516 1.76333 0
M  V30 948 C 85.9848 0.600557 3.38006 0
M  V30 949 C 85.0708 1.69377 3.88809 0
M  V30 950 N 85.4618 2.92586 4.12586 0
M  V30 951 C 83.7598 1.57048 4.17435 0
M  V30 952 C 84.4608 3.63431 4.54195 0
M  V30 953 N 83.4368 2.90979 4.59165 0
M  V30 954 H 87.2388 1.93316 2.21374 0
M  V30 955 H 84.7528 1.14194 1.1547 0
M  V30 956 H 86.7498 0.40725 4.14906 0
M  V30 957 H 85.4098 -0.327903 3.2304 0
M  V30 958 H 86.4208 3.288 4.00139 0
M  V30 959 H 83.0978 0.709798 4.11422 0
M  V30 960 H 84.4878 4.69102 4.81033 0
M  V30 961 N 87.2079 -1.17134 1.05439 0
M  V30 962 C 88.1559 -2.23289 0.651511 0
M  V30 963 C 89.1499 -1.66186 -0.328411 0
M  V30 964 O 90.3559 -1.78949 -0.194206 0
M  V30 965 H 86.7309 -0.726938 0.192523 0
M  V30 966 H 88.7019 -2.54565 1.55689 0
M  V30 967 C 87.4509 -3.47671 0.0448436 0
M  V30 968 H 86.7739 -3.91918 0.78996 0
M  V30 969 H 88.2139 -4.2353 -0.19964 0
M  V30 970 C 86.6729 -3.14453 -1.20918 0
M  V30 971 O 87.2029 -3.29459 -2.29825 0
M  V30 972 N 85.4089 -2.68657 -1.10779 0
M  V30 973 H 84.9559 -2.56646 -0.221526 0
M  V30 974 H 84.9139 -2.46804 -1.9477 0
M  V30 975 N 88.686 -0.835752 -1.33615 0
M  V30 976 C 89.934 -0.429109 -1.97492 0
M  V30 977 C 90.255 1.01433 -1.66543 0
M  V30 978 O 89.525 1.70611 -0.962744 0
M  V30 979 H 88.105 -0.155686 -0.730596 0
M  V30 980 H 90.767 -1.06802 -1.63031 0
M  V30 981 H 89.863 -0.55861 -3.0706 0
M  V30 982 N 90.1641 1.46063 -0.591896 0
M  V30 983 C 91.0961 2.28539 0.174001 0
M  V30 984 C 92.1091 1.39047 0.846753 0
M  V30 985 O 93.2981 1.63564 0.714774 0
M  V30 986 C 90.3981 3.14347 1.26645 0
M  V30 987 C 89.5711 4.32021 0.683856 0
M  V30 988 C 88.6301 4.99157 1.66518 0
M  V30 989 O 87.6561 5.56458 1.19763 0
M  V30 990 N 88.8581 4.97005 2.99943 0
M  V30 991 H 91.6231 2.94911 -0.533633 0
M  V30 992 H 89.1841 1.56077 -0.430294 0
M  V30 993 H 91.1761 3.56125 1.92242 0
M  V30 994 H 89.7461 2.49988 1.87682 0
M  V30 995 H 88.9661 3.93915 -0.1498 0
M  V30 996 H 90.2541 5.08059 0.274567 0
M  V30 997 H 89.6521 4.51714 3.40545 0
M  V30 998 H 88.2091 5.42696 3.61004 0
M  V30 999 N 91.6422 0.330177 1.54103 0
M  V30 1000 C 92.9192 -0.325007 1.92881 0
M  V30 1001 C 93.2992 -1.6934 1.26045 0
M  V30 1002 O 92.6472 -2.24855 0.406526 0
M  V30 1003 C 92.8572 -0.410634 3.46576 0
M  V30 1004 C 94.2052 -0.667801 4.19316 0
M  V30 1005 O 95.2292 -0.49329 3.52768 0
M  V30 1006 O 94.0882 -1.00491 5.37181 0
M  V30 1007 H 91.1822 -0.186873 0.80561 0
M  V30 1008 H 93.7282 0.380376 1.65382 0
M  V30 1009 H 92.5002 0.550164 3.87413 0
M  V30 1010 H 92.1232 -1.16333 3.802 0
M  V30 1011 N 93.1203 -1.57491 0.0584922 0
M  V30 1012 C 94.3973 -1.84346 -0.653918 0
M  V30 1013 C 94.7773 -0.948355 -1.88599 0
M  V30 1014 O 94.1253 -0.0112403 -2.28497 0
M  V30 1015 C 94.3353 -3.34239 -1.00425 0
M  V30 1016 C 95.6833 -4.01431 -1.38342 0
M  V30 1017 O 96.7073 -3.38907 -1.09637 0
M  V30 1018 O 95.5663 -5.11683 -1.91943 0
M  V30 1019 H 92.6603 -0.761112 -0.323478 0
M  V30 1020 H 95.2063 -1.6947 0.0884125 0
M  V30 1021 H 93.9783 -3.91089 -0.128625 0
M  V30 1022 H 93.6013 -3.54329 -1.80378 0
M  V30 1023 N 94.5984 0.214957 -1.56127 0
M  V30 1024 C 95.5284 1.2695 -1.95974 0
M  V30 1025 C 96.5094 1.48539 -0.828868 0
M  V30 1026 O 97.6944 1.60611 -1.09168 0
M  V30 1027 C 94.8244 2.61794 -2.28214 0
M  V30 1028 C 93.7784 2.54851 -3.43853 0
M  V30 1029 C 93.1044 3.93785 -3.61715 0
M  V30 1030 C 94.4044 2.09065 -4.78632 0
M  V30 1031 H 96.0984 0.93846 -2.84312 0
M  V30 1032 H 93.6444 0.449996 -1.36788 0
M  V30 1033 H 95.5974 3.35731 -2.54682 0
M  V30 1034 H 94.3214 2.96599 -1.36736 0
M  V30 1035 H 92.9804 1.8337 -3.17444 0
M  V30 1036 H 92.6284 4.25908 -2.67602 0
M  V30 1037 H 92.3284 3.90019 -4.39498 0
M  V30 1038 H 93.8524 4.69374 -3.90539 0
M  V30 1039 H 95.2664 2.7275 -5.04262 0
M  V30 1040 H 93.6634 2.16346 -5.59745 0
M  V30 1041 H 94.7334 1.04315 -4.73547 0
M  V30 1042 N 96.0765 1.50051 0.48192 0
M  V30 1043 C 96.9865 1.7089 1.60728 0
M  V30 1044 C 98.0025 0.591788 1.63627 0
M  V30 1045 O 99.1785 0.868817 1.81696 0
M  V30 1046 C 96.2435 1.78855 2.97005 0
M  V30 1047 C 95.3045 3.02537 3.04581 0
M  V30 1048 C 94.5375 3.10112 4.34357 0
M  V30 1049 O 94.7605 2.24765 5.24249 0
M  V30 1050 O 93.6945 4.02747 4.47301 0
M  V30 1051 H 97.5205 2.66264 1.46072 0
M  V30 1052 H 95.1055 1.34018 0.660264 0
M  V30 1053 H 96.9875 1.86336 3.77964 0
M  V30 1054 H 95.6625 0.866628 3.11883 0
M  V30 1055 H 94.5695 3.00563 2.22739 0
M  V30 1056 H 95.9025 3.94272 2.94636 0
M  V30 1057 N 97.5546 -0.734337 1.39446 0
M  V30 1058 C 98.7846 -1.52137 1.39778 0
M  V30 1059 C 99.1926 -1.89198 -0.00929312 0
M  V30 1060 O 98.5356 -1.54666 -0.991168 0
M  V30 1061 C 98.5976 -2.83762 2.20724 0
M  V30 1062 C 98.2616 -2.69131 3.69347 0
M  V30 1063 C 99.2586 -2.37635 4.62413 0
M  V30 1064 C 96.9436 -2.85982 4.1294 0
M  V30 1065 C 98.9376 -2.23172 5.97054 0
M  V30 1066 C 96.6246 -2.71137 5.47657 0
M  V30 1067 C 97.6226 -2.39777 6.39528 0
M  V30 1068 O 97.3106 -2.25026 7.71763 0
M  V30 1069 H 97.0426 -0.476717 0.479288 0
M  V30 1070 H 99.5966 -0.915012 1.83893 0
M  V30 1071 H 97.8266 -3.4666 1.71359 0
M  V30 1072 H 99.5156 -3.45383 2.13226 0
M  V30 1073 H 100.282 -2.24267 4.30034 0
M  V30 1074 H 96.1606 -3.09383 3.41765 0
M  V30 1075 H 99.7046 -1.98617 6.68728 0
M  V30 1076 H 95.6016 -2.84083 5.79626 0
M  V30 1077 H 96.3696 -2.40091 7.82495 0
M  V30 1078 N 99.0327 -1.24633 -0.964593 0
M  V30 1079 C 99.9627 -1.06611 -2.07741 0
M  V30 1080 C 100.944 0.0218666 -1.70086 0
M  V30 1081 O 102.129 -0.145793 -1.93652 0
M  V30 1082 C 99.2587 -0.673444 -3.40708 0
M  V30 1083 C 98.2127 -1.71054 -3.92332 0
M  V30 1084 C 97.5387 -1.17285 -5.21678 0
M  V30 1085 C 98.8387 -3.10718 -4.19824 0
M  V30 1086 H 100.533 -1.99693 -2.23076 0
M  V30 1087 H 98.0787 -0.96152 -1.07195 0
M  V30 1088 H 100.032 -0.534345 -4.17998 0
M  V30 1089 H 98.7557 0.293073 -3.25282 0
M  V30 1090 H 97.4147 -1.83791 -3.17201 0
M  V30 1091 H 97.0627 -0.196847 -5.02615 0
M  V30 1092 H 96.7627 -1.86592 -5.57187 0
M  V30 1093 H 98.2867 -1.04593 -6.01575 0
M  V30 1094 H 99.7007 -3.01192 -4.87808 0
M  V30 1095 H 98.0977 -3.77406 -4.66567 0
M  V30 1096 H 99.1677 -3.58524 -3.26479 0
M  V30 1097 N 100.511 1.16574 -1.06058 0
M  V30 1098 C 101.759 1.86677 -0.77434 0
M  V30 1099 C 102.08 1.81959 0.701147 0
M  V30 1100 O 101.35 1.2515 1.50713 0
M  V30 1101 H 99.9298 0.691134 -0.283449 0
M  V30 1102 H 102.592 1.41378 -1.34158 0
M  V30 1103 H 101.688 2.92181 -1.09711 0
M  V30 1104 N 101.989 0.842826 1.3317 0
M  V30 1105 C 103.235 0.450342 1.98352 0
M  V30 1106 C 103.59 -0.980508 1.65541 0
M  V30 1107 O 102.883 -1.67678 0.927065 0
M  V30 1108 C 103.077 0.612607 3.52111 0
M  V30 1109 C 102.906 2.05768 3.99862 0
M  V30 1110 C 101.676 2.69374 4.27511 0
M  V30 1111 C 103.874 3.02688 4.15794 0
M  V30 1112 N 101.856 4.04915 4.61429 0
M  V30 1113 C 103.227 4.23186 4.53115 0
M  V30 1114 C 105.282 2.99041 3.98094 0
M  V30 1115 C 103.985 5.40518 4.74587 0
M  V30 1116 C 106.011 4.15607 4.20743 0
M  V30 1117 C 105.373 5.3486 4.58371 0
M  V30 1118 H 101.472 0.213296 0.752349 0
M  V30 1119 H 104.056 1.09173 1.61212 0
M  V30 1120 H 102.227 0.000998822 3.884 0
M  V30 1121 H 103.959 0.191179 4.04248 0
M  V30 1122 H 100.714 2.20485 4.19146 0
M  V30 1123 H 101.138 4.74798 4.82593 0
M  V30 1124 H 105.78 2.0797 3.68114 0
M  V30 1125 H 103.498 6.3213 5.03425 0
M  V30 1126 H 107.084 4.14207 4.08563 0
M  V30 1127 H 105.964 6.23558 4.75547 0
M  V30 1128 N 103.467 -1.45747 0.599634 0
M  V30 1129 C 104.883 -1.57424 0.26264 0
M  V30 1130 C 105.083 -1.59222 -1.23493 0
M  V30 1131 O 104.139 -1.51825 -2.01756 0
M  V30 1132 C 105.452 -2.86061 0.926795 0
M  V30 1133 C 107 -2.99722 0.901967 0
M  V30 1134 C 107.475 -4.31119 1.54598 0
M  V30 1135 N 108.966 -4.37858 1.5111 0
M  V30 1136 C 109.701 -5.3818 1.97863 0
M  V30 1137 N 109.197 -6.45083 2.52666 0
M  V30 1138 N 110.99 -5.29487 1.88679 0
M  V30 1139 H 103.141 -1.42823 1.57211 0
M  V30 1140 H 105.404 -0.68235 0.658105 0
M  V30 1141 H 105.11 -2.90605 1.98095 0
M  V30 1142 H 104.984 -3.74563 0.445238 0
M  V30 1143 H 107.371 -2.9475 -0.143617 0
M  V30 1144 H 107.452 -2.12652 1.42171 0
M  V30 1145 H 107.096 -4.36849 2.59085 0
M  V30 1146 H 107.026 -5.16992 1.00132 0
M  V30 1147 H 109.517 -3.61209 1.11068 0
M  V30 1148 H 109.83 -7.17869 2.86155 0
M  V30 1149 H 108.175 -6.45856 2.56701 0
M  V30 1150 H 111.366 -4.44877 1.4561 0
M  V30 1151 H 111.539 -6.07524 2.25429 0
M  V30 1152 N 104.945 -0.338344 -1.53925 0
M  V30 1153 C 106.191 0.260143 -2.01125 0
M  V30 1154 C 106.524 1.50617 -1.22589 0
M  V30 1155 O 105.799 1.91979 -0.312113 0
M  V30 1156 C 106.082 0.579499 -3.55407 0
M  V30 1157 C 105.935 -0.678264 -4.44657 0
M  V30 1158 C 107.254 1.39122 -4.17532 0
M  V30 1159 H 104.373 0.0930772 -0.731099 0
M  V30 1160 H 107.015 -0.457852 -1.84401 0
M  V30 1161 H 105.165 1.19118 -3.69788 0
M  V30 1162 H 106.837 -1.31631 -4.42121 0
M  V30 1163 H 105.08 -1.3042 -4.13731 0
M  V30 1164 H 105.751 -0.410143 -5.50474 0
M  V30 1165 H 108.227 0.874035 -4.06817 0
M  V30 1166 H 107.103 1.58342 -5.25565 0
M  V30 1167 H 107.364 2.39178 -3.71815 0
M  V30 1168 N 106.423 1.57458 -0.0668435 0
M  V30 1169 C 107.386 2.11323 0.887422 0
M  V30 1170 C 108.386 1.03618 1.22964 0
M  V30 1171 O 109.576 1.29626 1.16373 0
M  V30 1172 C 106.708 2.61048 2.19242 0
M  V30 1173 H 107.901 2.96942 0.420194 0
M  V30 1174 H 105.454 1.55239 0.181793 0
M  V30 1175 H 106.189 1.78868 2.70512 0
M  V30 1176 H 105.974 3.39769 1.95702 0
M  V30 1177 H 107.464 3.02814 2.87565 0
M  V30 1178 N 107.901 -0.206675 1.56239 0
M  V30 1179 C 109.149 -0.927007 1.79586 0
M  V30 1180 C 109.47 -1.8427 0.637929 0
M  V30 1181 O 108.74 -1.92849 -0.344398 0
M  V30 1182 H 107.32 -0.345292 0.662407 0
M  V30 1183 H 109.982 -0.21496 1.93711 0
M  V30 1184 H 109.078 -1.52501 2.72305 0
M  V30 1185 N 109.379 -1.50304 -0.473955 0
M  V30 1186 C 110.326 -1.68959 -1.57231 0
M  V30 1187 C 111.296 -0.530899 -1.57387 0
M  V30 1188 O 112.481 -0.761133 -1.74961 0
M  V30 1189 C 109.621 -1.7871 -2.95223 0
M  V30 1190 C 108.734 -3.06061 -3.04878 0
M  V30 1191 C 107.869 -3.06626 -4.33767 0
M  V30 1192 C 106.908 -4.28443 -4.37154 0
M  V30 1193 N 106.045 -4.26763 -5.5751 0
M  V30 1194 H 110.885 -2.6273 -1.40631 0
M  V30 1195 H 108.422 -1.30241 -0.683789 0
M  V30 1196 H 110.38 -1.82344 -3.75242 0
M  V30 1197 H 109.01 -0.883806 -3.10465 0
M  V30 1198 H 108.062 -3.11911 -2.17751 0
M  V30 1199 H 109.374 -3.96039 -3.0324 0
M  V30 1200 H 108.528 -3.08973 -5.22131 0
M  V30 1201 H 107.267 -2.14473 -4.3801 0
M  V30 1202 H 106.272 -4.2631 -3.47188 0
M  V30 1203 H 107.497 -5.2182 -4.34605 0
M  V30 1204 H 105.443 -3.37462 -5.62544 0
M  V30 1205 H 105.36 -5.10507 -5.57601 0
M  V30 1206 H 106.628 -4.33253 -6.48006 0
M  V30 1207 N 110.857 0.726932 -1.39834 0
M  V30 1208 C 112.268 1.30558 -1.3346 0
M  V30 1209 C 112.619 1.962 -0.00273003 0
M  V30 1210 O 111.744 1.96826 0.899371 0
M  V30 1211 C 112.339 2.37404 -2.41713 0
M  V30 1212 C 110.898 2.90921 -2.38835 0
M  V30 1213 C 110.045 1.64578 -2.2318 0
M  V30 1214 H 112.996 0.523862 -1.49804 0
M  V30 1215 H 113.017 3.17984 -2.08966 0
M  V30 1216 H 112.529 1.89599 -3.38635 0
M  V30 1217 H 110.63 3.42985 -1.45575 0
M  V30 1218 H 110.743 3.43487 -3.33997 0
M  V30 1219 H 109.107 1.89219 -1.70494 0
M  V30 1220 H 109.89 1.18814 -3.22084 0
M  V30 1221 N 112.336 1.25143 0.95797 0
M  V30 1222 C 113.246 1.06968 2.08794 0
M  V30 1223 C 114.262 0.00773911 1.73998 0
M  V30 1224 O 115.438 0.207972 2.00323 0
M  V30 1225 C 112.503 0.68691 3.39827 0
M  V30 1226 C 111.564 1.82641 3.88511 0
M  V30 1227 C 110.797 1.46181 5.1329 0
M  V30 1228 O 111.02 0.355971 5.69288 0
M  V30 1229 O 109.954 2.29085 5.566 0
M  V30 1230 H 113.78 2.01723 2.27027 0
M  V30 1231 H 111.365 1.04051 1.07209 0
M  V30 1232 H 113.247 0.485417 4.18595 0
M  V30 1233 H 111.922 -0.231417 3.22872 0
M  V30 1234 H 110.829 2.08274 3.10762 0
M  V30 1235 H 112.162 2.72386 4.09959 0
M  V30 1236 N 113.814 -1.1601 1.06675 0
M  V30 1237 C 115.061 -1.86633 0.785781 0
M  V30 1238 C 115.389 -1.81929 -0.687896 0
M  V30 1239 O 114.644 -1.23253 -1.52011 0
M  V30 1240 C 114.943 -3.35547 1.23057 0
M  V30 1241 C 114.609 -3.60448 2.70902 0
M  V30 1242 C 113.271 -3.66954 3.11285 0
M  V30 1243 C 115.623 -3.7071 3.66365 0
M  V30 1244 C 112.951 -3.81225 4.45965 0
M  V30 1245 C 115.303 -3.86503 5.00797 0
M  V30 1246 C 113.967 -3.91252 5.40813 0
M  V30 1247 H 113.237 -0.682937 0.287538 0
M  V30 1248 H 115.884 -1.37146 1.33654 0
M  V30 1249 H 114.189 -3.87193 0.59907 0
M  V30 1250 H 115.886 -3.88583 0.990163 0
M  V30 1251 H 112.476 -3.56021 2.38636 0
M  V30 1252 H 116.66 -3.64991 3.36296 0
M  V30 1253 H 111.916 -3.83155 4.76447 0
M  V30 1254 H 116.09 -3.93385 5.74649 0
M  V30 1255 H 113.717 -4.02062 6.45174 0
M  V30 1256 N 115.292 -0.849877 -1.32721 0
M  V30 1257 C 116.202 -0.293791 -2.32753 0
M  V30 1258 C 117.218 0.585906 -1.63839 0
M  V30 1259 O 118.394 0.487413 -1.95413 0
M  V30 1260 C 115.459 0.512752 -3.42887 0
M  V30 1261 C 114.52 -0.39252 -4.27502 0
M  V30 1262 C 113.753 0.375625 -5.32377 0
M  V30 1263 O 113.976 1.60613 -5.4732 0
M  V30 1264 O 112.91 -0.256094 -6.01355 0
M  V30 1265 H 116.736 -1.12242 -2.82197 0
M  V30 1266 H 114.321 -0.612685 -1.36259 0
M  V30 1267 H 116.203 0.970704 -4.10067 0
M  V30 1268 H 114.878 1.31826 -2.95641 0
M  V30 1269 H 113.785 -0.898547 -3.63149 0
M  V30 1270 H 115.118 -1.16309 -4.7826 0
M  V30 1271 N 116.77 1.45427 -0.607355 0
M  V30 1272 C 117.733 2.28974 0.101693 0
M  V30 1273 C 118.733 1.39754 0.795329 0
M  V30 1274 O 119.923 1.61878 0.643527 0
M  V30 1275 C 117.055 3.20768 1.15414 0
M  V30 1276 H 118.248 2.93147 -0.632844 0
M  V30 1277 H 115.801 1.51945 -0.366391 0
M  V30 1278 H 116.536 2.61395 1.91945 0
M  V30 1279 H 116.321 3.86489 0.66098 0
M  V30 1280 H 117.811 3.83589 1.65073 0
M  V30 1281 N 118.248 0.346503 1.53744 0
M  V30 1282 C 119.178 -0.501193 2.28058 0
M  V30 1283 C 120.159 -1.10014 1.29734 0
M  V30 1284 O 121.344 -1.12097 1.58581 0
M  V30 1285 C 118.474 -1.65078 3.05559 0
M  V30 1286 C 117.428 -1.18003 4.11411 0
M  V30 1287 C 116.754 -2.41837 4.76884 0
M  V30 1288 C 118.054 -0.278394 5.21558 0
M  V30 1289 H 119.748 0.11875 2.99164 0
M  V30 1290 H 117.294 0.0585531 1.43881 0
M  V30 1291 H 119.247 -2.25028 3.56287 0
M  V30 1292 H 117.971 -2.29767 2.32109 0
M  V30 1293 H 116.63 -0.603331 3.61601 0
M  V30 1294 H 116.278 -3.0494 4.00026 0
M  V30 1295 H 115.978 -2.1102 5.48402 0
M  V30 1296 H 117.502 -3.02508 5.30397 0
M  V30 1297 H 118.916 -0.784823 5.67903 0
M  V30 1298 H 117.313 -0.0619707 6.00068 0
M  V30 1299 H 118.383 0.684677 4.80042 0
M  V30 1300 N 119.726 -1.57421 0.075193 0
M  V30 1301 C 120.974 -1.93236 -0.591974 0
M  V30 1302 C 121.295 -0.956241 -1.69944 0
M  V30 1303 O 120.565 -0.00494792 -1.95899 0
M  V30 1304 H 119.145 -0.713355 -0.22166 0
M  V30 1305 H 121.807 -1.9444 0.133848 0
M  V30 1306 H 120.903 -2.95131 -1.01509 0
M  V30 1307 N 121.204 0.198386 -1.56346 0
M  V30 1308 C 122.136 1.26987 -1.90806 0
M  V30 1309 C 123.149 1.41877 -0.798419 0
M  V30 1310 O 124.338 1.42362 -1.07682 0
M  V30 1311 C 121.438 2.64246 -2.12196 0
M  V30 1312 C 120.611 2.71007 -3.43328 0
M  V30 1313 C 119.67 3.89439 -3.5387 0
M  V30 1314 O 118.696 3.76695 -4.26719 0
M  V30 1315 N 119.898 5.04752 -2.86715 0
M  V30 1316 H 122.663 0.977433 -2.83313 0
M  V30 1317 H 120.224 0.388322 -1.57174 0
M  V30 1318 H 122.216 3.41896 -2.1654 0
M  V30 1319 H 120.786 2.85992 -1.26204 0
M  V30 1320 H 120.006 1.79657 -3.50881 0
M  V30 1321 H 121.294 2.72512 -4.29668 0
M  V30 1322 H 120.692 5.18004 -2.2735 0
M  V30 1323 H 119.249 5.8036 -2.96691 0
M  V30 1324 N 122.682 1.50554 0.465978 0
M  V30 1325 C 123.629 1.6979 1.56333 0
M  V30 1326 C 124.599 0.539239 1.57103 0
M  V30 1327 O 125.784 0.770401 1.74555 0
M  V30 1328 C 122.924 1.80273 2.94271 0
M  V30 1329 C 122.037 3.07674 3.0325 0
M  V30 1330 C 121.172 3.08922 4.32135 0
M  V30 1331 C 120.211 4.30755 4.34875 0
M  V30 1332 N 119.348 4.29714 5.55239 0
M  V30 1333 H 124.188 2.63472 1.39235 0
M  V30 1334 H 121.725 1.30602 0.676873 0
M  V30 1335 H 123.683 1.84332 3.74269 0
M  V30 1336 H 122.313 0.900258 3.09992 0
M  V30 1337 H 121.365 3.13062 2.16094 0
M  V30 1338 H 122.677 3.97642 3.01135 0
M  V30 1339 H 121.831 3.11738 5.20485 0
M  V30 1340 H 120.57 2.16792 4.36866 0
M  V30 1341 H 119.575 4.28146 3.44922 0
M  V30 1342 H 120.8 5.24117 4.31831 0
M  V30 1343 H 118.746 3.4044 5.60746 0
M  V30 1344 H 118.663 5.13456 5.54886 0
M  V30 1345 H 119.931 4.36683 6.457 0
M  V30 1346 N 124.16 -0.719506 1.40217 0
M  V30 1347 C 125.09 -1.8465 1.42922 0
M  V30 1348 C 126.071 -1.67599 0.29062 0
M  V30 1349 O 127.256 -1.87688 0.498677 0
M  V30 1350 C 124.386 -3.22565 1.28722 0
M  V30 1351 C 123.34 -3.54281 2.40144 0
M  V30 1352 C 122.666 -4.91298 2.11023 0
M  V30 1353 C 123.966 -3.55676 3.82481 0
M  V30 1354 H 125.66 -1.82644 2.37237 0
M  V30 1355 H 123.206 -0.877305 1.1419 0
M  V30 1356 H 125.159 -4.01095 1.29232 0
M  V30 1357 H 123.883 -3.25137 0.308811 0
M  V30 1358 H 122.542 -2.78088 2.38877 0
M  V30 1359 H 122.19 -4.90468 1.11582 0
M  V30 1360 H 121.89 -5.13485 2.8567 0
M  V30 1361 H 123.414 -5.72166 2.13209 0
M  V30 1362 H 124.828 -4.24254 3.85592 0
M  V30 1363 H 123.225 -3.89388 4.56614 0
M  V30 1364 H 124.295 -2.55144 4.12346 0
M  V30 1365 N 125.638 -1.25649 -0.95132 0
M  V30 1366 C 126.887 -1.09988 -1.69073 0
M  V30 1367 C 127.2 0.358355 -1.92289 0
M  V30 1368 O 128.406 0.635466 -2.63958 0
M  V30 1369 C 126.862 -1.92012 -3.044 0
M  V30 1370 C 126.47 -3.42347 -2.88968 0
M  V30 1371 C 128.214 -1.8493 -3.82101 0
M  V30 1372 C 126.121 -4.16655 -4.19705 0
M  V30 1373 H 125.051 -0.407993 -0.63408 0
M  V30 1374 H 127.702 -1.49873 -1.05879 0
M  V30 1375 H 126.084 -1.44952 -3.68517 0
M  V30 1376 H 127.258 -3.97104 -2.33762 0
M  V30 1377 H 125.573 -3.50557 -2.24719 0
M  V30 1378 H 128.17 -2.37739 -4.78941 0
M  V30 1379 H 128.513 -0.817883 -4.08187 0
M  V30 1380 H 129.046 -2.29758 -3.2474 0
M  V30 1381 H 125.785 -5.20224 -3.98807 0
M  V30 1382 H 125.305 -3.66681 -4.74663 0
M  V30 1383 H 126.984 -4.24551 -4.88227 0
M  V30 1384 N 127.117 1.15442 -1.07289 0
M  V30 1385 C 128.394 1.82306 -0.708792 0
M  V30 1386 C 128.774 1.94991 0.808807 0
M  V30 1387 O 128.122 1.50085 1.72298 0
M  V30 1388 C 128.332 3.18695 -1.42247 0
M  V30 1389 C 129.68 3.94341 -1.57417 0
M  V30 1390 O 130.704 3.28247 -1.38319 0
M  V30 1391 O 129.563 5.12839 -1.88834 0
M  V30 1392 H 126.657 0.787628 -0.252132 0
M  V30 1393 H 129.203 1.22559 -1.17377 0
M  V30 1394 H 127.975 3.04557 -2.45684 0
M  V30 1395 H 127.598 3.86128 -0.948223 0
M  V30 1396 N 128.595 0.856903 1.32268 0
M  V30 1397 C 129.558 0.308171 2.27119 0
M  V30 1398 C 130.558 -0.533421 1.51695 0
M  V30 1399 O 131.748 -0.344607 1.70757 0
M  V30 1400 C 128.88 -0.563757 3.36206 0
M  V30 1401 H 130.073 1.14535 2.77167 0
M  V30 1402 H 127.626 0.631421 1.42978 0
M  V30 1403 H 128.361 -1.42266 2.91429 0
M  V30 1404 H 128.146 0.0386749 3.92081 0
M  V30 1405 H 129.636 -0.940386 4.06874 0
M  V30 1406 N 130.073 -1.45103 0.615059 0
M  V30 1407 C 131.321 -2.01784 0.112955 0
M  V30 1408 C 131.642 -1.48504 -1.26378 0
M  V30 1409 O 130.912 -0.682245 -1.83636 0
M  V30 1410 H 129.492 -0.745993 0.0387668 0
M  V30 1411 H 132.154 -1.77808 0.798141 0
M  V30 1412 H 131.25 -3.12025 0.0684069 0
M  V30 1413 N 131.551 -0.354651 -1.53558 0
M  V30 1414 C 132.781 0.239167 -2.05211 0
M  V30 1415 C 133.189 1.43879 -1.22863 0
M  V30 1416 O 132.532 1.81857 -0.259565 0
M  V30 1417 C 132.594 0.707251 -3.52474 0
M  V30 1418 C 132.258 -0.374212 -4.55465 0
M  V30 1419 C 133.255 -1.22054 -5.0537 0
M  V30 1420 C 130.94 -0.531323 -4.99482 0
M  V30 1421 C 132.934 -2.20942 -5.97882 0
M  V30 1422 C 130.621 -1.52358 -5.91802 0
M  V30 1423 C 131.619 -2.36108 -6.40892 0
M  V30 1424 O 131.307 -3.33643 -7.31394 0
M  V30 1425 H 131.039 0.0479716 -0.674296 0
M  V30 1426 H 133.593 -0.508121 -1.99016 0
M  V30 1427 H 131.823 1.50596 -3.56171 0
M  V30 1428 H 133.512 1.22285 -3.87042 0
M  V30 1429 H 134.278 -1.1103 -4.7212 0
M  V30 1430 H 130.157 0.110738 -4.60867 0
M  V30 1431 H 133.701 -2.86348 -6.36121 0
M  V30 1432 H 129.598 -1.63434 -6.24467 0
M  V30 1433 H 130.366 -3.29244 -7.4936 0
M  V30 1434 N 133.029 1.57378 -0.0835403 0
M  V30 1435 C 133.976 2.13384 0.879539 0
M  V30 1436 C 134.946 1.04936 1.28754 0
M  V30 1437 O 136.131 1.32662 1.37133 0
M  V30 1438 C 133.271 2.70932 2.13752 0
M  V30 1439 C 132.384 3.93575 1.7811 0
M  V30 1440 C 131.519 4.39326 2.98607 0
M  V30 1441 C 130.558 5.54587 2.59037 0
M  V30 1442 N 129.695 5.95243 3.72331 0
M  V30 1443 H 134.535 2.9537 0.395076 0
M  V30 1444 H 132.072 1.45953 0.183349 0
M  V30 1445 H 134.03 3.02411 2.87408 0
M  V30 1446 H 132.66 1.91693 2.59718 0
M  V30 1447 H 131.712 3.68483 0.94469 0
M  V30 1448 H 133.024 4.77258 1.45005 0
M  V30 1449 H 132.178 4.72528 3.80529 0
M  V30 1450 H 130.917 3.5452 3.34913 0
M  V30 1451 H 129.922 5.21024 1.75539 0
M  V30 1452 H 131.147 6.41133 2.23887 0
M  V30 1453 H 129.093 5.13385 4.08378 0
M  V30 1454 H 129.01 6.73694 3.43034 0
M  V30 1455 H 130.278 6.33072 4.54797 0
M  V30 1456 N 134.507 -0.190092 1.56449 0
M  V30 1457 C 135.756 -0.907912 1.80111 0
M  V30 1458 C 136.069 -1.84214 0.657619 0
M  V30 1459 O 137.275 -2.60094 0.778663 0
M  V30 1460 C 135.731 -1.66485 3.19078 0
M  V30 1461 C 135.339 -0.7752 4.41242 0
M  V30 1462 C 137.083 -2.37201 3.52045 0
M  V30 1463 C 134.99 -1.53129 5.71231 0
M  V30 1464 H 133.92 -0.34276 0.671589 0
M  V30 1465 H 136.571 -0.161109 1.82791 0
M  V30 1466 H 134.953 -2.45572 3.10661 0
M  V30 1467 H 136.127 -0.0226298 4.60794 0
M  V30 1468 H 134.442 -0.178627 4.16017 0
M  V30 1469 H 137.039 -2.94329 4.46402 0
M  V30 1470 H 137.382 -3.11632 2.76028 0
M  V30 1471 H 137.915 -1.65075 3.61932 0
M  V30 1472 H 134.654 -0.82967 6.50228 0
M  V30 1473 H 134.174 -2.25767 5.55688 0
M  V30 1474 H 135.853 -2.08377 6.12526 0
M  V30 1475 N 135.985 -1.50799 -0.457987 0
M  V30 1476 C 137.401 -1.38515 -0.792819 0
M  V30 1477 C 137.601 -0.451409 -1.96379 0
M  V30 1478 O 136.657 0.10112 -2.52297 0
M  V30 1479 C 137.97 -2.80149 -1.09258 0
M  V30 1480 C 139.518 -2.89156 -1.19825 0
M  V30 1481 C 139.993 -4.31651 -1.53106 0
M  V30 1482 N 141.484 -4.34662 -1.60072 0
M  V30 1483 C 142.219 -5.41928 -1.87354 0
M  V30 1484 N 141.715 -6.59384 -2.12568 0
M  V30 1485 N 143.508 -5.29385 -1.88965 0
M  V30 1486 H 135.659 -2.10073 0.313511 0
M  V30 1487 H 137.922 -0.944803 0.0777862 0
M  V30 1488 H 137.628 -3.50374 -0.305084 0
M  V30 1489 H 137.502 -3.18204 -2.02549 0
M  V30 1490 H 139.889 -2.19141 -1.97639 0
M  V30 1491 H 139.97 -2.54626 -0.244821 0
M  V30 1492 H 139.614 -5.02208 -0.758266 0
M  V30 1493 H 139.544 -4.63678 -2.49621 0
M  V30 1494 H 142.035 -3.49973 -1.42573 0
M  V30 1495 H 142.348 -7.36934 -2.32696 0
M  V30 1496 H 140.693 -6.62535 -2.09933 0
M  V30 1497 H 143.884 -4.36616 -1.68772 0
M  V30 1498 H 144.057 -6.13066 -2.09891 0
M  V30 1499 N 137.463 0.71206 -1.40597 0
M  V30 1500 C 138.712 1.46754 -1.38369 0
M  V30 1501 C 139.025 1.95598 0.0097839 0
M  V30 1502 O 140.231 2.71059 0.154677 0
M  V30 1503 C 138.687 2.65289 -2.43207 0
M  V30 1504 C 138.295 2.23301 -3.88382 0
M  V30 1505 C 140.039 3.43008 -2.50091 0
M  V30 1506 C 137.946 3.38696 -4.84808 0
M  V30 1507 H 136.876 0.55118 -0.514506 0
M  V30 1508 H 139.527 0.774616 -1.66349 0
M  V30 1509 H 137.909 3.36769 -2.08332 0
M  V30 1510 H 139.083 1.59218 -4.32419 0
M  V30 1511 H 137.398 1.58618 -3.85006 0
M  V30 1512 H 139.995 4.28881 -3.1932 0
M  V30 1513 H 140.338 3.87065 -1.53253 0
M  V30 1514 H 140.871 2.78574 -2.83974 0
M  V30 1515 H 137.61 2.99668 -5.82992 0
M  V30 1516 H 137.13 4.01683 -4.45433 0
M  V30 1517 H 138.809 4.04712 -5.04794 0
M  V30 1518 N 138.941 1.26152 0.944643 0
M  V30 1519 C 140.181 1.12708 1.70517 0
M  V30 1520 C 140.545 -0.324727 1.89234 0
M  V30 1521 O 141.746 -0.581211 2.62441 0
M  V30 1522 C 140.017 1.8713 3.04495 0
M  V30 1523 S 141.576 1.89698 3.95677 0
M  V30 1524 H 138.394 0.402665 0.585988 0
M  V30 1525 H 140.996 1.59821 1.12594 0
M  V30 1526 H 139.7 2.91833 2.88551 0
M  V30 1527 H 139.231 1.40444 3.67477 0
M  V30 1528 H 141.246 0.981198 4.86402 0
M  V30 1529 N 140.419 -1.14872 1.07899 0
M  V30 1530 C 141.696 -1.81928 0.71845 0
M  V30 1531 C 142.076 -1.95417 -0.798455 0
M  V30 1532 O 141.424 -1.50997 -1.715 0
M  V30 1533 C 141.634 -3.17937 1.43935 0
M  V30 1534 C 142.982 -3.93501 1.59506 0
M  V30 1535 O 144.006 -3.27509 1.40058 0
M  V30 1536 O 142.865 -5.1183 1.91551 0
M  V30 1537 H 139.959 -0.78628 0.256305 0
M  V30 1538 H 142.505 -1.21934 1.18026 0
M  V30 1539 H 141.277 -3.0325 2.47295 0
M  V30 1540 H 140.9 -3.85619 0.968687 0
M  V30 1541 N 141.898 -0.863906 -1.31812 0
M  V30 1542 C 142.845 -0.313303 -2.28664 0
M  V30 1543 C 143.815 0.584868 -1.55462 0
M  V30 1544 O 145 0.517805 -1.83639 0
M  V30 1545 C 142.14 0.48441 -3.41683 0
M  V30 1546 C 141.253 -0.440594 -4.29747 0
M  V30 1547 C 140.388 0.370652 -5.29905 0
M  V30 1548 C 139.427 -0.551164 -6.09613 0
M  V30 1549 N 138.564 0.223462 -7.01744 0
M  V30 1550 H 143.404 -1.14444 -2.75148 0
M  V30 1551 H 140.941 -0.575769 -1.35364 0
M  V30 1552 H 142.899 0.962627 -4.05943 0
M  V30 1553 H 141.529 1.28029 -2.96325 0
M  V30 1554 H 140.581 -1.03724 -3.65986 0
M  V30 1555 H 141.893 -1.14767 -4.85417 0
M  V30 1556 H 141.047 0.911638 -5.99812 0
M  V30 1557 H 139.786 1.11105 -4.74876 0
M  V30 1558 H 138.791 -1.10396 -5.38603 0
M  V30 1559 H 140.016 -1.29032 -6.66729 0
M  V30 1560 H 137.962 0.946787 -6.49132 0
M  V30 1561 H 137.879 -0.424399 -7.54808 0
M  V30 1562 H 139.147 0.745876 -7.75923 0
M  V30 1563 N 143.376 1.44774 -0.622745 0
M  V30 1564 C 144.622 2.0242 -0.124083 0
M  V30 1565 C 144.955 1.4881 1.24777 0
M  V30 1566 O 144.23 0.668799 1.8264 0
M  V30 1567 C 144.513 3.59957 -0.101619 0
M  V30 1568 C 144.366 4.23867 -1.50521 0
M  V30 1569 C 145.685 4.36284 0.578272 0
M  V30 1570 H 142.804 0.735528 -0.0465645 0
M  V30 1571 H 145.446 1.72447 -0.797617 0
M  V30 1572 H 143.596 3.85623 0.471934 0
M  V30 1573 H 145.268 4.09336 -2.12701 0
M  V30 1574 H 143.511 3.81684 -2.06154 0
M  V30 1575 H 144.182 5.32843 -1.4416 0
M  V30 1576 H 146.658 4.16001 0.0906057 0
M  V30 1577 H 145.534 5.46004 0.563149 0
M  V30 1578 H 145.795 4.10271 1.64713 0
M  V30 1579 N 144.854 0.36279 1.53368 0
M  V30 1580 C 145.764 -0.492994 2.29362 0
M  V30 1581 C 146.78 -1.09507 1.35219 0
M  V30 1582 O 147.956 -1.10662 1.68273 0
M  V30 1583 C 145.021 -1.61855 3.066 0
M  V30 1584 C 144.082 -1.04429 4.16405 0
M  V30 1585 C 143.315 -2.11621 4.89951 0
M  V30 1586 O 143.538 -3.32684 4.63333 0
M  V30 1587 O 142.472 -1.74835 5.75948 0
M  V30 1588 H 146.298 0.125331 3.03441 0
M  V30 1589 H 143.883 0.127253 1.48857 0
M  V30 1590 H 145.765 -2.27302 3.54841 0
M  V30 1591 H 144.44 -2.22233 2.3536 0
M  V30 1592 H 143.347 -0.353819 3.72423 0
M  V30 1593 H 144.68 -0.485113 4.89804 0
M  V30 1594 N 146.332 -1.57332 0.0918853 0
M  V30 1595 C 147.295 -2.12708 -0.85369 0
M  V30 1596 C 148.295 -1.05561 -1.213 0
M  V30 1597 O 149.485 -1.31461 -1.14296 0
M  V30 1598 C 146.617 -2.64503 -2.15061 0
M  V30 1599 H 147.81 -2.97573 -0.3729 0
M  V30 1600 H 145.363 -1.55509 -0.157072 0
M  V30 1601 H 146.098 -1.83149 -2.67632 0
M  V30 1602 H 145.883 -3.4284 -1.90272 0
M  V30 1603 H 147.373 -3.07351 -2.82711 0
M  V30 1604 N 147.81 0.181792 -1.56548 0
M  V30 1605 C 148.742 1.24956 -1.92142 0
M  V30 1606 C 149.755 1.41022 -0.813422 0
M  V30 1607 O 150.944 1.41212 -1.09186 0
M  V30 1608 C 148.044 2.61981 -2.14987 0
M  V30 1609 C 147.217 2.6735 -3.46183 0
M  V30 1610 C 146.276 3.85664 -3.5798 0
M  V30 1611 O 145.302 3.72148 -4.30691 0
M  V30 1612 N 146.504 5.01683 -2.92053 0
M  V30 1613 H 149.269 0.947329 -2.84334 0
M  V30 1614 H 146.83 0.371629 -1.57577 0
M  V30 1615 H 148.822 3.3958 -2.20154 0
M  V30 1616 H 147.392 2.84637 -1.2923 0
M  V30 1617 H 146.612 1.75925 -3.52766 0
M  V30 1618 H 147.9 2.67939 -4.32534 0
M  V30 1619 H 147.298 5.15564 -2.32832 0
M  V30 1620 H 145.855 5.77181 -3.0283 0
M  V30 1621 N 149.288 1.51039 0.449983 0
M  V30 1622 C 150.198 1.74261 1.57067 0
M  V30 1623 C 151.214 0.626363 1.62335 0
M  V30 1624 O 152.39 0.907162 1.79812 0
M  V30 1625 C 149.455 1.85114 2.93144 0
M  V30 1626 C 148.516 3.0893 2.98095 0
M  V30 1627 C 147.749 3.19256 4.27681 0
M  V30 1628 O 147.972 2.35835 5.19363 0
M  V30 1629 O 146.906 4.12144 4.38658 0
M  V30 1630 H 150.732 2.69303 1.40391 0
M  V30 1631 H 148.317 1.35389 0.631688 0
M  V30 1632 H 150.199 1.94311 3.73926 0
M  V30 1633 H 148.874 0.932588 3.09975 0
M  V30 1634 H 147.781 3.0522 2.16314 0
M  V30 1635 H 149.114 4.00433 2.86206 0
M  V30 1636 N 150.766 -0.704594 1.40972 0
M  V30 1637 C 152.182 -1.01406 1.23244 0
M  V30 1638 C 152.382 -2.01169 0.115399 0
M  V30 1639 O 151.438 -2.47021 -0.523147 0
M  V30 1640 C 152.751 -1.54728 2.57836 0
M  V30 1641 C 154.299 -1.66658 2.64942 0
M  V30 1642 C 154.774 -2.23383 3.9983 0
M  V30 1643 N 156.265 -2.30756 4.01629 0
M  V30 1644 C 157 -2.75655 5.02794 0
M  V30 1645 N 156.496 -3.20225 6.14352 0
M  V30 1646 N 158.289 -2.75138 4.90159 0
M  V30 1647 H 150.44 -0.0435285 2.12355 0
M  V30 1648 H 152.703 -0.0818951 0.944456 0
M  V30 1649 H 152.409 -0.888832 3.40283 0
M  V30 1650 H 152.283 -2.53084 2.79693 0
M  V30 1651 H 154.67 -2.31617 1.8286 0
M  V30 1652 H 154.751 -0.668717 2.46904 0
M  V30 1653 H 154.395 -1.59043 4.82357 0
M  V30 1654 H 154.325 -3.23904 4.15203 0
M  V30 1655 H 156.816 -1.99291 3.21079 0
M  V30 1656 H 157.129 -3.53084 6.87424 0
M  V30 1657 H 155.474 -3.18156 6.17901 0
M  V30 1658 H 158.665 -2.39661 4.02095 0
M  V30 1659 H 158.838 -3.09812 5.6914 0
M  V30 1660 N 152.244 -1.26651 -0.937939 0
M  V30 1661 C 153.177 -1.02811 -2.03728 0
M  V30 1662 C 154.155 0.0481915 -1.62529 0
M  V30 1663 O 155.339 -0.0948839 -1.88261 0
M  V30 1664 C 152.466 -0.557517 -3.3408 0
M  V30 1665 C 151.512 -1.62686 -3.94253 0
M  V30 1666 S 152.345 -3.21667 -4.28125 0
M  V30 1667 C 153.501 -2.76384 -5.61572 0
M  V30 1668 H 153.734 -1.95891 -2.23638 0
M  V30 1669 H 151.267 -1.10367 -1.07974 0
M  V30 1670 H 153.225 -0.292674 -4.09455 0
M  V30 1671 H 151.886 0.353062 -3.12109 0
M  V30 1672 H 151.079 -1.24866 -4.88287 0
M  V30 1673 H 150.681 -1.84324 -3.25424 0
M  V30 1674 H 152.973 -2.2105 -6.40424 0
M  V30 1675 H 153.916 -3.69123 -6.0428 0
M  V30 1676 H 154.324 -2.15847 -5.21604 0
M  V30 1677 N 153.722 1.14298 -1.08507 0
M  V30 1678 C 154.968 1.85633 -0.816581 0
M  V30 1679 C 155.301 1.82784 0.656021 0
M  V30 1680 O 154.576 1.25926 1.48233 0
M  V30 1681 C 154.859 3.34223 -1.34041 0
M  V30 1682 C 154.712 3.45639 -2.87843 0
M  V30 1683 C 156.031 4.29356 -0.9665 0
M  V30 1684 H 153.15 0.67402 -0.298104 0
M  V30 1685 H 155.792 1.34214 -1.34487 0
M  V30 1686 H 153.942 3.78144 -0.89104 0
M  V30 1687 H 155.614 3.10498 -3.41158 0
M  V30 1688 H 153.857 2.86817 -3.25451 0
M  V30 1689 H 154.528 4.50089 -3.19569 0
M  V30 1690 H 157.004 3.93457 -1.35391 0
M  V30 1691 H 155.88 5.3178 -1.3602 0
M  V30 1692 H 156.141 4.41919 0.126362 0
M  V30 1693 N 155.201 0.870884 1.31352 0
M  V30 1694 C 156.131 0.343096 2.30966 0
M  V30 1695 C 157.112 -0.566507 1.60389 0
M  V30 1696 O 158.297 -0.483336 1.88089 0
M  V30 1697 C 155.427 -0.455487 3.443 0
M  V30 1698 C 154.381 0.361103 4.26474 0
M  V30 1699 C 153.707 -0.563221 5.31725 0
M  V30 1700 C 155.007 1.59566 4.97329 0
M  V30 1701 H 156.701 1.17548 2.75359 0
M  V30 1702 H 154.247 0.566686 1.32381 0
M  V30 1703 H 156.2 -0.83525 4.13039 0
M  V30 1704 H 154.924 -1.32139 2.98675 0
M  V30 1705 H 153.583 0.722825 3.59403 0
M  V30 1706 H 153.231 -1.42643 4.82351 0
M  V30 1707 H 152.931 -0.0207409 5.87596 0
M  V30 1708 H 154.455 -0.939808 6.03324 0
M  V30 1709 H 155.869 1.28728 5.58661 0
M  V30 1710 H 154.266 2.07728 5.63 0
M  V30 1711 H 155.336 2.34798 4.24262 0
M  V30 1712 N 156.679 -1.44442 0.630414 0
M  V30 1713 C 157.927 -2.01653 0.134351 0
M  V30 1714 C 158.248 -1.49836 -1.24796 0
M  V30 1715 O 157.518 -0.701684 -1.82902 0
M  V30 1716 H 156.098 -0.74554 0.0466769 0
M  V30 1717 H 158.76 -1.76952 0.816955 0
M  V30 1718 H 157.856 -3.11935 0.101498 0
M  V30 1719 N 158.157 -0.370918 -1.53173 0
M  V30 1720 C 159.087 0.464847 -2.28826 0
M  V30 1721 C 160.068 1.07936 -1.31468 0
M  V30 1722 O 161.253 1.0956 -1.60344 0
M  V30 1723 C 158.383 1.60196 -3.08147 0
M  V30 1724 C 157.337 1.11443 -4.13237 0
M  V30 1725 C 156.663 2.3422 -4.80672 0
M  V30 1726 C 157.963 0.195384 -5.21934 0
M  V30 1727 H 159.657 -0.166329 -2.98938 0
M  V30 1728 H 157.203 -0.0814359 -1.4377 0
M  V30 1729 H 159.156 2.19332 -3.59822 0
M  V30 1730 H 157.88 2.26045 -2.35735 0
M  V30 1731 H 156.539 0.545727 -3.62515 0
M  V30 1732 H 156.187 2.98537 -4.04827 0
M  V30 1733 H 155.887 2.02269 -5.51689 0
M  V30 1734 H 157.411 2.94032 -5.35143 0
M  V30 1735 H 158.825 0.694375 -5.69079 0
M  V30 1736 H 157.222 -0.0335027 -6.00091 0
M  V30 1737 H 158.292 -0.760961 -4.78892 0
M  V30 1738 N 159.635 1.57281 -0.100228 0
M  V30 1739 C 160.568 2.09976 0.893612 0
M  V30 1740 C 161.546 1.01155 1.27304 0
M  V30 1741 O 162.73 1.28687 1.37739 0
M  V30 1742 C 159.857 2.58098 2.19324 0
M  V30 1743 C 158.903 3.78626 1.96328 0
M  V30 1744 S 159.736 5.21959 1.19662 0
M  V30 1745 C 160.892 5.73435 2.50844 0
M  V30 1746 H 161.125 2.93946 0.44534 0
M  V30 1747 H 158.658 1.53985 0.113167 0
M  V30 1748 H 160.616 2.8648 2.94005 0
M  V30 1749 H 159.277 1.74344 2.61272 0
M  V30 1750 H 158.47 4.10382 2.92579 0
M  V30 1751 H 158.072 3.50763 1.29775 0
M  V30 1752 H 160.364 5.82015 3.46792 0
M  V30 1753 H 161.307 6.7185 2.23659 0
M  V30 1754 H 161.715 5.01395 2.59352 0
M  V30 1755 N 161.113 -0.173488 1.56642 0
M  V30 1756 C 162.06 -1.21482 1.96242 0
M  V30 1757 C 163.03 -1.44104 0.826027 0
M  V30 1758 O 164.215 -1.5688 1.08597 0
M  V30 1759 C 161.355 -2.54964 2.32567 0
M  V30 1760 C 160.468 -2.39739 3.59373 0
M  V30 1761 C 159.603 -3.66072 3.84921 0
M  V30 1762 C 158.642 -3.45771 5.05083 0
M  V30 1763 N 157.779 -4.64169 5.26775 0
M  V30 1764 H 162.619 -0.870123 2.85014 0
M  V30 1765 H 160.156 -0.418245 1.41029 0
M  V30 1766 H 162.114 -3.32758 2.5165 0
M  V30 1767 H 160.744 -2.87433 1.46908 0
M  V30 1768 H 159.796 -1.53131 3.48217 0
M  V30 1769 H 161.108 -2.20683 4.47326 0
M  V30 1770 H 160.262 -4.52303 4.0436 0
M  V30 1771 H 159.001 -3.88105 2.9534 0
M  V30 1772 H 158.006 -2.57927 4.85545 0
M  V30 1773 H 159.231 -3.25163 5.96193 0
M  V30 1774 H 157.177 -4.86425 4.40144 0
M  V30 1775 H 157.094 -4.48019 6.08946 0
M  V30 1776 H 158.362 -5.51689 5.5069 0
M  V30 1777 N 162.591 -1.51276 -0.441967 0
M  V30 1778 C 163.819 -1.67516 -1.21434 0
M  V30 1779 C 164.234 -0.37055 -1.85128 0
M  V30 1780 O 163.591 0.650498 -1.70513 0
M  V30 1781 C 163.642 -2.78748 -2.30177 0
M  V30 1782 O 163.363 -4.04154 -1.69089 0
M  V30 1783 C 164.864 -3.06217 -3.20541 0
M  V30 1784 H 162.084 -0.562276 -0.366178 0
M  V30 1785 H 164.628 -1.97666 -0.524244 0
M  V30 1786 H 162.783 -2.5121 -2.94911 0
M  V30 1787 H 163.197 -4.65894 -2.40922 0
M  V30 1788 H 164.671 -3.8764 -3.92987 0
M  V30 1789 H 165.148 -2.18439 -3.81026 0
M  V30 1790 H 165.754 -3.35397 -2.61513 0
M  V30 1791 N 164.069 0.697108 -1.41344 0
M  V30 1792 C 164.979 1.84088 -1.45427 0
M  V30 1793 C 165.995 1.70545 -0.34501 0
M  V30 1794 O 167.171 1.92488 -0.592492 0
M  V30 1795 C 164.236 3.20056 -1.33286 0
M  V30 1796 C 163.297 3.45718 -2.54514 0
M  V30 1797 C 162.53 4.75199 -2.42944 0
M  V30 1798 O 162.753 5.51579 -1.45318 0
M  V30 1799 O 161.687 5.0161 -3.32672 0
M  V30 1800 H 165.513 1.836 -2.41919 0
M  V30 1801 H 163.098 0.849966 -1.22866 0
M  V30 1802 H 164.98 4.01236 -1.28794 0
M  V30 1803 H 163.655 3.2123 -0.39909 0
M  V30 1804 H 162.562 2.64474 -2.64583 0
M  V30 1805 H 163.895 3.49356 -3.46715 0
M  V30 1806 N 165.547 1.27147 0.931209 0
M  V30 1807 C 166.824 1.0401 1.65654 0
M  V30 1808 C 167.204 -0.426297 2.06751 0
M  V30 1809 O 166.552 -1.40879 1.79904 0
M  V30 1810 C 166.762 1.99834 2.86125 0
M  V30 1811 C 168.11 2.29007 3.57549 0
M  V30 1812 O 169.134 1.97779 2.96246 0
M  V30 1813 O 167.993 2.82222 4.67989 0
M  V30 1814 H 165.087 0.396239 0.725895 0
M  V30 1815 H 167.633 1.38397 0.982056 0
M  V30 1816 H 166.405 2.98744 2.52721 0
M  V30 1817 H 166.028 1.65987 3.61295 0
M  V30 1818 N 167.025 -1.13721 1.09112 0
M  V30 1819 C 168.436 -1.6648 0.845068 0
M  V30 1820 C 168.787 -1.85911 -0.62701 0
M  V30 1821 O 167.912 -1.57556 -1.48341 0
M  V30 1822 C 168.507 -3.02413 1.52748 0
M  V30 1823 C 167.066 -3.52176 1.32849 0
M  V30 1824 C 166.213 -2.27492 1.58564 0
M  V30 1825 H 169.164 -0.976872 1.25072 0
M  V30 1826 H 169.185 -3.68223 0.958752 0
M  V30 1827 H 168.697 -2.88238 2.59885 0
M  V30 1828 H 166.798 -3.7156 0.278137 0
M  V30 1829 H 166.911 -4.32499 2.0611 0
M  V30 1830 H 165.275 -2.33923 1.00758 0
M  V30 1831 H 166.058 -2.15886 2.66924 0
M  V30 1832 N 168.503 -0.877838 -1.30888 0
M  V30 1833 C 169.751 -0.491723 -1.96027 0
M  V30 1834 C 170.072 0.960827 -1.69685 0
M  V30 1835 O 169.342 1.67462 -1.01654 0
M  V30 1836 H 167.922 -0.17885 -0.725273 0
M  V30 1837 H 170.584 -1.11935 -1.59551 0
M  V30 1838 H 169.68 -0.656016 -3.05128 0
M  V30 1839 N 169.982 1.44106 -0.638065 0
M  V30 1840 C 171.23 2.01579 -0.145043 0
M  V30 1841 C 171.551 1.50496 1.24 0
M  V30 1842 O 170.821 0.711374 1.82527 0
M  V30 1843 H 169.401 0.745282 -0.05063 0
M  V30 1844 H 172.063 1.76516 -0.826327 0
M  V30 1845 H 171.159 3.11877 -0.118039 0
M  V30 1846 N 171.46 0.379036 1.52974 0
M  V30 1847 C 172.408 -0.476033 2.27677 0
M  V30 1848 C 173.402 -1.0719 1.31174 0
M  V30 1849 O 174.608 -1.01355 1.48752 0
M  V30 1850 H 170.983 -0.172255 0.732006 0
M  V30 1851 H 172.954 0.175615 2.97883 0
M  V30 1852 C 171.703 -1.5967 3.0887 0
M  V30 1853 H 171.026 -1.1475 3.82978 0
M  V30 1854 H 172.466 -2.16943 3.64296 0
M  V30 1855 C 170.925 -2.54682 2.20542 0
M  V30 1856 O 171.455 -3.57836 1.82527 0
M  V30 1857 N 169.661 -2.24183 1.84907 0
M  V30 1858 H 169.208 -1.40333 2.1602 0
M  V30 1859 H 169.166 -2.88006 1.26096 0
M  V30 1860 N 172.938 -1.57226 0.108567 0
M  V30 1861 C 174.349 -1.8195 -0.418464 0
M  V30 1862 C 174.7 -1.02508 -1.67292 0
M  V30 1863 O 173.825 -0.258496 -2.14851 0
M  V30 1864 C 174.42 -3.30028 -0.765979 0
M  V30 1865 C 172.979 -3.55469 -1.23769 0
M  V30 1866 C 172.126 -2.7625 -0.241106 0
M  V30 1867 H 175.077 -1.55149 0.33384 0
M  V30 1868 H 175.098 -3.44086 -1.62434 0
M  V30 1869 H 174.61 -3.87821 0.147219 0
M  V30 1870 H 172.711 -3.03022 -2.16814 0
M  V30 1871 H 172.824 -4.6408 -1.19022 0
M  V30 1872 H 171.188 -2.44133 -0.72602 0
M  V30 1873 H 171.971 -3.36797 0.665007 0
M  V30 1874 N 174.416 0.165178 -1.56732 0
M  V30 1875 C 175.644 0.896218 -1.86482 0
M  V30 1876 C 176.059 1.75555 -0.694675 0
M  V30 1877 O 175.416 1.79379 0.33607 0
M  V30 1878 C 175.467 1.76792 -3.1532 0
M  V30 1879 O 175.188 0.943239 -4.27825 0
M  V30 1880 C 176.689 2.6081 -3.58459 0
M  V30 1881 H 173.909 0.260064 -0.618553 0
M  V30 1882 H 176.453 0.163428 -2.03846 0
M  V30 1883 H 174.608 2.45398 -2.99764 0
M  V30 1884 H 175.022 1.53998 -5.01383 0
M  V30 1885 H 176.496 3.17579 -4.51495 0
M  V30 1886 H 176.973 3.35977 -2.82872 0
M  V30 1887 H 177.579 1.97526 -3.76648 0
M  V30 1888 N 175.894 1.51508 0.433938 0
M  V30 1889 C 176.804 1.75917 1.5521 0
M  V30 1890 C 177.82 0.643545 1.61662 0
M  V30 1891 O 178.996 0.926183 1.7884 0
M  V30 1892 C 176.061 1.88213 2.91164 0
M  V30 1893 C 175.122 3.12074 2.94802 0
M  V30 1894 C 174.355 3.23774 4.24271 0
M  V30 1895 O 174.578 2.4133 5.16833 0
M  V30 1896 O 173.512 4.16774 4.34262 0
M  V30 1897 H 177.338 2.70777 1.37527 0
M  V30 1898 H 174.923 1.36051 0.617293 0
M  V30 1899 H 176.805 1.98267 3.71845 0
M  V30 1900 H 175.48 0.965413 3.08968 0
M  V30 1901 H 174.387 3.07497 2.13065 0
M  V30 1902 H 175.72 4.03446 2.81943 0
M  V30 1903 N 177.372 -0.689602 1.41712 0
M  V30 1904 C 178.621 -1.44534 1.40686 0
M  V30 1905 C 178.934 -1.95588 0.0213352 0
M  V30 1906 O 180.14 -2.71271 -0.111534 0
M  V30 1907 C 178.596 -2.61387 2.47396 0
M  V30 1908 C 178.204 -2.17094 3.91885 0
M  V30 1909 C 179.948 -3.38986 2.55517 0
M  V30 1910 C 177.855 -3.3094 4.90135 0
M  V30 1911 H 176.785 -0.542925 0.52321 0
M  V30 1912 H 179.436 -0.748054 1.6756 0
M  V30 1913 H 177.818 -3.33412 2.13664 0
M  V30 1914 H 178.992 -1.52318 4.34897 0
M  V30 1915 H 177.307 -1.52473 3.8748 0
M  V30 1916 H 179.904 -4.23747 3.26102 0
M  V30 1917 H 180.247 -3.84578 1.59391 0
M  V30 1918 H 180.78 -2.74021 2.8837 0
M  V30 1919 H 177.519 -2.90355 5.87685 0
M  V30 1920 H 177.039 -3.94546 4.51767 0
M  V30 1921 H 178.718 -3.9663 5.11169 0
M  V30 1922 N 178.85 -1.27639 -0.924453 0
M  V30 1923 C 180.097 -1.14167 -1.67249 0
M  V30 1924 C 180.425 0.311863 -1.91984 0
M  V30 1925 O 179.68 1.24425 -1.51053 0
M  V30 1926 C 179.979 -1.87407 -3.04325 0
M  V30 1927 C 179.645 -3.37249 -2.99289 0
M  V30 1928 C 178.307 -3.7812 -2.97622 0
M  V30 1929 C 180.659 -4.32845 -2.90336 0
M  V30 1930 C 177.987 -5.12944 -2.8479 0
M  V30 1931 C 180.339 -5.6773 -2.79045 0
M  V30 1932 C 179.003 -6.07889 -2.7573 0
M  V30 1933 H 178.273 -0.417766 -0.612007 0
M  V30 1934 H 180.92 -1.58286 -1.07786 0
M  V30 1935 H 179.225 -1.35805 -3.67511 0
M  V30 1936 H 180.922 -1.74408 -3.61086 0
M  V30 1937 H 177.512 -3.04748 -3.01374 0
M  V30 1938 H 181.696 -4.02239 -2.90719 0
M  V30 1939 H 176.952 -5.432 -2.80612 0
M  V30 1940 H 181.126 -6.41472 -2.71083 0
M  V30 1941 H 178.753 -7.12314 -2.65544 0
M  V30 1942 N 180.328 1.1314 -1.09713 0
M  V30 1943 C 181.574 1.84967 -0.846104 0
M  V30 1944 C 181.929 1.82082 0.621601 0
M  V30 1945 O 181.222 1.2501 1.452 0
M  V30 1946 C 181.416 3.32167 -1.3191 0
M  V30 1947 C 181.245 3.49386 -2.83125 0
M  V30 1948 C 180.015 3.63456 -3.51038 0
M  V30 1949 C 182.213 3.45179 -3.81256 0
M  V30 1950 N 180.195 3.68966 -4.9065 0
M  V30 1951 C 181.566 3.57094 -5.06837 0
M  V30 1952 C 183.621 3.28598 -3.74069 0
M  V30 1953 C 182.324 3.5414 -6.26081 0
M  V30 1954 C 184.35 3.26953 -4.92804 0
M  V30 1955 C 183.712 3.39422 -6.17229 0
M  V30 1956 H 179.811 0.692899 -0.362512 0
M  V30 1957 H 182.395 1.35506 -1.39808 0
M  V30 1958 H 180.566 3.80186 -0.794535 0
M  V30 1959 H 182.298 3.91815 -1.01308 0
M  V30 1960 H 179.053 3.65256 -3.01471 0
M  V30 1961 H 179.477 3.75404 -5.63383 0
M  V30 1962 H 184.119 3.17858 -2.78794 0
M  V30 1963 H 181.837 3.63653 -7.21653 0
M  V30 1964 H 185.423 3.15316 -4.88945 0
M  V30 1965 H 184.303 3.38114 -7.07565 0
M  V30 1966 N 181.806 0.884767 1.30421 0
M  V30 1967 C 183.054 0.502112 1.95763 0
M  V30 1968 C 183.375 -0.951815 1.70192 0
M  V30 1969 O 182.645 -1.6692 1.0254 0
M  V30 1970 H 181.225 0.182694 0.724315 0
M  V30 1971 H 183.887 1.1278 1.58955 0
M  V30 1972 H 182.983 0.672188 3.04775 0
M  V30 1973 N 183.284 -1.43765 0.645699 0
M  V30 1974 C 184.695 -1.85193 0.236719 0
M  V30 1975 C 185.046 -1.54045 -1.21509 0
M  V30 1976 O 184.171 -0.985694 -1.92647 0
M  V30 1977 C 184.766 -3.36151 0.422845 0
M  V30 1978 C 183.325 -3.76338 0.0682492 0
M  V30 1979 C 182.472 -2.67538 0.729306 0
M  V30 1980 H 185.423 -1.34025 0.849883 0
M  V30 1981 H 185.444 -3.79032 -0.333904 0
M  V30 1982 H 184.956 -3.5879 1.47958 0
M  V30 1983 H 183.057 -3.59312 -0.986179 0
M  V30 1984 H 183.17 -4.76603 0.488469 0
M  V30 1985 H 181.534 -2.54176 0.163235 0
M  V30 1986 H 182.317 -2.93006 1.78892 0
M  V30 1987 N 184.763 -0.387143 -1.52771 0
M  V30 1988 C 186.179 -0.037007 -1.59557 0
M  V30 1989 C 186.379 1.44801 -1.40124 0
M  V30 1990 O 185.435 2.21227 -1.21716 0
M  V30 1991 C 186.748 -0.512256 -2.96305 0
M  V30 1992 C 188.296 -0.468328 -3.09476 0
M  V30 1993 C 188.771 -0.919731 -4.4867 0
M  V30 1994 N 190.262 -0.875656 -4.54848 0
M  V30 1995 C 190.997 -1.19637 -5.6078 0
M  V30 1996 N 190.493 -1.58745 -6.74368 0
M  V30 1997 N 192.286 -1.11776 -5.50874 0
M  V30 1998 H 184.437 -1.35395 -1.63652 0
M  V30 1999 H 186.7 -0.554818 -0.768688 0
M  V30 2000 H 186.406 -1.54935 -3.15734 0
M  V30 2001 H 186.28 0.089805 -3.77093 0
M  V30 2002 H 188.667 0.559671 -2.89744 0
M  V30 2003 H 188.748 -1.10616 -2.30646 0
M  V30 2004 H 188.392 -1.94595 -4.69143 0
M  V30 2005 H 188.322 -0.258927 -5.25963 0
M  V30 2006 H 190.813 -0.587843 -3.733 0
M  V30 2007 H 191.126 -1.81586 -7.51163 0
M  V30 2008 H 189.471 -1.6263 -6.75705 0
M  V30 2009 H 192.662 -0.811264 -4.61016 0
M  V30 2010 H 192.835 -1.37103 -6.3333 0
M  V30 2011 N 186.241 1.57166 -0.116904 0
M  V30 2012 C 187.49 1.94298 0.541407 0
M  V30 2013 C 187.803 1.00236 1.67964 0
M  V30 2014 O 189.009 1.26826 2.40057 0
M  V30 2015 C 187.465 3.45306 1.01449 0
M  V30 2016 C 187.073 4.47899 -0.0951738 0
M  V30 2017 C 188.817 3.91361 1.6443 0
M  V30 2018 C 186.724 5.90083 0.394491 0
M  V30 2019 H 185.654 0.725308 0.206019 0
M  V30 2020 H 188.305 1.82446 -0.196419 0
M  V30 2021 H 186.687 3.52385 1.80667 0
M  V30 2022 H 187.861 4.52486 -0.871374 0
M  V30 2023 H 186.176 4.11583 -0.631505 0
M  V30 2024 H 188.773 4.95004 2.02176 0
M  V30 2025 H 189.116 3.3122 2.52189 0
M  V30 2026 H 189.649 3.87073 0.917559 0
M  V30 2027 H 186.388 6.53974 -0.447004 0
M  V30 2028 H 185.908 5.88921 1.13722 0
M  V30 2029 H 187.587 6.41307 0.856399 0
M  V30 2030 N 187.719 -0.156864 1.56817 0
M  V30 2031 C 188.996 -0.899244 1.73704 0
M  V30 2032 C 189.376 -1.99771 0.682254 0
M  V30 2033 O 188.724 -2.26515 -0.300522 0
M  V30 2034 C 188.934 -1.45075 3.17418 0
M  V30 2035 C 190.282 -1.91802 3.7881 0
M  V30 2036 O 191.306 -1.54838 3.20786 0
M  V30 2037 O 190.165 -2.5994 4.80722 0
M  V30 2038 H 187.259 -0.424267 0.709878 0
M  V30 2039 H 189.805 -0.143561 1.69092 0
M  V30 2040 H 188.577 -0.660846 3.85679 0
M  V30 2041 H 188.2 -2.27021 3.26416 0
M  V30 2042 N 189.197 -1.51736 -0.425897 0
M  V30 2043 C 190.13 -1.68574 -1.53812 0
M  V30 2044 C 191.108 -0.53328 -1.53606 0
M  V30 2045 O 192.292 -0.758555 -1.72564 0
M  V30 2046 C 189.419 -1.70977 -2.92377 0
M  V30 2047 C 188.465 -2.92324 -3.10563 0
M  V30 2048 S 189.298 -4.52952 -2.85648 0
M  V30 2049 C 190.454 -4.58117 -4.26474 0
M  V30 2050 H 190.687 -2.62647 -1.39298 0
M  V30 2051 H 188.22 -1.41564 -0.616361 0
M  V30 2052 H 190.178 -1.73047 -3.72243 0
M  V30 2053 H 188.839 -0.78061 -3.04245 0
M  V30 2054 H 188.032 -2.90439 -4.11899 0
M  V30 2055 H 187.634 -2.88055 -2.38538 0
M  V30 2056 H 189.926 -4.34462 -5.19855 0
M  V30 2057 H 190.869 -5.59983 -4.33388 0
M  V30 2058 H 191.277 -3.8732 -4.10662 0
M  V30 2059 N 190.675 0.682077 -1.42076 0
M  V30 2060 C 191.9 1.47558 -1.45744 0
M  V30 2061 C 192.325 1.87977 -0.0680981 0
M  V30 2062 O 191.683 1.55522 0.9318 0
M  V30 2063 C 191.731 2.70575 -2.38373 0
M  V30 2064 O 190.835 3.68573 -1.85007 0
M  V30 2065 H 190.176 0.443585 -0.494093 0
M  V30 2066 H 192.706 0.837238 -1.86686 0
M  V30 2067 H 192.716 3.18729 -2.54707 0
M  V30 2068 H 191.391 2.40495 -3.39315 0
M  V30 2069 H 189.968 3.2757 -1.78192 0
M  V30 2070 N 192.153 1.28127 0.917671 0
M  V30 2071 C 193.101 1.11569 2.04096 0
M  V30 2072 C 194.095 0.0360242 1.69362 0
M  V30 2073 O 195.301 0.194501 1.78946 0
M  V30 2074 H 191.676 0.344097 0.668656 0
M  V30 2075 H 193.647 2.06711 2.15205 0
M  V30 2076 C 192.396 0.790197 3.38602 0
M  V30 2077 H 191.719 1.61293 3.6582 0
M  V30 2078 H 193.159 0.714271 4.1794 0
M  V30 2079 C 191.618 -0.505897 3.3308 0
M  V30 2080 O 192.148 -1.53736 3.71117 0
M  V30 2081 N 190.354 -0.505193 2.86175 0
M  V30 2082 H 189.901 0.334621 2.55417 0
M  V30 2083 H 189.859 -1.37243 2.82863 0
M  V30 2084 N 193.631 -1.12557 1.10312 0
M  V30 2085 C 195.042 -1.65574 0.862678 0
M  V30 2086 C 195.393 -1.86566 -0.607256 0
M  V30 2087 O 194.518 -1.59121 -1.46662 0
M  V30 2088 C 195.113 -3.00776 1.55947 0
M  V30 2089 C 193.672 -3.50748 1.36576 0
M  V30 2090 C 192.819 -2.25797 1.60968 0
M  V30 2091 H 195.77 -0.963552 1.26101 0
M  V30 2092 H 195.791 -3.67185 0.997753 0
M  V30 2093 H 195.303 -2.85465 2.62928 0
M  V30 2094 H 193.404 -3.71245 0.317531 0
M  V30 2095 H 193.517 -4.30289 2.10686 0
M  V30 2096 H 191.881 -2.32841 1.03234 0
M  V30 2097 H 192.664 -2.13043 2.69198 0
M  V30 2098 N 195.109 -0.891671 -1.2995 0
M  V30 2099 C 196.356 -0.513501 -1.95881 0
M  V30 2100 C 196.684 0.938655 -1.70351 0
M  V30 2101 O 195.939 1.67936 -1.00478 0
M  V30 2102 C 196.238 -0.742868 -3.49594 0
M  V30 2103 C 195.904 -2.17114 -3.95186 0
M  V30 2104 C 194.566 -2.56169 -4.07346 0
M  V30 2105 C 196.918 -3.10162 -4.18866 0
M  V30 2106 C 194.246 -3.87469 -4.4055 0
M  V30 2107 C 196.598 -4.41001 -4.53542 0
M  V30 2108 C 195.262 -4.79941 -4.63911 0
M  V30 2109 H 194.532 -0.187903 -0.71678 0
M  V30 2110 H 197.179 -1.1288 -1.54694 0
M  V30 2111 H 195.484 -0.044586 -3.91775 0
M  V30 2112 H 197.181 -0.429767 -3.9869 0
M  V30 2113 H 193.771 -1.85801 -3.86233 0
M  V30 2114 H 197.955 -2.81206 -4.08946 0
M  V30 2115 H 193.211 -4.17371 -4.46779 0
M  V30 2116 H 197.385 -5.13133 -4.70815 0
M  V30 2117 H 195.012 -5.81719 -4.89395 0
M  V30 2118 N 196.587 1.43421 -0.653314 0
M  V30 2119 C 197.537 2.2792 0.060558 0
M  V30 2120 C 198.521 1.39906 0.794677 0
M  V30 2121 O 199.713 1.63536 0.677128 0
M  V30 2122 C 196.842 3.27603 1.0262 0
M  V30 2123 C 195.928 4.23104 0.290551 0
M  V30 2124 N 196.319 5.01031 -0.692967 0
M  V30 2125 C 194.617 4.42816 0.531984 0
M  V30 2126 C 195.318 5.70626 -1.12963 0
M  V30 2127 N 194.294 5.41617 -0.463867 0
M  V30 2128 H 198.096 2.85585 -0.694143 0
M  V30 2129 H 195.61 1.55126 -0.480602 0
M  V30 2130 H 197.607 3.86918 1.55242 0
M  V30 2131 H 196.267 2.71499 1.78096 0
M  V30 2132 H 197.278 5.0669 -1.07169 0
M  V30 2133 H 193.955 3.97782 1.26791 0
M  V30 2134 H 195.345 6.4318 -1.94343 0
M  V30 2135 N 198.065 0.39524 1.52563 0
M  V30 2136 C 199.476 -0.0774719 1.86539 0
M  V30 2137 C 199.827 -1.45641 1.31466 0
M  V30 2138 O 198.952 -2.06459 0.648367 0
M  V30 2139 C 199.547 -0.147356 3.38479 0
M  V30 2140 C 198.106 -0.564373 3.72145 0
M  V30 2141 C 197.253 0.269919 2.75983 0
M  V30 2142 H 200.204 0.612876 1.46388 0
M  V30 2143 H 200.225 -0.965343 3.68051 0
M  V30 2144 H 199.737 0.856387 3.78534 0
M  V30 2145 H 197.838 -1.57527 3.37663 0
M  V30 2146 H 197.951 -0.318402 4.78041 0
M  V30 2147 H 196.315 -0.265696 2.5331 0
M  V30 2148 H 197.098 1.27175 3.18875 0
M  V30 2149 N 199.544 -1.57102 0.125237 0
M  V30 2150 C 200.792 -1.95021 -0.530198 0
M  V30 2151 C 201.113 -1.00982 -1.66816 0
M  V30 2152 O 200.383 -0.0672693 -1.95784 0
M  V30 2153 H 198.963 -0.720046 -0.198853 0
M  V30 2154 H 201.625 -1.93916 0.19564 0
M  V30 2155 H 200.721 -2.98211 -0.920681 0
M  V30 2156 N 201.022 0.148545 -1.56898 0
M  V30 2157 C 202.438 0.501131 -1.51528 0
M  V30 2158 C 202.638 1.83458 -0.833399 0
M  V30 2159 O 201.694 2.49259 -0.40328 0
M  V30 2160 C 203.007 0.512864 -2.96294 0
M  V30 2161 C 204.555 0.598487 -3.07225 0
M  V30 2162 C 205.03 0.640897 -4.53494 0
M  V30 2163 N 206.521 0.703163 -4.57832 0
M  V30 2164 C 207.256 0.756935 -5.68382 0
M  V30 2165 N 206.752 0.770147 -6.88506 0
M  V30 2166 N 208.545 0.797698 -5.56411 0
M  V30 2167 H 200.696 -0.725532 -1.99624 0
M  V30 2168 H 202.959 -0.264358 -0.910395 0
M  V30 2169 H 202.665 -0.398691 -3.49433 0
M  V30 2170 H 202.539 1.35133 -3.52163 0
M  V30 2171 H 204.926 1.50046 -2.54106 0
M  V30 2172 H 205.007 -0.267093 -2.54402 0
M  V30 2173 H 204.651 -0.256915 -5.0725 0
M  V30 2174 H 204.581 1.52295 -5.04097 0
M  V30 2175 H 207.072 0.700314 -3.71354 0
M  V30 2176 H 207.385 0.812983 -7.68512 0
M  V30 2177 H 205.73 0.738049 -6.9107 0
M  V30 2178 H 208.921 0.784535 -4.61479 0
M  V30 2179 H 209.094 0.83614 -6.42583 0
M  V30 2180 N 202.5 1.5196 0.417844 0
M  V30 2181 C 203.911 1.57851 0.997 0
M  V30 2182 C 204.262 0.413714 1.91789 0
M  V30 2183 O 203.387 -0.467057 2.113 0
M  V30 2184 C 203.982 2.86085 1.81496 0
M  V30 2185 C 202.541 2.94483 2.34428 0
M  V30 2186 C 201.688 2.52707 1.14169 0
M  V30 2187 H 204.639 1.57455 0.198392 0
M  V30 2188 H 204.66 2.70947 2.67148 0
M  V30 2189 H 204.172 3.70842 1.14446 0
M  V30 2190 H 202.273 2.142 3.04875 0
M  V30 2191 H 202.386 3.98546 2.65891 0
M  V30 2192 H 200.75 2.06353 1.49301 0
M  V30 2193 H 201.533 3.39828 0.486999 0
M  V30 2194 N 203.978 -0.674533 1.42435 0
M  V30 2195 C 204.908 -1.80009 1.48724 0
M  V30 2196 C 205.889 -1.6659 0.343793 0
M  V30 2197 O 207.074 -1.86007 0.558137 0
M  V30 2198 C 204.204 -3.18306 1.38919 0
M  V30 2199 C 203.158 -3.46461 2.51294 0
M  V30 2200 C 202.484 -4.84335 2.26547 0
M  V30 2201 C 203.784 -3.43328 3.93603 0
M  V30 2202 H 205.478 -1.75004 2.42928 0
M  V30 2203 H 203.024 -0.840533 1.16923 0
M  V30 2204 H 204.977 -3.9678 1.41927 0
M  V30 2205 H 203.701 -3.2399 0.412094 0
M  V30 2206 H 202.36 -2.70348 2.47604 0
M  V30 2207 H 202.008 -4.86669 1.2713 0
M  V30 2208 H 201.708 -5.04136 3.01861 0
M  V30 2209 H 203.232 -5.65094 2.31304 0
M  V30 2210 H 204.646 -4.11772 3.98894 0
M  V30 2211 H 203.043 -3.74664 4.68771 0
M  V30 2212 H 204.113 -2.41897 4.20255 0
M  V30 2213 N 205.456 -1.28612 -0.910864 0
M  V30 2214 C 206.406 -1.09423 -2.00026 0
M  V30 2215 C 207.39 -0.0170079 -1.60891 0
M  V30 2216 O 208.582 -0.237472 -1.754 0
M  V30 2217 C 205.711 -0.76114 -3.34756 0
M  V30 2218 C 204.797 -1.87735 -3.80285 0
M  V30 2219 N 205.188 -3.11938 -3.98156 0
M  V30 2220 C 203.486 -1.76786 -4.09467 0
M  V30 2221 C 204.187 -3.84687 -4.36338 0
M  V30 2222 N 203.163 -3.12555 -4.44759 0
M  V30 2223 H 206.965 -2.03658 -2.11898 0
M  V30 2224 H 204.479 -1.19573 -1.09891 0
M  V30 2225 H 206.476 -0.604743 -4.12491 0
M  V30 2226 H 205.136 0.173403 -3.24237 0
M  V30 2227 H 206.147 -3.47516 -3.83996 0
M  V30 2228 H 202.824 -0.905284 -4.07567 0
M  V30 2229 H 204.214 -4.91518 -4.58104 0
M  V30 2230 N 206.934 1.1197 -1.10907 0
M  V30 2231 C 208.182 1.83225 -0.852819 0
M  V30 2232 C 208.503 1.84769 0.623341 0
M  V30 2233 O 207.773 1.3143 1.45269 0
M  V30 2234 H 206.353 0.67849 -0.312507 0
M  V30 2235 H 209.015 1.3556 -1.40033 0
M  V30 2236 H 208.111 2.87265 -1.22005 0
M  V30 2237 N 208.412 0.89855 1.29475 0
M  V30 2238 C 209.359 0.373819 2.27753 0
M  V30 2239 C 210.329 -0.543444 1.56958 0
M  V30 2240 O 211.514 -0.468934 1.84948 0
M  V30 2241 C 208.654 -0.393648 3.42848 0
M  V30 2242 C 207.767 0.554379 4.28428 0
M  V30 2243 C 206.902 -0.230026 5.30702 0
M  V30 2244 C 205.941 0.712599 6.07938 0
M  V30 2245 N 205.078 -0.0373283 7.0209 0
M  V30 2246 H 209.918 1.21699 2.72017 0
M  V30 2247 H 207.455 0.611456 1.33789 0
M  V30 2248 H 209.413 -0.85466 4.08352 0
M  V30 2249 H 208.043 -1.20128 2.99615 0
M  V30 2250 H 207.095 1.13391 3.63107 0
M  V30 2251 H 208.407 1.27597 4.82204 0
M  V30 2252 H 207.561 -0.752288 6.02018 0
M  V30 2253 H 206.3 -0.984758 4.77654 0
M  V30 2254 H 205.305 1.24637 5.35486 0
M  V30 2255 H 206.53 1.46664 6.63074 0
M  V30 2256 H 204.476 -0.774348 6.51414 0
M  V30 2257 H 204.393 0.624374 7.53417 0
M  V30 2258 H 205.661 -0.539891 7.77628 0
M  V30 2259 N 209.89 -1.43072 0.660911 0
M  V30 2260 C 211.137 -2.01721 0.177445 0
M  V30 2261 C 211.465 -1.5218 -1.21126 0
M  V30 2262 O 210.72 -0.708659 -1.82419 0
M  V30 2263 C 211.019 -3.57103 0.145563 0
M  V30 2264 C 210.685 -4.26021 1.47705 0
M  V30 2265 C 209.347 -4.44563 1.84165 0
M  V30 2266 C 211.699 -4.64983 2.35458 0
M  V30 2267 C 209.027 -4.99334 3.0803 0
M  V30 2268 C 211.379 -5.21127 3.58622 0
M  V30 2269 C 210.043 -5.37884 3.95268 0
M  V30 2270 H 209.313 -0.73815 0.0649317 0
M  V30 2271 H 211.96 -1.71446 0.853144 0
M  V30 2272 H 210.265 -3.86965 -0.61361 0
M  V30 2273 H 211.962 -4.00248 -0.2455 0
M  V30 2274 H 208.552 -4.11939 1.18339 0
M  V30 2275 H 212.736 -4.50343 2.08579 0
M  V30 2276 H 207.992 -5.10493 3.36462 0
M  V30 2277 H 212.166 -5.50262 4.26831 0
M  V30 2278 H 209.793 -5.80089 4.91325 0
M  V30 2279 N 211.368 -0.403325 -1.52352 0
M  V30 2280 C 212.614 0.174605 -2.02047 0
M  V30 2281 C 212.947 1.45282 -1.28867 0
M  V30 2282 O 212.222 1.90483 -0.393257 0
M  V30 2283 C 212.505 0.428238 -3.57545 0
M  V30 2284 C 212.358 -0.866248 -4.4138 0
M  V30 2285 C 213.677 1.21287 -4.23057 0
M  V30 2286 H 210.796 0.0619851 -0.734389 0
M  V30 2287 H 213.438 -0.53565 -1.82293 0
M  V30 2288 H 211.588 1.03327 -3.74507 0
M  V30 2289 H 213.26 -1.50265 -4.3614 0
M  V30 2290 H 211.503 -1.47851 -4.07827 0
M  V30 2291 H 212.174 -0.643249 -5.48239 0
M  V30 2292 H 214.65 0.700703 -4.10158 0
M  V30 2293 H 213.526 1.35909 -5.31808 0
M  V30 2294 H 213.787 2.23193 -3.81625 0
M  V30 2295 N 212.846 1.57033 -0.133567 0
M  V30 2296 C 214.074 2.00044 0.528195 0
M  V30 2297 C 214.489 1.01349 1.59291 0
M  V30 2298 O 213.846 0.00848369 1.82498 0
M  V30 2299 C 213.897 3.43018 1.1411 0
M  V30 2300 O 213.618 4.37939 0.11892 0
M  V30 2301 C 215.119 4.01237 1.88477 0
M  V30 2302 H 212.339 0.656517 0.138661 0
M  V30 2303 H 214.883 2.03267 -0.224196 0
M  V30 2304 H 213.038 3.40688 1.84418 0
M  V30 2305 H 213.452 5.21436 0.56613 0
M  V30 2306 H 214.926 5.03314 2.26669 0
M  V30 2307 H 215.403 3.41193 2.76558 0
M  V30 2308 H 216.009 4.07156 1.22898 0
M  V30 2309 N 214.325 -0.140222 1.56975 0
M  V30 2310 C 215.573 -0.850005 1.83356 0
M  V30 2311 C 215.894 -1.81399 0.71551 0
M  V30 2312 O 215.164 -1.94136 -0.262294 0
M  V30 2313 H 213.744 -0.316886 0.676456 0
M  V30 2314 H 216.406 -0.132608 1.94448 0
M  V30 2315 H 215.502 -1.40814 2.78528 0
M  V30 2316 N 215.803 -1.52179 -0.40978 0
M  V30 2317 C 217.08 -1.56769 -1.16974 0
M  V30 2318 C 217.46 -0.348322 -2.08206 0
M  V30 2319 O 216.808 0.664862 -2.18613 0
M  V30 2320 C 217.018 -2.89603 -1.9476 0
M  V30 2321 C 218.366 -3.42579 -2.50849 0
M  V30 2322 O 219.39 -2.91338 -2.04941 0
M  V30 2323 O 218.249 -4.32054 -3.34652 0
M  V30 2324 H 215.343 -0.631439 -0.534054 0
M  V30 2325 H 217.889 -1.64507 -0.416613 0
M  V30 2326 H 216.661 -3.698 -1.27921 0
M  V30 2327 H 216.284 -2.85155 -2.77079 0
M  V30 2328 N 217.281 0.66697 -1.42791 0
M  V30 2329 C 218.213 1.7925 -1.42836 0
M  V30 2330 C 219.226 1.59496 -0.326333 0
M  V30 2331 O 220.415 1.6847 -0.589916 0
M  V30 2332 C 217.515 3.16476 -1.21229 0
M  V30 2333 C 216.688 3.63011 -2.44013 0
M  V30 2334 C 215.747 4.78993 -2.17834 0
M  V30 2335 O 214.773 4.89137 -2.91091 0
M  V30 2336 N 215.975 5.68248 -1.18635 0
M  V30 2337 H 218.74 1.79695 -2.39854 0
M  V30 2338 H 216.301 0.850338 -1.37771 0
M  V30 2339 H 218.293 3.91734 -1.01621 0
M  V30 2340 H 216.863 3.10884 -0.32706 0
M  V30 2341 H 216.083 2.78346 -2.79137 0
M  V30 2342 H 217.371 3.90845 -3.25757 0
M  V30 2343 H 216.769 5.62712 -0.580615 0
M  V30 2344 H 215.326 6.43285 -1.05013 0
M  V30 2345 N 218.759 1.29093 0.90403 0
M  V30 2346 C 220.007 1.16583 1.65085 0
M  V30 2347 C 220.328 -0.283933 1.92922 0
M  V30 2348 O 219.598 -1.19509 1.55224 0
M  V30 2349 H 218.178 0.428467 0.611903 0
M  V30 2350 H 220.84 1.61959 1.08422 0
M  V30 2351 H 219.936 1.71266 2.6091 0
M  V30 2352 N 220.237 -1.11381 1.11499 0
M  V30 2353 C 221.167 -2.19509 0.796125 0
M  V30 2354 C 222.148 -1.68458 -0.235796 0
M  V30 2355 O 223.333 -1.93947 -0.0991344 0
M  V30 2356 C 220.463 -3.46475 0.239205 0
M  V30 2357 C 219.417 -4.10744 1.20307 0
M  V30 2358 C 218.743 -5.32293 0.50683 0
M  V30 2359 C 220.043 -4.55597 2.55399 0
M  V30 2360 H 221.737 -2.46439 1.70024 0
M  V30 2361 H 219.283 -1.18446 0.818935 0
M  V30 2362 H 221.236 -4.214 0.00392006 0
M  V30 2363 H 219.96 -3.19006 -0.700206 0
M  V30 2364 H 218.619 -3.37813 1.42399 0
M  V30 2365 H 218.267 -5.01095 -0.437408 0
M  V30 2366 H 217.967 -5.76243 1.1497 0
M  V30 2367 H 219.491 -6.09956 0.280351 0
M  V30 2368 H 220.905 -5.21841 2.37391 0
M  V30 2369 H 219.302 -5.10363 3.15673 0
M  V30 2370 H 220.372 -3.69013 3.14575 0
M  V30 2371 N 221.715 -0.905404 -1.28997 0
M  V30 2372 C 222.963 -0.533192 -1.9494 0
M  V30 2373 C 223.284 0.924618 -1.71685 0
M  V30 2374 O 222.554 1.65268 -1.05183 0
M  V30 2375 H 221.134 -0.194194 -0.721317 0
M  V30 2376 H 223.796 -1.15294 -1.57141 0
M  V30 2377 H 222.892 -0.72059 -3.03667 0
M  V30 2378 N 223.193 1.4272 -0.668489 0
M  V30 2379 C 224.143 2.27971 0.0363806 0
M  V30 2380 C 225.127 1.40741 0.779794 0
M  V30 2381 O 226.319 1.64245 0.659745 0
M  V30 2382 C 223.448 3.28673 0.991398 0
M  V30 2383 C 222.534 4.23388 0.245658 0
M  V30 2384 N 222.925 5.00267 -0.746069 0
M  V30 2385 C 221.223 4.43355 0.484988 0
M  V30 2386 C 221.924 5.69396 -1.19009 0
M  V30 2387 N 220.9 5.41095 -0.521287 0
M  V30 2388 H 224.702 2.84833 -0.724394 0
M  V30 2389 H 222.216 1.54607 -0.497028 0
M  V30 2390 H 224.213 3.88543 1.51129 0
M  V30 2391 H 222.873 2.73373 1.75207 0
M  V30 2392 H 223.884 5.05525 -1.12537 0
M  V30 2393 H 220.561 3.99104 1.22565 0
M  V30 2394 H 221.951 6.41083 -2.01153 0
M  V30 2395 N 224.671 0.411399 1.52136 0
M  V30 2396 C 225.911 -0.163143 2.03748 0
M  V30 2397 C 226.275 -1.42187 1.29022 0
M  V30 2398 O 227.476 -2.075 1.70872 0
M  V30 2399 C 225.747 -0.402651 3.55125 0
M  V30 2400 S 227.306 -0.944315 4.28519 0
M  V30 2401 H 224.124 -0.0439833 0.709638 0
M  V30 2402 H 226.726 0.56484 1.87163 0
M  V30 2403 H 225.43 0.520212 4.0709 0
M  V30 2404 H 224.961 -1.15844 3.75957 0
M  V30 2405 H 226.976 -2.22463 4.43536 0
M  V30 2406 N 226.149 -1.5696 0.141893 0
M  V30 2407 C 227.398 -1.95135 -0.510427 0
M  V30 2408 C 227.711 -1.02896 -1.66348 0
M  V30 2409 O 228.917 -1.30629 -2.38009 0
M  V30 2410 C 227.373 -3.46876 -0.959427 0
M  V30 2411 C 226.981 -4.47691 0.166419 0
M  V30 2412 C 228.725 -3.93927 -1.58183 0
M  V30 2413 C 226.632 -5.90636 -0.300565 0
M  V30 2414 H 225.562 -0.728494 -0.194454 0
M  V30 2415 H 228.213 -1.8211 0.22542 0
M  V30 2416 H 226.595 -3.55215 -1.75038 0
M  V30 2417 H 227.769 -4.51043 0.94325 0
M  V30 2418 H 226.084 -4.10527 0.696905 0
M  V30 2419 H 228.681 -4.98158 -1.94275 0
M  V30 2420 H 229.024 -3.3519 -2.46888 0
M  V30 2421 H 229.557 -3.88484 -0.855863 0
M  V30 2422 H 226.296 -6.5318 0.550989 0
M  V30 2423 H 225.816 -5.90655 -1.04338 0
M  V30 2424 H 227.495 -6.42588 -0.754265 0
M  V30 2425 N 227.627 0.131896 -1.57047 0
M  V30 2426 C 228.873 0.843179 -1.84441 0
M  V30 2427 C 229.206 1.80129 -0.725749 0
M  V30 2428 O 228.481 1.92624 0.269469 0
M  V30 2429 C 228.764 1.60442 -3.22382 0
M  V30 2430 C 228.617 0.666782 -4.4483 0
M  V30 2431 C 229.936 2.56354 -3.5773 0
M  V30 2432 H 227.055 0.305081 -0.670891 0
M  V30 2433 H 229.697 0.107839 -1.89694 0
M  V30 2434 H 227.847 2.23128 -3.18035 0
M  V30 2435 H 229.519 0.0497646 -4.61273 0
M  V30 2436 H 227.762 -0.022609 -4.33794 0
M  V30 2437 H 228.433 1.23579 -5.37989 0
M  V30 2438 H 230.909 2.0378 -3.62785 0
M  V30 2439 H 229.785 3.06657 -4.5525 0
M  V30 2440 H 230.046 3.38419 -2.84473 0
M  V30 2441 N 229.106 1.52395 0.401703 0
M  V30 2442 C 230.522 1.41363 0.740864 0
M  V30 2443 C 230.722 0.523982 1.94568 0
M  V30 2444 O 229.778 -0.00741204 2.52499 0
M  V30 2445 C 231.091 2.84011 0.987847 0
M  V30 2446 C 232.639 2.93404 1.09011 0
M  V30 2447 C 233.114 4.37036 1.3698 0
M  V30 2448 N 234.605 4.40304 1.43829 0
M  V30 2449 C 235.34 5.48508 1.67112 0
M  V30 2450 N 234.836 6.66819 1.87949 0
M  V30 2451 N 236.629 5.36034 1.69187 0
M  V30 2452 H 228.78 2.08765 -0.391262 0
M  V30 2453 H 231.043 0.941265 -0.112798 0
M  V30 2454 H 230.749 3.51265 0.174835 0
M  V30 2455 H 230.623 3.25502 1.906 0
M  V30 2456 H 233.01 2.26325 1.8937 0
M  V30 2457 H 233.091 2.55359 0.15015 0
M  V30 2458 H 232.735 5.04676 0.571353 0
M  V30 2459 H 232.665 4.72623 2.3224 0
M  V30 2460 H 235.156 3.55024 1.29486 0
M  V30 2461 H 235.469 7.45063 2.05185 0
M  V30 2462 H 233.814 6.6987 1.85199 0
M  V30 2463 H 237.005 4.42579 1.52451 0
M  V30 2464 H 237.178 6.20434 1.86993 0
M  V30 2465 N 230.584 -0.659388 1.43143 0
M  V30 2466 C 231.516 -1.7849 1.43784 0
M  V30 2467 C 232.529 -1.5932 0.334787 0
M  V30 2468 O 233.718 -1.68155 0.598842 0
M  V30 2469 C 230.818 -3.15828 1.22906 0
M  V30 2470 C 229.991 -3.61711 2.45934 0
M  V30 2471 C 229.05 -4.77831 2.20371 0
M  V30 2472 O 228.076 -4.87586 2.93681 0
M  V30 2473 N 229.278 -5.67611 1.21647 0
M  V30 2474 H 232.043 -1.7842 2.40803 0
M  V30 2475 H 229.604 -0.84302 1.3822 0
M  V30 2476 H 231.596 -3.91189 1.03697 0
M  V30 2477 H 230.166 -3.10707 0.343542 0
M  V30 2478 H 229.386 -2.76861 2.80609 0
M  V30 2479 H 230.674 -3.89112 3.27825 0
M  V30 2480 H 230.072 -5.62397 0.610449 0
M  V30 2481 H 228.629 -6.42719 1.08423 0
M  V30 2482 N 232.062 -1.29571 -0.897171 0
M  V30 2483 C 233.29 -1.20583 -1.68129 0
M  V30 2484 C 233.705 0.233181 -1.87354 0
M  V30 2485 O 233.062 1.15579 -1.41236 0
M  V30 2486 C 233.113 -1.91772 -3.06441 0
M  V30 2487 O 232.834 -3.30053 -2.88091 0
M  V30 2488 C 234.335 -1.89291 -4.00854 0
M  V30 2489 H 231.555 -0.417826 -0.525036 0
M  V30 2490 H 234.099 -1.70987 -1.12177 0
M  V30 2491 H 232.254 -1.45196 -3.59161 0
M  V30 2492 H 232.668 -3.65942 -3.75748 0
M  V30 2493 H 234.142 -2.43662 -4.95311 0
M  V30 2494 H 234.619 -0.869014 -4.30517 0
M  V30 2495 H 235.225 -2.35622 -3.54066 0
M  V30 2496 N 233.54 1.10788 -1.12088 0
M  V30 2497 C 234.817 1.79136 -0.785476 0
M  V30 2498 C 235.197 1.98246 0.725377 0
M  V30 2499 O 234.545 1.57258 1.65778 0
M  V30 2500 C 234.755 3.12375 -1.55636 0
M  V30 2501 C 236.103 3.8731 -1.74001 0
M  V30 2502 O 237.127 3.22085 -1.52117 0
M  V30 2503 O 235.986 5.04369 -2.10415 0
M  V30 2504 H 233.08 0.776226 -0.285311 0
M  V30 2505 H 235.626 1.1747 -1.2247 0
M  V30 2506 H 234.398 2.93863 -2.5838 0
M  V30 2507 H 234.021 3.81758 -1.11114 0
M  V30 2508 N 235.018 0.912232 1.28515 0
M  V30 2509 C 236.264 0.545405 1.95328 0
M  V30 2510 C 236.597 -0.908313 1.71649 0
M  V30 2511 O 235.872 -1.64575 1.03659 0
M  V30 2512 C 236.155 0.853483 3.4984 0
M  V30 2513 C 236.008 2.35982 3.82926 0
M  V30 2514 C 237.327 0.348589 4.38717 0
M  V30 2515 H 234.446 0.199626 0.709449 0
M  V30 2516 H 237.088 1.1412 1.5191 0
M  V30 2517 H 235.238 0.34643 3.86952 0
M  V30 2518 H 236.91 2.93738 3.55691 0
M  V30 2519 H 235.153 2.81543 3.30024 0
M  V30 2520 H 235.824 2.52593 4.90816 0
M  V30 2521 H 238.3 0.78294 4.08668 0
M  V30 2522 H 237.176 0.593242 5.45685 0
M  V30 2523 H 237.437 -0.751049 4.35674 0
M  V30 2524 N 236.496 -1.42363 0.676048 0
M  V30 2525 C 237.459 -2.29199 0.00766941 0
M  V30 2526 C 238.459 -1.43389 -0.727745 0
M  V30 2527 O 239.649 -1.64764 -0.56556 0
M  V30 2528 C 236.781 -3.2591 -0.999785 0
M  V30 2529 H 237.974 -2.89794 0.771988 0
M  V30 2530 H 235.527 -1.50024 0.438468 0
M  V30 2531 H 236.262 -2.70256 -1.79255 0
M  V30 2532 H 236.047 -3.89202 -0.475829 0
M  V30 2533 H 237.537 -3.91028 -1.46583 0
M  V30 2534 N 237.974 -0.419461 -1.51915 0
M  V30 2535 C 238.884 0.407528 -2.31033 0
M  V30 2536 C 239.9 1.04413 -1.3919 0
M  V30 2537 O 241.076 1.0434 -1.72265 0
M  V30 2538 C 238.141 1.50365 -3.12396 0
M  V30 2539 C 237.202 0.889029 -4.19994 0
M  V30 2540 C 236.435 1.93291 -4.97468 0
M  V30 2541 O 236.658 3.15259 -4.75361 0
M  V30 2542 O 235.592 1.53339 -5.8204 0
M  V30 2543 H 239.418 -0.237865 -3.02767 0
M  V30 2544 H 237.003 -0.182413 -1.48282 0
M  V30 2545 H 238.885 2.13975 -3.63032 0
M  V30 2546 H 237.56 2.13345 -2.43445 0
M  V30 2547 H 236.467 0.215353 -3.7348 0
M  V30 2548 H 237.8 0.302991 -4.91267 0
M  V30 2549 N 239.452 1.56882 -0.150215 0
M  V30 2550 C 240.415 2.1573 0.774157 0
M  V30 2551 C 241.415 1.0999 1.17298 0
M  V30 2552 O 242.605 1.35613 1.09338 0
M  V30 2553 C 239.737 2.72302 2.05096 0
M  V30 2554 H 240.93 2.98752 0.262201 0
M  V30 2555 H 238.483 1.55985 0.099248 0
M  V30 2556 H 239.218 1.92956 2.6065 0
M  V30 2557 H 239.003 3.49665 1.77416 0
M  V30 2558 H 240.493 3.17632 2.71109 0
M  V30 2559 N 240.93 -0.123565 1.57115 0
M  V30 2560 C 241.88 -1.1575 1.96433 0
M  V30 2561 C 242.864 -1.37313 0.838686 0
M  V30 2562 O 244.056 -1.38482 1.10235 0
M  V30 2563 C 241.185 -2.48526 2.36833 0
M  V30 2564 C 240.271 -2.30457 3.5602 0
M  V30 2565 N 240.662 -1.8219 4.71848 0
M  V30 2566 C 238.96 -2.61129 3.61563 0
M  V30 2567 C 239.661 -1.77721 5.53886 0
M  V30 2568 N 238.637 -2.21899 4.96248 0
M  V30 2569 H 242.439 -0.776797 2.83449 0
M  V30 2570 H 239.953 -0.331364 1.58983 0
M  V30 2571 H 241.95 -3.233 2.63216 0
M  V30 2572 H 240.61 -2.87358 1.5118 0
M  V30 2573 H 241.621 -1.51805 4.95152 0
M  V30 2574 H 238.298 -3.03678 2.86507 0
M  V30 2575 H 239.688 -1.41697 6.56789 0
M  V30 2576 N 242.408 -1.52605 -0.393616 0
M  V30 2577 C 243.355 -1.77055 -1.48054 0
M  V30 2578 C 244.325 -0.61358 -1.54352 0
M  V30 2579 O 245.51 -0.852806 -1.70681 0
M  V30 2580 C 242.65 -1.94108 -2.85335 0
M  V30 2581 C 241.763 -3.21792 -2.88226 0
M  V30 2582 C 240.898 -3.29188 -4.16904 0
M  V30 2583 C 239.937 -4.51013 -4.13828 0
M  V30 2584 N 239.074 -4.55716 -5.34105 0
M  V30 2585 H 243.914 -2.69815 -1.26506 0
M  V30 2586 H 241.451 -1.33683 -0.61379 0
M  V30 2587 H 243.409 -2.01979 -3.65049 0
M  V30 2588 H 242.039 -1.04713 -3.05344 0
M  V30 2589 H 241.091 -3.23015 -2.00911 0
M  V30 2590 H 242.403 -4.11557 -2.8182 0
M  V30 2591 H 241.557 -3.36216 -5.05018 0
M  V30 2592 H 240.296 -2.37389 -4.26026 0
M  V30 2593 H 239.301 -4.44115 -3.24102 0
M  V30 2594 H 240.526 -5.44123 -4.06333 0
M  V30 2595 H 238.472 -3.66807 -5.43865 0
M  V30 2596 H 238.389 -5.39346 -5.29756 0
M  V30 2597 H 239.657 -4.66993 -6.2413 0
M  V30 2598 N 243.887 0.651787 -1.4349 0
M  V30 2599 C 245.134 1.41167 -1.45183 0
M  V30 2600 C 245.462 1.94349 -0.0766601 0
M  V30 2601 O 244.717 1.72804 0.918555 0
M  V30 2602 C 245.016 2.60914 -2.44251 0
M  V30 2603 C 244.682 2.26142 -3.9009 0
M  V30 2604 C 243.344 2.16371 -4.2981 0
M  V30 2605 C 245.696 1.98334 -4.81989 0
M  V30 2606 C 243.024 1.7695 -5.5938 0
M  V30 2607 C 245.376 1.6041 -6.11924 0
M  V30 2608 C 244.04 1.49166 -6.5062 0
M  V30 2609 H 243.31 0.516566 -0.531263 0
M  V30 2610 H 245.957 0.741099 -1.76579 0
M  V30 2611 H 244.262 3.3311 -2.06265 0
M  V30 2612 H 245.959 3.19127 -2.42815 0
M  V30 2613 H 242.549 2.34658 -3.58655 0
M  V30 2614 H 246.733 2.04803 -4.52072 0
M  V30 2615 H 241.989 1.66831 -5.88198 0
M  V30 2616 H 246.163 1.37925 -6.82605 0
M  V30 2617 H 243.79 1.1839 -7.50925 0
M  V30 2618 N 245.365 1.30045 0.890287 0
M  V30 2619 C 246.595 1.21296 1.67245 0
M  V30 2620 C 247.003 -0.227471 1.87828 0
M  V30 2621 O 246.346 -1.16296 1.422 0
M  V30 2622 C 246.408 1.86519 3.07329 0
M  V30 2623 C 246.072 3.35837 3.09939 0
M  V30 2624 C 247.069 4.31915 2.89389 0
M  V30 2625 C 244.754 3.77196 3.31706 0
M  V30 2626 C 246.748 5.67325 2.90552 0
M  V30 2627 C 244.435 5.12725 3.32499 0
M  V30 2628 C 245.433 6.076 3.11947 0
M  V30 2629 O 245.121 7.40655 3.12547 0
M  V30 2630 H 244.853 0.4211 0.528821 0
M  V30 2631 H 247.407 1.72111 1.12103 0
M  V30 2632 H 245.637 1.30228 3.64112 0
M  V30 2633 H 247.326 1.71963 3.67673 0
M  V30 2634 H 248.092 4.01294 2.72375 0
M  V30 2635 H 243.971 3.03796 3.4674 0
M  V30 2636 H 247.515 6.41354 2.74429 0
M  V30 2637 H 243.412 5.42988 3.49047 0
M  V30 2638 H 244.18 7.49577 3.28749 0
M  V30 2639 N 246.843 -1.10192 1.12674 0
M  V30 2640 C 248.068 -1.86523 0.906853 0
M  V30 2641 C 248.493 -1.80221 -0.538711 0
M  V30 2642 O 247.851 -1.17396 -1.38158 0
M  V30 2643 C 247.899 -3.32758 1.3894 0
M  V30 2644 O 247.003 -4.08449 0.5695 0
M  V30 2645 H 246.344 -0.578678 0.325619 0
M  V30 2646 H 248.874 -1.39203 1.49946 0
M  V30 2647 H 248.884 -3.83608 1.38958 0
M  V30 2648 H 247.559 -3.36661 2.44197 0
M  V30 2649 H 246.136 -3.67427 0.636528 0
M  V30 2650 N 248.321 -0.919034 -1.28029 0
M  V30 2651 C 249.251 -0.428581 -2.29533 0
M  V30 2652 C 250.232 0.50659 -1.62381 0
M  V30 2653 O 251.417 0.413195 -1.89753 0
M  V30 2654 C 248.547 0.327388 -3.45753 0
M  V30 2655 C 247.501 -0.519137 -4.2484 0
M  V30 2656 C 246.827 0.365486 -5.33449 0
M  V30 2657 C 248.127 -1.77914 -4.91064 0
M  V30 2658 H 249.821 -1.27687 -2.70807 0
M  V30 2659 H 247.367 -0.615428 -1.30186 0
M  V30 2660 H 249.32 0.681378 -4.15855 0
M  V30 2661 H 248.044 1.20963 -3.03374 0
M  V30 2662 H 246.703 -0.855717 -3.56473 0
M  V30 2663 H 246.351 1.24642 -4.87312 0
M  V30 2664 H 246.051 -0.197356 -5.87268 0
M  V30 2665 H 247.575 0.715241 -6.06396 0
M  V30 2666 H 248.989 -1.49374 -5.53498 0
M  V30 2667 H 247.386 -2.2848 -5.54903 0
M  V30 2668 H 248.456 -2.50382 -4.15255 0
M  V30 2669 N 249.799 1.42003 -0.683588 0
M  V30 2670 C 250.729 2.33487 -0.024866 0
M  V30 2671 C 251.71 1.51163 0.779975 0
M  V30 2672 O 252.895 1.79739 0.735362 0
M  V30 2673 C 250.025 3.3487 0.920836 0
M  V30 2674 C 248.979 4.27414 0.223958 0
M  V30 2675 C 248.305 5.19074 1.2832 0
M  V30 2676 C 249.605 5.14445 -0.90242 0
M  V30 2677 H 251.299 2.88819 -0.788921 0
M  V30 2678 H 248.845 1.38873 -0.38083 0
M  V30 2679 H 250.798 3.97787 1.39081 0
M  V30 2680 H 249.522 2.77861 1.71642 0
M  V30 2681 H 248.181 3.65904 -0.225864 0
M  V30 2682 H 247.829 4.58387 2.071 0
M  V30 2683 H 247.529 5.81822 0.821995 0
M  V30 2684 H 249.053 5.84867 1.75392 0
M  V30 2685 H 250.467 5.70998 -0.513272 0
M  V30 2686 H 248.864 5.86072 -1.28997 0
M  V30 2687 H 249.934 4.52322 -1.74737 0
M  V30 2688 N 251.277 0.427512 1.51691 0
M  V30 2689 C 252.525 -0.141948 2.01601 0
M  V30 2690 C 252.846 -1.44067 1.31414 0
M  V30 2691 O 252.116 -1.90763 0.445658 0
M  V30 2692 H 250.696 -0.0554468 0.744939 0
M  V30 2693 H 253.358 0.567968 1.86441 0
M  V30 2694 H 252.454 -0.324913 3.10404 0
M  V30 2695 N 252.755 -1.56801 0.158532 0
M  V30 2696 C 254.002 -1.9649 -0.489679 0
M  V30 2697 C 254.33 -1.04394 -1.6411 0
M  V30 2698 O 253.585 -0.0754401 -1.95555 0
M  V30 2699 C 253.884 -3.4235 -1.02623 0
M  V30 2700 C 253.55 -4.50899 0.00794526 0
M  V30 2701 C 252.212 -4.80312 0.292207 0
M  V30 2702 C 254.564 -5.16333 0.710584 0
M  V30 2703 C 251.892 -5.72461 1.28472 0
M  V30 2704 C 254.244 -6.09553 1.69199 0
M  V30 2705 C 252.908 -6.37339 1.98383 0
M  V30 2706 H 252.178 -0.719009 -0.179186 0
M  V30 2707 H 254.825 -1.8989 0.247798 0
M  V30 2708 H 253.13 -3.45838 -1.84128 0
M  V30 2709 H 254.827 -3.70393 -1.53656 0
M  V30 2710 H 251.417 -4.28015 -0.22379 0
M  V30 2711 H 255.601 -4.93732 0.504174 0
M  V30 2712 H 250.857 -5.92278 1.51714 0
M  V30 2713 H 255.031 -6.59327 2.24189 0
M  V30 2714 H 252.658 -7.08546 2.7544 0
M  V30 2715 N 254.233 0.115231 -1.57178 0
M  V30 2716 C 255.649 0.468877 -1.52557 0
M  V30 2717 C 255.849 1.81649 -0.872125 0
M  V30 2718 O 254.905 2.48347 -0.45606 0
M  V30 2719 C 256.218 0.4499 -2.97315 0
M  V30 2720 C 257.766 0.533185 -3.08425 0
M  V30 2721 C 258.241 0.54456 -4.54751 0
M  V30 2722 N 259.732 0.605892 -4.5922 0
M  V30 2723 C 260.467 0.636203 -5.6986 0
M  V30 2724 N 259.963 0.623931 -6.89985 0
M  V30 2725 N 261.756 0.679496 -5.57978 0
M  V30 2726 H 253.907 -0.767712 -1.9804 0
M  V30 2727 H 256.17 -0.283609 -0.904583 0
M  V30 2728 H 255.876 -0.472721 -3.48509 0
M  V30 2729 H 255.75 1.27632 -3.5495 0
M  V30 2730 H 258.137 1.44623 -2.57232 0
M  V30 2731 H 258.218 -0.320995 -2.53778 0
M  V30 2732 H 257.862 -0.364452 -5.06591 0
M  V30 2733 H 257.792 1.41568 -5.07214 0
M  V30 2734 H 260.283 0.621386 -3.72756 0
M  V30 2735 H 260.596 0.649787 -7.70063 0
M  V30 2736 H 258.941 0.591296 -6.9248 0
M  V30 2737 H 262.132 0.686472 -4.63039 0
M  V30 2738 H 262.305 0.69965 -6.44212 0
M  V30 2739 N 255.711 1.52812 0.385517 0
M  V30 2740 C 256.959 1.67694 1.12797 0
M  V30 2741 C 257.28 0.421115 1.90399 0
M  V30 2742 O 256.55 -0.564551 1.87589 0
M  V30 2743 H 255.13 0.618155 0.419396 0
M  V30 2744 H 257.792 1.89938 0.436972 0
M  V30 2745 H 256.888 2.52896 1.82894 0
M  V30 2746 N 257.189 -0.644168 1.43834 0
M  V30 2747 C 258.466 -1.40188 1.36406 0
M  V30 2748 C 258.846 -2.11094 0.0163124 0
M  V30 2749 O 258.194 -2.05426 -1.00062 0
M  V30 2750 C 258.404 -2.3791 2.55343 0
M  V30 2751 C 259.752 -3.01637 2.98832 0
M  V30 2752 O 260.776 -2.48237 2.55455 0
M  V30 2753 O 259.635 -3.98477 3.74003 0
M  V30 2754 H 256.729 -0.626773 0.539523 0
M  V30 2755 H 259.275 -0.670317 1.559 0
M  V30 2756 H 258.047 -1.84525 3.4506 0
M  V30 2757 H 257.67 -3.18503 2.37995 0
M  V30 2758 N 258.668 -1.30515 -0.883378 0
M  V30 2759 C 259.914 -1.19607 -1.63774 0
M  V30 2760 C 260.247 0.248314 -1.92606 0
M  V30 2761 O 259.522 1.17742 -1.54813 0
M  V30 2762 C 259.805 -2.02669 -2.97653 0
M  V30 2763 C 259.658 -3.55335 -2.75784 0
M  V30 2764 C 260.977 -1.86573 -3.98596 0
M  V30 2765 H 258.096 -0.435856 -0.594305 0
M  V30 2766 H 260.738 -1.60165 -1.02212 0
M  V30 2767 H 258.888 -1.68208 -3.50197 0
M  V30 2768 H 260.56 -3.99863 -2.30016 0
M  V30 2769 H 258.803 -3.79438 -2.1026 0
M  V30 2770 H 259.474 -4.08745 -3.70988 0
M  V30 2771 H 261.95 -2.16703 -3.55217 0
M  V30 2772 H 260.826 -2.47014 -4.90179 0
M  V30 2773 H 261.087 -0.825321 -4.34328 0
M  V30 2774 N 260.146 1.09593 -1.13257 0
M  V30 2775 C 261.056 2.19739 -0.821691 0
M  V30 2776 C 262.072 1.72926 0.19302 0
M  V30 2777 O 263.248 2.01385 0.0244895 0
M  V30 2778 C 260.313 3.45482 -0.290333 0
M  V30 2779 C 259.374 4.06985 -1.36607 0
M  V30 2780 C 258.607 5.26726 -0.859975 0
M  V30 2781 O 258.83 5.69594 0.303082 0
M  V30 2782 O 257.764 5.7931 -1.63351 0
M  V30 2783 H 261.59 2.48781 -1.74189 0
M  V30 2784 H 259.175 1.18496 -0.909894 0
M  V30 2785 H 261.057 4.214 0.000674022 0
M  V30 2786 H 259.732 3.18047 0.602306 0
M  V30 2787 H 258.639 3.32712 -1.71037 0
M  V30 2788 H 259.972 4.38643 -2.23279 0
M  V30 2789 N 261.624 0.925811 1.2754 0
M  V30 2790 C 262.854 0.580666 1.98272 0
M  V30 2791 C 263.262 -0.845207 1.69272 0
M  V30 2792 O 262.605 -1.57306 0.948707 0
M  V30 2793 C 262.667 0.724418 3.52126 0
M  V30 2794 C 262.331 2.12206 4.04744 0
M  V30 2795 C 263.328 3.09604 4.17662 0
M  V30 2796 C 261.013 2.4385 4.39138 0
M  V30 2797 C 263.007 4.36755 4.64246 0
M  V30 2798 C 260.694 3.71237 4.85414 0
M  V30 2799 C 261.692 4.67503 4.97926 0
M  V30 2800 O 261.38 5.92624 5.43187 0
M  V30 2801 H 261.112 0.218987 0.639547 0
M  V30 2802 H 263.666 1.24452 1.63404 0
M  V30 2803 H 261.896 0.0034663 3.867 0
M  V30 2804 H 263.585 0.384607 4.04074 0
M  V30 2805 H 264.351 2.86478 3.91351 0
M  V30 2806 H 260.23 1.69665 4.28643 0
M  V30 2807 H 263.774 5.11898 4.73927 0
M  V30 2808 H 259.671 3.94182 5.11166 0
M  V30 2809 H 260.439 5.95585 5.61445 0
M  V30 2810 N 263.102 -1.41638 0.69111 0
M  V30 2811 C 264.518 -1.55435 0.362224 0
M  V30 2812 C 264.718 -1.66754 -1.13117 0
M  V30 2813 O 263.774 -1.64348 -1.91692 0
M  V30 2814 C 265.087 -2.79588 1.10684 0
M  V30 2815 C 266.635 -2.9338 1.09075 0
M  V30 2816 C 267.11 -4.20414 1.81703 0
M  V30 2817 N 268.601 -4.27362 1.7865 0
M  V30 2818 C 269.336 -5.24507 2.31689 0
M  V30 2819 N 268.832 -6.27708 2.93179 0
M  V30 2820 N 270.625 -5.16416 2.2197 0
M  V30 2821 H 262.776 -1.32536 1.65976 0
M  V30 2822 H 265.039 -0.639115 0.700168 0
M  V30 2823 H 264.745 -2.77419 2.16175 0
M  V30 2824 H 264.619 -3.70973 0.682545 0
M  V30 2825 H 267.006 -2.95067 0.0441238 0
M  V30 2826 H 267.087 -2.0318 1.55407 0
M  V30 2827 H 266.731 -4.19488 2.86343 0
M  V30 2828 H 266.661 -5.09578 1.32808 0
M  V30 2829 H 269.152 -3.53415 1.33815 0
M  V30 2830 H 269.465 -6.98217 3.31229 0
M  V30 2831 H 267.81 -6.28223 2.97255 0
M  V30 2832 H 271.001 -4.34716 1.73607 0
M  V30 2833 H 271.174 -5.91958 2.63609 0
M  V30 2834 N 264.58 -0.43555 -1.51462 0
M  V30 2835 C 265.829 0.133007 -2.01261 0
M  V30 2836 C 266.142 1.43942 -1.32439 0
M  V30 2837 O 267.348 2.09081 -1.73198 0
M  V30 2838 C 265.804 0.287581 -3.58749 0
M  V30 2839 C 265.412 -1.00829 -4.36506 0
M  V30 2840 C 267.156 0.810004 -4.167 0
M  V30 2841 C 265.063 -0.819454 -5.85695 0
M  V30 2842 H 263.993 0.0534822 -0.752101 0
M  V30 2843 H 266.644 -0.565038 -1.74584 0
M  V30 2844 H 265.026 1.04859 -3.81865 0
M  V30 2845 H 266.2 -1.77749 -4.25138 0
M  V30 2846 H 264.515 -1.45911 -3.89999 0
M  V30 2847 H 267.112 0.967743 -5.2587 0
M  V30 2848 H 267.455 1.79196 -3.75758 0
M  V30 2849 H 267.988 0.107357 -3.97655 0
M  V30 2850 H 264.727 -1.77374 -6.31046 0
M  V30 2851 H 264.247 -0.0900208 -5.99732 0
M  V30 2852 H 265.926 -0.471949 -6.45276 0
M  V30 2853 N 266.058 1.56714 -0.166846 0
M  V30 2854 C 267.469 1.83378 0.350646 0
M  V30 2855 C 267.82 1.08646 1.63372 0
M  V30 2856 O 266.945 0.338058 2.13743 0
M  V30 2857 C 267.54 3.32643 0.642963 0
M  V30 2858 C 266.099 3.59818 1.10491 0
M  V30 2859 C 265.246 2.76954 0.138411 0
M  V30 2860 H 268.197 1.53803 -0.391193 0
M  V30 2861 H 268.218 3.49878 1.49551 0
M  V30 2862 H 267.73 3.87007 -0.291055 0
M  V30 2863 H 265.831 3.1086 2.05418 0
M  V30 2864 H 265.944 4.68178 1.01716 0
M  V30 2865 H 264.308 2.4666 0.634911 0
M  V30 2866 H 265.091 3.34097 -0.789549 0
M  V30 2867 N 267.536 -0.106894 1.57237 0
M  V30 2868 C 268.466 -1.13148 2.04254 0
M  V30 2869 C 269.447 -1.42476 0.929224 0
M  V30 2870 O 270.632 -1.52709 1.19973 0
M  V30 2871 C 267.762 -2.4545 2.45706 0
M  V30 2872 C 266.716 -2.30558 3.60592 0
M  V30 2873 C 266.042 -3.67931 3.87983 0
M  V30 2874 C 267.342 -1.75597 4.91897 0
M  V30 2875 H 269.036 -0.740374 2.90101 0
M  V30 2876 H 266.582 -0.354696 1.39563 0
M  V30 2877 H 268.535 -3.17389 2.77205 0
M  V30 2878 H 267.259 -2.86475 1.56843 0
M  V30 2879 H 265.918 -1.61067 3.29322 0
M  V30 2880 H 265.566 -4.06462 2.96306 0
M  V30 2881 H 265.266 -3.58817 4.65322 0
M  V30 2882 H 266.79 -4.41356 4.21945 0
M  V30 2883 H 268.204 -2.37364 5.21854 0
M  V30 2884 H 266.601 -1.77272 5.73319 0
M  V30 2885 H 267.671 -0.714451 4.79608 0
M  V30 2886 N 269.014 -1.53014 -0.377408 0
M  V30 2887 C 270.425 -1.60438 -0.954798 0
M  V30 2888 C 270.776 -0.464418 -1.90624 0
M  V30 2889 O 269.901 0.41087 -2.12464 0
M  V30 2890 C 270.496 -2.90797 -1.73847 0
M  V30 2891 C 269.055 -3.00595 -2.26538 0
M  V30 2892 C 268.202 -2.55645 -1.07429 0
M  V30 2893 H 271.153 -1.57926 -0.156575 0
M  V30 2894 H 271.174 -2.77935 -2.5987 0
M  V30 2895 H 270.686 -3.73746 -1.04574 0
M  V30 2896 H 268.787 -2.22208 -2.99089 0
M  V30 2897 H 268.9 -4.05456 -2.5523 0
M  V30 2898 H 267.264 -2.10239 -1.43777 0
M  V30 2899 H 268.047 -3.41 -0.396728 0
M  V30 2900 N 270.492 0.636531 -1.44174 0
M  V30 2901 C 271.44 1.76995 -1.50915 0
M  V30 2902 C 272.434 1.65053 -0.381295 0
M  V30 2903 O 273.64 1.71197 -0.55601 0
M  V30 2904 H 270.015 0.584247 -0.473455 0
M  V30 2905 H 271.986 1.68432 -2.4632 0
M  V30 2906 C 270.735 3.15314 -1.46534 0
M  V30 2907 H 270.058 3.25149 -2.32633 0
M  V30 2908 H 271.498 3.9453 -1.55312 0
M  V30 2909 C 269.957 3.3639 -0.185305 0
M  V30 2910 O 270.487 3.94699 0.746688 0
M  V30 2911 N 268.693 2.9046 -0.0901606 0
M  V30 2912 H 268.24 2.43193 -0.849416 0
M  V30 2913 H 268.198 3.04937 0.765553 0
M  V30 2914 N 271.97 1.30982 0.876444 0
M  V30 2915 C 273.218 1.20058 1.62575 0
M  V30 2916 C 273.539 -0.242947 1.93481 0
M  V30 2917 O 272.809 -1.1619 1.57724 0
M  V30 2918 H 271.389 0.44135 0.602677 0
M  V30 2919 H 274.051 1.64222 1.04962 0
M  V30 2920 H 273.147 1.76762 2.57219 0
M  V30 2921 N 273.449 -1.08991 1.13837 0
M  V30 2922 C 274.382 -2.15049 0.763477 0
M  V30 2923 C 275.36 -1.60629 -0.252398 0
M  V30 2924 O 276.544 -1.87958 -0.142853 0
M  V30 2925 C 273.671 -3.38441 0.132545 0
M  V30 2926 C 272.717 -4.11596 1.11763 0
M  V30 2927 S 273.55 -4.6521 2.65216 0
M  V30 2928 C 274.706 -5.91896 2.03495 0
M  V30 2929 H 274.939 -2.46518 1.66182 0
M  V30 2930 H 272.472 -1.21008 0.958976 0
M  V30 2931 H 274.43 -4.09883 -0.225074 0
M  V30 2932 H 273.091 -3.05182 -0.743135 0
M  V30 2933 H 272.284 -5.00121 0.624076 0
M  V30 2934 H 271.886 -3.46038 1.41894 0
M  V30 2935 H 274.178 -6.63156 1.38675 0
M  V30 2936 H 275.121 -6.45938 2.9012 0
M  V30 2937 H 275.529 -5.44625 1.48471 0
M  V30 2938 N 274.927 -0.932562 -1.27047 0
M  V30 2939 C 276.155 -0.592031 -1.98249 0
M  V30 2940 C 276.57 0.831062 -1.69525 0
M  V30 2941 O 275.927 1.55299 -0.958561 0
M  V30 2942 C 275.978 -0.814279 -3.5221 0
M  V30 2943 O 275.699 -2.18139 -3.7993 0
M  V30 2944 C 277.2 -0.483121 -4.4066 0
M  V30 2945 H 274.42 -0.223896 -0.632544 0
M  V30 2946 H 276.964 -1.25091 -1.61779 0
M  V30 2947 H 275.119 -0.20213 -3.86872 0
M  V30 2948 H 275.533 -2.235 -4.74498 0
M  V30 2949 H 277.007 -0.689298 -5.47679 0
M  V30 2950 H 277.484 0.581546 -4.35333 0
M  V30 2951 H 278.09 -1.07362 -4.11526 0
M  V30 2952 N 276.405 1.4127 -0.698611 0
M  V30 2953 C 277.368 2.29158 -0.044132 0
M  V30 2954 C 278.368 1.44529 0.704841 0
M  V30 2955 O 279.558 1.65643 0.539276 0
M  V30 2956 C 276.69 3.27459 0.947809 0
M  V30 2957 H 277.883 2.88529 -0.817994 0
M  V30 2958 H 275.436 1.49307 -0.46228 0
M  V30 2959 H 276.171 2.73073 1.74933 0
M  V30 2960 H 275.956 3.8991 0.41385 0
M  V30 2961 H 277.446 3.93311 1.40344 0
M  V30 2962 N 277.883 0.443576 1.51229 0
M  V30 2963 C 278.793 -0.370721 2.31652 0
M  V30 2964 C 279.809 -1.02186 1.40833 0
M  V30 2965 O 280.985 -1.01586 1.73903 0
M  V30 2966 C 278.05 -1.45376 3.14749 0
M  V30 2967 C 277.111 -0.822099 4.21355 0
M  V30 2968 C 276.344 -1.85353 5.0048 0
M  V30 2969 O 276.567 -3.07656 4.80316 0
M  V30 2970 O 275.501 -1.4406 5.84406 0
M  V30 2971 H 279.327 0.286002 3.0235 0
M  V30 2972 H 276.912 0.20598 1.47973 0
M  V30 2973 H 278.794 -2.08173 3.66391 0
M  V30 2974 H 277.469 -2.09445 2.46809 0
M  V30 2975 H 276.376 -0.155909 3.73775 0
M  V30 2976 H 277.709 -0.224797 4.91686 0
M  V30 2977 N 279.361 -1.56624 0.175154 0
M  V30 2978 C 280.291 -2.21155 -0.749195 0
M  V30 2979 C 281.272 -1.16836 -1.23626 0
M  V30 2980 O 282.457 -1.45277 -1.28873 0
M  V30 2981 C 279.587 -2.8553 -1.97711 0
M  V30 2982 C 278.541 -3.95921 -1.62575 0
M  V30 2983 C 277.867 -4.47365 -2.92864 0
M  V30 2984 C 279.167 -5.15323 -0.850838 0
M  V30 2985 H 280.861 -2.98653 -0.211295 0
M  V30 2986 H 278.407 -1.43651 -0.100188 0
M  V30 2987 H 280.36 -3.2935 -2.62881 0
M  V30 2988 H 279.084 -2.05406 -2.53921 0
M  V30 2989 H 277.743 -3.52762 -0.997719 0
M  V30 2990 H 277.391 -3.64027 -3.47122 0
M  V30 2991 H 277.091 -5.21839 -2.70106 0
M  V30 2992 H 278.615 -4.93873 -3.59056 0
M  V30 2993 H 280.029 -5.55812 -1.40521 0
M  V30 2994 H 278.426 -5.95739 -0.722154 0
M  V30 2995 H 279.496 -4.84661 0.152082 0
M  V30 2996 N 280.839 0.0985539 -1.57292 0
M  V30 2997 C 282.064 0.820196 -1.90493 0
M  V30 2998 C 282.489 1.71658 -0.769094 0
M  V30 2999 O 281.847 1.79133 0.279495 0
M  V30 3000 C 281.895 1.61242 -3.22542 0
M  V30 3001 O 280.999 2.72108 -3.09888 0
M  V30 3002 H 280.34 0.225547 -0.62452 0
M  V30 3003 H 282.87 0.0748159 -2.04463 0
M  V30 3004 H 282.88 1.99737 -3.55766 0
M  V30 3005 H 281.555 0.954535 -4.04798 0
M  V30 3006 H 280.132 2.36667 -2.88172 0
M  V30 3007 N 282.317 1.53212 0.369288 0
M  V30 3008 C 283.564 1.69215 1.11232 0
M  V30 3009 C 283.892 0.442048 1.8941 0
M  V30 3010 O 283.147 -0.575944 1.87033 0
M  V30 3011 C 283.446 2.89101 2.10132 0
M  V30 3012 C 283.112 4.25758 1.48463 0
M  V30 3013 C 281.774 4.6292 1.31372 0
M  V30 3014 C 284.126 5.10757 1.03811 0
M  V30 3015 C 281.454 5.82722 0.68207 0
M  V30 3016 C 283.806 6.31201 0.420487 0
M  V30 3017 C 282.47 6.67079 0.237038 0
M  V30 3018 H 281.74 0.619201 0.407027 0
M  V30 3019 H 284.387 1.87391 0.394552 0
M  V30 3020 H 282.692 2.65421 2.88199 0
M  V30 3021 H 284.389 2.98676 2.6757 0
M  V30 3022 H 280.979 3.96494 1.62758 0
M  V30 3023 H 285.163 4.82599 1.1581 0
M  V30 3024 H 280.419 6.09113 0.528316 0
M  V30 3025 H 284.593 6.96368 0.0662874 0
M  V30 3026 H 282.22 7.59774 -0.254477 0
M  V30 3027 N 283.795 -0.628877 1.44509 0
M  V30 3028 C 284.728 -1.75367 1.46019 0
M  V30 3029 C 285.706 -1.59444 0.318787 0
M  V30 3030 O 286.89 -1.81297 0.516099 0
M  V30 3031 C 284.017 -3.12965 1.29501 0
M  V30 3032 C 283.063 -3.47532 2.47233 0
M  V30 3033 S 283.896 -3.44758 4.09758 0
M  V30 3034 C 285.052 -4.84973 3.95667 0
M  V30 3035 H 285.285 -1.7382 2.41193 0
M  V30 3036 H 282.818 -0.803686 1.31834 0
M  V30 3037 H 284.776 -3.92367 1.20658 0
M  V30 3038 H 283.437 -3.12049 0.358341 0
M  V30 3039 H 282.63 -4.47664 2.31544 0
M  V30 3040 H 282.232 -2.75598 2.52828 0
M  V30 3041 H 284.524 -5.74255 3.59496 0
M  V30 3042 H 285.467 -5.05716 4.95638 0
M  V30 3043 H 285.875 -4.59653 3.27688 0
M  V30 3044 N 285.273 -1.31445 -0.869486 0
M  V30 3045 C 286.223 -1.15731 -1.96444 0
M  V30 3046 C 287.207 -0.0681855 -1.60755 0
M  V30 3047 O 288.399 -0.293154 -1.74555 0
M  V30 3048 C 285.528 -0.867255 -3.32165 0
M  V30 3049 C 284.614 -1.99738 -3.74119 0
M  V30 3050 N 285.005 -3.24447 -3.88031 0
M  V30 3051 C 283.303 -1.89723 -4.03635 0
M  V30 3052 C 284.004 -3.98374 -4.23879 0
M  V30 3053 N 282.98 -3.26547 -4.3459 0
M  V30 3054 H 286.782 -2.10296 -2.05312 0
M  V30 3055 H 284.296 -1.23009 -1.06031 0
M  V30 3056 H 286.293 -0.735668 -4.10358 0
M  V30 3057 H 284.953 0.0701614 -3.24624 0
M  V30 3058 H 285.964 -3.59557 -3.72746 0
M  V30 3059 H 282.641 -1.03449 -4.04481 0
M  V30 3060 H 284.031 -5.05844 -4.42235 0
M  V30 3061 N 286.751 1.08385 -1.14413 0
M  V30 3062 C 287.991 1.8238 -0.922868 0
M  V30 3063 C 288.355 1.84225 0.540842 0
M  V30 3064 O 289.556 2.53985 0.880058 0
M  V30 3065 C 287.827 3.24048 -1.50757 0
M  V30 3066 S 289.386 4.14917 -1.4279 0
M  V30 3067 H 286.204 0.628524 -0.332384 0
M  V30 3068 H 288.806 1.30278 -1.45766 0
M  V30 3069 H 287.51 3.20288 -2.56601 0
M  V30 3070 H 287.041 3.81224 -0.971178 0
M  V30 3071 H 289.056 4.94473 -0.413582 0
M  V30 3072 N 288.23 0.939286 1.26551 0
M  V30 3073 C 289.178 0.43815 2.28436 0
M  V30 3074 C 290.172 -0.483587 1.62351 0
M  V30 3075 O 291.378 -0.362009 1.76322 0
M  V30 3076 H 287.753 0.123149 0.741848 0
M  V30 3077 H 289.724 1.31002 2.68106 0
M  V30 3078 C 288.473 -0.283052 3.46546 0
M  V30 3079 H 287.796 0.417043 3.97619 0
M  V30 3080 H 289.236 -0.597948 4.19763 0
M  V30 3081 C 287.695 -1.50018 3.01656 0
M  V30 3082 O 288.225 -2.59855 3.0633 0
M  V30 3083 N 286.431 -1.35608 2.57019 0
M  V30 3084 H 285.978 -0.46244 2.53415 0
M  V30 3085 H 285.936 -2.17165 2.27347 0
M  V30 3086 N 289.708 -1.40897 0.706093 0
M  V30 3087 C 290.671 -2.29131 0.0562841 0
M  V30 3088 C 291.671 -1.44901 -0.697166 0
M  V30 3089 O 292.861 -1.65926 -0.530484 0
M  V30 3090 C 289.993 -3.27957 -0.93043 0
M  V30 3091 H 291.186 -2.88091 0.833284 0
M  V30 3092 H 288.739 -1.4906 0.470192 0
M  V30 3093 H 289.474 -2.73997 -1.73482 0
M  V30 3094 H 289.259 -3.90124 -0.393166 0
M  V30 3095 H 290.749 -3.94049 -1.38256 0
M  V30 3096 N 291.186 -0.45159 -1.50991 0
M  V30 3097 C 292.602 -0.104647 -1.59257 0
M  V30 3098 C 292.802 1.38728 -1.4614 0
M  V30 3099 O 291.858 2.15866 -1.30989 0
M  V30 3100 C 293.171 -0.637468 -2.93865 0
M  V30 3101 C 294.719 -0.599166 -3.07212 0
M  V30 3102 C 295.194 -1.1092 -4.44366 0
M  V30 3103 N 296.685 -1.06778 -4.50725 0
M  V30 3104 C 297.42 -1.43314 -5.55201 0
M  V30 3105 N 296.916 -1.87204 -6.67028 0
M  V30 3106 N 298.709 -1.3504 -5.45638 0
M  V30 3107 H 290.86 -1.42214 -1.57762 0
M  V30 3108 H 293.123 -0.586921 -0.744465 0
M  V30 3109 H 292.829 -1.68187 -3.08879 0
M  V30 3110 H 292.703 -0.0702139 -3.77135 0
M  V30 3111 H 295.09 0.436277 -2.91857 0
M  V30 3112 H 295.171 -1.20299 -2.25747 0
M  V30 3113 H 294.815 -2.14318 -4.60467 0
M  V30 3114 H 294.745 -0.481773 -5.24392 0
M  V30 3115 H 297.236 -0.745643 -3.70471 0
M  V30 3116 H 297.549 -2.13282 -7.42786 0
M  V30 3117 H 295.894 -1.91142 -6.68199 0
M  V30 3118 H 299.085 -1.00607 -4.57161 0
M  V30 3119 H 299.258 -1.63841 -6.26945 0
M  V30 3120 N 292.664 1.56529 -0.183458 0
M  V30 3121 C 293.941 1.88959 0.50536 0
M  V30 3122 C 294.321 1.09523 1.80466 0
M  V30 3123 O 293.669 0.19278 2.27685 0
M  V30 3124 C 293.879 3.41162 0.73547 0
M  V30 3125 C 295.227 4.11155 1.06005 0
M  V30 3126 O 296.251 3.46548 0.823594 0
M  V30 3127 O 295.11 5.25318 1.50675 0
M  V30 3128 H 292.204 0.78441 0.261973 0
M  V30 3129 H 294.75 1.68231 -0.222802 0
M  V30 3130 H 293.522 3.90874 -0.182561 0
M  V30 3131 H 293.145 3.67543 1.51651 0
M  V30 3132 N 294.142 -0.090211 1.57342 0
M  V30 3133 C 295.092 -1.11557 1.98844 0
M  V30 3134 C 296.076 -1.35503 0.867624 0
M  V30 3135 O 297.268 -1.36113 1.13148 0
M  V30 3136 C 294.397 -2.43446 2.42051 0
M  V30 3137 C 293.483 -2.22853 3.60828 0
M  V30 3138 N 293.874 -1.72141 4.75606 0
M  V30 3139 C 292.172 -2.53401 3.67021 0
M  V30 3140 C 292.873 -1.65932 5.57531 0
M  V30 3141 N 291.849 -2.11323 5.00843 0
M  V30 3142 H 295.651 -0.716499 2.85032 0
M  V30 3143 H 293.165 -0.297567 1.59651 0
M  V30 3144 H 295.162 -3.17644 2.70014 0
M  V30 3145 H 293.822 -2.84087 1.57241 0
M  V30 3146 H 294.833 -1.41268 4.98261 0
M  V30 3147 H 291.51 -2.97532 2.92884 0
M  V30 3148 H 292.9 -1.27733 6.59647 0
M  V30 3149 N 295.62 -1.53406 -0.361157 0
M  V30 3150 C 296.845 -1.74024 -1.12829 0
M  V30 3151 C 297.27 -0.470069 -1.82132 0
M  V30 3152 O 296.628 0.57619 -1.719 0
M  V30 3153 C 296.676 -2.90903 -2.13091 0
M  V30 3154 O 295.78 -2.59821 -3.20261 0
M  V30 3155 H 295.121 -0.577804 -0.327168 0
M  V30 3156 H 297.651 -2.00307 -0.41693 0
M  V30 3157 H 297.661 -3.17194 -2.56616 0
M  V30 3158 H 296.336 -3.83034 -1.62042 0
M  V30 3159 H 294.913 -2.44362 -2.81677 0
M  V30 3160 N 297.098 0.621204 -1.44841 0
M  V30 3161 C 298.347 1.37658 -1.47422 0
M  V30 3162 C 298.66 1.95264 -0.114629 0
M  V30 3163 O 299.866 2.71494 -0.0180199 0
M  V30 3164 C 298.322 2.49285 -2.59586 0
M  V30 3165 C 297.93 1.98149 -4.01797 0
M  V30 3166 C 299.674 3.26409 -2.71399 0
M  V30 3167 C 297.581 3.07178 -5.05367 0
M  V30 3168 H 296.511 0.517344 -0.548517 0
M  V30 3169 H 299.162 0.667257 -1.70938 0
M  V30 3170 H 297.544 3.22839 -2.29328 0
M  V30 3171 H 298.718 1.31395 -4.41669 0
M  V30 3172 H 297.033 1.33812 -3.94314 0
M  V30 3173 H 299.63 4.07706 -3.45948 0
M  V30 3174 H 299.973 3.76535 -1.77559 0
M  V30 3175 H 300.506 2.5995 -3.01116 0
M  V30 3176 H 297.245 2.61985 -6.00869 0
M  V30 3177 H 296.765 3.72542 -4.70077 0
M  V30 3178 H 298.444 3.71789 -5.29511 0
M  V30 3179 N 298.576 1.31904 0.862503 0
M  V30 3180 C 299.539 1.20131 1.95195 0
M  V30 3181 C 300.539 0.126409 1.60302 0
M  V30 3182 O 301.729 0.376234 1.70089 0
M  V30 3183 C 298.861 0.845691 3.30244 0
M  V30 3184 H 300.054 2.16943 2.07064 0
M  V30 3185 H 297.607 1.15622 1.05172 0
M  V30 3186 H 298.342 -0.120957 3.24074 0
M  V30 3187 H 298.127 1.62276 3.56944 0
M  V30 3188 H 299.617 0.787418 4.10109 0
M  V30 3189 N 300.054 -1.07777 1.14986 0
M  V30 3190 C 301.301 -1.8029 0.922056 0
M  V30 3191 C 301.629 -1.86531 -0.55105 0
M  V30 3192 O 300.884 -1.34189 -1.42449 0
M  V30 3193 C 301.183 -3.25495 1.47608 0
M  V30 3194 C 300.849 -3.39361 2.96893 0
M  V30 3195 C 299.511 -3.42852 3.37647 0
M  V30 3196 C 301.863 -3.42512 3.92854 0
M  V30 3197 C 299.191 -3.47094 4.73015 0
M  V30 3198 C 301.543 -3.4829 5.28088 0
M  V30 3199 C 300.207 -3.50058 5.68345 0
M  V30 3200 H 299.477 -0.659727 0.337404 0
M  V30 3201 H 302.124 -1.26854 1.43459 0
M  V30 3202 H 300.429 -3.81683 0.88463 0
M  V30 3203 H 302.126 -3.80168 1.27568 0
M  V30 3204 H 298.716 -3.37339 2.64387 0
M  V30 3205 H 302.9 -3.3904 3.62444 0
M  V30 3206 H 298.156 -3.46758 5.03556 0
M  V30 3207 H 302.33 -3.49675 6.02246 0
M  V30 3208 H 299.957 -3.53097 6.73221 0
M  V30 3209 N 301.532 -0.945985 -1.26051 0
M  V30 3210 C 302.78 -0.594941 -1.93145 0
M  V30 3211 C 303.101 0.86953 -1.7454 0
M  V30 3212 O 302.371 1.61838 -1.10387 0
M  V30 3213 H 300.951 -0.217044 -0.714773 0
M  V30 3214 H 303.613 -1.20235 -1.53393 0
M  V30 3215 H 302.709 -0.816835 -3.01221 0
M  V30 3216 N 303.011 1.40521 -0.713556 0
M  V30 3217 C 303.974 2.29098 -0.0684347 0
M  V30 3218 C 304.974 1.45268 0.689472 0
M  V30 3219 O 306.164 1.66205 0.521677 0
M  V30 3220 C 303.296 3.28446 0.913024 0
M  V30 3221 H 304.489 2.87645 -0.84855 0
M  V30 3222 H 302.042 1.48809 -0.47809 0
M  V30 3223 H 302.777 2.74913 1.72027 0
M  V30 3224 H 302.562 3.90327 0.372472 0
M  V30 3225 H 304.052 3.94777 1.36165 0
M  V30 3226 N 304.489 0.459591 1.5075 0
M  V30 3227 C 305.422 -0.386257 2.24907 0
M  V30 3228 C 306.4 -1.006 1.27744 0
M  V30 3229 O 307.584 -1.04416 1.56938 0
M  V30 3230 C 304.711 -1.54021 3.01654 0
M  V30 3231 C 303.757 -1.03898 4.13651 0
M  V30 3232 S 304.59 0.0370501 5.35487 0
M  V30 3233 C 305.746 -1.12105 6.15779 0
M  V30 3234 H 305.979 0.243272 2.96303 0
M  V30 3235 H 303.512 0.244339 1.52454 0
M  V30 3236 H 305.47 -2.20163 3.46466 0
M  V30 3237 H 304.131 -2.14121 2.29806 0
M  V30 3238 H 303.324 -1.90254 4.66711 0
M  V30 3239 H 302.926 -0.45545 3.71216 0
M  V30 3240 H 305.218 -2.03501 6.46215 0
M  V30 3241 H 306.161 -0.62995 7.05292 0
M  V30 3242 H 306.569 -1.36967 5.47631 0
M  V30 3243 N 305.967 -1.56429 0.191757 0
M  V30 3244 C 307.378 -1.83912 -0.321428 0
M  V30 3245 C 307.729 -1.11231 -1.61623 0
M  V30 3246 O 306.854 -0.37202 -2.13178 0
M  V30 3247 C 307.449 -3.33624 -0.589961 0
M  V30 3248 C 306.008 -3.6153 -1.04753 0
M  V30 3249 C 305.155 -2.7714 -0.0943327 0
M  V30 3250 H 308.106 -1.53161 0.415612 0
M  V30 3251 H 308.127 -3.52213 -1.43966 0
M  V30 3252 H 307.639 -3.86495 0.352588 0
M  V30 3253 H 305.74 -3.14089 -2.00447 0
M  V30 3254 H 305.853 -4.69737 -0.942549 0
M  V30 3255 H 304.217 -2.47638 -0.595589 0
M  V30 3256 H 305 -3.32799 0.842601 0
M  V30 3257 N 307.445 0.0818655 -1.57387 0
M  V30 3258 C 308.408 1.08265 -2.02018 0
M  V30 3259 C 309.408 1.32183 -0.915664 0
M  V30 3260 O 310.598 1.28073 -1.18081 0
M  V30 3261 C 307.73 2.42871 -2.39221 0
M  V30 3262 H 308.923 0.698204 -2.91659 0
M  V30 3263 H 306.476 0.327303 -1.52835 0
M  V30 3264 H 307.211 2.86167 -1.52575 0
M  V30 3265 H 306.996 2.26855 -3.19811 0
M  V30 3266 H 308.486 3.14826 -2.74362 0
M  V30 3267 N 308.923 1.53595 0.353017 0
M  V30 3268 C 309.886 1.80232 1.41594 0
M  V30 3269 C 310.886 0.673081 1.46035 0
M  V30 3270 O 312.076 0.941335 1.46576 0
M  V30 3271 C 309.208 1.93578 2.80607 0
M  V30 3272 H 310.401 2.75174 1.19244 0
M  V30 3273 H 307.954 1.44864 0.586872 0
M  V30 3274 H 308.689 1.00746 3.08254 0
M  V30 3275 H 308.474 2.75724 2.78781 0
M  V30 3276 H 309.964 2.15735 3.57558 0
M  V30 3277 N 310.401 -0.613514 1.45168 0
M  V30 3278 C 311.348 -1.72456 1.53387 0
M  V30 3279 C 312.318 -1.6169 0.380191 0
M  V30 3280 O 313.503 -1.81356 0.592836 0
M  V30 3281 C 310.643 -3.10753 1.50088 0
M  V30 3282 C 309.756 -3.32368 2.75963 0
M  V30 3283 C 308.891 -4.60737 2.64376 0
M  V30 3284 C 307.93 -4.7559 3.85332 0
M  V30 3285 N 307.067 -5.95253 3.72315 0
M  V30 3286 H 311.907 -1.64768 2.48305 0
M  V30 3287 H 309.444 -0.803503 1.23216 0
M  V30 3288 H 311.402 -3.90758 1.46164 0
M  V30 3289 H 310.032 -3.17413 0.587243 0
M  V30 3290 H 309.084 -2.4618 2.89999 0
M  V30 3291 H 310.396 -3.39218 3.65695 0
M  V30 3292 H 309.55 -5.48928 2.58385 0
M  V30 3293 H 308.289 -4.56275 1.72233 0
M  V30 3294 H 307.294 -3.85824 3.91688 0
M  V30 3295 H 308.519 -4.81854 4.78533 0
M  V30 3296 H 306.465 -5.91847 2.82937 0
M  V30 3297 H 306.382 -6.03236 4.55677 0
M  V30 3298 H 307.65 -6.85958 3.70246 0
M  V30 3299 N 311.879 -1.3236 -0.855495 0
M  V30 3300 C 313.295 -1.11332 -1.14356 0
M  V30 3301 C 313.495 0.106751 -2.01217 0
M  V30 3302 O 312.551 0.791891 -2.39761 0
M  V30 3303 C 313.864 -2.39237 -1.82171 0
M  V30 3304 C 315.412 -2.44986 -1.9481 0
M  V30 3305 C 315.887 -3.7281 -2.66039 0
M  V30 3306 N 317.378 -3.73787 -2.73565 0
M  V30 3307 C 318.113 -4.69394 -3.29327 0
M  V30 3308 N 317.609 -5.75367 -3.85907 0
M  V30 3309 N 319.402 -4.56893 -3.27423 0
M  V30 3310 H 311.553 -2.10586 -0.277027 0
M  V30 3311 H 313.816 -0.929701 -0.185364 0
M  V30 3312 H 313.522 -3.28431 -1.25802 0
M  V30 3313 H 313.396 -2.50134 -2.82335 0
M  V30 3314 H 315.783 -1.56252 -2.50338 0
M  V30 3315 H 315.864 -2.38043 -0.936448 0
M  V30 3316 H 315.508 -4.61918 -2.11174 0
M  V30 3317 H 315.438 -3.77024 -3.67642 0
M  V30 3318 H 317.929 -2.97189 -2.33424 0
M  V30 3319 H 318.242 -6.44378 -4.26611 0
M  V30 3320 H 316.587 -5.79123 -3.84242 0
M  V30 3321 H 319.778 -3.73269 -2.82467 0
M  V30 3322 H 319.951 -5.31577 -3.7058 0
M  V30 3323 N 313.357 1.07166 -1.15556 0
M  V30 3324 C 314.287 2.16403 -0.877046 0
M  V30 3325 C 315.268 1.69217 0.173111 0
M  V30 3326 O 316.453 1.94181 0.027084 0
M  V30 3327 C 313.583 3.45349 -0.367632 0
M  V30 3328 C 312.537 4.05995 -1.35468 0
M  V30 3329 C 311.863 5.30045 -0.704038 0
M  V30 3330 C 313.163 4.45804 -2.72132 0
M  V30 3331 H 314.857 2.39959 -1.79053 0
M  V30 3332 H 312.403 1.15325 -0.862331 0
M  V30 3333 H 314.356 4.21095 -0.160317 0
M  V30 3334 H 313.08 3.21385 0.581326 0
M  V30 3335 H 311.739 3.32296 -1.54839 0
M  V30 3336 H 311.387 5.02373 0.251128 0
M  V30 3337 H 311.087 5.71579 -1.36277 0
M  V30 3338 H 312.611 6.08495 -0.50654 0
M  V30 3339 H 314.025 5.12671 -2.56595 0
M  V30 3340 H 312.422 4.98296 -3.34397 0
M  V30 3341 H 313.492 3.57083 -3.28054 0
M  V30 3342 N 314.835 0.952656 1.25548 0
M  V30 3343 C 315.783 0.462354 2.27958 0
M  V30 3344 C 316.777 -0.46634 1.62855 0
M  V30 3345 O 317.983 -0.343287 1.76696 0
M  V30 3346 H 314.358 0.13101 0.7405 0
M  V30 3347 H 316.329 1.33839 2.66702 0
M  V30 3348 C 315.078 -0.24628 3.46827 0
M  V30 3349 H 314.401 0.459192 3.97154 0
M  V30 3350 H 315.841 -0.553393 4.20373 0
M  V30 3351 C 314.3 -1.4681 3.0323 0
M  V30 3352 O 314.83 -2.56591 3.09069 0
M  V30 3353 N 313.036 -1.32874 2.58443 0
M  V30 3354 H 312.583 -0.435536 2.53891 0
M  V30 3355 H 312.541 -2.14742 2.29637 0
M  V30 3356 N 316.313 -1.40141 0.720998 0
M  V30 3357 C 317.263 -2.27949 0.0482544 0
M  V30 3358 C 318.247 -1.43538 -0.727021 0
M  V30 3359 O 319.439 -1.6658 -0.598332 0
M  V30 3360 C 316.568 -3.32126 -0.868729 0
M  V30 3361 C 315.654 -4.24008 -0.0883515 0
M  V30 3362 N 316.045 -4.97154 0.931226 0
M  V30 3363 C 314.343 -4.4485 -0.320105 0
M  V30 3364 C 315.044 -5.64587 1.4006 0
M  V30 3365 N 314.02 -5.38787 0.721752 0
M  V30 3366 H 317.822 -2.81948 0.829609 0
M  V30 3367 H 315.336 -1.52656 0.554067 0
M  V30 3368 H 317.333 -3.93884 -1.36605 0
M  V30 3369 H 315.993 -2.79687 -1.6494 0
M  V30 3370 H 317.004 -5.01 1.31222 0
M  V30 3371 H 313.681 -4.03378 -1.07668 0
M  V30 3372 H 315.071 -6.33175 2.24808 0
M  V30 3373 N 317.792 -0.46758 -1.50504 0
M  V30 3374 C 318.722 0.318381 -2.31319 0
M  V30 3375 C 319.703 0.993564 -1.38066 0
M  V30 3376 O 320.888 0.991411 -1.66987 0
M  V30 3377 C 318.018 1.40275 -3.17711 0
M  V30 3378 C 316.972 0.849373 -4.19487 0
M  V30 3379 C 316.298 2.03177 -4.94594 0
M  V30 3380 C 317.598 -0.136942 -5.2212 0
M  V30 3381 H 319.292 -0.356106 -2.97275 0
M  V30 3382 H 316.838 -0.172703 -1.42961 0
M  V30 3383 H 318.791 1.96004 -3.73042 0
M  V30 3384 H 317.515 2.10596 -2.49634 0
M  V30 3385 H 316.174 0.314076 -3.65252 0
M  V30 3386 H 315.822 2.72187 -4.22993 0
M  V30 3387 H 315.522 1.66774 -5.63436 0
M  V30 3388 H 317.046 2.59403 -5.52759 0
M  V30 3389 H 318.46 0.331056 -5.72343 0
M  V30 3390 H 316.857 -0.41507 -5.98663 0
M  V30 3391 H 317.927 -1.06398 -4.73083 0
M  V30 3392 N 319.27 1.56325 -0.20005 0
M  V30 3393 C 320.203 2.15234 0.758267 0
M  V30 3394 C 321.181 1.09046 1.20614 0
M  V30 3395 O 322.365 1.37186 1.29276 0
M  V30 3396 C 319.492 2.71524 2.02466 0
M  V30 3397 C 318.538 3.90345 1.71852 0
M  V30 3398 S 319.371 5.28513 0.862249 0
M  V30 3399 C 320.527 5.88227 2.13868 0
M  V30 3400 H 320.76 2.96183 0.2575 0
M  V30 3401 H 318.293 1.54393 0.0150099 0
M  V30 3402 H 320.251 3.04598 2.75191 0
M  V30 3403 H 318.912 1.90607 2.49655 0
M  V30 3404 H 318.105 4.28158 2.65888 0
M  V30 3405 H 317.707 3.58306 1.07205 0
M  V30 3406 H 319.999 6.02891 3.09076 0
M  V30 3407 H 320.942 6.84714 1.80479 0
M  V30 3408 H 321.35 5.16874 2.2694 0
M  V30 3409 N 320.748 -0.0735177 1.57428 0
M  V30 3410 C 321.678 -1.0879 2.06608 0
M  V30 3411 C 322.659 -1.40473 0.959237 0
M  V30 3412 O 323.844 -1.5013 1.23185 0
M  V30 3413 C 320.974 -2.40183 2.50857 0
M  V30 3414 C 319.928 -2.22858 3.65402 0
M  V30 3415 C 319.254 -3.59619 3.957 0
M  V30 3416 C 320.554 -1.65123 4.95511 0
M  V30 3417 H 322.248 -0.678673 2.91607 0
M  V30 3418 H 319.794 -0.325013 1.40284 0
M  V30 3419 H 321.747 -3.11437 2.83874 0
M  V30 3420 H 320.471 -2.83083 1.62885 0
M  V30 3421 H 319.13 -1.54045 3.32664 0
M  V30 3422 H 318.778 -4.00086 3.04861 0
M  V30 3423 H 318.478 -3.48866 4.72828 0
M  V30 3424 H 320.002 -4.32306 4.31212 0
M  V30 3425 H 321.416 -2.26241 5.26771 0
M  V30 3426 H 319.813 -1.65071 5.7695 0
M  V30 3427 H 320.883 -0.612559 4.81015 0
M  V30 3428 N 322.226 -1.5378 -0.344866 0
M  V30 3429 C 323.136 -1.84667 -1.4469 0
M  V30 3430 C 324.152 -0.736704 -1.57635 0
M  V30 3431 O 325.328 -1.02888 -1.73136 0
M  V30 3432 C 322.393 -2.04869 -2.79696 0
M  V30 3433 C 321.454 -3.28731 -2.76106 0
M  V30 3434 C 320.687 -3.4796 -4.04673 0
M  V30 3435 O 320.91 -2.71052 -5.01883 0
M  V30 3436 O 319.844 -4.41383 -4.09224 0
M  V30 3437 H 323.67 -2.78334 -1.21506 0
M  V30 3438 H 321.255 -1.39418 -0.536921 0
M  V30 3439 H 323.137 -2.19609 -3.59652 0
M  V30 3440 H 321.812 -1.14391 -3.02814 0
M  V30 3441 H 320.719 -3.19396 -1.94774 0
M  V30 3442 H 322.052 -4.19198 -2.57941 0
M  V30 3443 N 323.704 0.605807 -1.45491 0
M  V30 3444 C 324.934 1.38934 -1.52908 0
M  V30 3445 C 325.342 1.88513 -0.161086 0
M  V30 3446 O 324.685 1.62962 0.847891 0
M  V30 3447 C 324.747 2.62737 -2.45376 0
M  V30 3448 C 324.411 2.34785 -3.92078 0
M  V30 3449 C 325.408 1.95038 -4.8193 0
M  V30 3450 C 323.093 2.47642 -4.37011 0
M  V30 3451 C 325.087 1.68511 -6.14722 0
M  V30 3452 C 322.774 2.20728 -5.69844 0
M  V30 3453 C 323.772 1.81225 -6.58519 0
M  V30 3454 O 323.46 1.54627 -7.88889 0
M  V30 3455 H 323.192 0.431629 -0.520262 0
M  V30 3456 H 325.746 0.74573 -1.91384 0
M  V30 3457 H 323.976 3.29824 -2.01874 0
M  V30 3458 H 325.665 3.24783 -2.43456 0
M  V30 3459 H 326.431 1.84639 -4.48479 0
M  V30 3460 H 322.31 2.77356 -3.68232 0
M  V30 3461 H 325.854 1.37602 -6.83894 0
M  V30 3462 H 321.751 2.30744 -6.02849 0
M  V30 3463 H 322.519 1.68665 -8.00933 0
M  V30 3464 N 325.182 1.32811 0.848464 0
M  V30 3465 C 326.41 1.26739 1.63538 0
M  V30 3466 C 326.825 -0.163484 1.88091 0
M  V30 3467 O 326.182 -1.10258 1.45429 0
M  V30 3468 C 326.233 2.03013 2.99112 0
M  V30 3469 O 325.954 3.40518 2.75643 0
M  V30 3470 C 327.455 2.04038 3.93552 0
M  V30 3471 H 324.675 0.437024 0.509167 0
M  V30 3472 H 327.219 1.75033 1.05753 0
M  V30 3473 H 325.374 1.58426 3.53525 0
M  V30 3474 H 325.788 3.79635 3.61908 0
M  V30 3475 H 327.262 2.61877 4.85926 0
M  V30 3476 H 327.739 1.0282 4.26995 0
M  V30 3477 H 328.345 2.486 3.45077 0
M  V30 3478 N 326.66 -1.06551 1.16123 0
M  V30 3479 C 327.61 -2.12209 0.833736 0
M  V30 3480 C 328.594 -1.59825 -0.185656 0
M  V30 3481 O 329.786 -1.76994 0.0147906 0
M  V30 3482 C 326.915 -3.41674 0.333697 0
M  V30 3483 C 326.001 -4.00892 1.38372 0
M  V30 3484 N 326.392 -4.34256 2.59337 0
M  V30 3485 C 324.69 -4.28463 1.23836 0
M  V30 3486 C 325.391 -4.81291 3.26701 0
M  V30 3487 N 324.367 -4.80565 2.54083 0
M  V30 3488 H 328.169 -2.35849 1.75364 0
M  V30 3489 H 325.683 -1.24068 1.04789 0
M  V30 3490 H 327.68 -4.16822 0.0806918 0
M  V30 3491 H 326.34 -3.19475 -0.58017 0
M  V30 3492 H 327.351 -4.24687 2.96415 0
M  V30 3493 H 324.028 -4.15721 0.38504 0
M  V30 3494 H 325.418 -5.16332 4.29943 0
M  V30 3495 N 328.138 -0.959301 -1.25041 0
M  V30 3496 C 329.071 -0.427418 -2.24161 0
M  V30 3497 C 330.049 0.493837 -1.54919 0
M  V30 3498 O 331.233 0.427144 -1.83597 0
M  V30 3499 C 328.36 0.383893 -3.36517 0
M  V30 3500 C 327.406 -0.478431 -4.23808 0
M  V30 3501 S 328.239 -1.91353 -5.00144 0
M  V30 3502 C 329.395 -1.11077 -6.15965 0
M  V30 3503 H 329.628 -1.26743 -2.6893 0
M  V30 3504 H 327.161 -0.763714 -1.34189 0
M  V30 3505 H 329.119 0.846039 -4.01687 0
M  V30 3506 H 327.78 1.19878 -2.90324 0
M  V30 3507 H 326.973 0.14406 -5.03794 0
M  V30 3508 H 326.575 -0.87597 -3.63597 0
M  V30 3509 H 328.867 -0.361699 -6.76534 0
M  V30 3510 H 329.81 -1.88472 -6.82557 0
M  V30 3511 H 330.218 -0.638843 -5.60873 0
M  V30 3512 N 329.616 1.39756 -0.72842 0
M  V30 3513 C 330.526 2.34444 -0.0855374 0
M  V30 3514 C 331.542 1.57976 0.729356 0
M  V30 3515 O 332.718 1.90301 0.659346 0
M  V30 3516 C 329.783 3.36965 0.815798 0
M  V30 3517 C 328.844 4.29299 -0.0105996 0
M  V30 3518 C 328.077 5.26923 0.84781 0
M  V30 3519 O 328.3 5.30859 2.08673 0
M  V30 3520 O 327.234 6.01249 0.279969 0
M  V30 3521 H 331.06 2.91065 -0.866892 0
M  V30 3522 H 328.645 1.4117 -0.48902 0
M  V30 3523 H 330.527 3.99804 1.33171 0
M  V30 3524 H 329.202 2.82739 1.57608 0
M  V30 3525 H 328.109 3.69703 -0.571877 0
M  V30 3526 H 329.442 4.86712 -0.73295 0
M  V30 3527 N 331.094 0.475555 1.50254 0
M  V30 3528 C 332.371 -0.139685 1.95101 0
M  V30 3529 C 332.751 -1.56555 1.41611 0
M  V30 3530 O 332.099 -2.19956 0.618993 0
M  V30 3531 C 332.309 -0.0784298 3.48912 0
M  V30 3532 C 333.657 -0.265095 4.23772 0
M  V30 3533 O 334.681 -0.154808 3.55863 0
M  V30 3534 O 333.54 -0.488327 5.44314 0
M  V30 3535 H 330.634 -0.109236 0.819754 0
M  V30 3536 H 333.18 0.536276 1.61004 0
M  V30 3537 H 331.952 0.916918 3.80405 0
M  V30 3538 H 331.575 -0.795655 3.89558 0
M  V30 3539 N 332.573 -1.56217 0.208337 0
M  V30 3540 C 333.503 -2.22694 -0.702116 0
M  V30 3541 C 334.484 -1.19432 -1.2112 0
M  V30 3542 O 335.669 -1.47978 -1.25762 0
M  V30 3543 C 332.799 -2.8966 -1.9161 0
M  V30 3544 C 331.753 -3.9928 -1.5414 0
M  V30 3545 C 331.079 -4.53476 -2.83308 0
M  V30 3546 C 332.379 -5.17012 -0.741339 0
M  V30 3547 H 334.073 -2.99034 -0.147898 0
M  V30 3548 H 331.619 -1.43831 -0.0696951 0
M  V30 3549 H 333.572 -3.34852 -2.55836 0
M  V30 3550 H 332.296 -2.10746 -2.49507 0
M  V30 3551 H 330.955 -3.54799 -0.922668 0
M  V30 3552 H 330.603 -3.71308 -3.39322 0
M  V30 3553 H 330.303 -5.27451 -2.58976 0
M  V30 3554 H 331.827 -5.01378 -3.485 0
M  V30 3555 H 333.241 -5.58667 -1.28699 0
M  V30 3556 H 331.638 -5.97137 -0.595627 0
M  V30 3557 H 332.708 -4.8423 0.254851 0
M  V30 3558 N 334.051 0.0651679 -1.57465 0
M  V30 3559 C 335.299 0.761555 -1.87202 0
M  V30 3560 C 335.62 1.77778 -0.801243 0
M  V30 3561 O 334.89 1.95166 0.16937 0
M  V30 3562 H 333.47 0.284251 -0.690804 0
M  V30 3563 H 336.132 0.0396827 -1.9486 0
M  V30 3564 H 335.228 1.27365 -2.84929 0
M  V30 3565 N 335.529 1.53961 0.336706 0
M  V30 3566 C 336.759 1.75229 1.09446 0
M  V30 3567 C 337.167 0.494602 1.82621 0
M  V30 3568 O 336.51 -0.543764 1.75468 0
M  V30 3569 C 336.572 2.88288 2.1478 0
M  V30 3570 C 336.236 4.27656 1.6112 0
M  V30 3571 C 337.233 5.08981 1.0599 0
M  V30 3572 C 334.918 4.74161 1.6576 0
M  V30 3573 C 336.912 6.34916 0.562129 0
M  V30 3574 C 334.599 6.00067 1.15595 0
M  V30 3575 C 335.597 6.80278 0.609147 0
M  V30 3576 O 335.285 8.03818 0.114999 0
M  V30 3577 H 335.017 0.588881 0.331956 0
M  V30 3578 H 337.571 2.01614 0.392566 0
M  V30 3579 H 335.801 2.57443 2.88548 0
M  V30 3580 H 337.49 2.97461 2.76174 0
M  V30 3581 H 338.256 4.74213 1.01722 0
M  V30 3582 H 334.135 4.11781 2.07261 0
M  V30 3583 H 337.679 6.9747 0.134668 0
M  V30 3584 H 333.576 6.3433 1.19566 0
M  V30 3585 H 334.344 8.18172 0.231651 0
M  V30 3586 N 337.007 -0.598083 1.45811 0
M  V30 3587 C 338.235 -1.38322 1.53866 0
M  V30 3588 C 338.65 -1.87992 0.174479 0
M  V30 3589 O 338.007 -1.62756 -0.825627 0
M  V30 3590 C 338.058 -2.58125 2.53089 0
M  V30 3591 O 337.779 -2.10516 3.84206 0
M  V30 3592 C 339.28 -3.50869 2.70935 0
M  V30 3593 H 336.5 -0.423093 0.520801 0
M  V30 3594 H 339.044 -0.728527 1.91083 0
M  V30 3595 H 337.199 -3.19615 2.18917 0
M  V30 3596 H 337.613 -2.88425 4.38077 0
M  V30 3597 H 339.087 -4.31451 3.44317 0
M  V30 3598 H 339.564 -4.01822 1.77301 0
M  V30 3599 H 340.17 -2.95225 3.06141 0
M  V30 3600 N 338.485 -1.33259 -0.841409 0
M  V30 3601 C 339.435 -1.19872 -1.93945 0
M  V30 3602 C 340.419 -0.102269 -1.60575 0
M  V30 3603 O 341.611 -0.330114 -1.73894 0
M  V30 3604 C 338.74 -0.937517 -3.30251 0
M  V30 3605 C 337.826 -2.07629 -3.69799 0
M  V30 3606 N 338.217 -3.32604 -3.81062 0
M  V30 3607 C 336.515 -1.98242 -3.9952 0
M  V30 3608 C 337.216 -4.07275 -4.15333 0
M  V30 3609 N 336.192 -3.35691 -4.27566 0
M  V30 3610 H 339.994 -2.14604 -2.00805 0
M  V30 3611 H 337.508 -1.2523 -1.03398 0
M  V30 3612 H 339.505 -0.822545 -4.08705 0
M  V30 3613 H 338.165 0.00128798 -3.247 0
M  V30 3614 H 339.176 -3.67382 -3.65035 0
M  V30 3615 H 335.853 -1.12005 -4.02195 0
M  V30 3616 H 337.243 -5.1511 -4.31406 0
M  V30 3617 N 339.963 1.05934 -1.16686 0
M  V30 3618 C 340.895 2.13468 -0.834503 0
M  V30 3619 C 341.908 1.62013 0.15984 0
M  V30 3620 O 343.097 1.7838 -0.0654228 0
M  V30 3621 C 340.197 3.3817 -0.222361 0
M  V30 3622 C 339.37 4.18928 -1.25771 0
M  V30 3623 C 338.429 5.21985 -0.664703 0
M  V30 3624 O 337.455 5.53334 -1.33453 0
M  V30 3625 N 338.657 5.77919 0.546834 0
M  V30 3626 H 341.422 2.42578 -1.75999 0
M  V30 3627 H 338.983 1.21967 -1.06469 0
M  V30 3628 H 340.975 4.04266 0.187472 0
M  V30 3629 H 339.545 3.06655 0.606758 0
M  V30 3630 H 338.765 3.48433 -1.84358 0
M  V30 3631 H 340.053 4.69687 -1.95631 0
M  V30 3632 H 339.451 5.54721 1.10912 0
M  V30 3633 H 338.008 6.45573 0.898829 0
M  V30 3634 N 341.441 0.965919 1.2453 0
M  V30 3635 C 342.373 0.452465 2.2469 0
M  V30 3636 C 343.386 -0.437821 1.56802 0
M  V30 3637 O 344.575 -0.244283 1.76821 0
M  V30 3638 C 341.675 -0.366258 3.36915 0
M  V30 3639 C 340.848 0.513701 4.34373 0
M  V30 3640 C 339.907 -0.248716 5.25612 0
M  V30 3641 O 338.933 0.356745 5.68081 0
M  V30 3642 N 340.135 -1.53877 5.59734 0
M  V30 3643 H 342.9 1.31361 2.69378 0
M  V30 3644 H 340.461 0.837541 1.38553 0
M  V30 3645 H 342.453 -0.884297 3.94921 0
M  V30 3646 H 341.023 -1.12832 2.91526 0
M  V30 3647 H 340.243 1.21273 3.75082 0
M  V30 3648 H 341.531 1.11391 4.96457 0
M  V30 3649 H 340.929 -2.05243 5.27154 0
M  V30 3650 H 339.486 -2.00254 6.20275 0
M  V30 3651 N 342.919 -1.39368 0.735821 0
M  V30 3652 C 344.166 -2.00497 0.284123 0
M  V30 3653 C 344.494 -1.58387 -1.12889 0
M  V30 3654 O 343.749 -0.804359 -1.78406 0
M  V30 3655 C 344.048 -3.5583 0.334651 0
M  V30 3656 C 343.714 -4.17593 1.7008 0
M  V30 3657 C 342.376 -4.34176 2.07472 0
M  V30 3658 C 344.728 -4.51848 2.59775 0
M  V30 3659 C 342.056 -4.82304 3.34065 0
M  V30 3660 C 344.408 -5.01384 3.85741 0
M  V30 3661 C 343.072 -5.16175 4.23225 0
M  V30 3662 H 342.342 -0.73367 0.103968 0
M  V30 3663 H 344.989 -1.66683 0.942825 0
M  V30 3664 H 343.294 -3.89674 -0.407625 0
M  V30 3665 H 344.991 -4.00986 -0.0329927 0
M  V30 3666 H 341.581 -4.05087 1.40008 0
M  V30 3667 H 345.765 -4.38653 2.32157 0
M  V30 3668 H 341.021 -4.91941 3.63049 0
M  V30 3669 H 345.195 -5.26863 4.55399 0
M  V30 3670 H 342.822 -5.5323 5.21384 0
M  V30 3671 N 344.397 -0.483516 -1.5 0
M  V30 3672 C 345.643 0.0672592 -2.02688 0
M  V30 3673 C 345.976 1.38247 -1.36387 0
M  V30 3674 O 345.251 1.88131 -0.493675 0
M  V30 3675 C 345.534 0.238109 -3.59312 0
M  V30 3676 C 345.387 -1.099 -4.36168 0
M  V30 3677 C 346.706 0.986916 -4.28892 0
M  V30 3678 H 343.825 0.0229696 -0.736642 0
M  V30 3679 H 346.467 -0.631527 -1.79197 0
M  V30 3680 H 344.617 0.8333 -3.79458 0
M  V30 3681 H 346.289 -1.73172 -4.27562 0
M  V30 3682 H 344.532 -1.69261 -3.99416 0
M  V30 3683 H 345.203 -0.932954 -5.44059 0
M  V30 3684 H 347.679 0.482302 -4.13295 0
M  V30 3685 H 346.555 1.07527 -5.38265 0
M  V30 3686 H 346.816 2.0265 -3.92919 0
M  V30 3687 N 345.875 1.56104 -0.216619 0
M  V30 3688 C 346.822 2.2007 0.695531 0
M  V30 3689 C 347.792 1.15471 1.19397 0
M  V30 3690 O 348.977 1.43807 1.25396 0
M  V30 3691 C 346.117 2.88073 1.90021 0
M  V30 3692 C 345.23 4.07253 1.44113 0
M  V30 3693 C 344.365 4.63052 2.603 0
M  V30 3694 C 343.404 5.74545 2.11103 0
M  V30 3695 N 342.541 6.24656 3.20545 0
M  V30 3696 H 347.381 2.97655 0.143327 0
M  V30 3697 H 344.918 1.46982 0.0589934 0
M  V30 3698 H 346.876 3.25681 2.60745 0
M  V30 3699 H 345.506 2.13015 2.42538 0
M  V30 3700 H 344.558 3.75164 0.628999 0
M  V30 3701 H 345.87 4.8783 1.04036 0
M  V30 3702 H 345.024 5.03078 3.39113 0
M  V30 3703 H 343.763 3.81628 3.03663 0
M  V30 3704 H 342.768 5.34027 1.3075 0
M  V30 3705 H 343.993 6.57801 1.68746 0
M  V30 3706 H 341.939 5.46148 3.63399 0
M  V30 3707 H 341.856 7.00343 2.84704 0
M  V30 3708 H 343.124 6.69338 3.99508 0
M  V30 3709 N 347.353 -0.0568162 1.57498 0
M  V30 3710 C 348.301 -1.08452 2.05769 0
M  V30 3711 C 349.295 -1.39164 0.965903 0
M  V30 3712 O 350.501 -1.38395 1.15095 0
M  V30 3713 H 346.876 -0.367148 0.656282 0
M  V30 3714 H 348.847 -0.651368 2.91204 0
M  V30 3715 C 347.596 -2.38543 2.52968 0
M  V30 3716 H 346.919 -2.15765 3.36579 0
M  V30 3717 H 348.359 -3.08863 2.90481 0
M  V30 3718 C 346.818 -3.05562 1.41893 0
M  V30 3719 O 347.348 -3.94262 0.769442 0
M  V30 3720 N 345.554 -2.6643 1.16032 0
M  V30 3721 H 345.101 -1.94387 1.6903 0
M  V30 3722 H 345.059 -3.11593 0.419219 0
M  V30 3723 N 348.832 -1.54138 -0.328536 0
M  V30 3724 C 349.742 -1.86192 -1.42723 0
M  V30 3725 C 350.758 -0.753382 -1.56844 0
M  V30 3726 O 351.934 -1.04718 -1.72035 0
M  V30 3727 C 348.999 -2.07824 -2.77507 0
M  V30 3728 C 348.06 -3.31641 -2.72603 0
M  V30 3729 C 347.293 -3.52232 -4.00959 0
M  V30 3730 O 347.516 -2.7636 -4.9898 0
M  V30 3731 O 346.45 -4.45699 -4.0452 0
M  V30 3732 H 350.276 -2.79608 -1.18547 0
M  V30 3733 H 347.861 -1.3998 -0.522104 0
M  V30 3734 H 349.743 -2.23411 -3.57303 0
M  V30 3735 H 348.418 -1.17596 -3.01584 0
M  V30 3736 H 347.325 -3.21444 -1.91376 0
M  V30 3737 H 348.658 -4.2191 -2.53481 0
M  V30 3738 N 350.31 0.590341 -1.46126 0
M  V30 3739 C 351.559 1.34499 -1.50309 0
M  V30 3740 C 351.872 1.94977 -0.156021 0
M  V30 3741 O 353.078 2.71395 -0.0756037 0
M  V30 3742 C 351.534 2.43723 -2.64815 0
M  V30 3743 C 351.142 1.89582 -4.0591 0
M  V30 3744 C 352.886 3.20579 -2.78262 0
M  V30 3745 C 350.793 2.9639 -5.11769 0
M  V30 3746 H 349.723 0.505593 -0.559368 0
M  V30 3747 H 352.374 0.630848 -1.72315 0
M  V30 3748 H 350.756 3.17902 -2.36124 0
M  V30 3749 H 351.93 1.21997 -4.44357 0
M  V30 3750 H 350.245 1.25418 -3.97063 0
M  V30 3751 H 352.842 4.00276 -3.54519 0
M  V30 3752 H 353.185 3.72684 -1.85505 0
M  V30 3753 H 353.718 2.53505 -3.06562 0
M  V30 3754 H 350.457 2.49181 -6.06291 0
M  V30 3755 H 349.977 3.62487 -4.77873 0
M  V30 3756 H 351.656 3.60474 -5.37278 0
M  V30 3757 N 351.788 1.33704 0.83433 0
M  V30 3758 C 353.065 1.16011 1.57483 0
M  V30 3759 C 353.445 -0.27176 2.09343 0
M  V30 3760 O 352.793 -1.27146 1.89858 0
M  V30 3761 C 353.003 2.20507 2.70514 0
M  V30 3762 C 354.351 2.54898 3.39577 0
M  V30 3763 O 355.375 2.19209 2.80759 0
M  V30 3764 O 354.234 3.16158 4.45765 0
M  V30 3765 H 351.328 0.448992 0.694503 0
M  V30 3766 H 353.874 1.453 0.876691 0
M  V30 3767 H 352.646 3.16667 2.29865 0
M  V30 3768 H 352.269 1.92329 3.47987 0
M  V30 3769 N 353.266 -1.05314 1.17247 0
M  V30 3770 C 354.515 -1.77685 0.954521 0
M  V30 3771 C 354.828 -1.88616 -0.518025 0
M  V30 3772 O 356.034 -2.57714 -0.854144 0
M  V30 3773 C 354.49 -3.19402 1.65863 0
M  V30 3774 C 354.098 -3.16605 3.16963 0
M  V30 3775 C 355.842 -3.96237 1.52303 0
M  V30 3776 C 353.749 -4.53103 3.80068 0
M  V30 3777 H 352.679 -0.666 0.353496 0
M  V30 3778 H 355.33 -1.1805 1.40486 0
M  V30 3779 H 353.712 -3.79355 1.13602 0
M  V30 3780 H 354.886 -2.66176 3.76148 0
M  V30 3781 H 353.201 -2.53268 3.30521 0
M  V30 3782 H 355.798 -4.97157 1.96822 0
M  V30 3783 H 356.141 -4.136 0.473401 0
M  V30 3784 H 356.674 -3.42829 2.01775 0
M  V30 3785 H 353.413 -4.40946 4.85023 0
M  V30 3786 H 352.933 -5.03686 3.2567 0
M  V30 3787 H 354.612 -5.22045 3.82202 0
M  V30 3788 N 354.744 -0.972509 -1.24016 0
M  V30 3789 C 355.707 -0.511403 -2.23422 0
M  V30 3790 C 356.707 0.394679 -1.55881 0
M  V30 3791 O 357.897 0.189469 -1.73167 0
M  V30 3792 C 355.029 0.258769 -3.39916 0
M  V30 3793 H 356.222 -1.39024 -2.6573 0
M  V30 3794 H 353.775 -0.757585 -1.36713 0
M  V30 3795 H 354.51 1.1545 -3.03054 0
M  V30 3796 H 354.295 -0.391522 -3.9014 0
M  V30 3797 H 355.785 0.570244 -4.13688 0
M  V30 3798 N 356.222 1.38976 -0.743202 0
M  V30 3799 C 357.152 2.33171 -0.123873 0
M  V30 3800 C 358.133 1.54336 0.71516 0
M  V30 3801 O 359.318 1.82696 0.658467 0
M  V30 3802 C 356.448 3.38474 0.777978 0
M  V30 3803 C 355.402 4.27979 0.0424758 0
M  V30 3804 C 354.728 5.2405 1.06189 0
M  V30 3805 C 356.028 5.10155 -1.1198 0
M  V30 3806 H 357.722 2.85213 -0.910709 0
M  V30 3807 H 355.268 1.37133 -0.439388 0
M  V30 3808 H 357.221 4.03328 1.22084 0
M  V30 3809 H 355.945 2.84891 1.59702 0
M  V30 3810 H 354.604 3.64616 -0.380853 0
M  V30 3811 H 354.252 4.66758 1.87472 0
M  V30 3812 H 353.952 5.84785 0.574485 0
M  V30 3813 H 355.476 5.9178 1.50428 0
M  V30 3814 H 356.89 5.68307 -0.75499 0
M  V30 3815 H 355.287 5.80073 -1.53738 0
M  V30 3816 H 356.357 4.44504 -1.93764 0
M  V30 3817 N 357.7 0.491464 1.49741 0
M  V30 3818 C 358.632 -0.328609 2.26832 0
M  V30 3819 C 359.645 -0.939113 1.32983 0
M  V30 3820 O 360.834 -0.824067 1.58339 0
M  V30 3821 C 357.934 -1.47675 3.05033 0
M  V30 3822 C 357.107 -0.975305 4.26388 0
M  V30 3823 C 356.166 -1.99991 4.86714 0
M  V30 3824 O 355.192 -1.57229 5.47054 0
M  V30 3825 N 356.394 -3.32962 4.75517 0
M  V30 3826 H 359.159 0.332377 2.97851 0
M  V30 3827 H 356.72 0.323441 1.58636 0
M  V30 3828 H 358.712 -2.15954 3.42266 0
M  V30 3829 H 357.282 -2.04206 2.36683 0
M  V30 3830 H 356.502 -0.117723 3.94024 0
M  V30 3831 H 357.79 -0.618531 5.05026 0
M  V30 3832 H 357.188 -3.70399 4.27576 0
M  V30 3833 H 355.745 -3.96982 5.16961 0
M  V30 3834 N 359.178 -1.55987 0.224894 0
M  V30 3835 C 360.108 -2.23426 -0.678457 0
M  V30 3836 C 361.089 -1.20709 -1.19847 0
M  V30 3837 O 362.274 -1.49304 -1.24186 0
M  V30 3838 C 359.404 -2.91676 -1.88527 0
M  V30 3839 C 358.358 -4.00893 -1.49896 0
M  V30 3840 C 357.684 -4.56455 -2.78483 0
M  V30 3841 C 358.984 -5.17769 -0.686461 0
M  V30 3842 H 360.678 -2.99175 -0.116173 0
M  V30 3843 H 358.224 -1.43897 -0.054436 0
M  V30 3844 H 360.177 -3.37547 -2.5227 0
M  V30 3845 H 358.901 -2.1338 -2.47258 0
M  V30 3846 H 357.56 -3.55758 -0.884985 0
M  V30 3847 H 357.208 -3.74886 -3.35365 0
M  V30 3848 H 356.908 -5.30169 -2.53368 0
M  V30 3849 H 358.432 -5.05047 -3.43162 0
M  V30 3850 H 359.846 -5.60001 -1.22767 0
M  V30 3851 H 358.243 -5.97735 -0.532259 0
M  V30 3852 H 359.313 -4.83932 0.306196 0
M  V30 3853 N 360.656 0.0484629 -1.57525 0
M  V30 3854 C 361.904 0.741657 -1.88 0
M  V30 3855 C 362.225 1.76918 -0.820054 0
M  V30 3856 O 361.495 1.95335 0.148661 0
M  V30 3857 H 360.075 0.276908 -0.69378 0
M  V30 3858 H 362.737 0.019013 -1.94891 0
M  V30 3859 H 361.833 1.24336 -2.86264 0
M  V30 3860 N 362.134 1.5431 0.320358 0
M  V30 3861 C 363.383 1.7188 1.05546 0
M  V30 3862 C 363.696 0.501143 1.89071 0
M  V30 3863 O 364.902 0.558258 2.65699 0
M  V30 3864 C 363.358 3.04025 1.92605 0
M  V30 3865 C 362.966 4.33207 1.14176 0
M  V30 3866 C 364.71 3.30959 2.65832 0
M  V30 3867 C 362.617 5.56412 2.00399 0
M  V30 3868 H 361.547 0.640547 0.397763 0
M  V30 3869 H 364.198 1.80802 0.313522 0
M  V30 3870 H 362.58 2.89019 2.7071 0
M  V30 3871 H 363.754 4.58989 0.40819 0
M  V30 3872 H 362.069 4.13062 0.526165 0
M  V30 3873 H 364.666 4.20203 3.30656 0
M  V30 3874 H 365.009 2.48979 3.33639 0
M  V30 3875 H 365.542 3.46847 1.94787 0
M  V30 3876 H 362.281 6.41004 1.37094 0
M  V30 3877 H 361.801 5.34844 2.7148 0
M  V30 3878 H 363.48 5.92938 2.58908 0
M  V30 3879 N 363.613 -0.582584 1.46437 0
M  V30 3880 C 364.563 -1.68654 1.53426 0
M  V30 3881 C 365.547 -1.55971 0.395194 0
M  V30 3882 O 366.739 -1.64884 0.643612 0
M  V30 3883 C 363.868 -3.07439 1.52762 0
M  V30 3884 C 362.954 -3.25418 2.71963 0
M  V30 3885 N 363.345 -3.13556 3.96883 0
M  V30 3886 C 361.643 -3.56357 2.68189 0
M  V30 3887 C 362.344 -3.33543 4.76575 0
M  V30 3888 N 361.32 -3.58704 4.08451 0
M  V30 3889 H 365.122 -1.58014 2.47808 0
M  V30 3890 H 362.636 -0.786617 1.42078 0
M  V30 3891 H 364.633 -3.86671 1.55857 0
M  V30 3892 H 363.293 -3.1921 0.594573 0
M  V30 3893 H 364.304 -2.9142 4.28129 0
M  V30 3894 H 360.981 -3.74812 1.83908 0
M  V30 3895 H 362.371 -3.29555 5.85528 0
M  V30 3896 N 365.091 -1.34144 -0.827227 0
M  V30 3897 C 366.054 -1.25264 -1.91942 0
M  V30 3898 C 367.054 -0.168866 -1.59911 0
M  V30 3899 O 368.244 -0.421198 -1.69031 0
M  V30 3900 C 365.376 -0.932952 -3.27885 0
M  V30 3901 H 366.569 -2.22357 -2.0124 0
M  V30 3902 H 364.122 -1.1837 -1.0207 0
M  V30 3903 H 364.857 0.0349917 -3.24281 0
M  V30 3904 H 364.642 -1.71682 -3.52516 0
M  V30 3905 H 366.132 -0.895874 -4.07877 0
M  V30 3906 N 366.569 1.04691 -1.17803 0
M  V30 3907 C 367.517 2.14665 -0.895635 0
M  V30 3908 C 368.511 1.68806 0.141679 0
M  V30 3909 O 369.717 1.79999 -0.00587914 0
M  V30 3910 H 366.092 0.701038 -0.272121 0
M  V30 3911 H 368.063 2.35685 -1.83017 0
M  V30 3912 C 366.812 3.45019 -0.430962 0
M  V30 3913 H 366.135 3.8071 -1.22064 0
M  V30 3914 H 367.575 4.23125 -0.272301 0
M  V30 3915 C 366.034 3.25943 0.852207 0
M  V30 3916 O 366.564 3.5296 1.91786 0
M  V30 3917 N 364.77 2.79304 0.802346 0
M  V30 3918 H 364.317 2.57518 -0.0650788 0
M  V30 3919 H 364.275 2.66921 1.66134 0
M  V30 3920 N 368.047 0.979072 1.23499 0
M  V30 3921 C 369.324 0.563674 1.87302 0
M  V30 3922 C 369.704 -0.959199 1.88049 0
M  V30 3923 O 369.052 -1.83535 1.36114 0
M  V30 3924 C 369.262 1.16822 3.28867 0
M  V30 3925 C 370.61 1.26014 4.0547 0
M  V30 3926 O 371.634 1.12158 3.38082 0
M  V30 3927 O 370.493 1.48044 5.26066 0
M  V30 3928 H 367.587 0.189602 0.804972 0
M  V30 3929 H 370.133 1.07407 1.31384 0
M  V30 3930 H 368.905 2.21049 3.22883 0
M  V30 3931 H 368.528 0.642564 3.92373 0
M  V30 3932 N 369.525 -1.3858 0.750561 0
M  V30 3933 C 370.472 -2.30483 0.120835 0
M  V30 3934 C 371.442 -1.50022 -0.712923 0
M  V30 3935 O 372.627 -1.78662 -0.669676 0
M  V30 3936 C 369.767 -3.36431 -0.768666 0
M  V30 3937 C 368.88 -4.31927 0.0793922 0
M  V30 3938 C 368.015 -5.24944 -0.81283 0
M  V30 3939 C 367.054 -6.12088 0.0390447 0
M  V30 3940 N 366.191 -6.97412 -0.809969 0
M  V30 3941 H 371.031 -2.83761 0.91015 0
M  V30 3942 H 368.568 -1.39707 0.460463 0
M  V30 3943 H 370.526 -3.96462 -1.29898 0
M  V30 3944 H 369.156 -2.8457 -1.5238 0
M  V30 3945 H 368.208 -3.73382 0.727303 0
M  V30 3946 H 369.52 -4.93319 0.737401 0
M  V30 3947 H 368.674 -5.90078 -1.41042 0
M  V30 3948 H 367.413 -4.63911 -1.50458 0
M  V30 3949 H 366.418 -5.45952 0.649328 0
M  V30 3950 H 367.643 -6.75189 0.727809 0
M  V30 3951 H 365.589 -6.38931 -1.48672 0
M  V30 3952 H 365.506 -7.55712 -0.208789 0
M  V30 3953 H 366.774 -7.66959 -1.39263 0
M  V30 3954 N 371.003 -0.499398 -1.49478 0
M  V30 3955 C 371.966 0.268838 -2.27618 0
M  V30 3956 C 372.966 0.895383 -1.33565 0
M  V30 3957 O 374.156 0.760164 -1.56739 0
M  V30 3958 C 371.288 1.38559 -3.11471 0
M  V30 3959 H 372.481 -0.416812 -2.96989 0
M  V30 3960 H 370.034 -0.254313 -1.54217 0
M  V30 3961 H 370.769 2.10544 -2.46661 0
M  V30 3962 H 370.554 0.941797 -3.80621 0
M  V30 3963 H 372.044 1.92678 -3.70493 0
M  V30 3964 N 372.481 1.55866 -0.233164 0
M  V30 3965 C 373.411 2.23783 0.666599 0
M  V30 3966 C 374.392 1.21343 1.19205 0
M  V30 3967 O 375.577 1.4996 1.23392 0
M  V30 3968 C 372.707 2.92671 1.86978 0
M  V30 3969 C 371.661 4.01682 1.47768 0
M  V30 3970 C 370.987 4.57926 2.76058 0
M  V30 3971 C 372.287 5.18126 0.658993 0
M  V30 3972 H 373.981 2.99232 0.100306 0
M  V30 3973 H 371.527 1.43924 0.046804 0
M  V30 3974 H 373.48 3.3888 2.50476 0
M  V30 3975 H 372.204 2.14688 2.46123 0
M  V30 3976 H 370.863 3.56222 0.866106 0
M  V30 3977 H 370.511 3.76659 3.33372 0
M  V30 3978 H 370.211 5.31505 2.50552 0
M  V30 3979 H 371.735 5.06859 3.40479 0
M  V30 3980 H 373.149 5.60644 1.19795 0
M  V30 3981 H 371.546 5.98009 0.500552 0
M  V30 3982 H 372.616 4.83763 -0.331856 0
M  V30 3983 N 373.959 -0.0401083 1.57549 0
M  V30 3984 C 375.187 -0.745196 1.93014 0
M  V30 3985 C 375.602 -1.6948 0.831984 0
M  V30 3986 O 374.959 -1.81482 -0.192463 0
M  V30 3987 C 375.01 -1.51176 3.28372 0
M  V30 3988 O 374.731 -0.600284 4.33968 0
M  V30 3989 C 376.232 -2.315 3.78051 0
M  V30 3990 H 373.452 -0.210088 0.637263 0
M  V30 3991 H 375.996 -0.000924689 2.045 0
M  V30 3992 H 374.151 -2.20801 3.18317 0
M  V30 3993 H 374.565 -1.13669 5.12035 0
M  V30 3994 H 376.039 -2.80697 4.75303 0
M  V30 3995 H 376.516 -3.12436 3.08675 0
M  V30 3996 H 377.122 -1.66971 3.91153 0
M  V30 3997 N 375.437 -1.54477 -0.31217 0
M  V30 3998 C 376.684 -1.73227 -1.04875 0
M  V30 3999 C 377.012 -0.512042 -1.87639 0
M  V30 4000 O 376.267 0.506131 -1.89042 0
M  V30 4001 C 376.566 -2.967 -1.99258 0
M  V30 4002 C 376.232 -4.30974 -1.32559 0
M  V30 4003 C 374.894 -4.67477 -1.141 0
M  V30 4004 C 377.246 -5.14258 -0.847835 0
M  V30 4005 C 374.574 -5.84852 -0.465326 0
M  V30 4006 C 376.926 -6.32327 -0.185931 0
M  V30 4007 C 375.59 -6.67499 0.0107077 0
M  V30 4008 H 374.86 -0.633881 -0.383765 0
M  V30 4009 H 377.507 -1.88727 -0.324731 0
M  V30 4010 H 375.812 -2.75935 -2.7815 0
M  V30 4011 H 377.509 -3.08401 -2.563 0
M  V30 4012 H 374.099 -4.02262 -1.4793 0
M  V30 4013 H 378.283 -4.86565 -0.978192 0
M  V30 4014 H 373.539 -6.10654 -0.301883 0
M  V30 4015 H 377.713 -6.96135 0.192211 0
M  V30 4016 H 375.34 -7.58306 0.536287 0
M  V30 4017 N 376.915 0.57481 -1.46744 0
M  V30 4018 C 378.145 1.35659 -1.55821 0
M  V30 4019 C 378.553 1.88129 -0.201036 0
M  V30 4020 O 377.896 1.64723 0.813134 0
M  V30 4021 C 377.958 2.57473 -2.50894 0
M  V30 4022 C 377.622 2.26415 -3.9697 0
M  V30 4023 C 378.619 1.84771 -4.85958 0
M  V30 4024 C 376.304 2.38316 -4.42166 0
M  V30 4025 C 378.298 1.55434 -6.18158 0
M  V30 4026 C 375.985 2.08591 -5.74398 0
M  V30 4027 C 376.983 1.67216 -6.62214 0
M  V30 4028 O 376.671 1.37859 -7.91991 0
M  V30 4029 H 376.403 0.420496 -0.529301 0
M  V30 4030 H 378.957 0.704967 -1.92923 0
M  V30 4031 H 377.187 3.25468 -2.08824 0
M  V30 4032 H 378.876 3.19546 -2.50291 0
M  V30 4033 H 379.642 1.75085 -4.52295 0
M  V30 4034 H 375.521 2.69483 -3.74032 0
M  V30 4035 H 379.065 1.23065 -6.86659 0
M  V30 4036 H 374.962 2.17905 -6.07608 0
M  V30 4037 H 375.73 1.51638 -8.04331 0
M  V30 4038 N 378.394 1.34581 0.820102 0
M  V30 4039 C 379.642 1.26845 1.57336 0
M  V30 4040 C 379.963 -0.160667 1.94337 0
M  V30 4041 O 379.233 -1.09396 1.6251 0
M  V30 4042 H 377.813 0.466514 0.583415 0
M  V30 4043 H 380.475 1.68526 0.979027 0
M  V30 4044 H 379.571 1.87513 2.4949 0
M  V30 4045 N 379.872 -1.04064 1.18357 0
M  V30 4046 C 380.835 -2.10243 0.912707 0
M  V30 4047 C 381.835 -1.60477 -0.101928 0
M  V30 4048 O 383.025 -1.73703 0.131517 0
M  V30 4049 C 380.157 -3.38893 0.369387 0
M  V30 4050 H 381.35 -2.35706 1.85426 0
M  V30 4051 H 378.903 -1.20489 0.995594 0
M  V30 4052 H 379.638 -3.19094 -0.578776 0
M  V30 4053 H 379.423 -3.76331 1.1008 0
M  V30 4054 H 380.913 -4.17128 0.198575 0
M  V30 4055 N 381.35 -0.985608 -1.22978 0
M  V30 4056 C 382.578 -0.675582 -1.95559 0
M  V30 4057 C 382.993 0.758413 -1.72897 0
M  V30 4058 O 382.35 1.51094 -1.02357 0
M  V30 4059 C 382.401 -0.96293 -3.48439 0
M  V30 4060 O 382.122 -2.34057 -3.70336 0
M  V30 4061 C 383.623 -0.669585 -4.38214 0
M  V30 4062 H 380.843 -0.250523 -0.622478 0
M  V30 4063 H 383.387 -1.3184 -1.56328 0
M  V30 4064 H 381.542 -0.366033 -3.85667 0
M  V30 4065 H 381.956 -2.43424 -4.64591 0
M  V30 4066 H 383.43 -0.920967 -5.44263 0
M  V30 4067 H 383.907 0.396383 -4.37408 0
M  V30 4068 H 384.513 -1.2472 -4.06602 0
M  V30 4069 N 382.828 1.3818 -0.7579 0
M  V30 4070 C 384.239 1.82726 -0.383134 0
M  V30 4071 C 384.59 1.63214 1.08884 0
M  V30 4072 O 383.715 1.13566 1.84205 0
M  V30 4073 C 384.31 3.31728 -0.688631 0
M  V30 4074 C 382.869 3.74606 -0.367091 0
M  V30 4075 C 382.016 2.60896 -0.939599 0
M  V30 4076 H 384.967 1.26847 -0.953699 0
M  V30 4077 H 384.988 3.80487 0.0316492 0
M  V30 4078 H 384.5 3.45898 -1.76001 0
M  V30 4079 H 382.601 3.66013 0.697532 0
M  V30 4080 H 382.714 4.71215 -0.865658 0
M  V30 4081 H 381.078 2.52075 -0.3647 0
M  V30 4082 H 381.861 2.77864 -2.0161 0
M  V30 4083 N 384.306 0.507319 1.49211 0
M  V30 4084 C 385.531 -0.033725 2.07373 0
M  V30 4085 C 385.956 -1.29485 1.36437 0
M  V30 4086 O 385.314 -1.76294 0.423087 0
M  V30 4087 C 385.362 -0.263945 3.59633 0
M  V30 4088 O 384.466 -1.33737 3.90113 0
M  V30 4089 H 383.807 0.0290331 0.663365 0
M  V30 4090 H 386.337 0.708749 1.91932 0
M  V30 4091 H 386.347 -0.493536 4.05004 0
M  V30 4092 H 385.022 0.657424 4.10671 0
M  V30 4093 H 383.599 -1.09224 3.56545 0
M  V30 4094 N 385.784 -1.5574 0.241426 0
M  V30 4095 C 387.032 -1.98417 -0.384075 0
M  V30 4096 C 387.353 -1.13078 -1.58866 0
M  V30 4097 O 386.623 -0.212312 -1.94746 0
M  V30 4098 H 385.203 -0.732813 -0.144894 0
M  V30 4099 H 387.865 -1.9193 0.338943 0
M  V30 4100 H 386.961 -3.04219 -0.696939 0
M  V30 4101 N 387.262 0.0317525 -1.57568 0
M  V30 4102 C 388.508 0.718712 -1.90279 0
M  V30 4103 C 388.863 1.73108 -0.839727 0
M  V30 4104 O 388.156 1.90997 0.15188 0
M  V30 4105 C 388.35 1.43167 -3.27472 0
M  V30 4106 C 388.179 0.489869 -4.47024 0
M  V30 4107 C 386.949 0.111909 -5.05176 0
M  V30 4108 C 389.147 -0.230592 -5.13783 0
M  V30 4109 N 387.129 -0.831427 -6.08244 0
M  V30 4110 C 388.5 -1.02968 -6.1139 0
M  V30 4111 C 390.555 -0.297821 -4.97008 0
M  V30 4112 C 389.258 -1.88982 -6.9403 0
M  V30 4113 C 391.284 -1.14507 -5.80209 0
M  V30 4114 C 390.646 -1.9321 -6.77384 0
M  V30 4115 H 386.745 0.237177 -0.745165 0
M  V30 4116 H 389.329 -0.0211267 -1.94689 0
M  V30 4117 H 387.5 2.14199 -3.23996 0
M  V30 4118 H 389.232 2.0708 -3.47707 0
M  V30 4119 H 385.987 0.473513 -4.71227 0
M  V30 4120 H 386.411 -1.29752 -6.6445 0
M  V30 4121 H 391.053 0.296346 -4.2176 0
M  V30 4122 H 388.771 -2.4948 -7.68626 0
M  V30 4123 H 392.357 -1.20059 -5.69278 0
M  V30 4124 H 391.237 -2.57711 -7.40645 0
M  V30 4125 N 388.74 1.54641 0.303973 0
M  V30 4126 C 389.67 1.88386 1.3796 0
M  V30 4127 C 390.651 0.742485 1.5304 0
M  V30 4128 O 391.836 0.997959 1.66597 0
M  V30 4129 C 388.966 2.12854 2.74427 0
M  V30 4130 C 387.92 3.28702 2.74115 0
M  V30 4131 C 387.246 3.38582 4.13844 0
M  V30 4132 C 388.546 4.65881 2.3612 0
M  V30 4133 H 390.24 2.78474 1.09966 0
M  V30 4134 H 387.786 1.33988 0.527556 0
M  V30 4135 H 389.739 2.35047 3.49758 0
M  V30 4136 H 388.463 1.19535 3.03939 0
M  V30 4137 H 387.122 3.06428 2.0124 0
M  V30 4138 H 386.77 2.42784 4.40528 0
M  V30 4139 H 386.47 4.16453 4.14537 0
M  V30 4140 H 387.994 3.63031 4.90959 0
M  V30 4141 H 389.408 4.87823 3.01167 0
M  V30 4142 H 387.805 5.46444 2.48031 0
M  V30 4143 H 388.875 4.66799 1.3125 0
M  V30 4144 N 390.218 -0.567019 1.47046 0
M  V30 4145 C 391.467 -1.32091 1.5243 0
M  V30 4146 C 391.78 -1.94704 0.187021 0
M  V30 4147 O 392.986 -2.7124 0.118771 0
M  V30 4148 C 391.442 -2.39479 2.68659 0
M  V30 4149 C 391.05 -1.831 4.08874 0
M  V30 4150 C 392.794 -3.16111 2.83327 0
M  V30 4151 C 390.701 -2.8821 5.16419 0
M  V30 4152 H 389.631 -0.496629 0.56734 0
M  V30 4153 H 392.282 -0.603354 1.73297 0
M  V30 4154 H 390.664 -3.14105 2.41152 0
M  V30 4155 H 391.838 -1.14913 4.46242 0
M  V30 4156 H 390.153 -1.19085 3.99008 0
M  V30 4157 H 392.75 -3.94585 3.60842 0
M  V30 4158 H 393.093 -3.69686 1.91411 0
M  V30 4159 H 393.626 -2.48595 3.10556 0
M  V30 4160 H 390.365 -2.39504 6.10179 0
M  V30 4161 H 389.885 -3.54839 4.8358 0
M  V30 4162 H 391.564 -3.51881 5.42945 0
M  V30 4163 N 391.696 -1.35014 -0.812953 0
M  V30 4164 C 392.606 -1.2951 -1.95613 0
M  V30 4165 C 393.622 -0.20107 -1.72834 0
M  V30 4166 O 394.798 -0.42932 -1.96771 0
M  V30 4167 C 391.863 -1.06033 -3.30088 0
M  V30 4168 C 390.924 -2.24688 -3.65805 0
M  V30 4169 C 390.157 -2.02322 -4.93864 0
M  V30 4170 O 390.38 -0.986464 -5.61805 0
M  V30 4171 O 389.314 -2.89525 -5.27692 0
M  V30 4172 H 393.14 -2.25705 -2.03202 0
M  V30 4173 H 390.725 -1.15321 -0.949811 0
M  V30 4174 H 392.607 -0.94763 -4.10607 0
M  V30 4175 H 391.282 -0.128852 -3.23443 0
M  V30 4176 H 390.189 -2.41521 -2.85689 0
M  V30 4177 H 391.522 -3.16261 -3.77147 0
M  V30 4178 N 393.175 1.03435 -1.18907 0
M  V30 4179 C 394.586 1.58195 -0.991523 0
M  V30 4180 C 394.937 1.90801 0.457081 0
M  V30 4181 O 394.062 1.70272 1.33553 0
M  V30 4182 C 394.657 2.87432 -1.79355 0
M  V30 4183 C 393.216 3.38785 -1.64017 0
M  V30 4184 C 392.363 2.12292 -1.78402 0
M  V30 4185 H 395.314 0.860299 -1.33359 0
M  V30 4186 H 395.335 3.58096 -1.28638 0
M  V30 4187 H 394.847 2.63669 -2.84781 0
M  V30 4188 H 392.948 3.67547 -0.611536 0
M  V30 4189 H 393.061 4.12186 -2.44212 0
M  V30 4190 H 391.425 2.23901 -1.2141 0
M  V30 4191 H 392.208 1.90977 -2.85277 0
M  V30 4192 N 394.653 0.992116 1.22453 0
M  V30 4193 C 395.901 0.666215 1.90804 0
M  V30 4194 C 396.222 -0.804152 1.77647 0
M  V30 4195 O 395.492 -1.57629 1.16318 0
M  V30 4196 H 394.072 0.243423 0.706225 0
M  V30 4197 H 396.734 1.25845 1.48825 0
M  V30 4198 H 395.83 0.928069 2.97982 0
M  V30 4199 N 396.131 -1.37776 0.765217 0
M  V30 4200 C 397.377 -2.00604 0.336066 0
M  V30 4201 C 397.732 -1.59657 -1.07366 0
M  V30 4202 O 397.025 -0.829565 -1.7271 0
M  V30 4203 C 397.219 -3.5504 0.410053 0
M  V30 4204 C 397.048 -4.10985 1.82542 0
M  V30 4205 C 395.818 -4.42229 2.44461 0
M  V30 4206 C 398.016 -4.32438 2.78392 0
M  V30 4207 N 395.998 -4.8385 3.77839 0
M  V30 4208 C 397.369 -4.76596 3.96556 0
M  V30 4209 C 399.424 -4.14559 2.75764 0
M  V30 4210 C 398.127 -5.04748 5.12466 0
M  V30 4211 C 400.153 -4.43843 3.90842 0
M  V30 4212 C 399.515 -4.88235 5.07746 0
M  V30 4213 H 395.614 -0.763325 0.169881 0
M  V30 4214 H 398.198 -1.67197 0.997656 0
M  V30 4215 H 396.369 -3.87769 -0.221325 0
M  V30 4216 H 398.101 -4.0468 -0.0405285 0
M  V30 4217 H 394.856 -4.31079 1.96131 0
M  V30 4218 H 395.28 -5.08979 4.46396 0
M  V30 4219 H 399.922 -3.79415 1.86558 0
M  V30 4220 H 397.64 -5.38783 6.02277 0
M  V30 4221 H 401.226 -4.31603 3.90141 0
M  V30 4222 H 400.106 -5.10461 5.95315 0
M  V30 4223 N 397.609 -0.515225 -1.4894 0
M  V30 4224 C 399.025 -0.172099 -1.58669 0
M  V30 4225 C 399.225 1.32405 -1.51892 0
M  V30 4226 O 398.281 2.10116 -1.40027 0
M  V30 4227 C 399.594 -0.761533 -2.90897 0
M  V30 4228 C 401.142 -0.728926 -3.04394 0
M  V30 4229 C 401.617 -1.29667 -4.39261 0
M  V30 4230 N 403.108 -1.25799 -4.4579 0
M  V30 4231 C 403.843 -1.66733 -5.48623 0
M  V30 4232 N 403.339 -2.15327 -6.58488 0
M  V30 4233 N 405.132 -1.58061 -5.39419 0
M  V30 4234 H 397.283 -1.48778 -1.51588 0
M  V30 4235 H 399.546 -0.617968 -0.718901 0
M  V30 4236 H 399.252 -1.81136 -3.01468 0
M  V30 4237 H 399.126 -0.230106 -3.76497 0
M  V30 4238 H 401.513 0.312098 -2.93445 0
M  V30 4239 H 401.594 -1.29766 -2.20442 0
M  V30 4240 H 401.238 -2.33655 -4.50963 0
M  V30 4241 H 401.168 -0.703752 -5.21876 0
M  V30 4242 H 403.659 -0.902102 -3.66975 0
M  V30 4243 H 403.972 -2.44594 -7.33071 0
M  V30 4244 H 402.317 -2.19311 -6.59491 0
M  V30 4245 H 405.508 -1.19906 -4.52482 0
M  V30 4246 H 405.681 -1.90284 -6.19432 0
M  V30 4247 N 399.087 1.5561 -0.249682 0
M  V30 4248 C 400.335 1.98618 0.373548 0
M  V30 4249 C 400.656 1.13919 1.58264 0
M  V30 4250 O 399.926 0.222637 1.94631 0
M  V30 4251 H 398.506 0.733571 0.141006 0
M  V30 4252 H 401.168 1.91748 -0.349117 0
M  V30 4253 H 400.264 3.04584 0.680796 0
M  V30 4254 N 400.565 -0.0233959 1.57583 0
M  V30 4255 C 401.528 -1.00693 2.05897 0
M  V30 4256 C 402.528 -1.28693 0.964092 0
M  V30 4257 O 403.718 -1.23602 1.22753 0
M  V30 4258 C 400.85 -2.33825 2.4807 0
M  V30 4259 H 402.043 -0.589476 2.9405 0
M  V30 4260 H 399.596 -0.270354 1.53944 0
M  V30 4261 H 400.331 -2.80307 1.6309 0
M  V30 4262 H 400.116 -2.1483 3.2801 0
M  V30 4263 H 401.606 -3.04426 2.85857 0
M  V30 4264 N 402.043 -1.548 -0.295768 0
M  V30 4265 C 403.271 -1.78327 -1.04914 0
M  V30 4266 C 403.686 -0.545316 -1.80753 0
M  V30 4267 O 403.043 0.485013 -1.75937 0
M  V30 4268 C 403.094 -2.99418 -2.02561 0
M  V30 4269 O 402.815 -4.18431 -1.29798 0
M  V30 4270 C 404.316 -3.35375 -2.89895 0
M  V30 4271 H 401.536 -0.594618 -0.310918 0
M  V30 4272 H 404.08 -2.01763 -0.333454 0
M  V30 4273 H 402.235 -2.78175 -2.69624 0
M  V30 4274 H 402.649 -4.86736 -1.95419 0
M  V30 4275 H 404.123 -4.23332 -3.54251 0
M  V30 4276 H 404.6 -2.53761 -3.58472 0
M  V30 4277 H 405.206 -3.58796 -2.28355 0
M  V30 4278 N 403.521 0.559213 -1.47345 0
M  V30 4279 C 404.484 1.64854 -1.59235 0
M  V30 4280 C 405.484 1.53851 -0.467607 0
M  V30 4281 O 406.674 1.58045 -0.732617 0
M  V30 4282 C 403.806 3.04388 -1.53496 0
M  V30 4283 H 404.999 1.55662 -2.56339 0
M  V30 4284 H 402.552 0.778973 -1.35505 0
M  V30 4285 H 403.287 3.19115 -0.577604 0
M  V30 4286 H 403.072 3.13783 -2.35123 0
M  V30 4287 H 404.562 3.83642 -1.6495 0
M  V30 4288 N 404.999 1.35443 0.805782 0
M  V30 4289 C 406.248 1.28097 1.55801 0
M  V30 4290 C 406.561 -0.142428 1.95081 0
M  V30 4291 O 407.767 -0.33817 2.69386 0
M  V30 4292 C 406.223 2.24653 2.81174 0
M  V30 4293 C 405.831 3.72342 2.49129 0
M  V30 4294 C 407.575 2.2625 3.59181 0
M  V30 4295 C 405.482 4.60719 3.70799 0
M  V30 4296 H 404.412 0.475937 0.584808 0
M  V30 4297 H 407.063 1.60712 0.885661 0
M  V30 4298 H 405.445 1.85011 3.50124 0
M  V30 4299 H 406.619 4.20624 1.88181 0
M  V30 4300 H 404.934 3.73361 1.84366 0
M  V30 4301 H 407.531 2.89495 4.49552 0
M  V30 4302 H 407.874 1.26647 3.96568 0
M  V30 4303 H 408.407 2.64426 2.97193 0
M  V30 4304 H 405.146 5.61324 3.3852 0
M  V30 4305 H 404.666 4.17163 4.3097 0
M  V30 4306 H 406.345 4.76182 4.38018 0
M  V30 4307 N 406.477 -1.02803 1.19454 0
M  V30 4308 C 407.754 -1.73299 0.907013 0
M  V30 4309 C 408.134 -2.02772 -0.587086 0
M  V30 4310 O 407.482 -1.68304 -1.54551 0
M  V30 4311 C 407.692 -3.00912 1.76785 0
M  V30 4312 C 409.04 -3.74403 2.00268 0
M  V30 4313 O 410.064 -3.10841 1.73943 0
M  V30 4314 O 408.923 -4.88675 2.4466 0
M  V30 4315 H 406.017 -0.754727 0.338106 0
M  V30 4316 H 408.563 -1.08754 1.30271 0
M  V30 4317 H 407.335 -2.75366 2.7801 0
M  V30 4318 H 406.958 -3.73197 1.37149 0
M  V30 4319 N 407.956 -0.998596 -1.21925 0
M  V30 4320 C 408.866 -0.562736 -2.27751 0
M  V30 4321 C 409.882 0.391203 -1.69545 0
M  V30 4322 O 411.058 0.256625 -1.99758 0
M  V30 4323 C 408.123 0.11012 -3.46525 0
M  V30 4324 C 407.184 -0.887495 -4.20026 0
M  V30 4325 C 406.417 -0.246654 -5.3313 0
M  V30 4326 O 406.64 0.958088 -5.62296 0
M  V30 4327 O 405.574 -0.954374 -5.94286 0
M  V30 4328 H 409.4 -1.44329 -2.67213 0
M  V30 4329 H 406.985 -0.767135 -1.28201 0
M  V30 4330 H 408.867 0.486756 -4.18579 0
M  V30 4331 H 407.542 0.965154 -3.08976 0
M  V30 4332 H 406.449 -1.31517 -3.5022 0
M  V30 4333 H 407.782 -1.71191 -4.6147 0
M  V30 4334 N 409.434 1.37368 -0.772513 0
M  V30 4335 C 410.397 2.28601 -0.165541 0
M  V30 4336 C 411.397 1.48062 0.627238 0
M  V30 4337 O 412.587 1.68268 0.450715 0
M  V30 4338 C 409.719 3.32023 0.772897 0
M  V30 4339 H 410.912 2.83787 -0.969787 0
M  V30 4340 H 408.465 1.46647 -0.540775 0
M  V30 4341 H 409.2 2.81962 1.60212 0
M  V30 4342 H 408.985 3.91555 0.206585 0
M  V30 4343 H 410.475 4.00197 1.19298 0
M  V30 4344 N 410.912 0.523116 1.48665 0
M  V30 4345 C 411.822 -0.247406 2.33292 0
M  V30 4346 C 412.838 -0.945769 1.46052 0
M  V30 4347 O 414.014 -0.922253 1.79043 0
M  V30 4348 C 411.079 -1.28487 3.22012 0
M  V30 4349 C 410.14 -0.597592 4.2512 0
M  V30 4350 C 409.373 -1.58563 5.09601 0
M  V30 4351 O 409.596 -2.81763 4.95949 0
M  V30 4352 O 408.53 -1.12879 5.91221 0
M  V30 4353 H 412.356 0.445869 3.00409 0
M  V30 4354 H 409.941 0.284128 1.46673 0
M  V30 4355 H 411.823 -1.88459 3.7691 0
M  V30 4356 H 410.498 -1.96068 2.57564 0
M  V30 4357 H 409.405 0.0424407 3.74076 0
M  V30 4358 H 410.738 0.0361517 4.92187 0
M  V30 4359 N 412.39 -1.55475 0.257931 0
M  V30 4360 C 413.62 -2.03314 -0.367026 0
M  V30 4361 C 414.028 -1.13625 -1.51281 0
M  V30 4362 O 413.371 -0.145334 -1.83124 0
M  V30 4363 C 413.433 -3.47362 -0.926284 0
M  V30 4364 C 413.097 -4.56914 0.0886584 0
M  V30 4365 C 414.094 -5.12013 0.902123 0
M  V30 4366 C 411.779 -5.01827 0.217936 0
M  V30 4367 C 413.773 -6.10529 1.83122 0
M  V30 4368 C 411.46 -6.00172 1.15052 0
M  V30 4369 C 412.458 -6.54402 1.95568 0
M  V30 4370 O 412.146 -7.50827 2.87253 0
M  V30 4371 H 411.878 -0.669976 -0.0900443 0
M  V30 4372 H 414.432 -2.01804 0.382673 0
M  V30 4373 H 412.662 -3.46056 -1.72575 0
M  V30 4374 H 414.351 -3.78637 -1.46249 0
M  V30 4375 H 415.117 -4.78139 0.812891 0
M  V30 4376 H 410.996 -4.59272 -0.398721 0
M  V30 4377 H 414.54 -6.52783 2.46008 0
M  V30 4378 H 410.437 -6.33465 1.24064 0
M  V30 4379 H 411.205 -7.68483 2.81739 0
M  V30 4380 N 413.868 0.0150385 -1.57593 0
M  V30 4381 C 415.098 0.713359 -1.93894 0
M  V30 4382 C 415.506 1.68663 -0.857289 0
M  V30 4383 O 414.849 1.82876 0.173788 0
M  V30 4384 C 414.911 1.51348 -3.26089 0
M  V30 4385 C 414.575 0.703451 -4.51554 0
M  V30 4386 C 415.572 -0.00237924 -5.199 0
M  V30 4387 C 413.257 0.653854 -4.98026 0
M  V30 4388 C 415.251 -0.746955 -6.33008 0
M  V30 4389 C 412.938 -0.0944578 -6.11027 0
M  V30 4390 C 413.936 -0.793609 -6.78374 0
M  V30 4391 O 413.624 -1.52974 -7.89211 0
M  V30 4392 H 413.356 0.204637 -0.644282 0
M  V30 4393 H 415.91 -0.0276411 -2.05381 0
M  V30 4394 H 414.14 2.29862 -3.10967 0
M  V30 4395 H 415.829 2.09572 -3.47612 0
M  V30 4396 H 416.595 0.0268803 -4.84993 0
M  V30 4397 H 412.474 1.18756 -4.45441 0
M  V30 4398 H 416.018 -1.2932 -6.85509 0
M  V30 4399 H 411.915 -0.125591 -6.45378 0
M  V30 4400 H 412.683 -1.44488 -8.05646 0
M  V30 4401 N 415.346 1.54954 0.287554 0
M  V30 4402 C 416.592 1.75132 1.02257 0
M  V30 4403 C 416.925 0.542858 1.86458 0
M  V30 4404 O 416.2 -0.459856 1.88986 0
M  V30 4405 C 416.483 3.04812 1.91733 0
M  V30 4406 C 416.336 4.35985 1.10622 0
M  V30 4407 C 417.655 3.30438 2.90687 0
M  V30 4408 H 414.774 0.637194 0.370341 0
M  V30 4409 H 417.416 1.87678 0.296111 0
M  V30 4410 H 415.566 2.94247 2.53675 0
M  V30 4411 H 417.238 4.58487 0.508636 0
M  V30 4412 H 415.481 4.31865 0.409271 0
M  V30 4413 H 416.152 5.23017 1.76513 0
M  V30 4414 H 418.628 3.40701 2.38877 0
M  V30 4415 H 417.504 4.22467 3.50447 0
M  V30 4416 H 417.765 2.49377 3.65053 0
M  V30 4417 N 416.824 -0.551391 1.4764 0
M  V30 4418 C 418.072 -1.30572 1.54258 0
M  V30 4419 C 418.393 -1.93877 0.208963 0
M  V30 4420 O 417.663 -1.80234 -0.767619 0
M  V30 4421 H 416.243 -0.484894 0.568231 0
M  V30 4422 H 418.905 -0.643402 1.83974 0
M  V30 4423 H 418.001 -2.09621 2.31226 0
M  V30 4424 N 418.302 -1.35869 -0.798587 0
M  V30 4425 C 419.579 -1.20145 -1.54352 0
M  V30 4426 C 419.959 0.216161 -2.0999 0
M  V30 4427 O 419.307 1.22068 -1.93162 0
M  V30 4428 C 419.517 -2.27602 -2.64572 0
M  V30 4429 C 420.865 -2.63811 -3.32699 0
M  V30 4430 O 421.889 -2.26576 -2.74849 0
M  V30 4431 O 420.748 -3.27866 -4.37226 0
M  V30 4432 H 417.842 -0.467248 -0.682355 0
M  V30 4433 H 420.388 -1.47574 -0.837859 0
M  V30 4434 H 419.16 -3.2265 -2.21388 0
M  V30 4435 H 418.783 -2.01488 -3.42766 0
M  V30 4436 N 419.78 1.02168 -1.19998 0
M  V30 4437 C 421.029 1.75091 -1.0013 0
M  V30 4438 C 421.342 1.89923 0.467835 0
M  V30 4439 O 422.548 2.59888 0.785515 0
M  V30 4440 C 421.004 3.14892 -1.74273 0
M  V30 4441 C 420.612 3.0809 -3.25245 0
M  V30 4442 C 422.356 3.9206 -1.62755 0
M  V30 4443 C 420.263 4.42867 -3.91948 0
M  V30 4444 H 419.193 0.656394 -0.37103 0
M  V30 4445 H 421.844 1.14284 -1.43567 0
M  V30 4446 H 420.226 3.7621 -1.2362 0
M  V30 4447 H 421.4 2.5611 -3.83072 0
M  V30 4448 H 419.715 2.44416 -3.3712 0
M  V30 4449 H 422.312 4.91764 -2.09934 0
M  V30 4450 H 422.655 4.12199 -0.582894 0
M  V30 4451 H 423.188 3.37359 -2.10793 0
M  V30 4452 H 419.927 4.27931 -4.96543 0
M  V30 4453 H 419.447 4.94874 -3.3891 0
M  V30 4454 H 421.126 5.11728 -3.95909 0
M  V30 4455 N 421.258 1.00505 1.21394 0
M  V30 4456 C 422.505 0.687774 1.90462 0
M  V30 4457 C 422.833 -0.78147 1.7811 0
M  V30 4458 O 422.088 -1.58208 1.1519 0
M  V30 4459 C 422.387 1.0546 3.41486 0
M  V30 4460 C 422.053 2.51812 3.74034 0
M  V30 4461 C 420.715 2.91804 3.82628 0
M  V30 4462 C 423.067 3.46614 3.8924 0
M  V30 4463 C 420.395 4.2556 4.03876 0
M  V30 4464 C 422.747 4.80044 4.11995 0
M  V30 4465 C 421.411 5.19759 4.18816 0
M  V30 4466 H 420.681 0.251674 0.696951 0
M  V30 4467 H 423.328 1.26349 1.43903 0
M  V30 4468 H 421.633 0.397133 3.89782 0
M  V30 4469 H 423.33 0.786976 3.93202 0
M  V30 4470 H 419.92 2.1982 3.67936 0
M  V30 4471 H 424.104 3.16883 3.81967 0
M  V30 4472 H 419.36 4.55901 4.07387 0
M  V30 4473 H 423.534 5.53439 4.22704 0
M  V30 4474 H 421.161 6.23418 4.35033 0
M  V30 4475 N 422.737 -1.36956 0.779787 0
M  V30 4476 C 423.985 -1.99097 0.347079 0
M  V30 4477 C 424.306 -1.62206 -1.08232 0
M  V30 4478 O 423.576 -0.891373 -1.74446 0
M  V30 4479 H 422.156 -0.736409 0.125342 0
M  V30 4480 H 424.818 -1.67308 0.999696 0
M  V30 4481 H 423.914 -3.09107 0.431162 0
M  V30 4482 N 424.215 -0.530993 -1.48385 0
M  V30 4483 C 425.165 0.251092 -2.26613 0
M  V30 4484 C 426.149 0.908977 -1.32765 0
M  V30 4485 O 427.341 0.811616 -1.57295 0
M  V30 4486 C 424.47 1.29677 -3.17866 0
M  V30 4487 C 423.556 0.643627 -4.19188 0
M  V30 4488 N 423.947 -0.271223 -5.05072 0
M  V30 4489 C 422.245 0.900711 -4.3681 0
M  V30 4490 C 422.946 -0.648109 -5.78078 0
M  V30 4491 N 421.922 -0.00895987 -5.43599 0
M  V30 4492 H 425.724 -0.452702 -2.90393 0
M  V30 4493 H 423.238 -0.349091 -1.58604 0
M  V30 4494 H 425.235 1.87079 -3.72568 0
M  V30 4495 H 423.895 2.00193 -2.55642 0
M  V30 4496 H 424.906 -0.643883 -5.13882 0
M  V30 4497 H 421.583 1.59636 -3.85775 0
M  V30 4498 H 422.973 -1.39833 -6.57188 0
M  V30 4499 N 425.693 1.55336 -0.266172 0
M  V30 4500 C 426.941 1.99003 0.35246 0
M  V30 4501 C 427.262 1.15591 1.57047 0
M  V30 4502 O 426.532 0.243268 1.94384 0
M  V30 4503 H 425.112 0.735025 0.133217 0
M  V30 4504 H 427.774 1.91367 -0.369434 0
M  V30 4505 H 426.87 3.05289 0.648453 0
M  V30 4506 N 427.171 -0.0066808 1.57599 0
M  V30 4507 C 428.417 -0.693947 1.90558 0
M  V30 4508 C 428.75 -1.73792 0.866594 0
M  V30 4509 O 428.025 -1.94156 -0.115548 0
M  V30 4510 C 428.308 -1.34317 3.34112 0
M  V30 4511 C 428.161 -0.311189 4.48722 0
M  V30 4512 C 429.48 -2.27116 3.7697 0
M  V30 4513 H 426.599 -0.250803 0.693013 0
M  V30 4514 H 429.241 0.043242 1.89951 0
M  V30 4515 H 427.391 -1.9715 3.3476 0
M  V30 4516 H 429.063 0.316944 4.6021 0
M  V30 4517 H 427.306 0.367253 4.32243 0
M  V30 4518 H 427.977 -0.804366 5.46108 0
M  V30 4519 H 430.453 -1.74306 3.77831 0
M  V30 4520 H 429.329 -2.69511 4.78179 0
M  V30 4521 H 429.59 -3.14743 3.10466 0
M  V30 4522 N 428.649 -1.55105 -0.279332 0
M  V30 4523 C 429.559 -1.90638 -1.36727 0
M  V30 4524 C 430.575 -0.802899 -1.54368 0
M  V30 4525 O 431.751 -1.10138 -1.68616 0
M  V30 4526 C 428.816 -2.16547 -2.70755 0
M  V30 4527 C 427.877 -3.40146 -2.61915 0
M  V30 4528 C 427.11 -3.6481 -3.8955 0
M  V30 4529 O 427.333 -2.92095 -4.89935 0
M  V30 4530 O 426.267 -4.58343 -3.90135 0
M  V30 4531 H 430.093 -2.83237 -1.09591 0
M  V30 4532 H 427.678 -1.4157 -0.477306 0
M  V30 4533 H 429.56 -2.34665 -3.50014 0
M  V30 4534 H 428.235 -1.27131 -2.9769 0
M  V30 4535 H 427.142 -3.2737 -1.81052 0
M  V30 4536 H 428.475 -4.29761 -2.3993 0
M  V30 4537 N 430.127 0.543554 -1.4793 0
M  V30 4538 C 431.09 1.63156 -1.60975 0
M  V30 4539 C 432.09 1.53346 -0.483899 0
M  V30 4540 O 433.28 1.5726 -0.749339 0
M  V30 4541 C 430.412 3.02743 -1.56716 0
M  V30 4542 H 431.605 1.52934 -2.57975 0
M  V30 4543 H 429.158 0.764557 -1.36324 0
M  V30 4544 H 429.893 3.18484 -0.611418 0
M  V30 4545 H 429.678 3.11272 -2.38438 0
M  V30 4546 H 431.168 3.81871 -1.6901 0
M  V30 4547 N 431.605 1.3629 0.791371 0
M  V30 4548 C 432.833 1.33562 1.58016 0
M  V30 4549 C 433.248 -0.0835616 1.88615 0
M  V30 4550 O 432.605 -1.0399 1.49974 0
M  V30 4551 C 432.656 2.15517 2.90232 0
M  V30 4552 O 432.377 3.51902 2.60953 0
M  V30 4553 C 433.878 2.20546 3.84544 0
M  V30 4554 H 431.098 0.458226 0.490173 0
M  V30 4555 H 433.642 1.79361 0.982345 0
M  V30 4556 H 431.797 1.73278 3.46487 0
M  V30 4557 H 432.211 3.94644 3.4548 0
M  V30 4558 H 433.685 2.82252 4.74382 0
M  V30 4559 H 434.162 1.20838 4.2225 0
M  V30 4560 H 434.768 2.63013 3.34222 0
M  V30 4561 N 433.083 -1.0153 1.20538 0
M  V30 4562 C 434.331 -1.74803 1.01432 0
M  V30 4563 C 434.652 -1.8963 -0.454456 0
M  V30 4564 O 433.922 -1.43975 -1.32846 0
M  V30 4565 H 432.502 -0.647598 0.372324 0
M  V30 4566 H 435.164 -1.22402 1.5167 0
M  V30 4567 H 434.26 -2.75114 1.47373 0
M  V30 4568 N 434.561 -1.01147 -1.20859 0
M  V30 4569 C 435.791 -0.715872 -1.93801 0
M  V30 4570 C 436.199 0.726592 -1.74692 0
M  V30 4571 O 435.542 1.50397 -1.05482 0
M  V30 4572 C 435.604 -0.965269 -3.46299 0
M  V30 4573 C 435.268 -2.39584 -3.89164 0
M  V30 4574 C 436.265 -3.3764 -3.95342 0
M  V30 4575 C 433.95 -2.73522 -4.21297 0
M  V30 4576 C 435.944 -4.67698 -4.33056 0
M  V30 4577 C 433.631 -4.03794 -4.58687 0
M  V30 4578 C 434.629 -5.00693 -4.64538 0
M  V30 4579 O 434.317 -6.28635 -5.01072 0
M  V30 4580 H 434.049 -0.262524 -0.622942 0
M  V30 4581 H 436.603 -1.35413 -1.54443 0
M  V30 4582 H 434.833 -0.269847 -3.85757 0
M  V30 4583 H 436.522 -0.662051 -4.00464 0
M  V30 4584 H 437.288 -3.12757 -3.70686 0
M  V30 4585 H 433.167 -1.9879 -4.15937 0
M  V30 4586 H 436.711 -5.4333 -4.37537 0
M  V30 4587 H 432.608 -4.28459 -4.82797 0
M  V30 4588 H 433.376 -6.32847 -5.19083 0
M  V30 4589 N 436.039 1.36541 -0.78704 0
M  V30 4590 C 437.287 1.98911 -0.357633 0
M  V30 4591 C 437.608 1.62778 1.07371 0
M  V30 4592 O 436.878 0.900612 1.73971 0
M  V30 4593 H 435.458 0.735734 -0.129246 0
M  V30 4594 H 438.12 1.66776 -1.00855 0
M  V30 4595 H 437.216 3.08874 -0.447549 0
M  V30 4596 N 437.518 0.538854 1.48102 0
M  V30 4597 C 438.448 -0.207654 2.32575 0
M  V30 4598 C 439.429 -0.926559 1.4265 0
M  V30 4599 O 440.614 -0.91061 1.71527 0
M  V30 4600 C 437.744 -1.24957 3.24042 0
M  V30 4601 C 436.698 -0.648263 4.23062 0
M  V30 4602 C 436.024 -1.79348 5.03725 0
M  V30 4603 C 437.324 0.385897 5.20872 0
M  V30 4604 H 439.018 0.497534 2.95237 0
M  V30 4605 H 436.564 0.240715 1.41974 0
M  V30 4606 H 438.517 -1.77983 3.81969 0
M  V30 4607 H 437.241 -1.98446 2.59397 0
M  V30 4608 H 435.9 -0.139452 3.66335 0
M  V30 4609 H 435.548 -2.51696 4.35498 0
M  V30 4610 H 435.248 -1.39702 5.70751 0
M  V30 4611 H 436.772 -2.32735 5.64506 0
M  V30 4612 H 438.186 -0.057607 5.73271 0
M  V30 4613 H 436.583 0.700227 5.96001 0
M  V30 4614 H 437.653 1.28848 4.67468 0
M  V30 4615 N 438.996 -1.55193 0.274407 0
M  V30 4616 C 440.273 -1.91584 -0.394331 0
M  V30 4617 C 440.653 -1.19858 -1.73774 0
M  V30 4618 O 440.001 -0.3252 -2.26174 0
M  V30 4619 C 440.211 -3.4487 -0.535311 0
M  V30 4620 C 441.559 -4.16636 -0.818534 0
M  V30 4621 O 442.583 -3.5076 -0.620146 0
M  V30 4622 O 441.442 -5.33209 -1.19792 0
M  V30 4623 H 438.536 -0.798349 -0.215794 0
M  V30 4624 H 441.082 -1.66646 0.320507 0
M  V30 4625 H 439.854 -3.89145 0.410141 0
M  V30 4626 H 439.477 -3.75759 -1.29964 0
M  V30 4627 N 440.474 -0.00167713 -1.576 0
M  V30 4628 C 441.72 0.683832 -1.90923 0
M  V30 4629 C 442.053 1.7333 -0.875799 0
M  V30 4630 O 441.328 1.94215 0.10525 0
M  V30 4631 C 441.611 1.32543 -3.3482 0
M  V30 4632 C 441.464 0.287387 -4.48881 0
M  V30 4633 C 442.783 2.25114 -3.78169 0
M  V30 4634 H 439.902 0.247125 -0.694333 0
M  V30 4635 H 442.544 -0.0533149 -1.89925 0
M  V30 4636 H 440.694 1.95372 -3.35801 0
M  V30 4637 H 442.366 -0.341346 -4.60035 0
M  V30 4638 H 440.609 -0.39017 -4.32042 0
M  V30 4639 H 441.28 0.775393 -5.46527 0
M  V30 4640 H 443.756 1.723 -3.7875 0
M  V30 4641 H 442.632 2.66971 -4.79602 0
M  V30 4642 H 442.893 3.13092 -3.12131 0
M  V30 4643 N 441.952 1.55251 0.271103 0
M  V30 4644 C 442.899 1.88261 1.33516 0
M  V30 4645 C 443.869 0.734296 1.48988 0
M  V30 4646 O 445.054 0.985741 1.63364 0
M  V30 4647 C 442.194 2.16168 2.69008 0
M  V30 4648 C 441.307 3.43678 2.61743 0
M  V30 4649 C 440.442 3.61276 3.89427 0
M  V30 4650 C 439.481 4.82472 3.7668 0
M  V30 4651 N 438.618 4.96717 4.96202 0
M  V30 4652 H 443.458 2.79015 1.04665 0
M  V30 4653 H 440.995 1.38137 0.505618 0
M  V30 4654 H 442.953 2.30349 3.47844 0
M  V30 4655 H 441.583 1.28646 2.96057 0
M  V30 4656 H 440.635 3.37959 1.74607 0
M  V30 4657 H 441.947 4.3265 2.48224 0
M  V30 4658 H 441.101 3.75284 4.76704 0
M  V30 4659 H 439.84 2.70492 4.05814 0
M  V30 4660 H 438.845 4.68465 2.87786 0
M  V30 4661 H 440.07 5.74692 3.61809 0
M  V30 4662 H 438.016 4.08865 5.12997 0
M  V30 4663 H 437.933 5.79738 4.85222 0
M  V30 4664 H 439.201 5.15113 5.85046 0
M  V30 4665 N 443.43 -0.535701 1.48216 0
M  V30 4666 C 444.36 -1.65014 1.65204 0
M  V30 4667 C 445.341 -1.62554 0.501011 0
M  V30 4668 O 446.526 -1.7984 0.732886 0
M  V30 4669 C 443.656 -3.03616 1.68626 0
M  V30 4670 C 442.61 -3.20932 2.83172 0
M  V30 4671 C 441.936 -4.60537 2.71679 0
M  V30 4672 C 443.236 -3.04249 4.24535 0
M  V30 4673 H 444.93 -1.51053 2.58502 0
M  V30 4674 H 442.476 -0.725262 1.24402 0
M  V30 4675 H 444.429 -3.81446 1.79099 0
M  V30 4676 H 443.153 -3.18587 0.719026 0
M  V30 4677 H 441.812 -2.45517 2.72244 0
M  V30 4678 H 441.46 -4.72336 1.72937 0
M  V30 4679 H 441.16 -4.73069 3.48538 0
M  V30 4680 H 442.684 -5.40475 2.84112 0
M  V30 4681 H 444.098 -3.71877 4.36326 0
M  V30 4682 H 442.495 -3.28278 5.02348 0
M  V30 4683 H 443.565 -2.00739 4.41397 0
M  V30 4684 N 444.908 -1.36708 -0.784132 0
M  V30 4685 C 446.133 -1.34565 -1.5782 0
M  V30 4686 C 446.558 0.0695257 -1.87971 0
M  V30 4687 O 445.916 1.04302 -1.48293 0
M  V30 4688 C 445.964 -2.17952 -2.87279 0
M  V30 4689 O 445.068 -1.57563 -3.81114 0
M  V30 4690 H 444.409 -0.460337 -0.478524 0
M  V30 4691 H 446.939 -1.80064 -0.971495 0
M  V30 4692 H 446.949 -2.30721 -3.365 0
M  V30 4693 H 445.624 -3.20823 -2.64661 0
M  V30 4694 H 444.201 -1.53764 -3.39722 0
M  V30 4695 O 446.425 0.923818 -1.32468 0
M  V30 4696 H 447.116 1.55617 -1.15339 0
M  V30 END ATOM
M  V30 BEGIN BOND
M  V30 END BOND
M  V30 END CTAB
M  END
$$$$
