drugbank_target|P34995 Prostaglandin E2 receptor EP1 subtype (DB00297; DB00429; DB00770; DB00905; DB00917; DB00929; DB01088; DB09211)
 OpenBabel12092119233D

  0  0  0     0  0            999 V3000
M  V30 BEGIN CTAB
M  V30 COUNTS 6010 6080 0 0 0
M  V30 BEGIN ATOM
M  V30 1 H -0.908 1.98254 -0.117106 0
M  V30 2 N 0 1.576 0 0
M  V30 3 C 0.933 2.03868 1.02534 0
M  V30 4 C 1.911 0.928543 1.3348 0
M  V30 5 O 3.095 1.19667 1.45644 0
M  V30 6 C 0.222 2.43627 2.35294 0
M  V30 7 C -0.732 3.65373 2.2001 0
M  V30 8 S 0.101 5.13292 1.52614 0
M  V30 9 C 1.257 5.56322 2.86805 0
M  V30 10 H 1.49 2.90518 0.631377 0
M  V30 11 H -0.977 1.52953 0.210867 0
M  V30 12 H 0.981 2.67203 3.11629 0
M  V30 13 H -0.358 1.57376 2.7183 0
M  V30 14 H -1.165 3.90944 3.18086 0
M  V30 15 H -1.563 3.418 1.51819 0
M  V30 16 H 0.729 5.58782 3.83104 0
M  V30 17 H 1.672 6.56266 2.65933 0
M  V30 18 H 2.08 4.83886 2.90714 0
M  V30 19 N 1.4781 -0.272755 1.55222 0
M  V30 20 C 2.7031 -1.02683 1.80197 0
M  V30 21 C 3.1281 -1.79142 0.573551 0
M  V30 22 O 2.4861 -1.74917 -0.476849 0
M  V30 23 C 2.5341 -1.9609 3.02624 0
M  V30 24 O 1.6381 -3.04863 2.77727 0
M  V30 25 H 0.9791 -0.293557 0.595584 0
M  V30 26 H 3.5091 -0.30159 2.02365 0
M  V30 27 H 3.5191 -2.38039 3.31363 0
M  V30 28 H 2.1941 -1.39851 3.91682 0
M  V30 29 H 0.7711 -2.67228 2.60084 0
M  V30 30 N 2.9562 -1.48159 -0.537278 0
M  V30 31 C 4.3672 -1.49429 -1.11928 0
M  V30 32 C 4.7182 -0.26 -1.9447 0
M  V30 33 O 3.8432 0.633489 -2.0692 0
M  V30 34 C 4.4382 -2.70758 -2.03656 0
M  V30 35 C 2.9972 -2.74923 -2.57088 0
M  V30 36 C 2.1442 -2.42835 -1.3389 0
M  V30 37 H 5.0952 -1.55381 -0.322886 0
M  V30 38 H 5.1162 -2.48861 -2.87834 0
M  V30 39 H 4.6282 -3.60575 -1.43553 0
M  V30 40 H 2.7292 -1.89296 -3.20933 0
M  V30 41 H 2.8422 -3.76157 -2.9672 0
M  V30 42 H 1.2062 -1.93836 -1.65226 0
M  V30 43 H 1.9892 -3.34884 -0.755504 0
M  V30 44 N 4.4343 0.785586 -1.36625 0
M  V30 45 C 5.6743 1.55678 -1.32453 0
M  V30 46 C 6.0383 1.91769 0.0941089 0
M  V30 47 O 7.2393 2.67536 0.26042 0
M  V30 48 C 5.5103 2.79701 -2.22491 0
M  V30 49 S 7.0693 3.69907 -2.36038 0
M  V30 50 H 3.8873 0.533141 -0.470405 0
M  V30 51 H 6.4893 0.924953 -1.72235 0
M  V30 52 H 5.1933 2.51244 -3.24507 0
M  V30 53 H 4.7243 3.47854 -1.83742 0
M  V30 54 H 6.7393 4.71016 -1.56072 0
M  V30 55 N 5.9124 1.20967 1.01018 0
M  V30 56 C 7.1604 1.02172 1.74371 0
M  V30 57 C 7.4814 -0.446414 1.89821 0
M  V30 58 O 6.7514 -1.32234 1.44537 0
M  V30 59 H 5.3314 0.375066 0.646014 0
M  V30 60 H 7.9934 1.52187 1.21758 0
M  V30 61 H 7.0894 1.48538 2.74487 0
M  V30 62 N 7.3905 -1.2043 1.01659 0
M  V30 63 C 8.8015 -1.71517 0.737482 0
M  V30 64 C 9.1525 -1.81547 -0.743973 0
M  V30 65 O 8.2775 -1.47803 -1.58061 0
M  V30 66 C 8.8725 -3.11515 1.33206 0
M  V30 67 C 7.4315 -3.59912 1.10183 0
M  V30 68 C 6.5785 -2.37116 1.43776 0
M  V30 69 H 9.5295 -1.05444 1.18606 0
M  V30 70 H 9.5505 -3.73575 0.722636 0
M  V30 71 H 9.0625 -3.04182 2.41028 0
M  V30 72 H 7.1635 -3.72577 0.0412756 0
M  V30 73 H 7.2765 -4.44731 1.78188 0
M  V30 74 H 5.6405 -2.39857 0.856778 0
M  V30 75 H 6.4235 -2.32424 2.52654 0
M  V30 76 N 8.8686 -0.792821 -1.36206 0
M  V30 77 C 9.7986 -0.207853 -2.32573 0
M  V30 78 C 10.7796 0.659055 -1.56813 0
M  V30 79 O 11.9646 0.592176 -1.84951 0
M  V30 80 C 9.0946 0.655449 -3.41059 0
M  V30 81 C 8.0486 -0.111842 -4.27854 0
M  V30 82 C 7.3746 0.872274 -5.27537 0
M  V30 83 C 8.6746 -1.30299 -5.05786 0
M  V30 84 H 10.3686 -1.01294 -2.81744 0
M  V30 85 H 7.9146 -0.48854 -1.3546 0
M  V30 86 H 9.8676 1.07464 -4.07467 0
M  V30 87 H 8.5916 1.49328 -2.90463 0
M  V30 88 H 7.2506 -0.512053 -3.63006 0
M  V30 89 H 6.8986 1.70523 -4.73214 0
M  V30 90 H 6.5986 0.363291 -5.86476 0
M  V30 91 H 8.1226 1.28996 -5.96818 0
M  V30 92 H 9.5366 -0.959379 -5.65216 0
M  V30 93 H 7.9336 -1.7455 -5.74154 0
M  V30 94 H 9.0036 -2.09663 -4.37229 0
M  V30 95 N 10.3467 1.47872 -0.545128 0
M  V30 96 C 11.2947 2.31533 0.222512 0
M  V30 97 C 12.2887 1.42177 0.920985 0
M  V30 98 O 13.4947 1.59005 0.843645 0
M  V30 99 H 9.8697 0.746519 0.0906278 0
M  V30 100 H 11.8407 2.94139 -0.50246 0
M  V30 101 C 10.5897 3.2457 1.24699 0
M  V30 102 H 9.9127 3.93283 0.718944 0
M  V30 103 H 11.3527 3.85963 1.75523 0
M  V30 104 C 9.8117 2.47237 2.28856 0
M  V30 105 O 10.3417 2.20808 3.35569 0
M  V30 106 N 8.5477 2.08461 2.02466 0
M  V30 107 H 8.0947 2.30155 1.157 0
M  V30 108 H 8.0527 1.57033 2.72375 0
M  V30 109 N 11.8248 0.280983 1.55075 0
M  V30 110 C 12.7548 -0.597469 2.25727 0
M  V30 111 C 13.7358 -1.15417 1.24952 0
M  V30 112 O 14.9208 -1.18722 1.53684 0
M  V30 113 C 12.0508 -1.7789 2.98283 0
M  V30 114 C 11.0048 -1.35347 4.06036 0
M  V30 115 C 10.3308 -2.61846 4.66198 0
M  V30 116 C 11.6308 -0.499354 5.19907 0
M  V30 117 H 13.3248 -0.00824265 2.99399 0
M  V30 118 H 10.8708 -0.0025244 1.44 0
M  V30 119 H 12.8238 -2.39937 3.46422 0
M  V30 120 H 11.5478 -2.39405 2.22155 0
M  V30 121 H 10.2068 -0.756156 3.58717 0
M  V30 122 H 9.8548 -3.21632 3.86732 0
M  V30 123 H 9.5548 -2.3409 5.38958 0
M  V30 124 H 11.0788 -3.24732 5.1709 0
M  V30 125 H 12.4928 -1.02498 5.64063 0
M  V30 126 H 10.8898 -0.316424 5.99265 0
M  V30 127 H 11.9598 0.480459 4.82514 0
M  V30 128 N 13.3029 -1.57598 0.00835791 0
M  V30 129 C 14.5279 -1.95617 -0.689103 0
M  V30 130 C 14.9529 -0.883753 -1.66046 0
M  V30 131 O 14.3109 0.157352 -1.80616 0
M  V30 132 C 14.3589 -3.32736 -1.38994 0
M  V30 133 O 13.4629 -3.27631 -2.50463 0
M  V30 134 H 12.8039 -0.638379 -0.182668 0
M  V30 135 H 15.3339 -2.045 0.064036 0
M  V30 136 H 15.3439 -3.68494 -1.75147 0
M  V30 137 H 14.0189 -4.1034 -0.677778 0
M  V30 138 H 12.5959 -3.03561 -2.16576 0
M  V30 139 N 14.781 0.264519 -1.55364 0
M  V30 140 C 15.711 1.33121 -1.91836 0
M  V30 141 C 16.692 1.51101 -0.781192 0
M  V30 142 O 17.877 1.64003 -1.04003 0
M  V30 143 C 15.007 2.68921 -2.19769 0
M  V30 144 C 13.961 2.65661 -3.35571 0
M  V30 145 C 13.287 4.05093 -3.49004 0
M  V30 146 C 14.587 2.24187 -4.71739 0
M  V30 147 H 16.281 1.02844 -2.81182 0
M  V30 148 H 13.827 0.493286 -1.35287 0
M  V30 149 H 15.78 3.43663 -2.43872 0
M  V30 150 H 14.504 3.00799 -1.27231 0
M  V30 151 H 13.163 1.93377 -3.1145 0
M  V30 152 H 12.811 4.34206 -2.53917 0
M  V30 153 H 12.511 4.03804 -4.26868 0
M  V30 154 H 14.035 4.81561 -3.75408 0
M  V30 155 H 15.449 2.88654 -4.9533 0
M  V30 156 H 13.846 2.34044 -5.52579 0
M  V30 157 H 14.916 1.19327 -4.69988 0
M  V30 158 N 16.2591 1.48442 0.529413 0
M  V30 159 C 17.2221 1.62524 1.61612 0
M  V30 160 C 18.2221 0.498509 1.52877 0
M  V30 161 O 19.4121 0.76431 1.56537 0
M  V30 162 C 16.5441 1.59597 3.01233 0
M  V30 163 H 17.7371 2.59423 1.50465 0
M  V30 164 H 15.2901 1.37047 0.751514 0
M  V30 165 H 16.0251 0.641781 3.17886 0
M  V30 166 H 15.8101 2.41397 3.08982 0
M  V30 167 H 17.3001 1.72646 3.80241 0
M  V30 168 N 17.7372 -0.778329 1.37039 0
M  V30 169 C 18.9852 -1.53361 1.31623 0
M  V30 170 C 19.3062 -1.94739 -0.100831 0
M  V30 171 O 18.5762 -1.65797 -1.04347 0
M  V30 172 H 17.1562 -0.568794 0.484234 0
M  V30 173 H 19.8182 -0.926742 1.71457 0
M  V30 174 H 18.9142 -2.43606 1.95096 0
M  V30 175 N 19.2153 -1.21501 -1.00376 0
M  V30 176 C 20.1253 -0.991447 -2.12621 0
M  V30 177 C 21.1413 0.0568446 -1.73907 0
M  V30 178 O 22.3173 -0.13348 -2.00957 0
M  V30 179 C 19.3823 -0.560312 -3.42142 0
M  V30 180 C 18.4433 -1.68096 -3.95022 0
M  V30 181 C 17.6763 -1.2703 -5.18362 0
M  V30 182 O 17.8993 -0.144438 -5.70217 0
M  V30 183 O 16.8333 -2.08269 -5.64719 0
M  V30 184 H 20.6593 -1.93158 -2.34358 0
M  V30 185 H 18.2443 -0.999999 -1.10997 0
M  V30 186 H 20.1263 -0.329724 -4.20108 0
M  V30 187 H 18.8013 0.351089 -3.2179 0
M  V30 188 H 17.7083 -1.96597 -3.18278 0
M  V30 189 H 19.0413 -2.56983 -4.19786 0
M  V30 190 N 20.6934 1.19889 -1.02296 0
M  V30 191 C 21.6564 2.21116 -0.603351 0
M  V30 192 C 22.6564 1.5738 0.329884 0
M  V30 193 O 23.8464 1.73802 0.117702 0
M  V30 194 C 20.9784 3.40696 0.117992 0
M  V30 195 H 22.1714 2.59754 -1.49893 0
M  V30 196 H 19.7244 1.33463 -0.813468 0
M  V30 197 H 20.4594 3.07569 1.0282 0
M  V30 198 H 20.2444 3.88188 -0.552511 0
M  V30 199 H 21.7344 4.15692 0.398696 0
M  V30 200 N 22.1715 0.800033 1.35784 0
M  V30 201 C 23.3995 0.389606 2.03199 0
M  V30 202 C 23.8145 -0.997375 1.60306 0
M  V30 203 O 23.1715 -1.64154 0.797481 0
M  V30 204 C 23.2225 0.455855 3.58614 0
M  V30 205 O 22.9435 1.78815 3.99946 0
M  V30 206 C 24.4445 0.0374032 4.43284 0
M  V30 207 H 21.6645 0.159132 0.651857 0
M  V30 208 H 24.2085 1.08183 1.73541 0
M  V30 209 H 22.3635 -0.188057 3.86943 0
M  V30 210 H 22.7775 1.74636 4.94573 0
M  V30 211 H 24.2515 0.134882 5.51835 0
M  V30 212 H 24.7285 -1.01651 4.27275 0
M  V30 213 H 25.3345 0.654215 4.20238 0
M  V30 214 N 23.6496 -1.47581 0.552962 0
M  V30 215 C 24.8776 -2.06875 0.0320556 0
M  V30 216 C 25.2926 -1.40625 -1.25976 0
M  V30 217 O 24.6496 -0.501349 -1.75479 0
M  V30 218 C 24.7006 -3.61092 -0.17167 0
M  V30 219 O 24.4216 -4.24858 1.06899 0
M  V30 220 C 25.9226 -4.37242 -0.730344 0
M  V30 221 H 23.1426 -0.669561 0.043915 0
M  V30 222 H 25.6866 -1.89646 0.765163 0
M  V30 223 H 23.8416 -3.7785 -0.854894 0
M  V30 224 H 24.2556 -5.17334 0.864059 0
M  V30 225 H 25.7296 -5.45842 -0.822203 0
M  V30 226 H 26.2066 -4.03235 -1.74064 0
M  V30 227 H 26.8126 -4.25219 -0.0829543 0
M  V30 228 N 25.1277 -0.289203 -1.54924 0
M  V30 229 C 26.3677 0.324536 -2.01807 0
M  V30 230 C 26.7317 1.5199 -1.17316 0
M  V30 231 O 27.9327 2.20422 -1.53843 0
M  V30 232 C 26.2037 0.683578 -3.50802 0
M  V30 233 S 27.7627 1.28185 -4.19659 0
M  V30 234 H 24.5807 0.100236 -0.703899 0
M  V30 235 H 27.1827 -0.414325 -1.91059 0
M  V30 236 H 25.8867 -0.195073 -4.09936 0
M  V30 237 H 25.4177 1.45354 -3.65562 0
M  V30 238 H 27.4327 2.57006 -4.24456 0
M  V30 239 N 26.6058 1.57591 -0.0167156 0
M  V30 240 C 27.5688 2.08393 0.954204 0
M  V30 241 C 28.5688 0.996531 1.26198 0
M  V30 242 O 29.7588 1.25858 1.20438 0
M  V30 243 C 26.8908 2.5394 2.27436 0
M  V30 244 H 28.0838 2.95455 0.514451 0
M  V30 245 H 25.6368 1.54582 0.231089 0
M  V30 246 H 26.3718 1.70171 2.76066 0
M  V30 247 H 26.1568 3.33371 2.06412 0
M  V30 248 H 27.6468 2.93512 2.97053 0
M  V30 249 N 28.0839 -0.256276 1.55502 0
M  V30 250 C 29.0469 -1.30047 1.88734 0
M  V30 251 C 30.0469 -1.4154 0.763086 0
M  V30 252 O 31.2369 -1.40403 1.03115 0
M  V30 253 C 28.3689 -2.67953 2.10747 0
M  V30 254 H 29.5619 -1.01802 2.82093 0
M  V30 255 H 27.1149 -0.495134 1.4825 0
M  V30 256 H 27.8499 -3.01351 1.19825 0
M  V30 257 H 27.6349 -2.60993 2.92617 0
M  V30 258 H 29.1249 -3.43368 2.37673 0
M  V30 259 N 29.562 -1.4872 -0.521534 0
M  V30 260 C 30.973 -1.50607 -1.10337 0
M  V30 261 C 31.324 -0.280612 -1.94183 0
M  V30 262 O 30.449 0.611507 -2.0758 0
M  V30 263 C 31.044 -2.72903 -2.00772 0
M  V30 264 C 29.603 -2.77634 -2.54158 0
M  V30 265 C 28.75 -2.44241 -1.31307 0
M  V30 266 H 31.701 -1.55714 -0.306388 0
M  V30 267 H 31.722 -2.519 -2.85178 0
M  V30 268 H 31.234 -3.62077 -1.39721 0
M  V30 269 H 29.335 -1.92689 -3.18907 0
M  V30 270 H 29.448 -3.79283 -2.92714 0
M  V30 271 H 27.812 -1.95577 -1.63161 0
M  V30 272 H 28.595 -3.35666 -0.719943 0
M  V30 273 N 31.0401 0.771051 -1.3745 0
M  V30 274 C 32.2861 1.53109 -1.339 0
M  V30 275 C 32.6411 1.9225 0.0758401 0
M  V30 276 O 31.9341 1.61264 1.03463 0
M  V30 277 C 32.1281 2.80676 -2.2126 0
M  V30 278 C 31.9571 2.54003 -3.71096 0
M  V30 279 C 30.7271 2.48097 -4.402 0
M  V30 280 C 32.9251 2.21953 -4.63941 0
M  V30 281 N 30.9071 2.13515 -5.75573 0
M  V30 282 C 32.2781 1.97516 -5.87697 0
M  V30 283 C 34.3331 2.08114 -4.5232 0
M  V30 284 C 33.0361 1.60638 -7.01133 0
M  V30 285 C 35.0621 1.72636 -5.65642 0
M  V30 286 C 34.4241 1.4906 -6.88448 0
M  V30 287 H 30.5231 0.56055 -0.54526 0
M  V30 288 H 33.1071 0.899472 -1.72678 0
M  V30 289 H 31.2781 3.41674 -1.84698 0
M  V30 290 H 33.0101 3.46578 -2.08963 0
M  V30 291 H 29.7651 2.63974 -3.93211 0
M  V30 292 H 30.1891 1.98919 -6.47117 0
M  V30 293 H 34.8311 2.25024 -3.57944 0
M  V30 294 H 32.5491 1.42467 -7.95443 0
M  V30 295 H 36.1351 1.62586 -5.58621 0
M  V30 296 H 35.0151 1.22014 -7.7465 0
M  V30 297 N 32.5182 1.22032 0.997298 0
M  V30 298 C 33.7642 1.04376 1.73878 0
M  V30 299 C 34.0972 -0.420716 1.89588 0
M  V30 300 O 33.3722 -1.31202 1.43583 0
M  V30 301 C 33.6552 1.75047 3.14691 0
M  V30 302 C 33.5082 3.29062 3.06656 0
M  V30 303 C 34.8272 1.49928 4.13775 0
M  V30 304 H 31.9462 0.380578 0.631133 0
M  V30 305 H 34.5882 1.50312 1.16217 0
M  V30 306 H 32.7382 1.35996 3.63919 0
M  V30 307 H 34.4102 3.7753 2.65083 0
M  V30 308 H 32.6532 3.58967 2.43568 0
M  V30 309 H 33.3242 3.73683 4.06282 0
M  V30 310 H 35.8002 1.83842 3.73285 0
M  V30 311 H 34.6762 2.01878 5.10428 0
M  V30 312 H 34.9372 0.430929 4.39995 0
M  V30 313 N 33.9963 -1.19345 1.0293 0
M  V30 314 C 35.4073 -1.70725 0.755633 0
M  V30 315 C 35.7583 -1.82326 -0.724676 0
M  V30 316 O 34.8833 -1.49471 -1.56484 0
M  V30 317 C 35.4783 -3.10084 1.36503 0
M  V30 318 C 34.0373 -3.58723 1.13994 0
M  V30 319 C 33.1843 -2.35577 1.46283 0
M  V30 320 H 36.1353 -1.0418 1.19718 0
M  V30 321 H 36.1563 -3.72787 0.762217 0
M  V30 322 H 35.6683 -3.01609 2.44241 0
M  V30 323 H 33.7693 -3.72512 0.0807901 0
M  V30 324 H 33.8823 -4.42816 1.82894 0
M  V30 325 H 32.2463 -2.38935 0.88217 0
M  V30 326 H 33.0293 -2.29731 2.55105 0
M  V30 327 N 35.4744 -0.807222 -1.35358 0
M  V30 328 C 36.4224 -0.20614 -2.31685 0
M  V30 329 C 37.4164 0.644445 -1.56663 0
M  V30 330 O 38.6224 0.537538 -1.71786 0
M  V30 331 H 34.9974 -0.0479006 -0.750473 0
M  V30 332 H 36.9684 -1.03369 -2.79924 0
M  V30 333 C 35.7174 0.630212 -3.41941 0
M  V30 334 H 35.0404 -0.0149558 -3.99797 0
M  V30 335 H 36.4804 1.01716 -4.11619 0
M  V30 336 C 34.9394 1.79601 -2.85035 0
M  V30 337 O 35.4694 2.89351 -2.78637 0
M  V30 338 N 33.6754 1.60774 -2.42074 0
M  V30 339 H 33.2224 0.715009 -2.47478 0
M  V30 340 H 33.1804 2.38933 -2.04349 0
M  V30 341 N 36.9525 1.47285 -0.560781 0
M  V30 342 C 38.1805 2.06855 -0.0430262 0
M  V30 343 C 38.5955 1.41291 1.25229 0
M  V30 344 O 37.9525 0.510648 1.7521 0
M  V30 345 C 38.0035 3.61178 0.152518 0
M  V30 346 O 37.7245 4.24285 -1.0915 0
M  V30 347 C 39.2255 4.37624 0.707145 0
M  V30 348 H 36.4455 0.669319 -0.0474652 0
M  V30 349 H 38.9895 1.89237 -0.77521 0
M  V30 350 H 37.1445 3.78298 0.834843 0
M  V30 351 H 37.5585 5.16868 -0.891482 0
M  V30 352 H 39.0325 5.46271 0.793244 0
M  V30 353 H 39.5095 4.04152 1.71923 0
M  V30 354 H 40.1155 4.25257 0.0604027 0
M  V30 355 N 38.4306 0.297415 1.54768 0
M  V30 356 C 39.6556 -0.318435 2.04941 0
M  V30 357 C 40.0806 -1.4701 1.17345 0
M  V30 358 O 39.4386 -1.80436 0.176758 0
M  V30 359 C 39.4866 -0.755749 3.52592 0
M  V30 360 O 38.5906 -1.86088 3.68028 0
M  V30 361 H 37.9316 -0.062421 0.661059 0
M  V30 362 H 40.4616 0.438215 1.99852 0
M  V30 363 H 40.4716 -1.04552 3.94376 0
M  V30 364 H 39.1466 0.0867233 4.1581 0
M  V30 365 H 37.7236 -1.57193 3.38149 0
M  V30 366 N 39.9087 -1.5758 0.0250728 0
M  V30 367 C 40.8717 -2.08896 -0.943139 0
M  V30 368 C 41.8717 -1.00321 -1.25668 0
M  V30 369 O 43.0617 -1.26495 -1.19769 0
M  V30 370 C 40.1937 -2.55143 -2.26086 0
M  V30 371 H 41.3867 -2.95723 -0.498775 0
M  V30 372 H 38.9397 -1.54703 -0.222888 0
M  V30 373 H 39.6747 -1.71633 -2.75159 0
M  V30 374 H 39.4597 -3.34461 -2.04641 0
M  V30 375 H 40.9497 -2.95083 -2.95492 0
M  V30 376 N 41.3868 0.248026 -1.55636 0
M  V30 377 C 42.6328 0.97767 -1.77678 0
M  V30 378 C 42.9658 1.85016 -0.590135 0
M  V30 379 O 42.2408 1.90095 0.411611 0
M  V30 380 C 42.5238 1.83914 -3.09593 0
M  V30 381 C 42.3768 0.99491 -4.38659 0
M  V30 382 C 43.6958 2.82183 -3.37729 0
M  V30 383 H 40.8148 0.354005 -0.646413 0
M  V30 384 H 43.4568 0.248253 -1.88371 0
M  V30 385 H 41.6068 2.46104 -3.00608 0
M  V30 386 H 43.2788 0.391789 -4.59633 0
M  V30 387 H 41.5218 0.299231 -4.32767 0
M  V30 388 H 42.1928 1.63145 -5.2734 0
M  V30 389 H 44.6688 2.30129 -3.4667 0
M  V30 390 H 43.5448 3.39582 -4.31249 0
M  V30 391 H 43.8058 3.58588 -2.58586 0
M  V30 392 N 42.8649 1.48995 0.513639 0
M  V30 393 C 44.2759 1.5119 1.09537 0
M  V30 394 C 44.6269 0.290906 1.94031 0
M  V30 395 O 43.7519 -0.60049 2.07902 0
M  V30 396 C 44.3469 2.73964 1.99322 0
M  V30 397 C 42.9059 2.78978 2.52682 0
M  V30 398 C 42.0529 2.44934 1.30009 0
M  V30 399 H 45.0039 1.55875 0.298125 0
M  V30 400 H 45.0249 2.53409 2.83838 0
M  V30 401 H 44.5369 3.62813 1.37799 0
M  V30 402 H 42.6379 1.94378 3.1788 0
M  V30 403 H 42.7509 3.8083 2.90698 0
M  V30 404 H 41.1149 1.9644 1.62122 0
M  V30 405 H 41.8979 3.36043 0.702131 0
M  V30 406 N 44.343 -0.763751 1.37857 0
M  V30 407 C 45.754 -1.3405 1.29952 0
M  V30 408 C 46.105 -1.96138 -0.0492898 0
M  V30 409 O 45.23 -1.94372 -0.951239 0
M  V30 410 C 45.825 -2.43729 2.35333 0
M  V30 411 C 44.384 -2.97151 2.31037 0
M  V30 412 C 43.531 -1.70438 2.18738 0
M  V30 413 H 46.482 -0.563396 1.48363 0
M  V30 414 H 46.503 -3.23412 2.00462 0
M  V30 415 H 46.015 -1.9851 3.33489 0
M  V30 416 H 44.116 -3.46724 1.3643 0
M  V30 417 H 44.229 -3.52221 3.24772 0
M  V30 418 H 42.593 -1.93673 1.65418 0
M  V30 419 H 43.376 -1.27312 3.18821 0
M  V30 420 N 45.8211 -1.22559 -0.990812 0
M  V30 421 C 47.0461 -1.07862 -1.77145 0
M  V30 422 C 47.4711 0.366447 -1.84496 0
M  V30 423 O 46.8291 1.26478 -1.29896 0
M  V30 424 C 46.8771 -1.69686 -3.18181 0
M  V30 425 O 45.9811 -0.951946 -4.01263 0
M  V30 426 H 45.3221 -0.378712 -0.545411 0
M  V30 427 H 47.8521 -1.62399 -1.2445 0
M  V30 428 H 47.8621 -1.74496 -3.68802 0
M  V30 429 H 46.5371 -2.74841 -3.12146 0
M  V30 430 H 45.1141 -0.980011 -3.59792 0
M  V30 431 N 47.2992 1.18797 -1.03562 0
M  V30 432 C 48.5472 1.88278 -0.734569 0
M  V30 433 C 48.8682 1.8043 0.739586 0
M  V30 434 O 48.1382 1.21925 1.53333 0
M  V30 435 H 46.7182 0.696991 -0.268725 0
M  V30 436 H 49.3802 1.44192 -1.31129 0
M  V30 437 H 48.4762 2.94443 -1.03489 0
M  V30 438 N 48.7773 0.814389 1.34928 0
M  V30 439 C 49.7403 0.235759 2.27984 0
M  V30 440 C 50.7403 -0.581412 1.49921 0
M  V30 441 O 51.9303 -0.398758 1.69575 0
M  V30 442 C 49.0623 -0.670433 3.34242 0
M  V30 443 H 50.2553 1.05659 2.80671 0
M  V30 444 H 47.8083 0.585614 1.44915 0
M  V30 445 H 48.5433 -1.51466 2.86755 0
M  V30 446 H 48.3283 -0.0860822 3.92005 0
M  V30 447 H 49.8183 -1.06935 4.03676 0
M  V30 448 N 50.2554 -1.46986 0.568584 0
M  V30 449 C 51.4804 -2.07335 0.0520528 0
M  V30 450 C 51.9054 -1.41675 -1.23733 0
M  V30 451 O 51.2634 -0.495623 -1.74394 0
M  V30 452 C 51.3114 -3.60417 -0.11501 0
M  V30 453 O 50.4154 -3.95309 -1.17492 0
M  V30 454 H 49.7564 -0.661597 0.0564385 0
M  V30 455 H 52.2864 -1.88837 0.787507 0
M  V30 456 H 52.2964 -4.06698 -0.325644 0
M  V30 457 H 50.9714 -4.07601 0.826675 0
M  V30 458 H 49.5484 -3.60757 -0.943869 0
M  V30 459 N 51.7335 -0.305618 -1.54608 0
M  V30 460 C 53.1445 0.186098 -1.8577 0
M  V30 461 C 53.4955 1.53058 -1.22751 0
M  V30 462 O 52.6205 2.09888 -0.526893 0
M  V30 463 C 53.2155 0.344449 -3.37044 0
M  V30 464 C 51.7745 0.780384 -3.68221 0
M  V30 465 C 50.9215 -0.108554 -2.77087 0
M  V30 466 H 53.8725 -0.526485 -1.49712 0
M  V30 467 H 53.8935 1.17828 -3.61796 0
M  V30 468 H 53.4055 -0.634235 -3.82883 0
M  V30 469 H 51.5065 1.76945 -3.27904 0
M  V30 470 H 51.6195 0.596572 -4.75371 0
M  V30 471 H 49.9835 0.412931 -2.5133 0
M  V30 472 H 50.7665 -1.08368 -3.25747 0
M  V30 473 N 53.2116 1.57565 -0.0334293 0
M  V30 474 C 54.1746 2.09393 0.932048 0
M  V30 475 C 55.1746 1.00986 1.25134 0
M  V30 476 O 56.3646 1.27129 1.19096 0
M  V30 477 C 53.4966 2.56338 2.2473 0
M  V30 478 H 54.6896 2.95984 0.483085 0
M  V30 479 H 52.2426 1.54819 0.21468 0
M  V30 480 H 52.9776 1.7309 2.74245 0
M  V30 481 H 52.7626 3.35542 2.02865 0
M  V30 482 H 54.2526 2.96646 2.93923 0
M  V30 483 N 54.6897 -0.239769 1.55765 0
M  V30 484 C 55.6197 -1.30052 1.9393 0
M  V30 485 C 56.6007 -1.49839 0.805132 0
M  V30 486 O 57.7857 -1.62328 1.06599 0
M  V30 487 C 54.9157 -2.65391 2.2402 0
M  V30 488 C 53.8697 -2.60289 3.39755 0
M  V30 489 C 53.1957 -3.99489 3.55405 0
M  V30 490 C 54.4957 -2.16654 4.75246 0
M  V30 491 H 56.1897 -0.983573 2.82783 0
M  V30 492 H 53.7357 -0.471701 1.36055 0
M  V30 493 H 55.6887 -3.3974 2.49308 0
M  V30 494 H 54.4127 -2.98736 1.32 0
M  V30 495 H 53.0717 -1.88398 3.14487 0
M  V30 496 H 52.7197 -4.30112 2.60793 0
M  V30 497 H 52.4197 -3.96962 4.33238 0
M  V30 498 H 53.9437 -4.75528 3.83022 0
M  V30 499 H 55.3577 -2.80737 4.99859 0
M  V30 500 H 53.7547 -2.25223 5.56232 0
M  V30 501 H 54.8247 -1.11835 4.71827 0
M  V30 502 N 56.1678 -1.49265 -0.50573 0
M  V30 503 C 57.5788 -1.51769 -1.08734 0
M  V30 504 C 57.9298 -0.301192 -1.93874 0
M  V30 505 O 57.0548 0.589456 -2.08217 0
M  V30 506 C 57.6498 -2.75017 -1.97867 0
M  V30 507 C 56.2088 -2.80314 -2.51199 0
M  V30 508 C 55.3558 -2.4562 -1.28709 0
M  V30 509 H 58.3068 -1.56031 -0.289855 0
M  V30 510 H 58.3278 -2.5491 -2.82491 0
M  V30 511 H 57.8398 -3.63539 -1.35873 0
M  V30 512 H 55.9408 -1.96061 -3.16845 0
M  V30 513 H 56.0538 -3.82366 -2.88675 0
M  V30 514 H 54.4178 -1.97297 -1.61078 0
M  V30 515 H 55.2008 -3.36411 -0.6843 0
M  V30 516 N 57.6459 0.756429 -1.3826 0
M  V30 517 C 58.8949 1.51082 -1.3363 0
M  V30 518 C 59.2079 1.95467 0.0720068 0
M  V30 519 O 60.4139 2.7043 0.240834 0
M  V30 520 C 58.8699 2.72893 -2.34644 0
M  V30 521 C 58.4779 2.35544 -3.81081 0
M  V30 522 C 60.2219 3.50791 -2.39052 0
M  V30 523 C 58.1289 3.53948 -4.73787 0
M  V30 524 H 57.0589 0.56727 -0.49671 0
M  V30 525 H 59.7099 0.827147 -1.638 0
M  V30 526 H 58.0919 3.43227 -1.97513 0
M  V30 527 H 59.2659 1.72894 -4.27135 0
M  V30 528 H 57.5809 1.70786 -3.79764 0
M  V30 529 H 60.1779 4.38823 -3.05513 0
M  V30 530 H 60.5209 3.91745 -1.40861 0
M  V30 531 H 61.0539 2.87467 -2.74968 0
M  V30 532 H 57.7929 3.18064 -5.73163 0
M  V30 533 H 57.3129 4.15651 -4.32428 0
M  V30 534 H 58.9919 4.20566 -4.91663 0
M  V30 535 N 59.124 1.23083 0.984299 0
M  V30 536 C 60.371 1.06057 1.72505 0
M  V30 537 C 60.699 -0.403105 1.90277 0
M  V30 538 O 59.954 -1.3149 1.44944 0
M  V30 539 C 60.253 1.72673 3.1292 0
M  V30 540 C 59.919 3.22586 3.15038 0
M  V30 541 C 58.581 3.63489 3.15324 0
M  V30 542 C 60.933 4.185 3.10657 0
M  V30 543 C 58.261 4.98772 3.08939 0
M  V30 544 C 60.613 5.53769 3.05814 0
M  V30 545 C 59.277 5.94041 3.04419 0
M  V30 546 H 58.547 0.388091 0.631242 0
M  V30 547 H 61.194 1.52963 1.15215 0
M  V30 548 H 59.499 1.18116 3.73572 0
M  V30 549 H 61.196 1.56982 3.68996 0
M  V30 550 H 57.786 2.90022 3.15571 0
M  V30 551 H 61.97 3.87911 3.09579 0
M  V30 552 H 57.226 5.29193 3.0621 0
M  V30 553 H 61.4 6.27808 3.0138 0
M  V30 554 H 59.027 6.98833 2.99227 0
M  V30 555 N 60.6021 -1.18246 1.0419 0
M  V30 556 C 61.8271 -1.92736 0.765996 0
M  V30 557 C 62.2521 -1.75728 -0.67091 0
M  V30 558 O 61.6101 -1.06825 -1.46486 0
M  V30 559 C 61.6581 -3.42148 1.13875 0
M  V30 560 O 60.7621 -4.11548 0.264954 0
M  V30 561 H 60.1031 -0.601238 0.281797 0
M  V30 562 H 62.6331 -1.49942 1.39207 0
M  V30 563 H 62.6431 -3.92858 1.1012 0
M  V30 564 H 61.3181 -3.53848 2.18551 0
M  V30 565 H 59.8951 -3.71137 0.362226 0
M  V30 566 N 62.0802 -0.821533 -1.34494 0
M  V30 567 C 63.0132 -0.187704 -2.27427 0
M  V30 568 C 63.9912 0.65507 -1.48821 0
M  V30 569 O 65.1752 0.619111 -1.78043 0
M  V30 570 C 62.3022 0.737996 -3.30562 0
M  V30 571 C 61.3482 -0.0270713 -4.26491 0
M  V30 572 S 62.1812 -1.37329 -5.17592 0
M  V30 573 C 63.3372 -0.452427 -6.24263 0
M  V30 574 H 63.5702 -0.975598 -2.80837 0
M  V30 575 H 61.1032 -0.61736 -1.4152 0
M  V30 576 H 63.0612 1.26654 -3.90473 0
M  V30 577 H 61.7222 1.4994 -2.76001 0
M  V30 578 H 60.9152 0.6766 -4.99438 0
M  V30 579 H 60.5172 -0.48612 -3.70827 0
M  V30 580 H 62.8092 0.356557 -6.76561 0
M  V30 581 H 63.7522 -1.15153 -6.98674 0
M  V30 582 H 64.1602 -0.0414755 -5.64485 0
M  V30 583 N 63.5583 1.46682 -0.576371 0
M  V30 584 C 64.7863 2.06798 -0.0649635 0
M  V30 585 C 65.2013 1.42612 1.23723 0
M  V30 586 O 64.5583 0.529203 1.74659 0
M  V30 587 C 64.6093 3.6132 0.114202 0
M  V30 588 O 64.3303 4.23104 -1.13644 0
M  V30 589 C 65.8313 4.38349 0.66069 0
M  V30 590 H 63.0513 0.668778 -0.0545616 0
M  V30 591 H 65.5953 1.88404 -0.795237 0
M  V30 592 H 63.7503 3.79162 0.794673 0
M  V30 593 H 64.1643 5.15894 -0.946253 0
M  V30 594 H 65.6383 5.47081 0.73526 0
M  V30 595 H 66.1153 4.05953 1.67627 0
M  V30 596 H 66.7213 4.25297 0.0152951 0
M  V30 597 N 65.0364 0.313813 1.54444 0
M  V30 598 C 65.9664 -0.549454 2.26943 0
M  V30 599 C 66.9474 -1.12741 1.27372 0
M  V30 600 O 68.1324 -1.15436 1.56167 0
M  V30 601 C 65.2624 -1.71523 3.01989 0
M  V30 602 C 64.2164 -1.26703 4.08816 0
M  V30 603 C 63.5424 -2.51898 4.71647 0
M  V30 604 C 64.8424 -0.388962 5.2085 0
M  V30 605 H 66.5364 0.0552661 2.99349 0
M  V30 606 H 64.0824 0.0280207 1.43973 0
M  V30 607 H 66.0354 -2.32535 3.51433 0
M  V30 608 H 64.7594 -2.34639 2.27183 0
M  V30 609 H 63.4184 -0.679896 3.6024 0
M  V30 610 H 63.0664 -3.13356 3.93468 0
M  V30 611 H 62.7664 -2.22605 5.43802 0
M  V30 612 H 64.2904 -3.1369 5.23861 0
M  V30 613 H 65.7044 -0.905107 5.6611 0
M  V30 614 H 64.1014 -0.18924 5.99802 0
M  V30 615 H 65.1714 0.582699 4.81386 0
M  V30 616 N 66.5145 -1.57545 0.0417849 0
M  V30 617 C 67.7625 -1.91937 -0.632829 0
M  V30 618 C 68.0835 -0.919978 -1.71934 0
M  V30 619 O 67.3535 0.0366064 -1.95866 0
M  V30 620 H 65.9335 -0.708493 -0.236742 0
M  V30 621 H 68.5955 -1.9468 0.0925745 0
M  V30 622 H 67.6915 -2.92912 -1.07746 0
M  V30 623 N 67.9926 0.231505 -1.5589 0
M  V30 624 C 68.9556 1.27028 -1.90779 0
M  V30 625 C 69.9556 1.40308 -0.785507 0
M  V30 626 O 71.1456 1.38744 -1.05336 0
M  V30 627 C 68.2776 2.64566 -2.14983 0
M  V30 628 H 69.4706 0.973017 -2.83677 0
M  V30 629 H 67.0236 0.471486 -1.49019 0
M  V30 630 H 67.7586 2.99406 -1.24604 0
M  V30 631 H 67.5436 2.56305 -2.96732 0
M  V30 632 H 69.0336 3.39543 -2.43105 0
M  V30 633 N 69.4707 1.49531 0.497807 0
M  V30 634 C 70.7167 1.59415 1.25358 0
M  V30 635 C 71.0497 0.281422 1.9215 0
M  V30 636 O 70.3247 -0.715249 1.80871 0
M  V30 637 C 70.6077 2.75566 2.3181 0
M  V30 638 C 70.4607 4.16642 1.69498 0
M  V30 639 C 71.7797 2.87347 3.33346 0
M  V30 640 H 68.8987 0.580244 0.454408 0
M  V30 641 H 71.5407 1.81827 0.551262 0
M  V30 642 H 69.6907 2.56587 2.91711 0
M  V30 643 H 71.3627 4.47145 1.13399 0
M  V30 644 H 69.6057 4.22141 0.998978 0
M  V30 645 H 70.2767 4.93792 2.46725 0
M  V30 646 H 72.7527 3.04634 2.83438 0
M  V30 647 H 71.6287 3.70289 4.05188 0
M  V30 648 H 71.8897 1.96834 3.95865 0
M  V30 649 N 70.9488 -0.749086 1.3866 0
M  V30 650 C 72.1738 -1.54344 1.38538 0
M  V30 651 C 72.5988 -1.88088 -0.0216655 0
M  V30 652 O 71.9568 -1.50899 -1.00494 0
M  V30 653 C 72.0048 -2.8164 2.25192 0
M  V30 654 O 71.1088 -3.7698 1.67212 0
M  V30 655 H 70.4498 -0.466654 0.472367 0
M  V30 656 H 72.9798 -0.925355 1.82478 0
M  V30 657 H 72.9898 -3.30519 2.3921 0
M  V30 658 H 71.6648 -2.56411 3.27454 0
M  V30 659 H 70.2418 -3.35699 1.6236 0
M  V30 660 N 72.4269 -1.23603 -0.977757 0
M  V30 661 C 73.3749 -1.01704 -2.09187 0
M  V30 662 C 74.3689 0.0448214 -1.69341 0
M  V30 663 O 75.5749 -0.108902 -1.7967 0
M  V30 664 H 71.9499 -0.311803 -0.684312 0
M  V30 665 H 73.9209 -1.96207 -2.24823 0
M  V30 666 C 72.6699 -0.627746 -3.41986 0
M  V30 667 H 71.9929 -1.43656 -3.73099 0
M  V30 668 H 73.4329 -0.514053 -4.20872 0
M  V30 669 C 71.8919 0.664238 -3.30287 0
M  V30 670 O 72.4219 1.71268 -3.6336 0
M  V30 671 N 70.6279 0.641156 -2.83439 0
M  V30 672 H 70.1749 -0.212376 -2.56723 0
M  V30 673 H 70.1329 1.50583 -2.75993 0
M  V30 674 N 73.905 1.17692 -1.04816 0
M  V30 675 C 74.835 2.23777 -0.666791 0
M  V30 676 C 75.816 1.66796 0.33361 0
M  V30 677 O 77.001 1.93039 0.212042 0
M  V30 678 C 74.131 3.47281 -0.0367933 0
M  V30 679 C 73.085 4.17059 -0.961546 0
M  V30 680 C 72.411 5.34342 -0.195626 0
M  V30 681 C 73.711 4.69713 -2.28402 0
M  V30 682 H 75.405 2.55933 -1.55367 0
M  V30 683 H 72.951 1.23019 -0.748484 0
M  V30 684 H 74.904 4.20706 0.241775 0
M  V30 685 H 73.628 3.14381 0.885004 0
M  V30 686 H 72.287 3.45541 -1.22462 0
M  V30 687 H 71.935 4.97692 0.728816 0
M  V30 688 H 71.635 5.81966 -0.811775 0
M  V30 689 H 73.159 6.10553 0.0757473 0
M  V30 690 H 74.573 5.34794 -2.06563 0
M  V30 691 H 72.97 5.279 -2.8538 0
M  V30 692 H 74.04 3.86726 -2.92525 0
M  V30 693 N 75.3831 0.828654 1.34056 0
M  V30 694 C 76.3131 0.269443 2.3194 0
M  V30 695 C 77.2941 -0.617247 1.58506 0
M  V30 696 O 78.4791 -0.542931 1.86456 0
M  V30 697 C 75.6091 -0.564793 3.42677 0
M  V30 698 C 74.5631 0.225241 4.27407 0
M  V30 699 C 73.8891 -0.7321 5.29664 0
M  V30 700 C 75.1891 1.43663 5.02154 0
M  V30 701 H 76.8831 1.08728 2.7896 0
M  V30 702 H 74.4291 0.524283 1.34117 0
M  V30 703 H 76.3821 -0.966233 4.10173 0
M  V30 704 H 75.1061 -1.41574 2.9432 0
M  V30 705 H 73.7651 0.608117 3.61521 0
M  V30 706 H 73.4131 -1.57916 4.77568 0
M  V30 707 H 73.1131 -0.20767 5.87233 0
M  V30 708 H 74.6371 -1.13128 6.00029 0
M  V30 709 H 76.0511 1.1089 5.62473 0
M  V30 710 H 74.4481 1.89711 5.69324 0
M  V30 711 H 75.5181 2.21181 4.31517 0
M  V30 712 N 76.8612 -1.46375 0.584142 0
M  V30 713 C 77.8242 -2.28784 -0.138108 0
M  V30 714 C 78.8242 -1.38471 -0.817462 0
M  V30 715 O 80.0142 -1.60833 -0.669199 0
M  V30 716 C 77.1462 -3.18892 -1.20503 0
M  V30 717 H 78.3392 -2.94117 0.586127 0
M  V30 718 H 75.8922 -1.52509 0.342171 0
M  V30 719 H 76.6272 -2.58309 -1.96079 0
M  V30 720 H 76.4122 -3.85388 -0.722384 0
M  V30 721 H 77.9022 -3.80914 -1.71155 0
M  V30 722 N 78.3393 -0.321999 -1.54275 0
M  V30 723 C 79.2693 0.537411 -2.27231 0
M  V30 724 C 80.2503 1.12064 -1.27968 0
M  V30 725 O 81.4353 1.14606 -1.56777 0
M  V30 726 C 78.5653 1.69919 -3.02894 0
M  V30 727 C 77.5193 1.24534 -4.09482 0
M  V30 728 C 76.8453 2.49394 -4.72977 0
M  V30 729 C 78.1453 0.361335 -5.21049 0
M  V30 730 H 79.8393 -0.0711406 -2.99315 0
M  V30 731 H 77.3853 -0.0356555 -1.43956 0
M  V30 732 H 79.3383 2.30668 -3.52662 0
M  V30 733 H 78.0623 2.33431 -2.28424 0
M  V30 734 H 76.7213 0.660782 -3.60596 0
M  V30 735 H 76.3693 3.11265 -3.95124 0
M  V30 736 H 76.0693 2.19718 -5.44975 0
M  V30 737 H 77.5933 3.10908 -5.25517 0
M  V30 738 H 79.0073 0.875072 -5.66582 0
M  V30 739 H 77.4043 0.157428 -5.99893 0
M  V30 740 H 78.4743 -0.60822 -4.8107 0
M  V30 741 N 79.8174 1.5752 -0.0501392 0
M  V30 742 C 80.7804 2.1037 0.909786 0
M  V30 743 C 81.7804 1.02308 1.24056 0
M  V30 744 O 82.9704 1.28385 1.17741 0
M  V30 745 C 80.1024 2.58708 2.21998 0
M  V30 746 H 81.2954 2.96479 0.451665 0
M  V30 747 H 78.8484 1.55038 0.198248 0
M  V30 748 H 79.5834 1.75989 2.72394 0
M  V30 749 H 79.3684 3.37675 1.99295 0
M  V30 750 H 80.8584 2.99747 2.9076 0
M  V30 751 N 81.2955 -0.223234 1.56011 0
M  V30 752 C 82.2255 -1.27988 1.95298 0
M  V30 753 C 83.2065 -1.48976 0.820979 0
M  V30 754 O 84.3915 -1.61188 1.08315 0
M  V30 755 C 81.5215 -2.63 2.26822 0
M  V30 756 C 80.4755 -2.56671 3.42497 0
M  V30 757 C 79.8015 -3.95697 3.59622 0
M  V30 758 C 81.1015 -2.11601 4.77517 0
M  V30 759 H 82.7955 -0.953525 2.8381 0
M  V30 760 H 80.3415 -0.457244 1.36548 0
M  V30 761 H 82.2945 -3.37077 2.52898 0
M  V30 762 H 81.0185 -2.9732 1.35161 0
M  V30 763 H 79.6775 -1.85051 3.16467 0
M  V30 764 H 79.3255 -4.27322 2.6534 0
M  V30 765 H 79.0255 -3.92345 4.37424 0
M  V30 766 H 80.5495 -4.71438 3.88044 0
M  V30 767 H 81.9635 -2.7542 5.02809 0
M  V30 768 H 80.3605 -2.19311 5.5859 0
M  V30 769 H 81.4305 -1.06824 4.72987 0
M  V30 770 N 82.7736 -1.49793 -0.48987 0
M  V30 771 C 83.7036 -1.70201 -1.59856 0
M  V30 772 C 84.6846 -0.55076 -1.60937 0
M  V30 773 O 85.8696 -0.787841 -1.77501 0
M  V30 774 C 82.9996 -1.77882 -2.98287 0
M  V30 775 C 81.9536 -2.92907 -3.12073 0
M  V30 776 C 81.2796 -2.85712 -4.51965 0
M  V30 777 C 82.5796 -4.3369 -2.91051 0
M  V30 778 H 84.2736 -2.63025 -1.43032 0
M  V30 779 H 81.8196 -1.26574 -0.686664 0
M  V30 780 H 83.7726 -1.90744 -3.75759 0
M  V30 781 H 82.4966 -0.816653 -3.16225 0
M  V30 782 H 81.1556 -2.79665 -2.37029 0
M  V30 783 H 80.8036 -1.8738 -4.66795 0
M  V30 784 H 80.5036 -3.62921 -4.62128 0
M  V30 785 H 82.0276 -3.00598 -5.31482 0
M  V30 786 H 83.4416 -4.47555 -3.58284 0
M  V30 787 H 81.8386 -5.12205 -3.12675 0
M  V30 788 H 82.9086 -4.47362 -1.87071 0
M  V30 789 N 84.2517 0.741722 -1.39055 0
M  V30 790 C 85.2147 1.83733 -1.37021 0
M  V30 791 C 86.2147 1.58542 -0.268534 0
M  V30 792 O 87.4047 1.66067 -0.526076 0
M  V30 793 C 84.5367 3.2141 -1.13617 0
M  V30 794 H 85.7297 1.86941 -2.34506 0
M  V30 795 H 83.2827 0.944676 -1.24521 0
M  V30 796 H 84.0177 3.23865 -0.167863 0
M  V30 797 H 83.8027 3.4109 -1.93391 0
M  V30 798 H 85.2927 4.01477 -1.14918 0
M  V30 799 N 85.7298 1.2412 0.971189 0
M  V30 800 C 86.6618 0.988349 2.06795 0
M  V30 801 C 87.6748 -0.0409541 1.62748 0
M  V30 802 O 88.8638 0.195673 1.77424 0
M  V30 803 C 85.9638 0.469023 3.35639 0
M  V30 804 C 85.1368 1.56065 4.08611 0
M  V30 805 C 84.1958 1.04458 5.15728 0
M  V30 806 O 83.2218 1.73553 5.42096 0
M  V30 807 N 84.4238 -0.122817 5.8037 0
M  V30 808 H 87.1888 1.93265 2.29061 0
M  V30 809 H 84.7498 1.15102 1.13856 0
M  V30 810 H 86.7418 0.108613 4.04554 0
M  V30 811 H 85.3118 -0.380919 3.1027 0
M  V30 812 H 84.5318 2.09341 3.34021 0
M  V30 813 H 85.8198 2.29449 4.54126 0
M  V30 814 H 85.2178 -0.700563 5.61345 0
M  V30 815 H 83.7748 -0.424404 6.50417 0
M  V30 816 N 87.2079 -1.17134 1.05439 0
M  V30 817 C 88.1709 -2.19439 0.661764 0
M  V30 818 C 89.1709 -1.58199 -0.288042 0
M  V30 819 O 90.3609 -1.74053 -0.0715803 0
M  V30 820 C 87.4929 -3.40889 -0.0276209 0
M  V30 821 H 88.6859 -2.55688 1.56728 0
M  V30 822 H 86.2389 -1.31259 0.848567 0
M  V30 823 H 86.9739 -3.10187 -0.94629 0
M  V30 824 H 86.7589 -3.86586 0.655238 0
M  V30 825 H 88.2489 -4.16603 -0.288342 0
M  V30 826 N 88.686 -0.835752 -1.33615 0
M  V30 827 C 89.649 -0.272 -2.2758 0
M  V30 828 C 90.649 0.557487 -1.50827 0
M  V30 829 O 91.839 0.37173 -1.70188 0
M  V30 830 C 88.971 0.617173 -3.35267 0
M  V30 831 H 90.164 -1.10111 -2.78954 0
M  V30 832 H 87.717 -0.608594 -1.43965 0
M  V30 833 H 88.452 1.46884 -2.89129 0
M  V30 834 H 88.237 0.0237066 -3.92093 0
M  V30 835 H 89.727 1.005 -4.05326 0
M  V30 836 N 90.1641 1.46063 -0.591896 0
M  V30 837 C 91.4121 2.01938 -0.0808391 0
M  V30 838 C 91.7331 1.46475 1.28725 0
M  V30 839 O 91.0031 0.652944 1.84698 0
M  V30 840 H 89.5831 0.746516 -0.0268938 0
M  V30 841 H 92.2451 1.79055 -0.769752 0
M  V30 842 H 91.3411 3.12094 -0.0187578 0
M  V30 843 N 91.6422 0.330177 1.54103 0
M  V30 844 C 93.0582 -0.0222371 1.59585 0
M  V30 845 C 93.2582 -1.49902 1.34654 0
M  V30 846 O 92.3142 -2.25592 1.13421 0
M  V30 847 C 93.6272 0.401932 2.98002 0
M  V30 848 C 95.1752 0.353145 3.11001 0
M  V30 849 C 95.6502 0.752576 4.51775 0
M  V30 850 N 97.1412 0.706239 4.57784 0
M  V30 851 C 97.8762 0.987417 5.64834 0
M  V30 852 N 97.3722 1.33607 6.79795 0
M  V30 853 N 99.1652 0.91254 5.54643 0
M  V30 854 H 91.3162 1.29228 1.68564 0
M  V30 855 H 93.5792 0.525906 0.78875 0
M  V30 856 H 93.2852 1.4311 3.21267 0
M  V30 857 H 93.1592 -0.229699 3.765 0
M  V30 858 H 95.5462 -0.666822 2.87467 0
M  V30 859 H 95.6272 1.0198 2.34593 0
M  V30 860 H 95.2712 1.77049 4.76042 0
M  V30 861 H 95.2012 0.0635409 5.26562 0
M  V30 862 H 97.6922 0.44889 3.75224 0
M  V30 863 H 98.0052 1.53582 7.57385 0
M  V30 864 H 96.3502 1.37439 6.81275 0
M  V30 865 H 99.5412 0.639601 4.6371 0
M  V30 866 H 99.7142 1.13503 6.37982 0
M  V30 867 N 93.1203 -1.57491 0.0584922 0
M  V30 868 C 94.0503 -2.14988 -0.911178 0
M  V30 869 C 95.0313 -1.07343 -1.31952 0
M  V30 870 O 96.2163 -1.35318 -1.39294 0
M  V30 871 C 93.3463 -2.70078 -2.18347 0
M  V30 872 C 92.3003 -3.82771 -1.91495 0
M  V30 873 C 91.6263 -4.24408 -3.25241 0
M  V30 874 C 92.9263 -5.07592 -1.23075 0
M  V30 875 H 94.6203 -2.96263 -0.432246 0
M  V30 876 H 92.1663 -1.42512 -0.206469 0
M  V30 877 H 94.1193 -3.08943 -2.86587 0
M  V30 878 H 92.8433 -1.86005 -2.68458 0
M  V30 879 H 91.5023 -3.44389 -1.25664 0
M  V30 880 H 91.1503 -3.37275 -3.73168 0
M  V30 881 H 90.8503 -5.00366 -3.08071 0
M  V30 882 H 92.3743 -4.65879 -3.94701 0
M  V30 883 H 93.7883 -5.43857 -1.81362 0
M  V30 884 H 92.1853 -5.88741 -1.16207 0
M  V30 885 H 93.2553 -4.84454 -0.207847 0
M  V30 886 N 94.5984 0.214957 -1.56127 0
M  V30 887 C 96.0144 0.564948 -1.49267 0
M  V30 888 C 96.2144 1.86827 -0.754838 0
M  V30 889 O 95.2704 2.50745 -0.297198 0
M  V30 890 C 96.5834 0.638071 -2.93852 0
M  V30 891 C 98.1314 0.728253 -3.0441 0
M  V30 892 C 98.6064 0.832663 -4.50367 0
M  V30 893 N 100.097 0.896712 -4.54437 0
M  V30 894 C 100.832 0.997324 -5.6466 0
M  V30 895 N 100.328 1.06147 -6.8462 0
M  V30 896 N 102.121 1.03297 -5.52527 0
M  V30 897 H 94.2724 -0.640211 -2.02522 0
M  V30 898 H 96.5354 -0.225507 -0.920788 0
M  V30 899 H 96.2414 -0.250126 -3.50809 0
M  V30 900 H 96.1154 1.49947 -3.46115 0
M  V30 901 H 98.5024 1.60689 -2.47514 0
M  V30 902 H 98.5834 -0.158952 -2.55306 0
M  V30 903 H 98.2274 -0.0415417 -5.07883 0
M  V30 904 H 98.1574 1.73538 -4.97184 0
M  V30 905 H 100.648 0.857188 -3.6805 0
M  V30 906 H 100.961 1.1382 -7.64372 0
M  V30 907 H 99.3064 1.03049 -6.87318 0
M  V30 908 H 102.497 0.979558 -4.57736 0
M  V30 909 H 102.67 1.10793 -6.38458 0
M  V30 910 N 96.0765 1.50051 0.48192 0
M  V30 911 C 97.4925 1.37237 0.814756 0
M  V30 912 C 97.6925 0.420109 1.97072 0
M  V30 913 O 96.7485 -0.141246 2.52105 0
M  V30 914 C 98.0615 2.78375 1.13701 0
M  V30 915 C 99.6095 2.87213 1.2441 0
M  V30 916 C 100.084 4.29161 1.59954 0
M  V30 917 N 101.575 4.32061 1.66967 0
M  V30 918 C 102.31 5.38879 1.95952 0
M  V30 919 N 101.806 6.55918 2.23031 0
M  V30 920 N 103.599 5.26312 1.97363 0
M  V30 921 H 95.7505 2.10546 -0.28005 0
M  V30 922 H 98.0135 0.945921 -0.0627454 0
M  V30 923 H 97.7195 3.49845 0.360787 0
M  V30 924 H 97.5935 3.14941 2.07586 0
M  V30 925 H 99.9805 2.15969 2.01101 0
M  V30 926 H 100.061 2.54204 0.285299 0
M  V30 927 H 99.7055 5.00938 0.838067 0
M  V30 928 H 99.6355 4.59648 2.56966 0
M  V30 929 H 102.126 3.47661 1.48123 0
M  V30 930 H 102.439 7.33139 2.44391 0
M  V30 931 H 100.784 6.59112 2.20447 0
M  V30 932 H 103.975 4.33876 1.75697 0
M  V30 933 H 104.148 6.09649 2.19618 0
M  V30 934 N 97.5546 -0.734337 1.39446 0
M  V30 935 C 98.9706 -1.03997 1.21065 0
M  V30 936 C 99.1706 -2.01369 0.0727019 0
M  V30 937 O 98.2266 -2.45856 -0.575426 0
M  V30 938 C 99.5396 -1.60163 2.54496 0
M  V30 939 C 101.088 -1.7224 2.61347 0
M  V30 940 C 101.563 -2.31814 3.95002 0
M  V30 941 N 103.054 -2.39223 3.96644 0
M  V30 942 C 103.789 -2.86258 4.96834 0
M  V30 943 N 103.285 -3.33184 6.07421 0
M  V30 944 N 105.078 -2.85473 4.84213 0
M  V30 945 H 97.2286 -0.0885624 2.12215 0
M  V30 946 H 99.4916 -0.10191 0.942506 0
M  V30 947 H 99.1976 -0.960811 3.38321 0
M  V30 948 H 99.0716 -2.5896 2.74262 0
M  V30 949 H 101.459 -2.35443 1.77906 0
M  V30 950 H 101.54 -0.720939 2.4543 0
M  V30 951 H 101.184 -1.69238 4.78875 0
M  V30 952 H 101.114 -3.32638 4.08239 0
M  V30 953 H 103.605 -2.06057 3.16779 0
M  V30 954 H 103.918 -3.67586 6.7978 0
M  V30 955 H 102.263 -3.31191 6.11013 0
M  V30 956 H 105.454 -2.48136 3.96921 0
M  V30 957 H 105.627 -3.21814 5.62441 0
M  V30 958 N 99.0327 -1.24633 -0.964593 0
M  V30 959 C 100.449 -1.01239 -1.2338 0
M  V30 960 C 100.649 0.2769 -1.99588 0
M  V30 961 O 99.7047 0.992241 -2.32187 0
M  V30 962 C 101.018 -2.22937 -2.01791 0
M  V30 963 C 102.566 -2.27594 -2.14872 0
M  V30 964 C 103.041 -3.48921 -2.96678 0
M  V30 965 N 104.532 -3.49257 -3.04259 0
M  V30 966 C 105.267 -4.39795 -3.67924 0
M  V30 967 N 104.763 -5.40591 -4.33281 0
M  V30 968 N 106.556 -4.275 -3.64966 0
M  V30 969 H 98.7067 -2.0748 -0.454502 0
M  V30 970 H 100.97 -0.910647 -0.26349 0
M  V30 971 H 100.676 -3.16587 -1.53184 0
M  V30 972 H 100.55 -2.25306 -3.02518 0
M  V30 973 H 102.937 -1.34473 -2.6268 0
M  V30 974 H 103.018 -2.2925 -1.13482 0
M  V30 975 H 102.662 -4.42359 -2.49562 0
M  V30 976 H 102.592 -3.4451 -3.98272 0
M  V30 977 H 105.083 -2.76337 -2.57771 0
M  V30 978 H 105.396 -6.05904 -4.79687 0
M  V30 979 H 103.741 -5.44475 -4.3194 0
M  V30 980 H 106.932 -3.47987 -3.13086 0
M  V30 981 H 107.105 -4.98258 -4.14298 0
M  V30 982 N 100.511 1.16574 -1.06058 0
M  V30 983 C 101.736 1.91493 -0.796562 0
M  V30 984 C 102.161 1.76773 0.642868 0
M  V30 985 O 101.519 1.09142 1.44768 0
M  V30 986 C 101.567 3.40293 -1.19303 0
M  V30 987 O 100.671 4.11074 -0.330394 0
M  V30 988 H 100.012 0.596678 -0.291326 0
M  V30 989 H 102.542 1.47708 -1.41575 0
M  V30 990 H 102.552 3.91057 -1.16356 0
M  V30 991 H 101.227 3.50326 -2.24153 0
M  V30 992 H 99.8038 3.70513 -0.421225 0
M  V30 993 N 101.989 0.842826 1.3317 0
M  V30 994 C 102.952 0.284065 2.27433 0
M  V30 995 C 103.952 -0.54948 1.5112 0
M  V30 996 O 105.142 -0.362699 1.70382 0
M  V30 997 C 102.274 -0.599384 3.35589 0
M  V30 998 H 103.467 1.11589 2.78366 0
M  V30 999 H 101.02 0.616221 1.4364 0
M  V30 1000 H 101.755 -1.45349 2.89904 0
M  V30 1001 H 101.54 -0.00291266 3.921 0
M  V30 1002 H 103.03 -0.983488 4.05854 0
M  V30 1003 N 103.467 -1.45747 0.599634 0
M  V30 1004 C 104.43 -2.28917 -0.113835 0
M  V30 1005 C 105.43 -1.3933 -0.802729 0
M  V30 1006 O 106.62 -1.61534 -0.652103 0
M  V30 1007 C 103.752 -3.20152 -1.17114 0
M  V30 1008 H 104.945 -2.93478 0.617289 0
M  V30 1009 H 102.498 -1.52137 0.358327 0
M  V30 1010 H 103.233 -2.60374 -1.93329 0
M  V30 1011 H 103.018 -3.86133 -0.681468 0
M  V30 1012 H 104.508 -3.82708 -1.67105 0
M  V30 1013 N 104.945 -0.338344 -1.53925 0
M  V30 1014 C 106.173 0.261298 -2.05243 0
M  V30 1015 C 106.588 1.44625 -1.21363 0
M  V30 1016 O 105.945 1.80811 -0.247736 0
M  V30 1017 C 105.996 0.681412 -3.5502 0
M  V30 1018 O 105.717 -0.456414 -4.35716 0
M  V30 1019 C 107.218 1.34232 -4.22489 0
M  V30 1020 H 104.438 0.0513685 -0.669031 0
M  V30 1021 H 106.982 -0.488822 -1.98572 0
M  V30 1022 H 105.137 1.38148 -3.61931 0
M  V30 1023 H 105.551 -0.122564 -5.24357 0
M  V30 1024 H 107.025 1.58708 -5.28693 0
M  V30 1025 H 107.502 2.29426 -3.74514 0
M  V30 1026 H 108.108 0.684424 -4.19757 0
M  V30 1027 N 106.423 1.57458 -0.0668435 0
M  V30 1028 C 107.67 1.93301 0.603406 0
M  V30 1029 C 107.998 0.946486 1.69917 0
M  V30 1030 O 107.253 -0.0387021 1.95662 0
M  V30 1031 C 107.552 3.35784 1.22409 0
M  V30 1032 C 107.218 4.50179 0.254955 0
M  V30 1033 C 105.88 4.81199 -0.0116746 0
M  V30 1034 C 108.232 5.19598 -0.408338 0
M  V30 1035 C 105.56 5.78978 -0.94877 0
M  V30 1036 C 107.912 6.18381 -1.33372 0
M  V30 1037 C 106.576 6.47821 -1.60887 0
M  V30 1038 H 105.846 0.707338 0.220802 0
M  V30 1039 H 108.493 1.91012 -0.136665 0
M  V30 1040 H 106.798 3.34515 2.03978 0
M  V30 1041 H 108.495 3.60804 1.74989 0
M  V30 1042 H 105.085 4.25983 0.472954 0
M  V30 1043 H 109.269 4.95832 -0.215456 0
M  V30 1044 H 104.525 6.00115 -1.16925 0
M  V30 1045 H 108.699 6.71277 -1.85367 0
M  V30 1046 H 106.326 7.23399 -2.33661 0
M  V30 1047 N 107.901 -0.206675 1.56239 0
M  V30 1048 C 108.831 -1.25909 1.96645 0
M  V30 1049 C 109.812 -1.48097 0.836734 0
M  V30 1050 O 110.997 -1.6003 1.10019 0
M  V30 1051 C 108.127 -2.6058 2.29599 0
M  V30 1052 C 107.081 -2.53024 3.452 0
M  V30 1053 C 106.407 -3.91861 3.63798 0
M  V30 1054 C 107.707 -2.06524 4.79734 0
M  V30 1055 H 109.401 -0.923369 2.84806 0
M  V30 1056 H 106.947 -0.442735 1.37025 0
M  V30 1057 H 108.9 -3.34375 2.56459 0
M  V30 1058 H 107.624 -2.95869 1.38307 0
M  V30 1059 H 106.283 -1.81684 3.18412 0
M  V30 1060 H 105.931 -4.24483 2.69857 0
M  V30 1061 H 105.631 -3.87683 4.4156 0
M  V30 1062 H 107.155 -4.67296 3.93022 0
M  V30 1063 H 108.569 -2.70072 5.05702 0
M  V30 1064 H 106.966 -2.13374 5.60885 0
M  V30 1065 H 108.036 -1.01802 4.74093 0
M  V30 1066 N 109.379 -1.50304 -0.473955 0
M  V30 1067 C 110.309 -1.71886 -1.58042 0
M  V30 1068 C 111.29 -0.567799 -1.60344 0
M  V30 1069 O 112.475 -0.806623 -1.76656 0
M  V30 1070 C 109.605 -1.81036 -2.96384 0
M  V30 1071 C 108.559 -2.962 -3.08949 0
M  V30 1072 C 107.885 -2.9049 -4.48909 0
M  V30 1073 C 109.185 -4.36752 -2.86434 0
M  V30 1074 H 110.879 -2.64527 -1.40234 0
M  V30 1075 H 108.425 -1.27295 -0.673201 0
M  V30 1076 H 110.378 -1.94719 -3.73714 0
M  V30 1077 H 109.102 -0.850147 -3.15341 0
M  V30 1078 H 107.761 -2.82164 -2.3405 0
M  V30 1079 H 107.409 -1.92321 -4.64781 0
M  V30 1080 H 107.109 -3.67802 -4.58253 0
M  V30 1081 H 108.633 -3.06218 -5.28264 0
M  V30 1082 H 110.047 -4.5133 -3.53517 0
M  V30 1083 H 108.444 -5.15493 -3.07225 0
M  V30 1084 H 109.514 -4.49321 -1.82316 0
M  V30 1085 N 110.857 0.726932 -1.39834 0
M  V30 1086 C 112.104 1.48664 -1.37496 0
M  V30 1087 C 112.432 1.94482 0.0264678 0
M  V30 1088 O 111.687 1.67692 1.00886 0
M  V30 1089 C 111.986 2.73495 -2.30077 0
M  V30 1090 C 111.652 2.46502 -3.77555 0
M  V30 1091 C 110.314 2.3885 -4.17737 0
M  V30 1092 C 112.666 2.23604 -4.70798 0
M  V30 1093 C 109.994 2.06352 -5.49214 0
M  V30 1094 C 112.346 1.92622 -6.02561 0
M  V30 1095 C 111.01 1.83444 -6.41798 0
M  V30 1096 H 110.28 0.544001 -0.503135 0
M  V30 1097 H 112.927 0.833657 -1.72402 0
M  V30 1098 H 111.232 3.43575 -1.88317 0
M  V30 1099 H 112.929 3.31549 -2.25558 0
M  V30 1100 H 109.519 2.5334 -3.45712 0
M  V30 1101 H 113.703 2.28479 -4.40581 0
M  V30 1102 H 108.959 1.97776 -5.78528 0
M  V30 1103 H 113.133 1.73914 -6.74334 0
M  V30 1104 H 110.76 1.58029 -7.43593 0
M  V30 1105 N 112.336 1.25143 0.95797 0
M  V30 1106 C 113.582 1.09855 1.70469 0
M  V30 1107 C 113.915 -0.360187 1.90831 0
M  V30 1108 O 113.19 -1.26568 1.47685 0
M  V30 1109 C 113.473 1.8497 3.08963 0
M  V30 1110 C 113.326 3.38652 2.96032 0
M  V30 1111 C 114.645 1.63016 4.08795 0
M  V30 1112 H 111.764 0.400465 0.618706 0
M  V30 1113 H 114.406 1.53933 1.11376 0
M  V30 1114 H 112.556 1.47505 3.59409 0
M  V30 1115 H 114.228 3.85772 2.52938 0
M  V30 1116 H 112.471 3.66534 2.32025 0
M  V30 1117 H 113.142 3.8642 3.94187 0
M  V30 1118 H 115.618 1.95625 3.67247 0
M  V30 1119 H 114.494 2.18015 5.03747 0
M  V30 1120 H 114.755 0.570692 4.38401 0
M  V30 1121 N 113.814 -1.1601 1.06675 0
M  V30 1122 C 114.777 -2.18724 0.685001 0
M  V30 1123 C 115.777 -1.58496 -0.271246 0
M  V30 1124 O 116.967 -1.74119 -0.0531156 0
M  V30 1125 C 114.099 -3.40899 0.00853648 0
M  V30 1126 H 115.292 -2.54011 1.59431 0
M  V30 1127 H 112.845 -1.30352 0.862441 0
M  V30 1128 H 113.58 -3.11173 -0.913337 0
M  V30 1129 H 113.365 -3.8587 0.696204 0
M  V30 1130 H 114.855 -4.16886 -0.24414 0
M  V30 1131 N 115.292 -0.849877 -1.32721 0
M  V30 1132 C 116.517 -0.463856 -2.02146 0
M  V30 1133 C 116.942 0.930449 -1.63476 0
M  V30 1134 O 116.3 1.61033 -0.832952 0
M  V30 1135 C 116.348 -0.604955 -3.55489 0
M  V30 1136 O 115.452 0.36425 -4.10788 0
M  V30 1137 H 114.793 -0.187046 -0.637111 0
M  V30 1138 H 117.323 -1.14775 -1.69375 0
M  V30 1139 H 117.333 -0.490696 -4.05038 0
M  V30 1140 H 116.008 -1.62174 -3.82978 0
M  V30 1141 H 114.585 0.206628 -3.72327 0
M  V30 1142 N 116.77 1.45427 -0.607355 0
M  V30 1143 C 117.7 2.3329 0.0989352 0
M  V30 1144 C 118.681 1.46816 0.859007 0
M  V30 1145 O 119.866 1.75588 0.829604 0
M  V30 1146 C 116.996 3.29518 1.09705 0
M  V30 1147 C 115.95 4.25626 0.450206 0
M  V30 1148 C 115.276 5.11542 1.55655 0
M  V30 1149 C 116.576 5.18505 -0.628455 0
M  V30 1150 H 118.27 2.92595 -0.634716 0
M  V30 1151 H 115.816 1.40696 -0.306681 0
M  V30 1152 H 117.769 3.89855 1.59971 0
M  V30 1153 H 116.493 2.68372 1.86129 0
M  V30 1154 H 115.152 3.66586 -0.0315886 0
M  V30 1155 H 114.8 4.46765 2.31107 0
M  V30 1156 H 114.5 5.76647 1.12925 0
M  V30 1157 H 116.024 5.74748 2.06148 0
M  V30 1158 H 117.438 5.72916 -0.209877 0
M  V30 1159 H 115.835 5.92085 -0.977489 0
M  V30 1160 H 116.905 4.60948 -1.50514 0
M  V30 1161 N 118.248 0.346503 1.53744 0
M  V30 1162 C 119.178 -0.501193 2.28058 0
M  V30 1163 C 120.159 -1.10014 1.29734 0
M  V30 1164 O 121.344 -1.12097 1.58581 0
M  V30 1165 C 118.474 -1.65078 3.05559 0
M  V30 1166 C 117.428 -1.18003 4.11411 0
M  V30 1167 C 116.754 -2.41837 4.76884 0
M  V30 1168 C 118.054 -0.278394 5.21558 0
M  V30 1169 H 119.748 0.11875 2.99164 0
M  V30 1170 H 117.294 0.0585531 1.43881 0
M  V30 1171 H 119.247 -2.25028 3.56287 0
M  V30 1172 H 117.971 -2.29767 2.32109 0
M  V30 1173 H 116.63 -0.603331 3.61601 0
M  V30 1174 H 116.278 -3.0494 4.00026 0
M  V30 1175 H 115.978 -2.1102 5.48402 0
M  V30 1176 H 117.502 -3.02508 5.30397 0
M  V30 1177 H 118.916 -0.784823 5.67903 0
M  V30 1178 H 117.313 -0.0619707 6.00068 0
M  V30 1179 H 118.383 0.684677 4.80042 0
M  V30 1180 N 119.726 -1.57421 0.075193 0
M  V30 1181 C 120.689 -2.11791 -0.876203 0
M  V30 1182 C 121.689 -1.04268 -1.22412 0
M  V30 1183 O 122.879 -1.30242 -1.15684 0
M  V30 1184 C 120.011 -2.62207 -2.17854 0
M  V30 1185 H 121.204 -2.9716 -0.40444 0
M  V30 1186 H 118.757 -1.55333 -0.173557 0
M  V30 1187 H 119.492 -1.803 -2.6956 0
M  V30 1188 H 119.277 -3.40802 -1.93897 0
M  V30 1189 H 120.767 -3.04335 -2.85955 0
M  V30 1190 N 121.204 0.198386 -1.56346 0
M  V30 1191 C 122.432 0.935572 -1.84539 0
M  V30 1192 C 122.847 1.76989 -0.657281 0
M  V30 1193 O 122.204 1.78626 0.374043 0
M  V30 1194 C 122.255 1.8344 -3.11499 0
M  V30 1195 O 121.976 1.03377 -4.25728 0
M  V30 1196 C 123.477 2.68355 -3.52846 0
M  V30 1197 H 120.697 0.273126 -0.612897 0
M  V30 1198 H 123.241 0.20663 -2.03453 0
M  V30 1199 H 121.396 2.51701 -2.94492 0
M  V30 1200 H 121.81 1.64599 -4.98003 0
M  V30 1201 H 123.284 3.27085 -4.44657 0
M  V30 1202 H 123.761 3.41901 -2.75681 0
M  V30 1203 H 124.367 2.05471 -3.72373 0
M  V30 1204 N 122.682 1.50554 0.465978 0
M  V30 1205 C 123.959 1.5232 1.22712 0
M  V30 1206 C 124.339 0.270807 2.09356 0
M  V30 1207 O 123.687 -0.745541 2.15995 0
M  V30 1208 C 123.897 2.82175 2.05374 0
M  V30 1209 C 125.245 3.33033 2.6339 0
M  V30 1210 O 126.269 2.83531 2.15612 0
M  V30 1211 O 125.128 4.19336 3.50456 0
M  V30 1212 H 122.222 0.611183 0.557122 0
M  V30 1213 H 124.768 1.62847 0.477381 0
M  V30 1214 H 123.54 3.64797 1.41558 0
M  V30 1215 H 123.163 2.74675 2.87471 0
M  V30 1216 N 124.16 -0.719506 1.40217 0
M  V30 1217 C 125.09 -1.8465 1.42922 0
M  V30 1218 C 126.071 -1.67599 0.29062 0
M  V30 1219 O 127.256 -1.87688 0.498677 0
M  V30 1220 C 124.386 -3.22565 1.28722 0
M  V30 1221 C 123.34 -3.54281 2.40144 0
M  V30 1222 C 122.666 -4.91298 2.11023 0
M  V30 1223 C 123.966 -3.55676 3.82481 0
M  V30 1224 H 125.66 -1.82644 2.37237 0
M  V30 1225 H 123.206 -0.877305 1.1419 0
M  V30 1226 H 125.159 -4.01095 1.29232 0
M  V30 1227 H 123.883 -3.25137 0.308811 0
M  V30 1228 H 122.542 -2.78088 2.38877 0
M  V30 1229 H 122.19 -4.90468 1.11582 0
M  V30 1230 H 121.89 -5.13485 2.8567 0
M  V30 1231 H 123.414 -5.72166 2.13209 0
M  V30 1232 H 124.828 -4.24254 3.85592 0
M  V30 1233 H 123.225 -3.89388 4.56614 0
M  V30 1234 H 124.295 -2.55144 4.12346 0
M  V30 1235 N 125.638 -1.25649 -0.95132 0
M  V30 1236 C 126.601 -1.06399 -2.03007 0
M  V30 1237 C 127.601 -0.0156794 -1.60792 0
M  V30 1238 O 128.791 -0.25817 -1.72276 0
M  V30 1239 C 125.923 -0.616184 -3.35285 0
M  V30 1240 H 127.116 -2.02164 -2.21517 0
M  V30 1241 H 124.669 -1.08103 -1.12887 0
M  V30 1242 H 125.404 0.343917 -3.22471 0
M  V30 1243 H 125.189 -1.37301 -3.67275 0
M  V30 1244 H 126.679 -0.503032 -4.14559 0
M  V30 1245 N 127.117 1.15442 -1.07289 0
M  V30 1246 C 128.365 1.85845 -0.794096 0
M  V30 1247 C 128.686 1.82692 0.681809 0
M  V30 1248 O 127.956 1.26741 1.49377 0
M  V30 1249 H 126.536 0.688089 -0.290763 0
M  V30 1250 H 129.198 1.39947 -1.3565 0
M  V30 1251 H 128.294 2.91001 -1.12804 0
M  V30 1252 N 128.595 0.856903 1.32268 0
M  V30 1253 C 129.545 0.274899 2.26337 0
M  V30 1254 C 130.529 -0.580543 1.50062 0
M  V30 1255 O 131.721 -0.429559 1.71708 0
M  V30 1256 C 128.85 -0.533841 3.39124 0
M  V30 1257 C 127.936 0.334114 4.22782 0
M  V30 1258 N 128.327 1.42143 4.85416 0
M  V30 1259 C 126.625 0.124256 4.45827 0
M  V30 1260 C 127.326 1.95559 5.47843 0
M  V30 1261 N 126.302 1.25444 5.28928 0
M  V30 1262 H 130.104 1.10612 2.72291 0
M  V30 1263 H 127.618 0.703258 1.46383 0
M  V30 1264 H 129.615 -0.96722 4.05525 0
M  V30 1265 H 128.275 -1.36283 2.94715 0
M  V30 1266 H 129.286 1.80436 4.85451 0
M  V30 1267 H 125.963 -0.669837 4.12092 0
M  V30 1268 H 127.353 2.86714 6.07655 0
M  V30 1269 N 130.073 -1.45103 0.615059 0
M  V30 1270 C 131.319 -2.02483 0.113347 0
M  V30 1271 C 131.652 -1.48146 -1.25564 0
M  V30 1272 O 130.927 -0.659104 -1.82992 0
M  V30 1273 C 131.21 -3.60005 0.0825278 0
M  V30 1274 C 131.063 -4.2466 1.48271 0
M  V30 1275 C 132.382 -4.35972 -0.601401 0
M  V30 1276 H 129.501 -0.735764 0.0426632 0
M  V30 1277 H 132.143 -1.72868 0.788461 0
M  V30 1278 H 130.293 -3.85367 -0.492378 0
M  V30 1279 H 131.965 -4.10458 2.10527 0
M  V30 1280 H 130.208 -3.82772 2.04127 0
M  V30 1281 H 130.879 -5.336 1.41332 0
M  V30 1282 H 133.355 -4.15947 -0.112666 0
M  V30 1283 H 132.231 -5.45697 -0.592097 0
M  V30 1284 H 132.492 -4.09391 -1.66887 0
M  V30 1285 N 131.551 -0.354651 -1.53558 0
M  V30 1286 C 132.8 0.239504 -2.00273 0
M  V30 1287 C 133.113 1.50759 -1.24623 0
M  V30 1288 O 134.319 2.17968 -1.61871 0
M  V30 1289 C 132.775 0.477341 -3.5672 0
M  V30 1290 C 132.383 -0.775488 -4.41237 0
M  V30 1291 C 134.127 1.02975 -4.11821 0
M  V30 1292 C 132.034 -0.507838 -5.89216 0
M  V30 1293 H 130.964 0.0932743 -0.748208 0
M  V30 1294 H 133.615 -0.471701 -1.77334 0
M  V30 1295 H 131.997 1.24953 -3.7577 0
M  V30 1296 H 133.171 -1.54963 -4.33962 0
M  V30 1297 H 131.486 -1.25033 -3.97185 0
M  V30 1298 H 134.083 1.24513 -5.2 0
M  V30 1299 H 134.426 1.98862 -3.65731 0
M  V30 1300 H 134.959 0.317994 -3.96527 0
M  V30 1301 H 131.698 -1.43674 -6.39561 0
M  V30 1302 H 131.218 0.228011 -5.99366 0
M  V30 1303 H 132.897 -0.129238 -6.46871 0
M  V30 1304 N 133.029 1.57378 -0.0835403 0
M  V30 1305 C 134.44 1.81261 0.447358 0
M  V30 1306 C 134.791 0.998331 1.68902 0
M  V30 1307 O 133.916 0.224282 2.15235 0
M  V30 1308 C 134.511 3.28767 0.818386 0
M  V30 1309 C 133.07 3.53455 1.29409 0
M  V30 1310 C 132.217 2.75831 0.285024 0
M  V30 1311 H 135.168 1.5566 -0.309115 0
M  V30 1312 H 135.189 3.41459 1.67887 0
M  V30 1313 H 134.701 3.88006 -0.0855019 0
M  V30 1314 H 132.802 2.99534 2.21608 0
M  V30 1315 H 132.915 4.62128 1.2639 0
M  V30 1316 H 131.279 2.42947 0.764767 0
M  V30 1317 H 132.062 3.37813 -0.611341 0
M  V30 1318 N 134.507 -0.190092 1.56449 0
M  V30 1319 C 135.755 -0.907908 1.80559 0
M  V30 1320 C 136.076 -1.83583 0.657438 0
M  V30 1321 O 135.346 -1.93203 -0.323924 0
M  V30 1322 H 133.926 -0.338247 0.666032 0
M  V30 1323 H 136.588 -0.194403 1.93928 0
M  V30 1324 H 135.684 -1.49604 2.73907 0
M  V30 1325 N 135.985 -1.50799 -0.457987 0
M  V30 1326 C 136.948 -1.7005 -1.53674 0
M  V30 1327 C 137.948 -0.570881 -1.50325 0
M  V30 1328 O 139.138 -0.838126 -1.52712 0
M  V30 1329 C 136.27 -1.73788 -2.93276 0
M  V30 1330 H 137.463 -2.66306 -1.37917 0
M  V30 1331 H 135.016 -1.40477 -0.685271 0
M  V30 1332 H 135.751 -0.792717 -3.14462 0
M  V30 1333 H 135.536 -2.55864 -2.97113 0
M  V30 1334 H 137.026 -1.90591 -3.71571 0
M  V30 1335 N 137.463 0.71206 -1.40597 0
M  V30 1336 C 138.393 1.83889 -1.43899 0
M  V30 1337 C 139.374 1.67442 -0.299504 0
M  V30 1338 O 140.559 1.87421 -0.508624 0
M  V30 1339 C 137.689 3.21877 -1.30431 0
M  V30 1340 C 136.643 3.53002 -2.42019 0
M  V30 1341 C 135.969 4.90172 -2.13626 0
M  V30 1342 C 137.269 3.53643 -3.84362 0
M  V30 1343 H 138.963 1.81383 -2.38203 0
M  V30 1344 H 136.509 0.871237 -1.14654 0
M  V30 1345 H 138.462 4.00404 -1.31357 0
M  V30 1346 H 137.186 3.24968 -0.326049 0
M  V30 1347 H 135.845 2.76818 -2.40349 0
M  V30 1348 H 135.493 4.89869 -1.14182 0
M  V30 1349 H 135.193 5.11962 -2.88389 0
M  V30 1350 H 136.717 5.71028 -2.1624 0
M  V30 1351 H 138.131 4.22203 -3.87837 0
M  V30 1352 H 136.528 3.86961 -4.58673 0
M  V30 1353 H 137.598 2.52954 -4.13693 0
M  V30 1354 N 138.941 1.26152 0.944643 0
M  V30 1355 C 140.187 1.11657 1.69294 0
M  V30 1356 C 140.52 -0.339926 1.91202 0
M  V30 1357 O 139.795 -1.24994 1.49019 0
M  V30 1358 C 140.078 1.88236 3.06984 0
M  V30 1359 C 139.931 3.41772 2.92424 0
M  V30 1360 C 141.25 1.67343 4.07043 0
M  V30 1361 H 138.369 0.407004 0.614424 0
M  V30 1362 H 141.011 1.55106 1.09737 0
M  V30 1363 H 139.161 1.51308 3.57824 0
M  V30 1364 H 140.833 3.88433 2.48832 0
M  V30 1365 H 139.076 3.68974 2.28124 0
M  V30 1366 H 139.747 3.90579 3.90067 0
M  V30 1367 H 142.223 1.99509 3.65151 0
M  V30 1368 H 141.099 2.23346 5.01406 0
M  V30 1369 H 141.36 0.617158 4.37771 0
M  V30 1370 N 140.419 -1.14872 1.07899 0
M  V30 1371 C 141.349 -2.2193 0.725887 0
M  V30 1372 C 142.33 -1.67622 -0.28927 0
M  V30 1373 O 143.515 -1.93533 -0.160787 0
M  V30 1374 C 140.645 -3.47061 0.128856 0
M  V30 1375 C 139.599 -4.14363 1.07178 0
M  V30 1376 C 138.925 -5.33636 0.337229 0
M  V30 1377 C 140.225 -4.63492 2.40775 0
M  V30 1378 H 141.919 -2.51724 1.62097 0
M  V30 1379 H 139.465 -1.20991 0.780838 0
M  V30 1380 H 141.418 -4.21199 -0.130147 0
M  V30 1381 H 140.142 -3.16617 -0.80134 0
M  V30 1382 H 138.801 -3.42173 1.3158 0
M  V30 1383 H 138.449 -4.99449 -0.596606 0
M  V30 1384 H 138.149 -5.79609 0.965788 0
M  V30 1385 H 139.673 -6.10539 0.0861567 0
M  V30 1386 H 141.087 -5.2913 2.20669 0
M  V30 1387 H 139.484 -5.20148 2.99276 0
M  V30 1388 H 140.554 -3.78834 3.02676 0
M  V30 1389 N 141.898 -0.863906 -1.31812 0
M  V30 1390 C 143.314 -0.555004 -1.49639 0
M  V30 1391 C 143.514 0.912266 -1.79666 0
M  V30 1392 O 142.57 1.69479 -1.87171 0
M  V30 1393 C 143.883 -1.44998 -2.63431 0
M  V30 1394 C 145.431 -1.45138 -2.77316 0
M  V30 1395 C 145.906 -2.33179 -3.94197 0
M  V30 1396 N 147.397 -2.31025 -4.01474 0
M  V30 1397 C 148.132 -2.95871 -4.9117 0
M  V30 1398 N 147.628 -3.69863 -5.8581 0
M  V30 1399 N 149.421 -2.85211 -4.84367 0
M  V30 1400 H 141.572 -1.81339 -1.10589 0
M  V30 1401 H 143.835 -0.77505 -0.545895 0
M  V30 1402 H 143.541 -2.49377 -2.48 0
M  V30 1403 H 143.415 -1.14409 -3.59431 0
M  V30 1404 H 145.802 -0.415201 -2.92164 0
M  V30 1405 H 145.883 -1.79747 -1.82001 0
M  V30 1406 H 145.527 -3.3687 -3.80107 0
M  V30 1407 H 145.457 -1.95897 -4.88807 0
M  V30 1408 H 147.948 -1.77238 -3.33759 0
M  V30 1409 H 148.261 -4.16486 -6.50968 0
M  V30 1410 H 146.606 -3.73971 -5.85808 0
M  V30 1411 H 149.797 -2.26948 -4.09405 0
M  V30 1412 H 149.97 -3.36027 -5.54066 0
M  V30 1413 N 143.376 1.44774 -0.622745 0
M  V30 1414 C 144.306 2.33382 0.0741861 0
M  V30 1415 C 145.287 1.47719 0.843387 0
M  V30 1416 O 146.472 1.76458 0.810934 0
M  V30 1417 C 143.602 3.30663 1.06204 0
M  V30 1418 C 142.556 4.26079 0.405037 0
M  V30 1419 C 141.882 5.13165 1.5022 0
M  V30 1420 C 143.182 5.1781 -0.683414 0
M  V30 1421 H 144.876 2.91905 -0.665713 0
M  V30 1422 H 142.422 1.40363 -0.321587 0
M  V30 1423 H 144.375 3.9153 1.55827 0
M  V30 1424 H 143.099 2.70331 1.83272 0
M  V30 1425 H 141.758 3.66532 -0.0704683 0
M  V30 1426 H 141.406 4.49191 2.26355 0
M  V30 1427 H 141.106 5.77812 1.06803 0
M  V30 1428 H 142.63 5.76902 2.00041 0
M  V30 1429 H 144.044 5.72661 -0.270631 0
M  V30 1430 H 142.441 5.91015 -1.04023 0
M  V30 1431 H 143.511 4.59326 -1.55395 0
M  V30 1432 N 144.854 0.36279 1.53368 0
M  V30 1433 C 146.084 -0.228281 2.05335 0
M  V30 1434 C 146.492 -1.43226 1.23625 0
M  V30 1435 O 145.835 -1.81717 0.269206 0
M  V30 1436 C 145.897 -0.688549 3.52845 0
M  V30 1437 C 145.561 0.398362 4.5526 0
M  V30 1438 C 146.558 1.24732 5.04716 0
M  V30 1439 C 144.243 0.557805 4.99193 0
M  V30 1440 C 146.237 2.2411 5.96702 0
M  V30 1441 C 143.924 1.55495 5.90986 0
M  V30 1442 C 144.922 2.39503 6.39631 0
M  V30 1443 O 144.61 3.37517 7.29615 0
M  V30 1444 H 144.342 -0.044395 0.674541 0
M  V30 1445 H 146.896 0.518668 1.98744 0
M  V30 1446 H 145.126 -1.48706 3.56964 0
M  V30 1447 H 146.815 -1.20231 3.87685 0
M  V30 1448 H 147.581 1.13532 4.71525 0
M  V30 1449 H 143.46 -0.0862959 4.60919 0
M  V30 1450 H 147.004 2.89718 6.34594 0
M  V30 1451 H 142.901 1.66744 6.23592 0
M  V30 1452 H 143.669 3.33213 7.47604 0
M  V30 1453 N 146.332 -1.57332 0.0918853 0
M  V30 1454 C 147.56 -1.98574 -0.581048 0
M  V30 1455 C 147.975 -0.970903 -1.61923 0
M  V30 1456 O 147.332 0.0399054 -1.82456 0
M  V30 1457 C 147.383 -3.39872 -1.23164 0
M  V30 1458 O 147.104 -4.37469 -0.234989 0
M  V30 1459 C 148.605 -3.96099 -1.99049 0
M  V30 1460 H 145.825 -0.65261 -0.156018 0
M  V30 1461 H 148.369 -2.0379 0.170225 0
M  V30 1462 H 146.524 -3.35679 -1.93386 0
M  V30 1463 H 146.938 -5.19751 -0.70418 0
M  V30 1464 H 148.412 -4.97127 -2.39934 0
M  V30 1465 H 148.889 -3.3374 -2.85507 0
M  V30 1466 H 149.495 -4.03755 -1.3365 0
M  V30 1467 N 147.81 0.181792 -1.56548 0
M  V30 1468 C 148.773 1.20894 -1.94724 0
M  V30 1469 C 149.773 1.37738 -0.829747 0
M  V30 1470 O 150.963 1.35323 -1.09697 0
M  V30 1471 C 148.095 2.57593 -2.23291 0
M  V30 1472 H 149.288 0.882275 -2.86629 0
M  V30 1473 H 146.841 0.423838 -1.50444 0
M  V30 1474 H 147.576 2.95291 -1.34067 0
M  V30 1475 H 147.361 2.46735 -3.04736 0
M  V30 1476 H 148.851 3.31637 -2.53785 0
M  V30 1477 N 149.288 1.51039 0.449983 0
M  V30 1478 C 150.536 1.62759 1.19808 0
M  V30 1479 C 150.857 0.339981 1.92013 0
M  V30 1480 O 150.127 -0.643606 1.85026 0
M  V30 1481 H 148.707 0.599811 0.445237 0
M  V30 1482 H 151.369 1.87914 0.517138 0
M  V30 1483 H 150.465 2.44911 1.93455 0
M  V30 1484 N 150.766 -0.704594 1.40972 0
M  V30 1485 C 152.182 -1.01406 1.23244 0
M  V30 1486 C 152.382 -2.01169 0.115399 0
M  V30 1487 O 151.438 -2.47021 -0.523147 0
M  V30 1488 C 152.751 -1.54728 2.57836 0
M  V30 1489 C 154.299 -1.66658 2.64942 0
M  V30 1490 C 154.774 -2.23383 3.9983 0
M  V30 1491 N 156.265 -2.30756 4.01629 0
M  V30 1492 C 157 -2.75655 5.02794 0
M  V30 1493 N 156.496 -3.20225 6.14352 0
M  V30 1494 N 158.289 -2.75138 4.90159 0
M  V30 1495 H 150.44 -0.0435285 2.12355 0
M  V30 1496 H 152.703 -0.0818951 0.944456 0
M  V30 1497 H 152.409 -0.888832 3.40283 0
M  V30 1498 H 152.283 -2.53084 2.79693 0
M  V30 1499 H 154.67 -2.31617 1.8286 0
M  V30 1500 H 154.751 -0.668717 2.46904 0
M  V30 1501 H 154.395 -1.59043 4.82357 0
M  V30 1502 H 154.325 -3.23904 4.15203 0
M  V30 1503 H 156.816 -1.99291 3.21079 0
M  V30 1504 H 157.129 -3.53084 6.87424 0
M  V30 1505 H 155.474 -3.18156 6.17901 0
M  V30 1506 H 158.665 -2.39661 4.02095 0
M  V30 1507 H 158.838 -3.09812 5.6914 0
M  V30 1508 N 152.244 -1.26651 -0.937939 0
M  V30 1509 C 153.207 -1.08546 -2.01867 0
M  V30 1510 C 154.207 -0.0327327 -1.60767 0
M  V30 1511 O 155.397 -0.276427 -1.71993 0
M  V30 1512 C 152.529 -0.651711 -3.34613 0
M  V30 1513 H 153.722 -2.04502 -2.1936 0
M  V30 1514 H 151.275 -1.09294 -1.11734 0
M  V30 1515 H 152.01 0.309696 -3.22818 0
M  V30 1516 H 151.795 -1.41189 -3.65798 0
M  V30 1517 H 153.285 -0.546973 -4.14002 0
M  V30 1518 N 153.722 1.14298 -1.08507 0
M  V30 1519 C 155.133 1.66926 -0.836227 0
M  V30 1520 C 155.484 1.85576 0.63686 0
M  V30 1521 O 154.609 1.56767 1.49175 0
M  V30 1522 C 155.204 3.03219 -1.51142 0
M  V30 1523 C 153.763 3.52876 -1.30979 0
M  V30 1524 C 152.91 2.2833 -1.57356 0
M  V30 1525 H 155.861 0.983491 -1.24552 0
M  V30 1526 H 155.882 3.68726 -0.939211 0
M  V30 1527 H 155.394 2.89612 -2.58353 0
M  V30 1528 H 153.495 3.71703 -0.258429 0
M  V30 1529 H 153.608 4.33586 -2.03814 0
M  V30 1530 H 151.972 2.34454 -0.995164 0
M  V30 1531 H 152.755 2.17298 -2.65775 0
M  V30 1532 N 155.201 0.870884 1.31352 0
M  V30 1533 C 156.164 0.332243 2.26779 0
M  V30 1534 C 157.164 -0.517302 1.52252 0
M  V30 1535 O 158.354 -0.326477 1.71113 0
M  V30 1536 C 155.486 -0.528066 3.36785 0
M  V30 1537 H 156.679 1.17469 2.75937 0
M  V30 1538 H 154.232 0.64655 1.423 0
M  V30 1539 H 154.967 -1.39167 2.92922 0
M  V30 1540 H 154.752 0.0802582 3.92018 0
M  V30 1541 H 156.242 -0.897179 4.07849 0
M  V30 1542 N 156.679 -1.44442 0.630414 0
M  V30 1543 C 157.927 -2.01653 0.134351 0
M  V30 1544 C 158.248 -1.49836 -1.24796 0
M  V30 1545 O 157.518 -0.701684 -1.82902 0
M  V30 1546 H 156.098 -0.74554 0.0466769 0
M  V30 1547 H 158.76 -1.76952 0.816955 0
M  V30 1548 H 157.856 -3.11935 0.101498 0
M  V30 1549 N 158.157 -0.370918 -1.53173 0
M  V30 1550 C 159.405 0.216673 -2.00935 0
M  V30 1551 C 159.726 1.48845 -1.25977 0
M  V30 1552 O 158.996 1.92286 -0.374551 0
M  V30 1553 H 157.576 0.0830565 -0.742368 0
M  V30 1554 H 160.238 -0.49838 -1.8842 0
M  V30 1555 H 159.334 0.439893 -3.08984 0
M  V30 1556 N 159.635 1.57281 -0.100228 0
M  V30 1557 C 160.598 2.13158 0.842398 0
M  V30 1558 C 161.598 1.06202 1.20738 0
M  V30 1559 O 162.788 1.32066 1.13597 0
M  V30 1560 C 159.92 2.65639 2.13655 0
M  V30 1561 H 161.113 2.97766 0.357114 0
M  V30 1562 H 158.666 1.5559 0.148823 0
M  V30 1563 H 159.401 1.84566 2.66657 0
M  V30 1564 H 159.186 3.43844 1.88451 0
M  V30 1565 H 160.676 3.08846 2.81077 0
M  V30 1566 N 161.113 -0.173488 1.56642 0
M  V30 1567 C 162.353 -0.896984 1.83667 0
M  V30 1568 C 162.717 -1.79523 0.680842 0
M  V30 1569 O 163.918 -2.55616 0.831488 0
M  V30 1570 C 162.189 -1.67351 3.15798 0
M  V30 1571 S 163.748 -2.44607 3.64298 0
M  V30 1572 H 160.566 -0.300464 0.644393 0
M  V30 1573 H 163.168 -0.158775 1.94854 0
M  V30 1574 H 161.872 -1.00462 3.97914 0
M  V30 1575 H 161.403 -2.45313 3.07546 0
M  V30 1576 H 163.418 -3.69261 3.31452 0
M  V30 1577 N 162.591 -1.51276 -0.441967 0
M  V30 1578 C 163.541 -1.6864 -1.53442 0
M  V30 1579 C 164.525 -0.540444 -1.51552 0
M  V30 1580 O 165.717 -0.796157 -1.58083 0
M  V30 1581 C 162.846 -1.8106 -2.91672 0
M  V30 1582 C 161.932 -3.01424 -2.98336 0
M  V30 1583 N 162.323 -4.2467 -2.74752 0
M  V30 1584 C 160.621 -3.00584 -3.29493 0
M  V30 1585 C 161.322 -5.05891 -2.87139 0
M  V30 1586 N 160.298 -4.40442 -3.18609 0
M  V30 1587 H 164.1 -2.61598 -1.33954 0
M  V30 1588 H 161.614 -1.4886 -0.6492 0
M  V30 1589 H 163.611 -1.91609 -3.70259 0
M  V30 1590 H 162.271 -0.892795 -3.12185 0
M  V30 1591 H 163.282 -4.53691 -2.49769 0
M  V30 1592 H 159.959 -2.18417 -3.55809 0
M  V30 1593 H 161.349 -6.13983 -2.72899 0
M  V30 1594 N 164.069 0.697108 -1.41344 0
M  V30 1595 C 165.316 1.45714 -1.40619 0
M  V30 1596 C 165.644 1.94494 -0.0147907 0
M  V30 1597 O 164.899 1.69794 0.973066 0
M  V30 1598 C 165.198 2.68553 -2.35826 0
M  V30 1599 C 164.864 2.38438 -3.82698 0
M  V30 1600 C 163.526 2.29936 -4.22709 0
M  V30 1601 C 165.878 2.13567 -4.75435 0
M  V30 1602 C 163.206 1.94656 -5.53467 0
M  V30 1603 C 165.558 1.79797 -6.06511 0
M  V30 1604 C 164.222 1.69789 -6.45545 0
M  V30 1605 H 163.492 0.533206 -0.51456 0
M  V30 1606 H 166.139 0.796901 -1.74131 0
M  V30 1607 H 164.444 3.39503 -1.95563 0
M  V30 1608 H 166.141 3.2669 -2.32539 0
M  V30 1609 H 162.731 2.4595 -3.51008 0
M  V30 1610 H 166.915 2.19082 -4.45328 0
M  V30 1611 H 162.171 1.8546 -5.82593 0
M  V30 1612 H 166.345 1.59572 -6.77872 0
M  V30 1613 H 163.972 1.4222 -7.46778 0
M  V30 1614 N 165.547 1.27147 0.931209 0
M  V30 1615 C 166.477 1.12081 2.04842 0
M  V30 1616 C 167.458 0.0232364 1.70084 0
M  V30 1617 O 168.643 0.197085 1.93197 0
M  V30 1618 C 165.773 0.76354 3.38803 0
M  V30 1619 C 164.727 1.81396 3.87659 0
M  V30 1620 C 164.053 1.31075 5.18385 0
M  V30 1621 C 165.353 3.21739 4.11438 0
M  V30 1622 H 167.047 2.05537 2.17703 0
M  V30 1623 H 164.593 0.989603 1.04608 0
M  V30 1624 H 166.546 0.644982 4.16435 0
M  V30 1625 H 165.27 -0.206727 3.25945 0
M  V30 1626 H 163.929 1.92136 3.12217 0
M  V30 1627 H 163.577 0.330037 5.01916 0
M  V30 1628 H 163.277 2.013 5.52044 0
M  V30 1629 H 164.801 1.20506 5.98591 0
M  V30 1630 H 166.215 3.14019 4.79651 0
M  V30 1631 H 164.612 3.89644 4.56397 0
M  V30 1632 H 165.682 3.67054 3.16859 0
M  V30 1633 N 167.025 -1.13721 1.09112 0
M  V30 1634 C 168.273 -1.84559 0.823562 0
M  V30 1635 C 168.594 -1.83754 -0.652658 0
M  V30 1636 O 167.864 -1.29102 -1.47342 0
M  V30 1637 H 166.444 -0.683376 0.301673 0
M  V30 1638 H 169.106 -1.37771 1.37859 0
M  V30 1639 H 168.202 -2.8917 1.17419 0
M  V30 1640 N 168.503 -0.877838 -1.30888 0
M  V30 1641 C 169.751 -0.491723 -1.96027 0
M  V30 1642 C 170.072 0.960827 -1.69685 0
M  V30 1643 O 169.342 1.67462 -1.01654 0
M  V30 1644 H 167.922 -0.17885 -0.725273 0
M  V30 1645 H 170.584 -1.11935 -1.59551 0
M  V30 1646 H 169.68 -0.656016 -3.05128 0
M  V30 1647 N 169.982 1.44106 -0.638065 0
M  V30 1648 C 171.222 2.03858 -0.148733 0
M  V30 1649 C 171.586 1.49153 1.20903 0
M  V30 1650 O 172.787 2.00452 1.79088 0
M  V30 1651 C 171.058 3.57117 -0.142314 0
M  V30 1652 S 172.617 4.37897 0.281385 0
M  V30 1653 H 169.435 0.708069 -0.0644912 0
M  V30 1654 H 172.037 1.7639 -0.843009 0
M  V30 1655 H 170.741 3.94436 -1.13349 0
M  V30 1656 H 170.272 3.89205 0.572988 0
M  V30 1657 H 172.287 4.72218 1.52395 0
M  V30 1658 N 171.46 0.379036 1.52974 0
M  V30 1659 C 172.393 -0.504932 2.22544 0
M  V30 1660 C 173.371 -1.0723 1.22231 0
M  V30 1661 O 174.555 -1.12589 1.51182 0
M  V30 1662 C 171.682 -1.69794 2.93066 0
M  V30 1663 C 170.728 -1.25678 4.07563 0
M  V30 1664 S 171.561 -0.246852 5.34931 0
M  V30 1665 C 172.717 -1.44588 6.08971 0
M  V30 1666 H 172.95 0.0858666 2.97176 0
M  V30 1667 H 170.483 0.163183 1.53535 0
M  V30 1668 H 172.441 -2.38219 3.34308 0
M  V30 1669 H 171.102 -2.26002 2.18133 0
M  V30 1670 H 170.295 -2.14725 4.5597 0
M  V30 1671 H 169.897 -0.651584 3.6828 0
M  V30 1672 H 172.189 -2.37469 6.34519 0
M  V30 1673 H 173.132 -1.00292 7.00962 0
M  V30 1674 H 173.54 -1.65804 5.39601 0
M  V30 1675 N 172.938 -1.57226 0.108567 0
M  V30 1676 C 174.184 -1.95121 -0.552761 0
M  V30 1677 C 174.517 -0.991345 -1.66991 0
M  V30 1678 O 173.792 -0.0267211 -1.94482 0
M  V30 1679 C 174.075 -3.43039 -1.09528 0
M  V30 1680 C 173.928 -4.49797 0.0177332 0
M  V30 1681 C 175.247 -3.92567 -1.98945 0
M  V30 1682 H 172.366 -0.709496 -0.199461 0
M  V30 1683 H 175.008 -1.89126 0.182011 0
M  V30 1684 H 173.158 -3.48279 -1.72146 0
M  V30 1685 H 174.83 -4.56661 0.652584 0
M  V30 1686 H 173.073 -4.284 0.682309 0
M  V30 1687 H 173.744 -5.50528 -0.402919 0
M  V30 1688 H 176.22 -3.89565 -1.46214 0
M  V30 1689 H 175.096 -4.96605 -2.33827 0
M  V30 1690 H 175.357 -3.32648 -2.91201 0
M  V30 1691 N 174.416 0.165178 -1.56732 0
M  V30 1692 C 175.663 0.880807 -1.8234 0
M  V30 1693 C 175.991 1.81977 -0.686621 0
M  V30 1694 O 175.246 1.92971 0.325697 0
M  V30 1695 C 175.545 1.70405 -3.1416 0
M  V30 1696 C 175.211 0.913475 -4.4155 0
M  V30 1697 C 173.873 0.695303 -4.7615 0
M  V30 1698 C 176.225 0.359349 -5.1996 0
M  V30 1699 C 173.553 -0.0879947 -5.86634 0
M  V30 1700 C 175.905 -0.410893 -6.31264 0
M  V30 1701 C 174.569 -0.639808 -6.64427 0
M  V30 1702 H 173.839 0.32231 -0.667231 0
M  V30 1703 H 176.486 0.145402 -1.90947 0
M  V30 1704 H 174.791 2.50903 -3.00923 0
M  V30 1705 H 176.488 2.26091 -3.31186 0
M  V30 1706 H 173.078 1.09357 -4.14414 0
M  V30 1707 H 177.262 0.515228 -4.93618 0
M  V30 1708 H 172.518 -0.27503 -6.10781 0
M  V30 1709 H 176.692 -0.847494 -6.91224 0
M  V30 1710 H 174.319 -1.24864 -7.49875 0
M  V30 1711 N 175.894 1.51508 0.433938 0
M  V30 1712 C 177.141 1.64345 1.18309 0
M  V30 1713 C 177.469 0.361315 1.91115 0
M  V30 1714 O 176.724 -0.654753 1.84422 0
M  V30 1715 C 177.023 2.79928 2.22205 0
M  V30 1716 C 176.689 4.19078 1.66387 0
M  V30 1717 C 175.351 4.56932 1.50887 0
M  V30 1718 C 177.703 5.05894 1.25381 0
M  V30 1719 C 175.031 5.79305 0.928608 0
M  V30 1720 C 177.383 6.2885 0.687823 0
M  V30 1721 C 176.047 6.65473 0.519755 0
M  V30 1722 H 175.317 0.601381 0.432923 0
M  V30 1723 H 177.964 1.85549 0.473676 0
M  V30 1724 H 176.269 2.52959 2.99197 0
M  V30 1725 H 177.966 2.87059 2.79997 0
M  V30 1726 H 174.556 3.89234 1.79428 0
M  V30 1727 H 178.74 4.77253 1.36175 0
M  V30 1728 H 173.996 6.06324 0.786186 0
M  V30 1729 H 178.17 6.95461 0.361581 0
M  V30 1730 H 175.797 7.6017 0.0679979 0
M  V30 1731 N 177.372 -0.689602 1.41712 0
M  V30 1732 C 178.62 -1.4468 1.4111 0
M  V30 1733 C 178.941 -1.94986 0.0232196 0
M  V30 1734 O 178.211 -1.72097 -0.935913 0
M  V30 1735 H 176.791 -0.536847 0.519427 0
M  V30 1736 H 179.453 -0.815825 1.77004 0
M  V30 1737 H 178.549 -2.30706 2.10193 0
M  V30 1738 N 178.85 -1.27639 -0.924453 0
M  V30 1739 C 179.78 -1.13166 -2.04244 0
M  V30 1740 C 180.761 -0.032256 -1.70069 0
M  V30 1741 O 181.946 -0.207328 -1.9309 0
M  V30 1742 C 179.076 -0.781496 -3.38393 0
M  V30 1743 C 178.03 -1.83449 -3.86692 0
M  V30 1744 C 177.356 -1.33822 -5.17683 0
M  V30 1745 C 178.656 -3.23917 -4.09726 0
M  V30 1746 H 180.35 -2.06689 -2.1661 0
M  V30 1747 H 177.896 -0.995136 -1.04082 0
M  V30 1748 H 179.849 -0.667057 -4.16087 0
M  V30 1749 H 178.573 0.189439 -3.2605 0
M  V30 1750 H 177.232 -1.93789 -3.11193 0
M  V30 1751 H 176.88 -0.35665 -5.01734 0
M  V30 1752 H 176.58 -2.04224 -5.50968 0
M  V30 1753 H 178.104 -1.23679 -5.97943 0
M  V30 1754 H 179.518 -3.16559 -4.77978 0
M  V30 1755 H 177.915 -3.92059 -4.54324 0
M  V30 1756 H 178.985 -3.68729 -3.14908 0
M  V30 1757 N 180.328 1.1314 -1.09713 0
M  V30 1758 C 181.568 1.8613 -0.844683 0
M  V30 1759 C 181.932 1.81765 0.618491 0
M  V30 1760 O 183.133 2.50024 0.98699 0
M  V30 1761 C 181.404 3.30151 -1.36877 0
M  V30 1762 S 182.963 4.206 -1.25064 0
M  V30 1763 H 179.781 0.642056 -0.305427 0
M  V30 1764 H 182.383 1.36343 -1.4011 0
M  V30 1765 H 181.087 3.30883 -2.42786 0
M  V30 1766 H 180.618 3.85 -0.808614 0
M  V30 1767 H 182.633 4.95783 -0.203486 0
M  V30 1768 N 181.806 0.884767 1.30421 0
M  V30 1769 C 183.217 0.553656 1.78302 0
M  V30 1770 C 183.568 -0.930153 1.7275 0
M  V30 1771 O 182.693 -1.72681 1.30423 0
M  V30 1772 C 183.288 0.998234 3.2376 0
M  V30 1773 C 181.847 0.71854 3.69478 0
M  V30 1774 C 180.994 1.18132 2.50879 0
M  V30 1775 H 183.945 1.06901 1.17294 0
M  V30 1776 H 183.966 0.327118 3.79091 0
M  V30 1777 H 183.478 2.0782 3.27769 0
M  V30 1778 H 181.579 -0.349444 3.70958 0
M  V30 1779 H 181.692 1.30595 4.60958 0
M  V30 1780 H 180.056 0.600669 2.47516 0
M  V30 1781 H 180.839 2.26902 2.57624 0
M  V30 1782 N 183.284 -1.43765 0.645699 0
M  V30 1783 C 184.214 -2.33471 -0.0370477 0
M  V30 1784 C 185.195 -1.49042 -0.819779 0
M  V30 1785 O 186.38 -1.77726 -0.782758 0
M  V30 1786 C 183.51 -3.32311 -1.0093 0
M  V30 1787 C 182.464 -4.2667 -0.337201 0
M  V30 1788 C 181.79 -5.1549 -1.42037 0
M  V30 1789 C 183.09 -5.16657 0.765706 0
M  V30 1790 H 184.784 -2.90809 0.712069 0
M  V30 1791 H 182.33 -1.39834 0.343876 0
M  V30 1792 H 184.283 -3.9396 -1.49578 0
M  V30 1793 H 183.007 -2.73213 -1.78948 0
M  V30 1794 H 181.666 -3.66374 0.128771 0
M  V30 1795 H 181.314 -4.52735 -2.1918 0
M  V30 1796 H 181.014 -5.79438 -0.975966 0
M  V30 1797 H 182.538 -5.80012 -1.90838 0
M  V30 1798 H 183.952 -5.72158 0.361702 0
M  V30 1799 H 182.349 -5.89286 1.13413 0
M  V30 1800 H 183.419 -4.56796 1.62683 0
M  V30 1801 N 184.763 -0.387143 -1.52771 0
M  V30 1802 C 185.693 0.440551 -2.29306 0
M  V30 1803 C 186.674 1.06535 -1.32606 0
M  V30 1804 O 187.859 1.07853 -1.61497 0
M  V30 1805 C 184.989 1.56919 -3.09829 0
M  V30 1806 C 183.943 1.07054 -4.14395 0
M  V30 1807 C 183.269 2.29109 -4.83129 0
M  V30 1808 C 184.569 0.140015 -5.22112 0
M  V30 1809 H 186.263 -0.198026 -2.98744 0
M  V30 1810 H 183.809 -0.09668 -1.43675 0
M  V30 1811 H 185.762 2.15503 -3.62128 0
M  V30 1812 H 184.486 2.23532 -2.3812 0
M  V30 1813 H 183.145 0.507247 -3.63074 0
M  V30 1814 H 182.793 2.94227 -4.0797 0
M  V30 1815 H 182.493 1.96406 -5.53804 0
M  V30 1816 H 184.017 2.88339 -5.38231 0
M  V30 1817 H 185.431 0.633978 -5.69784 0
M  V30 1818 H 183.828 -0.0971485 -6.00021 0
M  V30 1819 H 184.898 -0.811711 -4.78058 0
M  V30 1820 N 186.241 1.57166 -0.116904 0
M  V30 1821 C 187.171 2.18222 0.830759 0
M  V30 1822 C 188.152 1.12167 1.27877 0
M  V30 1823 O 189.337 1.40394 1.34176 0
M  V30 1824 C 186.467 2.77996 2.08172 0
M  V30 1825 C 185.421 3.89614 1.77157 0
M  V30 1826 C 184.747 4.36187 3.09265 0
M  V30 1827 C 186.047 5.1181 1.04151 0
M  V30 1828 H 187.741 2.97664 0.321992 0
M  V30 1829 H 185.287 1.4318 0.153434 0
M  V30 1830 H 187.24 3.19366 2.74924 0
M  V30 1831 H 185.964 1.9584 2.6137 0
M  V30 1832 H 184.623 3.48816 1.12796 0
M  V30 1833 H 184.271 3.50893 3.60393 0
M  V30 1834 H 183.971 5.11455 2.89288 0
M  V30 1835 H 185.495 4.80207 3.77139 0
M  V30 1836 H 186.909 5.50214 1.61052 0
M  V30 1837 H 185.306 5.92648 0.942762 0
M  V30 1838 H 186.376 4.84892 0.0279022 0
M  V30 1839 N 187.719 -0.156864 1.56817 0
M  V30 1840 C 188.967 -0.869404 1.82444 0
M  V30 1841 C 189.288 -1.82147 0.69623 0
M  V30 1842 O 188.558 -1.93847 -0.28287 0
M  V30 1843 H 187.138 -0.324043 0.673056 0
M  V30 1844 H 189.8 -0.153224 1.94297 0
M  V30 1845 H 188.896 -1.43761 2.77019 0
M  V30 1846 N 189.197 -1.51736 -0.425897 0
M  V30 1847 C 190.437 -1.66636 -1.18371 0
M  V30 1848 C 190.801 -0.379854 -1.88205 0
M  V30 1849 O 192.002 -0.404758 -2.65735 0
M  V30 1850 C 190.273 -2.84382 -2.16476 0
M  V30 1851 S 191.832 -3.19673 -3.0059 0
M  V30 1852 H 188.65 -0.586957 -0.40125 0
M  V30 1853 H 191.252 -1.89679 -0.473518 0
M  V30 1854 H 189.956 -3.76281 -1.63831 0
M  V30 1855 H 189.487 -2.63562 -2.92059 0
M  V30 1856 H 191.502 -2.66994 -4.18245 0
M  V30 1857 N 190.675 0.682077 -1.42076 0
M  V30 1858 C 191.923 1.4393 -1.41876 0
M  V30 1859 C 192.244 1.94971 -0.0335599 0
M  V30 1860 O 191.514 1.72591 0.926773 0
M  V30 1861 H 190.094 0.534085 -0.522267 0
M  V30 1862 H 192.756 0.806427 -1.77434 0
M  V30 1863 H 191.852 2.29588 -2.11414 0
M  V30 1864 N 192.153 1.28127 0.917671 0
M  V30 1865 C 193.086 1.06039 2.02067 0
M  V30 1866 C 194.064 -0.0223285 1.62585 0
M  V30 1867 O 195.248 0.124823 1.88086 0
M  V30 1868 C 192.375 0.610596 3.33151 0
M  V30 1869 C 191.421 1.68937 3.91615 0
M  V30 1870 S 192.254 3.28437 4.22953 0
M  V30 1871 C 193.41 2.85283 5.57103 0
M  V30 1872 H 193.643 1.99425 2.20493 0
M  V30 1873 H 191.176 1.12071 1.06205 0
M  V30 1874 H 193.134 0.357778 4.08938 0
M  V30 1875 H 191.795 -0.303364 3.12632 0
M  V30 1876 H 190.988 1.32619 4.86239 0
M  V30 1877 H 190.59 1.89478 3.2245 0
M  V30 1878 H 192.882 2.3121 6.36827 0
M  V30 1879 H 193.825 3.7869 5.98331 0
M  V30 1880 H 194.233 2.24118 5.18104 0
M  V30 1881 N 193.631 -1.12557 1.10312 0
M  V30 1882 C 194.594 -2.16434 0.75424 0
M  V30 1883 C 195.594 -1.59278 -0.220685 0
M  V30 1884 O 196.784 -1.742 0.00230591 0
M  V30 1885 C 193.916 -3.40699 0.116987 0
M  V30 1886 H 195.109 -2.48811 1.67431 0
M  V30 1887 H 192.662 -1.27542 0.903475 0
M  V30 1888 H 193.397 -3.13921 -0.813877 0
M  V30 1889 H 193.182 -3.83459 0.818613 0
M  V30 1890 H 194.672 -4.17451 -0.111387 0
M  V30 1891 N 195.109 -0.891671 -1.2995 0
M  V30 1892 C 196.355 -0.514261 -1.96171 0
M  V30 1893 C 196.688 0.935506 -1.70182 0
M  V30 1894 O 195.963 1.66204 -1.01028 0
M  V30 1895 C 196.246 -0.797719 -3.51153 0
M  V30 1896 C 196.099 -2.2986 -3.86632 0
M  V30 1897 C 197.418 -0.278749 -4.39216 0
M  V30 1898 H 194.537 -0.188314 -0.712535 0
M  V30 1899 H 197.179 -1.11689 -1.53706 0
M  V30 1900 H 195.329 -0.284826 -3.87455 0
M  V30 1901 H 197.001 -2.88042 -3.60319 0
M  V30 1902 H 195.244 -2.76257 -3.34462 0
M  V30 1903 H 195.915 -2.44753 -4.94773 0
M  V30 1904 H 198.391 -0.717825 -4.09862 0
M  V30 1905 H 197.267 -0.506353 -5.46559 0
M  V30 1906 H 197.528 0.820266 -4.34424 0
M  V30 1907 N 196.587 1.43421 -0.653314 0
M  V30 1908 C 197.497 2.34568 0.0388565 0
M  V30 1909 C 198.513 1.53888 0.81207 0
M  V30 1910 O 199.689 1.86539 0.759294 0
M  V30 1911 C 196.754 3.32167 0.993269 0
M  V30 1912 C 195.815 4.28751 0.216977 0
M  V30 1913 C 195.048 5.21688 1.12593 0
M  V30 1914 O 195.271 5.19052 2.36519 0
M  V30 1915 O 194.205 5.98919 0.598284 0
M  V30 1916 H 198.031 2.95251 -0.711386 0
M  V30 1917 H 195.616 1.43564 -0.413502 0
M  V30 1918 H 197.498 3.92183 1.54176 0
M  V30 1919 H 196.173 2.73987 1.72374 0
M  V30 1920 H 195.08 3.72215 -0.375101 0
M  V30 1921 H 196.413 4.89913 -0.473924 0
M  V30 1922 N 198.065 0.39524 1.52563 0
M  V30 1923 C 199.481 0.0454682 1.59535 0
M  V30 1924 C 199.681 -1.44056 1.4089 0
M  V30 1925 O 198.737 -2.20579 1.22888 0
M  V30 1926 C 200.05 0.527963 2.96029 0
M  V30 1927 C 201.598 0.484733 3.09224 0
M  V30 1928 C 202.073 0.943512 4.48176 0
M  V30 1929 N 203.564 0.899765 4.54377 0
M  V30 1930 C 204.299 1.22609 5.60138 0
M  V30 1931 N 203.795 1.62319 6.73516 0
M  V30 1932 N 205.588 1.14696 5.50274 0
M  V30 1933 H 197.739 1.36261 1.62931 0
M  V30 1934 H 200.002 0.558887 0.765735 0
M  V30 1935 H 199.708 1.56607 3.14908 0
M  V30 1936 H 199.582 -0.0698056 3.77135 0
M  V30 1937 H 201.969 -0.544298 2.90037 0
M  V30 1938 H 202.05 1.11838 2.30056 0
M  V30 1939 H 201.694 1.9708 4.68104 0
M  V30 1940 H 201.624 0.286817 5.25818 0
M  V30 1941 H 204.115 0.607632 3.72983 0
M  V30 1942 H 204.428 1.85567 7.5019 0
M  V30 1943 H 202.773 1.66211 6.74833 0
M  V30 1944 H 205.964 0.835701 4.6058 0
M  V30 1945 H 206.137 1.40459 6.32594 0
M  V30 1946 N 199.544 -1.57102 0.125237 0
M  V30 1947 C 200.784 -1.97294 -0.534259 0
M  V30 1948 C 201.148 -1.0074 -1.63449 0
M  V30 1949 O 202.349 -1.29893 -2.35332 0
M  V30 1950 C 200.62 -3.41705 -1.04748 0
M  V30 1951 S 202.179 -4.03913 -1.71463 0
M  V30 1952 H 198.997 -0.689517 -0.173458 0
M  V30 1953 H 201.599 -1.94349 0.211797 0
M  V30 1954 H 200.303 -4.09723 -0.235649 0
M  V30 1955 H 199.834 -3.48315 -1.82867 0
M  V30 1956 H 201.849 -3.95182 -3.00077 0
M  V30 1957 N 201.022 0.148545 -1.56898 0
M  V30 1958 C 202.268 0.862694 -1.83536 0
M  V30 1959 C 202.601 1.80889 -0.706604 0
M  V30 1960 O 201.876 1.92328 0.289885 0
M  V30 1961 C 202.159 1.63853 -3.20662 0
M  V30 1962 C 202.012 0.713925 -4.44098 0
M  V30 1963 C 203.331 2.60133 -3.54991 0
M  V30 1964 H 200.45 0.312179 -0.667618 0
M  V30 1965 H 203.092 0.127953 -1.89569 0
M  V30 1966 H 201.242 2.26489 -3.1565 0
M  V30 1967 H 202.914 0.098686 -4.61194 0
M  V30 1968 H 201.157 0.0234019 -4.33794 0
M  V30 1969 H 201.828 1.29278 -5.36648 0
M  V30 1970 H 204.304 2.07616 -3.60603 0
M  V30 1971 H 203.18 3.11468 -4.51972 0
M  V30 1972 H 203.441 3.41417 -2.80868 0
M  V30 1973 N 202.5 1.5196 0.417844 0
M  V30 1974 C 203.748 1.65263 1.16329 0
M  V30 1975 C 204.069 0.380634 1.91249 0
M  V30 1976 O 203.339 -0.604214 1.86349 0
M  V30 1977 H 201.919 0.60912 0.432414 0
M  V30 1978 H 204.581 1.88969 0.477162 0
M  V30 1979 H 203.677 2.4896 1.88217 0
M  V30 1980 N 203.978 -0.674533 1.42435 0
M  V30 1981 C 205.224 -1.43671 1.43131 0
M  V30 1982 C 205.557 -1.94142 0.0476021 0
M  V30 1983 O 204.832 -1.70924 -0.928188 0
M  V30 1984 C 205.115 -2.63355 2.45594 0
M  V30 1985 C 204.968 -2.18514 3.93156 0
M  V30 1986 C 206.287 -3.65571 2.45043 0
M  V30 1987 H 203.406 -0.521077 0.521198 0
M  V30 1988 H 206.048 -0.766551 1.7385 0
M  V30 1989 H 204.198 -3.2053 2.19528 0
M  V30 1990 H 205.87 -1.66504 4.30202 0
M  V30 1991 H 204.113 -1.50086 4.07009 0
M  V30 1992 H 204.784 -3.04484 4.60428 0
M  V30 1993 H 207.26 -3.18113 2.68223 0
M  V30 1994 H 206.136 -4.46893 3.18713 0
M  V30 1995 H 206.397 -4.16716 1.47649 0
M  V30 1996 N 205.456 -1.28612 -0.910864 0
M  V30 1997 C 206.684 -1.18792 -1.69399 0
M  V30 1998 C 207.099 0.253039 -1.87097 0
M  V30 1999 O 206.456 1.17071 -1.40003 0
M  V30 2000 C 206.507 -1.88511 -3.08457 0
M  V30 2001 O 206.228 -3.26979 -2.91576 0
M  V30 2002 C 207.729 -1.85029 -4.02839 0
M  V30 2003 H 204.949 -0.412233 -0.529438 0
M  V30 2004 H 207.493 -1.69788 -1.13984 0
M  V30 2005 H 205.648 -1.41379 -3.60681 0
M  V30 2006 H 206.062 -3.61936 -3.79608 0
M  V30 2007 H 207.536 -2.38395 -4.97867 0
M  V30 2008 H 208.013 -0.823303 -4.31414 0
M  V30 2009 H 208.619 -2.31853 -3.56545 0
M  V30 2010 N 206.934 1.1197 -1.10907 0
M  V30 2011 C 208.35 1.35591 -0.841852 0
M  V30 2012 C 208.55 1.94233 0.536246 0
M  V30 2013 O 207.606 2.1717 1.28816 0
M  V30 2014 C 208.919 2.29284 -1.94549 0
M  V30 2015 C 210.467 2.42862 -1.97451 0
M  V30 2016 C 210.942 3.39873 -3.07002 0
M  V30 2017 N 212.433 3.47433 -3.06341 0
M  V30 2018 C 213.168 4.22421 -3.87748 0
M  V30 2019 N 212.664 5.00432 -4.79103 0
M  V30 2020 N 214.457 4.17876 -3.75946 0
M  V30 2021 H 206.608 0.722664 -1.99728 0
M  V30 2022 H 208.871 0.380635 -0.868229 0
M  V30 2023 H 208.577 1.93378 -2.93765 0
M  V30 2024 H 208.451 3.29452 -1.83688 0
M  V30 2025 H 210.838 2.78046 -0.988645 0
M  V30 2026 H 210.919 1.42566 -2.12388 0
M  V30 2027 H 210.563 3.05417 -4.05811 0
M  V30 2028 H 210.493 4.40011 -2.89306 0
M  V30 2029 H 212.984 2.91784 -2.40147 0
M  V30 2030 H 213.297 5.55002 -5.37766 0
M  V30 2031 H 211.642 4.99612 -4.83128 0
M  V30 2032 H 214.833 3.56016 -3.03924 0
M  V30 2033 H 215.006 4.76061 -4.39624 0
M  V30 2034 N 208.412 0.89855 1.29475 0
M  V30 2035 C 209.823 0.572537 1.77705 0
M  V30 2036 C 210.174 -0.911778 1.73727 0
M  V30 2037 O 209.299 -1.71288 1.32247 0
M  V30 2038 C 209.894 1.03252 3.22683 0
M  V30 2039 C 208.453 0.757687 3.68695 0
M  V30 2040 C 207.6 1.20787 2.49612 0
M  V30 2041 H 210.551 1.08139 1.16153 0
M  V30 2042 H 210.572 0.367307 3.78723 0
M  V30 2043 H 210.084 2.11285 3.25546 0
M  V30 2044 H 208.185 -0.310079 3.71308 0
M  V30 2045 H 208.298 1.35476 4.59547 0
M  V30 2046 H 206.662 0.626888 2.46865 0
M  V30 2047 H 207.445 2.29622 2.55203 0
M  V30 2048 N 209.89 -1.43072 0.660911 0
M  V30 2049 C 210.82 -2.33497 -0.0122829 0
M  V30 2050 C 211.801 -1.49903 -0.803925 0
M  V30 2051 O 212.986 -1.78546 -0.763864 0
M  V30 2052 C 210.116 -3.33363 -0.973994 0
M  V30 2053 C 209.07 -4.27003 -0.291928 0
M  V30 2054 C 208.396 -5.16967 -1.36562 0
M  V30 2055 C 209.696 -5.15816 0.820462 0
M  V30 2056 H 211.39 -2.90038 0.742873 0
M  V30 2057 H 208.936 -1.39461 0.358688 0
M  V30 2058 H 210.889 -3.95524 -1.45392 0
M  V30 2059 H 209.613 -2.75095 -1.7604 0
M  V30 2060 H 208.272 -3.66217 0.167623 0
M  V30 2061 H 207.92 -4.55034 -2.14366 0
M  V30 2062 H 207.62 -5.80441 -0.914454 0
M  V30 2063 H 209.144 -5.82003 -1.84675 0
M  V30 2064 H 210.558 -5.71742 0.422366 0
M  V30 2065 H 208.955 -5.8805 1.19656 0
M  V30 2066 H 210.025 -4.55045 1.67518 0
M  V30 2067 N 211.368 -0.403325 -1.52352 0
M  V30 2068 C 212.298 0.416205 -2.29761 0
M  V30 2069 C 213.279 1.05123 -1.33728 0
M  V30 2070 O 214.464 1.06134 -1.62632 0
M  V30 2071 C 211.594 1.53624 -3.11475 0
M  V30 2072 C 210.548 1.02653 -4.15507 0
M  V30 2073 C 209.874 2.23971 -4.85532 0
M  V30 2074 C 211.174 0.08463 -5.22231 0
M  V30 2075 H 212.868 -0.229701 -2.98518 0
M  V30 2076 H 210.414 -0.111913 -1.43564 0
M  V30 2077 H 212.367 2.1165 -3.64393 0
M  V30 2078 H 211.091 2.20994 -2.40477 0
M  V30 2079 H 209.75 0.46871 -3.63591 0
M  V30 2080 H 209.398 2.89883 -4.11068 0
M  V30 2081 H 209.098 1.90521 -5.55856 0
M  V30 2082 H 210.622 2.82614 -5.41259 0
M  V30 2083 H 212.036 0.573509 -5.70424 0
M  V30 2084 H 210.433 -0.160783 -5.99885 0
M  V30 2085 H 211.503 -0.86237 -4.7717 0
M  V30 2086 N 212.846 1.57033 -0.133567 0
M  V30 2087 C 213.796 2.12641 0.822671 0
M  V30 2088 C 214.78 1.05081 1.21847 0
M  V30 2089 O 215.972 1.31287 1.18713 0
M  V30 2090 C 213.101 2.74094 2.06706 0
M  V30 2091 C 212.187 3.88757 1.69497 0
M  V30 2092 N 212.578 4.95194 1.03037 0
M  V30 2093 C 210.876 3.99213 1.98859 0
M  V30 2094 C 211.577 5.75414 0.852873 0
M  V30 2095 N 210.553 5.25726 1.3825 0
M  V30 2096 H 214.355 2.92308 0.305537 0
M  V30 2097 H 211.869 1.62256 0.0684276 0
M  V30 2098 H 213.866 3.12285 2.76195 0
M  V30 2099 H 212.526 1.95896 2.5895 0
M  V30 2100 H 213.537 5.13247 0.692669 0
M  V30 2101 H 210.214 3.32075 2.53047 0
M  V30 2102 H 211.604 6.71089 0.330091 0
M  V30 2103 N 214.325 -0.140222 1.56975 0
M  V30 2104 C 215.288 -1.15689 1.97861 0
M  V30 2105 C 216.288 -1.3549 0.865974 0
M  V30 2106 O 217.478 -1.32367 1.13246 0
M  V30 2107 C 214.61 -2.51582 2.30042 0
M  V30 2108 H 215.803 -0.805971 2.88867 0
M  V30 2109 H 213.356 -0.383801 1.51515 0
M  V30 2110 H 214.091 -2.91632 1.41849 0
M  V30 2111 H 213.876 -2.38569 3.11171 0
M  V30 2112 H 215.366 -3.24792 2.62488 0
M  V30 2113 N 215.803 -1.52179 -0.40978 0
M  V30 2114 C 216.766 -1.74853 -1.48186 0
M  V30 2115 C 217.766 -0.618417 -1.48433 0
M  V30 2116 O 218.956 -0.886286 -1.49969 0
M  V30 2117 C 216.088 -1.8303 -2.87598 0
M  V30 2118 H 217.281 -2.70559 -1.29374 0
M  V30 2119 H 214.834 -1.42586 -0.640233 0
M  V30 2120 H 215.569 -0.89236 -3.11781 0
M  V30 2121 H 215.354 -2.65187 -2.88822 0
M  V30 2122 H 216.844 -2.02316 -3.65319 0
M  V30 2123 N 217.281 0.66697 -1.42791 0
M  V30 2124 C 218.697 0.981027 -1.25889 0
M  V30 2125 C 218.897 2.00793 -0.168695 0
M  V30 2126 O 217.953 2.48321 0.45747 0
M  V30 2127 C 219.266 1.47838 -2.61848 0
M  V30 2128 C 220.814 1.59575 -2.69267 0
M  V30 2129 C 221.289 2.12704 -4.05612 0
M  V30 2130 N 222.78 2.20026 -4.07606 0
M  V30 2131 C 223.515 2.62227 -5.09926 0
M  V30 2132 N 223.011 3.03824 -6.22626 0
M  V30 2133 N 224.804 2.62045 -4.97281 0
M  V30 2134 H 216.955 -0.0127891 -2.12396 0
M  V30 2135 H 219.218 0.0568258 -0.946295 0
M  V30 2136 H 218.924 0.798299 -3.4252 0
M  V30 2137 H 218.798 2.45579 -2.86305 0
M  V30 2138 H 221.185 2.26687 -1.88936 0
M  V30 2139 H 221.266 0.60302 -2.48591 0
M  V30 2140 H 220.91 1.46198 -4.86404 0
M  V30 2141 H 220.84 3.12782 -4.23645 0
M  V30 2142 H 223.331 1.90708 -3.2625 0
M  V30 2143 H 223.644 3.34734 -6.96544 0
M  V30 2144 H 221.989 3.01662 -6.26119 0
M  V30 2145 H 225.18 2.28916 -4.08308 0
M  V30 2146 H 225.353 2.94613 -5.77154 0
M  V30 2147 N 218.759 1.29093 0.90403 0
M  V30 2148 C 220.005 1.16986 1.65656 0
M  V30 2149 C 220.338 -0.278925 1.92186 0
M  V30 2150 O 219.613 -1.2019 1.5292 0
M  V30 2151 C 219.896 1.97908 3.0084 0
M  V30 2152 C 219.749 3.50903 2.81403 0
M  V30 2153 C 221.068 1.80208 4.01513 0
M  V30 2154 H 218.187 0.426346 0.601164 0
M  V30 2155 H 220.829 1.58518 1.04747 0
M  V30 2156 H 218.979 1.62616 3.52829 0
M  V30 2157 H 220.651 3.96153 2.36348 0
M  V30 2158 H 218.894 3.76045 2.1627 0
M  V30 2159 H 219.565 4.02791 3.77443 0
M  V30 2160 H 222.041 2.11025 3.58619 0
M  V30 2161 H 220.917 2.39184 4.94047 0
M  V30 2162 H 221.178 0.756119 4.35586 0
M  V30 2163 N 220.237 -1.11381 1.11499 0
M  V30 2164 C 221.462 -1.87475 0.887019 0
M  V30 2165 C 221.887 -1.79639 -0.557796 0
M  V30 2166 O 221.245 -1.15924 -1.39396 0
M  V30 2167 C 221.293 -3.34213 1.35403 0
M  V30 2168 O 220.397 -4.0903 0.526146 0
M  V30 2169 H 219.738 -0.582099 0.319463 0
M  V30 2170 H 222.268 -1.40785 1.48461 0
M  V30 2171 H 222.278 -3.8506 1.34881 0
M  V30 2172 H 220.953 -3.39232 2.40612 0
M  V30 2173 H 219.53 -3.68082 0.597522 0
M  V30 2174 N 221.715 -0.905404 -1.28997 0
M  V30 2175 C 222.961 -0.535039 -1.95615 0
M  V30 2176 C 223.294 0.917404 -1.71165 0
M  V30 2177 O 222.569 1.65123 -1.02785 0
M  V30 2178 C 222.852 -0.834918 -3.50287 0
M  V30 2179 C 222.705 -2.33948 -3.84172 0
M  V30 2180 C 224.024 -0.325318 -4.38896 0
M  V30 2181 H 221.143 -0.195861 -0.710498 0
M  V30 2182 H 223.785 -1.13313 -1.52513 0
M  V30 2183 H 221.935 -0.325904 -3.87131 0
M  V30 2184 H 223.607 -2.91847 -3.57243 0
M  V30 2185 H 221.85 -2.79789 -3.31513 0
M  V30 2186 H 222.521 -2.49987 -4.92149 0
M  V30 2187 H 224.997 -0.761256 -4.09077 0
M  V30 2188 H 223.873 -0.564295 -5.45992 0
M  V30 2189 H 224.134 0.774144 -4.35269 0
M  V30 2190 N 223.193 1.4272 -0.668489 0
M  V30 2191 C 224.156 2.292 0.00448567 0
M  V30 2192 C 225.156 1.43001 0.735339 0
M  V30 2193 O 226.346 1.64461 0.57429 0
M  V30 2194 C 223.478 3.25375 1.01705 0
M  V30 2195 H 224.671 2.90199 -0.756608 0
M  V30 2196 H 222.224 1.50254 -0.430506 0
M  V30 2197 H 222.959 2.69301 1.80686 0
M  V30 2198 H 222.744 3.88944 0.496463 0
M  V30 2199 H 224.234 3.90245 1.48655 0
M  V30 2200 N 224.671 0.411399 1.52136 0
M  V30 2201 C 226.087 0.0623865 1.59478 0
M  V30 2202 C 226.287 -1.42554 1.4241 0
M  V30 2203 O 225.343 -2.19263 1.2522 0
M  V30 2204 C 226.656 0.559331 2.95452 0
M  V30 2205 C 228.204 0.517503 3.08692 0
M  V30 2206 C 228.679 0.990994 4.4715 0
M  V30 2207 N 230.17 0.947908 4.53397 0
M  V30 2208 C 230.905 1.28544 5.58806 0
M  V30 2209 N 230.401 1.69454 6.71757 0
M  V30 2210 N 232.194 1.20526 5.49026 0
M  V30 2211 H 224.345 1.37982 1.61477 0
M  V30 2212 H 226.608 0.566977 0.759764 0
M  V30 2213 H 226.314 1.59938 3.1323 0
M  V30 2214 H 226.188 -0.0298014 3.77188 0
M  V30 2215 H 228.575 -0.513505 2.90598 0
M  V30 2216 H 228.656 1.14272 2.28857 0
M  V30 2217 H 228.3 2.02034 4.65988 0
M  V30 2218 H 228.23 0.34257 5.25485 0
M  V30 2219 H 230.721 0.647157 3.72317 0
M  V30 2220 H 231.034 1.93513 7.48179 0
M  V30 2221 H 229.379 1.73359 6.73032 0
M  V30 2222 H 232.57 0.884505 4.59667 0
M  V30 2223 H 232.743 1.47161 6.31069 0
M  V30 2224 N 226.149 -1.5696 0.141893 0
M  V30 2225 C 227.112 -2.15316 -0.785587 0
M  V30 2226 C 228.112 -1.09366 -1.1788 0
M  V30 2227 O 229.302 -1.35031 -1.10056 0
M  V30 2228 C 226.434 -2.71211 -2.06537 0
M  V30 2229 H 227.627 -2.98608 -0.278041 0
M  V30 2230 H 225.18 -1.5593 -0.107519 0
M  V30 2231 H 225.915 -1.91571 -2.6167 0
M  V30 2232 H 225.7 -3.4872 -1.79268 0
M  V30 2233 H 227.19 -3.16189 -2.72789 0
M  V30 2234 N 227.627 0.131896 -1.57047 0
M  V30 2235 C 229.043 0.485031 -1.52051 0
M  V30 2236 C 229.243 1.82563 -0.85281 0
M  V30 2237 O 228.299 2.48817 -0.429694 0
M  V30 2238 C 229.612 0.481409 -2.96821 0
M  V30 2239 C 231.16 0.565868 -3.07842 0
M  V30 2240 C 231.635 0.592762 -4.54148 0
M  V30 2241 N 233.126 0.654564 -4.58552 0
M  V30 2242 C 233.861 0.696608 -5.69153 0
M  V30 2243 N 233.357 0.697078 -6.89284 0
M  V30 2244 N 235.15 0.738639 -5.57226 0
M  V30 2245 H 227.301 -0.746664 -1.98843 0
M  V30 2246 H 229.564 -0.273999 -0.90754 0
M  V30 2247 H 229.27 -0.435731 -3.4899 0
M  V30 2248 H 229.144 1.3139 -3.53577 0
M  V30 2249 H 231.531 1.47343 -2.55684 0
M  V30 2250 H 231.612 -0.29406 -2.54104 0
M  V30 2251 H 231.256 -0.310701 -5.06949 0
M  V30 2252 H 231.186 1.46939 -5.05684 0
M  V30 2253 H 233.677 0.660887 -3.72076 0
M  V30 2254 H 233.99 0.731426 -7.69331 0
M  V30 2255 H 232.335 0.66471 -6.91814 0
M  V30 2256 H 235.526 0.735545 -4.62285 0
M  V30 2257 H 235.699 0.767938 -6.43434 0
M  V30 2258 N 229.106 1.52395 0.401703 0
M  V30 2259 C 230.036 1.79231 1.49661 0
M  V30 2260 C 231.017 0.643654 1.57452 0
M  V30 2261 O 232.202 0.889989 1.72606 0
M  V30 2262 C 229.332 1.94971 2.87409 0
M  V30 2263 C 228.286 3.10604 2.94465 0
M  V30 2264 C 227.612 3.11577 4.34538 0
M  V30 2265 C 228.912 4.49921 2.6527 0
M  V30 2266 H 230.606 2.70917 1.27454 0
M  V30 2267 H 228.152 1.30362 0.6117 0
M  V30 2268 H 230.105 2.12328 3.63999 0
M  V30 2269 H 228.829 0.999632 3.10926 0
M  V30 2270 H 227.488 2.93009 2.20321 0
M  V30 2271 H 227.136 2.14277 4.55076 0
M  V30 2272 H 226.836 3.89247 4.40183 0
M  V30 2273 H 228.36 3.31073 5.13053 0
M  V30 2274 H 229.774 4.67683 3.31581 0
M  V30 2275 H 228.171 5.29564 2.82281 0
M  V30 2276 H 229.241 4.57507 1.60671 0
M  V30 2277 N 230.584 -0.659388 1.43143 0
M  V30 2278 C 231.547 -1.75432 1.47501 0
M  V30 2279 C 232.547 -1.56707 0.360512 0
M  V30 2280 O 233.737 -1.62717 0.622002 0
M  V30 2281 C 230.869 -3.14239 1.32162 0
M  V30 2282 H 232.062 -1.7295 2.45006 0
M  V30 2283 H 229.615 -0.870469 1.29817 0
M  V30 2284 H 230.35 -3.22336 0.356401 0
M  V30 2285 H 230.135 -3.29235 2.12948 0
M  V30 2286 H 231.625 -3.94094 1.3813 0
M  V30 2287 N 232.062 -1.29571 -0.897171 0
M  V30 2288 C 232.992 -1.17473 -2.01798 0
M  V30 2289 C 233.973 -0.068323 -1.69963 0
M  V30 2290 O 235.158 -0.248239 -1.92607 0
M  V30 2291 C 232.288 -0.853099 -3.36659 0
M  V30 2292 C 231.242 -1.9161 -3.82713 0
M  V30 2293 C 230.568 -1.44773 -5.14728 0
M  V30 2294 C 231.868 -3.32535 -4.02763 0
M  V30 2295 H 233.562 -2.11237 -2.12177 0
M  V30 2296 H 231.108 -1.01699 -1.01948 0
M  V30 2297 H 233.061 -0.755165 -4.14578 0
M  V30 2298 H 231.785 0.120236 -3.26379 0
M  V30 2299 H 230.444 -2.00346 -3.07013 0
M  V30 2300 H 230.092 -0.462995 -5.00865 0
M  V30 2301 H 229.792 -2.15865 -5.46513 0
M  V30 2302 H 231.316 -1.36334 -5.95185 0
M  V30 2303 H 232.73 -3.26626 -4.71156 0
M  V30 2304 H 231.127 -4.01607 -4.45905 0
M  V30 2305 H 232.197 -3.75326 -3.07016 0
M  V30 2306 N 233.54 1.10788 -1.12088 0
M  V30 2307 C 234.503 2.15207 -0.788577 0
M  V30 2308 C 235.503 1.59609 0.195317 0
M  V30 2309 O 236.693 1.74174 -0.0300193 0
M  V30 2310 C 233.825 3.4047 -0.171174 0
M  V30 2311 H 235.018 2.46116 -1.71368 0
M  V30 2312 H 232.571 1.26089 -0.923652 0
M  V30 2313 H 233.306 3.15176 0.763832 0
M  V30 2314 H 233.091 3.82109 -0.879514 0
M  V30 2315 H 234.581 4.17576 0.04496 0
M  V30 2316 N 235.018 0.912232 1.28515 0
M  V30 2317 C 235.981 0.404223 2.25607 0
M  V30 2318 C 236.981 -0.468602 1.53821 0
M  V30 2319 O 238.171 -0.271873 1.72065 0
M  V30 2320 C 235.303 -0.420653 3.38295 0
M  V30 2321 H 236.496 1.26188 2.7206 0
M  V30 2322 H 234.049 0.691495 1.40171 0
M  V30 2323 H 234.784 -1.29777 2.97201 0
M  V30 2324 H 234.569 0.204935 3.91564 0
M  V30 2325 H 236.059 -0.766971 4.10496 0
M  V30 2326 N 236.496 -1.42363 0.676048 0
M  V30 2327 C 237.742 -2.0182 0.199125 0
M  V30 2328 C 238.075 -1.53339 -1.19168 0
M  V30 2329 O 237.35 -0.736124 -1.80032 0
M  V30 2330 C 237.633 -3.59331 0.235144 0
M  V30 2331 C 237.486 -4.17989 1.66149 0
M  V30 2332 C 238.805 -4.3813 -0.41595 0
M  V30 2333 H 235.924 -0.733293 0.0738311 0
M  V30 2334 H 238.566 -1.69368 0.86107 0
M  V30 2335 H 236.716 -3.87109 -0.328487 0
M  V30 2336 H 238.388 -4.0116 2.27747 0
M  V30 2337 H 236.631 -3.7377 2.20178 0
M  V30 2338 H 237.302 -5.27126 1.63837 0
M  V30 2339 H 239.778 -4.16051 0.0638529 0
M  V30 2340 H 238.654 -5.47717 -0.360115 0
M  V30 2341 H 238.915 -4.16101 -1.49373 0
M  V30 2342 N 237.974 -0.419461 -1.51915 0
M  V30 2343 C 238.937 0.389116 -2.25873 0
M  V30 2344 C 239.937 0.964924 -1.28631 0
M  V30 2345 O 241.127 0.842179 -1.52489 0
M  V30 2346 C 238.259 1.54874 -3.03689 0
M  V30 2347 H 239.452 -0.258799 -2.98781 0
M  V30 2348 H 237.005 -0.172209 -1.55348 0
M  V30 2349 H 237.74 2.23323 -2.35154 0
M  V30 2350 H 237.525 1.14223 -3.75094 0
M  V30 2351 H 239.015 2.12046 -3.59759 0
M  V30 2352 N 239.452 1.56882 -0.150215 0
M  V30 2353 C 240.415 2.1573 0.774157 0
M  V30 2354 C 241.415 1.0999 1.17298 0
M  V30 2355 O 242.605 1.35613 1.09338 0
M  V30 2356 C 239.737 2.72302 2.05096 0
M  V30 2357 H 240.93 2.98752 0.262201 0
M  V30 2358 H 238.483 1.55985 0.099248 0
M  V30 2359 H 239.218 1.92956 2.6065 0
M  V30 2360 H 239.003 3.49665 1.77416 0
M  V30 2361 H 240.493 3.17632 2.71109 0
M  V30 2362 N 240.93 -0.123565 1.57115 0
M  V30 2363 C 242.176 -0.833386 1.84885 0
M  V30 2364 C 242.509 -1.79742 0.735292 0
M  V30 2365 O 241.784 -1.92764 -0.25925 0
M  V30 2366 C 242.067 -1.5873 3.23228 0
M  V30 2367 C 241.92 -0.643183 4.45178 0
M  V30 2368 C 243.239 -2.54453 3.59085 0
M  V30 2369 H 240.358 -0.301518 0.6725 0
M  V30 2370 H 243 -0.097778 1.89748 0
M  V30 2371 H 241.15 -2.21438 3.19214 0
M  V30 2372 H 242.822 -0.0253015 4.61293 0
M  V30 2373 H 241.065 0.0456139 4.33776 0
M  V30 2374 H 241.736 -1.20724 5.38637 0
M  V30 2375 H 244.212 -2.01853 3.63861 0
M  V30 2376 H 243.088 -3.04238 4.5687 0
M  V30 2377 H 243.349 -3.36906 2.86264 0
M  V30 2378 N 242.408 -1.52605 -0.393616 0
M  V30 2379 C 243.371 -1.76415 -1.46323 0
M  V30 2380 C 244.371 -0.634126 -1.47768 0
M  V30 2381 O 245.561 -0.902142 -1.4902 0
M  V30 2382 C 242.693 -1.8607 -2.85641 0
M  V30 2383 H 243.886 -2.71916 -1.26498 0
M  V30 2384 H 241.439 -1.43257 -0.625073 0
M  V30 2385 H 242.174 -0.925378 -3.10817 0
M  V30 2386 H 241.959 -2.68235 -2.85993 0
M  V30 2387 H 243.449 -2.06179 -3.63153 0
M  V30 2388 N 243.887 0.651787 -1.4349 0
M  V30 2389 C 244.817 1.77621 -1.51569 0
M  V30 2390 C 245.798 1.66022 -0.370253 0
M  V30 2391 O 246.983 1.85095 -0.587658 0
M  V30 2392 C 244.113 3.16056 -1.43966 0
M  V30 2393 C 243.067 3.4242 -2.56774 0
M  V30 2394 C 242.393 4.8067 -2.34223 0
M  V30 2395 C 243.693 3.37023 -3.99015 0
M  V30 2396 H 245.387 1.71117 -2.45681 0
M  V30 2397 H 242.933 0.821825 -1.18246 0
M  V30 2398 H 244.886 3.94472 -1.48221 0
M  V30 2399 H 243.61 3.23293 -0.463586 0
M  V30 2400 H 242.269 2.66375 -2.51873 0
M  V30 2401 H 241.917 4.84585 -1.34856 0
M  V30 2402 H 241.617 4.9927 -3.09844 0
M  V30 2403 H 243.141 5.61342 -2.40265 0
M  V30 2404 H 244.555 4.05374 -4.05395 0
M  V30 2405 H 242.952 3.67159 -4.74673 0
M  V30 2406 H 244.022 2.3518 -4.2405 0
M  V30 2407 N 245.365 1.30045 0.890287 0
M  V30 2408 C 246.328 1.15963 1.977 0
M  V30 2409 C 247.328 0.0923777 1.60534 0
M  V30 2410 O 248.518 0.340071 1.70848 0
M  V30 2411 C 245.65 0.775451 3.31963 0
M  V30 2412 H 246.843 2.12502 2.11619 0
M  V30 2413 H 244.396 1.13366 1.07601 0
M  V30 2414 H 245.131 -0.189671 3.23745 0
M  V30 2415 H 244.916 1.54668 3.60306 0
M  V30 2416 H 246.406 0.700251 4.11687 0
M  V30 2417 N 246.843 -1.10192 1.12674 0
M  V30 2418 C 248.089 -1.82475 0.884915 0
M  V30 2419 C 248.422 -1.85093 -0.58773 0
M  V30 2420 O 247.697 -1.3134 -1.43457 0
M  V30 2421 C 247.98 -3.29018 1.46353 0
M  V30 2422 C 247.833 -3.34718 3.00473 0
M  V30 2423 C 249.152 -4.25473 1.12519 0
M  V30 2424 H 246.271 -0.662492 0.322915 0
M  V30 2425 H 248.913 -1.2913 1.39375 0
M  V30 2426 H 247.063 -3.74576 1.03077 0
M  V30 2427 H 248.735 -2.97622 3.52447 0
M  V30 2428 H 246.978 -2.74541 3.35872 0
M  V30 2429 H 247.649 -4.37918 3.36053 0
M  V30 2430 H 250.125 -3.88161 1.499 0
M  V30 2431 H 249.001 -5.26365 1.55663 0
M  V30 2432 H 249.262 -4.42084 0.0377407 0
M  V30 2433 N 248.321 -0.919034 -1.28029 0
M  V30 2434 C 249.284 -0.416182 -2.2539 0
M  V30 2435 C 250.284 0.460438 -1.54067 0
M  V30 2436 O 251.474 0.262744 -1.72207 0
M  V30 2437 C 248.606 0.402707 -3.38513 0
M  V30 2438 H 249.799 -1.27629 -2.71387 0
M  V30 2439 H 247.352 -0.698919 -1.39803 0
M  V30 2440 H 248.087 1.282 -2.97885 0
M  V30 2441 H 247.872 -0.225698 -3.9145 0
M  V30 2442 H 249.362 0.745191 -4.10897 0
M  V30 2443 N 249.799 1.42003 -0.683588 0
M  V30 2444 C 250.729 2.33487 -0.024866 0
M  V30 2445 C 251.71 1.51163 0.779975 0
M  V30 2446 O 252.895 1.79739 0.735362 0
M  V30 2447 C 250.025 3.3487 0.920836 0
M  V30 2448 C 248.979 4.27414 0.223958 0
M  V30 2449 C 248.305 5.19074 1.2832 0
M  V30 2450 C 249.605 5.14445 -0.90242 0
M  V30 2451 H 251.299 2.88819 -0.788921 0
M  V30 2452 H 248.845 1.38873 -0.38083 0
M  V30 2453 H 250.798 3.97787 1.39081 0
M  V30 2454 H 249.522 2.77861 1.71642 0
M  V30 2455 H 248.181 3.65904 -0.225864 0
M  V30 2456 H 247.829 4.58387 2.071 0
M  V30 2457 H 247.529 5.81822 0.821995 0
M  V30 2458 H 249.053 5.84867 1.75392 0
M  V30 2459 H 250.467 5.70998 -0.513272 0
M  V30 2460 H 248.864 5.86072 -1.28997 0
M  V30 2461 H 249.934 4.52322 -1.74737 0
M  V30 2462 N 251.277 0.427512 1.51691 0
M  V30 2463 C 252.207 -0.3796 2.30394 0
M  V30 2464 C 253.188 -1.02982 1.35384 0
M  V30 2465 O 254.373 -1.03534 1.643 0
M  V30 2466 C 251.503 -1.48649 3.1388 0
M  V30 2467 C 250.457 -0.960294 4.17088 0
M  V30 2468 C 249.783 -2.16219 4.89033 0
M  V30 2469 C 251.083 -0.00153679 5.223 0
M  V30 2470 H 252.777 0.277164 2.98114 0
M  V30 2471 H 250.323 0.134739 1.43368 0
M  V30 2472 H 252.276 -2.05826 3.67714 0
M  V30 2473 H 251 -2.1714 2.43962 0
M  V30 2474 H 249.659 -0.410806 3.64291 0
M  V30 2475 H 249.307 -2.83307 4.15628 0
M  V30 2476 H 249.007 -1.81654 5.58816 0
M  V30 2477 H 250.531 -2.73968 5.45687 0
M  V30 2478 H 251.945 -0.482687 5.71264 0
M  V30 2479 H 250.342 0.256199 5.99553 0
M  V30 2480 H 251.412 0.938174 4.75738 0
M  V30 2481 N 252.755 -1.56801 0.158532 0
M  V30 2482 C 254.166 -1.83189 -0.360366 0
M  V30 2483 C 254.517 -1.07778 -1.63946 0
M  V30 2484 O 253.642 -0.326718 -2.13919 0
M  V30 2485 C 254.237 -3.32297 -0.660595 0
M  V30 2486 C 252.796 -3.59227 -1.12398 0
M  V30 2487 C 251.943 -2.76877 -0.153097 0
M  V30 2488 H 254.894 -1.54008 0.383031 0
M  V30 2489 H 254.915 -3.4908 -1.51405 0
M  V30 2490 H 254.427 -3.87156 0.270527 0
M  V30 2491 H 252.528 -3.09766 -2.07064 0
M  V30 2492 H 252.641 -4.67632 -1.04197 0
M  V30 2493 H 251.005 -2.46319 -0.647983 0
M  V30 2494 H 251.788 -3.34511 0.77182 0
M  V30 2495 N 254.233 0.115231 -1.57178 0
M  V30 2496 C 255.163 1.1423 -2.03651 0
M  V30 2497 C 256.144 1.42967 -0.921655 0
M  V30 2498 O 257.329 1.53343 -1.19162 0
M  V30 2499 C 254.459 2.4675 -2.44401 0
M  V30 2500 C 253.413 2.32467 -3.59365 0
M  V30 2501 C 252.739 3.69984 -3.86026 0
M  V30 2502 C 254.039 1.78203 -4.90959 0
M  V30 2503 H 255.733 0.755749 -2.89705 0
M  V30 2504 H 253.279 0.362093 -1.39373 0
M  V30 2505 H 255.232 3.18854 -2.75517 0
M  V30 2506 H 253.956 2.87302 -1.55322 0
M  V30 2507 H 252.615 1.62811 -3.28463 0
M  V30 2508 H 252.263 4.08028 -2.94147 0
M  V30 2509 H 251.963 3.61279 -4.63412 0
M  V30 2510 H 253.487 4.43587 -4.19599 0
M  V30 2511 H 254.901 2.40128 -5.20587 0
M  V30 2512 H 253.298 1.8031 -5.72371 0
M  V30 2513 H 254.368 0.739876 -4.79222 0
M  V30 2514 N 255.711 1.52812 0.385517 0
M  V30 2515 C 256.674 1.77188 1.45386 0
M  V30 2516 C 257.674 0.641953 1.4743 0
M  V30 2517 O 258.864 0.910033 1.4854 0
M  V30 2518 C 255.996 1.87582 2.8465 0
M  V30 2519 H 257.189 2.72583 1.25054 0
M  V30 2520 H 254.742 1.43586 0.617467 0
M  V30 2521 H 255.477 0.941849 3.10322 0
M  V30 2522 H 255.262 2.69748 2.84567 0
M  V30 2523 H 256.752 2.08102 3.62054 0
M  V30 2524 N 257.189 -0.644168 1.43834 0
M  V30 2525 C 258.605 -0.960875 1.27434 0
M  V30 2526 C 258.805 -2.00499 0.200618 0
M  V30 2527 O 257.861 -2.49018 -0.417906 0
M  V30 2528 C 259.174 -1.43653 2.64167 0
M  V30 2529 C 260.722 -1.55271 2.71772 0
M  V30 2530 C 261.197 -2.06224 4.08944 0
M  V30 2531 N 262.688 -2.13513 4.11055 0
M  V30 2532 C 263.423 -2.54081 5.14033 0
M  V30 2533 N 262.919 -2.9388 6.27381 0
M  V30 2534 N 264.712 -2.54101 5.01387 0
M  V30 2535 H 256.863 0.0465779 2.12349 0
M  V30 2536 H 259.126 -0.0417638 0.94708 0
M  V30 2537 H 258.832 -0.743706 3.43747 0
M  V30 2538 H 258.706 -2.40993 2.90176 0
M  V30 2539 H 261.093 -2.23653 1.92519 0
M  V30 2540 H 261.174 -0.563395 2.49519 0
M  V30 2541 H 260.818 -1.38441 4.88668 0
M  V30 2542 H 260.748 -3.06003 4.28567 0
M  V30 2543 H 263.239 -1.85493 3.29242 0
M  V30 2544 H 263.552 -3.2361 7.01781 0
M  V30 2545 H 261.897 -2.91663 6.30839 0
M  V30 2546 H 265.088 -2.22391 4.11898 0
M  V30 2547 H 265.261 -2.85394 5.81768 0
M  V30 2548 N 258.668 -1.30515 -0.883378 0
M  V30 2549 C 259.914 -1.19607 -1.63774 0
M  V30 2550 C 260.247 0.248314 -1.92606 0
M  V30 2551 O 259.522 1.17742 -1.54813 0
M  V30 2552 C 259.805 -2.02669 -2.97653 0
M  V30 2553 C 259.658 -3.55335 -2.75784 0
M  V30 2554 C 260.977 -1.86573 -3.98596 0
M  V30 2555 H 258.096 -0.435856 -0.594305 0
M  V30 2556 H 260.738 -1.60165 -1.02212 0
M  V30 2557 H 258.888 -1.68208 -3.50197 0
M  V30 2558 H 260.56 -3.99863 -2.30016 0
M  V30 2559 H 258.803 -3.79438 -2.1026 0
M  V30 2560 H 259.474 -4.08745 -3.70988 0
M  V30 2561 H 261.95 -2.16703 -3.55217 0
M  V30 2562 H 260.826 -2.47014 -4.90179 0
M  V30 2563 H 261.087 -0.825321 -4.34328 0
M  V30 2564 N 260.146 1.09593 -1.13257 0
M  V30 2565 C 261.394 1.81375 -0.891492 0
M  V30 2566 C 261.715 1.86049 0.584009 0
M  V30 2567 O 260.985 1.34481 1.42449 0
M  V30 2568 H 259.565 0.671708 -0.326828 0
M  V30 2569 H 262.227 1.3256 -1.42877 0
M  V30 2570 H 261.323 2.84612 -1.28071 0
M  V30 2571 N 261.624 0.925811 1.2754 0
M  V30 2572 C 263.04 0.625767 1.46821 0
M  V30 2573 C 263.24 -0.825506 1.83814 0
M  V30 2574 O 262.296 -1.60356 1.95044 0
M  V30 2575 C 263.609 1.57402 2.56213 0
M  V30 2576 C 265.157 1.58204 2.70075 0
M  V30 2577 C 265.632 2.51721 3.82623 0
M  V30 2578 N 267.123 2.49917 3.89994 0
M  V30 2579 C 267.858 3.18968 4.76494 0
M  V30 2580 N 267.354 3.97391 5.67496 0
M  V30 2581 N 269.147 3.07996 4.70208 0
M  V30 2582 H 261.298 1.86409 1.01811 0
M  V30 2583 H 263.561 0.800213 0.508295 0
M  V30 2584 H 263.267 2.60925 2.35819 0
M  V30 2585 H 263.141 1.31428 3.53563 0
M  V30 2586 H 265.528 0.554124 2.89851 0
M  V30 2587 H 265.609 1.88226 1.73218 0
M  V30 2588 H 265.253 3.54622 3.63601 0
M  V30 2589 H 265.183 2.18996 4.78903 0
M  V30 2590 H 267.674 1.9296 3.24923 0
M  V30 2591 H 267.987 4.4707 6.30356 0
M  V30 2592 H 266.332 4.01495 5.67298 0
M  V30 2593 H 269.523 2.46223 3.9811 0
M  V30 2594 H 269.696 3.6208 5.37403 0
M  V30 2595 N 263.102 -1.41638 0.69111 0
M  V30 2596 C 264.332 -2.0533 0.228758 0
M  V30 2597 C 264.74 -1.52089 -1.12541 0
M  V30 2598 O 264.083 -0.662145 -1.71351 0
M  V30 2599 C 264.145 -3.59349 0.10407 0
M  V30 2600 C 263.809 -4.35362 1.38956 0
M  V30 2601 C 264.806 -4.64942 2.32648 0
M  V30 2602 C 262.491 -4.74714 1.64169 0
M  V30 2603 C 264.485 -5.32828 3.49818 0
M  V30 2604 C 262.172 -5.42338 2.81625 0
M  V30 2605 C 263.17 -5.71322 3.74273 0
M  V30 2606 O 262.858 -6.37554 4.89673 0
M  V30 2607 H 262.59 -0.667796 0.104997 0
M  V30 2608 H 265.144 -1.82477 0.942938 0
M  V30 2609 H 263.374 -3.80924 -0.665839 0
M  V30 2610 H 265.063 -4.04633 -0.320519 0
M  V30 2611 H 265.829 -4.35025 2.14425 0
M  V30 2612 H 261.708 -4.51538 0.929202 0
M  V30 2613 H 265.252 -5.55368 4.22152 0
M  V30 2614 H 261.149 -5.71673 2.99768 0
M  V30 2615 H 261.917 -6.56049 4.8943 0
M  V30 2616 N 264.58 -0.43555 -1.51462 0
M  V30 2617 C 265.49 0.383001 -2.31453 0
M  V30 2618 C 266.506 1.02931 -1.4029 0
M  V30 2619 O 267.682 1.02507 -1.73362 0
M  V30 2620 C 264.747 1.47043 -3.13973 0
M  V30 2621 C 263.808 0.844433 -4.20913 0
M  V30 2622 C 263.041 1.88004 -4.9949 0
M  V30 2623 O 263.264 3.10199 -4.78678 0
M  V30 2624 O 262.198 1.47157 -5.83634 0
M  V30 2625 H 266.024 -0.269964 -3.02498 0
M  V30 2626 H 263.609 -0.19813 -1.4808 0
M  V30 2627 H 265.491 2.10113 -3.65281 0
M  V30 2628 H 264.166 2.10751 -2.45695 0
M  V30 2629 H 263.073 0.175729 -3.73687 0
M  V30 2630 H 264.406 0.250869 -4.9156 0
M  V30 2631 N 266.058 1.56714 -0.166846 0
M  V30 2632 C 266.988 2.20754 0.760913 0
M  V30 2633 C 267.969 1.16178 1.24244 0
M  V30 2634 O 269.154 1.44592 1.29641 0
M  V30 2635 C 266.284 2.84478 1.99223 0
M  V30 2636 C 265.238 3.95053 1.64672 0
M  V30 2637 C 264.564 4.45805 2.95232 0
M  V30 2638 C 265.864 5.14865 0.878155 0
M  V30 2639 H 267.558 2.98537 0.22713 0
M  V30 2640 H 265.104 1.43596 0.107805 0
M  V30 2641 H 267.057 3.27951 2.64624 0
M  V30 2642 H 265.781 2.04056 2.55007 0
M  V30 2643 H 264.44 3.52228 1.01641 0
M  V30 2644 H 264.088 3.62181 3.49047 0
M  V30 2645 H 263.788 5.204 2.7287 0
M  V30 2646 H 265.312 4.91962 3.6167 0
M  V30 2647 H 266.726 5.55059 1.43466 0
M  V30 2648 H 265.123 5.95348 0.753738 0
M  V30 2649 H 266.193 4.84735 -0.126377 0
M  V30 2650 N 267.536 -0.106894 1.57237 0
M  V30 2651 C 268.468 -1.15646 1.97885 0
M  V30 2652 C 269.481 -1.36981 0.879779 0
M  V30 2653 O 270.67 -1.35841 1.15799 0
M  V30 2654 C 267.77 -2.51425 2.27241 0
M  V30 2655 C 266.943 -2.50529 3.58545 0
M  V30 2656 C 266.002 -3.68145 3.75973 0
M  V30 2657 O 265.028 -3.51176 4.47956 0
M  V30 2658 N 266.23 -4.87177 3.15656 0
M  V30 2659 H 268.995 -0.81059 2.8853 0
M  V30 2660 H 266.556 -0.296024 1.59171 0
M  V30 2661 H 268.548 -3.28689 2.36105 0
M  V30 2662 H 267.118 -2.78147 1.42663 0
M  V30 2663 H 266.338 -1.58894 3.60758 0
M  V30 2664 H 267.626 -2.46997 4.44826 0
M  V30 2665 H 267.024 -5.03868 2.57165 0
M  V30 2666 H 265.581 -5.62075 3.30023 0
M  V30 2667 N 269.014 -1.53014 -0.377408 0
M  V30 2668 C 270.244 -1.72265 -1.14054 0
M  V30 2669 C 270.652 -0.44601 -1.83868 0
M  V30 2670 O 269.995 0.590095 -1.73964 0
M  V30 2671 C 270.057 -2.82492 -2.22348 0
M  V30 2672 C 269.721 -4.23233 -1.72402 0
M  V30 2673 C 270.718 -5.05992 -1.19448 0
M  V30 2674 C 268.403 -4.696 -1.78273 0
M  V30 2675 C 270.397 -6.33203 -0.730268 0
M  V30 2676 C 268.084 -5.96792 -1.31464 0
M  V30 2677 C 269.082 -6.78424 -0.789297 0
M  V30 2678 O 268.77 -8.0323 -0.328077 0
M  V30 2679 H 268.502 -0.579873 -0.347453 0
M  V30 2680 H 271.056 -2.00502 -0.445882 0
M  V30 2681 H 269.286 -2.49702 -2.95272 0
M  V30 2682 H 270.975 -2.90034 -2.83963 0
M  V30 2683 H 271.741 -4.71349 -1.14259 0
M  V30 2684 H 267.62 -4.06142 -2.18106 0
M  V30 2685 H 271.164 -6.96868 -0.319542 0
M  V30 2686 H 267.061 -6.30937 -1.36342 0
M  V30 2687 H 267.829 -8.1727 -0.448493 0
M  V30 2688 N 270.492 0.636531 -1.44174 0
M  V30 2689 C 271.903 1.21806 -1.41493 0
M  V30 2690 C 272.254 1.95785 -0.1275 0
M  V30 2691 O 271.379 2.02147 0.772376 0
M  V30 2692 C 271.974 2.21551 -2.56321 0
M  V30 2693 C 270.533 2.75143 -2.56853 0
M  V30 2694 C 269.68 1.50052 -2.33195 0
M  V30 2695 H 272.631 0.427531 -1.52833 0
M  V30 2696 H 272.652 3.0405 -2.28765 0
M  V30 2697 H 272.164 1.67679 -3.50008 0
M  V30 2698 H 270.265 3.33033 -1.67093 0
M  V30 2699 H 270.378 3.2155 -3.55165 0
M  V30 2700 H 268.742 1.77993 -1.82183 0
M  V30 2701 H 269.525 0.980903 -3.28988 0
M  V30 2702 N 271.97 1.30982 0.876444 0
M  V30 2703 C 273.218 1.20058 1.62575 0
M  V30 2704 C 273.539 -0.242947 1.93481 0
M  V30 2705 O 272.809 -1.1619 1.57724 0
M  V30 2706 H 271.389 0.44135 0.602677 0
M  V30 2707 H 274.051 1.64222 1.04962 0
M  V30 2708 H 273.147 1.76762 2.57219 0
M  V30 2709 N 273.449 -1.08991 1.13837 0
M  V30 2710 C 274.677 -1.85011 0.926202 0
M  V30 2711 C 275.092 -1.8135 -0.525127 0
M  V30 2712 O 274.449 -1.21287 -1.36366 0
M  V30 2713 C 274.5 -3.32802 1.41155 0
M  V30 2714 O 274.221 -3.36444 2.80601 0
M  V30 2715 C 275.722 -4.25649 1.23847 0
M  V30 2716 H 272.942 -0.584249 0.32999 0
M  V30 2717 H 275.486 -1.37688 1.51202 0
M  V30 2718 H 273.641 -3.77536 0.868631 0
M  V30 2719 H 274.055 -4.28657 3.02248 0
M  V30 2720 H 275.529 -5.27485 1.62675 0
M  V30 2721 H 276.006 -4.38828 0.18065 0
M  V30 2722 H 276.612 -3.86735 1.76964 0
M  V30 2723 N 274.927 -0.932562 -1.27047 0
M  V30 2724 C 276.173 -0.585913 -1.94778 0
M  V30 2725 C 276.528 0.864142 -1.71902 0
M  V30 2726 O 275.821 1.60894 -1.04037 0
M  V30 2727 C 276.015 -0.853713 -3.47054 0
M  V30 2728 C 275.844 -2.32825 -3.84737 0
M  V30 2729 C 274.614 -2.98184 -4.07939 0
M  V30 2730 C 276.812 -3.30612 -3.93954 0
M  V30 2731 N 274.794 -4.3574 -4.3244 0
M  V30 2732 C 276.165 -4.53395 -4.22887 0
M  V30 2733 C 278.22 -3.25755 -3.76548 0
M  V30 2734 C 276.923 -5.71927 -4.36224 0
M  V30 2735 C 278.949 -4.43604 -3.91113 0
M  V30 2736 C 278.311 -5.65166 -4.20437 0
M  V30 2737 H 274.41 -0.264617 -0.735868 0
M  V30 2738 H 276.994 -1.20019 -1.53309 0
M  V30 2739 H 275.165 -0.268557 -3.8747 0
M  V30 2740 H 276.897 -0.469202 -4.01971 0
M  V30 2741 H 273.652 -2.48835 -4.02961 0
M  V30 2742 H 274.076 -5.06915 -4.48738 0
M  V30 2743 H 278.718 -2.32835 -3.52913 0
M  V30 2744 H 276.436 -6.65308 -4.58683 0
M  V30 2745 H 280.022 -4.41368 -3.79059 0
M  V30 2746 H 278.902 -6.54836 -4.31462 0
M  V30 2747 N 276.405 1.4127 -0.698611 0
M  V30 2748 C 277.645 2.03044 -0.235062 0
M  V30 2749 C 278.009 1.54146 1.14468 0
M  V30 2750 O 279.21 2.07867 1.70425 0
M  V30 2751 C 277.481 3.56192 -0.293651 0
M  V30 2752 S 279.04 4.38696 0.0954053 0
M  V30 2753 H 275.858 0.704697 -0.0944648 0
M  V30 2754 H 278.46 1.72656 -0.917064 0
M  V30 2755 H 277.164 3.89274 -1.29977 0
M  V30 2756 H 276.695 3.91285 0.407397 0
M  V30 2757 H 278.71 4.78257 1.3223 0
M  V30 2758 N 277.883 0.443576 1.51229 0
M  V30 2759 C 279.13 -0.120796 2.02139 0
M  V30 2760 C 279.458 -1.42166 1.32736 0
M  V30 2761 O 278.713 -1.90849 0.43301 0
M  V30 2762 C 279.012 -0.380579 3.55368 0
M  V30 2763 C 278.678 0.83523 4.43097 0
M  V30 2764 C 277.34 1.16864 4.66794 0
M  V30 2765 C 279.692 1.64601 4.94526 0
M  V30 2766 C 277.02 2.31339 5.39165 0
M  V30 2767 C 279.372 2.78181 5.68153 0
M  V30 2768 C 278.036 3.11969 5.90112 0
M  V30 2769 H 277.306 -0.0442023 0.73968 0
M  V30 2770 H 279.953 0.592046 1.82118 0
M  V30 2771 H 278.258 -1.17538 3.73754 0
M  V30 2772 H 279.955 -0.830777 3.923 0
M  V30 2773 H 276.545 0.565437 4.24854 0
M  V30 2774 H 280.729 1.40163 4.76097 0
M  V30 2775 H 275.985 2.57823 5.5438 0
M  V30 2776 H 280.159 3.41371 6.06992 0
M  V30 2777 H 277.786 4.00784 6.45969 0
M  V30 2778 N 279.361 -1.56624 0.175154 0
M  V30 2779 C 280.61 -1.96173 -0.468921 0
M  V30 2780 C 280.923 -1.06401 -1.64128 0
M  V30 2781 O 282.129 -1.35648 -2.35185 0
M  V30 2782 C 280.585 -3.48833 -0.885633 0
M  V30 2783 C 280.193 -4.47237 0.261343 0
M  V30 2784 C 281.937 -3.97194 -1.49791 0
M  V30 2785 C 279.844 -5.9114 -0.175214 0
M  V30 2786 H 278.774 -0.732455 -0.178958 0
M  V30 2787 H 281.425 -1.81591 0.263997 0
M  V30 2788 H 279.807 -3.58848 -1.67464 0
M  V30 2789 H 280.981 -4.4894 1.03871 0
M  V30 2790 H 279.296 -4.08956 0.783827 0
M  V30 2791 H 281.893 -5.02167 -1.83665 0
M  V30 2792 H 282.236 -3.40351 -2.39722 0
M  V30 2793 H 282.769 -3.90212 -0.773267 0
M  V30 2794 H 279.508 -6.51865 0.689414 0
M  V30 2795 H 279.028 -5.92735 -0.91786 0
M  V30 2796 H 280.707 -6.44044 -0.617792 0
M  V30 2797 N 280.839 0.0985539 -1.57292 0
M  V30 2798 C 282.087 0.801092 -1.85545 0
M  V30 2799 C 282.408 1.79438 -0.763353 0
M  V30 2800 O 281.678 1.94763 0.21073 0
M  V30 2801 H 280.258 0.29884 -0.684619 0
M  V30 2802 H 282.92 0.0810064 -1.94732 0
M  V30 2803 H 282.016 1.3338 -2.82163 0
M  V30 2804 N 282.317 1.53212 0.369288 0
M  V30 2805 C 283.247 1.82365 1.45826 0
M  V30 2806 C 284.228 0.676907 1.56051 0
M  V30 2807 O 285.413 0.926401 1.70679 0
M  V30 2808 C 282.543 2.01023 2.83208 0
M  V30 2809 C 281.497 3.1678 2.8781 0
M  V30 2810 C 280.823 3.20724 4.27832 0
M  V30 2811 C 282.123 4.55447 2.55667 0
M  V30 2812 H 283.817 2.73559 1.21678 0
M  V30 2813 H 281.363 1.3163 0.583911 0
M  V30 2814 H 283.316 2.20001 3.59413 0
M  V30 2815 H 282.04 1.06536 3.08736 0
M  V30 2816 H 280.699 2.97616 2.14056 0
M  V30 2817 H 280.347 2.23882 4.50429 0
M  V30 2818 H 280.047 3.98496 4.31827 0
M  V30 2819 H 281.571 3.41881 5.05915 0
M  V30 2820 H 282.985 4.74611 3.21586 0
M  V30 2821 H 281.382 5.35432 2.70984 0
M  V30 2822 H 282.452 4.60812 1.5093 0
M  V30 2823 N 283.795 -0.628877 1.44509 0
M  V30 2824 C 285.043 -1.38565 1.4712 0
M  V30 2825 C 285.364 -1.94712 0.105899 0
M  V30 2826 O 284.634 -1.75912 -0.862079 0
M  V30 2827 H 283.214 -0.514333 0.541729 0
M  V30 2828 H 285.876 -0.740018 1.80305 0
M  V30 2829 H 284.972 -2.21583 2.19789 0
M  V30 2830 N 285.273 -1.31445 -0.869486 0
M  V30 2831 C 286.684 -1.19042 -1.43826 0
M  V30 2832 C 287.035 0.202919 -1.95148 0
M  V30 2833 O 286.16 1.10071 -1.86315 0
M  V30 2834 C 286.755 -2.15499 -2.6143 0
M  V30 2835 C 285.314 -2.07028 -3.14351 0
M  V30 2836 C 284.461 -2.04701 -1.87063 0
M  V30 2837 H 287.412 -1.43489 -0.677984 0
M  V30 2838 H 287.433 -1.74488 -3.38134 0
M  V30 2839 H 286.945 -3.16899 -2.24046 0
M  V30 2840 H 285.046 -1.08825 -3.56354 0
M  V30 2841 H 285.159 -2.96157 -3.766 0
M  V30 2842 H 283.523 -1.49724 -2.06046 0
M  V30 2843 H 284.306 -3.07857 -1.51917 0
M  V30 2844 N 286.751 1.08385 -1.14413 0
M  V30 2845 C 288.162 1.62258 -0.923535 0
M  V30 2846 C 288.513 1.88691 0.537595 0
M  V30 2847 O 287.638 1.64454 1.40655 0
M  V30 2848 C 288.233 2.94781 -1.67002 0
M  V30 2849 C 286.792 3.45437 -1.495 0
M  V30 2850 C 285.939 2.19668 -1.69238 0
M  V30 2851 H 288.89 0.916086 -1.2959 0
M  V30 2852 H 288.911 3.63229 -1.13334 0
M  V30 2853 H 288.423 2.7551 -2.73342 0
M  V30 2854 H 286.524 3.6981 -0.455097 0
M  V30 2855 H 286.637 4.22173 -2.2651 0
M  V30 2856 H 285.001 2.28849 -1.11804 0
M  V30 2857 H 285.784 2.02905 -2.7692 0
M  V30 2858 N 288.23 0.939286 1.26551 0
M  V30 2859 C 289.478 0.58469 1.93457 0
M  V30 2860 C 289.799 -0.878774 1.74076 0
M  V30 2861 O 289.069 -1.62421 1.09528 0
M  V30 2862 H 287.649 0.21325 0.715914 0
M  V30 2863 H 290.311 1.1942 1.54029 0
M  V30 2864 H 289.407 0.800849 3.0165 0
M  V30 2865 N 289.708 -1.40897 0.706093 0
M  V30 2866 C 290.956 -2.00657 0.241054 0
M  V30 2867 C 291.277 -1.56241 -1.16678 0
M  V30 2868 O 290.547 -0.79765 -1.78926 0
M  V30 2869 H 289.127 -0.742018 0.0861308 0
M  V30 2870 H 291.789 -1.72372 0.909604 0
M  V30 2871 H 290.885 -3.10958 0.266705 0
M  V30 2872 N 291.186 -0.45159 -1.50991 0
M  V30 2873 C 292.432 0.102439 -2.03142 0
M  V30 2874 C 292.787 1.39138 -1.32884 0
M  V30 2875 O 292.08 1.86493 -0.439438 0
M  V30 2876 C 292.274 0.361728 -3.55565 0
M  V30 2877 C 292.103 -0.900535 -4.40591 0
M  V30 2878 C 290.873 -1.43821 -4.844 0
M  V30 2879 C 293.071 -1.79063 -4.82121 0
M  V30 2880 N 291.053 -2.65153 -5.53685 0
M  V30 2881 C 292.424 -2.84991 -5.50618 0
M  V30 2882 C 294.479 -1.80334 -4.64095 0
M  V30 2883 C 293.182 -3.92155 -6.02998 0
M  V30 2884 C 295.208 -2.86442 -5.17402 0
M  V30 2885 C 294.57 -3.9109 -5.85857 0
M  V30 2886 H 290.669 -0.00204537 -0.781997 0
M  V30 2887 H 293.253 -0.615446 -1.84717 0
M  V30 2888 H 291.424 1.04865 -3.73976 0
M  V30 2889 H 293.156 0.908372 -3.94374 0
M  V30 2890 H 289.911 -0.990117 -4.63135 0
M  V30 2891 H 290.335 -3.26717 -5.92946 0
M  V30 2892 H 294.977 -1.00753 -4.1062 0
M  V30 2893 H 292.695 -4.72565 -6.55521 0
M  V30 2894 H 296.281 -2.88386 -5.05297 0
M  V30 2895 H 295.161 -4.71845 -6.26364 0
M  V30 2896 N 292.664 1.56529 -0.183458 0
M  V30 2897 C 294.08 1.58664 0.172554 0
M  V30 2898 C 294.28 1.19925 1.61926 0
M  V30 2899 O 293.336 0.916534 2.35278 0
M  V30 2900 C 294.649 3.00463 -0.119262 0
M  V30 2901 C 296.197 3.12945 -0.0584396 0
M  V30 2902 C 296.672 4.56857 -0.323408 0
M  V30 2903 N 298.163 4.62403 -0.271612 0
M  V30 2904 C 298.898 5.71626 -0.450639 0
M  V30 2905 N 298.394 6.89362 -0.689384 0
M  V30 2906 N 300.187 5.60775 -0.385701 0
M  V30 2907 H 292.338 1.79994 -1.12765 0
M  V30 2908 H 294.601 0.834808 -0.449222 0
M  V30 2909 H 294.307 3.33326 -1.12192 0
M  V30 2910 H 294.181 3.72659 0.583544 0
M  V30 2911 H 296.568 2.79902 0.934805 0
M  V30 2912 H 296.649 2.4316 -0.794144 0
M  V30 2913 H 296.293 4.9061 -1.31392 0
M  V30 2914 H 296.223 5.24816 0.43305 0
M  V30 2915 H 298.714 3.77785 -0.0932256 0
M  V30 2916 H 299.027 7.68489 -0.815113 0
M  V30 2917 H 297.372 6.91196 -0.726142 0
M  V30 2918 H 300.563 4.67674 -0.199687 0
M  V30 2919 H 300.736 6.4584 -0.528646 0
M  V30 2920 N 294.142 -0.090211 1.57342 0
M  V30 2921 C 295.074 -1.13541 1.99101 0
M  V30 2922 C 296.087 -1.3604 0.894258 0
M  V30 2923 O 297.276 -1.34606 1.17233 0
M  V30 2924 C 294.376 -2.49001 2.29895 0
M  V30 2925 C 293.549 -2.46712 3.61182 0
M  V30 2926 C 292.608 -3.64136 3.79857 0
M  V30 2927 O 291.634 -3.46405 4.51655 0
M  V30 2928 N 292.836 -4.83802 3.20806 0
M  V30 2929 H 295.601 -0.779942 2.89373 0
M  V30 2930 H 293.162 -0.279125 1.59476 0
M  V30 2931 H 295.154 -3.26166 2.39578 0
M  V30 2932 H 293.724 -2.76619 1.45605 0
M  V30 2933 H 292.944 -1.55058 3.62423 0
M  V30 2934 H 294.232 -2.42265 4.4742 0
M  V30 2935 H 293.63 -5.01112 2.62494 0
M  V30 2936 H 292.187 -5.58543 3.35966 0
M  V30 2937 N 295.62 -1.53406 -0.361157 0
M  V30 2938 C 296.583 -1.79479 -1.42548 0
M  V30 2939 C 297.583 -0.665327 -1.4639 0
M  V30 2940 O 298.773 -0.933549 -1.47073 0
M  V30 2941 C 295.905 -1.92087 -2.8163 0
M  V30 2942 H 297.098 -2.74538 -1.20701 0
M  V30 2943 H 294.651 -1.4455 -0.594546 0
M  V30 2944 H 295.386 -0.991099 -3.08784 0
M  V30 2945 H 295.171 -2.74241 -2.80239 0
M  V30 2946 H 296.661 -2.13836 -3.58697 0
M  V30 2947 N 297.098 0.621204 -1.44841 0
M  V30 2948 C 298.028 1.74366 -1.55303 0
M  V30 2949 C 299.009 1.65199 -0.405385 0
M  V30 2950 O 300.194 1.83807 -0.626787 0
M  V30 2951 C 297.324 3.12931 -1.50637 0
M  V30 2952 C 296.278 3.36896 -2.63979 0
M  V30 2953 C 295.604 4.75594 -2.44366 0
M  V30 2954 C 296.904 3.28483 -4.06074 0
M  V30 2955 H 298.598 1.65867 -2.49256 0
M  V30 2956 H 296.144 0.796558 -1.19962 0
M  V30 2957 H 298.097 3.9124 -1.56555 0
M  V30 2958 H 296.821 3.22237 -0.532057 0
M  V30 2959 H 295.48 2.60972 -2.57467 0
M  V30 2960 H 295.128 4.81616 -1.45105 0
M  V30 2961 H 294.828 4.92586 -3.20364 0
M  V30 2962 H 296.352 5.5612 -2.52117 0
M  V30 2963 H 297.766 3.96684 -4.13902 0
M  V30 2964 H 296.163 3.57008 -4.82354 0
M  V30 2965 H 297.233 2.26133 -4.28943 0
M  V30 2966 N 298.576 1.31904 0.862503 0
M  V30 2967 C 299.506 1.22782 1.98612 0
M  V30 2968 C 300.487 0.113362 1.69722 0
M  V30 2969 O 301.672 0.299218 1.91881 0
M  V30 2970 C 298.802 0.942058 3.34279 0
M  V30 2971 C 297.756 2.0169 3.77499 0
M  V30 2972 C 297.082 1.58369 5.10709 0
M  V30 2973 C 298.382 3.43096 3.93805 0
M  V30 2974 H 300.076 2.16788 2.06502 0
M  V30 2975 H 297.622 1.04366 0.992154 0
M  V30 2976 H 299.575 0.864818 4.1243 0
M  V30 2977 H 298.299 -0.0336603 3.26583 0
M  V30 2978 H 296.958 2.08416 3.01593 0
M  V30 2979 H 296.606 0.595628 4.99461 0
M  V30 2980 H 296.306 2.30279 5.40597 0
M  V30 2981 H 297.83 1.52067 5.91361 0
M  V30 2982 H 299.244 3.39003 4.62331 0
M  V30 2983 H 297.641 4.13288 4.35101 0
M  V30 2984 H 298.711 3.83334 2.96957 0
M  V30 2985 N 300.054 -1.07777 1.14986 0
M  V30 2986 C 301.017 -2.13041 0.845358 0
M  V30 2987 C 302.017 -1.60071 -0.152931 0
M  V30 2988 O 303.207 -1.74033 0.0761879 0
M  V30 2989 C 300.339 -3.39896 0.261383 0
M  V30 2990 H 301.532 -2.41485 1.77834 0
M  V30 2991 H 299.085 -1.23595 0.956757 0
M  V30 2992 H 299.82 -3.17091 -0.68 0
M  V30 2993 H 299.605 -3.79642 0.980514 0
M  V30 2994 H 301.095 -4.17548 0.0657687 0
M  V30 2995 N 301.532 -0.945985 -1.26051 0
M  V30 2996 C 302.78 -0.594941 -1.93145 0
M  V30 2997 C 303.101 0.86953 -1.7454 0
M  V30 2998 O 302.371 1.61838 -1.10387 0
M  V30 2999 H 300.951 -0.217044 -0.714773 0
M  V30 3000 H 303.613 -1.20235 -1.53393 0
M  V30 3001 H 302.709 -0.816835 -3.01221 0
M  V30 3002 N 303.011 1.40521 -0.713556 0
M  V30 3003 C 303.941 2.33381 -0.0743864 0
M  V30 3004 C 304.922 1.52784 0.747735 0
M  V30 3005 O 306.107 1.81258 0.697071 0
M  V30 3006 C 303.237 3.36748 0.849598 0
M  V30 3007 C 302.191 4.27793 0.133247 0
M  V30 3008 C 301.517 5.21679 1.17281 0
M  V30 3009 C 302.817 5.12415 -1.01134 0
M  V30 3010 H 304.511 2.87081 -0.850007 0
M  V30 3011 H 302.057 1.38034 -0.410201 0
M  V30 3012 H 304.01 4.00648 1.30612 0
M  V30 3013 H 302.734 2.81439 1.65709 0
M  V30 3014 H 301.393 3.65342 -0.303426 0
M  V30 3015 H 301.041 4.62677 1.9733 0
M  V30 3016 H 300.741 5.83435 0.698397 0
M  V30 3017 H 302.265 5.88456 1.62947 0
M  V30 3018 H 303.679 5.69781 -0.634274 0
M  V30 3019 H 302.076 5.83203 -1.41399 0
M  V30 3020 H 303.146 4.48514 -1.84292 0
M  V30 3021 N 304.489 0.459591 1.5075 0
M  V30 3022 C 305.736 -0.0993495 2.02256 0
M  V30 3023 C 306.064 -1.40751 1.34237 0
M  V30 3024 O 305.319 -1.90379 0.453228 0
M  V30 3025 C 305.618 -0.342866 3.55752 0
M  V30 3026 C 305.284 0.88218 4.42186 0
M  V30 3027 C 303.946 1.21808 4.65528 0
M  V30 3028 C 306.298 1.69837 4.92752 0
M  V30 3029 C 303.626 2.37045 5.36681 0
M  V30 3030 C 305.978 2.84192 5.65171 0
M  V30 3031 C 304.642 3.1821 5.8677 0
M  V30 3032 H 303.912 -0.0363545 0.740108 0
M  V30 3033 H 306.559 0.611329 1.8148 0
M  V30 3034 H 304.864 -1.13567 3.7498 0
M  V30 3035 H 306.561 -0.789121 3.93159 0
M  V30 3036 H 303.151 0.610467 4.2423 0
M  V30 3037 H 307.335 1.45205 4.74583 0
M  V30 3038 H 302.591 2.63689 5.51614 0
M  V30 3039 H 306.765 3.4779 6.03337 0
M  V30 3040 H 304.392 4.07613 6.41682 0
M  V30 3041 N 305.967 -1.56429 0.191757 0
M  V30 3042 C 306.93 -2.17707 -0.716688 0
M  V30 3043 C 307.93 -1.13061 -1.14341 0
M  V30 3044 O 309.12 -1.38464 -1.05704 0
M  V30 3045 C 306.252 -2.77644 -1.97804 0
M  V30 3046 H 307.445 -2.99342 -0.1829 0
M  V30 3047 H 304.998 -1.56193 -0.0578566 0
M  V30 3048 H 305.733 -1.99799 -2.55443 0
M  V30 3049 H 305.518 -3.54246 -1.68083 0
M  V30 3050 H 307.008 -3.24708 -2.62592 0
M  V30 3051 N 307.445 0.0818655 -1.57387 0
M  V30 3052 C 308.67 0.799946 -1.91352 0
M  V30 3053 C 309.095 1.70833 -0.787258 0
M  V30 3054 O 308.453 1.79419 0.26048 0
M  V30 3055 C 308.501 1.57812 -3.24234 0
M  V30 3056 O 307.605 2.68806 -3.12757 0
M  V30 3057 H 306.946 0.21891 -0.626877 0
M  V30 3058 H 309.476 0.0531256 -2.04531 0
M  V30 3059 H 309.486 1.95952 -3.57864 0
M  V30 3060 H 308.161 0.911548 -4.05788 0
M  V30 3061 H 306.738 2.33597 -2.90666 0
M  V30 3062 N 308.923 1.53595 0.353017 0
M  V30 3063 C 309.853 1.83902 1.43883 0
M  V30 3064 C 310.834 0.693421 1.55324 0
M  V30 3065 O 312.019 0.944452 1.69687 0
M  V30 3066 C 309.149 2.04016 2.8106 0
M  V30 3067 C 308.103 3.19814 2.84434 0
M  V30 3068 C 307.429 3.25244 4.24406 0
M  V30 3069 C 308.729 4.58133 2.50822 0
M  V30 3070 H 310.423 2.74835 1.1877 0
M  V30 3071 H 307.969 1.32242 0.569917 0
M  V30 3072 H 309.922 2.238 3.57059 0
M  V30 3073 H 308.646 1.09804 3.07588 0
M  V30 3074 H 307.305 2.9987 2.10887 0
M  V30 3075 H 306.953 2.28646 4.48029 0
M  V30 3076 H 306.653 4.03054 4.27576 0
M  V30 3077 H 308.177 3.47228 5.0226 0
M  V30 3078 H 309.591 4.77995 3.16534 0
M  V30 3079 H 307.988 5.38276 2.6529 0
M  V30 3080 H 309.058 4.62387 1.46034 0
M  V30 3081 N 310.401 -0.613514 1.45168 0
M  V30 3082 C 311.649 -1.36997 1.48581 0
M  V30 3083 C 311.97 -1.94589 0.126545 0
M  V30 3084 O 311.24 -1.76816 -0.843372 0
M  V30 3085 H 309.82 -0.508558 0.547154 0
M  V30 3086 H 312.482 -0.720853 1.81079 0
M  V30 3087 H 311.578 -2.1924 2.22127 0
M  V30 3088 N 311.879 -1.3236 -0.855495 0
M  V30 3089 C 312.809 -1.23833 -1.97958 0
M  V30 3090 C 313.79 -0.122361 -1.69659 0
M  V30 3091 O 314.975 -0.30939 -1.9172 0
M  V30 3092 C 312.105 -0.959772 -3.33775 0
M  V30 3093 C 311.059 -2.03689 -3.76424 0
M  V30 3094 C 310.385 -1.61075 -5.09862 0
M  V30 3095 C 311.685 -3.4518 -3.9198 0
M  V30 3096 H 313.379 -2.1788 -2.0535 0
M  V30 3097 H 310.925 -1.04891 -0.986605 0
M  V30 3098 H 312.878 -0.886678 -4.11966 0
M  V30 3099 H 311.602 0.0163404 -3.26596 0
M  V30 3100 H 310.261 -2.10012 -3.00484 0
M  V30 3101 H 309.909 -0.622107 -4.99138 0
M  V30 3102 H 309.609 -2.33143 -5.39368 0
M  V30 3103 H 311.133 -1.55201 -5.90546 0
M  V30 3104 H 312.547 -3.4145 -4.60526 0
M  V30 3105 H 310.944 -4.1559 -4.32903 0
M  V30 3106 H 312.014 -3.84903 -2.94919 0
M  V30 3107 N 313.357 1.07166 -1.15556 0
M  V30 3108 C 314.603 1.80065 -0.932984 0
M  V30 3109 C 314.936 1.86586 0.53845 0
M  V30 3110 O 314.211 1.35098 1.39924 0
M  V30 3111 C 314.494 3.25022 -1.55025 0
M  V30 3112 C 314.347 3.26634 -3.09242 0
M  V30 3113 C 315.666 4.22341 -1.2376 0
M  V30 3114 H 312.785 0.653697 -0.340366 0
M  V30 3115 H 315.427 1.25389 -1.4275 0
M  V30 3116 H 313.577 3.71712 -1.12972 0
M  V30 3117 H 315.249 2.88173 -3.60214 0
M  V30 3118 H 313.492 2.65539 -3.43033 0
M  V30 3119 H 314.163 4.28854 -3.47546 0
M  V30 3120 H 316.639 3.8405 -1.60139 0
M  V30 3121 H 315.515 5.22053 -1.69564 0
M  V30 3122 H 315.776 4.41828 -0.154938 0
M  V30 3123 N 314.835 0.952656 1.25548 0
M  V30 3124 C 315.798 0.475794 2.24207 0
M  V30 3125 C 316.798 -0.419428 1.55234 0
M  V30 3126 O 317.988 -0.216994 1.72843 0
M  V30 3127 C 315.12 -0.312814 3.39462 0
M  V30 3128 H 316.313 1.34779 2.67908 0
M  V30 3129 H 313.866 0.735739 1.37901 0
M  V30 3130 H 314.601 -1.20257 3.01179 0
M  V30 3131 H 314.386 0.329404 3.90714 0
M  V30 3132 H 315.876 -0.635986 4.12729 0
M  V30 3133 N 316.313 -1.40141 0.720998 0
M  V30 3134 C 317.243 -2.33339 0.0867621 0
M  V30 3135 C 318.224 -1.53178 -0.739622 0
M  V30 3136 O 319.409 -1.81625 -0.687449 0
M  V30 3137 C 316.539 -3.37194 -0.831728 0
M  V30 3138 C 315.493 -4.27857 -0.110558 0
M  V30 3139 C 314.819 -5.22294 -1.14513 0
M  V30 3140 C 316.119 -5.11872 1.0385 0
M  V30 3141 H 317.813 -2.86626 0.865219 0
M  V30 3142 H 315.359 -1.37814 0.417516 0
M  V30 3143 H 317.312 -4.01335 -1.28485 0
M  V30 3144 H 316.036 -2.82314 -1.64214 0
M  V30 3145 H 314.695 -3.65176 0.322797 0
M  V30 3146 H 314.343 -4.63717 -1.94874 0
M  V30 3147 H 314.043 -5.83797 -0.667446 0
M  V30 3148 H 315.567 -5.89312 -1.59824 0
M  V30 3149 H 316.981 -5.69436 0.664482 0
M  V30 3150 H 315.378 -5.82445 1.4449 0
M  V30 3151 H 316.448 -4.4753 1.86668 0
M  V30 3152 N 317.792 -0.46758 -1.50504 0
M  V30 3153 C 318.722 0.318381 -2.31319 0
M  V30 3154 C 319.703 0.993564 -1.38066 0
M  V30 3155 O 320.888 0.991411 -1.66987 0
M  V30 3156 C 318.018 1.40275 -3.17711 0
M  V30 3157 C 316.972 0.849373 -4.19487 0
M  V30 3158 C 316.298 2.03177 -4.94594 0
M  V30 3159 C 317.598 -0.136942 -5.2212 0
M  V30 3160 H 319.292 -0.356106 -2.97275 0
M  V30 3161 H 316.838 -0.172703 -1.42961 0
M  V30 3162 H 318.791 1.96004 -3.73042 0
M  V30 3163 H 317.515 2.10596 -2.49634 0
M  V30 3164 H 316.174 0.314076 -3.65252 0
M  V30 3165 H 315.822 2.72187 -4.22993 0
M  V30 3166 H 315.522 1.66774 -5.63436 0
M  V30 3167 H 317.046 2.59403 -5.52759 0
M  V30 3168 H 318.46 0.331056 -5.72343 0
M  V30 3169 H 316.857 -0.41507 -5.98663 0
M  V30 3170 H 317.927 -1.06398 -4.73083 0
M  V30 3171 N 319.27 1.56325 -0.20005 0
M  V30 3172 C 320.233 2.18084 0.705132 0
M  V30 3173 C 321.233 1.13666 1.1374 0
M  V30 3174 O 322.423 1.39023 1.04968 0
M  V30 3175 C 319.555 2.78689 1.96329 0
M  V30 3176 H 320.748 2.99435 0.167023 0
M  V30 3177 H 318.301 1.56221 0.0495725 0
M  V30 3178 H 319.036 2.0115 2.5438 0
M  V30 3179 H 318.821 3.55133 1.66202 0
M  V30 3180 H 320.311 3.26096 2.60866 0
M  V30 3181 N 320.748 -0.0735177 1.57428 0
M  V30 3182 C 321.711 -1.07192 2.02589 0
M  V30 3183 C 322.711 -1.31695 0.922661 0
M  V30 3184 O 323.901 -1.27445 1.18758 0
M  V30 3185 C 321.033 -2.41599 2.40506 0
M  V30 3186 H 322.226 -0.682727 2.92025 0
M  V30 3187 H 319.779 -0.319193 1.53006 0
M  V30 3188 H 320.514 -2.85354 1.5409 0
M  V30 3189 H 320.299 -2.25156 3.21009 0
M  V30 3190 H 321.789 -3.13367 2.76027 0
M  V30 3191 N 322.226 -1.5378 -0.344866 0
M  V30 3192 C 323.156 -1.84662 -1.42906 0
M  V30 3193 C 324.137 -0.701648 -1.54955 0
M  V30 3194 O 325.322 -0.953438 -1.69184 0
M  V30 3195 C 322.452 -2.05503 -2.79974 0
M  V30 3196 C 321.406 -3.21318 -2.82734 0
M  V30 3197 C 320.732 -3.2749 -4.22675 0
M  V30 3198 C 322.032 -4.59456 -2.48389 0
M  V30 3199 H 323.726 -2.75461 -1.17311 0
M  V30 3200 H 321.272 -1.32542 -0.562896 0
M  V30 3201 H 323.225 -2.25691 -3.55867 0
M  V30 3202 H 321.949 -1.11434 -3.07002 0
M  V30 3203 H 320.608 -3.00984 -2.09294 0
M  V30 3204 H 320.256 -2.31019 -4.4681 0
M  V30 3205 H 319.956 -4.05316 -4.25433 0
M  V30 3206 H 321.48 -3.49887 -5.00412 0
M  V30 3207 H 322.894 -4.79667 -3.13995 0
M  V30 3208 H 321.291 -5.39675 -2.62432 0
M  V30 3209 H 322.361 -4.63155 -1.4358 0
M  V30 3210 N 323.704 0.605807 -1.45491 0
M  V30 3211 C 324.95 1.36679 -1.49823 0
M  V30 3212 C 325.283 1.93693 -0.140175 0
M  V30 3213 O 324.558 1.75158 0.845581 0
M  V30 3214 C 324.841 2.51337 -2.57879 0
M  V30 3215 C 324.694 1.99508 -4.03134 0
M  V30 3216 C 326.013 3.53463 -2.62205 0
M  V30 3217 H 323.132 0.495617 -0.545466 0
M  V30 3218 H 325.774 0.682732 -1.7731 0
M  V30 3219 H 323.924 3.09691 -2.34571 0
M  V30 3220 H 325.596 1.45789 -4.37656 0
M  V30 3221 H 323.839 1.30496 -4.13707 0
M  V30 3222 H 324.51 2.82169 -4.74431 0
M  V30 3223 H 326.986 3.04953 -2.83095 0
M  V30 3224 H 325.862 4.31178 -3.39672 0
M  V30 3225 H 326.123 4.09197 -1.67363 0
M  V30 3226 N 325.182 1.32811 0.848464 0
M  V30 3227 C 326.422 1.25046 1.61687 0
M  V30 3228 C 326.786 -0.183464 1.91121 0
M  V30 3229 O 327.987 -0.384937 2.66029 0
M  V30 3230 C 326.258 2.09201 2.89775 0
M  V30 3231 S 327.817 2.18526 3.80515 0
M  V30 3232 H 324.635 0.445023 0.554505 0
M  V30 3233 H 327.237 1.67733 1.00429 0
M  V30 3234 H 325.941 3.12433 2.66108 0
M  V30 3235 H 325.472 1.67315 3.56047 0
M  V30 3236 H 327.487 1.3393 4.77784 0
M  V30 3237 N 326.66 -1.06551 1.16123 0
M  V30 3238 C 327.608 -2.16063 0.861371 0
M  V30 3239 C 328.602 -1.6856 -0.168517 0
M  V30 3240 O 329.808 -1.79986 -0.0227579 0
M  V30 3241 H 326.183 -0.705278 0.260934 0
M  V30 3242 H 328.154 -2.38567 1.79244 0
M  V30 3243 C 326.903 -3.45661 0.376018 0
M  V30 3244 H 326.226 -3.82604 1.15992 0
M  V30 3245 H 327.666 -4.23504 0.204951 0
M  V30 3246 C 326.125 -3.24546 -0.903954 0
M  V30 3247 O 326.655 -3.49865 -1.97377 0
M  V30 3248 N 324.861 -2.77992 -0.846679 0
M  V30 3249 H 324.408 -2.57589 0.0241017 0
M  V30 3250 H 324.366 -2.64244 -1.70359 0
M  V30 3251 N 328.138 -0.959301 -1.25041 0
M  V30 3252 C 329.366 -0.633949 -1.96948 0
M  V30 3253 C 329.781 0.794916 -1.7125 0
M  V30 3254 O 329.138 1.53231 -0.991287 0
M  V30 3255 C 329.189 -0.888805 -3.50403 0
M  V30 3256 O 328.91 -2.26149 -3.75218 0
M  V30 3257 C 330.411 -0.576482 -4.39536 0
M  V30 3258 H 327.631 -0.237263 -0.627652 0
M  V30 3259 H 330.175 -1.28495 -1.59089 0
M  V30 3260 H 328.33 -0.284145 -3.86357 0
M  V30 3261 H 328.744 -2.33514 -4.6965 0
M  V30 3262 H 330.218 -0.805314 -5.46094 0
M  V30 3263 H 330.695 0.489075 -4.36468 0
M  V30 3264 H 331.301 -1.16067 -4.09156 0
M  V30 3265 N 329.616 1.39756 -0.72842 0
M  V30 3266 C 330.546 2.33289 -0.0991354 0
M  V30 3267 C 331.527 1.53568 0.731489 0
M  V30 3268 O 332.712 1.81987 0.677807 0
M  V30 3269 C 329.842 3.3763 0.813834 0
M  V30 3270 C 328.796 4.2791 0.0878663 0
M  V30 3271 C 328.122 5.22894 1.11741 0
M  V30 3272 C 329.422 5.11314 -1.06563 0
M  V30 3273 H 331.116 2.86163 -0.880408 0
M  V30 3274 H 328.662 1.37591 -0.424819 0
M  V30 3275 H 330.615 4.0201 1.26355 0
M  V30 3276 H 329.339 2.83181 1.62715 0
M  V30 3277 H 327.998 3.65 -0.342159 0
M  V30 3278 H 327.646 4.64744 1.92412 0
M  V30 3279 H 327.346 5.84143 0.636477 0
M  V30 3280 H 328.87 5.90151 1.56697 0
M  V30 3281 H 330.284 5.69076 -0.694671 0
M  V30 3282 H 328.681 5.81671 -1.47577 0
M  V30 3283 H 329.751 4.46534 -1.89038 0
M  V30 3284 N 331.094 0.475555 1.50254 0
M  V30 3285 C 332.319 -0.0777042 2.07254 0
M  V30 3286 C 332.744 -1.3235 1.3366 0
M  V30 3287 O 332.102 -1.77152 0.385597 0
M  V30 3288 C 332.15 -0.340169 3.58992 0
M  V30 3289 O 331.254 -1.41982 3.87188 0
M  V30 3290 H 330.595 0.0149556 0.663832 0
M  V30 3291 H 333.125 0.667878 1.93392 0
M  V30 3292 H 333.135 -0.579332 4.03866 0
M  V30 3293 H 331.81 0.570167 4.11973 0
M  V30 3294 H 330.387 -1.16762 3.54148 0
M  V30 3295 N 332.573 -1.56217 0.208337 0
M  V30 3296 C 333.821 -1.97558 -0.426076 0
M  V30 3297 C 334.142 -1.09683 -1.61229 0
M  V30 3298 O 333.412 -0.170956 -1.95153 0
M  V30 3299 H 331.992 -0.729575 -0.160405 0
M  V30 3300 H 334.654 -1.92606 0.298155 0
M  V30 3301 H 333.75 -3.02672 -0.761312 0
M  V30 3302 N 334.051 0.0651679 -1.57465 0
M  V30 3303 C 334.981 1.07693 -2.07182 0
M  V30 3304 C 335.962 1.39962 -0.966673 0
M  V30 3305 O 337.147 1.49475 -1.2398 0
M  V30 3306 C 334.277 2.3885 -2.52127 0
M  V30 3307 C 333.231 2.20917 -3.66579 0
M  V30 3308 C 332.557 3.57515 -3.97601 0
M  V30 3309 C 333.857 1.62493 -4.9638 0
M  V30 3310 H 335.551 0.663199 -2.91962 0
M  V30 3311 H 333.097 0.317569 -1.40455 0
M  V30 3312 H 335.05 3.09928 -2.85522 0
M  V30 3313 H 333.774 2.82215 -1.64384 0
M  V30 3314 H 332.433 1.52279 -3.33477 0
M  V30 3315 H 332.081 3.98463 -3.06979 0
M  V30 3316 H 331.781 3.46353 -4.74672 0
M  V30 3317 H 333.305 4.30013 -4.33499 0
M  V30 3318 H 334.719 2.23445 -5.27963 0
M  V30 3319 H 333.116 1.62009 -5.77818 0
M  V30 3320 H 334.186 0.587041 -4.81333 0
M  V30 3321 N 335.529 1.53961 0.336706 0
M  V30 3322 C 336.492 1.81724 1.39675 0
M  V30 3323 C 337.492 0.688532 1.45313 0
M  V30 3324 O 338.682 0.956829 1.45569 0
M  V30 3325 C 335.814 1.96543 2.78538 0
M  V30 3326 H 337.007 2.76424 1.16318 0
M  V30 3327 H 334.56 1.45478 0.571474 0
M  V30 3328 H 335.295 1.0401 3.07168 0
M  V30 3329 H 335.08 2.78665 2.75841 0
M  V30 3330 H 336.57 2.19516 3.5525 0
M  V30 3331 N 337.007 -0.598083 1.45811 0
M  V30 3332 C 337.937 -1.71873 1.58057 0
M  V30 3333 C 338.918 -1.64533 0.431615 0
M  V30 3334 O 340.103 -1.82787 0.65595 0
M  V30 3335 C 337.233 -3.10495 1.55597 0
M  V30 3336 C 336.187 -3.32654 2.69305 0
M  V30 3337 C 335.513 -4.71646 2.51902 0
M  V30 3338 C 336.813 -3.21981 4.11248 0
M  V30 3339 H 338.507 -1.61881 2.51863 0
M  V30 3340 H 336.053 -0.777372 1.21214 0
M  V30 3341 H 338.006 -3.88699 1.6276 0
M  V30 3342 H 336.73 -3.2135 0.583255 0
M  V30 3343 H 335.389 -2.56843 2.61586 0
M  V30 3344 H 335.037 -4.79246 1.52748 0
M  V30 3345 H 334.737 -4.87426 3.2816 0
M  V30 3346 H 336.261 -5.52038 2.60933 0
M  V30 3347 H 337.675 -3.90049 4.20161 0
M  V30 3348 H 336.072 -3.49289 4.87972 0
M  V30 3349 H 337.142 -2.1928 4.32486 0
M  V30 3350 N 338.485 -1.33259 -0.841409 0
M  V30 3351 C 339.415 -1.25926 -1.96634 0
M  V30 3352 C 340.396 -0.140349 -1.6952 0
M  V30 3353 O 341.581 -0.329707 -1.91381 0
M  V30 3354 C 338.711 -0.99512 -3.32738 0
M  V30 3355 C 337.665 -2.0767 -3.74242 0
M  V30 3356 C 336.991 -1.66474 -5.08125 0
M  V30 3357 C 338.291 -3.49318 -3.88297 0
M  V30 3358 H 339.985 -2.20046 -2.03027 0
M  V30 3359 H 337.531 -1.05931 -0.975425 0
M  V30 3360 H 339.484 -0.930323 -4.11002 0
M  V30 3361 H 338.208 -0.0183004 -3.26595 0
M  V30 3362 H 336.867 -2.13187 -2.98239 0
M  V30 3363 H 336.515 -0.675012 -4.9845 0
M  V30 3364 H 336.215 -2.3885 -5.36865 0
M  V30 3365 H 337.739 -1.61455 -5.88867 0
M  V30 3366 H 339.153 -3.46316 -4.56879 0
M  V30 3367 H 337.55 -4.20158 -4.28471 0
M  V30 3368 H 338.62 -3.8801 -2.9082 0
M  V30 3369 N 339.963 1.05934 -1.16686 0
M  V30 3370 C 341.379 1.30938 -0.912542 0
M  V30 3371 C 341.579 1.96803 0.432533 0
M  V30 3372 O 340.635 2.23693 1.17123 0
M  V30 3373 C 341.948 2.18649 -2.06429 0
M  V30 3374 C 343.496 2.32055 -2.10047 0
M  V30 3375 C 343.971 3.23122 -3.24586 0
M  V30 3376 N 345.462 3.30706 -3.24327 0
M  V30 3377 C 346.197 4.01273 -4.09594 0
M  V30 3378 N 345.693 4.74332 -5.04956 0
M  V30 3379 N 347.486 3.97361 -3.97569 0
M  V30 3380 H 339.637 0.615777 -2.03278 0
M  V30 3381 H 341.9 0.334077 -0.887185 0
M  V30 3382 H 341.606 1.77534 -3.03603 0
M  V30 3383 H 341.48 3.19252 -2.00894 0
M  V30 3384 H 343.867 2.72415 -1.13464 0
M  V30 3385 H 343.948 1.31107 -2.19647 0
M  V30 3386 H 343.592 2.83477 -4.2143 0
M  V30 3387 H 343.522 4.24057 -3.12223 0
M  V30 3388 H 346.013 2.78644 -2.55276 0
M  V30 3389 H 346.326 5.25716 -5.6643 0
M  V30 3390 H 344.671 4.733 -5.08933 0
M  V30 3391 H 347.862 3.39405 -3.22369 0
M  V30 3392 H 348.035 4.52089 -4.64241 0
M  V30 3393 N 341.441 0.965919 1.2453 0
M  V30 3394 C 342.404 0.499547 2.2369 0
M  V30 3395 C 343.404 -0.40294 1.5567 0
M  V30 3396 O 344.594 -0.19865 1.73064 0
M  V30 3397 C 341.726 -0.276792 3.39774 0
M  V30 3398 H 342.919 1.37613 2.66463 0
M  V30 3399 H 340.472 0.750324 1.37112 0
M  V30 3400 H 341.207 -1.17055 3.02438 0
M  V30 3401 H 340.992 0.370826 3.90343 0
M  V30 3402 H 342.482 -0.592175 4.1338 0
M  V30 3403 N 342.919 -1.39368 0.735821 0
M  V30 3404 C 344.335 -1.54204 0.411492 0
M  V30 3405 C 344.535 -1.70268 -1.07755 0
M  V30 3406 O 343.591 -1.70364 -1.86366 0
M  V30 3407 C 344.904 -2.75925 1.19523 0
M  V30 3408 C 346.452 -2.89761 1.18354 0
M  V30 3409 C 346.927 -4.14421 1.94986 0
M  V30 3410 N 348.418 -4.21462 1.92156 0
M  V30 3411 C 349.153 -5.16871 2.48258 0
M  V30 3412 N 348.649 -6.18063 3.13001 0
M  V30 3413 N 350.442 -5.09093 2.38287 0
M  V30 3414 H 342.593 -1.27189 1.70108 0
M  V30 3415 H 344.856 -0.616517 0.720147 0
M  V30 3416 H 344.562 -2.70401 2.24892 0
M  V30 3417 H 344.436 -3.68614 0.800222 0
M  V30 3418 H 346.823 -2.94777 0.137975 0
M  V30 3419 H 346.904 -1.98133 1.61793 0
M  V30 3420 H 346.548 -4.10166 2.99543 0
M  V30 3421 H 346.478 -5.05095 1.48953 0
M  V30 3422 H 348.969 -3.48979 1.44991 0
M  V30 3423 H 349.282 -6.87326 3.53275 0
M  V30 3424 H 347.627 -6.18448 3.17091 0
M  V30 3425 H 350.818 -4.28973 1.8735 0
M  V30 3426 H 350.991 -5.83272 2.82308 0
M  V30 3427 N 344.397 -0.483516 -1.5 0
M  V30 3428 C 345.643 0.0593261 -2.03313 0
M  V30 3429 C 345.998 1.36288 -1.35806 0
M  V30 3430 O 345.291 1.85519 -0.478897 0
M  V30 3431 C 345.485 0.286226 -3.56252 0
M  V30 3432 C 345.314 -0.993788 -4.38582 0
M  V30 3433 C 344.084 -1.54064 -4.81241 0
M  V30 3434 C 346.282 -1.89249 -4.78215 0
M  V30 3435 N 344.264 -2.76838 -5.47936 0
M  V30 3436 C 345.635 -2.96606 -5.44449 0
M  V30 3437 C 347.69 -1.90138 -4.60165 0
M  V30 3438 C 346.393 -4.04857 -5.94544 0
M  V30 3439 C 348.419 -2.97353 -5.1121 0
M  V30 3440 C 347.781 -4.03429 -5.77429 0
M  V30 3441 H 343.88 -0.0186322 -0.781778 0
M  V30 3442 H 346.464 -0.654489 -1.8337 0
M  V30 3443 H 344.635 0.969086 -3.76116 0
M  V30 3444 H 346.367 0.824515 -3.96212 0
M  V30 3445 H 343.122 -1.08813 -4.6093 0
M  V30 3446 H 343.546 -3.39221 -5.85882 0
M  V30 3447 H 348.188 -1.09441 -4.0839 0
M  V30 3448 H 345.906 -4.86363 -6.4535 0
M  V30 3449 H 349.492 -2.99039 -4.99066 0
M  V30 3450 H 348.372 -4.85025 -6.16214 0
M  V30 3451 N 345.875 1.56104 -0.216619 0
M  V30 3452 C 347.291 1.58995 0.13886 0
M  V30 3453 C 347.491 1.23333 1.59346 0
M  V30 3454 O 346.547 0.966234 2.33281 0
M  V30 3455 C 347.86 3.00143 -0.182968 0
M  V30 3456 C 349.408 3.12751 -0.124807 0
M  V30 3457 C 349.883 4.56068 -0.420241 0
M  V30 3458 N 351.374 4.61723 -0.369634 0
M  V30 3459 C 352.109 5.70542 -0.571789 0
M  V30 3460 N 351.605 6.87744 -0.835453 0
M  V30 3461 N 353.398 5.59831 -0.504563 0
M  V30 3462 H 345.549 1.77562 -1.16557 0
M  V30 3463 H 347.812 0.825091 -0.466828 0
M  V30 3464 H 347.518 3.30871 -1.19237 0
M  V30 3465 H 347.392 3.73813 0.504367 0
M  V30 3466 H 349.779 2.81822 0.875223 0
M  V30 3467 H 349.86 2.41421 -0.845544 0
M  V30 3468 H 349.504 4.87713 -1.41769 0
M  V30 3469 H 349.434 5.25617 0.321631 0
M  V30 3470 H 351.925 3.77502 -0.173338 0
M  V30 3471 H 352.238 7.66587 -0.977938 0
M  V30 3472 H 350.583 6.895 -0.872592 0
M  V30 3473 H 353.774 4.67145 -0.298842 0
M  V30 3474 H 353.947 6.44573 -0.665519 0
M  V30 3475 N 347.353 -0.0568162 1.57498 0
M  V30 3476 C 348.769 -0.411933 1.54192 0
M  V30 3477 C 348.969 -1.78287 0.938942 0
M  V30 3478 O 348.025 -2.46483 0.547919 0
M  V30 3479 C 349.338 -0.339244 2.9878 0
M  V30 3480 C 350.886 -0.418348 3.10192 0
M  V30 3481 C 351.361 -0.375407 4.56459 0
M  V30 3482 N 352.852 -0.435038 4.61153 0
M  V30 3483 C 353.587 -0.424265 5.71828 0
M  V30 3484 N 353.083 -0.367418 6.91825 0
M  V30 3485 N 354.876 -0.471938 5.60115 0
M  V30 3486 H 347.027 0.840684 1.95055 0
M  V30 3487 H 349.29 0.316987 0.893433 0
M  V30 3488 H 348.996 0.601742 3.46514 0
M  V30 3489 H 348.87 -1.14371 3.59443 0
M  V30 3490 H 351.257 -1.34976 2.62422 0
M  V30 3491 H 351.338 0.414962 2.52412 0
M  V30 3492 H 350.982 0.552219 5.04889 0
M  V30 3493 H 350.912 -1.22645 5.12119 0
M  V30 3494 H 353.403 -0.482612 3.74806 0
M  V30 3495 H 353.716 -0.363535 7.71944 0
M  V30 3496 H 352.061 -0.333879 6.94198 0
M  V30 3497 H 355.252 -0.514145 4.65268 0
M  V30 3498 H 355.425 -0.460073 6.46365 0
M  V30 3499 N 348.832 -1.54138 -0.328536 0
M  V30 3500 C 350.248 -1.44736 -0.672574 0
M  V30 3501 C 350.448 -0.616217 -1.91846 0
M  V30 3502 O 349.504 -0.113067 -2.52247 0
M  V30 3503 C 350.817 -2.884 -0.851217 0
M  V30 3504 C 352.365 -2.98271 -0.948877 0
M  V30 3505 C 352.84 -4.43074 -1.15973 0
M  V30 3506 N 354.331 -4.46665 -1.22658 0
M  V30 3507 C 355.066 -5.55857 -1.40751 0
M  V30 3508 N 354.562 -6.75026 -1.5592 0
M  V30 3509 N 356.355 -5.43495 -1.4342 0
M  V30 3510 H 348.506 -2.06661 0.490421 0
M  V30 3511 H 350.769 -0.934812 0.157579 0
M  V30 3512 H 350.475 -3.51699 -0.00704236 0
M  V30 3513 H 350.349 -3.34225 -1.74853 0
M  V30 3514 H 352.736 -2.35102 -1.78356 0
M  V30 3515 H 352.817 -2.55785 -0.0281435 0
M  V30 3516 H 352.461 -5.06827 -0.329915 0
M  V30 3517 H 352.391 -4.83165 -2.09426 0
M  V30 3518 H 354.882 -3.60797 -1.124 0
M  V30 3519 H 355.195 -7.54004 -1.69404 0
M  V30 3520 H 353.54 -6.77944 -1.53027 0
M  V30 3521 H 356.731 -4.49349 -1.31162 0
M  V30 3522 H 356.904 -6.28649 -1.57178 0
M  V30 3523 N 350.31 0.590341 -1.46126 0
M  V30 3524 C 351.535 1.37991 -1.54833 0
M  V30 3525 C 351.96 1.87163 -0.187506 0
M  V30 3526 O 351.318 1.61133 0.831008 0
M  V30 3527 C 351.366 2.54867 -2.55098 0
M  V30 3528 O 350.47 3.56061 -2.08073 0
M  V30 3529 H 349.811 0.411265 -0.521303 0
M  V30 3530 H 352.341 0.716819 -1.91632 0
M  V30 3531 H 352.351 3.01886 -2.74461 0
M  V30 3532 H 351.026 2.18429 -3.53923 0
M  V30 3533 H 349.603 3.15574 -1.98664 0
M  V30 3534 N 351.788 1.33704 0.83433 0
M  V30 3535 C 353.204 1.13137 1.12571 0
M  V30 3536 C 353.404 -0.0747261 2.01361 0
M  V30 3537 O 352.46 -0.753647 2.4099 0
M  V30 3538 C 353.773 2.42105 1.78342 0
M  V30 3539 C 355.321 2.48054 1.90888 0
M  V30 3540 C 355.796 3.76995 2.60075 0
M  V30 3541 N 357.287 3.78092 2.67584 0
M  V30 3542 C 358.022 4.74574 3.21818 0
M  V30 3543 N 357.518 5.81434 3.76705 0
M  V30 3544 N 359.311 4.62044 3.20112 0
M  V30 3545 H 351.462 2.11 0.243489 0
M  V30 3546 H 353.725 0.932532 0.17055 0
M  V30 3547 H 353.431 3.30391 1.20561 0
M  V30 3548 H 353.305 2.54594 2.7832 0
M  V30 3549 H 355.692 1.60215 2.47821 0
M  V30 3550 H 355.773 2.39502 0.898459 0
M  V30 3551 H 355.417 4.65219 2.03799 0
M  V30 3552 H 355.347 3.82825 3.61597 0
M  V30 3553 H 357.838 3.00865 2.28667 0
M  V30 3554 H 358.151 6.51084 4.16305 0
M  V30 3555 H 356.496 5.85163 3.7498 0
M  V30 3556 H 359.687 3.77716 2.76493 0
M  V30 3557 H 359.86 5.37406 3.62076 0
M  V30 3558 N 353.266 -1.05314 1.17247 0
M  V30 3559 C 354.682 -1.30452 0.919473 0
M  V30 3560 C 354.882 -1.9703 -0.42209 0
M  V30 3561 O 353.938 -2.24311 -1.15935 0
M  V30 3562 C 355.251 -2.17551 2.07586 0
M  V30 3563 C 356.799 -2.30937 2.11275 0
M  V30 3564 C 357.274 -3.21396 3.26296 0
M  V30 3565 N 358.765 -3.28981 3.26076 0
M  V30 3566 C 359.5 -3.99095 4.11716 0
M  V30 3567 N 358.996 -4.71648 5.07465 0
M  V30 3568 N 360.789 -3.95247 3.9967 0
M  V30 3569 H 352.94 -0.604988 2.03602 0
M  V30 3570 H 355.203 -0.329368 0.888944 0
M  V30 3571 H 354.909 -1.75921 3.0454 0
M  V30 3572 H 354.783 -3.18182 2.02584 0
M  V30 3573 H 357.17 -2.71809 1.14907 0
M  V30 3574 H 357.251 -1.2994 2.20339 0
M  V30 3575 H 356.895 -2.81238 4.22927 0
M  V30 3576 H 356.825 -4.22395 3.14467 0
M  V30 3577 H 359.316 -2.77286 2.5675 0
M  V30 3578 H 359.629 -5.22705 5.6921 0
M  V30 3579 H 357.974 -4.70594 5.11435 0
M  V30 3580 H 361.165 -3.37691 3.24164 0
M  V30 3581 H 361.338 -4.4962 4.66632 0
M  V30 3582 N 354.744 -0.972509 -1.24016 0
M  V30 3583 C 356.155 -0.67517 -1.74064 0
M  V30 3584 C 356.506 0.808939 -1.78747 0
M  V30 3585 O 355.631 1.63286 -1.42009 0
M  V30 3586 C 356.226 -1.21889 -3.16115 0
M  V30 3587 C 354.785 -0.971358 -3.6365 0
M  V30 3588 C 353.932 -1.35134 -2.42145 0
M  V30 3589 H 356.883 -1.14727 -1.09651 0
M  V30 3590 H 356.904 -0.587489 -3.75937 0
M  V30 3591 H 356.416 -2.29906 -3.12674 0
M  V30 3592 H 354.517 0.0930686 -3.72484 0
M  V30 3593 H 354.63 -1.62039 -4.50866 0
M  V30 3594 H 352.994 -0.769751 -2.4279 0
M  V30 3595 H 353.777 -2.4411 -2.41381 0
M  V30 3596 N 356.222 1.38976 -0.743202 0
M  V30 3597 C 357.633 1.83123 -0.363732 0
M  V30 3598 C 357.984 1.6205 1.10609 0
M  V30 3599 O 357.109 1.11606 1.854 0
M  V30 3600 C 357.704 3.32439 -0.653408 0
M  V30 3601 C 356.263 3.74974 -0.327338 0
M  V30 3602 C 355.41 2.61878 -0.911875 0
M  V30 3603 H 358.361 1.27852 -0.940191 0
M  V30 3604 H 358.382 3.80432 0.0720031 0
M  V30 3605 H 357.894 3.47745 -1.72323 0
M  V30 3606 H 355.995 3.65252 0.736314 0
M  V30 3607 H 356.108 4.72106 -0.815631 0
M  V30 3608 H 354.472 2.52448 -0.337944 0
M  V30 3609 H 355.255 2.79987 -1.98651 0
M  V30 3610 N 357.7 0.491464 1.49741 0
M  V30 3611 C 359.111 0.0413169 1.86654 0
M  V30 3612 C 359.462 -1.36985 1.40462 0
M  V30 3613 O 358.587 -2.01917 0.778354 0
M  V30 3614 C 359.182 0.0682023 3.38731 0
M  V30 3615 C 357.741 -0.32656 3.74981 0
M  V30 3616 C 356.888 0.444888 2.73708 0
M  V30 3617 H 359.839 0.704733 1.42194 0
M  V30 3618 H 359.86 -0.729322 3.73445 0
M  V30 3619 H 359.372 1.09539 3.72321 0
M  V30 3620 H 357.473 -1.35734 3.46997 0
M  V30 3621 H 357.586 -0.013741 4.79098 0
M  V30 3622 H 355.95 -0.104062 2.54487 0
M  V30 3623 H 356.733 1.47197 3.10142 0
M  V30 3624 N 359.178 -1.55987 0.224894 0
M  V30 3625 C 360.141 -2.19178 -0.670348 0
M  V30 3626 C 361.141 -1.15461 -1.11917 0
M  V30 3627 O 362.331 -1.40675 -1.02743 0
M  V30 3628 C 359.463 -2.81777 -1.9187 0
M  V30 3629 H 360.656 -2.99662 -0.119364 0
M  V30 3630 H 358.209 -1.5628 -0.0247128 0
M  V30 3631 H 358.944 -2.05172 -2.51147 0
M  V30 3632 H 358.729 -3.57732 -1.60531 0
M  V30 3633 H 360.219 -3.30205 -2.55645 0
M  V30 3634 N 360.656 0.0484629 -1.57525 0
M  V30 3635 C 361.881 0.759177 -1.93006 0
M  V30 3636 C 362.306 1.69125 -0.823317 0
M  V30 3637 O 361.664 1.79931 0.222364 0
M  V30 3638 C 361.712 1.50899 -3.27509 0
M  V30 3639 O 360.816 2.62112 -3.18388 0
M  V30 3640 H 360.157 0.205564 -0.631379 0
M  V30 3641 H 362.687 0.00972959 -2.04598 0
M  V30 3642 H 362.697 1.88317 -3.6194 0
M  V30 3643 H 361.372 0.825269 -4.0763 0
M  V30 3644 H 359.949 2.27379 -2.95556 0
M  V30 3645 N 362.134 1.5431 0.320358 0
M  V30 3646 C 363.382 1.72327 1.05583 0
M  V30 3647 C 363.703 0.50149 1.88441 0
M  V30 3648 O 362.973 -0.48448 1.89815 0
M  V30 3649 H 361.553 0.635387 0.3928 0
M  V30 3650 H 364.215 1.91621 0.356019 0
M  V30 3651 H 363.311 2.60426 1.72003 0
M  V30 3652 N 363.613 -0.582584 1.46437 0
M  V30 3653 C 365.024 -1.1647 1.45916 0
M  V30 3654 C 365.375 -1.95177 0.200077 0
M  V30 3655 O 364.5 -2.04874 -0.696819 0
M  V30 3656 C 365.095 -2.11885 2.64367 0
M  V30 3657 C 363.654 -2.65421 2.66887 0
M  V30 3658 C 362.801 -1.41294 2.38603 0
M  V30 3659 H 365.752 -0.370514 1.54314 0
M  V30 3660 H 365.773 -2.9535 2.39892 0
M  V30 3661 H 365.285 -1.54573 3.5599 0
M  V30 3662 H 363.386 -3.26602 1.79338 0
M  V30 3663 H 363.499 -3.08147 3.66854 0
M  V30 3664 H 361.863 -1.71109 1.88663 0
M  V30 3665 H 362.646 -0.858125 3.32402 0
M  V30 3666 N 365.091 -1.34144 -0.827227 0
M  V30 3667 C 366.368 -1.16844 -1.56865 0
M  V30 3668 C 366.748 0.260654 -2.09485 0
M  V30 3669 O 366.096 1.26138 -1.9053 0
M  V30 3670 C 366.306 -2.21939 -2.6934 0
M  V30 3671 C 367.654 -2.56695 -3.3822 0
M  V30 3672 O 368.678 -2.20695 -2.79593 0
M  V30 3673 O 367.537 -3.18518 -4.44082 0
M  V30 3674 H 364.631 -0.452669 -0.692112 0
M  V30 3675 H 367.177 -1.45763 -0.868973 0
M  V30 3676 H 365.949 -3.17882 -2.28182 0
M  V30 3677 H 365.572 -1.94172 -3.46962 0
M  V30 3678 N 366.569 1.04691 -1.17803 0
M  V30 3679 C 367.794 1.81984 -0.994813 0
M  V30 3680 C 368.219 1.82586 0.452112 0
M  V30 3681 O 367.577 1.23854 1.324 0
M  V30 3682 C 367.625 3.2575 -1.54659 0
M  V30 3683 O 366.729 4.05267 -0.763728 0
M  V30 3684 H 366.07 0.562483 -0.352857 0
M  V30 3685 H 368.6 1.3189 -1.56417 0
M  V30 3686 H 368.61 3.76541 -1.57102 0
M  V30 3687 H 367.285 3.24627 -2.59981 0
M  V30 3688 H 365.862 3.63972 -0.811108 0
M  V30 3689 N 368.047 0.979072 1.23499 0
M  V30 3690 C 369.463 0.687475 1.44034 0
M  V30 3691 C 369.663 -0.746801 1.8715 0
M  V30 3692 O 368.719 -1.51939 2.0167 0
M  V30 3693 C 370.032 1.68127 2.49307 0
M  V30 3694 C 371.58 1.69516 2.63122 0
M  V30 3695 C 372.055 2.67723 3.71603 0
M  V30 3696 N 373.546 2.66233 3.79044 0
M  V30 3697 C 374.281 3.38891 4.62537 0
M  V30 3698 N 373.777 4.21103 5.50131 0
M  V30 3699 N 375.57 3.27661 4.56721 0
M  V30 3700 H 367.721 1.90559 0.938135 0
M  V30 3701 H 369.984 0.821051 0.473897 0
M  V30 3702 H 369.69 2.70693 2.2454 0
M  V30 3703 H 369.564 1.46306 3.4767 0
M  V30 3704 H 371.951 0.676561 2.8724 0
M  V30 3705 H 372.032 1.95404 1.65079 0
M  V30 3706 H 371.676 3.69724 3.48233 0
M  V30 3707 H 371.606 2.39111 4.69184 0
M  V30 3708 H 374.097 2.06568 3.16446 0
M  V30 3709 H 374.41 4.73403 6.10827 0
M  V30 3710 H 372.755 4.25195 5.49759 0
M  V30 3711 H 375.946 2.62887 3.87309 0
M  V30 3712 H 376.119 3.84547 5.21562 0
M  V30 3713 N 369.525 -1.3858 0.750561 0
M  V30 3714 C 370.941 -1.53759 0.427824 0
M  V30 3715 C 371.141 -1.71401 -1.05943 0
M  V30 3716 O 370.197 -1.72331 -1.84549 0
M  V30 3717 C 371.51 -2.74642 1.22443 0
M  V30 3718 C 373.058 -2.88489 1.2142 0
M  V30 3719 C 373.533 -4.12329 1.9937 0
M  V30 3720 N 375.024 -4.194 1.96616 0
M  V30 3721 C 375.759 -5.14209 2.53727 0
M  V30 3722 N 375.255 -6.14709 3.19539 0
M  V30 3723 N 377.048 -5.06537 2.43673 0
M  V30 3724 H 369.199 -1.25377 1.71447 0
M  V30 3725 H 371.462 -0.608844 0.726645 0
M  V30 3726 H 371.168 -2.68 2.27747 0
M  V30 3727 H 371.042 -3.67745 0.839273 0
M  V30 3728 H 373.429 -2.94614 0.169232 0
M  V30 3729 H 373.51 -1.96406 1.63885 0
M  V30 3730 H 373.154 -4.06966 3.03877 0
M  V30 3731 H 373.084 -5.03486 1.54302 0
M  V30 3732 H 375.575 -3.47421 1.48684 0
M  V30 3733 H 375.888 -6.8354 3.60545 0
M  V30 3734 H 374.233 -6.1505 3.23633 0
M  V30 3735 H 377.424 -4.26962 1.91889 0
M  V30 3736 H 377.597 -5.80245 2.88479 0
M  V30 3737 N 371.003 -0.499398 -1.49478 0
M  V30 3738 C 372.419 -0.155261 -1.58843 0
M  V30 3739 C 372.619 1.34008 -1.50479 0
M  V30 3740 O 371.675 2.11589 -1.37791 0
M  V30 3741 C 372.988 -0.730636 -2.91689 0
M  V30 3742 C 374.536 -0.696599 -3.0515 0
M  V30 3743 C 375.011 -1.25001 -4.40612 0
M  V30 3744 N 376.502 -1.21064 -4.47099 0
M  V30 3745 C 377.237 -1.60905 -5.50361 0
M  V30 3746 N 376.733 -2.08331 -6.60735 0
M  V30 3747 N 378.526 -1.52331 -5.41065 0
M  V30 3748 H 370.677 -1.47162 -1.53158 0
M  V30 3749 H 372.94 -0.610309 -0.725415 0
M  V30 3750 H 372.646 -1.77928 -3.03372 0
M  V30 3751 H 372.52 -0.190161 -3.7672 0
M  V30 3752 H 374.907 0.343204 -2.93097 0
M  V30 3753 H 374.988 -1.2742 -2.21806 0
M  V30 3754 H 374.632 -2.28859 -4.53416 0
M  V30 3755 H 374.562 -0.64836 -5.22593 0
M  V30 3756 H 377.053 -0.863128 -3.67911 0
M  V30 3757 H 377.366 -2.36805 -7.35624 0
M  V30 3758 H 375.711 -2.12304 -6.6178 0
M  V30 3759 H 378.902 -1.151 -4.53729 0
M  V30 3760 H 379.075 -1.83704 -6.21415 0
M  V30 3761 N 372.481 1.55866 -0.233164 0
M  V30 3762 C 373.727 1.99643 0.389148 0
M  V30 3763 C 374.082 1.11836 1.56558 0
M  V30 3764 O 373.375 0.170848 1.90837 0
M  V30 3765 C 373.569 3.46856 0.861724 0
M  V30 3766 C 373.398 4.48904 -0.267376 0
M  V30 3767 C 372.168 4.99888 -0.737577 0
M  V30 3768 C 374.366 5.02624 -1.08966 0
M  V30 3769 N 372.348 5.8566 -1.84052 0
M  V30 3770 C 373.719 5.85434 -2.04125 0
M  V30 3771 C 375.774 4.84959 -1.12779 0
M  V30 3772 C 374.477 6.52466 -3.02789 0
M  V30 3773 C 376.503 5.52759 -2.10266 0
M  V30 3774 C 375.865 6.35346 -3.04162 0
M  V30 3775 H 371.964 0.774402 0.108742 0
M  V30 3776 H 374.548 1.91572 -0.347596 0
M  V30 3777 H 372.719 3.55352 1.5678 0
M  V30 3778 H 374.451 3.77531 1.45783 0
M  V30 3779 H 371.206 4.7249 -0.324122 0
M  V30 3780 H 371.63 6.33246 -2.39434 0
M  V30 3781 H 376.272 4.20751 -0.415749 0
M  V30 3782 H 373.99 7.15849 -3.74948 0
M  V30 3783 H 377.576 5.41051 -2.13905 0
M  V30 3784 H 376.456 6.86883 -3.78366 0
M  V30 3785 N 373.959 -0.0401083 1.57549 0
M  V30 3786 C 375.207 -0.731677 1.8839 0
M  V30 3787 C 375.528 -1.76481 0.829425 0
M  V30 3788 O 374.798 -1.95411 -0.1383 0
M  V30 3789 H 373.378 -0.273225 0.695239 0
M  V30 3790 H 376.04 -0.00867725 1.94898 0
M  V30 3791 H 375.136 -1.22816 2.86919 0
M  V30 3792 N 375.437 -1.54477 -0.31217 0
M  V30 3793 C 376.4 -1.83923 -1.36766 0
M  V30 3794 C 377.4 -0.711563 -1.44199 0
M  V30 3795 O 378.59 -0.979866 -1.44029 0
M  V30 3796 C 375.722 -2.0095 -2.75376 0
M  V30 3797 H 376.915 -2.78239 -1.11906 0
M  V30 3798 H 374.468 -1.46369 -0.548257 0
M  V30 3799 H 375.203 -1.08883 -3.05475 0
M  V30 3800 H 374.988 -2.83018 -2.71373 0
M  V30 3801 H 376.478 -2.2514 -3.51713 0
M  V30 3802 N 376.915 0.57481 -1.46744 0
M  V30 3803 C 377.865 1.67838 -1.54319 0
M  V30 3804 C 378.849 1.55759 -0.40346 0
M  V30 3805 O 380.041 1.6454 -0.652347 0
M  V30 3806 C 377.17 3.06624 -1.5439 0
M  V30 3807 C 376.256 3.23971 -2.73685 0
M  V30 3808 N 376.647 3.11447 -3.9854 0
M  V30 3809 C 374.945 3.5493 -2.70075 0
M  V30 3810 C 375.646 3.31011 -4.78337 0
M  V30 3811 N 374.622 3.56533 -4.10348 0
M  V30 3812 H 378.424 1.56698 -2.48642 0
M  V30 3813 H 375.938 0.779071 -1.42493 0
M  V30 3814 H 377.935 3.85839 -1.57905 0
M  V30 3815 H 376.595 3.1889 -0.611493 0
M  V30 3816 H 377.606 2.89145 -4.29669 0
M  V30 3817 H 374.283 3.73832 -1.85893 0
M  V30 3818 H 375.673 3.26445 -5.87268 0
M  V30 3819 N 378.394 1.34581 0.820102 0
M  V30 3820 C 379.642 1.26845 1.57336 0
M  V30 3821 C 379.963 -0.160667 1.94337 0
M  V30 3822 O 379.233 -1.09396 1.6251 0
M  V30 3823 H 377.813 0.466514 0.583415 0
M  V30 3824 H 380.475 1.68526 0.979027 0
M  V30 3825 H 379.571 1.87513 2.4949 0
M  V30 3826 N 379.872 -1.04064 1.18357 0
M  V30 3827 C 381.283 -1.58719 0.98312 0
M  V30 3828 C 381.634 -1.90556 -0.467193 0
M  V30 3829 O 380.759 -1.69561 -1.34454 0
M  V30 3830 C 381.354 -2.88379 1.77828 0
M  V30 3831 C 379.913 -3.3965 1.62218 0
M  V30 3832 C 379.06 -2.13235 1.77274 0
M  V30 3833 H 382.011 -0.867359 1.32901 0
M  V30 3834 H 382.032 -3.58773 1.26737 0
M  V30 3835 H 381.544 -2.65176 2.83379 0
M  V30 3836 H 379.645 -3.67866 0.592036 0
M  V30 3837 H 379.758 -4.13475 2.42023 0
M  V30 3838 H 378.122 -2.24542 1.20221 0
M  V30 3839 H 378.905 -1.92487 2.8426 0
M  V30 3840 N 381.35 -0.985608 -1.22978 0
M  V30 3841 C 382.766 -0.695104 -1.43668 0
M  V30 3842 C 382.966 0.736866 -1.87543 0
M  V30 3843 O 382.022 1.50868 -2.02473 0
M  V30 3844 C 383.335 -1.69447 -2.48412 0
M  V30 3845 C 384.883 -1.70909 -2.62219 0
M  V30 3846 C 385.358 -2.6969 -3.70178 0
M  V30 3847 N 386.849 -2.6824 -3.77626 0
M  V30 3848 C 387.584 -3.41339 -4.60733 0
M  V30 3849 N 387.08 -4.24015 -5.4789 0
M  V30 3850 N 388.873 -3.30079 -4.54977 0
M  V30 3851 H 381.024 -1.91054 -0.928016 0
M  V30 3852 H 383.287 -0.823553 -0.469536 0
M  V30 3853 H 382.993 -2.7188 -2.23102 0
M  V30 3854 H 382.867 -1.48147 -3.46889 0
M  V30 3855 H 385.254 -0.691785 -2.86877 0
M  V30 3856 H 385.335 -1.96276 -1.6404 0
M  V30 3857 H 384.979 -3.71566 -3.46268 0
M  V30 3858 H 384.909 -2.41595 -4.67909 0
M  V30 3859 H 387.4 -2.08243 -3.15346 0
M  V30 3860 H 387.713 -4.76636 -6.08308 0
M  V30 3861 H 386.058 -4.28104 -5.47496 0
M  V30 3862 H 389.249 -2.64937 -3.85909 0
M  V30 3863 H 389.422 -3.87308 -5.19516 0
M  V30 3864 N 382.828 1.3818 -0.7579 0
M  V30 3865 C 384.053 2.04827 -0.325679 0
M  V30 3866 C 384.478 1.56788 1.03919 0
M  V30 3867 O 383.836 0.721811 1.66312 0
M  V30 3868 C 383.884 3.58774 -0.362447 0
M  V30 3869 O 382.988 4.07372 0.642033 0
M  V30 3870 H 382.329 0.64833 -0.143402 0
M  V30 3871 H 384.859 1.7677 -1.03023 0
M  V30 3872 H 384.869 4.07434 -0.214844 0
M  V30 3873 H 383.544 3.93096 -1.35824 0
M  V30 3874 H 382.121 3.70068 0.458688 0
M  V30 3875 N 384.306 0.507319 1.49211 0
M  V30 3876 C 385.269 -0.256763 2.27757 0
M  V30 3877 C 386.269 -0.888287 1.34038 0
M  V30 3878 O 387.459 -0.751841 1.5714 0
M  V30 3879 C 384.591 -1.36905 3.12202 0
M  V30 3880 H 385.784 0.432557 2.96764 0
M  V30 3881 H 383.337 0.262488 1.5408 0
M  V30 3882 H 384.072 -2.09233 2.47775 0
M  V30 3883 H 383.857 -0.921599 3.81115 0
M  V30 3884 H 385.347 -1.9071 3.7151 0
M  V30 3885 N 385.784 -1.5574 0.241426 0
M  V30 3886 C 387.009 -2.0366 -0.392111 0
M  V30 3887 C 387.434 -1.11969 -1.51144 0
M  V30 3888 O 386.792 -0.111594 -1.80956 0
M  V30 3889 C 386.84 -3.49638 -0.882371 0
M  V30 3890 O 385.944 -3.6108 -1.99235 0
M  V30 3891 H 385.285 -0.658379 -0.0862122 0
M  V30 3892 H 387.815 -2.01302 0.365881 0
M  V30 3893 H 387.825 -3.90351 -1.18702 0
M  V30 3894 H 386.5 -4.15852 -0.0632361 0
M  V30 3895 H 385.077 -3.32262 -1.69282 0
M  V30 3896 N 387.262 0.0317525 -1.57568 0
M  V30 3897 C 388.225 1.01783 -2.0536 0
M  V30 3898 C 389.225 1.29203 -0.957253 0
M  V30 3899 O 390.415 1.24251 -1.22095 0
M  V30 3900 C 387.547 2.35137 -2.46827 0
M  V30 3901 H 388.74 0.605062 -2.93733 0
M  V30 3902 H 386.293 0.278514 -1.53799 0
M  V30 3903 H 387.028 2.81168 -1.61602 0
M  V30 3904 H 386.813 2.16566 -3.26866 0
M  V30 3905 H 388.303 3.05938 -2.84239 0
M  V30 3906 N 388.74 1.54641 0.303973 0
M  V30 3907 C 389.965 1.78092 1.06292 0
M  V30 3908 C 390.39 0.537342 1.80262 0
M  V30 3909 O 389.748 -0.511993 1.7392 0
M  V30 3910 C 389.796 2.98612 2.02147 0
M  V30 3911 O 388.9 2.71528 3.10397 0
M  V30 3912 H 388.241 0.589548 0.305497 0
M  V30 3913 H 390.771 2.01716 0.3423 0
M  V30 3914 H 390.781 3.265 2.44667 0
M  V30 3915 H 389.456 3.88785 1.47714 0
M  V30 3916 H 388.033 2.54648 2.72413 0
M  V30 3917 N 390.218 -0.567019 1.47046 0
M  V30 3918 C 391.443 -1.3551 1.57009 0
M  V30 3919 C 391.868 -1.86841 0.217259 0
M  V30 3920 O 391.226 -1.62435 -0.805268 0
M  V30 3921 C 391.274 -2.50777 2.5912 0
M  V30 3922 O 390.378 -3.52706 2.13711 0
M  V30 3923 H 389.719 -0.402919 0.52778 0
M  V30 3924 H 392.249 -0.686241 1.92748 0
M  V30 3925 H 392.259 -2.97481 2.79229 0
M  V30 3926 H 390.934 -2.12771 3.57353 0
M  V30 3927 H 389.511 -3.12374 2.03659 0
M  V30 3928 N 391.696 -1.35014 -0.812953 0
M  V30 3929 C 392.659 -1.27292 -1.90602 0
M  V30 3930 C 393.659 -0.185817 -1.59723 0
M  V30 3931 O 394.849 -0.439102 -1.68575 0
M  V30 3932 C 391.981 -0.967676 -3.26877 0
M  V30 3933 H 393.174 -2.24479 -1.9887 0
M  V30 3934 H 390.727 -1.19446 -1.00808 0
M  V30 3935 H 391.462 0.0005954 -3.243 0
M  V30 3936 H 391.247 -1.75412 -3.50675 0
M  V30 3937 H 392.737 -0.939085 -4.06904 0
M  V30 3938 N 393.175 1.03435 -1.18907 0
M  V30 3939 C 394.4 1.80919 -1.01406 0
M  V30 3940 C 394.825 1.83055 0.432721 0
M  V30 3941 O 394.183 1.25252 1.31079 0
M  V30 3942 C 394.231 3.24091 -1.58105 0
M  V30 3943 O 393.335 4.04434 -0.806669 0
M  V30 3944 H 392.676 0.558709 -0.358803 0
M  V30 3945 H 395.206 1.30223 -1.57807 0
M  V30 3946 H 395.216 3.74853 -1.61087 0
M  V30 3947 H 393.891 3.21851 -2.6341 0
M  V30 3948 H 392.468 3.63091 -0.849666 0
M  V30 3949 N 394.653 0.992116 1.22453 0
M  V30 3950 C 395.878 0.685644 1.95739 0
M  V30 3951 C 396.303 -0.743 1.72804 0
M  V30 3952 O 395.661 -1.50778 1.00676 0
M  V30 3953 C 395.709 0.996293 3.46564 0
M  V30 3954 O 394.813 0.0945512 4.12292 0
M  V30 3955 H 394.154 0.256694 0.612376 0
M  V30 3956 H 396.684 1.32888 1.5557 0
M  V30 3957 H 396.694 0.93781 3.97076 0
M  V30 3958 H 395.369 2.03733 3.62582 0
M  V30 3959 H 393.946 0.208451 3.72317 0
M  V30 3960 N 396.131 -1.37776 0.765217 0
M  V30 3961 C 397.38 -1.99092 0.323307 0
M  V30 3962 C 397.693 -1.61434 -1.10446 0
M  V30 3963 O 398.899 -2.15805 -1.64743 0
M  V30 3964 C 397.355 -3.56019 0.527098 0
M  V30 3965 C 396.963 -4.0262 1.96471 0
M  V30 3966 C 398.707 -4.2424 0.148483 0
M  V30 3967 C 396.614 -5.52233 2.11644 0
M  V30 3968 H 395.544 -0.744846 0.117137 0
M  V30 3969 H 398.195 -1.57391 0.943417 0
M  V30 3970 H 396.577 -3.95667 -0.162372 0
M  V30 3971 H 397.751 -3.74234 2.68859 0
M  V30 3972 H 396.066 -3.47161 2.29931 0
M  V30 3973 H 398.663 -5.34159 0.240456 0
M  V30 3974 H 399.006 -4.06446 -0.900422 0
M  V30 3975 H 399.539 -3.89872 0.79025 0
M  V30 3976 H 396.278 -5.74945 3.1483 0
M  V30 3977 H 395.798 -5.82324 1.4373 0
M  V30 3978 H 397.477 -6.18106 1.91193 0
M  V30 3979 N 397.609 -0.515225 -1.4894 0
M  V30 3980 C 398.572 0.244681 -2.2789 0
M  V30 3981 C 399.572 0.881166 -1.34507 0
M  V30 3982 O 400.762 0.743497 -1.57537 0
M  V30 3983 C 397.894 1.35247 -3.12923 0
M  V30 3984 H 399.087 -0.448289 -2.96531 0
M  V30 3985 H 396.64 -0.270656 -1.53939 0
M  V30 3986 H 397.375 2.07916 -2.48881 0
M  V30 3987 H 397.16 0.901374 -3.81599 0
M  V30 3988 H 398.65 1.88737 -3.72516 0
M  V30 3989 N 399.087 1.5561 -0.249682 0
M  V30 3990 C 400.312 2.03865 0.381305 0
M  V30 3991 C 400.737 1.12769 1.50548 0
M  V30 3992 O 400.095 0.121189 1.80895 0
M  V30 3993 C 400.143 3.50101 0.863816 0
M  V30 3994 O 399.247 3.62132 1.97318 0
M  V30 3995 H 398.588 0.658827 0.0827194 0
M  V30 3996 H 401.118 2.01105 -0.376552 0
M  V30 3997 H 401.128 3.90975 1.1663 0
M  V30 3998 H 399.803 4.1588 0.0411816 0
M  V30 3999 H 398.38 3.33155 1.67517 0
M  V30 4000 N 400.565 -0.0233959 1.57583 0
M  V30 4001 C 401.528 -1.00693 2.05897 0
M  V30 4002 C 402.528 -1.28693 0.964092 0
M  V30 4003 O 403.718 -1.23602 1.22753 0
M  V30 4004 C 400.85 -2.33825 2.4807 0
M  V30 4005 H 402.043 -0.589476 2.9405 0
M  V30 4006 H 399.596 -0.270354 1.53944 0
M  V30 4007 H 400.331 -2.80307 1.6309 0
M  V30 4008 H 400.116 -2.1483 3.2801 0
M  V30 4009 H 401.606 -3.04426 2.85857 0
M  V30 4010 N 402.043 -1.548 -0.295768 0
M  V30 4011 C 403.268 -1.78653 -1.05346 0
M  V30 4012 C 403.693 -0.546894 -1.79974 0
M  V30 4013 O 403.051 0.502763 -1.7419 0
M  V30 4014 C 403.099 -2.99679 -2.00561 0
M  V30 4015 O 402.203 -2.7317 -3.08953 0
M  V30 4016 H 401.544 -0.59116 -0.302367 0
M  V30 4017 H 404.074 -2.01895 -0.331598 0
M  V30 4018 H 404.084 -3.27793 -2.42932 0
M  V30 4019 H 402.759 -3.89562 -1.4565 0
M  V30 4020 H 401.336 -2.56089 -2.71059 0
M  V30 4021 N 403.521 0.559213 -1.47345 0
M  V30 4022 C 404.749 1.34194 -1.57479 0
M  V30 4023 C 405.164 1.87463 -0.224261 0
M  V30 4024 O 404.521 1.64888 0.782185 0
M  V30 4025 C 404.572 2.51324 -2.59843 0
M  V30 4026 O 404.293 2.00256 -3.89653 0
M  V30 4027 C 405.794 3.43563 -2.80142 0
M  V30 4028 H 403.014 0.409136 -0.531835 0
M  V30 4029 H 405.558 0.677609 -1.92947 0
M  V30 4030 H 403.713 3.13699 -2.27314 0
M  V30 4031 H 404.127 2.76708 -4.4557 0
M  V30 4032 H 405.601 4.2217 -3.55635 0
M  V30 4033 H 406.078 3.9698 -1.87892 0
M  V30 4034 H 406.684 2.87005 -3.1386 0
M  V30 4035 N 404.999 1.35443 0.805782 0
M  V30 4036 C 406.246 1.28761 1.56291 0
M  V30 4037 C 406.574 -0.137747 1.94012 0
M  V30 4038 O 405.829 -1.1032 1.61642 0
M  V30 4039 C 406.128 2.14045 2.86216 0
M  V30 4040 C 405.794 3.62826 2.67709 0
M  V30 4041 C 404.456 4.0338 2.6237 0
M  V30 4042 C 406.808 4.57227 2.50186 0
M  V30 4043 C 404.136 5.36501 2.37451 0
M  V30 4044 C 406.488 5.90547 2.26797 0
M  V30 4045 C 405.152 6.30245 2.1988 0
M  V30 4046 H 404.422 0.471171 0.571908 0
M  V30 4047 H 407.069 1.67347 0.930974 0
M  V30 4048 H 405.374 1.68342 3.53791 0
M  V30 4049 H 407.071 2.0621 3.43917 0
M  V30 4050 H 403.661 3.30644 2.72713 0
M  V30 4051 H 407.845 4.2678 2.53323 0
M  V30 4052 H 403.101 5.66259 2.30567 0
M  V30 4053 H 407.275 6.63274 2.12228 0
M  V30 4054 H 404.902 7.33328 2.00333 0
M  V30 4055 N 406.477 -1.02803 1.19454 0
M  V30 4056 C 407.724 -1.76217 0.997693 0
M  V30 4057 C 408.052 -1.887 -0.47144 0
M  V30 4058 O 407.307 -1.4011 -1.3663 0
M  V30 4059 C 407.606 -3.18941 1.6128 0
M  V30 4060 C 407.272 -3.26463 3.11019 0
M  V30 4061 C 405.934 -3.28223 3.51885 0
M  V30 4062 C 408.286 -3.25542 4.07028 0
M  V30 4063 C 405.614 -3.26719 4.8731 0
M  V30 4064 C 407.966 -3.25579 5.42385 0
M  V30 4065 C 406.63 -3.25637 5.82681 0
M  V30 4066 H 405.9 -0.644823 0.365082 0
M  V30 4067 H 408.547 -1.20655 1.4871 0
M  V30 4068 H 406.852 -3.77587 1.04572 0
M  V30 4069 H 408.549 -3.74415 1.43577 0
M  V30 4070 H 405.139 -3.25822 2.78457 0
M  V30 4071 H 409.323 -3.23362 3.76498 0
M  V30 4072 H 404.579 -3.25089 5.1781 0
M  V30 4073 H 408.753 -3.23817 6.16535 0
M  V30 4074 H 406.38 -3.24226 6.87591 0
M  V30 4075 N 407.956 -0.998596 -1.21925 0
M  V30 4076 C 409.204 -0.676325 -1.90448 0
M  V30 4077 C 409.525 0.794719 -1.78071 0
M  V30 4078 O 408.795 1.5701 -1.17152 0
M  V30 4079 H 407.375 -0.247165 -0.704925 0
M  V30 4080 H 410.037 -1.26633 -1.48156 0
M  V30 4081 H 409.133 -0.943858 -2.97486 0
M  V30 4082 N 409.434 1.37368 -0.772513 0
M  V30 4083 C 410.682 1.99279 -0.336516 0
M  V30 4084 C 411.003 1.6163 1.09091 0
M  V30 4085 O 410.273 0.882109 1.74916 0
M  V30 4086 H 408.853 0.737063 -0.121435 0
M  V30 4087 H 411.515 1.67836 -0.990809 0
M  V30 4088 H 410.611 3.09332 -0.414763 0
M  V30 4089 N 410.912 0.523116 1.48665 0
M  V30 4090 C 412.137 -0.0117284 2.07397 0
M  V30 4091 C 412.562 -1.28031 1.37803 0
M  V30 4092 O 411.92 -1.75836 0.441762 0
M  V30 4093 C 411.968 -0.225786 3.59892 0
M  V30 4094 O 411.072 -1.29592 3.91509 0
M  V30 4095 H 410.413 0.0360673 0.66302 0
M  V30 4096 H 412.943 0.729066 1.9117 0
M  V30 4097 H 412.953 -0.450552 4.05505 0
M  V30 4098 H 411.628 0.700944 4.09951 0
M  V30 4099 H 410.205 -1.05436 3.57684 0
M  V30 4100 N 412.39 -1.55475 0.257931 0
M  V30 4101 C 413.806 -1.59307 -0.0966563 0
M  V30 4102 C 414.006 -1.27514 -1.5602 0
M  V30 4103 O 413.062 -1.02774 -2.30637 0
M  V30 4104 C 414.375 -2.99552 0.262481 0
M  V30 4105 C 415.923 -3.1231 0.207683 0
M  V30 4106 C 416.398 -4.54793 0.541012 0
M  V30 4107 N 417.889 -4.6058 0.491921 0
M  V30 4108 C 418.624 -5.68825 0.722857 0
M  V30 4109 N 418.12 -6.85287 1.0175 0
M  V30 4110 N 419.913 -5.58296 0.652815 0
M  V30 4111 H 412.064 -1.74409 1.21224 0
M  V30 4112 H 414.327 -0.812424 0.48854 0
M  V30 4113 H 414.033 -3.27593 1.27967 0
M  V30 4114 H 413.907 -3.75019 -0.40508 0
M  V30 4115 H 416.294 -2.84044 -0.800195 0
M  V30 4116 H 416.375 -2.39095 0.909255 0
M  V30 4117 H 416.019 -4.83783 1.5465 0
M  V30 4118 H 415.949 -5.26285 -0.18216 0
M  V30 4119 H 418.44 -3.7691 0.273366 0
M  V30 4120 H 418.753 -7.63725 1.18084 0
M  V30 4121 H 417.098 -6.86945 1.05509 0
M  V30 4122 H 420.289 -4.66189 0.422592 0
M  V30 4123 H 420.462 -6.42582 0.836182 0
M  V30 4124 N 413.868 0.0150385 -1.57593 0
M  V30 4125 C 415.093 0.718067 -1.94573 0
M  V30 4126 C 415.518 1.6734 -0.859005 0
M  V30 4127 O 414.876 1.80362 0.184147 0
M  V30 4128 C 414.924 1.43918 -3.30636 0
M  V30 4129 O 414.028 2.55299 -3.23876 0
M  V30 4130 H 413.369 0.192125 -0.635597 0
M  V30 4131 H 415.899 -0.0336708 -2.04572 0
M  V30 4132 H 415.909 1.80598 -3.65853 0
M  V30 4133 H 414.584 0.738619 -4.09289 0
M  V30 4134 H 413.161 2.21058 -3.00312 0
M  V30 4135 N 415.346 1.54954 0.287554 0
M  V30 4136 C 416.571 1.79209 1.04397 0
M  V30 4137 C 416.996 0.556431 1.79682 0
M  V30 4138 O 416.354 -0.493518 1.74454 0
M  V30 4139 C 416.402 3.00739 1.98969 0
M  V30 4140 O 415.506 2.74805 3.075 0
M  V30 4141 H 414.847 0.592755 0.299227 0
M  V30 4142 H 417.377 2.02068 0.320886 0
M  V30 4143 H 417.387 3.29077 2.4119 0
M  V30 4144 H 416.062 3.90329 1.43582 0
M  V30 4145 H 414.639 2.57523 2.69697 0
M  V30 4146 N 416.824 -0.551391 1.4764 0
M  V30 4147 C 418.072 -1.30572 1.54258 0
M  V30 4148 C 418.393 -1.93877 0.208963 0
M  V30 4149 O 417.663 -1.80234 -0.767619 0
M  V30 4150 H 416.243 -0.484894 0.568231 0
M  V30 4151 H 418.905 -0.643402 1.83974 0
M  V30 4152 H 418.001 -2.09621 2.31226 0
M  V30 4153 N 418.302 -1.35869 -0.798587 0
M  V30 4154 C 419.527 -1.32883 -1.59238 0
M  V30 4155 C 419.952 0.0894587 -1.87887 0
M  V30 4156 O 419.31 1.05869 -1.47178 0
M  V30 4157 C 419.358 -2.14892 -2.89575 0
M  V30 4158 O 418.462 -1.53512 -3.82763 0
M  V30 4159 H 417.803 -0.455236 -0.48338 0
M  V30 4160 H 420.333 -1.79024 -0.990539 0
M  V30 4161 H 420.343 -2.27139 -3.38928 0
M  V30 4162 H 419.018 -3.17998 -2.68049 0
M  V30 4163 H 417.595 -1.50153 -3.41334 0
M  V30 4164 N 419.78 1.02168 -1.19998 0
M  V30 4165 C 420.743 2.08765 -0.94604 0
M  V30 4166 C 421.743 1.60618 0.0763846 0
M  V30 4167 O 422.933 1.73472 -0.159135 0
M  V30 4168 C 420.065 3.38262 -0.423255 0
M  V30 4169 H 421.258 2.32726 -1.89153 0
M  V30 4170 H 418.811 1.1889 -1.01464 0
M  V30 4171 H 419.546 3.19974 0.527938 0
M  V30 4172 H 419.331 3.74532 -1.16053 0
M  V30 4173 H 420.821 4.16759 -0.264911 0
M  V30 4174 N 421.258 1.00505 1.21394 0
M  V30 4175 C 422.674 0.717873 1.42544 0
M  V30 4176 C 422.874 -0.706936 1.88692 0
M  V30 4177 O 421.93 -1.47627 2.04847 0
M  V30 4178 C 423.243 1.73377 2.45684 0
M  V30 4179 C 424.791 1.75059 2.59467 0
M  V30 4180 C 425.266 2.75545 3.6584 0
M  V30 4181 N 426.757 2.74213 3.73311 0
M  V30 4182 C 427.492 3.48626 4.55245 0
M  V30 4183 N 426.988 4.32678 5.41075 0
M  V30 4184 N 428.781 3.37276 4.49668 0
M  V30 4185 H 420.932 1.92506 0.897503 0
M  V30 4186 H 423.195 0.830919 0.456375 0
M  V30 4187 H 422.901 2.75395 2.18748 0
M  V30 4188 H 422.775 1.53647 3.44489 0
M  V30 4189 H 425.162 0.737337 2.8574 0
M  V30 4190 H 425.243 1.98861 1.60897 0
M  V30 4191 H 424.887 3.77028 3.40313 0
M  V30 4192 H 424.817 2.49009 4.64007 0
M  V30 4193 H 427.308 2.13234 3.11993 0
M  V30 4194 H 427.621 4.86253 6.00648 0
M  V30 4195 H 425.966 4.3676 5.40616 0
M  V30 4196 H 429.157 2.71043 3.81646 0
M  V30 4197 H 429.33 3.95524 5.13288 0
M  V30 4198 N 422.737 -1.36956 0.779787 0
M  V30 4199 C 424.153 -1.52817 0.460342 0
M  V30 4200 C 424.353 -1.7361 -1.02283 0
M  V30 4201 O 423.409 -1.76207 -1.80852 0
M  V30 4202 C 424.722 -2.71983 1.28241 0
M  V30 4203 C 426.27 -2.85849 1.27512 0
M  V30 4204 C 426.745 -4.08008 2.08072 0
M  V30 4205 N 428.236 -4.15135 2.05467 0
M  V30 4206 C 428.971 -5.08711 2.64577 0
M  V30 4207 N 428.467 -6.07792 3.32506 0
M  V30 4208 N 430.26 -5.01254 2.54363 0
M  V30 4209 H 422.411 -1.21713 1.74068 0
M  V30 4210 H 424.674 -0.593294 0.739396 0
M  V30 4211 H 424.38 -2.63109 2.33381 0
M  V30 4212 H 424.254 -3.65882 0.917088 0
M  V30 4213 H 426.641 -2.94189 0.231686 0
M  V30 4214 H 426.722 -1.92886 1.68014 0
M  V30 4215 H 426.366 -4.00429 3.12441 0
M  V30 4216 H 426.296 -5.001 1.64947 0
M  V30 4217 H 428.787 -3.44189 1.5602 0
M  V30 4218 H 429.1 -6.75739 3.74963 0
M  V30 4219 H 427.445 -6.08047 3.36606 0
M  V30 4220 H 430.636 -4.22795 2.00902 0
M  V30 4221 H 430.809 -5.73995 3.00722 0
M  V30 4222 N 424.215 -0.530993 -1.48385 0
M  V30 4223 C 425.178 0.220497 -2.28137 0
M  V30 4224 C 426.178 0.866851 -1.35434 0
M  V30 4225 O 427.368 0.726746 -1.58316 0
M  V30 4226 C 424.5 1.31921 -3.1434 0
M  V30 4227 H 425.693 -0.479714 -2.96038 0
M  V30 4228 H 423.246 -0.286968 -1.53643 0
M  V30 4229 H 423.981 2.05264 -2.51072 0
M  V30 4230 H 423.766 0.86085 -3.82533 0
M  V30 4231 H 425.256 1.84776 -3.74497 0
M  V30 4232 N 425.693 1.55336 -0.266172 0
M  V30 4233 C 427.109 1.59356 0.0882065 0
M  V30 4234 C 427.309 1.2834 1.55342 0
M  V30 4235 O 426.365 1.03996 2.30089 0
M  V30 4236 C 427.678 2.99409 -0.278364 0
M  V30 4237 C 429.226 3.12196 -0.224243 0
M  V30 4238 C 429.701 4.545 -0.565123 0
M  V30 4239 N 431.192 4.60313 -0.51634 0
M  V30 4240 C 431.927 5.68434 -0.753013 0
M  V30 4241 N 431.423 6.84738 -1.05383 0
M  V30 4242 N 433.216 5.57942 -0.682414 0
M  V30 4243 H 425.367 1.73764 -1.22147 0
M  V30 4244 H 427.63 0.809822 -0.492841 0
M  V30 4245 H 427.336 3.2691 -1.29703 0
M  V30 4246 H 427.21 3.75228 0.385186 0
M  V30 4247 H 429.597 2.84464 0.78512 0
M  V30 4248 H 429.678 2.38609 -0.921922 0
M  V30 4249 H 429.322 4.82956 -1.57213 0
M  V30 4250 H 429.252 5.26374 0.154248 0
M  V30 4251 H 431.743 3.7676 -0.29335 0
M  V30 4252 H 432.056 7.63088 -1.22133 0
M  V30 4253 H 430.401 6.86375 -1.09151 0
M  V30 4254 H 433.592 4.65958 -0.44731 0
M  V30 4255 H 433.765 6.4213 -0.870248 0
M  V30 4256 N 427.171 -0.0066808 1.57599 0
M  V30 4257 C 428.134 -0.985035 2.06953 0
M  V30 4258 C 429.134 -1.27663 0.977687 0
M  V30 4259 O 430.324 -1.22293 1.24057 0
M  V30 4260 C 427.456 -2.3118 2.50536 0
M  V30 4261 H 428.649 -0.558255 2.94658 0
M  V30 4262 H 426.202 -0.254011 1.54222 0
M  V30 4263 H 426.937 -2.78561 1.66054 0
M  V30 4264 H 426.722 -2.11338 3.3027 0
M  V30 4265 H 428.212 -3.01377 2.8907 0
M  V30 4266 N 428.649 -1.55105 -0.279332 0
M  V30 4267 C 429.599 -1.83937 -1.34727 0
M  V30 4268 C 430.583 -0.69785 -1.44979 0
M  V30 4269 O 431.775 -0.95904 -1.48766 0
M  V30 4270 C 428.904 -2.1092 -2.70864 0
M  V30 4271 C 427.99 -3.31314 -2.64748 0
M  V30 4272 N 428.381 -4.51371 -2.2825 0
M  V30 4273 C 426.679 -3.33777 -2.95819 0
M  V30 4274 C 427.38 -5.33447 -2.31969 0
M  V30 4275 N 426.356 -4.71697 -2.7019 0
M  V30 4276 H 430.158 -2.74309 -1.05506 0
M  V30 4277 H 427.672 -1.54896 -0.487959 0
M  V30 4278 H 429.669 -2.2973 -3.47893 0
M  V30 4279 H 428.329 -1.21828 -3.00979 0
M  V30 4280 H 429.34 -4.77584 -2.00335 0
M  V30 4281 H 426.017 -2.54858 -3.30687 0
M  V30 4282 H 427.407 -6.39424 -2.06365 0
M  V30 4283 N 430.127 0.543554 -1.4793 0
M  V30 4284 C 431.404 1.30458 -1.4574 0
M  V30 4285 C 431.784 2.1048 -0.161692 0
M  V30 4286 O 431.132 2.11831 0.856734 0
M  V30 4287 C 431.342 2.19754 -2.71126 0
M  V30 4288 C 432.69 2.80334 -3.18901 0
M  V30 4289 O 433.714 2.30049 -2.71948 0
M  V30 4290 O 432.573 3.71766 -4.00565 0
M  V30 4291 H 429.667 0.588117 -0.581418 0
M  V30 4292 H 432.213 0.561328 -1.60147 0
M  V30 4293 H 430.985 1.60316 -3.56952 0
M  V30 4294 H 430.608 3.01351 -2.59371 0
M  V30 4295 N 431.605 1.3629 0.791371 0
M  V30 4296 C 432.851 1.30605 1.55146 0
M  V30 4297 C 433.184 -0.115042 1.93859 0
M  V30 4298 O 432.459 -1.06798 1.62556 0
M  V30 4299 C 432.742 2.22692 2.82985 0
M  V30 4300 C 432.595 3.73489 2.50651 0
M  V30 4301 C 433.914 2.13588 3.84796 0
M  V30 4302 H 431.033 0.475761 0.562868 0
M  V30 4303 H 433.675 1.66825 0.909358 0
M  V30 4304 H 431.825 1.91933 3.37778 0
M  V30 4305 H 433.497 4.14758 2.01924 0
M  V30 4306 H 431.74 3.93021 1.83622 0
M  V30 4307 H 432.411 4.3333 3.41949 0
M  V30 4308 H 434.887 2.40659 3.39445 0
M  V30 4309 H 433.763 2.80195 4.71998 0
M  V30 4310 H 434.024 1.12256 4.27611 0
M  V30 4311 N 433.083 -1.0153 1.20538 0
M  V30 4312 C 433.993 -2.13557 0.971113 0
M  V30 4313 C 435.009 -1.73845 -0.0734366 0
M  V30 4314 O 436.185 -2.01075 0.114299 0
M  V30 4315 C 433.25 -3.42661 0.527639 0
M  V30 4316 C 432.311 -3.96608 1.64319 0
M  V30 4317 C 431.544 -5.1955 1.22078 0
M  V30 4318 O 431.767 -5.70329 0.0900198 0
M  V30 4319 O 430.701 -5.66681 2.02871 0
M  V30 4320 H 434.527 -2.3619 1.90913 0
M  V30 4321 H 432.112 -1.11946 0.989362 0
M  V30 4322 H 433.994 -4.20404 0.289621 0
M  V30 4323 H 432.669 -3.21441 -0.381779 0
M  V30 4324 H 431.576 -3.20139 1.93551 0
M  V30 4325 H 432.909 -4.22219 2.52966 0
M  V30 4326 N 434.561 -1.01147 -1.20859 0
M  V30 4327 C 435.494 -0.522108 -2.22147 0
M  V30 4328 C 436.472 0.427686 -1.56874 0
M  V30 4329 O 437.656 0.34889 -1.85243 0
M  V30 4330 C 434.783 0.240819 -3.37843 0
M  V30 4331 C 433.829 -0.657752 -4.21398 0
M  V30 4332 S 434.662 -2.12393 -4.91578 0
M  V30 4333 C 435.818 -1.37102 -6.10699 0
M  V30 4334 H 436.051 -1.38035 -2.63313 0
M  V30 4335 H 433.584 -0.819941 -1.30829 0
M  V30 4336 H 435.542 0.674908 -4.04914 0
M  V30 4337 H 434.203 1.07457 -2.95147 0
M  V30 4338 H 433.396 -0.0697456 -5.03952 0
M  V30 4339 H 432.998 -1.0294 -3.59555 0
M  V30 4340 H 435.29 -0.648315 -6.74391 0
M  V30 4341 H 436.233 -2.17252 -6.73949 0
M  V30 4342 H 436.641 -0.876154 -5.57659 0
M  V30 4343 N 436.039 1.36541 -0.78704 0
M  V30 4344 C 437.285 1.99599 -0.358872 0
M  V30 4345 C 437.618 1.62323 1.06606 0
M  V30 4346 O 436.893 0.876858 1.73613 0
M  V30 4347 C 437.176 3.56327 -0.519944 0
M  V30 4348 C 437.029 4.03464 -1.98839 0
M  V30 4349 C 438.348 4.4005 0.0664737 0
M  V30 4350 H 435.467 0.725107 -0.131869 0
M  V30 4351 H 438.109 1.6199 -0.992936 0
M  V30 4352 H 436.259 3.88495 0.0198321 0
M  V30 4353 H 437.931 3.81793 -2.58905 0
M  V30 4354 H 436.174 3.55092 -2.49183 0
M  V30 4355 H 436.845 5.12439 -2.05207 0
M  V30 4356 H 439.321 4.14228 -0.394267 0
M  V30 4357 H 438.197 5.48847 -0.0762682 0
M  V30 4358 H 438.458 4.26655 1.15835 0
M  V30 4359 N 437.518 0.538854 1.48102 0
M  V30 4360 C 438.766 0.00798599 2.02098 0
M  V30 4361 C 439.087 -1.33922 1.41739 0
M  V30 4362 O 438.357 -1.86932 0.585934 0
M  V30 4363 H 436.937 -3.62179e-05 0.747 0
M  V30 4364 H 439.599 0.7047 1.81714 0
M  V30 4365 H 438.695 -0.0937672 3.11959 0
M  V30 4366 N 438.996 -1.55193 0.274407 0
M  V30 4367 C 439.928 -2.1989 -0.646595 0
M  V30 4368 C 440.941 -1.1834 -1.11801 0
M  V30 4369 O 442.13 -1.4507 -1.04004 0
M  V30 4370 C 439.23 -2.8104 -1.89393 0
M  V30 4371 C 438.403 -4.08274 -1.56943 0
M  V30 4372 C 437.462 -4.53478 -2.66916 0
M  V30 4373 O 436.488 -5.19267 -2.33132 0
M  V30 4374 N 437.69 -4.2356 -3.9696 0
M  V30 4375 H 440.455 -2.99556 -0.0928686 0
M  V30 4376 H 438.016 -1.61618 0.0954783 0
M  V30 4377 H 440.008 -3.08226 -2.62257 0
M  V30 4378 H 438.578 -2.05372 -2.35672 0
M  V30 4379 H 437.798 -3.88384 -0.674655 0
M  V30 4380 H 439.086 -4.91173 -1.32764 0
M  V30 4381 H 438.484 -3.70799 -4.27229 0
M  V30 4382 H 437.041 -4.55518 -4.66205 0
M  V30 4383 N 440.474 -0.00167713 -1.576 0
M  V30 4384 C 441.404 0.988091 -2.11563 0
M  V30 4385 C 442.385 1.35736 -1.02517 0
M  V30 4386 O 443.57 1.44082 -1.30208 0
M  V30 4387 C 440.7 2.27941 -2.62031 0
M  V30 4388 C 439.654 2.0517 -3.75619 0
M  V30 4389 C 438.98 3.4033 -4.12407 0
M  V30 4390 C 440.28 1.41294 -5.02825 0
M  V30 4391 H 441.974 0.538771 -2.94513 0
M  V30 4392 H 439.52 0.257712 -1.41675 0
M  V30 4393 H 441.473 2.97539 -2.9841 0
M  V30 4394 H 440.197 2.74989 -1.76205 0
M  V30 4395 H 438.856 1.37998 -3.39635 0
M  V30 4396 H 438.504 3.85085 -3.23603 0
M  V30 4397 H 438.204 3.25909 -4.88935 0
M  V30 4398 H 439.728 4.1124 -4.51347 0
M  V30 4399 H 441.142 2.00851 -5.36965 0
M  V30 4400 H 439.539 1.37356 -5.84169 0
M  V30 4401 H 440.609 0.382362 -4.8339 0
M  V30 4402 N 441.952 1.55251 0.271103 0
M  V30 4403 C 443.198 1.76207 1.00394 0
M  V30 4404 C 443.531 0.562604 1.85872 0
M  V30 4405 O 442.806 -0.439785 1.89463 0
M  V30 4406 C 443.089 3.06828 1.8849 0
M  V30 4407 C 442.942 4.37134 1.05992 0
M  V30 4408 C 444.261 3.33503 2.87165 0
M  V30 4409 H 441.38 0.641086 0.363562 0
M  V30 4410 H 444.022 1.87982 0.276189 0
M  V30 4411 H 442.172 2.96921 2.5054 0
M  V30 4412 H 443.844 4.59001 0.459978 0
M  V30 4413 H 442.087 4.32275 0.363443 0
M  V30 4414 H 442.758 5.2486 1.70955 0
M  V30 4415 H 445.234 3.43215 2.3525 0
M  V30 4416 H 444.11 4.2616 3.45946 0
M  V30 4417 H 444.371 2.53235 3.62387 0
M  V30 4418 N 443.43 -0.535701 1.48216 0
M  V30 4419 C 444.678 -1.28928 1.55634 0
M  V30 4420 C 444.999 -1.93645 0.229514 0
M  V30 4421 O 444.269 -1.81038 -0.74846 0
M  V30 4422 H 442.849 -0.47884 0.573342 0
M  V30 4423 H 445.511 -0.623853 1.84646 0
M  V30 4424 H 444.607 -2.07157 2.33436 0
M  V30 4425 N 444.908 -1.36708 -0.784132 0
M  V30 4426 C 446.157 -1.30559 -1.53744 0
M  V30 4427 C 446.47 0.111374 -1.95283 0
M  V30 4428 O 447.676 0.29527 -2.6989 0
M  V30 4429 C 446.132 -2.29098 -2.77565 0
M  V30 4430 C 445.74 -3.76258 -2.43174 0
M  V30 4431 C 447.484 -2.31936 -3.55536 0
M  V30 4432 C 445.391 -4.6656 -3.63422 0
M  V30 4433 H 444.321 -0.48518 -0.577162 0
M  V30 4434 H 446.972 -1.62101 -0.859981 0
M  V30 4435 H 445.354 -1.90557 -3.47137 0
M  V30 4436 H 446.528 -4.23565 -1.81465 0
M  V30 4437 H 444.843 -3.76246 -1.78403 0
M  V30 4438 H 447.44 -2.9661 -4.44889 0
M  V30 4439 H 447.783 -1.3294 -3.94503 0
M  V30 4440 H 448.316 -2.6912 -2.92949 0
M  V30 4441 H 445.055 -5.66638 -3.29547 0
M  V30 4442 H 444.575 -4.23966 -4.24279 0
M  V30 4443 H 446.254 -4.8309 -4.30387 0
M  V30 4444 N 446.386 1.0089 -1.21074 0
M  V30 4445 C 447.319 2.09279 -0.909806 0
M  V30 4446 C 448.297 1.61986 0.141145 0
M  V30 4447 O 449.481 1.88495 0.0130332 0
M  V30 4448 C 446.608 3.36723 -0.365374 0
M  V30 4449 C 445.654 4.02919 -1.39852 0
M  V30 4450 S 446.487 4.45835 -2.96633 0
M  V30 4451 C 447.643 5.76471 -2.43786 0
M  V30 4452 H 447.876 2.34484 -1.82769 0
M  V30 4453 H 445.409 1.14115 -1.04006 0
M  V30 4454 H 447.367 4.10459 -0.0578203 0
M  V30 4455 H 446.028 3.09577 0.531136 0
M  V30 4456 H 445.221 4.94634 -0.967117 0
M  V30 4457 H 444.823 3.35441 -1.65395 0
M  V30 4458 H 447.115 6.52027 -1.84029 0
M  V30 4459 H 448.058 6.24418 -3.33928 0
M  V30 4460 H 448.466 5.33104 -1.85636 0
M  V30 4461 N 447.864 1.01787 1.20321 0
M  V30 4462 C 449.11 0.708985 1.90003 0
M  V30 4463 C 449.443 -0.759572 1.78729 0
M  V30 4464 O 448.718 -1.55198 1.17234 0
M  V30 4465 C 449.001 1.1469 3.41348 0
M  V30 4466 C 448.854 2.67586 3.61549 0
M  V30 4467 C 450.173 0.71915 4.34185 0
M  V30 4468 H 447.292 0.259034 0.689978 0
M  V30 4469 H 449.934 1.26584 1.41692 0
M  V30 4470 H 448.084 0.673128 3.82624 0
M  V30 4471 H 449.756 3.22826 3.29517 0
M  V30 4472 H 447.999 3.085 3.04976 0
M  V30 4473 H 448.67 2.93281 4.67643 0
M  V30 4474 H 451.146 1.12647 4.00562 0
M  V30 4475 H 450.022 1.05358 5.38694 0
M  V30 4476 H 450.283 -0.379111 4.40472 0
M  V30 4477 N 449.342 -1.36122 0.79427 0
M  V30 4478 C 450.588 -1.99406 0.369452 0
M  V30 4479 C 450.921 -1.62886 -1.05743 0
M  V30 4480 O 450.196 -0.886053 -1.73145 0
M  V30 4481 C 450.479 -3.56046 0.538833 0
M  V30 4482 C 450.332 -4.02404 2.00976 0
M  V30 4483 C 451.651 -4.40079 -0.0431359 0
M  V30 4484 H 448.77 -0.724397 0.135712 0
M  V30 4485 H 451.412 -1.61461 1.00151 0
M  V30 4486 H 449.562 -3.885 0.000771004 0
M  V30 4487 H 451.234 -3.80415 2.60926 0
M  V30 4488 H 449.477 -3.53765 2.51063 0
M  V30 4489 H 450.148 -5.11344 2.07922 0
M  V30 4490 H 452.624 -4.14013 0.416228 0
M  V30 4491 H 451.5 -5.48799 0.105374 0
M  V30 4492 H 451.761 -4.27264 -1.13571 0
M  V30 4493 N 450.82 -0.546701 -1.47814 0
M  V30 4494 C 452.045 -0.021268 -2.07389 0
M  V30 4495 C 452.47 1.25822 -1.39822 0
M  V30 4496 O 451.828 1.75111 -0.46968 0
M  V30 4497 C 451.876 0.168502 -3.60206 0
M  V30 4498 O 450.98 1.23347 -3.93522 0
M  V30 4499 H 450.321 -0.0466108 -0.662362 0
M  V30 4500 H 452.851 -0.759387 -1.89985 0
M  V30 4501 H 452.861 0.385982 -4.0617 0
M  V30 4502 H 451.536 -0.766075 -4.08784 0
M  V30 4503 H 450.113 0.997319 -3.59316 0
M  V30 4504 N 452.299 1.55045 -0.282633 0
M  V30 4505 C 453.539 2.01668 0.333088 0
M  V30 4506 C 453.903 1.1667 1.52486 0
M  V30 4507 O 455.104 1.52907 2.21072 0
M  V30 4508 C 453.375 3.50509 0.698442 0
M  V30 4509 S 454.934 4.19112 1.29963 0
M  V30 4510 H 451.752 0.703468 0.103219 0
M  V30 4511 H 454.354 1.91233 -0.406222 0
M  V30 4512 H 453.058 4.10015 -0.177693 0
M  V30 4513 H 452.589 3.64943 1.46902 0
M  V30 4514 H 454.604 4.23362 2.58803 0
M  V30 4515 N 453.777 0.010035 1.57597 0
M  V30 4516 C 455.026 -0.671945 1.90178 0
M  V30 4517 C 455.339 -1.74376 0.886131 0
M  V30 4518 O 456.545 -2.48107 1.10252 0
M  V30 4519 C 455.001 -1.24636 3.3763 0
M  V30 4520 C 454.609 -0.208838 4.47513 0
M  V30 4521 C 456.353 -1.90595 3.79307 0
M  V30 4522 C 454.26 -0.793814 5.86048 0
M  V30 4523 H 453.19 -0.25474 0.709665 0
M  V30 4524 H 455.841 0.0722206 1.83358 0
M  V30 4525 H 454.223 -2.04152 3.3932 0
M  V30 4526 H 455.397 0.562463 4.57354 0
M  V30 4527 H 453.712 0.350889 4.14919 0
M  V30 4528 H 456.309 -2.35284 4.80151 0
M  V30 4529 H 456.652 -2.74074 3.13352 0
M  V30 4530 H 457.185 -1.17798 3.79958 0
M  V30 4531 H 453.924 0.00240855 6.555 0
M  V30 4532 H 453.444 -1.53404 5.79851 0
M  V30 4533 H 455.123 -1.2894 6.34022 0
M  V30 4534 N 455.255 -1.55392 -0.262866 0
M  V30 4535 C 456.495 -1.78231 -1.00064 0
M  V30 4536 C 456.859 -0.576966 -1.83126 0
M  V30 4537 O 458.06 -0.683809 -2.59957 0
M  V30 4538 C 456.331 -3.05701 -1.85153 0
M  V30 4539 S 457.89 -3.49699 -2.65058 0
M  V30 4540 H 454.708 -0.626138 -0.336856 0
M  V30 4541 H 457.31 -1.93626 -0.27005 0
M  V30 4542 H 456.014 -3.91511 -1.23074 0
M  V30 4543 H 455.545 -2.93 -2.62515 0
M  V30 4544 H 457.56 -3.09772 -3.87629 0
M  V30 4545 N 456.733 0.527833 -1.48498 0
M  V30 4546 C 457.979 1.28295 -1.57836 0
M  V30 4547 C 458.334 1.9077 -0.249943 0
M  V30 4548 O 457.627 1.76421 0.747402 0
M  V30 4549 C 457.821 2.39275 -2.65485 0
M  V30 4550 C 457.65 1.87679 -4.08664 0
M  V30 4551 C 456.42 1.70187 -4.75778 0
M  V30 4552 C 458.618 1.40409 -4.94762 0
M  V30 4553 N 456.6 1.13238 -6.03366 0
M  V30 4554 C 457.971 0.954216 -6.12613 0
M  V30 4555 C 460.026 1.28732 -4.8097 0
M  V30 4556 C 458.729 0.39915 -7.18192 0
M  V30 4557 C 460.755 0.746244 -5.86673 0
M  V30 4558 C 460.117 0.306457 -7.03733 0
M  V30 4559 H 456.216 0.460408 -0.632099 0
M  V30 4560 H 458.8 0.594913 -1.85388 0
M  V30 4561 H 456.971 3.05572 -2.3975 0
M  V30 4562 H 458.703 3.06308 -2.64495 0
M  V30 4563 H 455.458 1.93772 -4.32145 0
M  V30 4564 H 455.882 0.867687 -6.71417 0
M  V30 4565 H 460.524 1.61338 -3.90807 0
M  V30 4566 H 458.242 0.0607678 -8.08077 0
M  V30 4567 H 461.828 0.659041 -5.78055 0
M  V30 4568 H 460.708 -0.105708 -7.84129 0
M  V30 4569 N 458.211 1.37122 0.776871 0
M  V30 4570 C 459.436 1.354 1.57104 0
M  V30 4571 C 459.861 -0.0595562 1.88006 0
M  V30 4572 O 459.219 -1.03514 1.48844 0
M  V30 4573 C 459.267 2.19472 2.8612 0
M  V30 4574 O 458.371 1.59582 3.80273 0
M  V30 4575 H 457.712 0.462869 0.476076 0
M  V30 4576 H 460.242 1.80577 0.961932 0
M  V30 4577 H 460.252 2.32502 3.35271 0
M  V30 4578 H 458.927 3.22222 2.62956 0
M  V30 4579 H 457.504 1.55564 3.38902 0
M  V30 4580 N 459.689 -1.00246 1.21608 0
M  V30 4581 C 461.1 -1.55511 1.03312 0
M  V30 4582 C 461.451 -1.91946 -0.406332 0
M  V30 4583 O 460.576 -1.73753 -1.28992 0
M  V30 4584 C 461.171 -2.82576 1.86913 0
M  V30 4585 C 459.73 -3.34318 1.72941 0
M  V30 4586 C 458.877 -2.07487 1.83968 0
M  V30 4587 H 461.828 -0.824638 1.35593 0
M  V30 4588 H 461.849 -3.54559 1.38087 0
M  V30 4589 H 461.361 -2.56026 2.91672 0
M  V30 4590 H 459.462 -3.65797 0.70877 0
M  V30 4591 H 459.575 -4.05566 2.55055 0
M  V30 4592 H 457.939 -2.20603 1.27304 0
M  V30 4593 H 458.722 -1.83346 2.9024 0
M  V30 4594 N 461.167 -1.02423 -1.1978 0
M  V30 4595 C 462.1 -0.545641 -2.21581 0
M  V30 4596 C 463.078 0.411024 -1.57319 0
M  V30 4597 O 464.262 0.329223 -1.85603 0
M  V30 4598 C 461.389 0.204973 -3.38079 0
M  V30 4599 C 460.435 -0.70241 -4.20676 0
M  V30 4600 S 461.268 -2.17595 -4.89298 0
M  V30 4601 C 462.424 -1.43572 -6.09211 0
M  V30 4602 H 462.657 -1.4082 -2.61834 0
M  V30 4603 H 460.19 -0.833771 -1.29952 0
M  V30 4604 H 462.148 0.631924 -4.05607 0
M  V30 4605 H 460.809 1.0432 -2.9627 0
M  V30 4606 H 460.002 -0.123193 -5.03849 0
M  V30 4607 H 459.604 -1.06747 -3.58442 0
M  V30 4608 H 461.896 -0.719806 -6.73665 0
M  V30 4609 H 462.839 -2.24388 -6.71607 0
M  V30 4610 H 463.247 -0.935252 -5.56699 0
M  V30 4611 N 462.645 1.35699 -0.801477 0
M  V30 4612 C 463.575 2.32436 -0.222658 0
M  V30 4613 C 464.556 1.5723 0.649057 0
M  V30 4614 O 465.741 1.85324 0.580387 0
M  V30 4615 C 462.871 3.41469 0.633719 0
M  V30 4616 C 461.825 4.27774 -0.139083 0
M  V30 4617 C 461.151 5.28082 0.838666 0
M  V30 4618 C 462.451 5.04946 -1.33517 0
M  V30 4619 H 464.145 2.81094 -1.03086 0
M  V30 4620 H 461.691 1.35146 -0.497155 0
M  V30 4621 H 463.644 4.08143 1.04868 0
M  V30 4622 H 462.368 2.91408 1.47475 0
M  V30 4623 H 461.027 3.62673 -0.535156 0
M  V30 4624 H 460.675 4.7429 1.67506 0
M  V30 4625 H 460.375 5.86695 0.32594 0
M  V30 4626 H 461.899 5.97628 1.25194 0
M  V30 4627 H 463.313 5.64593 -0.995349 0
M  V30 4628 H 461.71 5.7303 -1.78202 0
M  V30 4629 H 462.78 4.35886 -2.12442 0
M  V30 4630 N 464.123 0.554532 1.47522 0
M  V30 4631 C 465.369 0.0295227 2.02779 0
M  V30 4632 C 465.702 -1.31582 1.42828 0
M  V30 4633 O 464.977 -1.85561 0.582872 0
M  V30 4634 C 465.26 -0.0664057 3.60039 0
M  V30 4635 C 465.113 1.30585 4.30427 0
M  V30 4636 C 466.432 -0.781162 4.33112 0
M  V30 4637 H 463.551 0.0122027 0.736899 0
M  V30 4638 H 466.193 0.716305 1.7598 0
M  V30 4639 H 464.343 -0.651307 3.83002 0
M  V30 4640 H 466.015 1.93374 4.18813 0
M  V30 4641 H 464.258 1.88125 3.90886 0
M  V30 4642 H 464.929 1.19147 5.38988 0
M  V30 4643 H 467.405 -0.284565 4.15126 0
M  V30 4644 H 466.281 -0.817237 5.42782 0
M  V30 4645 H 466.542 -1.83672 4.0214 0
M  V30 4646 N 465.601 -1.54893 0.290851 0
M  V30 4647 C 466.531 -2.26103 -0.583084 0
M  V30 4648 C 467.512 -1.25684 -1.14619 0
M  V30 4649 O 468.697 -1.54436 -1.17741 0
M  V30 4650 C 465.827 -2.99409 -1.75987 0
M  V30 4651 C 464.781 -4.0689 -1.32758 0
M  V30 4652 C 464.107 -4.67856 -2.58872 0
M  V30 4653 C 465.407 -5.20215 -0.46624 0
M  V30 4654 H 467.101 -2.99398 0.0108214 0
M  V30 4655 H 464.647 -1.43998 0.00664468 0
M  V30 4656 H 466.6 -3.47943 -2.37727 0
M  V30 4657 H 465.324 -2.23675 -2.37985 0
M  V30 4658 H 463.983 -3.59191 -0.733299 0
M  V30 4659 H 463.631 -3.88772 -3.19163 0
M  V30 4660 H 463.331 -5.40438 -2.30653 0
M  V30 4661 H 464.855 -5.19147 -3.21433 0
M  V30 4662 H 466.269 -5.64704 -0.989047 0
M  V30 4663 H 464.666 -5.99455 -0.27826 0
M  V30 4664 H 465.736 -4.82198 0.511173 0
M  V30 4665 N 467.08 -0.0183926 -1.57589 0
M  V30 4666 C 468.326 0.663543 -1.91638 0
M  V30 4667 C 468.659 1.72392 -0.894134 0
M  V30 4668 O 467.934 1.94316 0.0846449 0
M  V30 4669 C 468.217 1.28984 -3.36207 0
M  V30 4670 C 468.07 0.239761 -4.49161 0
M  V30 4671 C 469.389 2.2109 -3.80536 0
M  V30 4672 H 466.508 0.239746 -0.696915 0
M  V30 4673 H 469.15 -0.073456 -1.89858 0
M  V30 4674 H 467.3 1.91799 -3.37854 0
M  V30 4675 H 468.972 -0.390119 -4.59647 0
M  V30 4676 H 467.215 -0.435972 -4.31604 0
M  V30 4677 H 467.886 0.717383 -5.47319 0
M  V30 4678 H 470.362 1.68273 -3.80557 0
M  V30 4679 H 469.238 2.61869 -4.82406 0
M  V30 4680 H 469.499 3.09764 -3.15434 0
M  V30 4681 N 468.558 1.5553 0.254621 0
M  V30 4682 C 469.521 1.88872 1.29846 0
M  V30 4683 C 470.521 0.764591 1.41459 0
M  V30 4684 O 471.711 1.03265 1.40293 0
M  V30 4685 C 468.843 2.11032 2.67728 0
M  V30 4686 H 470.036 2.82201 1.01502 0
M  V30 4687 H 467.589 1.48303 0.493556 0
M  V30 4688 H 468.324 1.20146 3.01223 0
M  V30 4689 H 468.109 2.92895 2.60682 0
M  V30 4690 H 469.599 2.38038 3.43115 0
M  V30 4691 N 470.036 -0.519951 1.48776 0
M  V30 4692 C 470.966 -1.63253 1.66945 0
M  V30 4693 C 471.947 -1.62014 0.518224 0
M  V30 4694 O 473.132 -1.79053 0.751919 0
M  V30 4695 C 470.262 -3.0181 1.71836 0
M  V30 4696 C 469.216 -3.17911 2.8656 0
M  V30 4697 C 468.542 -4.5763 2.76548 0
M  V30 4698 C 469.842 -2.99729 4.27738 0
M  V30 4699 H 471.536 -1.48302 2.6009 0
M  V30 4700 H 469.082 -0.712026 1.25165 0
M  V30 4701 H 471.035 -3.79525 1.83135 0
M  V30 4702 H 469.759 -3.17806 0.752775 0
M  V30 4703 H 468.418 -2.42616 2.74833 0
M  V30 4704 H 468.066 -4.70476 1.77937 0
M  V30 4705 H 467.766 -4.69346 3.53536 0
M  V30 4706 H 469.29 -5.37431 2.89828 0
M  V30 4707 H 470.704 -3.67228 4.40246 0
M  V30 4708 H 469.101 -3.22932 5.05801 0
M  V30 4709 H 470.171 -1.96047 4.43502 0
M  V30 4710 N 471.514 -1.37532 -0.769588 0
M  V30 4711 C 472.477 -1.33292 -1.86456 0
M  V30 4712 C 473.477 -0.236537 -1.59051 0
M  V30 4713 O 474.667 -0.492511 -1.67093 0
M  V30 4714 C 471.799 -1.07118 -3.23633 0
M  V30 4715 H 472.992 -2.30692 -1.91628 0
M  V30 4716 H 470.545 -1.22593 -0.969572 0
M  V30 4717 H 471.28 -0.102578 -3.24138 0
M  V30 4718 H 471.065 -1.86479 -3.44917 0
M  V30 4719 H 472.555 -1.06806 -4.03711 0
M  V30 4720 N 472.992 0.995999 -1.22138 0
M  V30 4721 C 474.238 1.73767 -1.04561 0
M  V30 4722 C 474.571 1.89633 0.418698 0
M  V30 4723 O 473.846 1.43723 1.3105 0
M  V30 4724 C 474.129 3.14505 -1.75382 0
M  V30 4725 C 473.982 3.06306 -3.29388 0
M  V30 4726 C 475.301 4.13615 -1.50369 0
M  V30 4727 H 472.42 0.630728 -0.38125 0
M  V30 4728 H 475.062 1.16057 -1.50435 0
M  V30 4729 H 473.212 3.63775 -1.36383 0
M  V30 4730 H 474.884 2.64681 -3.77812 0
M  V30 4731 H 473.127 2.43186 -3.59226 0
M  V30 4732 H 473.798 4.05884 -3.74116 0
M  V30 4733 H 476.274 3.73089 -1.84239 0
M  V30 4734 H 475.15 5.10212 -2.02421 0
M  V30 4735 H 475.411 4.39949 -0.435611 0
M  V30 4736 N 474.47 1.03057 1.19235 0
M  V30 4737 C 475.718 0.726581 1.88587 0
M  V30 4738 C 476.039 -0.747227 1.80115 0
M  V30 4739 O 475.309 -1.53849 1.21274 0
M  V30 4740 H 473.889 0.265768 0.698124 0
M  V30 4741 H 476.551 1.30516 1.44746 0
M  V30 4742 H 475.647 1.0224 2.94879 0
M  V30 4743 N 475.948 -1.35272 0.808662 0
M  V30 4744 C 477.196 -1.98316 0.389233 0
M  V30 4745 C 477.517 -1.64465 -1.04767 0
M  V30 4746 O 476.787 -0.928175 -1.72516 0
M  V30 4747 H 475.367 -0.733585 0.140935 0
M  V30 4748 H 478.029 -1.6515 1.03496 0
M  V30 4749 H 477.125 -3.08123 0.496631 0
M  V30 4750 N 477.426 -0.562348 -1.47226 0
M  V30 4751 C 478.672 -0.0485293 -2.03342 0
M  V30 4752 C 479.027 1.28898 -1.42839 0
M  V30 4753 O 478.32 1.82719 -0.576563 0
M  V30 4754 C 478.514 0.0969817 -3.57268 0
M  V30 4755 C 478.343 -1.22487 -4.32697 0
M  V30 4756 C 477.113 -1.79357 -4.72397 0
M  V30 4757 C 479.311 -2.14332 -4.67511 0
M  V30 4758 N 477.293 -3.05493 -5.32491 0
M  V30 4759 C 478.664 -3.25049 -5.27961 0
M  V30 4760 C 480.719 -2.14263 -4.4944 0
M  V30 4761 C 479.422 -4.35804 -5.72248 0
M  V30 4762 C 481.448 -3.24033 -4.94729 0
M  V30 4763 C 480.81 -4.3347 -5.55233 0
M  V30 4764 H 476.909 -0.0600464 -0.779691 0
M  V30 4765 H 479.493 -0.750769 -1.79643 0
M  V30 4766 H 477.664 0.768353 -3.80724 0
M  V30 4767 H 479.396 0.613333 -4.00025 0
M  V30 4768 H 476.151 -1.33093 -4.54514 0
M  V30 4769 H 476.575 -3.698 -5.67077 0
M  V30 4770 H 481.217 -1.30935 -4.02015 0
M  V30 4771 H 478.935 -5.19888 -6.18661 0
M  V30 4772 H 482.521 -3.25073 -4.82513 0
M  V30 4773 H 481.401 -5.17008 -5.89638 0
M  V30 4774 N 478.904 1.54736 -0.299062 0
M  V30 4775 C 480.129 2.04975 0.316254 0
M  V30 4776 C 480.554 1.17501 1.46885 0
M  V30 4777 O 479.912 0.178678 1.80417 0
M  V30 4778 C 479.96 3.52672 0.751997 0
M  V30 4779 O 479.064 3.68226 1.85697 0
M  V30 4780 H 478.405 0.661126 0.0617175 0
M  V30 4781 H 480.935 1.99805 -0.440341 0
M  V30 4782 H 480.945 3.94488 1.04133 0
M  V30 4783 H 479.62 4.158 -0.0911482 0
M  V30 4784 H 478.197 3.38316 1.56834 0
M  V30 4785 N 480.382 0.0267497 1.57577 0
M  V30 4786 C 481.607 -0.666227 1.96408 0
M  V30 4787 C 482.032 -1.65004 0.903071 0
M  V30 4788 O 481.39 -1.80787 -0.136263 0
M  V30 4789 C 481.438 -1.35101 3.34335 0
M  V30 4790 O 480.542 -2.46623 3.30531 0
M  V30 4791 H 479.883 -0.175206 0.640468 0
M  V30 4792 H 482.413 0.0878977 2.04411 0
M  V30 4793 H 482.423 -1.70834 3.70513 0
M  V30 4794 H 481.098 -0.629844 4.11103 0
M  V30 4795 H 479.675 -2.13019 3.06068 0
M  V30 4796 N 481.861 -1.55662 -0.24637 0
M  V30 4797 C 483.089 -1.81575 -0.991876 0
M  V30 4798 C 483.504 -0.602545 -1.78927 0
M  V30 4799 O 482.861 0.428795 -1.77391 0
M  V30 4800 C 482.912 -3.05711 -1.92933 0
M  V30 4801 O 482.633 -4.22348 -1.1642 0
M  V30 4802 C 484.134 -3.44428 -2.79078 0
M  V30 4803 H 481.354 -0.604209 -0.291844 0
M  V30 4804 H 483.898 -2.02722 -0.269095 0
M  V30 4805 H 482.053 -2.86612 -2.60638 0
M  V30 4806 H 482.467 -4.92706 -1.79835 0
M  V30 4807 H 483.941 -4.34388 -3.40603 0
M  V30 4808 H 484.418 -2.65037 -3.50217 0
M  V30 4809 H 485.024 -3.65879 -2.16824 0
M  V30 4810 N 483.339 0.512053 -1.4905 0
M  V30 4811 C 484.564 1.2959 -1.6193 0
M  V30 4812 C 484.989 1.85906 -0.286454 0
M  V30 4813 O 484.347 1.65312 0.744426 0
M  V30 4814 C 484.395 2.40987 -2.68249 0
M  V30 4815 O 483.499 3.44531 -2.26654 0
M  V30 4816 H 482.84 0.383053 -0.542371 0
M  V30 4817 H 485.37 0.614231 -1.95162 0
M  V30 4818 H 485.38 2.86913 -2.90078 0
M  V30 4819 H 484.055 1.99361 -3.65004 0
M  V30 4820 H 482.632 3.046 -2.15112 0
M  V30 4821 N 484.817 1.37938 0.762283 0
M  V30 4822 C 485.747 1.37176 1.88958 0
M  V30 4823 C 486.728 0.238945 1.68413 0
M  V30 4824 O 487.913 0.440726 1.89133 0
M  V30 4825 C 485.043 1.18742 3.2637 0
M  V30 4826 C 483.997 2.29136 3.61498 0
M  V30 4827 C 483.323 1.95816 4.97554 0
M  V30 4828 C 484.623 3.71363 3.6727 0
M  V30 4829 H 486.317 2.31509 1.89853 0
M  V30 4830 H 483.863 1.11438 0.912005 0
M  V30 4831 H 485.816 1.16837 4.04879 0
M  V30 4832 H 484.54 0.208683 3.25933 0
M  V30 4833 H 483.199 2.30213 2.85303 0
M  V30 4834 H 482.847 0.964475 4.93667 0
M  V30 4835 H 482.547 2.69745 5.22026 0
M  V30 4836 H 484.071 1.95513 5.78452 0
M  V30 4837 H 485.485 3.72364 4.35911 0
M  V30 4838 H 483.882 4.44425 4.03245 0
M  V30 4839 H 484.952 4.04305 2.67704 0
M  V30 4840 N 486.295 -0.989507 1.22664 0
M  V30 4841 C 487.227 -2.0824 0.957542 0
M  V30 4842 C 488.24 -1.6267 -0.0651098 0
M  V30 4843 O 489.429 -1.77695 0.169312 0
M  V30 4844 C 486.529 -3.36298 0.419145 0
M  V30 4845 C 485.702 -4.10882 1.49982 0
M  V30 4846 C 484.761 -5.17221 0.967904 0
M  V30 4847 O 483.787 -5.44613 1.65487 0
M  V30 4848 N 484.989 -5.80124 -0.20896 0
M  V30 4849 H 487.754 -2.31904 1.89843 0
M  V30 4850 H 485.315 -1.15552 1.13399 0
M  V30 4851 H 487.307 -4.04671 0.0485451 0
M  V30 4852 H 485.877 -3.09671 -0.426937 0
M  V30 4853 H 485.097 -3.37092 2.04359 0
M  V30 4854 H 486.385 -4.57482 2.22682 0
M  V30 4855 H 485.783 -5.60244 -0.783818 0
M  V30 4856 H 484.34 -6.49715 -0.520913 0
M  V30 4857 N 487.773 -1.03688 -1.18687 0
M  V30 4858 C 489.189 -0.755413 -1.4059 0
M  V30 4859 C 489.389 0.656659 -1.905 0
M  V30 4860 O 488.445 1.42144 -2.08689 0
M  V30 4861 C 489.758 -1.7983 -2.41001 0
M  V30 4862 C 491.306 -1.81877 -2.54735 0
M  V30 4863 C 491.781 -2.85148 -3.58406 0
M  V30 4864 N 493.272 -2.84015 -3.6591 0
M  V30 4865 C 494.007 -3.60573 -4.45841 0
M  V30 4866 N 493.503 -4.46871 -5.29413 0
M  V30 4867 N 495.296 -3.49079 -4.40568 0
M  V30 4868 H 487.447 -1.94818 -0.846148 0
M  V30 4869 H 489.71 -0.842727 -0.434184 0
M  V30 4870 H 489.416 -2.81097 -2.1137 0
M  V30 4871 H 489.29 -1.62727 -3.40294 0
M  V30 4872 H 491.677 -0.812836 -2.83685 0
M  V30 4873 H 491.758 -2.03057 -1.55568 0
M  V30 4874 H 491.402 -3.85918 -3.30197 0
M  V30 4875 H 491.332 -2.61224 -4.57241 0
M  V30 4876 H 493.823 -2.21431 -3.0623 0
M  V30 4877 H 494.136 -5.02007 -5.87545 0
M  V30 4878 H 492.481 -4.5094 -5.28846 0
M  V30 4879 H 495.672 -2.81066 -3.74325 0
M  V30 4880 H 495.845 -4.08994 -5.02621 0
M  V30 4881 N 489.251 1.34841 -0.815825 0
M  V30 4882 C 490.662 1.80937 -0.46029 0
M  V30 4883 C 491.013 1.67685 1.01863 0
M  V30 4884 O 490.138 1.21277 1.79223 0
M  V30 4885 C 490.733 3.28509 -0.828708 0
M  V30 4886 C 489.292 3.72712 -0.525644 0
M  V30 4887 C 488.439 2.56676 -1.04941 0
M  V30 4888 H 491.39 1.22688 -1.00664 0
M  V30 4889 H 491.411 3.80279 -0.129757 0
M  V30 4890 H 490.923 3.38122 -1.90513 0
M  V30 4891 H 489.024 3.68642 0.541666 0
M  V30 4892 H 489.137 4.67119 -1.06474 0
M  V30 4893 H 487.501 2.50302 -0.471286 0
M  V30 4894 H 488.284 2.69063 -2.13214 0
M  V30 4895 N 490.729 0.570148 1.46925 0
M  V30 4896 C 491.659 -0.158274 2.32963 0
M  V30 4897 C 492.64 -0.896093 1.44583 0
M  V30 4898 O 493.825 -0.874022 1.7342 0
M  V30 4899 C 490.955 -1.18055 3.26619 0
M  V30 4900 C 489.909 -0.558379 4.24342 0
M  V30 4901 C 489.235 -1.68623 5.07415 0
M  V30 4902 C 490.535 0.496295 5.19937 0
M  V30 4903 H 492.229 0.560046 2.94115 0
M  V30 4904 H 489.775 0.270775 1.41431 0
M  V30 4905 H 491.728 -1.69841 3.85658 0
M  V30 4906 H 490.452 -1.92899 2.63548 0
M  V30 4907 H 489.111 -0.0617157 3.66548 0
M  V30 4908 H 488.759 -2.42402 4.40738 0
M  V30 4909 H 488.459 -1.27564 5.73586 0
M  V30 4910 H 489.983 -2.20709 5.69315 0
M  V30 4911 H 491.397 0.0640052 5.73264 0
M  V30 4912 H 489.794 0.82649 5.94381 0
M  V30 4913 H 490.864 1.38735 4.6463 0
M  V30 4914 N 492.207 -1.54576 0.307264 0
M  V30 4915 C 493.454 -2.00263 -0.300167 0
M  V30 4916 C 493.782 -1.19561 -1.53413 0
M  V30 4917 O 493.037 -0.261487 -1.93945 0
M  V30 4918 C 493.336 -3.50572 -0.695253 0
M  V30 4919 C 493.002 -4.48771 0.437679 0
M  V30 4920 C 491.664 -4.7534 0.748681 0
M  V30 4921 C 494.016 -5.0721 1.19949 0
M  V30 4922 C 491.344 -5.5761 1.8245 0
M  V30 4923 C 493.696 -5.90651 2.26527 0
M  V30 4924 C 492.36 -6.15528 2.58227 0
M  V30 4925 H 491.63 -0.732814 -0.109839 0
M  V30 4926 H 494.277 -1.86664 0.427661 0
M  V30 4927 H 492.582 -3.61814 -1.50326 0
M  V30 4928 H 494.279 -3.83352 -1.17653 0
M  V30 4929 H 490.869 -4.282 0.185187 0
M  V30 4930 H 495.053 -4.86679 0.972474 0
M  V30 4931 H 490.309 -5.75121 2.07476 0
M  V30 4932 H 494.483 -6.34957 2.86011 0
M  V30 4933 H 492.11 -6.79066 3.4172 0
M  V30 4934 N 493.685 -0.035106 -1.57561 0
M  V30 4935 C 494.615 0.942993 -2.13612 0
M  V30 4936 C 495.596 1.33531 -1.05373 0
M  V30 4937 O 496.781 1.41287 -1.33235 0
M  V30 4938 C 493.911 2.22332 -2.66807 0
M  V30 4939 C 492.865 1.97156 -3.79886 0
M  V30 4940 C 492.191 3.31506 -4.19533 0
M  V30 4941 C 493.491 1.30596 -5.05709 0
M  V30 4942 H 495.185 0.476179 -2.95589 0
M  V30 4943 H 492.731 0.227602 -1.4219 0
M  V30 4944 H 494.684 2.91142 -3.04654 0
M  V30 4945 H 493.408 2.7119 -1.81999 0
M  V30 4946 H 492.067 1.30763 -3.42486 0
M  V30 4947 H 491.715 3.78134 -3.31698 0
M  V30 4948 H 491.415 3.15465 -4.95738 0
M  V30 4949 H 492.939 4.01574 -4.59968 0
M  V30 4950 H 494.353 1.89416 -5.41105 0
M  V30 4951 H 492.75 1.24934 -5.86951 0
M  V30 4952 H 493.82 0.279742 -4.84092 0
M  V30 4953 N 495.163 1.55791 0.238111 0
M  V30 4954 C 496.126 1.90239 1.27835 0
M  V30 4955 C 497.126 0.779552 1.4064 0
M  V30 4956 O 498.316 1.04747 1.3919 0
M  V30 4957 C 495.448 2.13859 2.65475 0
M  V30 4958 H 496.641 2.83262 0.985034 0
M  V30 4959 H 494.194 1.48818 0.477799 0
M  V30 4960 H 494.929 1.23334 2.99932 0
M  V30 4961 H 494.714 2.95643 2.57561 0
M  V30 4962 H 496.204 2.41664 3.40571 0
M  V30 4963 N 496.642 -0.504142 1.49319 0
M  V30 4964 C 497.888 -1.26033 1.58882 0
M  V30 4965 C 498.221 -1.92268 0.273274 0
M  V30 4966 O 497.496 -1.80567 -0.72291 0
M  V30 4967 C 497.779 -2.32976 2.7458 0
M  V30 4968 C 497.632 -1.71263 4.1592 0
M  V30 4969 C 498.951 -3.34561 2.85932 0
M  V30 4970 H 496.07 -0.456863 0.578312 0
M  V30 4971 H 498.712 -0.558965 1.81592 0
M  V30 4972 H 496.862 -2.92796 2.55348 0
M  V30 4973 H 498.534 -1.15294 4.4666 0
M  V30 4974 H 496.777 -1.01686 4.21714 0
M  V30 4975 H 497.448 -2.48816 4.92742 0
M  V30 4976 H 499.924 -2.84727 3.0343 0
M  V30 4977 H 498.8 -4.06754 3.68568 0
M  V30 4978 H 499.061 -3.96695 1.95154 0
M  V30 4979 N 498.12 -1.38341 -0.754957 0
M  V30 4980 C 499.536 -1.19508 -1.05783 0
M  V30 4981 C 499.736 -0.0428005 -2.01455 0
M  V30 4982 O 498.792 0.611861 -2.44975 0
M  V30 4983 C 500.105 -2.52091 -1.63923 0
M  V30 4984 C 501.653 -2.58762 -1.76101 0
M  V30 4985 C 502.128 -3.91517 -2.37652 0
M  V30 4986 N 503.619 -3.93049 -2.45085 0
M  V30 4987 C 504.354 -4.9253 -2.93602 0
M  V30 4988 N 503.85 -6.02408 -3.42165 0
M  V30 4989 N 505.643 -4.79921 -2.92629 0
M  V30 4990 H 497.794 -2.1206 -0.120056 0
M  V30 4991 H 500.057 -0.94089 -0.11589 0
M  V30 4992 H 499.763 -3.36858 -1.01093 0
M  V30 4993 H 499.637 -2.70388 -2.63003 0
M  V30 4994 H 502.024 -1.74391 -2.38058 0
M  V30 4995 H 502.105 -2.44333 -0.757294 0
M  V30 4996 H 501.749 -4.76309 -1.76329 0
M  V30 4997 H 501.679 -4.03256 -3.38662 0
M  V30 4998 H 504.17 -3.13685 -2.10736 0
M  V30 4999 H 504.483 -6.74248 -3.77637 0
M  V30 5000 H 502.828 -6.0603 -3.40225 0
M  V30 5001 H 506.019 -3.93194 -2.54001 0
M  V30 5002 H 506.192 -5.57601 -3.30128 0
M  V30 5003 N 499.598 0.982988 -1.23187 0
M  V30 5004 C 500.528 2.09301 -1.03515 0
M  V30 5005 C 501.509 1.70035 0.0471136 0
M  V30 5006 O 502.694 1.93847 -0.117029 0
M  V30 5007 C 499.824 3.4167 -0.622791 0
M  V30 5008 C 498.778 3.94828 -1.65211 0
M  V30 5009 C 498.104 5.23362 -1.09527 0
M  V30 5010 C 499.404 4.2439 -3.04451 0
M  V30 5011 H 501.098 2.26016 -1.96359 0
M  V30 5012 H 498.644 1.08611 -0.945501 0
M  V30 5013 H 500.597 4.18746 -0.472233 0
M  V30 5014 H 499.321 3.24811 0.341329 0
M  V30 5015 H 497.98 3.19895 -1.79061 0
M  V30 5016 H 497.628 5.02852 -0.122211 0
M  V30 5017 H 497.328 5.59895 -1.783 0
M  V30 5018 H 498.852 6.03062 -0.956511 0
M  V30 5019 H 500.266 4.92225 -2.93917 0
M  V30 5020 H 498.663 4.72118 -3.70438 0
M  V30 5021 H 499.733 3.31765 -3.53638 0
M  V30 5022 N 501.076 1.04316 1.18135 0
M  V30 5023 C 502.039 0.640794 2.2006 0
M  V30 5024 C 503.039 -0.303124 1.57917 0
M  V30 5025 O 504.229 -0.0881855 1.73977 0
M  V30 5026 C 501.361 -0.060148 3.40847 0
M  V30 5027 H 502.554 1.54281 2.57172 0
M  V30 5028 H 500.107 0.836004 1.32063 0
M  V30 5029 H 500.842 -0.975845 3.0927 0
M  V30 5030 H 500.627 0.618319 3.87194 0
M  V30 5031 H 502.117 -0.328082 4.16309 0
M  V30 5032 N 502.554 -1.34406 0.822964 0
M  V30 5033 C 503.779 -2.0304 0.423034 0
M  V30 5034 C 504.204 -1.61568 -0.963196 0
M  V30 5035 O 503.562 -0.800339 -1.62678 0
M  V30 5036 C 503.61 -3.56636 0.53321 0
M  V30 5037 O 502.714 -4.09971 -0.446939 0
M  V30 5038 H 502.055 -0.64075 0.174171 0
M  V30 5039 H 504.585 -1.71653 1.11339 0
M  V30 5040 H 504.595 -4.05945 0.408991 0
M  V30 5041 H 503.27 -3.86168 1.54425 0
M  V30 5042 H 501.847 -3.71835 -0.281601 0
M  V30 5043 N 504.032 -0.577932 -1.46621 0
M  V30 5044 C 505.278 -0.0700937 -2.03279 0
M  V30 5045 C 505.633 1.27376 -1.44198 0
M  V30 5046 O 504.926 1.82097 -0.595911 0
M  V30 5047 C 505.12 0.0590832 -3.57351 0
M  V30 5048 C 504.949 -1.2707 -4.31374 0
M  V30 5049 C 503.719 -1.84357 -4.70469 0
M  V30 5050 C 505.917 -2.19278 -4.65211 0
M  V30 5051 N 503.899 -3.11124 -5.29221 0
M  V30 5052 C 505.27 -3.30631 -5.24484 0
M  V30 5053 C 507.325 -2.19018 -4.47142 0
M  V30 5054 C 506.028 -4.41849 -5.67593 0
M  V30 5055 C 508.054 -3.29262 -4.91264 0
M  V30 5056 C 507.416 -4.39335 -5.50604 0
M  V30 5057 H 503.515 -0.0683127 -0.779011 0
M  V30 5058 H 506.099 -0.76978 -1.78836 0
M  V30 5059 H 504.27 0.727929 -3.81518 0
M  V30 5060 H 506.002 0.57087 -4.00653 0
M  V30 5061 H 502.757 -1.37906 -4.53077 0
M  V30 5062 H 503.181 -3.75794 -5.63123 0
M  V30 5063 H 507.823 -1.35191 -4.00604 0
M  V30 5064 H 505.541 -5.26421 -6.13112 0
M  V30 5065 H 509.127 -3.30172 -4.79038 0
M  V30 5066 H 508.007 -5.23233 -5.84121 0
M  V30 5067 N 505.51 1.54411 -0.315457 0
M  V30 5068 C 506.458 2.25514 0.569771 0
M  V30 5069 C 507.452 1.2663 1.12522 0
M  V30 5070 O 508.658 1.44434 1.07419 0
M  V30 5071 H 505.033 0.724257 0.202376 0
M  V30 5072 H 507.004 2.98354 -0.0522895 0
M  V30 5073 C 505.753 3.02004 1.72305 0
M  V30 5074 H 505.076 3.77906 1.30488 0
M  V30 5075 H 506.516 3.55014 2.31821 0
M  V30 5076 C 504.975 2.09822 2.63583 0
M  V30 5077 O 505.505 1.67574 3.65078 0
M  V30 5078 N 503.711 1.75478 2.31637 0
M  V30 5079 H 503.258 2.10032 1.49145 0
M  V30 5080 H 503.216 1.14079 2.92973 0
M  V30 5081 N 506.988 0.0434614 1.5754 0
M  V30 5082 C 507.92 -0.962586 2.08007 0
M  V30 5083 C 508.933 -1.27972 1.00634 0
M  V30 5084 O 510.122 -1.24186 1.28219 0
M  V30 5085 C 507.222 -2.28621 2.50171 0
M  V30 5086 C 506.395 -2.15214 3.80791 0
M  V30 5087 C 505.454 -3.30633 4.09351 0
M  V30 5088 O 504.48 -3.0688 4.79388 0
M  V30 5089 N 505.682 -4.54873 3.60654 0
M  V30 5090 H 508.447 -0.531891 2.94942 0
M  V30 5091 H 506.008 -0.142965 1.61268 0
M  V30 5092 H 508 -3.04689 2.66359 0
M  V30 5093 H 506.57 -2.63283 1.68525 0
M  V30 5094 H 505.79 -1.23785 3.74261 0
M  V30 5095 H 507.078 -2.03475 4.66343 0
M  V30 5096 H 506.476 -4.77063 3.04019 0
M  V30 5097 H 505.033 -5.2806 3.82094 0
M  V30 5098 N 508.466 -1.55915 -0.229846 0
M  V30 5099 C 509.715 -1.77742 -0.953455 0
M  V30 5100 C 510.028 -0.610524 -1.85828 0
M  V30 5101 O 511.234 -0.712219 -2.61992 0
M  V30 5102 C 509.69 -3.14738 -1.74551 0
M  V30 5103 C 509.298 -4.39126 -0.887242 0
M  V30 5104 C 511.042 -3.45895 -2.46084 0
M  V30 5105 C 508.949 -5.67149 -1.67617 0
M  V30 5106 H 507.879 -0.662648 -0.359741 0
M  V30 5107 H 510.53 -1.82322 -0.207576 0
M  V30 5108 H 508.912 -3.04311 -2.53399 0
M  V30 5109 H 510.086 -4.60588 -0.139892 0
M  V30 5110 H 508.401 -4.15427 -0.284443 0
M  V30 5111 H 510.998 -4.38767 -3.05594 0
M  V30 5112 H 511.341 -2.68007 -3.18556 0
M  V30 5113 H 511.874 -3.57614 -1.74233 0
M  V30 5114 H 508.613 -6.47906 -0.994881 0
M  V30 5115 H 508.133 -5.49763 -2.39836 0
M  V30 5116 H 509.812 -6.07025 -2.23898 0
M  V30 5117 N 509.944 0.496216 -1.49584 0
M  V30 5118 C 510.874 1.60576 -1.69521 0
M  V30 5119 C 511.855 1.61169 -0.543933 0
M  V30 5120 O 513.04 1.77834 -0.78031 0
M  V30 5121 C 510.17 2.99038 -1.76616 0
M  V30 5122 C 509.124 3.13312 -2.91581 0
M  V30 5123 C 508.45 4.53172 -2.83794 0
M  V30 5124 C 509.75 2.92886 -4.32452 0
M  V30 5125 H 511.444 1.44146 -2.62416 0
M  V30 5126 H 508.99 0.692024 -1.26282 0
M  V30 5127 H 510.943 3.76564 -1.8915 0
M  V30 5128 H 509.667 3.16568 -0.80324 0
M  V30 5129 H 508.326 2.38213 -2.78658 0
M  V30 5130 H 507.974 4.67585 -1.854 0
M  V30 5131 H 507.674 4.63662 -3.60958 0
M  V30 5132 H 509.198 5.32752 -2.98342 0
M  V30 5133 H 510.612 3.60178 -4.46032 0
M  V30 5134 H 509.009 3.14844 -5.10875 0
M  V30 5135 H 510.079 1.88966 -4.46565 0
M  V30 5136 N 511.423 1.38739 0.74761 0
M  V30 5137 C 512.7 1.25791 1.49786 0
M  V30 5138 C 513.08 -0.138075 2.10648 0
M  V30 5139 O 512.428 -1.14815 1.9756 0
M  V30 5140 C 512.638 2.37265 2.55942 0
M  V30 5141 C 513.986 2.75978 3.22679 0
M  V30 5142 O 515.01 2.36621 2.6625 0
M  V30 5143 O 513.869 3.43867 4.24756 0
M  V30 5144 H 510.963 0.492251 0.664543 0
M  V30 5145 H 513.509 1.50582 0.782511 0
M  V30 5146 H 512.281 3.30644 2.0926 0
M  V30 5147 H 511.904 2.14071 3.35051 0
M  V30 5148 N 512.901 -0.976442 1.23707 0
M  V30 5149 C 514.312 -1.53284 1.06587 0
M  V30 5150 C 514.663 -1.92765 -0.365526 0
M  V30 5151 O 513.788 -1.7645 -1.25277 0
M  V30 5152 C 514.383 -2.78548 1.92864 0
M  V30 5153 C 512.942 -3.30574 1.79994 0
M  V30 5154 C 512.089 -2.03538 1.88328 0
M  V30 5155 H 515.04 -0.795692 1.37311 0
M  V30 5156 H 515.061 -3.5155 1.45577 0
M  V30 5157 H 514.573 -2.49782 2.97037 0
M  V30 5158 H 512.674 -3.64211 0.786202 0
M  V30 5159 H 512.787 -4.00065 2.636 0
M  V30 5160 H 511.151 -2.17853 1.31954 0
M  V30 5161 H 511.934 -1.77149 2.94063 0
M  V30 5162 N 514.379 -1.04941 -1.1758 0
M  V30 5163 C 515.625 -0.768896 -1.88307 0
M  V30 5164 C 515.98 0.696361 -1.79356 0
M  V30 5165 O 515.273 1.50245 -1.18899 0
M  V30 5166 C 515.467 -1.18062 -3.37337 0
M  V30 5167 C 515.296 -2.68436 -3.60794 0
M  V30 5168 C 514.066 -3.35709 -3.77661 0
M  V30 5169 C 516.264 -3.66657 -3.60649 0
M  V30 5170 N 514.246 -4.74974 -3.88939 0
M  V30 5171 C 515.617 -4.91638 -3.77747 0
M  V30 5172 C 517.672 -3.60162 -3.43785 0
M  V30 5173 C 516.375 -6.10902 -3.79726 0
M  V30 5174 C 518.401 -4.78863 -3.47051 0
M  V30 5175 C 517.763 -6.02666 -3.64654 0
M  V30 5176 H 513.862 -0.33355 -0.707296 0
M  V30 5177 H 516.446 -1.34085 -1.41171 0
M  V30 5178 H 514.617 -0.636648 -3.83147 0
M  V30 5179 H 516.349 -0.8502 -3.95669 0
M  V30 5180 H 513.104 -2.8611 -3.77409 0
M  V30 5181 H 513.528 -5.47378 -3.98379 0
M  V30 5182 H 518.17 -2.65412 -3.29114 0
M  V30 5183 H 515.888 -7.05998 -3.93182 0
M  V30 5184 H 519.474 -4.75488 -3.35265 0
M  V30 5185 H 518.354 -6.92979 -3.67083 0
M  V30 5186 N 515.857 1.33968 -0.830081 0
M  V30 5187 C 517.103 1.98357 -0.422191 0
M  V30 5188 C 517.436 1.65633 1.01387 0
M  V30 5189 O 516.711 0.931648 1.70735 0
M  V30 5190 C 516.994 3.54492 -0.633043 0
M  V30 5191 C 516.847 3.96934 -2.11574 0
M  V30 5192 C 518.166 4.40039 -0.0735584 0
M  V30 5193 H 515.285 0.720544 -0.154871 0
M  V30 5194 H 517.927 1.58749 -1.04397 0
M  V30 5195 H 516.077 3.88361 -0.103775 0
M  V30 5196 H 517.749 3.73363 -2.7092 0
M  V30 5197 H 515.992 3.46984 -2.60354 0
M  V30 5198 H 516.663 5.05651 -2.21406 0
M  V30 5199 H 519.139 4.12764 -0.52585 0
M  V30 5200 H 518.015 5.48327 -0.250841 0
M  V30 5201 H 518.276 4.30124 1.02202 0
M  V30 5202 N 517.335 0.585699 1.46312 0
M  V30 5203 C 518.565 0.0780166 2.06453 0
M  V30 5204 C 518.973 -1.2336 1.43454 0
M  V30 5205 O 518.316 -1.75734 0.535086 0
M  V30 5206 C 518.378 -0.158951 3.59148 0
M  V30 5207 C 518.042 1.06752 4.44357 0
M  V30 5208 C 519.039 1.98031 4.80708 0
M  V30 5209 C 516.724 1.2902 4.85447 0
M  V30 5210 C 518.718 3.09924 5.5698 0
M  V30 5211 C 516.405 2.41218 5.61478 0
M  V30 5212 C 517.403 3.31499 5.97158 0
M  V30 5213 O 517.091 4.41747 6.71651 0
M  V30 5214 H 516.823 0.0558894 0.673686 0
M  V30 5215 H 519.377 0.806994 1.88883 0
M  V30 5216 H 517.607 -0.942575 3.75037 0
M  V30 5217 H 519.296 -0.615513 4.01206 0
M  V30 5218 H 520.062 1.82043 4.49539 0
M  V30 5219 H 515.941 0.596567 4.57124 0
M  V30 5220 H 519.485 3.80415 5.84748 0
M  V30 5221 H 515.382 2.57167 5.9206 0
M  V30 5222 H 516.15 4.40152 6.90079 0
M  V30 5223 N 518.813 -1.54241 0.323641 0
M  V30 5224 C 520.062 -1.9975 -0.279806 0
M  V30 5225 C 520.375 -1.2156 -1.5324 0
M  V30 5226 O 521.581 -1.57447 -2.21185 0
M  V30 5227 C 520.037 -3.55686 -0.549115 0
M  V30 5228 C 519.645 -4.4271 0.686432 0
M  V30 5229 C 521.389 -4.09663 -1.11251 0
M  V30 5230 C 519.296 -5.90119 0.389022 0
M  V30 5231 H 518.226 -0.746177 -0.10833 0
M  V30 5232 H 520.877 -1.78248 0.435877 0
M  V30 5233 H 519.259 -3.73176 -1.32499 0
M  V30 5234 H 520.433 -4.36996 1.46188 0
M  V30 5235 H 518.748 -3.99623 1.17005 0
M  V30 5236 H 521.345 -5.17386 -1.34965 0
M  V30 5237 H 521.688 -3.61651 -2.06191 0
M  V30 5238 H 522.221 -3.95806 -0.39782 0
M  V30 5239 H 518.96 -6.42326 1.30759 0
M  V30 5240 H 518.48 -5.98785 -0.348722 0
M  V30 5241 H 520.159 -6.47 -0.0011164 0
M  V30 5242 N 520.291 -0.0518155 -1.57515 0
M  V30 5243 C 521.221 0.920283 -2.146 0
M  V30 5244 C 522.202 1.32406 -1.06783 0
M  V30 5245 O 523.387 1.39866 -1.34726 0
M  V30 5246 C 520.517 2.1949 -2.6915 0
M  V30 5247 C 519.471 1.93116 -3.81956 0
M  V30 5248 C 518.797 3.27037 -4.23026 0
M  V30 5249 C 520.097 1.25225 -5.07066 0
M  V30 5250 H 521.791 0.444801 -2.96077 0
M  V30 5251 H 519.337 0.212508 -1.42423 0
M  V30 5252 H 521.29 2.87894 -3.07725 0
M  V30 5253 H 520.014 2.69244 -1.84865 0
M  V30 5254 H 518.673 1.27123 -3.43854 0
M  V30 5255 H 518.321 3.74595 -3.3569 0
M  V30 5256 H 518.021 3.10189 -4.99056 0
M  V30 5257 H 519.545 3.96673 -4.64202 0
M  V30 5258 H 520.959 1.83666 -5.43083 0
M  V30 5259 H 519.356 1.18702 -5.88243 0
M  V30 5260 H 520.426 0.228382 -4.84362 0
M  V30 5261 N 521.769 1.56035 0.221574 0
M  V30 5262 C 522.699 1.95434 1.2778 0
M  V30 5263 C 523.68 0.822564 1.48889 0
M  V30 5264 O 524.865 1.08486 1.61072 0
M  V30 5265 C 521.995 2.27102 2.62759 0
M  V30 5266 C 520.949 3.4277 2.56306 0
M  V30 5267 C 520.275 3.60043 3.95314 0
M  V30 5268 C 521.575 4.77742 2.11093 0
M  V30 5269 H 523.269 2.83912 0.950504 0
M  V30 5270 H 520.815 1.36596 0.455791 0
M  V30 5271 H 522.768 2.53256 3.36807 0
M  V30 5272 H 521.492 1.35478 2.97176 0
M  V30 5273 H 520.151 3.16664 1.84715 0
M  V30 5274 H 519.799 2.65794 4.27039 0
M  V30 5275 H 519.499 4.37841 3.91879 0
M  V30 5276 H 521.023 3.88545 4.71025 0
M  V30 5277 H 522.437 5.03102 2.74885 0
M  V30 5278 H 520.834 5.58823 2.18716 0
M  V30 5279 H 521.904 4.731 1.06321 0
M  V30 5280 N 523.247 -0.488276 1.49845 0
M  V30 5281 C 524.663 -0.820566 1.3689 0
M  V30 5282 C 524.863 -1.97248 0.411752 0
M  V30 5283 O 523.919 -2.52042 -0.151931 0
M  V30 5284 C 525.232 -1.1488 2.77891 0
M  V30 5285 C 526.78 -1.25626 2.86683 0
M  V30 5286 C 527.255 -1.61772 4.28479 0
M  V30 5287 N 528.746 -1.68797 4.31349 0
M  V30 5288 C 529.481 -1.98235 5.38043 0
M  V30 5289 N 528.977 -2.2581 6.54967 0
M  V30 5290 N 530.77 -1.99593 5.2547 0
M  V30 5291 H 522.921 0.271123 2.10662 0
M  V30 5292 H 525.184 0.058735 0.946179 0
M  V30 5293 H 524.89 -0.375614 3.49688 0
M  V30 5294 H 524.764 -2.08919 3.14058 0
M  V30 5295 H 527.151 -2.02014 2.15114 0
M  V30 5296 H 527.232 -0.296072 2.54081 0
M  V30 5297 H 526.876 -0.859295 5.00578 0
M  V30 5298 H 526.806 -2.58912 4.58554 0
M  V30 5299 H 529.297 -1.49595 3.4703 0
M  V30 5300 H 529.61 -2.47497 7.32096 0
M  V30 5301 H 527.955 -2.23239 6.58171 0
M  V30 5302 H 531.146 -1.77535 4.33127 0
M  V30 5303 H 531.319 -2.222 6.08713 0
M  V30 5304 N 524.725 -1.39134 -0.740242 0
M  V30 5305 C 525.657 -1.33332 -1.86428 0
M  V30 5306 C 526.67 -0.243042 -1.60976 0
M  V30 5307 O 527.859 -0.501608 -1.71307 0
M  V30 5308 C 524.959 -1.04626 -3.22346 0
M  V30 5309 C 524.132 -2.24826 -3.75196 0
M  V30 5310 C 523.191 -1.92659 -4.89662 0
M  V30 5311 O 522.217 -2.6529 -5.03597 0
M  V30 5312 N 523.419 -0.889575 -5.73643 0
M  V30 5313 H 526.184 -2.30196 -1.91911 0
M  V30 5314 H 523.745 -1.33168 -0.920756 0
M  V30 5315 H 525.737 -0.811347 -3.96484 0
M  V30 5316 H 524.307 -0.165129 -3.12164 0
M  V30 5317 H 523.527 -2.64301 -2.9247 0
M  V30 5318 H 524.815 -3.05015 -4.07239 0
M  V30 5319 H 524.213 -0.287529 -5.64969 0
M  V30 5320 H 522.77 -0.714557 -6.47871 0
M  V30 5321 N 526.204 0.969867 -1.24223 0
M  V30 5322 C 527.167 2.04564 -1.03373 0
M  V30 5323 C 528.167 1.60798 0.00819206 0
M  V30 5324 O 529.357 1.72641 -0.232567 0
M  V30 5325 C 526.489 3.36163 -0.566343 0
M  V30 5326 H 527.682 2.24494 -1.98853 0
M  V30 5327 H 525.235 1.1448 -1.06415 0
M  V30 5328 H 525.97 3.21925 0.391751 0
M  V30 5329 H 525.755 3.69273 -1.31834 0
M  V30 5330 H 527.245 4.1526 -0.441435 0
M  V30 5331 N 527.682 1.05563 1.17022 0
M  V30 5332 C 528.928 0.769074 1.87652 0
M  V30 5333 C 529.261 -0.702326 1.81055 0
M  V30 5334 O 528.536 -1.5139 1.22112 0
M  V30 5335 C 528.819 1.25492 3.37526 0
M  V30 5336 C 528.672 2.78953 3.52853 0
M  V30 5337 C 529.991 0.856919 4.31677 0
M  V30 5338 H 527.11 0.280854 0.681388 0
M  V30 5339 H 529.752 1.31027 1.37593 0
M  V30 5340 H 527.902 0.794516 3.80289 0
M  V30 5341 H 529.574 3.33146 3.19079 0
M  V30 5342 H 527.817 3.18046 2.95007 0
M  V30 5343 H 528.488 3.08011 4.58076 0
M  V30 5344 H 530.964 1.25334 3.96775 0
M  V30 5345 H 529.84 1.22443 5.35069 0
M  V30 5346 H 530.101 -0.238787 4.41455 0
M  V30 5347 N 529.16 -1.33526 0.837174 0
M  V30 5348 C 530.09 -2.31764 0.284206 0
M  V30 5349 C 531.071 -1.58896 -0.607142 0
M  V30 5350 O 532.256 -1.86798 -0.531047 0
M  V30 5351 C 529.386 -3.43029 -0.542962 0
M  V30 5352 C 528.34 -4.27255 0.252451 0
M  V30 5353 C 527.666 -5.3012 -0.69836 0
M  V30 5354 C 528.966 -5.01229 1.46858 0
M  V30 5355 H 530.66 -2.78262 1.10502 0
M  V30 5356 H 528.206 -1.3378 0.532812 0
M  V30 5357 H 530.159 -4.1078 -0.940096 0
M  V30 5358 H 528.883 -2.95216 -1.39697 0
M  V30 5359 H 527.542 -3.61127 0.631124 0
M  V30 5360 H 527.19 -4.78564 -1.54872 0
M  V30 5361 H 526.89 -5.87353 -0.170274 0
M  V30 5362 H 528.414 -6.00737 -1.09305 0
M  V30 5363 H 529.828 -5.61756 1.14469 0
M  V30 5364 H 528.225 -5.68104 1.93333 0
M  V30 5365 H 529.295 -4.301 2.23924 0
M  V30 5366 N 530.638 -0.59345 -1.46 0
M  V30 5367 C 532.054 -0.255965 -1.57534 0
M  V30 5368 C 532.254 1.24167 -1.58697 0
M  V30 5369 O 531.31 2.02398 -1.50968 0
M  V30 5370 C 532.623 -0.91466 -2.86451 0
M  V30 5371 C 534.171 -0.889253 -3.00102 0
M  V30 5372 C 534.646 -1.52769 -4.3177 0
M  V30 5373 N 536.137 -1.49253 -4.38495 0
M  V30 5374 C 536.872 -1.9558 -5.39014 0
M  V30 5375 N 536.368 -2.49929 -6.46148 0
M  V30 5376 N 538.161 -1.86432 -5.30282 0
M  V30 5377 H 530.312 -1.56604 -1.43489 0
M  V30 5378 H 532.575 -0.655207 -0.685133 0
M  V30 5379 H 532.281 -1.96861 -2.91442 0
M  V30 5380 H 532.155 -0.429356 -3.74748 0
M  V30 5381 H 534.542 0.156111 -2.94687 0
M  V30 5382 H 534.623 -1.41268 -2.13253 0
M  V30 5383 H 534.267 -2.57231 -4.37944 0
M  V30 5384 H 534.197 -0.979398 -5.17412 0
M  V30 5385 H 536.688 -1.09536 -3.61677 0
M  V30 5386 H 537.001 -2.83109 -7.19075 0
M  V30 5387 H 535.346 -2.53961 -6.46938 0
M  V30 5388 H 538.537 -1.43722 -4.4549 0
M  V30 5389 H 538.71 -2.22852 -6.08474 0
M  V30 5390 N 532.116 1.54067 -0.331816 0
M  V30 5391 C 533.048 2.22139 0.564538 0
M  V30 5392 C 534.061 1.22408 1.07332 0
M  V30 5393 O 535.25 1.4883 0.985481 0
M  V30 5394 C 532.35 2.87876 1.78831 0
M  V30 5395 C 531.523 4.13817 1.41682 0
M  V30 5396 C 530.582 4.63072 2.49901 0
M  V30 5397 O 529.608 5.27562 2.13699 0
M  V30 5398 N 530.81 4.38001 3.80967 0
M  V30 5399 H 533.575 2.99694 -0.0183736 0
M  V30 5400 H 531.136 1.61153 -0.155396 0
M  V30 5401 H 533.128 3.17747 2.50637 0
M  V30 5402 H 531.698 2.13977 2.27887 0
M  V30 5403 H 530.918 3.9062 0.530044 0
M  V30 5404 H 532.206 4.95762 1.14443 0
M  V30 5405 H 531.604 3.864 4.13173 0
M  V30 5406 H 530.161 4.72507 4.48977 0
M  V30 5407 N 533.594 0.0601682 1.57485 0
M  V30 5408 C 534.524 -0.90889 2.15085 0
M  V30 5409 C 535.505 -1.31838 1.07484 0
M  V30 5410 O 536.69 -1.3915 1.35466 0
M  V30 5411 C 533.82 -2.18059 2.7031 0
M  V30 5412 C 532.774 -1.91088 3.82974 0
M  V30 5413 C 532.1 -3.24789 4.24754 0
M  V30 5414 C 533.4 -1.22535 5.07723 0
M  V30 5415 H 535.094 -0.429093 2.96309 0
M  V30 5416 H 532.64 -0.204952 1.42534 0
M  V30 5417 H 534.593 -2.86258 3.09248 0
M  V30 5418 H 533.317 -2.6826 1.8629 0
M  V30 5419 H 531.976 -1.25297 3.44523 0
M  V30 5420 H 531.624 -3.72809 3.37672 0
M  V30 5421 H 531.324 -3.07538 5.00694 0
M  V30 5422 H 532.848 -3.94205 4.66299 0
M  V30 5423 H 534.262 -1.80783 5.4405 0
M  V30 5424 H 532.659 -1.1558 5.88864 0
M  V30 5425 H 533.729 -0.202692 4.84476 0
M  V30 5426 N 535.072 -1.5615 -0.213296 0
M  V30 5427 C 536.002 -1.96109 -1.26742 0
M  V30 5428 C 536.983 -0.830448 -1.48451 0
M  V30 5429 O 538.168 -1.09339 -1.60495 0
M  V30 5430 C 535.298 -2.28492 -2.61551 0
M  V30 5431 C 534.252 -3.44124 -2.54485 0
M  V30 5432 C 533.578 -3.62134 -3.93399 0
M  V30 5433 C 534.878 -4.78855 -2.08556 0
M  V30 5434 H 536.572 -2.84412 -0.935434 0
M  V30 5435 H 534.118 -1.36836 -0.44854 0
M  V30 5436 H 536.071 -2.55039 -3.3546 0
M  V30 5437 H 534.795 -1.37052 -2.96453 0
M  V30 5438 H 533.454 -3.17639 -1.83033 0
M  V30 5439 H 533.102 -2.68055 -4.25623 0
M  V30 5440 H 532.802 -4.39913 -3.89551 0
M  V30 5441 H 534.326 -3.91038 -4.68958 0
M  V30 5442 H 535.74 -5.04552 -2.72213 0
M  V30 5443 H 534.137 -5.59975 -2.1575 0
M  V30 5444 H 535.207 -4.73657 -1.03811 0
M  V30 5445 N 536.55 0.480323 -1.50102 0
M  V30 5446 C 537.966 0.813295 -1.37323 0
M  V30 5447 C 538.166 1.97027 -0.422206 0
M  V30 5448 O 537.222 2.5212 0.138563 0
M  V30 5449 C 538.535 1.13404 -2.78496 0
M  V30 5450 C 540.083 1.24104 -2.87345 0
M  V30 5451 C 540.558 1.59497 -4.29331 0
M  V30 5452 N 542.049 1.66507 -4.32238 0
M  V30 5453 C 542.784 1.95378 -5.39087 0
M  V30 5454 N 542.28 2.22333 -6.56155 0
M  V30 5455 N 544.073 1.96803 -5.26522 0
M  V30 5456 H 536.224 -0.282291 -2.10516 0
M  V30 5457 H 538.487 -0.063752 -0.945854 0
M  V30 5458 H 538.193 0.357064 -3.49883 0
M  V30 5459 H 538.067 2.07251 -3.15162 0
M  V30 5460 H 540.454 2.00871 -2.16183 0
M  V30 5461 H 540.535 0.282593 -2.54234 0
M  V30 5462 H 540.179 0.832736 -5.01027 0
M  V30 5463 H 540.109 2.56477 -4.59921 0
M  V30 5464 H 542.6 1.47753 -3.47818 0
M  V30 5465 H 542.913 2.43611 -7.33399 0
M  V30 5466 H 541.258 2.19745 -6.59346 0
M  V30 5467 H 544.449 1.75235 -4.34062 0
M  V30 5468 H 544.622 2.18969 -6.09883 0
M  V30 5469 N 538.028 1.39524 0.732853 0
M  V30 5470 C 538.958 1.41153 1.86005 0
M  V30 5471 C 539.939 0.274614 1.67869 0
M  V30 5472 O 541.124 0.480745 1.88155 0
M  V30 5473 C 538.254 1.25638 3.23778 0
M  V30 5474 C 537.208 2.36752 3.56556 0
M  V30 5475 C 536.534 2.06326 4.93289 0
M  V30 5476 C 537.834 3.79069 3.5931 0
M  V30 5477 H 539.528 2.35484 1.84899 0
M  V30 5478 H 537.074 1.13348 0.888162 0
M  V30 5479 H 539.027 1.25398 4.0231 0
M  V30 5480 H 537.751 0.277772 3.25417 0
M  V30 5481 H 536.41 2.36213 2.80355 0
M  V30 5482 H 536.058 1.06897 4.9151 0
M  V30 5483 H 535.758 2.80757 5.16187 0
M  V30 5484 H 537.282 2.07739 5.74175 0
M  V30 5485 H 538.696 3.81526 4.27914 0
M  V30 5486 H 537.093 4.52878 3.93728 0
M  V30 5487 H 538.163 4.09893 2.59068 0
M  V30 5488 N 539.506 -0.963266 1.24736 0
M  V30 5489 C 540.436 -2.07628 1.06832 0
M  V30 5490 C 541.417 -1.70088 -0.0200566 0
M  V30 5491 O 542.602 -1.93636 0.147854 0
M  V30 5492 C 539.732 -3.40636 0.677069 0
M  V30 5493 C 538.686 -3.9215 1.71471 0
M  V30 5494 C 538.012 -5.21553 1.1784 0
M  V30 5495 C 539.312 -4.19493 3.11164 0
M  V30 5496 H 541.006 -2.22864 1.9993 0
M  V30 5497 H 538.552 -1.07093 0.96266 0
M  V30 5498 H 540.505 -4.17941 0.538792 0
M  V30 5499 H 539.229 -3.25313 -0.289612 0
M  V30 5500 H 537.888 -3.17005 1.84128 0
M  V30 5501 H 537.536 -5.02593 0.202195 0
M  V30 5502 H 537.236 -5.56988 1.87185 0
M  V30 5503 H 538.76 -6.01463 1.05233 0
M  V30 5504 H 540.174 -4.87487 3.01711 0
M  V30 5505 H 538.571 -4.66165 3.77902 0
M  V30 5506 H 539.641 -3.26097 3.58871 0
M  V30 5507 N 540.985 -1.06182 -1.16461 0
M  V30 5508 C 542.396 -0.802426 -1.68576 0
M  V30 5509 C 542.747 0.67412 -1.84255 0
M  V30 5510 O 541.872 1.52303 -1.5373 0
M  V30 5511 C 542.467 -1.45002 -3.06202 0
M  V30 5512 C 541.026 -1.23843 -3.55443 0
M  V30 5513 C 540.173 -1.52724 -2.31454 0
M  V30 5514 H 543.124 -1.22545 -1.00839 0
M  V30 5515 H 543.145 -0.864731 -3.70544 0
M  V30 5516 H 542.657 -2.52466 -2.94759 0
M  V30 5517 H 540.758 -0.183487 -3.72148 0
M  V30 5518 H 540.871 -1.95036 -4.37604 0
M  V30 5519 H 539.235 -0.947726 -2.36411 0
M  V30 5520 H 540.018 -2.61343 -2.22609 0
M  V30 5521 N 542.463 1.3308 -0.844243 0
M  V30 5522 C 543.874 1.7992 -0.498566 0
M  V30 5523 C 544.225 1.69808 0.982834 0
M  V30 5524 O 543.35 1.25051 1.7661 0
M  V30 5525 C 543.945 3.26677 -0.898204 0
M  V30 5526 C 542.504 3.71513 -0.604583 0
M  V30 5527 C 541.651 2.54393 -1.10362 0
M  V30 5528 H 544.602 1.20526 -1.03244 0
M  V30 5529 H 544.623 3.79918 -0.21039 0
M  V30 5530 H 544.135 3.34004 -1.97643 0
M  V30 5531 H 542.236 3.69708 0.46335 0
M  V30 5532 H 542.349 4.64755 -1.16358 0
M  V30 5533 H 540.713 2.49246 -0.524273 0
M  V30 5534 H 541.496 2.6448 -2.18873 0
M  V30 5535 N 543.941 0.601185 1.45683 0
M  V30 5536 C 545.357 0.264315 1.57396 0
M  V30 5537 C 545.557 -1.23324 1.59353 0
M  V30 5538 O 544.613 -2.01594 1.52039 0
M  V30 5539 C 545.926 0.929839 2.85962 0
M  V30 5540 C 547.474 0.905156 2.99626 0
M  V30 5541 C 547.949 1.55057 4.30954 0
M  V30 5542 N 549.44 1.51576 4.37697 0
M  V30 5543 C 550.175 1.98436 5.37969 0
M  V30 5544 N 549.671 2.53352 6.44813 0
M  V30 5545 N 551.464 1.89242 5.29286 0
M  V30 5546 H 543.615 1.57363 1.42656 0
M  V30 5547 H 545.878 0.658831 0.681649 0
M  V30 5548 H 545.584 1.98404 2.90394 0
M  V30 5549 H 545.458 0.449224 3.74515 0
M  V30 5550 H 547.845 -0.14048 2.94765 0
M  V30 5551 H 547.926 1.42397 2.12501 0
M  V30 5552 H 547.57 2.5955 4.36573 0
M  V30 5553 H 547.5 1.00682 5.16886 0
M  V30 5554 H 549.991 1.11452 3.61091 0
M  V30 5555 H 550.304 2.86918 7.17564 0
M  V30 5556 H 548.649 2.57388 6.45582 0
M  V30 5557 H 551.84 1.46083 4.44722 0
M  V30 5558 H 552.013 2.26075 6.07284 0
M  V30 5559 N 545.419 -1.53889 0.339982 0
M  V30 5560 C 546.382 -2.23547 -0.50592 0
M  V30 5561 C 547.382 -1.23445 -1.03044 0
M  V30 5562 O 548.572 -1.47909 -0.920253 0
M  V30 5563 C 545.704 -2.95234 -1.7044 0
M  V30 5564 H 546.897 -2.99722 0.103247 0
M  V30 5565 H 544.45 -1.56033 0.0912804 0
M  V30 5566 H 545.185 -2.23236 -2.35236 0
M  V30 5567 H 544.97 -3.68654 -1.33553 0
M  V30 5568 H 546.46 -3.48258 -2.30447 0
M  V30 5569 N 546.897 -0.0685191 -1.57451 0
M  V30 5570 C 548.145 0.60016 -1.92983 0
M  V30 5571 C 548.466 1.70348 -0.949028 0
M  V30 5572 O 547.736 1.959 0.00335647 0
M  V30 5573 H 546.316 0.224682 -0.712409 0
M  V30 5574 H 548.978 -0.125605 -1.94495 0
M  V30 5575 H 548.074 1.02759 -2.94698 0
M  V30 5576 N 548.375 1.56261 0.205012 0
M  V30 5577 C 549.338 1.92908 1.23771 0
M  V30 5578 C 550.338 0.809208 1.38955 0
M  V30 5579 O 551.528 1.07676 1.36936 0
M  V30 5580 C 548.66 2.19442 2.60879 0
M  V30 5581 H 549.853 2.85287 0.924728 0
M  V30 5582 H 547.406 1.49798 0.446125 0
M  V30 5583 H 548.141 1.29668 2.97248 0
M  V30 5584 H 547.926 3.0104 2.51232 0
M  V30 5585 H 549.416 2.48833 3.35368 0
M  V30 5586 N 549.853 -0.472356 1.50355 0
M  V30 5587 C 550.8 -1.57051 1.69126 0
M  V30 5588 C 551.77 -1.5733 0.532574 0
M  V30 5589 O 552.955 -1.7488 0.762994 0
M  V30 5590 C 550.095 -2.95033 1.79024 0
M  V30 5591 C 549.208 -3.04552 3.06386 0
M  V30 5592 C 548.343 -4.33441 3.07087 0
M  V30 5593 C 547.382 -4.36697 4.28908 0
M  V30 5594 N 546.519 -5.57056 4.27356 0
M  V30 5595 H 551.359 -1.40351 2.62879 0
M  V30 5596 H 548.896 -0.682403 1.30314 0
M  V30 5597 H 550.854 -3.75048 1.82744 0
M  V30 5598 H 549.484 -3.10371 0.887109 0
M  V30 5599 H 548.536 -2.17419 3.12143 0
M  V30 5600 H 549.848 -3.02818 3.96362 0
M  V30 5601 H 549.002 -5.21801 3.09529 0
M  V30 5602 H 547.741 -4.37782 2.14939 0
M  V30 5603 H 546.746 -3.46734 4.2668 0
M  V30 5604 H 547.971 -4.34049 5.22282 0
M  V30 5605 H 545.917 -5.62184 3.3806 0
M  V30 5606 H 545.834 -5.57058 5.111 0
M  V30 5607 H 547.102 -6.47545 4.33942 0
M  V30 5608 N 551.331 -1.39911 -0.725443 0
M  V30 5609 C 552.579 -1.37382 -1.48224 0
M  V30 5610 C 552.9 0.0264107 -1.94982 0
M  V30 5611 O 552.17 0.979408 -1.6966 0
M  V30 5612 H 550.75 -0.505596 -0.549892 0
M  V30 5613 H 553.412 -1.7487 -0.860608 0
M  V30 5614 H 552.508 -2.04254 -2.3598 0
M  V30 5615 N 552.809 0.956637 -1.25245 0
M  V30 5616 C 554.057 1.69764 -1.09657 0
M  V30 5617 C 554.378 1.91583 0.363464 0
M  V30 5618 O 553.648 1.50149 1.25825 0
M  V30 5619 H 552.228 0.629097 -0.402798 0
M  V30 5620 H 554.89 1.15026 -1.57337 0
M  V30 5621 H 553.986 2.67769 -1.60331 0
M  V30 5622 N 554.287 1.06798 1.15896 0
M  V30 5623 C 555.698 0.811355 1.68149 0
M  V30 5624 C 556.049 -0.664339 1.8461 0
M  V30 5625 O 555.174 -1.51485 1.54535 0
M  V30 5626 C 555.769 1.46624 3.05429 0
M  V30 5627 C 554.328 1.25726 3.54781 0
M  V30 5628 C 553.475 1.53949 2.3064 0
M  V30 5629 H 556.426 1.23078 1.00187 0
M  V30 5630 H 556.447 0.88437 3.7008 0
M  V30 5631 H 555.959 2.54025 2.93416 0
M  V30 5632 H 554.06 0.20322 3.72045 0
M  V30 5633 H 554.173 1.97354 4.36564 0
M  V30 5634 H 552.537 0.96025 2.35905 0
M  V30 5635 H 553.32 2.6252 2.2122 0
M  V30 5636 N 555.766 -1.3263 0.851289 0
M  V30 5637 C 556.729 -2.27247 0.298541 0
M  V30 5638 C 557.729 -1.51467 -0.539847 0
M  V30 5639 O 558.919 -1.7061 -0.351843 0
M  V30 5640 C 556.051 -3.35964 -0.578004 0
M  V30 5641 H 557.244 -2.7765 1.13359 0
M  V30 5642 H 554.797 -1.43245 0.625354 0
M  V30 5643 H 555.532 -2.90823 -1.435 0
M  V30 5644 H 555.317 -3.92094 0.0220539 0
M  V30 5645 H 556.807 -4.06472 -0.957626 0
M  V30 5646 N 557.244 -0.608902 -1.45362 0
M  V30 5647 C 558.492 -0.104401 -2.0183 0
M  V30 5648 C 558.813 1.27007 -1.47967 0
M  V30 5649 O 558.083 1.83924 -0.674455 0
M  V30 5650 H 556.663 -0.0356042 -0.746151 0
M  V30 5651 H 559.325 -0.790596 -1.78145 0
M  V30 5652 H 558.421 -0.0551793 -3.12051 0
M  V30 5653 N 558.722 1.53707 -0.348139 0
M  V30 5654 C 559.652 2.28111 0.498766 0
M  V30 5655 C 560.633 1.29851 1.09876 0
M  V30 5656 O 561.818 1.587 1.11928 0
M  V30 5657 C 558.948 3.05735 1.64753 0
M  V30 5658 C 557.902 4.11537 1.17565 0
M  V30 5659 C 557.228 4.77142 2.4133 0
M  V30 5660 C 558.528 5.21587 0.272844 0
M  V30 5661 H 560.222 2.99152 -0.121934 0
M  V30 5662 H 557.768 1.43875 -0.0600842 0
M  V30 5663 H 559.721 3.56526 2.24649 0
M  V30 5664 H 558.445 2.32354 2.2952 0
M  V30 5665 H 557.104 3.61665 0.599483 0
M  V30 5666 H 556.752 4.0035 3.04514 0
M  V30 5667 H 556.452 5.48626 2.10436 0
M  V30 5668 H 557.976 5.30719 3.01943 0
M  V30 5669 H 559.39 5.67986 0.778779 0
M  V30 5670 H 557.787 6.00074 0.0555849 0
M  V30 5671 H 558.857 4.79969 -0.689785 0
M  V30 5672 N 560.2 0.0768682 1.57412 0
M  V30 5673 C 561.448 -0.589918 1.93299 0
M  V30 5674 C 561.769 -1.69842 0.958049 0
M  V30 5675 O 561.039 -1.95899 0.00703261 0
M  V30 5676 H 559.619 -0.220901 0.713591 0
M  V30 5677 H 562.281 0.135917 1.94425 0
M  V30 5678 H 561.377 -1.01195 2.95239 0
M  V30 5679 N 561.678 -1.56367 -0.196722 0
M  V30 5680 C 562.608 -1.97442 -1.24655 0
M  V30 5681 C 563.589 -0.846147 -1.47561 0
M  V30 5682 O 564.774 -1.11035 -1.59326 0
M  V30 5683 C 561.904 -2.31253 -2.59112 0
M  V30 5684 C 560.858 -3.46804 -2.50821 0
M  V30 5685 C 560.184 -3.66286 -3.89536 0
M  V30 5686 C 561.484 -4.8104 -2.03465 0
M  V30 5687 H 563.178 -2.85388 -0.905216 0
M  V30 5688 H 560.724 -1.37304 -0.434002 0
M  V30 5689 H 562.677 -2.58583 -3.32736 0
M  V30 5690 H 561.401 -1.40188 -2.94983 0
M  V30 5691 H 560.06 -3.19563 -1.79653 0
M  V30 5692 H 559.708 -2.72555 -4.22756 0
M  V30 5693 H 559.408 -4.4402 -3.84864 0
M  V30 5694 H 560.932 -3.9599 -4.64784 0
M  V30 5695 H 562.346 -5.07411 -2.66846 0
M  V30 5696 H 560.743 -5.62232 -2.09798 0
M  V30 5697 H 561.813 -4.74732 -0.98781 0
M  V30 5698 N 563.156 0.464375 -1.50603 0
M  V30 5699 C 564.384 1.23907 -1.65695 0
M  V30 5700 C 564.799 1.85658 -0.343027 0
M  V30 5701 O 564.156 1.69529 0.675739 0
M  V30 5702 C 564.207 2.3429 -2.75301 0
M  V30 5703 O 563.928 1.7507 -4.01599 0
M  V30 5704 C 565.429 3.25051 -3.01424 0
M  V30 5705 H 562.649 0.374485 -0.556778 0
M  V30 5706 H 565.193 0.55353 -1.96866 0
M  V30 5707 H 563.348 2.98607 -2.46804 0
M  V30 5708 H 563.762 2.47812 -4.62266 0
M  V30 5709 H 565.236 3.98699 -3.81763 0
M  V30 5710 H 565.713 3.84227 -2.12758 0
M  V30 5711 H 566.319 2.66463 -3.31477 0
M  V30 5712 N 564.634 1.40294 0.718013 0
M  V30 5713 C 566.045 1.34289 1.29705 0
M  V30 5714 C 566.396 0.0152228 1.96194 0
M  V30 5715 O 565.521 -0.88682 1.97394 0
M  V30 5716 C 566.116 2.43219 2.3586 0
M  V30 5717 C 564.675 2.40682 2.89394 0
M  V30 5718 C 563.822 2.24223 1.63154 0
M  V30 5719 H 566.773 1.50135 0.514312 0
M  V30 5720 H 566.794 2.10986 3.16647 0
M  V30 5721 H 566.306 3.39836 1.87439 0
M  V30 5722 H 564.407 1.47756 3.42051 0
M  V30 5723 H 564.52 3.36177 3.41353 0
M  V30 5724 H 562.884 1.71696 1.88129 0
M  V30 5725 H 563.667 3.22834 1.16761 0
M  V30 5726 N 566.112 -0.949982 1.2575 0
M  V30 5727 C 567.337 -1.73503 1.13628 0
M  V30 5728 C 567.762 -1.85601 -0.30559 0
M  V30 5729 O 567.12 -1.33984 -1.22139 0
M  V30 5730 C 567.168 -3.1243 1.80055 0
M  V30 5731 O 566.272 -3.97916 1.08336 0
M  V30 5732 H 565.613 -0.532665 0.396439 0
M  V30 5733 H 568.143 -1.19043 1.66403 0
M  V30 5734 H 568.153 -3.62866 1.86527 0
M  V30 5735 H 566.828 -3.02941 2.84956 0
M  V30 5736 H 565.405 -3.56375 1.09777 0
M  V30 5737 N 567.59 -1.07411 -1.15328 0
M  V30 5738 C 568.553 -0.698914 -2.18284 0
M  V30 5739 C 569.553 0.261149 -1.58665 0
M  V30 5740 O 570.743 0.0420277 -1.74149 0
M  V30 5741 C 567.875 -0.0302427 -3.40887 0
M  V30 5742 H 569.068 -1.61045 -2.52991 0
M  V30 5743 H 566.621 -0.870724 -1.298 0
M  V30 5744 H 567.356 0.893505 -3.11748 0
M  V30 5745 H 567.141 -0.720759 -3.85419 0
M  V30 5746 H 568.631 0.21759 -4.17033 0
M  V30 5747 N 569.068 1.32177 -0.85831 0
M  V30 5748 C 570.314 1.97813 -0.47346 0
M  V30 5749 C 570.669 1.66674 0.961122 0
M  V30 5750 O 569.962 0.94657 1.66585 0
M  V30 5751 C 570.156 3.51372 -0.653658 0
M  V30 5752 C 569.985 3.97433 -2.1042 0
M  V30 5753 C 568.755 4.24338 -2.74345 0
M  V30 5754 C 570.953 4.12233 -3.0752 0
M  V30 5755 N 568.935 4.56672 -4.10272 0
M  V30 5756 C 570.306 4.48146 -4.28445 0
M  V30 5757 C 572.361 3.94577 -3.03667 0
M  V30 5758 C 571.064 4.68246 -5.4602 0
M  V30 5759 C 573.09 4.15864 -4.20489 0
M  V30 5760 C 572.452 4.52098 -5.40173 0
M  V30 5761 H 568.551 0.749808 -0.222061 0
M  V30 5762 H 571.135 1.59927 -1.11047 0
M  V30 5763 H 569.306 3.88372 -0.0463267 0
M  V30 5764 H 571.038 4.03998 -0.238343 0
M  V30 5765 H 567.793 4.16544 -2.25362 0
M  V30 5766 H 568.217 4.77019 -4.80398 0
M  V30 5767 H 572.859 3.65662 -2.12252 0
M  V30 5768 H 570.577 4.96014 -6.37962 0
M  V30 5769 H 574.163 4.03702 -4.18947 0
M  V30 5770 H 573.043 4.68238 -6.29065 0
M  V30 5771 N 570.547 0.616602 1.45037 0
M  V30 5772 C 571.457 -0.0985401 2.34393 0
M  V30 5773 C 572.473 -0.850971 1.51771 0
M  V30 5774 O 573.649 -0.806521 1.84546 0
M  V30 5775 C 570.714 -1.07748 3.29532 0
M  V30 5776 C 569.775 -0.326022 4.2806 0
M  V30 5777 C 569.008 -1.25833 5.18654 0
M  V30 5778 O 569.231 -2.49652 5.12864 0
M  V30 5779 O 568.165 -0.750512 5.97203 0
M  V30 5780 H 571.991 0.636016 2.96966 0
M  V30 5781 H 569.576 0.376832 1.44569 0
M  V30 5782 H 571.458 -1.64107 3.88133 0
M  V30 5783 H 570.133 -1.79291 2.69512 0
M  V30 5784 H 569.04 0.280253 3.73049 0
M  V30 5785 H 570.373 0.349091 4.9096 0
M  V30 5786 N 572.025 -1.5352 0.356285 0
M  V30 5787 C 572.988 -2.24071 -0.482182 0
M  V30 5788 C 573.988 -1.24531 -1.01729 0
M  V30 5789 O 575.178 -1.48876 -0.904513 0
M  V30 5790 C 572.31 -2.97025 -1.67299 0
M  V30 5791 H 573.503 -2.99596 0.135031 0
M  V30 5792 H 571.056 -1.55928 0.107825 0
M  V30 5793 H 571.791 -2.25719 -2.32855 0
M  V30 5794 H 571.576 -3.7005 -1.29636 0
M  V30 5795 H 573.066 -3.50683 -2.26741 0
M  V30 5796 N 573.503 -0.0852151 -1.57369 0
M  V30 5797 C 574.728 0.592872 -1.98746 0
M  V30 5798 C 575.153 1.61538 -0.963689 0
M  V30 5799 O 574.511 1.81168 0.069071 0
M  V30 5800 C 574.559 1.22599 -3.39119 0
M  V30 5801 O 573.663 2.34185 -3.39457 0
M  V30 5802 H 573.004 0.151314 -0.646529 0
M  V30 5803 H 575.534 -0.163703 -2.03944 0
M  V30 5804 H 575.544 1.56965 -3.76598 0
M  V30 5805 H 574.219 0.476831 -4.13158 0
M  V30 5806 H 572.796 2.01512 -3.13763 0
M  V30 5807 N 574.981 1.5647 0.188427 0
M  V30 5808 C 576.206 1.85486 0.927891 0
M  V30 5809 C 576.631 0.669575 1.75779 0
M  V30 5810 O 575.989 -0.381573 1.77239 0
M  V30 5811 C 576.037 3.12784 1.7944 0
M  V30 5812 O 575.141 2.93805 2.894 0
M  V30 5813 H 574.482 0.610585 0.260925 0
M  V30 5814 H 577.012 2.037 0.191729 0
M  V30 5815 H 577.022 3.43749 2.19774 0
M  V30 5816 H 575.697 3.98671 1.18468 0
M  V30 5817 H 574.274 2.74153 2.52774 0
M  V30 5818 N 576.459 -0.456382 1.50847 0
M  V30 5819 C 577.389 -1.56025 1.73719 0
M  V30 5820 C 578.37 -1.5967 0.586473 0
M  V30 5821 O 579.555 -1.75702 0.827185 0
M  V30 5822 C 576.685 -2.94251 1.84483 0
M  V30 5823 C 575.639 -3.05471 2.99786 0
M  V30 5824 C 574.965 -4.45489 2.95709 0
M  V30 5825 C 576.265 -2.81318 4.40065 0
M  V30 5826 H 577.959 -1.37138 2.66146 0
M  V30 5827 H 575.505 -0.658299 1.28072 0
M  V30 5828 H 577.458 -3.71417 1.99067 0
M  V30 5829 H 576.182 -3.14328 0.886891 0
M  V30 5830 H 574.841 -2.30741 2.84876 0
M  V30 5831 H 574.489 -4.62505 1.97732 0
M  V30 5832 H 574.189 -4.53929 3.73125 0
M  V30 5833 H 575.713 -5.24655 3.12362 0
M  V30 5834 H 577.127 -3.48226 4.55425 0
M  V30 5835 H 575.524 -3.01188 5.19043 0
M  V30 5836 H 576.594 -1.7706 4.51418 0
M  V30 5837 N 577.937 -1.40673 -0.710563 0
M  V30 5838 C 579.353 -1.22813 -1.01928 0
M  V30 5839 C 579.553 -0.10687 -2.01216 0
M  V30 5840 O 578.609 0.533614 -2.46797 0
M  V30 5841 C 579.922 -2.57178 -1.5582 0
M  V30 5842 C 581.47 -2.64233 -1.67779 0
M  V30 5843 C 581.945 -3.98879 -2.25076 0
M  V30 5844 N 583.436 -4.00647 -2.32456 0
M  V30 5845 C 584.171 -5.01621 -2.77784 0
M  V30 5846 N 583.667 -6.12989 -3.22826 0
M  V30 5847 N 585.46 -4.88988 -2.77213 0
M  V30 5848 H 577.611 -2.12335 -0.05253 0
M  V30 5849 H 579.874 -0.9441 -0.085898 0
M  V30 5850 H 579.58 -3.39903 -0.903249 0
M  V30 5851 H 579.454 -2.78618 -2.54267 0
M  V30 5852 H 581.841 -1.81876 -2.3239 0
M  V30 5853 H 581.922 -2.46619 -0.679178 0
M  V30 5854 H 581.566 -4.81678 -1.61086 0
M  V30 5855 H 581.496 -4.13826 -3.25661 0
M  V30 5856 H 583.987 -3.20231 -2.0065 0
M  V30 5857 H 584.3 -6.85921 -3.55995 0
M  V30 5858 H 582.645 -6.16547 -3.20773 0
M  V30 5859 H 585.836 -4.01075 -2.41363 0
M  V30 5860 H 586.009 -5.67822 -3.12221 0
M  V30 5861 N 579.415 0.9433 -1.26252 0
M  V30 5862 C 580.64 1.72898 -1.14547 0
M  V30 5863 C 581.065 1.85761 0.295743 0
M  V30 5864 O 580.423 1.3463 1.21427 0
M  V30 5865 C 580.471 3.11471 -1.8171 0
M  V30 5866 O 579.575 3.97336 -1.10445 0
M  V30 5867 H 578.916 0.530555 -0.399259 0
M  V30 5868 H 581.446 1.18159 -1.67032 0
M  V30 5869 H 581.456 3.61872 -1.88449 0
M  V30 5870 H 580.131 3.01425 -2.86558 0
M  V30 5871 H 578.708 3.55788 -1.11666 0
M  V30 5872 N 580.893 1.08022 1.14757 0
M  V30 5873 C 582.118 0.82895 1.90114 0
M  V30 5874 C 582.543 -0.612772 1.77839 0
M  V30 5875 O 581.901 -1.42895 1.11583 0
M  V30 5876 C 581.949 1.25062 3.38219 0
M  V30 5877 O 581.053 0.400119 4.10454 0
M  V30 5878 H 580.394 0.301412 0.591648 0
M  V30 5879 H 582.924 1.44062 1.45284 0
M  V30 5880 H 582.934 1.22977 3.89025 0
M  V30 5881 H 581.609 2.30067 3.46471 0
M  V30 5882 H 580.186 0.484052 3.69745 0
M  V30 5883 N 582.371 -1.3172 0.865308 0
M  V30 5884 C 583.787 -1.4958 0.556596 0
M  V30 5885 C 583.987 -1.79763 -0.910353 0
M  V30 5886 O 583.043 -1.87351 -1.6928 0
M  V30 5887 C 584.356 -2.63277 1.45279 0
M  V30 5888 C 585.904 -2.77161 1.45433 0
M  V30 5889 C 586.379 -3.93949 2.33598 0
M  V30 5890 N 587.87 -4.01228 2.31453 0
M  V30 5891 C 588.605 -4.90855 2.96393 0
M  V30 5892 N 588.101 -5.85416 3.70486 0
M  V30 5893 N 589.894 -4.84063 2.85726 0
M  V30 5894 H 582.045 -1.10396 1.81456 0
M  V30 5895 H 584.308 -0.54507 0.775631 0
M  V30 5896 H 584.014 -2.47734 2.49641 0
M  V30 5897 H 583.888 -3.59309 1.14792 0
M  V30 5898 H 586.275 -2.9212 0.41831 0
M  V30 5899 H 586.356 -1.8181 1.79941 0
M  V30 5900 H 586 -3.79748 3.37274 0
M  V30 5901 H 585.93 -4.88598 1.96417 0
M  V30 5902 H 588.421 -3.3357 1.77593 0
M  V30 5903 H 588.734 -6.50525 4.17178 0
M  V30 5904 H 587.079 -5.85409 3.74594 0
M  V30 5905 H 590.27 -4.09163 2.27384 0
M  V30 5906 H 590.443 -5.53708 3.36617 0
M  V30 5907 N 583.85 -0.624285 -1.44708 0
M  V30 5908 C 584.8 0.106466 -2.27751 0
M  V30 5909 C 585.784 0.822703 -1.38277 0
M  V30 5910 O 586.976 0.709939 -1.62138 0
M  V30 5911 C 584.105 1.092 -3.25469 0
M  V30 5912 C 583.191 0.375737 -4.22432 0
M  V30 5913 N 583.582 -0.591881 -5.02325 0
M  V30 5914 C 581.88 0.621093 -4.41654 0
M  V30 5915 C 582.581 -1.01443 -5.72786 0
M  V30 5916 N 581.557 -0.354651 -5.42442 0
M  V30 5917 H 585.359 -0.636464 -2.86926 0
M  V30 5918 H 582.873 -0.44925 -1.56062 0
M  V30 5919 H 584.87 1.63006 -3.83712 0
M  V30 5920 H 583.529 1.8353 -2.67856 0
M  V30 5921 H 584.541 -0.969389 -5.08747 0
M  V30 5922 H 581.218 1.34779 -3.95147 0
M  V30 5923 H 582.608 -1.81345 -6.46965 0
M  V30 5924 N 585.328 1.53329 -0.364422 0
M  V30 5925 C 586.553 2.06132 0.229033 0
M  V30 5926 C 586.978 1.23625 1.41769 0
M  V30 5927 O 586.336 0.255038 1.79497 0
M  V30 5928 C 586.384 3.55544 0.60174 0
M  V30 5929 O 585.488 3.75771 1.69912 0
M  V30 5930 H 584.829 0.663148 0.0336213 0
M  V30 5931 H 587.359 1.97758 -0.524689 0
M  V30 5932 H 587.369 3.98549 0.873073 0
M  V30 5933 H 586.044 4.15039 -0.267421 0
M  V30 5934 H 584.621 3.44663 1.42343 0
M  V30 5935 N 586.806 0.0935595 1.57322 0
M  V30 5936 C 588.054 -0.569383 1.93913 0
M  V30 5937 C 588.375 -1.68817 0.976009 0
M  V30 5938 O 587.645 -1.9588 0.0278099 0
M  V30 5939 H 586.225 -0.21332 0.715894 0
M  V30 5940 H 588.887 0.156531 1.9427 0
M  V30 5941 H 587.983 -0.980577 2.96296 0
M  V30 5942 N 588.284 -1.56567 -0.180126 0
M  V30 5943 C 589.214 -1.98753 -1.22553 0
M  V30 5944 C 590.195 -0.86175 -1.46656 0
M  V30 5945 O 591.38 -1.12719 -1.58139 0
M  V30 5946 C 588.51 -2.33988 -2.56645 0
M  V30 5947 C 587.464 -3.49445 -2.47128 0
M  V30 5948 C 586.79 -3.70397 -3.8563 0
M  V30 5949 C 588.09 -4.83171 -1.98352 0
M  V30 5950 H 589.784 -2.86332 -0.874896 0
M  V30 5951 H 587.33 -1.37757 -0.419414 0
M  V30 5952 H 589.283 -2.62097 -3.29974 0
M  V30 5953 H 588.007 -1.43309 -2.93479 0
M  V30 5954 H 586.666 -3.2145 -1.76254 0
M  V30 5955 H 586.314 -2.77023 -4.19842 0
M  V30 5956 H 586.014 -4.48077 -3.80132 0
M  V30 5957 H 587.538 -4.00897 -4.60558 0
M  V30 5958 H 588.952 -5.10213 -2.61449 0
M  V30 5959 H 587.349 -5.64425 -2.03823 0
M  V30 5960 H 588.419 -4.75753 -0.937402 0
M  V30 5961 N 589.762 0.448376 -1.51087 0
M  V30 5962 C 590.987 1.22605 -1.6728 0
M  V30 5963 C 591.412 1.84524 -0.365045 0
M  V30 5964 O 590.77 1.6832 0.673642 0
M  V30 5965 C 590.818 2.29393 -2.78229 0
M  V30 5966 O 589.922 3.34608 -2.41063 0
M  V30 5967 H 589.263 0.359705 -0.558129 0
M  V30 5968 H 591.793 0.530903 -1.97592 0
M  V30 5969 H 591.803 2.74352 -3.01986 0
M  V30 5970 H 590.478 1.83701 -3.73131 0
M  V30 5971 H 589.055 2.95202 -2.27838 0
M  V30 5972 N 591.24 1.41047 0.703093 0
M  V30 5973 C 592.19 1.38774 1.80903 0
M  V30 5974 C 593.174 0.263275 1.58731 0
M  V30 5975 O 594.366 0.503362 1.69692 0
M  V30 5976 C 591.495 1.26497 3.19145 0
M  V30 5977 C 590.581 2.43775 3.47037 0
M  V30 5978 N 590.972 3.69249 3.45672 0
M  V30 5979 C 589.27 2.37425 3.77552 0
M  V30 5980 C 589.971 4.46989 3.72258 0
M  V30 5981 N 588.947 3.76998 3.91629 0
M  V30 5982 H 592.749 2.33714 1.78199 0
M  V30 5983 H 590.263 1.34996 0.902762 0
M  V30 5984 H 592.26 1.2295 3.98358 0
M  V30 5985 H 590.92 0.32534 3.23066 0
M  V30 5986 H 591.931 4.02239 3.26228 0
M  V30 5987 H 588.608 1.51895 3.88888 0
M  V30 5988 H 589.998 5.55894 3.77402 0
M  V30 5989 N 592.718 -0.936591 1.26751 0
M  V30 5990 C 593.965 -1.68331 1.12566 0
M  V30 5991 C 594.293 -1.91677 -0.330168 0
M  V30 5992 O 593.548 -1.49859 -1.2586 0
M  V30 5993 C 593.847 -3.06099 1.84494 0
M  V30 5994 C 593.513 -3.02493 3.34378 0
M  V30 5995 C 592.175 -3.01217 3.75262 0
M  V30 5996 C 594.527 -2.94453 4.30055 0
M  V30 5997 C 591.855 -2.89672 5.10203 0
M  V30 5998 C 594.207 -2.84449 5.65041 0
M  V30 5999 C 592.871 -2.81518 6.0523 0
M  V30 6000 H 592.141 -0.615965 0.411907 0
M  V30 6001 H 594.788 -1.09292 1.5725 0
M  V30 6002 H 593.093 -3.6879 1.32292 0
M  V30 6003 H 594.79 -3.62733 1.70955 0
M  V30 6004 H 591.38 -3.04269 3.01858 0
M  V30 6005 H 595.564 -2.94544 3.99447 0
M  V30 6006 H 590.82 -2.85783 5.40498 0
M  V30 6007 H 594.994 -2.77192 6.38856 0
M  V30 6008 H 592.621 -2.72329 7.09747 0
M  V30 6009 O 594.235 -1.20928 -1.07045 0
M  V30 6010 H 594.926 -0.966183 -1.67883 0
M  V30 END ATOM
M  V30 BEGIN BOND
M  V30 END BOND
M  V30 END CTAB
M  END
$$$$
