drugbank_target|O75976 Carboxypeptidase D (DB04489)
 OpenBabel12092120553D

  0  0  0     0  0            999 V3000
M  V30 BEGIN CTAB
M  V30 COUNTS 21252 21505 0 0 0
M  V30 BEGIN ATOM
M  V30 1 H -0.908 1.98254 -0.117106 0
M  V30 2 N 0 1.576 0 0
M  V30 3 C 0.933 2.03868 1.02534 0
M  V30 4 C 1.911 0.928543 1.3348 0
M  V30 5 O 3.095 1.19667 1.45644 0
M  V30 6 C 0.222 2.43627 2.35294 0
M  V30 7 C -0.732 3.65373 2.2001 0
M  V30 8 S 0.101 5.13292 1.52614 0
M  V30 9 C 1.257 5.56322 2.86805 0
M  V30 10 H 1.49 2.90518 0.631377 0
M  V30 11 H -0.977 1.52953 0.210867 0
M  V30 12 H 0.981 2.67203 3.11629 0
M  V30 13 H -0.358 1.57376 2.7183 0
M  V30 14 H -1.165 3.90944 3.18086 0
M  V30 15 H -1.563 3.418 1.51819 0
M  V30 16 H 0.729 5.58782 3.83104 0
M  V30 17 H 1.672 6.56266 2.65933 0
M  V30 18 H 2.08 4.83886 2.90714 0
M  V30 19 N 1.4781 -0.272755 1.55222 0
M  V30 20 C 2.4411 -1.32041 1.87344 0
M  V30 21 C 3.4411 -1.42342 0.74803 0
M  V30 22 O 4.6311 -1.41488 1.0162 0
M  V30 23 C 1.7631 -2.70173 2.07893 0
M  V30 24 H 2.9561 -1.04789 2.80997 0
M  V30 25 H 0.5091 -0.51083 1.47717 0
M  V30 26 H 1.2441 -3.02605 1.16622 0
M  V30 27 H 1.0291 -2.64082 2.89833 0
M  V30 28 H 2.5191 -3.45869 2.34017 0
M  V30 29 N 2.9562 -1.48159 -0.537278 0
M  V30 30 C 4.1812 -1.59707 -1.32319 0
M  V30 31 C 4.6062 -0.254859 -1.86365 0
M  V30 32 O 3.9642 0.772378 -1.64024 0
M  V30 33 C 4.0122 -2.6412 -2.45505 0
M  V30 34 O 3.1162 -2.20774 -3.48328 0
M  V30 35 H 2.4572 -0.535791 -0.392204 0
M  V30 36 H 4.9872 -1.94092 -0.647268 0
M  V30 37 H 4.9972 -2.85166 -2.91795 0
M  V30 38 H 3.6722 -3.61567 -2.05528 0
M  V30 39 H 2.2492 -2.09911 -3.08207 0
M  V30 40 N 4.4343 0.785586 -1.36625 0
M  V30 41 C 5.6823 1.54057 -1.30808 0
M  V30 42 C 6.0033 1.94683 0.111157 0
M  V30 43 O 5.2733 1.65241 1.05224 0
M  V30 44 H 3.8533 0.571354 -0.481211 0
M  V30 45 H 6.5153 0.935821 -1.70963 0
M  V30 46 H 5.6113 2.44637 -1.93801 0
M  V30 47 N 5.9124 1.20967 1.01018 0
M  V30 48 C 7.3284 0.965905 1.27053 0
M  V30 49 C 7.5284 -0.350785 1.98423 0
M  V30 50 O 6.5844 -1.07773 2.28344 0
M  V30 51 C 7.8974 2.15294 2.09926 0
M  V30 52 C 9.4454 2.19463 2.23171 0
M  V30 53 C 9.9204 3.3767 3.09424 0
M  V30 54 N 11.4114 3.37724 3.17012 0
M  V30 55 C 12.1464 4.25837 3.83993 0
M  V30 56 N 11.6424 5.24138 4.53047 0
M  V30 57 N 13.4354 4.1366 3.80581 0
M  V30 58 H 5.5864 2.0565 0.531194 0
M  V30 59 H 7.8494 0.90024 0.297106 0
M  V30 60 H 7.5554 3.10684 1.64828 0
M  V30 61 H 7.4294 2.13923 3.10672 0
M  V30 62 H 9.8164 1.24632 2.6749 0
M  V30 63 H 9.8974 2.2488 1.21912 0
M  V30 64 H 9.5414 4.32791 2.65808 0
M  V30 65 H 9.4714 3.29491 4.10784 0
M  V30 66 H 11.9624 2.6658 2.6785 0
M  V30 67 H 12.2754 5.87684 5.01844 0
M  V30 68 H 10.6204 5.28068 4.5185 0
M  V30 69 H 13.8114 3.36127 3.25785 0
M  V30 70 H 13.9844 4.82538 4.32505 0
M  V30 71 N 7.3905 -1.2043 1.01659 0
M  V30 72 C 8.6675 -1.8548 0.621004 0
M  V30 73 C 9.0475 -1.9091 -0.900919 0
M  V30 74 O 8.3955 -1.41694 -1.79263 0
M  V30 75 C 8.6055 -3.25119 1.2688 0
M  V30 76 C 9.9535 -4.01403 1.38423 0
M  V30 77 O 10.9775 -3.34473 1.22501 0
M  V30 78 O 9.8365 -5.21265 1.64151 0
M  V30 79 H 6.9305 -0.798761 0.214266 0
M  V30 80 H 9.4765 -1.28019 1.11396 0
M  V30 81 H 8.2485 -3.15932 2.30873 0
M  V30 82 H 7.8715 -3.90212 0.762917 0
M  V30 83 N 8.8686 -0.792821 -1.36206 0
M  V30 84 C 9.7786 -0.194808 -2.3379 0
M  V30 85 C 10.7946 0.654869 -1.61206 0
M  V30 86 O 11.9706 0.569856 -1.9317 0
M  V30 87 C 9.0356 0.657721 -3.40404 0
M  V30 88 C 8.0966 -0.210849 -4.28782 0
M  V30 89 C 7.3296 0.601086 -5.30304 0
M  V30 90 O 7.5526 1.83682 -5.40016 0
M  V30 91 O 6.4866 -0.000808277 -6.019 0
M  V30 92 H 10.3126 -1.00172 -2.86704 0
M  V30 93 H 7.8976 -0.554341 -1.38735 0
M  V30 94 H 9.7796 1.14375 -4.05581 0
M  V30 95 H 8.4546 1.44247 -2.89784 0
M  V30 96 H 7.3616 -0.743714 -3.66633 0
M  V30 97 H 8.6946 -0.959195 -4.82763 0
M  V30 98 N 10.3467 1.47872 -0.545128 0
M  V30 99 C 11.7627 1.5829 -0.204032 0
M  V30 100 C 11.9627 1.54529 1.29317 0
M  V30 101 O 11.0187 1.44232 2.07252 0
M  V30 102 C 12.3317 2.89304 -0.819987 0
M  V30 103 C 13.8797 3.02864 -0.790105 0
M  V30 104 C 14.3547 4.3656 -1.38491 0
M  V30 105 N 15.8457 4.43165 -1.34755 0
M  V30 106 C 16.5807 5.45153 -1.77753 0
M  V30 107 N 16.0767 6.54016 -2.2855 0
M  V30 108 N 17.8697 5.36125 -1.68897 0
M  V30 109 H 10.0207 1.4856 -1.51802 0
M  V30 110 H 12.2837 0.706305 -0.632327 0
M  V30 111 H 11.9897 2.97757 -1.87173 0
M  V30 112 H 11.8637 3.75957 -0.305915 0
M  V30 113 H 14.2507 2.94014 0.252913 0
M  V30 114 H 14.3317 2.17782 -1.34181 0
M  V30 115 H 13.9757 4.46164 -2.42693 0
M  V30 116 H 13.9057 5.20353 -0.808754 0
M  V30 117 H 16.3967 3.65083 -0.975855 0
M  V30 118 H 16.7097 7.27994 -2.59314 0
M  V30 119 H 15.0547 6.54938 -2.32553 0
M  V30 120 H 18.2457 4.49975 -1.28998 0
M  V30 121 H 18.4187 6.15472 -2.02726 0
M  V30 122 N 11.8248 0.280983 1.55075 0
M  V30 123 C 13.2358 -0.215629 1.85451 0
M  V30 124 C 13.5868 -1.54991 1.203 0
M  V30 125 O 12.7118 -2.10699 0.493435 0
M  V30 126 C 13.3068 -0.398026 3.36454 0
M  V30 127 C 11.8658 -0.838866 3.66933 0
M  V30 128 C 11.0128 0.064458 2.77225 0
M  V30 129 H 13.9638 0.502601 1.50531 0
M  V30 130 H 13.9848 -1.23569 3.59876 0
M  V30 131 H 13.4968 0.573241 3.83843 0
M  V30 132 H 11.5978 -1.8214 3.25048 0
M  V30 133 H 11.7108 -0.672123 4.74362 0
M  V30 134 H 10.0748 -0.452863 2.50642 0
M  V30 135 H 10.8578 1.03172 3.2743 0
M  V30 136 N 13.3029 -1.57598 0.00835791 0
M  V30 137 C 14.7139 -1.7892 -0.53333 0
M  V30 138 C 15.0649 -0.916609 -1.73473 0
M  V30 139 O 14.1899 -0.121336 -2.1606 0
M  V30 140 C 14.7849 -3.24488 -0.974313 0
M  V30 141 C 13.3439 -3.46878 -1.46125 0
M  V30 142 C 12.4909 -2.74157 -0.416302 0
M  V30 143 H 15.4419 -1.56958 0.234495 0
M  V30 144 H 15.4629 -3.3306 -1.83988 0
M  V30 145 H 14.9749 -3.87972 -0.099718 0
M  V30 146 H 13.0759 -2.8862 -2.35646 0
M  V30 147 H 13.1889 -4.55572 -1.48295 0
M  V30 148 H 11.5529 -2.39022 -0.87981 0
M  V30 149 H 12.3359 -3.40345 0.44947 0
M  V30 150 N 14.781 0.264519 -1.55364 0
M  V30 151 C 16.027 0.992314 -1.77552 0
M  V30 152 C 16.382 1.83626 -0.574379 0
M  V30 153 O 15.675 1.86648 0.432782 0
M  V30 154 C 15.869 1.9004 -3.02687 0
M  V30 155 C 15.698 1.14583 -4.34857 0
M  V30 156 C 14.468 0.858068 -4.97961 0
M  V30 157 C 16.666 0.532069 -5.1154 0
M  V30 158 N 14.648 0.0775974 -6.13851 0
M  V30 159 C 16.019 -0.113823 -6.19896 0
M  V30 160 C 18.074 0.440763 -4.95945 0
M  V30 161 C 16.777 -0.842231 -7.14352 0
M  V30 162 C 18.803 -0.274072 -5.90765 0
M  V30 163 C 18.165 -0.90867 -6.98515 0
M  V30 164 H 14.264 0.344811 -0.701875 0
M  V30 165 H 16.848 0.267141 -1.92859 0
M  V30 166 H 15.019 2.59775 -2.88741 0
M  V30 167 H 16.751 2.56243 -3.13243 0
M  V30 168 H 13.506 1.16547 -4.59036 0
M  V30 169 H 13.93 -0.300216 -6.76334 0
M  V30 170 H 18.572 0.917064 -4.12735 0
M  V30 171 H 16.29 -1.33019 -7.97077 0
M  V30 172 H 19.876 -0.345151 -5.80775 0
M  V30 173 H 18.756 -1.45299 -7.70622 0
M  V30 174 N 16.2591 1.48442 0.529413 0
M  V30 175 C 17.6751 1.34575 0.858004 0
M  V30 176 C 17.8751 0.3572 1.98309 0
M  V30 177 O 16.9311 -0.221379 2.51528 0
M  V30 178 C 18.2441 2.74617 1.22499 0
M  V30 179 C 19.7921 2.83109 1.33484 0
M  V30 180 C 20.2671 4.23854 1.73526 0
M  V30 181 N 21.7581 4.2653 1.80628 0
M  V30 182 C 22.4931 5.32372 2.12997 0
M  V30 183 N 21.9891 6.48491 2.43786 0
M  V30 184 N 23.7821 5.19766 2.14008 0
M  V30 185 H 15.9331 2.1133 -0.212925 0
M  V30 186 H 18.1961 0.947439 -0.0326199 0
M  V30 187 H 17.9021 3.4852 0.471905 0
M  V30 188 H 17.7761 3.08177 2.17501 0
M  V30 189 H 20.1631 2.09462 2.0787 0
M  V30 190 H 20.2441 2.53168 0.366027 0
M  V30 191 H 19.8881 4.98018 0.997013 0
M  V30 192 H 19.8181 4.5124 2.71459 0
M  V30 193 H 22.3091 3.42772 1.59108 0
M  V30 194 H 22.6221 7.24993 2.67592 0
M  V30 195 H 20.9671 6.51765 2.41304 0
M  V30 196 H 24.1581 4.28066 1.89412 0
M  V30 197 H 24.3311 6.02354 2.38902 0
M  V30 198 N 17.7372 -0.778329 1.37039 0
M  V30 199 C 18.6672 -1.90546 1.34962 0
M  V30 200 C 19.6482 -1.68681 0.219274 0
M  V30 201 O 20.8332 -1.89634 0.418624 0
M  V30 202 C 17.9632 -3.27734 1.14925 0
M  V30 203 C 16.9172 -3.64147 2.24902 0
M  V30 204 C 16.2432 -4.99806 1.89996 0
M  V30 205 C 17.5432 -3.71579 3.67051 0
M  V30 206 H 19.2372 -1.92541 2.29277 0
M  V30 207 H 16.7832 -0.924948 1.10366 0
M  V30 208 H 18.7362 -4.06215 1.12104 0
M  V30 209 H 17.4602 -3.26154 0.170631 0
M  V30 210 H 16.1192 -2.8797 2.26868 0
M  V30 211 H 15.7672 -4.94759 0.906796 0
M  V30 212 H 15.4672 -5.25139 2.63634 0
M  V30 213 H 16.9912 -5.80694 1.88749 0
M  V30 214 H 18.4052 -4.40227 3.67251 0
M  V30 215 H 16.8022 -4.08405 4.39688 0
M  V30 216 H 17.8722 -2.72404 4.01154 0
M  V30 217 N 19.2153 -1.21501 -1.00376 0
M  V30 218 C 20.4633 -1.03095 -1.73827 0
M  V30 219 C 20.7843 0.436341 -1.90055 0
M  V30 220 O 20.0543 1.31466 -1.45236 0
M  V30 221 H 18.6343 -0.378487 -0.644016 0
M  V30 222 H 21.2963 -1.52831 -1.20949 0
M  V30 223 H 20.3923 -1.49991 -2.73695 0
M  V30 224 N 20.6934 1.19889 -1.02296 0
M  V30 225 C 22.1094 1.41462 -0.738954 0
M  V30 226 C 22.3094 1.89721 0.678846 0
M  V30 227 O 21.3654 2.07016 1.4457 0
M  V30 228 C 22.6784 2.43083 -1.77005 0
M  V30 229 C 24.2264 2.5684 -1.78892 0
M  V30 230 C 24.7014 3.61709 -2.80945 0
M  V30 231 N 26.1924 3.69199 -2.79725 0
M  V30 232 C 26.9274 4.50019 -3.55345 0
M  V30 233 N 26.4234 5.34592 -4.40662 0
M  V30 234 N 28.2164 4.44612 -3.43914 0
M  V30 235 H 20.3674 0.868827 -1.93817 0
M  V30 236 H 22.6304 0.44399 -0.837602 0
M  V30 237 H 22.3364 2.14636 -2.78612 0
M  V30 238 H 22.2104 3.4217 -1.58744 0
M  V30 239 H 24.5974 2.84614 -0.779674 0
M  V30 240 H 24.6784 1.57927 -2.01228 0
M  V30 241 H 24.3224 3.34678 -3.82038 0
M  V30 242 H 24.2524 4.60259 -2.5587 0
M  V30 243 H 26.7434 3.08794 -2.17842 0
M  V30 244 H 27.0564 5.93363 -4.95116 0
M  V30 245 H 25.4014 5.34073 -4.44737 0
M  V30 246 H 28.5924 3.7758 -2.76679 0
M  V30 247 H 28.7654 5.0736 -4.031 0
M  V30 248 N 22.1715 0.800033 1.35784 0
M  V30 249 C 23.1015 0.220184 2.3246 0
M  V30 250 C 24.0825 -0.65073 1.57161 0
M  V30 251 O 25.2675 -0.582359 1.85263 0
M  V30 252 C 22.3975 -0.637353 3.41402 0
M  V30 253 C 21.3515 0.134531 4.27789 0
M  V30 254 C 20.6775 -0.844285 5.27992 0
M  V30 255 C 21.9775 1.32979 5.05088 0
M  V30 256 H 23.6715 1.02787 2.81203 0
M  V30 257 H 21.2175 0.495717 1.35199 0
M  V30 258 H 23.1705 -1.05302 4.08031 0
M  V30 259 H 21.8945 -1.47785 2.91251 0
M  V30 260 H 20.5535 0.531296 3.6273 0
M  V30 261 H 20.2015 -1.68011 4.74111 0
M  V30 262 H 19.9015 -0.332184 5.8666 0
M  V30 263 H 21.4255 -1.2583 5.97494 0
M  V30 264 H 22.8395 0.98934 5.64699 0
M  V30 265 H 21.2365 1.77593 5.7322 0
M  V30 266 H 22.3065 2.11978 4.36111 0
M  V30 267 N 23.6496 -1.47581 0.552962 0
M  V30 268 C 24.5796 -2.32762 -0.185451 0
M  V30 269 C 25.5606 -1.43527 -0.912905 0
M  V30 270 O 26.7456 -1.72388 -0.894201 0
M  V30 271 C 23.8756 -3.25219 -1.21859 0
M  V30 272 C 22.8296 -4.23661 -0.607864 0
M  V30 273 C 22.1556 -5.05413 -1.74533 0
M  V30 274 C 23.4556 -5.20481 0.435582 0
M  V30 275 H 25.1496 -2.94749 0.525684 0
M  V30 276 H 22.6956 -1.41738 0.254251 0
M  V30 277 H 24.6486 -3.8365 -1.7433 0
M  V30 278 H 23.3726 -2.61279 -1.95961 0
M  V30 279 H 22.0316 -3.66451 -0.104489 0
M  V30 280 H 21.6796 -4.3788 -2.47529 0
M  V30 281 H 21.3796 -5.72059 -1.34249 0
M  V30 282 H 22.9036 -5.66701 -2.27338 0
M  V30 283 H 24.3176 -5.733 -0.00290157 0
M  V30 284 H 22.7146 -5.95305 0.757067 0
M  V30 285 H 23.7846 -4.66217 1.33303 0
M  V30 286 N 25.1277 -0.289203 -1.54924 0
M  V30 287 C 26.0577 0.58549 -2.2604 0
M  V30 288 C 27.0387 1.14753 -1.25562 0
M  V30 289 O 28.2237 1.17906 -1.54311 0
M  V30 290 C 25.3537 1.76305 -2.99222 0
M  V30 291 C 24.3077 1.33191 -4.06748 0
M  V30 292 C 23.6337 2.5937 -4.6758 0
M  V30 293 C 24.9337 0.471775 -5.20165 0
M  V30 294 H 26.6277 -0.00763532 -2.99399 0
M  V30 295 H 24.1737 -0.00511229 -1.43999 0
M  V30 296 H 26.1267 2.38097 -3.47689 0
M  V30 297 H 24.8507 2.38223 -2.23422 0
M  V30 298 H 23.5097 0.737121 -3.59113 0
M  V30 299 H 23.1577 3.19576 -3.88433 0
M  V30 300 H 22.8577 2.31228 -5.40192 0
M  V30 301 H 24.3817 3.21985 -5.18804 0
M  V30 302 H 25.7957 0.995056 -5.64599 0
M  V30 303 H 24.1927 0.284639 -5.99425 0
M  V30 304 H 25.2627 -0.506041 -4.82252 0
M  V30 305 N 26.6058 1.57591 -0.0167156 0
M  V30 306 C 27.5358 2.12496 0.967858 0
M  V30 307 C 28.5168 1.03807 1.34752 0
M  V30 308 O 29.7018 1.31577 1.42833 0
M  V30 309 C 26.8318 2.64194 2.25431 0
M  V30 310 C 25.7858 3.77559 2.01576 0
M  V30 311 C 25.1118 4.15636 3.36379 0
M  V30 312 C 26.4118 5.04151 1.36489 0
M  V30 313 H 28.1058 2.95013 0.510643 0
M  V30 314 H 25.6518 1.41915 0.244181 0
M  V30 315 H 27.6048 3.01236 2.94678 0
M  V30 316 H 26.3288 1.78821 2.73296 0
M  V30 317 H 24.9878 3.40937 1.34751 0
M  V30 318 H 24.6358 3.27263 3.81979 0
M  V30 319 H 24.3358 4.92022 3.21229 0
M  V30 320 H 25.8598 4.5525 4.06915 0
M  V30 321 H 27.2738 5.38857 1.95718 0
M  V30 322 H 25.6708 5.85453 1.31776 0
M  V30 323 H 26.7408 4.83733 0.336219 0
M  V30 324 N 28.0839 -0.256276 1.55502 0
M  V30 325 C 29.0169 -1.34321 1.84481 0
M  V30 326 C 29.9949 -1.46802 0.699131 0
M  V30 327 O 31.1789 -1.63165 0.943904 0
M  V30 328 C 28.3059 -2.71779 2.02123 0
M  V30 329 C 27.3519 -2.76496 3.24734 0
M  V30 330 S 28.1849 -2.3405 4.81644 0
M  V30 331 C 29.3409 -3.73452 5.02279 0
M  V30 332 H 29.5739 -1.09539 2.76385 0
M  V30 333 H 27.1069 -0.45678 1.47489 0
M  V30 334 H 29.0649 -3.50932 2.12972 0
M  V30 335 H 27.7259 -2.93803 1.11078 0
M  V30 336 H 26.9189 -3.77424 3.34016 0
M  V30 337 H 26.5209 -2.05379 3.12563 0
M  V30 338 H 28.8129 -4.6887 4.89047 0
M  V30 339 H 29.7559 -3.6911 6.04287 0
M  V30 340 H 30.1639 -3.6553 4.30172 0
M  V30 341 N 29.562 -1.4872 -0.521534 0
M  V30 342 C 30.802 -1.58771 -1.28729 0
M  V30 343 C 31.166 -0.259394 -1.9024 0
M  V30 344 O 32.367 -0.234942 -2.67771 0
M  V30 345 C 30.638 -2.70039 -2.34124 0
M  V30 346 S 32.197 -2.9991 -3.20312 0
M  V30 347 H 29.015 -0.560251 -0.437767 0
M  V30 348 H 31.617 -1.86283 -0.593188 0
M  V30 349 H 30.321 -3.65101 -1.87429 0
M  V30 350 H 29.852 -2.44455 -3.08229 0
M  V30 351 H 31.867 -2.39855 -4.34378 0
M  V30 352 N 31.0401 0.771051 -1.3745 0
M  V30 353 C 31.9701 1.89827 -1.3597 0
M  V30 354 C 32.9511 1.68562 -0.228216 0
M  V30 355 O 34.1361 1.8941 -0.428675 0
M  V30 356 C 31.2661 3.2712 -1.16662 0
M  V30 357 C 30.2201 3.6295 -2.2683 0
M  V30 358 C 29.5461 4.98791 -1.92644 0
M  V30 359 C 30.8461 3.69627 -3.69017 0
M  V30 360 H 32.5401 1.91323 -2.30295 0
M  V30 361 H 30.0861 0.919082 -1.10855 0
M  V30 362 H 32.0391 4.05615 -1.14256 0
M  V30 363 H 30.7631 3.26059 -0.187926 0
M  V30 364 H 29.4221 2.86763 -2.28392 0
M  V30 365 H 29.0701 4.94271 -0.933021 0
M  V30 366 H 28.7701 5.23733 -2.66416 0
M  V30 367 H 30.2941 5.79685 -1.91826 0
M  V30 368 H 31.7081 4.38273 -3.69581 0
M  V30 369 H 30.1051 4.06067 -4.41848 0
M  V30 370 H 31.1751 2.70273 -4.02592 0
M  V30 371 N 32.5182 1.22032 0.997298 0
M  V30 372 C 33.4482 1.01065 2.10495 0
M  V30 373 C 34.4292 -0.0669542 1.69968 0
M  V30 374 O 35.6142 0.0943987 1.9397 0
M  V30 375 C 32.7442 0.582874 3.42374 0
M  V30 376 C 31.6982 1.60592 3.96729 0
M  V30 377 C 31.0242 1.03412 5.24605 0
M  V30 378 C 32.3242 2.99478 4.27914 0
M  V30 379 H 34.0182 1.93708 2.28292 0
M  V30 380 H 31.5642 0.932761 1.09707 0
M  V30 381 H 33.5172 0.423332 4.19268 0
M  V30 382 H 32.2412 -0.379213 3.24391 0
M  V30 383 H 30.9002 1.75316 3.21963 0
M  V30 384 H 30.5482 0.063518 5.0296 0
M  V30 385 H 30.2482 1.71754 5.61938 0
M  V30 386 H 31.7722 0.886066 6.04137 0
M  V30 387 H 33.1862 2.88153 4.95622 0
M  V30 388 H 31.5832 3.64903 4.76409 0
M  V30 389 H 32.6532 3.49742 3.3587 0
M  V30 390 N 33.9963 -1.19345 1.0293 0
M  V30 391 C 34.9263 -2.2481 0.631105 0
M  V30 392 C 35.9073 -1.66245 -0.360104 0
M  V30 393 O 37.0923 -1.92677 -0.242726 0
M  V30 394 C 34.2223 -3.47295 -0.0184607 0
M  V30 395 C 33.1763 -4.18536 0.895073 0
M  V30 396 C 32.5023 -5.34586 0.110592 0
M  V30 397 C 33.8023 -4.73287 2.209 0
M  V30 398 H 35.4963 -2.58372 1.51275 0
M  V30 399 H 33.0423 -1.24194 0.728818 0
M  V30 400 H 34.9953 -4.20268 -0.308675 0
M  V30 401 H 33.7193 -3.12933 -0.934907 0
M  V30 402 H 32.3783 -3.47446 1.16949 0
M  V30 403 H 32.0263 -4.96469 -0.807902 0
M  V30 404 H 31.7263 -5.83183 0.719087 0
M  V30 405 H 33.2503 -6.10355 -0.172871 0
M  V30 406 H 34.6643 -5.38013 1.98028 0
M  V30 407 H 33.0613 -5.32373 2.76946 0
M  V30 408 H 34.1313 -3.91331 2.86336 0
M  V30 409 N 35.4744 -0.807222 -1.35358 0
M  V30 410 C 36.4044 -0.232509 -2.3234 0
M  V30 411 C 37.3854 0.642386 -1.57504 0
M  V30 412 O 38.5704 0.572526 -1.85569 0
M  V30 413 C 35.7004 0.619238 -3.41735 0
M  V30 414 C 34.6544 -0.157215 -4.27711 0
M  V30 415 C 33.9804 0.816273 -5.28433 0
M  V30 416 C 35.2804 -1.35656 -5.04376 0
M  V30 417 H 36.9744 -1.04276 -2.80654 0
M  V30 418 H 34.5204 -0.50288 -1.34934 0
M  V30 419 H 36.4734 1.03137 -4.08584 0
M  V30 420 H 35.1974 1.46239 -2.92031 0
M  V30 421 H 33.8564 -0.550525 -3.62443 0
M  V30 422 H 33.5044 1.65494 -4.74996 0
M  V30 423 H 33.2044 0.301067 -5.86828 0
M  V30 424 H 34.7284 1.22659 -5.98153 0
M  V30 425 H 36.1424 -1.01927 -5.64166 0
M  V30 426 H 34.5394 -1.8063 -5.7227 0
M  V30 427 H 35.6094 -2.14288 -4.34981 0
M  V30 428 N 36.9525 1.47285 -0.560781 0
M  V30 429 C 38.2005 2.02064 -0.0379868 0
M  V30 430 C 38.5215 1.43711 1.31803 0
M  V30 431 O 37.7915 0.61362 1.86042 0
M  V30 432 H 36.3715 0.746918 -0.0110531 0
M  V30 433 H 39.0335 1.80648 -0.731598 0
M  V30 434 H 38.1295 3.12064 0.0474463 0
M  V30 435 N 38.4306 0.297415 1.54768 0
M  V30 436 C 39.6556 -0.318435 2.04941 0
M  V30 437 C 40.0806 -1.4701 1.17345 0
M  V30 438 O 39.4386 -1.80436 0.176758 0
M  V30 439 C 39.4866 -0.755749 3.52592 0
M  V30 440 O 38.5906 -1.86088 3.68028 0
M  V30 441 H 37.9316 -0.062421 0.661059 0
M  V30 442 H 40.4616 0.438215 1.99852 0
M  V30 443 H 40.4716 -1.04552 3.94376 0
M  V30 444 H 39.1466 0.0867233 4.1581 0
M  V30 445 H 37.7236 -1.57193 3.38149 0
M  V30 446 N 39.9087 -1.5758 0.0250728 0
M  V30 447 C 41.1337 -1.96337 -0.668317 0
M  V30 448 C 41.5587 -0.901314 -1.651 0
M  V30 449 O 40.9167 0.138187 -1.80773 0
M  V30 450 C 40.9647 -3.34191 -1.35457 0
M  V30 451 O 40.0687 -3.30269 -2.46974 0
M  V30 452 H 39.4097 -0.640281 -0.175887 0
M  V30 453 H 41.9397 -2.0442 0.0857224 0
M  V30 454 H 41.9497 -3.70331 -1.71228 0
M  V30 455 H 40.6247 -4.11036 -0.634218 0
M  V30 456 H 39.2017 -3.05841 -2.13344 0
M  V30 457 N 41.3868 0.248026 -1.55636 0
M  V30 458 C 42.3498 1.29044 -1.89421 0
M  V30 459 C 43.3498 1.41134 -0.770581 0
M  V30 460 O 44.5398 1.39854 -1.03858 0
M  V30 461 C 41.6718 2.66831 -2.12165 0
M  V30 462 H 42.8648 1.00305 -2.82629 0
M  V30 463 H 40.4178 0.487265 -1.48511 0
M  V30 464 H 41.1528 3.00711 -1.21422 0
M  V30 465 H 40.9378 2.59438 -2.93997 0
M  V30 466 H 42.4278 3.42103 -2.3949 0
M  V30 467 N 42.8649 1.48995 0.513639 0
M  V30 468 C 44.2809 1.35478 0.843682 0
M  V30 469 C 44.4809 0.378213 1.97919 0
M  V30 470 O 43.5369 -0.194689 2.51748 0
M  V30 471 C 44.8499 2.75901 1.1958 0
M  V30 472 C 46.3979 2.84509 1.30474 0
M  V30 473 C 46.8729 4.25671 1.69021 0
M  V30 474 N 48.3639 4.28422 1.76094 0
M  V30 475 C 49.0989 5.34601 2.07338 0
M  V30 476 N 48.5949 6.5104 2.36894 0
M  V30 477 N 50.3879 5.22007 2.08483 0
M  V30 478 H 42.5389 2.11092 -0.235328 0
M  V30 479 H 44.8019 0.947039 -0.0426669 0
M  V30 480 H 44.5079 3.49001 0.434913 0
M  V30 481 H 44.3819 3.10467 2.1422 0
M  V30 482 H 46.7689 2.11655 2.05637 0
M  V30 483 H 46.8499 2.53542 0.339155 0
M  V30 484 H 46.4939 4.99048 0.944135 0
M  V30 485 H 46.4239 4.54094 2.66658 0
M  V30 486 H 48.9149 3.44441 1.55464 0
M  V30 487 H 49.2279 7.2779 2.59887 0
M  V30 488 H 47.5729 6.54287 2.34378 0
M  V30 489 H 50.7639 4.30051 1.84861 0
M  V30 490 H 50.9369 6.04854 2.325 0
M  V30 491 N 44.343 -0.763751 1.37857 0
M  V30 492 C 45.306 -1.85889 1.34081 0
M  V30 493 C 46.306 -1.58949 0.243277 0
M  V30 494 O 47.496 -1.66882 0.499589 0
M  V30 495 C 44.628 -3.23176 1.08489 0
M  V30 496 H 45.821 -1.90648 2.31502 0
M  V30 497 H 43.374 -0.964367 1.23003 0
M  V30 498 H 44.109 -3.24091 0.116318 0
M  V30 499 H 43.894 -3.44124 1.8794 0
M  V30 500 H 45.384 -4.03254 1.08517 0
M  V30 501 N 45.8211 -1.22559 -0.990812 0
M  V30 502 C 46.7841 -0.998863 -2.0629 0
M  V30 503 C 47.7841 0.0354834 -1.60761 0
M  V30 504 O 48.9741 -0.203231 -1.7301 0
M  V30 505 C 46.1061 -0.509203 -3.37076 0
M  V30 506 H 47.2991 -1.95014 -2.27837 0
M  V30 507 H 44.8521 -1.04456 -1.16269 0
M  V30 508 H 45.5871 0.446335 -3.21214 0
M  V30 509 H 45.3721 -1.25547 -3.71457 0
M  V30 510 H 46.8621 -0.370888 -4.1595 0
M  V30 511 N 47.2992 1.18797 -1.03562 0
M  V30 512 C 48.2492 2.20161 -0.592724 0
M  V30 513 C 49.2332 1.56772 0.362133 0
M  V30 514 O 50.4252 1.76062 0.182009 0
M  V30 515 C 47.5542 3.43266 0.0481024 0
M  V30 516 C 46.6402 4.13786 -0.9296 0
M  V30 517 N 47.0312 4.60388 -2.09467 0
M  V30 518 C 45.3292 4.39572 -0.754499 0
M  V30 519 C 46.0302 5.14619 -2.71187 0
M  V30 520 N 45.0062 5.05826 -1.991 0
M  V30 521 H 48.8082 2.53877 -1.48066 0
M  V30 522 H 46.3222 1.34946 -0.903514 0
M  V30 523 H 48.3192 4.15136 0.383058 0
M  V30 524 H 46.9792 3.11048 0.931636 0
M  V30 525 H 47.9902 4.54999 -2.47379 0
M  V30 526 H 44.6672 4.17425 0.0793713 0
M  V30 527 H 46.0572 5.60917 -3.69895 0
M  V30 528 N 48.7773 0.814389 1.34928 0
M  V30 529 C 50.0263 0.394871 1.97797 0
M  V30 530 C 50.3393 -1.04555 1.65311 0
M  V30 531 O 51.5453 -1.56856 2.21604 0
M  V30 532 C 50.0013 0.655103 3.53888 0
M  V30 533 C 49.6093 2.10858 3.95276 0
M  V30 534 C 51.3533 0.301329 4.23429 0
M  V30 535 C 49.2603 2.31415 5.44244 0
M  V30 536 H 48.1903 0.143913 0.740139 0
M  V30 537 H 50.8413 0.999544 1.53888 0
M  V30 538 H 49.2233 -0.0196253 3.95995 0
M  V30 539 H 50.3973 2.82176 3.64298 0
M  V30 540 H 48.7123 2.42297 3.38646 0
M  V30 541 H 51.3093 0.432869 5.32945 0
M  V30 542 H 51.6523 -0.75331 4.09428 0
M  V30 543 H 52.1853 0.930288 3.86769 0
M  V30 544 H 48.9243 3.35353 5.63222 0
M  V30 545 H 48.4443 1.6463 5.76764 0
M  V30 546 H 50.1233 2.13352 6.10811 0
M  V30 547 N 50.2554 -1.46986 0.568584 0
M  V30 548 C 51.2024 -2.30153 -0.172707 0
M  V30 549 C 52.1724 -1.39759 -0.897586 0
M  V30 550 O 53.3574 -1.68716 -0.891044 0
M  V30 551 C 50.4974 -3.23952 -1.1895 0
M  V30 552 C 49.6104 -4.29441 -0.469517 0
M  V30 553 C 48.7454 -5.1038 -1.47259 0
M  V30 554 C 47.7844 -6.07632 -0.738225 0
M  V30 555 N 46.9214 -6.8149 -1.68868 0
M  V30 556 H 51.7614 -2.93019 0.542596 0
M  V30 557 H 49.2984 -1.44422 0.279401 0
M  V30 558 H 51.2564 -3.76767 -1.79173 0
M  V30 559 H 49.8864 -2.62926 -1.87269 0
M  V30 560 H 48.9384 -3.79594 0.247467 0
M  V30 561 H 50.2504 -4.98689 0.105241 0
M  V30 562 H 49.4044 -5.67402 -2.14803 0
M  V30 563 H 48.1434 -4.4106 -2.08128 0
M  V30 564 H 47.1484 -5.49778 -0.0489293 0
M  V30 565 H 48.3734 -6.78966 -0.135129 0
M  V30 566 H 46.3194 -6.14891 -2.28573 0
M  V30 567 H 46.2364 -7.46948 -1.16636 0
M  V30 568 H 47.5044 -7.43078 -2.3549 0
M  V30 569 N 51.7335 -0.305618 -1.54608 0
M  V30 570 C 52.6805 0.568421 -2.23691 0
M  V30 571 C 53.6505 1.12592 -1.22116 0
M  V30 572 O 54.8355 1.16959 -1.50749 0
M  V30 573 C 51.9755 1.7322 -2.98477 0
M  V30 574 C 51.0885 1.20566 -4.14835 0
M  V30 575 C 50.2235 2.33368 -4.77193 0
M  V30 576 C 49.2625 1.7787 -5.85686 0
M  V30 577 N 48.3995 2.84263 -6.4198 0
M  V30 578 H 53.2395 -0.0272867 -2.97988 0
M  V30 579 H 50.7765 -0.0252363 -1.47078 0
M  V30 580 H 52.7345 2.41675 -3.40072 0
M  V30 581 H 51.3645 2.29947 -2.26548 0
M  V30 582 H 50.4165 0.413223 -3.78149 0
M  V30 583 H 51.7285 0.759417 -4.92985 0
M  V30 584 H 50.8825 3.09761 -5.21664 0
M  V30 585 H 49.6215 2.8132 -3.98385 0
M  V30 586 H 48.6265 0.99968 -5.40635 0
M  V30 587 H 49.8515 1.30816 -6.66381 0
M  V30 588 H 47.7975 3.31541 -5.66053 0
M  V30 589 H 47.7145 2.44149 -7.15491 0
M  V30 590 H 48.9825 3.6054 -6.91109 0
M  V30 591 N 53.2116 1.57565 -0.0334293 0
M  V30 592 C 54.1746 2.09393 0.932048 0
M  V30 593 C 55.1746 1.00986 1.25134 0
M  V30 594 O 56.3646 1.27129 1.19096 0
M  V30 595 C 53.4966 2.56338 2.2473 0
M  V30 596 H 54.6896 2.95984 0.483085 0
M  V30 597 H 52.2426 1.54819 0.21468 0
M  V30 598 H 52.9776 1.7309 2.74245 0
M  V30 599 H 52.7626 3.35542 2.02865 0
M  V30 600 H 54.2526 2.96646 2.93923 0
M  V30 601 N 54.6897 -0.239769 1.55765 0
M  V30 602 C 55.5997 -1.31831 1.94056 0
M  V30 603 C 56.6157 -1.52275 0.841925 0
M  V30 604 O 57.7917 -1.65759 1.14394 0
M  V30 605 C 54.8567 -2.65156 2.23368 0
M  V30 606 C 53.9177 -2.53173 3.46701 0
M  V30 607 C 53.1507 -3.8014 3.74606 0
M  V30 608 O 53.3737 -4.82343 3.04469 0
M  V30 609 O 52.3077 -3.78344 4.68123 0
M  V30 610 H 56.1337 -1.02347 2.85935 0
M  V30 611 H 53.7187 -0.441123 1.42739 0
M  V30 612 H 55.6007 -3.43929 2.43497 0
M  V30 613 H 54.2757 -2.94358 1.34666 0
M  V30 614 H 53.1827 -1.72662 3.31871 0
M  V30 615 H 54.5157 -2.28915 4.35728 0
M  V30 616 N 56.1678 -1.49265 -0.50573 0
M  V30 617 C 57.1308 -1.65075 -1.59006 0
M  V30 618 C 58.1308 -0.522768 -1.52065 0
M  V30 619 O 59.3208 -0.789117 -1.55302 0
M  V30 620 C 56.4528 -1.64369 -2.98656 0
M  V30 621 H 57.6458 -2.61784 -1.46319 0
M  V30 622 H 55.1988 -1.38226 -0.729616 0
M  V30 623 H 55.9338 -0.692272 -3.16825 0
M  V30 624 H 55.7188 -2.46282 -3.05103 0
M  V30 625 H 57.2088 -1.78674 -3.77446 0
M  V30 626 N 57.6459 0.756429 -1.3826 0
M  V30 627 C 58.8739 1.54565 -1.3754 0
M  V30 628 C 59.2889 1.88767 0.0355331 0
M  V30 629 O 58.6459 1.52572 1.0014 0
M  V30 630 C 58.6969 2.84654 -2.22833 0
M  V30 631 O 58.4179 2.51912 -3.5843 0
M  V30 632 C 59.9189 3.78807 -2.30261 0
M  V30 633 H 57.1389 0.478353 -0.470553 0
M  V30 634 H 59.6829 0.936381 -1.81803 0
M  V30 635 H 57.8379 3.41965 -1.8204 0
M  V30 636 H 58.2519 3.35325 -4.03308 0
M  V30 637 H 59.7259 4.67045 -2.94233 0
M  V30 638 H 60.2029 4.19038 -1.31545 0
M  V30 639 H 60.8089 3.2742 -2.71433 0
M  V30 640 N 59.124 1.23083 0.984299 0
M  V30 641 C 60.352 1.08714 1.76037 0
M  V30 642 C 60.767 -0.361691 1.85303 0
M  V30 643 O 60.124 -1.25034 1.32939 0
M  V30 644 C 60.175 1.70206 3.18923 0
M  V30 645 O 59.896 3.09423 3.10144 0
M  V30 646 C 61.397 1.61227 4.12941 0
M  V30 647 H 58.617 0.380664 0.552572 0
M  V30 648 H 61.161 1.62853 1.23689 0
M  V30 649 H 59.316 1.20109 3.6831 0
M  V30 650 H 59.73 3.39188 4.00065 0
M  V30 651 H 61.204 2.08962 5.10919 0
M  V30 652 H 61.681 0.570375 4.35481 0
M  V30 653 H 62.287 2.10671 3.69456 0
M  V30 654 N 60.6021 -1.18246 1.0419 0
M  V30 655 C 61.8301 -1.92195 0.766072 0
M  V30 656 C 62.2451 -1.76247 -0.676933 0
M  V30 657 O 61.6021 -1.09293 -1.46155 0
M  V30 658 C 61.6531 -3.43568 1.12442 0
M  V30 659 O 61.3741 -3.59015 2.51078 0
M  V30 660 C 62.8751 -4.34613 0.873275 0
M  V30 661 H 60.0951 -0.610114 0.279288 0
M  V30 662 H 62.6391 -1.50007 1.38989 0
M  V30 663 H 60.7941 -3.8354 0.545542 0
M  V30 664 H 61.2081 -4.5273 2.64831 0
M  V30 665 H 62.6821 -5.39374 1.17385 0
M  V30 666 H 63.1591 -4.38781 -0.191909 0
M  V30 667 H 63.7651 -4.00341 1.43551 0
M  V30 668 N 62.0802 -0.821533 -1.34494 0
M  V30 669 C 63.3082 -0.421884 -2.02553 0
M  V30 670 C 63.7232 0.971745 -1.61872 0
M  V30 671 O 63.0802 1.62864 -0.823496 0
M  V30 672 C 63.1312 -0.51285 -3.57844 0
M  V30 673 O 62.8522 -1.85155 -3.97051 0
M  V30 674 C 64.3532 -0.107921 -4.43169 0
M  V30 675 H 61.5732 -0.169482 -0.649243 0
M  V30 676 H 64.1172 -1.1093 -1.71798 0
M  V30 677 H 62.2722 0.126474 -3.87193 0
M  V30 678 H 62.6862 -1.82482 -4.91732 0
M  V30 679 H 64.1602 -0.222657 -5.51551 0
M  V30 680 H 64.6372 0.948401 -4.28838 0
M  V30 681 H 65.2432 -0.720989 -4.19144 0
M  V30 682 N 63.5583 1.46682 -0.576371 0
M  V30 683 C 64.7863 2.06798 -0.0649635 0
M  V30 684 C 65.2013 1.42612 1.23723 0
M  V30 685 O 64.5583 0.529203 1.74659 0
M  V30 686 C 64.6093 3.6132 0.114202 0
M  V30 687 O 64.3303 4.23104 -1.13644 0
M  V30 688 C 65.8313 4.38349 0.66069 0
M  V30 689 H 63.0513 0.668778 -0.0545616 0
M  V30 690 H 65.5953 1.88404 -0.795237 0
M  V30 691 H 63.7503 3.79162 0.794673 0
M  V30 692 H 64.1643 5.15894 -0.946253 0
M  V30 693 H 65.6383 5.47081 0.73526 0
M  V30 694 H 66.1153 4.05953 1.67627 0
M  V30 695 H 66.7213 4.25297 0.0152951 0
M  V30 696 N 65.0364 0.313813 1.54444 0
M  V30 697 C 66.2614 -0.296681 2.05267 0
M  V30 698 C 66.6864 -1.45757 1.18897 0
M  V30 699 O 66.0444 -1.80239 0.195886 0
M  V30 700 C 66.0924 -0.71831 3.53373 0
M  V30 701 O 65.1964 -1.82175 3.69981 0
M  V30 702 H 64.5374 -0.0554061 0.661684 0
M  V30 703 H 67.0674 0.459387 1.99376 0
M  V30 704 H 67.0774 -1.00364 3.95463 0
M  V30 705 H 65.7524 0.130821 4.15694 0
M  V30 706 H 64.3294 -1.53598 3.39797 0
M  V30 707 N 66.5145 -1.57545 0.0417849 0
M  V30 708 C 67.4775 -2.09885 -0.92093 0
M  V30 709 C 68.4775 -1.01648 -1.24596 0
M  V30 710 O 69.6675 -1.27759 -1.1842 0
M  V30 711 C 66.7995 -2.57527 -2.23367 0
M  V30 712 H 67.9925 -2.96236 -0.467382 0
M  V30 713 H 65.5455 -1.5493 -0.206467 0
M  V30 714 H 66.2805 -1.74542 -2.73323 0
M  V30 715 H 66.0655 -3.36613 -2.01083 0
M  V30 716 H 67.5555 -2.98201 -2.92346 0
M  V30 717 N 67.9926 0.231505 -1.5589 0
M  V30 718 C 69.2406 0.955461 -1.78088 0
M  V30 719 C 69.5616 1.85262 -0.608533 0
M  V30 720 O 68.8316 1.92277 0.375035 0
M  V30 721 H 67.4116 0.355787 -0.656829 0
M  V30 722 H 70.0736 0.245751 -1.93344 0
M  V30 723 H 69.1696 1.56814 -2.69844 0
M  V30 724 N 69.4707 1.49531 0.497807 0
M  V30 725 C 70.4337 1.65916 1.58128 0
M  V30 726 C 71.4337 0.530825 1.51786 0
M  V30 727 O 72.6237 0.797342 1.54881 0
M  V30 728 C 69.7557 1.65951 2.9778 0
M  V30 729 H 70.9487 2.62556 1.44929 0
M  V30 730 H 68.5017 1.38611 0.722275 0
M  V30 731 H 69.2367 0.709065 3.16453 0
M  V30 732 H 69.0217 2.47897 3.03792 0
M  V30 733 H 70.5117 1.80673 3.76493 0
M  V30 734 N 70.9488 -0.749086 1.3866 0
M  V30 735 C 71.8588 -1.89358 1.38494 0
M  V30 736 C 72.8748 -1.71708 0.281476 0
M  V30 737 O 74.0508 -1.94554 0.520643 0
M  V30 738 C 71.1158 -3.24782 1.21316 0
M  V30 739 C 70.1768 -3.54926 2.41508 0
M  V30 740 C 69.4098 -4.83888 2.2514 0
M  V30 741 O 69.6328 -5.56592 1.24746 0
M  V30 742 O 68.5668 -5.13612 3.13826 0
M  V30 743 H 72.3928 -1.92452 2.34938 0
M  V30 744 H 69.9778 -0.894981 1.19626 0
M  V30 745 H 71.8598 -4.05739 1.13814 0
M  V30 746 H 70.5348 -3.2249 0.279592 0
M  V30 747 H 69.4418 -2.74112 2.54585 0
M  V30 748 H 70.7748 -3.61983 3.3351 0
M  V30 749 N 72.4269 -1.23603 -0.977757 0
M  V30 750 C 73.3899 -1.02069 -2.05218 0
M  V30 751 C 74.3899 0.0184305 -1.60789 0
M  V30 752 O 75.5799 -0.221569 -1.72785 0
M  V30 753 C 72.7119 -0.544926 -3.36517 0
M  V30 754 H 73.9049 -1.9742 -2.25755 0
M  V30 755 H 71.4579 -1.05684 -1.15155 0
M  V30 756 H 72.1929 0.412241 -3.21669 0
M  V30 757 H 71.9779 -1.2948 -3.70105 0
M  V30 758 H 73.4679 -0.414985 -4.15533 0
M  V30 759 N 73.905 1.17692 -1.04816 0
M  V30 760 C 74.868 2.19787 -0.650117 0
M  V30 761 C 75.868 1.58044 0.296427 0
M  V30 762 O 77.058 1.74012 0.0808097 0
M  V30 763 C 74.19 3.40869 0.0456987 0
M  V30 764 H 75.383 2.56516 -1.5537 0
M  V30 765 H 72.936 1.31708 -0.841594 0
M  V30 766 H 73.671 3.09681 0.962726 0
M  V30 767 H 73.456 3.86928 -0.634727 0
M  V30 768 H 74.946 4.16445 0.310432 0
M  V30 769 N 75.3831 0.828654 1.34056 0
M  V30 770 C 76.2931 0.256725 2.33191 0
M  V30 771 C 77.3091 -0.611898 1.62886 0
M  V30 772 O 78.4851 -0.51844 1.94613 0
M  V30 773 C 75.5501 -0.567238 3.42028 0
M  V30 774 C 74.6111 0.324458 4.28072 0
M  V30 775 C 73.8441 -0.460274 5.31712 0
M  V30 776 O 74.0671 -1.693 5.44696 0
M  V30 777 O 73.0011 0.160391 6.01686 0
M  V30 778 H 76.8271 1.07739 2.83947 0
M  V30 779 H 74.4121 0.59093 1.37217 0
M  V30 780 H 76.2941 -1.03582 4.08471 0
M  V30 781 H 74.9691 -1.36513 2.93506 0
M  V30 782 H 73.8761 0.840659 3.64532 0
M  V30 783 H 75.2091 1.08685 4.8005 0
M  V30 784 N 76.8612 -1.46375 0.584142 0
M  V30 785 C 78.1092 -2.01978 0.0701287 0
M  V30 786 C 78.4302 -1.4579 -1.295 0
M  V30 787 O 77.7002 -0.64314 -1.85042 0
M  V30 788 H 76.2802 -0.746648 0.0229345 0
M  V30 789 H 78.9422 -1.79461 0.760245 0
M  V30 790 H 78.0382 -3.121 0.0022064 0
M  V30 791 N 78.3393 -0.321999 -1.54275 0
M  V30 792 C 79.2713 0.578671 -2.21775 0
M  V30 793 C 80.2843 1.08109 -1.21722 0
M  V30 794 O 81.4733 0.994938 -1.482 0
M  V30 795 C 78.5733 1.80661 -2.86731 0
M  V30 796 C 77.7463 1.44314 -4.12907 0
M  V30 797 C 76.8053 2.52845 -4.61472 0
M  V30 798 O 75.8313 2.17054 -5.2619 0
M  V30 799 N 77.0333 3.83748 -4.35566 0
M  V30 800 H 79.7983 0.000709447 -2.997 0
M  V30 801 H 77.3593 -0.145132 -1.61248 0
M  V30 802 H 79.3513 2.52655 -3.16145 0
M  V30 803 H 77.9213 2.29245 -2.12521 0
M  V30 804 H 77.1413 0.554906 -3.90275 0
M  V30 805 H 78.4293 1.17598 -4.95023 0
M  V30 806 H 77.8273 4.15625 -3.83761 0
M  V30 807 H 76.3843 4.51977 -4.69638 0
M  V30 808 N 79.8174 1.5752 -0.0501392 0
M  V30 809 C 81.0644 1.9265 0.623874 0
M  V30 810 C 81.3924 0.928411 1.70912 0
M  V30 811 O 80.6474 -0.0594525 1.9561 0
M  V30 812 C 80.9464 3.34467 1.25963 0
M  V30 813 C 80.6124 4.49883 0.302689 0
M  V30 814 C 79.2744 4.81184 0.0393636 0
M  V30 815 C 81.6264 5.20002 -0.353205 0
M  V30 816 C 78.9544 5.79951 -0.887308 0
M  V30 817 C 81.3064 6.1976 -1.26806 0
M  V30 818 C 79.9704 6.49491 -1.54007 0
M  V30 819 H 79.2404 0.704957 0.228292 0
M  V30 820 H 81.8874 1.91146 -0.116398 0
M  V30 821 H 80.1924 3.32333 2.07514 0
M  V30 822 H 81.8894 3.58928 1.78806 0
M  V30 823 H 78.4794 4.25457 0.518109 0
M  V30 824 H 82.6634 4.96033 -0.162854 0
M  V30 825 H 77.9194 6.01322 -1.10553 0
M  V30 826 H 82.0934 6.73205 -1.78236 0
M  V30 827 H 79.7204 7.25837 -2.25976 0
M  V30 828 N 81.2955 -0.223234 1.56011 0
M  V30 829 C 82.5725 -0.972108 1.69733 0
M  V30 830 C 82.9525 -2.02485 0.59691 0
M  V30 831 O 82.3005 -2.25037 -0.396324 0
M  V30 832 C 82.5105 -1.58407 3.10979 0
M  V30 833 C 83.8585 -2.07696 3.70334 0
M  V30 834 O 84.8825 -1.68304 3.1393 0
M  V30 835 O 83.7415 -2.80096 4.69264 0
M  V30 836 H 80.8355 -0.453993 0.691245 0
M  V30 837 H 83.3815 -0.215149 1.68331 0
M  V30 838 H 82.1535 -0.823831 3.82529 0
M  V30 839 H 81.7765 -2.40661 3.16493 0
M  V30 840 N 82.7736 -1.49793 -0.48987 0
M  V30 841 C 84.1896 -1.36803 -0.822022 0
M  V30 842 C 84.3896 -0.409652 -1.97292 0
M  V30 843 O 83.4456 0.154614 -2.52026 0
M  V30 844 C 84.7586 -2.77768 -1.15175 0
M  V30 845 C 86.3066 -2.86549 -1.25931 0
M  V30 846 C 86.7816 -4.28306 -1.62228 0
M  V30 847 N 88.2726 -4.31169 -1.69256 0
M  V30 848 C 89.0076 -5.37832 -1.98807 0
M  V30 849 N 88.5036 -6.54726 -2.26507 0
M  V30 850 N 90.2966 -5.25258 -2.00152 0
M  V30 851 H 82.4476 -2.10691 0.268881 0
M  V30 852 H 84.7106 -0.946241 0.057728 0
M  V30 853 H 84.4166 -3.49648 -0.379335 0
M  V30 854 H 84.2906 -3.13836 -2.09253 0
M  V30 855 H 86.6776 -2.14899 -2.02243 0
M  V30 856 H 86.7586 -2.54049 -0.298776 0
M  V30 857 H 86.4026 -5.00486 -0.864622 0
M  V30 858 H 86.3326 -4.58279 -2.594 0
M  V30 859 H 88.8236 -3.4687 -1.49965 0
M  V30 860 H 89.1366 -7.31833 -2.48276 0
M  V30 861 H 87.4816 -6.57933 -2.23939 0
M  V30 862 H 90.6726 -4.32938 -1.77996 0
M  V30 863 H 90.8456 -6.08476 -2.22848 0
M  V30 864 N 84.2517 0.741722 -1.39055 0
M  V30 865 C 85.4817 1.52876 -1.3897 0
M  V30 866 C 85.8897 1.8919 0.0193266 0
M  V30 867 O 85.2327 1.54138 0.999356 0
M  V30 868 C 85.2947 2.84929 -2.19216 0
M  V30 869 C 84.9587 2.71086 -3.67915 0
M  V30 870 C 85.9557 2.40084 -4.61146 0
M  V30 871 C 83.6407 2.88168 -4.11418 0
M  V30 872 C 85.6347 2.26335 -5.95862 0
M  V30 873 C 83.3217 2.74037 -5.46211 0
M  V30 874 C 84.3197 2.43166 -6.38247 0
M  V30 875 O 84.0077 2.29115 -7.70559 0
M  V30 876 H 83.7397 0.479252 -0.476753 0
M  V30 877 H 86.2937 0.924751 -1.83405 0
M  V30 878 H 84.5237 3.47564 -1.69518 0
M  V30 879 H 86.2127 3.46509 -2.11392 0
M  V30 880 H 86.9787 2.26545 -4.28838 0
M  V30 881 H 82.8577 3.11191 -3.40119 0
M  V30 882 H 86.4017 2.0216 -6.67665 0
M  V30 883 H 82.2987 2.87153 -5.78112 0
M  V30 884 H 83.0667 2.44237 -7.81211 0
M  V30 885 N 85.7298 1.2412 0.971189 0
M  V30 886 C 86.9598 1.10415 1.7462 0
M  V30 887 C 87.3678 -0.346462 1.86001 0
M  V30 888 O 86.7108 -1.25104 1.34517 0
M  V30 889 C 86.7728 1.66596 3.18568 0
M  V30 890 C 86.4368 3.15446 3.3067 0
M  V30 891 C 87.4338 4.12636 3.16271 0
M  V30 892 C 85.1188 3.55337 3.55022 0
M  V30 893 C 87.1128 5.47699 3.26044 0
M  V30 894 C 84.7998 4.90542 3.64434 0
M  V30 895 C 85.7978 5.86532 3.49956 0
M  V30 896 O 85.4858 7.19279 3.59017 0
M  V30 897 H 85.2178 0.386616 0.55453 0
M  V30 898 H 87.7718 1.64633 1.22821 0
M  V30 899 H 86.0018 1.06808 3.71657 0
M  V30 900 H 87.6908 1.48232 3.77865 0
M  V30 901 H 88.4568 3.8316 2.97344 0
M  V30 902 H 84.3358 2.8113 3.65359 0
M  V30 903 H 87.8798 6.22603 3.14661 0
M  V30 904 H 83.7768 5.19691 3.82873 0
M  V30 905 H 84.5448 7.27153 3.75754 0
M  V30 906 N 87.2079 -1.17134 1.05439 0
M  V30 907 C 88.1579 -2.1919 0.627675 0
M  V30 908 C 89.1419 -1.57328 -0.337147 0
M  V30 909 O 90.3339 -1.76329 -0.153976 0
M  V30 910 C 87.4629 -3.43299 0.00651435 0
M  V30 911 C 86.5489 -4.12255 0.995312 0
M  V30 912 N 86.9399 -4.56997 2.16765 0
M  V30 913 C 85.2379 -4.38316 0.824336 0
M  V30 914 C 85.9389 -5.10239 2.7934 0
M  V30 915 N 84.9149 -5.02595 2.07122 0
M  V30 916 H 88.7169 -2.5149 1.52086 0
M  V30 917 H 86.2309 -1.33491 0.924868 0
M  V30 918 H 88.2279 -4.15693 -0.316965 0
M  V30 919 H 86.8879 -3.1249 -0.882033 0
M  V30 920 H 87.8989 -4.51006 2.54587 0
M  V30 921 H 84.5759 -4.17498 -0.0129526 0
M  V30 922 H 85.9659 -5.54961 3.78772 0
M  V30 923 N 88.686 -0.835752 -1.33615 0
M  V30 924 C 89.596 -0.269088 -2.33052 0
M  V30 925 C 90.612 0.603251 -1.63208 0
M  V30 926 O 91.788 0.508112 -1.94885 0
M  V30 927 C 88.853 0.549091 -3.42324 0
M  V30 928 C 87.914 -0.347156 -4.27894 0
M  V30 929 C 87.147 0.43207 -5.31948 0
M  V30 930 O 87.37 1.66409 -5.45586 0
M  V30 931 O 86.304 -0.192298 -6.01593 0
M  V30 932 H 90.13 -1.09243 -2.83372 0
M  V30 933 H 87.715 -0.598198 -1.36901 0
M  V30 934 H 89.597 1.01414 -4.09015 0
M  V30 935 H 88.272 1.34955 -2.94226 0
M  V30 936 H 87.179 -0.859979 -3.64081 0
M  V30 937 H 88.512 -1.1123 -4.79467 0
M  V30 938 N 90.1641 1.46063 -0.591896 0
M  V30 939 C 91.0741 2.34192 0.13831 0
M  V30 940 C 92.0901 1.50305 0.876608 0
M  V30 941 O 93.2661 1.8315 0.837728 0
M  V30 942 C 90.3311 3.27656 1.13326 0
M  V30 943 C 89.3921 4.27445 0.39863 0
M  V30 944 C 88.6251 5.16443 1.34618 0
M  V30 945 O 88.8481 5.08553 2.58321 0
M  V30 946 O 87.7821 5.95843 0.851768 0
M  V30 947 H 91.6081 2.98002 -0.58552 0
M  V30 948 H 89.1931 1.45188 -0.352239 0
M  V30 949 H 91.0751 3.85291 1.70671 0
M  V30 950 H 89.7501 2.6643 1.83839 0
M  V30 951 H 88.6571 3.73471 -0.216895 0
M  V30 952 H 89.9901 4.91482 -0.265709 0
M  V30 953 N 91.6422 0.330177 1.54103 0
M  V30 954 C 92.5522 -0.541534 2.28264 0
M  V30 955 C 93.5682 -1.12351 1.32866 0
M  V30 956 O 94.7442 -1.14206 1.65888 0
M  V30 957 C 91.8092 -1.68322 3.03098 0
M  V30 958 C 90.8702 -1.13238 4.14096 0
M  V30 959 C 90.1032 -2.21966 4.85352 0
M  V30 960 O 90.3262 -3.42437 4.56172 0
M  V30 961 O 89.2602 -1.87013 5.7211 0
M  V30 962 H 93.0862 0.060938 3.03639 0
M  V30 963 H 90.6712 0.09565 1.49093 0
M  V30 964 H 92.5532 -2.34777 3.49939 0
M  V30 965 H 91.2282 -2.27176 2.30593 0
M  V30 966 H 90.1352 -0.432736 3.71589 0
M  V30 967 H 91.4682 -0.588898 4.88664 0
M  V30 968 N 93.1203 -1.57491 0.0584922 0
M  V30 969 C 94.0503 -2.14988 -0.911178 0
M  V30 970 C 95.0313 -1.07343 -1.31952 0
M  V30 971 O 96.2163 -1.35318 -1.39294 0
M  V30 972 C 93.3463 -2.70078 -2.18347 0
M  V30 973 C 92.3003 -3.82771 -1.91495 0
M  V30 974 C 91.6263 -4.24408 -3.25241 0
M  V30 975 C 92.9263 -5.07592 -1.23075 0
M  V30 976 H 94.6203 -2.96263 -0.432246 0
M  V30 977 H 92.1663 -1.42512 -0.206469 0
M  V30 978 H 94.1193 -3.08943 -2.86587 0
M  V30 979 H 92.8433 -1.86005 -2.68458 0
M  V30 980 H 91.5023 -3.44389 -1.25664 0
M  V30 981 H 91.1503 -3.37275 -3.73168 0
M  V30 982 H 90.8503 -5.00366 -3.08071 0
M  V30 983 H 92.3743 -4.65879 -3.94701 0
M  V30 984 H 93.7883 -5.43857 -1.81362 0
M  V30 985 H 92.1853 -5.88741 -1.16207 0
M  V30 986 H 93.2553 -4.84454 -0.207847 0
M  V30 987 N 94.5984 0.214957 -1.56127 0
M  V30 988 C 95.5084 1.28727 -1.96129 0
M  V30 989 C 96.5244 1.50916 -0.866044 0
M  V30 990 O 97.7004 1.63918 -1.17016 0
M  V30 991 C 94.7654 2.61569 -2.27558 0
M  V30 992 C 93.8264 2.47625 -3.50685 0
M  V30 993 C 93.0594 3.74132 -3.80606 0
M  V30 994 O 93.2824 4.77438 -3.12104 0
M  V30 995 O 92.2164 3.70849 -4.74083 0
M  V30 996 H 96.0424 0.977855 -2.87527 0
M  V30 997 H 93.6274 0.418358 -1.43423 0
M  V30 998 H 95.5094 3.40012 -2.48938 0
M  V30 999 H 94.1844 2.92178 -1.39332 0
M  V30 1000 H 93.0914 1.67361 -3.34576 0
M  V30 1001 H 94.4244 2.21954 -4.39315 0
M  V30 1002 N 96.0765 1.50051 0.48192 0
M  V30 1003 C 97.3015 1.64508 1.26301 0
M  V30 1004 C 97.7265 0.323851 1.85291 0
M  V30 1005 O 97.0845 -0.710969 1.66778 0
M  V30 1006 C 97.1325 2.7305 2.35533 0
M  V30 1007 O 96.2365 2.3355 3.39895 0
M  V30 1008 H 95.5775 0.549978 0.372048 0
M  V30 1009 H 98.1075 1.9636 0.574786 0
M  V30 1010 H 98.1175 2.95799 2.8101 0
M  V30 1011 H 96.7925 3.68946 1.91967 0
M  V30 1012 H 95.3695 2.21205 3.00204 0
M  V30 1013 N 97.5546 -0.734337 1.39446 0
M  V30 1014 C 98.5176 -1.83004 1.37994 0
M  V30 1015 C 99.5176 -1.58397 0.276938 0
M  V30 1016 O 100.708 -1.65785 0.534875 0
M  V30 1017 C 97.8396 -3.20802 1.1532 0
M  V30 1018 H 99.0326 -1.85694 2.35494 0
M  V30 1019 H 96.5856 -0.938059 1.25021 0
M  V30 1020 H 97.3206 -3.23772 0.185036 0
M  V30 1021 H 97.1056 -3.4006 1.95197 0
M  V30 1022 H 98.5956 -4.00862 1.17046 0
M  V30 1023 N 99.0327 -1.24633 -0.964593 0
M  V30 1024 C 99.9627 -1.06611 -2.07741 0
M  V30 1025 C 100.944 0.0218666 -1.70086 0
M  V30 1026 O 102.129 -0.145793 -1.93652 0
M  V30 1027 C 99.2587 -0.673444 -3.40708 0
M  V30 1028 C 98.2127 -1.71054 -3.92332 0
M  V30 1029 C 97.5387 -1.17285 -5.21678 0
M  V30 1030 C 98.8387 -3.10718 -4.19824 0
M  V30 1031 H 100.533 -1.99693 -2.23076 0
M  V30 1032 H 98.0787 -0.96152 -1.07195 0
M  V30 1033 H 100.032 -0.534345 -4.17998 0
M  V30 1034 H 98.7557 0.293073 -3.25282 0
M  V30 1035 H 97.4147 -1.83791 -3.17201 0
M  V30 1036 H 97.0627 -0.196847 -5.02615 0
M  V30 1037 H 96.7627 -1.86592 -5.57187 0
M  V30 1038 H 98.2867 -1.04593 -6.01575 0
M  V30 1039 H 99.7007 -3.01192 -4.87808 0
M  V30 1040 H 98.0977 -3.77406 -4.66567 0
M  V30 1041 H 99.1677 -3.58524 -3.26479 0
M  V30 1042 N 100.511 1.16574 -1.06058 0
M  V30 1043 C 101.927 1.3904 -0.783585 0
M  V30 1044 C 102.127 1.91784 0.618145 0
M  V30 1045 O 101.183 2.11511 1.37911 0
M  V30 1046 C 102.496 2.37329 -1.84649 0
M  V30 1047 C 104.044 2.51018 -1.86973 0
M  V30 1048 C 104.519 3.52588 -2.92311 0
M  V30 1049 N 106.01 3.60113 -2.91329 0
M  V30 1050 C 106.745 4.38486 -3.69482 0
M  V30 1051 N 106.241 5.20302 -4.57447 0
M  V30 1052 N 108.034 4.33446 -3.57885 0
M  V30 1053 H 100.185 0.806725 -1.96483 0
M  V30 1054 H 102.448 0.417117 -0.851303 0
M  V30 1055 H 102.154 2.05663 -2.85299 0
M  V30 1056 H 102.028 3.36946 -1.6955 0
M  V30 1057 H 104.415 2.81989 -0.869827 0
M  V30 1058 H 104.496 1.51445 -2.0615 0
M  V30 1059 H 104.14 3.22354 -3.92492 0
M  V30 1060 H 104.07 4.51886 -2.70383 0
M  V30 1061 H 106.561 3.01707 -2.27555 0
M  V30 1062 H 106.874 5.77311 -5.13743 0
M  V30 1063 H 105.219 5.19653 -4.61503 0
M  V30 1064 H 108.41 3.68586 -2.88551 0
M  V30 1065 H 108.583 4.94279 -4.19037 0
M  V30 1066 N 101.989 0.842826 1.3317 0
M  V30 1067 C 102.899 0.281444 2.32906 0
M  V30 1068 C 103.915 -0.594587 1.63526 0
M  V30 1069 O 105.091 -0.49777 1.95152 0
M  V30 1070 C 102.156 -0.530929 3.42611 0
M  V30 1071 C 101.217 0.369843 4.27704 0
M  V30 1072 C 100.45 -0.403853 5.3217 0
M  V30 1073 O 100.673 -1.63513 5.46461 0
M  V30 1074 O 99.6069 0.224199 6.01482 0
M  V30 1075 H 103.433 1.10744 2.82789 0
M  V30 1076 H 101.018 0.60545 1.36582 0
M  V30 1077 H 102.9 -0.992437 4.09547 0
M  V30 1078 H 101.575 -1.33392 2.94938 0
M  V30 1079 H 100.482 0.879275 3.6362 0
M  V30 1080 H 101.815 1.13771 4.78871 0
M  V30 1081 N 103.467 -1.45747 0.599634 0
M  V30 1082 C 104.43 -2.28917 -0.113835 0
M  V30 1083 C 105.43 -1.3933 -0.802729 0
M  V30 1084 O 106.62 -1.61534 -0.652103 0
M  V30 1085 C 103.752 -3.20152 -1.17114 0
M  V30 1086 H 104.945 -2.93478 0.617289 0
M  V30 1087 H 102.498 -1.52137 0.358327 0
M  V30 1088 H 103.233 -2.60374 -1.93329 0
M  V30 1089 H 103.018 -3.86133 -0.681468 0
M  V30 1090 H 104.508 -3.82708 -1.67105 0
M  V30 1091 N 104.945 -0.338344 -1.53925 0
M  V30 1092 C 105.908 0.508299 -2.23493 0
M  V30 1093 C 106.908 1.03175 -1.23335 0
M  V30 1094 O 108.098 0.921826 -1.47811 0
M  V30 1095 C 105.23 1.70754 -2.95052 0
M  V30 1096 H 106.423 -0.100058 -2.99733 0
M  V30 1097 H 103.976 -0.0896198 -1.56043 0
M  V30 1098 H 104.711 2.35474 -2.22986 0
M  V30 1099 H 104.496 1.33946 -3.68512 0
M  V30 1100 H 105.986 2.30818 -3.48013 0
M  V30 1101 N 106.423 1.57458 -0.0668435 0
M  V30 1102 C 107.386 2.11323 0.887422 0
M  V30 1103 C 108.386 1.03618 1.22964 0
M  V30 1104 O 109.576 1.29626 1.16373 0
M  V30 1105 C 106.708 2.61048 2.19242 0
M  V30 1106 H 107.901 2.96942 0.420194 0
M  V30 1107 H 105.454 1.55239 0.181793 0
M  V30 1108 H 106.189 1.78868 2.70512 0
M  V30 1109 H 105.974 3.39769 1.95702 0
M  V30 1110 H 107.464 3.02814 2.87565 0
M  V30 1111 N 107.901 -0.206675 1.56239 0
M  V30 1112 C 108.864 -1.23976 1.92776 0
M  V30 1113 C 109.864 -1.39041 0.807729 0
M  V30 1114 O 111.054 -1.37051 1.0753 0
M  V30 1115 C 108.186 -2.61112 2.19165 0
M  V30 1116 H 109.379 -0.927764 2.85189 0
M  V30 1117 H 106.932 -0.447718 1.4975 0
M  V30 1118 H 107.667 -2.97386 1.29352 0
M  V30 1119 H 107.452 -2.51552 3.00772 0
M  V30 1120 H 108.942 -3.35633 2.48476 0
M  V30 1121 N 109.379 -1.50304 -0.473955 0
M  V30 1122 C 110.627 -1.60832 -1.22382 0
M  V30 1123 C 110.948 -0.30939 -1.9253 0
M  V30 1124 O 110.218 0.67296 -1.83978 0
M  V30 1125 H 108.798 -0.592652 -0.454723 0
M  V30 1126 H 111.46 -1.87068 -0.546968 0
M  V30 1127 H 110.556 -2.41803 -1.97327 0
M  V30 1128 N 110.857 0.726932 -1.39834 0
M  V30 1129 C 111.787 1.85405 -1.41941 0
M  V30 1130 C 112.768 1.67751 -0.281728 0
M  V30 1131 O 113.953 1.8795 -0.488717 0
M  V30 1132 C 111.083 3.23243 -1.2701 0
M  V30 1133 C 110.037 3.55549 -2.38262 0
M  V30 1134 C 109.363 4.9241 -2.08415 0
M  V30 1135 C 110.663 3.577 -3.80589 0
M  V30 1136 H 112.357 1.83899 -2.36266 0
M  V30 1137 H 109.903 0.883349 -1.13723 0
M  V30 1138 H 111.856 4.01775 -1.27103 0
M  V30 1139 H 110.58 3.25296 -0.291564 0
M  V30 1140 H 109.239 2.79351 -2.37399 0
M  V30 1141 H 108.887 4.91052 -1.0898 0
M  V30 1142 H 108.587 5.14992 -2.82943 0
M  V30 1143 H 110.111 5.73289 -2.10171 0
M  V30 1144 H 111.525 4.26293 -3.83337 0
M  V30 1145 H 109.922 3.91804 -4.54543 0
M  V30 1146 H 110.992 2.57328 -4.10987 0
M  V30 1147 N 112.336 1.25143 0.95797 0
M  V30 1148 C 113.747 1.08851 1.51685 0
M  V30 1149 C 114.098 -0.33687 1.93286 0
M  V30 1150 O 113.223 -1.22644 1.7829 0
M  V30 1151 C 113.818 1.96978 2.75654 0
M  V30 1152 C 112.377 1.84881 3.27866 0
M  V30 1153 C 111.524 1.91329 2.0072 0
M  V30 1154 H 114.475 1.38478 0.77522 0
M  V30 1155 H 114.496 1.5078 3.4935 0
M  V30 1156 H 114.008 3.00712 2.45345 0
M  V30 1157 H 112.109 0.840182 3.63004 0
M  V30 1158 H 112.222 2.6951 3.96107 0
M  V30 1159 H 110.586 1.35174 2.15871 0
M  V30 1160 H 111.369 2.96661 1.72764 0
M  V30 1161 N 113.814 -1.1601 1.06675 0
M  V30 1162 C 115.062 -1.86264 0.784229 0
M  V30 1163 C 115.383 -1.82328 -0.691488 0
M  V30 1164 O 114.653 -1.25947 -1.50047 0
M  V30 1165 H 113.233 -0.689621 0.28711 0
M  V30 1166 H 115.895 -1.40664 1.34906 0
M  V30 1167 H 114.991 -2.91595 1.11259 0
M  V30 1168 N 115.292 -0.849877 -1.32721 0
M  V30 1169 C 116.222 -0.306308 -2.31482 0
M  V30 1170 C 117.203 0.591952 -1.59468 0
M  V30 1171 O 118.388 0.513199 -1.87296 0
M  V30 1172 C 115.518 0.510204 -3.43532 0
M  V30 1173 C 114.472 -0.293209 -4.26994 0
M  V30 1174 C 113.798 0.647743 -5.30762 0
M  V30 1175 C 115.098 -1.51634 -4.99804 0
M  V30 1176 H 116.792 -1.13153 -2.77195 0
M  V30 1177 H 114.338 -0.545553 -1.33266 0
M  V30 1178 H 116.291 0.900856 -4.11658 0
M  V30 1179 H 115.015 1.36874 -2.96535 0
M  V30 1180 H 113.674 -0.665555 -3.60508 0
M  V30 1181 H 113.322 1.50299 -4.8002 0
M  V30 1182 H 113.022 0.11422 -5.87489 0
M  V30 1183 H 114.546 1.03567 -6.01753 0
M  V30 1184 H 115.96 -1.19824 -5.60638 0
M  V30 1185 H 114.357 -1.98745 -5.66234 0
M  V30 1186 H 115.427 -2.28018 -4.27943 0
M  V30 1187 N 116.77 1.45427 -0.607355 0
M  V30 1188 C 117.733 2.28974 0.101693 0
M  V30 1189 C 118.733 1.39754 0.795329 0
M  V30 1190 O 119.923 1.61878 0.643527 0
M  V30 1191 C 117.055 3.20768 1.15414 0
M  V30 1192 H 118.248 2.93147 -0.632844 0
M  V30 1193 H 115.801 1.51945 -0.366391 0
M  V30 1194 H 116.536 2.61395 1.91945 0
M  V30 1195 H 116.321 3.86489 0.66098 0
M  V30 1196 H 117.811 3.83589 1.65073 0
M  V30 1197 N 118.248 0.346503 1.53744 0
M  V30 1198 C 119.664 -0.00530975 1.59599 0
M  V30 1199 C 119.864 -1.48465 1.36236 0
M  V30 1200 O 118.92 -2.24376 1.15808 0
M  V30 1201 C 120.233 0.433516 2.97559 0
M  V30 1202 C 121.781 0.386111 3.10609 0
M  V30 1203 C 122.256 0.800451 4.50951 0
M  V30 1204 N 123.747 0.754753 4.5701 0
M  V30 1205 C 124.482 1.04727 5.63755 0
M  V30 1206 N 123.978 1.4081 6.7834 0
M  V30 1207 N 125.771 0.971316 5.53644 0
M  V30 1208 H 117.922 1.31009 1.67184 0
M  V30 1209 H 120.185 0.534242 0.783128 0
M  V30 1210 H 119.891 1.46509 3.19731 0
M  V30 1211 H 119.765 -0.189753 3.76722 0
M  V30 1212 H 122.152 -0.636295 2.88158 0
M  V30 1213 H 122.233 1.04462 2.33498 0
M  V30 1214 H 121.877 1.82088 4.74137 0
M  V30 1215 H 121.807 0.119386 5.26465 0
M  V30 1216 H 124.298 0.488662 3.74727 0
M  V30 1217 H 124.611 1.61607 7.55714 0
M  V30 1218 H 122.956 1.44657 6.79779 0
M  V30 1219 H 126.147 0.688748 4.63005 0
M  V30 1220 H 126.32 1.20263 6.36742 0
M  V30 1221 N 119.726 -1.57421 0.075193 0
M  V30 1222 C 120.656 -2.15942 -0.888324 0
M  V30 1223 C 121.637 -1.08737 -1.30806 0
M  V30 1224 O 122.822 -1.36787 -1.37851 0
M  V30 1225 C 119.952 -2.72379 -2.1547 0
M  V30 1226 C 118.906 -3.8478 -1.87425 0
M  V30 1227 C 118.232 -4.27834 -3.20721 0
M  V30 1228 C 119.532 -5.08869 -1.17684 0
M  V30 1229 H 121.226 -2.96705 -0.400799 0
M  V30 1230 H 118.772 -1.42723 -0.191342 0
M  V30 1231 H 120.725 -3.11965 -2.83295 0
M  V30 1232 H 119.449 -1.88841 -2.6647 0
M  V30 1233 H 118.108 -3.45703 -1.22004 0
M  V30 1234 H 117.756 -3.41214 -3.6957 0
M  V30 1235 H 117.456 -5.03605 -3.02746 0
M  V30 1236 H 118.98 -4.70039 -3.89738 0
M  V30 1237 H 120.394 -5.4575 -1.75584 0
M  V30 1238 H 118.791 -5.8994 -1.09956 0
M  V30 1239 H 119.861 -4.84648 -0.156453 0
M  V30 1240 N 121.204 0.198386 -1.56346 0
M  V30 1241 C 122.451 0.919286 -1.80431 0
M  V30 1242 C 122.779 1.83393 -0.647866 0
M  V30 1243 O 122.034 1.92236 0.366556 0
M  V30 1244 C 122.333 1.77031 -3.10475 0
M  V30 1245 C 121.999 1.00693 -4.39513 0
M  V30 1246 C 120.661 0.796145 -4.74568 0
M  V30 1247 C 123.013 0.469559 -5.19081 0
M  V30 1248 C 120.341 0.0364588 -5.86689 0
M  V30 1249 C 122.693 -0.2769 -6.31994 0
M  V30 1250 C 121.357 -0.49873 -6.65634 0
M  V30 1251 H 120.627 0.336391 -0.660244 0
M  V30 1252 H 123.274 0.185872 -1.90596 0
M  V30 1253 H 121.579 2.5723 -2.95533 0
M  V30 1254 H 123.276 2.33065 -3.26315 0
M  V30 1255 H 119.866 1.18122 -4.12001 0
M  V30 1256 H 124.05 0.619816 -4.92414 0
M  V30 1257 H 119.306 -0.145412 -6.11227 0
M  V30 1258 H 123.48 -0.700684 -6.92866 0
M  V30 1259 H 121.107 -1.0893 -7.52355 0
M  V30 1260 N 122.682 1.50554 0.465978 0
M  V30 1261 C 123.907 1.65838 1.24549 0
M  V30 1262 C 124.332 0.343486 1.84937 0
M  V30 1263 O 123.69 -0.69324 1.67523 0
M  V30 1264 C 123.738 2.75533 2.32624 0
M  V30 1265 O 122.842 2.37142 3.37398 0
M  V30 1266 H 122.183 0.553893 0.366194 0
M  V30 1267 H 124.713 1.96959 0.553927 0
M  V30 1268 H 124.723 2.98763 2.77857 0
M  V30 1269 H 123.398 3.70962 1.88043 0
M  V30 1270 H 121.975 2.24377 2.97841 0
M  V30 1271 N 124.16 -0.719506 1.40217 0
M  V30 1272 C 125.409 -1.47486 1.37589 0
M  V30 1273 C 125.722 -1.9559 -0.0201568 0
M  V30 1274 O 126.928 -2.70973 -0.169049 0
M  V30 1275 C 125.384 -2.66575 2.41796 0
M  V30 1276 C 124.992 -2.25358 3.87192 0
M  V30 1277 C 126.736 -3.4433 2.48269 0
M  V30 1278 C 124.643 -3.41262 4.83005 0
M  V30 1279 H 123.573 -0.553901 0.511576 0
M  V30 1280 H 126.224 -0.783427 1.65936 0
M  V30 1281 H 124.606 -3.3787 2.06543 0
M  V30 1282 H 125.78 -1.61509 4.31569 0
M  V30 1283 H 124.095 -1.60657 3.84159 0
M  V30 1284 H 126.692 -4.30569 3.17041 0
M  V30 1285 H 127.035 -3.87872 1.51198 0
M  V30 1286 H 127.568 -2.80076 2.82493 0
M  V30 1287 H 124.307 -3.02755 5.81394 0
M  V30 1288 H 123.827 -4.0404 4.43297 0
M  V30 1289 H 125.506 -4.07383 5.02641 0
M  V30 1290 N 125.638 -1.25649 -0.95132 0
M  V30 1291 C 126.886 -1.10375 -1.69298 0
M  V30 1292 C 127.207 0.355339 -1.91735 0
M  V30 1293 O 126.477 1.25188 -1.50681 0
M  V30 1294 H 125.057 -0.405461 -0.627384 0
M  V30 1295 H 127.719 -1.57823 -1.14358 0
M  V30 1296 H 126.815 -1.61465 -2.67087 0
M  V30 1297 N 127.117 1.15442 -1.07289 0
M  V30 1298 C 128.533 1.38201 -0.798288 0
M  V30 1299 C 128.733 1.92429 0.597769 0
M  V30 1300 O 127.789 2.12962 1.3566 0
M  V30 1301 C 129.102 2.35357 -1.87156 0
M  V30 1302 C 130.65 2.49021 -1.89624 0
M  V30 1303 C 131.125 3.49468 -2.96034 0
M  V30 1304 N 132.616 3.57003 -2.95132 0
M  V30 1305 C 133.351 4.34543 -3.74112 0
M  V30 1306 N 132.847 5.15421 -4.6294 0
M  V30 1307 N 134.64 4.29625 -3.62462 0
M  V30 1308 H 126.791 0.78584 -1.97328 0
M  V30 1309 H 129.054 0.408065 -0.855679 0
M  V30 1310 H 128.76 2.02626 -2.87464 0
M  V30 1311 H 128.634 3.35129 -1.73114 0
M  V30 1312 H 131.021 2.81051 -0.899687 0
M  V30 1313 H 131.102 1.4925 -2.07745 0
M  V30 1314 H 130.746 3.18173 -3.95889 0
M  V30 1315 H 130.676 4.48992 -2.75161 0
M  V30 1316 H 133.167 2.99276 -2.30743 0
M  V30 1317 H 133.48 5.7183 -5.19837 0
M  V30 1318 H 131.825 5.14729 -4.66989 0
M  V30 1319 H 135.016 3.65505 -2.92444 0
M  V30 1320 H 135.189 4.89807 -4.24256 0
M  V30 1321 N 128.595 0.856903 1.32268 0
M  V30 1322 C 129.82 0.474569 2.01897 0
M  V30 1323 C 130.245 -0.921766 1.63967 0
M  V30 1324 O 129.603 -1.60589 0.84148 0
M  V30 1325 C 129.651 0.623799 3.55164 0
M  V30 1326 O 128.755 -0.342459 4.10976 0
M  V30 1327 H 128.096 0.190422 0.63611 0
M  V30 1328 H 130.626 1.15672 1.68764 0
M  V30 1329 H 130.636 0.512169 4.04773 0
M  V30 1330 H 129.311 1.64202 3.82113 0
M  V30 1331 H 127.888 -0.18688 3.72431 0
M  V30 1332 N 130.073 -1.45103 0.615059 0
M  V30 1333 C 131.319 -2.02483 0.113347 0
M  V30 1334 C 131.652 -1.48146 -1.25564 0
M  V30 1335 O 130.927 -0.659104 -1.82992 0
M  V30 1336 C 131.21 -3.60005 0.0825278 0
M  V30 1337 C 131.063 -4.2466 1.48271 0
M  V30 1338 C 132.382 -4.35972 -0.601401 0
M  V30 1339 H 129.501 -0.735764 0.0426632 0
M  V30 1340 H 132.143 -1.72868 0.788461 0
M  V30 1341 H 130.293 -3.85367 -0.492378 0
M  V30 1342 H 131.965 -4.10458 2.10527 0
M  V30 1343 H 130.208 -3.82772 2.04127 0
M  V30 1344 H 130.879 -5.336 1.41332 0
M  V30 1345 H 133.355 -4.15947 -0.112666 0
M  V30 1346 H 132.231 -5.45697 -0.592097 0
M  V30 1347 H 132.492 -4.09391 -1.66887 0
M  V30 1348 N 131.551 -0.354651 -1.53558 0
M  V30 1349 C 132.461 0.50515 -2.29097 0
M  V30 1350 C 133.477 1.10223 -1.34636 0
M  V30 1351 O 134.653 1.11553 -1.67684 0
M  V30 1352 C 131.718 1.63479 -3.05738 0
M  V30 1353 C 130.779 1.06636 -4.15845 0
M  V30 1354 C 130.012 2.14217 -4.88822 0
M  V30 1355 O 130.235 3.35137 -4.61562 0
M  V30 1356 O 129.169 1.77887 -5.75013 0
M  V30 1357 H 132.995 -0.109237 -3.03503 0
M  V30 1358 H 130.58 -0.119357 -1.48922 0
M  V30 1359 H 132.462 2.2918 -3.5363 0
M  V30 1360 H 131.137 2.23478 -2.34178 0
M  V30 1361 H 130.044 0.373565 -3.7223 0
M  V30 1362 H 131.377 0.511081 -4.89539 0
M  V30 1363 N 133.029 1.57378 -0.0835403 0
M  V30 1364 C 134.277 1.93547 0.581718 0
M  V30 1365 C 134.598 0.96524 1.69435 0
M  V30 1366 O 133.868 0.0153369 1.95894 0
M  V30 1367 H 132.448 0.714521 0.217874 0
M  V30 1368 H 135.11 1.94366 -0.144158 0
M  V30 1369 H 134.206 2.95665 0.999423 0
M  V30 1370 N 134.507 -0.190092 1.56449 0
M  V30 1371 C 135.923 -0.54113 1.50146 0
M  V30 1372 C 136.123 -1.85603 0.784465 0
M  V30 1373 O 135.179 -2.5024 0.337051 0
M  V30 1374 C 136.492 -0.591241 2.9483 0
M  V30 1375 C 138.04 -0.679732 3.0553 0
M  V30 1376 C 138.515 -0.760908 4.51635 0
M  V30 1377 N 140.006 -0.824302 4.55806 0
M  V30 1378 C 140.741 -0.907365 5.66175 0
M  V30 1379 N 140.237 -0.952422 6.86222 0
M  V30 1380 N 142.03 -0.94494 5.541 0
M  V30 1381 H 134.181 0.67235 2.01478 0
M  V30 1382 H 136.444 0.240127 0.917084 0
M  V30 1383 H 136.15 0.305905 3.50367 0
M  V30 1384 H 136.024 -1.44422 3.48457 0
M  V30 1385 H 138.411 -1.56731 2.50039 0
M  V30 1386 H 138.492 0.199549 2.5502 0
M  V30 1387 H 138.136 0.122336 5.07753 0
M  V30 1388 H 138.066 -1.65606 4.99882 0
M  V30 1389 H 140.557 -0.798526 3.69367 0
M  V30 1390 H 140.87 -1.01645 7.66086 0
M  V30 1391 H 139.215 -0.921014 6.8887 0
M  V30 1392 H 142.406 -0.906612 4.59236 0
M  V30 1393 H 142.579 -1.00622 6.4014 0
M  V30 1394 N 135.985 -1.50799 -0.457987 0
M  V30 1395 C 137.396 -1.55152 -1.0385 0
M  V30 1396 C 137.747 -0.362719 -1.92818 0
M  V30 1397 O 136.872 0.522915 -2.09987 0
M  V30 1398 C 137.467 -2.81173 -1.89017 0
M  V30 1399 C 136.026 -2.88164 -2.42154 0
M  V30 1400 C 135.173 -2.49591 -1.20829 0
M  V30 1401 H 138.124 -1.56874 -0.240068 0
M  V30 1402 H 138.145 -2.63769 -2.74238 0
M  V30 1403 H 137.657 -3.67677 -1.24238 0
M  V30 1404 H 135.758 -2.06042 -3.10447 0
M  V30 1405 H 135.871 -3.91356 -2.76364 0
M  V30 1406 H 134.235 -2.02322 -1.54719 0
M  V30 1407 H 135.018 -3.38418 -0.576927 0
M  V30 1408 N 137.463 0.71206 -1.40597 0
M  V30 1409 C 138.393 1.83889 -1.43899 0
M  V30 1410 C 139.374 1.67442 -0.299504 0
M  V30 1411 O 140.559 1.87421 -0.508624 0
M  V30 1412 C 137.689 3.21877 -1.30431 0
M  V30 1413 C 136.643 3.53002 -2.42019 0
M  V30 1414 C 135.969 4.90172 -2.13626 0
M  V30 1415 C 137.269 3.53643 -3.84362 0
M  V30 1416 H 138.963 1.81383 -2.38203 0
M  V30 1417 H 136.509 0.871237 -1.14654 0
M  V30 1418 H 138.462 4.00404 -1.31357 0
M  V30 1419 H 137.186 3.24968 -0.326049 0
M  V30 1420 H 135.845 2.76818 -2.40349 0
M  V30 1421 H 135.493 4.89869 -1.14182 0
M  V30 1422 H 135.193 5.11962 -2.88389 0
M  V30 1423 H 136.717 5.71028 -2.1624 0
M  V30 1424 H 138.131 4.22203 -3.87837 0
M  V30 1425 H 136.528 3.86961 -4.58673 0
M  V30 1426 H 137.598 2.52954 -4.13693 0
M  V30 1427 N 138.941 1.26152 0.944643 0
M  V30 1428 C 140.187 1.12665 1.69346 0
M  V30 1429 C 140.542 -0.3273 1.89596 0
M  V30 1430 O 139.835 -1.23717 1.46303 0
M  V30 1431 C 140.029 1.82541 3.07268 0
M  V30 1432 C 139.858 3.34582 3.00475 0
M  V30 1433 C 138.628 4.03863 3.03681 0
M  V30 1434 C 140.826 4.30828 2.80877 0
M  V30 1435 N 138.808 5.42603 2.87151 0
M  V30 1436 C 140.179 5.5672 2.7288 0
M  V30 1437 C 142.234 4.21122 2.65633 0
M  V30 1438 C 140.937 6.74013 2.51196 0
M  V30 1439 C 142.963 5.38118 2.45323 0
M  V30 1440 C 142.325 6.62955 2.38055 0
M  V30 1441 H 138.424 0.467041 0.627214 0
M  V30 1442 H 141.008 1.59391 1.11815 0
M  V30 1443 H 139.179 1.38296 3.62945 0
M  V30 1444 H 140.911 1.61708 3.70989 0
M  V30 1445 H 137.666 3.55198 3.1326 0
M  V30 1446 H 138.09 6.15443 2.82063 0
M  V30 1447 H 142.732 3.25344 2.70021 0
M  V30 1448 H 140.45 7.6989 2.4555 0
M  V30 1449 H 144.036 5.32475 2.34439 0
M  V30 1450 H 142.916 7.51959 2.22546 0
M  V30 1451 N 140.419 -1.14872 1.07899 0
M  V30 1452 C 141.665 -1.86064 0.806725 0
M  V30 1453 C 141.998 -1.82434 -0.665706 0
M  V30 1454 O 141.273 -1.25138 -1.48899 0
M  V30 1455 C 141.556 -3.34929 1.32267 0
M  V30 1456 C 141.409 -3.47161 2.86006 0
M  V30 1457 C 142.728 -4.29863 0.943717 0
M  V30 1458 H 139.847 -0.675591 0.294526 0
M  V30 1459 H 142.489 -1.34925 1.33773 0
M  V30 1460 H 140.639 -3.78611 0.870974 0
M  V30 1461 H 142.311 -3.12302 3.39507 0
M  V30 1462 H 140.554 -2.88539 3.23925 0
M  V30 1463 H 141.225 -4.51777 3.17177 0
M  V30 1464 H 143.701 -3.9417 1.33302 0
M  V30 1465 H 142.577 -5.32494 1.33198 0
M  V30 1466 H 142.838 -4.41846 -0.149796 0
M  V30 1467 N 141.898 -0.863906 -1.31812 0
M  V30 1468 C 142.828 -0.330843 -2.31144 0
M  V30 1469 C 143.809 0.575005 -1.60087 0
M  V30 1470 O 144.994 0.493304 -1.8783 0
M  V30 1471 C 142.124 0.47374 -3.44054 0
M  V30 1472 C 141.078 -0.338481 -4.26659 0
M  V30 1473 C 140.404 0.591412 -5.31419 0
M  V30 1474 C 141.704 -1.56926 -4.98168 0
M  V30 1475 H 143.398 -1.16086 -2.75979 0
M  V30 1476 H 140.944 -0.559657 -1.32679 0
M  V30 1477 H 142.897 0.857143 -4.12591 0
M  V30 1478 H 141.621 1.33721 -2.9797 0
M  V30 1479 H 140.28 -0.703754 -3.59782 0
M  V30 1480 H 139.928 1.45199 -4.81587 0
M  V30 1481 H 139.628 0.0519022 -5.87577 0
M  V30 1482 H 141.152 0.97179 -6.02817 0
M  V30 1483 H 142.566 -1.25764 -5.59336 0
M  V30 1484 H 140.963 -2.04739 -5.64094 0
M  V30 1485 H 142.033 -2.32544 -4.25501 0
M  V30 1486 N 143.376 1.44774 -0.622745 0
M  V30 1487 C 144.792 1.56986 -0.287652 0
M  V30 1488 C 144.992 1.61167 1.20944 0
M  V30 1489 O 144.048 1.55015 1.99315 0
M  V30 1490 C 145.361 2.84551 -0.972188 0
M  V30 1491 C 146.909 2.9825 -0.949536 0
M  V30 1492 C 147.384 4.28605 -1.61437 0
M  V30 1493 N 148.875 4.35399 -1.58057 0
M  V30 1494 C 149.61 5.34964 -2.064 0
M  V30 1495 N 149.106 6.40981 -2.62897 0
M  V30 1496 N 150.899 5.26419 -1.97078 0
M  V30 1497 H 143.05 1.40304 -1.59463 0
M  V30 1498 H 145.313 0.671794 -0.668878 0
M  V30 1499 H 145.019 2.87417 -2.02693 0
M  V30 1500 H 144.893 3.73807 -0.504771 0
M  V30 1501 H 147.28 2.94941 0.0967067 0
M  V30 1502 H 147.361 2.10364 -1.45536 0
M  V30 1503 H 147.005 4.32672 -2.66002 0
M  V30 1504 H 146.935 5.15334 -1.08344 0
M  V30 1505 H 149.426 3.59397 -1.16801 0
M  V30 1506 H 149.739 7.13225 -2.97539 0
M  V30 1507 H 148.084 6.4169 -2.66943 0
M  V30 1508 H 151.275 4.42504 -1.52669 0
M  V30 1509 H 151.448 6.03861 -2.35066 0
M  V30 1510 N 144.854 0.36279 1.53368 0
M  V30 1511 C 145.784 -0.476976 2.28576 0
M  V30 1512 C 146.765 -1.08631 1.30894 0
M  V30 1513 O 147.95 -1.10409 1.59761 0
M  V30 1514 C 145.08 -1.61828 3.07293 0
M  V30 1515 C 144.034 -1.13633 4.1264 0
M  V30 1516 C 143.36 -2.36766 4.79423 0
M  V30 1517 C 144.66 -0.223061 5.21823 0
M  V30 1518 H 146.354 0.150474 2.99022 0
M  V30 1519 H 143.9 0.0738103 1.43811 0
M  V30 1520 H 145.853 -2.21237 3.58653 0
M  V30 1521 H 144.577 -2.27292 2.34533 0
M  V30 1522 H 143.236 -0.564945 3.62221 0
M  V30 1523 H 142.884 -3.0068 4.03238 0
M  V30 1524 H 142.584 -2.05192 5.50609 0
M  V30 1525 H 144.108 -2.96865 5.33576 0
M  V30 1526 H 145.522 -0.724545 5.68703 0
M  V30 1527 H 143.919 0.001678 6.001 0
M  V30 1528 H 144.989 0.735553 4.79289 0
M  V30 1529 N 146.332 -1.57332 0.0918853 0
M  V30 1530 C 147.56 -1.98574 -0.581048 0
M  V30 1531 C 147.975 -0.970903 -1.61923 0
M  V30 1532 O 147.332 0.0399054 -1.82456 0
M  V30 1533 C 147.383 -3.39872 -1.23164 0
M  V30 1534 O 147.104 -4.37469 -0.234989 0
M  V30 1535 C 148.605 -3.96099 -1.99049 0
M  V30 1536 H 145.825 -0.65261 -0.156018 0
M  V30 1537 H 148.369 -2.0379 0.170225 0
M  V30 1538 H 146.524 -3.35679 -1.93386 0
M  V30 1539 H 146.938 -5.19751 -0.70418 0
M  V30 1540 H 148.412 -4.97127 -2.39934 0
M  V30 1541 H 148.889 -3.3374 -2.85507 0
M  V30 1542 H 149.495 -4.03755 -1.3365 0
M  V30 1543 N 147.81 0.181792 -1.56548 0
M  V30 1544 C 148.773 1.20894 -1.94724 0
M  V30 1545 C 149.773 1.37738 -0.829747 0
M  V30 1546 O 150.963 1.35323 -1.09697 0
M  V30 1547 C 148.095 2.57593 -2.23291 0
M  V30 1548 H 149.288 0.882275 -2.86629 0
M  V30 1549 H 146.841 0.423838 -1.50444 0
M  V30 1550 H 147.576 2.95291 -1.34067 0
M  V30 1551 H 147.361 2.46735 -3.04736 0
M  V30 1552 H 148.851 3.31637 -2.53785 0
M  V30 1553 N 149.288 1.51039 0.449983 0
M  V30 1554 C 150.536 1.62759 1.19808 0
M  V30 1555 C 150.857 0.339981 1.92013 0
M  V30 1556 O 150.127 -0.643606 1.85026 0
M  V30 1557 H 148.707 0.599811 0.445237 0
M  V30 1558 H 151.369 1.87914 0.517138 0
M  V30 1559 H 150.465 2.44911 1.93455 0
M  V30 1560 N 150.766 -0.704594 1.40972 0
M  V30 1561 C 151.696 -1.83124 1.44872 0
M  V30 1562 C 152.677 -1.67281 0.30838 0
M  V30 1563 O 153.862 -1.87149 0.518556 0
M  V30 1564 C 150.992 -3.21181 1.32136 0
M  V30 1565 C 149.946 -3.51714 2.43888 0
M  V30 1566 C 149.272 -4.89032 2.16222 0
M  V30 1567 C 150.572 -3.516 3.86232 0
M  V30 1568 H 152.266 -1.80117 2.39161 0
M  V30 1569 H 149.812 -0.865145 1.15114 0
M  V30 1570 H 151.765 -3.99702 1.33479 0
M  V30 1571 H 150.489 -3.24791 0.343279 0
M  V30 1572 H 149.148 -2.75539 2.41813 0
M  V30 1573 H 148.796 -4.89256 1.16778 0
M  V30 1574 H 148.496 -5.10426 2.911 0
M  V30 1575 H 150.02 -5.69873 2.19265 0
M  V30 1576 H 151.434 -4.2014 3.9007 0
M  V30 1577 H 149.831 -3.84523 4.60719 0
M  V30 1578 H 150.901 -2.50757 4.15029 0
M  V30 1579 N 152.244 -1.26651 -0.937939 0
M  V30 1580 C 153.492 -1.12165 -1.68118 0
M  V30 1581 C 153.813 0.334983 -1.92101 0
M  V30 1582 O 153.083 1.23583 -1.52 0
M  V30 1583 H 151.663 -0.412093 -0.623048 0
M  V30 1584 H 154.325 -1.59027 -1.12678 0
M  V30 1585 H 153.421 -1.64289 -2.6536 0
M  V30 1586 N 153.722 1.14298 -1.08507 0
M  V30 1587 C 154.947 1.8976 -0.837001 0
M  V30 1588 C 155.372 1.78097 0.605228 0
M  V30 1589 O 154.73 1.12188 1.4242 0
M  V30 1590 C 154.778 3.37685 -1.26495 0
M  V30 1591 O 153.882 4.10281 -0.417514 0
M  V30 1592 H 153.223 0.590365 -0.303917 0
M  V30 1593 H 155.753 1.44672 -1.44676 0
M  V30 1594 H 155.763 3.88501 -1.24625 0
M  V30 1595 H 154.438 3.45492 -2.31534 0
M  V30 1596 H 153.015 3.69536 -0.499722 0
M  V30 1597 N 155.201 0.870884 1.31352 0
M  V30 1598 C 156.131 0.343096 2.30966 0
M  V30 1599 C 157.112 -0.566507 1.60389 0
M  V30 1600 O 158.297 -0.483336 1.88089 0
M  V30 1601 C 155.427 -0.455487 3.443 0
M  V30 1602 C 154.381 0.361103 4.26474 0
M  V30 1603 C 153.707 -0.563221 5.31725 0
M  V30 1604 C 155.007 1.59566 4.97329 0
M  V30 1605 H 156.701 1.17548 2.75359 0
M  V30 1606 H 154.247 0.566686 1.32381 0
M  V30 1607 H 156.2 -0.83525 4.13039 0
M  V30 1608 H 154.924 -1.32139 2.98675 0
M  V30 1609 H 153.583 0.722825 3.59403 0
M  V30 1610 H 153.231 -1.42643 4.82351 0
M  V30 1611 H 152.931 -0.0207409 5.87596 0
M  V30 1612 H 154.455 -0.939808 6.03324 0
M  V30 1613 H 155.869 1.28728 5.58661 0
M  V30 1614 H 154.266 2.07728 5.63 0
M  V30 1615 H 155.336 2.34798 4.24262 0
M  V30 1616 N 156.679 -1.44442 0.630414 0
M  V30 1617 C 157.928 -2.01267 0.132073 0
M  V30 1618 C 158.241 -1.50172 -1.25331 0
M  V30 1619 O 159.447 -1.9912 -1.84562 0
M  V30 1620 C 157.903 -3.59422 0.185362 0
M  V30 1621 C 157.511 -4.19514 1.57201 0
M  V30 1622 C 159.255 -4.23724 -0.256553 0
M  V30 1623 C 157.162 -5.69891 1.58045 0
M  V30 1624 H 156.092 -0.752619 0.0456092 0
M  V30 1625 H 158.743 -1.65666 0.789106 0
M  V30 1626 H 157.125 -3.92318 -0.538759 0
M  V30 1627 H 158.299 -3.98156 2.31966 0
M  V30 1628 H 156.614 -3.67496 1.95795 0
M  V30 1629 H 159.211 -5.34019 -0.269767 0
M  V30 1630 H 159.554 -3.96013 -1.28372 0
M  V30 1631 H 160.087 -3.95629 0.41505 0
M  V30 1632 H 156.826 -6.02336 2.58597 0
M  V30 1633 H 156.346 -5.93373 0.875725 0
M  V30 1634 H 158.025 -6.33515 1.31408 0
M  V30 1635 N 158.157 -0.370918 -1.53173 0
M  V30 1636 C 159.568 0.107139 -1.86392 0
M  V30 1637 C 159.919 1.47714 -1.29132 0
M  V30 1638 O 159.044 2.07464 -0.615439 0
M  V30 1639 C 159.639 0.201187 -3.38202 0
M  V30 1640 C 158.198 0.623507 -3.712 0
M  V30 1641 C 157.345 -0.225978 -2.76378 0
M  V30 1642 H 160.296 -0.58951 -1.47345 0
M  V30 1643 H 160.317 1.02377 -3.66468 0
M  V30 1644 H 159.829 -0.796058 -3.79848 0
M  V30 1645 H 157.93 1.62879 -3.35114 0
M  V30 1646 H 158.043 0.394414 -4.77474 0
M  V30 1647 H 156.407 0.305962 -2.52856 0
M  V30 1648 H 157.19 -1.22086 -3.20858 0
M  V30 1649 N 159.635 1.57281 -0.100228 0
M  V30 1650 C 160.545 2.17833 0.870965 0
M  V30 1651 C 161.561 1.14921 1.30649 0
M  V30 1652 O 162.737 1.47313 1.37335 0
M  V30 1653 C 159.802 2.75085 2.1102 0
M  V30 1654 C 158.863 3.9297 1.72838 0
M  V30 1655 C 158.096 4.47482 2.90854 0
M  V30 1656 O 158.319 4.00922 4.05731 0
M  V30 1657 O 157.253 5.38433 2.69023 0
M  V30 1658 H 161.079 3.0124 0.38575 0
M  V30 1659 H 158.664 1.48881 0.124397 0
M  V30 1660 H 160.546 3.11656 2.83634 0
M  V30 1661 H 159.221 1.94721 2.58584 0
M  V30 1662 H 158.128 3.61201 0.973883 0
M  V30 1663 H 159.461 4.74713 1.30033 0
M  V30 1664 N 161.113 -0.173488 1.56642 0
M  V30 1665 C 162.361 -0.888706 1.81512 0
M  V30 1666 C 162.682 -1.82875 0.676872 0
M  V30 1667 O 161.952 -1.93536 -0.303414 0
M  V30 1668 H 160.532 -0.331164 0.669582 0
M  V30 1669 H 163.194 -0.173823 1.94123 0
M  V30 1670 H 162.29 -1.46691 2.75478 0
M  V30 1671 N 162.591 -1.51276 -0.441967 0
M  V30 1672 C 163.868 -1.54252 -1.20273 0
M  V30 1673 C 164.248 -0.30408 -2.08898 0
M  V30 1674 O 163.596 0.711084 -2.17154 0
M  V30 1675 C 163.806 -2.85406 -2.00859 0
M  V30 1676 C 165.154 -3.37181 -2.58059 0
M  V30 1677 O 166.178 -2.86925 -2.11074 0
M  V30 1678 O 165.037 -4.24858 -3.43741 0
M  V30 1679 H 162.131 -0.619969 -0.547328 0
M  V30 1680 H 164.677 -1.63586 -0.451413 0
M  V30 1681 H 163.449 -3.67003 -1.35736 0
M  V30 1682 H 163.072 -2.79213 -2.83065 0
M  V30 1683 N 164.069 0.697108 -1.41344 0
M  V30 1684 C 165.032 1.79281 -1.42797 0
M  V30 1685 C 166.032 1.57607 -0.318837 0
M  V30 1686 O 167.222 1.64309 -0.578642 0
M  V30 1687 C 164.354 3.17632 -1.23785 0
M  V30 1688 H 165.547 1.79385 -2.40335 0
M  V30 1689 H 163.1 0.904582 -1.27464 0
M  V30 1690 H 163.835 3.23167 -0.270814 0
M  V30 1691 H 163.62 3.34765 -2.04144 0
M  V30 1692 H 165.11 3.97617 -1.27633 0
M  V30 1693 N 165.547 1.27147 0.931209 0
M  V30 1694 C 166.795 1.13055 1.6752 0
M  V30 1695 C 167.116 -0.324791 1.92276 0
M  V30 1696 O 166.386 -1.22775 1.52654 0
M  V30 1697 H 164.966 0.415391 0.620854 0
M  V30 1698 H 167.628 1.59623 1.11833 0
M  V30 1699 H 166.724 1.65694 2.64485 0
M  V30 1700 N 167.025 -1.13721 1.09112 0
M  V30 1701 C 168.436 -1.6648 0.845068 0
M  V30 1702 C 168.787 -1.85911 -0.62701 0
M  V30 1703 O 167.912 -1.57556 -1.48341 0
M  V30 1704 C 168.507 -3.02413 1.52748 0
M  V30 1705 C 167.066 -3.52176 1.32849 0
M  V30 1706 C 166.213 -2.27492 1.58564 0
M  V30 1707 H 169.164 -0.976872 1.25072 0
M  V30 1708 H 169.185 -3.68223 0.958752 0
M  V30 1709 H 168.697 -2.88238 2.59885 0
M  V30 1710 H 166.798 -3.7156 0.278137 0
M  V30 1711 H 166.911 -4.32499 2.0611 0
M  V30 1712 H 165.275 -2.33923 1.00758 0
M  V30 1713 H 166.058 -2.15886 2.66924 0
M  V30 1714 N 168.503 -0.877838 -1.30888 0
M  V30 1715 C 169.78 -0.413052 -1.91189 0
M  V30 1716 C 170.16 1.1056 -1.79832 0
M  V30 1717 O 169.508 1.93771 -1.21099 0
M  V30 1718 C 169.718 -0.903191 -3.3711 0
M  V30 1719 C 171.066 -0.93395 -4.14201 0
M  V30 1720 O 172.09 -0.849373 -3.45925 0
M  V30 1721 O 170.949 -1.05772 -5.36167 0
M  V30 1722 H 168.043 -0.125035 -0.817493 0
M  V30 1723 H 170.589 -0.966269 -1.39504 0
M  V30 1724 H 169.361 -1.94692 -3.39427 0
M  V30 1725 H 168.984 -0.328732 -3.96239 0
M  V30 1726 N 169.982 1.44106 -0.638065 0
M  V30 1727 C 170.945 2.29138 0.0531013 0
M  V30 1728 C 171.945 1.41409 0.765506 0
M  V30 1729 O 173.135 1.63206 0.609046 0
M  V30 1730 C 170.267 3.23144 1.08584 0
M  V30 1731 H 171.46 2.91739 -0.694883 0
M  V30 1732 H 169.013 1.51134 -0.398538 0
M  V30 1733 H 169.748 2.65408 1.86357 0
M  V30 1734 H 169.533 3.87804 0.578852 0
M  V30 1735 H 171.023 3.87004 1.56899 0
M  V30 1736 N 171.46 0.379036 1.52974 0
M  V30 1737 C 172.423 -0.448865 2.24762 0
M  V30 1738 C 173.423 -0.998689 1.26027 0
M  V30 1739 O 174.613 -0.882313 1.50203 0
M  V30 1740 C 171.745 -1.62872 2.99476 0
M  V30 1741 H 172.938 0.179491 2.99362 0
M  V30 1742 H 170.491 0.13096 1.5575 0
M  V30 1743 H 171.226 -2.29479 2.29151 0
M  V30 1744 H 171.011 -1.24128 3.71934 0
M  V30 1745 H 172.501 -2.2151 3.5401 0
M  V30 1746 N 172.938 -1.57226 0.108567 0
M  V30 1747 C 174.186 -1.94448 -0.550853 0
M  V30 1748 C 174.507 -0.992074 -1.67878 0
M  V30 1749 O 173.777 -0.0465 -1.95845 0
M  V30 1750 H 172.357 -0.717897 -0.206479 0
M  V30 1751 H 175.019 -1.94112 0.175062 0
M  V30 1752 H 174.115 -2.97218 -0.952259 0
M  V30 1753 N 174.416 0.165178 -1.56732 0
M  V30 1754 C 175.827 0.727046 -1.71962 0
M  V30 1755 C 176.178 1.82508 -0.720078 0
M  V30 1756 O 175.303 2.16082 0.117242 0
M  V30 1757 C 175.898 1.32559 -3.11791 0
M  V30 1758 C 174.457 1.83422 -3.28684 0
M  V30 1759 C 173.604 0.715567 -2.67908 0
M  V30 1760 H 176.555 -0.0602896 -1.58585 0
M  V30 1761 H 176.576 2.19533 -3.10782 0
M  V30 1762 H 176.088 0.526195 -3.84516 0
M  V30 1763 H 174.189 2.65986 -2.60926 0
M  V30 1764 H 174.302 1.97543 -4.36478 0
M  V30 1765 H 172.666 1.13758 -2.27884 0
M  V30 1766 H 173.449 -0.0720836 -3.43224 0
M  V30 1767 N 175.894 1.51508 0.433938 0
M  V30 1768 C 177.171 1.54888 1.19453 0
M  V30 1769 C 177.551 0.315154 2.08734 0
M  V30 1770 O 176.899 -0.699558 2.17528 0
M  V30 1771 C 177.109 2.86467 1.99342 0
M  V30 1772 C 178.457 3.38545 2.56267 0
M  V30 1773 O 179.481 2.88041 2.0955 0
M  V30 1774 O 178.34 4.26675 3.41483 0
M  V30 1775 H 175.434 0.622863 0.544032 0
M  V30 1776 H 177.98 1.63823 0.442732 0
M  V30 1777 H 176.752 3.67718 1.33788 0
M  V30 1778 H 176.375 2.8071 2.8158 0
M  V30 1779 N 177.372 -0.689602 1.41712 0
M  V30 1780 C 178.335 -1.78521 1.43746 0
M  V30 1781 C 179.335 -1.57436 0.327191 0
M  V30 1782 O 180.525 -1.64 0.587348 0
M  V30 1783 C 177.657 -3.16971 1.25467 0
M  V30 1784 H 178.85 -1.78108 2.41283 0
M  V30 1785 H 176.403 -0.89781 1.27942 0
M  V30 1786 H 177.138 -3.23019 0.287948 0
M  V30 1787 H 176.923 -3.33678 2.05917 0
M  V30 1788 H 178.413 -3.96935 1.2974 0
M  V30 1789 N 178.85 -1.27639 -0.924453 0
M  V30 1790 C 179.813 -1.10681 -2.00705 0
M  V30 1791 C 180.813 -0.0497823 -1.60723 0
M  V30 1792 O 182.003 -0.294654 -1.7169 0
M  V30 1793 C 179.135 -0.687164 -3.33902 0
M  V30 1794 H 180.328 -2.06817 -2.17179 0
M  V30 1795 H 177.881 -1.10473 -1.10569 0
M  V30 1796 H 178.616 0.275439 -3.23128 0
M  V30 1797 H 178.401 -1.45061 -3.6428 0
M  V30 1798 H 179.891 -0.590853 -4.13399 0
M  V30 1799 N 180.328 1.1314 -1.09713 0
M  V30 1800 C 181.576 1.84119 -0.833338 0
M  V30 1801 C 181.897 1.84097 0.642904 0
M  V30 1802 O 181.167 1.29881 1.46655 0
M  V30 1803 H 179.747 0.681766 -0.305293 0
M  V30 1804 H 182.409 1.37038 -1.38588 0
M  V30 1805 H 181.505 2.88543 -1.18951 0
M  V30 1806 N 181.806 0.884767 1.30421 0
M  V30 1807 C 183.217 0.553656 1.78302 0
M  V30 1808 C 183.568 -0.930153 1.7275 0
M  V30 1809 O 182.693 -1.72681 1.30423 0
M  V30 1810 C 183.288 0.998234 3.2376 0
M  V30 1811 C 181.847 0.71854 3.69478 0
M  V30 1812 C 180.994 1.18132 2.50879 0
M  V30 1813 H 183.945 1.06901 1.17294 0
M  V30 1814 H 183.966 0.327118 3.79091 0
M  V30 1815 H 183.478 2.0782 3.27769 0
M  V30 1816 H 181.579 -0.349444 3.70958 0
M  V30 1817 H 181.692 1.30595 4.60958 0
M  V30 1818 H 180.056 0.600669 2.47516 0
M  V30 1819 H 180.839 2.26902 2.57624 0
M  V30 1820 N 183.284 -1.43765 0.645699 0
M  V30 1821 C 184.214 -2.33471 -0.0370477 0
M  V30 1822 C 185.195 -1.49042 -0.819779 0
M  V30 1823 O 186.38 -1.77726 -0.782758 0
M  V30 1824 C 183.51 -3.32311 -1.0093 0
M  V30 1825 C 182.464 -4.2667 -0.337201 0
M  V30 1826 C 181.79 -5.1549 -1.42037 0
M  V30 1827 C 183.09 -5.16657 0.765706 0
M  V30 1828 H 184.784 -2.90809 0.712069 0
M  V30 1829 H 182.33 -1.39834 0.343876 0
M  V30 1830 H 184.283 -3.9396 -1.49578 0
M  V30 1831 H 183.007 -2.73213 -1.78948 0
M  V30 1832 H 181.666 -3.66374 0.128771 0
M  V30 1833 H 181.314 -4.52735 -2.1918 0
M  V30 1834 H 181.014 -5.79438 -0.975966 0
M  V30 1835 H 182.538 -5.80012 -1.90838 0
M  V30 1836 H 183.952 -5.72158 0.361702 0
M  V30 1837 H 182.349 -5.89286 1.13413 0
M  V30 1838 H 183.419 -4.56796 1.62683 0
M  V30 1839 N 184.763 -0.387143 -1.52771 0
M  V30 1840 C 185.693 0.440551 -2.29306 0
M  V30 1841 C 186.674 1.06535 -1.32606 0
M  V30 1842 O 187.859 1.07853 -1.61497 0
M  V30 1843 C 184.989 1.56919 -3.09829 0
M  V30 1844 C 183.943 1.07054 -4.14395 0
M  V30 1845 C 183.269 2.29109 -4.83129 0
M  V30 1846 C 184.569 0.140015 -5.22112 0
M  V30 1847 H 186.263 -0.198026 -2.98744 0
M  V30 1848 H 183.809 -0.09668 -1.43675 0
M  V30 1849 H 185.762 2.15503 -3.62128 0
M  V30 1850 H 184.486 2.23532 -2.3812 0
M  V30 1851 H 183.145 0.507247 -3.63074 0
M  V30 1852 H 182.793 2.94227 -4.0797 0
M  V30 1853 H 182.493 1.96406 -5.53804 0
M  V30 1854 H 184.017 2.88339 -5.38231 0
M  V30 1855 H 185.431 0.633978 -5.69784 0
M  V30 1856 H 183.828 -0.0971485 -6.00021 0
M  V30 1857 H 184.898 -0.811711 -4.78058 0
M  V30 1858 N 186.241 1.57166 -0.116904 0
M  V30 1859 C 187.652 1.82169 0.408809 0
M  V30 1860 C 188.003 1.03393 1.66746 0
M  V30 1861 O 187.128 0.269886 2.1471 0
M  V30 1862 C 187.723 3.30429 0.748466 0
M  V30 1863 C 186.282 3.5612 1.21882 0
M  V30 1864 C 185.429 2.76374 0.226452 0
M  V30 1865 H 188.38 1.5497 -0.342063 0
M  V30 1866 H 188.401 3.44943 1.60607 0
M  V30 1867 H 187.913 3.87737 -0.167784 0
M  V30 1868 H 186.014 3.04168 2.15204 0
M  V30 1869 H 186.127 4.64705 1.16559 0
M  V30 1870 H 184.491 2.44515 0.713063 0
M  V30 1871 H 185.274 3.3644 -0.682859 0
M  V30 1872 N 187.719 -0.156864 1.56817 0
M  V30 1873 C 188.967 -0.869404 1.82444 0
M  V30 1874 C 189.288 -1.82147 0.69623 0
M  V30 1875 O 188.558 -1.93847 -0.28287 0
M  V30 1876 H 187.138 -0.324043 0.673056 0
M  V30 1877 H 189.8 -0.153224 1.94297 0
M  V30 1878 H 188.896 -1.43761 2.77019 0
M  V30 1879 N 189.197 -1.51736 -0.425897 0
M  V30 1880 C 190.613 -1.40166 -0.76326 0
M  V30 1881 C 190.813 -0.492962 -1.95377 0
M  V30 1882 O 189.869 0.0475815 -2.52455 0
M  V30 1883 C 191.182 -2.82403 -1.03291 0
M  V30 1884 C 192.73 -2.91632 -1.13665 0
M  V30 1885 C 193.205 -4.34801 -1.43916 0
M  V30 1886 N 194.696 -4.3796 -1.50816 0
M  V30 1887 C 195.431 -5.4578 -1.75817 0
M  V30 1888 N 194.927 -6.63744 -1.98534 0
M  V30 1889 N 196.72 -5.33274 -1.77694 0
M  V30 1890 H 188.871 -2.09361 0.358 0
M  V30 1891 H 191.134 -0.942941 0.0978094 0
M  V30 1892 H 190.84 -3.50943 -0.230696 0
M  V30 1893 H 190.714 -3.22428 -1.95754 0
M  V30 1894 H 193.101 -2.23284 -1.92947 0
M  V30 1895 H 193.182 -2.55088 -0.190756 0
M  V30 1896 H 192.826 -5.03703 -0.65157 0
M  V30 1897 H 192.756 -4.68868 -2.39729 0
M  V30 1898 H 195.247 -3.52919 -1.35118 0
M  V30 1899 H 195.56 -7.41704 -2.17013 0
M  V30 1900 H 193.905 -6.66839 -1.95832 0
M  V30 1901 H 197.096 -4.40098 -1.59473 0
M  V30 1902 H 197.269 -6.1738 -1.9684 0
M  V30 1903 N 190.675 0.682077 -1.42076 0
M  V30 1904 C 192.086 1.26246 -1.37546 0
M  V30 1905 C 192.437 1.96092 -0.0651481 0
M  V30 1906 O 191.562 1.99587 0.836297 0
M  V30 1907 C 192.157 2.29594 -2.49143 0
M  V30 1908 C 190.716 2.83175 -2.47969 0
M  V30 1909 C 189.863 1.57395 -2.28303 0
M  V30 1910 H 192.814 0.475937 -1.51395 0
M  V30 1911 H 192.835 3.11175 -2.18976 0
M  V30 1912 H 192.347 1.78729 -3.44496 0
M  V30 1913 H 190.448 3.3818 -1.56413 0
M  V30 1914 H 190.561 3.32687 -3.44755 0
M  V30 1915 H 188.925 1.83699 -1.76428 0
M  V30 1916 H 189.708 1.08507 -3.25701 0
M  V30 1917 N 192.153 1.28127 0.917671 0
M  V30 1918 C 193.085 1.07517 2.02417 0
M  V30 1919 C 194.098 0.0281099 1.62776 0
M  V30 1920 O 195.287 0.270748 1.76435 0
M  V30 1921 C 192.387 0.610957 3.33347 0
M  V30 1922 C 191.56 1.73255 4.01624 0
M  V30 1923 C 190.619 1.26238 5.10833 0
M  V30 1924 O 189.645 1.96389 5.34247 0
M  V30 1925 N 190.847 0.123448 5.80369 0
M  V30 1926 H 193.612 2.02806 2.20658 0
M  V30 1927 H 191.173 1.19827 1.08871 0
M  V30 1928 H 193.165 0.280101 4.0373 0
M  V30 1929 H 191.735 -0.24898 3.11607 0
M  V30 1930 H 190.955 2.23319 3.24842 0
M  V30 1931 H 192.243 2.48503 4.43986 0
M  V30 1932 H 191.641 -0.461847 5.63812 0
M  V30 1933 H 190.198 -0.148158 6.51632 0
M  V30 1934 N 193.631 -1.12557 1.10312 0
M  V30 1935 C 194.877 -1.84311 0.846011 0
M  V30 1936 C 195.21 -1.83805 -0.626859 0
M  V30 1937 O 194.485 -1.28268 -1.46211 0
M  V30 1938 C 194.768 -3.32048 1.39341 0
M  V30 1939 C 194.621 -3.41016 2.93305 0
M  V30 1940 C 195.94 -4.27764 1.03468 0
M  V30 1941 H 193.059 -0.669192 0.30879 0
M  V30 1942 H 195.701 -1.32057 1.36605 0
M  V30 1943 H 193.851 -3.76678 0.951087 0
M  V30 1944 H 195.523 -3.05031 3.46055 0
M  V30 1945 H 193.766 -2.81603 3.29973 0
M  V30 1946 H 194.437 -4.44948 3.26689 0
M  V30 1947 H 196.913 -3.91253 1.41633 0
M  V30 1948 H 195.789 -5.29549 1.44463 0
M  V30 1949 H 196.05 -4.42064 -0.0560404 0
M  V30 1950 N 195.109 -0.891671 -1.2995 0
M  V30 1951 C 196.056 -0.361736 -2.27948 0
M  V30 1952 C 197.026 0.551761 -1.56668 0
M  V30 1953 O 198.211 0.478736 -1.84696 0
M  V30 1954 C 195.351 0.411825 -3.42634 0
M  V30 1955 C 194.464 -0.531651 -4.28716 0
M  V30 1956 C 193.599 0.258167 -5.30572 0
M  V30 1957 C 192.638 -0.680349 -6.08307 0
M  V30 1958 N 191.775 0.0745613 -7.0206 0
M  V30 1959 H 196.615 -1.20254 -2.72659 0
M  V30 1960 H 194.152 -0.604352 -1.34112 0
M  V30 1961 H 196.11 0.876304 -4.07893 0
M  V30 1962 H 194.74 1.21715 -2.98974 0
M  V30 1963 H 193.792 -1.11463 -3.63703 0
M  V30 1964 H 195.104 -1.25038 -4.82874 0
M  V30 1965 H 194.258 0.784204 -6.0161 0
M  V30 1966 H 192.997 1.01008 -4.77126 0
M  V30 1967 H 192.002 -1.21796 -5.3614 0
M  V30 1968 H 193.227 -1.43145 -6.63842 0
M  V30 1969 H 191.173 0.808883 -6.50994 0
M  V30 1970 H 191.09 -0.584409 -7.53738 0
M  V30 1971 H 192.358 0.581123 -7.77331 0
M  V30 1972 N 196.587 1.43421 -0.653314 0
M  V30 1973 C 197.517 2.33487 0.0246656 0
M  V30 1974 C 198.498 1.49475 0.811863 0
M  V30 1975 O 199.683 1.78139 0.773322 0
M  V30 1976 C 196.813 3.32841 0.99166 0
M  V30 1977 C 195.767 4.26842 0.314568 0
M  V30 1978 C 195.093 5.16236 1.39302 0
M  V30 1979 C 196.393 5.16243 -0.793095 0
M  V30 1980 H 198.087 2.90427 -0.727481 0
M  V30 1981 H 195.633 1.39649 -0.351287 0
M  V30 1982 H 197.586 3.94747 1.47487 0
M  V30 1983 H 196.31 2.74158 1.77497 0
M  V30 1984 H 194.969 3.663 -0.148199 0
M  V30 1985 H 194.617 4.53891 2.16776 0
M  V30 1986 H 194.317 5.79948 0.945223 0
M  V30 1987 H 195.841 5.81015 1.87759 0
M  V30 1988 H 197.255 5.71958 -0.392039 0
M  V30 1989 H 195.652 5.88676 -1.16536 0
M  V30 1990 H 196.722 4.55927 -1.65103 0
M  V30 1991 N 198.065 0.39524 1.52563 0
M  V30 1992 C 199.311 -0.185318 2.01952 0
M  V30 1993 C 199.644 -1.45964 1.28095 0
M  V30 1994 O 198.919 -1.90689 0.38315 0
M  V30 1995 C 199.202 -0.447193 3.57312 0
M  V30 1996 C 199.055 0.842828 4.41833 0
M  V30 1997 C 200.374 -1.23529 4.22408 0
M  V30 1998 H 197.493 -0.0658788 0.73405 0
M  V30 1999 H 200.135 0.525975 1.82575 0
M  V30 2000 H 198.285 -1.05312 3.73954 0
M  V30 2001 H 199.957 1.4795 4.36931 0
M  V30 2002 H 198.2 1.45686 4.08605 0
M  V30 2003 H 198.871 0.614165 5.48573 0
M  V30 2004 H 201.347 -0.722445 4.0978 0
M  V30 2005 H 200.223 -1.38727 5.3108 0
M  V30 2006 H 200.484 -2.25213 3.80436 0
M  V30 2007 N 199.544 -1.57102 0.125237 0
M  V30 2008 C 200.792 -1.95021 -0.530198 0
M  V30 2009 C 201.113 -1.00982 -1.66816 0
M  V30 2010 O 200.383 -0.0672693 -1.95784 0
M  V30 2011 H 198.963 -0.720046 -0.198853 0
M  V30 2012 H 201.625 -1.93916 0.19564 0
M  V30 2013 H 200.721 -2.98211 -0.920681 0
M  V30 2014 N 201.022 0.148545 -1.56898 0
M  V30 2015 C 201.97 1.20265 -1.99096 0
M  V30 2016 C 202.964 1.44559 -0.883123 0
M  V30 2017 O 204.17 1.4487 -1.0683 0
M  V30 2018 H 200.545 0.404786 -0.63376 0
M  V30 2019 H 202.516 0.82004 -2.86911 0
M  V30 2020 C 201.265 2.52886 -2.3863 0
M  V30 2021 H 200.588 2.35021 -3.23427 0
M  V30 2022 H 202.028 3.25274 -2.7198 0
M  V30 2023 C 200.487 3.13315 -1.23837 0
M  V30 2024 O 201.017 3.98077 -0.538268 0
M  V30 2025 N 199.223 2.72742 -1.00301 0
M  V30 2026 H 198.77 2.03912 -1.5741 0
M  V30 2027 H 198.728 3.13507 -0.236838 0
M  V30 2028 N 202.5 1.5196 0.417844 0
M  V30 2029 C 203.433 1.69387 1.52916 0
M  V30 2030 C 204.411 0.541419 1.53321 0
M  V30 2031 O 205.595 0.767695 1.72159 0
M  V30 2032 C 202.722 1.72525 2.91467 0
M  V30 2033 C 201.768 2.93967 3.09008 0
M  V30 2034 S 202.601 4.54461 2.83242 0
M  V30 2035 C 203.757 4.60372 4.24038 0
M  V30 2036 H 203.99 2.63382 1.37903 0
M  V30 2037 H 201.523 1.41889 0.608845 0
M  V30 2038 H 203.481 1.75018 3.7132 0
M  V30 2039 H 202.142 0.796733 3.03827 0
M  V30 2040 H 201.335 2.92619 4.10353 0
M  V30 2041 H 200.937 2.89316 2.37007 0
M  V30 2042 H 203.229 4.37213 5.17544 0
M  V30 2043 H 204.172 5.62273 4.30412 0
M  V30 2044 H 204.58 3.89492 4.08602 0
M  V30 2045 N 203.978 -0.674533 1.42435 0
M  V30 2046 C 204.928 -1.7807 1.4239 0
M  V30 2047 C 205.912 -1.58169 0.295202 0
M  V30 2048 O 207.104 -1.68643 0.537449 0
M  V30 2049 C 204.233 -3.16532 1.32901 0
M  V30 2050 C 203.319 -3.42055 2.50717 0
M  V30 2051 N 203.71 -3.38162 3.76139 0
M  V30 2052 C 202.008 -3.72692 2.44983 0
M  V30 2053 C 202.709 -3.63177 4.54398 0
M  V30 2054 N 201.685 -3.83954 3.84812 0
M  V30 2055 H 205.487 -1.73454 2.37257 0
M  V30 2056 H 203.001 -0.875381 1.36788 0
M  V30 2057 H 204.998 -3.958 1.30951 0
M  V30 2058 H 203.658 -3.22345 0.390363 0
M  V30 2059 H 204.669 -3.18057 4.0873 0
M  V30 2060 H 201.346 -3.85749 1.59699 0
M  V30 2061 H 202.736 -3.66125 5.63384 0
M  V30 2062 N 205.456 -1.28612 -0.910864 0
M  V30 2063 C 206.704 -1.15705 -1.65701 0
M  V30 2064 C 207.025 0.29416 -1.92769 0
M  V30 2065 O 206.295 1.20331 -1.54588 0
M  V30 2066 H 204.875 -0.425216 -0.614167 0
M  V30 2067 H 207.537 -1.61381 -1.0928 0
M  V30 2068 H 206.633 -1.6988 -2.61815 0
M  V30 2069 N 206.934 1.1197 -1.10907 0
M  V30 2070 C 208.211 1.79959 -0.766432 0
M  V30 2071 C 208.591 1.97466 0.746363 0
M  V30 2072 O 207.939 1.55491 1.67436 0
M  V30 2073 C 208.149 3.14009 -1.52314 0
M  V30 2074 C 209.497 3.89134 -1.69883 0
M  V30 2075 O 210.521 3.2368 -1.48692 0
M  V30 2076 O 209.38 5.06572 -2.05054 0
M  V30 2077 H 206.474 0.779208 -0.277062 0
M  V30 2078 H 209.02 1.18762 -1.21217 0
M  V30 2079 H 207.792 2.96587 -2.55249 0
M  V30 2080 H 207.415 3.82915 -1.07059 0
M  V30 2081 N 208.412 0.89855 1.29475 0
M  V30 2082 C 209.322 0.379974 2.31502 0
M  V30 2083 C 210.338 -0.524695 1.659 0
M  V30 2084 O 211.514 -0.414551 1.97087 0
M  V30 2085 C 208.579 -0.385138 3.44554 0
M  V30 2086 C 207.64 0.550914 4.2575 0
M  V30 2087 C 206.873 -0.177778 5.33404 0
M  V30 2088 O 207.096 -1.40189 5.52904 0
M  V30 2089 O 206.03 0.479106 5.9999 0
M  V30 2090 H 209.856 1.22639 2.77837 0
M  V30 2091 H 207.441 0.662834 1.33891 0
M  V30 2092 H 209.323 -0.817841 4.13388 0
M  V30 2093 H 207.998 -1.20763 3.0033 0
M  V30 2094 H 206.905 1.03271 3.59564 0
M  V30 2095 H 208.238 1.33979 4.73614 0
M  V30 2096 N 209.89 -1.43072 0.660911 0
M  V30 2097 C 211.118 -2.06067 0.185422 0
M  V30 2098 C 211.533 -1.49582 -1.15198 0
M  V30 2099 O 210.89 -0.630134 -1.71276 0
M  V30 2100 C 210.941 -3.61371 0.0966523 0
M  V30 2101 O 210.662 -4.15758 1.38119 0
M  V30 2102 C 212.163 -4.41455 -0.403996 0
M  V30 2103 H 209.383 -0.664459 0.0934604 0
M  V30 2104 H 211.927 -1.83447 0.90373 0
M  V30 2105 H 210.082 -3.8315 -0.572259 0
M  V30 2106 H 210.496 -5.09499 1.24542 0
M  V30 2107 H 211.97 -5.50437 -0.415045 0
M  V30 2108 H 212.447 -4.15036 -1.43674 0
M  V30 2109 H 213.053 -4.24663 0.232691 0
M  V30 2110 N 211.368 -0.403325 -1.52352 0
M  V30 2111 C 212.614 0.174605 -2.02047 0
M  V30 2112 C 212.947 1.45282 -1.28867 0
M  V30 2113 O 212.222 1.90483 -0.393257 0
M  V30 2114 C 212.505 0.428238 -3.57545 0
M  V30 2115 C 212.358 -0.866248 -4.4138 0
M  V30 2116 C 213.677 1.21287 -4.23057 0
M  V30 2117 H 210.796 0.0619851 -0.734389 0
M  V30 2118 H 213.438 -0.53565 -1.82293 0
M  V30 2119 H 211.588 1.03327 -3.74507 0
M  V30 2120 H 213.26 -1.50265 -4.3614 0
M  V30 2121 H 211.503 -1.47851 -4.07827 0
M  V30 2122 H 212.174 -0.643249 -5.48239 0
M  V30 2123 H 214.65 0.700703 -4.10158 0
M  V30 2124 H 213.526 1.35909 -5.31808 0
M  V30 2125 H 213.787 2.23193 -3.81625 0
M  V30 2126 N 212.846 1.57033 -0.133567 0
M  V30 2127 C 214.071 2.00475 0.531477 0
M  V30 2128 C 214.496 1.01291 1.58499 0
M  V30 2129 O 213.854 -0.0133279 1.81295 0
M  V30 2130 C 213.902 3.42729 1.12113 0
M  V30 2131 O 213.006 3.46498 2.23636 0
M  V30 2132 H 212.347 0.650876 0.131362 0
M  V30 2133 H 214.877 2.03344 -0.22634 0
M  V30 2134 H 214.887 3.81246 1.4531 0
M  V30 2135 H 213.562 4.14428 0.349557 0
M  V30 2136 H 212.139 3.19811 1.91769 0
M  V30 2137 N 214.325 -0.140222 1.56975 0
M  V30 2138 C 215.741 -0.493088 1.51792 0
M  V30 2139 C 215.941 -1.83013 0.843116 0
M  V30 2140 O 214.997 -2.49041 0.416493 0
M  V30 2141 C 216.31 -0.497144 2.96562 0
M  V30 2142 C 217.858 -0.582186 3.07538 0
M  V30 2143 C 218.333 -0.616838 4.53827 0
M  V30 2144 N 219.824 -0.678873 4.58198 0
M  V30 2145 C 220.559 -0.726782 5.68775 0
M  V30 2146 N 220.055 -0.733623 6.88905 0
M  V30 2147 N 221.848 -0.768179 5.56826 0
M  V30 2148 H 213.999 0.736108 1.99237 0
M  V30 2149 H 216.262 0.269182 0.90898 0
M  V30 2150 H 215.968 0.417217 3.49217 0
M  V30 2151 H 215.842 -1.33263 3.52875 0
M  V30 2152 H 218.229 -1.48697 2.54899 0
M  V30 2153 H 218.31 0.280581 2.54257 0
M  V30 2154 H 217.954 0.283812 5.07106 0
M  V30 2155 H 217.884 -1.49619 5.04898 0
M  V30 2156 H 220.375 -0.68061 3.7172 0
M  V30 2157 H 220.688 -0.772215 7.68932 0
M  V30 2158 H 219.033 -0.701389 6.91452 0
M  V30 2159 H 222.224 -0.760051 4.61888 0
M  V30 2160 H 222.397 -0.80205 6.43017 0
M  V30 2161 N 215.803 -1.52179 -0.40978 0
M  V30 2162 C 216.735 -1.71703 -1.51825 0
M  V30 2163 C 217.748 -0.597445 -1.51441 0
M  V30 2164 O 218.937 -0.872582 -1.55719 0
M  V30 2165 C 216.037 -1.74171 -2.90719 0
M  V30 2166 C 215.21 -3.03156 -3.15302 0
M  V30 2167 C 214.269 -2.97445 -4.34065 0
M  V30 2168 O 213.295 -3.71352 -4.31377 0
M  V30 2169 N 214.497 -2.15191 -5.39141 0
M  V30 2170 H 217.262 -2.67334 -1.35472 0
M  V30 2171 H 214.823 -1.50409 -0.599069 0
M  V30 2172 H 216.815 -1.67884 -3.68235 0
M  V30 2173 H 215.385 -0.860166 -3.00533 0
M  V30 2174 H 214.605 -3.23097 -2.25836 0
M  V30 2175 H 215.893 -3.88484 -3.28569 0
M  V30 2176 H 215.291 -1.54573 -5.44173 0
M  V30 2177 H 213.848 -2.1476 -6.15403 0
M  V30 2178 N 217.281 0.66697 -1.42791 0
M  V30 2179 C 218.527 1.4291 -1.43891 0
M  V30 2180 C 218.86 1.94114 -0.0578972 0
M  V30 2181 O 218.135 1.71414 0.91911 0
M  V30 2182 C 218.418 2.62049 -2.46987 0
M  V30 2183 C 218.271 2.16426 -3.94309 0
M  V30 2184 C 219.59 3.64266 -2.46978 0
M  V30 2185 H 216.709 0.518306 -0.523954 0
M  V30 2186 H 219.351 0.757321 -1.74255 0
M  V30 2187 H 217.501 3.19361 -2.21225 0
M  V30 2188 H 219.173 1.64221 -4.31079 0
M  V30 2189 H 217.416 1.47925 -4.078 0
M  V30 2190 H 218.087 3.02038 -4.62036 0
M  V30 2191 H 220.563 3.16686 -2.69906 0
M  V30 2192 H 219.439 4.45196 -3.21079 0
M  V30 2193 H 219.7 4.15927 -1.49857 0
M  V30 2194 N 218.759 1.29093 0.90403 0
M  V30 2195 C 219.689 1.16401 2.02418 0
M  V30 2196 C 220.67 0.0593085 1.69997 0
M  V30 2197 O 221.855 0.238021 1.92736 0
M  V30 2198 C 218.985 0.835233 3.37107 0
M  V30 2199 C 217.939 1.89578 3.83724 0
M  V30 2200 C 217.265 1.42041 5.15489 0
M  V30 2201 C 218.565 3.30394 4.04521 0
M  V30 2202 H 220.259 2.10109 2.13295 0
M  V30 2203 H 217.805 1.01157 1.02486 0
M  V30 2204 H 219.758 0.733169 4.14973 0
M  V30 2205 H 218.482 -0.137543 3.2631 0
M  V30 2206 H 217.141 1.98715 3.08071 0
M  V30 2207 H 216.789 0.436426 5.01103 0
M  V30 2208 H 216.489 2.12964 5.4765 0
M  V30 2209 H 218.013 1.33176 5.959 0
M  V30 2210 H 219.427 3.24123 4.72882 0
M  V30 2211 H 217.824 3.99237 4.48029 0
M  V30 2212 H 218.894 3.73692 3.09002 0
M  V30 2213 N 220.237 -1.11381 1.11499 0
M  V30 2214 C 221.486 -1.82494 0.858993 0
M  V30 2215 C 221.799 -1.85605 -0.617278 0
M  V30 2216 O 223.005 -2.52824 -0.989552 0
M  V30 2217 C 221.461 -3.27745 1.48699 0
M  V30 2218 C 221.069 -3.32961 2.99735 0
M  V30 2219 C 222.813 -4.03754 1.31085 0
M  V30 2220 C 220.72 -4.72612 3.55516 0
M  V30 2221 H 219.65 -0.683802 0.317696 0
M  V30 2222 H 222.301 -1.25331 1.34031 0
M  V30 2223 H 220.683 -3.84844 0.933339 0
M  V30 2224 H 221.857 -2.85741 3.61509 0
M  V30 2225 H 220.172 -2.70433 3.16631 0
M  V30 2226 H 222.769 -5.06891 1.70192 0
M  V30 2227 H 223.112 -4.15527 0.253496 0
M  V30 2228 H 223.645 -3.53043 1.83318 0
M  V30 2229 H 220.384 -4.66036 4.60967 0
M  V30 2230 H 219.904 -5.2024 2.98513 0
M  V30 2231 H 221.583 -5.4157 3.53992 0
M  V30 2232 N 221.715 -0.905404 -1.28997 0
M  V30 2233 C 222.945 -0.549049 -1.99171 0
M  V30 2234 C 223.353 0.87203 -1.67906 0
M  V30 2235 O 222.696 1.58796 -0.923561 0
M  V30 2236 C 222.758 -0.668306 -3.53234 0
M  V30 2237 C 222.422 -2.0574 -4.08069 0
M  V30 2238 C 223.419 -3.0292 -4.22534 0
M  V30 2239 C 221.104 -2.36833 -4.42962 0
M  V30 2240 C 223.098 -4.29314 -4.71135 0
M  V30 2241 C 220.785 -3.63467 -4.91258 0
M  V30 2242 C 221.783 -4.59522 -5.053 0
M  V30 2243 O 221.471 -5.83907 -5.52546 0
M  V30 2244 H 221.203 -0.208784 -0.64295 0
M  V30 2245 H 223.757 -1.21836 -1.65363 0
M  V30 2246 H 221.987 0.0580547 -3.86656 0
M  V30 2247 H 223.676 -0.320273 -4.04634 0
M  V30 2248 H 224.442 -2.80216 -3.95859 0
M  V30 2249 H 220.321 -1.62824 -4.31288 0
M  V30 2250 H 223.865 -5.04293 -4.8201 0
M  V30 2251 H 219.762 -3.86 -5.17372 0
M  V30 2252 H 220.53 -5.86578 -5.70849 0
M  V30 2253 N 223.193 1.4272 -0.668489 0
M  V30 2254 C 224.123 2.335 -0.000100175 0
M  V30 2255 C 225.104 1.50328 0.795964 0
M  V30 2256 O 226.289 1.78949 0.754385 0
M  V30 2257 C 223.419 3.33874 0.956302 0
M  V30 2258 C 222.373 4.27152 0.269278 0
M  V30 2259 C 221.699 5.17684 1.33818 0
M  V30 2260 C 222.999 5.15373 -0.847805 0
M  V30 2261 H 224.693 2.89639 -0.758244 0
M  V30 2262 H 222.239 1.39269 -0.366079 0
M  V30 2263 H 224.192 3.9629 1.43292 0
M  V30 2264 H 222.916 2.76025 1.74579 0
M  V30 2265 H 221.575 3.66123 -0.187042 0
M  V30 2266 H 221.223 4.56165 2.1195 0
M  V30 2267 H 220.923 5.80918 0.883659 0
M  V30 2268 H 222.447 5.82974 1.81586 0
M  V30 2269 H 223.861 5.7151 -0.452681 0
M  V30 2270 H 222.258 5.87407 -1.22773 0
M  V30 2271 H 223.328 4.5415 -1.69929 0
M  V30 2272 N 224.671 0.411399 1.52136 0
M  V30 2273 C 225.634 -0.401089 2.25663 0
M  V30 2274 C 226.634 -0.971732 1.28117 0
M  V30 2275 O 227.824 -0.850254 1.52041 0
M  V30 2276 C 224.956 -1.56483 3.02863 0
M  V30 2277 H 226.149 0.24295 2.98914 0
M  V30 2278 H 223.702 0.163968 1.55438 0
M  V30 2279 H 224.437 -2.24567 2.33967 0
M  V30 2280 H 224.222 -1.16211 3.74483 0
M  V30 2281 H 225.712 -2.13951 3.58629 0
M  V30 2282 N 226.149 -1.5696 0.141893 0
M  V30 2283 C 227.565 -1.58151 -0.21456 0
M  V30 2284 C 227.765 -1.1559 -1.65049 0
M  V30 2285 O 226.821 -0.853832 -2.37626 0
M  V30 2286 C 228.134 -3.00674 0.0395576 0
M  V30 2287 C 229.682 -3.1299 -0.0245529 0
M  V30 2288 C 230.157 -4.57554 0.202167 0
M  V30 2289 N 231.648 -4.62961 0.148919 0
M  V30 2290 C 232.383 -5.7262 0.298924 0
M  V30 2291 N 231.879 -6.90947 0.50637 0
M  V30 2292 N 233.672 -5.61601 0.236886 0
M  V30 2293 H 225.823 -1.8292 1.07953 0
M  V30 2294 H 228.086 -0.846425 0.42693 0
M  V30 2295 H 227.792 -3.36183 1.03315 0
M  V30 2296 H 227.666 -3.70981 -0.682143 0
M  V30 2297 H 230.053 -2.77326 -1.00869 0
M  V30 2298 H 230.134 -2.4518 0.729396 0
M  V30 2299 H 229.778 -4.93922 1.18338 0
M  V30 2300 H 229.708 -5.23484 -0.572044 0
M  V30 2301 H 232.199 -3.77899 -0.00697015 0
M  V30 2302 H 232.512 -7.7038 0.611076 0
M  V30 2303 H 230.857 -6.92878 0.542628 0
M  V30 2304 H 234.048 -4.68039 0.0756209 0
M  V30 2305 H 234.221 -6.47015 0.357227 0
M  V30 2306 N 227.627 0.131896 -1.57047 0
M  V30 2307 C 228.537 1.1815 -2.02676 0
M  V30 2308 C 229.553 1.46113 -0.944824 0
M  V30 2309 O 230.729 1.57485 -1.25541 0
M  V30 2310 C 227.794 2.49139 -2.41103 0
M  V30 2311 C 226.855 2.28688 -3.63318 0
M  V30 2312 C 226.088 3.53431 -3.99903 0
M  V30 2313 O 226.311 4.60223 -3.36973 0
M  V30 2314 O 225.245 3.45198 -4.93074 0
M  V30 2315 H 229.071 0.824069 -2.92306 0
M  V30 2316 H 226.656 0.341745 -1.45439 0
M  V30 2317 H 228.538 3.26338 -2.66611 0
M  V30 2318 H 227.213 2.84382 -1.54624 0
M  V30 2319 H 226.12 1.4939 -3.42977 0
M  V30 2320 H 227.453 1.98355 -4.50462 0
M  V30 2321 N 229.106 1.52395 0.401703 0
M  V30 2322 C 230.036 1.79231 1.49661 0
M  V30 2323 C 231.017 0.643654 1.57452 0
M  V30 2324 O 232.202 0.889989 1.72606 0
M  V30 2325 C 229.332 1.94971 2.87409 0
M  V30 2326 C 228.286 3.10604 2.94465 0
M  V30 2327 C 227.612 3.11577 4.34538 0
M  V30 2328 C 228.912 4.49921 2.6527 0
M  V30 2329 H 230.606 2.70917 1.27454 0
M  V30 2330 H 228.152 1.30362 0.6117 0
M  V30 2331 H 230.105 2.12328 3.63999 0
M  V30 2332 H 228.829 0.999632 3.10926 0
M  V30 2333 H 227.488 2.93009 2.20321 0
M  V30 2334 H 227.136 2.14277 4.55076 0
M  V30 2335 H 226.836 3.89247 4.40183 0
M  V30 2336 H 228.36 3.31073 5.13053 0
M  V30 2337 H 229.774 4.67683 3.31581 0
M  V30 2338 H 228.171 5.29564 2.82281 0
M  V30 2339 H 229.241 4.57507 1.60671 0
M  V30 2340 N 230.584 -0.659388 1.43143 0
M  V30 2341 C 231.547 -1.75432 1.47501 0
M  V30 2342 C 232.547 -1.56707 0.360512 0
M  V30 2343 O 233.737 -1.62717 0.622002 0
M  V30 2344 C 230.869 -3.14239 1.32162 0
M  V30 2345 H 232.062 -1.7295 2.45006 0
M  V30 2346 H 229.615 -0.870469 1.29817 0
M  V30 2347 H 230.35 -3.22336 0.356401 0
M  V30 2348 H 230.135 -3.29235 2.12948 0
M  V30 2349 H 231.625 -3.94094 1.3813 0
M  V30 2350 N 232.062 -1.29571 -0.897171 0
M  V30 2351 C 233.025 -1.14913 -1.98312 0
M  V30 2352 C 234.025 -0.0838629 -1.60581 0
M  V30 2353 O 235.215 -0.331006 -1.71026 0
M  V30 2354 C 232.347 -0.757835 -3.3237 0
M  V30 2355 H 233.54 -2.11377 -2.12743 0
M  V30 2356 H 231.093 -1.12793 -1.08201 0
M  V30 2357 H 231.828 0.206837 -3.2364 0
M  V30 2358 H 231.613 -1.52755 -3.61121 0
M  V30 2359 H 233.103 -0.678408 -4.12053 0
M  V30 2360 N 233.54 1.10788 -1.12088 0
M  V30 2361 C 234.788 1.8231 -0.872205 0
M  V30 2362 C 235.109 1.85419 0.603709 0
M  V30 2363 O 234.379 1.32963 1.43867 0
M  V30 2364 H 232.959 0.675137 -0.319686 0
M  V30 2365 H 235.621 1.34068 -1.41463 0
M  V30 2366 H 234.717 2.85955 -1.25045 0
M  V30 2367 N 235.018 0.912232 1.28515 0
M  V30 2368 C 236.248 0.559604 1.98877 0
M  V30 2369 C 236.656 -0.863113 1.68366 0
M  V30 2370 O 235.999 -1.58304 0.931969 0
M  V30 2371 C 236.061 0.68703 3.52874 0
M  V30 2372 C 235.725 2.07901 4.06972 0
M  V30 2373 C 236.722 3.05157 4.20922 0
M  V30 2374 C 234.407 2.39178 4.417 0
M  V30 2375 C 236.401 4.31806 4.68852 0
M  V30 2376 C 234.088 3.66068 4.89324 0
M  V30 2377 C 235.086 4.62195 5.02856 0
M  V30 2378 O 234.774 5.86829 5.49442 0
M  V30 2379 H 234.506 0.212191 0.641834 0
M  V30 2380 H 237.06 1.22712 1.64715 0
M  V30 2381 H 235.29 -0.0375486 3.86682 0
M  V30 2382 H 236.979 0.341727 4.04459 0
M  V30 2383 H 237.745 2.82311 3.94367 0
M  V30 2384 H 233.624 1.65109 4.30418 0
M  V30 2385 H 237.168 5.06842 4.79329 0
M  V30 2386 H 233.065 3.88739 5.15318 0
M  V30 2387 H 233.833 5.89597 5.6773 0
M  V30 2388 N 236.496 -1.42363 0.676048 0
M  V30 2389 C 237.912 -1.55811 0.345718 0
M  V30 2390 C 238.112 -1.65544 -1.14879 0
M  V30 2391 O 237.168 -1.62306 -1.93424 0
M  V30 2392 C 238.481 -2.80746 1.07713 0
M  V30 2393 C 240.029 -2.9452 1.05958 0
M  V30 2394 C 240.504 -4.22318 1.77233 0
M  V30 2395 N 241.995 -4.29233 1.74108 0
M  V30 2396 C 242.73 -5.26935 2.26113 0
M  V30 2397 N 242.226 -6.30783 2.86505 0
M  V30 2398 N 244.019 -5.18741 2.1648 0
M  V30 2399 H 236.17 -1.34289 1.6456 0
M  V30 2400 H 238.433 -0.646506 0.69335 0
M  V30 2401 H 238.139 -2.79696 2.13221 0
M  V30 2402 H 238.013 -3.71676 0.64316 0
M  V30 2403 H 240.4 -2.95097 0.0128255 0
M  V30 2404 H 240.481 -2.04817 1.53244 0
M  V30 2405 H 240.125 -4.22502 2.81877 0
M  V30 2406 H 240.055 -5.10958 1.27396 0
M  V30 2407 H 242.546 -3.54814 1.30059 0
M  V30 2408 H 242.859 -7.01691 3.23805 0
M  V30 2409 H 241.204 -6.31341 2.90575 0
M  V30 2410 H 244.395 -4.36533 1.68987 0
M  V30 2411 H 244.568 -5.94721 2.57316 0
M  V30 2412 N 237.974 -0.419461 -1.51915 0
M  V30 2413 C 239.39 -0.0708431 -1.59443 0
M  V30 2414 C 239.59 1.41796 -1.43164 0
M  V30 2415 O 238.646 2.18596 -1.26381 0
M  V30 2416 C 239.959 -0.574991 -2.95151 0
M  V30 2417 C 241.507 -0.533867 -3.08413 0
M  V30 2418 C 241.982 -1.01469 -4.46618 0
M  V30 2419 N 243.473 -0.971939 -4.52888 0
M  V30 2420 C 244.208 -1.31505 -5.58116 0
M  V30 2421 N 243.704 -1.73014 -6.70849 0
M  V30 2422 N 245.497 -1.23436 -5.48379 0
M  V30 2423 H 237.648 -1.38836 -1.60743 0
M  V30 2424 H 239.911 -0.570998 -0.756747 0
M  V30 2425 H 239.617 -1.61597 -3.12377 0
M  V30 2426 H 239.491 0.00979777 -3.77199 0
M  V30 2427 H 241.878 0.498086 -2.90866 0
M  V30 2428 H 241.959 -1.15484 -2.28248 0
M  V30 2429 H 241.603 -2.04502 -4.6491 0
M  V30 2430 H 241.533 -0.370433 -5.25295 0
M  V30 2431 H 244.024 -0.666893 -3.71969 0
M  V30 2432 H 244.337 -1.97479 -7.47143 0
M  V30 2433 H 242.682 -1.76926 -6.72103 0
M  V30 2434 H 245.873 -0.908869 -4.59192 0
M  V30 2435 H 246.046 -1.50506 -6.30279 0
M  V30 2436 N 239.452 1.56882 -0.150215 0
M  V30 2437 C 240.7 1.9584 0.499105 0
M  V30 2438 C 241.021 1.03623 1.65188 0
M  V30 2439 O 240.291 0.0984084 1.95653 0
M  V30 2440 H 238.871 0.723119 0.187373 0
M  V30 2441 H 241.533 1.9358 -0.226466 0
M  V30 2442 H 240.629 2.99638 0.873122 0
M  V30 2443 N 240.93 -0.123565 1.57115 0
M  V30 2444 C 242.207 -0.862196 1.75572 0
M  V30 2445 C 242.587 -1.98279 0.724475 0
M  V30 2446 O 241.935 -2.27102 -0.252407 0
M  V30 2447 C 242.145 -1.38309 3.20424 0
M  V30 2448 C 243.493 -1.83724 3.82793 0
M  V30 2449 O 244.517 -1.47999 3.23998 0
M  V30 2450 O 243.376 -2.49685 4.86127 0
M  V30 2451 H 240.47 -0.409113 0.718718 0
M  V30 2452 H 243.016 -0.107661 1.69358 0
M  V30 2453 H 241.788 -0.578889 3.86994 0
M  V30 2454 H 241.411 -2.20046 3.31158 0
M  V30 2455 N 242.408 -1.52605 -0.393616 0
M  V30 2456 C 243.819 -1.59417 -0.971761 0
M  V30 2457 C 244.17 -0.444173 -1.91106 0
M  V30 2458 O 243.295 0.433382 -2.12016 0
M  V30 2459 C 243.89 -2.88936 -1.76921 0
M  V30 2460 C 242.449 -2.98175 -2.29714 0
M  V30 2461 C 241.596 -2.54491 -1.10135 0
M  V30 2462 H 244.547 -1.57751 -0.173317 0
M  V30 2463 H 244.568 -2.75163 -2.62804 0
M  V30 2464 H 244.08 -3.72616 -1.08532 0
M  V30 2465 H 242.181 -2.19024 -3.01429 0
M  V30 2466 H 242.294 -4.02726 -2.59517 0
M  V30 2467 H 240.658 -2.08702 -1.45999 0
M  V30 2468 H 241.441 -3.4056 -0.432874 0
M  V30 2469 N 243.887 0.651787 -1.4349 0
M  V30 2470 C 245.303 0.96762 -1.26922 0
M  V30 2471 C 245.503 2.00602 -0.189982 0
M  V30 2472 O 244.559 2.48793 0.431107 0
M  V30 2473 C 245.872 1.45052 -2.63401 0
M  V30 2474 C 247.42 1.5671 -2.70945 0
M  V30 2475 C 247.895 2.0839 -4.07845 0
M  V30 2476 N 249.386 2.1569 -4.09917 0
M  V30 2477 C 250.121 2.56804 -5.12679 0
M  V30 2478 N 249.617 2.97203 -6.25813 0
M  V30 2479 N 251.41 2.56756 -5.00033 0
M  V30 2480 H 243.561 -0.0353158 -2.12371 0
M  V30 2481 H 245.824 0.0467858 -0.946845 0
M  V30 2482 H 245.53 0.761926 -3.43348 0
M  V30 2483 H 245.404 2.42529 -2.88894 0
M  V30 2484 H 247.791 2.2467 -1.9133 0
M  V30 2485 H 247.872 0.57662 -2.49216 0
M  V30 2486 H 247.516 1.41031 -4.87927 0
M  V30 2487 H 247.446 3.08271 -4.26938 0
M  V30 2488 H 249.937 1.87237 -3.28254 0
M  V30 2489 H 250.25 3.27328 -7.00055 0
M  V30 2490 H 248.595 2.95004 -6.29283 0
M  V30 2491 H 251.786 2.24572 -4.10713 0
M  V30 2492 H 251.959 2.88475 -5.80247 0
M  V30 2493 N 245.365 1.30045 0.890287 0
M  V30 2494 C 246.295 1.18541 2.01172 0
M  V30 2495 C 247.276 0.0773356 1.69924 0
M  V30 2496 O 248.461 0.25845 1.92473 0
M  V30 2497 C 245.591 0.870941 3.36202 0
M  V30 2498 C 244.545 1.93637 3.81692 0
M  V30 2499 C 243.871 1.475 5.13953 0
M  V30 2500 C 245.171 3.34666 4.00994 0
M  V30 2501 H 246.865 2.12359 2.11054 0
M  V30 2502 H 244.411 1.02238 1.01407 0
M  V30 2503 H 246.364 0.777141 4.14172 0
M  V30 2504 H 245.088 -0.102926 3.26438 0
M  V30 2505 H 243.747 2.01972 3.05946 0
M  V30 2506 H 243.395 0.489551 5.00612 0
M  V30 2507 H 243.095 2.1876 5.4536 0
M  V30 2508 H 244.619 1.39489 5.94454 0
M  V30 2509 H 246.033 3.2912 4.69417 0
M  V30 2510 H 244.43 4.03966 4.43769 0
M  V30 2511 H 245.5 3.76949 3.05021 0
M  V30 2512 N 246.843 -1.10192 1.12674 0
M  V30 2513 C 248.089 -1.82475 0.884915 0
M  V30 2514 C 248.422 -1.85093 -0.58773 0
M  V30 2515 O 247.697 -1.3134 -1.43457 0
M  V30 2516 C 247.98 -3.29018 1.46353 0
M  V30 2517 C 247.833 -3.34718 3.00473 0
M  V30 2518 C 249.152 -4.25473 1.12519 0
M  V30 2519 H 246.271 -0.662492 0.322915 0
M  V30 2520 H 248.913 -1.2913 1.39375 0
M  V30 2521 H 247.063 -3.74576 1.03077 0
M  V30 2522 H 248.735 -2.97622 3.52447 0
M  V30 2523 H 246.978 -2.74541 3.35872 0
M  V30 2524 H 247.649 -4.37918 3.36053 0
M  V30 2525 H 250.125 -3.88161 1.499 0
M  V30 2526 H 249.001 -5.26365 1.55663 0
M  V30 2527 H 249.262 -4.42084 0.0377407 0
M  V30 2528 N 248.321 -0.919034 -1.28029 0
M  V30 2529 C 249.737 -0.617972 -1.4715 0
M  V30 2530 C 249.937 0.835242 -1.83374 0
M  V30 2531 O 248.993 1.61388 -1.94191 0
M  V30 2532 C 250.306 -1.56041 -2.57044 0
M  V30 2533 C 251.854 -1.56769 -2.7091 0
M  V30 2534 C 252.329 -2.49688 -3.83953 0
M  V30 2535 N 253.82 -2.47845 -3.91314 0
M  V30 2536 C 254.555 -3.16437 -4.78179 0
M  V30 2537 N 254.051 -3.94376 -5.69596 0
M  V30 2538 N 255.844 -3.05498 -4.71834 0
M  V30 2539 H 247.995 -1.85866 -1.02798 0
M  V30 2540 H 250.258 -0.797506 -0.512531 0
M  V30 2541 H 249.964 -2.59671 -2.372 0
M  V30 2542 H 249.838 -1.29551 -3.54255 0
M  V30 2543 H 252.225 -0.538745 -2.90141 0
M  V30 2544 H 252.306 -1.87305 -1.74214 0
M  V30 2545 H 251.95 -3.52688 -3.65477 0
M  V30 2546 H 251.88 -2.16453 -4.80058 0
M  V30 2547 H 254.371 -1.91234 -3.25941 0
M  V30 2548 H 254.684 -4.43721 -6.32718 0
M  V30 2549 H 253.029 -3.98481 -5.69419 0
M  V30 2550 H 256.22 -2.44108 -3.99411 0
M  V30 2551 H 256.393 -3.59225 -5.39316 0
M  V30 2552 N 249.799 1.42003 -0.683588 0
M  V30 2553 C 250.729 2.33487 -0.024866 0
M  V30 2554 C 251.71 1.51163 0.779975 0
M  V30 2555 O 252.895 1.79739 0.735362 0
M  V30 2556 C 250.025 3.3487 0.920836 0
M  V30 2557 C 248.979 4.27414 0.223958 0
M  V30 2558 C 248.305 5.19074 1.2832 0
M  V30 2559 C 249.605 5.14445 -0.90242 0
M  V30 2560 H 251.299 2.88819 -0.788921 0
M  V30 2561 H 248.845 1.38873 -0.38083 0
M  V30 2562 H 250.798 3.97787 1.39081 0
M  V30 2563 H 249.522 2.77861 1.71642 0
M  V30 2564 H 248.181 3.65904 -0.225864 0
M  V30 2565 H 247.829 4.58387 2.071 0
M  V30 2566 H 247.529 5.81822 0.821995 0
M  V30 2567 H 249.053 5.84867 1.75392 0
M  V30 2568 H 250.467 5.70998 -0.513272 0
M  V30 2569 H 248.864 5.86072 -1.28997 0
M  V30 2570 H 249.934 4.52322 -1.74737 0
M  V30 2571 N 251.277 0.427512 1.51691 0
M  V30 2572 C 252.207 -0.3796 2.30394 0
M  V30 2573 C 253.188 -1.02982 1.35384 0
M  V30 2574 O 254.373 -1.03534 1.643 0
M  V30 2575 C 251.503 -1.48649 3.1388 0
M  V30 2576 C 250.457 -0.960294 4.17088 0
M  V30 2577 C 249.783 -2.16219 4.89033 0
M  V30 2578 C 251.083 -0.00153679 5.223 0
M  V30 2579 H 252.777 0.277164 2.98114 0
M  V30 2580 H 250.323 0.134739 1.43368 0
M  V30 2581 H 252.276 -2.05826 3.67714 0
M  V30 2582 H 251 -2.1714 2.43962 0
M  V30 2583 H 249.659 -0.410806 3.64291 0
M  V30 2584 H 249.307 -2.83307 4.15628 0
M  V30 2585 H 249.007 -1.81654 5.58816 0
M  V30 2586 H 250.531 -2.73968 5.45687 0
M  V30 2587 H 251.945 -0.482687 5.71264 0
M  V30 2588 H 250.342 0.256199 5.99553 0
M  V30 2589 H 251.412 0.938174 4.75738 0
M  V30 2590 N 252.755 -1.56801 0.158532 0
M  V30 2591 C 253.703 -2.18638 -0.793729 0
M  V30 2592 C 254.697 -1.14669 -1.24689 0
M  V30 2593 O 255.903 -1.32895 -1.21403 0
M  V30 2594 H 252.278 -0.700226 -0.274204 0
M  V30 2595 H 254.249 -2.97367 -0.248095 0
M  V30 2596 C 252.998 -2.83139 -2.0181 0
M  V30 2597 H 252.321 -3.62863 -1.67841 0
M  V30 2598 H 253.761 -3.29894 -2.66357 0
M  V30 2599 C 252.22 -1.82244 -2.83353 0
M  V30 2600 O 252.75 -1.3 -3.80083 0
M  V30 2601 N 250.956 -1.51288 -2.48114 0
M  V30 2602 H 250.503 -1.93964 -1.69516 0
M  V30 2603 H 250.461 -0.840296 -3.02963 0
M  V30 2604 N 254.233 0.115231 -1.57178 0
M  V30 2605 C 255.461 0.836437 -1.89239 0
M  V30 2606 C 255.876 1.73256 -0.750175 0
M  V30 2607 O 255.233 1.80357 0.278832 0
M  V30 2608 C 255.284 1.66671 -3.20785 0
M  V30 2609 O 255.005 0.806652 -4.3061 0
M  V30 2610 C 256.506 2.49274 -3.66575 0
M  V30 2611 H 253.726 0.240253 -0.626514 0
M  V30 2612 H 256.27 0.0984932 -2.04263 0
M  V30 2613 H 254.425 2.35737 -3.0742 0
M  V30 2614 H 254.839 1.37969 -5.06028 0
M  V30 2615 H 256.313 3.03055 -4.6137 0
M  V30 2616 H 256.79 3.26807 -2.93417 0
M  V30 2617 H 257.396 1.85443 -3.82741 0
M  V30 2618 N 255.711 1.52812 0.385517 0
M  V30 2619 C 256.939 1.71907 1.15133 0
M  V30 2620 C 257.354 0.439004 1.83625 0
M  V30 2621 O 256.711 -0.586765 1.7281 0
M  V30 2622 C 256.762 2.87099 2.19673 0
M  V30 2623 O 256.483 4.10151 1.53973 0
M  V30 2624 C 257.984 3.17902 3.08955 0
M  V30 2625 H 255.204 0.575479 0.345057 0
M  V30 2626 H 257.748 1.99476 0.45052 0
M  V30 2627 H 255.903 2.61982 2.85384 0
M  V30 2628 H 256.317 4.74514 2.23465 0
M  V30 2629 H 257.791 4.01959 3.7833 0
M  V30 2630 H 258.268 2.3243 3.72657 0
M  V30 2631 H 258.874 3.44871 2.48885 0
M  V30 2632 N 257.189 -0.644168 1.43834 0
M  V30 2633 C 258.466 -1.40188 1.36406 0
M  V30 2634 C 258.846 -2.11094 0.0163124 0
M  V30 2635 O 258.194 -2.05426 -1.00062 0
M  V30 2636 C 258.404 -2.3791 2.55343 0
M  V30 2637 C 259.752 -3.01637 2.98832 0
M  V30 2638 O 260.776 -2.48237 2.55455 0
M  V30 2639 O 259.635 -3.98477 3.74003 0
M  V30 2640 H 256.729 -0.626773 0.539523 0
M  V30 2641 H 259.275 -0.670317 1.559 0
M  V30 2642 H 258.047 -1.84525 3.4506 0
M  V30 2643 H 257.67 -3.18503 2.37995 0
M  V30 2644 N 258.668 -1.30515 -0.883378 0
M  V30 2645 C 259.914 -1.19607 -1.63774 0
M  V30 2646 C 260.247 0.248314 -1.92606 0
M  V30 2647 O 259.522 1.17742 -1.54813 0
M  V30 2648 C 259.805 -2.02669 -2.97653 0
M  V30 2649 C 259.658 -3.55335 -2.75784 0
M  V30 2650 C 260.977 -1.86573 -3.98596 0
M  V30 2651 H 258.096 -0.435856 -0.594305 0
M  V30 2652 H 260.738 -1.60165 -1.02212 0
M  V30 2653 H 258.888 -1.68208 -3.50197 0
M  V30 2654 H 260.56 -3.99863 -2.30016 0
M  V30 2655 H 258.803 -3.79438 -2.1026 0
M  V30 2656 H 259.474 -4.08745 -3.70988 0
M  V30 2657 H 261.95 -2.16703 -3.55217 0
M  V30 2658 H 260.826 -2.47014 -4.90179 0
M  V30 2659 H 261.087 -0.825321 -4.34328 0
M  V30 2660 N 260.146 1.09593 -1.13257 0
M  V30 2661 C 261.376 1.85231 -0.915049 0
M  V30 2662 C 261.784 1.81345 0.539498 0
M  V30 2663 O 261.127 1.20664 1.38513 0
M  V30 2664 C 261.189 3.34275 -1.3229 0
M  V30 2665 C 260.853 3.6191 -2.79052 0
M  V30 2666 C 261.85 3.57777 -3.77216 0
M  V30 2667 C 259.535 3.90309 -3.16171 0
M  V30 2668 C 261.529 3.81652 -5.1051 0
M  V30 2669 C 259.216 4.13839 -4.49644 0
M  V30 2670 C 260.214 4.09502 -5.46623 0
M  V30 2671 O 259.902 4.32426 -6.77689 0
M  V30 2672 H 259.634 0.591997 -0.326367 0
M  V30 2673 H 262.188 1.394 -1.50854 0
M  V30 2674 H 260.418 3.80805 -0.672667 0
M  V30 2675 H 262.107 3.9132 -1.07812 0
M  V30 2676 H 262.873 3.35865 -3.49885 0
M  V30 2677 H 258.752 3.92811 -2.41289 0
M  V30 2678 H 262.296 3.78182 -5.86195 0
M  V30 2679 H 258.193 4.35232 -4.767 0
M  V30 2680 H 258.961 4.49896 -6.83766 0
M  V30 2681 N 261.624 0.925811 1.2754 0
M  V30 2682 C 262.554 0.440748 2.29303 0
M  V30 2683 C 263.535 -0.497971 1.62648 0
M  V30 2684 O 264.72 -0.403126 1.8997 0
M  V30 2685 C 261.85 -0.309048 3.45922 0
M  V30 2686 C 260.804 0.54166 4.24559 0
M  V30 2687 C 260.13 -0.337191 5.33636 0
M  V30 2688 C 261.43 1.80516 4.90114 0
M  V30 2689 H 263.124 1.29121 2.70126 0
M  V30 2690 H 260.67 0.622323 1.29858 0
M  V30 2691 H 262.623 -0.659315 4.1621 0
M  V30 2692 H 261.347 -1.19352 3.04011 0
M  V30 2693 H 260.006 0.874609 3.56014 0
M  V30 2694 H 259.654 -1.22056 4.87966 0
M  V30 2695 H 259.354 0.228497 5.87156 0
M  V30 2696 H 260.878 -0.683072 6.06767 0
M  V30 2697 H 262.292 1.52307 5.52698 0
M  V30 2698 H 260.689 2.3142 5.53683 0
M  V30 2699 H 261.759 2.52581 4.13921 0
M  V30 2700 N 263.102 -1.41638 0.69111 0
M  V30 2701 C 264.032 -2.3347 0.037248 0
M  V30 2702 C 265.013 -1.51575 -0.771947 0
M  V30 2703 O 266.198 -1.80126 -0.72582 0
M  V30 2704 C 263.328 -3.35354 -0.903064 0
M  V30 2705 C 262.282 -4.27526 -0.201288 0
M  V30 2706 C 261.608 -5.19747 -1.25565 0
M  V30 2707 C 262.908 -5.13959 0.929689 0
M  V30 2708 H 264.602 -2.88397 0.804227 0
M  V30 2709 H 262.148 -1.38669 0.388189 0
M  V30 2710 H 264.101 -3.98519 -1.36969 0
M  V30 2711 H 262.825 -2.78767 -1.70166 0
M  V30 2712 H 261.484 -3.65779 0.245265 0
M  V30 2713 H 261.132 -4.59479 -2.04666 0
M  V30 2714 H 260.832 -5.8225 -0.791128 0
M  V30 2715 H 262.356 -5.85789 -1.72288 0
M  V30 2716 H 263.77 -5.70718 0.543546 0
M  V30 2717 H 262.167 -5.85379 1.32103 0
M  V30 2718 H 263.237 -4.51389 1.77133 0
M  V30 2719 N 264.58 -0.43555 -1.51462 0
M  V30 2720 C 265.991 0.0279871 -1.86679 0
M  V30 2721 C 266.342 1.42104 -1.35281 0
M  V30 2722 O 265.467 2.04667 -0.702878 0
M  V30 2723 C 266.062 0.0575626 -3.38751 0
M  V30 2724 C 264.621 0.465507 -3.7351 0
M  V30 2725 C 263.768 -0.342996 -2.75171 0
M  V30 2726 H 266.719 -0.651473 -1.44712 0
M  V30 2727 H 266.74 0.867421 -3.70481 0
M  V30 2728 H 266.252 -0.956448 -3.7613 0
M  V30 2729 H 264.353 1.48519 -3.41721 0
M  V30 2730 H 264.466 0.191546 -4.78717 0
M  V30 2731 H 262.83 0.198442 -2.53926 0
M  V30 2732 H 263.613 -1.35585 -3.15391 0
M  V30 2733 N 266.058 1.56714 -0.166846 0
M  V30 2734 C 267.283 2.01557 0.488833 0
M  V30 2735 C 267.708 1.0463 1.56314 0
M  V30 2736 O 267.066 0.0251304 1.81283 0
M  V30 2737 C 267.114 3.4503 1.04818 0
M  V30 2738 O 266.218 3.51163 2.16236 0
M  V30 2739 H 265.559 0.653516 0.117526 0
M  V30 2740 H 268.089 2.02818 -0.269421 0
M  V30 2741 H 268.099 3.84243 1.37191 0
M  V30 2742 H 266.774 4.15077 0.261572 0
M  V30 2743 H 265.351 3.23807 1.84942 0
M  V30 2744 N 267.536 -0.106894 1.57237 0
M  V30 2745 C 268.466 -1.13148 2.04254 0
M  V30 2746 C 269.447 -1.42476 0.929224 0
M  V30 2747 O 270.632 -1.52709 1.19973 0
M  V30 2748 C 267.762 -2.4545 2.45706 0
M  V30 2749 C 266.716 -2.30558 3.60592 0
M  V30 2750 C 266.042 -3.67931 3.87983 0
M  V30 2751 C 267.342 -1.75597 4.91897 0
M  V30 2752 H 269.036 -0.740374 2.90101 0
M  V30 2753 H 266.582 -0.354696 1.39563 0
M  V30 2754 H 268.535 -3.17389 2.77205 0
M  V30 2755 H 267.259 -2.86475 1.56843 0
M  V30 2756 H 265.918 -1.61067 3.29322 0
M  V30 2757 H 265.566 -4.06462 2.96306 0
M  V30 2758 H 265.266 -3.58817 4.65322 0
M  V30 2759 H 266.79 -4.41356 4.21945 0
M  V30 2760 H 268.204 -2.37364 5.21854 0
M  V30 2761 H 266.601 -1.77272 5.73319 0
M  V30 2762 H 267.671 -0.714451 4.79608 0
M  V30 2763 N 269.014 -1.53014 -0.377408 0
M  V30 2764 C 269.962 -1.7927 -1.48206 0
M  V30 2765 C 270.956 -0.661195 -1.55963 0
M  V30 2766 O 272.162 -0.843908 -1.58991 0
M  V30 2767 H 268.537 -0.567425 -0.493491 0
M  V30 2768 H 270.508 -2.71753 -1.2326 0
M  V30 2769 C 269.257 -1.98894 -2.85196 0
M  V30 2770 H 268.58 -2.85395 -2.79981 0
M  V30 2771 H 270.02 -2.21249 -3.61698 0
M  V30 2772 C 268.479 -0.764691 -3.28107 0
M  V30 2773 O 269.009 0.0523226 -4.01666 0
M  V30 2774 N 267.215 -0.591493 -2.84517 0
M  V30 2775 H 266.762 -1.25749 -2.24822 0
M  V30 2776 H 266.72 0.226253 -3.13585 0
M  V30 2777 N 270.492 0.636531 -1.44174 0
M  V30 2778 C 271.903 1.21806 -1.41493 0
M  V30 2779 C 272.254 1.95785 -0.1275 0
M  V30 2780 O 271.379 2.02147 0.772376 0
M  V30 2781 C 271.974 2.21551 -2.56321 0
M  V30 2782 C 270.533 2.75143 -2.56853 0
M  V30 2783 C 269.68 1.50052 -2.33195 0
M  V30 2784 H 272.631 0.427531 -1.52833 0
M  V30 2785 H 272.652 3.0405 -2.28765 0
M  V30 2786 H 272.164 1.67679 -3.50008 0
M  V30 2787 H 270.265 3.33033 -1.67093 0
M  V30 2788 H 270.378 3.2155 -3.55165 0
M  V30 2789 H 268.742 1.77993 -1.82183 0
M  V30 2790 H 269.525 0.980903 -3.28988 0
M  V30 2791 N 271.97 1.30982 0.876444 0
M  V30 2792 C 273.247 1.10942 1.61094 0
M  V30 2793 C 273.627 -0.338223 2.08373 0
M  V30 2794 O 272.975 -1.33122 1.85717 0
M  V30 2795 C 273.185 2.11789 2.77392 0
M  V30 2796 C 274.533 2.43965 3.47514 0
M  V30 2797 O 275.557 2.10166 2.87591 0
M  V30 2798 O 274.416 3.01817 4.55597 0
M  V30 2799 H 271.51 0.42667 0.708436 0
M  V30 2800 H 274.056 1.42438 0.922474 0
M  V30 2801 H 272.828 3.09194 2.39823 0
M  V30 2802 H 272.451 1.81161 3.5393 0
M  V30 2803 N 273.449 -1.08991 1.13837 0
M  V30 2804 C 274.697 -1.80899 0.901098 0
M  V30 2805 C 275.018 -1.86356 -0.574134 0
M  V30 2806 O 274.288 -1.35235 -1.41733 0
M  V30 2807 H 272.868 -0.669966 0.330386 0
M  V30 2808 H 275.53 -1.318 1.43578 0
M  V30 2809 H 274.626 -2.83929 1.29578 0
M  V30 2810 N 274.927 -0.932562 -1.27047 0
M  V30 2811 C 276.174 -0.575559 -1.94148 0
M  V30 2812 C 276.502 0.883984 -1.73251 0
M  V30 2813 O 275.757 1.64655 -1.0577 0
M  V30 2814 C 276.056 -0.853713 -3.47054 0
M  V30 2815 C 275.722 -2.29577 -3.88079 0
M  V30 2816 C 274.384 -2.68999 -3.9899 0
M  V30 2817 C 276.736 -3.23331 -4.08787 0
M  V30 2818 C 274.064 -4.01289 -4.28 0
M  V30 2819 C 276.416 -4.55207 -4.39282 0
M  V30 2820 C 275.08 -4.94457 -4.48407 0
M  V30 2821 H 274.35 -0.210612 -0.710439 0
M  V30 2822 H 276.997 -1.17744 -1.51025 0
M  V30 2823 H 275.302 -0.169204 -3.91434 0
M  V30 2824 H 276.999 -0.55639 -3.97121 0
M  V30 2825 H 273.589 -1.97994 -3.80127 0
M  V30 2826 H 277.773 -2.94074 -3.99793 0
M  V30 2827 H 273.029 -4.31374 -4.33275 0
M  V30 2828 H 277.203 -5.27852 -4.54252 0
M  V30 2829 H 274.83 -5.96994 -4.7064 0
M  V30 2830 N 276.405 1.4127 -0.698611 0
M  V30 2831 C 277.315 2.34573 -0.0357891 0
M  V30 2832 C 278.331 1.56393 0.762701 0
M  V30 2833 O 279.507 1.8886 0.699564 0
M  V30 2834 C 276.572 3.35159 0.887089 0
M  V30 2835 C 275.633 4.29225 0.0804634 0
M  V30 2836 C 274.866 5.25006 0.959387 0
M  V30 2837 O 275.089 5.26314 2.19886 0
M  V30 2838 O 274.023 6.00519 0.407439 0
M  V30 2839 H 277.849 2.92838 -0.804957 0
M  V30 2840 H 275.434 1.42175 -0.458966 0
M  V30 2841 H 277.316 3.9689 1.41621 0
M  V30 2842 H 275.991 2.79333 1.6357 0
M  V30 2843 H 274.898 3.70833 -0.493328 0
M  V30 2844 H 276.231 4.88157 -0.629547 0
M  V30 2845 N 277.883 0.443576 1.51229 0
M  V30 2846 C 279.299 0.0962001 1.5931 0
M  V30 2847 C 279.499 -1.39501 1.45402 0
M  V30 2848 O 278.555 -2.16557 1.29843 0
M  V30 2849 C 279.868 0.621875 2.94199 0
M  V30 2850 C 281.416 0.582865 3.07525 0
M  V30 2851 C 281.891 1.08562 4.44948 0
M  V30 2852 N 283.382 1.04387 4.51284 0
M  V30 2853 C 284.117 1.40368 5.55954 0
M  V30 2854 N 283.613 1.83664 6.68011 0
M  V30 2855 N 285.406 1.32145 5.46346 0
M  V30 2856 H 277.557 1.41376 1.58514 0
M  V30 2857 H 279.82 0.582965 0.747567 0
M  V30 2858 H 279.526 1.66546 3.09767 0
M  V30 2859 H 279.4 0.0502125 3.77167 0
M  V30 2860 H 281.787 -0.451749 2.91622 0
M  V30 2861 H 281.868 1.191 2.26382 0
M  V30 2862 H 281.512 2.11873 4.61598 0
M  V30 2863 H 281.442 0.453956 5.2464 0
M  V30 2864 H 283.933 0.725986 3.70861 0
M  V30 2865 H 284.246 2.0934 7.43906 0
M  V30 2866 H 282.591 1.87596 6.69203 0
M  V30 2867 H 285.782 0.981808 4.57688 0
M  V30 2868 H 285.955 1.60514 6.27805 0
M  V30 2869 N 279.361 -1.56624 0.175154 0
M  V30 2870 C 280.324 -2.16934 -0.739738 0
M  V30 2871 C 281.324 -1.11842 -1.15533 0
M  V30 2872 O 282.514 -1.37335 -1.07167 0
M  V30 2873 C 279.646 -2.75531 -2.00738 0
M  V30 2874 H 280.839 -2.99131 -0.214639 0
M  V30 2875 H 278.392 -1.56123 -0.0744197 0
M  V30 2876 H 279.127 -1.97078 -2.57548 0
M  V30 2877 H 278.912 -3.52444 -1.71831 0
M  V30 2878 H 280.402 -3.21904 -2.66021 0
M  V30 2879 N 280.839 0.0985539 -1.57292 0
M  V30 2880 C 282.255 0.45267 -1.53046 0
M  V30 2881 C 282.455 1.80713 -0.891342 0
M  V30 2882 O 281.511 2.4785 -0.482375 0
M  V30 2883 C 282.824 0.418341 -2.97776 0
M  V30 2884 C 284.372 0.500443 -3.08973 0
M  V30 2885 C 284.847 0.496297 -4.55303 0
M  V30 2886 N 286.338 0.557151 -4.59837 0
M  V30 2887 C 287.073 0.575726 -5.70502 0
M  V30 2888 N 286.569 0.550714 -6.90608 0
M  V30 2889 N 288.362 0.620277 -5.58667 0
M  V30 2890 H 280.513 -0.788673 -1.97215 0
M  V30 2891 H 282.776 -0.293188 -0.901524 0
M  V30 2892 H 282.482 -0.509659 -3.47988 0
M  V30 2893 H 282.356 1.2386 -3.56284 0
M  V30 2894 H 284.743 1.41886 -2.58751 0
M  V30 2895 H 284.824 -0.347894 -2.53423 0
M  V30 2896 H 284.468 -0.418162 -5.06176 0
M  V30 2897 H 284.398 1.3618 -5.08687 0
M  V30 2898 H 286.889 0.581816 -3.73394 0
M  V30 2899 H 287.202 0.568075 -7.70709 0
M  V30 2900 H 285.547 0.517816 -6.93068 0
M  V30 2901 H 288.738 0.637322 -4.63741 0
M  V30 2902 H 288.911 0.631283 -6.44918 0
M  V30 2903 N 282.317 1.53212 0.369288 0
M  V30 2904 C 283.227 1.82342 1.47609 0
M  V30 2905 C 284.243 0.711532 1.58787 0
M  V30 2906 O 285.419 1.0012 1.74751 0
M  V30 2907 C 282.484 2.00393 2.8292 0
M  V30 2908 C 281.545 3.24297 2.81301 0
M  V30 2909 C 280.778 3.41478 4.10157 0
M  V30 2910 O 281.001 2.63033 5.06132 0
M  V30 2911 O 279.935 4.34817 4.16194 0
M  V30 2912 H 283.761 2.76366 1.25918 0
M  V30 2913 H 281.346 1.38547 0.559034 0
M  V30 2914 H 283.228 2.13859 3.63101 0
M  V30 2915 H 281.903 1.09559 3.04596 0
M  V30 2916 H 280.81 3.16257 1.99831 0
M  V30 2917 H 282.143 4.15041 2.64578 0
M  V30 2918 N 283.795 -0.628877 1.44509 0
M  V30 2919 C 285.043 -1.38565 1.4712 0
M  V30 2920 C 285.364 -1.94712 0.105899 0
M  V30 2921 O 284.634 -1.75912 -0.862079 0
M  V30 2922 H 283.214 -0.514333 0.541729 0
M  V30 2923 H 285.876 -0.740018 1.80305 0
M  V30 2924 H 284.972 -2.21583 2.19789 0
M  V30 2925 N 285.273 -1.31445 -0.869486 0
M  V30 2926 C 286.55 -1.11795 -1.60503 0
M  V30 2927 C 286.93 0.327168 -2.08549 0
M  V30 2928 O 286.278 1.32135 -1.8642 0
M  V30 2929 C 286.488 -2.13258 -2.76265 0
M  V30 2930 C 287.836 -2.45805 -3.46215 0
M  V30 2931 O 288.86 -2.11688 -2.86473 0
M  V30 2932 O 287.719 -3.04228 -4.5399 0
M  V30 2933 H 284.813 -0.430421 -0.706163 0
M  V30 2934 H 287.359 -1.42925 -0.914907 0
M  V30 2935 H 286.131 -3.10461 -2.3818 0
M  V30 2936 H 285.754 -1.83035 -3.52964 0
M  V30 2937 N 286.751 1.08385 -1.14413 0
M  V30 2938 C 287.991 1.8238 -0.922868 0
M  V30 2939 C 288.355 1.84225 0.540842 0
M  V30 2940 O 289.556 2.53985 0.880058 0
M  V30 2941 C 287.827 3.24048 -1.50757 0
M  V30 2942 S 289.386 4.14917 -1.4279 0
M  V30 2943 H 286.204 0.628524 -0.332384 0
M  V30 2944 H 288.806 1.30278 -1.45766 0
M  V30 2945 H 287.51 3.20288 -2.56601 0
M  V30 2946 H 287.041 3.81224 -0.971178 0
M  V30 2947 H 289.056 4.94473 -0.413582 0
M  V30 2948 N 288.23 0.939286 1.26551 0
M  V30 2949 C 289.478 0.58469 1.93457 0
M  V30 2950 C 289.799 -0.878774 1.74076 0
M  V30 2951 O 289.069 -1.62421 1.09528 0
M  V30 2952 H 287.649 0.21325 0.715914 0
M  V30 2953 H 290.311 1.1942 1.54029 0
M  V30 2954 H 289.407 0.800849 3.0165 0
M  V30 2955 N 289.708 -1.40897 0.706093 0
M  V30 2956 C 290.955 -2.01054 0.241531 0
M  V30 2957 C 291.283 -1.55956 -1.16223 0
M  V30 2958 O 290.538 -0.766336 -1.80072 0
M  V30 2959 C 290.837 -3.5646 0.259099 0
M  V30 2960 C 290.503 -4.21106 1.61184 0
M  V30 2961 C 289.165 -4.38479 1.98216 0
M  V30 2962 C 291.517 -4.57256 2.50132 0
M  V30 2963 C 288.845 -4.89282 3.2376 0
M  V30 2964 C 291.197 -5.09454 3.7502 0
M  V30 2965 C 289.861 -5.25037 4.12181 0
M  V30 2966 H 289.131 -0.73571 0.0883825 0
M  V30 2967 H 291.778 -1.68645 0.907257 0
M  V30 2968 H 290.083 -3.88721 -0.490189 0
M  V30 2969 H 291.78 -4.00826 -0.11804 0
M  V30 2970 H 288.37 -4.07966 1.31384 0
M  V30 2971 H 292.554 -4.43479 2.228 0
M  V30 2972 H 287.81 -4.99531 3.52532 0
M  V30 2973 H 291.984 -5.36404 4.44121 0
M  V30 2974 H 289.611 -5.64164 5.09532 0
M  V30 2975 N 291.186 -0.45159 -1.50991 0
M  V30 2976 C 292.434 0.109857 -2.01801 0
M  V30 2977 C 292.755 1.41958 -1.3369 0
M  V30 2978 O 292.025 1.9003 -0.475951 0
M  V30 2979 H 290.605 0.0435884 -0.745727 0
M  V30 2980 H 293.267 -0.597557 -1.85514 0
M  V30 2981 H 292.363 0.275489 -3.10882 0
M  V30 2982 N 292.664 1.56529 -0.183458 0
M  V30 2983 C 293.941 1.88959 0.50536 0
M  V30 2984 C 294.321 1.09523 1.80466 0
M  V30 2985 O 293.669 0.19278 2.27685 0
M  V30 2986 C 293.879 3.41162 0.73547 0
M  V30 2987 C 295.227 4.11155 1.06005 0
M  V30 2988 O 296.251 3.46548 0.823594 0
M  V30 2989 O 295.11 5.25318 1.50675 0
M  V30 2990 H 292.204 0.78441 0.261973 0
M  V30 2991 H 294.75 1.68231 -0.222802 0
M  V30 2992 H 293.522 3.90874 -0.182561 0
M  V30 2993 H 293.145 3.67543 1.51651 0
M  V30 2994 N 294.142 -0.090211 1.57342 0
M  V30 2995 C 295.39 -0.791241 1.85967 0
M  V30 2996 C 295.711 -1.7903 0.772859 0
M  V30 2997 O 294.981 -1.94872 -0.200398 0
M  V30 2998 H 293.561 -0.295205 0.686195 0
M  V30 2999 H 296.223 -0.0706782 1.94772 0
M  V30 3000 H 295.319 -1.31882 2.82867 0
M  V30 3001 N 295.62 -1.53406 -0.361157 0
M  V30 3002 C 296.868 -1.69467 -1.10115 0
M  V30 3003 C 297.189 -0.451352 -1.89705 0
M  V30 3004 O 296.459 0.534636 -1.88463 0
M  V30 3005 H 295.039 -0.624749 -0.409508 0
M  V30 3006 H 297.701 -1.90609 -0.406699 0
M  V30 3007 H 296.797 -2.55774 -1.78847 0
M  V30 3008 N 297.098 0.621204 -1.44841 0
M  V30 3009 C 298.509 1.20298 -1.42777 0
M  V30 3010 C 298.86 1.95639 -0.148259 0
M  V30 3011 O 297.985 2.02955 0.750892 0
M  V30 3012 C 298.58 2.1882 -2.58657 0
M  V30 3013 C 297.139 2.72403 -2.59756 0
M  V30 3014 C 296.286 1.4757 -2.34773 0
M  V30 3015 H 299.237 0.411297 -1.53278 0
M  V30 3016 H 299.258 3.01607 -2.31977 0
M  V30 3017 H 298.77 1.63957 -3.51766 0
M  V30 3018 H 296.871 3.31242 -1.70615 0
M  V30 3019 H 296.984 3.17765 -3.58556 0
M  V30 3020 H 295.348 1.76051 -1.8406 0
M  V30 3021 H 296.131 0.945954 -3.3001 0
M  V30 3022 N 298.576 1.31904 0.862503 0
M  V30 3023 C 299.801 1.25135 1.65397 0
M  V30 3024 C 300.226 -0.179 1.87246 0
M  V30 3025 O 299.584 -1.1277 1.4196 0
M  V30 3026 C 299.632 2.00832 2.99498 0
M  V30 3027 O 298.736 1.35075 3.89652 0
M  V30 3028 H 298.077 0.431655 0.504549 0
M  V30 3029 H 300.607 1.74094 1.07483 0
M  V30 3030 H 300.617 2.10709 3.49379 0
M  V30 3031 H 299.292 3.04847 2.82916 0
M  V30 3032 H 297.869 1.33696 3.48109 0
M  V30 3033 N 300.054 -1.07777 1.14986 0
M  V30 3034 C 301.302 -1.79934 0.920235 0
M  V30 3035 C 301.623 -1.86955 -0.554336 0
M  V30 3036 O 300.893 -1.36731 -1.40291 0
M  V30 3037 H 299.473 -0.666424 0.337473 0
M  V30 3038 H 302.135 -1.3027 1.44968 0
M  V30 3039 H 301.231 -2.82539 1.32583 0
M  V30 3040 N 301.532 -0.945985 -1.26051 0
M  V30 3041 C 302.495 -0.463897 -2.24456 0
M  V30 3042 C 303.495 0.427655 -1.55009 0
M  V30 3043 O 304.685 0.226157 -1.72726 0
M  V30 3044 C 301.817 0.330812 -3.39291 0
M  V30 3045 H 303.01 -1.33357 -2.68619 0
M  V30 3046 H 300.563 -0.728416 -1.38289 0
M  V30 3047 H 301.298 1.21852 -3.00537 0
M  V30 3048 H 301.083 -0.308679 -3.90883 0
M  V30 3049 H 302.573 0.657865 -4.12386 0
M  V30 3050 N 303.011 1.40521 -0.713556 0
M  V30 3051 C 304.236 2.05759 -0.26035 0
M  V30 3052 C 304.661 1.53403 1.08854 0
M  V30 3053 O 304.019 0.668535 1.68524 0
M  V30 3054 C 304.067 3.59745 -0.248122 0
M  V30 3055 O 303.171 4.05123 0.77131 0
M  V30 3056 H 302.512 0.652564 -0.122703 0
M  V30 3057 H 305.042 1.79958 -0.973467 0
M  V30 3058 H 305.052 4.07911 -0.0851129 0
M  V30 3059 H 303.727 3.97218 -1.2325 0
M  V30 3060 H 302.304 3.68422 0.57619 0
M  V30 3061 N 304.489 0.459591 1.5075 0
M  V30 3062 C 305.737 -0.0991532 2.01857 0
M  V30 3063 C 306.058 -1.41247 1.34441 0
M  V30 3064 O 305.328 -1.89775 0.486022 0
M  V30 3065 H 303.908 -0.039633 0.745948 0
M  V30 3066 H 306.57 0.607387 1.85194 0
M  V30 3067 H 305.666 -0.258998 3.11023 0
M  V30 3068 N 305.967 -1.56429 0.191757 0
M  V30 3069 C 307.383 -1.58754 -0.164137 0
M  V30 3070 C 307.583 -1.20782 -1.61288 0
M  V30 3071 O 306.639 -0.928999 -2.34789 0
M  V30 3072 C 307.952 -3.00396 0.135195 0
M  V30 3073 C 309.5 -3.1291 0.0750351 0
M  V30 3074 C 309.975 -4.56679 0.347632 0
M  V30 3075 N 311.466 -4.62252 0.296131 0
M  V30 3076 C 312.201 -5.71379 0.480948 0
M  V30 3077 N 311.697 -6.88986 0.725933 0
M  V30 3078 N 313.49 -5.60563 0.415435 0
M  V30 3079 H 305.641 -1.79393 1.13718 0
M  V30 3080 H 307.904 -0.832414 0.453643 0
M  V30 3081 H 307.61 -3.32726 1.13958 0
M  V30 3082 H 307.484 -3.72963 -0.563773 0
M  V30 3083 H 309.871 -2.80394 -0.919948 0
M  V30 3084 H 309.952 -2.42736 0.807029 0
M  V30 3085 H 309.596 -4.89907 1.33992 0
M  V30 3086 H 309.526 -5.25039 -0.405212 0
M  V30 3087 H 312.017 -3.7773 0.113259 0
M  V30 3088 H 312.33 -7.68046 0.855857 0
M  V30 3089 H 310.675 -6.90801 0.762788 0
M  V30 3090 H 313.866 -4.67561 0.224486 0
M  V30 3091 H 314.039 -6.45551 0.562889 0
M  V30 3092 N 307.445 0.0818655 -1.57387 0
M  V30 3093 C 308.722 0.815343 -1.77796 0
M  V30 3094 C 309.102 1.96289 -0.77679 0
M  V30 3095 O 308.45 2.27691 0.192106 0
M  V30 3096 C 308.66 1.29765 -3.23978 0
M  V30 3097 C 310.008 1.7351 -3.8753 0
M  V30 3098 O 311.032 1.39356 -3.27808 0
M  V30 3099 O 309.891 2.36708 -4.92576 0
M  V30 3100 H 306.985 0.389914 -0.729312 0
M  V30 3101 H 309.531 0.0627213 -1.69584 0
M  V30 3102 H 308.303 0.47608 -3.88393 0
M  V30 3103 H 307.926 2.11189 -3.36875 0
M  V30 3104 N 308.923 1.53595 0.353017 0
M  V30 3105 C 309.871 1.81605 1.45335 0
M  V30 3106 C 310.865 0.685923 1.54892 0
M  V30 3107 O 312.071 0.869095 1.57628 0
M  V30 3108 H 308.446 0.575204 0.484401 0
M  V30 3109 H 310.417 2.73679 1.18921 0
M  V30 3110 C 309.166 2.03406 2.81995 0
M  V30 3111 H 308.489 2.89814 2.75405 0
M  V30 3112 H 309.929 2.26975 3.58132 0
M  V30 3113 C 308.388 0.816794 3.26849 0
M  V30 3114 O 308.918 0.0115856 4.01698 0
M  V30 3115 N 307.124 0.636682 2.8354 0
M  V30 3116 H 306.671 1.2931 2.22793 0
M  V30 3117 H 306.629 -0.176336 3.13905 0
M  V30 3118 N 310.401 -0.613514 1.45168 0
M  V30 3119 C 311.626 -1.40437 1.52618 0
M  V30 3120 C 312.051 -1.87438 0.157707 0
M  V30 3121 O 311.409 -1.59791 -0.856537 0
M  V30 3122 C 311.457 -2.58894 2.51011 0
M  V30 3123 O 310.561 -3.59326 2.02382 0
M  V30 3124 H 309.902 -0.419506 0.514695 0
M  V30 3125 H 312.432 -0.747215 1.90467 0
M  V30 3126 H 312.442 -3.06214 2.69624 0
M  V30 3127 H 311.117 -2.24032 3.50403 0
M  V30 3128 H 309.694 -3.18695 1.93618 0
M  V30 3129 N 311.879 -1.3236 -0.855495 0
M  V30 3130 C 313.295 -1.11332 -1.14356 0
M  V30 3131 C 313.495 0.106751 -2.01217 0
M  V30 3132 O 312.551 0.791891 -2.39761 0
M  V30 3133 C 313.864 -2.39237 -1.82171 0
M  V30 3134 C 315.412 -2.44986 -1.9481 0
M  V30 3135 C 315.887 -3.7281 -2.66039 0
M  V30 3136 N 317.378 -3.73787 -2.73565 0
M  V30 3137 C 318.113 -4.69394 -3.29327 0
M  V30 3138 N 317.609 -5.75367 -3.85907 0
M  V30 3139 N 319.402 -4.56893 -3.27423 0
M  V30 3140 H 311.553 -2.10586 -0.277027 0
M  V30 3141 H 313.816 -0.929701 -0.185364 0
M  V30 3142 H 313.522 -3.28431 -1.25802 0
M  V30 3143 H 313.396 -2.50134 -2.82335 0
M  V30 3144 H 315.783 -1.56252 -2.50338 0
M  V30 3145 H 315.864 -2.38043 -0.936448 0
M  V30 3146 H 315.508 -4.61918 -2.11174 0
M  V30 3147 H 315.438 -3.77024 -3.67642 0
M  V30 3148 H 317.929 -2.97189 -2.33424 0
M  V30 3149 H 318.242 -6.44378 -4.26611 0
M  V30 3150 H 316.587 -5.79123 -3.84242 0
M  V30 3151 H 319.778 -3.73269 -2.82467 0
M  V30 3152 H 319.951 -5.31577 -3.7058 0
M  V30 3153 N 313.357 1.07166 -1.15556 0
M  V30 3154 C 314.605 1.79443 -0.929764 0
M  V30 3155 C 314.926 1.87246 0.544414 0
M  V30 3156 O 314.196 1.37473 1.39564 0
M  V30 3157 H 312.776 0.664625 -0.341003 0
M  V30 3158 H 315.438 1.29499 -1.45657 0
M  V30 3159 H 314.534 2.81832 -1.34079 0
M  V30 3160 N 314.835 0.952656 1.25548 0
M  V30 3161 C 316.251 0.656769 1.4546 0
M  V30 3162 C 316.451 -0.78633 1.85524 0
M  V30 3163 O 315.507 -1.56183 1.98402 0
M  V30 3164 C 316.82 1.62801 2.52817 0
M  V30 3165 C 318.368 1.63897 2.66659 0
M  V30 3166 C 318.843 2.5978 3.77198 0
M  V30 3167 N 320.334 2.58133 3.84606 0
M  V30 3168 C 321.069 3.29003 4.69621 0
M  V30 3169 N 320.565 4.09339 5.58939 0
M  V30 3170 N 322.358 3.179 4.63569 0
M  V30 3171 H 314.509 1.88526 0.978344 0
M  V30 3172 H 316.772 0.810815 0.491206 0
M  V30 3173 H 316.478 2.65869 2.30232 0
M  V30 3174 H 316.352 1.38898 3.50695 0
M  V30 3175 H 318.739 0.615481 2.8861 0
M  V30 3176 H 318.82 1.91858 1.69187 0
M  V30 3177 H 318.464 3.62254 3.55997 0
M  V30 3178 H 318.394 2.29105 4.7415 0
M  V30 3179 H 320.885 1.99809 3.20757 0
M  V30 3180 H 321.198 4.6034 6.20731 0
M  V30 3181 H 319.543 4.13438 5.58654 0
M  V30 3182 H 322.734 2.54612 3.92798 0
M  V30 3183 H 322.907 3.73398 5.29602 0
M  V30 3184 N 316.313 -1.40141 0.720998 0
M  V30 3185 C 317.59 -1.94677 0.189757 0
M  V30 3186 C 317.97 -1.65879 -1.30566 0
M  V30 3187 O 317.318 -0.979391 -2.06447 0
M  V30 3188 C 317.528 -3.45279 0.508304 0
M  V30 3189 C 318.876 -4.22209 0.449934 0
M  V30 3190 O 319.9 -3.53413 0.444677 0
M  V30 3191 O 318.759 -5.44788 0.432189 0
M  V30 3192 H 315.853 -0.826459 0.0299026 0
M  V30 3193 H 318.399 -1.49719 0.7989 0
M  V30 3194 H 317.171 -3.59619 1.54239 0
M  V30 3195 H 316.794 -3.97386 -0.130525 0
M  V30 3196 N 317.792 -0.46758 -1.50504 0
M  V30 3197 C 318.722 0.318381 -2.31319 0
M  V30 3198 C 319.703 0.993564 -1.38066 0
M  V30 3199 O 320.888 0.991411 -1.66987 0
M  V30 3200 C 318.018 1.40275 -3.17711 0
M  V30 3201 C 316.972 0.849373 -4.19487 0
M  V30 3202 C 316.298 2.03177 -4.94594 0
M  V30 3203 C 317.598 -0.136942 -5.2212 0
M  V30 3204 H 319.292 -0.356106 -2.97275 0
M  V30 3205 H 316.838 -0.172703 -1.42961 0
M  V30 3206 H 318.791 1.96004 -3.73042 0
M  V30 3207 H 317.515 2.10596 -2.49634 0
M  V30 3208 H 316.174 0.314076 -3.65252 0
M  V30 3209 H 315.822 2.72187 -4.22993 0
M  V30 3210 H 315.522 1.66774 -5.63436 0
M  V30 3211 H 317.046 2.59403 -5.52759 0
M  V30 3212 H 318.46 0.331056 -5.72343 0
M  V30 3213 H 316.857 -0.41507 -5.98663 0
M  V30 3214 H 317.927 -1.06398 -4.73083 0
M  V30 3215 N 319.27 1.56325 -0.20005 0
M  V30 3216 C 320.218 2.20666 0.735482 0
M  V30 3217 C 321.212 1.17934 1.21605 0
M  V30 3218 O 322.418 1.36068 1.17837 0
M  V30 3219 H 318.793 0.70725 0.255542 0
M  V30 3220 H 320.764 2.9792 0.169166 0
M  V30 3221 C 319.513 2.88391 1.94232 0
M  V30 3222 H 318.836 3.67185 1.58161 0
M  V30 3223 H 320.276 3.3684 2.57517 0
M  V30 3224 C 318.735 1.89692 2.78421 0
M  V30 3225 O 319.265 1.40032 3.76502 0
M  V30 3226 N 317.471 1.57813 2.44015 0
M  V30 3227 H 317.018 1.9839 1.64314 0
M  V30 3228 H 316.976 0.920325 3.00628 0
M  V30 3229 N 320.748 -0.0735177 1.57428 0
M  V30 3230 C 322.164 -0.428264 1.53747 0
M  V30 3231 C 322.364 -1.79272 0.91998 0
M  V30 3232 O 321.42 -2.47051 0.521745 0
M  V30 3233 C 322.733 -0.370914 2.98404 0
M  V30 3234 C 324.281 -0.451224 3.0973 0
M  V30 3235 C 324.756 -0.4238 4.56035 0
M  V30 3236 N 326.247 -0.483925 4.60665 0
M  V30 3237 C 326.982 -0.484891 5.71346 0
M  V30 3238 N 326.478 -0.440775 6.91396 0
M  V30 3239 N 328.271 -0.531319 5.59583 0
M  V30 3240 H 320.422 0.819949 1.95935 0
M  V30 3241 H 322.685 0.307493 0.896745 0
M  V30 3242 H 322.391 0.564956 3.47133 0
M  V30 3243 H 322.265 -1.18176 3.5821 0
M  V30 3244 H 324.652 -1.37752 2.60976 0
M  V30 3245 H 324.733 0.388167 2.52838 0
M  V30 3246 H 324.377 0.498638 5.05446 0
M  V30 3247 H 324.307 -1.2807 5.10789 0
M  V30 3248 H 326.798 -0.522338 3.74273 0
M  V30 3249 H 327.111 -0.44539 7.71515 0
M  V30 3250 H 325.456 -0.40749 6.93804 0
M  V30 3251 H 328.647 -0.563464 4.64696 0
M  V30 3252 H 328.82 -0.528603 6.4584 0
M  V30 3253 N 322.226 -1.5378 -0.344866 0
M  V30 3254 C 323.451 -1.75211 -1.10977 0
M  V30 3255 C 323.876 -0.48936 -1.81623 0
M  V30 3256 O 323.234 0.557925 -1.72502 0
M  V30 3257 C 323.282 -2.93147 -2.09993 0
M  V30 3258 O 322.386 -2.63203 -3.17487 0
M  V30 3259 H 321.727 -0.581241 -0.321021 0
M  V30 3260 H 324.257 -2.00738 -0.395661 0
M  V30 3261 H 324.267 -3.19898 -2.53237 0
M  V30 3262 H 322.942 -3.84731 -1.5797 0
M  V30 3263 H 321.519 -2.47336 -2.79069 0
M  V30 3264 N 323.704 0.605807 -1.45491 0
M  V30 3265 C 324.951 1.36476 -1.49601 0
M  V30 3266 C 325.279 1.94007 -0.138452 0
M  V30 3267 O 324.534 1.75638 0.863114 0
M  V30 3268 C 324.833 2.53012 -2.52428 0
M  V30 3269 C 324.499 2.13617 -3.97087 0
M  V30 3270 C 323.161 2.02587 -4.36477 0
M  V30 3271 C 325.513 1.82899 -4.88055 0
M  V30 3272 C 322.841 1.59064 -5.64726 0
M  V30 3273 C 325.193 1.40861 -6.16718 0
M  V30 3274 C 323.857 1.28391 -6.55036 0
M  V30 3275 H 323.127 0.499402 -0.547429 0
M  V30 3276 H 325.774 0.684546 -1.78847 0
M  V30 3277 H 324.079 3.26379 -2.16758 0
M  V30 3278 H 325.776 3.1124 -2.52845 0
M  V30 3279 H 322.366 2.23129 -3.65939 0
M  V30 3280 H 326.55 1.90317 -4.58359 0
M  V30 3281 H 321.806 1.48034 -5.93208 0
M  V30 3282 H 325.98 1.16138 -6.86648 0
M  V30 3283 H 323.607 0.944403 -7.54311 0
M  V30 3284 N 325.182 1.32811 0.848464 0
M  V30 3285 C 326.593 1.21315 1.41914 0
M  V30 3286 C 326.944 -0.171847 1.95446 0
M  V30 3287 O 326.069 -1.07093 1.88043 0
M  V30 3288 C 326.664 2.19631 2.57968 0
M  V30 3289 C 325.223 2.12003 3.11017 0
M  V30 3290 C 324.37 2.07651 1.83783 0
M  V30 3291 H 327.321 1.44549 0.655071 0
M  V30 3292 H 327.342 1.79845 3.35315 0
M  V30 3293 H 326.854 3.20423 2.18976 0
M  V30 3294 H 324.955 1.14481 3.54577 0
M  V30 3295 H 325.068 3.02111 3.71841 0
M  V30 3296 H 323.432 1.52983 2.03638 0
M  V30 3297 H 324.215 3.10235 1.47 0
M  V30 3298 N 326.66 -1.06551 1.16123 0
M  V30 3299 C 327.937 -1.76097 0.85142 0
M  V30 3300 C 328.317 -2.00802 -0.6513 0
M  V30 3301 O 327.665 -1.63302 -1.59827 0
M  V30 3302 C 327.875 -3.06384 1.67122 0
M  V30 3303 C 329.223 -3.80585 1.88255 0
M  V30 3304 O 330.247 -3.16218 1.63966 0
M  V30 3305 O 329.106 -4.96212 2.2899 0
M  V30 3306 H 326.2 -0.765102 0.313923 0
M  V30 3307 H 328.746 -1.12844 1.26745 0
M  V30 3308 H 327.518 -2.84071 2.69108 0
M  V30 3309 H 327.141 -3.77371 1.25206 0
M  V30 3310 N 328.138 -0.959301 -1.25041 0
M  V30 3311 C 329.07 -0.440543 -2.24926 0
M  V30 3312 C 330.083 0.446131 -1.56568 0
M  V30 3313 O 331.272 0.253657 -1.76689 0
M  V30 3314 C 328.372 0.38412 -3.36716 0
M  V30 3315 C 327.545 -0.490658 -4.34639 0
M  V30 3316 C 326.604 0.276587 -5.25473 0
M  V30 3317 O 325.63 -0.326614 -5.68262 0
M  V30 3318 N 326.832 1.56844 -5.5891 0
M  V30 3319 H 329.597 -1.29931 -2.70071 0
M  V30 3320 H 327.158 -0.830181 -1.38995 0
M  V30 3321 H 329.15 0.905228 -3.94446 0
M  V30 3322 H 327.72 1.14377 -2.90924 0
M  V30 3323 H 326.94 -1.19282 -3.7572 0
M  V30 3324 H 328.228 -1.08756 -4.97041 0
M  V30 3325 H 327.626 2.08036 -5.26059 0
M  V30 3326 H 326.183 2.03541 -6.19205 0
M  V30 3327 N 329.616 1.39756 -0.72842 0
M  V30 3328 C 330.863 2.00645 -0.273487 0
M  V30 3329 C 331.191 1.57786 1.13727 0
M  V30 3330 O 330.446 0.794886 1.7883 0
M  V30 3331 C 330.745 3.56002 -0.315776 0
M  V30 3332 C 330.411 4.18489 -1.67863 0
M  V30 3333 C 329.073 4.3527 -2.05166 0
M  V30 3334 C 331.425 4.53219 -2.57375 0
M  V30 3335 C 328.753 4.84069 -3.31503 0
M  V30 3336 C 331.105 5.03423 -3.83077 0
M  V30 3337 C 329.769 5.18413 -4.20481 0
M  V30 3338 H 329.039 0.734211 -0.100076 0
M  V30 3339 H 331.686 1.6718 -0.933972 0
M  V30 3340 H 329.991 3.89452 0.428285 0
M  V30 3341 H 331.688 4.00963 0.0542575 0
M  V30 3342 H 328.278 4.05824 -1.37858 0
M  V30 3343 H 332.462 4.39878 -2.29827 0
M  V30 3344 H 327.718 4.93859 -3.60435 0
M  V30 3345 H 331.892 5.2927 -4.52599 0
M  V30 3346 H 329.519 5.55987 -5.18443 0
M  V30 3347 N 331.094 0.475555 1.50254 0
M  V30 3348 C 332.319 -0.0777042 2.07254 0
M  V30 3349 C 332.744 -1.3235 1.3366 0
M  V30 3350 O 332.102 -1.77152 0.385597 0
M  V30 3351 C 332.15 -0.340169 3.58992 0
M  V30 3352 O 331.254 -1.41982 3.87188 0
M  V30 3353 H 330.595 0.0149556 0.663832 0
M  V30 3354 H 333.125 0.667878 1.93392 0
M  V30 3355 H 333.135 -0.579332 4.03866 0
M  V30 3356 H 331.81 0.570167 4.11973 0
M  V30 3357 H 330.387 -1.16762 3.54148 0
M  V30 3358 N 332.573 -1.56217 0.208337 0
M  V30 3359 C 333.801 -2.02337 -0.43215 0
M  V30 3360 C 334.216 -1.08834 -1.54275 0
M  V30 3361 O 333.573 -0.0955462 -1.8225 0
M  V30 3362 C 333.624 -3.48072 -0.976138 0
M  V30 3363 O 333.345 -4.38007 0.0901621 0
M  V30 3364 C 334.846 -4.09773 -1.69119 0
M  V30 3365 H 332.066 -0.662385 -0.10718 0
M  V30 3366 H 334.61 -2.01966 0.320923 0
M  V30 3367 H 332.765 -3.49099 -1.67954 0
M  V30 3368 H 333.179 -5.23543 -0.316701 0
M  V30 3369 H 334.653 -5.13556 -2.02397 0
M  V30 3370 H 335.13 -3.53999 -2.59964 0
M  V30 3371 H 335.736 -4.12556 -1.03332 0
M  V30 3372 N 334.051 0.0651679 -1.57465 0
M  V30 3373 C 335.299 0.761555 -1.87202 0
M  V30 3374 C 335.62 1.77778 -0.801243 0
M  V30 3375 O 334.89 1.95166 0.16937 0
M  V30 3376 H 333.47 0.284251 -0.690804 0
M  V30 3377 H 336.132 0.0396827 -1.9486 0
M  V30 3378 H 335.228 1.27365 -2.84929 0
M  V30 3379 N 335.529 1.53961 0.336706 0
M  V30 3380 C 336.439 1.85432 1.43708 0
M  V30 3381 C 337.455 0.745053 1.57242 0
M  V30 3382 O 338.631 1.03804 1.72588 0
M  V30 3383 C 335.696 2.06349 2.78605 0
M  V30 3384 C 334.757 3.30191 2.74358 0
M  V30 3385 C 333.99 3.50101 4.02822 0
M  V30 3386 O 334.213 2.7371 5.00439 0
M  V30 3387 O 333.147 4.43547 4.06878 0
M  V30 3388 H 336.973 2.78975 1.20028 0
M  V30 3389 H 334.558 1.39701 0.52952 0
M  V30 3390 H 336.44 2.21513 3.58483 0
M  V30 3391 H 335.115 1.15995 3.02203 0
M  V30 3392 H 334.022 3.20425 1.93078 0
M  V30 3393 H 335.355 4.2056 2.55715 0
M  V30 3394 N 337.007 -0.598083 1.45811 0
M  V30 3395 C 338.418 -1.18011 1.44673 0
M  V30 3396 C 338.769 -1.95378 0.179364 0
M  V30 3397 O 337.894 -2.04124 -0.718509 0
M  V30 3398 C 338.489 -2.14677 2.62105 0
M  V30 3399 C 337.048 -2.68236 2.64057 0
M  V30 3400 C 336.195 -1.43816 2.37091 0
M  V30 3401 H 339.146 -0.38686 1.53913 0
M  V30 3402 H 339.167 -2.97878 2.36746 0
M  V30 3403 H 338.679 -1.5834 3.5433 0
M  V30 3404 H 336.78 -3.28486 1.75864 0
M  V30 3405 H 336.893 -3.12021 3.63566 0
M  V30 3406 H 335.257 -1.731 1.86838 0
M  V30 3407 H 336.04 -0.893333 3.31473 0
M  V30 3408 N 338.485 -1.33259 -0.841409 0
M  V30 3409 C 339.896 -1.22066 -1.41269 0
M  V30 3410 C 340.247 0.161479 -1.95534 0
M  V30 3411 O 339.372 1.06094 -1.88608 0
M  V30 3412 C 339.967 -2.20996 -2.568 0
M  V30 3413 C 338.526 -2.13649 -3.09888 0
M  V30 3414 C 337.673 -2.08623 -1.82679 0
M  V30 3415 H 340.624 -1.44895 -0.647395 0
M  V30 3416 H 340.645 -1.81621 -3.34356 0
M  V30 3417 H 340.157 -3.2158 -2.17274 0
M  V30 3418 H 338.258 -1.16359 -3.53965 0
M  V30 3419 H 338.371 -3.04079 -3.70234 0
M  V30 3420 H 336.735 -1.54061 -2.02824 0
M  V30 3421 H 337.518 -3.1101 -1.45353 0
M  V30 3422 N 339.963 1.05934 -1.16686 0
M  V30 3423 C 340.926 2.11669 -0.879144 0
M  V30 3424 C 341.926 1.60294 0.127445 0
M  V30 3425 O 343.116 1.7389 -0.103865 0
M  V30 3426 C 340.248 3.39438 -0.315425 0
M  V30 3427 H 341.441 2.38626 -1.81653 0
M  V30 3428 H 338.994 1.22058 -0.976299 0
M  V30 3429 H 339.729 3.18132 0.629468 0
M  V30 3430 H 339.514 3.78034 -1.04079 0
M  V30 3431 H 341.004 4.17391 -0.132189 0
M  V30 3432 N 341.441 0.965919 1.2453 0
M  V30 3433 C 342.371 0.513476 2.27784 0
M  V30 3434 C 343.352 -0.445974 1.6415 0
M  V30 3435 O 344.537 -0.342485 1.91156 0
M  V30 3436 C 341.667 -0.198839 3.4673 0
M  V30 3437 C 340.621 0.676456 4.2262 0
M  V30 3438 C 339.947 -0.167248 5.34438 0
M  V30 3439 C 341.247 1.96017 4.84123 0
M  V30 3440 H 342.941 1.3765 2.65881 0
M  V30 3441 H 340.487 0.663321 1.27813 0
M  V30 3442 H 342.44 -0.526567 4.18097 0
M  V30 3443 H 341.164 -1.0962 3.07654 0
M  V30 3444 H 339.823 0.98743 3.53052 0
M  V30 3445 H 339.471 -1.0647 4.91603 0
M  V30 3446 H 339.171 0.415181 5.86131 0
M  V30 3447 H 340.695 -0.489688 6.08633 0
M  V30 3448 H 342.109 1.69814 5.47573 0
M  V30 3449 H 340.506 2.48918 5.4604 0
M  V30 3450 H 341.576 2.65622 4.05676 0
M  V30 3451 N 342.919 -1.39368 0.735821 0
M  V30 3452 C 344.196 -1.94465 0.210395 0
M  V30 3453 C 344.576 -1.67254 -1.28799 0
M  V30 3454 O 343.924 -1.00123 -2.05396 0
M  V30 3455 C 344.134 -3.4472 0.544897 0
M  V30 3456 C 345.482 -4.21708 0.494689 0
M  V30 3457 O 346.506 -3.52922 0.482136 0
M  V30 3458 O 345.365 -5.44299 0.489947 0
M  V30 3459 H 342.459 -0.826096 0.0386666 0
M  V30 3460 H 345.005 -1.48863 0.814735 0
M  V30 3461 H 343.777 -3.57963 1.58045 0
M  V30 3462 H 343.4 -3.97502 -0.08837 0
M  V30 3463 N 344.397 -0.483516 -1.5 0
M  V30 3464 C 345.307 0.309172 -2.32554 0
M  V30 3465 C 346.323 0.984159 -1.43493 0
M  V30 3466 O 347.499 0.969399 -1.76535 0
M  V30 3467 C 344.564 1.36979 -3.18493 0
M  V30 3468 C 343.625 0.710095 -4.23387 0
M  V30 3469 C 342.858 1.72018 -5.05218 0
M  V30 3470 O 343.081 2.94813 -4.88305 0
M  V30 3471 O 342.015 1.28515 -5.8802 0
M  V30 3472 H 345.841 -0.366064 -3.01486 0
M  V30 3473 H 343.426 -0.24514 -1.47375 0
M  V30 3474 H 345.308 1.98385 -3.71781 0
M  V30 3475 H 343.983 2.02828 -2.52275 0
M  V30 3476 H 342.89 0.0567539 -3.74057 0
M  V30 3477 H 344.223 0.0943557 -4.9211 0
M  V30 3478 N 345.875 1.56104 -0.216619 0
M  V30 3479 C 347.121 1.98466 0.417033 0
M  V30 3480 C 347.454 1.10403 1.59765 0
M  V30 3481 O 346.729 0.160632 1.93836 0
M  V30 3482 C 347.012 3.49769 0.85637 0
M  V30 3483 C 346.865 4.48606 -0.327546 0
M  V30 3484 C 348.184 4.05339 1.7143 0
M  V30 3485 H 345.303 0.721551 0.150112 0
M  V30 3486 H 347.945 1.87423 -0.311864 0
M  V30 3487 H 346.095 3.5931 1.47745 0
M  V30 3488 H 347.767 4.5108 -0.965618 0
M  V30 3489 H 346.01 4.22682 -0.975805 0
M  V30 3490 H 346.681 5.51995 0.0227149 0
M  V30 3491 H 349.157 3.98712 1.19031 0
M  V30 3492 H 348.033 5.11533 1.99061 0
M  V30 3493 H 348.294 3.51918 2.67593 0
M  V30 3494 N 347.353 -0.0568162 1.57498 0
M  V30 3495 C 348.764 -0.606858 1.76562 0
M  V30 3496 C 349.115 -1.77114 0.844094 0
M  V30 3497 O 348.24 -2.16376 0.0318911 0
M  V30 3498 C 348.835 -1.10766 3.20182 0
M  V30 3499 C 347.394 -1.60344 3.40539 0
M  V30 3500 C 346.541 -0.529311 2.72201 0
M  V30 3501 H 349.492 0.169393 1.57793 0
M  V30 3502 H 349.513 -1.97602 3.25167 0
M  V30 3503 H 349.025 -0.26006 3.87228 0
M  V30 3504 H 347.126 -2.47379 2.78629 0
M  V30 3505 H 347.239 -1.67006 4.4905 0
M  V30 3506 H 345.603 -0.977893 2.35179 0
M  V30 3507 H 346.386 0.308352 3.41912 0
M  V30 3508 N 348.832 -1.54138 -0.328536 0
M  V30 3509 C 349.742 -1.86192 -1.42723 0
M  V30 3510 C 350.758 -0.753382 -1.56844 0
M  V30 3511 O 351.934 -1.04718 -1.72035 0
M  V30 3512 C 348.999 -2.07824 -2.77507 0
M  V30 3513 C 348.06 -3.31641 -2.72603 0
M  V30 3514 C 347.293 -3.52232 -4.00959 0
M  V30 3515 O 347.516 -2.7636 -4.9898 0
M  V30 3516 O 346.45 -4.45699 -4.0452 0
M  V30 3517 H 350.276 -2.79608 -1.18547 0
M  V30 3518 H 347.861 -1.3998 -0.522104 0
M  V30 3519 H 349.743 -2.23411 -3.57303 0
M  V30 3520 H 348.418 -1.17596 -3.01584 0
M  V30 3521 H 347.325 -3.21444 -1.91376 0
M  V30 3522 H 348.658 -4.2191 -2.53481 0
M  V30 3523 N 350.31 0.590341 -1.46126 0
M  V30 3524 C 351.556 1.35082 -1.51264 0
M  V30 3525 C 351.889 1.93534 -0.160711 0
M  V30 3526 O 351.164 1.76045 0.826956 0
M  V30 3527 C 351.447 2.48588 -2.6053 0
M  V30 3528 C 351.3 1.95221 -4.05227 0
M  V30 3529 C 352.619 3.50662 -2.6594 0
M  V30 3530 H 349.738 0.489803 -0.550692 0
M  V30 3531 H 352.38 0.663887 -1.78024 0
M  V30 3532 H 350.53 3.07186 -2.37843 0
M  V30 3533 H 352.202 1.41139 -4.39178 0
M  V30 3534 H 350.445 1.26101 -4.15068 0
M  V30 3535 H 351.116 2.77121 -4.77397 0
M  V30 3536 H 353.592 3.01934 -2.86313 0
M  V30 3537 H 352.468 4.27551 -3.44226 0
M  V30 3538 H 352.729 4.07399 -1.71694 0
M  V30 3539 N 351.788 1.33704 0.83433 0
M  V30 3540 C 353.204 1.13137 1.12571 0
M  V30 3541 C 353.404 -0.0747261 2.01361 0
M  V30 3542 O 352.46 -0.753647 2.4099 0
M  V30 3543 C 353.773 2.42105 1.78342 0
M  V30 3544 C 355.321 2.48054 1.90888 0
M  V30 3545 C 355.796 3.76995 2.60075 0
M  V30 3546 N 357.287 3.78092 2.67584 0
M  V30 3547 C 358.022 4.74574 3.21818 0
M  V30 3548 N 357.518 5.81434 3.76705 0
M  V30 3549 N 359.311 4.62044 3.20112 0
M  V30 3550 H 351.462 2.11 0.243489 0
M  V30 3551 H 353.725 0.932532 0.17055 0
M  V30 3552 H 353.431 3.30391 1.20561 0
M  V30 3553 H 353.305 2.54594 2.7832 0
M  V30 3554 H 355.692 1.60215 2.47821 0
M  V30 3555 H 355.773 2.39502 0.898459 0
M  V30 3556 H 355.417 4.65219 2.03799 0
M  V30 3557 H 355.347 3.82825 3.61597 0
M  V30 3558 H 357.838 3.00865 2.28667 0
M  V30 3559 H 358.151 6.51084 4.16305 0
M  V30 3560 H 356.496 5.85163 3.7498 0
M  V30 3561 H 359.687 3.77716 2.76493 0
M  V30 3562 H 359.86 5.37406 3.62076 0
M  V30 3563 N 353.266 -1.05314 1.17247 0
M  V30 3564 C 354.229 -2.112 0.890357 0
M  V30 3565 C 355.229 -1.60359 -0.118943 0
M  V30 3566 O 356.419 -1.73833 0.113086 0
M  V30 3567 C 353.551 -3.39266 0.333422 0
M  V30 3568 H 354.744 -2.37659 1.82916 0
M  V30 3569 H 352.297 -1.21538 0.982758 0
M  V30 3570 H 353.032 -3.18462 -0.612587 0
M  V30 3571 H 352.817 -3.77477 1.06082 0
M  V30 3572 H 354.307 -4.17315 0.154322 0
M  V30 3573 N 354.744 -0.972509 -1.24016 0
M  V30 3574 C 355.674 -0.525548 -2.27509 0
M  V30 3575 C 356.655 0.437262 -1.64384 0
M  V30 3576 O 357.84 0.332343 -1.91335 0
M  V30 3577 C 354.97 0.180448 -3.46831 0
M  V30 3578 C 353.924 -0.698859 -4.22256 0
M  V30 3579 C 353.25 0.138903 -5.3452 0
M  V30 3580 C 354.55 -1.98582 -4.83076 0
M  V30 3581 H 356.244 -1.39058 -2.65148 0
M  V30 3582 H 353.79 -0.67009 -1.27459 0
M  V30 3583 H 355.743 0.504387 -4.18371 0
M  V30 3584 H 354.467 1.07987 -3.08231 0
M  V30 3585 H 353.126 -1.00614 -3.52523 0
M  V30 3586 H 352.774 1.03862 -4.9216 0
M  V30 3587 H 352.474 -0.446259 -5.85903 0
M  V30 3588 H 353.998 0.457404 -6.08884 0
M  V30 3589 H 355.412 -1.72715 -5.46665 0
M  V30 3590 H 353.809 -2.5181 -5.44713 0
M  V30 3591 H 354.879 -2.67769 -4.04262 0
M  V30 3592 N 356.222 1.38976 -0.743202 0
M  V30 3593 C 357.471 1.99581 -0.291592 0
M  V30 3594 C 357.784 1.59656 1.13001 0
M  V30 3595 O 358.99 2.13157 1.68156 0
M  V30 3596 C 357.446 3.56813 -0.470391 0
M  V30 3597 C 357.054 4.05695 -1.90041 0
M  V30 3598 C 358.798 4.24423 -0.0809709 0
M  V30 3599 C 356.705 5.5553 -2.02832 0
M  V30 3600 H 355.635 0.746615 -0.105272 0
M  V30 3601 H 358.286 1.58872 -0.918258 0
M  V30 3602 H 356.668 3.95359 0.225299 0
M  V30 3603 H 357.842 3.78464 -2.62872 0
M  V30 3604 H 356.157 3.50775 -2.24379 0
M  V30 3605 H 358.754 5.34474 -0.155445 0
M  V30 3606 H 359.097 4.04962 0.96497 0
M  V30 3607 H 359.63 3.9108 -0.728124 0
M  V30 3608 H 356.369 5.79881 -3.05643 0
M  V30 3609 H 355.889 5.84537 -1.34448 0
M  V30 3610 H 357.568 6.21069 -1.81335 0
M  V30 3611 N 357.7 0.491464 1.49741 0
M  V30 3612 C 358.61 -0.296835 2.32715 0
M  V30 3613 C 359.626 -0.976536 1.44013 0
M  V30 3614 O 360.802 -0.960023 1.77047 0
M  V30 3615 C 357.867 -1.35288 3.19215 0
M  V30 3616 C 356.928 -0.687632 4.23757 0
M  V30 3617 C 356.161 -1.69336 5.06123 0
M  V30 3618 O 356.384 -2.92219 4.89861 0
M  V30 3619 O 355.318 -1.25394 5.88693 0
M  V30 3620 H 359.144 0.382048 3.01287 0
M  V30 3621 H 356.729 0.252953 1.47243 0
M  V30 3622 H 358.611 -1.96411 3.72828 0
M  V30 3623 H 357.286 -2.01487 2.53347 0
M  V30 3624 H 356.193 -0.0369159 3.74082 0
M  V30 3625 H 357.526 -0.0682566 4.92153 0
M  V30 3626 N 359.178 -1.55987 0.224894 0
M  V30 3627 C 360.424 -1.99433 -0.39973 0
M  V30 3628 C 360.779 -1.11004 -1.57149 0
M  V30 3629 O 360.072 -0.160725 -1.90925 0
M  V30 3630 C 360.266 -3.46394 -0.880106 0
M  V30 3631 C 360.095 -4.4904 0.243565 0
M  V30 3632 C 358.865 -5.00272 0.711056 0
M  V30 3633 C 361.063 -5.03195 1.06299 0
M  V30 3634 N 359.045 -5.86628 1.80944 0
M  V30 3635 C 360.416 -5.86508 2.01017 0
M  V30 3636 C 362.471 -4.8555 1.10205 0
M  V30 3637 C 361.174 -6.54062 2.99324 0
M  V30 3638 C 363.2 -5.53866 2.07332 0
M  V30 3639 C 362.562 -6.3695 3.00789 0
M  V30 3640 H 358.661 -0.773815 -0.112847 0
M  V30 3641 H 361.245 -1.91754 0.337432 0
M  V30 3642 H 359.416 -3.54515 -1.58662 0
M  V30 3643 H 361.148 -3.76752 -1.47783 0
M  V30 3644 H 357.903 -4.72655 0.29906 0
M  V30 3645 H 358.327 -6.34507 2.36073 0
M  V30 3646 H 362.969 -4.20966 0.39343 0
M  V30 3647 H 360.687 -7.17827 3.71147 0
M  V30 3648 H 364.273 -5.42178 2.11032 0
M  V30 3649 H 363.153 -6.8888 3.74718 0
M  V30 3650 N 360.656 0.0484629 -1.57525 0
M  V30 3651 C 361.905 0.742065 -1.87553 0
M  V30 3652 C 362.218 1.77545 -0.820802 0
M  V30 3653 O 363.424 2.52027 -1.00967 0
M  V30 3654 C 361.88 1.37081 -3.32771 0
M  V30 3655 C 361.488 0.374786 -4.4643 0
M  V30 3656 C 363.232 2.04542 -3.71972 0
M  V30 3657 C 361.139 1.01077 -5.82698 0
M  V30 3658 H 360.069 0.280903 -0.699721 0
M  V30 3659 H 362.72 -0.00411877 -1.835 0
M  V30 3660 H 361.102 2.16605 -3.31509 0
M  V30 3661 H 362.276 -0.392331 -4.59127 0
M  V30 3662 H 360.591 -0.196653 -4.15935 0
M  V30 3663 H 363.188 2.52943 -4.71088 0
M  V30 3664 H 363.531 2.85515 -3.02964 0
M  V30 3665 H 364.064 1.31819 -3.75325 0
M  V30 3666 H 360.803 0.240878 -6.55057 0
M  V30 3667 H 360.323 1.74819 -5.73758 0
M  V30 3668 H 362.002 1.52383 -6.28799 0
M  V30 3669 N 362.134 1.5431 0.320358 0
M  V30 3670 C 363.55 1.45091 0.664889 0
M  V30 3671 C 363.75 0.626382 1.91517 0
M  V30 3672 O 362.806 0.126443 2.52183 0
M  V30 3673 C 364.119 2.88848 0.83591 0
M  V30 3674 C 365.667 2.9877 0.933046 0
M  V30 3675 C 366.142 4.43683 1.13621 0
M  V30 3676 N 367.633 4.47309 1.20287 0
M  V30 3677 C 368.368 5.56595 1.37801 0
M  V30 3678 N 367.864 6.75844 1.52338 0
M  V30 3679 N 369.657 5.44248 1.40535 0
M  V30 3680 H 361.808 2.06398 -0.501374 0
M  V30 3681 H 364.071 0.933963 -0.162534 0
M  V30 3682 H 363.777 3.51698 -0.0116092 0
M  V30 3683 H 363.651 3.35148 1.73078 0
M  V30 3684 H 366.038 2.36045 1.77107 0
M  V30 3685 H 366.119 2.55796 0.0145782 0
M  V30 3686 H 365.763 5.06995 0.303032 0
M  V30 3687 H 365.693 4.84269 2.0686 0
M  V30 3688 H 368.184 3.61388 1.10485 0
M  V30 3689 H 368.497 7.54892 1.65403 0
M  V30 3690 H 366.842 6.78746 1.4943 0
M  V30 3691 H 370.033 4.50038 1.28777 0
M  V30 3692 H 370.206 6.29473 1.53842 0
M  V30 3693 N 363.613 -0.582584 1.46437 0
M  V30 3694 C 365.029 -0.905962 1.31394 0
M  V30 3695 C 365.229 -1.99468 0.285476 0
M  V30 3696 O 364.285 -2.50566 -0.311914 0
M  V30 3697 C 365.598 -1.3232 2.70022 0
M  V30 3698 C 367.146 -1.43604 2.78113 0
M  V30 3699 C 367.621 -1.88694 4.17323 0
M  V30 3700 N 369.112 -1.95887 4.19741 0
M  V30 3701 C 369.847 -2.32051 5.24347 0
M  V30 3702 N 369.343 -2.67006 6.39281 0
M  V30 3703 N 371.136 -2.32606 5.11713 0
M  V30 3704 H 363.287 0.1366 2.1196 0
M  V30 3705 H 365.55 -0.00155736 0.947999 0
M  V30 3706 H 365.256 -0.597242 3.46592 0
M  V30 3707 H 365.13 -2.28469 3.00136 0
M  V30 3708 H 367.517 -2.15286 2.01832 0
M  V30 3709 H 367.598 -0.457059 2.51684 0
M  V30 3710 H 367.242 -1.1759 4.941 0
M  V30 3711 H 367.172 -2.8755 4.4116 0
M  V30 3712 H 369.663 -1.71362 3.36814 0
M  V30 3713 H 369.976 -2.93554 7.14875 0
M  V30 3714 H 368.321 -2.64644 6.42642 0
M  V30 3715 H 371.512 -2.04721 4.2096 0
M  V30 3716 H 371.685 -2.60462 5.93349 0
M  V30 3717 N 365.091 -1.34144 -0.827227 0
M  V30 3718 C 366.039 -1.25364 -1.95925 0
M  V30 3719 C 367.033 -0.152608 -1.68711 0
M  V30 3720 O 368.239 -0.317311 -1.77181 0
M  V30 3721 H 364.614 -0.389342 -0.643364 0
M  V30 3722 H 366.585 -2.21045 -2.00454 0
M  V30 3723 C 365.334 -1.02158 -3.32354 0
M  V30 3724 H 364.657 -1.86111 -3.5384 0
M  V30 3725 H 366.097 -1.00048 -4.12027 0
M  V30 3726 C 364.556 0.275244 -3.35774 0
M  V30 3727 O 365.086 1.27806 -3.80826 0
M  V30 3728 N 363.292 0.306853 -2.88975 0
M  V30 3729 H 362.839 -0.509777 -2.52506 0
M  V30 3730 H 362.797 1.17432 -2.91646 0
M  V30 3731 N 366.569 1.04691 -1.17803 0
M  V30 3732 C 367.516 2.12557 -0.899343 0
M  V30 3733 C 368.486 1.65339 0.158771 0
M  V30 3734 O 369.671 1.90789 0.0204797 0
M  V30 3735 C 366.811 3.42481 -0.424315 0
M  V30 3736 C 365.924 4.03346 -1.54713 0
M  V30 3737 C 365.059 5.21208 -1.02546 0
M  V30 3738 C 364.098 5.74089 -2.12339 0
M  V30 3739 N 363.235 6.83247 -1.61612 0
M  V30 3740 H 368.075 2.35734 -1.823 0
M  V30 3741 H 365.612 1.1564 -0.909159 0
M  V30 3742 H 367.57 4.16996 -0.130421 0
M  V30 3743 H 366.2 3.19471 0.462377 0
M  V30 3744 H 365.252 3.2622 -1.95664 0
M  V30 3745 H 366.564 4.38628 -2.37501 0
M  V30 3746 H 365.718 6.02812 -0.685718 0
M  V30 3747 H 364.457 4.87414 -0.167084 0
M  V30 3748 H 363.462 4.91111 -2.47165 0
M  V30 3749 H 364.687 6.0993 -2.98601 0
M  V30 3750 H 362.633 6.5134 -0.780533 0
M  V30 3751 H 362.55 7.17559 -2.38003 0
M  V30 3752 H 363.818 7.68491 -1.30545 0
M  V30 3753 N 368.047 0.979072 1.23499 0
M  V30 3754 C 369.294 0.647219 1.91878 0
M  V30 3755 C 369.622 -0.819074 1.76413 0
M  V30 3756 O 368.877 -1.60616 1.11808 0
M  V30 3757 C 369.176 0.981932 3.43646 0
M  V30 3758 C 368.842 2.43822 3.79291 0
M  V30 3759 C 367.504 2.83622 3.88731 0
M  V30 3760 C 369.856 3.3828 3.96505 0
M  V30 3761 C 367.184 4.16897 4.12812 0
M  V30 3762 C 369.536 4.71197 4.22085 0
M  V30 3763 C 368.2 5.10758 4.29747 0
M  V30 3764 H 367.47 0.236834 0.702133 0
M  V30 3765 H 370.117 1.23268 1.46551 0
M  V30 3766 H 368.422 0.314365 3.90537 0
M  V30 3767 H 370.119 0.703395 3.94783 0
M  V30 3768 H 366.709 2.11966 3.72516 0
M  V30 3769 H 370.893 3.0871 3.88603 0
M  V30 3770 H 366.149 4.47157 4.16966 0
M  V30 3771 H 370.323 5.44348 4.34348 0
M  V30 3772 H 367.95 6.1405 4.48159 0
M  V30 3773 N 369.525 -1.3858 0.750561 0
M  V30 3774 C 370.771 -2.00481 0.305825 0
M  V30 3775 C 371.104 -1.5944 -1.10872 0
M  V30 3776 O 370.379 -0.83052 -1.75877 0
M  V30 3777 C 370.662 -3.5758 0.425287 0
M  V30 3778 C 370.515 -4.08594 1.88072 0
M  V30 3779 C 371.834 -4.39719 -0.183122 0
M  V30 3780 H 368.953 -0.728348 0.112598 0
M  V30 3781 H 371.595 -1.64566 0.949638 0
M  V30 3782 H 369.745 -3.88306 -0.122828 0
M  V30 3783 H 371.417 -3.88523 2.48691 0
M  V30 3784 H 369.66 -3.61574 2.39681 0
M  V30 3785 H 370.331 -5.177 1.91548 0
M  V30 3786 H 372.807 -4.15128 0.284303 0
M  V30 3787 H 371.683 -5.48856 -0.0692757 0
M  V30 3788 H 371.944 -4.23434 -1.27106 0
M  V30 3789 N 371.003 -0.499398 -1.49478 0
M  V30 3790 C 371.933 0.269244 -2.31943 0
M  V30 3791 C 372.914 0.964054 -1.40143 0
M  V30 3792 O 374.099 0.955767 -1.69052 0
M  V30 3793 C 371.229 1.33504 -3.20615 0
M  V30 3794 C 370.183 0.760202 -4.21195 0
M  V30 3795 C 369.509 1.9264 -4.98792 0
M  V30 3796 C 370.809 -0.247661 -5.21712 0
M  V30 3797 H 372.503 -0.419082 -2.96452 0
M  V30 3798 H 370.049 -0.202988 -1.42562 0
M  V30 3799 H 372.002 1.88048 -3.77115 0
M  V30 3800 H 370.726 2.05253 -2.54045 0
M  V30 3801 H 369.385 0.23653 -3.65836 0
M  V30 3802 H 369.033 2.63154 -4.28671 0
M  V30 3803 H 368.733 1.54785 -5.66847 0
M  V30 3804 H 370.257 2.4762 -5.58137 0
M  V30 3805 H 371.671 0.209579 -5.72917 0
M  V30 3806 H 370.068 -0.541962 -5.97648 0
M  V30 3807 H 371.138 -1.16409 -4.7072 0
M  V30 3808 N 372.481 1.55866 -0.233164 0
M  V30 3809 C 373.706 2.03449 0.402906 0
M  V30 3810 C 374.131 1.11166 1.51736 0
M  V30 3811 O 373.489 0.101996 1.81013 0
M  V30 3812 C 373.537 3.49165 0.9009 0
M  V30 3813 O 372.641 3.60019 2.01147 0
M  V30 3814 H 371.982 0.657913 0.0897025 0
M  V30 3815 H 374.512 2.01493 -0.355201 0
M  V30 3816 H 374.522 3.89716 1.2077 0
M  V30 3817 H 373.197 4.15813 0.0852889 0
M  V30 3818 H 371.774 3.3136 1.71042 0
M  V30 3819 N 373.959 -0.0401083 1.57549 0
M  V30 3820 C 375.207 -0.731677 1.8839 0
M  V30 3821 C 375.528 -1.76481 0.829425 0
M  V30 3822 O 374.798 -1.95411 -0.1383 0
M  V30 3823 H 373.378 -0.273225 0.695239 0
M  V30 3824 H 376.04 -0.00867725 1.94898 0
M  V30 3825 H 375.136 -1.22816 2.86919 0
M  V30 3826 N 375.437 -1.54477 -0.31217 0
M  V30 3827 C 376.385 -1.85395 -1.40469 0
M  V30 3828 C 377.379 -0.726749 -1.53019 0
M  V30 3829 O 378.585 -0.910582 -1.55269 0
M  V30 3830 H 374.96 -0.587845 -0.46898 0
M  V30 3831 H 376.931 -2.76736 -1.11623 0
M  V30 3832 C 375.68 -2.10811 -2.76503 0
M  V30 3833 H 375.003 -2.97014 -2.67625 0
M  V30 3834 H 376.443 -2.3639 -3.51988 0
M  V30 3835 C 374.902 -0.903165 -3.24568 0
M  V30 3836 O 375.432 -0.118085 -4.01526 0
M  V30 3837 N 373.638 -0.711634 -2.81752 0
M  V30 3838 H 373.185 -1.35171 -2.19286 0
M  V30 3839 H 373.143 0.0930473 -3.14262 0
M  V30 3840 N 376.915 0.57481 -1.46744 0
M  V30 3841 C 377.845 1.69337 -1.60771 0
M  V30 3842 C 378.826 1.63825 -0.457736 0
M  V30 3843 O 380.011 1.8172 -0.684947 0
M  V30 3844 C 377.141 3.0798 -1.60517 0
M  V30 3845 C 376.095 3.28327 -2.74564 0
M  V30 3846 C 375.421 4.67578 -2.59373 0
M  V30 3847 C 376.721 3.15398 -4.16319 0
M  V30 3848 H 378.415 1.57853 -2.54407 0
M  V30 3849 H 375.961 0.75799 -1.22436 0
M  V30 3850 H 377.914 3.86061 -1.68923 0
M  V30 3851 H 376.638 3.20381 -0.634305 0
M  V30 3852 H 375.297 2.52649 -2.65639 0
M  V30 3853 H 374.945 4.76755 -1.60353 0
M  V30 3854 H 374.645 4.82144 -3.35873 0
M  V30 3855 H 376.169 5.47817 -2.69682 0
M  V30 3856 H 377.583 3.83315 -4.26313 0
M  V30 3857 H 375.98 3.41482 -4.93468 0
M  V30 3858 H 377.05 2.12372 -4.3592 0
M  V30 3859 N 378.394 1.34581 0.820102 0
M  V30 3860 C 379.344 1.22943 1.92013 0
M  V30 3861 C 380.328 0.127802 1.60392 0
M  V30 3862 O 381.52 0.357737 1.73347 0
M  V30 3863 C 378.649 0.989938 3.28717 0
M  V30 3864 C 377.735 2.13486 3.66449 0
M  V30 3865 N 378.126 3.38625 3.75722 0
M  V30 3866 C 376.424 2.04573 3.96315 0
M  V30 3867 C 377.125 4.13832 4.08801 0
M  V30 3868 N 376.101 3.42451 4.22171 0
M  V30 3869 H 379.903 2.17771 1.97365 0
M  V30 3870 H 377.417 1.2686 1.01392 0
M  V30 3871 H 379.414 0.887462 4.07345 0
M  V30 3872 H 378.074 0.0503691 3.24661 0
M  V30 3873 H 379.085 3.73143 3.59144 0
M  V30 3874 H 375.762 1.1839 4.00362 0
M  V30 3875 H 377.152 5.21909 4.23156 0
M  V30 3876 N 379.872 -1.04064 1.18357 0
M  V30 3877 C 381.12 -1.76915 0.977013 0
M  V30 3878 C 381.441 -1.88624 -0.494577 0
M  V30 3879 O 380.711 -1.41125 -1.3587 0
M  V30 3880 H 379.291 -0.65535 0.358504 0
M  V30 3881 H 381.953 -1.25592 1.49039 0
M  V30 3882 H 381.049 -2.78178 1.41504 0
M  V30 3883 N 381.35 -0.985608 -1.22978 0
M  V30 3884 C 382.598 -0.656087 -1.91154 0
M  V30 3885 C 382.919 0.813561 -1.77218 0
M  V30 3886 O 382.189 1.58244 -1.1548 0
M  V30 3887 H 380.769 -0.239674 -0.707506 0
M  V30 3888 H 383.431 -1.25054 -1.49491 0
M  V30 3889 H 382.527 -0.912253 -2.9847 0
M  V30 3890 N 382.828 1.3818 -0.7579 0
M  V30 3891 C 384.053 2.04827 -0.325679 0
M  V30 3892 C 384.478 1.56788 1.03919 0
M  V30 3893 O 383.836 0.721811 1.66312 0
M  V30 3894 C 383.884 3.58774 -0.362447 0
M  V30 3895 O 382.988 4.07372 0.642033 0
M  V30 3896 H 382.329 0.64833 -0.143402 0
M  V30 3897 H 384.859 1.7677 -1.03023 0
M  V30 3898 H 384.869 4.07434 -0.214844 0
M  V30 3899 H 383.544 3.93096 -1.35824 0
M  V30 3900 H 382.121 3.70068 0.458688 0
M  V30 3901 N 384.306 0.507319 1.49211 0
M  V30 3902 C 385.552 -0.0350047 2.0277 0
M  V30 3903 C 385.885 -1.3606 1.38569 0
M  V30 3904 O 385.16 -1.87321 0.523542 0
M  V30 3905 C 385.443 -0.180916 3.59645 0
M  V30 3906 C 385.296 1.16825 4.34364 0
M  V30 3907 C 386.615 -0.918558 4.30407 0
M  V30 3908 H 383.734 -0.0112473 0.736914 0
M  V30 3909 H 386.376 0.659956 1.7817 0
M  V30 3910 H 384.526 -0.772826 3.80736 0
M  V30 3911 H 386.198 1.79952 4.24753 0
M  V30 3912 H 384.441 1.75594 3.96673 0
M  V30 3913 H 385.112 1.01939 5.42506 0
M  V30 3914 H 387.588 -0.41649 4.1401 0
M  V30 3915 H 386.464 -0.989505 5.39907 0
M  V30 3916 H 386.725 -1.96373 3.96093 0
M  V30 3917 N 385.784 -1.5574 0.241426 0
M  V30 3918 C 387.03 -1.99104 -0.385406 0
M  V30 3919 C 387.363 -1.1293 -1.57988 0
M  V30 3920 O 386.638 -0.191449 -1.93555 0
M  V30 3921 C 386.921 -3.51087 -0.800616 0
M  V30 3922 C 386.774 -4.48028 0.398874 0
M  V30 3923 C 388.093 -4.08015 -1.64959 0
M  V30 3924 H 385.212 -0.723848 -0.138614 0
M  V30 3925 H 387.854 -1.86903 0.341642 0
M  V30 3926 H 386.004 -3.61615 -1.4201 0
M  V30 3927 H 387.676 -4.49487 1.03726 0
M  V30 3928 H 385.919 -4.21077 1.04293 0
M  V30 3929 H 386.59 -5.51962 0.0651056 0
M  V30 3930 H 389.066 -4.00555 -1.12672 0
M  V30 3931 H 387.942 -5.14635 -1.90898 0
M  V30 3932 H 388.203 -3.56131 -2.61961 0
M  V30 3933 N 387.262 0.0317525 -1.57568 0
M  V30 3934 C 388.225 1.01783 -2.0536 0
M  V30 3935 C 389.225 1.29203 -0.957253 0
M  V30 3936 O 390.415 1.24251 -1.22095 0
M  V30 3937 C 387.547 2.35137 -2.46827 0
M  V30 3938 H 388.74 0.605062 -2.93733 0
M  V30 3939 H 386.293 0.278514 -1.53799 0
M  V30 3940 H 387.028 2.81168 -1.61602 0
M  V30 3941 H 386.813 2.16566 -3.26866 0
M  V30 3942 H 388.303 3.05938 -2.84239 0
M  V30 3943 N 388.74 1.54641 0.303973 0
M  V30 3944 C 389.965 1.78092 1.06292 0
M  V30 3945 C 390.39 0.537342 1.80262 0
M  V30 3946 O 389.748 -0.511993 1.7392 0
M  V30 3947 C 389.796 2.98612 2.02147 0
M  V30 3948 O 388.9 2.71528 3.10397 0
M  V30 3949 H 388.241 0.589548 0.305497 0
M  V30 3950 H 390.771 2.01716 0.3423 0
M  V30 3951 H 390.781 3.265 2.44667 0
M  V30 3952 H 389.456 3.88785 1.47714 0
M  V30 3953 H 388.033 2.54648 2.72413 0
M  V30 3954 N 390.218 -0.567019 1.47046 0
M  V30 3955 C 391.448 -1.34831 1.56538 0
M  V30 3956 C 391.856 -1.8802 0.21101 0
M  V30 3957 O 391.199 -1.65152 -0.804387 0
M  V30 3958 C 391.261 -2.56139 2.52256 0
M  V30 3959 C 390.925 -2.24307 3.98165 0
M  V30 3960 C 391.922 -1.82192 4.86931 0
M  V30 3961 C 389.607 -2.35968 4.43423 0
M  V30 3962 C 391.601 -1.52153 6.18973 0
M  V30 3963 C 389.288 -2.05542 5.75496 0
M  V30 3964 C 390.286 -1.63701 6.63092 0
M  V30 3965 O 389.974 -1.33657 7.92711 0
M  V30 3966 H 389.706 -0.417683 0.531523 0
M  V30 3967 H 392.26 -0.694726 1.93294 0
M  V30 3968 H 390.49 -3.24356 2.10548 0
M  V30 3969 H 392.179 -3.18214 2.51982 0
M  V30 3970 H 392.945 -1.72684 4.53217 0
M  V30 3971 H 388.824 -2.67495 3.75456 0
M  V30 3972 H 392.368 -1.19421 6.87302 0
M  V30 3973 H 388.265 -2.14679 6.08755 0
M  V30 3974 H 389.033 -1.4737 8.05124 0
M  V30 3975 N 391.696 -1.35014 -0.812953 0
M  V30 3976 C 393.107 -1.25035 -1.38648 0
M  V30 3977 C 393.458 0.119967 -1.95833 0
M  V30 3978 O 392.583 1.02069 -1.90816 0
M  V30 3979 C 393.178 -2.26394 -2.52054 0
M  V30 3980 C 391.737 -2.20175 -3.05287 0
M  V30 3981 C 390.884 -2.12451 -1.78213 0
M  V30 3982 H 393.835 -1.46235 -0.616516 0
M  V30 3983 H 393.856 -1.88672 -3.30429 0
M  V30 3984 H 393.368 -3.26116 -2.10404 0
M  V30 3985 H 391.469 -1.23841 -3.51417 0
M  V30 3986 H 391.582 -3.11863 -3.63701 0
M  V30 3987 H 389.946 -1.58328 -1.9951 0
M  V30 3988 H 390.729 -3.14024 -1.38723 0
M  V30 3989 N 393.175 1.03435 -1.18907 0
M  V30 3990 C 394.422 1.76743 -0.988334 0
M  V30 3991 C 394.75 1.88447 0.481441 0
M  V30 3992 O 394.005 1.39383 1.37371 0
M  V30 3993 C 394.304 3.19792 -1.59586 0
M  V30 3994 C 393.97 3.28108 -3.09283 0
M  V30 3995 C 392.632 3.30084 -3.5014 0
M  V30 3996 C 394.984 3.27696 -4.05296 0
M  V30 3997 C 392.312 3.29299 -4.85571 0
M  V30 3998 C 394.664 3.28451 -5.4065 0
M  V30 3999 C 393.328 3.28723 -5.80946 0
M  V30 4000 H 392.598 0.64675 -0.361657 0
M  V30 4001 H 395.245 1.21442 -1.48068 0
M  V30 4002 H 393.55 3.78136 -1.02568 0
M  V30 4003 H 395.247 3.75171 -1.41589 0
M  V30 4004 H 391.837 3.27294 -2.76725 0
M  V30 4005 H 396.021 3.25354 -3.74778 0
M  V30 4006 H 391.277 3.2783 -5.16079 0
M  V30 4007 H 395.451 3.27082 -6.14809 0
M  V30 4008 H 393.078 3.27868 -6.85862 0
M  V30 4009 N 394.653 0.992116 1.22453 0
M  V30 4010 C 395.93 0.583508 1.86694 0
M  V30 4011 C 396.31 -0.9392 1.89056 0
M  V30 4012 O 395.658 -1.82081 1.38053 0
M  V30 4013 C 395.868 1.20304 3.2761 0
M  V30 4014 C 397.216 1.30308 4.0411 0
M  V30 4015 O 398.24 1.15737 3.36873 0
M  V30 4016 O 397.099 1.53615 5.24466 0
M  V30 4017 H 394.193 0.198129 0.802916 0
M  V30 4018 H 396.739 1.08794 1.30238 0
M  V30 4019 H 395.511 2.24461 3.2052 0
M  V30 4020 H 395.134 0.684144 3.9167 0
M  V30 4021 N 396.131 -1.37776 0.765217 0
M  V30 4022 C 397.408 -1.93975 0.251596 0
M  V30 4023 C 397.788 -1.69949 -1.25222 0
M  V30 4024 O 397.136 -1.04457 -2.03226 0
M  V30 4025 C 397.346 -3.43487 0.617895 0
M  V30 4026 C 398.694 -4.20564 0.584029 0
M  V30 4027 O 399.718 -3.5182 0.556888 0
M  V30 4028 O 398.577 -5.43138 0.605291 0
M  V30 4029 H 395.671 -0.82509 0.0561806 0
M  V30 4030 H 398.217 -1.47101 0.846128 0
M  V30 4031 H 396.989 -3.5453 1.65602 0
M  V30 4032 H 396.612 -3.976 -0.00403411 0
M  V30 4033 N 397.609 -0.515225 -1.4894 0
M  V30 4034 C 398.834 0.022727 -2.07388 0
M  V30 4035 C 399.259 1.2876 -1.37122 0
M  V30 4036 O 398.617 1.76067 -0.432431 0
M  V30 4037 C 398.665 0.244869 -3.59768 0
M  V30 4038 O 397.769 1.31667 -3.90817 0
M  V30 4039 H 397.11 -0.0325506 -0.663202 0
M  V30 4040 H 399.64 -0.718918 -1.91553 0
M  V30 4041 H 399.65 0.47205 -4.0526 0
M  V30 4042 H 398.325 -0.679194 -4.10317 0
M  V30 4043 H 396.902 1.07331 -3.5712 0
M  V30 4044 N 399.087 1.5561 -0.249682 0
M  V30 4045 C 400.498 1.84979 0.252949 0
M  V30 4046 C 400.849 1.17153 1.57384 0
M  V30 4047 O 399.974 0.450884 2.11651 0
M  V30 4048 C 400.569 3.35584 0.465732 0
M  V30 4049 C 399.128 3.65169 0.912624 0
M  V30 4050 C 398.275 2.77299 -0.00859085 0
M  V30 4051 H 401.226 1.51513 -0.47217 0
M  V30 4052 H 401.247 3.57313 1.30795 0
M  V30 4053 H 400.759 3.8492 -0.49579 0
M  V30 4054 H 398.86 3.21312 1.88652 0
M  V30 4055 H 398.973 4.72912 0.767559 0
M  V30 4056 H 397.337 2.49678 0.50327 0
M  V30 4057 H 398.12 3.29442 -0.965537 0
M  V30 4058 N 400.565 -0.0233959 1.57583 0
M  V30 4059 C 401.475 -1.03907 2.10334 0
M  V30 4060 C 402.491 -1.39257 1.04323 0
M  V30 4061 O 403.667 -1.48462 1.36091 0
M  V30 4062 C 400.732 -2.31938 2.57693 0
M  V30 4063 C 399.793 -2.03117 3.78209 0
M  V30 4064 C 399.026 -3.25043 4.233 0
M  V30 4065 O 399.249 -4.35916 3.67876 0
M  V30 4066 O 398.183 -3.10411 5.15683 0
M  V30 4067 H 402.009 -0.620748 2.97288 0
M  V30 4068 H 399.594 -0.240743 1.47448 0
M  V30 4069 H 401.476 -3.07196 2.88458 0
M  V30 4070 H 400.151 -2.73055 1.73847 0
M  V30 4071 H 399.058 -1.25408 3.52454 0
M  V30 4072 H 400.391 -1.66852 4.63056 0
M  V30 4073 N 402.043 -1.548 -0.295768 0
M  V30 4074 C 402.993 -1.82497 -1.3667 0
M  V30 4075 C 403.977 -0.682434 -1.45711 0
M  V30 4076 O 405.169 -0.943207 -1.49775 0
M  V30 4077 C 402.298 -2.08036 -2.73086 0
M  V30 4078 C 401.384 -3.28488 -2.68247 0
M  V30 4079 N 401.775 -4.48924 -2.33025 0
M  V30 4080 C 400.073 -3.3062 -2.99343 0
M  V30 4081 C 400.774 -5.30956 -2.37613 0
M  V30 4082 N 399.75 -4.68805 -2.75178 0
M  V30 4083 H 403.552 -2.73175 -1.0841 0
M  V30 4084 H 401.066 -1.5437 -0.504361 0
M  V30 4085 H 403.063 -2.26027 -3.5031 0
M  V30 4086 H 401.723 -1.18629 -3.02254 0
M  V30 4087 H 402.734 -4.75432 -2.05389 0
M  V30 4088 H 399.411 -2.51336 -3.33371 0
M  V30 4089 H 400.801 -6.37199 -2.13135 0
M  V30 4090 N 403.521 0.559213 -1.47345 0
M  V30 4091 C 404.468 1.66645 -1.59682 0
M  V30 4092 C 405.438 1.60168 -0.43994 0
M  V30 4093 O 406.623 1.79031 -0.659736 0
M  V30 4094 C 403.763 3.04969 -1.61518 0
M  V30 4095 C 402.876 3.21897 -2.88108 0
M  V30 4096 C 402.011 4.50608 -2.81294 0
M  V30 4097 C 401.05 4.60961 -4.02717 0
M  V30 4098 N 400.187 5.81024 -3.94151 0
M  V30 4099 H 405.027 1.55439 -2.54249 0
M  V30 4100 H 402.564 0.757219 -1.26113 0
M  V30 4101 H 404.522 3.85064 -1.60566 0
M  V30 4102 H 403.152 3.15015 -0.704645 0
M  V30 4103 H 402.204 2.35248 -2.98936 0
M  V30 4104 H 403.516 3.25412 -3.78032 0
M  V30 4105 H 402.67 5.3896 -2.7858 0
M  V30 4106 H 401.409 4.49568 -1.89049 0
M  V30 4107 H 400.414 3.71021 -4.05738 0
M  V30 4108 H 401.639 4.63761 -4.96087 0
M  V30 4109 H 399.585 5.80938 -3.04708 0
M  V30 4110 H 399.502 5.85909 -4.77752 0
M  V30 4111 H 400.77 6.71744 -3.9545 0
M  V30 4112 N 404.999 1.35443 0.805782 0
M  V30 4113 C 405.962 1.28301 1.89925 0
M  V30 4114 C 406.962 0.194285 1.59622 0
M  V30 4115 O 408.152 0.448036 1.6834 0
M  V30 4116 C 405.284 0.984997 3.2636 0
M  V30 4117 H 406.477 2.2553 1.97677 0
M  V30 4118 H 404.03 1.19979 1.00173 0
M  V30 4119 H 404.765 0.016603 3.24296 0
M  V30 4120 H 404.55 1.77269 3.4974 0
M  V30 4121 H 406.04 0.960651 4.064 0
M  V30 4122 N 406.477 -1.02803 1.19454 0
M  V30 4123 C 407.705 -1.79841 1.02297 0
M  V30 4124 C 408.12 -1.83879 -0.428259 0
M  V30 4125 O 407.477 -1.28345 -1.29745 0
M  V30 4126 C 407.528 -3.24852 1.58598 0
M  V30 4127 O 407.249 -3.21097 2.98041 0
M  V30 4128 C 408.75 -4.18485 1.46236 0
M  V30 4129 H 405.97 -0.565936 0.360496 0
M  V30 4130 H 408.514 -1.2948 1.58288 0
M  V30 4131 H 406.669 -3.72401 1.06753 0
M  V30 4132 H 407.083 -4.12033 3.24545 0
M  V30 4133 H 408.557 -5.18121 1.90407 0
M  V30 4134 H 409.034 -4.37254 0.41301 0
M  V30 4135 H 409.64 -3.76811 1.97215 0
M  V30 4136 N 407.956 -0.998596 -1.21925 0
M  V30 4137 C 409.204 -0.676325 -1.90448 0
M  V30 4138 C 409.525 0.794719 -1.78071 0
M  V30 4139 O 408.795 1.5701 -1.17152 0
M  V30 4140 H 407.375 -0.247165 -0.704925 0
M  V30 4141 H 410.037 -1.26633 -1.48156 0
M  V30 4142 H 409.133 -0.943858 -2.97486 0
M  V30 4143 N 409.434 1.37368 -0.772513 0
M  V30 4144 C 410.683 1.98918 -0.333861 0
M  V30 4145 C 410.996 1.62017 1.09589 0
M  V30 4146 O 412.202 2.16676 1.63596 0
M  V30 4147 C 410.658 3.55735 -0.545971 0
M  V30 4148 C 410.266 4.01573 -1.98603 0
M  V30 4149 C 412.01 4.24156 -0.170979 0
M  V30 4150 C 409.917 5.51102 -2.1457 0
M  V30 4151 H 408.847 0.744214 -0.121085 0
M  V30 4152 H 411.498 1.56888 -0.95175 0
M  V30 4153 H 409.88 3.95748 0.141387 0
M  V30 4154 H 411.054 3.72803 -2.7084 0
M  V30 4155 H 409.369 3.45937 -2.31769 0
M  V30 4156 H 411.966 5.34024 -0.26878 0
M  V30 4157 H 412.309 4.06917 0.878855 0
M  V30 4158 H 412.842 3.89447 -0.810914 0
M  V30 4159 H 409.581 5.73268 -3.17875 0
M  V30 4160 H 409.101 5.81554 -1.46817 0
M  V30 4161 H 410.78 6.17083 -1.94468 0
M  V30 4162 N 410.912 0.523116 1.48665 0
M  V30 4163 C 412.142 -0.00961724 2.06598 0
M  V30 4164 C 412.55 -1.29333 1.38093 0
M  V30 4165 O 411.893 -1.77846 0.46007 0
M  V30 4166 C 411.955 -0.311135 3.58151 0
M  V30 4167 C 411.619 0.878092 4.48485 0
M  V30 4168 C 412.616 1.77464 4.88674 0
M  V30 4169 C 410.301 1.08315 4.90483 0
M  V30 4170 C 412.295 2.86021 5.69623 0
M  V30 4171 C 409.982 2.17187 5.71203 0
M  V30 4172 C 410.98 3.05873 6.10681 0
M  V30 4173 O 410.668 4.12862 6.89783 0
M  V30 4174 H 410.4 0.0272658 0.67545 0
M  V30 4175 H 412.954 0.726156 1.92136 0
M  V30 4176 H 411.184 -1.10079 3.70701 0
M  V30 4177 H 412.873 -0.785125 3.98234 0
M  V30 4178 H 413.639 1.62813 4.56855 0
M  V30 4179 H 409.518 0.402149 4.59243 0
M  V30 4180 H 413.062 3.55272 6.00356 0
M  V30 4181 H 408.959 2.31824 6.02435 0
M  V30 4182 H 409.727 4.10487 7.08126 0
M  V30 4183 N 412.39 -1.55475 0.257931 0
M  V30 4184 C 413.615 -2.04064 -0.370488 0
M  V30 4185 C 414.04 -1.13565 -1.49948 0
M  V30 4186 O 413.398 -0.130781 -1.80828 0
M  V30 4187 C 413.446 -3.50554 -0.845237 0
M  V30 4188 O 412.55 -3.63173 -1.95394 0
M  V30 4189 H 411.891 -0.659257 -0.0792243 0
M  V30 4190 H 414.421 -2.00903 0.387212 0
M  V30 4191 H 414.431 -3.91588 -1.14555 0
M  V30 4192 H 413.106 -4.15896 -0.0191259 0
M  V30 4193 H 411.683 -3.34039 -1.65748 0
M  V30 4194 N 413.868 0.0150385 -1.57593 0
M  V30 4195 C 414.815 1.01126 -2.07466 0
M  V30 4196 C 415.785 1.35064 -0.966794 0
M  V30 4197 O 416.97 1.4516 -1.23827 0
M  V30 4198 C 414.11 2.30276 -2.57035 0
M  V30 4199 C 413.223 2.02373 -3.81666 0
M  V30 4200 C 412.358 3.25496 -4.19793 0
M  V30 4201 C 411.397 2.93211 -5.37303 0
M  V30 4202 N 410.534 4.08826 -5.70794 0
M  V30 4203 H 415.374 0.57901 -2.92321 0
M  V30 4204 H 412.911 0.27426 -1.44521 0
M  V30 4205 H 414.869 3.05757 -2.83846 0
M  V30 4206 H 413.499 2.71197 -1.75077 0
M  V30 4207 H 412.551 1.17327 -3.61854 0
M  V30 4208 H 413.863 1.74567 -4.67256 0
M  V30 4209 H 413.017 4.09333 -4.47807 0
M  V30 4210 H 411.756 3.56428 -3.32882 0
M  V30 4211 H 410.761 2.07777 -5.09027 0
M  V30 4212 H 411.986 2.63542 -6.25877 0
M  V30 4213 H 409.932 4.39682 -4.86842 0
M  V30 4214 H 409.849 3.84491 -6.50924 0
M  V30 4215 H 411.117 4.93496 -6.03392 0
M  V30 4216 N 415.346 1.54954 0.287554 0
M  V30 4217 C 416.574 1.78881 1.03967 0
M  V30 4218 C 416.989 0.554894 1.80462 0
M  V30 4219 O 416.346 -0.475676 1.76192 0
M  V30 4220 C 416.397 3.00488 2.0097 0
M  V30 4221 O 416.118 4.19113 1.27577 0
M  V30 4222 C 417.619 3.36907 2.88112 0
M  V30 4223 H 414.839 0.596259 0.307761 0
M  V30 4224 H 417.383 2.01937 0.322749 0
M  V30 4225 H 415.538 2.79601 2.68145 0
M  V30 4226 H 415.952 4.87765 1.92835 0
M  V30 4227 H 417.426 4.25205 3.52001 0
M  V30 4228 H 417.903 2.55659 3.57121 0
M  V30 4229 H 418.509 3.60001 2.26449 0
M  V30 4230 N 416.824 -0.551391 1.4764 0
M  V30 4231 C 418.049 -1.33837 1.58437 0
M  V30 4232 C 418.474 -1.866 0.237063 0
M  V30 4233 O 417.832 -1.6328 -0.787994 0
M  V30 4234 C 417.88 -2.48014 2.61766 0
M  V30 4235 O 416.984 -3.50419 2.1744 0
M  V30 4236 H 416.325 -0.397299 0.532024 0
M  V30 4237 H 418.855 -0.665759 1.93465 0
M  V30 4238 H 418.865 -2.94503 2.82369 0
M  V30 4239 H 417.54 -2.08969 3.5959 0
M  V30 4240 H 416.117 -3.10196 2.06961 0
M  V30 4241 N 418.302 -1.35869 -0.798587 0
M  V30 4242 C 419.579 -1.20145 -1.54352 0
M  V30 4243 C 419.959 0.216161 -2.0999 0
M  V30 4244 O 419.307 1.22068 -1.93162 0
M  V30 4245 C 419.517 -2.27602 -2.64572 0
M  V30 4246 C 420.865 -2.63811 -3.32699 0
M  V30 4247 O 421.889 -2.26576 -2.74849 0
M  V30 4248 O 420.748 -3.27866 -4.37226 0
M  V30 4249 H 417.842 -0.467248 -0.682355 0
M  V30 4250 H 420.388 -1.47574 -0.837859 0
M  V30 4251 H 419.16 -3.2265 -2.21388 0
M  V30 4252 H 418.783 -2.01488 -3.42766 0
M  V30 4253 N 419.78 1.02168 -1.19998 0
M  V30 4254 C 421.057 1.72816 -0.916191 0
M  V30 4255 C 421.437 2.03081 0.576325 0
M  V30 4256 O 420.785 1.69122 1.53656 0
M  V30 4257 C 420.995 2.9997 -1.78378 0
M  V30 4258 C 422.343 3.73336 -2.02251 0
M  V30 4259 O 423.367 3.09914 -1.75589 0
M  V30 4260 O 422.226 4.87371 -2.47249 0
M  V30 4261 H 419.32 0.752924 -0.342103 0
M  V30 4262 H 421.866 1.08062 -1.30846 0
M  V30 4263 H 420.638 2.73888 -2.79466 0
M  V30 4264 H 420.261 3.72464 -1.39126 0
M  V30 4265 N 421.258 1.00505 1.21394 0
M  V30 4266 C 422.168 0.574806 2.27449 0
M  V30 4267 C 423.184 -0.382206 1.6975 0
M  V30 4268 O 424.36 -0.246027 1.99892 0
M  V30 4269 C 421.425 -0.0917414 3.46579 0
M  V30 4270 C 420.486 0.909758 4.1955 0
M  V30 4271 C 419.719 0.274924 5.32991 0
M  V30 4272 O 419.942 -0.928254 5.62796 0
M  V30 4273 O 418.876 0.985877 5.93771 0
M  V30 4274 H 422.702 1.45744 2.66444 0
M  V30 4275 H 420.287 0.773923 1.27792 0
M  V30 4276 H 422.169 -0.464551 4.18832 0
M  V30 4277 H 420.844 -0.948755 3.09484 0
M  V30 4278 H 419.751 1.33372 3.49518 0
M  V30 4279 H 421.084 1.73636 4.60555 0
M  V30 4280 N 422.737 -1.36956 0.779787 0
M  V30 4281 C 423.983 -1.99787 0.348281 0
M  V30 4282 C 424.316 -1.61756 -1.07465 0
M  V30 4283 O 423.591 -0.867639 -1.74075 0
M  V30 4284 C 423.874 -3.56597 0.50104 0
M  V30 4285 C 423.727 -4.04513 1.96697 0
M  V30 4286 C 425.046 -4.40008 -0.0898097 0
M  V30 4287 H 422.165 -0.725796 0.128022 0
M  V30 4288 H 424.807 -1.62514 0.984331 0
M  V30 4289 H 422.957 -3.88479 -0.0404347 0
M  V30 4290 H 424.629 -3.83161 2.56876 0
M  V30 4291 H 422.872 -3.56408 2.47297 0
M  V30 4292 H 423.543 -5.1352 2.02486 0
M  V30 4293 H 426.019 -4.14431 0.372293 0
M  V30 4294 H 424.895 -5.4888 0.0471605 0
M  V30 4295 H 425.156 -4.26035 -1.18096 0
M  V30 4296 N 424.215 -0.530993 -1.48385 0
M  V30 4297 C 425.462 0.0027373 -2.025 0
M  V30 4298 C 425.79 1.34186 -1.40799 0
M  V30 4299 O 425.045 1.88 -0.543544 0
M  V30 4300 C 425.344 0.172742 -3.56982 0
M  V30 4301 C 425.01 -1.09215 -4.37473 0
M  V30 4302 C 423.672 -1.43881 -4.59186 0
M  V30 4303 C 426.024 -1.93153 -4.84088 0
M  V30 4304 C 423.352 -2.62381 -5.2476 0
M  V30 4305 C 425.704 -3.10833 -5.50968 0
M  V30 4306 C 424.368 -3.45843 -5.70919 0
M  V30 4307 H 423.638 0.00100165 -0.740999 0
M  V30 4308 H 426.285 -0.697219 -1.78357 0
M  V30 4309 H 424.59 0.955473 -3.79971 0
M  V30 4310 H 426.287 0.600642 -3.96476 0
M  V30 4311 H 422.877 -0.812177 -4.20834 0
M  V30 4312 H 427.061 -1.67683 -4.67115 0
M  V30 4313 H 422.317 -2.89707 -5.38405 0
M  V30 4314 H 426.491 -3.7618 -5.86056 0
M  V30 4315 H 424.118 -4.37764 -6.21503 0
M  V30 4316 N 425.693 1.55336 -0.266172 0
M  V30 4317 C 426.64 2.22172 0.625165 0
M  V30 4318 C 427.61 1.19211 1.15663 0
M  V30 4319 O 428.795 1.47723 1.20758 0
M  V30 4320 C 425.935 2.93972 1.8076 0
M  V30 4321 C 425.048 4.11632 1.31084 0
M  V30 4322 C 424.183 4.71099 2.45436 0
M  V30 4323 C 423.222 5.8097 1.92718 0
M  V30 4324 N 422.359 6.34538 3.00509 0
M  V30 4325 H 427.199 2.9796 0.0485582 0
M  V30 4326 H 424.736 1.47095 0.0122024 0
M  V30 4327 H 426.694 3.33811 2.50251 0
M  V30 4328 H 425.324 2.20623 2.35638 0
M  V30 4329 H 424.376 3.76975 0.509326 0
M  V30 4330 H 425.688 4.90893 0.884633 0
M  V30 4331 H 424.842 5.13612 3.22936 0
M  V30 4332 H 423.581 3.91096 2.91368 0
M  V30 4333 H 422.586 5.37916 1.13695 0
M  V30 4334 H 423.811 6.62836 1.47733 0
M  V30 4335 H 421.757 5.57433 3.45839 0
M  V30 4336 H 421.674 7.09046 2.62279 0
M  V30 4337 H 422.942 6.81709 3.78011 0
M  V30 4338 N 427.171 -0.0066808 1.57599 0
M  V30 4339 C 428.401 -0.703066 1.94269 0
M  V30 4340 C 428.809 -1.68206 0.866222 0
M  V30 4341 O 428.152 -1.82966 -0.164087 0
M  V30 4342 C 428.214 -1.49616 3.26887 0
M  V30 4343 C 427.878 -0.679494 4.5192 0
M  V30 4344 C 428.875 0.0299508 5.19891 0
M  V30 4345 C 426.56 -0.627433 4.98366 0
M  V30 4346 C 428.554 0.780514 6.32603 0
M  V30 4347 C 426.241 0.126861 6.10968 0
M  V30 4348 C 427.239 0.829574 6.77943 0
M  V30 4349 O 426.927 1.57157 7.88389 0
M  V30 4350 H 426.659 -0.201217 0.645359 0
M  V30 4351 H 429.213 0.0385326 2.05364 0
M  V30 4352 H 427.443 -2.28209 3.12182 0
M  V30 4353 H 429.132 -2.07726 3.48719 0
M  V30 4354 H 429.898 -0.00115963 4.85 0
M  V30 4355 H 425.777 -1.16392 4.46065 0
M  V30 4356 H 429.321 1.32954 6.84813 0
M  V30 4357 H 425.218 0.159815 6.45302 0
M  V30 4358 H 425.986 1.48758 8.04868 0
M  V30 4359 N 428.649 -1.55105 -0.279332 0
M  V30 4360 C 429.579 -1.90557 -1.34945 0
M  V30 4361 C 430.56 -0.766738 -1.51839 0
M  V30 4362 O 431.745 -1.02434 -1.64988 0
M  V30 4363 C 428.875 -2.17193 -2.71006 0
M  V30 4364 C 427.829 -3.33021 -2.68851 0
M  V30 4365 C 427.155 -3.45123 -4.08405 0
M  V30 4366 C 428.455 -4.69578 -2.28678 0
M  V30 4367 H 430.149 -2.80188 -1.05522 0
M  V30 4368 H 427.695 -1.34811 -0.506173 0
M  V30 4369 H 429.648 -2.40581 -3.45975 0
M  V30 4370 H 428.372 -1.24355 -3.01999 0
M  V30 4371 H 427.031 -3.0959 -1.9634 0
M  V30 4372 H 426.679 -2.49762 -4.3661 0
M  V30 4373 H 426.379 -4.22995 -4.07859 0
M  V30 4374 H 427.903 -3.70796 -4.85121 0
M  V30 4375 H 429.317 -4.92553 -2.93368 0
M  V30 4376 H 427.714 -5.5032 -2.39306 0
M  V30 4377 H 428.784 -4.68828 -1.23807 0
M  V30 4378 N 430.127 0.543554 -1.4793 0
M  V30 4379 C 431.09 1.63156 -1.60975 0
M  V30 4380 C 432.09 1.53346 -0.483899 0
M  V30 4381 O 433.28 1.5726 -0.749339 0
M  V30 4382 C 430.412 3.02743 -1.56716 0
M  V30 4383 H 431.605 1.52934 -2.57975 0
M  V30 4384 H 429.158 0.764557 -1.36324 0
M  V30 4385 H 429.893 3.18484 -0.611418 0
M  V30 4386 H 429.678 3.11272 -2.38438 0
M  V30 4387 H 431.168 3.81871 -1.6901 0
M  V30 4388 N 431.605 1.3629 0.791371 0
M  V30 4389 C 432.552 1.30458 1.90393 0
M  V30 4390 C 433.522 0.173632 1.6519 0
M  V30 4391 O 434.707 0.35983 1.87376 0
M  V30 4392 C 431.847 1.09777 3.27174 0
M  V30 4393 C 430.96 2.31929 3.64462 0
M  V30 4394 C 430.095 2.04276 4.90352 0
M  V30 4395 C 429.134 3.224 5.20312 0
M  V30 4396 N 428.271 2.94424 6.37385 0
M  V30 4397 H 433.111 2.25589 1.94714 0
M  V30 4398 H 430.648 1.12122 0.952216 0
M  V30 4399 H 432.606 0.958133 4.06049 0
M  V30 4400 H 431.236 0.183014 3.22281 0
M  V30 4401 H 430.288 2.56703 2.80727 0
M  V30 4402 H 431.6 3.20085 3.82553 0
M  V30 4403 H 430.754 1.87231 5.77087 0
M  V30 4404 H 429.493 1.13428 4.74326 0
M  V30 4405 H 428.498 3.40005 4.32061 0
M  V30 4406 H 429.723 4.14071 5.38258 0
M  V30 4407 H 427.669 2.06185 6.22755 0
M  V30 4408 H 427.586 3.76118 6.55798 0
M  V30 4409 H 428.854 2.80953 7.27108 0
M  V30 4410 N 433.083 -1.0153 1.20538 0
M  V30 4411 C 434.046 -2.0826 0.957098 0
M  V30 4412 C 435.046 -1.60657 -0.0678655 0
M  V30 4413 O 436.236 -1.73385 0.168332 0
M  V30 4414 C 433.368 -3.38033 0.441188 0
M  V30 4415 H 434.561 -2.31719 1.90384 0
M  V30 4416 H 432.114 -1.1835 1.02093 0
M  V30 4417 H 432.849 -3.20249 -0.510961 0
M  V30 4418 H 432.634 -3.73911 1.18038 0
M  V30 4419 H 434.124 -4.16613 0.287009 0
M  V30 4420 N 434.561 -1.01147 -1.20859 0
M  V30 4421 C 435.791 -0.715872 -1.93801 0
M  V30 4422 C 436.199 0.726592 -1.74692 0
M  V30 4423 O 435.542 1.50397 -1.05482 0
M  V30 4424 C 435.604 -0.965269 -3.46299 0
M  V30 4425 C 435.268 -2.39584 -3.89164 0
M  V30 4426 C 436.265 -3.3764 -3.95342 0
M  V30 4427 C 433.95 -2.73522 -4.21297 0
M  V30 4428 C 435.944 -4.67698 -4.33056 0
M  V30 4429 C 433.631 -4.03794 -4.58687 0
M  V30 4430 C 434.629 -5.00693 -4.64538 0
M  V30 4431 O 434.317 -6.28635 -5.01072 0
M  V30 4432 H 434.049 -0.262524 -0.622942 0
M  V30 4433 H 436.603 -1.35413 -1.54443 0
M  V30 4434 H 434.833 -0.269847 -3.85757 0
M  V30 4435 H 436.522 -0.662051 -4.00464 0
M  V30 4436 H 437.288 -3.12757 -3.70686 0
M  V30 4437 H 433.167 -1.9879 -4.15937 0
M  V30 4438 H 436.711 -5.4333 -4.37537 0
M  V30 4439 H 432.608 -4.28459 -4.82797 0
M  V30 4440 H 433.376 -6.32847 -5.19083 0
M  V30 4441 N 436.039 1.36541 -0.78704 0
M  V30 4442 C 437.002 2.28413 -0.189778 0
M  V30 4443 C 438.002 1.48719 0.611499 0
M  V30 4444 O 439.192 1.68737 0.432842 0
M  V30 4445 C 436.324 3.32824 0.737638 0
M  V30 4446 H 437.517 2.82743 -0.999831 0
M  V30 4447 H 435.07 1.46065 -0.556298 0
M  V30 4448 H 435.805 2.83646 1.57212 0
M  V30 4449 H 435.59 3.91752 0.165044 0
M  V30 4450 H 437.08 4.0144 1.15047 0
M  V30 4451 N 437.518 0.538854 1.48102 0
M  V30 4452 C 438.743 0.0102694 2.07397 0
M  V30 4453 C 439.168 -1.26562 1.39153 0
M  V30 4454 O 438.526 -1.75357 0.460387 0
M  V30 4455 C 438.574 -0.187602 3.60112 0
M  V30 4456 O 437.678 -1.25432 3.92862 0
M  V30 4457 H 437.019 0.0430975 0.6626 0
M  V30 4458 H 439.549 0.749301 1.90385 0
M  V30 4459 H 439.559 -0.407517 4.0596 0
M  V30 4460 H 438.234 0.744386 4.09184 0
M  V30 4461 H 436.811 -1.01636 3.58782 0
M  V30 4462 N 438.996 -1.55193 0.274407 0
M  V30 4463 C 439.944 -2.23924 -0.629362 0
M  V30 4464 C 440.938 -1.23602 -1.1584 0
M  V30 4465 O 442.144 -1.41535 -1.11211 0
M  V30 4466 H 438.519 -0.718637 -0.221507 0
M  V30 4467 H 440.49 -2.98388 -0.0268322 0
M  V30 4468 C 439.239 -2.97329 -1.80252 0
M  V30 4469 H 438.562 -3.74313 -1.40462 0
M  V30 4470 H 440.002 -3.48743 -2.41152 0
M  V30 4471 C 438.461 -2.0276 -2.69054 0
M  V30 4472 O 438.991 -1.57836 -3.69392 0
M  V30 4473 N 437.197 -1.69275 -2.36208 0
M  V30 4474 H 436.744 -2.06004 -1.54661 0
M  V30 4475 H 436.702 -1.06271 -2.95895 0
M  V30 4476 N 440.474 -0.00167713 -1.576 0
M  V30 4477 C 441.424 0.997744 -2.0501 0
M  V30 4478 C 442.408 1.30214 -0.94515 0
M  V30 4479 O 443.6 1.29284 -1.20891 0
M  V30 4480 C 440.729 2.2892 -2.55833 0
M  V30 4481 C 439.815 2.01437 -3.73208 0
M  V30 4482 N 440.206 1.44119 -4.84833 0
M  V30 4483 C 438.504 2.31571 -3.8117 0
M  V30 4484 C 439.205 1.33145 -5.66257 0
M  V30 4485 N 438.181 1.81763 -5.12312 0
M  V30 4486 H 441.983 0.549098 -2.88725 0
M  V30 4487 H 439.497 0.20398 -1.61114 0
M  V30 4488 H 441.494 3.01361 -2.88075 0
M  V30 4489 H 440.154 2.74436 -1.73537 0
M  V30 4490 H 441.165 1.11978 -5.0565 0
M  V30 4491 H 437.842 2.7995 -3.09732 0
M  V30 4492 H 439.232 0.890567 -6.65972 0
M  V30 4493 N 441.952 1.55251 0.271103 0
M  V30 4494 C 443.363 1.66635 0.842007 0
M  V30 4495 C 443.714 0.594631 1.86972 0
M  V30 4496 O 442.839 -0.263532 2.14789 0
M  V30 4497 C 443.434 3.02082 1.53401 0
M  V30 4498 C 441.993 3.15487 2.05293 0
M  V30 4499 C 441.14 2.62438 0.895631 0
M  V30 4500 H 444.091 1.58629 0.0474117 0
M  V30 4501 H 444.112 2.95176 2.40107 0
M  V30 4502 H 443.624 3.80062 0.785786 0
M  V30 4503 H 441.725 2.42284 2.83071 0
M  V30 4504 H 441.838 4.22075 2.26693 0
M  V30 4505 H 440.202 2.19644 1.28953 0
M  V30 4506 H 440.985 3.42923 0.160878 0
M  V30 4507 N 443.43 -0.535701 1.48216 0
M  V30 4508 C 444.679 -1.28828 1.55197 0
M  V30 4509 C 444.992 -1.94263 0.228278 0
M  V30 4510 O 446.198 -2.70927 0.176278 0
M  V30 4511 C 444.654 -2.33727 2.73678 0
M  V30 4512 C 444.262 -1.74386 4.12666 0
M  V30 4513 C 446.006 -3.1003 2.89968 0
M  V30 4514 C 443.913 -2.77192 5.22416 0
M  V30 4515 H 442.843 -0.484484 0.577747 0
M  V30 4516 H 445.494 -0.56646 1.74538 0
M  V30 4517 H 443.876 -3.08919 2.4776 0
M  V30 4518 H 445.05 -1.05421 4.48579 0
M  V30 4519 H 443.365 -1.10595 4.01445 0
M  V30 4520 H 445.962 -3.86842 3.6913 0
M  V30 4521 H 446.305 -3.65542 1.9921 0
M  V30 4522 H 446.838 -2.41952 3.15759 0
M  V30 4523 H 443.577 -2.26507 6.15122 0
M  V30 4524 H 443.097 -3.44502 4.90998 0
M  V30 4525 H 444.776 -3.40285 5.50286 0
M  V30 4526 N 444.908 -1.36708 -0.784132 0
M  V30 4527 C 445.841 -1.25827 -1.90375 0
M  V30 4528 C 446.819 -0.141331 -1.61985 0
M  V30 4529 O 448.003 -0.313389 -1.85877 0
M  V30 4530 C 445.13 -0.942621 -3.25319 0
M  V30 4531 C 444.176 -2.07474 -3.72635 0
M  V30 4532 S 445.009 -3.69317 -3.8777 0
M  V30 4533 C 446.165 -3.39876 -5.25581 0
M  V30 4534 H 446.398 -2.20593 -1.99314 0
M  V30 4535 H 443.931 -1.22186 -0.943926 0
M  V30 4536 H 445.889 -0.767321 -4.03265 0
M  V30 4537 H 444.55 -0.0126566 -3.14097 0
M  V30 4538 H 443.743 -1.80858 -4.70432 0
M  V30 4539 H 443.345 -2.20953 -3.01754 0
M  V30 4540 H 445.637 -2.94097 -6.10339 0
M  V30 4541 H 446.58 -4.36956 -5.57203 0
M  V30 4542 H 446.988 -2.75098 -4.92931 0
M  V30 4543 N 446.386 1.0089 -1.21074 0
M  V30 4544 C 447.333 2.09588 -0.966512 0
M  V30 4545 C 448.303 1.65761 0.106089 0
M  V30 4546 O 449.488 1.90758 -0.0402287 0
M  V30 4547 C 446.628 3.40958 -0.533058 0
M  V30 4548 C 445.741 3.9822 -1.67467 0
M  V30 4549 C 444.876 5.17682 -1.19076 0
M  V30 4550 C 443.915 5.67043 -2.30496 0
M  V30 4551 N 443.052 6.77759 -1.83267 0
M  V30 4552 H 447.892 2.29815 -1.89708 0
M  V30 4553 H 445.429 1.12689 -0.945489 0
M  V30 4554 H 447.387 4.1637 -0.263019 0
M  V30 4555 H 446.017 3.20781 0.360505 0
M  V30 4556 H 445.069 3.1983 -2.05944 0
M  V30 4557 H 446.381 4.3085 -2.51336 0
M  V30 4558 H 445.535 6.00326 -0.877151 0
M  V30 4559 H 444.274 4.86635 -0.322066 0
M  V30 4560 H 443.279 4.82999 -2.62664 0
M  V30 4561 H 444.504 6.00121 -3.17855 0
M  V30 4562 H 442.45 6.48527 -0.987356 0
M  V30 4563 H 442.367 7.09624 -2.60711 0
M  V30 4564 H 443.635 7.63949 -1.54928 0
M  V30 4565 N 447.864 1.01787 1.20321 0
M  V30 4566 C 449.092 0.727194 1.937 0
M  V30 4567 C 449.507 -0.712305 1.74848 0
M  V30 4568 O 448.864 -1.48327 1.06327 0
M  V30 4569 C 448.915 1.05497 3.45764 0
M  V30 4570 O 448.636 2.43794 3.64 0
M  V30 4571 C 450.137 0.785534 4.36285 0
M  V30 4572 H 447.357 0.266939 0.615617 0
M  V30 4573 H 449.901 1.35939 1.52777 0
M  V30 4574 H 448.056 0.468158 3.84561 0
M  V30 4575 H 448.47 2.55656 4.57974 0
M  V30 4576 H 449.944 1.06495 5.4163 0
M  V30 4577 H 450.421 -0.280273 4.38305 0
M  V30 4578 H 451.027 1.35456 4.03152 0
M  V30 4579 N 449.342 -1.36122 0.79427 0
M  V30 4580 C 450.59 -1.98718 0.368177 0
M  V30 4581 C 450.911 -1.63345 -1.06506 0
M  V30 4582 O 450.181 -0.909825 -1.73491 0
M  V30 4583 H 448.761 -0.735038 0.133146 0
M  V30 4584 H 451.423 -1.66239 1.01739 0
M  V30 4585 H 450.519 -3.08633 0.463923 0
M  V30 4586 N 450.82 -0.546701 -1.47814 0
M  V30 4587 C 451.73 0.21026 -2.33656 0
M  V30 4588 C 452.746 0.922413 -1.47538 0
M  V30 4589 O 453.922 0.893652 -1.80488 0
M  V30 4590 C 450.987 1.23348 -3.24016 0
M  V30 4591 C 450.048 0.529883 -4.26017 0
M  V30 4592 C 449.281 1.50435 -5.12059 0
M  V30 4593 O 449.504 2.73837 -5.00369 0
M  V30 4594 O 448.438 1.03459 -5.92942 0
M  V30 4595 H 452.264 -0.493605 -2.99662 0
M  V30 4596 H 449.849 -0.307427 -1.46203 0
M  V30 4597 H 451.731 1.82438 -3.79861 0
M  V30 4598 H 450.406 1.91945 -2.60651 0
M  V30 4599 H 449.313 -0.101948 -3.73961 0
M  V30 4600 H 450.646 -0.11445 -4.92067 0
M  V30 4601 N 452.299 1.55045 -0.282633 0
M  V30 4602 C 453.71 1.85473 0.213655 0
M  V30 4603 C 454.061 1.20465 1.54863 0
M  V30 4604 O 453.186 0.495676 2.10647 0
M  V30 4605 C 453.781 3.36496 0.394445 0
M  V30 4606 C 452.34 3.67022 0.834961 0
M  V30 4607 C 451.487 2.77218 -0.0674081 0
M  V30 4608 H 454.438 1.50478 -0.504202 0
M  V30 4609 H 454.459 3.60007 1.23186 0
M  V30 4610 H 453.971 3.83782 -0.577326 0
M  V30 4611 H 452.072 3.25241 1.81794 0
M  V30 4612 H 452.185 4.74433 0.667075 0
M  V30 4613 H 450.549 2.5069 0.450196 0
M  V30 4614 H 451.332 3.2732 -1.0352 0
M  V30 4615 N 453.777 0.010035 1.57597 0
M  V30 4616 C 454.727 -0.986858 2.05536 0
M  V30 4617 C 455.711 -1.29711 0.952042 0
M  V30 4618 O 456.903 -1.28641 1.21575 0
M  V30 4619 C 454.032 -2.2756 2.57043 0
M  V30 4620 C 453.118 -1.99455 3.74271 0
M  V30 4621 N 453.509 -1.41546 4.85591 0
M  V30 4622 C 451.807 -2.29547 3.82393 0
M  V30 4623 C 452.508 -1.3014 5.66956 0
M  V30 4624 N 451.484 -1.79044 5.13268 0
M  V30 4625 H 455.286 -0.533778 2.89012 0
M  V30 4626 H 452.8 -0.195432 1.6122 0
M  V30 4627 H 454.797 -2.99829 2.89669 0
M  V30 4628 H 453.457 -2.73512 1.7499 0
M  V30 4629 H 454.468 -1.09294 5.06236 0
M  V30 4630 H 451.145 -2.78304 3.11213 0
M  V30 4631 H 452.535 -0.855237 6.66435 0
M  V30 4632 N 455.255 -1.55392 -0.262866 0
M  V30 4633 C 456.495 -1.78231 -1.00064 0
M  V30 4634 C 456.859 -0.576966 -1.83126 0
M  V30 4635 O 458.06 -0.683809 -2.59957 0
M  V30 4636 C 456.331 -3.05701 -1.85153 0
M  V30 4637 S 457.89 -3.49699 -2.65058 0
M  V30 4638 H 454.708 -0.626138 -0.336856 0
M  V30 4639 H 457.31 -1.93626 -0.27005 0
M  V30 4640 H 456.014 -3.91511 -1.23074 0
M  V30 4641 H 455.545 -2.93 -2.62515 0
M  V30 4642 H 457.56 -3.09772 -3.87629 0
M  V30 4643 N 456.733 0.527833 -1.48498 0
M  V30 4644 C 458.144 1.10975 -1.50138 0
M  V30 4645 C 458.495 1.943 -0.272378 0
M  V30 4646 O 457.62 2.07319 0.620301 0
M  V30 4647 C 458.215 2.01927 -2.72049 0
M  V30 4648 C 456.774 2.55332 -2.76554 0
M  V30 4649 C 455.921 1.32341 -2.43683 0
M  V30 4650 H 458.872 0.312986 -1.55583 0
M  V30 4651 H 458.893 2.86244 -2.50689 0
M  V30 4652 H 458.405 1.41254 -3.61481 0
M  V30 4653 H 456.506 3.19721 -1.91336 0
M  V30 4654 H 456.619 2.94319 -3.78038 0
M  V30 4655 H 454.983 1.63989 -1.94884 0
M  V30 4656 H 455.766 0.734165 -3.35358 0
M  V30 4657 N 458.211 1.37122 0.776871 0
M  V30 4658 C 459.459 1.31787 1.53221 0
M  V30 4659 C 459.78 -0.0987589 1.9475 0
M  V30 4660 O 459.05 -1.0417 1.65908 0
M  V30 4661 H 457.63 0.484839 0.568278 0
M  V30 4662 H 460.292 1.71556 0.924917 0
M  V30 4663 H 459.388 1.95355 2.43398 0
M  V30 4664 N 459.689 -1.00246 1.21608 0
M  V30 4665 C 460.966 -1.71336 0.943568 0
M  V30 4666 C 461.346 -2.03972 -0.543943 0
M  V30 4667 O 460.694 -1.71545 -1.50946 0
M  V30 4668 C 460.904 -2.97094 1.83128 0
M  V30 4669 C 462.252 -3.70071 2.08165 0
M  V30 4670 O 463.276 -3.07081 1.80498 0
M  V30 4671 O 462.135 -4.83376 2.54971 0
M  V30 4672 H 459.229 -0.747386 0.354039 0
M  V30 4673 H 461.775 -1.05967 1.32549 0
M  V30 4674 H 460.547 -2.69407 2.83788 0
M  V30 4675 H 460.17 -3.70204 1.45034 0
M  V30 4676 N 461.167 -1.02423 -1.1978 0
M  V30 4677 C 462.077 -0.610919 -2.26506 0
M  V30 4678 C 463.093 0.355152 -1.70337 0
M  V30 4679 O 464.269 0.214195 -2.00258 0
M  V30 4680 C 461.334 0.0365921 -3.46681 0
M  V30 4681 C 460.395 -0.976389 -4.18049 0
M  V30 4682 C 459.628 -0.359683 -5.32487 0
M  V30 4683 O 459.851 0.838601 -5.64202 0
M  V30 4684 O 458.785 -1.08022 -5.92127 0
M  V30 4685 H 462.611 -1.49965 -2.64091 0
M  V30 4686 H 460.196 -0.794156 -1.26545 0
M  V30 4687 H 462.078 0.39786 -4.19518 0
M  V30 4688 H 460.753 0.899398 -3.10954 0
M  V30 4689 H 459.66 -1.38916 -3.47352 0
M  V30 4690 H 460.993 -1.80941 -4.57735 0
M  V30 4691 N 462.645 1.35699 -0.801477 0
M  V30 4692 C 463.922 1.9324 -0.302937 0
M  V30 4693 C 464.302 1.73209 1.20672 0
M  V30 4694 O 463.65 1.09809 2.00385 0
M  V30 4695 C 463.86 3.41728 -0.708747 0
M  V30 4696 C 465.208 4.18868 -0.695328 0
M  V30 4697 O 466.232 3.5022 -0.649971 0
M  V30 4698 O 465.091 5.41342 -0.749081 0
M  V30 4699 H 462.185 0.82331 -0.0780367 0
M  V30 4700 H 464.731 1.44806 -0.884832 0
M  V30 4701 H 463.503 3.50015 -1.74944 0
M  V30 4702 H 463.126 3.97471 -0.101384 0
M  V30 4703 N 464.123 0.554532 1.47522 0
M  V30 4704 C 465.033 -0.197865 2.33764 0
M  V30 4705 C 466.049 -0.914576 1.48025 0
M  V30 4706 O 467.225 -0.884067 1.80959 0
M  V30 4707 C 464.29 -1.21628 3.24665 0
M  V30 4708 C 463.351 -0.507283 4.26292 0
M  V30 4709 C 462.584 -1.47718 5.1285 0
M  V30 4710 O 462.807 -2.7118 5.01814 0
M  V30 4711 O 461.741 -1.00313 5.93482 0
M  V30 4712 H 465.567 0.50949 2.99396 0
M  V30 4713 H 463.152 0.315176 1.46038 0
M  V30 4714 H 465.034 -1.80421 3.80823 0
M  V30 4715 H 463.709 -1.9056 2.61665 0
M  V30 4716 H 462.616 0.121778 3.73902 0
M  V30 4717 H 463.949 0.140544 4.91999 0
M  V30 4718 N 465.601 -1.54893 0.290851 0
M  V30 4719 C 466.829 -2.04343 -0.324288 0
M  V30 4720 C 467.244 -1.16859 -1.48289 0
M  V30 4721 O 466.601 -0.192018 -1.81487 0
M  V30 4722 C 466.652 -3.52756 -0.79026 0
M  V30 4723 O 466.373 -4.36913 0.322213 0
M  V30 4724 C 467.874 -4.18161 -1.4716 0
M  V30 4725 H 465.094 -0.667135 -0.0719173 0
M  V30 4726 H 467.638 -1.99981 0.427529 0
M  V30 4727 H 465.793 -3.57511 -1.49213 0
M  V30 4728 H 466.207 -5.24486 -0.0387372 0
M  V30 4729 H 467.681 -5.23562 -1.7489 0
M  V30 4730 H 468.158 -3.67282 -2.40834 0
M  V30 4731 H 468.764 -4.17454 -0.813178 0
M  V30 4732 N 467.08 -0.0183926 -1.57589 0
M  V30 4733 C 468.327 0.662562 -1.91354 0
M  V30 4734 C 468.655 1.72747 -0.893788 0
M  V30 4735 O 467.91 1.9545 0.0988509 0
M  V30 4736 C 468.209 1.32676 -3.31861 0
M  V30 4737 C 467.875 0.393267 -4.49182 0
M  V30 4738 C 466.537 0.136302 -4.81007 0
M  V30 4739 C 468.889 -0.248366 -5.20608 0
M  V30 4740 C 466.217 -0.770282 -5.81621 0
M  V30 4741 C 468.569 -1.14294 -6.22189 0
M  V30 4742 C 467.233 -1.4089 -6.52462 0
M  V30 4743 H 466.503 0.242448 -0.700214 0
M  V30 4744 H 469.15 -0.0778629 -1.91342 0
M  V30 4745 H 467.455 2.14168 -3.28084 0
M  V30 4746 H 469.152 1.86001 -3.55253 0
M  V30 4747 H 465.742 0.603723 -4.24327 0
M  V30 4748 H 469.926 -0.062883 -4.9626 0
M  V30 4749 H 465.182 -0.984154 -6.03427 0
M  V30 4750 H 469.356 -1.64637 -6.76659 0
M  V30 4751 H 466.983 -2.11306 -7.30242 0
M  V30 4752 N 468.558 1.5553 0.254621 0
M  V30 4753 C 469.505 1.89666 1.31512 0
M  V30 4754 C 470.475 0.750057 1.482 0
M  V30 4755 O 471.66 1.00301 1.62309 0
M  V30 4756 C 468.8 2.19009 2.667 0
M  V30 4757 C 467.913 3.46435 2.58083 0
M  V30 4758 C 467.048 3.65386 3.85573 0
M  V30 4759 C 466.087 4.8644 3.71541 0
M  V30 4760 N 465.224 5.01952 4.90906 0
M  V30 4761 H 470.064 2.80109 1.017 0
M  V30 4762 H 467.601 1.38666 0.490938 0
M  V30 4763 H 469.559 2.34025 3.45381 0
M  V30 4764 H 468.189 1.31779 2.94676 0
M  V30 4765 H 467.241 3.39792 1.71013 0
M  V30 4766 H 468.553 4.35258 2.43622 0
M  V30 4767 H 467.707 3.80319 4.72697 0
M  V30 4768 H 466.446 2.74781 4.02922 0
M  V30 4769 H 465.451 4.71491 2.82801 0
M  V30 4770 H 466.676 5.78497 3.55694 0
M  V30 4771 H 464.622 4.14283 5.08631 0
M  V30 4772 H 464.539 5.84851 4.79046 0
M  V30 4773 H 465.807 5.21289 5.7955 0
M  V30 4774 N 470.036 -0.519951 1.48776 0
M  V30 4775 C 471.313 -1.28123 1.47797 0
M  V30 4776 C 471.693 -2.10196 0.195157 0
M  V30 4777 O 471.041 -2.13167 -0.822925 0
M  V30 4778 C 471.251 -2.15413 2.74587 0
M  V30 4779 C 472.599 -2.75225 3.23321 0
M  V30 4780 O 473.623 -2.25694 2.75574 0
M  V30 4781 O 472.482 -3.65346 4.06429 0
M  V30 4782 H 469.576 -0.578793 0.590701 0
M  V30 4783 H 472.122 -0.535779 1.6102 0
M  V30 4784 H 470.894 -1.54617 3.59457 0
M  V30 4785 H 470.517 -2.97186 2.64132 0
M  V30 4786 N 471.514 -1.37532 -0.769588 0
M  V30 4787 C 472.762 -1.32597 -1.5252 0
M  V30 4788 C 473.083 0.0884294 -1.94799 0
M  V30 4789 O 472.353 1.03289 -1.66458 0
M  V30 4790 H 470.933 -0.487846 -0.565699 0
M  V30 4791 H 473.595 -1.72044 -0.915806 0
M  V30 4792 H 472.691 -1.96643 -2.42359 0
M  V30 4793 N 472.992 0.995999 -1.22138 0
M  V30 4794 C 474.241 1.72928 -1.03821 0
M  V30 4795 C 474.554 1.90872 0.427444 0
M  V30 4796 O 475.76 2.61496 0.730212 0
M  V30 4797 C 474.216 3.11124 -1.80913 0
M  V30 4798 C 473.824 3.01122 -3.31707 0
M  V30 4799 C 475.568 3.8852 -1.71035 0
M  V30 4800 C 473.475 4.34453 -4.01253 0
M  V30 4801 H 472.405 0.648376 -0.384869 0
M  V30 4802 H 475.056 1.11213 -1.45959 0
M  V30 4803 H 473.438 3.73503 -1.31573 0
M  V30 4804 H 474.612 2.47926 -3.88419 0
M  V30 4805 H 472.927 2.3721 -3.42228 0
M  V30 4806 H 475.524 4.872 -2.20318 0
M  V30 4807 H 475.867 4.1087 -0.670196 0
M  V30 4808 H 476.4 3.32812 -2.17902 0
M  V30 4809 H 473.139 4.17303 -5.05508 0
M  V30 4810 H 472.659 4.87574 -3.49331 0
M  V30 4811 H 474.338 5.03215 -4.06674 0
M  V30 4812 N 474.47 1.03057 1.19235 0
M  V30 4813 C 475.698 0.747697 1.92917 0
M  V30 4814 C 476.113 -0.69372 1.75593 0
M  V30 4815 O 475.47 -1.47191 1.07894 0
M  V30 4816 C 475.521 1.09159 3.44625 0
M  V30 4817 O 475.242 2.47641 3.61394 0
M  V30 4818 C 476.743 0.831763 4.35427 0
M  V30 4819 H 473.963 0.273453 0.612751 0
M  V30 4820 H 476.507 1.37552 1.51327 0
M  V30 4821 H 474.662 0.508919 3.84043 0
M  V30 4822 H 475.076 2.60499 4.55237 0
M  V30 4823 H 476.55 1.12233 5.4047 0
M  V30 4824 H 477.027 -0.233769 4.38577 0
M  V30 4825 H 477.633 1.39725 4.01693 0
M  V30 4826 N 475.948 -1.35272 0.808662 0
M  V30 4827 C 476.896 -2.31663 0.208606 0
M  V30 4828 C 477.89 -1.56731 -0.642778 0
M  V30 4829 O 479.096 -1.71843 -0.53571 0
M  V30 4830 H 475.471 -0.750421 0.0486993 0
M  V30 4831 H 477.442 -2.79814 1.03666 0
M  V30 4832 C 476.191 -3.42008 -0.626573 0
M  V30 4833 H 475.514 -3.99795 0.0192103 0
M  V30 4834 H 476.954 -4.11727 -1.01278 0
M  V30 4835 C 475.413 -2.85226 -1.79298 0
M  V30 4836 O 475.943 -2.78945 -2.89055 0
M  V30 4837 N 474.149 -2.42245 -1.60516 0
M  V30 4838 H 473.696 -2.47554 -0.712375 0
M  V30 4839 H 473.654 -2.04603 -2.38715 0
M  V30 4840 N 477.426 -0.562348 -1.47226 0
M  V30 4841 C 478.674 -0.0401371 -2.0206 0
M  V30 4842 C 478.995 1.3165 -1.43852 0
M  V30 4843 O 478.265 1.85976 -0.615599 0
M  V30 4844 H 476.845 -0.0118479 -0.746906 0
M  V30 4845 H 479.507 -0.73352 -1.8057 0
M  V30 4846 H 478.603 0.0441254 -3.12069 0
M  V30 4847 N 478.904 1.54736 -0.299062 0
M  V30 4848 C 479.867 2.22127 0.565012 0
M  V30 4849 C 480.867 1.20669 1.06281 0
M  V30 4850 O 482.057 1.45417 0.959145 0
M  V30 4851 C 479.189 2.90611 1.78208 0
M  V30 4852 H 480.382 2.99891 -0.0237448 0
M  V30 4853 H 477.935 1.5622 -0.0498788 0
M  V30 4854 H 478.67 2.16921 2.41072 0
M  V30 4855 H 478.455 3.64984 1.43281 0
M  V30 4856 H 479.945 3.42026 2.396 0
M  V30 4857 N 480.382 0.0267497 1.57577 0
M  V30 4858 C 481.332 -0.965003 2.06571 0
M  V30 4859 C 482.316 -1.28694 0.965746 0
M  V30 4860 O 483.508 -1.27345 1.22932 0
M  V30 4861 C 480.637 -2.24821 2.59443 0
M  V30 4862 C 479.723 -1.95474 3.76365 0
M  V30 4863 N 480.114 -1.36387 4.87065 0
M  V30 4864 C 478.412 -2.25478 3.84806 0
M  V30 4865 C 479.113 -1.24119 5.68304 0
M  V30 4866 N 478.089 -1.7359 5.15138 0
M  V30 4867 H 481.891 -0.503095 2.89562 0
M  V30 4868 H 479.405 -0.178322 1.61418 0
M  V30 4869 H 481.402 -2.9674 2.92833 0
M  V30 4870 H 480.062 -2.7164 1.77881 0
M  V30 4871 H 481.073 -1.03919 5.07367 0
M  V30 4872 H 477.75 -2.74987 3.14147 0
M  V30 4873 H 479.14 -0.784504 6.67304 0
M  V30 4874 N 481.861 -1.55662 -0.24637 0
M  V30 4875 C 483.107 -1.78698 -0.971525 0
M  V30 4876 C 483.462 -0.59577 -1.82944 0
M  V30 4877 O 482.755 0.41097 -1.87141 0
M  V30 4878 C 482.949 -3.04885 -1.86494 0
M  V30 4879 C 482.778 -4.36165 -1.09501 0
M  V30 4880 C 481.548 -4.98929 -0.799895 0
M  V30 4881 C 483.746 -5.12126 -0.472334 0
M  V30 4882 N 481.728 -6.139 -0.00595299 0
M  V30 4883 C 483.099 -6.1972 0.18616 0
M  V30 4884 C 485.154 -4.96426 -0.382854 0
M  V30 4885 C 483.857 -7.13321 0.925542 0
M  V30 4886 C 485.883 -5.90405 0.342999 0
M  V30 4887 C 485.245 -6.97407 0.990128 0
M  V30 4888 H 481.344 -0.705852 -0.336597 0
M  V30 4889 H 483.928 -1.93157 -0.244615 0
M  V30 4890 H 482.099 -2.91753 -2.56388 0
M  V30 4891 H 483.831 -3.16212 -2.5257 0
M  V30 4892 H 480.586 -4.60365 -1.11181 0
M  V30 4893 H 481.01 -6.75938 0.379127 0
M  V30 4894 H 485.652 -4.13777 -0.868834 0
M  V30 4895 H 483.37 -7.9547 1.42312 0
M  V30 4896 H 486.956 -5.80333 0.412907 0
M  V30 4897 H 485.836 -7.68874 1.54282 0
M  V30 4898 N 483.339 0.512053 -1.4905 0
M  V30 4899 C 484.569 1.28928 -1.61434 0
M  V30 4900 C 484.977 1.87107 -0.280647 0
M  V30 4901 O 484.32 1.68024 0.742537 0
M  V30 4902 C 484.382 2.466 -2.61588 0
M  V30 4903 C 484.046 2.09375 -4.06216 0
M  V30 4904 C 485.043 1.63994 -4.93358 0
M  V30 4905 C 482.728 2.19348 -4.51876 0
M  V30 4906 C 484.722 1.29076 -6.24194 0
M  V30 4907 C 482.409 1.84041 -5.82728 0
M  V30 4908 C 483.407 1.38978 -6.68711 0
M  V30 4909 O 483.095 1.04144 -7.97126 0
M  V30 4910 H 482.827 0.397668 -0.546659 0
M  V30 4911 H 485.381 0.622507 -1.9574 0
M  V30 4912 H 483.611 3.16318 -2.22441 0
M  V30 4913 H 485.3 3.08642 -2.63619 0
M  V30 4914 H 486.066 1.55744 -4.59313 0
M  V30 4915 H 481.945 2.53376 -3.85125 0
M  V30 4916 H 485.489 0.938303 -6.91261 0
M  V30 4917 H 481.386 1.91938 -6.16304 0
M  V30 4918 H 482.154 1.17387 -8.10039 0
M  V30 4919 N 484.817 1.37938 0.762283 0
M  V30 4920 C 486.094 1.24196 1.51112 0
M  V30 4921 C 486.474 -0.160409 2.1049 0
M  V30 4922 O 485.822 -1.16904 1.96331 0
M  V30 4923 C 486.032 2.34537 2.58445 0
M  V30 4924 C 487.38 2.7254 3.25588 0
M  V30 4925 O 488.404 2.33783 2.68745 0
M  V30 4926 O 487.263 3.39343 4.28379 0
M  V30 4927 H 484.357 0.485175 0.669727 0
M  V30 4928 H 486.903 1.49743 0.798438 0
M  V30 4929 H 485.675 3.28406 2.12756 0
M  V30 4930 H 485.298 2.10505 3.37303 0
M  V30 4931 N 486.295 -0.989507 1.22664 0
M  V30 4932 C 487.541 -1.7321 1.05481 0
M  V30 4933 C 487.874 -1.89852 -0.408635 0
M  V30 4934 O 487.149 -1.44416 -1.30285 0
M  V30 4935 C 487.432 -3.1357 1.77047 0
M  V30 4936 C 487.285 -3.04555 3.31008 0
M  V30 4937 C 488.604 -4.12812 1.5256 0
M  V30 4938 H 485.723 -0.628697 0.384589 0
M  V30 4939 H 488.365 -1.15258 1.51049 0
M  V30 4940 H 486.515 -3.63046 1.3831 0
M  V30 4941 H 488.187 -2.62674 3.7921 0
M  V30 4942 H 486.43 -2.41278 3.6051 0
M  V30 4943 H 487.101 -4.03894 3.76263 0
M  V30 4944 H 489.577 -3.72106 1.86215 0
M  V30 4945 H 488.453 -5.09132 2.05124 0
M  V30 4946 H 488.714 -4.39711 0.458936 0
M  V30 4947 N 487.773 -1.03688 -1.18687 0
M  V30 4948 C 488.683 -0.634908 -2.25845 0
M  V30 4949 C 489.699 0.337065 -1.70704 0
M  V30 4950 O 490.875 0.192943 -2.00474 0
M  V30 4951 C 487.94 -0.000180054 -3.467 0
M  V30 4952 C 487.001 -1.02067 -4.1699 0
M  V30 4953 C 486.234 -0.41614 -5.32075 0
M  V30 4954 O 486.457 0.778712 -5.65059 0
M  V30 4955 O 485.391 -1.14296 -5.90948 0
M  V30 4956 H 489.217 -1.52757 -2.62486 0
M  V30 4957 H 486.802 -0.807533 -1.25695 0
M  V30 4958 H 488.684 0.353342 -4.19916 0
M  V30 4959 H 487.359 0.866367 -3.11891 0
M  V30 4960 H 486.266 -1.42592 -3.45859 0
M  V30 4961 H 487.599 -1.85786 -4.5579 0
M  V30 4962 N 489.251 1.34841 -0.815825 0
M  V30 4963 C 490.499 1.98107 -0.399744 0
M  V30 4964 C 490.82 1.65019 1.03894 0
M  V30 4965 O 490.09 0.937311 1.72021 0
M  V30 4966 H 488.67 0.732827 -0.144823 0
M  V30 4967 H 491.332 1.64599 -1.0437 0
M  V30 4968 H 490.428 3.07856 -0.512965 0
M  V30 4969 N 490.729 0.570148 1.46925 0
M  V30 4970 C 491.977 0.0508523 2.02036 0
M  V30 4971 C 492.298 -1.30885 1.44548 0
M  V30 4972 O 491.568 -1.85647 0.625453 0
M  V30 4973 H 490.148 0.0158088 0.746833 0
M  V30 4974 H 492.81 0.743086 1.80178 0
M  V30 4975 H 491.906 -0.027575 3.12088 0
M  V30 4976 N 492.207 -1.54576 0.307264 0
M  V30 4977 C 493.14 -2.19946 -0.608195 0
M  V30 4978 C 494.118 -1.17096 -1.12815 0
M  V30 4979 O 495.302 -1.45766 -1.19518 0
M  V30 4980 C 492.429 -2.84826 -1.8328 0
M  V30 4981 C 491.475 -4.01256 -1.44554 0
M  V30 4982 S 492.308 -5.33197 -0.49612 0
M  V30 4983 C 493.464 -6.01563 -1.72838 0
M  V30 4984 H 493.697 -2.97253 -0.0528544 0
M  V30 4985 H 491.23 -1.54129 0.0913837 0
M  V30 4986 H 493.188 -3.22832 -2.53554 0
M  V30 4987 H 491.849 -2.07353 -2.35931 0
M  V30 4988 H 491.042 -4.45457 -2.35762 0
M  V30 4989 H 490.644 -3.6484 -0.822671 0
M  V30 4990 H 492.936 -6.22751 -2.6681 0
M  V30 4991 H 493.879 -6.9552 -1.32882 0
M  V30 4992 H 494.287 -5.31279 -1.90795 0
M  V30 4993 N 493.685 -0.035106 -1.57561 0
M  V30 4994 C 494.617 0.973604 -2.07494 0
M  V30 4995 C 495.63 1.28504 -0.999534 0
M  V30 4996 O 496.819 1.24864 -1.27559 0
M  V30 4997 C 493.919 2.29945 -2.48955 0
M  V30 4998 C 493.092 2.1723 -3.79644 0
M  V30 4999 C 492.151 3.328 -4.07592 0
M  V30 5000 O 491.177 3.09418 -4.77754 0
M  V30 5001 N 492.379 4.56779 -3.58236 0
M  V30 5002 H 495.144 0.547525 -2.94656 0
M  V30 5003 H 492.705 0.151515 -1.61189 0
M  V30 5004 H 494.697 3.06097 -2.64739 0
M  V30 5005 H 493.267 2.64173 -1.67126 0
M  V30 5006 H 492.487 1.25768 -3.73599 0
M  V30 5007 H 493.775 2.05945 -4.65257 0
M  V30 5008 H 493.173 4.78668 -3.01485 0
M  V30 5009 H 491.73 5.30079 -3.79288 0
M  V30 5010 N 495.163 1.55791 0.238111 0
M  V30 5011 C 496.44 1.68798 0.98826 0
M  V30 5012 C 496.82 0.577562 2.03045 0
M  V30 5013 O 496.168 -0.41778 2.24648 0
M  V30 5014 C 496.378 3.09454 1.61367 0
M  V30 5015 C 497.726 3.68335 2.11221 0
M  V30 5016 O 498.75 3.1231 1.71292 0
M  V30 5017 O 497.609 4.6657 2.84561 0
M  V30 5018 H 494.703 0.686881 0.460568 0
M  V30 5019 H 497.249 1.68118 0.231202 0
M  V30 5020 H 496.021 3.81726 0.860295 0
M  V30 5021 H 495.644 3.14182 2.4367 0
M  V30 5022 N 496.642 -0.504142 1.49319 0
M  V30 5023 C 497.872 -1.28071 1.62116 0
M  V30 5024 C 498.28 -1.86955 0.290566 0
M  V30 5025 O 497.623 -1.68415 -0.733616 0
M  V30 5026 C 497.685 -2.4521 2.62893 0
M  V30 5027 C 497.349 -2.07218 4.0732 0
M  V30 5028 C 498.346 -1.61375 4.94221 0
M  V30 5029 C 496.031 -2.16949 4.53033 0
M  V30 5030 C 498.025 -1.25763 6.2487 0
M  V30 5031 C 495.712 -1.80949 5.83696 0
M  V30 5032 C 496.71 -1.3543 6.69438 0
M  V30 5033 O 496.398 -0.99915 7.97667 0
M  V30 5034 H 496.13 -0.394763 0.54876 0
M  V30 5035 H 498.684 -0.612118 1.96067 0
M  V30 5036 H 496.914 -3.15134 2.24115 0
M  V30 5037 H 498.603 -3.0724 2.65252 0
M  V30 5038 H 499.369 -1.53306 4.60133 0
M  V30 5039 H 495.248 -2.5133 3.86463 0
M  V30 5040 H 498.792 -0.901631 6.91749 0
M  V30 5041 H 494.689 -1.88667 6.17313 0
M  V30 5042 H 495.457 -1.13089 8.1065 0
M  V30 5043 N 498.12 -1.38341 -0.754957 0
M  V30 5044 C 499.068 -1.35573 -1.89005 0
M  V30 5045 C 500.062 -0.241824 -1.67665 0
M  V30 5046 O 501.268 -0.410785 -1.7525 0
M  V30 5047 H 497.643 -0.422898 -0.621821 0
M  V30 5048 H 499.614 -2.31359 -1.88455 0
M  V30 5049 C 498.363 -1.19631 -3.26471 0
M  V30 5050 H 497.686 -2.04605 -3.43477 0
M  V30 5051 H 499.126 -1.21748 -4.06144 0
M  V30 5052 C 497.585 0.0968705 -3.36761 0
M  V30 5053 O 498.115 1.07439 -3.87066 0
M  V30 5054 N 496.321 0.153242 -2.90196 0
M  V30 5055 H 495.868 -0.642908 -2.49448 0
M  V30 5056 H 495.826 1.01807 -2.9746 0
M  V30 5057 N 499.598 0.982988 -1.23187 0
M  V30 5058 C 500.828 1.75666 -1.08743 0
M  V30 5059 C 501.236 1.85662 0.364195 0
M  V30 5060 O 500.579 1.33317 1.26382 0
M  V30 5061 C 500.641 3.20144 -1.63549 0
M  V30 5062 C 500.305 3.33665 -3.12277 0
M  V30 5063 C 501.302 3.20194 -4.096 0
M  V30 5064 C 498.987 3.58397 -3.51933 0
M  V30 5065 C 500.981 3.31256 -5.44563 0
M  V30 5066 C 498.668 3.69098 -4.87042 0
M  V30 5067 C 499.666 3.55537 -5.83166 0
M  V30 5068 O 499.354 3.65864 -7.1582 0
M  V30 5069 H 499.086 0.558194 -0.381307 0
M  V30 5070 H 501.64 1.24387 -1.63454 0
M  V30 5071 H 499.87 3.72659 -1.03256 0
M  V30 5072 H 501.559 3.79262 -1.4462 0
M  V30 5073 H 502.325 3.00987 -3.80305 0
M  V30 5074 H 498.204 3.68025 -2.77631 0
M  V30 5075 H 501.748 3.20588 -6.19572 0
M  V30 5076 H 497.645 3.87814 -5.16014 0
M  V30 5077 H 498.413 3.82675 -7.23534 0
M  V30 5078 N 501.076 1.04316 1.18135 0
M  V30 5079 C 502.322 0.749128 1.88457 0
M  V30 5080 C 502.655 -0.72149 1.803 0
M  V30 5081 O 501.93 -1.52676 1.205 0
M  V30 5082 C 502.213 1.21905 3.38838 0
M  V30 5083 C 502.066 2.75195 3.55792 0
M  V30 5084 C 503.385 0.811085 4.32561 0
M  V30 5085 H 500.504 0.273611 0.684329 0
M  V30 5086 H 503.146 1.29561 1.38975 0
M  V30 5087 H 501.296 0.754137 3.8111 0
M  V30 5088 H 502.968 3.29743 3.22595 0
M  V30 5089 H 501.211 3.14899 2.98364 0
M  V30 5090 H 501.882 3.03135 4.61317 0
M  V30 5091 H 504.358 1.21118 3.98082 0
M  V30 5092 H 503.234 1.16761 5.36338 0
M  V30 5093 H 503.495 -0.285596 4.41177 0
M  V30 5094 N 502.554 -1.34406 0.822964 0
M  V30 5095 C 503.8 -1.98999 0.420847 0
M  V30 5096 C 504.155 -1.64067 -1.00498 0
M  V30 5097 O 503.448 -0.902071 -1.69036 0
M  V30 5098 C 503.642 -3.52981 0.560268 0
M  V30 5099 C 503.471 -4.02873 1.99809 0
M  V30 5100 C 502.241 -4.31463 2.62998 0
M  V30 5101 C 504.439 -4.20241 2.96483 0
M  V30 5102 N 502.421 -4.6739 3.9802 0
M  V30 5103 C 503.792 -4.59348 4.16413 0
M  V30 5104 C 505.847 -4.02489 2.93098 0
M  V30 5105 C 504.55 -4.82559 5.33413 0
M  V30 5106 C 506.576 -4.26866 4.09315 0
M  V30 5107 C 505.938 -4.6626 5.27997 0
M  V30 5108 H 502.037 -0.755432 0.202104 0
M  V30 5109 H 504.621 -1.62815 1.06767 0
M  V30 5110 H 502.792 -3.88359 -0.0566596 0
M  V30 5111 H 504.524 -4.04487 0.131146 0
M  V30 5112 H 501.279 -4.22373 2.14238 0
M  V30 5113 H 501.703 -4.89588 4.67582 0
M  V30 5114 H 506.345 -3.71161 2.02483 0
M  V30 5115 H 504.063 -5.12754 6.24587 0
M  V30 5116 H 507.649 -4.14667 4.08096 0
M  V30 5117 H 506.529 -4.84752 6.16429 0
M  V30 5118 N 504.032 -0.577932 -1.46621 0
M  V30 5119 C 504.995 0.147805 -2.28723 0
M  V30 5120 C 505.995 0.823325 -1.38123 0
M  V30 5121 O 507.185 0.676011 -1.60548 0
M  V30 5122 C 504.317 1.21853 -3.18378 0
M  V30 5123 H 505.51 -0.573654 -2.94362 0
M  V30 5124 H 503.063 -0.335703 -1.52652 0
M  V30 5125 H 503.798 1.97173 -2.57475 0
M  V30 5126 H 503.583 0.738714 -3.85078 0
M  V30 5127 H 505.073 1.72768 -3.80186 0
M  V30 5128 N 505.51 1.54411 -0.315457 0
M  V30 5129 C 506.458 2.25514 0.569771 0
M  V30 5130 C 507.452 1.2663 1.12522 0
M  V30 5131 O 508.658 1.44434 1.07419 0
M  V30 5132 H 505.033 0.724257 0.202376 0
M  V30 5133 H 507.004 2.98354 -0.0522895 0
M  V30 5134 C 505.753 3.02004 1.72305 0
M  V30 5135 H 505.076 3.77906 1.30488 0
M  V30 5136 H 506.516 3.55014 2.31821 0
M  V30 5137 C 504.975 2.09822 2.63583 0
M  V30 5138 O 505.505 1.67574 3.65078 0
M  V30 5139 N 503.711 1.75478 2.31637 0
M  V30 5140 H 503.258 2.10032 1.49145 0
M  V30 5141 H 503.216 1.14079 2.92973 0
M  V30 5142 N 506.988 0.0434614 1.5754 0
M  V30 5143 C 508.228 -0.636023 1.94253 0
M  V30 5144 C 508.592 -1.68461 0.921132 0
M  V30 5145 O 509.793 -2.41762 1.17494 0
M  V30 5146 C 508.064 -1.22357 3.35803 0
M  V30 5147 S 509.623 -1.92213 3.94461 0
M  V30 5148 H 506.441 -0.209041 0.679575 0
M  V30 5149 H 509.043 0.110556 1.95187 0
M  V30 5150 H 507.747 -0.448162 4.07946 0
M  V30 5151 H 507.278 -2.00713 3.38346 0
M  V30 5152 H 509.293 -3.20199 3.79061 0
M  V30 5153 N 508.466 -1.55915 -0.229846 0
M  V30 5154 C 509.713 -1.78542 -0.955452 0
M  V30 5155 C 510.041 -0.610785 -1.84661 0
M  V30 5156 O 509.296 0.405213 -1.91459 0
M  V30 5157 C 509.595 -3.06845 -1.8325 0
M  V30 5158 C 509.261 -4.37395 -1.09528 0
M  V30 5159 C 507.923 -4.72868 -0.891598 0
M  V30 5160 C 510.275 -5.18029 -0.574046 0
M  V30 5161 C 507.603 -5.86496 -0.154655 0
M  V30 5162 C 509.955 -6.32423 0.149513 0
M  V30 5163 C 508.619 -6.66504 0.364519 0
M  V30 5164 H 507.889 -0.653333 -0.349625 0
M  V30 5165 H 510.536 -1.90183 -0.224235 0
M  V30 5166 H 508.841 -2.90291 -2.63132 0
M  V30 5167 H 510.538 -3.21553 -2.39592 0
M  V30 5168 H 507.128 -4.09538 -1.26399 0
M  V30 5169 H 511.312 -4.91066 -0.718899 0
M  V30 5170 H 506.568 -6.11396 0.0222356 0
M  V30 5171 H 510.742 -6.94137 0.560947 0
M  V30 5172 H 508.369 -7.54397 0.937495 0
M  V30 5173 N 509.944 0.496216 -1.49584 0
M  V30 5174 C 510.854 1.62352 -1.69349 0
M  V30 5175 C 511.87 1.64184 -0.576147 0
M  V30 5176 O 513.046 1.82517 -0.85144 0
M  V30 5177 C 510.111 2.98698 -1.76013 0
M  V30 5178 C 509.172 3.07454 -2.99617 0
M  V30 5179 C 508.405 4.37296 -3.05953 0
M  V30 5180 O 508.628 5.2637 -2.19752 0
M  V30 5181 O 507.562 4.51124 -3.9846 0
M  V30 5182 H 511.388 1.48606 -2.64859 0
M  V30 5183 H 508.973 0.673022 -1.33382 0
M  V30 5184 H 510.855 3.79725 -1.82721 0
M  V30 5185 H 509.53 3.12696 -0.836828 0
M  V30 5186 H 508.437 2.25597 -2.98424 0
M  V30 5187 H 509.77 2.98385 -3.91443 0
M  V30 5188 N 511.423 1.38739 0.74761 0
M  V30 5189 C 512.672 1.3459 1.50228 0
M  V30 5190 C 512.985 -0.0595592 1.95509 0
M  V30 5191 O 514.191 -0.22361 2.70578 0
M  V30 5192 C 512.647 2.36377 2.71393 0
M  V30 5193 C 512.255 3.82573 2.33113 0
M  V30 5194 C 513.999 2.41281 3.49262 0
M  V30 5195 C 511.906 4.76032 3.50924 0
M  V30 5196 H 510.836 0.500312 0.564096 0
M  V30 5197 H 513.487 1.64324 0.8167 0
M  V30 5198 H 511.869 1.99694 3.41962 0
M  V30 5199 H 513.043 4.28227 1.70171 0
M  V30 5200 H 511.358 3.80844 1.68365 0
M  V30 5201 H 513.955 3.08301 4.36869 0
M  V30 5202 H 514.298 1.43353 3.9084 0
M  V30 5203 H 514.831 2.76793 2.85711 0
M  V30 5204 H 511.57 5.75177 3.14408 0
M  V30 5205 H 511.09 4.35066 4.12889 0
M  V30 5206 H 512.769 4.94331 4.17427 0
M  V30 5207 N 512.901 -0.976442 1.23707 0
M  V30 5208 C 514.129 -1.75341 1.09833 0
M  V30 5209 C 514.544 -1.8553 -0.349885 0
M  V30 5210 O 513.901 -1.33732 -1.24185 0
M  V30 5211 C 513.952 -3.17833 1.72233 0
M  V30 5212 O 513.673 -3.08167 3.11391 0
M  V30 5213 C 515.174 -4.11906 1.63853 0
M  V30 5214 H 512.394 -0.550137 0.384175 0
M  V30 5215 H 514.938 -1.2265 1.63638 0
M  V30 5216 H 513.093 -3.67538 1.22452 0
M  V30 5217 H 513.507 -3.97897 3.41729 0
M  V30 5218 H 514.981 -5.09579 2.12211 0
M  V30 5219 H 515.458 -4.35109 0.598092 0
M  V30 5220 H 516.064 -3.68107 2.13019 0
M  V30 5221 N 514.379 -1.04941 -1.1758 0
M  V30 5222 C 515.309 -0.669172 -2.23706 0
M  V30 5223 C 516.29 0.331835 -1.66832 0
M  V30 5224 O 517.475 0.209988 -1.93061 0
M  V30 5225 C 514.605 -0.0404889 -3.47276 0
M  V30 5226 C 513.559 -0.965983 -4.16957 0
M  V30 5227 C 512.885 -0.201312 -5.34321 0
M  V30 5228 C 514.185 -2.28902 -4.69469 0
M  V30 5229 H 515.879 -1.55639 -2.55767 0
M  V30 5230 H 513.425 -0.749793 -1.22939 0
M  V30 5231 H 515.378 0.237298 -4.20731 0
M  V30 5232 H 514.102 0.881658 -3.14475 0
M  V30 5233 H 512.761 -1.22829 -3.45411 0
M  V30 5234 H 512.409 0.723519 -4.97769 0
M  V30 5235 H 512.109 -0.817968 -5.81879 0
M  V30 5236 H 513.633 0.0692499 -6.10561 0
M  V30 5237 H 515.047 -2.07132 -5.34574 0
M  V30 5238 H 513.444 -2.85942 -5.27596 0
M  V30 5239 H 514.514 -2.92937 -3.86414 0
M  V30 5240 N 515.857 1.33968 -0.830081 0
M  V30 5241 C 516.767 2.33164 -0.259207 0
M  V30 5242 C 517.783 1.62951 0.610164 0
M  V30 5243 O 518.959 1.94668 0.516369 0
M  V30 5244 C 516.024 3.42088 0.563598 0
M  V30 5245 C 515.085 4.28037 -0.329014 0
M  V30 5246 C 514.318 5.3176 0.454616 0
M  V30 5247 O 514.541 5.44876 1.6872 0
M  V30 5248 O 513.475 6.01669 -0.166794 0
M  V30 5249 H 517.301 2.83832 -1.08041 0
M  V30 5250 H 514.886 1.37154 -0.59239 0
M  V30 5251 H 516.768 4.08581 1.03147 0
M  V30 5252 H 515.443 2.93651 1.36201 0
M  V30 5253 H 514.35 3.64443 -0.844538 0
M  V30 5254 H 515.683 4.79934 -1.09196 0
M  V30 5255 N 517.335 0.585699 1.46312 0
M  V30 5256 C 518.265 -0.133556 2.33118 0
M  V30 5257 C 519.246 -0.880707 1.45525 0
M  V30 5258 O 520.431 -0.855579 1.74337 0
M  V30 5259 C 517.561 -1.14585 3.27853 0
M  V30 5260 C 516.515 -0.513341 4.2491 0
M  V30 5261 C 515.841 -1.63231 5.09175 0
M  V30 5262 C 517.141 0.551413 5.19381 0
M  V30 5263 H 518.835 0.59121 2.93505 0
M  V30 5264 H 516.381 0.285761 1.41136 0
M  V30 5265 H 518.334 -1.65741 3.87438 0
M  V30 5266 H 517.058 -1.90093 2.65579 0
M  V30 5267 H 515.717 -0.0228349 3.66593 0
M  V30 5268 H 515.365 -2.37713 4.43285 0
M  V30 5269 H 515.065 -1.21473 5.74907 0
M  V30 5270 H 516.589 -2.14658 5.71624 0
M  V30 5271 H 518.003 0.124804 5.73164 0
M  V30 5272 H 516.4 0.889486 5.93471 0
M  V30 5273 H 517.47 1.43655 4.63132 0
M  V30 5274 N 518.813 -1.54241 0.323641 0
M  V30 5275 C 520.038 -2.05452 -0.283605 0
M  V30 5276 C 520.463 -1.19823 -1.44997 0
M  V30 5277 O 519.821 -0.207358 -1.8011 0
M  V30 5278 C 519.869 -3.53823 -0.695795 0
M  V30 5279 O 518.973 -3.71134 -1.79815 0
M  V30 5280 H 518.314 -0.662024 -0.0511917 0
M  V30 5281 H 520.844 -1.99079 0.472073 0
M  V30 5282 H 520.854 -3.96094 -0.978434 0
M  V30 5283 H 519.529 -4.15602 0.157287 0
M  V30 5284 H 518.106 -3.40768 -1.51431 0
M  V30 5285 N 520.291 -0.0518155 -1.57515 0
M  V30 5286 C 521.531 0.625712 -1.94587 0
M  V30 5287 C 521.895 1.6797 -0.930053 0
M  V30 5288 O 523.096 2.41135 -1.18774 0
M  V30 5289 C 521.367 1.20574 -3.36447 0
M  V30 5290 S 522.926 1.90118 -3.95475 0
M  V30 5291 H 519.744 0.205434 -0.680675 0
M  V30 5292 H 522.346 -0.120906 -1.95126 0
M  V30 5293 H 521.05 0.426521 -4.08178 0
M  V30 5294 H 520.581 1.98916 -3.39405 0
M  V30 5295 H 522.596 3.18184 -3.80753 0
M  V30 5296 N 521.769 1.56035 0.221574 0
M  V30 5297 C 523.009 1.80822 0.953038 0
M  V30 5298 C 523.373 0.625316 1.81532 0
M  V30 5299 O 524.574 0.752491 2.58052 0
M  V30 5300 C 522.845 3.10503 1.76983 0
M  V30 5301 S 524.404 3.56604 2.55693 0
M  V30 5302 H 521.222 0.634849 0.320137 0
M  V30 5303 H 523.824 1.94274 0.218619 0
M  V30 5304 H 522.528 3.94636 1.12651 0
M  V30 5305 H 522.059 2.99858 2.54655 0
M  V30 5306 H 524.074 3.1994 3.79279 0
M  V30 5307 N 523.247 -0.488276 1.49845 0
M  V30 5308 C 524.194 -1.58836 1.67451 0
M  V30 5309 C 525.164 -1.57886 0.515857 0
M  V30 5310 O 526.349 -1.75679 0.744403 0
M  V30 5311 C 523.489 -2.96915 1.75885 0
M  V30 5312 C 522.602 -3.07784 3.03138 0
M  V30 5313 C 521.737 -4.36673 3.02473 0
M  V30 5314 C 520.776 -4.41222 4.24252 0
M  V30 5315 N 519.913 -5.61557 4.21424 0
M  V30 5316 H 524.753 -1.43131 2.61376 0
M  V30 5317 H 522.29 -0.696186 1.29583 0
M  V30 5318 H 524.248 -3.76965 1.78755 0
M  V30 5319 H 522.878 -3.11295 0.85414 0
M  V30 5320 H 521.93 -2.20717 3.09819 0
M  V30 5321 H 523.242 -3.07005 3.93128 0
M  V30 5322 H 522.396 -5.25055 3.03977 0
M  V30 5323 H 521.135 -4.40037 2.10283 0
M  V30 5324 H 520.14 -3.5124 4.22978 0
M  V30 5325 H 521.365 -4.39564 5.17649 0
M  V30 5326 H 519.311 -5.65738 3.32078 0
M  V30 5327 H 519.228 -5.62447 5.05163 0
M  V30 5328 H 520.496 -6.52111 4.2705 0
M  V30 5329 N 524.725 -1.39134 -0.740242 0
M  V30 5330 C 525.955 -1.39132 -1.52728 0
M  V30 5331 C 526.363 0.0173133 -1.89192 0
M  V30 5332 O 525.706 0.997715 -1.54244 0
M  V30 5333 C 525.768 -2.1952 -2.84695 0
M  V30 5334 C 525.432 -3.68203 -2.70695 0
M  V30 5335 C 526.429 -4.61401 -2.39593 0
M  V30 5336 C 524.114 -4.11724 -2.8773 0
M  V30 5337 C 526.108 -5.96102 -2.25701 0
M  V30 5338 C 523.795 -5.46503 -2.73456 0
M  V30 5339 C 524.793 -6.38506 -2.42486 0
M  V30 5340 O 524.481 -7.70803 -2.28295 0
M  V30 5341 H 524.213 -0.477263 -0.478744 0
M  V30 5342 H 526.767 -1.83504 -0.922799 0
M  V30 5343 H 524.997 -1.69888 -3.47383 0
M  V30 5344 H 526.686 -2.1176 -3.46284 0
M  V30 5345 H 527.452 -4.29079 -2.26088 0
M  V30 5346 H 523.331 -3.4045 -3.10829 0
M  V30 5347 H 526.875 -6.6788 -2.0145 0
M  V30 5348 H 522.772 -5.78417 -2.86538 0
M  V30 5349 H 523.54 -7.8147 -2.43405 0
M  V30 5350 N 526.204 0.969867 -1.24223 0
M  V30 5351 C 527.615 1.52717 -1.07399 0
M  V30 5352 C 527.966 1.92956 0.355298 0
M  V30 5353 O 527.091 1.77112 1.2434 0
M  V30 5354 C 527.686 2.77521 -1.94339 0
M  V30 5355 C 526.245 3.29615 -1.81744 0
M  V30 5356 C 525.392 2.02537 -1.89405 0
M  V30 5357 H 528.343 0.788399 -1.37732 0
M  V30 5358 H 528.364 3.50773 -1.47439 0
M  V30 5359 H 527.876 2.48203 -2.98357 0
M  V30 5360 H 525.977 3.63789 -0.805505 0
M  V30 5361 H 526.09 3.98661 -2.65718 0
M  V30 5362 H 524.454 2.17151 -1.33108 0
M  V30 5363 H 525.237 1.75587 -2.94999 0
M  V30 5364 N 527.682 1.05563 1.17022 0
M  V30 5365 C 529.093 0.793475 1.69 0
M  V30 5366 C 529.444 -0.683882 1.83895 0
M  V30 5367 O 528.569 -1.53116 1.5292 0
M  V30 5368 C 529.164 1.43376 3.06967 0
M  V30 5369 C 527.723 1.21956 3.56095 0
M  V30 5370 C 526.87 1.51494 2.3226 0
M  V30 5371 H 529.821 1.22008 1.01487 0
M  V30 5372 H 529.842 0.845068 3.70997 0
M  V30 5373 H 529.354 2.50899 2.96093 0
M  V30 5374 H 527.455 0.163749 3.7224 0
M  V30 5375 H 527.568 1.92713 4.38633 0
M  V30 5376 H 525.932 0.935175 2.3691 0
M  V30 5377 H 526.715 2.60159 2.23992 0
M  V30 5378 N 529.16 -1.33526 0.837174 0
M  V30 5379 C 530.123 -2.27551 0.274421 0
M  V30 5380 C 531.123 -1.50886 -0.555881 0
M  V30 5381 O 532.313 -1.70227 -0.369918 0
M  V30 5382 C 529.445 -3.35332 -0.613605 0
M  V30 5383 H 530.638 -2.78837 1.10408 0
M  V30 5384 H 528.191 -1.439 0.610126 0
M  V30 5385 H 528.926 -2.89285 -1.46577 0
M  V30 5386 H 528.711 -3.92095 -0.0195341 0
M  V30 5387 H 530.201 -4.05433 -1.00068 0
M  V30 5388 N 530.638 -0.59345 -1.46 0
M  V30 5389 C 531.863 -0.0872365 -2.07216 0
M  V30 5390 C 532.288 1.2131 -1.43755 0
M  V30 5391 O 531.646 1.73528 -0.525152 0
M  V30 5392 C 531.694 0.0538197 -3.6056 0
M  V30 5393 O 530.798 1.10765 -3.97247 0
M  V30 5394 H 530.139 -0.0676598 -0.660544 0
M  V30 5395 H 532.669 -0.819445 -1.87473 0
M  V30 5396 H 532.679 0.256567 -4.07193 0
M  V30 5397 H 531.354 -0.895739 -4.0614 0
M  V30 5398 H 529.931 0.882501 -3.62307 0
M  V30 5399 N 532.116 1.54067 -0.331816 0
M  V30 5400 C 533.048 2.22139 0.564538 0
M  V30 5401 C 534.061 1.22408 1.07332 0
M  V30 5402 O 535.25 1.4883 0.985481 0
M  V30 5403 C 532.35 2.87876 1.78831 0
M  V30 5404 C 531.523 4.13817 1.41682 0
M  V30 5405 C 530.582 4.63072 2.49901 0
M  V30 5406 O 529.608 5.27562 2.13699 0
M  V30 5407 N 530.81 4.38001 3.80967 0
M  V30 5408 H 533.575 2.99694 -0.0183736 0
M  V30 5409 H 531.136 1.61153 -0.155396 0
M  V30 5410 H 533.128 3.17747 2.50637 0
M  V30 5411 H 531.698 2.13977 2.27887 0
M  V30 5412 H 530.918 3.9062 0.530044 0
M  V30 5413 H 532.206 4.95762 1.14443 0
M  V30 5414 H 531.604 3.864 4.13173 0
M  V30 5415 H 530.161 4.72507 4.48977 0
M  V30 5416 N 533.594 0.0601682 1.57485 0
M  V30 5417 C 534.524 -0.90889 2.15085 0
M  V30 5418 C 535.505 -1.31838 1.07484 0
M  V30 5419 O 536.69 -1.3915 1.35466 0
M  V30 5420 C 533.82 -2.18059 2.7031 0
M  V30 5421 C 532.774 -1.91088 3.82974 0
M  V30 5422 C 532.1 -3.24789 4.24754 0
M  V30 5423 C 533.4 -1.22535 5.07723 0
M  V30 5424 H 535.094 -0.429093 2.96309 0
M  V30 5425 H 532.64 -0.204952 1.42534 0
M  V30 5426 H 534.593 -2.86258 3.09248 0
M  V30 5427 H 533.317 -2.6826 1.8629 0
M  V30 5428 H 531.976 -1.25297 3.44523 0
M  V30 5429 H 531.624 -3.72809 3.37672 0
M  V30 5430 H 531.324 -3.07538 5.00694 0
M  V30 5431 H 532.848 -3.94205 4.66299 0
M  V30 5432 H 534.262 -1.80783 5.4405 0
M  V30 5433 H 532.659 -1.1558 5.88864 0
M  V30 5434 H 533.729 -0.202692 4.84476 0
M  V30 5435 N 535.072 -1.5615 -0.213296 0
M  V30 5436 C 536.488 -1.49327 -0.56336 0
M  V30 5437 C 536.688 -0.756826 -1.86747 0
M  V30 5438 O 535.744 -0.299866 -2.50713 0
M  V30 5439 C 537.057 -2.9392 -0.634944 0
M  V30 5440 C 538.605 -3.04487 -0.725013 0
M  V30 5441 C 539.08 -4.50456 -0.82787 0
M  V30 5442 N 540.571 -4.54533 -0.891876 0
M  V30 5443 C 541.306 -5.64766 -0.991315 0
M  V30 5444 N 540.802 -6.84733 -1.05419 0
M  V30 5445 N 542.595 -5.52637 -1.02709 0
M  V30 5446 H 534.746 -2.02453 0.642366 0
M  V30 5447 H 537.009 -0.920548 0.226487 0
M  V30 5448 H 536.715 -3.50783 0.253859 0
M  V30 5449 H 536.589 -3.46274 -1.49579 0
M  V30 5450 H 538.976 -2.47685 -1.60425 0
M  V30 5451 H 539.057 -2.55289 0.161669 0
M  V30 5452 H 538.701 -5.07878 0.0469464 0
M  V30 5453 H 538.631 -4.97369 -1.73009 0
M  V30 5454 H 541.122 -3.68141 -0.85327 0
M  V30 5455 H 541.435 -7.64493 -1.13007 0
M  V30 5456 H 539.78 -6.87427 -1.02318 0
M  V30 5457 H 542.971 -4.5784 -0.974687 0
M  V30 5458 H 543.144 -6.38576 -1.10113 0
M  V30 5459 N 536.55 0.480323 -1.50102 0
M  V30 5460 C 537.482 1.59669 -1.64433 0
M  V30 5461 C 538.495 1.54063 -0.52615 0
M  V30 5462 O 539.684 1.59619 -0.798992 0
M  V30 5463 C 536.784 2.98527 -1.6042 0
M  V30 5464 C 535.957 3.291 -2.88117 0
M  V30 5465 C 535.016 4.47468 -2.76873 0
M  V30 5466 O 534.042 4.4823 -3.50825 0
M  V30 5467 N 535.244 5.48593 -1.89806 0
M  V30 5468 H 538.009 1.47795 -2.60723 0
M  V30 5469 H 535.57 0.66858 -1.4745 0
M  V30 5470 H 537.562 3.75666 -1.50523 0
M  V30 5471 H 536.132 3.04218 -0.719036 0
M  V30 5472 H 535.352 2.40662 -3.12211 0
M  V30 5473 H 536.64 3.46334 -3.72734 0
M  V30 5474 H 536.038 5.50791 -1.2902 0
M  V30 5475 H 534.595 6.24752 -1.85819 0
M  V30 5476 N 538.028 1.39524 0.732853 0
M  V30 5477 C 538.938 1.40695 1.87729 0
M  V30 5478 C 539.954 0.301496 1.71368 0
M  V30 5479 O 541.13 0.543313 1.93933 0
M  V30 5480 C 538.195 1.25098 3.23344 0
M  V30 5481 C 537.256 2.45634 3.52083 0
M  V30 5482 C 536.489 2.30772 4.81228 0
M  V30 5483 O 536.712 1.31233 5.55098 0
M  V30 5484 O 535.646 3.19799 5.09914 0
M  V30 5485 H 539.472 2.37168 1.89697 0
M  V30 5486 H 537.057 1.20663 0.880959 0
M  V30 5487 H 538.939 1.18541 4.04383 0
M  V30 5488 H 537.614 0.317209 3.22142 0
M  V30 5489 H 536.521 2.57767 2.71122 0
M  V30 5490 H 537.854 3.37712 3.58066 0
M  V30 5491 N 539.506 -0.963266 1.24736 0
M  V30 5492 C 540.752 -1.71 1.10139 0
M  V30 5493 C 541.107 -1.89089 -0.35541 0
M  V30 5494 O 540.4 -1.44451 -1.25875 0
M  V30 5495 C 540.594 -3.09944 1.7796 0
M  V30 5496 C 540.423 -3.05408 3.30085 0
M  V30 5497 C 539.193 -3.09643 3.99311 0
M  V30 5498 C 541.391 -2.87241 4.26611 0
M  V30 5499 N 539.373 -2.95174 5.3828 0
M  V30 5500 C 540.744 -2.81114 5.52607 0
M  V30 5501 C 542.799 -2.71856 4.17132 0
M  V30 5502 C 541.502 -2.61174 6.70209 0
M  V30 5503 C 543.528 -2.53284 5.34417 0
M  V30 5504 C 542.89 -2.4787 6.59348 0
M  V30 5505 H 538.989 -0.634078 0.457678 0
M  V30 5506 H 541.573 -1.14169 1.57713 0
M  V30 5507 H 539.744 -3.64958 1.32893 0
M  V30 5508 H 541.476 -3.73348 1.56183 0
M  V30 5509 H 538.231 -3.18498 3.50508 0
M  V30 5510 H 538.655 -2.91168 6.11188 0
M  V30 5511 H 543.297 -2.74821 3.21299 0
M  V30 5512 H 541.015 -2.56952 7.6616 0
M  V30 5513 H 544.601 -2.42317 5.28936 0
M  V30 5514 H 543.481 -2.33685 7.48573 0
M  V30 5515 N 540.985 -1.06182 -1.16461 0
M  V30 5516 C 541.895 -0.682671 -2.24448 0
M  V30 5517 C 542.911 0.30078 -1.71381 0
M  V30 5518 O 544.087 0.150376 -2.00838 0
M  V30 5519 C 541.152 -0.0737202 -3.46622 0
M  V30 5520 C 540.213 -1.10889 -4.14731 0
M  V30 5521 C 539.446 -0.528908 -5.31073 0
M  V30 5522 O 539.669 0.65868 -5.66584 0
M  V30 5523 O 538.603 -1.26805 -5.88391 0
M  V30 5524 H 542.429 -1.58291 -2.59187 0
M  V30 5525 H 540.014 -0.834013 -1.23954 0
M  V30 5526 H 541.896 0.264192 -4.20571 0
M  V30 5527 H 540.571 0.800015 -3.13658 0
M  V30 5528 H 539.478 -1.49896 -3.42756 0
M  V30 5529 H 540.811 -1.95412 -4.51747 0
M  V30 5530 N 542.463 1.3308 -0.844243 0
M  V30 5531 C 543.411 2.31028 -0.269954 0
M  V30 5532 C 544.405 1.58381 0.600997 0
M  V30 5533 O 545.611 1.73203 0.48996 0
M  V30 5534 H 541.986 0.748866 -0.0685782 0
M  V30 5535 H 543.957 2.76967 -1.11049 0
M  V30 5536 C 542.706 3.43549 0.535676 0
M  V30 5537 H 542.029 3.99604 -0.125202 0
M  V30 5538 H 543.469 4.14267 0.903262 0
M  V30 5539 C 541.928 2.8988 1.71672 0
M  V30 5540 O 542.458 2.86511 2.81557 0
M  V30 5541 N 540.664 2.46416 1.54037 0
M  V30 5542 H 540.211 2.49356 0.64649 0
M  V30 5543 H 540.169 2.1086 2.33207 0
M  V30 5544 N 543.941 0.601185 1.45683 0
M  V30 5545 C 544.889 -0.133955 2.32214 0
M  V30 5546 C 545.883 -0.866034 1.45589 0
M  V30 5547 O 547.089 -0.782326 1.6211 0
M  V30 5548 H 543.464 -0.0620613 0.749435 0
M  V30 5549 H 545.435 0.614389 2.92007 0
M  V30 5550 C 544.184 -1.12216 3.29094 0
M  V30 5551 H 543.507 -0.568273 3.95741 0
M  V30 5552 H 544.947 -1.60659 3.92383 0
M  V30 5553 C 543.406 -2.19251 2.55794 0
M  V30 5554 O 543.936 -3.26894 2.33459 0
M  V30 5555 N 542.142 -1.9436 2.16039 0
M  V30 5556 H 541.689 -1.06829 2.34404 0
M  V30 5557 H 541.647 -2.66181 1.67318 0
M  V30 5558 N 545.419 -1.53889 0.339982 0
M  V30 5559 C 546.835 -1.59595 -0.0120752 0
M  V30 5560 C 547.035 -1.35605 -1.49042 0
M  V30 5561 O 546.091 -1.14856 -2.24865 0
M  V30 5562 C 547.404 -2.9774 0.420898 0
M  V30 5563 C 548.952 -3.1077 0.37294 0
M  V30 5564 C 549.427 -4.51286 0.781327 0
M  V30 5565 N 550.918 -4.57325 0.735374 0
M  V30 5566 C 551.653 -5.64194 1.02336 0
M  V30 5567 N 551.149 -6.7893 1.37933 0
M  V30 5568 N 552.942 -5.54051 0.947838 0
M  V30 5569 H 545.093 -1.67738 1.30299 0
M  V30 5570 H 547.356 -0.785385 0.530918 0
M  V30 5571 H 547.062 -3.20349 1.45152 0
M  V30 5572 H 546.936 -3.76639 -0.205721 0
M  V30 5573 H 549.323 -2.87886 -0.648505 0
M  V30 5574 H 549.404 -2.33939 1.03472 0
M  V30 5575 H 549.048 -4.74905 1.80077 0
M  V30 5576 H 548.978 -5.26511 0.0970679 0
M  V30 5577 H 551.469 -3.74931 0.472773 0
M  V30 5578 H 551.782 -7.56392 1.58402 0
M  V30 5579 H 550.127 -6.80386 1.41774 0
M  V30 5580 H 553.318 -4.63293 0.669115 0
M  V30 5581 H 553.491 -6.37246 1.17563 0
M  V30 5582 N 546.897 -0.0685191 -1.57451 0
M  V30 5583 C 547.807 0.914677 -2.16034 0
M  V30 5584 C 548.823 1.32938 -1.12265 0
M  V30 5585 O 549.999 1.40275 -1.44516 0
M  V30 5586 C 547.064 2.16519 -2.70777 0
M  V30 5587 C 546.125 1.80721 -3.89408 0
M  V30 5588 C 545.358 2.9981 -4.41531 0
M  V30 5589 O 545.581 4.13727 -3.92666 0
M  V30 5590 O 544.515 2.79817 -5.32903 0
M  V30 5591 H 548.341 0.446364 -3.00402 0
M  V30 5592 H 545.926 0.154367 -1.486 0
M  V30 5593 H 547.808 2.89856 -3.05878 0
M  V30 5594 H 546.483 2.62454 -1.89471 0
M  V30 5595 H 545.39 1.04646 -3.59166 0
M  V30 5596 H 546.723 1.39571 -4.71997 0
M  V30 5597 N 548.375 1.56261 0.205012 0
M  V30 5598 C 549.6 1.84491 0.947512 0
M  V30 5599 C 550.025 0.650894 1.76479 0
M  V30 5600 O 549.383 -0.40035 1.76824 0
M  V30 5601 C 549.431 3.10863 1.82747 0
M  V30 5602 O 548.535 2.90719 2.925 0
M  V30 5603 H 547.876 0.607783 0.267386 0
M  V30 5604 H 550.406 2.03485 0.213323 0
M  V30 5605 H 550.416 3.41399 2.23407 0
M  V30 5606 H 549.091 3.97392 1.2269 0
M  V30 5607 H 547.668 2.71457 2.55667 0
M  V30 5608 N 549.853 -0.472356 1.50355 0
M  V30 5609 C 550.783 -1.57859 1.72055 0
M  V30 5610 C 551.764 -1.60283 0.569505 0
M  V30 5611 O 552.949 -1.7657 0.808503 0
M  V30 5612 C 550.079 -2.96191 1.81351 0
M  V30 5613 C 549.033 -3.08633 2.96529 0
M  V30 5614 C 548.359 -4.486 2.90968 0
M  V30 5615 C 549.659 -2.85969 4.37057 0
M  V30 5616 H 551.353 -1.39953 2.64676 0
M  V30 5617 H 548.899 -0.671846 1.27367 0
M  V30 5618 H 550.852 -3.73507 1.95117 0
M  V30 5619 H 549.576 -3.15251 0.853502 0
M  V30 5620 H 548.235 -2.33749 2.82413 0
M  V30 5621 H 547.883 -4.64577 1.92815 0
M  V30 5622 H 547.583 -4.57861 3.68289 0
M  V30 5623 H 549.107 -5.27938 3.0678 0
M  V30 5624 H 550.521 -3.53036 4.51706 0
M  V30 5625 H 548.918 -3.06677 5.15819 0
M  V30 5626 H 549.988 -1.81838 4.49514 0
M  V30 5627 N 551.331 -1.39911 -0.725443 0
M  V30 5628 C 552.58 -1.36963 -1.48068 0
M  V30 5629 C 552.893 0.0284478 -1.95579 0
M  V30 5630 O 554.099 0.180535 -2.70899 0
M  V30 5631 C 552.555 -2.40664 -2.67598 0
M  V30 5632 C 552.163 -3.86234 -2.26997 0
M  V30 5633 C 553.907 -2.46807 -3.45379 0
M  V30 5634 C 551.814 -4.81554 -3.43307 0
M  V30 5635 H 550.744 -0.509223 -0.556065 0
M  V30 5636 H 553.395 -1.65602 -0.790454 0
M  V30 5637 H 551.777 -2.05109 -3.38742 0
M  V30 5638 H 552.951 -4.3088 -1.63337 0
M  V30 5639 H 551.266 -3.83475 -1.62284 0
M  V30 5640 H 553.863 -3.15213 -4.31909 0
M  V30 5641 H 554.206 -1.49552 -3.8851 0
M  V30 5642 H 554.739 -2.81303 -2.81271 0
M  V30 5643 H 551.478 -5.80106 -3.05217 0
M  V30 5644 H 550.998 -4.4158 -4.05915 0
M  V30 5645 H 552.677 -5.0091 -4.0951 0
M  V30 5646 N 552.809 0.956637 -1.25245 0
M  V30 5647 C 554.037 1.73571 -1.12608 0
M  V30 5648 C 554.452 1.86063 0.320324 0
M  V30 5649 O 553.809 1.35691 1.22042 0
M  V30 5650 C 553.86 3.15053 -1.77268 0
M  V30 5651 O 553.581 3.03174 -3.16255 0
M  V30 5652 C 555.082 4.09248 -1.70386 0
M  V30 5653 H 552.302 0.543955 -0.392879 0
M  V30 5654 H 554.846 1.20031 -1.65568 0
M  V30 5655 H 553.001 3.65543 -1.28284 0
M  V30 5656 H 553.415 3.9241 -3.48015 0
M  V30 5657 H 554.889 5.06138 -2.20291 0
M  V30 5658 H 555.366 4.34102 -0.667239 0
M  V30 5659 H 555.972 3.64672 -2.18849 0
M  V30 5660 N 554.287 1.06798 1.15896 0
M  V30 5661 C 555.217 0.704677 2.22613 0
M  V30 5662 C 556.198 -0.305252 1.67339 0
M  V30 5663 O 557.383 -0.179247 1.93371 0
M  V30 5664 C 554.513 0.0957325 3.47168 0
M  V30 5665 C 553.467 1.0322 4.15367 0
M  V30 5666 C 552.793 0.286293 5.33933 0
M  V30 5667 C 554.093 2.36341 4.65768 0
M  V30 5668 H 555.787 1.59688 2.53259 0
M  V30 5669 H 553.333 0.769257 1.21731 0
M  V30 5670 H 555.286 -0.170333 4.21056 0
M  V30 5671 H 554.01 -0.831516 3.15838 0
M  V30 5672 H 552.669 1.28309 3.43413 0
M  V30 5673 H 552.317 -0.644237 4.98857 0
M  V30 5674 H 552.017 0.910436 5.80504 0
M  V30 5675 H 553.541 0.0278938 6.10594 0
M  V30 5676 H 554.955 2.1561 5.31211 0
M  V30 5677 H 553.352 2.94299 5.2298 0
M  V30 5678 H 554.422 2.99047 3.81705 0
M  V30 5679 N 555.766 -1.3263 0.851289 0
M  V30 5680 C 557.015 -1.96633 0.449267 0
M  V30 5681 C 557.328 -1.68131 -0.999562 0
M  V30 5682 O 558.534 -2.25845 -1.50685 0
M  V30 5683 C 556.99 -3.51946 0.752446 0
M  V30 5684 C 556.598 -3.89311 2.21678 0
M  V30 5685 C 558.342 -4.22437 0.417983 0
M  V30 5686 C 556.249 -5.37655 2.46336 0
M  V30 5687 H 555.179 -0.735888 0.164269 0
M  V30 5688 H 557.83 -1.51073 1.0416 0
M  V30 5689 H 556.212 -3.95899 0.0895858 0
M  V30 5690 H 557.386 -3.56378 2.92115 0
M  V30 5691 H 555.701 -3.31836 2.51543 0
M  V30 5692 H 558.298 -5.31549 0.579674 0
M  V30 5693 H 558.641 -4.11349 -0.640115 0
M  V30 5694 H 559.174 -3.84057 1.03659 0
M  V30 5695 H 555.913 -5.5376 3.50757 0
M  V30 5696 H 555.433 -5.72005 1.80473 0
M  V30 5697 H 557.112 -6.04695 2.30115 0
M  V30 5698 N 557.244 -0.608902 -1.45362 0
M  V30 5699 C 558.154 0.110969 -2.34337 0
M  V30 5700 C 559.17 0.859007 -1.51318 0
M  V30 5701 O 560.346 0.816296 -1.84116 0
M  V30 5702 C 557.411 1.09494 -3.28956 0
M  V30 5703 C 556.472 0.348718 -4.27881 0
M  V30 5704 C 555.705 1.28582 -5.17979 0
M  V30 5705 O 555.928 2.52369 -5.11533 0
M  V30 5706 O 554.862 0.782172 -5.96796 0
M  V30 5707 H 558.688 -0.620258 -2.97299 0
M  V30 5708 H 556.273 -0.36916 -1.44767 0
M  V30 5709 H 558.155 1.66163 -3.87257 0
M  V30 5710 H 556.83 1.80717 -2.68557 0
M  V30 5711 H 555.737 -0.260465 -3.73192 0
M  V30 5712 H 557.07 -0.323049 -4.91139 0
M  V30 5713 N 558.722 1.53707 -0.348139 0
M  V30 5714 C 559.669 2.25173 0.506518 0
M  V30 5715 C 560.639 1.25174 1.09182 0
M  V30 5716 O 561.824 1.53917 1.12757 0
M  V30 5717 C 558.964 3.03141 1.64923 0
M  V30 5718 C 558.077 4.18002 1.0908 0
M  V30 5719 C 557.212 4.83447 2.20119 0
M  V30 5720 C 556.251 5.90369 1.61651 0
M  V30 5721 N 555.388 6.49575 2.66451 0
M  V30 5722 H 560.228 2.97799 -0.109452 0
M  V30 5723 H 557.765 1.46953 -0.0657866 0
M  V30 5724 H 559.723 3.46607 2.32205 0
M  V30 5725 H 558.353 2.32803 2.23612 0
M  V30 5726 H 557.405 3.79145 0.308783 0
M  V30 5727 H 558.717 4.94892 0.623178 0
M  V30 5728 H 557.871 5.30008 2.95257 0
M  V30 5729 H 556.61 4.05991 2.70227 0
M  V30 5730 H 555.615 5.43186 0.850209 0
M  V30 5731 H 556.84 6.69735 1.1239 0
M  V30 5732 H 554.786 5.74981 3.15805 0
M  V30 5733 H 554.703 7.21952 2.24325 0
M  V30 5734 H 555.971 7.00789 3.41344 0
M  V30 5735 N 560.2 0.0768682 1.57412 0
M  V30 5736 C 561.446 -0.591961 1.93968 0
M  V30 5737 C 561.779 -1.68954 0.9575 0
M  V30 5738 O 561.054 -1.94496 -0.0124675 0
M  V30 5739 C 561.337 -1.16418 3.40762 0
M  V30 5740 C 561.19 -0.0728933 4.49741 0
M  V30 5741 C 562.509 -2.06814 3.88479 0
M  V30 5742 H 559.628 -0.213716 0.705333 0
M  V30 5743 H 562.27 0.14387 1.89455 0
M  V30 5744 H 560.42 -1.79128 3.4474 0
M  V30 5745 H 562.092 0.560446 4.57883 0
M  V30 5746 H 560.335 0.595859 4.29688 0
M  V30 5747 H 561.006 -0.513755 5.49604 0
M  V30 5748 H 563.482 -1.54033 3.8654 0
M  V30 5749 H 562.358 -2.43785 4.91793 0
M  V30 5750 H 562.619 -2.97844 3.26713 0
M  V30 5751 N 561.678 -1.56367 -0.196722 0
M  V30 5752 C 562.628 -1.9082 -1.24787 0
M  V30 5753 C 563.612 -0.773719 -1.41076 0
M  V30 5754 O 564.804 -1.03655 -1.43474 0
M  V30 5755 C 561.933 -2.24982 -2.59303 0
M  V30 5756 C 561.019 -3.44882 -2.46814 0
M  V30 5757 N 561.41 -4.62835 -2.04003 0
M  V30 5758 C 559.708 -3.48988 -2.77711 0
M  V30 5759 C 560.409 -5.44993 -2.03366 0
M  V30 5760 N 559.385 -4.85356 -2.44807 0
M  V30 5761 H 563.187 -2.79516 -0.908175 0
M  V30 5762 H 560.701 -1.57265 -0.405166 0
M  V30 5763 H 562.698 -2.47848 -3.35227 0
M  V30 5764 H 561.358 -1.37611 -2.94098 0
M  V30 5765 H 562.369 -4.87532 -1.74738 0
M  V30 5766 H 559.046 -2.72029 -3.16712 0
M  V30 5767 H 560.436 -6.49464 -1.72181 0
M  V30 5768 N 563.156 0.464375 -1.50603 0
M  V30 5769 C 564.405 1.21277 -1.61167 0
M  V30 5770 C 564.718 1.92953 -0.320704 0
M  V30 5771 O 565.924 2.69778 -0.30534 0
M  V30 5772 C 564.38 2.20403 -2.84518 0
M  V30 5773 C 563.988 1.54499 -4.20516 0
M  V30 5774 C 565.732 2.95843 -3.0443 0
M  V30 5775 C 563.639 2.51951 -5.35047 0
M  V30 5776 H 562.569 0.456367 -0.600204 0
M  V30 5777 H 565.22 0.48254 -1.77042 0
M  V30 5778 H 563.602 2.96746 -2.62217 0
M  V30 5779 H 564.776 0.83899 -4.53098 0
M  V30 5780 H 563.091 0.913152 -4.06264 0
M  V30 5781 H 565.688 3.6879 -3.87167 0
M  V30 5782 H 566.031 3.55622 -2.16423 0
M  V30 5783 H 566.564 2.26611 -3.26944 0
M  V30 5784 H 563.303 1.96901 -6.25228 0
M  V30 5785 H 562.823 3.20683 -5.06875 0
M  V30 5786 H 564.502 3.13643 -5.65895 0
M  V30 5787 N 564.634 1.40294 0.718013 0
M  V30 5788 C 565.882 1.38167 1.47494 0
M  V30 5789 C 566.203 -0.01607 1.94993 0
M  V30 5790 O 565.473 -0.970396 1.70177 0
M  V30 5791 H 564.053 0.508505 0.547203 0
M  V30 5792 H 566.715 1.75324 0.851322 0
M  V30 5793 H 565.811 2.05503 2.34894 0
M  V30 5794 N 566.112 -0.949982 1.2575 0
M  V30 5795 C 567.358 -1.69766 1.10938 0
M  V30 5796 C 567.691 -1.91056 -0.348028 0
M  V30 5797 O 566.966 -1.48488 -1.25625 0
M  V30 5798 C 567.249 -3.07779 1.86933 0
M  V30 5799 C 567.102 -2.9387 3.4053 0
M  V30 5800 C 568.421 -4.07749 1.65616 0
M  V30 5801 H 565.54 -0.616144 0.404396 0
M  V30 5802 H 568.182 -1.10394 1.54639 0
M  V30 5803 H 566.332 -3.58462 1.4979 0
M  V30 5804 H 568.004 -2.50476 3.87375 0
M  V30 5805 H 566.247 -2.29686 3.68004 0
M  V30 5806 H 566.918 -3.91719 3.88922 0
M  V30 5807 H 569.394 -3.65994 1.97959 0
M  V30 5808 H 568.27 -5.02348 2.21218 0
M  V30 5809 H 568.531 -4.38029 0.598595 0
M  V30 5810 N 567.59 -1.07411 -1.15328 0
M  V30 5811 C 568.537 -0.694995 -2.20087 0
M  V30 5812 C 569.507 0.313904 -1.63107 0
M  V30 5813 O 570.692 0.200216 -1.89747 0
M  V30 5814 C 567.832 -0.0996218 -3.44956 0
M  V30 5815 C 566.945 -1.16007 -4.16133 0
M  V30 5816 C 566.08 -0.529636 -5.28553 0
M  V30 5817 C 565.119 -1.57283 -5.91548 0
M  V30 5818 N 564.256 -0.964932 -6.95438 0
M  V30 5819 H 569.096 -1.5927 -2.51867 0
M  V30 5820 H 566.633 -0.796115 -1.23695 0
M  V30 5821 H 568.591 0.263197 -4.16369 0
M  V30 5822 H 567.221 0.761435 -3.13691 0
M  V30 5823 H 566.273 -1.64045 -3.4321 0
M  V30 5824 H 567.585 -1.95101 -4.59061 0
M  V30 5825 H 566.739 -0.114487 -6.06592 0
M  V30 5826 H 565.478 0.29307 -4.86819 0
M  V30 5827 H 564.483 -1.99775 -5.12221 0
M  V30 5828 H 565.708 -2.39783 -6.35359 0
M  V30 5829 H 563.654 -0.16314 -6.55797 0
M  V30 5830 H 563.571 -1.69311 -7.36797 0
M  V30 5831 H 564.839 -0.575305 -7.77374 0
M  V30 5832 N 569.068 1.32177 -0.85831 0
M  V30 5833 C 570.316 1.96735 -0.462568 0
M  V30 5834 C 570.637 1.6824 0.985911 0
M  V30 5835 O 569.907 0.991564 1.68952 0
M  V30 5836 H 568.487 0.727849 -0.168064 0
M  V30 5837 H 571.149 1.61195 -1.09554 0
M  V30 5838 H 570.245 3.06068 -0.610647 0
M  V30 5839 N 570.547 0.616602 1.45037 0
M  V30 5840 C 571.794 0.115331 2.02171 0
M  V30 5841 C 572.122 -1.25748 1.48383 0
M  V30 5842 O 571.377 -1.84511 0.652229 0
M  V30 5843 C 571.676 0.0356829 3.57382 0
M  V30 5844 C 571.342 1.34535 4.30362 0
M  V30 5845 C 570.004 1.70408 4.50016 0
M  V30 5846 C 572.356 2.21049 4.72003 0
M  V30 5847 C 569.684 2.92529 5.0857 0
M  V30 5848 C 572.036 3.42427 5.31908 0
M  V30 5849 C 570.7 3.78541 5.49784 0
M  V30 5850 H 569.97 0.0422024 0.739797 0
M  V30 5851 H 572.617 0.80002 1.73988 0
M  V30 5852 H 570.922 -0.732314 3.84895 0
M  V30 5853 H 572.619 -0.368463 3.99304 0
M  V30 5854 H 569.209 1.05615 4.15383 0
M  V30 5855 H 573.393 1.94632 4.56544 0
M  V30 5856 H 568.649 3.20605 5.20598 0
M  V30 5857 H 572.823 4.09709 5.63127 0
M  V30 5858 H 570.45 4.73255 5.94923 0
M  V30 5859 N 572.025 -1.5352 0.356285 0
M  V30 5860 C 573.271 -2.01414 -0.236653 0
M  V30 5861 C 573.604 -1.24339 -1.49176 0
M  V30 5862 O 572.879 -0.334496 -1.91602 0
M  V30 5863 C 573.162 -3.56059 -0.537982 0
M  V30 5864 C 573.015 -4.43835 0.730112 0
M  V30 5865 C 574.334 -4.19127 -1.34239 0
M  V30 5866 H 571.453 -0.732135 -0.0845386 0
M  V30 5867 H 574.095 -1.83854 0.479341 0
M  V30 5868 H 572.245 -3.71153 -1.14795 0
M  V30 5869 H 573.917 -4.40555 1.36782 0
M  V30 5870 H 572.16 -4.1218 1.3524 0
M  V30 5871 H 572.831 -5.49958 0.474358 0
M  V30 5872 H 575.307 -4.07809 -0.826498 0
M  V30 5873 H 574.183 -5.27378 -1.52198 0
M  V30 5874 H 574.444 -3.74581 -2.34822 0
M  V30 5875 N 573.503 -0.0852151 -1.57369 0
M  V30 5876 C 574.45 0.877268 -2.13478 0
M  V30 5877 C 575.42 1.28642 -1.05073 0
M  V30 5878 O 576.605 1.36992 -1.32808 0
M  V30 5879 C 573.745 2.13464 -2.71159 0
M  V30 5880 C 572.858 1.77691 -3.93764 0
M  V30 5881 C 571.993 2.98139 -4.39643 0
M  V30 5882 C 571.032 2.58447 -5.54862 0
M  V30 5883 N 570.169 3.71698 -5.95639 0
M  V30 5884 H 575.009 0.391933 -2.95411 0
M  V30 5885 H 572.546 0.181796 -1.45972 0
M  V30 5886 H 574.504 2.87086 -3.02717 0
M  V30 5887 H 573.134 2.59514 -1.91969 0
M  V30 5888 H 572.186 0.940768 -3.68583 0
M  V30 5889 H 573.498 1.44497 -4.77412 0
M  V30 5890 H 572.652 3.80026 -4.72933 0
M  V30 5891 H 571.391 3.34536 -3.54876 0
M  V30 5892 H 570.396 1.74984 -5.21211 0
M  V30 5893 H 571.621 2.23205 -6.41371 0
M  V30 5894 H 569.567 4.07831 -5.13819 0
M  V30 5895 H 569.484 3.42317 -6.74059 0
M  V30 5896 H 570.752 4.54123 -6.33555 0
M  V30 5897 N 574.981 1.5647 0.188427 0
M  V30 5898 C 576.258 1.71857 0.934058 0
M  V30 5899 C 576.638 0.641867 2.01105 0
M  V30 5900 O 575.986 -0.346098 2.25864 0
M  V30 5901 C 576.196 3.14431 1.5144 0
M  V30 5902 C 577.544 3.74869 1.99396 0
M  V30 5903 O 578.568 3.17601 1.61269 0
M  V30 5904 O 577.427 4.75387 2.69573 0
M  V30 5905 H 574.521 0.701186 0.438483 0
M  V30 5906 H 577.067 1.68768 0.177599 0
M  V30 5907 H 575.839 3.8427 0.738416 0
M  V30 5908 H 575.462 3.21775 2.33552 0
M  V30 5909 N 576.459 -0.456382 1.50847 0
M  V30 5910 C 577.684 -1.2349 1.66628 0
M  V30 5911 C 578.109 -1.84715 0.355254 0
M  V30 5912 O 577.467 -1.67961 -0.682559 0
M  V30 5913 C 577.515 -2.30865 2.77009 0
M  V30 5914 O 576.619 -3.35882 2.39285 0
M  V30 5915 H 575.96 -0.36266 0.556214 0
M  V30 5916 H 578.49 -0.541374 1.97308 0
M  V30 5917 H 578.5 -2.75949 3.00526 0
M  V30 5918 H 577.175 -1.85677 3.72152 0
M  V30 5919 H 575.752 -2.96406 2.26269 0
M  V30 5920 N 577.937 -1.40673 -0.710563 0
M  V30 5921 C 579.186 -1.38525 -1.46607 0
M  V30 5922 C 579.499 0.0077024 -1.95598 0
M  V30 5923 O 580.705 0.151792 -2.71075 0
M  V30 5924 C 579.161 -2.43489 -2.6503 0
M  V30 5925 C 578.769 -3.88619 -2.22888 0
M  V30 5926 C 580.513 -2.50456 -3.42742 0
M  V30 5927 C 578.42 -4.85168 -3.3818 0
M  V30 5928 H 577.35 -0.515092 -0.550632 0
M  V30 5929 H 580.001 -1.66431 -0.772846 0
M  V30 5930 H 578.383 -2.0869 -3.36548 0
M  V30 5931 H 579.557 -4.32588 -1.58758 0
M  V30 5932 H 577.872 -3.85174 -1.58208 0
M  V30 5933 H 580.469 -3.19776 -4.28541 0
M  V30 5934 H 580.812 -1.53665 -3.86902 0
M  V30 5935 H 581.345 -2.84271 -2.78271 0
M  V30 5936 H 578.084 -5.8331 -2.99047 0
M  V30 5937 H 577.604 -4.4586 -4.01209 0
M  V30 5938 H 579.283 -5.05225 -4.04174 0
M  V30 5939 N 579.415 0.9433 -1.26252 0
M  V30 5940 C 580.643 1.72367 -1.14443 0
M  V30 5941 C 581.058 1.86392 0.300572 0
M  V30 5942 O 580.415 1.36978 1.20596 0
M  V30 5943 C 580.466 3.13155 -1.806 0
M  V30 5944 O 580.187 2.99803 -3.19452 0
M  V30 5945 C 581.688 4.07417 -1.74717 0
M  V30 5946 H 578.908 0.539758 -0.398626 0
M  V30 5947 H 581.452 1.18268 -1.66832 0
M  V30 5948 H 579.607 3.64162 -1.32154 0
M  V30 5949 H 580.021 3.88697 -3.52158 0
M  V30 5950 H 581.495 5.03773 -2.25647 0
M  V30 5951 H 581.972 4.3337 -0.713244 0
M  V30 5952 H 582.578 3.6233 -2.22704 0
M  V30 5953 N 580.893 1.08022 1.14757 0
M  V30 5954 C 582.141 0.805913 1.85336 0
M  V30 5955 C 582.462 -0.670162 1.83122 0
M  V30 5956 O 581.732 -1.48567 1.2769 0
M  V30 5957 H 580.312 0.295138 0.686223 0
M  V30 5958 H 582.974 1.36538 1.3908 0
M  V30 5959 H 582.07 1.14655 2.90277 0
M  V30 5960 N 582.371 -1.3172 0.865308 0
M  V30 5961 C 583.596 -2.01591 0.487415 0
M  V30 5962 C 584.021 -1.6455 -0.911307 0
M  V30 5963 O 583.379 -0.851689 -1.6005 0
M  V30 5964 C 583.427 -3.54759 0.646401 0
M  V30 5965 O 582.531 -4.11185 -0.316284 0
M  V30 5966 H 581.872 -0.634884 0.194468 0
M  V30 5967 H 584.402 -1.68024 1.16744 0
M  V30 5968 H 584.412 -4.04438 0.537932 0
M  V30 5969 H 583.087 -3.8106 1.66632 0
M  V30 5970 H 581.664 -3.72543 -0.163162 0
M  V30 5971 N 583.85 -0.624285 -1.44708 0
M  V30 5972 C 585.098 -0.125802 -2.01708 0
M  V30 5973 C 585.418 1.2543 -1.49306 0
M  V30 5974 O 584.689 1.83198 -0.693924 0
M  V30 5975 H 583.269 -0.0435161 -0.745731 0
M  V30 5976 H 585.931 -0.809446 -1.77296 0
M  V30 5977 H 585.027 -0.0882734 -3.11975 0
M  V30 5978 N 585.328 1.53329 -0.364422 0
M  V30 5979 C 586.258 2.28627 0.474543 0
M  V30 5980 C 587.239 1.31009 1.08492 0
M  V30 5981 O 588.424 1.59878 1.10239 0
M  V30 5982 C 585.554 3.07465 1.61501 0
M  V30 5983 C 584.508 4.1276 1.13194 0
M  V30 5984 C 583.834 4.79674 2.36255 0
M  V30 5985 C 585.134 5.21847 0.217507 0
M  V30 5986 H 586.828 2.99005 -0.153656 0
M  V30 5987 H 584.374 1.43803 -0.0753406 0
M  V30 5988 H 586.327 3.58889 2.20855 0
M  V30 5989 H 585.051 2.34775 2.27042 0
M  V30 5990 H 583.71 3.62281 0.56109 0
M  V30 5991 H 583.358 4.03557 3.00251 0
M  V30 5992 H 583.058 5.50827 2.04606 0
M  V30 5993 H 584.582 5.33892 2.96297 0
M  V30 5994 H 585.996 5.6878 0.718493 0
M  V30 5995 H 584.393 6.00099 -0.00806408 0
M  V30 5996 H 585.463 4.7921 -0.740653 0
M  V30 5997 N 586.806 0.0935595 1.57322 0
M  V30 5998 C 587.716 -0.880192 2.17462 0
M  V30 5999 C 588.732 -1.31135 1.14366 0
M  V30 6000 O 589.908 -1.37958 1.46729 0
M  V30 6001 C 586.973 -2.12184 2.74188 0
M  V30 6002 C 586.034 -1.74503 3.92234 0
M  V30 6003 C 585.267 -2.92748 4.46245 0
M  V30 6004 O 585.49 -4.07427 3.99198 0
M  V30 6005 O 584.424 -2.71303 5.37288 0
M  V30 6006 H 588.25 -0.398516 3.01074 0
M  V30 6007 H 585.835 -0.130707 1.48827 0
M  V30 6008 H 587.717 -2.84953 3.10451 0
M  V30 6009 H 586.392 -2.59407 1.93623 0
M  V30 6010 H 585.299 -0.989186 3.60785 0
M  V30 6011 H 586.632 -1.32044 4.74157 0
M  V30 6012 N 588.284 -1.56567 -0.180126 0
M  V30 6013 C 589.232 -1.96632 -1.24251 0
M  V30 6014 C 590.226 -0.853818 -1.46309 0
M  V30 6015 O 591.432 -1.0389 -1.46993 0
M  V30 6016 H 587.807 -0.625476 -0.417473 0
M  V30 6017 H 589.778 -2.85201 -0.877679 0
M  V30 6018 C 588.527 -2.33486 -2.57642 0
M  V30 6019 H 587.85 -3.18626 -2.4149 0
M  V30 6020 H 589.29 -2.65371 -3.30688 0
M  V30 6021 C 587.749 -1.17499 -3.15746 0
M  V30 6022 O 588.279 -0.457956 -3.99081 0
M  V30 6023 N 586.485 -0.94786 -2.74707 0
M  V30 6024 H 586.032 -1.53269 -2.07042 0
M  V30 6025 H 585.99 -0.173626 -3.1392 0
M  V30 6026 N 589.762 0.448376 -1.51087 0
M  V30 6027 C 590.725 1.52588 -1.71025 0
M  V30 6028 C 591.725 1.49958 -0.580442 0
M  V30 6029 O 592.915 1.52176 -0.847833 0
M  V30 6030 C 590.047 2.92163 -1.75652 0
M  V30 6031 H 591.24 1.36218 -2.67179 0
M  V30 6032 H 588.793 0.676313 -1.4091 0
M  V30 6033 H 589.528 3.13951 -0.812724 0
M  V30 6034 H 589.313 2.95478 -2.57751 0
M  V30 6035 H 590.803 3.70349 -1.92953 0
M  V30 6036 N 591.24 1.41047 0.703093 0
M  V30 6037 C 592.468 1.4334 1.49202 0
M  V30 6038 C 592.883 0.0365596 1.88765 0
M  V30 6039 O 592.24 -0.942419 1.56284 0
M  V30 6040 C 592.291 2.33538 2.75939 0
M  V30 6041 O 592.012 3.67786 2.38045 0
M  V30 6042 C 593.513 2.44555 3.6974 0
M  V30 6043 H 590.733 0.488472 0.460039 0
M  V30 6044 H 593.277 1.85245 0.86629 0
M  V30 6045 H 591.432 1.94962 3.34766 0
M  V30 6046 H 591.846 4.15816 3.19683 0
M  V30 6047 H 593.32 3.11849 4.55471 0
M  V30 6048 H 593.797 1.47447 4.1371 0
M  V30 6049 H 594.403 2.83735 3.16819 0
M  V30 6050 N 592.718 -0.936591 1.26751 0
M  V30 6051 C 593.967 -1.67778 1.11953 0
M  V30 6052 C 594.28 -1.92694 -0.33589 0
M  V30 6053 O 595.486 -2.64682 -0.604618 0
M  V30 6054 C 593.942 -3.02138 1.95551 0
M  V30 6055 C 593.55 -2.84953 3.45696 0
M  V30 6056 C 595.294 -3.79917 1.89377 0
M  V30 6057 C 593.201 -4.14814 4.21525 0
M  V30 6058 H 592.131 -0.629275 0.415366 0
M  V30 6059 H 594.782 -1.04122 1.51099 0
M  V30 6060 H 593.164 -3.668 1.49243 0
M  V30 6061 H 594.338 -2.29112 3.99805 0
M  V30 6062 H 592.653 -2.20612 3.53156 0
M  V30 6063 H 595.25 -4.76134 2.43312 0
M  V30 6064 H 595.593 -4.07204 0.865464 0
M  V30 6065 H 596.126 -3.22037 2.33532 0
M  V30 6066 H 592.865 -3.92709 5.24843 0
M  V30 6067 H 592.385 -4.70352 3.72195 0
M  V30 6068 H 594.064 -4.83239 4.3022 0
M  V30 6069 N 594.196 -1.08629 -1.14182 0
M  V30 6070 C 595.421 -0.83902 -1.89671 0
M  V30 6071 C 595.846 0.603332 -1.78161 0
M  V30 6072 O 595.204 1.42301 -1.12339 0
M  V30 6073 C 595.252 -1.26854 -3.37551 0
M  V30 6074 O 594.356 -0.42188 -4.10236 0
M  V30 6075 H 593.697 -0.304545 -0.590041 0
M  V30 6076 H 596.227 -1.4483 -1.44518 0
M  V30 6077 H 596.237 -1.25038 -3.88368 0
M  V30 6078 H 594.912 -2.31901 -3.45246 0
M  V30 6079 H 593.489 -0.503654 -3.69483 0
M  V30 6080 N 595.674 1.31259 -0.872281 0
M  V30 6081 C 596.92 1.96913 -0.485083 0
M  V30 6082 C 597.253 1.68774 0.960667 0
M  V30 6083 O 596.528 0.985495 1.67685 0
M  V30 6084 C 596.811 3.52299 -0.745502 0
M  V30 6085 C 596.664 3.90002 -2.24095 0
M  V30 6086 C 597.983 4.39582 -0.213516 0
M  V30 6087 H 595.102 0.715252 -0.177716 0
M  V30 6088 H 597.744 1.55347 -1.09395 0
M  V30 6089 H 595.894 3.87835 -0.227276 0
M  V30 6090 H 597.566 3.64555 -2.82661 0
M  V30 6091 H 595.809 3.38526 -2.71261 0
M  V30 6092 H 596.48 4.98352 -2.37381 0
M  V30 6093 H 598.956 4.10882 -0.656902 0
M  V30 6094 H 597.832 5.47251 -0.42516 0
M  V30 6095 H 598.093 4.33158 0.884666 0
M  V30 6096 N 597.152 0.631951 1.44375 0
M  V30 6097 C 598.115 -0.0628142 2.29114 0
M  V30 6098 C 599.115 -0.771494 1.41084 0
M  V30 6099 O 600.305 -0.615959 1.62947 0
M  V30 6100 C 597.437 -1.09953 3.22681 0
M  V30 6101 H 598.63 0.682509 2.92031 0
M  V30 6102 H 596.183 0.392128 1.51301 0
M  V30 6103 H 596.918 -1.87481 2.64616 0
M  V30 6104 H 596.703 -0.595286 3.87555 0
M  V30 6105 H 598.193 -1.58538 3.86336 0
M  V30 6106 N 598.631 -1.53133 0.372548 0
M  V30 6107 C 599.879 -2.00958 -0.214534 0
M  V30 6108 C 600.2 -1.26135 -1.48711 0
M  V30 6109 O 599.47 -0.376597 -1.92246 0
M  V30 6110 H 598.05 -0.742456 -0.0822664 0
M  V30 6111 H 600.712 -1.88367 0.500385 0
M  V30 6112 H 599.808 -3.09031 -0.436605 0
M  V30 6113 N 600.109 -0.101901 -1.5727 0
M  V30 6114 C 601.358 0.559922 -1.93772 0
M  V30 6115 C 601.671 1.68913 -0.98629 0
M  V30 6116 O 602.877 2.41256 -1.24529 0
M  V30 6117 C 601.333 1.04739 -3.44322 0
M  V30 6118 C 600.941 -0.05243 -4.47969 0
M  V30 6119 C 602.685 1.68157 -3.89774 0
M  V30 6120 C 600.592 0.450781 -5.8968 0
M  V30 6121 H 599.522 0.212931 -0.723309 0
M  V30 6122 H 602.173 -0.179001 -1.82625 0
M  V30 6123 H 600.555 1.84021 -3.50645 0
M  V30 6124 H 601.729 -0.828157 -4.53297 0
M  V30 6125 H 600.044 -0.592202 -4.12167 0
M  V30 6126 H 602.641 2.0689 -4.93052 0
M  V30 6127 H 602.984 2.55338 -3.28798 0
M  V30 6128 H 603.517 0.954453 -3.8618 0
M  V30 6129 H 600.256 -0.38458 -6.54371 0
M  V30 6130 H 599.776 1.19336 -5.87809 0
M  V30 6131 H 601.455 0.917555 -6.40461 0
M  V30 6132 N 601.587 1.56661 0.17182 0
M  V30 6133 C 602.535 1.97289 1.23207 0
M  V30 6134 C 603.529 0.861566 1.45854 0
M  V30 6135 O 604.735 1.04668 1.4644 0
M  V30 6136 H 601.11 0.627681 0.41415 0
M  V30 6137 H 603.081 2.85662 0.862542 0
M  V30 6138 C 601.83 2.34849 2.564 0
M  V30 6139 H 601.153 3.19903 2.39797 0
M  V30 6140 H 602.593 2.67121 3.29276 0
M  V30 6141 C 601.052 1.19172 3.15119 0
M  V30 6142 O 601.582 0.479113 3.98833 0
M  V30 6143 N 599.788 0.962415 2.74201 0
M  V30 6144 H 599.335 1.54365 2.06226 0
M  V30 6145 H 599.293 0.190272 3.13824 0
M  V30 6146 N 603.065 -0.440357 1.51323 0
M  V30 6147 C 604.015 -1.53263 1.68803 0
M  V30 6148 C 604.999 -1.51494 0.542057 0
M  V30 6149 O 606.191 -1.57999 0.797839 0
M  V30 6150 C 603.32 -2.91479 1.8137 0
M  V30 6151 C 602.406 -2.98015 3.01742 0
M  V30 6152 N 602.797 -2.743 4.24962 0
M  V30 6153 C 601.095 -3.29173 3.00934 0
M  V30 6154 C 601.796 -2.86601 5.06197 0
M  V30 6155 N 600.772 -3.1814 4.40781 0
M  V30 6156 H 604.574 -1.33675 2.61741 0
M  V30 6157 H 602.088 -0.647616 1.48929 0
M  V30 6158 H 604.085 -3.70055 1.92002 0
M  V30 6159 H 602.745 -3.12089 0.896117 0
M  V30 6160 H 603.756 -2.49287 4.53957 0
M  V30 6161 H 600.433 -3.55577 2.18796 0
M  V30 6162 H 601.823 -2.72246 6.14274 0
M  V30 6163 N 604.543 -1.41418 -0.695603 0
M  V30 6164 C 605.491 -1.43467 -1.83084 0
M  V30 6165 C 606.485 -0.312719 -1.66489 0
M  V30 6166 O 607.691 -0.484744 -1.7335 0
M  V30 6167 H 604.066 -0.448891 -0.603325 0
M  V30 6168 H 606.037 -2.39144 -1.78473 0
M  V30 6169 C 604.786 -1.3337 -3.21104 0
M  V30 6170 H 604.109 -2.18989 -3.3449 0
M  V30 6171 H 605.549 -1.38865 -4.00615 0
M  V30 6172 C 604.008 -0.0460484 -3.36869 0
M  V30 6173 O 604.538 0.909258 -3.91274 0
M  V30 6174 N 602.744 0.0300222 -2.90584 0
M  V30 6175 H 602.291 -0.748129 -2.46497 0
M  V30 6176 H 602.249 0.890991 -3.01511 0
M  V30 6177 N 606.021 0.929856 -1.27246 0
M  V30 6178 C 607.27 1.67182 -1.12842 0
M  V30 6179 C 607.583 1.9287 0.325666 0
M  V30 6180 O 608.789 2.64999 0.590572 0
M  V30 6181 C 607.245 3.01097 -1.97151 0
M  V30 6182 C 606.853 2.83115 -3.47203 0
M  V30 6183 C 608.597 3.78907 -1.91389 0
M  V30 6184 C 606.504 4.12573 -4.23719 0
M  V30 6185 H 605.434 0.627064 -0.418697 0
M  V30 6186 H 608.085 1.0332 -1.51649 0
M  V30 6187 H 606.467 3.66004 -1.51186 0
M  V30 6188 H 607.641 2.26989 -4.01015 0
M  V30 6189 H 605.956 2.18736 -3.54321 0
M  V30 6190 H 608.553 4.74837 -2.45834 0
M  V30 6191 H 608.896 4.0674 -0.887047 0
M  V30 6192 H 609.429 3.20794 -2.35237 0
M  V30 6193 H 606.168 3.8992 -5.26918 0
M  V30 6194 H 605.688 4.68371 -3.74685 0
M  V30 6195 H 607.367 4.8095 -4.32777 0
M  V30 6196 N 607.499 1.09233 1.13605 0
M  V30 6197 C 608.727 0.848908 1.88683 0
M  V30 6198 C 609.142 -0.599667 1.79024 0
M  V30 6199 O 608.499 -1.41265 1.15544 0
M  V30 6200 C 608.55 1.27273 3.38355 0
M  V30 6201 O 608.271 2.66449 3.47759 0
M  V30 6202 C 609.772 1.0614 4.30406 0
M  V30 6203 H 606.992 0.305549 0.597395 0
M  V30 6204 H 609.536 1.4538 1.43823 0
M  V30 6205 H 607.691 0.711776 3.80805 0
M  V30 6206 H 608.105 2.84264 4.40788 0
M  V30 6207 H 609.579 1.40725 5.33761 0
M  V30 6208 H 610.056 -0.000960332 4.392 0
M  V30 6209 H 610.662 1.60821 3.93722 0
M  V30 6210 N 608.977 -1.30795 0.87923 0
M  V30 6211 C 610.205 -2.00527 0.509548 0
M  V30 6212 C 610.62 -1.65944 -0.90045 0
M  V30 6213 O 609.977 -0.893525 -1.5913 0
M  V30 6214 C 610.028 -3.55276 0.667943 0
M  V30 6215 O 609.749 -3.88625 2.02242 0
M  V30 6216 C 611.25 -4.4228 0.300494 0
M  V30 6217 H 608.47 -0.641261 0.197549 0
M  V30 6218 H 611.014 -1.66813 1.18295 0
M  V30 6219 H 609.169 -3.87377 0.0419843 0
M  V30 6220 H 609.583 -4.83334 2.03688 0
M  V30 6221 H 611.057 -5.50061 0.462242 0
M  V30 6222 H 611.534 -4.32556 -0.76106 0
M  V30 6223 H 612.14 -4.15613 0.902536 0
M  V30 6224 N 610.455 -0.639598 -1.44038 0
M  V30 6225 C 611.703 -0.147188 -2.01563 0
M  V30 6226 C 612.024 1.2384 -1.50628 0
M  V30 6227 O 611.294 1.82452 -0.713316 0
M  V30 6228 H 609.874 -0.0514231 -0.745228 0
M  V30 6229 H 612.536 -0.828205 -1.76428 0
M  V30 6230 H 611.632 -0.121358 -3.11864 0
M  V30 6231 N 611.933 1.52934 -0.380664 0
M  V30 6232 C 613.349 1.59571 -0.0302429 0
M  V30 6233 C 613.549 1.39509 1.45394 0
M  V30 6234 O 612.605 1.20777 2.21741 0
M  V30 6235 C 613.918 2.96519 -0.499691 0
M  V30 6236 C 615.466 3.09672 -0.455204 0
M  V30 6237 C 615.941 4.49056 -0.900703 0
M  V30 6238 N 617.432 4.55215 -0.856367 0
M  V30 6239 C 618.167 5.61282 -1.17259 0
M  V30 6240 N 617.663 6.75035 -1.55885 0
M  V30 6241 N 619.456 5.51343 -1.0944 0
M  V30 6242 H 611.607 1.64224 -1.347 0
M  V30 6243 H 613.87 0.771033 -0.551554 0
M  V30 6244 H 613.576 3.16388 -1.53595 0
M  V30 6245 H 613.45 3.77052 0.105789 0
M  V30 6246 H 615.837 2.89504 0.571949 0
M  V30 6247 H 615.918 2.31113 -1.09638 0
M  V30 6248 H 615.562 4.69964 -1.92604 0
M  V30 6249 H 615.492 5.26068 -0.236629 0
M  V30 6250 H 617.983 3.73546 -0.572013 0
M  V30 6251 H 618.296 7.51926 -1.784 0
M  V30 6252 H 616.641 6.76388 -1.59764 0
M  V30 6253 H 619.832 4.61356 -0.791713 0
M  V30 6254 H 620.005 6.33905 -1.34417 0
M  V30 6255 N 613.412 0.11024 1.57214 0
M  V30 6256 C 614.659 -0.54987 1.94891 0
M  V30 6257 C 614.987 -1.67243 0.992984 0
M  V30 6258 O 614.242 -1.95694 0.0152703 0
M  V30 6259 C 614.541 -1.13102 3.39032 0
M  V30 6260 C 614.207 -0.130713 4.5071 0
M  V30 6261 C 612.869 0.14437 4.80983 0
M  V30 6262 C 615.221 0.551472 5.18274 0
M  V30 6263 C 612.549 1.10807 5.76141 0
M  V30 6264 C 614.901 1.50375 6.14467 0
M  V30 6265 C 613.565 1.78691 6.43138 0
M  V30 6266 H 612.835 -0.201212 0.713158 0
M  V30 6267 H 615.482 0.189288 1.90562 0
M  V30 6268 H 613.787 -1.94675 3.40013 0
M  V30 6269 H 615.484 -1.64973 3.65493 0
M  V30 6270 H 612.074 -0.355301 4.27125 0
M  V30 6271 H 616.258 0.35211 4.95049 0
M  V30 6272 H 611.514 1.3343 5.96663 0
M  V30 6273 H 615.688 2.03808 6.65909 0
M  V30 6274 H 613.315 2.53522 7.1668 0
M  V30 6275 N 614.89 -1.56749 -0.16351 0
M  V30 6276 C 616.138 -1.82074 -0.87713 0
M  V30 6277 C 616.459 -0.688503 -1.82441 0
M  V30 6278 O 615.729 0.291085 -1.93725 0
M  V30 6279 H 614.309 -0.671677 -0.326893 0
M  V30 6280 H 616.971 -1.9423 -0.161459 0
M  V30 6281 H 616.067 -2.76407 -1.44934 0
M  V30 6282 N 616.368 0.432326 -1.51554 0
M  V30 6283 C 617.645 1.19288 -1.55015 0
M  V30 6284 C 618.025 2.08701 -0.317375 0
M  V30 6285 O 617.373 2.17602 0.697243 0
M  V30 6286 C 617.583 1.99037 -2.86679 0
M  V30 6287 C 618.931 2.55907 -3.38817 0
M  V30 6288 O 619.955 2.09243 -2.88263 0
M  V30 6289 O 618.814 3.41029 -4.27038 0
M  V30 6290 H 615.908 0.543369 -0.623441 0
M  V30 6291 H 618.454 0.440988 -1.6387 0
M  V30 6292 H 617.226 1.33397 -3.6786 0
M  V30 6293 H 616.849 2.81281 -2.8101 0
M  V30 6294 N 617.846 1.41785 0.688094 0
M  V30 6295 C 619.093 1.41544 1.44816 0
M  V30 6296 C 619.421 0.0271746 1.94481 0
M  V30 6297 O 618.676 -0.962235 1.7041 0
M  V30 6298 C 618.975 2.37532 2.67046 0
M  V30 6299 C 618.641 3.84209 2.35996 0
M  V30 6300 C 617.303 4.24165 2.27239 0
M  V30 6301 C 619.655 4.76785 2.10536 0
M  V30 6302 C 616.983 5.54695 1.91128 0
M  V30 6303 C 619.335 6.07644 1.75931 0
M  V30 6304 C 617.999 6.46613 1.65675 0
M  V30 6305 H 617.269 0.517945 0.529919 0
M  V30 6306 H 619.916 1.74635 0.785797 0
M  V30 6307 H 618.221 1.9772 3.38251 0
M  V30 6308 H 619.918 2.34615 3.25203 0
M  V30 6309 H 616.508 3.52567 2.4371 0
M  V30 6310 H 620.692 4.46714 2.16242 0
M  V30 6311 H 615.948 5.83762 1.81746 0
M  V30 6312 H 620.122 6.78874 1.55252 0
M  V30 6313 H 617.749 7.47668 1.37463 0
M  V30 6314 N 619.324 -0.923095 1.27737 0
M  V30 6315 C 620.554 -1.70277 1.17001 0
M  V30 6316 C 620.962 -1.87188 -0.275199 0
M  V30 6317 O 620.305 -1.39195 -1.19877 0
M  V30 6318 C 620.367 -3.11976 1.78637 0
M  V30 6319 C 620.031 -3.18386 3.27841 0
M  V30 6320 C 621.028 -3.00287 4.2441 0
M  V30 6321 C 618.713 -3.41198 3.68632 0
M  V30 6322 C 620.707 -3.04896 5.59747 0
M  V30 6323 C 618.394 -3.4544 5.04097 0
M  V30 6324 C 619.392 -3.27309 5.99465 0
M  V30 6325 O 619.08 -3.31295 7.32461 0
M  V30 6326 H 618.812 -0.539366 0.407505 0
M  V30 6327 H 621.366 -1.16446 1.69202 0
M  V30 6328 H 619.596 -3.67308 1.20919 0
M  V30 6329 H 621.285 -3.7193 1.6255 0
M  V30 6330 H 622.051 -2.825 3.94232 0
M  V30 6331 H 617.93 -3.54359 2.94873 0
M  V30 6332 H 621.474 -2.90662 6.34162 0
M  V30 6333 H 617.371 -3.62753 5.33929 0
M  V30 6334 H 618.139 -3.47719 7.40968 0
M  V30 6335 N 620.802 -1.09834 -1.13024 0
M  V30 6336 C 622.218 -0.828875 -1.36388 0
M  V30 6337 C 622.418 0.554756 -1.93713 0
M  V30 6338 O 621.474 1.30882 -2.15931 0
M  V30 6339 C 622.787 -1.92352 -2.3113 0
M  V30 6340 C 624.335 -1.95124 -2.44735 0
M  V30 6341 C 624.81 -3.03745 -3.42787 0
M  V30 6342 N 626.301 -3.03012 -3.5034 0
M  V30 6343 C 627.036 -3.83699 -4.26101 0
M  V30 6344 N 626.532 -4.74306 -5.04981 0
M  V30 6345 N 628.325 -3.71942 -4.21445 0
M  V30 6346 H 620.476 -1.99029 -0.74169 0
M  V30 6347 H 622.739 -0.864557 -0.388903 0
M  V30 6348 H 622.445 -2.91906 -1.96172 0
M  V30 6349 H 622.319 -1.80536 -3.3119 0
M  V30 6350 H 624.706 -0.962069 -2.78977 0
M  V30 6351 H 624.787 -2.11018 -1.44586 0
M  V30 6352 H 624.431 -4.02878 -3.09276 0
M  V30 6353 H 624.361 -2.85094 -4.42752 0
M  V30 6354 H 626.852 -2.37352 -2.94062 0
M  V30 6355 H 627.165 -5.32446 -5.60108 0
M  V30 6356 H 625.51 -4.78339 -5.04199 0
M  V30 6357 H 628.701 -3.00513 -3.589 0
M  V30 6358 H 628.874 -4.35062 -4.80235 0
M  V30 6359 N 622.28 1.30327 -0.886154 0
M  V30 6360 C 623.21 2.30549 -0.370028 0
M  V30 6361 C 624.191 1.61039 0.547751 0
M  V30 6362 O 625.376 1.8864 0.461353 0
M  V30 6363 C 622.506 3.44808 0.415275 0
M  V30 6364 C 621.46 4.26024 -0.41085 0
M  V30 6365 C 620.786 5.32347 0.501128 0
M  V30 6366 C 622.086 4.95433 -1.65359 0
M  V30 6367 H 623.78 2.73969 -1.20754 0
M  V30 6368 H 621.326 1.3171 -0.582097 0
M  V30 6369 H 623.279 4.13986 0.78699 0
M  V30 6370 H 622.003 3.00197 1.28644 0
M  V30 6371 H 620.662 3.58535 -0.764719 0
M  V30 6372 H 620.31 4.83982 1.37004 0
M  V30 6373 H 620.01 5.87581 -0.0478356 0
M  V30 6374 H 621.534 6.0438 0.869333 0
M  V30 6375 H 622.948 5.5712 -1.35239 0
M  V30 6376 H 621.345 5.60537 -2.14284 0
M  V30 6377 H 622.415 4.21493 -2.39733 0
M  V30 6378 N 623.758 0.647228 1.43697 0
M  V30 6379 C 624.688 -0.0345631 2.33474 0
M  V30 6380 C 625.669 -0.818193 1.4913 0
M  V30 6381 O 626.854 -0.780867 1.77809 0
M  V30 6382 C 623.984 -1.00576 3.32418 0
M  V30 6383 C 622.938 -0.33266 4.26705 0
M  V30 6384 C 622.264 -1.41489 5.1564 0
M  V30 6385 C 623.564 0.771204 5.16575 0
M  V30 6386 H 625.258 0.715163 2.90733 0
M  V30 6387 H 622.804 0.345364 1.39797 0
M  V30 6388 H 624.757 -1.49159 3.94119 0
M  V30 6389 H 623.481 -1.78657 2.73403 0
M  V30 6390 H 622.14 0.13267 3.6636 0
M  V30 6391 H 621.788 -2.18698 4.52968 0
M  V30 6392 H 621.488 -0.969799 5.79542 0
M  V30 6393 H 623.012 -1.9022 5.80214 0
M  V30 6394 H 624.426 0.36779 5.72119 0
M  V30 6395 H 622.823 1.1404 5.89165 0
M  V30 6396 H 623.893 1.63169 4.56622 0
M  V30 6397 N 625.236 -1.5273 0.388769 0
M  V30 6398 C 626.482 -2.01871 -0.193877 0
M  V30 6399 C 626.815 -1.27475 -1.46505 0
M  V30 6400 O 626.09 -0.375063 -1.90849 0
M  V30 6401 C 626.373 -3.5712 -0.462336 0
M  V30 6402 C 626.226 -4.42186 0.824091 0
M  V30 6403 C 627.545 -4.21881 -1.25319 0
M  V30 6404 H 624.664 -0.733764 -0.0689899 0
M  V30 6405 H 627.306 -1.82796 0.518231 0
M  V30 6406 H 625.456 -3.73504 -1.06896 0
M  V30 6407 H 627.128 -4.37554 1.46096 0
M  V30 6408 H 625.371 -4.09219 1.43952 0
M  V30 6409 H 626.042 -5.48828 0.590905 0
M  V30 6410 H 628.518 -4.0947 -0.73981 0
M  V30 6411 H 627.394 -5.30487 -1.40977 0
M  V30 6412 H 627.655 -3.79478 -2.26824 0
M  V30 6413 N 626.714 -0.118576 -1.57153 0
M  V30 6414 C 628.125 0.40687 -1.82213 0
M  V30 6415 C 628.476 1.66636 -1.03571 0
M  V30 6416 O 627.601 2.14682 -0.272171 0
M  V30 6417 C 628.196 0.744949 -3.30509 0
M  V30 6418 C 626.755 1.21503 -3.5625 0
M  V30 6419 C 625.902 0.223511 -2.76398 0
M  V30 6420 H 628.853 -0.343712 -1.54933 0
M  V30 6421 H 628.874 1.6024 -3.45114 0
M  V30 6422 H 628.386 -0.171911 -3.87719 0
M  V30 6423 H 626.487 2.1488 -3.04396 0
M  V30 6424 H 626.6 1.16065 -4.64829 0
M  V30 6425 H 624.964 0.71046 -2.44591 0
M  V30 6426 H 625.747 -0.686439 -3.36367 0
M  V30 6427 N 628.193 1.56834 0.155195 0
M  V30 6428 C 629.441 1.82536 0.867462 0
M  V30 6429 C 629.762 0.698168 1.82073 0
M  V30 6430 O 629.032 -0.280807 1.93877 0
M  V30 6431 H 627.612 0.673401 0.323327 0
M  V30 6432 H 630.274 1.94313 0.151156 0
M  V30 6433 H 629.37 2.77171 1.43466 0
M  V30 6434 N 629.671 -0.424282 1.51781 0
M  V30 6435 C 630.899 -1.1947 1.68921 0
M  V30 6436 C 631.314 -1.84683 0.39213 0
M  V30 6437 O 630.671 -1.71261 -0.630554 0
M  V30 6438 C 630.722 -2.26909 2.81416 0
M  V30 6439 O 630.443 -1.64361 4.061 0
M  V30 6440 C 631.944 -3.16945 3.09937 0
M  V30 6441 H 629.164 -0.359591 0.566511 0
M  V30 6442 H 631.708 -0.501139 1.98265 0
M  V30 6443 H 629.863 -2.91959 2.54635 0
M  V30 6444 H 630.277 -2.35468 4.68674 0
M  V30 6445 H 631.751 -3.88437 3.922 0
M  V30 6446 H 632.228 -3.78451 2.22871 0
M  V30 6447 H 632.834 -2.57581 3.38426 0
M  V30 6448 N 631.149 -1.42148 -0.680565 0
M  V30 6449 C 632.379 -1.45485 -1.46689 0
M  V30 6450 C 632.787 -0.0629451 -1.89095 0
M  V30 6451 O 632.13 0.931397 -1.58337 0
M  V30 6452 C 632.192 -2.31397 -2.75129 0
M  V30 6453 C 631.856 -3.79353 -2.54834 0
M  V30 6454 C 632.853 -4.71148 -2.19808 0
M  V30 6455 C 630.538 -4.23557 -2.70008 0
M  V30 6456 C 632.532 -6.05139 -2.00215 0
M  V30 6457 C 630.219 -5.57609 -2.50031 0
M  V30 6458 C 631.217 -6.48216 -2.15187 0
M  V30 6459 O 630.905 -7.79792 -1.95397 0
M  V30 6460 H 630.637 -0.497139 -0.458071 0
M  V30 6461 H 633.191 -1.87252 -0.844139 0
M  V30 6462 H 631.421 -1.84468 -3.39865 0
M  V30 6463 H 633.11 -2.26257 -3.36991 0
M  V30 6464 H 633.876 -4.38282 -2.07686 0
M  V30 6465 H 629.755 -3.53327 -2.96109 0
M  V30 6466 H 633.299 -6.75823 -1.72941 0
M  V30 6467 H 629.196 -5.9005 -2.61748 0
M  V30 6468 H 629.964 -7.91091 -2.10042 0
M  V30 6469 N 632.627 0.916307 -1.28225 0
M  V30 6470 C 633.575 2.03977 -1.11786 0
M  V30 6471 C 634.569 1.69358 -0.0378265 0
M  V30 6472 O 635.775 1.78925 -0.196405 0
M  V30 6473 H 632.15 0.66829 -0.344809 0
M  V30 6474 H 634.121 2.14985 -2.06939 0
M  V30 6475 C 632.87 3.38518 -0.7938 0
M  V30 6476 H 632.193 3.65649 -1.61682 0
M  V30 6477 H 633.633 4.17864 -0.718719 0
M  V30 6478 C 632.092 3.33134 0.502353 0
M  V30 6479 O 632.622 3.71281 1.53341 0
M  V30 6480 N 630.828 2.86229 0.502147 0
M  V30 6481 H 630.375 2.55382 -0.337338 0
M  V30 6482 H 630.333 2.83009 1.36942 0
M  V30 6483 N 634.105 1.10431 1.1244 0
M  V30 6484 C 635.035 0.775143 2.20258 0
M  V30 6485 C 636.016 -0.25186 1.68225 0
M  V30 6486 O 637.201 -0.117637 1.93843 0
M  V30 6487 C 634.331 0.206133 3.46688 0
M  V30 6488 C 633.285 1.16382 4.11873 0
M  V30 6489 C 632.611 0.456014 5.32752 0
M  V30 6490 C 633.911 2.5104 4.58013 0
M  V30 6491 H 635.605 1.67665 2.4805 0
M  V30 6492 H 633.151 0.807595 1.19222 0
M  V30 6493 H 635.104 -0.036291 4.21384 0
M  V30 6494 H 633.828 -0.730614 3.18323 0
M  V30 6495 H 632.487 1.39169 3.39157 0
M  V30 6496 H 632.135 -0.485203 5.00654 0
M  V30 6497 H 631.835 1.09466 5.77314 0
M  V30 6498 H 633.359 0.222135 6.10196 0
M  V30 6499 H 634.773 2.32401 5.24083 0
M  V30 6500 H 633.17 3.10789 5.13352 0
M  V30 6501 H 634.24 3.11039 3.71998 0
M  V30 6502 N 635.583 -1.29855 0.893053 0
M  V30 6503 C 636.811 -1.99976 0.530788 0
M  V30 6504 C 637.226 -1.66889 -0.882799 0
M  V30 6505 O 636.583 -0.910352 -1.58173 0
M  V30 6506 C 636.634 -3.54547 0.705587 0
M  V30 6507 O 636.355 -3.86458 2.06353 0
M  V30 6508 C 637.856 -4.41937 0.347387 0
M  V30 6509 H 635.076 -0.639129 0.204339 0
M  V30 6510 H 637.62 -1.65549 1.20057 0
M  V30 6511 H 635.775 -3.87311 0.0830685 0
M  V30 6512 H 636.189 -4.81146 2.08803 0
M  V30 6513 H 637.663 -5.4954 0.520557 0
M  V30 6514 H 638.14 -4.33339 -0.715139 0
M  V30 6515 H 638.746 -4.14633 0.946567 0
M  V30 6516 N 637.061 -0.65484 -1.43351 0
M  V30 6517 C 638.307 -0.169142 -2.02093 0
M  V30 6518 C 638.64 1.21431 -1.51553 0
M  V30 6519 O 637.915 1.81105 -0.709317 0
M  V30 6520 C 638.198 -0.181775 -3.59641 0
M  V30 6521 C 638.051 -1.59926 -4.20409 0
M  V30 6522 C 639.37 0.480945 -4.37464 0
M  V30 6523 H 636.489 -0.0629371 -0.734308 0
M  V30 6524 H 639.131 -0.835833 -1.70628 0
M  V30 6525 H 637.281 0.385918 -3.86578 0
M  V30 6526 H 638.953 -2.21766 -4.04497 0
M  V30 6527 H 637.196 -2.14605 -3.76998 0
M  V30 6528 H 637.867 -1.55994 -5.295 0
M  V30 6529 H 640.343 -0.00208273 -4.161 0
M  V30 6530 H 639.219 0.441384 -5.47122 0
M  V30 6531 H 639.48 1.55533 -4.13838 0
M  V30 6532 N 638.539 1.52521 -0.396863 0
M  V30 6533 C 639.785 2.01971 0.183169 0
M  V30 6534 C 640.118 1.2825 1.45827 0
M  V30 6535 O 639.393 0.385179 1.90648 0
M  V30 6536 C 639.676 3.5736 0.443391 0
M  V30 6537 C 639.529 4.41743 -0.84753 0
M  V30 6538 C 640.848 4.22539 1.2308 0
M  V30 6539 H 637.967 0.734119 0.0650976 0
M  V30 6540 H 640.609 1.82519 -0.527918 0
M  V30 6541 H 638.759 3.74066 1.04914 0
M  V30 6542 H 640.431 4.36773 -1.48414 0
M  V30 6543 H 638.674 4.0845 -1.4612 0
M  V30 6544 H 639.345 5.48507 -0.620003 0
M  V30 6545 H 641.821 4.09857 0.718084 0
M  V30 6546 H 640.697 5.31227 1.38162 0
M  V30 6547 H 640.958 3.80675 2.24808 0
M  V30 6548 N 640.017 0.126909 1.57088 0
M  V30 6549 C 640.947 -0.816847 2.18746 0
M  V30 6550 C 641.928 -1.27161 1.12979 0
M  V30 6551 O 643.113 -1.33279 1.41246 0
M  V30 6552 C 640.243 -2.06398 2.79315 0
M  V30 6553 C 639.197 -1.74673 3.90735 0
M  V30 6554 C 638.523 -3.06482 4.38147 0
M  V30 6555 C 639.823 -1.0089 5.12463 0
M  V30 6556 H 641.517 -0.303032 2.97863 0
M  V30 6557 H 639.063 -0.144314 1.43275 0
M  V30 6558 H 641.016 -2.72885 3.2111 0
M  V30 6559 H 639.74 -2.60118 1.975 0
M  V30 6560 H 638.399 -1.10572 3.49527 0
M  V30 6561 H 638.047 -3.58152 3.5318 0
M  V30 6562 H 637.747 -2.86025 5.13287 0
M  V30 6563 H 639.271 -3.74073 4.82599 0
M  V30 6564 H 640.685 -1.57546 5.51228 0
M  V30 6565 H 639.082 -0.905006 5.93237 0
M  V30 6566 H 640.152 0.00297335 4.849 0
M  V30 6567 N 641.495 -1.56914 -0.146875 0
M  V30 6568 C 642.723 -1.87515 -0.874394 0
M  V30 6569 C 643.138 -0.715116 -1.74733 0
M  V30 6570 O 642.495 0.315113 -1.79759 0
M  V30 6571 C 642.546 -3.17362 -1.731 0
M  V30 6572 O 642.267 -4.28897 -0.893245 0
M  V30 6573 C 643.768 -3.61479 -2.56609 0
M  V30 6574 H 640.988 -0.621546 -0.252827 0
M  V30 6575 H 643.532 -2.04023 -0.139627 0
M  V30 6576 H 641.687 -3.02608 -2.41883 0
M  V30 6577 H 642.101 -5.03146 -1.48137 0
M  V30 6578 H 643.575 -4.5517 -3.12289 0
M  V30 6579 H 644.052 -2.86773 -3.32653 0
M  V30 6580 H 644.658 -3.78927 -1.93117 0
M  V30 6581 N 642.974 0.416227 -1.52004 0
M  V30 6582 C 644.222 1.16153 -1.65387 0
M  V30 6583 C 644.543 1.91208 -0.382669 0
M  V30 6584 O 643.813 1.86413 0.602231 0
M  V30 6585 H 642.393 0.431765 -0.60958 0
M  V30 6586 H 645.055 0.475151 -1.89019 0
M  V30 6587 H 644.151 1.87952 -2.4916 0
M  V30 6588 N 644.452 1.42507 0.673017 0
M  V30 6589 C 645.682 1.46261 1.45916 0
M  V30 6590 C 646.09 0.0729724 1.89059 0
M  V30 6591 O 645.433 -0.922987 1.58829 0
M  V30 6592 C 645.495 2.32853 2.73898 0
M  V30 6593 C 645.159 3.80699 2.52819 0
M  V30 6594 C 646.156 4.72307 2.17306 0
M  V30 6595 C 643.841 4.24983 2.67758 0
M  V30 6596 C 645.835 6.06192 1.97003 0
M  V30 6597 C 643.522 5.58927 2.4707 0
M  V30 6598 C 644.52 6.49348 2.11746 0
M  V30 6599 O 644.208 7.80817 1.91259 0
M  V30 6600 H 643.94 0.499561 0.455428 0
M  V30 6601 H 646.494 1.87697 0.834196 0
M  V30 6602 H 644.724 1.86268 3.38882 0
M  V30 6603 H 646.413 2.28041 3.35786 0
M  V30 6604 H 647.179 4.39378 2.05359 0
M  V30 6605 H 643.058 3.54893 2.94231 0
M  V30 6606 H 646.602 6.76731 1.69355 0
M  V30 6607 H 642.499 5.91429 2.58615 0
M  V30 6608 H 643.267 7.92194 2.05843 0
M  V30 6609 N 645.93 -0.909495 1.28709 0
M  V30 6610 C 646.863 -2.01388 1.07323 0
M  V30 6611 C 647.841 -1.62596 -0.0119757 0
M  V30 6612 O 649.025 -1.88003 0.136796 0
M  V30 6613 C 646.152 -3.32755 0.631797 0
M  V30 6614 C 645.198 -3.90532 1.71428 0
M  V30 6615 S 646.031 -4.20853 3.31124 0
M  V30 6616 C 647.187 -5.55276 2.88825 0
M  V30 6617 H 647.42 -2.19219 2.00824 0
M  V30 6618 H 644.953 -1.05489 1.12745 0
M  V30 6619 H 646.911 -4.08702 0.38381 0
M  V30 6620 H 645.572 -3.12818 -0.283451 0
M  V30 6621 H 644.765 -4.85385 1.35712 0
M  V30 6622 H 644.367 -3.21237 1.91528 0
M  V30 6623 H 646.659 -6.35341 2.3526 0
M  V30 6624 H 647.602 -5.95907 3.82492 0
M  V30 6625 H 648.01 -5.16666 2.27412 0
M  V30 6626 N 647.408 -1.11026 -1.11852 0
M  V30 6627 C 648.819 -0.873203 -1.65021 0
M  V30 6628 C 649.17 0.595364 -1.86949 0
M  V30 6629 O 648.295 1.45645 -1.60051 0
M  V30 6630 C 648.89 -1.57859 -2.99777 0
M  V30 6631 C 647.449 -1.38807 -3.49871 0
M  V30 6632 C 646.596 -1.62403 -2.24768 0
M  V30 6633 H 649.547 -1.26712 -0.955503 0
M  V30 6634 H 649.568 -1.02111 -3.66543 0
M  V30 6635 H 649.08 -2.6474 -2.83786 0
M  V30 6636 H 647.181 -0.341163 -3.71035 0
M  V30 6637 H 647.294 -2.13421 -4.28938 0
M  V30 6638 H 645.658 -1.04714 -2.32179 0
M  V30 6639 H 646.441 -2.70549 -2.11324 0
M  V30 6640 N 648.886 1.2938 -0.899927 0
M  V30 6641 C 649.816 2.30144 -0.39446 0
M  V30 6642 C 650.797 1.61611 0.530639 0
M  V30 6643 O 651.982 1.89119 0.441319 0
M  V30 6644 C 649.112 3.45229 0.37868 0
M  V30 6645 C 648.066 4.25564 -0.456012 0
M  V30 6646 C 647.392 5.32848 0.444637 0
M  V30 6647 C 648.692 4.93651 -1.70605 0
M  V30 6648 H 650.386 2.72673 -1.23653 0
M  V30 6649 H 647.932 1.31086 -0.596034 0
M  V30 6650 H 649.885 4.14797 0.743037 0
M  V30 6651 H 648.609 3.01545 1.25453 0
M  V30 6652 H 647.268 3.57704 -0.802704 0
M  V30 6653 H 646.916 4.85408 1.31863 0
M  V30 6654 H 646.616 5.87497 -0.110154 0
M  V30 6655 H 648.14 6.05268 0.805182 0
M  V30 6656 H 649.554 5.55655 -1.41141 0
M  V30 6657 H 647.951 5.58233 -2.20217 0
M  V30 6658 H 649.021 4.18926 -2.4419 0
M  V30 6659 N 650.364 0.662433 1.43002 0
M  V30 6660 C 651.592 0.187615 2.06048 0
M  V30 6661 C 652.007 -1.15039 1.49705 0
M  V30 6662 O 651.364 -1.71209 0.631956 0
M  V30 6663 C 651.415 0.100498 3.6136 0
M  V30 6664 O 651.136 1.38562 4.15611 0
M  V30 6665 C 652.637 -0.399298 4.41498 0
M  V30 6666 H 649.857 0.0941675 0.664359 0
M  V30 6667 H 652.401 0.905681 1.83351 0
M  V30 6668 H 650.556 -0.568181 3.83211 0
M  V30 6669 H 650.97 1.25084 5.09366 0
M  V30 6670 H 652.444 -0.409187 5.50481 0
M  V30 6671 H 652.921 -1.43232 4.15188 0
M  V30 6672 H 653.527 0.23721 4.24638 0
M  V30 6673 N 651.842 -1.52309 0.404946 0
M  V30 6674 C 653.088 -2.02065 -0.172455 0
M  V30 6675 C 653.421 -1.29022 -1.45145 0
M  V30 6676 O 652.696 -0.395284 -1.90441 0
M  V30 6677 C 652.979 -3.5759 -0.424433 0
M  V30 6678 C 652.832 -4.41287 0.870945 0
M  V30 6679 C 654.151 -4.23186 -1.20837 0
M  V30 6680 H 651.27 -0.734454 -0.0612035 0
M  V30 6681 H 653.912 -1.82236 0.53759 0
M  V30 6682 H 652.062 -3.74617 -1.02929 0
M  V30 6683 H 653.734 -4.3598 1.50729 0
M  V30 6684 H 651.977 -4.07669 1.48284 0
M  V30 6685 H 652.648 -5.48171 0.649083 0
M  V30 6686 H 655.124 -4.10232 -0.696338 0
M  V30 6687 H 654 -5.31953 -1.35343 0
M  V30 6688 H 654.261 -3.81862 -2.22786 0
M  V30 6689 N 653.32 -0.135238 -1.57019 0
M  V30 6690 C 654.548 0.526066 -2.001 0
M  V30 6691 C 654.963 1.59184 -1.01519 0
M  V30 6692 O 654.32 1.82497 -0.0104258 0
M  V30 6693 C 654.371 1.13744 -3.43139 0
M  V30 6694 O 654.092 0.114259 -4.37951 0
M  V30 6695 C 655.593 1.8805 -4.01438 0
M  V30 6696 H 652.813 0.137962 -0.656664 0
M  V30 6697 H 655.357 -0.226359 -2.03243 0
M  V30 6698 H 653.512 1.84056 -3.40885 0
M  V30 6699 H 653.926 0.56058 -5.21496 0
M  V30 6700 H 655.4 2.26133 -5.03555 0
M  V30 6701 H 655.877 2.76194 -3.41487 0
M  V30 6702 H 656.483 1.22464 -4.07287 0
M  V30 6703 N 654.798 1.5699 0.138552 0
M  V30 6704 C 655.746 1.99858 1.18994 0
M  V30 6705 C 656.74 0.89231 1.43994 0
M  V30 6706 O 657.946 1.0775 1.44187 0
M  V30 6707 H 654.321 0.636325 0.400743 0
M  V30 6708 H 656.292 2.87427 0.801755 0
M  V30 6709 C 655.041 2.40235 2.51361 0
M  V30 6710 H 654.364 3.24917 2.32957 0
M  V30 6711 H 655.804 2.74045 3.23535 0
M  V30 6712 C 654.263 1.25829 3.1252 0
M  V30 6713 O 654.793 0.563604 3.97727 0
M  V30 6714 N 652.999 1.02036 2.72097 0
M  V30 6715 H 652.546 1.58705 2.02905 0
M  V30 6716 H 652.504 0.256796 3.1335 0
M  V30 6717 N 656.276 -0.40816 1.52223 0
M  V30 6718 C 657.522 -1.15673 1.66576 0
M  V30 6719 C 657.855 -1.90141 0.394996 0
M  V30 6720 O 657.13 -1.84798 -0.606613 0
M  V30 6721 C 657.413 -2.15042 2.88841 0
M  V30 6722 C 657.266 -1.44465 4.25969 0
M  V30 6723 C 658.585 -3.15699 3.0663 0
M  V30 6724 H 655.704 -0.41916 0.606196 0
M  V30 6725 H 658.346 -0.442348 1.84779 0
M  V30 6726 H 656.496 -2.75964 2.73452 0
M  V30 6727 H 658.168 -0.866544 4.53088 0
M  V30 6728 H 656.411 -0.746612 4.27327 0
M  V30 6729 H 657.082 -2.16976 5.07568 0
M  V30 6730 H 659.558 -2.64854 3.20923 0
M  V30 6731 H 658.434 -3.82491 3.9369 0
M  V30 6732 H 658.695 -3.83481 2.19987 0
M  V30 6733 N 657.755 -1.42862 -0.66545 0
M  V30 6734 C 659.001 -1.44043 -1.42757 0
M  V30 6735 C 659.334 -0.0599629 -1.94107 0
M  V30 6736 O 658.609 0.917286 -1.71511 0
M  V30 6737 C 658.892 -2.47266 -2.61786 0
M  V30 6738 C 658.745 -3.94539 -2.16007 0
M  V30 6739 C 660.064 -2.47365 -3.64003 0
M  V30 6740 H 657.183 -0.524506 -0.517748 0
M  V30 6741 H 659.825 -1.74335 -0.755466 0
M  V30 6742 H 657.975 -2.21565 -3.19126 0
M  V30 6743 H 659.647 -4.31254 -1.63762 0
M  V30 6744 H 657.89 -4.07957 -1.47491 0
M  V30 6745 H 658.561 -4.62357 -3.01546 0
M  V30 6746 H 661.037 -2.70243 -3.16399 0
M  V30 6747 H 659.913 -3.21552 -4.44854 0
M  V30 6748 H 660.174 -1.50299 -4.15767 0
M  V30 6749 N 659.233 0.902656 -1.29189 0
M  V30 6750 C 660.479 1.65532 -1.17163 0
M  V30 6751 C 660.812 1.92216 0.276879 0
M  V30 6752 O 660.087 1.53048 1.20027 0
M  V30 6753 C 660.37 3.00629 -1.98228 0
M  V30 6754 C 660.223 2.81029 -3.51202 0
M  V30 6755 C 661.542 4.01321 -1.80635 0
M  V30 6756 H 658.661 0.60071 -0.426985 0
M  V30 6757 H 661.303 1.04578 -1.5863 0
M  V30 6758 H 659.453 3.52656 -1.62991 0
M  V30 6759 H 661.125 2.35927 -3.96404 0
M  V30 6760 H 659.368 2.1587 -3.76275 0
M  V30 6761 H 660.039 3.77014 -4.03192 0
M  V30 6762 H 662.515 3.58394 -2.11406 0
M  V30 6763 H 661.391 4.93792 -2.3971 0
M  V30 6764 H 661.652 4.35505 -0.760754 0
M  V30 6765 N 660.711 1.11618 1.11262 0
M  V30 6766 C 661.658 0.7762 2.17356 0
M  V30 6767 C 662.628 -0.253152 1.6416 0
M  V30 6768 O 663.813 -0.129655 1.90359 0
M  V30 6769 C 660.953 0.227581 3.44349 0
M  V30 6770 C 660.066 1.31372 4.1154 0
M  V30 6771 C 659.201 0.72544 5.26223 0
M  V30 6772 C 658.24 1.7913 5.85302 0
M  V30 6773 N 657.377 1.22237 6.91377 0
M  V30 6774 H 662.217 1.68508 2.45783 0
M  V30 6775 H 659.754 0.841475 1.20655 0
M  V30 6776 H 661.712 -0.108483 4.17059 0
M  V30 6777 H 660.342 -0.644486 3.16301 0
M  V30 6778 H 659.394 1.7667 3.36885 0
M  V30 6779 H 660.706 2.12005 4.51504 0
M  V30 6780 H 659.86 0.339541 6.05749 0
M  V30 6781 H 658.599 -0.112188 4.87571 0
M  V30 6782 H 657.604 2.18648 5.04453 0
M  V30 6783 H 658.829 2.63199 6.26022 0
M  V30 6784 H 656.775 0.406423 6.5474 0
M  V30 6785 H 656.692 1.9654 7.30006 0
M  V30 6786 H 657.96 0.863426 7.74703 0
M  V30 6787 N 662.189 -1.289 0.906776 0
M  V30 6788 C 663.099 -2.31256 0.394707 0
M  V30 6789 C 664.115 -1.66231 -0.514121 0
M  V30 6790 O 665.291 -1.97347 -0.401994 0
M  V30 6791 C 662.356 -3.44792 -0.363191 0
M  V30 6792 C 661.417 -4.25391 0.578012 0
M  V30 6793 C 660.65 -5.33506 -0.143811 0
M  V30 6794 O 660.873 -5.53786 -1.36665 0
M  V30 6795 O 659.807 -5.99673 0.5173 0
M  V30 6796 H 663.633 -2.77051 1.24405 0
M  V30 6797 H 661.218 -1.33466 0.671346 0
M  V30 6798 H 663.1 -4.139 -0.791503 0
M  V30 6799 H 661.775 -3.01093 -1.18848 0
M  V30 6800 H 660.682 -3.58899 1.05558 0
M  V30 6801 H 662.015 -4.72752 1.36992 0
M  V30 6802 N 663.667 -0.670007 -1.42649 0
M  V30 6803 C 664.915 -0.18991 -2.01206 0
M  V30 6804 C 665.236 1.20617 -1.53221 0
M  V30 6805 O 664.506 1.80898 -0.751856 0
M  V30 6806 H 663.086 -0.0672189 -0.743969 0
M  V30 6807 H 665.748 -0.865442 -1.74631 0
M  V30 6808 H 664.844 -0.187481 -3.11536 0
M  V30 6809 N 665.145 1.52092 -0.413018 0
M  V30 6810 C 666.556 1.86617 0.0556967 0
M  V30 6811 C 666.907 1.33156 1.44097 0
M  V30 6812 O 666.032 0.672417 2.05688 0
M  V30 6813 C 666.627 3.38628 0.107844 0
M  V30 6814 C 665.186 3.72778 0.520904 0
M  V30 6815 C 664.333 2.75649 -0.302109 0
M  V30 6816 H 667.284 1.45663 -0.629919 0
M  V30 6817 H 667.305 3.69152 0.922324 0
M  V30 6818 H 666.817 3.77508 -0.900506 0
M  V30 6819 H 664.918 3.39478 1.53575 0
M  V30 6820 H 665.031 4.7838 0.262591 0
M  V30 6821 H 663.395 2.53603 0.236115 0
M  V30 6822 H 664.178 3.17369 -1.30888 0
M  V30 6823 N 666.623 0.143563 1.56945 0
M  V30 6824 C 667.586 -0.783295 2.154 0
M  V30 6825 C 668.586 -1.17763 1.09492 0
M  V30 6826 O 669.776 -1.09912 1.35148 0
M  V30 6827 C 666.908 -2.06248 2.7143 0
M  V30 6828 H 668.101 -0.274863 2.98638 0
M  V30 6829 H 665.654 -0.105859 1.55941 0
M  V30 6830 H 666.389 -2.61466 1.91849 0
M  V30 6831 H 666.174 -1.78897 3.4891 0
M  V30 6832 H 667.664 -2.72453 3.16479 0
M  V30 6833 N 668.101 -1.57061 -0.130224 0
M  V30 6834 C 669.329 -1.88432 -0.854456 0
M  V30 6835 C 669.744 -0.733608 -1.73964 0
M  V30 6836 O 669.101 0.296029 -1.80083 0
M  V30 6837 C 669.152 -3.1918 -1.69724 0
M  V30 6838 O 668.873 -4.2982 -0.847705 0
M  V30 6839 C 670.374 -3.6418 -2.5276 0
M  V30 6840 H 667.594 -0.624193 -0.246221 0
M  V30 6841 H 670.138 -2.04159 -0.11798 0
M  V30 6842 H 668.293 -3.05156 -2.3866 0
M  V30 6843 H 668.707 -5.04689 -1.42792 0
M  V30 6844 H 670.181 -4.58457 -3.07443 0
M  V30 6845 H 670.658 -2.90285 -3.29592 0
M  V30 6846 H 671.264 -3.80954 -1.89087 0
M  V30 6847 N 669.579 0.400081 -1.52437 0
M  V30 6848 C 670.489 1.51253 -1.79331 0
M  V30 6849 C 671.505 1.60188 -0.679396 0
M  V30 6850 O 672.681 1.76733 -0.965791 0
M  V30 6851 C 669.746 2.869 -1.94652 0
M  V30 6852 C 668.807 2.87777 -3.18564 0
M  V30 6853 C 668.04 4.16954 -3.33145 0
M  V30 6854 O 668.263 5.11329 -2.52783 0
M  V30 6855 O 667.197 4.2487 -4.26343 0
M  V30 6856 H 671.023 1.31461 -2.73773 0
M  V30 6857 H 668.608 0.586834 -1.37392 0
M  V30 6858 H 670.49 3.67336 -2.065 0
M  V30 6859 H 669.165 3.06741 -1.034 0
M  V30 6860 H 668.072 2.06162 -3.12167 0
M  V30 6861 H 669.405 2.72886 -4.09627 0
M  V30 6862 N 671.057 1.43213 0.657864 0
M  V30 6863 C 672.303 1.44798 1.41991 0
M  V30 6864 C 672.636 0.070256 1.94073 0
M  V30 6865 O 671.911 -0.908177 1.71995 0
M  V30 6866 C 672.194 2.4865 2.60471 0
M  V30 6867 C 672.047 3.95679 2.13911 0
M  V30 6868 C 673.366 2.49292 3.62686 0
M  V30 6869 H 670.485 0.527244 0.514959 0
M  V30 6870 H 673.127 1.74733 0.74621 0
M  V30 6871 H 671.277 2.23254 3.17946 0
M  V30 6872 H 672.949 4.32116 1.61472 0
M  V30 6873 H 671.192 4.08733 1.45325 0
M  V30 6874 H 671.863 4.6395 2.99089 0
M  V30 6875 H 674.339 2.71917 3.14961 0
M  V30 6876 H 673.215 3.23907 4.43143 0
M  V30 6877 H 673.476 1.52502 4.14964 0
M  V30 6878 N 672.536 -0.895792 1.29666 0
M  V30 6879 C 673.813 -1.62723 1.08538 0
M  V30 6880 C 674.193 -2.07848 -0.369119 0
M  V30 6881 O 673.541 -1.8372 -1.35864 0
M  V30 6882 C 673.751 -2.80505 2.07648 0
M  V30 6883 C 675.099 -3.51098 2.3878 0
M  V30 6884 O 676.123 -2.90679 2.05874 0
M  V30 6885 O 674.982 -4.60028 2.9502 0
M  V30 6886 H 672.076 -0.714692 0.416106 0
M  V30 6887 H 674.622 -0.943517 1.41053 0
M  V30 6888 H 673.394 -2.44386 3.05599 0
M  V30 6889 H 673.017 -3.5658 1.75887 0
M  V30 6890 N 674.014 -1.12206 -1.10668 0
M  V30 6891 C 675.261 -0.875875 -1.82578 0
M  V30 6892 C 675.589 0.598342 -1.85068 0
M  V30 6893 O 674.844 1.45818 -1.3052 0
M  V30 6894 C 675.143 -1.39276 -3.29146 0
M  V30 6895 C 674.809 -2.8816 -3.46806 0
M  V30 6896 C 673.471 -3.28813 -3.51334 0
M  V30 6897 C 675.823 -3.8401 -3.52399 0
M  V30 6898 C 673.151 -4.64028 -3.59019 0
M  V30 6899 C 675.503 -5.19053 -3.61617 0
M  V30 6900 C 674.167 -5.59252 -3.64408 0
M  V30 6901 H 673.437 -0.320505 -0.6681 0
M  V30 6902 H 676.084 -1.40184 -1.30464 0
M  V30 6903 H 674.389 -0.787207 -3.8381 0
M  V30 6904 H 676.086 -1.17851 -3.83291 0
M  V30 6905 H 672.676 -2.55716 -3.43958 0
M  V30 6906 H 676.86 -3.53698 -3.48154 0
M  V30 6907 H 672.116 -4.94568 -3.59461 0
M  V30 6908 H 676.29 -5.93152 -3.64889 0
M  V30 6909 H 673.917 -6.64017 -3.70116 0
M  V30 6910 N 675.492 1.28418 -0.913599 0
M  V30 6911 C 676.717 1.99643 -0.561899 0
M  V30 6912 C 677.142 1.67819 0.849608 0
M  V30 6913 O 676.5 0.910503 1.56779 0
M  V30 6914 C 676.548 3.52116 -0.777622 0
M  V30 6915 O 675.652 4.12076 0.163457 0
M  V30 6916 H 674.993 0.627229 -0.217898 0
M  V30 6917 H 677.523 1.63575 -1.229 0
M  V30 6918 H 677.533 4.02163 -0.687666 0
M  V30 6919 H 676.208 3.74613 -1.8066 0
M  V30 6920 H 674.785 3.72892 0.0247827 0
M  V30 6921 N 676.97 0.677563 1.42291 0
M  V30 6922 C 677.9 0.014968 2.33495 0
M  V30 6923 C 678.881 -0.786376 1.50831 0
M  V30 6924 O 680.066 -0.742975 1.79426 0
M  V30 6925 C 677.196 -0.935023 3.34477 0
M  V30 6926 C 676.15 -0.242074 4.27315 0
M  V30 6927 C 675.476 -1.30519 5.18526 0
M  V30 6928 C 676.776 0.880604 5.14823 0
M  V30 6929 H 678.47 0.776671 2.89151 0
M  V30 6930 H 676.016 0.37494 1.39033 0
M  V30 6931 H 677.969 -1.40766 3.97194 0
M  V30 6932 H 676.693 -1.72818 2.77131 0
M  V30 6933 H 675.352 0.210351 3.65996 0
M  V30 6934 H 675 -2.09041 4.57505 0
M  V30 6935 H 674.7 -0.846652 5.81468 0
M  V30 6936 H 676.224 -1.7787 5.84119 0
M  V30 6937 H 677.638 0.489062 5.7121 0
M  V30 6938 H 676.035 1.26511 5.86613 0
M  V30 6939 H 677.105 1.72818 4.53059 0
M  V30 6940 N 678.448 -1.51871 0.421078 0
M  V30 6941 C 679.864 -1.59435 0.0725398 0
M  V30 6942 C 680.064 -1.43315 -1.41644 0
M  V30 6943 O 679.12 -1.26614 -2.18461 0
M  V30 6944 C 680.433 -2.9509 0.578132 0
M  V30 6945 C 681.981 -3.08356 0.537149 0
M  V30 6946 C 682.456 -4.4651 1.01945 0
M  V30 6947 N 683.947 -4.52784 0.976758 0
M  V30 6948 C 684.682 -5.57976 1.32099 0
M  V30 6949 N 684.178 -6.70664 1.73727 0
M  V30 6950 N 685.971 -5.48248 1.2402 0
M  V30 6951 H 678.122 -1.60595 1.39007 0
M  V30 6952 H 680.385 -0.756138 0.571803 0
M  V30 6953 H 680.091 -3.12205 1.61929 0
M  V30 6954 H 679.965 -3.772 -0.00578374 0
M  V30 6955 H 682.352 -2.90919 -0.494991 0
M  V30 6956 H 682.433 -2.28125 1.15727 0
M  V30 6957 H 682.077 -4.64692 2.04997 0
M  V30 6958 H 682.007 -5.25256 0.376023 0
M  V30 6959 H 684.498 -3.71898 0.670851 0
M  V30 6960 H 684.811 -7.46932 1.98274 0
M  V30 6961 H 683.156 -6.71914 1.77641 0
M  V30 6962 H 686.347 -4.59095 0.913756 0
M  V30 6963 H 686.52 -6.30119 1.51176 0
M  V30 6964 N 679.926 -0.151884 -1.56866 0
M  V30 6965 C 681.337 0.368128 -1.83035 0
M  V30 6966 C 681.688 1.64402 -1.07082 0
M  V30 6967 O 680.813 2.14056 -0.317647 0
M  V30 6968 C 681.408 0.674676 -3.32014 0
M  V30 6969 C 679.967 1.13919 -3.58747 0
M  V30 6970 C 679.114 0.164833 -2.7681 0
M  V30 6971 H 682.065 -0.376499 -1.54169 0
M  V30 6972 H 682.086 1.52883 -3.48435 0
M  V30 6973 H 681.598 -0.254113 -3.87267 0
M  V30 6974 H 679.699 2.08375 -3.08886 0
M  V30 6975 H 679.812 1.06179 -4.67186 0
M  V30 6976 H 678.176 0.658419 -2.46043 0
M  V30 6977 H 678.959 -0.757633 -3.34836 0
M  V30 6978 N 681.404 1.57128 0.121893 0
M  V30 6979 C 682.632 1.88883 0.844451 0
M  V30 6980 C 683.047 0.742824 1.73573 0
M  V30 6981 O 682.404 -0.286475 1.80238 0
M  V30 6982 C 682.455 3.20076 1.68029 0
M  V30 6983 O 682.176 4.30264 0.824898 0
M  V30 6984 C 683.677 3.65515 2.50826 0
M  V30 6985 H 680.897 0.62549 0.242907 0
M  V30 6986 H 683.441 2.04219 0.107151 0
M  V30 6987 H 681.596 3.06418 2.37038 0
M  V30 6988 H 682.01 5.05439 1.40113 0
M  V30 6989 H 683.484 4.60081 3.05008 0
M  V30 6990 H 683.961 2.92029 3.28048 0
M  V30 6991 H 684.567 3.81952 1.87064 0
M  V30 6992 N 682.882 -0.391992 1.52647 0
M  V30 6993 C 684.128 -1.139 1.67793 0
M  V30 6994 C 684.461 -1.89711 0.41514 0
M  V30 6995 O 683.736 -1.85431 -0.586979 0
M  V30 6996 C 684.019 -2.11966 2.91105 0
M  V30 6997 C 683.872 -1.39939 4.27478 0
M  V30 6998 C 685.191 -3.1243 3.09961 0
M  V30 6999 H 682.31 -0.412707 0.610608 0
M  V30 7000 H 684.952 -0.422725 1.85238 0
M  V30 7001 H 683.102 -2.73048 2.76364 0
M  V30 7002 H 684.774 -0.818439 4.53982 0
M  V30 7003 H 683.017 -0.701246 4.28095 0
M  V30 7004 H 683.688 -2.1158 5.09841 0
M  V30 7005 H 686.164 -2.61435 3.23714 0
M  V30 7006 H 685.04 -3.78294 3.97725 0
M  V30 7007 H 685.301 -3.81127 2.24042 0
M  V30 7008 N 684.36 -1.4356 -0.65026 0
M  V30 7009 C 685.588 -1.48779 -1.43779 0
M  V30 7010 C 686.003 -0.106593 -1.88499 0
M  V30 7011 O 685.36 0.883766 -1.59674 0
M  V30 7012 C 685.411 -2.43618 -2.67081 0
M  V30 7013 O 685.132 -3.76367 -2.24231 0
M  V30 7014 C 686.633 -2.5811 -3.60409 0
M  V30 7015 H 683.853 -0.50521 -0.441593 0
M  V30 7016 H 686.397 -1.88332 -0.796941 0
M  V30 7017 H 684.552 -2.07253 -3.273 0
M  V30 7018 H 684.966 -4.27394 -3.0403 0
M  V30 7019 H 686.44 -3.28539 -4.43583 0
M  V30 7020 H 686.917 -1.627 -4.07953 0
M  V30 7021 H 687.523 -2.95298 -3.0607 0
M  V30 7022 N 685.838 0.888903 -1.30139 0
M  V30 7023 C 687.063 1.67884 -1.21777 0
M  V30 7024 C 687.488 1.86848 0.216689 0
M  V30 7025 O 686.846 1.39659 1.15608 0
M  V30 7026 C 686.894 3.03483 -1.94757 0
M  V30 7027 O 685.998 3.92294 -1.27198 0
M  V30 7028 H 685.339 0.513144 -0.421402 0
M  V30 7029 H 687.869 1.10968 -1.71893 0
M  V30 7030 H 687.879 3.53553 -2.03627 0
M  V30 7031 H 686.554 2.89 -2.99085 0
M  V30 7032 H 685.131 3.50732 -1.26655 0
M  V30 7033 N 687.317 1.12792 1.10072 0
M  V30 7034 C 688.563 0.886857 1.82381 0
M  V30 7035 C 688.896 -0.58576 1.85155 0
M  V30 7036 O 688.171 -1.43317 1.31493 0
M  V30 7037 C 688.454 1.46703 3.28862 0
M  V30 7038 C 688.307 3.00829 3.34398 0
M  V30 7039 C 689.626 1.12971 4.25353 0
M  V30 7040 H 686.745 0.32362 0.662148 0
M  V30 7041 H 689.387 1.39513 1.28982 0
M  V30 7042 H 687.537 1.03476 3.74466 0
M  V30 7043 H 689.209 3.52764 2.97247 0
M  V30 7044 H 687.452 3.36164 2.74183 0
M  V30 7045 H 688.123 3.36519 4.3756 0
M  V30 7046 H 690.599 1.50313 3.88001 0
M  V30 7047 H 689.475 1.56223 5.26199 0
M  V30 7048 H 689.736 0.0424452 4.4208 0
M  V30 7049 N 688.795 -1.27931 0.920396 0
M  V30 7050 C 690.044 -1.93975 0.552867 0
M  V30 7051 C 690.357 -1.73193 -0.909035 0
M  V30 7052 O 691.563 -2.33515 -1.38502 0
M  V30 7053 C 690.019 -3.47463 0.937947 0
M  V30 7054 C 689.627 -3.77013 2.42003 0
M  V30 7055 C 691.371 -4.19628 0.64132 0
M  V30 7056 C 689.278 -5.23841 2.74489 0
M  V30 7057 H 688.208 -0.726146 0.203046 0
M  V30 7058 H 690.859 -1.45339 1.12022 0
M  V30 7059 H 689.241 -3.94867 0.299317 0
M  V30 7060 H 690.415 -3.40393 3.10595 0
M  V30 7061 H 688.73 -3.18035 2.6878 0
M  V30 7062 H 691.327 -5.27729 0.860622 0
M  V30 7063 H 691.67 -4.14164 -0.421168 0
M  V30 7064 H 692.203 -3.78022 1.23872 0
M  V30 7065 H 688.942 -5.34388 3.79618 0
M  V30 7066 H 688.462 -5.61634 2.1054 0
M  V30 7067 H 690.141 -5.91647 2.61845 0
M  V30 7068 N 690.273 -0.685099 -1.4193 0
M  V30 7069 C 691.684 -0.287699 -1.8447 0
M  V30 7070 C 692.035 1.17215 -1.57338 0
M  V30 7071 O 691.16 1.89856 -1.03845 0
M  V30 7072 C 691.755 -0.515385 -3.34857 0
M  V30 7073 C 690.314 -0.172006 -3.76007 0
M  V30 7074 C 689.461 -0.802808 -2.65425 0
M  V30 7075 H 692.412 -0.88652 -1.3163 0
M  V30 7076 H 692.433 0.229251 -3.79809 0
M  V30 7077 H 691.945 -1.57796 -3.54573 0
M  V30 7078 H 690.046 0.886716 -3.61895 0
M  V30 7079 H 690.159 -0.619717 -4.75075 0
M  V30 7080 H 688.523 -0.233267 -2.5363 0
M  V30 7081 H 689.306 -1.86904 -2.87961 0
M  V30 7082 N 691.751 1.51645 -0.429126 0
M  V30 7083 C 693.028 1.94579 0.199614 0
M  V30 7084 C 693.408 1.3673 1.60836 0
M  V30 7085 O 692.756 0.551062 2.21756 0
M  V30 7086 C 692.966 3.48506 0.185685 0
M  V30 7087 C 694.314 4.22756 0.395282 0
M  V30 7088 O 695.338 3.55219 0.264165 0
M  V30 7089 O 694.197 5.42555 0.655475 0
M  V30 7090 H 691.291 0.816007 0.134393 0
M  V30 7091 H 693.837 1.62577 -0.486513 0
M  V30 7092 H 692.609 3.83045 -0.799508 0
M  V30 7093 H 692.232 3.86927 0.91507 0
M  V30 7094 N 693.229 0.160201 1.56784 0
M  V30 7095 C 694.457 -0.494165 2.00912 0
M  V30 7096 C 694.872 -1.57548 1.04038 0
M  V30 7097 O 694.229 -1.82457 0.0394581 0
M  V30 7098 C 694.28 -1.08271 3.44905 0
M  V30 7099 O 694.001 -0.0445704 4.38077 0
M  V30 7100 C 695.502 -1.8164 4.04378 0
M  V30 7101 H 692.722 -0.127498 0.658776 0
M  V30 7102 H 695.266 0.258665 2.02858 0
M  V30 7103 H 693.421 -1.78609 3.4377 0
M  V30 7104 H 693.835 -0.477544 5.22322 0
M  V30 7105 H 695.309 -2.18094 5.07089 0
M  V30 7106 H 695.786 -2.70727 3.45838 0
M  V30 7107 H 696.392 -1.15969 4.09184 0
M  V30 7108 N 694.707 -1.5719 -0.113559 0
M  V30 7109 C 695.935 -1.89328 -0.834422 0
M  V30 7110 C 696.35 -0.752018 -1.73177 0
M  V30 7111 O 695.707 0.276912 -1.80387 0
M  V30 7112 C 695.758 -3.20962 -1.66329 0
M  V30 7113 O 695.479 -4.30695 -0.802069 0
M  V30 7114 C 696.98 -3.6684 -2.48884 0
M  V30 7115 H 694.2 -0.626769 -0.239587 0
M  V30 7116 H 696.744 -2.04273 -0.0963195 0
M  V30 7117 H 694.899 -3.0767 -2.35409 0
M  V30 7118 H 695.313 -5.06175 -1.37431 0
M  V30 7119 H 696.787 -4.61692 -3.02563 0
M  V30 7120 H 697.264 -2.93765 -3.26495 0
M  V30 7121 H 697.87 -3.82938 -1.85036 0
M  V30 7122 N 696.185 0.383891 -1.52853 0
M  V30 7123 C 697.095 1.49343 -1.80925 0
M  V30 7124 C 698.111 1.59458 -0.696348 0
M  V30 7125 O 699.287 1.75698 -0.984481 0
M  V30 7126 C 696.352 2.84819 -1.97684 0
M  V30 7127 C 695.413 2.84382 -3.21598 0
M  V30 7128 C 694.646 4.13397 -3.37548 0
M  V30 7129 O 694.869 5.08619 -2.58192 0
M  V30 7130 O 693.803 4.20325 -4.30826 0
M  V30 7131 H 697.629 1.2855 -2.75152 0
M  V30 7132 H 695.214 0.572229 -1.38007 0
M  V30 7133 H 697.096 3.65125 -2.10385 0
M  V30 7134 H 695.771 3.05627 -1.06647 0
M  V30 7135 H 694.678 2.0284 -3.14336 0
M  V30 7136 H 696.011 2.68526 -4.12498 0
M  V30 7137 N 697.663 1.43903 0.642637 0
M  V30 7138 C 698.626 1.49538 1.73698 0
M  V30 7139 C 699.626 0.378776 1.56275 0
M  V30 7140 O 700.816 0.64095 1.6198 0
M  V30 7141 C 697.948 1.35821 3.12675 0
M  V30 7142 H 699.141 2.47008 1.70079 0
M  V30 7143 H 696.694 1.30824 0.85526 0
M  V30 7144 H 697.429 0.393994 3.21898 0
M  V30 7145 H 697.214 2.16776 3.26727 0
M  V30 7146 H 698.704 1.4272 3.92455 0
M  V30 7147 N 699.141 -0.881989 1.30609 0
M  V30 7148 C 700.387 -1.63647 1.19781 0
M  V30 7149 C 700.72 -1.92632 -0.246265 0
M  V30 7150 O 699.995 -1.54938 -1.17577 0
M  V30 7151 C 700.278 -2.97437 2.02985 0
M  V30 7152 C 700.131 -2.75406 3.55628 0
M  V30 7153 C 701.45 -3.98397 1.86997 0
M  V30 7154 H 698.569 -0.593841 0.436488 0
M  V30 7155 H 701.211 -1.02041 1.60273 0
M  V30 7156 H 699.361 -3.50018 1.68581 0
M  V30 7157 H 701.033 -2.2959 4.00107 0
M  V30 7158 H 699.276 -2.09856 3.79662 0
M  V30 7159 H 699.947 -3.70552 4.09139 0
M  V30 7160 H 702.423 -3.54986 2.17081 0
M  V30 7161 H 701.299 -4.89916 2.47536 0
M  V30 7162 H 701.56 -4.3424 0.829943 0
M  V30 7163 N 700.619 -1.13374 -1.09472 0
M  V30 7164 C 701.844 -0.918711 -1.85942 0
M  V30 7165 C 702.269 0.527225 -1.8056 0
M  V30 7166 O 701.627 1.37408 -1.18274 0
M  V30 7167 C 701.675 -1.41056 -3.31867 0
M  V30 7168 O 700.779 -0.595496 -4.08078 0
M  V30 7169 H 700.12 -0.329297 -0.576593 0
M  V30 7170 H 702.65 -1.50829 -1.38245 0
M  V30 7171 H 702.66 -1.41398 -3.82715 0
M  V30 7172 H 701.335 -2.46335 -3.35099 0
M  V30 7173 H 699.912 -0.659911 -3.67014 0
M  V30 7174 N 702.098 1.27442 -0.927168 0
M  V30 7175 C 703.326 1.98498 -0.583622 0
M  V30 7176 C 703.741 1.69171 0.838241 0
M  V30 7177 O 703.098 0.951969 1.55704 0
M  V30 7178 C 703.149 3.52552 -0.799341 0
M  V30 7179 O 702.87 3.80851 -2.16527 0
M  V30 7180 C 704.371 4.4086 -0.464436 0
M  V30 7181 H 701.591 0.633487 -0.221213 0
M  V30 7182 H 704.135 1.62308 -1.24404 0
M  V30 7183 H 702.29 3.86955 -0.185728 0
M  V30 7184 H 702.704 4.75441 -2.21487 0
M  V30 7185 H 704.178 5.47967 -0.666075 0
M  V30 7186 H 704.655 4.35082 0.599995 0
M  V30 7187 H 705.261 4.11977 -1.05617 0
M  V30 7188 N 703.576 0.692616 1.41565 0
M  V30 7189 C 704.539 0.0344174 2.29174 0
M  V30 7190 C 705.539 -0.710961 1.44229 0
M  V30 7191 O 706.729 -0.546293 1.65412 0
M  V30 7192 C 703.861 -0.961682 3.27054 0
M  V30 7193 H 705.054 0.805755 2.88873 0
M  V30 7194 H 702.607 0.455947 1.49502 0
M  V30 7195 H 703.342 -1.76089 2.72329 0
M  V30 7196 H 703.127 -0.430375 3.89731 0
M  V30 7197 H 704.617 -1.4201 3.92712 0
M  V30 7198 N 705.054 -1.51416 0.437162 0
M  V30 7199 C 706.279 -2.0699 -0.130424 0
M  V30 7200 C 706.704 -1.30249 -1.35709 0
M  V30 7201 O 706.062 -0.340388 -1.78076 0
M  V30 7202 C 706.11 -3.5801 -0.43142 0
M  V30 7203 O 705.214 -3.8345 -1.5179 0
M  V30 7204 H 704.555 -0.663997 -0.00194339 0
M  V30 7205 H 707.085 -1.95029 0.618445 0
M  V30 7206 H 707.095 -4.02261 -0.681926 0
M  V30 7207 H 705.77 -4.13291 0.465137 0
M  V30 7208 H 704.347 -3.51062 -1.25737 0
M  V30 7209 N 706.532 -0.168513 -1.56696 0
M  V30 7210 C 707.76 0.483503 -2.01171 0
M  V30 7211 C 708.175 1.56994 -1.04872 0
M  V30 7212 O 707.532 1.82434 -0.0491337 0
M  V30 7213 C 707.583 1.0644 -3.45475 0
M  V30 7214 O 707.304 0.0213375 -4.38095 0
M  V30 7215 C 708.805 1.79493 -4.05336 0
M  V30 7216 H 706.025 0.124002 -0.659443 0
M  V30 7217 H 708.569 -0.269419 -2.02717 0
M  V30 7218 H 706.724 1.76784 -3.44712 0
M  V30 7219 H 707.138 0.449837 -5.22567 0
M  V30 7220 H 708.612 2.15401 -5.08238 0
M  V30 7221 H 709.089 2.68889 -3.47269 0
M  V30 7222 H 709.695 1.13798 -4.09793 0
M  V30 7223 N 708.01 1.57248 0.105221 0
M  V30 7224 C 709.256 1.85845 0.811753 0
M  V30 7225 C 709.589 0.756219 1.78871 0
M  V30 7226 O 708.864 -0.236736 1.93054 0
M  V30 7227 C 709.147 3.25059 1.54947 0
M  V30 7228 C 709 4.45898 0.591185 0
M  V30 7229 C 710.319 3.6203 2.50245 0
M  V30 7230 H 707.438 0.675973 0.293649 0
M  V30 7231 H 710.08 1.89849 0.0756269 0
M  V30 7232 H 708.23 3.21776 2.17698 0
M  V30 7233 H 709.902 4.61291 -0.0285352 0
M  V30 7234 H 708.145 4.33693 -0.0962343 0
M  V30 7235 H 708.816 5.40009 1.1443 0
M  V30 7236 H 711.292 3.66192 1.97593 0
M  V30 7237 H 710.168 4.60389 2.98886 0
M  V30 7238 H 710.429 2.90176 3.33542 0
M  V30 7239 N 709.488 -0.375779 1.53054 0
M  V30 7240 C 710.451 -1.44254 1.7811 0
M  V30 7241 C 711.451 -1.47018 0.651328 0
M  V30 7242 O 712.641 -1.47957 0.919472 0
M  V30 7243 C 709.773 -2.8345 1.89391 0
M  V30 7244 H 710.966 -1.23316 2.73374 0
M  V30 7245 H 708.519 -0.608312 1.43977 0
M  V30 7246 H 709.254 -3.09716 0.961589 0
M  V30 7247 H 709.039 -2.82844 2.71555 0
M  V30 7248 H 710.529 -3.60722 2.10404 0
M  V30 7249 N 710.966 -1.44241 -0.634997 0
M  V30 7250 C 712.215 -1.46102 -1.39058 0
M  V30 7251 C 712.528 -0.0959909 -1.95364 0
M  V30 7252 O 713.734 0.00788751 -2.71499 0
M  V30 7253 C 712.19 -2.57195 -2.51751 0
M  V30 7254 C 711.798 -3.99888 -2.01974 0
M  V30 7255 C 713.542 -2.68272 -3.28984 0
M  V30 7256 C 711.449 -5.02412 -3.11987 0
M  V30 7257 H 710.379 -0.543556 -0.522554 0
M  V30 7258 H 713.03 -1.70294 -0.683538 0
M  V30 7259 H 711.412 -2.26237 -3.25012 0
M  V30 7260 H 712.586 -4.40396 -1.35604 0
M  V30 7261 H 710.901 -3.93019 -1.37568 0
M  V30 7262 H 713.498 -3.42042 -4.10988 0
M  V30 7263 H 713.841 -1.73957 -3.78212 0
M  V30 7264 H 714.374 -2.98622 -2.62812 0
M  V30 7265 H 711.113 -5.98342 -2.67707 0
M  V30 7266 H 710.633 -4.66501 -3.77011 0
M  V30 7267 H 712.312 -5.25939 -3.76825 0
M  V30 7268 N 712.444 0.87505 -1.31075 0
M  V30 7269 C 713.855 1.4433 -1.18431 0
M  V30 7270 C 714.206 1.9506 0.211189 0
M  V30 7271 O 713.331 1.85847 1.10859 0
M  V30 7272 C 713.926 2.62341 -2.14389 0
M  V30 7273 C 712.485 3.15225 -2.05694 0
M  V30 7274 C 711.632 1.87929 -2.03907 0
M  V30 7275 H 714.583 0.684061 -1.432 0
M  V30 7276 H 714.604 3.3887 -1.73053 0
M  V30 7277 H 714.116 2.25388 -3.15946 0
M  V30 7278 H 712.217 3.56812 -1.07314 0
M  V30 7279 H 712.33 3.77853 -2.94558 0
M  V30 7280 H 710.694 2.06679 -1.48849 0
M  V30 7281 H 711.477 1.53221 -3.07211 0
M  V30 7282 N 713.922 1.13953 1.08869 0
M  V30 7283 C 714.87 0.817664 2.17754 0
M  V30 7284 C 715.864 -0.202444 1.68186 0
M  V30 7285 O 717.07 -0.0590159 1.79903 0
M  V30 7286 H 713.445 0.246671 0.710392 0
M  V30 7287 H 715.416 1.74401 2.4213 0
M  V30 7288 C 714.165 0.3063 3.46348 0
M  V30 7289 H 713.488 1.08259 3.84864 0
M  V30 7290 H 714.928 0.119584 4.23831 0
M  V30 7291 C 713.387 -0.969158 3.22659 0
M  V30 7292 O 713.917 -2.04386 3.45817 0
M  V30 7293 N 712.123 -0.902516 2.7623 0
M  V30 7294 H 711.67 -0.027801 2.57585 0
M  V30 7295 H 711.628 -1.75649 2.60758 0
M  V30 7296 N 715.4 -1.26948 0.933913 0
M  V30 7297 C 716.649 -1.93378 0.573409 0
M  V30 7298 C 716.962 -1.74148 -0.890614 0
M  V30 7299 O 718.168 -2.34971 -1.36017 0
M  V30 7300 C 716.624 -3.46449 0.974747 0
M  V30 7301 C 716.232 -3.74425 2.45988 0
M  V30 7302 C 717.976 -4.18924 0.685791 0
M  V30 7303 C 715.883 -5.209 2.8003 0
M  V30 7304 H 714.813 -0.723952 0.210736 0
M  V30 7305 H 717.464 -1.44143 1.13557 0
M  V30 7306 H 715.846 -3.94528 0.341181 0
M  V30 7307 H 717.02 -3.37079 3.14188 0
M  V30 7308 H 715.335 -3.15167 2.72138 0
M  V30 7309 H 717.932 -5.26786 0.916546 0
M  V30 7310 H 718.275 -4.14587 -0.377217 0
M  V30 7311 H 718.808 -3.76687 1.27874 0
M  V30 7312 H 715.547 -5.30332 3.85264 0
M  V30 7313 H 715.067 -5.59369 2.16485 0
M  V30 7314 H 716.746 -5.88837 2.68105 0
M  V30 7315 N 716.879 -0.700114 -1.41195 0
M  V30 7316 C 717.809 -0.0521132 -2.33442 0
M  V30 7317 C 718.79 0.76228 -1.52063 0
M  V30 7318 O 719.975 0.714336 -1.80585 0
M  V30 7319 C 717.105 0.881693 -3.35922 0
M  V30 7320 C 716.059 0.174062 -4.27646 0
M  V30 7321 C 715.385 1.22254 -5.20536 0
M  V30 7322 C 716.685 -0.962396 -5.13357 0
M  V30 7323 H 718.379 -0.822574 -2.87879 0
M  V30 7324 H 715.925 -0.397011 -1.38419 0
M  V30 7325 H 717.878 1.34429 -3.99383 0
M  V30 7326 H 716.602 1.68387 -2.79845 0
M  V30 7327 H 715.261 -0.268551 -3.65615 0
M  V30 7328 H 714.909 2.01736 -4.60773 0
M  V30 7329 H 714.609 0.754038 -5.82742 0
M  V30 7330 H 716.133 1.68555 -5.86874 0
M  V30 7331 H 717.547 -0.579875 -5.7036 0
M  V30 7332 H 715.944 -1.35828 -5.84526 0
M  V30 7333 H 717.014 -1.80003 -4.50252 0
M  V30 7334 N 718.357 1.51182 -0.445186 0
M  V30 7335 C 719.582 2.07056 0.119445 0
M  V30 7336 C 720.007 1.30966 1.35016 0
M  V30 7337 O 719.365 0.349827 1.77893 0
M  V30 7338 C 719.413 3.58234 0.412428 0
M  V30 7339 O 718.517 3.84249 1.49754 0
M  V30 7340 H 717.858 0.663998 -0.00157797 0
M  V30 7341 H 720.388 1.94699 -0.628779 0
M  V30 7342 H 720.398 4.02617 0.660583 0
M  V30 7343 H 719.073 4.13038 -0.487049 0
M  V30 7344 H 717.65 3.51724 1.23873 0
M  V30 7345 N 719.835 0.176821 1.56605 0
M  V30 7346 C 721.083 -0.465793 1.96659 0
M  V30 7347 C 721.404 -1.63406 1.06412 0
M  V30 7348 O 720.674 -1.95457 0.131603 0
M  V30 7349 H 719.254 -0.175072 0.726195 0
M  V30 7350 H 721.916 0.25929 1.93168 0
M  V30 7351 H 721.012 -0.822138 3.01077 0
M  V30 7352 N 721.313 -1.57302 -0.09688 0
M  V30 7353 C 722.541 -1.90202 -0.814295 0
M  V30 7354 C 722.956 -0.770344 -1.72369 0
M  V30 7355 O 722.313 0.257764 -1.8067 0
M  V30 7356 C 722.364 -3.22708 -1.62916 0
M  V30 7357 O 722.085 -4.31522 -0.756343 0
M  V30 7358 C 723.586 -3.69459 -2.44979 0
M  V30 7359 H 720.806 -0.629275 -0.232925 0
M  V30 7360 H 723.35 -2.04364 -0.0746482 0
M  V30 7361 H 721.505 -3.1015 -2.32133 0
M  V30 7362 H 721.919 -5.07604 -1.32054 0
M  V30 7363 H 723.393 -4.64875 -2.9765 0
M  V30 7364 H 723.87 -2.97211 -3.23361 0
M  V30 7365 H 724.476 -3.84879 -1.80964 0
M  V30 7366 N 722.791 0.367657 -1.53252 0
M  V30 7367 C 724.016 1.13566 -1.73544 0
M  V30 7368 C 724.441 1.82329 -0.462344 0
M  V30 7369 O 723.799 1.71655 0.583472 0
M  V30 7370 C 723.847 2.14322 -2.89997 0
M  V30 7371 O 722.951 3.21359 -2.58461 0
M  V30 7372 H 722.292 0.329614 -0.576412 0
M  V30 7373 H 724.822 0.425417 -2.00128 0
M  V30 7374 H 724.832 2.57958 -3.16104 0
M  V30 7375 H 723.507 1.63664 -3.82344 0
M  V30 7376 H 722.084 2.8271 -2.43165 0
M  V30 7377 N 724.269 1.44576 0.627338 0
M  V30 7378 C 725.494 1.51271 1.41887 0
M  V30 7379 C 725.919 0.139814 1.8758 0
M  V30 7380 O 725.277 -0.871746 1.58966 0
M  V30 7381 C 725.325 2.48529 2.61277 0
M  V30 7382 O 724.429 1.98944 3.61241 0
M  V30 7383 H 723.77 0.510668 0.424399 0
M  V30 7384 H 726.3 1.89746 0.765356 0
M  V30 7385 H 726.31 2.66689 3.08773 0
M  V30 7386 H 724.985 3.48249 2.27366 0
M  V30 7387 H 723.562 1.90568 3.20528 0
M  V30 7388 N 725.747 -0.868086 1.31537 0
M  V30 7389 C 726.972 -1.65926 1.24432 0
M  V30 7390 C 727.397 -1.87169 -0.186936 0
M  V30 7391 O 726.755 -1.4148 -1.13371 0
M  V30 7392 C 726.803 -3.00347 1.9956 0
M  V30 7393 O 725.907 -3.90221 1.33422 0
M  V30 7394 H 725.248 -0.506375 0.429512 0
M  V30 7395 H 727.778 -1.0822 1.73637 0
M  V30 7396 H 727.788 -3.50269 2.09226 0
M  V30 7397 H 726.463 -2.84205 3.03645 0
M  V30 7398 H 725.04 -3.48672 1.32219 0
M  V30 7399 N 727.225 -1.14528 -1.08264 0
M  V30 7400 C 728.455 -0.936604 -1.8415 0
M  V30 7401 C 728.863 0.518298 -1.81962 0
M  V30 7402 O 728.206 1.37096 -1.22272 0
M  V30 7403 C 728.268 -1.36182 -3.32708 0
M  V30 7404 C 727.932 -2.83257 -3.58629 0
M  V30 7405 C 728.929 -3.81366 -3.5335 0
M  V30 7406 C 726.614 -3.20704 -3.86593 0
M  V30 7407 C 728.608 -5.14929 -3.75668 0
M  V30 7408 C 726.295 -4.54443 -4.08564 0
M  V30 7409 C 727.293 -5.51365 -4.03095 0
M  V30 7410 O 726.981 -6.8269 -4.24488 0
M  V30 7411 H 726.713 -0.333254 -0.588148 0
M  V30 7412 H 729.267 -1.5247 -1.3763 0
M  V30 7413 H 727.497 -0.717063 -3.79994 0
M  V30 7414 H 729.186 -1.12372 -3.90035 0
M  V30 7415 H 729.952 -3.53781 -3.31759 0
M  V30 7416 H 725.831 -2.45857 -3.89969 0
M  V30 7417 H 729.375 -5.90568 -3.71315 0
M  V30 7418 H 725.272 -4.81747 -4.29639 0
M  V30 7419 H 726.04 -6.8897 -4.41886 0
M  V30 7420 N 728.703 1.26451 -0.940633 0
M  V30 7421 C 729.635 2.25556 -0.407104 0
M  V30 7422 C 730.648 1.55888 0.469324 0
M  V30 7423 O 731.837 1.76292 0.279858 0
M  V30 7424 C 728.937 3.36109 0.434064 0
M  V30 7425 C 728.11 4.3532 -0.426082 0
M  V30 7426 C 727.169 5.25004 0.354563 0
M  V30 7427 O 726.195 5.68684 -0.242219 0
M  V30 7428 N 727.397 5.5652 1.65123 0
M  V30 7429 H 730.162 2.7197 -1.25907 0
M  V30 7430 H 727.723 1.40212 -0.809456 0
M  V30 7431 H 729.715 3.93059 0.963684 0
M  V30 7432 H 728.285 2.89194 1.18683 0
M  V30 7433 H 727.505 3.77449 -1.13692 0
M  V30 7434 H 728.793 4.986 -1.01366 0
M  V30 7435 H 728.191 5.22912 2.15822 0
M  V30 7436 H 726.748 6.16115 2.12711 0
M  V30 7437 N 730.181 0.707592 1.40822 0
M  V30 7438 C 731.592 0.317011 1.83989 0
M  V30 7439 C 731.943 -1.14697 1.59182 0
M  V30 7440 O 731.068 -1.8818 1.06852 0
M  V30 7441 C 731.663 0.568593 3.33995 0
M  V30 7442 C 730.222 0.231804 3.75686 0
M  V30 7443 C 729.369 0.844933 2.64114 0
M  V30 7444 H 732.32 0.907349 1.30203 0
M  V30 7445 H 732.341 -0.168798 3.80125 0
M  V30 7446 H 731.853 1.63417 3.52018 0
M  V30 7447 H 729.954 -0.82903 3.6326 0
M  V30 7448 H 730.067 0.695219 4.74029 0
M  V30 7449 H 728.431 0.273588 2.53226 0
M  V30 7450 H 729.214 1.91462 2.84951 0
M  V30 7451 N 731.66 -1.50943 0.453197 0
M  V30 7452 C 732.909 -2.01402 -0.10951 0
M  V30 7453 C 733.222 -1.3411 -1.42386 0
M  V30 7454 O 734.428 -1.75626 -2.07045 0
M  V30 7455 C 732.884 -3.5906 -0.245693 0
M  V30 7456 C 732.492 -4.353 1.05916 0
M  V30 7457 C 734.236 -4.17617 -0.761318 0
M  V30 7458 C 732.143 -5.84699 0.887752 0
M  V30 7459 H 731.073 -0.752674 -0.0447013 0
M  V30 7460 H 733.724 -1.73913 0.585375 0
M  V30 7461 H 732.106 -3.83062 -1.00395 0
M  V30 7462 H 733.28 -4.23034 1.82698 0
M  V30 7463 H 731.595 -3.88269 1.50452 0
M  V30 7464 H 734.192 -5.26963 -0.906306 0
M  V30 7465 H 734.535 -3.77824 -1.74799 0
M  V30 7466 H 735.068 -3.97753 -0.0609416 0
M  V30 7467 H 731.807 -6.28933 1.84726 0
M  V30 7468 H 731.327 -5.99587 0.160006 0
M  V30 7469 H 733.006 -6.44682 0.547223 0
M  V30 7470 N 733.138 -0.185124 -1.56509 0
M  V30 7471 C 734.07 0.771401 -2.15829 0
M  V30 7472 C 735.083 1.18392 -1.11747 0
M  V30 7473 O 736.272 1.12137 -1.38879 0
M  V30 7474 C 733.372 2.05169 -2.69739 0
M  V30 7475 C 732.545 1.80056 -3.98621 0
M  V30 7476 C 731.604 2.92435 -4.37456 0
M  V30 7477 O 730.63 2.62473 -5.05071 0
M  V30 7478 N 731.832 4.20554 -4.00143 0
M  V30 7479 H 734.597 0.264184 -2.98533 0
M  V30 7480 H 732.158 -0.00281069 -1.619 0
M  V30 7481 H 734.15 2.7947 -2.92709 0
M  V30 7482 H 732.72 2.47041 -1.91545 0
M  V30 7483 H 731.94 0.895862 -3.83885 0
M  V30 7484 H 733.228 1.60662 -4.82768 0
M  V30 7485 H 732.626 4.47753 -3.45736 0
M  V30 7486 H 731.183 4.91514 -4.28085 0
M  V30 7487 N 734.616 1.57351 0.0885366 0
M  V30 7488 C 736.027 1.75303 0.642308 0
M  V30 7489 C 736.378 0.808238 1.78779 0
M  V30 7490 O 735.503 -0.01171 2.16397 0
M  V30 7491 C 736.098 3.17885 1.17194 0
M  V30 7492 C 734.657 3.37239 1.67172 0
M  V30 7493 C 733.804 2.7108 0.584045 0
M  V30 7494 H 736.755 1.58103 -0.137567 0
M  V30 7495 H 736.776 3.2112 2.04114 0
M  V30 7496 H 736.288 3.86625 0.338024 0
M  V30 7497 H 734.389 2.73588 2.52943 0
M  V30 7498 H 734.502 4.45594 1.76019 0
M  V30 7499 H 732.866 2.33161 1.02508 0
M  V30 7500 H 733.649 3.42464 -0.239403 0
M  V30 7501 N 736.094 -0.359525 1.53444 0
M  V30 7502 C 737.041 -1.44073 1.8031 0
M  V30 7503 C 738.011 -1.52946 0.647811 0
M  V30 7504 O 739.196 -1.68739 0.890614 0
M  V30 7505 C 736.336 -2.80941 2.00416 0
M  V30 7506 C 735.449 -2.80986 3.28132 0
M  V30 7507 C 734.584 -4.09468 3.38393 0
M  V30 7508 C 733.623 -4.03679 4.60119 0
M  V30 7509 N 732.76 -5.23821 4.675 0
M  V30 7510 H 737.6 -1.20464 2.72566 0
M  V30 7511 H 735.137 -0.583859 1.35017 0
M  V30 7512 H 737.095 -3.60459 2.1006 0
M  V30 7513 H 735.725 -3.02936 1.11489 0
M  V30 7514 H 734.777 -1.93666 3.27411 0
M  V30 7515 H 736.089 -2.72583 4.17732 0
M  V30 7516 H 735.243 -4.97404 3.47382 0
M  V30 7517 H 733.982 -4.20632 2.4682 0
M  V30 7518 H 732.987 -3.14129 4.51224 0
M  V30 7519 H 734.212 -3.94112 5.5304 0
M  V30 7520 H 732.158 -5.35559 3.7883 0
M  V30 7521 H 732.075 -5.17611 5.51013 0
M  V30 7522 H 733.343 -6.13572 4.8078 0
M  V30 7523 N 737.572 -1.44907 -0.619662 0
M  V30 7524 C 738.849 -1.38766 -1.37852 0
M  V30 7525 C 739.229 -0.0521393 -2.11036 0
M  V30 7526 O 738.577 0.965613 -2.07095 0
M  V30 7527 C 738.787 -2.59344 -2.33541 0
M  V30 7528 C 740.135 -3.03909 -2.96521 0
M  V30 7529 O 741.159 -2.59631 -2.43865 0
M  V30 7530 O 740.018 -3.80713 -3.92071 0
M  V30 7531 H 737.112 -0.550083 -0.617525 0
M  V30 7532 H 739.658 -1.57015 -0.643759 0
M  V30 7533 H 738.43 -3.48142 -1.78642 0
M  V30 7534 H 738.053 -2.43367 -3.14417 0
M  V30 7535 N 739.05 0.861098 -1.31996 0
M  V30 7536 C 740.297 1.61481 -1.22188 0
M  V30 7537 C 740.625 1.93276 0.217853 0
M  V30 7538 O 739.88 1.56942 1.16909 0
M  V30 7539 C 740.179 2.94822 -2.02027 0
M  V30 7540 C 739.845 2.82483 -3.51446 0
M  V30 7541 C 738.507 2.78825 -3.92186 0
M  V30 7542 C 740.859 2.68878 -4.46491 0
M  V30 7543 C 738.187 2.59433 -5.26224 0
M  V30 7544 C 740.539 2.51022 -5.80664 0
M  V30 7545 C 739.203 2.45753 -6.20614 0
M  V30 7546 H 738.473 0.590902 -0.447119 0
M  V30 7547 H 741.12 0.999376 -1.63355 0
M  V30 7548 H 739.425 3.6045 -1.53569 0
M  V30 7549 H 741.122 3.52149 -1.91812 0
M  V30 7550 H 737.712 2.86152 -3.19085 0
M  V30 7551 H 741.896 2.70754 -4.1594 0
M  V30 7552 H 737.152 2.53784 -5.5624 0
M  V30 7553 H 741.326 2.39473 -6.53931 0
M  V30 7554 H 738.953 2.30485 -7.24417 0
M  V30 7555 N 740.528 1.15101 1.07655 0
M  V30 7556 C 741.478 0.813448 2.12995 0
M  V30 7557 C 742.462 -0.200899 1.59641 0
M  V30 7558 O 743.654 -0.00209918 1.77 0
M  V30 7559 C 740.783 0.301078 3.41977 0
M  V30 7560 C 739.869 1.3454 4.02194 0
M  V30 7561 N 740.26 2.55181 4.36711 0
M  V30 7562 C 738.558 1.19742 4.29625 0
M  V30 7563 C 739.259 3.22094 4.84387 0
M  V30 7564 N 738.235 2.49486 4.82968 0
M  V30 7565 H 742.037 1.73105 2.37511 0
M  V30 7566 H 739.551 1.03601 1.25063 0
M  V30 7567 H 741.548 0.040914 4.1688 0
M  V30 7568 H 740.208 -0.610629 3.18907 0
M  V30 7569 H 741.219 2.92349 4.27496 0
M  V30 7570 H 737.896 0.345353 4.16069 0
M  V30 7571 H 739.286 4.24996 5.20411 0
M  V30 7572 N 742.006 -1.2595 0.947325 0
M  V30 7573 C 742.956 -2.23859 0.432547 0
M  V30 7574 C 743.94 -1.53755 -0.474154 0
M  V30 7575 O 745.132 -1.74293 -0.308397 0
M  V30 7576 C 742.261 -3.42027 -0.295318 0
M  V30 7577 C 741.347 -4.19409 0.62903 0
M  V30 7578 N 741.738 -4.74284 1.7575 0
M  V30 7579 C 740.036 -4.43866 0.435805 0
M  V30 7580 C 740.737 -5.32821 2.33401 0
M  V30 7581 N 739.713 -5.18858 1.62135 0
M  V30 7582 H 743.515 -2.63886 1.29388 0
M  V30 7583 H 741.029 -1.41105 0.80393 0
M  V30 7584 H 743.026 -4.11297 -0.681188 0
M  V30 7585 H 741.686 -3.03526 -1.15334 0
M  V30 7586 H 742.697 -4.71641 2.13952 0
M  V30 7587 H 739.374 -4.15768 -0.37994 0
M  V30 7588 H 740.764 -5.86111 3.28517 0
M  V30 7589 N 743.484 -0.715051 -1.40445 0
M  V30 7590 C 744.434 -0.038591 -2.27967 0
M  V30 7591 C 745.418 0.733099 -1.43229 0
M  V30 7592 O 746.61 0.605388 -1.66325 0
M  V30 7593 C 743.739 0.882801 -3.31755 0
M  V30 7594 C 742.825 0.106325 -4.23967 0
M  V30 7595 N 743.216 -0.910143 -4.97544 0
M  V30 7596 C 741.514 0.33896 -4.4471 0
M  V30 7597 C 742.215 -1.37665 -5.65175 0
M  V30 7598 N 741.191 -0.698905 -5.39088 0
M  V30 7599 H 744.993 -0.81765 -2.82297 0
M  V30 7600 H 742.507 -0.547591 -1.5289 0
M  V30 7601 H 744.504 1.38273 -3.93302 0
M  V30 7602 H 743.164 1.66124 -2.78985 0
M  V30 7603 H 744.175 -1.29097 -5.01552 0
M  V30 7604 H 740.852 1.09377 -4.02918 0
M  V30 7605 H 742.242 -2.22122 -6.34123 0
M  V30 7606 N 744.962 1.50701 -0.461195 0
M  V30 7607 C 745.912 2.25195 0.35653 0
M  V30 7608 C 746.896 1.2838 0.96992 0
M  V30 7609 O 748.088 1.53338 0.884108 0
M  V30 7610 C 745.217 3.11471 1.44364 0
M  V30 7611 C 744.303 4.15729 0.83847 0
M  V30 7612 N 744.694 5.05788 -0.0353198 0
M  V30 7613 C 742.992 4.32133 1.1035 0
M  V30 7614 C 743.693 5.80472 -0.37774 0
M  V30 7615 N 742.669 5.43049 0.24463 0
M  V30 7616 H 746.471 2.92188 -0.316746 0
M  V30 7617 H 743.985 1.60059 -0.274725 0
M  V30 7618 H 745.982 3.63436 2.04255 0
M  V30 7619 H 744.642 2.46025 2.11901 0
M  V30 7620 H 745.653 5.16326 -0.403465 0
M  V30 7621 H 742.33 3.77908 1.77458 0
M  V30 7622 H 743.72 6.62996 -1.09024 0
M  V30 7623 N 746.441 0.193421 1.56409 0
M  V30 7624 C 747.688 -0.445789 1.97532 0
M  V30 7625 C 748.016 -1.61744 1.08024 0
M  V30 7626 O 747.271 -1.95338 0.118982 0
M  V30 7627 C 747.57 -0.949718 3.44551 0
M  V30 7628 C 747.236 0.108383 4.5077 0
M  V30 7629 C 745.898 0.399126 4.79542 0
M  V30 7630 C 748.25 0.825423 5.14622 0
M  V30 7631 C 745.578 1.41192 5.69457 0
M  V30 7632 C 747.93 1.82735 6.05632 0
M  V30 7633 C 746.594 2.12531 6.32761 0
M  V30 7634 H 745.864 -0.163126 0.722822 0
M  V30 7635 H 748.511 0.290035 1.89291 0
M  V30 7636 H 746.816 -1.76378 3.49854 0
M  V30 7637 H 748.513 -1.45367 3.73724 0
M  V30 7638 H 745.103 -0.128392 4.28408 0
M  V30 7639 H 749.287 0.61403 4.92487 0
M  V30 7640 H 744.543 1.6487 5.88751 0
M  V30 7641 H 748.717 2.3882 6.5417 0
M  V30 7642 H 746.344 2.91155 7.02234 0
M  V30 7643 N 747.919 -1.57396 -0.0801906 0
M  V30 7644 C 749.33 -1.75642 -0.633002 0
M  V30 7645 C 749.681 -0.817708 -1.78348 0
M  V30 7646 O 748.806 0.000233743 -2.164 0
M  V30 7647 C 749.401 -3.18502 -1.15507 0
M  V30 7648 C 747.96 -3.38121 -1.65381 0
M  V30 7649 C 747.107 -2.71386 -0.569661 0
M  V30 7650 H 750.058 -1.58027 0.145949 0
M  V30 7651 H 750.079 -3.22198 -2.02408 0
M  V30 7652 H 749.591 -3.86799 -0.317515 0
M  V30 7653 H 747.692 -2.74926 -2.51488 0
M  V30 7654 H 747.805 -4.46521 -1.73654 0
M  V30 7655 H 746.169 -2.33702 -1.0127 0
M  V30 7656 H 746.952 -3.42332 0.257561 0
M  V30 7657 N 749.397 0.351382 -1.53633 0
M  V30 7658 C 750.674 1.10903 -1.6112 0
M  V30 7659 C 751.054 2.06725 -0.427556 0
M  V30 7660 O 750.402 2.20992 0.580916 0
M  V30 7661 C 750.612 1.83561 -2.96827 0
M  V30 7662 C 751.96 2.37587 -3.51906 0
M  V30 7663 O 752.984 1.93669 -2.9895 0
M  V30 7664 O 751.843 3.17913 -4.44515 0
M  V30 7665 H 748.937 0.509558 -0.651368 0
M  V30 7666 H 751.483 0.353504 -1.65977 0
M  V30 7667 H 750.255 1.1371 -3.74414 0
M  V30 7668 H 749.878 2.6599 -2.95525 0
M  V30 7669 N 750.875 1.45233 0.611969 0
M  V30 7670 C 751.808 1.48056 1.73651 0
M  V30 7671 C 752.786 0.337373 1.59061 0
M  V30 7672 O 753.97 0.537222 1.80683 0
M  V30 7673 C 751.097 1.33144 3.11433 0
M  V30 7674 C 750.143 2.51272 3.44623 0
M  V30 7675 S 750.976 4.13754 3.39953 0
M  V30 7676 C 752.132 4.013 4.80322 0
M  V30 7677 H 752.365 2.43205 1.70993 0
M  V30 7678 H 749.898 1.32763 0.788246 0
M  V30 7679 H 751.856 1.25228 3.90932 0
M  V30 7680 H 750.517 0.394734 3.1161 0
M  V30 7681 H 749.71 2.36753 4.44932 0
M  V30 7682 H 749.312 2.56027 2.72629 0
M  V30 7683 H 751.604 3.66174 5.7002 0
M  V30 7684 H 752.547 5.01506 4.99897 0
M  V30 7685 H 752.955 3.3303 4.55797 0
M  V30 7686 N 752.353 -0.854086 1.3245 0
M  V30 7687 C 753.263 -1.99503 1.23434 0
M  V30 7688 C 754.279 -1.73371 0.147828 0
M  V30 7689 O 755.455 -1.97998 0.368609 0
M  V30 7690 C 752.52 -3.33192 0.958328 0
M  V30 7691 C 751.581 -3.72542 2.13333 0
M  V30 7692 C 750.814 -4.99852 1.8704 0
M  V30 7693 O 751.037 -5.64573 0.813239 0
M  V30 7694 O 749.971 -5.36345 2.73161 0
M  V30 7695 H 753.797 -2.10046 2.1935 0
M  V30 7696 H 751.382 -0.984823 1.12346 0
M  V30 7697 H 753.264 -4.13327 0.820918 0
M  V30 7698 H 751.939 -3.23687 0.0293299 0
M  V30 7699 H 750.846 -2.92981 2.32622 0
M  V30 7700 H 752.179 -3.86694 3.04514 0
M  V30 7701 N 753.831 -1.1567 -1.07043 0
M  V30 7702 C 755.08 -0.928039 -1.79082 0
M  V30 7703 C 755.393 0.545968 -1.87826 0
M  V30 7704 O 756.599 0.892308 -2.56418 0
M  V30 7705 C 755.055 -1.61103 -3.21829 0
M  V30 7706 C 754.663 -3.12228 -3.21275 0
M  V30 7707 C 756.407 -1.46404 -3.98455 0
M  V30 7708 C 754.314 -3.733 -4.58695 0
M  V30 7709 H 753.244 -0.34357 -0.671175 0
M  V30 7710 H 755.895 -1.38718 -1.20123 0
M  V30 7711 H 754.277 -1.07958 -3.81 0
M  V30 7712 H 755.451 -3.72155 -2.71731 0
M  V30 7713 H 753.766 -3.26725 -2.58147 0
M  V30 7714 H 756.363 -1.8942 -5.00024 0
M  V30 7715 H 756.706 -0.41195 -4.14257 0
M  V30 7716 H 757.239 -1.96663 -3.45787 0
M  V30 7717 H 753.978 -4.78423 -4.48098 0
M  V30 7718 H 753.498 -3.18157 -5.08465 0
M  V30 7719 H 755.177 -3.7441 -5.27661 0
M  V30 7720 N 755.309 1.25446 -0.953992 0
M  V30 7721 C 756.556 1.93143 -0.608429 0
M  V30 7722 C 756.884 1.74727 0.854451 0
M  V30 7723 O 756.139 1.0855 1.62836 0
M  V30 7724 C 756.438 3.45555 -0.912496 0
M  V30 7725 C 756.104 3.84126 -2.36131 0
M  V30 7726 C 754.766 3.94367 -2.75732 0
M  V30 7727 C 757.118 4.0324 -3.30223 0
M  V30 7728 C 754.446 4.21127 -4.08496 0
M  V30 7729 C 756.798 4.31493 -4.62598 0
M  V30 7730 C 755.462 4.3995 -5.01996 0
M  V30 7731 H 754.732 0.706762 -0.22264 0
M  V30 7732 H 757.379 1.49005 -1.20291 0
M  V30 7733 H 755.684 3.91091 -0.235618 0
M  V30 7734 H 757.381 3.9612 -0.623714 0
M  V30 7735 H 753.971 3.76711 -2.04418 0
M  V30 7736 H 758.155 3.94744 -3.00817 0
M  V30 7737 H 753.411 4.2589 -4.38665 0
M  V30 7738 H 757.585 4.45227 -5.35486 0
M  V30 7739 H 755.212 4.60439 -6.04896 0
M  V30 7740 N 756.787 0.722489 1.40064 0
M  V30 7741 C 757.717 0.0892452 2.33329 0
M  V30 7742 C 758.698 -0.737992 1.53257 0
M  V30 7743 O 759.883 -0.685516 1.81698 0
M  V30 7744 C 757.013 -0.828139 3.37282 0
M  V30 7745 C 755.967 -0.106005 4.27869 0
M  V30 7746 C 755.293 -1.13957 5.22415 0
M  V30 7747 C 756.593 1.04395 5.11761 0
M  V30 7748 H 758.287 0.868269 2.86534 0
M  V30 7749 H 755.833 0.418982 1.3777 0
M  V30 7750 H 757.786 -1.28058 4.01471 0
M  V30 7751 H 756.51 -1.63914 2.82489 0
M  V30 7752 H 755.169 0.326683 3.65142 0
M  V30 7753 H 754.817 -1.9438 4.63924 0
M  V30 7754 H 754.517 -0.661233 5.83868 0
M  V30 7755 H 756.041 -1.59197 5.89482 0
M  V30 7756 H 757.455 0.670541 5.69365 0
M  V30 7757 H 755.852 1.4511 5.82291 0
M  V30 7758 H 756.922 1.87144 4.47331 0
M  V30 7759 N 758.265 -1.50454 0.469181 0
M  V30 7760 C 759.681 -1.59124 0.123226 0
M  V30 7761 C 759.881 -1.47749 -1.37013 0
M  V30 7762 O 758.937 -1.335 -2.14322 0
M  V30 7763 C 760.25 -2.93101 0.67172 0
M  V30 7764 C 761.798 -3.06491 0.634978 0
M  V30 7765 C 762.273 -4.43041 1.16098 0
M  V30 7766 N 763.764 -4.49448 1.12031 0
M  V30 7767 C 764.499 -5.53491 1.49784 0
M  V30 7768 N 763.995 -6.64798 1.94976 0
M  V30 7769 N 765.788 -5.44025 1.41399 0
M  V30 7770 H 757.939 -1.56091 1.44046 0
M  V30 7771 H 760.202 -0.737564 0.59557 0
M  V30 7772 H 759.908 -3.06895 1.7178 0
M  V30 7773 H 759.782 -3.77027 0.114222 0
M  V30 7774 H 762.169 -2.92346 -0.402187 0
M  V30 7775 H 762.25 -2.24328 1.22926 0
M  V30 7776 H 761.894 -4.57935 2.19677 0
M  V30 7777 H 761.824 -5.23794 0.542939 0
M  V30 7778 H 764.315 -3.69575 0.788828 0
M  V30 7779 H 764.628 -7.40246 2.21936 0
M  V30 7780 H 762.973 -6.65923 1.98927 0
M  V30 7781 H 766.164 -4.55955 1.05935 0
M  V30 7782 H 766.337 -6.2499 1.71147 0
M  V30 7783 N 759.743 -0.201713 -1.56304 0
M  V30 7784 C 761.159 0.154025 -1.58855 0
M  V30 7785 C 761.359 1.60516 -1.21807 0
M  V30 7786 O 760.415 2.34193 -0.94393 0
M  V30 7787 C 761.728 -0.154319 -3.00304 0
M  V30 7788 C 763.276 -0.0949578 -3.12856 0
M  V30 7789 C 763.751 -0.376703 -4.56448 0
M  V30 7790 N 765.242 -0.325558 -4.62054 0
M  V30 7791 C 765.977 -0.51732 -5.71062 0
M  V30 7792 N 765.473 -0.769789 -6.8851 0
M  V30 7793 N 767.266 -0.45112 -5.60287 0
M  V30 7794 H 759.417 -1.14858 -1.78666 0
M  V30 7795 H 761.68 -0.458934 -0.829508 0
M  V30 7796 H 761.386 -1.16074 -3.31994 0
M  V30 7797 H 761.26 0.540014 -3.73314 0
M  V30 7798 H 763.647 0.902075 -2.80974 0
M  V30 7799 H 763.728 -0.822468 -2.42217 0
M  V30 7800 H 763.372 -1.37108 -4.89044 0
M  V30 7801 H 763.302 0.371772 -5.25286 0
M  V30 7802 H 765.793 -0.137308 -3.7765 0
M  V30 7803 H 766.106 -0.904744 -7.67486 0
M  V30 7804 H 764.451 -0.806758 -6.90302 0
M  V30 7805 H 767.642 -0.254253 -4.67409 0
M  V30 7806 H 767.815 -0.603982 -6.45179 0
M  V30 7807 N 761.222 1.57436 0.0718424 0
M  V30 7808 C 762.469 1.87248 0.771007 0
M  V30 7809 C 762.797 0.793441 1.7758 0
M  V30 7810 O 762.052 -0.210565 1.94564 0
M  V30 7811 C 762.351 3.23723 1.51455 0
M  V30 7812 C 762.017 4.46194 0.649736 0
M  V30 7813 C 760.679 4.79438 0.411409 0
M  V30 7814 C 763.031 5.21176 0.05004 0
M  V30 7815 C 760.359 5.85077 -0.436096 0
M  V30 7816 C 762.711 6.27712 -0.784919 0
M  V30 7817 C 761.375 6.59457 -1.03312 0
M  V30 7818 H 760.645 0.685188 0.282132 0
M  V30 7819 H 763.292 1.91474 0.0317896 0
M  V30 7820 H 761.597 3.15287 2.32597 0
M  V30 7821 H 763.294 3.44023 2.06031 0
M  V30 7822 H 759.884 4.20175 0.84562 0
M  V30 7823 H 764.068 4.95806 0.221282 0
M  V30 7824 H 759.324 6.08071 -0.637136 0
M  V30 7825 H 763.498 6.84974 -1.25635 0
M  V30 7826 H 761.125 7.4114 -1.6916 0
M  V30 7827 N 762.7 -0.34323 1.53817 0
M  V30 7828 C 763.663 -1.40444 1.8113 0
M  V30 7829 C 764.663 -1.45604 0.682366 0
M  V30 7830 O 765.853 -1.45974 0.950649 0
M  V30 7831 C 762.985 -2.79369 1.95361 0
M  V30 7832 H 764.178 -1.17489 2.75928 0
M  V30 7833 H 761.731 -0.577636 1.45234 0
M  V30 7834 H 762.466 -3.07607 1.02707 0
M  V30 7835 H 762.251 -2.7702 2.77493 0
M  V30 7836 H 763.741 -3.56178 2.18008 0
M  V30 7837 N 764.178 -1.45556 -0.604258 0
M  V30 7838 C 765.126 -1.5482 -1.7359 0
M  V30 7839 C 766.12 -0.417966 -1.64163 0
M  V30 7840 O 767.326 -0.594007 -1.69916 0
M  V30 7841 H 763.701 -0.486352 -0.573556 0
M  V30 7842 H 765.672 -2.5001 -1.62903 0
M  V30 7843 C 764.421 -1.53521 -3.11972 0
M  V30 7844 H 763.744 -2.39818 -3.19886 0
M  V30 7845 H 765.184 -1.64061 -3.90973 0
M  V30 7846 C 763.643 -0.260191 -3.35894 0
M  V30 7847 O 764.173 0.658582 -3.96265 0
M  V30 7848 N 762.379 -0.154839 -2.90187 0
M  V30 7849 H 761.926 -0.903378 -2.4124 0
M  V30 7850 H 761.884 0.697437 -3.06567 0
M  V30 7851 N 765.656 0.84705 -1.32902 0
M  V30 7852 C 766.566 1.98845 -1.2449 0
M  V30 7853 C 767.582 1.7329 -0.15702 0
M  V30 7854 O 768.758 1.978 -0.379104 0
M  V30 7855 C 765.823 3.32679 -0.975985 0
M  V30 7856 C 764.884 3.71405 -2.15306 0
M  V30 7857 C 764.117 4.98853 -1.89688 0
M  V30 7858 O 764.34 5.64134 -0.843168 0
M  V30 7859 O 763.274 5.34889 -2.76002 0
M  V30 7860 H 767.1 2.0888 -2.2046 0
M  V30 7861 H 764.685 0.978852 -1.12867 0
M  V30 7862 H 766.567 4.12885 -0.842826 0
M  V30 7863 H 765.242 3.23667 -0.0464954 0
M  V30 7864 H 764.149 2.91743 -2.34172 0
M  V30 7865 H 765.482 3.85073 -3.06561 0
M  V30 7866 N 767.134 1.16236 1.06428 0
M  V30 7867 C 768.364 0.965782 1.82637 0
M  V30 7868 C 768.772 -0.489284 1.82764 0
M  V30 7869 O 768.115 -1.35133 1.24438 0
M  V30 7870 C 768.177 1.41458 3.30499 0
M  V30 7871 C 767.841 2.88926 3.54077 0
M  V30 7872 C 768.838 3.86939 3.47238 0
M  V30 7873 C 766.523 3.26814 3.81442 0
M  V30 7874 C 768.517 5.20841 3.67428 0
M  V30 7875 C 766.204 4.60886 4.01282 0
M  V30 7876 C 767.202 5.57708 3.94272 0
M  V30 7877 O 766.89 6.89357 4.13573 0
M  V30 7878 H 766.622 0.342569 0.582772 0
M  V30 7879 H 769.176 1.54641 1.35187 0
M  V30 7880 H 767.406 0.777426 3.78805 0
M  V30 7881 H 769.095 1.18563 3.88198 0
M  V30 7882 H 769.861 3.59014 3.26089 0
M  V30 7883 H 765.74 2.5203 3.86008 0
M  V30 7884 H 769.284 5.96401 3.61873 0
M  V30 7885 H 765.181 4.88522 4.21921 0
M  V30 7886 H 765.949 6.95913 4.30869 0
M  V30 7887 N 768.612 -1.24939 0.960631 0
M  V30 7888 C 770.023 -1.74701 0.658529 0
M  V30 7889 C 770.374 -1.77967 -0.825959 0
M  V30 7890 O 769.499 -1.40444 -1.64634 0
M  V30 7891 C 770.094 -3.17263 1.18867 0
M  V30 7892 C 768.653 -3.64561 0.936614 0
M  V30 7893 C 767.8 -2.43423 1.32817 0
M  V30 7894 H 770.751 -1.10741 1.13676 0
M  V30 7895 H 770.772 -3.76481 0.551589 0
M  V30 7896 H 770.284 -3.14854 2.26912 0
M  V30 7897 H 768.385 -3.72378 -0.128608 0
M  V30 7898 H 768.498 -4.52392 1.57729 0
M  V30 7899 H 766.862 -2.43513 0.746548 0
M  V30 7900 H 767.645 -2.437 2.41796 0
M  V30 7901 N 770.09 -0.729906 -1.39679 0
M  V30 7902 C 771.038 -0.0756589 -2.32477 0
M  V30 7903 C 772.032 0.731438 -1.52795 0
M  V30 7904 O 773.238 0.633195 -1.68495 0
M  V30 7905 H 769.613 -0.00566492 -0.751979 0
M  V30 7906 H 771.584 -0.874797 -2.85289 0
M  V30 7907 C 770.333 0.821313 -3.37861 0
M  V30 7908 H 769.656 0.209666 -3.9925 0
M  V30 7909 H 771.096 1.24679 -4.05254 0
M  V30 7910 C 769.555 1.9533 -2.74495 0
M  V30 7911 O 770.085 3.04548 -2.61942 0
M  V30 7912 N 768.291 1.74119 -2.3266 0
M  V30 7913 H 767.838 0.852908 -2.4307 0
M  V30 7914 H 767.796 2.50036 -1.90603 0
M  V30 7915 N 771.568 1.50203 -0.477153 0
M  V30 7916 C 772.817 2.01551 0.0774548 0
M  V30 7917 C 773.13 1.36359 1.40234 0
M  V30 7918 O 774.336 1.78898 2.04225 0
M  V30 7919 C 772.792 3.59406 0.188539 0
M  V30 7920 C 772.4 4.3356 -1.12828 0
M  V30 7921 C 774.144 4.18776 0.694782 0
M  V30 7922 C 772.051 5.83213 -0.98066 0
M  V30 7923 H 770.981 0.75329 0.0327212 0
M  V30 7924 H 773.632 1.72959 -0.612969 0
M  V30 7925 H 772.014 3.84611 0.942881 0
M  V30 7926 H 773.188 4.20074 -1.89405 0
M  V30 7927 H 771.503 3.85827 -1.5661 0
M  V30 7928 H 774.1 5.28338 0.822356 0
M  V30 7929 H 774.443 3.80557 1.68766 0
M  V30 7930 H 774.976 3.978 -0.00234519 0
M  V30 7931 H 771.715 6.25914 -1.94709 0
M  V30 7932 H 771.235 5.99256 -0.255375 0
M  V30 7933 H 772.914 6.4373 -0.649717 0
M  V30 7934 N 773.046 0.209999 1.56195 0
M  V30 7935 C 774.274 -0.429996 2.02382 0
M  V30 7936 C 774.689 -1.54159 1.08998 0
M  V30 7937 O 774.046 -1.82239 0.0974856 0
M  V30 7938 C 774.097 -0.972433 3.48175 0
M  V30 7939 O 773.818 0.0948231 4.37997 0
M  V30 7940 C 775.319 -1.68683 4.09952 0
M  V30 7941 H 772.539 -0.106475 0.662498 0
M  V30 7942 H 775.083 0.323072 2.01932 0
M  V30 7943 H 773.238 -1.67582 3.49278 0
M  V30 7944 H 773.652 -0.31113 5.23576 0
M  V30 7945 H 775.126 -2.01851 5.13771 0
M  V30 7946 H 775.603 -2.59587 3.54276 0
M  V30 7947 H 776.209 -1.02893 4.12666 0
M  V30 7948 N 774.524 -1.57472 -0.0634922 0
M  V30 7949 C 775.94 -1.54016 -0.418466 0
M  V30 7950 C 776.14 -0.931376 -1.78683 0
M  V30 7951 O 775.196 -0.537465 -2.46714 0
M  V30 7952 C 776.509 -2.98634 -0.351906 0
M  V30 7953 C 778.057 -3.10012 -0.431494 0
M  V30 7954 C 778.532 -4.56296 -0.394754 0
M  V30 7955 N 780.023 -4.60964 -0.454583 0
M  V30 7956 C 780.758 -5.71643 -0.448501 0
M  V30 7957 N 780.254 -6.91663 -0.396742 0
M  V30 7958 N 782.047 -5.5991 -0.495677 0
M  V30 7959 H 774.198 -1.95409 0.832408 0
M  V30 7960 H 776.461 -0.894769 0.313197 0
M  V30 7961 H 776.167 -3.46766 0.587048 0
M  V30 7962 H 776.041 -3.58955 -1.15893 0
M  V30 7963 H 778.428 -2.61848 -1.36087 0
M  V30 7964 H 778.509 -2.52585 0.404258 0
M  V30 7965 H 778.153 -5.05119 0.530811 0
M  V30 7966 H 778.083 -5.11594 -1.24815 0
M  V30 7967 H 780.574 -3.74598 -0.498496 0
M  V30 7968 H 780.887 -7.71783 -0.396256 0
M  V30 7969 H 779.232 -6.9405 -0.363304 0
M  V30 7970 H 782.423 -4.65046 -0.533864 0
M  V30 7971 H 782.596 -6.46164 -0.487469 0
M  V30 7972 N 776.003 0.335068 -1.53997 0
M  V30 7973 C 776.933 1.41727 -1.85568 0
M  V30 7974 C 777.914 1.54505 -0.7115 0
M  V30 7975 O 779.099 1.68573 -0.964191 0
M  V30 7976 C 776.229 2.7866 -2.07282 0
M  V30 7977 C 775.183 2.80682 -3.23112 0
M  V30 7978 C 774.509 4.20581 -3.30175 0
M  V30 7979 C 775.809 2.45458 -4.61029 0
M  V30 7980 H 777.503 1.15555 -2.76202 0
M  V30 7981 H 775.049 0.554445 -1.32898 0
M  V30 7982 H 777.002 3.54423 -2.27952 0
M  V30 7983 H 775.726 3.06286 -1.13387 0
M  V30 7984 H 774.385 2.07373 -3.02311 0
M  V30 7985 H 774.033 4.4533 -2.33859 0
M  V30 7986 H 773.733 4.22843 -4.08016 0
M  V30 7987 H 775.257 4.98174 -3.53066 0
M  V30 7988 H 776.671 3.10934 -4.81656 0
M  V30 7989 H 775.068 2.5899 -5.41336 0
M  V30 7990 H 776.138 1.40628 -4.6406 0
M  V30 7991 N 777.481 1.45874 0.596531 0
M  V30 7992 C 778.711 1.5379 1.37958 0
M  V30 7993 C 779.119 0.173086 1.88407 0
M  V30 7994 O 778.462 -0.837498 1.63498 0
M  V30 7995 C 778.524 2.47044 2.61169 0
M  V30 7996 C 778.188 3.93565 2.32283 0
M  V30 7997 C 779.185 4.83162 1.91965 0
M  V30 7998 C 776.87 4.38579 2.44854 0
M  V30 7999 C 778.864 6.15782 1.64593 0
M  V30 8000 C 776.551 5.71238 2.17095 0
M  V30 8001 C 777.549 6.59659 1.77028 0
M  V30 8002 O 777.237 7.89857 1.49601 0
M  V30 8003 H 776.969 0.523 0.428307 0
M  V30 8004 H 779.523 1.91855 0.733529 0
M  V30 8005 H 777.753 2.0397 3.28532 0
M  V30 8006 H 779.442 2.4552 3.23226 0
M  V30 8007 H 780.208 4.49646 1.8178 0
M  V30 8008 H 776.087 3.6999 2.75006 0
M  V30 8009 H 779.631 6.84757 1.33245 0
M  V30 8010 H 775.528 6.04306 2.26901 0
M  V30 8011 H 776.296 8.01991 1.63561 0
M  V30 8012 N 778.959 -0.83999 1.33349 0
M  V30 8013 C 780.184 -1.63249 1.27924 0
M  V30 8014 C 780.609 -1.87523 -0.147193 0
M  V30 8015 O 779.967 -1.43853 -1.10345 0
M  V30 8016 C 780.015 -2.96046 2.05886 0
M  V30 8017 O 779.119 -3.87303 1.4167 0
M  V30 8018 H 778.46 -0.49715 0.440157 0
M  V30 8019 H 780.99 -1.04512 1.75893 0
M  V30 8020 H 781 -3.45752 2.16609 0
M  V30 8021 H 779.675 -2.77701 3.09605 0
M  V30 8022 H 778.252 -3.45789 1.39585 0
M  V30 8023 N 780.437 -1.16799 -1.0581 0
M  V30 8024 C 781.367 -0.902241 -2.15364 0
M  V30 8025 C 782.348 0.153351 -1.69407 0
M  V30 8026 O 783.533 0.00442032 -1.94199 0
M  V30 8027 C 780.663 -0.407911 -3.44896 0
M  V30 8028 C 779.617 -1.40197 -4.04387 0
M  V30 8029 C 778.943 -0.765848 -5.29187 0
M  V30 8030 C 780.243 -2.77316 -4.42598 0
M  V30 8031 H 781.937 -1.81841 -2.37853 0
M  V30 8032 H 779.483 -0.875731 -1.14311 0
M  V30 8033 H 781.436 -0.20945 -4.20879 0
M  V30 8034 H 780.16 0.54378 -3.22041 0
M  V30 8035 H 778.819 -1.58707 -3.30466 0
M  V30 8036 H 778.467 0.192482 -5.02632 0
M  V30 8037 H 778.167 -1.42939 -5.69949 0
M  V30 8038 H 779.691 -0.577519 -6.07863 0
M  V30 8039 H 781.105 -2.62561 -5.09642 0
M  V30 8040 H 779.502 -3.4019 -4.94359 0
M  V30 8041 H 780.572 -3.32199 -3.53231 0
M  V30 8042 N 781.915 1.24427 -0.967243 0
M  V30 8043 C 783.163 1.92107 -0.627638 0
M  V30 8044 C 783.484 1.75991 0.83978 0
M  V30 8045 O 782.754 1.13118 1.59941 0
M  V30 8046 H 781.334 0.710986 -0.229145 0
M  V30 8047 H 783.996 1.51331 -1.22821 0
M  V30 8048 H 783.092 2.99791 -0.867844 0
M  V30 8049 N 783.393 0.737304 1.3929 0
M  V30 8050 C 784.34 0.0988364 2.30588 0
M  V30 8051 C 785.31 -0.727206 1.49335 0
M  V30 8052 O 786.495 -0.686694 1.78014 0
M  V30 8053 C 783.635 -0.800734 3.35682 0
M  V30 8054 C 782.748 0.0381731 4.31983 0
M  V30 8055 C 781.883 -0.862884 5.24145 0
M  V30 8056 C 780.922 -0.0193639 6.12097 0
M  V30 8057 N 780.059 -0.87648 6.96608 0
M  V30 8058 H 784.899 0.883031 2.84617 0
M  V30 8059 H 782.436 0.447111 1.4014 0
M  V30 8060 H 784.394 -1.33676 3.95205 0
M  V30 8061 H 783.024 -1.55088 2.83103 0
M  V30 8062 H 782.076 0.691641 3.74059 0
M  V30 8063 H 783.388 0.690294 4.94 0
M  V30 8064 H 782.542 -1.46667 5.88705 0
M  V30 8065 H 781.281 -1.54878 4.62454 0
M  V30 8066 H 780.286 0.597202 5.46547 0
M  V30 8067 H 781.511 0.663348 6.75852 0
M  V30 8068 H 779.457 -1.54762 6.37483 0
M  V30 8069 H 779.374 -0.280892 7.55478 0
M  V30 8070 H 780.642 -1.46575 7.65595 0
M  V30 8071 N 784.871 -1.49948 0.485112 0
M  V30 8072 C 786.096 -2.073 -0.0645059 0
M  V30 8073 C 786.521 -1.345 -1.31497 0
M  V30 8074 O 785.879 -0.39687 -1.76903 0
M  V30 8075 C 785.927 -3.59201 -0.317304 0
M  V30 8076 O 785.031 -3.88085 -1.39514 0
M  V30 8077 H 784.372 -0.663723 0.0191822 0
M  V30 8078 H 786.902 -1.92963 0.680179 0
M  V30 8079 H 786.912 -4.04227 -0.553604 0
M  V30 8080 H 785.587 -4.11602 0.596387 0
M  V30 8081 H 784.164 -3.54885 -1.14504 0
M  V30 8082 N 786.349 -0.21828 -1.56081 0
M  V30 8083 C 787.595 0.414921 -1.9851 0
M  V30 8084 C 787.928 1.59648 -1.10573 0
M  V30 8085 O 787.203 1.93818 -0.162695 0
M  V30 8086 C 787.486 0.852647 -3.4986 0
M  V30 8087 C 787.339 -0.33232 -4.48571 0
M  V30 8088 C 788.658 1.70998 -4.05521 0
M  V30 8089 H 785.777 0.149344 -0.72171 0
M  V30 8090 H 788.419 -0.313858 -1.8739 0
M  V30 8091 H 786.569 1.47362 -3.59467 0
M  V30 8092 H 788.241 -0.970418 -4.50977 0
M  V30 8093 H 786.484 -0.980302 -4.22578 0
M  V30 8094 H 787.155 0.0168407 -5.51997 0
M  V30 8095 H 789.631 1.18606 -3.98838 0
M  V30 8096 H 788.507 1.98517 -5.11744 0
M  V30 8097 H 788.768 2.67219 -3.52202 0
M  V30 8098 N 787.827 1.57504 0.0551401 0
M  V30 8099 C 788.737 2.08198 1.08124 0
M  V30 8100 C 789.753 1.01496 1.41331 0
M  V30 8101 O 790.929 1.33073 1.51174 0
M  V30 8102 C 787.994 2.52968 2.37083 0
M  V30 8103 C 787.055 3.7404 2.10696 0
M  V30 8104 C 786.288 4.16665 3.33505 0
M  V30 8105 O 786.511 3.59019 4.4324 0
M  V30 8106 O 785.445 5.09324 3.20737 0
M  V30 8107 H 789.271 2.95977 0.680518 0
M  V30 8108 H 786.856 1.46933 0.270401 0
M  V30 8109 H 788.738 2.82211 3.12946 0
M  V30 8110 H 787.413 1.6831 2.76502 0
M  V30 8111 H 786.32 3.49855 1.32484 0
M  V30 8112 H 787.653 4.59601 1.76148 0
M  V30 8113 N 789.305 -0.326896 1.54172 0
M  V30 8114 C 790.53 -1.08924 1.76494 0
M  V30 8115 C 790.955 -1.81039 0.510523 0
M  V30 8116 O 790.313 -1.73141 -0.537756 0
M  V30 8117 C 790.361 -2.06558 2.95578 0
M  V30 8118 O 789.465 -3.14394 2.6689 0
M  V30 8119 H 788.806 -0.314216 0.584948 0
M  V30 8120 H 791.336 -0.372207 2.01186 0
M  V30 8121 H 791.346 -2.49487 3.22832 0
M  V30 8122 H 790.021 -1.53469 3.86549 0
M  V30 8123 H 788.598 -2.76164 2.50576 0
M  V30 8124 N 790.784 -1.46188 -0.588786 0
M  V30 8125 C 792.2 -1.31009 -0.911524 0
M  V30 8126 C 792.4 -0.277017 -1.99587 0
M  V30 8127 O 791.456 0.322532 -2.50432 0
M  V30 8128 C 792.769 -2.69459 -1.33463 0
M  V30 8129 C 794.317 -2.77502 -1.44782 0
M  V30 8130 C 794.792 -4.1652 -1.90461 0
M  V30 8131 N 796.283 -4.18907 -1.97665 0
M  V30 8132 C 797.018 -5.23359 -2.34271 0
M  V30 8133 N 796.514 -6.38143 -2.69714 0
M  V30 8134 N 798.307 -5.10723 -2.34774 0
M  V30 8135 H 790.458 -2.12016 0.127614 0
M  V30 8136 H 792.721 -0.947984 -0.00557599 0
M  V30 8137 H 792.427 -3.46336 -0.611929 0
M  V30 8138 H 792.301 -2.99165 -2.2974 0
M  V30 8139 H 794.688 -2.00917 -2.1614 0
M  V30 8140 H 794.769 -2.51488 -0.467724 0
M  V30 8141 H 794.413 -4.93597 -1.19684 0
M  V30 8142 H 794.343 -4.39937 -2.89418 0
M  V30 8143 H 796.834 -3.36084 -1.72789 0
M  V30 8144 H 797.147 -7.13624 -2.96582 0
M  V30 8145 H 795.492 -6.41514 -2.67366 0
M  V30 8146 H 798.683 -4.20088 -2.06503 0
M  V30 8147 H 798.856 -5.9224 -2.62975 0
M  V30 8148 N 792.262 0.832906 -1.33792 0
M  V30 8149 C 793.172 1.97514 -1.26592 0
M  V30 8150 C 794.188 1.73114 -0.175391 0
M  V30 8151 O 795.364 1.97387 -0.400062 0
M  V30 8152 C 792.429 3.31625 -1.01121 0
M  V30 8153 C 791.49 3.69101 -2.19233 0
M  V30 8154 C 790.723 4.96813 -1.94968 0
M  V30 8155 O 790.946 5.63208 -0.902955 0
M  V30 8156 O 789.88 5.31932 -2.8166 0
M  V30 8157 H 793.706 2.0653 -2.22664 0
M  V30 8158 H 791.291 0.966826 -1.13898 0
M  V30 8159 H 793.173 4.11968 -0.886571 0
M  V30 8160 H 791.848 3.23599 -0.080822 0
M  V30 8161 H 790.755 2.89243 -2.37253 0
M  V30 8162 H 792.088 3.818 -3.10628 0
M  V30 8163 N 793.74 1.17359 1.05189 0
M  V30 8164 C 794.67 0.91365 2.14883 0
M  V30 8165 C 795.651 -0.144365 1.69486 0
M  V30 8166 O 796.836 0.00587861 1.94199 0
M  V30 8167 C 793.966 0.426196 3.44675 0
M  V30 8168 C 792.92 1.4234 4.03638 0
M  V30 8169 C 792.246 0.793902 5.28773 0
M  V30 8170 C 793.546 2.7966 4.41121 0
M  V30 8171 H 795.24 1.831 2.36885 0
M  V30 8172 H 792.786 0.881781 1.13845 0
M  V30 8173 H 794.739 0.231767 4.20762 0
M  V30 8174 H 793.463 -0.526693 3.22325 0
M  V30 8175 H 792.122 1.60457 3.2962 0
M  V30 8176 H 791.77 -0.165824 5.02727 0
M  V30 8177 H 791.47 1.45959 5.69183 0
M  V30 8178 H 792.994 0.609747 6.07548 0
M  V30 8179 H 794.408 2.6526 5.08242 0
M  V30 8180 H 792.805 3.42807 4.92548 0
M  V30 8181 H 793.875 3.34068 3.51464 0
M  V30 8182 N 795.218 -1.23913 0.973828 0
M  V30 8183 C 796.448 -1.95911 0.655938 0
M  V30 8184 C 796.856 -1.72375 -0.779967 0
M  V30 8185 O 796.199 -1.00807 -1.5357 0
M  V30 8186 C 796.261 -3.49103 0.858324 0
M  V30 8187 C 795.925 -3.96347 2.27504 0
M  V30 8188 C 796.922 -4.05537 3.25324 0
M  V30 8189 C 794.607 -4.29509 2.60437 0
M  V30 8190 C 796.601 -4.47233 4.5416 0
M  V30 8191 C 794.288 -4.70887 3.89498 0
M  V30 8192 C 795.286 -4.79714 4.86172 0
M  V30 8193 O 794.974 -5.20166 6.1293 0
M  V30 8194 H 794.706 -0.630721 0.243244 0
M  V30 8195 H 797.26 -1.58534 1.30599 0
M  V30 8196 H 795.49 -3.86405 0.151097 0
M  V30 8197 H 797.179 -4.02311 0.538592 0
M  V30 8198 H 797.945 -3.80128 3.0121 0
M  V30 8199 H 793.824 -4.21853 1.85906 0
M  V30 8200 H 797.368 -4.54038 5.29618 0
M  V30 8201 H 793.265 -4.95744 4.1341 0
M  V30 8202 H 794.033 -5.38298 6.16586 0
M  V30 8203 N 796.696 -0.74468 -1.38897 0
M  V30 8204 C 797.942 -0.297324 -2.00609 0
M  V30 8205 C 798.275 1.11547 -1.58968 0
M  V30 8206 O 797.55 1.76227 -0.823057 0
M  V30 8207 C 797.833 -0.410125 -3.57757 0
M  V30 8208 C 797.686 -1.86338 -4.09387 0
M  V30 8209 C 799.005 0.20176 -4.39637 0
M  V30 8210 H 796.124 -0.109509 -0.728819 0
M  V30 8211 H 798.766 -0.942653 -1.64967 0
M  V30 8212 H 796.916 0.139287 -3.8825 0
M  V30 8213 H 798.588 -2.47042 -3.89574 0
M  V30 8214 H 796.831 -2.38146 -3.62586 0
M  V30 8215 H 797.502 -1.89352 -5.18507 0
M  V30 8216 H 799.978 -0.266703 -4.15244 0
M  V30 8217 H 798.854 0.0925415 -5.48822 0
M  V30 8218 H 799.115 1.289 -4.22891 0
M  V30 8219 N 798.174 1.49689 -0.493057 0
M  V30 8220 C 799.107 2.25712 0.336062 0
M  V30 8221 C 800.085 1.29953 0.977294 0
M  V30 8222 O 801.269 1.59225 1.00895 0
M  V30 8223 C 798.396 3.0501 1.47263 0
M  V30 8224 C 797.442 4.15863 0.946575 0
M  V30 8225 S 798.275 5.35272 -0.156323 0
M  V30 8226 C 799.431 6.18123 0.983601 0
M  V30 8227 H 799.664 2.95688 -0.309215 0
M  V30 8228 H 797.197 1.51872 -0.278238 0
M  V30 8229 H 799.155 3.51284 2.12391 0
M  V30 8230 H 797.816 2.34519 2.08949 0
M  V30 8231 H 797.009 4.70834 1.7981 0
M  V30 8232 H 796.611 3.72139 0.372647 0
M  V30 8233 H 798.903 6.50588 1.89056 0
M  V30 8234 H 799.846 7.06521 0.472687 0
M  V30 8235 H 800.254 5.50547 1.24735 0
M  V30 8236 N 799.652 0.226554 1.55963 0
M  V30 8237 C 800.562 -0.692725 2.24139 0
M  V30 8238 C 801.578 -1.20971 1.25068 0
M  V30 8239 O 802.754 -1.25027 1.57893 0
M  V30 8240 C 799.819 -1.88183 2.91184 0
M  V30 8241 C 798.88 -1.40633 4.05612 0
M  V30 8242 C 798.113 -2.53875 4.6945 0
M  V30 8243 O 798.336 -3.72129 4.32292 0
M  V30 8244 O 797.27 -2.24792 5.58348 0
M  V30 8245 H 801.096 -0.141921 3.03368 0
M  V30 8246 H 798.681 -0.0041049 1.49399 0
M  V30 8247 H 800.563 -2.57617 3.33484 0
M  V30 8248 H 799.238 -2.42064 2.14911 0
M  V30 8249 H 798.145 -0.67986 3.67871 0
M  V30 8250 H 799.478 -0.913838 4.83642 0
M  V30 8251 N 801.13 -1.57531 -0.0467866 0
M  V30 8252 C 802.379 -1.87632 -0.740069 0
M  V30 8253 C 802.692 -0.822691 -1.77457 0
M  V30 8254 O 803.898 -1.01235 -2.5192 0
M  V30 8255 C 802.354 -3.32917 -1.36727 0
M  V30 8256 C 801.962 -4.46469 -0.370035 0
M  V30 8257 C 803.706 -3.72189 -2.04146 0
M  V30 8258 C 801.613 -5.82806 -1.00457 0
M  V30 8259 H 800.543 -0.70002 -0.280158 0
M  V30 8260 H 803.194 -1.83499 0.00607151 0
M  V30 8261 H 801.576 -3.31739 -2.16252 0
M  V30 8262 H 802.75 -4.59085 0.397217 0
M  V30 8263 H 801.065 -4.15914 0.201079 0
M  V30 8264 H 803.662 -4.71357 -2.52441 0
M  V30 8265 H 804.005 -3.03268 -2.85192 0
M  V30 8266 H 804.538 -3.75465 -1.3142 0
M  V30 8267 H 801.277 -6.55083 -0.233907 0
M  V30 8268 H 800.797 -5.73944 -1.74209 0
M  V30 8269 H 802.476 -6.28961 -1.51713 0
M  V30 8270 N 802.608 0.318715 -1.54344 0
M  V30 8271 C 803.833 1.07987 -1.77069 0
M  V30 8272 C 804.258 1.80766 -0.520117 0
M  V30 8273 O 803.616 1.73424 0.528566 0
M  V30 8274 C 803.664 2.04987 -2.96669 0
M  V30 8275 O 802.768 3.12974 -2.68554 0
M  V30 8276 H 802.109 0.311109 -0.586606 0
M  V30 8277 H 804.639 0.361533 -2.0138 0
M  V30 8278 H 804.649 2.47771 -3.2415 0
M  V30 8279 H 803.324 1.51417 -3.87357 0
M  V30 8280 H 801.901 2.74831 -2.52037 0
M  V30 8281 N 804.086 1.46499 0.581025 0
M  V30 8282 C 805.363 1.42372 1.34125 0
M  V30 8283 C 805.743 0.108073 2.10823 0
M  V30 8284 O 805.091 -0.910366 2.09582 0
M  V30 8285 C 805.301 2.65445 2.26583 0
M  V30 8286 C 806.649 3.11664 2.88359 0
M  V30 8287 O 807.673 2.66006 2.36896 0
M  V30 8288 O 806.532 3.90974 3.81839 0
M  V30 8289 H 803.626 0.566262 0.602724 0
M  V30 8290 H 806.172 1.58667 0.601903 0
M  V30 8291 H 804.944 3.52756 1.69348 0
M  V30 8292 H 804.567 2.51618 3.07854 0
M  V30 8293 N 805.565 -0.825799 1.34232 0
M  V30 8294 C 806.513 -1.95792 1.25572 0
M  V30 8295 C 807.507 -1.68695 0.154404 0
M  V30 8296 O 808.713 -1.77147 0.319196 0
M  V30 8297 H 805.088 -0.642949 0.390027 0
M  V30 8298 H 807.059 -2.00219 2.21258 0
M  V30 8299 C 805.808 -3.32245 1.02511 0
M  V30 8300 H 805.131 -3.53642 1.86487 0
M  V30 8301 H 806.571 -4.1192 1.00487 0
M  V30 8302 C 805.03 -3.35803 -0.27167 0
M  V30 8303 O 805.56 -3.80962 -1.274 0
M  V30 8304 N 803.766 -2.89008 -0.303778 0
M  V30 8305 H 803.313 -2.52451 0.512464 0
M  V30 8306 H 803.271 -2.9177 -1.17121 0
M  V30 8307 N 807.043 -1.17915 -1.04565 0
M  V30 8308 C 808.454 -0.976383 -1.59134 0
M  V30 8309 C 808.805 0.475267 -1.90357 0
M  V30 8310 O 807.93 1.35172 -1.6899 0
M  V30 8311 C 808.525 -1.76604 -2.89131 0
M  V30 8312 C 807.084 -1.60777 -3.40335 0
M  V30 8313 C 806.231 -1.76369 -2.13985 0
M  V30 8314 H 809.182 -1.32532 -0.872985 0
M  V30 8315 H 809.203 -1.25215 -3.59307 0
M  V30 8316 H 808.715 -2.82252 -2.66375 0
M  V30 8317 H 806.816 -0.576436 -3.68114 0
M  V30 8318 H 806.929 -2.40268 -4.14497 0
M  V30 8319 H 805.293 -1.19268 -2.25049 0
M  V30 8320 H 806.076 -2.83441 -1.9369 0
M  V30 8321 N 808.521 1.23394 -0.980386 0
M  V30 8322 C 809.769 1.91431 -0.647978 0
M  V30 8323 C 810.09 1.76871 0.821066 0
M  V30 8324 O 809.36 1.14808 1.58732 0
M  V30 8325 H 807.94 0.708516 -0.236673 0
M  V30 8326 H 810.602 1.50019 -1.2442 0
M  V30 8327 H 809.698 2.98854 -0.899592 0
M  V30 8328 N 809.999 0.752036 1.385 0
M  V30 8329 C 811.245 0.307958 2.00448 0
M  V30 8330 C 811.578 -1.10702 1.59558 0
M  V30 8331 O 810.853 -1.75788 0.832391 0
M  V30 8332 C 811.136 0.429092 3.57534 0
M  V30 8333 C 810.989 1.88507 4.08393 0
M  V30 8334 C 812.308 -0.178442 4.39738 0
M  V30 8335 H 809.427 0.113373 0.728228 0
M  V30 8336 H 812.069 0.951389 1.64465 0
M  V30 8337 H 810.219 -0.118695 3.88319 0
M  V30 8338 H 811.891 2.49104 3.88259 0
M  V30 8339 H 810.134 2.40066 3.61318 0
M  V30 8340 H 810.805 1.92099 5.17496 0
M  V30 8341 H 813.281 0.28872 4.15097 0
M  V30 8342 H 812.157 -0.0634349 5.48863 0
M  V30 8343 H 812.418 -1.26655 4.23569 0
M  V30 8344 N 811.477 -1.49425 0.500989 0
M  V30 8345 C 812.427 -2.26061 -0.296698 0
M  V30 8346 C 813.411 -1.30906 -0.935541 0
M  V30 8347 O 814.603 -1.55628 -0.843142 0
M  V30 8348 C 811.732 -3.15189 -1.36055 0
M  V30 8349 C 810.818 -4.17806 -0.727952 0
M  V30 8350 N 811.209 -5.05516 0.169408 0
M  V30 8351 C 809.507 -4.34907 -0.988535 0
M  V30 8352 C 810.208 -5.79267 0.531509 0
M  V30 8353 N 809.184 -5.43507 -0.100564 0
M  V30 8354 H 812.986 -2.91246 0.394103 0
M  V30 8355 H 810.5 -1.59275 0.317065 0
M  V30 8356 H 812.497 -3.68724 -1.94547 0
M  V30 8357 H 811.157 -2.51556 -2.05303 0
M  V30 8358 H 812.168 -5.15075 0.540218 0
M  V30 8359 H 808.845 -3.82481 -1.67376 0
M  V30 8360 H 810.235 -6.59872 1.26564 0
M  V30 8361 N 812.955 -0.234822 -1.55841 0
M  V30 8362 C 813.865 0.680828 -2.24504 0
M  V30 8363 C 814.881 1.20306 -1.25708 0
M  V30 8364 O 816.057 1.24188 -1.58554 0
M  V30 8365 C 813.122 1.86636 -2.92178 0
M  V30 8366 C 812.183 1.3848 -4.06352 0
M  V30 8367 C 811.416 2.51382 -4.70789 0
M  V30 8368 O 811.639 3.69831 -4.34259 0
M  V30 8369 O 810.573 2.21828 -5.59532 0
M  V30 8370 H 814.399 0.12583 -3.03439 0
M  V30 8371 H 811.984 -0.00381817 -1.494 0
M  V30 8372 H 813.866 2.55845 -3.34845 0
M  V30 8373 H 812.541 2.40921 -2.16192 0
M  V30 8374 H 811.448 0.660341 -3.68226 0
M  V30 8375 H 812.781 0.888177 -4.8412 0
M  V30 8376 N 814.433 1.57553 0.0384317 0
M  V30 8377 C 815.844 1.77258 0.586211 0
M  V30 8378 C 816.195 0.864706 1.76117 0
M  V30 8379 O 815.32 0.057141 2.16325 0
M  V30 8380 C 815.915 3.21453 1.07021 0
M  V30 8381 C 814.474 3.42387 1.56358 0
M  V30 8382 C 813.621 2.72801 0.497508 0
M  V30 8383 H 816.572 1.57585 -0.187796 0
M  V30 8384 H 816.593 3.27451 1.93794 0
M  V30 8385 H 816.105 3.87505 0.214851 0
M  V30 8386 H 814.206 2.81497 2.44111 0
M  V30 8387 H 814.319 4.50968 1.61754 0
M  V30 8388 H 812.683 2.36305 0.95038 0
M  V30 8389 H 813.466 3.41529 -0.348234 0
M  V30 8390 N 815.911 -0.310526 1.54511 0
M  V30 8391 C 817.159 -1.04484 1.72996 0
M  V30 8392 C 817.48 -1.88118 0.513479 0
M  V30 8393 O 816.75 -1.90119 -0.472384 0
M  V30 8394 H 815.33 -0.388747 0.637875 0
M  V30 8395 H 817.992 -0.343811 1.91844 0
M  V30 8396 H 817.088 -1.70341 2.61515 0
M  V30 8397 N 817.389 -1.46805 -0.573248 0
M  V30 8398 C 818.299 -1.60687 -1.70929 0
M  V30 8399 C 819.315 -0.490084 -1.66956 0
M  V30 8400 O 820.491 -0.755482 -1.86693 0
M  V30 8401 C 817.556 -1.60259 -3.07438 0
M  V30 8402 C 816.617 -2.83242 -3.22603 0
M  V30 8403 C 815.85 -2.82825 -4.52599 0
M  V30 8404 O 816.073 -1.92113 -5.37074 0
M  V30 8405 O 815.007 -3.74489 -4.71213 0
M  V30 8406 H 818.833 -2.56782 -1.62163 0
M  V30 8407 H 816.418 -1.29706 -0.741399 0
M  V30 8408 H 818.3 -1.6275 -3.88704 0
M  V30 8409 H 816.975 -0.673268 -3.16621 0
M  V30 8410 H 815.882 -2.86302 -2.40794 0
M  V30 8411 H 817.215 -3.75415 -3.18315 0
M  V30 8412 N 818.867 0.818669 -1.34668 0
M  V30 8413 C 820.278 1.39177 -1.24446 0
M  V30 8414 C 820.629 1.9578 0.128268 0
M  V30 8415 O 819.754 1.90382 1.02877 0
M  V30 8416 C 820.349 2.53012 -2.25323 0
M  V30 8417 C 818.908 3.06218 -2.18878 0
M  V30 8418 C 818.055 1.79112 -2.11694 0
M  V30 8419 H 821.006 0.622709 -1.45973 0
M  V30 8420 H 821.027 3.31226 -1.8727 0
M  V30 8421 H 820.539 2.11784 -3.25221 0
M  V30 8422 H 818.64 3.51939 -1.22351 0
M  V30 8423 H 818.753 3.65019 -3.10319 0
M  V30 8424 H 817.117 2.0018 -1.57481 0
M  V30 8425 H 817.9 1.40053 -3.13433 0
M  V30 8426 N 820.346 1.18468 1.03938 0
M  V30 8427 C 821.256 0.927889 2.1547 0
M  V30 8428 C 822.272 -0.108447 1.73662 0
M  V30 8429 O 823.448 0.0737636 2.01265 0
M  V30 8430 C 820.513 0.458494 3.43655 0
M  V30 8431 C 819.574 1.56295 3.99838 0
M  V30 8432 C 818.807 1.11586 5.21904 0
M  V30 8433 O 819.03 -0.0249057 5.70395 0
M  V30 8434 O 817.964 1.91412 5.70653 0
M  V30 8435 H 821.79 1.86116 2.39989 0
M  V30 8436 H 819.375 0.966607 1.13917 0
M  V30 8437 H 821.257 0.204861 4.20902 0
M  V30 8438 H 819.932 -0.446464 3.20606 0
M  V30 8439 H 818.839 1.87061 3.23974 0
M  V30 8440 H 820.172 2.44408 4.2723 0
M  V30 8441 N 821.824 -1.22873 0.986916 0
M  V30 8442 C 823.071 -1.91462 0.659424 0
M  V30 8443 C 823.399 -1.76931 -0.807825 0
M  V30 8444 O 822.654 -1.12829 -1.59901 0
M  V30 8445 C 822.953 -3.43014 1.00379 0
M  V30 8446 C 822.619 -3.77731 2.46232 0
M  V30 8447 C 821.281 -3.86918 2.86091 0
M  V30 8448 C 823.633 -3.94343 3.40798 0
M  V30 8449 C 820.961 -4.10149 4.19518 0
M  V30 8450 C 823.313 -4.19076 4.73875 0
M  V30 8451 C 821.977 -4.26486 5.13484 0
M  V30 8452 H 821.247 -0.700611 0.2413 0
M  V30 8453 H 823.894 -1.45763 1.24199 0
M  V30 8454 H 822.199 -3.90329 0.339226 0
M  V30 8455 H 823.896 -3.94327 0.728518 0
M  V30 8456 H 820.486 -3.71159 2.14334 0
M  V30 8457 H 824.67 -3.86629 3.11178 0
M  V30 8458 H 819.926 -4.1411 4.49803 0
M  V30 8459 H 824.1 -4.30873 5.47102 0
M  V30 8460 H 821.727 -4.4424 6.16891 0
M  V30 8461 N 823.302 -0.75937 -1.38099 0
M  V30 8462 C 824.249 -0.135508 -2.30402 0
M  V30 8463 C 825.219 0.703356 -1.50473 0
M  V30 8464 O 826.404 0.658287 -1.79084 0
M  V30 8465 C 823.544 0.747228 -3.36913 0
M  V30 8466 C 822.657 -0.106893 -4.31868 0
M  V30 8467 C 821.792 0.779388 -5.25451 0
M  V30 8468 C 820.831 -0.0780179 -6.1205 0
M  V30 8469 N 819.968 0.765545 -6.97914 0
M  V30 8470 H 824.808 -0.9282 -2.83176 0
M  V30 8471 H 822.345 -0.46935 -1.39411 0
M  V30 8472 H 824.303 1.27371 -3.97281 0
M  V30 8473 H 822.933 1.50565 -2.85535 0
M  V30 8474 H 821.985 -0.751063 -3.72912 0
M  V30 8475 H 823.297 -0.768798 -4.9284 0
M  V30 8476 H 822.451 1.37282 -5.90964 0
M  V30 8477 H 821.19 1.47501 -4.6486 0
M  V30 8478 H 820.195 -0.684078 -5.45528 0
M  V30 8479 H 821.42 -0.770786 -6.74712 0
M  V30 8480 H 819.366 1.44601 -6.39864 0
M  V30 8481 H 819.283 0.160666 -7.55829 0
M  V30 8482 H 820.551 1.34377 -7.6783 0
M  V30 8483 N 824.78 1.49157 -0.508906 0
M  V30 8484 C 826.01 2.06579 0.0293308 0
M  V30 8485 C 826.418 1.36852 1.30645 0
M  V30 8486 O 825.761 0.443079 1.78276 0
M  V30 8487 C 825.823 3.57838 0.345296 0
M  V30 8488 C 825.487 4.49302 -0.835256 0
M  V30 8489 C 826.484 4.90345 -1.72793 0
M  V30 8490 C 824.169 4.91494 -1.0363 0
M  V30 8491 C 826.163 5.72327 -2.80573 0
M  V30 8492 C 823.85 5.7325 -2.11726 0
M  V30 8493 C 824.848 6.13572 -3.00032 0
M  V30 8494 O 824.536 6.93691 -4.06261 0
M  V30 8495 H 824.268 0.675679 -0.0208193 0
M  V30 8496 H 826.822 1.9282 -0.707789 0
M  V30 8497 H 825.052 3.69634 1.13612 0
M  V30 8498 H 826.741 3.97467 0.823089 0
M  V30 8499 H 827.507 4.58388 -1.58446 0
M  V30 8500 H 823.386 4.59605 -0.358308 0
M  V30 8501 H 826.93 6.03719 -3.49527 0
M  V30 8502 H 822.827 6.0462 -2.26065 0
M  V30 8503 H 823.595 7.12011 -4.03711 0
M  V30 8504 N 826.258 0.243083 1.55714 0
M  V30 8505 C 827.507 -0.383188 1.98027 0
M  V30 8506 C 827.82 -1.59347 1.13436 0
M  V30 8507 O 829.026 -2.29065 1.45745 0
M  V30 8508 C 827.482 -0.733135 3.52354 0
M  V30 8509 C 827.09 0.455539 4.45678 0
M  V30 8510 C 828.834 -1.32381 4.03331 0
M  V30 8511 C 826.741 0.0819591 5.91343 0
M  V30 8512 H 825.671 -0.146944 0.739543 0
M  V30 8513 H 828.322 0.342697 1.80272 0
M  V30 8514 H 826.704 -1.51704 3.65789 0
M  V30 8515 H 827.878 1.23291 4.44 0
M  V30 8516 H 826.193 0.960886 4.05162 0
M  V30 8517 H 828.79 -1.61658 5.09677 0
M  V30 8518 H 829.133 -2.24698 3.50452 0
M  V30 8519 H 829.666 -0.602885 3.93205 0
M  V30 8520 H 826.405 0.972171 6.48251 0
M  V30 8521 H 825.925 -0.659291 5.96166 0
M  V30 8522 H 827.604 -0.3372 6.46121 0
M  V30 8523 N 827.736 -1.57571 -0.0300757 0
M  V30 8524 C 828.984 -1.88852 -0.719666 0
M  V30 8525 C 829.305 -0.840645 -1.75949 0
M  V30 8526 O 828.575 0.125854 -1.95495 0
M  V30 8527 H 827.155 -0.696965 -0.268792 0
M  V30 8528 H 829.817 -1.949 0.00373285 0
M  V30 8529 H 828.913 -2.87695 -1.20987 0
M  V30 8530 N 829.214 0.302327 -1.54673 0
M  V30 8531 C 830.162 1.39286 -1.86285 0
M  V30 8532 C 831.156 1.52553 -0.736478 0
M  V30 8533 O 832.362 1.54686 -0.92045 0
M  V30 8534 H 828.737 0.465228 -0.590819 0
M  V30 8535 H 830.708 1.09859 -2.77441 0
M  V30 8536 C 829.457 2.75155 -2.12567 0
M  V30 8537 H 828.78 2.65728 -2.98712 0
M  V30 8538 H 830.22 3.50476 -2.38627 0
M  V30 8539 C 828.679 3.23987 -0.923813 0
M  V30 8540 O 829.209 4.01443 -0.143649 0
M  V30 8541 N 827.415 2.81293 -0.72956 0
M  V30 8542 H 826.962 2.18421 -1.36565 0
M  V30 8543 H 826.92 3.14315 0.0730351 0
M  V30 8544 N 830.692 1.47107 0.565454 0
M  V30 8545 C 831.625 1.53505 1.68853 0
M  V30 8546 C 832.603 0.387806 1.57908 0
M  V30 8547 O 833.787 0.594433 1.78882 0
M  V30 8548 C 830.914 1.42985 3.07039 0
M  V30 8549 C 829.96 2.62109 3.36454 0
M  V30 8550 S 830.793 4.2436 3.26617 0
M  V30 8551 C 831.949 4.16378 4.67312 0
M  V30 8552 H 832.182 2.48522 1.63169 0
M  V30 8553 H 829.715 1.35204 0.745609 0
M  V30 8554 H 831.673 1.37602 3.8675 0
M  V30 8555 H 830.334 0.493671 3.10196 0
M  V30 8556 H 829.527 2.50788 4.37174 0
M  V30 8557 H 829.129 2.64571 2.64345 0
M  V30 8558 H 831.421 3.84123 5.58082 0
M  V30 8559 H 832.364 5.17156 4.83689 0
M  V30 8560 H 832.772 3.47363 4.44971 0
M  V30 8561 N 832.17 -0.811516 1.35101 0
M  V30 8562 C 833.12 -1.91227 1.24163 0
M  V30 8563 C 834.104 -1.60307 0.138012 0
M  V30 8564 O 835.296 -1.73116 0.368767 0
M  V30 8565 C 832.425 -3.2808 1.01085 0
M  V30 8566 C 831.511 -3.65082 2.15815 0
M  V30 8567 N 831.902 -3.73558 3.4101 0
M  V30 8568 C 830.2 -3.95005 2.07092 0
M  V30 8569 C 830.901 -4.06158 4.16426 0
M  V30 8570 N 829.877 -4.19982 3.45132 0
M  V30 8571 H 833.679 -1.95975 2.19023 0
M  V30 8572 H 831.193 -1.00583 1.27503 0
M  V30 8573 H 833.19 -4.06771 0.913382 0
M  V30 8574 H 831.85 -3.24622 0.0710406 0
M  V30 8575 H 832.861 -3.56761 3.75423 0
M  V30 8576 H 829.538 -3.99601 1.20937 0
M  V30 8577 H 830.928 -4.19824 5.24592 0
M  V30 8578 N 833.648 -1.19017 -1.03309 0
M  V30 8579 C 834.896 -0.988258 -1.76289 0
M  V30 8580 C 835.217 0.482557 -1.88935 0
M  V30 8581 O 834.487 1.34969 -1.41987 0
M  V30 8582 H 833.067 -0.36267 -0.653054 0
M  V30 8583 H 835.729 -1.49836 -1.2464 0
M  V30 8584 H 834.825 -1.43273 -2.77271 0
M  V30 8585 N 835.127 1.22348 -0.993418 0
M  V30 8586 C 836.075 2.26315 -0.537052 0
M  V30 8587 C 837.069 1.643 0.412545 0
M  V30 8588 O 838.275 1.77729 0.285008 0
M  V30 8589 H 834.65 0.735792 -0.155286 0
M  V30 8590 H 836.621 2.62157 -1.42535 0
M  V30 8591 C 835.37 3.47449 0.132118 0
M  V30 8592 H 834.693 3.9543 -0.589519 0
M  V30 8593 H 836.133 4.21965 0.414884 0
M  V30 8594 C 834.592 3.07893 1.36761 0
M  V30 8595 O 835.122 3.17338 2.46291 0
M  V30 8596 N 833.328 2.62672 1.24305 0
M  V30 8597 H 832.875 2.55186 0.351826 0
M  V30 8598 H 832.833 2.36574 2.07076 0
M  V30 8599 N 836.605 0.766683 1.37694 0
M  V30 8600 C 837.515 0.150158 2.34119 0
M  V30 8601 C 838.531 -0.685513 1.59927 0
M  V30 8602 O 839.707 -0.606616 1.92047 0
M  V30 8603 C 836.772 -0.722562 3.39087 0
M  V30 8604 C 835.833 0.128983 4.29106 0
M  V30 8605 C 835.066 -0.702178 5.29061 0
M  V30 8606 O 835.289 -1.93954 5.36412 0
M  V30 8607 O 834.223 -0.114056 6.01792 0
M  V30 8608 H 838.049 0.946829 2.88563 0
M  V30 8609 H 835.634 0.527765 1.39768 0
M  V30 8610 H 837.516 -1.22095 4.03325 0
M  V30 8611 H 836.191 -1.49751 2.86978 0
M  V30 8612 H 835.098 0.673612 3.67985 0
M  V30 8613 H 836.431 0.866892 4.84506 0
M  V30 8614 N 838.083 -1.48885 0.516809 0
M  V30 8615 C 839.329 -2.02788 -0.0220928 0
M  V30 8616 C 839.662 -1.39433 -1.35175 0
M  V30 8617 O 838.937 -0.535459 -1.86984 0
M  V30 8618 C 839.22 -3.59753 -0.158012 0
M  V30 8619 C 839.073 -4.33611 1.19588 0
M  V30 8620 C 840.392 -4.30984 -0.891133 0
M  V30 8621 H 837.511 -0.736971 -0.00655488 0
M  V30 8622 H 840.153 -1.77746 0.671287 0
M  V30 8623 H 838.303 -3.8122 -0.748568 0
M  V30 8624 H 839.975 -4.23598 1.82653 0
M  V30 8625 H 838.218 -3.95547 1.78116 0
M  V30 8626 H 838.889 -5.41846 1.05391 0
M  V30 8627 H 841.365 -4.14267 -0.39012 0
M  V30 8628 H 840.241 -5.40527 -0.955107 0
M  V30 8629 H 840.502 -3.97336 -1.93847 0
M  V30 8630 N 839.561 -0.251338 -1.55583 0
M  V30 8631 C 840.807 0.37272 -1.99346 0
M  V30 8632 C 841.14 1.57266 -1.13934 0
M  V30 8633 O 840.415 1.9343 -0.20377 0
M  V30 8634 C 840.698 0.778245 -3.5159 0
M  V30 8635 C 840.551 -0.427394 -4.47765 0
M  V30 8636 C 841.87 1.62358 -4.09057 0
M  V30 8637 H 838.989 0.134002 -0.724715 0
M  V30 8638 H 841.631 -0.353536 -1.86682 0
M  V30 8639 H 839.781 1.39704 -3.62512 0
M  V30 8640 H 841.453 -1.06586 -4.48818 0
M  V30 8641 H 839.696 -1.06972 -4.20404 0
M  V30 8642 H 840.367 -0.10025 -5.51909 0
M  V30 8643 H 842.843 1.1012 -4.01264 0
M  V30 8644 H 841.719 1.87617 -5.1584 0
M  V30 8645 H 841.98 2.59688 -3.57791 0
M  V30 8646 N 841.039 1.57585 0.0217189 0
M  V30 8647 C 842.287 1.89231 0.709641 0
M  V30 8648 C 842.608 0.849964 1.75501 0
M  V30 8649 O 841.878 -0.115485 1.95559 0
M  V30 8650 H 840.458 0.69838 0.265092 0
M  V30 8651 H 843.12 1.94895 -0.0140688 0
M  V30 8652 H 842.216 2.88333 1.19459 0
M  V30 8653 N 842.517 -0.29412 1.54831 0
M  V30 8654 C 843.933 -0.640167 1.46199 0
M  V30 8655 C 844.133 -1.90426 0.658798 0
M  V30 8656 O 843.189 -2.51932 0.169228 0
M  V30 8657 C 844.502 -0.786763 2.90225 0
M  V30 8658 C 846.05 -0.882201 3.0031 0
M  V30 8659 C 846.525 -1.06074 4.45547 0
M  V30 8660 N 848.016 -1.12678 4.49286 0
M  V30 8661 C 848.751 -1.28334 5.58854 0
M  V30 8662 N 848.247 -1.40845 6.78332 0
M  V30 8663 N 850.04 -1.31277 5.46555 0
M  V30 8664 H 842.191 0.536334 2.05517 0
M  V30 8665 H 844.454 0.178363 0.93107 0
M  V30 8666 H 844.16 0.0713018 3.51628 0
M  V30 8667 H 844.034 -1.67364 3.38037 0
M  V30 8668 H 846.421 -1.73075 2.39017 0
M  V30 8669 H 846.502 0.0288405 2.55784 0
M  V30 8670 H 846.146 -0.216935 5.07437 0
M  V30 8671 H 846.076 -1.98611 4.8771 0
M  V30 8672 H 848.567 -1.04335 3.63212 0
M  V30 8673 H 848.88 -1.52566 7.57591 0
M  V30 8674 H 847.225 -1.37888 6.81184 0
M  V30 8675 H 850.416 -1.2112 4.52159 0
M  V30 8676 H 850.589 -1.43136 6.31994 0
M  V30 8677 N 843.995 -1.47404 -0.557645 0
M  V30 8678 C 844.905 -1.62491 -1.69216 0
M  V30 8679 C 845.921 -0.507764 -1.66426 0
M  V30 8680 O 847.097 -0.775241 -1.85882 0
M  V30 8681 C 844.162 -1.63511 -3.05721 0
M  V30 8682 C 843.223 -2.86648 -3.1958 0
M  V30 8683 C 842.456 -2.87609 -4.49574 0
M  V30 8684 O 842.679 -1.97799 -5.35006 0
M  V30 8685 O 841.613 -3.79465 -4.67215 0
M  V30 8686 H 845.439 -2.58487 -1.59431 0
M  V30 8687 H 843.024 -1.30485 -0.7276 0
M  V30 8688 H 844.906 -1.66863 -3.86956 0
M  V30 8689 H 843.581 -0.706812 -3.15889 0
M  V30 8690 H 842.488 -2.8884 -2.37744 0
M  V30 8691 H 843.821 -3.7877 -3.14316 0
M  V30 8692 N 845.473 0.80434 -1.35529 0
M  V30 8693 C 846.403 1.93086 -1.31301 0
M  V30 8694 C 847.384 1.69068 -0.187044 0
M  V30 8695 O 848.569 1.90399 -0.382359 0
M  V30 8696 C 845.699 3.29867 -1.0865 0
M  V30 8697 C 844.653 3.68373 -2.17911 0
M  V30 8698 C 843.979 5.0334 -1.80423 0
M  V30 8699 C 845.279 3.78516 -3.59893 0
M  V30 8700 H 846.973 1.96882 -2.25561 0
M  V30 8701 H 844.519 0.945841 -1.08581 0
M  V30 8702 H 846.472 4.08281 -1.04331 0
M  V30 8703 H 845.196 3.2642 -0.108359 0
M  V30 8704 H 843.855 2.92247 -2.21331 0
M  V30 8705 H 843.503 4.96399 -0.812213 0
M  V30 8706 H 843.203 5.30074 -2.53565 0
M  V30 8707 H 844.727 5.84191 -1.77633 0
M  V30 8708 H 846.141 4.47155 -3.58783 0
M  V30 8709 H 844.538 4.16721 -4.31814 0
M  V30 8710 H 845.608 2.8001 -3.95882 0
M  V30 8711 N 846.951 1.19563 1.02676 0
M  V30 8712 C 847.881 0.959024 2.12897 0
M  V30 8713 C 848.862 -0.108382 1.69754 0
M  V30 8714 O 850.047 0.0470698 1.94143 0
M  V30 8715 C 847.177 0.499211 3.43693 0
M  V30 8716 C 846.131 1.5087 4.00528 0
M  V30 8717 C 845.457 0.905884 5.2697 0
M  V30 8718 C 846.757 2.88954 4.3509 0
M  V30 8719 H 848.451 1.88084 2.32948 0
M  V30 8720 H 845.997 0.905731 1.11949 0
M  V30 8721 H 847.95 0.320965 4.20176 0
M  V30 8722 H 846.674 -0.458205 3.2337 0
M  V30 8723 H 845.333 1.67413 3.26142 0
M  V30 8724 H 844.981 -0.0591506 5.02965 0
M  V30 8725 H 844.681 1.58 5.65959 0
M  V30 8726 H 846.205 0.73848 6.06118 0
M  V30 8727 H 847.619 2.75981 5.02501 0
M  V30 8728 H 846.016 3.53177 4.85166 0
M  V30 8729 H 847.086 3.41447 3.44299 0
M  V30 8730 N 848.429 -1.21819 0.999893 0
M  V30 8731 C 849.359 -2.26282 0.576096 0
M  V30 8732 C 850.34 -1.65317 -0.400537 0
M  V30 8733 O 851.525 -1.92028 -0.28964 0
M  V30 8734 C 848.655 -3.47147 -0.103145 0
M  V30 8735 C 847.609 -4.20594 0.792745 0
M  V30 8736 C 846.935 -5.34696 -0.0198026 0
M  V30 8737 C 848.235 -4.78533 2.09293 0
M  V30 8738 H 849.929 -2.61984 1.4493 0
M  V30 8739 H 847.475 -1.25935 0.698316 0
M  V30 8740 H 849.428 -4.1939 -0.411068 0
M  V30 8741 H 848.152 -3.1056 -1.01094 0
M  V30 8742 H 846.811 -3.50194 1.08442 0
M  V30 8743 H 846.459 -4.94352 -0.928729 0
M  V30 8744 H 846.159 -5.84764 0.576661 0
M  V30 8745 H 847.683 -6.09752 -0.321659 0
M  V30 8746 H 849.097 -5.42682 1.8485 0
M  V30 8747 H 847.494 -5.38968 2.63881 0
M  V30 8748 H 848.564 -3.98197 2.76708 0
M  V30 8749 N 849.908 -0.773975 -1.37286 0
M  V30 8750 C 850.856 -0.149581 -2.32119 0
M  V30 8751 C 851.85 0.682457 -1.55045 0
M  V30 8752 O 853.056 0.579269 -1.70424 0
M  V30 8753 H 849.431 -0.0295857 -0.751418 0
M  V30 8754 H 851.402 -0.965117 -2.82362 0
M  V30 8755 C 850.151 0.713409 -3.40302 0
M  V30 8756 H 849.474 0.0825416 -3.99715 0
M  V30 8757 H 850.914 1.11723 -4.09016 0
M  V30 8758 C 849.373 1.86498 -2.80571 0
M  V30 8759 O 849.903 2.9606 -2.71498 0
M  V30 8760 N 848.109 1.66629 -2.38082 0
M  V30 8761 H 847.656 0.775145 -2.45661 0
M  V30 8762 H 847.614 2.43845 -1.98461 0
M  V30 8763 N 851.386 1.48609 -0.524698 0
M  V30 8764 C 852.316 2.32366 0.229837 0
M  V30 8765 C 853.297 1.41759 0.940129 0
M  V30 8766 O 854.482 1.7065 0.926936 0
M  V30 8767 C 851.612 3.22835 1.28043 0
M  V30 8768 C 850.566 4.22424 0.688603 0
M  V30 8769 C 849.892 5.0199 1.84146 0
M  V30 8770 C 851.192 5.21217 -0.336176 0
M  V30 8771 H 852.886 2.95698 -0.469339 0
M  V30 8772 H 850.432 1.42197 -0.227156 0
M  V30 8773 H 852.385 3.80253 1.8162 0
M  V30 8774 H 851.109 2.57492 2.00912 0
M  V30 8775 H 849.768 3.66185 0.174402 0
M  V30 8776 H 849.416 4.33076 2.5584 0
M  V30 8777 H 849.116 5.69392 1.45142 0
M  V30 8778 H 850.64 5.62259 2.38111 0
M  V30 8779 H 852.054 5.7319 0.112307 0
M  V30 8780 H 850.451 5.96642 -0.643324 0
M  V30 8781 H 851.521 4.68676 -1.24381 0
M  V30 8782 N 852.864 0.259585 1.55447 0
M  V30 8783 C 854.113 -0.362163 1.98422 0
M  V30 8784 C 854.426 -1.58135 1.1512 0
M  V30 8785 O 855.632 -2.27506 1.48166 0
M  V30 8786 C 854.088 -0.695722 3.53111 0
M  V30 8787 C 853.696 0.502784 4.4517 0
M  V30 8788 C 855.44 -1.28096 4.04712 0
M  V30 8789 C 853.347 0.144674 5.91223 0
M  V30 8790 H 852.277 -0.139092 0.74106 0
M  V30 8791 H 854.928 0.361798 1.79898 0
M  V30 8792 H 853.31 -1.47816 3.67378 0
M  V30 8793 H 854.484 1.27994 4.42667 0
M  V30 8794 H 852.799 1.0038 4.0412 0
M  V30 8795 H 855.396 -1.56243 5.11363 0
M  V30 8796 H 855.739 -2.20969 3.52815 0
M  V30 8797 H 856.272 -0.561146 3.93822 0
M  V30 8798 H 853.011 1.04087 6.47183 0
M  V30 8799 H 852.531 -0.596023 5.96831 0
M  V30 8800 H 854.21 -0.268651 6.46442 0
M  V30 8801 N 854.342 -1.57594 -0.0133615 0
M  V30 8802 C 855.252 -2.10991 -1.02566 0
M  V30 8803 C 856.268 -1.05208 -1.3859 0
M  V30 8804 O 857.444 -1.37034 -1.47593 0
M  V30 8805 C 854.509 -2.59165 -2.30292 0
M  V30 8806 C 853.57 -3.79495 -2.00704 0
M  V30 8807 C 852.803 -4.25361 -3.22341 0
M  V30 8808 O 853.026 -3.70645 -4.33565 0
M  V30 8809 O 851.96 -5.17649 -3.07121 0
M  V30 8810 H 855.786 -2.97678 -0.601806 0
M  V30 8811 H 853.371 -1.47598 -0.23135 0
M  V30 8812 H 855.253 -2.90409 -3.05354 0
M  V30 8813 H 853.928 -1.75582 -2.71942 0
M  V30 8814 H 852.835 -3.53245 -1.23161 0
M  V30 8815 H 854.168 -4.64109 -1.639 0
M  V30 8816 N 855.82 0.285905 -1.54985 0
M  V30 8817 C 857.05 1.03626 -1.78732 0
M  V30 8818 C 857.458 1.80896 -0.554377 0
M  V30 8819 O 856.801 1.77161 0.48578 0
M  V30 8820 C 856.863 2.05185 -2.95193 0
M  V30 8821 C 856.527 1.46973 -4.32722 0
M  V30 8822 C 857.524 0.891986 -5.12191 0
M  V30 8823 C 855.209 1.50081 -4.79355 0
M  V30 8824 C 857.203 0.353078 -6.36421 0
M  V30 8825 C 854.89 0.958037 -6.03544 0
M  V30 8826 C 855.888 0.385157 -6.81913 0
M  V30 8827 O 855.576 -0.149341 -8.03761 0
M  V30 8828 H 855.308 0.312416 -0.599477 0
M  V30 8829 H 857.862 0.326067 -2.02795 0
M  V30 8830 H 856.092 2.79928 -2.66791 0
M  V30 8831 H 857.781 2.66244 -3.0638 0
M  V30 8832 H 858.547 0.860762 -4.77301 0
M  V30 8833 H 854.426 1.9361 -4.18373 0
M  V30 8834 H 857.97 -0.0947181 -6.97536 0
M  V30 8835 H 853.867 0.986458 -6.37918 0
M  V30 8836 H 854.635 -0.0374719 -8.18491 0
M  V30 8837 N 857.298 1.47698 0.54982 0
M  V30 8838 C 858.228 1.63622 1.66583 0
M  V30 8839 C 859.209 0.485477 1.63025 0
M  V30 8840 O 860.394 0.715692 1.80531 0
M  V30 8841 C 857.524 1.65721 3.05211 0
M  V30 8842 C 856.478 2.80097 3.2362 0
M  V30 8843 C 855.804 2.67272 4.63109 0
M  V30 8844 C 857.104 4.21612 3.08286 0
M  V30 8845 H 858.798 2.57049 1.53512 0
M  V30 8846 H 856.344 1.23705 0.737099 0
M  V30 8847 H 858.297 1.75451 3.83138 0
M  V30 8848 H 857.021 0.688593 3.19258 0
M  V30 8849 H 855.68 2.69889 2.48104 0
M  V30 8850 H 855.328 1.68422 4.73965 0
M  V30 8851 H 855.028 3.44008 4.76374 0
M  V30 8852 H 856.552 2.78942 5.43161 0
M  V30 8853 H 857.966 4.32758 3.76024 0
M  V30 8854 H 856.363 4.99193 3.33057 0
M  V30 8855 H 857.433 4.39462 2.04942 0
M  V30 8856 N 858.776 -0.797141 1.35954 0
M  V30 8857 C 860.016 -1.56795 1.31128 0
M  V30 8858 C 860.38 -1.91683 -0.110364 0
M  V30 8859 O 861.581 -2.67305 -0.283093 0
M  V30 8860 C 859.852 -2.81577 2.20111 0
M  V30 8861 S 861.411 -3.71895 2.32894 0
M  V30 8862 H 858.229 -0.53711 0.465869 0
M  V30 8863 H 860.831 -0.939522 1.71445 0
M  V30 8864 H 859.535 -2.53986 3.22365 0
M  V30 8865 H 859.066 -3.49399 1.80786 0
M  V30 8866 H 861.081 -4.72322 1.52073 0
M  V30 8867 N 860.254 -1.20106 -1.0204 0
M  V30 8868 C 861.201 -0.946468 -2.10501 0
M  V30 8869 C 862.171 0.121902 -1.65652 0
M  V30 8870 O 863.356 -0.0220244 -1.90787 0
M  V30 8871 C 860.496 -0.500499 -3.41451 0
M  V30 8872 C 859.609 -1.63659 -3.998 0
M  V30 8873 C 858.744 -1.14131 -5.18794 0
M  V30 8874 C 857.783 -2.25074 -5.69217 0
M  V30 8875 N 856.92 -1.76791 -6.79477 0
M  V30 8876 H 861.76 -1.87506 -2.31615 0
M  V30 8877 H 859.297 -0.934693 -1.13587 0
M  V30 8878 H 861.255 -0.223276 -4.16602 0
M  V30 8879 H 859.885 0.391099 -3.20422 0
M  V30 8880 H 858.937 -2.02882 -3.21781 0
M  V30 8881 H 860.249 -2.47213 -4.33229 0
M  V30 8882 H 859.403 -0.819826 -6.01135 0
M  V30 8883 H 858.142 -0.275615 -4.86921 0
M  V30 8884 H 857.147 -2.58043 -4.85483 0
M  V30 8885 H 858.372 -3.12114 -6.03127 0
M  V30 8886 H 856.318 -0.925428 -6.4944 0
M  V30 8887 H 856.235 -2.53928 -7.12079 0
M  V30 8888 H 857.503 -1.47631 -7.65392 0
M  V30 8889 N 861.732 1.21287 -1.00634 0
M  V30 8890 C 862.68 2.25733 -0.561026 0
M  V30 8891 C 863.674 1.64728 0.395095 0
M  V30 8892 O 864.88 1.78022 0.266141 0
M  V30 8893 H 861.255 0.734104 -0.163081 0
M  V30 8894 H 863.226 2.60631 -1.45307 0
M  V30 8895 C 861.975 3.47569 0.0952587 0
M  V30 8896 H 861.298 3.94782 -0.631427 0
M  V30 8897 H 862.738 4.22382 0.370105 0
M  V30 8898 C 861.197 3.09326 1.33488 0
M  V30 8899 O 861.727 3.19933 2.42912 0
M  V30 8900 N 859.933 2.63976 1.21512 0
M  V30 8901 H 859.48 2.55545 0.324741 0
M  V30 8902 H 859.438 2.38757 2.04555 0
M  V30 8903 N 863.21 0.781244 1.36873 0
M  V30 8904 C 864.457 0.349889 1.99454 0
M  V30 8905 C 864.785 -1.07621 1.62013 0
M  V30 8906 O 864.04 -1.75665 0.86258 0
M  V30 8907 C 864.339 0.45146 3.54537 0
M  V30 8908 C 864.005 1.83718 4.11775 0
M  V30 8909 C 862.667 2.21634 4.2712 0
M  V30 8910 C 865.019 2.7449 4.43063 0
M  V30 8911 C 862.347 3.49742 4.7106 0
M  V30 8912 C 864.699 4.02017 4.88431 0
M  V30 8913 C 863.363 4.39967 5.01982 0
M  V30 8914 H 862.633 0.128033 0.729855 0
M  V30 8915 H 865.28 0.997117 1.63493 0
M  V30 8916 H 863.585 -0.279288 3.90803 0
M  V30 8917 H 865.282 0.0988609 4.00878 0
M  V30 8918 H 861.872 1.53251 4.00265 0
M  V30 8919 H 866.056 2.46453 4.30783 0
M  V30 8920 H 861.312 3.79026 4.79738 0
M  V30 8921 H 865.486 4.72475 5.11605 0
M  V30 8922 H 863.113 5.39291 5.35788 0
M  V30 8923 N 864.689 -1.48329 0.532571 0
M  V30 8924 C 865.937 -2.021 -0.000581206 0
M  V30 8925 C 866.258 -1.4117 -1.34522 0
M  V30 8926 O 865.528 -0.578005 -1.87179 0
M  V30 8927 H 864.108 -0.746993 -0.00320281 0
M  V30 8928 H 866.77 -1.82011 0.696991 0
M  V30 8929 H 865.866 -3.11917 -0.106991 0
M  V30 8930 N 866.167 -0.267825 -1.55308 0
M  V30 8931 C 867.395 0.354587 -2.03839 0
M  V30 8932 C 867.81 1.50007 -1.14644 0
M  V30 8933 O 867.167 1.81752 -0.165055 0
M  V30 8934 C 867.218 0.84254 -3.51544 0
M  V30 8935 O 866.939 -0.257318 -4.37344 0
M  V30 8936 C 868.44 1.53351 -4.15931 0
M  V30 8937 H 865.66 0.0818131 -0.665994 0
M  V30 8938 H 868.204 -0.397795 -2.00594 0
M  V30 8939 H 866.359 1.54503 -3.55257 0
M  V30 8940 H 866.773 0.116593 -5.2437 0
M  V30 8941 H 868.247 1.82643 -5.20908 0
M  V30 8942 H 868.724 2.4626 -3.63666 0
M  V30 8943 H 869.33 0.87506 -4.162 0
M  V30 8944 N 867.645 1.57599 0.00500368 0
M  V30 8945 C 868.922 1.81561 0.727654 0
M  V30 8946 C 869.302 0.871604 1.92266 0
M  V30 8947 O 868.65 -0.0808232 2.28357 0
M  V30 8948 C 868.86 3.29922 1.13809 0
M  V30 8949 C 870.208 3.95531 1.54403 0
M  V30 8950 O 871.232 3.34215 1.23202 0
M  V30 8951 O 870.091 5.03535 2.12402 0
M  V30 8952 H 867.185 0.747462 0.353878 0
M  V30 8953 H 869.731 1.69688 -0.0200667 0
M  V30 8954 H 868.503 3.90253 0.286078 0
M  V30 8955 H 868.126 3.46775 1.94507 0
M  V30 8956 N 869.123 -0.277682 1.55134 0
M  V30 8957 C 870.534 -0.849063 1.66276 0
M  V30 8958 C 870.885 -1.87223 0.5867 0
M  V30 8959 O 870.01 -2.14676 -0.272635 0
M  V30 8960 C 870.605 -1.54681 3.01429 0
M  V30 8961 C 869.164 -2.06628 3.14614 0
M  V30 8962 C 868.311 -0.906748 2.62056 0
M  V30 8963 H 871.262 -0.0541357 1.58608 0
M  V30 8964 H 871.283 -2.41356 2.94156 0
M  V30 8965 H 870.795 -0.80189 3.79725 0
M  V30 8966 H 868.896 -2.84095 2.41082 0
M  V30 8967 H 869.009 -2.2848 4.2111 0
M  V30 8968 H 867.373 -1.29882 2.19095 0
M  V30 8969 H 868.156 -0.175414 3.42852 0
M  V30 8970 N 870.601 -1.47988 -0.541979 0
M  V30 8971 C 871.511 -1.64276 -1.67483 0
M  V30 8972 C 872.527 -0.525387 -1.65879 0
M  V30 8973 O 873.703 -0.794912 -1.85049 0
M  V30 8974 C 870.768 -1.66744 -3.03969 0
M  V30 8975 C 869.829 -2.90021 -3.16522 0
M  V30 8976 C 869.062 -2.92362 -4.46498 0
M  V30 8977 O 869.285 -2.03462 -5.32878 0
M  V30 8978 O 868.219 -3.84399 -4.63164 0
M  V30 8979 H 872.045 -2.60164 -1.5668 0
M  V30 8980 H 869.63 -1.31249 -0.71372 0
M  V30 8981 H 871.512 -1.70958 -3.85164 0
M  V30 8982 H 870.187 -0.740277 -3.15122 0
M  V30 8983 H 869.094 -2.91345 -2.34667 0
M  V30 8984 H 870.427 -3.82082 -3.10281 0
M  V30 8985 N 872.079 0.78992 -1.36375 0
M  V30 8986 C 873.325 1.55007 -1.3077 0
M  V30 8987 C 873.658 1.93871 0.112979 0
M  V30 8988 O 872.933 1.6267 1.06625 0
M  V30 8989 C 873.216 2.82748 -2.22993 0
M  V30 8990 C 873.069 2.50253 -3.73756 0
M  V30 8991 C 874.388 3.84569 -2.13998 0
M  V30 8992 H 871.507 0.562362 -0.476359 0
M  V30 8993 H 874.149 0.907582 -1.66922 0
M  V30 8994 H 872.299 3.37573 -1.92292 0
M  V30 8995 H 873.971 2.01482 -4.14973 0
M  V30 8996 H 872.214 1.83203 -3.93216 0
M  V30 8997 H 872.885 3.41487 -4.33694 0
M  V30 8998 H 875.361 3.39188 -2.4102 0
M  V30 8999 H 874.237 4.717 -2.80697 0
M  V30 9000 H 874.498 4.27491 -1.12711 0
M  V30 9001 N 873.557 1.20646 1.01402 0
M  V30 9002 C 874.785 1.04389 1.78635 0
M  V30 9003 C 875.2 -0.406771 1.84366 0
M  V30 9004 O 874.557 -1.28239 1.2985 0
M  V30 9005 C 874.608 1.62378 3.22979 0
M  V30 9006 O 874.329 3.01768 3.17597 0
M  V30 9007 C 875.83 1.5111 4.1675 0
M  V30 9008 H 873.05 0.367077 0.56169 0
M  V30 9009 H 875.594 1.59789 1.27624 0
M  V30 9010 H 873.749 1.11092 3.7113 0
M  V30 9011 H 874.163 3.29331 4.08217 0
M  V30 9012 H 875.637 1.96441 5.15863 0
M  V30 9013 H 876.114 0.464011 4.36742 0
M  V30 9014 H 876.72 2.01599 3.74483 0
M  V30 9015 N 875.035 -1.20752 1.01276 0
M  V30 9016 C 876.312 -1.85676 0.615112 0
M  V30 9017 C 876.692 -1.90623 -0.906976 0
M  V30 9018 O 876.04 -1.41124 -1.79712 0
M  V30 9019 C 876.25 -3.2552 1.25847 0
M  V30 9020 C 877.598 -4.0184 1.37148 0
M  V30 9021 O 878.622 -3.3486 1.21438 0
M  V30 9022 O 877.481 -5.21783 1.62495 0
M  V30 9023 H 874.575 -0.799437 0.211729 0
M  V30 9024 H 877.121 -1.28372 1.10989 0
M  V30 9025 H 875.893 -3.16664 2.29869 0
M  V30 9026 H 875.516 -3.90452 0.750524 0
M  V30 9027 N 876.513 -0.788492 -1.36457 0
M  V30 9028 C 877.443 -0.200468 -2.32638 0
M  V30 9029 C 878.424 0.664031 -1.56603 0
M  V30 9030 O 879.609 0.598045 -1.84762 0
M  V30 9031 C 876.739 0.666274 -3.40849 0
M  V30 9032 C 875.693 -0.0982574 -4.27887 0
M  V30 9033 C 875.019 0.889018 -5.27258 0
M  V30 9034 C 876.319 -1.28692 -5.06197 0
M  V30 9035 H 878.013 -1.00399 -2.82065 0
M  V30 9036 H 875.559 -0.484237 -1.35614 0
M  V30 9037 H 877.512 1.08757 -4.07124 0
M  V30 9038 H 876.236 1.50249 -2.89987 0
M  V30 9039 H 874.895 -0.500525 -3.63167 0
M  V30 9040 H 874.543 1.72024 -4.7267 0
M  V30 9041 H 874.243 0.381909 -5.86358 0
M  V30 9042 H 875.767 1.30891 -5.96406 0
M  V30 9043 H 877.181 -0.941429 -5.65517 0
M  V30 9044 H 875.578 -1.72726 -5.74705 0
M  V30 9045 H 876.648 -2.08273 -4.37893 0
M  V30 9046 N 877.991 1.48044 -0.54043 0
M  V30 9047 C 879.237 2.02797 -0.0101718 0
M  V30 9048 C 879.57 1.41565 1.32939 0
M  V30 9049 O 878.845 0.565139 1.86109 0
M  V30 9050 C 879.128 3.59959 0.100758 0
M  V30 9051 C 878.981 4.31654 -1.26471 0
M  V30 9052 C 880.3 4.32347 0.822455 0
M  V30 9053 H 877.419 0.736982 -0.00517052 0
M  V30 9054 H 880.061 1.76656 -0.69948 0
M  V30 9055 H 878.211 3.82363 0.687824 0
M  V30 9056 H 879.883 4.20639 -1.89369 0
M  V30 9057 H 878.126 3.92663 -1.84386 0
M  V30 9058 H 878.797 5.401 -1.13998 0
M  V30 9059 H 881.273 4.14835 0.324164 0
M  V30 9060 H 880.149 5.41978 0.868993 0
M  V30 9061 H 880.41 4.00369 1.87501 0
M  V30 9062 N 879.47 0.276058 1.55163 0
M  V30 9063 C 880.42 -0.625549 2.19251 0
M  V30 9064 C 881.404 -1.11769 1.15744 0
M  V30 9065 O 882.596 -1.0626 1.41555 0
M  V30 9066 C 879.725 -1.80879 2.91784 0
M  V30 9067 C 878.811 -1.33379 4.0258 0
M  V30 9068 N 879.202 -0.575002 5.02521 0
M  V30 9069 C 877.5 -1.61666 4.15668 0
M  V30 9070 C 878.201 -0.325164 5.8079 0
M  V30 9071 N 877.177 -0.897851 5.36134 0
M  V30 9072 H 880.979 -0.0379943 2.93875 0
M  V30 9073 H 878.493 0.079661 1.62205 0
M  V30 9074 H 880.49 -2.466 3.36146 0
M  V30 9075 H 879.15 -2.40028 2.1867 0
M  V30 9076 H 880.161 -0.222256 5.17423 0
M  V30 9077 H 876.838 -2.21745 3.53745 0
M  V30 9078 H 878.228 0.282598 6.71305 0
M  V30 9079 N 880.948 -1.576 0.00335426 0
M  V30 9080 C 881.896 -2.09759 -1.00517 0
M  V30 9081 C 882.89 -1.01833 -1.35375 0
M  V30 9082 O 884.096 -1.20294 -1.339 0
M  V30 9083 H 880.471 -0.669821 -0.341825 0
M  V30 9084 H 882.442 -2.93478 -0.539718 0
M  V30 9085 C 881.191 -2.6189 -2.28711 0
M  V30 9086 H 880.514 -3.44571 -2.02758 0
M  V30 9087 H 881.954 -3.02061 -2.97548 0
M  V30 9088 C 880.413 -1.53455 -2.99922 0
M  V30 9089 O 880.943 -0.919402 -3.91037 0
M  V30 9090 N 879.149 -1.2612 -2.61806 0
M  V30 9091 H 878.696 -1.76329 -1.87792 0
M  V30 9092 H 878.654 -0.537872 -3.09765 0
M  V30 9093 N 882.426 0.269451 -1.5528 0
M  V30 9094 C 883.654 1.01872 -1.80082 0
M  V30 9095 C 884.069 1.79802 -0.575917 0
M  V30 9096 O 883.426 1.76735 0.455081 0
M  V30 9097 C 883.477 1.9745 -3.02813 0
M  V30 9098 O 883.198 1.22677 -4.20573 0
M  V30 9099 C 884.699 2.8416 -3.40247 0
M  V30 9100 H 881.919 0.300781 -0.59981 0
M  V30 9101 H 884.463 0.29916 -2.023 0
M  V30 9102 H 882.618 2.64864 -2.82712 0
M  V30 9103 H 883.032 1.87129 -4.89982 0
M  V30 9104 H 884.506 3.47014 -4.29284 0
M  V30 9105 H 884.983 3.54113 -2.59809 0
M  V30 9106 H 885.589 2.22232 -3.6262 0
M  V30 9107 N 883.904 1.48273 0.534124 0
M  V30 9108 C 885.32 1.34302 0.862272 0
M  V30 9109 C 885.52 0.350902 1.98421 0
M  V30 9110 O 884.576 -0.229364 2.51456 0
M  V30 9111 C 885.889 2.74227 1.23371 0
M  V30 9112 C 887.437 2.82684 1.34383 0
M  V30 9113 C 887.912 4.23301 1.74871 0
M  V30 9114 N 889.403 4.25954 1.81981 0
M  V30 9115 C 890.138 5.31693 2.14686 0
M  V30 9116 N 889.634 6.47714 2.45844 0
M  V30 9117 N 891.427 5.19084 2.15657 0
M  V30 9118 H 883.578 2.11397 -0.206215 0
M  V30 9119 H 885.841 0.947537 -0.0296116 0
M  V30 9120 H 885.547 3.48368 0.482967 0
M  V30 9121 H 885.421 3.07485 2.18478 0
M  V30 9122 H 887.808 2.08801 2.08534 0
M  V30 9123 H 887.889 2.5305 0.374063 0
M  V30 9124 H 887.533 4.97699 1.01282 0
M  V30 9125 H 887.463 4.50376 2.7289 0
M  V30 9126 H 889.954 3.42266 1.60196 0
M  V30 9127 H 890.267 7.2414 2.69892 0
M  V30 9128 H 888.612 6.50995 2.43372 0
M  V30 9129 H 891.803 4.27463 1.9077 0
M  V30 9130 H 891.976 6.01592 2.40813 0
M  V30 9131 N 885.382 -0.782676 1.36792 0
M  V30 9132 C 886.631 -1.53605 1.30723 0
M  V30 9133 C 886.944 -1.95294 -0.109296 0
M  V30 9134 O 888.15 -2.69921 -0.292398 0
M  V30 9135 C 886.606 -2.77321 2.29393 0
M  V30 9136 C 886.214 -2.42774 3.76517 0
M  V30 9137 C 887.958 -3.55289 2.32314 0
M  V30 9138 C 885.865 -3.62926 4.66947 0
M  V30 9139 H 884.795 -0.576646 0.485794 0
M  V30 9140 H 887.446 -0.858255 1.62192 0
M  V30 9141 H 885.828 -3.46934 1.90927 0
M  V30 9142 H 887.002 -1.81014 4.23758 0
M  V30 9143 H 885.317 -1.78002 3.76436 0
M  V30 9144 H 887.914 -4.44573 2.97083 0
M  V30 9145 H 888.257 -3.94361 1.3336 0
M  V30 9146 H 888.79 -2.92662 2.69432 0
M  V30 9147 H 885.529 -3.28944 5.66989 0
M  V30 9148 H 885.049 -4.23828 4.24418 0
M  V30 9149 H 886.728 -4.29873 4.83548 0
M  V30 9150 N 886.86 -1.21182 -1.00761 0
M  V30 9151 C 887.81 -0.936247 -2.0789 0
M  V30 9152 C 888.794 0.107482 -1.60541 0
M  V30 9153 O 889.986 -0.1011 -1.76711 0
M  V30 9154 C 887.115 -0.499949 -3.3964 0
M  V30 9155 C 886.201 -1.5776 -3.93666 0
M  V30 9156 N 886.592 -2.80208 -4.2109 0
M  V30 9157 C 884.89 -1.44586 -4.21913 0
M  V30 9158 C 885.591 -3.49787 -4.64784 0
M  V30 9159 N 884.567 -2.7722 -4.676 0
M  V30 9160 H 888.369 -1.86659 -2.27015 0
M  V30 9161 H 885.883 -1.10716 -1.1881 0
M  V30 9162 H 887.88 -0.283897 -4.15932 0
M  V30 9163 H 886.54 0.423659 -3.21924 0
M  V30 9164 H 887.551 -3.16776 -4.09724 0
M  V30 9165 H 884.228 -0.587346 -4.13348 0
M  V30 9166 H 885.618 -4.54615 -4.94747 0
M  V30 9167 N 888.338 1.20213 -1.01915 0
M  V30 9168 C 889.268 2.25336 -0.612023 0
M  V30 9169 C 890.249 1.65933 0.374186 0
M  V30 9170 O 891.434 1.92464 0.259053 0
M  V30 9171 C 888.564 3.47267 0.047904 0
M  V30 9172 C 887.518 4.1928 -0.859557 0
M  V30 9173 C 886.844 5.3466 -0.0652655 0
M  V30 9174 C 888.144 4.75143 -2.1688 0
M  V30 9175 H 889.838 2.59645 -1.49079 0
M  V30 9176 H 887.384 1.24808 -0.718263 0
M  V30 9177 H 889.337 4.19991 0.344294 0
M  V30 9178 H 888.061 3.12129 0.961404 0
M  V30 9179 H 886.72 3.48425 -1.13999 0
M  V30 9180 H 886.368 4.95767 0.849964 0
M  V30 9181 H 886.068 5.83772 -0.669618 0
M  V30 9182 H 887.592 6.10187 0.224612 0
M  V30 9183 H 889.006 5.39672 -1.9346 0
M  V30 9184 H 887.403 5.34702 -2.72422 0
M  V30 9185 H 888.473 3.93744 -2.83008 0
M  V30 9186 N 889.816 0.795718 1.36037 0
M  V30 9187 C 890.749 0.144269 2.27744 0
M  V30 9188 C 891.727 -0.683351 1.47543 0
M  V30 9189 O 892.911 -0.652976 1.76829 0
M  V30 9190 C 890.038 -0.800944 3.29094 0
M  V30 9191 C 889.084 -0.0543234 4.26465 0
M  V30 9192 S 889.917 1.27426 5.20118 0
M  V30 9193 C 891.073 0.333213 6.25012 0
M  V30 9194 H 891.306 0.921827 2.82648 0
M  V30 9195 H 888.839 0.590241 1.42673 0
M  V30 9196 H 890.797 -1.34082 3.87985 0
M  V30 9197 H 889.458 -1.5518 2.7309 0
M  V30 9198 H 888.651 -0.771788 4.98056 0
M  V30 9199 H 888.253 0.415264 3.71687 0
M  V30 9200 H 890.545 -0.485604 6.75757 0
M  V30 9201 H 891.488 1.01798 7.00744 0
M  V30 9202 H 891.896 -0.066256 5.64461 0
M  V30 9203 N 891.294 -1.47756 0.548274 0
M  V30 9204 C 892.705 -1.8636 0.112547 0
M  V30 9205 C 893.056 -1.45589 -1.31523 0
M  V30 9206 O 892.181 -0.854874 -1.98799 0
M  V30 9207 C 892.776 -3.38224 0.197473 0
M  V30 9208 C 891.335 -3.75954 -0.183163 0
M  V30 9209 C 890.482 -2.7181 0.549059 0
M  V30 9210 H 893.433 -1.394 0.758506 0
M  V30 9211 H 893.454 -3.75957 -0.586217 0
M  V30 9212 H 892.966 -3.67868 1.23673 0
M  V30 9213 H 891.067 -3.51926 -1.22387 0
M  V30 9214 H 891.18 -4.78801 0.169178 0
M  V30 9215 H 889.544 -2.54699 -0.00682862 0
M  V30 9216 H 890.327 -3.04296 1.5893 0
M  V30 9217 N 892.772 -0.284283 -1.55015 0
M  V30 9218 C 893.997 0.335799 -2.04664 0
M  V30 9219 C 894.422 1.47999 -1.16094 0
M  V30 9220 O 893.78 1.8058 -0.161454 0
M  V30 9221 C 893.828 0.785615 -3.51938 0
M  V30 9222 O 892.932 1.89202 -3.66437 0
M  V30 9223 H 892.273 0.0680233 -0.660506 0
M  V30 9224 H 894.803 -0.421255 -2.00216 0
M  V30 9225 H 894.813 1.07892 -3.93476 0
M  V30 9226 H 893.488 -0.0514675 -4.15868 0
M  V30 9227 H 892.065 1.60055 -3.36804 0
M  V30 9228 N 894.251 1.57596 -0.0117121 0
M  V30 9229 C 895.184 2.04624 1.01016 0
M  V30 9230 C 896.162 0.938437 1.32786 0
M  V30 9231 O 897.346 1.20746 1.44751 0
M  V30 9232 C 894.473 2.45369 2.33477 0
M  V30 9233 C 893.519 3.66998 2.17289 0
M  V30 9234 S 894.352 5.14412 1.48795 0
M  V30 9235 C 895.508 5.58438 2.82662 0
M  V30 9236 H 895.741 2.9098 0.60977 0
M  V30 9237 H 893.274 1.53106 0.199494 0
M  V30 9238 H 895.232 2.69511 3.09635 0
M  V30 9239 H 893.893 1.59391 2.70653 0
M  V30 9240 H 893.086 3.93297 3.15172 0
M  V30 9241 H 892.688 3.42918 1.49275 0
M  V30 9242 H 894.98 5.61614 3.78941 0
M  V30 9243 H 895.923 6.58224 2.61049 0
M  V30 9244 H 896.331 4.86033 2.8711 0
M  V30 9245 N 895.729 -0.261212 1.5542 0
M  V30 9246 C 896.677 -1.34298 1.89913 0
M  V30 9247 C 897.671 -1.50547 0.776665 0
M  V30 9248 O 898.877 -1.52191 0.961139 0
M  V30 9249 H 895.252 -0.4494 0.602946 0
M  V30 9250 H 897.223 -1.02464 2.80256 0
M  V30 9251 C 895.972 -2.69423 2.19788 0
M  V30 9252 H 895.295 -2.57715 3.05652 0
M  V30 9253 H 896.735 -3.44026 2.47835 0
M  V30 9254 C 895.194 -3.21423 1.00939 0
M  V30 9255 O 895.724 -4.00921 0.250034 0
M  V30 9256 N 893.93 -2.7926 0.803883 0
M  V30 9257 H 893.477 -2.14724 1.42308 0
M  V30 9258 H 893.435 -3.14398 0.0103257 0
M  V30 9259 N 897.207 -1.48554 -0.526253 0
M  V30 9260 C 898.618 -1.50256 -1.10815 0
M  V30 9261 C 898.969 -0.274445 -1.94271 0
M  V30 9262 O 898.094 0.618094 -2.07385 0
M  V30 9263 C 898.689 -2.72264 -2.01638 0
M  V30 9264 C 897.248 -2.76826 -2.55038 0
M  V30 9265 C 896.395 -2.43823 -1.32081 0
M  V30 9266 H 899.346 -1.55616 -0.31133 0
M  V30 9267 H 899.367 -2.50993 -2.85977 0
M  V30 9268 H 898.879 -3.61632 -1.4087 0
M  V30 9269 H 896.98 -1.91676 -3.19517 0
M  V30 9270 H 897.093 -3.78351 -2.93917 0
M  V30 9271 H 895.457 -1.95058 -1.63781 0
M  V30 9272 H 896.24 -3.35436 -0.730596 0
M  V30 9273 N 898.685 0.775411 -1.37205 0
M  V30 9274 C 899.962 1.5229 -1.22748 0
M  V30 9275 C 900.342 2.10327 0.180487 0
M  V30 9276 O 899.69 1.95206 1.18772 0
M  V30 9277 C 899.9 2.60671 -2.3206 0
M  V30 9278 C 901.248 3.28173 -2.6942 0
M  V30 9279 O 902.272 2.70963 -2.31208 0
M  V30 9280 O 901.131 4.31598 -3.3524 0
M  V30 9281 H 898.225 0.674326 -0.478762 0
M  V30 9282 H 900.771 0.812691 -1.48975 0
M  V30 9283 H 899.543 2.1588 -3.26361 0
M  V30 9284 H 899.166 3.39296 -2.07277 0
M  V30 9285 N 900.163 1.21714 1.00117 0
M  V30 9286 C 901.411 1.03465 1.73607 0
M  V30 9287 C 901.732 -0.432295 1.90148 0
M  V30 9288 O 901.002 -1.31157 1.45515 0
M  V30 9289 H 899.582 0.379857 0.643209 0
M  V30 9290 H 902.244 1.53088 1.20624 0
M  V30 9291 H 901.34 1.50574 2.73375 0
M  V30 9292 N 901.641 -1.19671 1.02551 0
M  V30 9293 C 902.871 -1.92952 0.738441 0
M  V30 9294 C 903.279 -1.75528 -0.706155 0
M  V30 9295 O 902.622 -1.0723 -1.49156 0
M  V30 9296 C 902.684 -3.45149 1.00562 0
M  V30 9297 C 902.348 -3.86341 2.44109 0
M  V30 9298 C 903.345 -3.91374 3.42231 0
M  V30 9299 C 901.03 -4.18076 2.7842 0
M  V30 9300 C 903.024 -4.27568 4.7272 0
M  V30 9301 C 900.711 -4.53943 4.0912 0
M  V30 9302 C 901.709 -4.58663 5.06081 0
M  V30 9303 O 901.397 -4.93701 6.3444 0
M  V30 9304 H 901.129 -0.619836 0.269776 0
M  V30 9305 H 903.683 -1.52852 1.37206 0
M  V30 9306 H 901.913 -3.85416 0.314849 0
M  V30 9307 H 903.602 -3.99664 0.708742 0
M  V30 9308 H 904.368 -3.67011 3.17061 0
M  V30 9309 H 900.247 -4.13589 2.03631 0
M  V30 9310 H 903.791 -4.31166 5.48399 0
M  V30 9311 H 899.688 -4.77764 4.34064 0
M  V30 9312 H 900.456 -5.11662 6.38862 0
M  V30 9313 N 903.119 -0.802921 -1.35613 0
M  V30 9314 C 904.029 -0.212177 -2.33639 0
M  V30 9315 C 905.045 0.642871 -1.61689 0
M  V30 9316 O 906.221 0.555485 -1.93588 0
M  V30 9317 C 903.286 0.632406 -3.40883 0
M  V30 9318 C 902.347 -0.242708 -4.28613 0
M  V30 9319 C 901.58 0.56166 -5.30736 0
M  V30 9320 O 901.803 1.79664 -5.41366 0
M  V30 9321 O 900.737 -0.0455387 -6.01883 0
M  V30 9322 H 904.563 -1.023 -2.85952 0
M  V30 9323 H 902.148 -0.564636 -1.38319 0
M  V30 9324 H 904.03 1.11358 -4.0642 0
M  V30 9325 H 902.705 1.42089 -2.90848 0
M  V30 9326 H 901.612 -0.77094 -3.6607 0
M  V30 9327 H 902.945 -0.995046 -4.82037 0
M  V30 9328 N 904.597 1.47463 -0.556102 0
M  V30 9329 C 905.544 2.29998 0.192213 0
M  V30 9330 C 906.514 1.38993 0.909403 0
M  V30 9331 O 907.699 1.67954 0.905316 0
M  V30 9332 C 904.839 3.22932 1.21692 0
M  V30 9333 C 903.952 4.29027 0.505908 0
M  V30 9334 C 903.087 5.09114 1.51581 0
M  V30 9335 C 902.126 6.06984 0.789714 0
M  V30 9336 N 901.263 6.80033 1.74639 0
M  V30 9337 H 906.103 2.93468 -0.517734 0
M  V30 9338 H 903.64 1.44654 -0.267147 0
M  V30 9339 H 905.598 3.75234 1.8236 0
M  V30 9340 H 904.228 2.61329 1.89491 0
M  V30 9341 H 903.28 3.7979 -0.215276 0
M  V30 9342 H 904.592 4.9876 -0.062958 0
M  V30 9343 H 903.746 5.6556 2.19606 0
M  V30 9344 H 902.485 4.3928 2.11859 0
M  V30 9345 H 901.49 5.49717 0.0955382 0
M  V30 9346 H 902.715 6.78827 0.192688 0
M  V30 9347 H 900.661 6.12931 2.33777 0
M  V30 9348 H 900.578 7.45933 1.22965 0
M  V30 9349 H 901.846 7.41054 2.41782 0
M  V30 9350 N 906.075 0.2925 1.54862 0
M  V30 9351 C 907.3 -0.32494 2.04839 0
M  V30 9352 C 907.725 -1.47381 1.16877 0
M  V30 9353 O 907.083 -1.80492 0.171028 0
M  V30 9354 C 907.131 -0.76694 3.5235 0
M  V30 9355 O 906.235 -1.87256 3.67436 0
M  V30 9356 H 905.576 -0.0645195 0.660858 0
M  V30 9357 H 908.106 0.431867 1.9999 0
M  V30 9358 H 908.116 -1.05804 3.94043 0
M  V30 9359 H 906.791 0.0735212 4.15835 0
M  V30 9360 H 905.368 -1.58266 3.37648 0
M  V30 9361 N 907.553 -1.57587 0.0200696 0
M  V30 9362 C 908.485 -2.06555 -0.993359 0
M  V30 9363 C 909.498 -0.987227 -1.29451 0
M  V30 9364 O 910.687 -1.26361 -1.26075 0
M  V30 9365 C 907.787 -2.4675 -2.3231 0
M  V30 9366 C 906.96 -3.77554 -2.20843 0
M  V30 9367 C 906.019 -4.04397 -3.36674 0
M  V30 9368 O 905.045 -4.7478 -3.13963 0
M  V30 9369 N 906.247 -3.53861 -4.60176 0
M  V30 9370 H 909.012 -2.9412 -0.575617 0
M  V30 9371 H 906.573 -1.61038 -0.166889 0
M  V30 9372 H 908.565 -2.61806 -3.08609 0
M  V30 9373 H 907.135 -1.64598 -2.65756 0
M  V30 9374 H 906.355 -3.72382 -1.29327 0
M  V30 9375 H 907.643 -4.63271 -2.10375 0
M  V30 9376 H 907.041 -2.96904 -4.81523 0
M  V30 9377 H 905.598 -3.74213 -5.33674 0
M  V30 9378 N 909.032 0.252966 -1.55557 0
M  V30 9379 C 909.942 1.33472 -1.92931 0
M  V30 9380 C 910.958 1.52983 -0.828985 0
M  V30 9381 O 912.134 1.66723 -1.12984 0
M  V30 9382 C 909.199 2.6704 -2.21112 0
M  V30 9383 C 908.26 2.56103 -3.44542 0
M  V30 9384 C 907.493 3.83302 -3.71369 0
M  V30 9385 O 907.716 4.84907 -3.00368 0
M  V30 9386 O 906.65 3.823 -4.64898 0
M  V30 9387 H 910.476 1.04768 -2.85057 0
M  V30 9388 H 908.061 0.453208 -1.4236 0
M  V30 9389 H 909.943 3.45981 -2.40572 0
M  V30 9390 H 908.618 2.95489 -1.32166 0
M  V30 9391 H 907.525 1.7547 -3.30396 0
M  V30 9392 H 908.858 2.32601 -4.33772 0
M  V30 9393 N 910.51 1.48831 0.518367 0
M  V30 9394 C 911.758 1.57128 1.27103 0
M  V30 9395 C 912.079 0.252098 1.93364 0
M  V30 9396 O 911.349 -0.727281 1.819 0
M  V30 9397 H 909.929 0.578891 0.472116 0
M  V30 9398 H 912.591 1.85361 0.602262 0
M  V30 9399 H 911.687 2.35838 2.04418 0
M  V30 9400 N 911.988 -0.768124 1.37614 0
M  V30 9401 C 913.265 -1.51637 1.23554 0
M  V30 9402 C 913.645 -2.1042 -0.169331 0
M  V30 9403 O 912.993 -1.95834 -1.17735 0
M  V30 9404 C 913.203 -2.59436 2.33439 0
M  V30 9405 C 914.551 -3.2674 2.71157 0
M  V30 9406 O 915.575 -2.69733 2.32642 0
M  V30 9407 O 914.434 -4.29814 3.37524 0
M  V30 9408 H 911.528 -0.671778 0.482332 0
M  V30 9409 H 914.074 -0.804779 1.49403 0
M  V30 9410 H 912.846 -2.14146 3.27502 0
M  V30 9411 H 912.469 -3.38192 2.09073 0
M  V30 9412 N 913.466 -1.22244 -0.994698 0
M  V30 9413 C 914.691 -1.07299 -1.77487 0
M  V30 9414 C 915.116 0.372302 -1.84379 0
M  V30 9415 O 914.474 1.2689 -1.29494 0
M  V30 9416 C 914.522 -1.68675 -3.18718 0
M  V30 9417 O 913.626 -0.939202 -4.01563 0
M  V30 9418 H 912.967 -0.376979 -0.546611 0
M  V30 9419 H 915.497 -1.62003 -1.24965 0
M  V30 9420 H 915.507 -1.73324 -3.69354 0
M  V30 9421 H 914.182 -2.73849 -3.13017 0
M  V30 9422 H 912.759 -0.968583 -3.60101 0
M  V30 9423 N 914.944 1.19125 -1.03184 0
M  V30 9424 C 916.193 1.8821 -0.725264 0
M  V30 9425 C 916.506 1.80674 0.749411 0
M  V30 9426 O 917.712 2.45037 1.16915 0
M  V30 9427 C 916.168 3.37607 -1.24697 0
M  V30 9428 C 915.776 3.53693 -2.74964 0
M  V30 9429 C 917.52 4.12149 -1.01652 0
M  V30 9430 C 915.427 4.97001 -3.20538 0
M  V30 9431 H 914.357 0.704916 -0.267599 0
M  V30 9432 H 917.008 1.34663 -1.24652 0
M  V30 9433 H 915.39 3.90569 -0.653614 0
M  V30 9434 H 916.564 3.11046 -3.39981 0
M  V30 9435 H 914.879 2.92544 -2.96322 0
M  V30 9436 H 917.476 5.17837 -1.33226 0
M  V30 9437 H 917.819 4.16274 0.0465712 0
M  V30 9438 H 918.352 3.65334 -1.57403 0
M  V30 9439 H 915.091 4.9804 -4.26189 0
M  V30 9440 H 914.611 5.40398 -2.60251 0
M  V30 9441 H 916.29 5.65669 -3.14049 0
M  V30 9442 N 916.422 0.810101 1.35185 0
M  V30 9443 C 917.647 0.40364 2.03434 0
M  V30 9444 C 918.072 -0.97857 1.60641 0
M  V30 9445 O 917.43 -1.63435 0.784779 0
M  V30 9446 C 917.478 0.499154 3.57129 0
M  V30 9447 O 916.582 -0.486039 4.09526 0
M  V30 9448 H 915.923 0.168049 0.642383 0
M  V30 9449 H 918.453 1.09696 1.72708 0
M  V30 9450 H 918.463 0.370236 4.06317 0
M  V30 9451 H 917.138 1.50733 3.87624 0
M  V30 9452 H 915.715 -0.31707 3.7155 0
M  V30 9453 N 917.9 -1.47166 0.563914 0
M  V30 9454 C 919.146 -2.02756 0.0424338 0
M  V30 9455 C 919.479 -1.43662 -1.3067 0
M  V30 9456 O 918.754 -0.594676 -1.85186 0
M  V30 9457 C 919.037 -3.60074 -0.0434793 0
M  V30 9458 C 918.89 -4.29587 1.33323 0
M  V30 9459 C 920.209 -4.336 -0.753568 0
M  V30 9460 H 917.328 -0.736806 0.0168946 0
M  V30 9461 H 919.97 -1.75521 0.727496 0
M  V30 9462 H 918.12 -3.83409 -0.626906 0
M  V30 9463 H 919.792 -4.17573 1.96037 0
M  V30 9464 H 918.035 -3.8968 1.9061 0
M  V30 9465 H 918.706 -5.38218 1.22576 0
M  V30 9466 H 921.182 -4.15299 -0.258126 0
M  V30 9467 H 920.058 -5.43291 -0.782659 0
M  V30 9468 H 920.319 -4.03302 -1.81108 0
M  V30 9469 N 919.378 -0.300708 -1.54705 0
M  V30 9470 C 920.627 0.309428 -1.99312 0
M  V30 9471 C 920.94 1.55027 -1.19272 0
M  V30 9472 O 922.146 2.23498 -1.54146 0
M  V30 9473 C 920.602 0.601856 -3.54832 0
M  V30 9474 C 920.21 -0.620636 -4.4368 0
M  V30 9475 C 921.954 1.1732 -4.07966 0
M  V30 9476 C 919.861 -0.301376 -5.90632 0
M  V30 9477 H 918.791 0.119395 -0.744487 0
M  V30 9478 H 921.442 -0.409368 -1.78875 0
M  V30 9479 H 919.824 1.38024 -3.71168 0
M  V30 9480 H 920.998 -1.39685 -4.39118 0
M  V30 9481 H 919.313 -1.1106 -4.01316 0
M  V30 9482 H 921.91 1.42631 -5.15326 0
M  V30 9483 H 922.253 2.11537 -3.5855 0
M  V30 9484 H 922.786 0.456534 -3.95172 0
M  V30 9485 H 919.525 -1.21209 -6.44196 0
M  V30 9486 H 919.045 0.437574 -5.98202 0
M  V30 9487 H 920.724 0.097164 -6.46927 0
M  V30 9488 N 920.856 1.57574 -0.0284266 0
M  V30 9489 C 922.104 1.91393 0.649079 0
M  V30 9490 C 922.425 0.905368 1.72708 0
M  V30 9491 O 921.695 -0.0532107 1.95828 0
M  V30 9492 H 920.275 0.70646 0.24274 0
M  V30 9493 H 922.937 1.94752 -0.076066 0
M  V30 9494 H 922.033 2.91988 1.10226 0
M  V30 9495 N 922.334 -0.244713 1.55689 0
M  V30 9496 C 923.75 -0.593331 1.48161 0
M  V30 9497 C 923.95 -1.88234 0.719047 0
M  V30 9498 O 923.006 -2.51266 0.249292 0
M  V30 9499 C 924.319 -0.694032 2.92581 0
M  V30 9500 C 925.867 -0.786213 3.02965 0
M  V30 9501 C 926.342 -0.918457 4.48696 0
M  V30 9502 N 927.833 -0.983272 4.52643 0
M  V30 9503 C 928.568 -1.1049 5.62654 0
M  V30 9504 N 928.064 -1.19193 6.8247 0
M  V30 9505 N 929.857 -1.13823 5.50455 0
M  V30 9506 H 922.008 0.601446 2.03707 0
M  V30 9507 H 924.271 0.207894 0.924924 0
M  V30 9508 H 923.977 0.183133 3.51223 0
M  V30 9509 H 923.851 -1.56525 3.4319 0
M  V30 9510 H 926.238 -1.65383 2.44402 0
M  V30 9511 H 926.319 0.110202 2.55563 0
M  V30 9512 H 925.963 -0.0553881 5.0787 0
M  V30 9513 H 925.893 -1.82994 4.93782 0
M  V30 9514 H 928.384 -0.927269 3.66347 0
M  V30 9515 H 928.697 -1.28387 7.62061 0
M  V30 9516 H 927.042 -1.16147 6.85226 0
M  V30 9517 H 930.233 -1.06673 4.55783 0
M  V30 9518 H 930.406 -1.22957 6.36228 0
M  V30 9519 N 923.813 -1.49104 -0.510467 0
M  V30 9520 C 924.761 -1.65547 -1.63392 0
M  V30 9521 C 925.755 -0.521522 -1.61172 0
M  V30 9522 O 926.961 -0.700865 -1.65795 0
M  V30 9523 H 923.336 -0.521843 -0.541464 0
M  V30 9524 H 925.307 -2.59864 -1.46673 0
M  V30 9525 C 924.056 -1.73051 -3.01577 0
M  V30 9526 H 923.379 -2.59676 -3.03987 0
M  V30 9527 H 924.819 -1.88594 -3.79748 0
M  V30 9528 C 923.278 -0.47328 -3.33559 0
M  V30 9529 O 923.808 0.405239 -3.99651 0
M  V30 9530 N 922.014 -0.339074 -2.88615 0
M  V30 9531 H 921.561 -1.05497 -2.35007 0
M  V30 9532 H 921.519 0.501061 -3.10382 0
M  V30 9533 N 925.291 0.760815 -1.38019 0
M  V30 9534 C 926.239 1.89578 -1.34771 0
M  V30 9535 C 927.233 1.67766 -0.234714 0
M  V30 9536 O 928.439 1.75423 -0.403352 0
M  V30 9537 H 924.814 0.623608 -0.420258 0
M  V30 9538 H 926.785 1.89434 -2.30558 0
M  V30 9539 C 925.534 3.26976 -1.18246 0
M  V30 9540 H 924.857 3.44342 -2.03147 0
M  V30 9541 H 926.297 4.06657 -1.20026 0
M  V30 9542 C 924.756 3.36717 0.111145 0
M  V30 9543 O 925.286 3.86607 1.09079 0
M  V30 9544 N 923.492 2.90128 0.165542 0
M  V30 9545 H 923.039 2.49719 -0.632328 0
M  V30 9546 H 922.997 2.97026 1.03067 0
M  V30 9547 N 926.769 1.22769 0.988202 0
M  V30 9548 C 927.994 1.08239 1.76915 0
M  V30 9549 C 928.419 -0.362519 1.84574 0
M  V30 9550 O 927.777 -1.26202 1.30165 0
M  V30 9551 C 927.825 1.70363 3.17819 0
M  V30 9552 O 926.929 0.960484 4.01059 0
M  V30 9553 H 926.27 0.379872 0.544604 0
M  V30 9554 H 928.8 1.62663 1.24104 0
M  V30 9555 H 928.81 1.7528 3.6843 0
M  V30 9556 H 927.485 2.75505 3.1156 0
M  V30 9557 H 926.062 0.987667 3.59582 0
M  V30 9558 N 928.247 -1.18576 1.03814 0
M  V30 9559 C 929.195 -2.24166 0.620678 0
M  V30 9560 C 930.189 -1.65718 -0.351282 0
M  V30 9561 O 931.395 -1.78665 -0.218848 0
M  V30 9562 H 927.77 -0.729522 0.182487 0
M  V30 9563 H 929.741 -2.56686 1.52166 0
M  V30 9564 C 928.49 -3.477 -0.00307331 0
M  V30 9565 H 927.813 -3.92969 0.735874 0
M  V30 9566 H 929.253 -4.23214 -0.257988 0
M  V30 9567 C 927.712 -3.12757 -1.2524 0
M  V30 9568 O 928.242 -3.26261 -2.34344 0
M  V30 9569 N 926.448 -2.67104 -1.14471 0
M  V30 9570 H 925.995 -2.56316 -0.256873 0
M  V30 9571 H 925.953 -2.44096 -1.98153 0
M  V30 9572 N 929.725 -0.817259 -1.34754 0
M  V30 9573 C 930.673 -0.223352 -2.31525 0
M  V30 9574 C 931.667 0.632785 -1.57137 0
M  V30 9575 O 932.873 0.524757 -1.72181 0
M  V30 9576 H 929.248 -0.0534765 -0.750096 0
M  V30 9577 H 931.219 -1.05446 -2.79148 0
M  V30 9578 C 929.968 0.604784 -3.424 0
M  V30 9579 H 929.291 -0.0446664 -3.99775 0
M  V30 9580 H 930.731 0.986543 -4.12363 0
M  V30 9581 C 929.19 1.77478 -2.86362 0
M  V30 9582 O 929.72 2.87273 -2.8078 0
M  V30 9583 N 927.926 1.58971 -2.43263 0
M  V30 9584 H 927.473 0.696598 -2.48003 0
M  V30 9585 H 927.431 2.37408 -2.06119 0
M  V30 9586 N 931.203 1.46865 -0.571711 0
M  V30 9587 C 932.45 2.0243 -0.0531071 0
M  V30 9588 C 932.778 1.44446 1.30252 0
M  V30 9589 O 932.033 0.595182 1.8643 0
M  V30 9590 C 932.332 3.57323 0.0742311 0
M  V30 9591 C 931.998 4.34295 -1.21237 0
M  V30 9592 C 930.66 4.55044 -1.56489 0
M  V30 9593 C 933.012 4.78577 -2.0643 0
M  V30 9594 C 930.34 5.17325 -2.76752 0
M  V30 9595 C 932.692 5.42186 -3.25909 0
M  V30 9596 C 931.356 5.61165 -3.61456 0
M  V30 9597 H 930.626 0.740745 -0.0194333 0
M  V30 9598 H 933.273 1.76366 -0.74614 0
M  V30 9599 H 931.578 3.82461 0.850325 0
M  V30 9600 H 933.275 3.97982 0.491077 0
M  V30 9601 H 929.865 4.18435 -0.927922 0
M  V30 9602 H 934.049 4.62313 -1.80501 0
M  V30 9603 H 929.305 5.30211 -3.04444 0
M  V30 9604 H 933.479 5.75459 -3.92198 0
M  V30 9605 H 931.106 6.09195 -4.54737 0
M  V30 9606 N 932.681 0.308908 1.54543 0
M  V30 9607 C 933.958 -0.351558 1.92415 0
M  V30 9608 C 934.338 -1.71061 1.23699 0
M  V30 9609 O 933.686 -2.25394 0.3755 0
M  V30 9610 C 933.896 -0.458357 3.45977 0
M  V30 9611 C 935.244 -0.725524 4.18355 0
M  V30 9612 O 936.268 -0.541859 3.52054 0
M  V30 9613 O 935.127 -1.07884 5.35745 0
M  V30 9614 H 932.221 -0.197957 0.802958 0
M  V30 9615 H 934.767 0.357548 1.65891 0
M  V30 9616 H 933.539 0.496723 3.88134 0
M  V30 9617 H 933.162 -1.21562 3.78561 0
M  V30 9618 N 934.159 -1.57557 0.0367827 0
M  V30 9619 C 935.089 -2.13712 -0.940719 0
M  V30 9620 C 936.07 -1.05515 -1.33419 0
M  V30 9621 O 937.255 -1.33385 -1.41146 0
M  V30 9622 C 934.385 -2.67043 -2.22048 0
M  V30 9623 C 933.339 -3.80096 -1.96752 0
M  V30 9624 C 932.665 -4.19886 -3.31059 0
M  V30 9625 C 933.965 -5.05848 -1.30058 0
M  V30 9626 H 935.659 -2.9564 -0.473033 0
M  V30 9627 H 933.205 -1.42214 -0.226089 0
M  V30 9628 H 935.158 -3.04964 -2.90818 0
M  V30 9629 H 933.882 -1.82287 -2.70996 0
M  V30 9630 H 932.541 -3.42625 -1.30398 0
M  V30 9631 H 932.189 -3.32101 -3.77781 0
M  V30 9632 H 931.889 -4.96073 -3.14937 0
M  V30 9633 H 933.413 -4.60395 -4.01084 0
M  V30 9634 H 934.827 -5.41306 -1.8884 0
M  V30 9635 H 933.224 -5.87084 -1.24309 0
M  V30 9636 H 934.294 -4.84122 -0.274591 0
M  V30 9637 N 935.637 0.236453 -1.55816 0
M  V30 9638 C 936.585 1.31259 -1.92025 0
M  V30 9639 C 937.579 1.49292 -0.800518 0
M  V30 9640 O 938.785 1.50643 -0.985229 0
M  V30 9641 H 935.16 0.439751 -0.610019 0
M  V30 9642 H 937.131 0.979926 -2.81851 0
M  V30 9643 C 935.88 2.65892 -2.24046 0
M  V30 9644 H 935.203 2.5282 -3.09713 0
M  V30 9645 H 936.643 3.40039 -2.53277 0
M  V30 9646 C 935.102 3.19777 -1.0604 0
M  V30 9647 O 935.632 4.00473 -0.313786 0
M  V30 9648 N 933.838 2.77946 -0.848209 0
M  V30 9649 H 933.385 2.12433 -1.45706 0
M  V30 9650 H 933.343 3.14342 -0.0603424 0
M  V30 9651 N 937.115 1.49373 0.502552 0
M  V30 9652 C 938.531 1.36101 0.833591 0
M  V30 9653 C 938.731 0.392911 1.97632 0
M  V30 9654 O 937.787 -0.175975 2.51886 0
M  V30 9655 C 939.1 2.76782 1.17526 0
M  V30 9656 C 940.648 2.85471 1.28356 0
M  V30 9657 C 941.123 4.26915 1.65853 0
M  V30 9658 N 942.614 4.29719 1.72905 0
M  V30 9659 C 943.349 5.36127 2.0336 0
M  V30 9660 N 942.845 6.52782 2.32049 0
M  V30 9661 N 944.638 5.23542 2.04598 0
M  V30 9662 H 936.789 2.10912 -0.251008 0
M  V30 9663 H 939.052 0.946696 -0.0497037 0
M  V30 9664 H 938.758 3.49314 0.408965 0
M  V30 9665 H 938.632 3.1205 2.11907 0
M  V30 9666 H 941.019 2.13177 2.04058 0
M  V30 9667 H 941.1 2.53787 0.320304 0
M  V30 9668 H 940.744 4.99735 0.907022 0
M  V30 9669 H 940.674 4.56063 2.63276 0
M  V30 9670 H 943.165 3.45586 1.529 0
M  V30 9671 H 943.478 7.29701 2.54471 0
M  V30 9672 H 941.823 6.56011 2.29509 0
M  V30 9673 H 945.014 4.31413 1.8166 0
M  V30 9674 H 945.187 6.06565 2.27998 0
M  V30 9675 N 938.594 -0.753485 1.38421 0
M  V30 9676 C 939.542 -1.8886 1.35774 0
M  V30 9677 C 940.536 -1.67639 0.243608 0
M  V30 9678 O 941.742 -1.75206 0.412649 0
M  V30 9679 H 938.117 -0.62137 0.42356 0
M  V30 9680 H 940.088 -1.88209 2.3156 0
M  V30 9681 C 938.837 -3.26344 1.19979 0
M  V30 9682 H 938.16 -3.43259 2.04971 0
M  V30 9683 H 939.6 -4.06015 1.22181 0
M  V30 9684 C 938.059 -3.36771 -0.0932867 0
M  V30 9685 O 938.589 -3.8718 -1.07027 0
M  V30 9686 N 936.795 -2.90212 -0.150154 0
M  V30 9687 H 936.342 -2.4938 0.645562 0
M  V30 9688 H 936.3 -2.97569 -1.0149 0
M  V30 9689 N 940.072 -1.23292 -0.981677 0
M  V30 9690 C 941.319 -1.06424 -1.72279 0
M  V30 9691 C 941.647 0.399055 -1.90362 0
M  V30 9692 O 940.902 1.31181 -1.45224 0
M  V30 9693 C 941.201 -1.73339 -3.12551 0
M  V30 9694 C 940.867 -3.23256 -3.14351 0
M  V30 9695 C 939.529 -3.64159 -3.14549 0
M  V30 9696 C 941.881 -4.1916 -3.09765 0
M  V30 9697 C 939.209 -4.99428 -3.07877 0
M  V30 9698 C 941.561 -5.54419 -3.04635 0
M  V30 9699 C 940.225 -5.94688 -3.03154 0
M  V30 9700 H 939.495 -0.389434 -0.630415 0
M  V30 9701 H 942.142 -1.53208 -1.1489 0
M  V30 9702 H 940.447 -1.18911 -3.73319 0
M  V30 9703 H 942.144 -1.57767 -3.68661 0
M  V30 9704 H 938.734 -2.90693 -3.14953 0
M  V30 9705 H 942.918 -3.88569 -3.08753 0
M  V30 9706 H 938.174 -5.29844 -3.05083 0
M  V30 9707 H 942.348 -6.28448 -3.00043 0
M  V30 9708 H 939.975 -6.99468 -2.97739 0
M  V30 9709 N 941.55 1.18024 -1.04442 0
M  V30 9710 C 942.961 1.69749 -0.777312 0
M  V30 9711 C 943.312 1.83234 0.701399 0
M  V30 9712 O 942.437 1.51452 1.54568 0
M  V30 9713 C 943.032 3.08321 -1.40441 0
M  V30 9714 C 941.591 3.57243 -1.18553 0
M  V30 9715 C 940.738 2.33695 -1.49271 0
M  V30 9716 H 943.689 1.02647 -1.21035 0
M  V30 9717 H 943.71 3.71787 -0.809628 0
M  V30 9718 H 943.222 2.98474 -2.48062 0
M  V30 9719 H 941.323 3.72379 -0.128221 0
M  V30 9720 H 941.436 4.40451 -1.88519 0
M  V30 9721 H 939.8 2.37792 -0.912526 0
M  V30 9722 H 940.583 2.26464 -2.5801 0
M  V30 9723 N 943.028 0.824394 1.34319 0
M  V30 9724 C 944.305 0.335692 1.92698 0
M  V30 9725 C 944.685 -1.17715 1.75232 0
M  V30 9726 O 944.033 -1.98493 1.13194 0
M  V30 9727 C 944.243 0.766647 3.40475 0
M  V30 9728 C 945.591 0.766323 4.17627 0
M  V30 9729 O 946.615 0.709321 3.49066 0
M  V30 9730 O 945.474 0.840856 5.39992 0
M  V30 9731 H 942.568 0.0919996 0.821867 0
M  V30 9732 H 945.114 0.909282 1.43283 0
M  V30 9733 H 943.886 1.80859 3.46995 0
M  V30 9734 H 943.509 0.168833 3.97241 0
M  V30 9735 N 944.506 -1.46559 0.579492 0
M  V30 9736 C 945.438 -2.28383 -0.19337 0
M  V30 9737 C 946.451 -1.38324 -0.858511 0
M  V30 9738 O 947.64 -1.62952 -0.728615 0
M  V30 9739 C 944.74 -3.13262 -1.29306 0
M  V30 9740 C 943.913 -4.31426 -0.720459 0
M  V30 9741 C 942.972 -4.97728 -1.70744 0
M  V30 9742 O 941.998 -5.55423 -1.24476 0
M  V30 9743 N 943.2 -4.94445 -3.04146 0
M  V30 9744 H 945.965 -2.95353 0.508611 0
M  V30 9745 H 943.526 -1.56436 0.417046 0
M  V30 9746 H 945.518 -3.54483 -1.95254 0
M  V30 9747 H 944.088 -2.48388 -1.89795 0
M  V30 9748 H 943.308 -3.94028 0.116398 0
M  V30 9749 H 944.596 -5.07808 -0.31763 0
M  V30 9750 H 943.994 -4.4881 -3.44363 0
M  V30 9751 H 942.551 -5.39616 -3.65592 0
M  V30 9752 N 945.984 -0.3171 -1.54377 0
M  V30 9753 C 947.231 0.28741 -2.0045 0
M  V30 9754 C 947.559 1.52648 -1.20535 0
M  V30 9755 O 946.814 1.93775 -0.273831 0
M  V30 9756 C 947.113 0.672917 -3.51008 0
M  V30 9757 C 946.779 -0.466245 -4.48483 0
M  V30 9758 C 945.441 -0.778933 -4.74854 0
M  V30 9759 C 947.793 -1.23176 -5.06436 0
M  V30 9760 C 945.121 -1.85997 -5.56437 0
M  V30 9761 C 947.473 -2.30284 -5.89196 0
M  V30 9762 C 946.137 -2.62141 -6.13872 0
M  V30 9763 H 945.407 0.105171 -0.733499 0
M  V30 9764 H 948.054 -0.439538 -1.86388 0
M  V30 9765 H 946.359 1.48019 -3.62764 0
M  V30 9766 H 948.056 1.15209 -3.84094 0
M  V30 9767 H 944.646 -0.212449 -4.28073 0
M  V30 9768 H 948.83 -1.00344 -4.8605 0
M  V30 9769 H 944.086 -2.11134 -5.73788 0
M  V30 9770 H 948.26 -2.90048 -6.33123 0
M  V30 9771 H 945.887 -3.46037 -6.76877 0
M  V30 9772 N 947.462 1.57535 -0.0451378 0
M  V30 9773 C 948.708 1.92736 0.630921 0
M  V30 9774 C 949.041 0.923265 1.70849 0
M  V30 9775 O 948.316 -0.0516512 1.94431 0
M  V30 9776 C 948.599 3.38348 1.23259 0
M  V30 9777 C 948.452 4.49503 0.16349 0
M  V30 9778 C 949.771 3.84233 2.14599 0
M  V30 9779 H 946.89 0.700884 0.227883 0
M  V30 9780 H 949.532 1.89706 -0.10567 0
M  V30 9781 H 947.682 3.41061 1.86037 0
M  V30 9782 H 949.354 4.58919 -0.46808 0
M  V30 9783 H 947.597 4.30802 -0.509166 0
M  V30 9784 H 948.268 5.48457 0.624382 0
M  V30 9785 H 950.744 3.83358 1.6179 0
M  V30 9786 H 949.62 4.86781 2.53644 0
M  V30 9787 H 949.881 3.20646 3.04366 0
M  V30 9788 N 948.94 -0.228186 1.55939 0
M  V30 9789 C 949.872 -1.30605 1.88348 0
M  V30 9790 C 950.885 -1.43375 0.771198 0
M  V30 9791 O 952.074 -1.44391 1.04945 0
M  V30 9792 C 949.174 -2.68248 2.07115 0
M  V30 9793 C 948.347 -2.77509 3.38094 0
M  V30 9794 C 947.406 -3.96121 3.46373 0
M  V30 9795 O 946.432 -3.8477 4.19453 0
M  V30 9796 N 947.634 -5.10132 2.77031 0
M  V30 9797 H 950.399 -1.03132 2.81396 0
M  V30 9798 H 947.96 -0.418245 1.56404 0
M  V30 9799 H 949.952 -3.45966 2.09976 0
M  V30 9800 H 948.522 -2.88348 1.20723 0
M  V30 9801 H 947.742 -1.8632 3.47388 0
M  V30 9802 H 949.03 -2.80662 4.2439 0
M  V30 9803 H 948.428 -5.22249 2.17424 0
M  V30 9804 H 946.985 -5.85916 2.85561 0
M  V30 9805 N 950.418 -1.49637 -0.494624 0
M  V30 9806 C 951.667 -1.58691 -1.24499 0
M  V30 9807 C 951.98 -0.281763 -1.9356 0
M  V30 9808 O 953.186 -0.250925 -2.70338 0
M  V30 9809 C 951.642 -2.8002 -2.26091 0
M  V30 9810 C 951.25 -4.17318 -1.6294 0
M  V30 9811 C 952.994 -2.98407 -3.01916 0
M  V30 9812 C 950.901 -5.29862 -2.62679 0
M  V30 9813 H 949.831 -0.590888 -0.468367 0
M  V30 9814 H 952.482 -1.76034 -0.518112 0
M  V30 9815 H 950.864 -2.56185 -3.01969 0
M  V30 9816 H 952.038 -4.51315 -0.930108 0
M  V30 9817 H 950.353 -4.04342 -0.994819 0
M  V30 9818 H 952.95 -3.79658 -3.76516 0
M  V30 9819 H 953.293 -2.09214 -3.5991 0
M  V30 9820 H 953.826 -3.22312 -2.33152 0
M  V30 9821 H 950.565 -6.21134 -2.09458 0
M  V30 9822 H 950.085 -5.00311 -3.3083 0
M  V30 9823 H 951.764 -5.59461 -3.2498 0
M  V30 9824 N 951.896 0.746133 -1.38819 0
M  V30 9825 C 953.124 1.53539 -1.38685 0
M  V30 9826 C 953.539 1.88788 0.0215039 0
M  V30 9827 O 952.896 1.53312 0.990031 0
M  V30 9828 C 952.947 2.8299 -2.24942 0
M  V30 9829 O 952.668 2.49242 -3.60292 0
M  V30 9830 C 954.169 3.77085 -2.3307 0
M  V30 9831 H 951.389 0.474842 -0.474095 0
M  V30 9832 H 953.933 0.922844 -1.82493 0
M  V30 9833 H 952.088 3.40603 -1.84576 0
M  V30 9834 H 952.502 3.32319 -4.05789 0
M  V30 9835 H 953.976 4.64845 -2.97696 0
M  V30 9836 H 954.453 4.18049 -1.34655 0
M  V30 9837 H 955.059 3.25394 -2.73859 0
M  V30 9838 N 953.375 1.23811 0.975125 0
M  V30 9839 C 954.652 0.9815 1.69192 0
M  V30 9840 C 955.032 -0.498373 2.05133 0
M  V30 9841 O 954.38 -1.47087 1.74864 0
M  V30 9842 C 954.59 1.89701 2.92941 0
M  V30 9843 C 955.938 2.16357 3.65342 0
M  V30 9844 O 956.962 1.87293 3.02985 0
M  V30 9845 O 955.821 2.65675 4.77576 0
M  V30 9846 H 952.915 0.370599 0.739314 0
M  V30 9847 H 955.461 1.34876 1.02988 0
M  V30 9848 H 954.233 2.89719 2.63018 0
M  V30 9849 H 953.856 1.53244 3.66881 0
M  V30 9850 N 954.853 -1.17469 1.05066 0
M  V30 9851 C 956.264 -1.69334 0.786304 0
M  V30 9852 C 956.615 -1.83604 -0.691671 0
M  V30 9853 O 955.74 -1.52269 -1.53763 0
M  V30 9854 C 956.335 -3.07572 1.42074 0
M  V30 9855 C 954.894 -3.56609 1.20446 0
M  V30 9856 C 954.041 -2.329 1.50508 0
M  V30 9857 H 956.992 -1.02003 1.21577 0
M  V30 9858 H 957.013 -3.71352 0.829334 0
M  V30 9859 H 956.525 -2.97154 2.49642 0
M  V30 9860 H 954.626 -3.72306 0.147968 0
M  V30 9861 H 954.739 -4.39446 1.90852 0
M  V30 9862 H 953.103 -2.37305 0.925124 0
M  V30 9863 H 953.886 -2.25093 2.59207 0
M  V30 9864 N 956.331 -0.831506 -1.3388 0
M  V30 9865 C 957.559 -0.436925 -2.02234 0
M  V30 9866 C 957.974 0.959689 -1.6259 0
M  V30 9867 O 957.331 1.62248 -0.835576 0
M  V30 9868 C 957.382 -0.539429 -3.57453 0
M  V30 9869 O 957.103 -1.88101 -3.95664 0
M  V30 9870 C 958.604 -0.140852 -4.43076 0
M  V30 9871 H 955.824 -0.174302 -0.647966 0
M  V30 9872 H 958.368 -1.12204 -1.70969 0
M  V30 9873 H 956.523 0.0976959 -3.87277 0
M  V30 9874 H 956.937 -1.86131 -4.90363 0
M  V30 9875 H 958.411 -0.26364 -5.5137 0
M  V30 9876 H 958.888 0.916505 -4.29531 0
M  V30 9877 H 959.494 -0.752117 -4.18597 0
M  V30 9878 N 957.809 1.4625 -0.587256 0
M  V30 9879 C 958.741 2.28482 0.181256 0
M  V30 9880 C 959.754 1.38777 0.851163 0
M  V30 9881 O 960.943 1.63336 0.719963 0
M  V30 9882 C 958.043 3.13944 1.27643 0
M  V30 9883 C 957.216 4.31802 0.697569 0
M  V30 9884 C 956.275 4.98626 1.68102 0
M  V30 9885 O 955.301 5.56075 1.21529 0
M  V30 9886 N 956.503 4.96051 3.0152 0
M  V30 9887 H 959.268 2.95079 -0.524267 0
M  V30 9888 H 956.829 1.56213 -0.425336 0
M  V30 9889 H 958.821 3.55513 1.93371 0
M  V30 9890 H 957.391 2.49391 1.88475 0
M  V30 9891 H 956.611 3.93961 -0.137293 0
M  V30 9892 H 957.899 5.07969 0.290696 0
M  V30 9893 H 957.297 4.5063 3.41978 0
M  V30 9894 H 955.854 5.41547 3.62725 0
M  V30 9895 N 959.287 0.325282 1.54207 0
M  V30 9896 C 960.698 -0.162426 1.85992 0
M  V30 9897 C 961.049 -1.51482 1.2469 0
M  V30 9898 O 960.174 -2.092 0.553578 0
M  V30 9899 C 960.769 -0.3015 3.37456 0
M  V30 9900 C 959.328 -0.73343 3.69185 0
M  V30 9901 C 958.475 0.143831 2.76927 0
M  V30 9902 H 961.426 0.545508 1.4903 0
M  V30 9903 H 961.447 -1.13212 3.63268 0
M  V30 9904 H 960.959 0.682942 3.82044 0
M  V30 9905 H 959.06 -1.72755 3.30131 0
M  V30 9906 H 959.173 -0.535987 4.76092 0
M  V30 9907 H 957.537 -0.380892 2.51836 0
M  V30 9908 H 958.32 1.12507 3.24341 0
M  V30 9909 N 960.765 -1.57509 0.0534917 0
M  V30 9910 C 961.675 -2.15152 -0.935249 0
M  V30 9911 C 962.691 -1.10991 -1.34003 0
M  V30 9912 O 963.867 -1.43171 -1.41648 0
M  V30 9913 C 960.932 -2.68699 -2.19093 0
M  V30 9914 C 959.993 -3.87666 -1.84428 0
M  V30 9915 C 959.226 -4.3865 -3.0401 0
M  V30 9916 O 959.449 -3.887 -4.17455 0
M  V30 9917 O 958.383 -5.30209 -2.84889 0
M  V30 9918 H 962.209 -2.99962 -0.475009 0
M  V30 9919 H 959.794 -1.48446 -0.16854 0
M  V30 9920 H 961.676 -3.03098 -2.92762 0
M  V30 9921 H 960.351 -1.86958 -2.6425 0
M  V30 9922 H 959.258 -3.58151 -1.08068 0
M  V30 9923 H 960.591 -4.70643 -1.44068 0
M  V30 9924 N 962.243 0.219913 -1.56058 0
M  V30 9925 C 963.471 0.960915 -1.83232 0
M  V30 9926 C 963.886 1.77878 -0.632828 0
M  V30 9927 O 963.243 1.78093 0.398624 0
M  V30 9928 C 963.294 1.87716 -3.08942 0
M  V30 9929 O 963.015 1.09235 -4.24263 0
M  V30 9930 C 964.516 2.73192 -3.49115 0
M  V30 9931 H 961.736 0.281546 -0.609075 0
M  V30 9932 H 964.28 0.234648 -2.03149 0
M  V30 9933 H 962.435 2.55736 -2.90995 0
M  V30 9934 H 962.849 1.71446 -4.95688 0
M  V30 9935 H 964.323 3.33181 -4.40107 0
M  V30 9936 H 964.8 3.45668 -2.70943 0
M  V30 9937 H 965.406 2.10583 -3.69506 0
M  V30 9938 N 963.721 1.49897 0.486681 0
M  V30 9939 C 964.97 1.59349 1.23656 0
M  V30 9940 C 965.283 0.292024 1.93408 0
M  V30 9941 O 966.489 0.265258 2.70201 0
M  V30 9942 C 964.945 2.81215 2.24602 0
M  V30 9943 C 964.553 4.18177 1.60725 0
M  V30 9944 C 966.297 3.00004 3.00329 0
M  V30 9945 C 964.204 5.31247 2.59866 0
M  V30 9946 H 963.134 0.593363 0.465227 0
M  V30 9947 H 965.785 1.76306 0.508769 0
M  V30 9948 H 964.167 2.57783 3.00606 0
M  V30 9949 H 965.341 4.51802 0.90616 0
M  V30 9950 H 963.656 4.04864 0.973362 0
M  V30 9951 H 966.253 3.81649 3.74497 0
M  V30 9952 H 966.596 2.1112 3.58795 0
M  V30 9953 H 967.129 3.23544 2.3144 0
M  V30 9954 H 963.868 6.22236 2.06161 0
M  V30 9955 H 963.388 5.02059 3.28172 0
M  V30 9956 H 965.067 5.61177 3.22009 0
M  V30 9957 N 965.199 -0.738761 1.39212 0
M  V30 9958 C 966.162 -1.83441 1.37412 0
M  V30 9959 C 967.162 -1.58484 0.271908 0
M  V30 9960 O 968.352 -1.65954 0.529609 0
M  V30 9961 C 965.484 -3.21167 1.143 0
M  V30 9962 H 966.677 -1.86441 2.34904 0
M  V30 9963 H 964.23 -0.942023 1.24722 0
M  V30 9964 H 964.965 -3.23829 0.174756 0
M  V30 9965 H 964.75 -3.40678 1.94116 0
M  V30 9966 H 966.24 -4.01231 1.15773 0
M  V30 9967 N 966.677 -1.24326 -0.968545 0
M  V30 9968 C 967.923 -1.08406 -1.71394 0
M  V30 9969 C 968.256 0.376353 -1.90518 0
M  V30 9970 O 967.531 1.27816 -1.46606 0
M  V30 9971 C 967.814 -1.82344 -3.1052 0
M  V30 9972 C 967.667 -3.3613 -2.98893 0
M  V30 9973 C 968.986 -1.59545 -4.10163 0
M  V30 9974 H 966.105 -0.395205 -0.622079 0
M  V30 9975 H 968.747 -1.52983 -1.12677 0
M  V30 9976 H 966.897 -1.44452 -3.60646 0
M  V30 9977 H 968.569 -3.83614 -2.56199 0
M  V30 9978 H 966.812 -3.64553 -2.35124 0
M  V30 9979 H 967.483 -3.83064 -3.97449 0
M  V30 9980 H 969.959 -1.92504 -3.68892 0
M  V30 9981 H 968.835 -2.13736 -5.05577 0
M  V30 9982 H 969.096 -0.533503 -4.38869 0
M  V30 9983 N 968.156 1.1691 -1.05688 0
M  V30 9984 C 969.089 2.19992 -0.606539 0
M  V30 9985 C 970.067 1.58393 0.367483 0
M  V30 9986 O 971.251 1.8644 0.277914 0
M  V30 9987 C 968.378 3.38516 0.111663 0
M  V30 9988 C 967.424 4.18579 -0.818153 0
M  V30 9989 S 968.257 4.83111 -2.31006 0
M  V30 9990 C 969.413 6.0502 -1.60317 0
M  V30 9991 H 969.646 2.57851 -1.47987 0
M  V30 9992 H 967.179 1.27604 -0.869291 0
M  V30 9993 H 969.137 4.07195 0.519829 0
M  V30 9994 H 967.798 2.99034 0.961103 0
M  V30 9995 H 966.991 5.03318 -0.262092 0
M  V30 9996 H 966.593 3.55362 -1.16592 0
M  V30 9997 H 968.885 6.71424 -0.905309 0
M  V30 9998 H 969.828 6.65164 -2.42823 0
M  V30 9999 H 970.236 5.53908 -1.08842 0
M  V30 10000 N 969.634 0.838594 1.33437 0
M  V30 10001 C 970.859 0.446701 2.02532 0
M  V30 10002 C 971.284 -0.944275 1.62681 0
M  V30 10003 O 970.642 -1.61733 0.81927 0
M  V30 10004 C 970.69 0.574794 3.55989 0
M  V30 10005 O 969.794 -0.399063 4.10465 0
M  V30 10006 H 969.135 0.181637 0.638674 0
M  V30 10007 H 971.665 1.13335 1.70342 0
M  V30 10008 H 971.675 0.456339 4.0544 0
M  V30 10009 H 970.35 1.58921 3.8434 0
M  V30 10010 H 968.927 -0.238187 3.72139 0
M  V30 10011 N 971.112 -1.45937 0.595003 0
M  V30 10012 C 972.358 -2.03184 0.0938125 0
M  V30 10013 C 972.713 -1.45675 -1.25684 0
M  V30 10014 O 972.006 -0.617122 -1.8139 0
M  V30 10015 C 972.2 -3.57396 -0.0173747 0
M  V30 10016 C 972.029 -4.29861 1.32096 0
M  V30 10017 C 970.799 -4.68285 1.89835 0
M  V30 10018 C 972.997 -4.6262 2.24693 0
M  V30 10019 N 970.979 -5.25554 3.17279 0
M  V30 10020 C 972.35 -5.20589 3.36729 0
M  V30 10021 C 974.405 -4.44555 2.24221 0
M  V30 10022 C 973.108 -5.62398 4.48443 0
M  V30 10023 C 975.134 -4.87388 3.34973 0
M  V30 10024 C 974.496 -5.45439 4.4573 0
M  V30 10025 H 970.595 -0.77816 0.0773994 0
M  V30 10026 H 973.179 -1.77926 0.790599 0
M  V30 10027 H 971.35 -3.82341 -0.683354 0
M  V30 10028 H 973.082 -4.01292 -0.524073 0
M  V30 10029 H 969.837 -4.51437 1.43185 0
M  V30 10030 H 970.261 -5.58699 3.8234 0
M  V30 10031 H 974.903 -3.98998 1.39857 0
M  V30 10032 H 972.621 -6.06927 5.3354 0
M  V30 10033 H 976.207 -4.75152 3.3574 0
M  V30 10034 H 975.087 -5.77975 5.30014 0
M  V30 10035 N 972.59 -0.333456 -1.54032 0
M  V30 10036 C 973.523 0.570776 -2.20947 0
M  V30 10037 C 974.501 1.10811 -1.18994 0
M  V30 10038 O 975.685 1.17027 -1.47773 0
M  V30 10039 C 972.812 1.7842 -2.87896 0
M  V30 10040 C 971.858 1.37722 -4.03652 0
M  V30 10041 S 972.691 0.405548 -5.33962 0
M  V30 10042 C 973.847 1.62603 -6.0441 0
M  V30 10043 H 974.08 0.0023936 -2.973 0
M  V30 10044 H 971.613 -0.117531 -1.53952 0
M  V30 10045 H 973.571 2.48038 -3.27089 0
M  V30 10046 H 972.232 2.32378 -2.11327 0
M  V30 10047 H 971.425 2.28167 -4.49395 0
M  V30 10048 H 971.027 0.760628 -3.66184 0
M  V30 10049 H 973.319 2.56202 -6.2719 0
M  V30 10050 H 974.262 1.21058 -6.97675 0
M  V30 10051 H 974.67 1.8175 -5.34441 0
M  V30 10052 N 974.068 1.57479 -0.061844 0
M  V30 10053 C 975.015 2.12152 0.908862 0
M  V30 10054 C 975.985 1.03152 1.30188 0
M  V30 10055 O 977.17 1.3076 1.38948 0
M  V30 10056 C 974.31 2.6796 2.17465 0
M  V30 10057 C 973.423 3.91083 1.83517 0
M  V30 10058 C 972.558 4.35169 3.04633 0
M  V30 10059 C 971.597 5.50964 2.66655 0
M  V30 10060 N 970.734 5.90055 3.80499 0
M  V30 10061 H 975.574 2.94797 0.435743 0
M  V30 10062 H 973.111 1.45686 0.203445 0
M  V30 10063 H 975.069 2.98421 2.91548 0
M  V30 10064 H 973.699 1.88096 2.62335 0
M  V30 10065 H 972.751 3.67146 0.995381 0
M  V30 10066 H 974.063 4.75214 1.51569 0
M  V30 10067 H 973.217 4.67239 3.87005 0
M  V30 10068 H 971.956 3.49871 3.39767 0
M  V30 10069 H 970.961 5.18556 1.82703 0
M  V30 10070 H 972.186 6.37986 2.32702 0
M  V30 10071 H 970.132 5.07708 4.15414 0
M  V30 10072 H 970.049 6.68903 3.52285 0
M  V30 10073 H 971.317 6.26744 4.63479 0
M  V30 10074 N 975.546 -0.211634 1.56173 0
M  V30 10075 C 976.771 -0.955324 1.84088 0
M  V30 10076 C 977.196 -1.76754 0.643407 0
M  V30 10077 O 976.554 -1.76653 -0.407842 0
M  V30 10078 C 976.602 -1.84063 3.10085 0
M  V30 10079 O 975.706 -2.9373 2.89476 0
M  V30 10080 H 975.047 -0.26996 0.606645 0
M  V30 10081 H 977.577 -0.221947 2.03393 0
M  V30 10082 H 977.587 -2.24852 3.40449 0
M  V30 10083 H 976.262 -1.24373 3.96868 0
M  V30 10084 H 974.839 -2.56816 2.7037 0
M  V30 10085 N 977.024 -1.50153 -0.478725 0
M  V30 10086 C 978.254 -1.64266 -1.253 0
M  V30 10087 C 978.662 -0.322256 -1.86435 0
M  V30 10088 O 978.005 0.704925 -1.69636 0
M  V30 10089 C 978.067 -2.67017 -2.40712 0
M  V30 10090 C 977.731 -4.10779 -2.00274 0
M  V30 10091 C 978.728 -4.96889 -1.52963 0
M  V30 10092 C 976.413 -4.5665 -2.09228 0
M  V30 10093 C 978.407 -6.26914 -1.15139 0
M  V30 10094 C 976.094 -5.86683 -1.71015 0
M  V30 10095 C 977.092 -6.71641 -1.24048 0
M  V30 10096 O 976.78 -7.99248 -0.863617 0
M  V30 10097 H 976.512 -0.555382 -0.385392 0
M  V30 10098 H 979.066 -1.97078 -0.578751 0
M  V30 10099 H 977.296 -2.29432 -3.11284 0
M  V30 10100 H 978.985 -2.70428 -3.02694 0
M  V30 10101 H 979.751 -4.62669 -1.45474 0
M  V30 10102 H 975.63 -3.90674 -2.44735 0
M  V30 10103 H 979.174 -6.93179 -0.784089 0
M  V30 10104 H 975.071 -6.20426 -1.78162 0
M  V30 10105 H 975.839 -8.12452 -0.993139 0
M  V30 10106 N 978.502 0.731368 -1.39602 0
M  V30 10107 C 979.913 1.30981 -1.33045 0
M  V30 10108 C 980.264 1.962 0.00349918 0
M  V30 10109 O 979.389 1.96539 0.905615 0
M  V30 10110 C 979.984 2.3817 -2.40958 0
M  V30 10111 C 978.543 2.91678 -2.3791 0
M  V30 10112 C 977.69 1.65286 -2.22656 0
M  V30 10113 H 980.641 0.528615 -1.49637 0
M  V30 10114 H 980.662 3.18645 -2.07955 0
M  V30 10115 H 980.174 1.90673 -3.38032 0
M  V30 10116 H 978.275 3.43446 -1.44485 0
M  V30 10117 H 978.388 3.44545 -3.32904 0
M  V30 10118 H 976.752 1.89759 -1.69893 0
M  V30 10119 H 977.535 1.19836 -3.21705 0
M  V30 10120 N 979.98 1.24838 0.961938 0
M  V30 10121 C 981.227 1.09151 1.70564 0
M  V30 10122 C 981.555 -0.368719 1.90973 0
M  V30 10123 O 980.81 -1.28854 1.47293 0
M  V30 10124 C 981.109 1.78289 3.09754 0
M  V30 10125 C 980.775 3.28216 3.09169 0
M  V30 10126 C 979.437 3.69118 3.08716 0
M  V30 10127 C 981.789 4.24035 3.03058 0
M  V30 10128 C 979.117 5.04263 2.99892 0
M  V30 10129 C 981.469 5.59195 2.95776 0
M  V30 10130 C 980.133 5.99436 2.93655 0
M  V30 10131 H 979.403 0.399414 0.624139 0
M  V30 10132 H 982.05 1.55016 1.12438 0
M  V30 10133 H 980.355 1.24835 3.7138 0
M  V30 10134 H 982.052 1.63612 3.66104 0
M  V30 10135 H 978.642 2.95667 3.10289 0
M  V30 10136 H 982.826 3.93431 3.02532 0
M  V30 10137 H 978.082 5.3463 2.96615 0
M  V30 10138 H 982.256 6.33142 2.90007 0
M  V30 10139 H 979.883 7.04116 2.86573 0
M  V30 10140 N 981.458 -1.16348 1.06306 0
M  V30 10141 C 982.704 -1.87158 0.781007 0
M  V30 10142 C 983.037 -1.81499 -0.690784 0
M  V30 10143 O 982.312 -1.23074 -1.50609 0
M  V30 10144 C 982.595 -3.3672 1.27639 0
M  V30 10145 C 982.448 -3.51069 2.81194 0
M  V30 10146 C 983.767 -4.31122 0.884388 0
M  V30 10147 H 980.886 -0.679586 0.285187 0
M  V30 10148 H 983.528 -1.36756 1.31901 0
M  V30 10149 H 981.678 -3.79775 0.818715 0
M  V30 10150 H 983.35 -3.16952 3.35171 0
M  V30 10151 H 981.593 -2.92976 3.19918 0
M  V30 10152 H 982.264 -4.56105 3.10921 0
M  V30 10153 H 984.74 -3.95969 1.27858 0
M  V30 10154 H 983.616 -5.34279 1.25847 0
M  V30 10155 H 983.877 -4.41598 -0.210673 0
M  V30 10156 N 982.937 -0.845659 -1.3299 0
M  V30 10157 C 983.867 -0.298957 -2.31578 0
M  V30 10158 C 984.848 0.597012 -1.59279 0
M  V30 10159 O 986.033 0.519142 -1.87132 0
M  V30 10160 C 983.163 0.521109 -3.43368 0
M  V30 10161 C 982.117 -0.279651 -4.27085 0
M  V30 10162 C 981.443 0.664591 -5.30554 0
M  V30 10163 C 982.743 -1.50046 -5.00283 0
M  V30 10164 H 984.437 -1.12272 -2.77552 0
M  V30 10165 H 981.983 -0.54132 -1.33438 0
M  V30 10166 H 983.936 0.913921 -4.1137 0
M  V30 10167 H 982.66 1.37815 -2.96099 0
M  V30 10168 H 981.319 -0.654106 -3.60717 0
M  V30 10169 H 980.967 1.51822 -4.79541 0
M  V30 10170 H 980.667 0.132871 -5.8745 0
M  V30 10171 H 982.191 1.05477 -6.01421 0
M  V30 10172 H 983.605 -1.18044 -5.61016 0
M  V30 10173 H 982.002 -1.96946 -5.66862 0
M  V30 10174 H 983.072 -2.26659 -4.28665 0
M  V30 10175 N 984.415 1.45619 -0.602734 0
M  V30 10176 C 985.64 2.07157 -0.100429 0
M  V30 10177 C 986.065 1.44524 1.20393 0
M  V30 10178 O 985.423 0.536191 1.7319 0
M  V30 10179 C 985.471 3.60587 0.0308604 0
M  V30 10180 O 984.575 3.97944 1.08234 0
M  V30 10181 H 983.916 0.6601 -0.0718643 0
M  V30 10182 H 986.446 1.86948 -0.831366 0
M  V30 10183 H 986.456 4.07348 0.230634 0
M  V30 10184 H 985.131 4.05561 -0.921581 0
M  V30 10185 H 983.708 3.62862 0.859414 0
M  V30 10186 N 985.893 0.34162 1.53853 0
M  V30 10187 C 986.856 -0.503541 2.236 0
M  V30 10188 C 987.856 -1.02912 1.23554 0
M  V30 10189 O 989.046 -0.918678 1.48007 0
M  V30 10190 C 986.178 -1.70126 2.95415 0
M  V30 10191 H 987.371 0.106437 2.99711 0
M  V30 10192 H 984.924 0.0929408 1.56023 0
M  V30 10193 H 985.659 -2.34999 2.23486 0
M  V30 10194 H 985.444 -1.33161 3.68796 0
M  V30 10195 H 986.934 -2.30077 3.48503 0
M  V30 10196 N 987.371 -1.57444 0.0701946 0
M  V30 10197 C 988.319 -2.13834 -0.915302 0
M  V30 10198 C 989.313 -1.07483 -1.30934 0
M  V30 10199 O 990.519 -1.25865 -1.28678 0
M  V30 10200 H 986.894 -0.683716 -0.313108 0
M  V30 10201 H 988.865 -2.95503 -0.414758 0
M  V30 10202 C 987.614 -2.71355 -2.17398 0
M  V30 10203 H 986.937 -3.52861 -1.87961 0
M  V30 10204 H 988.377 -3.1441 -2.84469 0
M  V30 10205 C 986.836 -1.66038 -2.93143 0
M  V30 10206 O 987.366 -1.08443 -3.86786 0
M  V30 10207 N 985.572 -1.3711 -2.56221 0
M  V30 10208 H 985.119 -1.84135 -1.80145 0
M  V30 10209 H 985.077 -0.66877 -3.07205 0
M  V30 10210 N 988.849 0.203349 -1.56283 0
M  V30 10211 C 989.779 1.2549 -1.96912 0
M  V30 10212 C 990.76 1.47919 -0.839884 0
M  V30 10213 O 991.945 1.59795 -1.10359 0
M  V30 10214 C 989.075 2.6009 -2.30153 0
M  V30 10215 C 988.029 2.52289 -3.45738 0
M  V30 10216 C 987.355 3.91086 -3.64632 0
M  V30 10217 C 988.655 2.05503 -4.80173 0
M  V30 10218 H 990.349 0.917306 -2.85002 0
M  V30 10219 H 987.895 0.439818 -1.37119 0
M  V30 10220 H 989.848 3.33829 -2.5717 0
M  V30 10221 H 988.572 2.95574 -1.38937 0
M  V30 10222 H 987.231 1.81006 -3.18798 0
M  V30 10223 H 986.879 4.23908 -2.7076 0
M  V30 10224 H 986.579 3.86742 -4.42385 0
M  V30 10225 H 988.103 4.66459 -3.94016 0
M  V30 10226 H 989.517 2.68995 -5.06275 0
M  V30 10227 H 987.914 2.1218 -5.61337 0
M  V30 10228 H 988.984 1.00793 -4.74309 0
M  V30 10229 N 990.327 1.50405 0.470755 0
M  V30 10230 C 991.277 1.65681 1.56633 0
M  V30 10231 C 992.261 0.511424 1.52556 0
M  V30 10232 O 993.453 0.765844 1.59574 0
M  V30 10233 C 990.582 1.7546 2.95074 0
M  V30 10234 C 989.668 2.95676 3.04034 0
M  V30 10235 N 990.059 4.1935 2.82807 0
M  V30 10236 C 988.357 2.94241 3.35169 0
M  V30 10237 C 989.058 5.0032 2.96741 0
M  V30 10238 N 988.034 4.34282 3.26956 0
M  V30 10239 H 991.836 2.58994 1.38922 0
M  V30 10240 H 989.35 1.47593 0.67749 0
M  V30 10241 H 991.347 1.84508 3.73848 0
M  V30 10242 H 990.007 0.833057 3.13832 0
M  V30 10243 H 991.018 4.48842 2.58382 0
M  V30 10244 H 987.695 2.11587 3.59913 0
M  V30 10245 H 989.085 6.08664 2.84566 0
M  V30 10246 N 991.805 -0.723954 1.39988 0
M  V30 10247 C 993.053 -1.48078 1.3754 0
M  V30 10248 C 993.374 -1.94985 -0.0243358 0
M  V30 10249 O 992.644 -1.69764 -0.977602 0
M  V30 10250 H 991.224 -0.549354 0.506181 0
M  V30 10251 H 993.886 -0.858746 1.74962 0
M  V30 10252 H 992.982 -2.35763 2.04505 0
M  V30 10253 N 993.283 -1.25346 -0.955304 0
M  V30 10254 C 994.531 -1.09837 -1.69647 0
M  V30 10255 C 994.852 0.361425 -1.91621 0
M  V30 10256 O 994.122 1.25666 -1.50283 0
M  V30 10257 H 992.702 -0.403467 -0.628668 0
M  V30 10258 H 995.364 -1.57459 -1.14859 0
M  V30 10259 H 994.46 -1.60616 -2.67598 0
M  V30 10260 N 994.761 1.15782 -1.06922 0
M  V30 10261 C 995.986 1.90896 -0.810771 0
M  V30 10262 C 996.411 1.77246 0.629714 0
M  V30 10263 O 995.769 1.10215 1.43953 0
M  V30 10264 C 995.817 3.39397 -1.21829 0
M  V30 10265 O 994.921 4.10818 -0.360934 0
M  V30 10266 H 994.262 0.594497 -0.295752 0
M  V30 10267 H 996.792 1.46652 -1.42669 0
M  V30 10268 H 996.802 3.90181 -1.19259 0
M  V30 10269 H 995.477 3.4865 -2.2675 0
M  V30 10270 H 994.054 3.7019 -0.448748 0
M  V30 10271 N 996.239 0.8527 1.3254 0
M  V30 10272 C 997.169 0.311234 2.31416 0
M  V30 10273 C 998.15 -0.588557 1.59593 0
M  V30 10274 O 999.335 -0.509211 1.87405 0
M  V30 10275 C 996.465 -0.502892 3.4364 0
M  V30 10276 C 995.419 0.302296 4.26931 0
M  V30 10277 C 994.745 -0.636445 5.30899 0
M  V30 10278 C 996.045 1.52697 4.99481 0
M  V30 10279 H 997.739 1.13742 2.76953 0
M  V30 10280 H 995.285 0.548389 1.33149 0
M  V30 10281 H 997.238 -0.892092 4.11849 0
M  V30 10282 H 995.962 -1.36242 2.96826 0
M  V30 10283 H 994.621 0.673226 3.60365 0
M  V30 10284 H 994.269 -1.49277 4.80339 0
M  V30 10285 H 993.969 -0.101716 5.87512 0
M  V30 10286 H 995.493 -1.02286 6.01972 0
M  V30 10287 H 996.907 1.21017 5.60382 0
M  V30 10288 H 995.304 1.9995 5.65809 0
M  V30 10289 H 996.374 2.28929 4.27457 0
M  V30 10290 N 997.718 -1.45297 0.610449 0
M  V30 10291 C 998.964 -2.02518 0.106917 0
M  V30 10292 C 999.297 -1.47747 -1.26034 0
M  V30 10293 O 998.572 -0.65329 -1.832 0
M  V30 10294 C 998.855 -3.6003 0.0710975 0
M  V30 10295 C 998.708 -4.25128 1.46922 0
M  V30 10296 C 1000.03 -4.35778 -0.61524 0
M  V30 10297 H 997.146 -0.735896 0.040327 0
M  V30 10298 H 999.788 -1.73117 0.782968 0
M  V30 10299 H 997.938 -3.85209 -0.504611 0
M  V30 10300 H 999.61 -4.11125 2.09223 0
M  V30 10301 H 997.853 -3.83418 2.02911 0
M  V30 10302 H 998.524 -5.34046 1.39637 0
M  V30 10303 H 1001 -4.1591 -0.125871 0
M  V30 10304 H 999.876 -5.45506 -0.609419 0
M  V30 10305 H 1000.14 -4.08859 -1.68186 0
M  V30 10306 N 999.196 -0.349774 -1.5367 0
M  V30 10307 C 1000.44 0.245189 -2.01312 0
M  V30 10308 C 1000.77 1.49702 -1.23705 0
M  V30 10309 O 1000.05 1.91742 -0.326371 0
M  V30 10310 C 1000.33 0.553071 -3.55827 0
M  V30 10311 C 1000.19 -0.71129 -4.4414 0
M  V30 10312 C 1001.5 1.36015 -4.18555 0
M  V30 10313 H 998.624 0.0876415 -0.73177 0
M  V30 10314 H 1001.27 -0.471543 -1.84056 0
M  V30 10315 H 999.416 1.16367 -3.70663 0
M  V30 10316 H 1001.09 -1.34913 -4.41131 0
M  V30 10317 H 999.331 -1.33491 -4.1275 0
M  V30 10318 H 1000 -0.45104 -5.50154 0
M  V30 10319 H 1002.48 0.843778 -4.07455 0
M  V30 10320 H 1001.35 1.54432 -5.26728 0
M  V30 10321 H 1001.61 2.36408 -3.73582 0
M  V30 10322 N 1000.67 1.57404 -0.0785433 0
M  V30 10323 C 1001.62 2.14316 0.903949 0
M  V30 10324 C 1002.62 1.08176 1.30362 0
M  V30 10325 O 1003.82 1.26546 1.28008 0
M  V30 10326 H 1000.2 0.685367 0.309477 0
M  V30 10327 H 1002.17 2.95719 0.399081 0
M  V30 10328 C 1000.92 2.72504 2.15956 0
M  V30 10329 H 1000.24 3.53853 1.86087 0
M  V30 10330 H 1001.68 3.15914 2.82798 0
M  V30 10331 C 1000.14 1.6759 2.92259 0
M  V30 10332 O 1000.67 1.10492 3.86205 0
M  V30 10333 N 998.875 1.38467 2.5549 0
M  V30 10334 H 998.422 1.85088 1.79166 0
M  V30 10335 H 998.38 0.685053 3.06846 0
M  V30 10336 N 1002.15 -0.195058 1.56388 0
M  V30 10337 C 1003.38 -0.930291 1.8447 0
M  V30 10338 C 1003.79 -1.77356 0.658901 0
M  V30 10339 O 1003.13 -1.79691 -0.381664 0
M  V30 10340 C 1003.19 -1.87626 3.06654 0
M  V30 10341 C 1002.86 -1.21494 4.40555 0
M  V30 10342 C 1003.86 -0.591847 5.1652 0
M  V30 10343 C 1001.54 -1.21878 4.8729 0
M  V30 10344 C 1003.53 0.0185743 6.37397 0
M  V30 10345 C 1001.22 -0.604524 6.08103 0
M  V30 10346 C 1002.22 0.0130731 6.82999 0
M  V30 10347 O 1001.91 0.617703 8.01523 0
M  V30 10348 H 1001.64 -0.276933 0.616672 0
M  V30 10349 H 1004.19 -0.207277 2.04351 0
M  V30 10350 H 1002.42 -2.63897 2.82658 0
M  V30 10351 H 1004.11 -2.47929 3.21382 0
M  V30 10352 H 1004.88 -0.581018 4.81507 0
M  V30 10353 H 1000.76 -1.68888 4.2895 0
M  V30 10354 H 1004.3 0.50124 6.95797 0
M  V30 10355 H 1000.2 -0.612855 6.42584 0
M  V30 10356 H 1000.97 0.514612 8.16881 0
M  V30 10357 N 1003.63 -1.50653 -0.462772 0
M  V30 10358 C 1005.04 -1.54821 -1.04342 0
M  V30 10359 C 1005.39 -0.356595 -1.92932 0
M  V30 10360 O 1004.52 0.529579 -2.0982 0
M  V30 10361 C 1005.11 -2.80571 -1.89909 0
M  V30 10362 C 1003.67 -2.87394 -2.43067 0
M  V30 10363 C 1002.82 -2.49206 -1.21621 0
M  V30 10364 H 1005.77 -1.56797 -0.245048 0
M  V30 10365 H 1005.79 -2.62897 -2.75074 0
M  V30 10366 H 1005.3 -3.67281 -1.25405 0
M  V30 10367 H 1003.4 -2.05055 -3.111 0
M  V30 10368 H 1003.52 -3.90477 -2.77605 0
M  V30 10369 H 1001.88 -2.01829 -1.55361 0
M  V30 10370 H 1002.66 -3.38233 -0.587669 0
M  V30 10371 N 1005.11 0.71652 -1.4037 0
M  V30 10372 C 1006.36 1.47638 -1.38597 0
M  V30 10373 C 1006.68 1.94496 0.0120141 0
M  V30 10374 O 1005.94 1.68437 0.996373 0
M  V30 10375 C 1006.24 2.71777 -2.32103 0
M  V30 10376 C 1005.9 2.43689 -3.79376 0
M  V30 10377 C 1004.57 2.35739 -4.195 0
M  V30 10378 C 1006.92 2.20099 -4.72447 0
M  V30 10379 C 1004.25 2.02265 -5.50732 0
M  V30 10380 C 1006.6 1.88138 -6.03976 0
M  V30 10381 C 1005.26 1.78669 -6.43143 0
M  V30 10382 H 1004.53 0.540246 -0.507163 0
M  V30 10383 H 1007.18 0.820822 -1.73017 0
M  V30 10384 H 1005.48 3.42166 -1.90865 0
M  V30 10385 H 1007.18 3.29864 -2.28015 0
M  V30 10386 H 1003.77 2.50763 -3.47585 0
M  V30 10387 H 1007.95 2.25198 -4.42266 0
M  V30 10388 H 1003.21 1.93471 -5.79982 0
M  V30 10389 H 1007.38 1.68898 -6.75608 0
M  V30 10390 H 1005.01 1.52498 -7.44747 0
M  V30 10391 N 1006.59 1.25851 0.948643 0
M  V30 10392 C 1007.86 1.01717 1.67072 0
M  V30 10393 C 1008.24 -0.454749 2.06144 0
M  V30 10394 O 1007.59 -1.43345 1.77945 0
M  V30 10395 C 1007.8 1.95872 2.88852 0
M  V30 10396 C 1009.15 2.24057 3.60671 0
M  V30 10397 O 1010.17 1.93678 2.98944 0
M  V30 10398 O 1009.03 2.75745 4.71833 0
M  V30 10399 H 1006.13 0.386198 0.731287 0
M  V30 10400 H 1008.67 1.37031 1.00104 0
M  V30 10401 H 1007.44 2.95233 2.56814 0
M  V30 10402 H 1007.07 1.60992 3.63548 0
M  V30 10403 N 1008.06 -1.15214 1.07534 0
M  V30 10404 C 1009.34 -1.82155 0.71267 0
M  V30 10405 C 1009.72 -1.95163 -0.804655 0
M  V30 10406 O 1009.07 -1.50451 -1.71979 0
M  V30 10407 C 1009.28 -3.18392 1.42925 0
M  V30 10408 C 1010.63 -3.94005 1.58256 0
M  V30 10409 O 1011.65 -3.27952 1.39018 0
M  V30 10410 O 1010.51 -5.12436 1.89925 0
M  V30 10411 H 1007.6 -0.78709 0.253808 0
M  V30 10412 H 1010.15 -1.22309 1.17638 0
M  V30 10413 H 1008.92 -3.04034 2.46331 0
M  V30 10414 H 1008.55 -3.85925 0.956439 0
M  V30 10415 N 1009.54 -0.859717 -1.32086 0
M  V30 10416 C 1010.82 -0.386665 -1.9174 0
M  V30 10417 C 1011.2 1.13028 -1.78292 0
M  V30 10418 O 1010.55 1.95422 -1.18417 0
M  V30 10419 C 1010.76 -0.856648 -3.38323 0
M  V30 10420 C 1012.11 -0.87678 -4.15449 0
M  V30 10421 O 1013.13 -0.80162 -3.47063 0
M  V30 10422 O 1011.99 -0.98373 -5.37573 0
M  V30 10423 H 1009.08 -0.113758 -0.819139 0
M  V30 10424 H 1011.63 -0.946952 -1.40822 0
M  V30 10425 H 1010.4 -1.89996 -3.42078 0
M  V30 10426 H 1010.02 -0.274095 -3.96654 0
M  V30 10427 N 1011.02 1.44971 -0.618145 0
M  V30 10428 C 1011.93 2.34403 0.0960457 0
M  V30 10429 C 1012.95 1.51862 0.849355 0
M  V30 10430 O 1014.12 1.84632 0.804557 0
M  V30 10431 C 1011.19 3.29646 1.07397 0
M  V30 10432 C 1010.25 4.28095 0.321466 0
M  V30 10433 C 1009.48 5.18787 1.25281 0
M  V30 10434 O 1009.7 5.1313 2.49106 0
M  V30 10435 O 1008.64 5.97282 0.744156 0
M  V30 10436 H 1012.46 2.96898 -0.639176 0
M  V30 10437 H 1010.05 1.44529 -0.37837 0
M  V30 10438 H 1011.93 3.88307 1.63694 0
M  V30 10439 H 1010.61 2.69702 1.79004 0
M  V30 10440 H 1009.51 3.73019 -0.284223 0
M  V30 10441 H 1010.85 4.90923 -0.354315 0
M  V30 10442 N 1012.5 0.357919 1.53482 0
M  V30 10443 C 1013.43 -0.526753 2.23065 0
M  V30 10444 C 1014.44 -1.05239 1.24212 0
M  V30 10445 O 1015.63 -0.960078 1.50482 0
M  V30 10446 C 1012.73 -1.73919 2.9087 0
M  V30 10447 C 1011.91 -1.34638 4.16163 0
M  V30 10448 C 1010.96 -2.42005 4.67247 0
M  V30 10449 O 1009.99 -2.04714 5.31113 0
M  V30 10450 N 1011.19 -3.73478 4.44404 0
M  V30 10451 H 1013.96 0.0692386 2.9962 0
M  V30 10452 H 1011.52 0.182726 1.60866 0
M  V30 10453 H 1013.51 -2.45207 3.21956 0
M  V30 10454 H 1012.08 -2.24223 2.17814 0
M  V30 10455 H 1011.3 -0.463667 3.91464 0
M  V30 10456 H 1012.59 -1.06012 4.97633 0
M  V30 10457 H 1011.99 -4.06555 3.93357 0
M  V30 10458 H 1010.54 -4.40893 4.80059 0
M  V30 10459 N 1013.98 -1.5736 0.0868897 0
M  V30 10460 C 1015.22 -1.9367 -0.577598 0
M  V30 10461 C 1015.55 -0.968844 -1.69229 0
M  V30 10462 O 1014.82 -0.0195061 -1.9589 0
M  V30 10463 H 1013.4 -0.714983 -0.216353 0
M  V30 10464 H 1016.06 -1.94335 0.148294 0
M  V30 10465 H 1015.15 -2.95877 -0.993128 0
M  V30 10466 N 1015.45 0.186762 -1.56489 0
M  V30 10467 C 1016.38 1.23395 -1.98232 0
M  V30 10468 C 1017.37 1.4702 -0.855526 0
M  V30 10469 O 1018.55 1.58616 -1.12048 0
M  V30 10470 C 1015.68 2.57635 -2.32898 0
M  V30 10471 C 1014.63 2.48607 -3.48394 0
M  V30 10472 C 1013.96 3.87196 -3.68759 0
M  V30 10473 C 1015.26 2.00398 -4.82325 0
M  V30 10474 H 1016.95 0.887026 -2.85958 0
M  V30 10475 H 1014.5 0.42525 -1.37578 0
M  V30 10476 H 1016.45 3.31082 -2.60696 0
M  V30 10477 H 1015.18 2.94084 -1.42064 0
M  V30 10478 H 1013.84 1.77615 -3.207 0
M  V30 10479 H 1013.48 4.21012 -2.75241 0
M  V30 10480 H 1013.18 3.82029 -4.46462 0
M  V30 10481 H 1014.71 4.62253 -3.98941 0
M  V30 10482 H 1016.12 2.6361 -5.091 0
M  V30 10483 H 1014.52 2.06214 -5.63556 0
M  V30 10484 H 1015.59 0.957562 -4.75351 0
M  V30 10485 N 1016.93 1.50896 0.454776 0
M  V30 10486 C 1017.9 1.70377 1.53312 0
M  V30 10487 C 1018.9 0.57408 1.50203 0
M  V30 10488 O 1020.09 0.841374 1.52534 0
M  V30 10489 C 1017.22 1.74411 2.92905 0
M  V30 10490 H 1018.41 2.66599 1.37349 0
M  V30 10491 H 1015.96 1.40622 0.68228 0
M  V30 10492 H 1016.7 0.799408 3.14293 0
M  V30 10493 H 1016.48 2.56496 2.96568 0
M  V30 10494 H 1017.97 1.91382 3.71164 0
M  V30 10495 N 1018.41 -0.709066 1.40748 0
M  V30 10496 C 1019.64 -1.49808 1.42707 0
M  V30 10497 C 1020.05 -1.88778 0.0285574 0
M  V30 10498 O 1019.41 -1.55883 -0.949035 0
M  V30 10499 C 1019.46 -2.76926 2.32366 0
M  V30 10500 O 1019.18 -2.39602 3.66773 0
M  V30 10501 C 1020.68 -3.70773 2.42986 0
M  V30 10502 H 1017.9 -0.462106 0.486517 0
M  V30 10503 H 1020.45 -0.874135 1.84876 0
M  V30 10504 H 1018.6 -3.3559 1.93541 0
M  V30 10505 H 1019.02 -3.21443 4.14457 0
M  V30 10506 H 1020.49 -4.56789 3.09916 0
M  V30 10507 H 1020.97 -4.14332 1.45691 0
M  V30 10508 H 1021.57 -3.18019 2.8239 0
M  V30 10509 N 1019.89 -1.26353 -0.941956 0
M  V30 10510 C 1021.12 -1.1446 -1.71996 0
M  V30 10511 C 1021.53 0.302957 -1.86759 0
M  V30 10512 O 1020.87 1.2193 -1.374 0
M  V30 10513 C 1020.93 -1.73986 -3.14593 0
M  V30 10514 C 1020.6 -3.23078 -3.23217 0
M  V30 10515 C 1021.59 -4.19905 -3.06554 0
M  V30 10516 C 1019.28 -3.63526 -3.46632 0
M  V30 10517 C 1021.27 -5.55159 -3.13172 0
M  V30 10518 C 1018.96 -4.98914 -3.52886 0
M  V30 10519 C 1019.96 -5.9454 -3.36172 0
M  V30 10520 O 1019.65 -7.27462 -3.42132 0
M  V30 10521 H 1019.38 -0.399453 -0.545356 0
M  V30 10522 H 1021.93 -1.67455 -1.18945 0
M  V30 10523 H 1020.16 -1.15453 -3.69063 0
M  V30 10524 H 1021.85 -1.57011 -3.74302 0
M  V30 10525 H 1022.62 -3.89995 -2.88321 0
M  V30 10526 H 1018.5 -2.8958 -3.58698 0
M  V30 10527 H 1022.04 -6.29777 -3.00044 0
M  V30 10528 H 1017.94 -5.28485 -3.70639 0
M  V30 10529 H 1018.7 -7.35725 -3.5868 0
M  V30 10530 N 1021.37 1.14642 -1.08144 0
M  V30 10531 C 1022.59 1.90025 -0.830972 0
M  V30 10532 C 1023.02 1.77904 0.610879 0
M  V30 10533 O 1022.38 1.11735 1.42776 0
M  V30 10534 C 1022.42 3.38085 -1.25422 0
M  V30 10535 O 1021.53 4.10412 -0.404486 0
M  V30 10536 H 1020.87 0.591327 -0.302041 0
M  V30 10537 H 1023.4 1.4513 -1.44216 0
M  V30 10538 H 1023.41 3.88894 -1.23391 0
M  V30 10539 H 1022.08 3.46226 -2.30435 0
M  V30 10540 H 1020.66 3.69693 -0.487987 0
M  V30 10541 N 1022.85 0.866709 1.31628 0
M  V30 10542 C 1023.79 0.318169 2.28596 0
M  V30 10543 C 1024.76 -0.581558 1.55586 0
M  V30 10544 O 1025.95 -0.513895 1.83749 0
M  V30 10545 C 1023.09 -0.477137 3.41786 0
M  V30 10546 C 1022.2 0.449739 4.29653 0
M  V30 10547 C 1021.34 -0.359373 5.29983 0
M  V30 10548 C 1020.37 0.564138 6.09495 0
M  V30 10549 N 1019.51 -0.208526 7.0179 0
M  V30 10550 H 1024.35 1.15029 2.74904 0
M  V30 10551 H 1021.89 0.578649 1.35241 0
M  V30 10552 H 1023.85 -0.953985 4.06146 0
M  V30 10553 H 1022.48 -1.27398 2.96597 0
M  V30 10554 H 1021.53 1.04502 3.65764 0
M  V30 10555 H 1022.84 1.158 4.85172 0
M  V30 10556 H 1021.99 -0.89887 6.00004 0
M  V30 10557 H 1020.73 -1.10094 4.75111 0
M  V30 10558 H 1019.74 1.11542 5.38366 0
M  V30 10559 H 1020.96 1.30451 6.66453 0
M  V30 10560 H 1018.91 -0.932969 6.49332 0
M  V30 10561 H 1018.83 0.440463 7.54716 0
M  V30 10562 H 1020.09 -0.72936 7.7608 0
M  V30 10563 N 1024.32 -1.44642 0.625825 0
M  V30 10564 C 1025.55 -2.06971 0.133373 0
M  V30 10565 C 1025.97 -1.46421 -1.18078 0
M  V30 10566 O 1025.33 -0.563676 -1.72315 0
M  V30 10567 C 1025.38 -3.6059 0.0265097 0
M  V30 10568 O 1024.48 -3.99615 -1.01889 0
M  V30 10569 H 1023.82 -0.658873 0.0823568 0
M  V30 10570 H 1026.35 -1.85601 0.861002 0
M  V30 10571 H 1026.36 -4.07663 -0.1658 0
M  V30 10572 H 1025.04 -4.04043 0.985986 0
M  V30 10573 H 1023.62 -3.64183 -0.801577 0
M  V30 10574 N 1025.8 -0.366053 -1.5329 0
M  V30 10575 C 1027.21 0.113056 -1.86357 0
M  V30 10576 C 1027.56 1.48123 -1.28662 0
M  V30 10577 O 1026.69 2.07658 -0.608849 0
M  V30 10578 C 1027.28 0.211923 -3.38137 0
M  V30 10579 C 1025.84 0.635289 -3.71 0
M  V30 10580 C 1024.99 -0.217203 -2.76448 0
M  V30 10581 H 1027.94 -0.584829 -1.47531 0
M  V30 10582 H 1027.96 1.0354 -3.66142 0
M  V30 10583 H 1027.47 -0.783994 -3.80099 0
M  V30 10584 H 1025.57 1.63942 -3.34595 0
M  V30 10585 H 1025.69 0.409571 -4.77346 0
M  V30 10586 H 1024.05 0.313988 -2.52757 0
M  V30 10587 H 1024.83 -1.21067 -3.21244 0
M  V30 10588 N 1027.28 1.57312 -0.0952337 0
M  V30 10589 C 1028.56 1.85822 0.610715 0
M  V30 10590 C 1028.94 0.992114 1.86334 0
M  V30 10591 O 1028.28 0.0645669 2.28409 0
M  V30 10592 C 1028.49 3.36492 0.925967 0
M  V30 10593 C 1029.84 4.0455 1.28936 0
M  V30 10594 O 1030.87 3.41374 1.01698 0
M  V30 10595 O 1029.73 5.16024 1.79949 0
M  V30 10596 H 1026.82 0.768454 0.305626 0
M  V30 10597 H 1029.37 1.69217 -0.127941 0
M  V30 10598 H 1028.14 3.91282 0.0373127 0
M  V30 10599 H 1027.76 3.58443 1.7206 0
M  V30 10600 N 1028.76 -0.17846 1.56586 0
M  V30 10601 C 1030.03 -0.923096 1.72448 0
M  V30 10602 C 1030.41 -2.00692 0.654659 0
M  V30 10603 O 1029.76 -2.26079 -0.33171 0
M  V30 10604 C 1029.97 -1.49435 3.15389 0
M  V30 10605 C 1031.32 -1.97005 3.76131 0
M  V30 10606 O 1032.34 -1.59244 3.18622 0
M  V30 10607 O 1031.2 -2.66541 4.77094 0
M  V30 10608 H 1028.3 -0.434009 0.703964 0
M  V30 10609 H 1030.84 -0.16685 1.68878 0
M  V30 10610 H 1029.62 -0.713933 3.84732 0
M  V30 10611 H 1029.24 -2.31498 3.23256 0
M  V30 10612 N 1030.24 -1.51135 -0.446768 0
M  V30 10613 C 1031.2 -1.71187 -1.52406 0
M  V30 10614 C 1032.2 -0.582037 -1.49897 0
M  V30 10615 O 1033.39 -0.849452 -1.52085 0
M  V30 10616 C 1030.52 -1.75962 -2.91976 0
M  V30 10617 H 1031.71 -2.67324 -1.35934 0
M  V30 10618 H 1029.27 -1.40982 -0.674813 0
M  V30 10619 H 1030 -0.816065 -3.13864 0
M  V30 10620 H 1029.79 -2.58065 -2.95203 0
M  V30 10621 H 1031.28 -1.93347 -3.70144 0
M  V30 10622 N 1031.71 0.701592 -1.41122 0
M  V30 10623 C 1032.96 1.46376 -1.40363 0
M  V30 10624 C 1033.29 1.94197 -0.0105442 0
M  V30 10625 O 1032.57 1.69121 0.960637 0
M  V30 10626 C 1032.85 2.67994 -2.40523 0
M  V30 10627 C 1032.7 2.25977 -3.88914 0
M  V30 10628 C 1034.02 3.70181 -2.38022 0
M  V30 10629 H 1031.14 0.530929 -0.511159 0
M  V30 10630 H 1033.78 0.799588 -1.72356 0
M  V30 10631 H 1031.93 3.24661 -2.13372 0
M  V30 10632 H 1033.61 1.74684 -4.26946 0
M  V30 10633 H 1031.85 1.57826 -4.04071 0
M  V30 10634 H 1032.52 3.13215 -4.54533 0
M  V30 10635 H 1035 3.23174 -2.62103 0
M  V30 10636 H 1033.87 4.52894 -3.10127 0
M  V30 10637 H 1034.13 4.19458 -1.3967 0
M  V30 10638 N 1033.19 1.2685 0.935242 0
M  V30 10639 C 1034.44 1.12745 1.68211 0
M  V30 10640 C 1034.77 -0.328128 1.91712 0
M  V30 10641 O 1034.02 -1.25701 1.49993 0
M  V30 10642 C 1034.32 1.8482 3.05903 0
M  V30 10643 C 1033.99 3.347 3.02137 0
M  V30 10644 C 1032.65 3.75583 3.00817 0
M  V30 10645 C 1035 4.30368 2.93995 0
M  V30 10646 C 1032.33 5.10511 2.89129 0
M  V30 10647 C 1034.68 5.65343 2.83848 0
M  V30 10648 C 1033.34 6.0553 2.80874 0
M  V30 10649 H 1032.61 0.412563 0.615527 0
M  V30 10650 H 1035.26 1.57366 1.09124 0
M  V30 10651 H 1033.57 1.32685 3.68649 0
M  V30 10652 H 1035.26 1.71341 3.62551 0
M  V30 10653 H 1031.85 3.02182 3.03947 0
M  V30 10654 H 1036.04 3.9976 2.94118 0
M  V30 10655 H 1031.29 5.40802 2.85208 0
M  V30 10656 H 1035.47 6.39151 2.76512 0
M  V30 10657 H 1033.09 7.10037 2.71573 0
M  V30 10658 N 1034.67 -1.14067 1.0875 0
M  V30 10659 C 1035.6 -2.18926 0.67852 0
M  V30 10660 C 1036.62 -1.60441 -0.276163 0
M  V30 10661 O 1037.8 -1.78388 -0.0632788 0
M  V30 10662 C 1034.9 -3.38893 -0.0218852 0
M  V30 10663 C 1034.08 -4.26901 0.952582 0
M  V30 10664 C 1033.14 -5.25418 0.286859 0
M  V30 10665 O 1032.16 -5.61512 0.932354 0
M  V30 10666 N 1033.36 -5.72476 -0.961831 0
M  V30 10667 H 1036.13 -2.54629 1.58063 0
M  V30 10668 H 1033.69 -1.29321 0.974042 0
M  V30 10669 H 1035.68 -4.01864 -0.478278 0
M  V30 10670 H 1034.25 -3.01486 -0.826141 0
M  V30 10671 H 1033.47 -3.60812 1.58772 0
M  V30 10672 H 1034.76 -4.82563 1.61279 0
M  V30 10673 H 1034.16 -5.45287 -1.50594 0
M  V30 10674 H 1032.72 -6.37418 -1.36166 0
M  V30 10675 N 1036.15 -0.873678 -1.31166 0
M  V30 10676 C 1037.08 -0.289389 -2.27366 0
M  V30 10677 C 1038.09 0.549667 -1.5324 0
M  V30 10678 O 1039.28 0.371056 -1.74601 0
M  V30 10679 C 1036.38 0.60807 -3.334 0
M  V30 10680 C 1035.56 -0.199379 -4.36945 0
M  V30 10681 C 1034.61 0.626798 -5.22454 0
M  V30 10682 O 1033.64 0.0535121 -5.69175 0
M  V30 10683 N 1034.84 1.93809 -5.47191 0
M  V30 10684 H 1037.61 -1.1161 -2.78143 0
M  V30 10685 H 1035.17 -0.735529 -1.44228 0
M  V30 10686 H 1037.16 1.16656 -3.87522 0
M  V30 10687 H 1035.73 1.33545 -2.82638 0
M  V30 10688 H 1034.95 -0.939316 -3.82845 0
M  V30 10689 H 1036.24 -0.75329 -5.03193 0
M  V30 10690 H 1035.64 2.42693 -5.10995 0
M  V30 10691 H 1034.19 2.44428 -6.04234 0
M  V30 10692 N 1037.63 1.44308 -0.633487 0
M  V30 10693 C 1038.88 2.01239 -0.136356 0
M  V30 10694 C 1039.19 1.50438 1.25011 0
M  V30 10695 O 1040.39 1.99513 1.84138 0
M  V30 10696 C 1038.85 3.59382 -0.193011 0
M  V30 10697 C 1038.46 4.19178 -1.58093 0
M  V30 10698 C 1040.2 4.23778 0.247534 0
M  V30 10699 C 1038.11 5.69553 -1.59258 0
M  V30 10700 H 1037.04 0.752521 -0.0472109 0
M  V30 10701 H 1039.69 1.65498 -0.79263 0
M  V30 10702 H 1038.07 3.92432 0.530408 0
M  V30 10703 H 1039.25 3.97662 -2.32813 0
M  V30 10704 H 1037.56 3.67079 -1.96576 0
M  V30 10705 H 1040.16 5.34075 0.258401 0
M  V30 10706 H 1040.5 3.96285 1.27529 0
M  V30 10707 H 1041.03 3.9554 -0.423469 0
M  V30 10708 H 1037.77 6.01784 -2.59878 0
M  V30 10709 H 1037.29 5.93185 -0.888352 0
M  V30 10710 H 1038.97 6.33234 -1.32756 0
M  V30 10711 N 1039.1 0.374177 1.53094 0
M  V30 10712 C 1040.07 -0.455999 2.24618 0
M  V30 10713 C 1041.07 -1.00269 1.25709 0
M  V30 10714 O 1042.26 -0.887077 1.49922 0
M  V30 10715 C 1039.39 -1.63822 2.98957 0
M  V30 10716 H 1040.58 0.169986 2.99418 0
M  V30 10717 H 1038.14 0.126015 1.55791 0
M  V30 10718 H 1038.87 -2.30205 2.28421 0
M  V30 10719 H 1038.66 -1.25308 3.71538 0
M  V30 10720 H 1040.15 -2.22633 3.53305 0
M  V30 10721 N 1040.58 -1.57259 0.103575 0
M  V30 10722 C 1041.51 -2.17509 -0.84923 0
M  V30 10723 C 1042.49 -1.11079 -1.28824 0
M  V30 10724 O 1043.68 -1.39252 -1.35361 0
M  V30 10725 C 1040.81 -2.76221 -2.10522 0
M  V30 10726 C 1039.76 -3.88098 -1.80454 0
M  V30 10727 C 1039.09 -4.33549 -3.12952 0
M  V30 10728 C 1040.39 -5.10909 -1.08486 0
M  V30 10729 H 1042.08 -2.9738 -0.347217 0
M  V30 10730 H 1039.63 -1.43045 -0.165568 0
M  V30 10731 H 1041.58 -3.17024 -2.77621 0
M  V30 10732 H 1040.31 -1.93617 -2.63021 0
M  V30 10733 H 1038.96 -3.47847 -1.15749 0
M  V30 10734 H 1038.61 -3.47825 -3.63355 0
M  V30 10735 H 1038.31 -5.08984 -2.93614 0
M  V30 10736 H 1039.84 -4.76992 -3.81196 0
M  V30 10737 H 1041.25 -5.48828 -1.65711 0
M  V30 10738 H 1039.65 -5.91828 -0.992973 0
M  V30 10739 H 1040.72 -4.84851 -0.0690108 0
M  V30 10740 N 1042.06 0.170153 -1.56679 0
M  V30 10741 C 1043.29 0.90618 -1.86556 0
M  V30 10742 C 1043.71 1.74986 -0.690044 0
M  V30 10743 O 1043.07 1.77672 0.360862 0
M  V30 10744 C 1043.12 1.75777 -3.14857 0
M  V30 10745 O 1042.22 2.85952 -2.97162 0
M  V30 10746 H 1041.56 0.253781 -0.613589 0
M  V30 10747 H 1044.09 0.167943 -2.0391 0
M  V30 10748 H 1044.1 2.15747 -3.46291 0
M  V30 10749 H 1042.78 1.13807 -4.00026 0
M  V30 10750 H 1041.35 2.49557 -2.77084 0
M  V30 10751 N 1043.54 1.5137 0.438746 0
M  V30 10752 C 1044.77 1.6753 1.20901 0
M  V30 10753 C 1045.18 0.371573 1.85515 0
M  V30 10754 O 1044.52 -0.659701 1.71446 0
M  V30 10755 C 1044.58 2.73305 2.33548 0
M  V30 10756 C 1044.25 4.15944 1.89313 0
M  V30 10757 C 1045.24 5.00769 1.39736 0
M  V30 10758 C 1042.93 4.62036 1.97047 0
M  V30 10759 C 1044.92 6.29747 0.984773 0
M  V30 10760 C 1042.61 5.91011 1.554 0
M  V30 10761 C 1043.61 6.74693 1.06197 0
M  V30 10762 O 1043.29 8.01256 0.651407 0
M  V30 10763 H 1043.03 0.565404 0.370532 0
M  V30 10764 H 1045.58 1.98543 0.526296 0
M  V30 10765 H 1043.81 2.37604 3.05092 0
M  V30 10766 H 1045.5 2.78359 2.95417 0
M  V30 10767 H 1046.27 4.66363 1.33156 0
M  V30 10768 H 1042.14 3.97025 2.34291 0
M  V30 10769 H 1045.69 6.95015 0.600029 0
M  V30 10770 H 1041.59 6.24932 1.6165 0
M  V30 10771 H 1042.35 8.148 0.777382 0
M  V30 10772 N 1045.02 -0.694098 1.41492 0
M  V30 10773 C 1046.24 -1.48789 1.44488 0
M  V30 10774 C 1046.67 -1.88028 0.0521588 0
M  V30 10775 O 1046.02 -1.54727 -0.944952 0
M  V30 10776 C 1046.07 -2.72586 2.3607 0
M  V30 10777 O 1045.18 -3.70128 1.81876 0
M  V30 10778 H 1044.52 -0.447758 0.490315 0
M  V30 10779 H 1047.05 -0.853036 1.85969 0
M  V30 10780 H 1047.06 -3.20877 2.51995 0
M  V30 10781 H 1045.73 -2.43363 3.37264 0
M  V30 10782 H 1044.31 -3.29069 1.75408 0
M  V30 10783 N 1046.49 -1.27344 -0.928501 0
M  V30 10784 C 1047.44 -1.10001 -2.029 0
M  V30 10785 C 1048.41 -0.00131084 -1.661 0
M  V30 10786 O 1049.6 -0.163485 -1.90098 0
M  V30 10787 C 1046.74 -0.7524 -3.36798 0
M  V30 10788 C 1045.85 -1.92865 -3.86558 0
M  V30 10789 C 1044.98 -1.52299 -5.08899 0
M  V30 10790 C 1044.02 -2.66677 -5.50953 0
M  V30 10791 N 1043.16 -2.26706 -6.64491 0
M  V30 10792 H 1048 -2.0417 -2.17068 0
M  V30 10793 H 1045.54 -1.01637 -1.0634 0
M  V30 10794 H 1047.5 -0.531687 -4.13798 0
M  V30 10795 H 1046.13 0.15234 -3.2244 0
M  V30 10796 H 1045.18 -2.26192 -3.05845 0
M  V30 10797 H 1046.49 -2.78668 -4.13698 0
M  V30 10798 H 1045.64 -1.26348 -5.93398 0
M  V30 10799 H 1044.38 -0.636042 -4.83535 0
M  V30 10800 H 1043.39 -2.93344 -4.65004 0
M  V30 10801 H 1044.61 -3.55992 -5.78313 0
M  V30 10802 H 1042.56 -1.40462 -6.40786 0
M  V30 10803 H 1042.48 -3.06049 -6.91281 0
M  V30 10804 H 1043.74 -2.04 -7.52333 0
M  V30 10805 N 1047.97 1.13488 -1.09353 0
M  V30 10806 C 1048.88 2.2248 -0.744307 0
M  V30 10807 C 1049.9 1.72145 0.253404 0
M  V30 10808 O 1051.07 2.01176 0.0949339 0
M  V30 10809 C 1048.14 3.46286 -0.16928 0
M  V30 10810 C 1047.2 4.11516 -1.22284 0
M  V30 10811 C 1046.43 5.29412 -0.675161 0
M  V30 10812 O 1046.66 5.68185 0.502182 0
M  V30 10813 O 1045.59 5.8467 -1.42983 0
M  V30 10814 H 1049.42 2.54723 -1.65378 0
M  V30 10815 H 1047 1.21607 -0.867879 0
M  V30 10816 H 1048.88 4.2114 0.14811 0
M  V30 10817 H 1047.56 3.15745 0.713214 0
M  V30 10818 H 1046.47 3.38492 -1.59292 0
M  V30 10819 H 1047.8 4.46186 -2.07796 0
M  V30 10820 N 1049.45 0.880621 1.30701 0
M  V30 10821 C 1050.4 0.333562 2.30196 0
M  V30 10822 C 1051.39 -0.557092 1.59978 0
M  V30 10823 O 1052.6 -0.442009 1.74489 0
M  V30 10824 H 1048.97 0.0892036 0.746691 0
M  V30 10825 H 1050.95 1.18644 2.73799 0
M  V30 10826 C 1049.69 -0.440731 3.44895 0
M  V30 10827 H 1049.02 0.235353 3.99107 0
M  V30 10828 H 1050.46 -0.788676 4.166 0
M  V30 10829 C 1048.92 -1.63613 2.94504 0
M  V30 10830 O 1049.45 -2.73549 2.94166 0
M  V30 10831 N 1047.65 -1.47183 2.5057 0
M  V30 10832 H 1047.2 -0.577479 2.51044 0
M  V30 10833 H 1047.16 -2.27303 2.17211 0
M  V30 10834 N 1050.93 -1.4397 0.641131 0
M  V30 10835 C 1052.15 -2.06818 0.155318 0
M  V30 10836 C 1052.58 -1.47665 -1.16519 0
M  V30 10837 O 1051.94 -0.58192 -1.71707 0
M  V30 10838 C 1051.99 -3.60542 0.0647537 0
M  V30 10839 O 1051.09 -4.00674 -0.976447 0
M  V30 10840 H 1050.43 -0.657962 0.0893404 0
M  V30 10841 H 1052.96 -1.84678 0.88064 0
M  V30 10842 H 1052.97 -4.07816 -0.122552 0
M  V30 10843 H 1051.65 -4.02975 1.02878 0
M  V30 10844 H 1050.22 -3.65013 -0.762905 0
M  V30 10845 N 1052.41 -0.382291 -1.52893 0
M  V30 10846 C 1053.34 0.491199 -2.23875 0
M  V30 10847 C 1054.35 1.03249 -1.25871 0
M  V30 10848 O 1055.54 0.936016 -1.5199 0
M  V30 10849 C 1052.64 1.6927 -2.936 0
M  V30 10850 C 1051.81 1.28 -4.18252 0
M  V30 10851 C 1050.87 2.34541 -4.71038 0
M  V30 10852 O 1049.9 1.96239 -5.34302 0
M  V30 10853 N 1051.1 3.6636 -4.50289 0
M  V30 10854 H 1053.87 -0.116897 -2.99472 0
M  V30 10855 H 1051.43 -0.208296 -1.60554 0
M  V30 10856 H 1053.42 2.40054 -3.25816 0
M  V30 10857 H 1051.99 2.20729 -2.21354 0
M  V30 10858 H 1051.21 0.40133 -3.92152 0
M  V30 10859 H 1052.5 0.98082 -4.99257 0
M  V30 10860 H 1051.9 4.00245 -3.99775 0
M  V30 10861 H 1050.45 4.332 -4.87013 0
M  V30 10862 N 1053.89 1.57202 -0.111913 0
M  V30 10863 C 1054.82 2.10634 0.877983 0
M  V30 10864 C 1055.8 1.02098 1.26549 0
M  V30 10865 O 1056.98 1.29707 1.36779 0
M  V30 10866 C 1054.11 2.59721 2.174 0
M  V30 10867 C 1053.15 3.80074 1.93509 0
M  V30 10868 S 1053.99 5.22834 1.1578 0
M  V30 10869 C 1055.14 5.75284 2.46576 0
M  V30 10870 H 1055.38 2.94268 0.423483 0
M  V30 10871 H 1052.91 1.54065 0.101721 0
M  V30 10872 H 1054.87 2.88657 2.91868 0
M  V30 10873 H 1053.53 1.76281 2.59969 0
M  V30 10874 H 1052.72 4.12545 2.89522 0
M  V30 10875 H 1052.32 3.51718 1.27164 0
M  V30 10876 H 1054.61 5.84576 3.42457 0
M  V30 10877 H 1055.56 6.73493 2.1866 0
M  V30 10878 H 1055.97 5.03308 2.55619 0
M  V30 10879 N 1055.36 -0.161842 1.56767 0
M  V30 10880 C 1056.61 -0.876925 1.82527 0
M  V30 10881 C 1056.94 -1.81831 0.690492 0
M  V30 10882 O 1056.19 -1.9304 -0.32159 0
M  V30 10883 C 1056.49 -1.69736 3.14522 0
M  V30 10884 C 1056.16 -0.904075 4.41743 0
M  V30 10885 C 1054.82 -0.685168 4.76297 0
M  V30 10886 C 1057.17 -0.348282 5.20035 0
M  V30 10887 C 1054.5 0.10048 5.86614 0
M  V30 10888 C 1056.85 0.424327 6.31175 0
M  V30 10889 C 1055.52 0.653948 6.64289 0
M  V30 10890 H 1054.79 -0.320889 0.667915 0
M  V30 10891 H 1057.43 -0.141338 1.90978 0
M  V30 10892 H 1055.74 -2.50262 3.01456 0
M  V30 10893 H 1057.44 -2.25386 3.31666 0
M  V30 10894 H 1054.03 -1.08474 4.14646 0
M  V30 10895 H 1058.21 -0.504721 4.93727 0
M  V30 10896 H 1053.47 0.288029 6.10721 0
M  V30 10897 H 1057.64 0.862203 6.91042 0
M  V30 10898 H 1055.27 1.26459 7.49608 0
M  V30 10899 N 1056.84 -1.516 -0.430713 0
M  V30 10900 C 1057.77 -1.69594 -1.54177 0
M  V30 10901 C 1058.79 -0.576518 -1.5225 0
M  V30 10902 O 1059.98 -0.85104 -1.56906 0
M  V30 10903 C 1057.08 -1.70148 -2.93092 0
M  V30 10904 C 1056.25 -2.98782 -3.1945 0
M  V30 10905 C 1055.31 -2.91435 -4.38123 0
M  V30 10906 O 1054.33 -3.65372 -4.36454 0
M  V30 10907 N 1055.54 -2.0774 -5.42056 0
M  V30 10908 H 1058.3 -2.65442 -1.39143 0
M  V30 10909 H 1055.86 -1.49569 -0.61974 0
M  V30 10910 H 1057.85 -1.62793 -3.70514 0
M  V30 10911 H 1056.42 -0.818667 -3.0169 0
M  V30 10912 H 1055.64 -3.19954 -2.30267 0
M  V30 10913 H 1056.93 -3.83919 -3.33892 0
M  V30 10914 H 1056.33 -1.47059 -5.46251 0
M  V30 10915 H 1054.89 -2.06259 -6.18305 0
M  V30 10916 N 1058.32 0.686584 -1.41858 0
M  V30 10917 C 1059.57 1.44379 -1.41418 0
M  V30 10918 C 1059.89 1.94981 -0.0273696 0
M  V30 10919 O 1059.16 1.72296 0.932248 0
M  V30 10920 H 1057.74 0.53574 -0.520568 0
M  V30 10921 H 1060.4 0.812056 -1.77177 0
M  V30 10922 H 1059.5 2.30258 -2.10684 0
M  V30 10923 N 1059.8 1.27835 0.921735 0
M  V30 10924 C 1061.21 1.05369 1.19873 0
M  V30 10925 C 1061.41 -0.208997 2.00413 0
M  V30 10926 O 1060.47 -0.912861 2.35421 0
M  V30 10927 C 1061.78 2.29658 1.94108 0
M  V30 10928 C 1063.33 2.34756 2.07023 0
M  V30 10929 C 1063.81 3.5879 2.84664 0
M  V30 10930 N 1065.3 3.59383 2.9223 0
M  V30 10931 C 1066.03 4.52029 3.52785 0
M  V30 10932 N 1065.53 5.54986 4.14683 0
M  V30 10933 N 1067.32 4.39641 3.50246 0
M  V30 10934 H 1059.47 2.08903 0.383819 0
M  V30 10935 H 1061.73 0.919065 0.232429 0
M  V30 10936 H 1061.44 3.21604 1.4235 0
M  V30 10937 H 1061.31 2.35444 2.94696 0
M  V30 10938 H 1063.7 1.43312 2.57965 0
M  V30 10939 H 1063.78 2.32969 1.05636 0
M  V30 10940 H 1063.43 4.50574 2.34404 0
M  V30 10941 H 1063.36 3.57829 3.86349 0
M  V30 10942 H 1065.85 2.84927 2.48244 0
M  V30 10943 H 1066.16 6.21837 4.58845 0
M  V30 10944 H 1064.51 5.58822 4.13211 0
M  V30 10945 H 1067.7 3.58413 3.01094 0
M  V30 10946 H 1067.87 5.12033 3.97148 0
M  V30 10947 N 1061.28 -1.12907 1.09954 0
M  V30 10948 C 1062.69 -1.65847 0.857417 0
M  V30 10949 C 1063.04 -1.86372 -0.613176 0
M  V30 10950 O 1062.16 -1.58654 -1.47166 0
M  V30 10951 C 1062.76 -3.01269 1.54991 0
M  V30 10952 C 1061.32 -3.51179 1.35462 0
M  V30 10953 C 1060.46 -2.26307 1.60251 0
M  V30 10954 H 1063.41 -0.96755 1.25794 0
M  V30 10955 H 1063.44 -3.675 0.986091 0
M  V30 10956 H 1062.95 -2.86299 2.6202 0
M  V30 10957 H 1061.05 -3.71343 0.305742 0
M  V30 10958 H 1061.16 -4.30955 2.09318 0
M  V30 10959 H 1059.53 -2.33167 1.02494 0
M  V30 10960 H 1060.31 -2.13896 2.68521 0
M  V30 10961 N 1062.75 -0.88754 -1.30232 0
M  V30 10962 C 1063.99 -0.514017 -1.97831 0
M  V30 10963 C 1064.36 0.920151 -1.68515 0
M  V30 10964 O 1065.56 1.39993 -2.29468 0
M  V30 10965 C 1063.83 -0.784155 -3.48692 0
M  V30 10966 S 1065.39 -0.513119 -4.3579 0
M  V30 10967 H 1062.21 -0.191157 -0.684821 0
M  V30 10968 H 1064.81 -1.14736 -1.58291 0
M  V30 10969 H 1063.51 -1.82639 -3.6752 0
M  V30 10970 H 1063.04 -0.138468 -3.93156 0
M  V30 10971 H 1065.06 0.647155 -4.91962 0
M  V30 10972 N 1064.23 1.43628 -0.648757 0
M  V30 10973 C 1065.18 2.30755 0.0455536 0
M  V30 10974 C 1066.15 1.44495 0.819168 0
M  V30 10975 O 1067.33 1.73372 0.79667 0
M  V30 10976 C 1064.47 3.30017 1.00908 0
M  V30 10977 C 1063.59 4.31376 0.232039 0
M  V30 10978 C 1062.72 5.17723 1.18897 0
M  V30 10979 C 1061.76 6.10778 0.402096 0
M  V30 10980 N 1060.9 6.89763 1.31038 0
M  V30 10981 H 1065.74 2.89581 -0.70332 0
M  V30 10982 H 1063.28 1.42662 -0.3586 0
M  V30 10983 H 1065.23 3.86072 1.58128 0
M  V30 10984 H 1063.86 2.72851 1.72488 0
M  V30 10985 H 1062.92 3.77652 -0.456373 0
M  V30 10986 H 1064.23 4.9735 -0.380023 0
M  V30 10987 H 1063.38 5.78381 1.83194 0
M  V30 10988 H 1062.12 4.51864 1.83494 0
M  V30 10989 H 1061.13 5.49212 -0.254255 0
M  V30 10990 H 1062.35 6.78678 -0.239411 0
M  V30 10991 H 1060.3 6.26557 1.94324 0
M  V30 10992 H 1060.21 7.52243 0.752774 0
M  V30 10993 H 1061.48 7.54931 1.94164 0
M  V30 10994 N 1065.71 0.390394 1.52688 0
M  V30 10995 C 1066.66 -0.4591 2.28024 0
M  V30 10996 C 1067.65 -1.06212 1.31967 0
M  V30 10997 O 1068.86 -1.00247 1.49501 0
M  V30 10998 H 1065.23 -0.16681 0.733266 0
M  V30 10999 H 1067.2 0.197747 2.97744 0
M  V30 11000 C 1065.95 -1.5737 3.10048 0
M  V30 11001 H 1065.28 -1.11901 3.83821 0
M  V30 11002 H 1066.72 -2.1423 3.65898 0
M  V30 11003 C 1065.18 -2.53036 2.22429 0
M  V30 11004 O 1065.71 -3.5647 1.85181 0
M  V30 11005 N 1063.91 -2.22802 1.86567 0
M  V30 11006 H 1063.46 -1.38723 2.17057 0
M  V30 11007 H 1063.42 -2.87061 1.28233 0
M  V30 11008 N 1067.19 -1.57141 0.120249 0
M  V30 11009 C 1068.12 -2.11097 -0.8668 0
M  V30 11010 C 1069.1 -1.02768 -1.26006 0
M  V30 11011 O 1070.28 -1.3043 -1.36089 0
M  V30 11012 C 1067.41 -2.6087 -2.1602 0
M  V30 11013 C 1066.46 -3.81095 -1.91491 0
M  V30 11014 S 1067.29 -5.23441 -1.13005 0
M  V30 11015 C 1068.45 -5.76583 -2.43521 0
M  V30 11016 H 1068.68 -2.94489 -0.407871 0
M  V30 11017 H 1066.21 -1.54116 -0.0935491 0
M  V30 11018 H 1068.17 -2.90201 -2.90333 0
M  V30 11019 H 1066.83 -1.77657 -2.5903 0
M  V30 11020 H 1066.02 -4.14074 -2.8733 0
M  V30 11021 H 1065.63 -3.52387 -1.25297 0
M  V30 11022 H 1067.92 -5.86384 -3.39352 0
M  V30 11023 H 1068.86 -6.74644 -2.15085 0
M  V30 11024 H 1069.27 -5.04657 -2.52946 0
M  V30 11025 N 1068.67 0.153526 -1.5685 0
M  V30 11026 C 1069.9 0.881055 -1.86872 0
M  V30 11027 C 1070.3 1.75547 -0.705692 0
M  V30 11028 O 1069.65 1.8064 0.333888 0
M  V30 11029 C 1069.71 1.79429 -3.11521 0
M  V30 11030 C 1069.37 1.0977 -4.43621 0
M  V30 11031 C 1070.37 0.454693 -5.17908 0
M  V30 11032 C 1068.06 1.08915 -4.9035 0
M  V30 11033 C 1070.05 -0.187562 -6.37124 0
M  V30 11034 C 1067.74 0.443084 -6.09492 0
M  V30 11035 C 1068.73 -0.194154 -6.82724 0
M  V30 11036 O 1068.42 -0.829995 -7.99604 0
M  V30 11037 H 1068.15 0.260486 -0.623797 0
M  V30 11038 H 1070.71 0.153024 -2.04829 0
M  V30 11039 H 1068.94 2.5631 -2.89555 0
M  V30 11040 H 1070.63 2.39321 -3.27842 0
M  V30 11041 H 1071.39 0.453151 -4.82878 0
M  V30 11042 H 1067.27 1.57456 -4.33276 0
M  V30 11043 H 1070.82 -0.685542 -6.94223 0
M  V30 11044 H 1066.71 0.44227 -6.43983 0
M  V30 11045 H 1067.48 -0.731013 -8.15229 0
M  V30 11046 N 1070.14 1.51827 0.422667 0
M  V30 11047 C 1071.56 1.57533 1.00201 0
M  V30 11048 C 1071.91 0.407623 1.91919 0
M  V30 11049 O 1071.03 -0.473763 2.1115 0
M  V30 11050 C 1071.63 2.85508 1.82403 0
M  V30 11051 C 1070.19 2.93737 2.35362 0
M  V30 11052 C 1069.33 2.52343 1.14971 0
M  V30 11053 H 1072.28 1.57391 0.20339 0
M  V30 11054 H 1072.3 2.70097 2.68007 0
M  V30 11055 H 1071.82 3.70477 1.15623 0
M  V30 11056 H 1069.92 2.13231 3.05554 0
M  V30 11057 H 1070.03 3.977 2.67155 0
M  V30 11058 H 1068.39 2.05878 1.49955 0
M  V30 11059 H 1069.18 3.39672 0.497786 0
M  V30 11060 N 1071.62 -0.679052 1.4222 0
M  V30 11061 C 1072.57 -1.81398 1.45594 0
M  V30 11062 C 1073.56 -1.66112 0.332127 0
M  V30 11063 O 1074.77 -1.72772 0.504942 0
M  V30 11064 H 1071.15 -0.598045 0.455902 0
M  V30 11065 H 1073.12 -1.7567 2.41211 0
M  V30 11066 C 1071.87 -3.19525 1.37109 0
M  V30 11067 H 1071.19 -3.31912 2.22878 0
M  V30 11068 H 1072.63 -3.98967 1.43531 0
M  V30 11069 C 1071.09 -3.36792 0.0853593 0
M  V30 11070 O 1071.62 -3.92309 -0.863532 0
M  V30 11071 N 1069.82 -2.906 0.00389229 0
M  V30 11072 H 1069.37 -2.45607 0.776846 0
M  V30 11073 H 1069.33 -3.0253 -0.855742 0
M  V30 11074 N 1073.1 -1.28322 -0.914942 0
M  V30 11075 C 1074.01 -1.13993 -2.05043 0
M  V30 11076 C 1075.03 -0.0667921 -1.73872 0
M  V30 11077 O 1076.2 -0.275845 -1.99502 0
M  V30 11078 C 1073.27 -0.801856 -3.373 0
M  V30 11079 C 1072.33 -1.95723 -3.82088 0
M  V30 11080 C 1071.56 -1.63519 -5.08033 0
M  V30 11081 O 1071.78 -0.54899 -5.67752 0
M  V30 11082 O 1070.72 -2.47844 -5.48504 0
M  V30 11083 H 1074.54 -2.09313 -2.2005 0
M  V30 11084 H 1072.13 -1.0763 -1.03616 0
M  V30 11085 H 1074.01 -0.627214 -4.16706 0
M  V30 11086 H 1072.69 0.121696 -3.23471 0
M  V30 11087 H 1071.59 -2.18702 -3.03514 0
M  V30 11088 H 1072.93 -2.86144 -4.00478 0
M  V30 11089 N 1074.58 1.12322 -1.10551 0
M  V30 11090 C 1075.81 1.87407 -0.869607 0
M  V30 11091 C 1076.22 1.79976 0.58356 0
M  V30 11092 O 1075.56 1.1725 1.41415 0
M  V30 11093 C 1075.62 3.37401 -1.24099 0
M  V30 11094 C 1075.29 3.68607 -2.70144 0
M  V30 11095 C 1076.28 3.66869 -3.68379 0
M  V30 11096 C 1073.97 3.97903 -3.06559 0
M  V30 11097 C 1075.96 3.93987 -5.01052 0
M  V30 11098 C 1073.65 4.24681 -4.39419 0
M  V30 11099 C 1074.65 4.2271 -5.36475 0
M  V30 11100 O 1074.33 4.48823 -6.66943 0
M  V30 11101 H 1074.07 0.59978 -0.311834 0
M  V30 11102 H 1076.62 1.43037 -1.4741 0
M  V30 11103 H 1074.85 3.82332 -0.579606 0
M  V30 11104 H 1076.54 3.93833 -0.982378 0
M  V30 11105 H 1077.31 3.44297 -3.41591 0
M  V30 11106 H 1073.18 3.98578 -2.31638 0
M  V30 11107 H 1076.73 3.92364 -5.76798 0
M  V30 11108 H 1072.63 4.46727 -4.65945 0
M  V30 11109 H 1073.39 4.66436 -6.72592 0
M  V30 11110 N 1076.06 0.894434 1.2976 0
M  V30 11111 C 1077.3 0.517669 1.95771 0
M  V30 11112 C 1077.63 -0.935028 1.70551 0
M  V30 11113 O 1076.89 -1.67722 1.00835 0
M  V30 11114 C 1077.19 0.750307 3.49435 0
M  V30 11115 C 1076.85 2.17955 3.94723 0
M  V30 11116 C 1075.51 2.57036 4.068 0
M  V30 11117 C 1077.87 3.11053 4.18205 0
M  V30 11118 C 1075.19 3.88406 4.39724 0
M  V30 11119 C 1077.55 4.41966 4.52602 0
M  V30 11120 C 1076.21 4.80927 4.62888 0
M  V30 11121 H 1075.48 0.189428 0.716378 0
M  V30 11122 H 1078.13 1.13209 1.54454 0
M  V30 11123 H 1076.43 0.0529242 3.91764 0
M  V30 11124 H 1078.13 0.438251 3.98598 0
M  V30 11125 H 1074.72 1.86622 3.85837 0
M  V30 11126 H 1078.9 2.82076 4.08347 0
M  V30 11127 H 1074.16 4.18321 4.4589 0
M  V30 11128 H 1078.33 5.14134 4.69722 0
M  V30 11129 H 1075.96 5.82759 4.88156 0
M  V30 11130 N 1077.53 -1.43282 0.656365 0
M  V30 11131 C 1078.95 -1.85012 0.250475 0
M  V30 11132 C 1079.3 -1.54944 -1.20361 0
M  V30 11133 O 1078.42 -0.999983 -1.9191 0
M  V30 11134 C 1079.02 -3.35827 0.447815 0
M  V30 11135 C 1077.58 -3.76277 0.0962151 0
M  V30 11136 C 1076.72 -2.66988 0.749168 0
M  V30 11137 H 1079.67 -1.3339 0.85982 0
M  V30 11138 H 1079.69 -3.7927 -0.305726 0
M  V30 11139 H 1079.21 -3.5768 1.5062 0
M  V30 11140 H 1077.31 -3.60035 -0.959449 0
M  V30 11141 H 1077.42 -4.76227 0.523875 0
M  V30 11142 H 1075.78 -2.54048 0.18212 0
M  V30 11143 H 1076.57 -2.91669 1.81064 0
M  V30 11144 N 1079.01 -0.398486 -1.52479 0
M  V30 11145 C 1079.96 0.449343 -2.23528 0
M  V30 11146 C 1080.95 1.02218 -1.24259 0
M  V30 11147 O 1082.14 0.946757 -1.49551 0
M  V30 11148 C 1079.27 1.5712 -3.05235 0
M  V30 11149 C 1078.35 1.00966 -4.11906 0
M  V30 11150 N 1078.75 0.173855 -5.05501 0
M  V30 11151 C 1077.04 1.28124 -4.272 0
M  V30 11152 C 1077.74 -0.137391 -5.81538 0
M  V30 11153 N 1076.72 0.468972 -5.41573 0
M  V30 11154 H 1080.52 -0.195654 -2.93248 0
M  V30 11155 H 1078.04 -0.208305 -1.61059 0
M  V30 11156 H 1080.03 2.19108 -3.54679 0
M  V30 11157 H 1078.69 2.21893 -2.37052 0
M  V30 11158 H 1079.7 -0.189618 -5.17553 0
M  V30 11159 H 1076.38 1.92933 -3.70247 0
M  V30 11160 H 1077.77 -0.815159 -6.66937 0
M  V30 11161 N 1080.49 1.57075 -0.12858 0
M  V30 11162 C 1081.74 1.95134 0.526046 0
M  V30 11163 C 1082.06 1.01337 1.66601 0
M  V30 11164 O 1081.33 0.0714361 1.9577 0
M  V30 11165 H 1079.91 0.720468 0.19732 0
M  V30 11166 H 1082.57 1.93874 -0.199767 0
M  V30 11167 H 1081.67 2.98406 0.914332 0
M  V30 11168 N 1081.97 -0.145205 1.5693 0
M  V30 11169 C 1083.22 -0.855955 1.82637 0
M  V30 11170 C 1083.53 -1.82255 0.710109 0
M  V30 11171 O 1084.74 -2.57758 0.852837 0
M  V30 11172 C 1083.19 -1.57278 3.23715 0
M  V30 11173 C 1082.8 -0.648507 4.43281 0
M  V30 11174 C 1084.55 -2.27021 3.58695 0
M  V30 11175 C 1082.45 -1.36706 5.75383 0
M  V30 11176 H 1081.38 -0.323385 0.68113 0
M  V30 11177 H 1084.03 -0.10869 1.83178 0
M  V30 11178 H 1082.42 -2.36574 3.17567 0
M  V30 11179 H 1083.59 0.109355 4.6067 0
M  V30 11180 H 1081.9 -0.0594029 4.16358 0
M  V30 11181 H 1084.5 -2.81423 4.54648 0
M  V30 11182 H 1084.84 -3.03598 2.8484 0
M  V30 11183 H 1085.38 -1.54642 3.66512 0
M  V30 11184 H 1082.12 -0.6431 6.52338 0
M  V30 11185 H 1081.64 -2.09759 5.61926 0
M  V30 11186 H 1083.32 -1.90748 6.18243 0
M  V30 11187 N 1083.45 -1.52049 -0.414609 0
M  V30 11188 C 1084.68 -1.69679 -1.18392 0
M  V30 11189 C 1085.09 -0.403881 -1.84429 0
M  V30 11190 O 1084.45 0.619636 -1.71659 0
M  V30 11191 C 1084.5 -2.82855 -2.25112 0
M  V30 11192 O 1084.22 -4.07138 -1.61772 0
M  V30 11193 C 1085.72 -3.11948 -3.14965 0
M  V30 11194 H 1082.94 -0.56879 -0.355977 0
M  V30 11195 H 1085.48 -1.9858 -0.488505 0
M  V30 11196 H 1083.64 -2.56488 -2.90332 0
M  V30 11197 H 1084.05 -4.70163 -2.32479 0
M  V30 11198 H 1085.53 -3.94665 -3.85932 0
M  V30 11199 H 1086 -2.25276 -3.77024 0
M  V30 11200 H 1086.61 -3.40059 -2.55421 0
M  V30 11201 N 1084.93 0.6715 -1.42579 0
M  V30 11202 C 1085.87 1.80623 -1.46554 0
M  V30 11203 C 1086.87 1.65934 -0.340932 0
M  V30 11204 O 1088.07 1.72502 -0.514098 0
M  V30 11205 H 1084.45 0.595619 -0.459067 0
M  V30 11206 H 1086.42 1.74388 -2.42139 0
M  V30 11207 C 1085.17 3.18794 -1.38801 0
M  V30 11208 H 1084.49 3.30725 -2.24635 0
M  V30 11209 H 1085.93 3.98201 -1.45645 0
M  V30 11210 C 1084.39 3.36742 -0.103219 0
M  V30 11211 O 1084.92 3.92761 0.842715 0
M  V30 11212 N 1083.13 2.90594 -0.0193034 0
M  V30 11213 H 1082.67 2.45192 -0.78986 0
M  V30 11214 H 1082.63 3.0298 0.839686 0
M  V30 11215 N 1086.4 1.28806 0.908124 0
M  V30 11216 C 1087.65 1.16058 1.65454 0
M  V30 11217 C 1087.97 -0.290057 1.92831 0
M  V30 11218 O 1087.24 -1.20001 1.54843 0
M  V30 11219 H 1085.82 0.426522 0.61326 0
M  V30 11220 H 1088.48 1.61614 1.08936 0
M  V30 11221 H 1087.58 1.70437 2.61453 0
M  V30 11222 N 1087.88 -1.11734 1.11145 0
M  V30 11223 C 1088.84 -2.15868 0.770303 0
M  V30 11224 C 1089.84 -1.59438 -0.208842 0
M  V30 11225 O 1091.03 -1.74193 0.0152516 0
M  V30 11226 C 1088.17 -3.40603 0.142303 0
M  V30 11227 H 1089.36 -2.4756 1.69276 0
M  V30 11228 H 1086.91 -1.26867 0.912929 0
M  V30 11229 H 1087.65 -3.14517 -0.790526 0
M  V30 11230 H 1087.43 -3.8284 0.847087 0
M  V30 11231 H 1088.92 -4.17523 -0.0803608 0
M  V30 11232 N 1089.36 -0.901303 -1.29284 0
M  V30 11233 C 1090.58 -0.542823 -2.0017 0
M  V30 11234 C 1091.01 0.865583 -1.67001 0
M  V30 11235 O 1090.37 1.5764 -0.895502 0
M  V30 11236 C 1090.42 -0.743987 -3.52842 0
M  V30 11237 O 1089.52 0.202771 -4.11901 0
M  V30 11238 H 1088.86 -0.211903 -0.62928 0
M  V30 11239 H 1091.39 -1.21333 -1.64741 0
M  V30 11240 H 1091.4 -0.64926 -4.02801 0
M  V30 11241 H 1090.08 -1.77077 -3.7632 0
M  V30 11242 H 1088.65 0.0603637 -3.72851 0
M  V30 11243 N 1090.84 1.42931 -0.663954 0
M  V30 11244 C 1092.08 2.02505 -0.190647 0
M  V30 11245 C 1092.44 1.51506 1.18591 0
M  V30 11246 O 1091.73 0.702962 1.78239 0
M  V30 11247 C 1091.93 3.57072 -0.153163 0
M  V30 11248 C 1091.75 4.23069 -1.52454 0
M  V30 11249 C 1090.52 4.58694 -2.11961 0
M  V30 11250 C 1092.72 4.51373 -2.46509 0
M  V30 11251 N 1090.7 5.09818 -3.41993 0
M  V30 11252 C 1092.08 5.03931 -3.61184 0
M  V30 11253 C 1094.13 4.33351 -2.45176 0
M  V30 11254 C 1092.83 5.40362 -4.74765 0
M  V30 11255 C 1094.86 4.70851 -3.57845 0
M  V30 11256 C 1094.22 5.23551 -4.71246 0
M  V30 11257 H 1090.32 0.773581 -0.114438 0
M  V30 11258 H 1092.9 1.73951 -0.874589 0
M  V30 11259 H 1091.08 3.85166 0.500156 0
M  V30 11260 H 1092.81 4.03336 0.332015 0
M  V30 11261 H 1089.56 4.44091 -1.6456 0
M  V30 11262 H 1089.99 5.39821 -4.08561 0
M  V30 11263 H 1094.63 3.91871 -1.58735 0
M  V30 11264 H 1092.35 5.8078 -5.6189 0
M  V30 11265 H 1095.93 4.58593 -3.58028 0
M  V30 11266 H 1094.81 5.52029 -5.56986 0
M  V30 11267 N 1092.32 0.406567 1.52266 0
M  V30 11268 C 1093.55 -0.169378 2.05905 0
M  V30 11269 C 1093.95 -1.39626 1.27676 0
M  V30 11270 O 1093.3 -1.80871 0.32114 0
M  V30 11271 C 1093.36 -0.587209 3.54672 0
M  V30 11272 C 1093.02 0.528588 4.53933 0
M  V30 11273 C 1094.02 1.39137 5.00936 0
M  V30 11274 C 1091.7 0.700549 4.97391 0
M  V30 11275 C 1093.7 2.41108 5.90039 0
M  V30 11276 C 1091.39 1.72357 5.8629 0
M  V30 11277 C 1092.38 2.57725 6.32509 0
M  V30 11278 O 1092.07 3.58275 7.19649 0
M  V30 11279 H 1091.8 -0.0250574 0.675535 0
M  V30 11280 H 1094.36 0.575377 1.97177 0
M  V30 11281 H 1092.59 -1.38421 3.61077 0
M  V30 11282 H 1094.28 -1.09078 3.90969 0
M  V30 11283 H 1095.04 1.26991 4.68079 0
M  V30 11284 H 1090.92 0.0457503 4.60977 0
M  V30 11285 H 1094.47 3.07774 6.26036 0
M  V30 11286 H 1090.36 1.84535 6.1856 0
M  V30 11287 H 1091.13 3.54489 7.37753 0
M  V30 11288 N 1093.79 -1.57004 0.136909 0
M  V30 11289 C 1094.74 -2.17524 -0.823784 0
M  V30 11290 C 1095.74 -1.1294 -1.26258 0
M  V30 11291 O 1096.94 -1.3121 -1.23223 0
M  V30 11292 H 1093.32 -0.696381 -0.283827 0
M  V30 11293 H 1095.29 -2.96997 -0.289052 0
M  V30 11294 C 1094.04 -2.80331 -2.05693 0
M  V30 11295 H 1093.36 -3.60515 -1.72825 0
M  V30 11296 H 1094.8 -3.26192 -2.70878 0
M  V30 11297 C 1093.26 -1.78322 -2.85837 0
M  V30 11298 O 1093.79 -1.2475 -3.81838 0
M  V30 11299 N 1092 -1.47854 -2.50175 0
M  V30 11300 H 1091.54 -1.9161 -1.72173 0
M  V30 11301 H 1091.5 -0.798464 -3.04092 0
M  V30 11302 N 1095.27 0.136881 -1.57004 0
M  V30 11303 C 1096.52 0.849031 -1.84172 0
M  V30 11304 C 1096.85 1.80359 -0.720027 0
M  V30 11305 O 1096.13 1.92538 0.275584 0
M  V30 11306 C 1096.41 1.61465 -3.21871 0
M  V30 11307 C 1096.26 0.680902 -4.44616 0
M  V30 11308 C 1097.58 2.57488 -3.56914 0
M  V30 11309 H 1094.7 0.307209 -0.669919 0
M  V30 11310 H 1097.34 0.113862 -1.89659 0
M  V30 11311 H 1095.49 2.24137 -3.17325 0
M  V30 11312 H 1097.16 0.0644094 -4.61255 0
M  V30 11313 H 1095.41 -0.00883629 -4.33799 0
M  V30 11314 H 1096.08 1.25286 -5.37594 0
M  V30 11315 H 1098.55 2.0493 -3.62136 0
M  V30 11316 H 1097.43 3.08101 -4.54274 0
M  V30 11317 H 1097.69 3.39321 -2.83397 0
M  V30 11318 N 1096.75 1.52266 0.40654 0
M  V30 11319 C 1098.16 1.58587 0.985241 0
M  V30 11320 C 1098.51 0.427955 1.91476 0
M  V30 11321 O 1097.64 -0.451341 2.11641 0
M  V30 11322 C 1098.23 2.87426 1.79365 0
M  V30 11323 C 1096.79 2.96217 2.32233 0
M  V30 11324 C 1095.94 2.53548 1.12288 0
M  V30 11325 H 1098.89 1.57598 0.186685 0
M  V30 11326 H 1098.91 2.72925 2.65127 0
M  V30 11327 H 1098.42 3.71682 1.11687 0
M  V30 11328 H 1096.52 2.1646 3.03275 0
M  V30 11329 H 1096.64 4.00511 2.62922 0
M  V30 11330 H 1095 2.07457 1.47763 0
M  V30 11331 H 1095.78 3.40181 0.461731 0
M  V30 11332 N 1098.23 -0.663929 1.42933 0
M  V30 11333 C 1099.48 -1.42111 1.43697 0
M  V30 11334 C 1099.8 -1.94913 0.0583858 0
M  V30 11335 O 1099.07 -1.73757 -0.904719 0
M  V30 11336 H 1097.65 -0.527391 0.529026 0
M  V30 11337 H 1100.31 -0.783766 1.78446 0
M  V30 11338 H 1099.41 -2.26877 2.1432 0
M  V30 11339 N 1099.71 -1.29285 -0.901281 0
M  V30 11340 C 1100.95 -1.16934 -1.64836 0
M  V30 11341 C 1101.28 0.279826 -1.92982 0
M  V30 11342 O 1100.55 1.19179 -1.55478 0
M  V30 11343 H 1099.13 -0.429768 -0.61099 0
M  V30 11344 H 1101.79 -1.62189 -1.08077 0
M  V30 11345 H 1100.88 -1.71821 -2.60545 0
M  V30 11346 N 1101.18 1.11143 -1.11736 0
M  V30 11347 C 1102.12 2.16467 -0.722299 0
M  V30 11348 C 1103.1 1.60118 0.283006 0
M  V30 11349 O 1104.28 1.87651 0.178696 0
M  V30 11350 C 1101.41 3.38632 -0.0679339 0
M  V30 11351 C 1100.45 4.13654 -1.03888 0
M  V30 11352 S 1101.29 4.70187 -2.5629 0
M  V30 11353 C 1102.44 5.95671 -1.92163 0
M  V30 11354 H 1102.67 2.49644 -1.61447 0
M  V30 11355 H 1100.21 1.22816 -0.935708 0
M  V30 11356 H 1102.17 4.09378 0.303253 0
M  V30 11357 H 1100.83 3.03709 0.80124 0
M  V30 11358 H 1100.02 5.01221 -0.528522 0
M  V30 11359 H 1099.62 3.48683 -1.35265 0
M  V30 11360 H 1101.91 6.65681 -1.25994 0
M  V30 11361 H 1102.86 6.51357 -2.77741 0
M  V30 11362 H 1103.26 5.47359 -1.3805 0
M  V30 11363 N 1102.66 0.908147 1.28804 0
M  V30 11364 C 1103.59 0.34957 2.26519 0
M  V30 11365 C 1104.61 -0.508845 1.54643 0
M  V30 11366 O 1105.8 -0.324633 1.75523 0
M  V30 11367 C 1102.9 -0.519461 3.34895 0
M  V30 11368 C 1102.07 0.315157 4.36263 0
M  V30 11369 C 1101.13 -0.488059 5.23932 0
M  V30 11370 O 1100.15 0.0974133 5.69117 0
M  V30 11371 N 1101.36 -1.79233 5.52137 0
M  V30 11372 H 1104.12 1.18945 2.75086 0
M  V30 11373 H 1101.68 0.77351 1.42227 0
M  V30 11374 H 1103.67 -1.0634 3.90479 0
M  V30 11375 H 1102.24 -1.26004 2.8608 0
M  V30 11376 H 1101.46 1.04049 3.8022 0
M  V30 11377 H 1102.75 0.886438 5.01019 0
M  V30 11378 H 1102.15 -2.2906 5.1725 0
M  V30 11379 H 1100.71 -2.28322 6.10502 0
M  V30 11380 N 1104.14 -1.42577 0.671525 0
M  V30 11381 C 1105.42 -1.95222 0.121529 0
M  V30 11382 C 1105.8 -1.61209 -1.36289 0
M  V30 11383 O 1105.15 -0.906561 -2.09747 0
M  V30 11384 C 1105.36 -3.46846 0.387189 0
M  V30 11385 C 1106.7 -4.23525 0.301938 0
M  V30 11386 O 1107.73 -3.54753 0.320755 0
M  V30 11387 O 1106.59 -5.45967 0.241317 0
M  V30 11388 H 1103.68 -0.826999 0.000968615 0
M  V30 11389 H 1106.23 -1.52422 0.746029 0
M  V30 11390 H 1105 -3.64795 1.41563 0
M  V30 11391 H 1104.62 -3.96686 -0.26948 0
M  V30 11392 N 1105.62 -0.414636 -1.52048 0
M  V30 11393 C 1106.86 0.151945 -2.02832 0
M  V30 11394 C 1107.22 1.42337 -1.29452 0
M  V30 11395 O 1106.51 1.87509 -0.39383 0
M  V30 11396 C 1106.71 0.448327 -3.54577 0
M  V30 11397 C 1106.54 -0.792827 -4.42656 0
M  V30 11398 C 1105.31 -1.31966 -4.87763 0
M  V30 11399 C 1107.5 -1.67252 -4.86345 0
M  V30 11400 N 1105.49 -2.51572 -5.59986 0
M  V30 11401 C 1106.86 -2.71479 -5.57404 0
M  V30 11402 C 1108.91 -1.68963 -4.68354 0
M  V30 11403 C 1107.61 -3.77334 -6.12382 0
M  V30 11404 C 1109.64 -2.7374 -5.24233 0
M  V30 11405 C 1109 -3.76687 -5.95219 0
M  V30 11406 H 1105.1 0.0170247 -0.781815 0
M  V30 11407 H 1107.69 -0.570219 -1.86163 0
M  V30 11408 H 1105.86 1.13953 -3.71307 0
M  V30 11409 H 1107.59 1.00427 -3.92041 0
M  V30 11410 H 1104.34 -0.876885 -4.65411 0
M  V30 11411 H 1104.77 -3.12161 -6.00737 0
M  V30 11412 H 1109.41 -0.907103 -4.12955 0
M  V30 11413 H 1107.13 -4.56439 -6.6685 0
M  V30 11414 H 1110.71 -2.75978 -5.12179 0
M  V30 11415 H 1109.59 -4.56431 -6.37684 0
M  V30 11416 N 1107.1 1.56929 -0.145233 0
M  V30 11417 C 1108.04 2.17958 0.812237 0
M  V30 11418 C 1109.04 1.13608 1.25657 0
M  V30 11419 O 1110.24 1.31861 1.22526 0
M  V30 11420 H 1106.62 0.697876 0.28013 0
M  V30 11421 H 1108.59 2.97146 0.273297 0
M  V30 11422 C 1107.34 2.81418 2.04203 0
M  V30 11423 H 1106.66 3.61427 1.70911 0
M  V30 11424 H 1108.1 3.27624 2.69144 0
M  V30 11425 C 1106.56 1.79835 2.84888 0
M  V30 11426 O 1107.09 1.26773 3.81171 0
M  V30 11427 N 1105.3 1.49179 2.49387 0
M  V30 11428 H 1104.84 1.9252 1.71154 0
M  V30 11429 H 1104.8 0.81458 3.03664 0
M  V30 11430 N 1108.58 -0.128553 1.57075 0
M  V30 11431 C 1109.81 -0.851214 1.8825 0
M  V30 11432 C 1110.21 -1.74402 0.733531 0
M  V30 11433 O 1109.56 -1.81149 -0.305108 0
M  V30 11434 C 1109.62 -1.74451 3.14336 0
M  V30 11435 C 1109.28 -1.02699 4.45311 0
M  V30 11436 C 1110.28 -0.37224 5.18566 0
M  V30 11437 C 1107.96 -1.01101 4.9202 0
M  V30 11438 C 1109.96 0.2889 6.36745 0
M  V30 11439 C 1107.65 -0.346063 6.10119 0
M  V30 11440 C 1108.64 0.302744 6.82329 0
M  V30 11441 O 1108.33 0.9571 7.98182 0
M  V30 11442 H 1108.06 -0.250529 0.627863 0
M  V30 11443 H 1110.62 -0.120418 2.05047 0
M  V30 11444 H 1108.85 -2.51671 2.93596 0
M  V30 11445 H 1110.54 -2.34075 3.31608 0
M  V30 11446 H 1111.3 -0.376271 4.83538 0
M  V30 11447 H 1107.18 -1.50543 4.35727 0
M  V30 11448 H 1110.73 0.795901 6.93045 0
M  V30 11449 H 1106.62 -0.339762 6.44605 0
M  V30 11450 H 1107.39 0.860616 8.13963 0
M  V30 11451 N 1110.05 -1.5248 -0.398459 0
M  V30 11452 C 1110.98 -1.79549 -1.49279 0
M  V30 11453 C 1111.96 -0.647004 -1.57315 0
M  V30 11454 O 1113.15 -0.893661 -1.72416 0
M  V30 11455 C 1110.28 -1.95582 -2.86993 0
M  V30 11456 C 1109.23 -3.1123 -2.93803 0
M  V30 11457 C 1108.56 -3.12501 -4.33874 0
M  V30 11458 C 1109.86 -4.50485 -2.64312 0
M  V30 11459 H 1111.55 -2.71187 -1.26877 0
M  V30 11460 H 1109.1 -1.30492 -0.608924 0
M  V30 11461 H 1111.05 -2.13102 -3.63546 0
M  V30 11462 H 1109.78 -1.00625 -3.10712 0
M  V30 11463 H 1108.44 -2.93477 -2.19697 0
M  V30 11464 H 1108.08 -2.15245 -4.54619 0
M  V30 11465 H 1107.78 -3.90183 -4.39353 0
M  V30 11466 H 1109.31 -3.32164 -5.12347 0
M  V30 11467 H 1110.72 -4.68387 -3.30585 0
M  V30 11468 H 1109.12 -5.30163 -2.81153 0
M  V30 11469 H 1110.19 -4.57848 -1.59696 0
M  V30 11470 N 1111.53 0.65634 -1.43283 0
M  V30 11471 C 1112.46 1.78184 -1.44164 0
M  V30 11472 C 1113.48 1.59249 -0.338177 0
M  V30 11473 O 1114.67 1.68027 -0.60242 0
M  V30 11474 C 1111.77 3.15566 -1.23577 0
M  V30 11475 C 1110.94 3.61187 -2.46704 0
M  V30 11476 C 1110 4.77361 -2.21388 0
M  V30 11477 O 1109.02 4.8696 -2.94718 0
M  V30 11478 N 1110.23 5.67351 -1.22855 0
M  V30 11479 H 1112.99 1.77907 -2.41183 0
M  V30 11480 H 1110.55 0.840076 -1.38399 0
M  V30 11481 H 1112.54 3.90968 -1.04529 0
M  V30 11482 H 1111.11 3.10633 -0.350155 0
M  V30 11483 H 1110.33 2.76263 -2.81198 0
M  V30 11484 H 1111.62 3.88413 -3.28652 0
M  V30 11485 H 1111.02 5.62265 -0.622417 0
M  V30 11486 H 1109.58 6.42487 -1.09791 0
M  V30 11487 N 1113.01 1.29761 0.894412 0
M  V30 11488 C 1114.24 1.2094 1.67872 0
M  V30 11489 C 1114.65 -0.229192 1.87404 0
M  V30 11490 O 1114.01 -1.15278 1.41482 0
M  V30 11491 C 1114.06 1.92424 3.06032 0
M  V30 11492 O 1113.78 3.30665 2.87388 0
M  V30 11493 C 1115.28 1.90144 4.0045 0
M  V30 11494 H 1112.5 0.418942 0.524145 0
M  V30 11495 H 1115.05 1.71226 1.11813 0
M  V30 11496 H 1113.2 1.4596 3.58851 0
M  V30 11497 H 1113.62 3.66741 3.74969 0
M  V30 11498 H 1115.09 2.44716 4.94791 0
M  V30 11499 H 1115.57 0.878175 4.30331 0
M  V30 11500 H 1116.17 2.36375 3.53563 0
M  V30 11501 N 1114.49 -1.10549 1.12324 0
M  V30 11502 C 1115.44 -2.18944 0.785248 0
M  V30 11503 C 1116.43 -1.67867 -0.227389 0
M  V30 11504 O 1117.64 -1.79796 -0.0857162 0
M  V30 11505 H 1114.01 -0.713976 0.236098 0
M  V30 11506 H 1115.98 -2.44692 1.70788 0
M  V30 11507 C 1114.73 -3.46765 0.25485 0
M  V30 11508 H 1114.05 -3.86428 1.02534 0
M  V30 11509 H 1115.49 -4.23962 0.0566526 0
M  V30 11510 C 1113.95 -3.21185 -1.01695 0
M  V30 11511 O 1114.48 -3.42745 -2.09497 0
M  V30 11512 N 1112.69 -2.7486 -0.943423 0
M  V30 11513 H 1112.24 -2.57515 -0.0660366 0
M  V30 11514 H 1112.19 -2.58122 -1.795 0
M  V30 11515 N 1115.97 -0.914965 -1.28321 0
M  V30 11516 C 1117.21 -0.555865 -1.96696 0
M  V30 11517 C 1117.57 0.8842 -1.70429 0
M  V30 11518 O 1118.77 1.35094 -2.32386 0
M  V30 11519 C 1117.04 -0.857942 -3.4695 0
M  V30 11520 S 1118.6 -0.605441 -4.34603 0
M  V30 11521 H 1115.42 -0.20564 -0.680612 0
M  V30 11522 H 1118.02 -1.18068 -1.55821 0
M  V30 11523 H 1116.72 -1.90394 -3.63563 0
M  V30 11524 H 1116.26 -0.221831 -3.92774 0
M  V30 11525 H 1118.27 0.542657 -4.93224 0
M  V30 11526 N 1117.44 1.42219 -0.679077 0
M  V30 11527 C 1118.69 2.01479 -0.203119 0
M  V30 11528 C 1119.02 1.5371 1.19178 0
M  V30 11529 O 1118.27 0.731832 1.81501 0
M  V30 11530 C 1118.57 3.56889 -0.191027 0
M  V30 11531 C 1118.24 4.24106 -1.53118 0
M  V30 11532 C 1116.9 4.42182 -1.89812 0
M  V30 11533 C 1119.25 4.61946 -2.41361 0
M  V30 11534 C 1116.58 4.95371 -3.14364 0
M  V30 11535 C 1118.93 5.16518 -3.65229 0
M  V30 11536 C 1117.6 5.32807 -4.02086 0
M  V30 11537 H 1116.87 0.737263 -0.0743264 0
M  V30 11538 H 1119.51 1.70346 -0.874908 0
M  V30 11539 H 1117.82 3.87715 0.564282 0
M  V30 11540 H 1119.52 4.00528 0.194511 0
M  V30 11541 H 1116.11 4.10399 -1.23575 0
M  V30 11542 H 1120.29 4.4765 -2.14297 0
M  V30 11543 H 1115.55 5.06167 -3.42935 0
M  V30 11544 H 1119.72 5.44782 -4.33804 0
M  V30 11545 H 1117.35 5.73785 -4.98673 0
M  V30 11546 N 1118.92 0.422693 1.51826 0
M  V30 11547 C 1119.83 -0.40261 2.31119 0
M  V30 11548 C 1120.85 -1.04117 1.39412 0
M  V30 11549 O 1122.02 -1.03973 1.72486 0
M  V30 11550 C 1119.09 -1.49699 3.12716 0
M  V30 11551 C 1118.15 -0.880088 4.20182 0
M  V30 11552 C 1117.38 -1.92232 4.97878 0
M  V30 11553 O 1117.61 -3.14246 4.76031 0
M  V30 11554 O 1116.54 -1.521 5.82365 0
M  V30 11555 H 1120.37 0.244308 3.02716 0
M  V30 11556 H 1117.95 0.185569 1.48243 0
M  V30 11557 H 1119.83 -2.13202 3.63487 0
M  V30 11558 H 1118.51 -2.12826 2.43899 0
M  V30 11559 H 1117.41 -0.207404 3.73525 0
M  V30 11560 H 1118.75 -0.292535 4.9133 0
M  V30 11561 N 1120.4 -1.5685 0.153553 0
M  V30 11562 C 1121.65 -1.96625 -0.49665 0
M  V30 11563 C 1121.98 -1.03877 -1.64083 0
M  V30 11564 O 1121.25 -0.0824112 -1.94325 0
M  V30 11565 C 1121.54 -3.46035 -0.996585 0
M  V30 11566 C 1121.39 -4.49561 0.146551 0
M  V30 11567 C 1122.71 -3.98104 -1.8762 0
M  V30 11568 H 1119.83 -0.714917 -0.179059 0
M  V30 11569 H 1122.47 -1.88527 0.236104 0
M  V30 11570 H 1120.62 -3.53066 -1.621 0
M  V30 11571 H 1122.29 -4.54604 0.783108 0
M  V30 11572 H 1120.53 -4.26271 0.804727 0
M  V30 11573 H 1121.21 -5.51456 -0.245078 0
M  V30 11574 H 1123.68 -3.93593 -1.34997 0
M  V30 11575 H 1122.56 -5.03098 -2.19508 0
M  V30 11576 H 1122.82 -3.40852 -2.81554 0
M  V30 11577 N 1121.88 0.120221 -1.57141 0
M  V30 11578 C 1123.11 0.842441 -1.88972 0
M  V30 11579 C 1123.52 1.73494 -0.744671 0
M  V30 11580 O 1122.88 1.80268 0.284557 0
M  V30 11581 C 1122.93 1.67688 -3.20254 0
M  V30 11582 O 1122.65 0.820319 -4.30351 0
M  V30 11583 C 1124.15 2.50436 -3.65782 0
M  V30 11584 H 1121.37 0.242241 -0.625748 0
M  V30 11585 H 1123.91 0.104978 -2.0423 0
M  V30 11586 H 1122.07 2.36712 -3.0667 0
M  V30 11587 H 1122.48 1.39575 -5.05588 0
M  V30 11588 H 1123.96 3.04518 -4.60405 0
M  V30 11589 H 1124.43 3.27737 -2.92378 0
M  V30 11590 H 1125.04 1.86657 -3.82151 0
M  V30 11591 N 1123.36 1.52689 0.390367 0
M  V30 11592 C 1124.61 1.6689 1.13272 0
M  V30 11593 C 1124.92 0.414433 1.91159 0
M  V30 11594 O 1126.12 0.436559 2.67967 0
M  V30 11595 C 1124.58 2.94929 2.06264 0
M  V30 11596 C 1124.19 4.27551 1.33805 0
M  V30 11597 C 1125.93 3.18497 2.80642 0
M  V30 11598 C 1123.84 5.46698 2.25554 0
M  V30 11599 H 1122.77 0.621749 0.426549 0
M  V30 11600 H 1125.42 1.79185 0.395615 0
M  V30 11601 H 1123.8 2.76378 2.83604 0
M  V30 11602 H 1124.98 4.56651 0.616997 0
M  V30 11603 H 1123.29 4.10234 0.713913 0
M  V30 11604 H 1125.89 4.04693 3.49467 0
M  V30 11605 H 1126.23 2.33511 3.44642 0
M  V30 11606 H 1126.76 3.37607 2.10395 0
M  V30 11607 H 1123.5 6.34088 1.66171 0
M  V30 11608 H 1123.02 5.21913 2.95579 0
M  V30 11609 H 1124.7 5.80519 2.85668 0
M  V30 11610 N 1124.83 -0.648732 1.43629 0
M  V30 11611 C 1125.74 -1.79046 1.51591 0
M  V30 11612 C 1126.76 -1.69276 0.402697 0
M  V30 11613 O 1127.94 -1.90366 0.657484 0
M  V30 11614 C 1125 -3.15347 1.44073 0
M  V30 11615 C 1124.06 -3.3688 2.66102 0
M  V30 11616 C 1123.3 -4.66679 2.58933 0
M  V30 11617 O 1123.52 -5.46328 1.63956 0
M  V30 11618 O 1122.45 -4.9003 3.49506 0
M  V30 11619 H 1126.28 -1.75283 2.48011 0
M  V30 11620 H 1123.86 -0.807774 1.2568 0
M  V30 11621 H 1125.75 -3.96633 1.42339 0
M  V30 11622 H 1124.42 -3.19691 0.50789 0
M  V30 11623 H 1123.33 -2.55341 2.73407 0
M  V30 11624 H 1124.66 -3.37386 3.58373 0
M  V30 11625 N 1126.31 -1.30234 -0.887518 0
M  V30 11626 C 1127.24 -1.18969 -2.00919 0
M  V30 11627 C 1128.22 -0.080952 -1.69907 0
M  V30 11628 O 1129.41 -0.262546 -1.92417 0
M  V30 11629 C 1126.54 -0.878094 -3.36016 0
M  V30 11630 C 1125.49 -1.94449 -3.81279 0
M  V30 11631 C 1124.82 -1.48594 -5.13638 0
M  V30 11632 C 1126.12 -3.35519 -4.00281 0
M  V30 11633 H 1127.81 -2.12808 -2.10602 0
M  V30 11634 H 1125.36 -1.02454 -1.01189 0
M  V30 11635 H 1127.31 -0.785954 -4.14006 0
M  V30 11636 H 1126.04 0.0959779 -3.26459 0
M  V30 11637 H 1124.69 -2.02622 -3.05516 0
M  V30 11638 H 1124.34 -0.500204 -5.00507 0
M  V30 11639 H 1124.04 -2.19921 -5.44893 0
M  V30 11640 H 1125.57 -1.40754 -5.94156 0
M  V30 11641 H 1126.98 -3.30119 -4.68716 0
M  V30 11642 H 1125.38 -4.0491 -4.42909 0
M  V30 11643 H 1126.45 -3.77597 -3.04218 0
M  V30 11644 N 1127.79 1.09952 -1.12909 0
M  V30 11645 C 1129.04 1.81657 -0.885729 0
M  V30 11646 C 1129.36 1.85863 0.589913 0
M  V30 11647 O 1128.63 1.34028 1.42875 0
M  V30 11648 H 1127.21 0.672743 -0.324694 0
M  V30 11649 H 1129.87 1.33013 -1.42456 0
M  V30 11650 H 1128.97 2.85018 -1.27167 0
M  V30 11651 N 1129.27 0.921757 1.27833 0
M  V30 11652 C 1130.51 0.566288 1.96399 0
M  V30 11653 C 1130.87 -0.875149 1.70895 0
M  V30 11654 O 1132.07 -1.3386 2.33099 0
M  V30 11655 C 1130.34 0.876329 3.4649 0
M  V30 11656 S 1131.9 0.628481 4.34276 0
M  V30 11657 H 1128.72 0.209246 0.679512 0
M  V30 11658 H 1131.32 1.18892 1.55193 0
M  V30 11659 H 1130.03 1.92319 3.62549 0
M  V30 11660 H 1129.56 0.242658 3.92651 0
M  V30 11661 H 1131.57 -0.516493 4.93505 0
M  V30 11662 N 1130.75 -1.41857 0.686609 0
M  V30 11663 C 1131.99 -2.01666 0.214118 0
M  V30 11664 C 1132.33 -1.5422 -1.18025 0
M  V30 11665 O 1131.6 -0.749482 -1.7948 0
M  V30 11666 C 1131.88 -3.59147 0.261841 0
M  V30 11667 C 1131.74 -4.16742 1.69251 0
M  V30 11668 C 1133.06 -4.38427 -0.383378 0
M  V30 11669 H 1130.17 -0.732724 0.0792785 0
M  V30 11670 H 1132.82 -1.68724 0.873633 0
M  V30 11671 H 1130.97 -3.87342 -0.29971 0
M  V30 11672 H 1132.64 -3.99456 2.30722 0
M  V30 11673 H 1130.88 -3.72124 2.2295 0
M  V30 11674 H 1131.55 -5.25894 1.6775 0
M  V30 11675 H 1134.03 -4.15992 0.0947701 0
M  V30 11676 H 1132.9 -5.4797 -0.319401 0
M  V30 11677 H 1133.17 -4.172 -1.46276 0
M  V30 11678 N 1132.22 -0.430739 -1.51599 0
M  V30 11679 C 1133.17 0.384024 -2.27583 0
M  V30 11680 C 1134.14 1.02254 -1.30895 0
M  V30 11681 O 1135.33 1.0427 -1.59789 0
M  V30 11682 C 1132.47 1.48291 -3.11615 0
M  V30 11683 C 1131.58 0.863187 -4.23288 0
M  V30 11684 C 1130.71 1.93657 -4.94642 0
M  V30 11685 C 1129.75 1.29493 -5.98246 0
M  V30 11686 N 1128.89 2.30939 -6.63032 0
M  V30 11687 H 1133.73 -0.270314 -2.96771 0
M  V30 11688 H 1131.27 -0.145148 -1.46382 0
M  V30 11689 H 1133.23 2.13124 -3.58656 0
M  V30 11690 H 1131.86 2.10697 -2.44554 0
M  V30 11691 H 1130.91 0.103326 -3.8026 0
M  V30 11692 H 1132.22 0.354676 -4.97537 0
M  V30 11693 H 1131.37 2.66167 -5.45197 0
M  V30 11694 H 1130.11 2.4788 -4.20008 0
M  V30 11695 H 1129.12 0.555262 -5.46989 0
M  V30 11696 H 1130.34 0.760122 -6.74833 0
M  V30 11697 H 1128.29 2.84254 -5.91216 0
M  V30 11698 H 1128.21 1.84961 -7.33025 0
M  V30 11699 H 1129.47 3.02953 -7.1822 0
M  V30 11700 N 1133.7 1.56767 -0.161869 0
M  V30 11701 C 1134.93 2.00673 0.491314 0
M  V30 11702 C 1135.34 1.04111 1.5798 0
M  V30 11703 O 1134.68 0.0324889 1.83671 0
M  V30 11704 C 1134.75 3.41011 1.13806 0
M  V30 11705 C 1134.41 4.56595 0.192384 0
M  V30 11706 C 1135.41 5.16591 -0.585671 0
M  V30 11707 C 1133.09 5.02218 0.0909594 0
M  V30 11708 C 1135.09 6.20631 -1.45245 0
M  V30 11709 C 1132.77 6.06109 -0.77941 0
M  V30 11710 C 1133.77 6.65187 -1.54971 0
M  V30 11711 O 1133.46 7.67065 -2.40555 0
M  V30 11712 H 1133.19 0.663174 0.131059 0
M  V30 11713 H 1135.74 2.03775 -0.257896 0
M  V30 11714 H 1133.97 3.34793 1.93521 0
M  V30 11715 H 1135.66 3.68931 1.69248 0
M  V30 11716 H 1136.43 4.82232 -0.517432 0
M  V30 11717 H 1132.31 4.55953 0.680292 0
M  V30 11718 H 1135.85 6.66671 -2.05415 0
M  V30 11719 H 1131.75 6.39894 -0.848887 0
M  V30 11720 H 1132.52 7.84348 -2.33966 0
M  V30 11721 N 1135.18 -0.111886 1.57202 0
M  V30 11722 C 1136.59 -0.668261 1.74331 0
M  V30 11723 C 1136.94 -1.79959 0.781609 0
M  V30 11724 O 1136.07 -2.16356 -0.043833 0
M  V30 11725 C 1136.66 -1.219 3.1611 0
M  V30 11726 C 1135.22 -1.7216 3.34721 0
M  V30 11727 C 1134.37 -0.624223 2.70183 0
M  V30 11728 H 1137.32 0.114081 1.58289 0
M  V30 11729 H 1137.34 -2.08858 3.18054 0
M  V30 11730 H 1136.85 -0.395381 3.86081 0
M  V30 11731 H 1134.95 -2.56976 2.69803 0
M  V30 11732 H 1135.07 -1.82615 4.42932 0
M  V30 11733 H 1133.43 -1.05958 2.31614 0
M  V30 11734 H 1134.21 0.188537 3.42782 0
M  V30 11735 N 1136.66 -1.52894 -0.382264 0
M  V30 11736 C 1137.59 -1.81122 -1.47367 0
M  V30 11737 C 1138.57 -0.663653 -1.56619 0
M  V30 11738 O 1139.75 -0.911898 -1.71459 0
M  V30 11739 C 1136.88 -1.98615 -2.84902 0
M  V30 11740 C 1135.84 -3.14328 -2.90485 0
M  V30 11741 C 1135.16 -3.17086 -4.30535 0
M  V30 11742 C 1136.46 -4.53263 -2.59519 0
M  V30 11743 H 1138.16 -2.72518 -1.23993 0
M  V30 11744 H 1135.7 -1.3113 -0.595049 0
M  V30 11745 H 1137.66 -2.16946 -3.61265 0
M  V30 11746 H 1136.38 -1.03915 -3.09628 0
M  V30 11747 H 1135.04 -2.95791 -2.16572 0
M  V30 11748 H 1134.69 -2.20055 -4.52311 0
M  V30 11749 H 1134.39 -3.94821 -4.3519 0
M  V30 11750 H 1135.91 -3.3758 -5.08795 0
M  V30 11751 H 1137.33 -4.71867 -3.25598 0
M  V30 11752 H 1135.72 -5.33115 -2.75514 0
M  V30 11753 H 1136.79 -4.59516 -1.54831 0
M  V30 11754 N 1138.14 0.641106 -1.43971 0
M  V30 11755 C 1139.05 1.78239 -1.52538 0
M  V30 11756 C 1140.06 1.6906 -0.411668 0
M  V30 11757 O 1141.24 1.90014 -0.66757 0
M  V30 11758 C 1138.3 3.14579 -1.45743 0
M  V30 11759 C 1137.37 3.35464 -2.67885 0
M  V30 11760 C 1136.6 4.65299 -2.61404 0
M  V30 11761 O 1136.82 5.45451 -1.66851 0
M  V30 11762 O 1135.76 4.8817 -3.521 0
M  V30 11763 H 1139.58 1.73965 -2.48937 0
M  V30 11764 H 1137.17 0.801098 -1.26106 0
M  V30 11765 H 1139.05 3.95873 -1.4444 0
M  V30 11766 H 1137.72 3.19417 -0.524837 0
M  V30 11767 H 1136.63 2.53888 -2.74758 0
M  V30 11768 H 1137.96 3.35481 -3.60157 0
M  V30 11769 N 1139.62 1.30703 0.880598 0
M  V30 11770 C 1140.56 1.17455 1.98678 0
M  V30 11771 C 1141.53 0.0629569 1.65981 0
M  V30 11772 O 1142.72 0.233926 1.89361 0
M  V30 11773 C 1139.86 0.876882 3.33774 0
M  V30 11774 C 1138.97 2.07078 3.79134 0
M  V30 11775 C 1138.11 1.71082 5.02896 0
M  V30 11776 C 1137.14 2.86942 5.40676 0
M  V30 11777 N 1136.28 2.51212 6.55619 0
M  V30 11778 H 1141.12 2.12086 2.09341 0
M  V30 11779 H 1138.66 1.05514 1.02495 0
M  V30 11780 H 1140.62 0.684899 4.1154 0
M  V30 11781 H 1139.25 -0.0325633 3.22784 0
M  V30 11782 H 1138.3 2.37388 2.97239 0
M  V30 11783 H 1139.61 2.9383 4.0307 0
M  V30 11784 H 1138.76 1.48284 5.883 0
M  V30 11785 H 1137.5 0.815064 4.80841 0
M  V30 11786 H 1136.51 3.10401 4.53797 0
M  V30 11787 H 1137.73 3.77211 5.64703 0
M  V30 11788 H 1135.68 1.64147 6.35131 0
M  V30 11789 H 1135.6 3.31495 6.79446 0
M  V30 11790 H 1136.86 2.31781 7.44243 0
M  V30 11791 N 1141.09 -1.09351 1.1349 0
M  V30 11792 C 1142 -2.19564 0.826366 0
M  V30 11793 C 1143.02 -1.72967 -0.189339 0
M  V30 11794 O 1144.2 -2.0139 -0.0202033 0
M  V30 11795 C 1141.26 -3.4542 0.297685 0
M  V30 11796 C 1140.32 -4.06694 1.37473 0
M  V30 11797 C 1139.55 -5.26542 0.871183 0
M  V30 11798 O 1139.78 -5.69657 -0.290958 0
M  V30 11799 O 1138.71 -5.78961 1.64584 0
M  V30 11800 H 1142.54 -2.4841 1.74718 0
M  V30 11801 H 1140.12 -1.18302 0.912414 0
M  V30 11802 H 1142 -4.21399 0.00829479 0
M  V30 11803 H 1140.68 -3.18175 -0.595536 0
M  V30 11804 H 1139.59 -3.32347 1.71745 0
M  V30 11805 H 1140.92 -4.38166 2.24212 0
M  V30 11806 N 1142.57 -0.928524 -1.27343 0
M  V30 11807 C 1143.5 -0.445627 -2.29208 0
M  V30 11808 C 1144.48 0.494508 -1.62753 0
M  V30 11809 O 1145.67 0.399082 -1.90055 0
M  V30 11810 C 1142.8 0.301684 -3.45987 0
M  V30 11811 C 1141.75 -0.550695 -4.24442 0
M  V30 11812 C 1141.08 0.325833 -5.33706 0
M  V30 11813 C 1142.38 -1.81559 -4.89728 0
M  V30 11814 H 1144.07 -1.29696 -2.69851 0
M  V30 11815 H 1141.62 -0.625085 -1.29725 0
M  V30 11816 H 1143.57 0.650455 -4.1635 0
M  V30 11817 H 1142.29 1.18705 -3.04264 0
M  V30 11818 H 1140.95 -0.882185 -3.55827 0
M  V30 11819 H 1140.6 1.21018 -4.88225 0
M  V30 11820 H 1140.3 -0.240994 -5.87106 0
M  V30 11821 H 1141.83 0.670156 -6.06911 0
M  V30 11822 H 1143.24 -1.53483 -5.52373 0
M  V30 11823 H 1141.64 -2.32598 -5.53189 0
M  V30 11824 H 1142.71 -2.53461 -4.13383 0
M  V30 11825 N 1144.05 1.41491 -0.694123 0
M  V30 11826 C 1145.46 1.84283 -0.299439 0
M  V30 11827 C 1145.81 1.58081 1.16211 0
M  V30 11828 O 1144.94 1.05051 1.89191 0
M  V30 11829 C 1145.53 3.34522 -0.536696 0
M  V30 11830 C 1144.09 3.7589 -0.195944 0
M  V30 11831 C 1143.24 2.64908 -0.819692 0
M  V30 11832 H 1146.19 1.31063 -0.894884 0
M  V30 11833 H 1146.21 3.79947 0.205062 0
M  V30 11834 H 1145.72 3.53561 -1.6005 0
M  V30 11835 H 1143.82 3.62452 0.863655 0
M  V30 11836 H 1143.94 4.74671 -0.649954 0
M  V30 11837 H 1142.3 2.53476 -0.249412 0
M  V30 11838 H 1143.08 2.86765 -1.88734 0
M  V30 11839 N 1145.53 0.438773 1.51369 0
M  V30 11840 C 1146.48 -0.386324 2.29369 0
M  V30 11841 C 1147.47 -1.0196 1.3528 0
M  V30 11842 O 1148.68 -0.9544 1.52615 0
M  V30 11843 H 1145.05 -0.143397 0.738201 0
M  V30 11844 H 1147.02 0.292372 2.96964 0
M  V30 11845 C 1145.77 -1.47426 3.14898 0
M  V30 11846 H 1145.09 -0.996335 3.87186 0
M  V30 11847 H 1146.53 -2.02481 3.72529 0
M  V30 11848 C 1144.99 -2.45831 2.30366 0
M  V30 11849 O 1145.52 -3.50398 1.96428 0
M  V30 11850 N 1143.73 -2.16754 1.93561 0
M  V30 11851 H 1143.28 -1.31748 2.2136 0
M  V30 11852 H 1143.23 -2.82836 1.373 0
M  V30 11853 N 1147.01 -1.56678 0.170181 0
M  V30 11854 C 1148.25 -1.96849 -0.475064 0
M  V30 11855 C 1148.58 -1.05611 -1.6333 0
M  V30 11856 O 1147.84 -0.0899708 -1.95493 0
M  V30 11857 C 1148.13 -3.43103 -1.00076 0
M  V30 11858 C 1147.8 -4.50881 0.0414538 0
M  V30 11859 C 1146.46 -4.80082 0.327894 0
M  V30 11860 C 1148.81 -5.15791 0.748936 0
M  V30 11861 C 1146.14 -5.71491 1.32722 0
M  V30 11862 C 1148.49 -6.08278 1.73724 0
M  V30 11863 C 1147.16 -6.35847 2.03114 0
M  V30 11864 H 1146.43 -0.72032 -0.173838 0
M  V30 11865 H 1149.08 -1.89701 0.261903 0
M  V30 11866 H 1147.38 -3.47197 -1.81553 0
M  V30 11867 H 1149.08 -3.71525 -1.50899 0
M  V30 11868 H 1145.67 -4.2817 -0.191976 0
M  V30 11869 H 1149.85 -4.93344 0.540852 0
M  V30 11870 H 1145.11 -5.91134 1.56112 0
M  V30 11871 H 1149.28 -6.57643 2.29082 0
M  V30 11872 H 1146.91 -7.06479 2.80698 0
M  V30 11873 N 1148.48 0.103547 -1.57259 0
M  V30 11874 C 1149.73 0.804704 -1.86805 0
M  V30 11875 C 1150.08 1.76756 -0.759942 0
M  V30 11876 O 1149.38 1.90106 0.238789 0
M  V30 11877 C 1149.57 1.57946 -3.20605 0
M  V30 11878 C 1149.4 0.693136 -4.44326 0
M  V30 11879 C 1148.17 0.342079 -5.04141 0
M  V30 11880 C 1150.37 0.00385713 -5.143 0
M  V30 11881 N 1148.35 -0.553293 -6.11402 0
M  V30 11882 C 1149.72 -0.74991 -6.15448 0
M  V30 11883 C 1151.78 -0.0709485 -4.97849 0
M  V30 11884 C 1150.48 -1.57148 -7.01924 0
M  V30 11885 C 1152.51 -0.879391 -5.84825 0
M  V30 11886 C 1151.87 -1.6213 -6.85488 0
M  V30 11887 H 1147.97 0.270899 -0.733579 0
M  V30 11888 H 1150.55 0.0676446 -1.94582 0
M  V30 11889 H 1148.72 2.28745 -3.13895 0
M  V30 11890 H 1150.45 2.22715 -3.37905 0
M  V30 11891 H 1147.21 0.687831 -4.68579 0
M  V30 11892 H 1147.63 -0.993284 -6.69674 0
M  V30 11893 H 1152.27 0.488299 -4.19971 0
M  V30 11894 H 1149.99 -2.14182 -7.79199 0
M  V30 11895 H 1153.58 -0.939834 -5.74159 0
M  V30 11896 H 1152.46 -2.2368 -7.51623 0
M  V30 11897 N 1149.96 1.53094 0.37415 0
M  V30 11898 C 1150.87 1.81872 1.48188 0
M  V30 11899 C 1151.89 0.706487 1.59012 0
M  V30 11900 O 1153.06 0.995648 1.75068 0
M  V30 11901 C 1150.13 1.99494 2.83554 0
M  V30 11902 C 1149.19 3.23402 2.82329 0
M  V30 11903 C 1148.42 3.40174 4.11239 0
M  V30 11904 O 1148.65 2.61425 5.06965 0
M  V30 11905 O 1147.58 4.33493 4.17573 0
M  V30 11906 H 1151.41 2.75965 1.26795 0
M  V30 11907 H 1148.99 1.38368 0.56343 0
M  V30 11908 H 1150.87 2.12705 3.63778 0
M  V30 11909 H 1149.55 1.08591 3.04942 0
M  V30 11910 H 1148.45 3.15621 2.00834 0
M  V30 11911 H 1149.79 4.14199 2.65894 0
M  V30 11912 N 1151.44 -0.633461 1.44309 0
M  V30 11913 C 1152.37 -1.75868 1.4698 0
M  V30 11914 C 1153.38 -1.58691 0.363469 0
M  V30 11915 O 1154.57 -1.67048 0.629075 0
M  V30 11916 C 1151.67 -3.1356 1.28582 0
M  V30 11917 C 1150.85 -3.57217 2.52418 0
M  V30 11918 C 1149.91 -4.73779 2.28954 0
M  V30 11919 O 1148.93 -4.8221 3.02428 0
M  V30 11920 N 1150.13 -5.65324 1.31866 0
M  V30 11921 H 1152.9 -1.74048 2.43983 0
M  V30 11922 H 1150.46 -0.817952 1.39718 0
M  V30 11923 H 1152.45 -3.89255 1.10736 0
M  V30 11924 H 1151.02 -3.10036 0.399529 0
M  V30 11925 H 1150.24 -2.71755 2.85557 0
M  V30 11926 H 1151.53 -3.83136 3.3479 0
M  V30 11927 H 1150.93 -5.61204 0.71179 0
M  V30 11928 H 1149.48 -6.40659 1.19998 0
M  V30 11929 N 1152.92 -1.31168 -0.873655 0
M  V30 11930 C 1153.87 -1.18432 -2.00191 0
M  V30 11931 C 1154.86 -0.0934873 -1.69142 0
M  V30 11932 O 1156.07 -0.255126 -1.78183 0
M  V30 11933 H 1152.44 -0.366594 -0.656592 0
M  V30 11934 H 1154.41 -2.13896 -2.08065 0
M  V30 11935 C 1153.16 -0.904668 -3.35725 0
M  V30 11936 H 1152.48 -1.73617 -3.60135 0
M  V30 11937 H 1153.92 -0.855715 -4.15275 0
M  V30 11938 C 1152.38 0.392554 -3.34605 0
M  V30 11939 O 1152.91 1.41052 -3.76121 0
M  V30 11940 N 1151.12 0.40777 -2.87725 0
M  V30 11941 H 1150.67 -0.42112 -2.54134 0
M  V30 11942 H 1150.62 1.27564 -2.87358 0
M  V30 11943 N 1154.4 1.08748 -1.14068 0
M  V30 11944 C 1155.81 1.33125 -0.880341 0
M  V30 11945 C 1156.01 1.9569 0.480396 0
M  V30 11946 O 1155.07 2.2077 1.22543 0
M  V30 11947 C 1156.38 2.23618 -2.01036 0
M  V30 11948 C 1157.93 2.37108 -2.04326 0
M  V30 11949 C 1158.4 3.30941 -3.1661 0
M  V30 11950 N 1159.9 3.38517 -3.16166 0
M  V30 11951 C 1160.63 4.11142 -3.99687 0
M  V30 11952 N 1160.13 4.86505 -4.93239 0
M  V30 11953 N 1161.92 4.06938 -3.87761 0
M  V30 11954 H 1154.07 0.665164 -2.01716 0
M  V30 11955 H 1156.33 0.355612 -0.878774 0
M  V30 11956 H 1156.04 1.84885 -2.99183 0
M  V30 11957 H 1155.91 3.24056 -1.93049 0
M  V30 11958 H 1158.3 2.75101 -1.06787 0
M  V30 11959 H 1158.38 1.36424 -2.16384 0
M  V30 11960 H 1158.03 2.93669 -4.14392 0
M  V30 11961 H 1157.96 4.31545 -3.01789 0
M  V30 11962 H 1160.45 2.84786 -2.48405 0
M  V30 11963 H 1160.76 5.39372 -5.53441 0
M  V30 11964 H 1159.1 4.8557 -4.9724 0
M  V30 11965 H 1162.3 3.47166 -3.13996 0
M  V30 11966 H 1162.47 4.63275 -4.53079 0
M  V30 11967 N 1155.87 0.935264 1.26849 0
M  V30 11968 C 1157.29 0.636661 1.46352 0
M  V30 11969 C 1157.49 -0.811823 1.84423 0
M  V30 11970 O 1156.55 -1.58902 1.9623 0
M  V30 11971 C 1157.86 1.59301 2.55036 0
M  V30 11972 C 1159.41 1.60207 2.68892 0
M  V30 11973 C 1159.88 2.54558 3.80742 0
M  V30 11974 N 1161.37 2.52809 3.88126 0
M  V30 11975 C 1162.11 3.225 4.74111 0
M  V30 11976 N 1161.6 4.01598 5.64527 0
M  V30 11977 N 1163.4 3.11481 4.67906 0
M  V30 11978 H 1155.55 1.8716 1.00423 0
M  V30 11979 H 1157.81 0.803968 0.502334 0
M  V30 11980 H 1157.52 2.62671 2.33874 0
M  V30 11981 H 1157.39 1.34052 3.52576 0
M  V30 11982 H 1159.78 0.575649 2.89431 0
M  V30 11983 H 1159.86 1.89508 1.71815 0
M  V30 11984 H 1159.5 3.57314 3.60956 0
M  V30 11985 H 1159.43 2.22549 4.77263 0
M  V30 11986 H 1161.92 1.9537 3.2348 0
M  V30 11987 H 1162.24 4.51742 6.27016 0
M  V30 11988 H 1160.58 4.057 5.64298 0
M  V30 11989 H 1163.77 2.49175 3.9627 0
M  V30 11990 H 1163.95 3.66064 5.34697 0
M  V30 11991 N 1157.35 -1.41121 0.701616 0
M  V30 11992 C 1158.58 -2.05973 0.242896 0
M  V30 11993 C 1159 -1.52474 -1.10151 0
M  V30 11994 O 1158.36 -0.654224 -1.69085 0
M  V30 11995 C 1158.41 -3.59943 0.217614 0
M  V30 11996 O 1157.51 -4.04454 -0.805629 0
M  V30 11997 H 1156.85 -0.653581 0.117166 0
M  V30 11998 H 1159.38 -1.80777 0.958175 0
M  V30 11999 H 1159.39 -4.07969 0.0505267 0
M  V30 12000 H 1158.07 -3.98249 1.19877 0
M  V30 12001 H 1156.65 -3.6792 -0.607404 0
M  V30 12002 N 1158.83 -0.446794 -1.51134 0
M  V30 12003 C 1159.76 0.350229 -2.30858 0
M  V30 12004 C 1160.74 1.0125 -1.36684 0
M  V30 12005 O 1161.93 1.01433 -1.65605 0
M  V30 12006 C 1159.06 1.4464 -3.15748 0
M  V30 12007 C 1158.01 0.907102 -4.18277 0
M  V30 12008 C 1157.34 2.09974 -4.91747 0
M  V30 12009 C 1158.64 -0.0649758 -5.2226 0
M  V30 12010 H 1160.33 -0.315105 -2.97737 0
M  V30 12011 H 1157.88 -0.152985 -1.43185 0
M  V30 12012 H 1159.83 2.01127 -3.70305 0
M  V30 12013 H 1158.55 2.14016 -2.46708 0
M  V30 12014 H 1157.21 0.364382 -3.64785 0
M  V30 12015 H 1156.86 2.77991 -4.19202 0
M  V30 12016 H 1156.56 1.74523 -5.61084 0
M  V30 12017 H 1158.08 2.66996 -5.49131 0
M  V30 12018 H 1159.5 0.4099 -5.71833 0
M  V30 12019 H 1157.9 -0.332529 -5.99178 0
M  V30 12020 H 1158.97 -0.998681 -4.74504 0
M  V30 12021 N 1160.31 1.56586 -0.178487 0
M  V30 12022 C 1161.56 1.96273 0.464745 0
M  V30 12023 C 1161.87 1.0675 1.63902 0
M  V30 12024 O 1163.08 1.36148 2.34896 0
M  V30 12025 C 1161.53 3.49021 0.878207 0
M  V30 12026 C 1161.14 4.4718 -0.270861 0
M  V30 12027 C 1162.88 3.97512 1.48946 0
M  V30 12028 C 1160.79 5.91176 0.162632 0
M  V30 12029 H 1159.72 0.732834 0.177398 0
M  V30 12030 H 1162.37 1.81534 -0.267861 0
M  V30 12031 H 1160.75 3.59203 1.667 0
M  V30 12032 H 1161.93 4.48718 -1.04826 0
M  V30 12033 H 1160.24 4.08788 -0.792529 0
M  V30 12034 H 1162.84 5.02556 1.82595 0
M  V30 12035 H 1163.18 3.40861 2.38997 0
M  V30 12036 H 1163.72 3.90376 0.76496 0
M  V30 12037 H 1160.46 6.51716 -0.703286 0
M  V30 12038 H 1159.98 5.9293 0.905243 0
M  V30 12039 H 1161.65 6.44174 0.604084 0
M  V30 12040 N 1161.79 -0.095206 1.57312 0
M  V30 12041 C 1162.72 -1.14173 1.98739 0
M  V30 12042 C 1163.73 -1.36323 0.889934 0
M  V30 12043 O 1164.92 -1.34977 1.16805 0
M  V30 12044 C 1162.02 -2.49729 2.29104 0
M  V30 12045 C 1161.19 -2.47857 3.60396 0
M  V30 12046 C 1160.25 -3.65341 3.78699 0
M  V30 12047 O 1159.28 -3.47837 4.50553 0
M  V30 12048 N 1160.48 -4.84818 3.19268 0
M  V30 12049 H 1163.25 -0.789126 2.89124 0
M  V30 12050 H 1160.81 -0.284187 1.59386 0
M  V30 12051 H 1162.8 -3.26925 2.38541 0
M  V30 12052 H 1161.37 -2.7708 1.44726 0
M  V30 12053 H 1160.59 -1.56208 3.61929 0
M  V30 12054 H 1161.88 -2.43685 4.46649 0
M  V30 12055 H 1161.27 -5.01943 2.60902 0
M  V30 12056 H 1159.83 -5.59607 3.34191 0
M  V30 12057 N 1163.26 -1.53291 -0.366026 0
M  V30 12058 C 1164.51 -1.69451 -1.10872 0
M  V30 12059 C 1164.84 -0.446078 -1.89316 0
M  V30 12060 O 1164.09 0.571962 -1.87155 0
M  V30 12061 C 1164.39 -2.89547 -2.09517 0
M  V30 12062 C 1164.06 -4.26073 -1.47556 0
M  V30 12063 C 1162.72 -4.63199 -1.30386 0
M  V30 12064 C 1165.07 -5.10977 -1.02724 0
M  V30 12065 C 1162.4 -5.82866 -0.669666 0
M  V30 12066 C 1164.75 -6.31289 -0.407052 0
M  V30 12067 C 1163.42 -6.67128 -0.222839 0
M  V30 12068 H 1162.69 -0.620066 -0.405708 0
M  V30 12069 H 1165.33 -1.87475 -0.390563 0
M  V30 12070 H 1163.64 -2.66034 -2.87634 0
M  V30 12071 H 1165.34 -2.99245 -2.66933 0
M  V30 12072 H 1161.93 -3.9684 -1.61914 0
M  V30 12073 H 1166.11 -4.82844 -1.14783 0
M  V30 12074 H 1161.37 -6.09224 -0.515351 0
M  V30 12075 H 1165.54 -6.96381 -0.0514661 0
M  V30 12076 H 1163.17 -7.59718 0.270647 0
M  V30 12077 N 1164.74 0.6258 -1.44643 0
M  V30 12078 C 1165.68 1.75056 -1.46392 0
M  V30 12079 C 1166.65 1.59376 -0.322179 0
M  V30 12080 O 1167.84 1.81187 -0.519956 0
M  V30 12081 C 1164.96 3.12689 -1.30166 0
M  V30 12082 C 1164.01 3.47005 -2.47972 0
M  V30 12083 S 1164.84 3.43885 -4.10491 0
M  V30 12084 C 1166 4.84129 -3.96698 0
M  V30 12085 H 1166.23 1.73306 -2.41562 0
M  V30 12086 H 1163.77 0.800879 -1.32005 0
M  V30 12087 H 1165.72 3.9211 -1.21492 0
M  V30 12088 H 1164.38 3.11972 -0.364982 0
M  V30 12089 H 1163.58 4.47171 -2.32496 0
M  V30 12090 H 1163.18 2.75059 -2.53414 0
M  V30 12091 H 1165.47 5.73488 -3.60718 0
M  V30 12092 H 1166.41 5.0466 -4.96713 0
M  V30 12093 H 1166.82 4.58954 -3.28666 0
M  V30 12094 N 1166.22 1.31629 0.866686 0
M  V30 12095 C 1167.17 1.19556 1.97421 0
M  V30 12096 C 1168.14 0.0805578 1.65905 0
M  V30 12097 O 1169.32 0.253997 1.89102 0
M  V30 12098 C 1166.46 0.912234 3.32825 0
M  V30 12099 C 1165.58 2.11088 3.76916 0
M  V30 12100 C 1164.71 1.76406 5.01053 0
M  V30 12101 C 1163.75 2.9266 5.37602 0
M  V30 12102 N 1162.89 2.58152 6.52918 0
M  V30 12103 H 1167.73 2.14294 2.0708 0
M  V30 12104 H 1165.26 1.06595 1.0137 0
M  V30 12105 H 1167.22 0.72851 4.1079 0
M  V30 12106 H 1165.85 0.00167404 3.228 0
M  V30 12107 H 1164.9 2.40527 2.94705 0
M  V30 12108 H 1166.22 2.98089 3.99931 0
M  V30 12109 H 1165.37 1.54515 5.86694 0
M  V30 12110 H 1164.11 0.866018 4.79949 0
M  V30 12111 H 1163.11 3.15196 4.50479 0
M  V30 12112 H 1164.34 3.83179 5.6067 0
M  V30 12113 H 1162.28 1.70874 6.33355 0
M  V30 12114 H 1162.2 3.38682 6.75892 0
M  V30 12115 H 1163.47 2.39662 7.41743 0
M  V30 12116 N 1167.7 -1.08142 1.14644 0
M  V30 12117 C 1168.63 -2.15022 0.793614 0
M  V30 12118 C 1169.64 -1.61679 -0.190729 0
M  V30 12119 O 1170.83 -1.78472 0.0313696 0
M  V30 12120 C 1167.93 -3.38532 0.157785 0
M  V30 12121 C 1167.11 -4.21252 1.17753 0
M  V30 12122 C 1166.17 -5.23158 0.564968 0
M  V30 12123 O 1165.19 -5.5578 1.22869 0
M  V30 12124 N 1166.39 -5.7677 -0.657022 0
M  V30 12125 H 1169.16 -2.45893 1.71338 0
M  V30 12126 H 1166.72 -1.23976 1.04122 0
M  V30 12127 H 1168.71 -4.03834 -0.264586 0
M  V30 12128 H 1167.28 -3.05441 -0.665168 0
M  V30 12129 H 1166.5 -3.51888 1.77675 0
M  V30 12130 H 1167.79 -4.73335 1.86632 0
M  V30 12131 H 1167.19 -5.52503 -1.21478 0
M  V30 12132 H 1165.74 -6.4374 -1.02186 0
M  V30 12133 N 1169.18 -0.941978 -1.26351 0
M  V30 12134 C 1170.42 -0.590845 -1.94002 0
M  V30 12135 C 1170.76 0.868004 -1.73722 0
M  V30 12136 O 1170.03 1.62111 -1.07472 0
M  V30 12137 C 1170.31 -0.934901 -3.47752 0
M  V30 12138 C 1170.17 -2.44855 -3.77314 0
M  V30 12139 C 1171.49 -0.450888 -4.37784 0
M  V30 12140 H 1168.61 -0.21613 -0.704597 0
M  V30 12141 H 1171.25 -1.17634 -1.49205 0
M  V30 12142 H 1169.4 -0.436648 -3.86038 0
M  V30 12143 H 1171.07 -3.01959 -3.48738 0
M  V30 12144 H 1169.31 -2.89169 -3.23363 0
M  V30 12145 H 1169.98 -2.6398 -4.84787 0
M  V30 12146 H 1172.46 -0.878107 -4.06729 0
M  V30 12147 H 1171.34 -0.720439 -5.44152 0
M  V30 12148 H 1171.6 0.649162 -4.37308 0
M  V30 12149 N 1170.66 1.40747 -0.709091 0
M  V30 12150 C 1171.61 2.27982 -0.0289269 0
M  V30 12151 C 1172.59 1.42917 0.739164 0
M  V30 12152 O 1173.78 1.66067 0.612433 0
M  V30 12153 C 1170.91 3.31378 0.896856 0
M  V30 12154 C 1170 4.23918 0.124296 0
M  V30 12155 N 1170.39 4.97925 -0.889043 0
M  V30 12156 C 1168.69 4.44562 0.357808 0
M  V30 12157 C 1169.39 5.65754 -1.35268 0
M  V30 12158 N 1168.36 5.3938 -0.676047 0
M  V30 12159 H 1172.16 2.82641 -0.805676 0
M  V30 12160 H 1169.68 1.5312 -0.541105 0
M  V30 12161 H 1171.68 3.92712 1.39939 0
M  V30 12162 H 1170.34 2.78279 1.67305 0
M  V30 12163 H 1171.35 5.02095 -1.2697 0
M  V30 12164 H 1168.02 4.02451 1.11084 0
M  V30 12165 H 1169.41 6.35058 -2.19432 0
M  V30 12166 N 1172.13 0.454803 1.50895 0
M  V30 12167 C 1173.07 -0.383826 2.25963 0
M  V30 12168 C 1174.08 -0.971263 1.30653 0
M  V30 12169 O 1175.27 -0.862434 1.56283 0
M  V30 12170 C 1172.37 -1.55069 3.01342 0
M  V30 12171 C 1171.54 -1.07899 4.23883 0
M  V30 12172 C 1170.6 -2.118 4.81692 0
M  V30 12173 O 1169.63 -1.70523 5.43057 0
M  V30 12174 N 1170.83 -3.44459 4.67256 0
M  V30 12175 H 1173.59 0.259646 2.98573 0
M  V30 12176 H 1171.15 0.284661 1.59378 0
M  V30 12177 H 1173.15 -2.24236 3.36898 0
M  V30 12178 H 1171.72 -2.09917 2.31633 0
M  V30 12179 H 1170.94 -0.213773 3.9362 0
M  V30 12180 H 1172.22 -0.741501 5.03368 0
M  V30 12181 H 1171.62 -3.80716 4.18416 0
M  V30 12182 H 1170.18 -4.0947 5.07127 0
M  V30 12183 N 1173.61 -1.56489 0.186789 0
M  V30 12184 C 1174.86 -1.96952 -0.453261 0
M  V30 12185 C 1175.18 -1.07451 -1.62725 0
M  V30 12186 O 1174.45 -0.144046 -1.9537 0
M  V30 12187 H 1173.03 -0.727295 -0.170445 0
M  V30 12188 H 1175.69 -1.92999 0.271584 0
M  V30 12189 H 1174.79 -3.01594 -0.802951 0
M  V30 12190 N 1175.09 0.086862 -1.5736 0
M  V30 12191 C 1176.34 0.790008 -1.8678 0
M  V30 12192 C 1176.67 1.77977 -0.777042 0
M  V30 12193 O 1175.94 1.93317 0.21419 0
M  V30 12194 C 1176.23 1.51143 -3.26845 0
M  V30 12195 C 1176.08 0.539106 -4.46558 0
M  V30 12196 C 1177.4 2.46003 -3.64926 0
M  V30 12197 H 1174.52 0.285741 -0.679354 0
M  V30 12198 H 1177.16 0.0534655 -1.89925 0
M  V30 12199 H 1175.31 2.13928 -3.24295 0
M  V30 12200 H 1176.98 -0.0823679 -4.61226 0
M  V30 12201 H 1175.22 -0.146842 -4.33551 0
M  V30 12202 H 1175.9 1.0812 -5.41308 0
M  V30 12203 H 1178.37 1.93306 -3.68473 0
M  V30 12204 H 1177.25 2.93493 -4.63846 0
M  V30 12205 H 1177.51 3.30133 -2.94049 0
M  V30 12206 N 1176.57 1.53483 0.357892 0
M  V30 12207 C 1177.98 1.43426 0.700073 0
M  V30 12208 C 1178.18 0.579493 1.92987 0
M  V30 12209 O 1177.24 0.0649086 2.52417 0
M  V30 12210 C 1178.55 2.86723 0.906099 0
M  V30 12211 C 1180.1 2.96405 1.00563 0
M  V30 12212 C 1180.58 4.4078 1.24407 0
M  V30 12213 N 1182.07 4.44243 1.3116 0
M  V30 12214 C 1182.8 5.53069 1.51333 0
M  V30 12215 N 1182.3 6.71928 1.68774 0
M  V30 12216 N 1184.09 5.40659 1.53765 0
M  V30 12217 H 1176.24 2.07559 -0.450894 0
M  V30 12218 H 1178.5 0.937649 -0.139711 0
M  V30 12219 H 1178.21 3.51622 0.0741579 0
M  V30 12220 H 1178.08 3.30827 1.81199 0
M  V30 12221 H 1180.47 2.31656 1.8281 0
M  V30 12222 H 1180.55 2.55684 0.0769512 0
M  V30 12223 H 1180.2 5.06105 0.426575 0
M  V30 12224 H 1180.13 4.7908 2.18608 0
M  V30 12225 H 1182.62 3.58587 1.19265 0
M  V30 12226 H 1182.93 7.50634 1.83762 0
M  V30 12227 H 1181.28 6.749 1.65937 0
M  V30 12228 H 1184.47 4.46764 1.39713 0
M  V30 12229 H 1184.64 6.25535 1.69146 0
M  V30 12230 N 1178.05 -0.61812 1.44973 0
M  V30 12231 C 1179.29 -1.37468 1.48145 0
M  V30 12232 C 1179.61 -1.94628 0.120366 0
M  V30 12233 O 1178.88 -1.76548 -0.848982 0
M  V30 12234 H 1177.46 -0.510293 0.545536 0
M  V30 12235 H 1180.13 -0.726598 1.8085 0
M  V30 12236 H 1179.22 -2.19944 2.2143 0
M  V30 12237 N 1179.52 -1.32087 -0.859693 0
M  V30 12238 C 1180.77 -1.2236 -1.61351 0
M  V30 12239 C 1181.1 0.215796 -1.93299 0
M  V30 12240 O 1180.35 1.16742 -1.57066 0
M  V30 12241 C 1180.65 -2.0234 -2.94607 0
M  V30 12242 C 1180.32 -3.51746 -2.82109 0
M  V30 12243 C 1178.98 -3.92482 -2.78408 0
M  V30 12244 C 1181.33 -4.46776 -2.68403 0
M  V30 12245 C 1178.66 -5.265 -2.58873 0
M  V30 12246 C 1181.01 -5.80931 -2.50404 0
M  V30 12247 C 1179.68 -6.20875 -2.45092 0
M  V30 12248 H 1178.95 -0.447748 -0.590426 0
M  V30 12249 H 1181.59 -1.63461 -0.997637 0
M  V30 12250 H 1179.9 -1.53952 -3.60286 0
M  V30 12251 H 1181.6 -1.92187 -3.51945 0
M  V30 12252 H 1178.19 -3.19389 -2.85812 0
M  V30 12253 H 1182.37 -4.16228 -2.70311 0
M  V30 12254 H 1177.63 -5.5651 -2.53192 0
M  V30 12255 H 1181.8 -6.54185 -2.38777 0
M  V30 12256 H 1179.43 -7.24662 -2.29714 0
M  V30 12257 N 1181 1.07532 -1.15215 0
M  V30 12258 C 1182.25 1.8036 -0.927263 0
M  V30 12259 C 1182.58 1.86414 0.544371 0
M  V30 12260 O 1181.86 1.34653 1.40353 0
M  V30 12261 C 1182.14 3.25512 -1.53992 0
M  V30 12262 C 1181.99 3.27614 -3.08203 0
M  V30 12263 C 1183.31 4.22731 -1.22418 0
M  V30 12264 H 1180.43 0.654775 -0.338289 0
M  V30 12265 H 1183.07 1.25842 -1.42351 0
M  V30 12266 H 1181.22 3.72068 -1.11791 0
M  V30 12267 H 1182.89 2.89315 -3.59297 0
M  V30 12268 H 1181.14 2.66627 -3.42188 0
M  V30 12269 H 1181.81 4.29956 -3.46182 0
M  V30 12270 H 1184.28 3.84557 -1.58919 0
M  V30 12271 H 1183.16 5.22589 -1.67906 0
M  V30 12272 H 1183.42 4.41875 -0.14091 0
M  V30 12273 N 1182.48 0.948665 1.2585 0
M  V30 12274 C 1183.41 0.482036 2.2847 0
M  V30 12275 C 1184.39 -0.468553 1.63519 0
M  V30 12276 O 1185.58 -0.368796 1.90666 0
M  V30 12277 C 1182.71 -0.246603 3.46423 0
M  V30 12278 C 1181.66 0.61815 4.23513 0
M  V30 12279 C 1180.99 -0.240884 5.34157 0
M  V30 12280 C 1182.29 1.89327 4.86778 0
M  V30 12281 H 1183.98 1.33973 2.67753 0
M  V30 12282 H 1181.53 0.645645 1.28715 0
M  V30 12283 H 1183.48 -0.584135 4.17332 0
M  V30 12284 H 1182.2 -1.13849 3.06114 0
M  V30 12285 H 1180.86 0.938682 3.54379 0
M  V30 12286 H 1180.51 -1.13235 4.90089 0
M  V30 12287 H 1180.21 0.334367 5.86648 0
M  V30 12288 H 1181.73 -0.573517 6.07901 0
M  V30 12289 H 1183.15 1.62252 5.49861 0
M  V30 12290 H 1181.55 2.41369 5.49419 0
M  V30 12291 H 1182.62 2.60006 4.09298 0
M  V30 12292 N 1183.96 -1.40369 0.716545 0
M  V30 12293 C 1185.24 -1.94737 0.183576 0
M  V30 12294 C 1185.62 -1.65464 -1.31092 0
M  V30 12295 O 1184.96 -0.972832 -2.06756 0
M  V30 12296 C 1185.17 -3.45438 0.497339 0
M  V30 12297 C 1186.52 -4.2235 0.436526 0
M  V30 12298 O 1187.55 -3.53553 0.433454 0
M  V30 12299 O 1186.4 -5.44923 0.41489 0
M  V30 12300 H 1183.5 -0.82655 0.0272785 0
M  V30 12301 H 1186.04 -1.49972 0.794143 0
M  V30 12302 H 1184.82 -3.60107 1.53097 0
M  V30 12303 H 1184.44 -3.97342 -0.143141 0
M  V30 12304 N 1185.44 -0.462799 -1.50652 0
M  V30 12305 C 1186.4 0.324264 -2.26895 0
M  V30 12306 C 1187.4 0.927687 -1.31342 0
M  V30 12307 O 1188.59 0.798159 -1.54839 0
M  V30 12308 C 1185.72 1.46113 -3.08 0
M  V30 12309 H 1186.91 -0.344266 -2.97917 0
M  V30 12310 H 1184.47 -0.216631 -1.54791 0
M  V30 12311 H 1185.2 2.16496 -2.41454 0
M  V30 12312 H 1184.99 1.03433 -3.78212 0
M  V30 12313 H 1186.48 2.01655 -3.65684 0
M  V30 12314 N 1186.91 1.56388 -0.195085 0
M  V30 12315 C 1188.14 2.01963 0.449289 0
M  V30 12316 C 1188.56 1.07522 1.55192 0
M  V30 12317 O 1187.91 0.0800915 1.82324 0
M  V30 12318 C 1187.97 3.47231 1.00561 0
M  V30 12319 O 1187.69 4.38068 -0.0530241 0
M  V30 12320 C 1189.19 4.08324 1.72587 0
M  V30 12321 H 1186.41 0.661452 0.112792 0
M  V30 12322 H 1188.95 2.02231 -0.303788 0
M  V30 12323 H 1187.11 3.47663 1.70907 0
M  V30 12324 H 1187.52 5.23256 0.361076 0
M  V30 12325 H 1188.99 5.11821 2.06744 0
M  V30 12326 H 1189.47 3.51782 2.62956 0
M  V30 12327 H 1190.08 4.11665 1.06826 0
M  V30 12328 N 1188.39 -0.0785156 1.57404 0
M  V30 12329 C 1189.67 -0.811557 1.77969 0
M  V30 12330 C 1190.05 -1.96123 0.780966 0
M  V30 12331 O 1189.4 -2.27731 -0.18726 0
M  V30 12332 C 1189.61 -1.29075 3.24254 0
M  V30 12333 C 1190.96 -1.72685 3.87898 0
M  V30 12334 O 1191.98 -1.38658 3.28104 0
M  V30 12335 O 1190.84 -2.3566 4.93079 0
M  V30 12336 H 1187.93 -0.388361 0.73014 0
M  V30 12337 H 1190.48 -0.0591118 1.69597 0
M  V30 12338 H 1189.25 -0.467813 3.88494 0
M  V30 12339 H 1188.87 -2.10472 3.37324 0
M  V30 12340 N 1189.87 -1.5367 -0.349747 0
M  V30 12341 C 1191.12 -1.70281 -1.08853 0
M  V30 12342 C 1191.44 -0.465438 -1.89364 0
M  V30 12343 O 1190.71 0.520615 -1.88856 0
M  V30 12344 H 1189.29 -0.627775 -0.404854 0
M  V30 12345 H 1191.95 -1.90906 -0.392523 0
M  V30 12346 H 1191.05 -2.57096 -1.76941 0
M  V30 12347 N 1191.35 0.610423 -1.45298 0
M  V30 12348 C 1192.76 0.930872 -1.29642 0
M  V30 12349 C 1192.96 1.99976 -0.247358 0
M  V30 12350 O 1192.02 2.49925 0.359674 0
M  V30 12351 C 1193.33 1.37449 -2.67448 0
M  V30 12352 C 1194.88 1.48885 -2.75322 0
M  V30 12353 C 1195.36 1.96624 -4.13646 0
M  V30 12354 N 1196.85 2.03862 -4.15926 0
M  V30 12355 C 1197.58 2.42015 -5.19823 0
M  V30 12356 N 1197.08 2.79157 -6.34069 0
M  V30 12357 N 1198.87 2.42329 -5.07181 0
M  V30 12358 H 1191.02 -0.0961259 -2.12182 0
M  V30 12359 H 1193.29 0.0196483 -0.947796 0
M  V30 12360 H 1192.99 0.663276 -3.45389 0
M  V30 12361 H 1192.87 2.34155 -2.95721 0
M  V30 12362 H 1195.25 2.19098 -1.97686 0
M  V30 12363 H 1195.33 0.505006 -2.50765 0
M  V30 12364 H 1194.98 1.26998 -4.91766 0
M  V30 12365 H 1194.91 2.95917 -4.35592 0
M  V30 12366 H 1197.4 1.77759 -3.33482 0
M  V30 12367 H 1197.71 3.07143 -7.09142 0
M  V30 12368 H 1196.06 2.7686 -6.37474 0
M  V30 12369 H 1199.25 2.12717 -4.16976 0
M  V30 12370 H 1199.42 2.71738 -5.88271 0
M  V30 12371 N 1192.83 1.32541 0.852676 0
M  V30 12372 C 1194.07 1.22971 1.60383 0
M  V30 12373 C 1194.4 -0.208009 1.93887 0
M  V30 12374 O 1193.67 -1.13326 1.59794 0
M  V30 12375 H 1192.25 0.452149 0.594618 0
M  V30 12376 H 1194.91 1.66089 1.01983 0
M  V30 12377 H 1194 1.81373 2.53989 0
M  V30 12378 N 1194.3 -1.0692 1.15784 0
M  V30 12379 C 1195.55 -1.78983 0.929944 0
M  V30 12380 C 1195.87 -1.87884 -0.543969 0
M  V30 12381 O 1197.07 -2.56513 -0.889578 0
M  V30 12382 C 1195.53 -3.21657 1.61446 0
M  V30 12383 C 1195.14 -3.20943 3.12569 0
M  V30 12384 C 1196.88 -3.98299 1.46828 0
M  V30 12385 C 1194.79 -4.58298 3.73788 0
M  V30 12386 H 1193.72 -0.670809 0.344284 0
M  V30 12387 H 1196.37 -1.19975 1.38846 0
M  V30 12388 H 1194.75 -3.80885 1.08364 0
M  V30 12389 H 1195.92 -2.71334 3.72444 0
M  V30 12390 H 1194.24 -2.57799 3.26999 0
M  V30 12391 H 1196.84 -4.99822 1.89952 0
M  V30 12392 H 1197.18 -4.14213 0.416358 0
M  V30 12393 H 1197.71 -3.45577 1.97031 0
M  V30 12394 H 1194.45 -4.47588 4.789 0
M  V30 12395 H 1193.97 -5.08126 3.18698 0
M  V30 12396 H 1195.65 -5.27262 3.74972 0
M  V30 12397 N 1195.78 -0.955326 -1.25345 0
M  V30 12398 C 1196.71 -0.494145 -2.28211 0
M  V30 12399 C 1197.69 0.459875 -1.63766 0
M  V30 12400 O 1198.88 0.358679 -1.90859 0
M  V30 12401 C 1196.01 0.228228 -3.46549 0
M  V30 12402 C 1194.96 -0.640601 -4.23179 0
M  V30 12403 C 1194.29 0.212553 -5.34277 0
M  V30 12404 C 1195.59 -1.91906 -4.85767 0
M  V30 12405 H 1197.28 -1.35391 -2.67039 0
M  V30 12406 H 1194.83 -0.652462 -1.2837 0
M  V30 12407 H 1196.78 0.561995 -4.17636 0
M  V30 12408 H 1195.51 1.12224 -3.06714 0
M  V30 12409 H 1194.16 -0.957462 -3.53876 0
M  V30 12410 H 1193.81 1.10634 -4.90682 0
M  V30 12411 H 1193.51 -0.365473 -5.86462 0
M  V30 12412 H 1195.04 0.541271 -6.08196 0
M  V30 12413 H 1196.45 -1.65165 -5.48993 0
M  V30 12414 H 1194.85 -2.44279 -5.48131 0
M  V30 12415 H 1195.92 -2.62173 -4.07914 0
M  V30 12416 N 1197.26 1.39987 -0.723979 0
M  V30 12417 C 1198.21 2.32507 -0.0658033 0
M  V30 12418 C 1199.2 1.52484 0.737908 0
M  V30 12419 O 1200.41 1.68225 0.640332 0
M  V30 12420 H 1196.78 0.751996 -0.00247717 0
M  V30 12421 H 1198.76 2.85657 -0.862696 0
M  V30 12422 C 1197.5 3.37509 0.835628 0
M  V30 12423 H 1196.83 3.99157 0.226589 0
M  V30 12424 H 1198.27 4.04722 1.26396 0
M  V30 12425 C 1196.73 2.73665 1.96492 0
M  V30 12426 O 1197.26 2.60649 3.05655 0
M  V30 12427 N 1195.46 2.3192 1.75104 0
M  V30 12428 H 1195.01 2.42707 0.863204 0
M  V30 12429 H 1194.97 1.89542 2.50841 0
M  V30 12430 N 1198.74 0.470782 1.50404 0
M  V30 12431 C 1199.7 -0.312227 2.27063 0
M  V30 12432 C 1200.7 -0.920709 1.31832 0
M  V30 12433 O 1201.89 -0.789937 1.5526 0
M  V30 12434 C 1199.02 -1.44477 3.0877 0
M  V30 12435 H 1200.22 0.36006 2.97731 0
M  V30 12436 H 1197.77 0.224837 1.54674 0
M  V30 12437 H 1198.51 -2.15212 2.42599 0
M  V30 12438 H 1198.29 -1.01426 3.78755 0
M  V30 12439 H 1199.78 -1.99713 3.66749 0
M  V30 12440 N 1200.22 -1.56282 0.203376 0
M  V30 12441 C 1201.45 -2.02198 -0.438572 0
M  V30 12442 C 1201.86 -1.08343 -1.54619 0
M  V30 12443 O 1201.22 -0.0897594 -1.82279 0
M  V30 12444 C 1201.27 -3.4776 -0.987184 0
M  V30 12445 O 1200.99 -4.38034 0.0762552 0
M  V30 12446 C 1202.49 -4.09234 -1.70419 0
M  V30 12447 H 1199.71 -0.662041 -0.109282 0
M  V30 12448 H 1202.25 -2.02067 0.314509 0
M  V30 12449 H 1200.41 -3.48564 -1.69061 0
M  V30 12450 H 1200.82 -5.2344 -0.333322 0
M  V30 12451 H 1202.3 -5.1291 -2.04027 0
M  V30 12452 H 1202.77 -3.53172 -2.61087 0
M  V30 12453 H 1203.38 -4.12226 -1.04641 0
M  V30 12454 N 1201.7 0.070167 -1.57444 0
M  V30 12455 C 1202.94 0.767842 -1.86513 0
M  V30 12456 C 1203.26 1.78659 -0.796257 0
M  V30 12457 O 1204.46 2.53395 -0.974845 0
M  V30 12458 C 1202.92 1.41654 -3.30851 0
M  V30 12459 C 1202.53 0.436273 -4.45871 0
M  V30 12460 C 1204.27 2.09649 -3.69117 0
M  V30 12461 C 1202.18 1.09098 -5.8125 0
M  V30 12462 H 1201.11 0.290519 -0.695784 0
M  V30 12463 H 1203.76 0.0211697 -1.83488 0
M  V30 12464 H 1202.14 2.21153 -3.28493 0
M  V30 12465 H 1203.32 -0.329022 -4.59624 0
M  V30 12466 H 1201.63 -0.139314 -4.16167 0
M  V30 12467 H 1204.23 2.59411 -4.67558 0
M  V30 12468 H 1204.57 2.89663 -2.99 0
M  V30 12469 H 1205.1 1.36979 -3.73472 0
M  V30 12470 H 1201.84 0.331128 -6.54663 0
M  V30 12471 H 1201.36 1.8271 -5.71294 0
M  V30 12472 H 1203.04 1.61034 -6.2664 0
M  V30 12473 N 1203.17 1.53854 0.341593 0
M  V30 12474 C 1204.4 1.75447 1.10604 0
M  V30 12475 C 1204.82 0.493225 1.81518 0
M  V30 12476 O 1204.18 -0.554253 1.7262 0
M  V30 12477 C 1204.23 2.93593 2.09369 0
M  V30 12478 O 1203.33 2.63878 3.16926 0
M  V30 12479 H 1202.67 0.581923 0.319783 0
M  V30 12480 H 1205.2 2.00822 0.391388 0
M  V30 12481 H 1205.21 3.20437 2.52556 0
M  V30 12482 H 1203.89 3.85067 1.57151 0
M  V30 12483 H 1202.47 2.47929 2.78542 0
M  V30 12484 N 1204.65 -0.602709 1.4562 0
M  V30 12485 C 1205.9 -1.36359 1.50113 0
M  V30 12486 C 1206.23 -1.93663 0.144297 0
M  V30 12487 O 1205.51 -1.75337 -0.841851 0
M  V30 12488 C 1205.79 -2.50788 2.58413 0
M  V30 12489 C 1205.64 -1.98649 4.03557 0
M  V30 12490 C 1206.96 -3.52905 2.62957 0
M  V30 12491 H 1204.08 -0.494455 0.54652 0
M  V30 12492 H 1206.72 -0.678957 1.77455 0
M  V30 12493 H 1204.87 -3.09191 2.3523 0
M  V30 12494 H 1206.54 -1.44857 4.37966 0
M  V30 12495 H 1204.79 -1.29615 4.13984 0
M  V30 12496 H 1205.46 -2.81159 4.7503 0
M  V30 12497 H 1207.93 -3.0435 2.83743 0
M  V30 12498 H 1206.81 -4.30454 3.40589 0
M  V30 12499 H 1207.07 -4.0884 1.68233 0
M  V30 12500 N 1206.13 -1.32992 -0.845635 0
M  V30 12501 C 1207.09 -1.22607 -1.9365 0
M  V30 12502 C 1208.09 -0.146812 -1.60128 0
M  V30 12503 O 1209.28 -0.397863 -1.69596 0
M  V30 12504 C 1206.41 -0.887677 -3.2914 0
M  V30 12505 H 1207.61 -2.19563 -2.04285 0
M  V30 12506 H 1205.16 -1.16952 -1.03691 0
M  V30 12507 H 1205.9 0.0796777 -3.24202 0
M  V30 12508 H 1205.68 -1.66808 -3.54849 0
M  V30 12509 H 1207.17 -0.83958 -4.09073 0
M  V30 12510 N 1207.61 1.06304 -1.1635 0
M  V30 12511 C 1208.52 2.17296 -0.884289 0
M  V30 12512 C 1209.53 1.73408 0.143414 0
M  V30 12513 O 1210.71 2.01373 -0.0331987 0
M  V30 12514 C 1207.77 3.44509 -0.389163 0
M  V30 12515 C 1206.84 4.02906 -1.48208 0
M  V30 12516 C 1206.07 5.24047 -1.01048 0
M  V30 12517 O 1206.29 5.70229 0.139821 0
M  V30 12518 O 1205.23 5.74394 -1.79876 0
M  V30 12519 H 1209.05 2.4369 -1.81243 0
M  V30 12520 H 1206.64 1.15841 -0.943459 0
M  V30 12521 H 1208.52 4.21229 -0.120018 0
M  V30 12522 H 1207.19 3.19642 0.510968 0
M  V30 12523 H 1206.1 3.27677 -1.80496 0
M  V30 12524 H 1207.43 4.32068 -2.35751 0
M  V30 12525 N 1209.09 0.96196 1.24836 0
M  V30 12526 C 1210.33 0.616342 1.92052 0
M  V30 12527 C 1210.65 -0.851601 1.76088 0
M  V30 12528 O 1211.85 -1.3075 2.37943 0
M  V30 12529 C 1210.31 1.05168 3.44191 0
M  V30 12530 C 1209.92 2.54268 3.68852 0
M  V30 12531 C 1211.66 0.778938 4.17292 0
M  V30 12532 C 1209.57 2.91564 5.14533 0
M  V30 12533 H 1208.5 0.22681 0.719078 0
M  V30 12534 H 1211.15 1.1674 1.41577 0
M  V30 12535 H 1209.53 0.428979 3.9367 0
M  V30 12536 H 1210.71 3.21619 3.29997 0
M  V30 12537 H 1209.02 2.79091 3.09026 0
M  V30 12538 H 1211.62 1.03366 5.24614 0
M  V30 12539 H 1211.96 -0.284772 4.15325 0
M  V30 12540 H 1212.49 1.36233 3.73745 0
M  V30 12541 H 1209.23 3.96982 5.21618 0
M  V30 12542 H 1208.75 2.28892 5.54408 0
M  V30 12543 H 1210.43 2.81155 5.82718 0
M  V30 12544 N 1210.56 -1.39601 0.731392 0
M  V30 12545 C 1211.51 -2.32469 0.0781328 0
M  V30 12546 C 1212.51 -1.52873 -0.729811 0
M  V30 12547 O 1213.71 -1.68563 -0.631402 0
M  V30 12548 H 1210.09 -0.751972 0.00646515 0
M  V30 12549 H 1212.06 -2.85196 0.877833 0
M  V30 12550 C 1210.81 -3.37948 -0.817717 0
M  V30 12551 H 1210.13 -3.99272 -0.205417 0
M  V30 12552 H 1211.57 -4.05387 -1.24248 0
M  V30 12553 C 1210.03 -2.74703 -1.95038 0
M  V30 12554 O 1210.56 -2.62266 -3.04269 0
M  V30 12555 N 1208.76 -2.32845 -1.73872 0
M  V30 12556 H 1208.31 -2.43161 -0.850321 0
M  V30 12557 H 1208.27 -1.90869 -2.49833 0
M  V30 12558 N 1212.04 -0.478751 -1.50152 0
M  V30 12559 C 1212.99 0.330224 -2.25596 0
M  V30 12560 C 1213.98 0.954871 -1.29503 0
M  V30 12561 O 1215.17 0.866153 -1.54359 0
M  V30 12562 C 1212.3 1.40719 -3.13134 0
M  V30 12563 C 1211.38 0.789896 -4.16679 0
M  V30 12564 N 1211.77 -0.094345 -5.05712 0
M  V30 12565 C 1210.07 1.05299 -4.33391 0
M  V30 12566 C 1210.77 -0.445458 -5.79992 0
M  V30 12567 N 1209.75 0.181237 -5.43298 0
M  V30 12568 H 1213.55 -0.350824 -2.91799 0
M  V30 12569 H 1211.07 -0.293386 -1.59728 0
M  V30 12570 H 1213.06 1.99999 -3.65795 0
M  V30 12571 H 1211.72 2.09015 -2.48481 0
M  V30 12572 H 1212.73 -0.463695 -5.1582 0
M  V30 12573 H 1209.41 1.73036 -3.79954 0
M  V30 12574 H 1210.8 -1.16754 -6.61678 0
M  V30 12575 N 1213.52 1.56172 -0.211661 0
M  V30 12576 C 1214.93 1.84307 0.297982 0
M  V30 12577 C 1215.28 1.1328 1.60194 0
M  V30 12578 O 1214.41 0.399137 2.12687 0
M  V30 12579 C 1215 3.34348 0.547428 0
M  V30 12580 C 1213.56 3.62835 1.0014 0
M  V30 12581 C 1212.71 2.77237 0.0590326 0
M  V30 12582 H 1215.66 1.5262 -0.435083 0
M  V30 12583 H 1215.68 3.54018 1.39469 0
M  V30 12584 H 1215.19 3.86015 -0.401778 0
M  V30 12585 H 1213.29 3.16616 1.96431 0
M  V30 12586 H 1213.41 4.70899 0.882653 0
M  V30 12587 H 1211.77 2.48377 0.564005 0
M  V30 12588 H 1212.55 3.31699 -0.884913 0
M  V30 12589 N 1215 -0.0618163 1.57479 0
M  V30 12590 C 1216.24 -0.760193 1.88013 0
M  V30 12591 C 1216.58 -1.76718 0.805258 0
M  V30 12592 O 1215.85 -1.93633 -0.183408 0
M  V30 12593 C 1216.14 -1.45924 3.29208 0
M  V30 12594 C 1215.99 -0.467994 4.47359 0
M  V30 12595 C 1217.31 -2.40166 3.68793 0
M  V30 12596 H 1214.43 -0.274896 0.683814 0
M  V30 12597 H 1217.07 -0.0232433 1.89986 0
M  V30 12598 H 1215.22 -2.08741 3.27657 0
M  V30 12599 H 1216.89 0.155735 4.61037 0
M  V30 12600 H 1215.13 0.215797 4.33263 0
M  V30 12601 H 1215.8 -0.994942 5.42959 0
M  V30 12602 H 1218.28 -1.87419 3.71501 0
M  V30 12603 H 1217.16 -2.86076 4.68457 0
M  V30 12604 H 1217.42 -3.25413 2.99264 0
M  V30 12605 N 1216.48 -1.54033 -0.333429 0
M  V30 12606 C 1217.7 -1.75716 -1.09232 0
M  V30 12607 C 1218.12 -0.501076 -1.82029 0
M  V30 12608 O 1217.48 0.527772 -1.74702 0
M  V30 12609 C 1217.53 -2.9439 -2.09802 0
M  V30 12610 O 1217.25 -4.15141 -1.39963 0
M  V30 12611 C 1218.75 -3.28206 -2.97987 0
M  V30 12612 H 1215.97 -0.586859 -0.325326 0
M  V30 12613 H 1218.51 -2.0089 -0.382555 0
M  V30 12614 H 1216.67 -2.71518 -2.76327 0
M  V30 12615 H 1217.08 -4.81826 -2.0723 0
M  V30 12616 H 1218.56 -4.14568 -3.64469 0
M  V30 12617 H 1219.03 -2.44944 -3.64553 0
M  V30 12618 H 1219.64 -3.5312 -2.37036 0
M  V30 12619 N 1217.95 0.594978 -1.45938 0
M  V30 12620 C 1219.18 1.37994 -1.5416 0
M  V30 12621 C 1219.6 1.87954 -0.17848 0
M  V30 12622 O 1218.95 1.62932 0.822161 0
M  V30 12623 C 1219.01 2.57586 -2.53637 0
M  V30 12624 O 1218.73 2.09698 -3.84653 0
M  V30 12625 C 1220.23 3.50292 -2.71681 0
M  V30 12626 H 1217.45 0.421983 -0.5217 0
M  V30 12627 H 1219.99 0.724459 -1.91238 0
M  V30 12628 H 1218.15 3.19149 -2.19597 0
M  V30 12629 H 1218.56 2.87492 -4.3869 0
M  V30 12630 H 1220.03 4.30717 -3.45234 0
M  V30 12631 H 1220.51 4.01444 -1.78156 0
M  V30 12632 H 1221.12 2.94573 -3.06768 0
M  V30 12633 N 1219.43 1.33438 0.838571 0
M  V30 12634 C 1220.66 1.27766 1.62356 0
M  V30 12635 C 1221.07 -0.15359 1.88576 0
M  V30 12636 O 1220.41 -1.10626 1.46654 0
M  V30 12637 C 1220.48 1.98435 2.99773 0
M  V30 12638 C 1220.14 3.47741 2.96522 0
M  V30 12639 C 1221.14 4.42938 2.72217 0
M  V30 12640 C 1218.82 3.89922 3.16648 0
M  V30 12641 C 1220.82 5.7829 2.68066 0
M  V30 12642 C 1218.5 5.25378 3.12123 0
M  V30 12643 C 1219.5 6.19374 2.87863 0
M  V30 12644 O 1219.19 7.52349 2.83242 0
M  V30 12645 H 1218.92 0.441527 0.511889 0
M  V30 12646 H 1221.47 1.76377 1.05262 0
M  V30 12647 H 1219.7 1.44415 3.58721 0
M  V30 12648 H 1221.39 1.86258 3.60642 0
M  V30 12649 H 1222.16 4.11673 2.56418 0
M  V30 12650 H 1218.04 3.17169 3.34552 0
M  V30 12651 H 1221.58 6.51629 2.4905 0
M  V30 12652 H 1217.48 5.56267 3.27471 0
M  V30 12653 H 1218.25 7.61901 2.99082 0
M  V30 12654 N 1220.91 -1.05686 1.16912 0
M  V30 12655 C 1221.86 -2.13312 0.88129 0
M  V30 12656 C 1222.83 -1.65199 -0.172783 0
M  V30 12657 O 1224.01 -1.90765 -0.0366542 0
M  V30 12658 C 1221.15 -3.42829 0.395264 0
M  V30 12659 C 1220.27 -4.04643 1.51288 0
M  V30 12660 C 1219.4 -5.22059 0.981238 0
M  V30 12661 C 1218.44 -5.75869 2.07464 0
M  V30 12662 N 1217.58 -6.84592 1.55813 0
M  V30 12663 H 1222.42 -2.37271 1.80295 0
M  V30 12664 H 1219.95 -1.16407 0.899322 0
M  V30 12665 H 1221.91 -4.17092 0.0950633 0
M  V30 12666 H 1220.54 -3.19068 -0.489445 0
M  V30 12667 H 1219.59 -3.27867 1.92891 0
M  V30 12668 H 1220.91 -4.40626 2.33774 0
M  V30 12669 H 1220.06 -6.03372 0.634586 0
M  V30 12670 H 1218.8 -4.87538 0.125754 0
M  V30 12671 H 1217.8 -4.93188 2.42992 0
M  V30 12672 H 1219.03 -6.12439 2.93419 0
M  V30 12673 H 1216.97 -6.51978 0.725283 0
M  V30 12674 H 1216.89 -7.19551 2.31911 0
M  V30 12675 H 1218.16 -7.6957 1.24025 0
M  V30 12676 N 1222.39 -0.968567 -1.24324 0
M  V30 12677 C 1223.62 -0.648568 -1.96472 0
M  V30 12678 C 1224.03 0.782168 -1.71836 0
M  V30 12679 O 1223.39 1.5249 -1.00265 0
M  V30 12680 C 1223.44 -0.91482 -3.49733 0
M  V30 12681 O 1223.16 -2.28931 -3.73527 0
M  V30 12682 C 1224.66 -0.609131 -4.39095 0
M  V30 12683 H 1221.88 -0.241921 -0.625872 0
M  V30 12684 H 1224.43 -1.29673 -1.5813 0
M  V30 12685 H 1222.58 -0.31285 -3.86135 0
M  V30 12686 H 1222.99 -2.36998 -4.67902 0
M  V30 12687 H 1224.47 -0.845875 -5.4548 0
M  V30 12688 H 1224.95 0.456625 -4.3682 0
M  V30 12689 H 1225.55 -1.19105 -4.08282 0
M  V30 12690 N 1223.87 1.39211 -0.738786 0
M  V30 12691 C 1225.11 2.0004 -0.28782 0
M  V30 12692 C 1225.44 1.58921 1.13 0
M  V30 12693 O 1224.71 0.839193 1.77015 0
M  V30 12694 H 1223.29 0.739805 -0.103425 0
M  V30 12695 H 1225.95 1.70202 -0.949587 0
M  V30 12696 H 1225.04 3.10251 -0.339208 0
M  V30 12697 N 1225.34 0.486708 1.49896 0
M  V30 12698 C 1226.62 -0.125183 1.95199 0
M  V30 12699 C 1227 -1.55498 1.42771 0
M  V30 12700 O 1226.35 -2.1949 0.635322 0
M  V30 12701 C 1226.56 -0.0524982 3.48961 0
M  V30 12702 C 1227.91 -0.233595 4.23957 0
M  V30 12703 O 1228.93 -0.128357 3.55969 0
M  V30 12704 O 1227.79 -0.447862 5.44662 0
M  V30 12705 H 1224.88 -0.103141 0.820543 0
M  V30 12706 H 1227.43 0.548226 1.60601 0
M  V30 12707 H 1226.2 0.945163 3.79714 0
M  V30 12708 H 1225.83 -0.766683 3.90138 0
M  V30 12709 N 1226.82 -1.56058 0.219941 0
M  V30 12710 C 1228.05 -2.02358 -0.416497 0
M  V30 12711 C 1228.46 -1.09903 -1.54007 0
M  V30 12712 O 1227.8 -0.100635 -1.83424 0
M  V30 12713 C 1227.87 -3.45 -1.01072 0
M  V30 12714 C 1227.53 -4.56994 -0.0227891 0
M  V30 12715 C 1228.53 -5.14061 0.776997 0
M  V30 12716 C 1226.21 -5.02209 0.0954981 0
M  V30 12717 C 1228.21 -6.14813 1.68179 0
M  V30 12718 C 1225.89 -6.02799 1.00383 0
M  V30 12719 C 1226.89 -6.58977 1.79552 0
M  V30 12720 O 1226.58 -7.57608 2.68858 0
M  V30 12721 H 1226.31 -0.667581 -0.106355 0
M  V30 12722 H 1228.87 -2.02677 0.333348 0
M  V30 12723 H 1227.1 -3.41745 -1.80962 0
M  V30 12724 H 1228.78 -3.74958 -1.55439 0
M  V30 12725 H 1229.55 -4.79979 0.696053 0
M  V30 12726 H 1225.43 -4.58164 -0.510599 0
M  V30 12727 H 1228.97 -6.58588 2.30017 0
M  V30 12728 H 1224.87 -6.36302 1.08579 0
M  V30 12729 H 1225.64 -7.75124 2.62915 0
M  V30 12730 N 1228.3 0.053464 -1.57509 0
M  V30 12731 C 1229.55 0.744867 -1.8927 0
M  V30 12732 C 1229.9 1.74249 -0.815791 0
M  V30 12733 O 1229.2 1.9077 0.178187 0
M  V30 12734 C 1229.39 1.47666 -3.25468 0
M  V30 12735 C 1229.22 0.551427 -4.46306 0
M  V30 12736 C 1227.99 0.181517 -5.04974 0
M  V30 12737 C 1230.19 -0.159765 -5.14052 0
M  V30 12738 N 1228.17 -0.747526 -6.09332 0
M  V30 12739 C 1229.54 -0.94533 -6.12751 0
M  V30 12740 C 1231.59 -0.2293 -4.97372 0
M  V30 12741 C 1230.3 -1.794 -6.96569 0
M  V30 12742 C 1232.32 -1.065 -5.81732 0
M  V30 12743 C 1231.69 -1.83856 -6.79983 0
M  V30 12744 H 1227.78 0.247424 -0.741826 0
M  V30 12745 H 1230.37 0.00570542 -1.94699 0
M  V30 12746 H 1228.54 2.18643 -3.21014 0
M  V30 12747 H 1230.27 2.11852 -3.4482 0
M  V30 12748 H 1227.03 0.538408 -4.7053 0
M  V30 12749 H 1227.45 -1.20583 -6.66175 0
M  V30 12750 H 1232.09 0.354441 -4.21312 0
M  V30 12751 H 1229.81 -2.38864 -7.71991 0
M  V30 12752 H 1233.4 -1.12202 -5.70878 0
M  V30 12753 H 1232.28 -2.47479 -7.44126 0
M  V30 12754 N 1229.78 1.54207 0.325255 0
M  V30 12755 C 1231.2 1.44879 0.669492 0
M  V30 12756 C 1231.4 0.620298 1.91715 0
M  V30 12757 O 1230.45 0.118435 2.52222 0
M  V30 12758 C 1231.76 2.88581 0.845077 0
M  V30 12759 C 1233.31 2.98472 0.942527 0
M  V30 12760 C 1233.79 4.4332 1.15029 0
M  V30 12761 N 1235.28 4.46925 1.21707 0
M  V30 12762 C 1236.01 5.56155 1.39568 0
M  V30 12763 N 1235.51 6.75357 1.54483 0
M  V30 12764 N 1237.3 5.43799 1.42263 0
M  V30 12765 H 1229.45 2.06556 -0.494819 0
M  V30 12766 H 1231.72 0.934474 -0.159568 0
M  V30 12767 H 1231.42 3.517 -0.000442996 0
M  V30 12768 H 1231.3 3.34596 1.74141 0
M  V30 12769 H 1233.68 2.35481 1.77855 0
M  V30 12770 H 1233.76 2.5579 0.0226995 0
M  V30 12771 H 1233.41 5.06896 0.319127 0
M  V30 12772 H 1233.34 4.8361 2.08397 0
M  V30 12773 H 1235.83 3.61036 1.11632 0
M  V30 12774 H 1236.14 7.54363 1.67799 0
M  V30 12775 H 1234.49 6.78268 1.51584 0
M  V30 12776 H 1237.68 4.49627 1.30205 0
M  V30 12777 H 1237.85 6.28982 1.5584 0
M  V30 12778 N 1231.26 -0.58723 1.46251 0
M  V30 12779 C 1232.19 -1.70694 1.5933 0
M  V30 12780 C 1233.17 -1.64208 0.443831 0
M  V30 12781 O 1234.35 -1.82294 0.669516 0
M  V30 12782 C 1231.48 -3.0933 1.579 0
M  V30 12783 C 1230.44 -3.30643 2.7177 0
M  V30 12784 C 1229.76 -4.69761 2.554 0
M  V30 12785 C 1231.06 -3.18916 4.1363 0
M  V30 12786 H 1232.76 -1.60004 2.53059 0
M  V30 12787 H 1230.3 -0.768343 1.21789 0
M  V30 12788 H 1232.26 -3.87479 1.65644 0
M  V30 12789 H 1230.98 -3.20907 0.60712 0
M  V30 12790 H 1229.64 -2.54892 2.63488 0
M  V30 12791 H 1229.29 -4.78098 1.56306 0
M  V30 12792 H 1228.99 -4.84974 3.31774 0
M  V30 12793 H 1230.51 -5.50084 2.65028 0
M  V30 12794 H 1231.93 -3.86915 4.23048 0
M  V30 12795 H 1230.32 -3.45653 4.90555 0
M  V30 12796 H 1231.39 -2.1606 4.34104 0
M  V30 12797 N 1232.74 -1.33881 -0.831482 0
M  V30 12798 C 1233.67 -1.27384 -1.95693 0
M  V30 12799 C 1234.65 -0.152943 -1.69411 0
M  V30 12800 O 1235.83 -0.34392 -1.9113 0
M  V30 12801 C 1232.96 -1.01982 -3.31989 0
M  V30 12802 C 1231.92 -2.10445 -3.72689 0
M  V30 12803 C 1231.24 -1.70245 -5.06873 0
M  V30 12804 C 1232.54 -3.52194 -3.8569 0
M  V30 12805 H 1234.24 -2.21549 -2.01386 0
M  V30 12806 H 1231.78 -1.06653 -0.967526 0
M  V30 12807 H 1233.73 -0.960841 -4.103 0
M  V30 12808 H 1232.46 -0.0425709 -3.26572 0
M  V30 12809 H 1231.12 -2.15398 -2.96647 0
M  V30 12810 H 1230.77 -0.712036 -4.97935 0
M  V30 12811 H 1230.47 -2.42834 -5.35075 0
M  V30 12812 H 1231.99 -1.65827 -5.87651 0
M  V30 12813 H 1233.4 -3.49701 -4.54293 0
M  V30 12814 H 1231.8 -4.23331 -4.25336 0
M  V30 12815 H 1232.87 -3.9016 -2.87929 0
M  V30 12816 N 1234.21 1.05064 -1.1747 0
M  V30 12817 C 1235.46 1.78352 -0.965311 0
M  V30 12818 C 1235.79 1.87527 0.504707 0
M  V30 12819 O 1235.07 1.376 1.37465 0
M  V30 12820 C 1235.35 3.22173 -1.60862 0
M  V30 12821 C 1235.2 3.21003 -3.15083 0
M  V30 12822 C 1236.52 4.2004 -1.31358 0
M  V30 12823 H 1233.64 0.647452 -0.352101 0
M  V30 12824 H 1236.28 1.22794 -1.44988 0
M  V30 12825 H 1234.43 3.69613 -1.19658 0
M  V30 12826 H 1236.11 2.81629 -3.65353 0
M  V30 12827 H 1234.35 2.59309 -3.47766 0
M  V30 12828 H 1235.02 4.22516 -3.55224 0
M  V30 12829 H 1237.5 3.81099 -1.6704 0
M  V30 12830 H 1236.37 5.1891 -1.78953 0
M  V30 12831 H 1236.63 4.41477 -0.234606 0
M  V30 12832 N 1235.69 0.975146 1.23809 0
M  V30 12833 C 1237.1 0.678873 1.7392 0
M  V30 12834 C 1237.45 -0.805133 1.78919 0
M  V30 12835 O 1236.58 -1.62984 1.42356 0
M  V30 12836 C 1237.17 1.22562 3.15854 0
M  V30 12837 C 1235.73 0.979096 3.63443 0
M  V30 12838 C 1234.88 1.35649 2.41857 0
M  V30 12839 H 1237.83 1.14961 1.09406 0
M  V30 12840 H 1237.85 0.595489 3.75811 0
M  V30 12841 H 1237.36 2.30571 3.12184 0
M  V30 12842 H 1235.46 -0.0851407 3.72503 0
M  V30 12843 H 1235.58 1.62998 4.5052 0
M  V30 12844 H 1233.94 0.774916 2.42626 0
M  V30 12845 H 1234.72 2.44624 2.40861 0
M  V30 12846 N 1237.17 -1.38817 0.746158 0
M  V30 12847 C 1238.42 -1.99885 0.298425 0
M  V30 12848 C 1238.74 -1.59518 -1.12156 0
M  V30 12849 O 1238.01 -0.848568 -1.76568 0
M  V30 12850 H 1236.59 -0.739247 0.107347 0
M  V30 12851 H 1239.25 -1.69696 0.9586 0
M  V30 12852 H 1238.35 -3.10067 0.355656 0
M  V30 12853 N 1238.65 -0.49465 -1.49636 0
M  V30 12854 C 1239.88 0.0491129 -2.06842 0
M  V30 12855 C 1240.29 1.31395 -1.35576 0
M  V30 12856 O 1239.65 1.7731 -0.432135 0
M  V30 12857 C 1239.7 0.313171 -3.60141 0
M  V30 12858 O 1239.42 -0.90152 -4.28724 0
M  V30 12859 C 1240.92 0.901284 -4.34041 0
M  V30 12860 H 1238.14 -0.0176186 -0.670769 0
M  V30 12861 H 1240.68 -0.690188 -1.92501 0
M  V30 12862 H 1238.84 1.00244 -3.74206 0
M  V30 12863 H 1239.25 -0.660477 -5.20325 0
M  V30 12864 H 1240.73 1.03567 -5.42197 0
M  V30 12865 H 1241.2 1.89746 -3.96097 0
M  V30 12866 H 1241.81 0.249677 -4.24566 0
M  V30 12867 N 1240.13 1.55939 -0.228214 0
M  V30 12868 C 1241.36 2.02576 0.405759 0
M  V30 12869 C 1241.76 1.10718 1.53422 0
M  V30 12870 O 1241.11 0.110361 1.83368 0
M  V30 12871 C 1241.17 3.45531 0.992405 0
M  V30 12872 C 1240.83 4.57 -0.00144674 0
M  V30 12873 C 1241.83 5.13642 -0.804248 0
M  V30 12874 C 1239.51 5.02152 -0.12213 0
M  V30 12875 C 1241.51 6.13912 -1.71437 0
M  V30 12876 C 1239.2 6.02258 -1.03578 0
M  V30 12877 C 1240.19 6.58015 -1.83044 0
M  V30 12878 O 1239.88 7.56172 -2.72872 0
M  V30 12879 H 1239.61 0.668136 0.102813 0
M  V30 12880 H 1242.17 2.02497 -0.344092 0
M  V30 12881 H 1240.4 3.427 1.79147 0
M  V30 12882 H 1242.09 3.75777 1.53448 0
M  V30 12883 H 1242.85 4.79603 -0.721497 0
M  V30 12884 H 1238.73 4.58428 0.486294 0
M  V30 12885 H 1242.28 6.57359 -2.33506 0
M  V30 12886 H 1238.17 6.35718 -1.11952 0
M  V30 12887 H 1238.94 7.73719 -2.67022 0
M  V30 12888 N 1241.6 -0.0451101 1.57535 0
M  V30 12889 C 1242.55 -1.05066 2.05499 0
M  V30 12890 C 1243.52 -1.36884 0.940843 0
M  V30 12891 O 1244.71 -1.47497 1.21034 0
M  V30 12892 C 1241.85 -2.35139 2.52594 0
M  V30 12893 C 1240.96 -2.0962 3.77735 0
M  V30 12894 C 1240.09 -3.33447 4.13505 0
M  V30 12895 C 1239.13 -3.03411 5.31609 0
M  V30 12896 N 1238.27 -4.19644 5.62888 0
M  V30 12897 H 1243.11 -0.63469 2.91163 0
M  V30 12898 H 1240.65 -0.30179 1.43971 0
M  V30 12899 H 1242.61 -3.11118 2.7796 0
M  V30 12900 H 1241.24 -2.74489 1.69869 0
M  V30 12901 H 1240.29 -1.24211 3.59549 0
M  V30 12902 H 1241.6 -1.83452 4.63839 0
M  V30 12903 H 1240.75 -4.17805 4.39914 0
M  V30 12904 H 1239.49 -3.62715 3.2602 0
M  V30 12905 H 1238.5 -2.17453 5.04969 0
M  V30 12906 H 1239.72 -2.75438 6.20734 0
M  V30 12907 H 1237.67 -4.48893 4.78363 0
M  V30 12908 H 1237.59 -3.96843 6.43468 0
M  V30 12909 H 1238.85 -5.04921 5.93865 0
M  V30 12910 N 1243.08 -1.54377 -0.317073 0
M  V30 12911 C 1244.33 -1.72105 -1.0518 0
M  V30 12912 C 1244.64 -0.505166 -1.88964 0
M  V30 12913 O 1245.85 -0.563912 -2.65579 0
M  V30 12914 C 1244.31 -3.04435 -1.91957 0
M  V30 12915 C 1243.91 -4.33449 -1.13253 0
M  V30 12916 C 1245.66 -3.31524 -2.65127 0
M  V30 12917 C 1243.57 -5.56837 -1.99214 0
M  V30 12918 H 1242.5 -0.641392 -0.396399 0
M  V30 12919 H 1245.15 -1.80868 -0.309673 0
M  V30 12920 H 1243.53 -2.89595 -2.70094 0
M  V30 12921 H 1244.7 -4.59074 -0.39842 0
M  V30 12922 H 1243.02 -4.13173 -0.517372 0
M  V30 12923 H 1245.61 -4.20906 -3.29761 0
M  V30 12924 H 1245.96 -2.49688 -3.33109 0
M  V30 12925 H 1246.49 -3.47261 -1.94048 0
M  V30 12926 H 1243.23 -6.41294 -1.35729 0
M  V30 12927 H 1242.75 -5.35421 -2.70341 0
M  V30 12928 H 1244.43 -5.93488 -2.57646 0
M  V30 12929 N 1244.56 0.579466 -1.4656 0
M  V30 12930 C 1245.79 1.36351 -1.55615 0
M  V30 12931 C 1246.2 1.87755 -0.198405 0
M  V30 12932 O 1245.56 1.63795 0.804834 0
M  V30 12933 C 1245.61 2.54881 -2.56355 0
M  V30 12934 O 1245.33 2.05607 -3.86856 0
M  V30 12935 C 1246.83 3.47391 -2.75381 0
M  V30 12936 H 1244.05 0.416426 -0.526147 0
M  V30 12937 H 1246.6 0.704134 -1.91995 0
M  V30 12938 H 1244.75 3.16802 -2.2297 0
M  V30 12939 H 1245.17 2.82823 -4.41714 0
M  V30 12940 H 1246.64 4.27031 -3.49783 0
M  V30 12941 H 1247.12 3.99532 -1.82403 0
M  V30 12942 H 1247.72 2.91303 -3.09875 0
M  V30 12943 N 1246.04 1.3432 0.824371 0
M  V30 12944 C 1247 1.25672 1.91675 0
M  V30 12945 C 1248 0.172269 1.59875 0
M  V30 12946 O 1249.19 0.424794 1.68941 0
M  V30 12947 C 1246.32 0.939928 3.27686 0
M  V30 12948 H 1247.52 2.22785 2.00766 0
M  V30 12949 H 1245.07 1.18587 1.01817 0
M  V30 12950 H 1245.8 -0.0280898 3.24288 0
M  V30 12951 H 1245.59 1.72432 3.5215 0
M  V30 12952 H 1247.08 0.904553 4.07686 0
M  V30 12953 N 1247.52 -1.0444 1.18026 0
M  V30 12954 C 1248.74 -1.81772 0.998684 0
M  V30 12955 C 1249.17 -1.82682 -0.448225 0
M  V30 12956 O 1248.52 -1.24136 -1.32136 0
M  V30 12957 C 1248.57 -3.2542 1.55352 0
M  V30 12958 O 1247.68 -4.05103 0.772351 0
M  V30 12959 H 1247.02 -0.561731 0.354054 0
M  V30 12960 H 1249.55 -1.31557 1.56697 0
M  V30 12961 H 1249.56 -3.76206 1.57903 0
M  V30 12962 H 1248.23 -3.24073 2.60672 0
M  V30 12963 H 1246.81 -3.63798 0.818852 0
M  V30 12964 N 1248.99 -0.981699 -1.2329 0
M  V30 12965 C 1249.96 -0.527992 -2.23036 0
M  V30 12966 C 1250.96 0.383083 -1.5617 0
M  V30 12967 O 1252.15 0.176595 -1.73303 0
M  V30 12968 C 1249.28 0.233501 -3.40099 0
M  V30 12969 H 1250.47 -1.40995 -2.64689 0
M  V30 12970 H 1248.03 -0.767724 -1.36146 0
M  V30 12971 H 1248.76 1.13194 -3.03904 0
M  V30 12972 H 1248.55 -0.420505 -3.89839 0
M  V30 12973 H 1250.04 0.539485 -4.14101 0
M  V30 12974 N 1250.47 1.3842 -0.753509 0
M  V30 12975 C 1251.89 1.53668 -0.431095 0
M  V30 12976 C 1252.09 1.71626 1.05578 0
M  V30 12977 O 1251.14 1.72723 1.84182 0
M  V30 12978 C 1252.46 2.74381 -1.23027 0
M  V30 12979 C 1254.01 2.8823 -1.22034 0
M  V30 12980 C 1254.48 4.11904 -2.00248 0
M  V30 12981 N 1255.97 4.18981 -1.97508 0
M  V30 12982 C 1256.71 5.13667 -2.5482 0
M  V30 12983 N 1256.2 6.14027 -3.20846 0
M  V30 12984 N 1258 5.06017 -2.44751 0
M  V30 12985 H 1250.15 1.25012 -1.71714 0
M  V30 12986 H 1252.41 0.607296 -0.727939 0
M  V30 12987 H 1252.12 2.67515 -2.28317 0
M  V30 12988 H 1251.99 3.67565 -0.847098 0
M  V30 12989 H 1254.38 2.94578 -0.175502 0
M  V30 12990 H 1254.46 1.96057 -1.64303 0
M  V30 12991 H 1254.1 4.06318 -3.04742 0
M  V30 12992 H 1254.03 5.03157 -1.55373 0
M  V30 12993 H 1256.52 3.47104 -1.49423 0
M  V30 12994 H 1256.84 6.82771 -3.61999 0
M  V30 12995 H 1255.18 6.1436 -3.24941 0
M  V30 12996 H 1258.37 4.26552 -1.92797 0
M  V30 12997 H 1258.54 5.7963 -2.89713 0
M  V30 12998 N 1251.95 0.502579 1.49372 0
M  V30 12999 C 1253.2 -0.0412993 2.02058 0
M  V30 13000 C 1253.52 -1.37338 1.38431 0
M  V30 13001 O 1252.79 -1.88305 0.540175 0
M  V30 13002 H 1251.37 -0.0182522 0.746777 0
M  V30 13003 H 1254.03 0.660179 1.83378 0
M  V30 13004 H 1253.13 -0.169812 3.11638 0
M  V30 13005 N 1253.43 -1.55816 0.23648 0
M  V30 13006 C 1254.66 -2.02789 -0.39501 0
M  V30 13007 C 1255.07 -1.1153 -1.52832 0
M  V30 13008 O 1254.41 -0.120084 -1.83307 0
M  V30 13009 C 1254.47 -3.46052 -0.974066 0
M  V30 13010 C 1254.14 -4.56993 0.0256825 0
M  V30 13011 C 1255.13 -5.13208 0.831477 0
M  V30 13012 C 1252.82 -5.0208 0.148759 0
M  V30 13013 C 1254.81 -6.12994 1.74691 0
M  V30 13014 C 1252.5 -6.017 1.0677 0
M  V30 13015 C 1253.5 -6.57035 1.86531 0
M  V30 13016 O 1253.18 -7.54714 2.76878 0
M  V30 13017 H 1252.92 -0.668672 -0.0992687 0
M  V30 13018 H 1255.47 -2.02312 0.354826 0
M  V30 13019 H 1253.7 -3.43645 -1.77327 0
M  V30 13020 H 1255.39 -3.76586 -1.51453 0
M  V30 13021 H 1256.16 -4.79214 0.746922 0
M  V30 13022 H 1252.03 -4.58679 -0.461976 0
M  V30 13023 H 1255.58 -6.56111 2.36989 0
M  V30 13024 H 1251.48 -6.35115 1.15322 0
M  V30 13025 H 1252.24 -7.72292 2.71122 0
M  V30 13026 N 1254.91 0.036755 -1.57557 0
M  V30 13027 C 1255.85 1.05823 -2.07133 0
M  V30 13028 C 1256.85 1.37923 -0.983546 0
M  V30 13029 O 1258.05 1.36918 -1.16848 0
M  V30 13030 H 1254.43 0.358761 -0.660905 0
M  V30 13031 H 1256.4 0.614232 -2.9201 0
M  V30 13032 C 1255.15 2.35302 -2.55985 0
M  V30 13033 H 1254.47 2.11461 -3.393 0
M  V30 13034 H 1255.91 3.05139 -2.94391 0
M  V30 13035 C 1254.37 3.0373 -1.45773 0
M  V30 13036 O 1254.9 3.9325 -0.819587 0
M  V30 13037 N 1253.11 2.64931 -1.19416 0
M  V30 13038 H 1252.65 1.92219 -1.71492 0
M  V30 13039 H 1252.61 3.11033 -0.458865 0
M  V30 13040 N 1256.39 1.54543 0.308881 0
M  V30 13041 C 1257.8 1.64532 0.882392 0
M  V30 13042 C 1258.15 0.54886 1.88367 0
M  V30 13043 O 1257.27 -0.315832 2.14083 0
M  V30 13044 C 1257.87 2.98251 1.60722 0
M  V30 13045 C 1256.43 3.10387 2.12925 0
M  V30 13046 C 1255.57 2.60176 0.959362 0
M  V30 13047 H 1258.52 1.58466 0.0860803 0
M  V30 13048 H 1258.55 2.89233 2.47233 0
M  V30 13049 H 1258.06 3.78033 0.878233 0
M  V30 13050 H 1256.16 2.35309 2.88895 0
M  V30 13051 H 1256.27 4.16421 2.36918 0
M  V30 13052 H 1254.64 2.16434 1.3427 0
M  V30 13053 H 1255.42 3.42429 0.244454 0
M  V30 13054 N 1257.86 -0.571685 1.46866 0
M  V30 13055 C 1259.11 -1.33145 1.52972 0
M  V30 13056 C 1259.44 -1.93314 0.185344 0
M  V30 13057 O 1258.72 -1.77083 -0.80447 0
M  V30 13058 C 1259 -2.4525 2.63675 0
M  V30 13059 C 1258.85 -1.90044 4.0768 0
M  V30 13060 C 1260.17 -3.47247 2.70384 0
M  V30 13061 H 1257.29 -0.482751 0.556885 0
M  V30 13062 H 1259.93 -0.641163 1.78855 0
M  V30 13063 H 1258.08 -3.04132 2.41735 0
M  V30 13064 H 1259.76 -1.35535 4.4094 0
M  V30 13065 H 1258 -1.20805 4.1664 0
M  V30 13066 H 1258.67 -2.71019 4.80887 0
M  V30 13067 H 1261.15 -2.98263 2.90135 0
M  V30 13068 H 1260.02 -4.23132 3.49643 0
M  V30 13069 H 1260.28 -4.05179 1.76868 0
M  V30 13070 N 1259.34 -1.34755 -0.817236 0
M  V30 13071 C 1260.57 -1.30522 -1.60536 0
M  V30 13072 C 1260.98 0.119541 -1.88421 0
M  V30 13073 O 1260.34 1.06833 -1.47962 0
M  V30 13074 C 1260.39 -2.09939 -2.94292 0
M  V30 13075 O 1260.11 -3.46858 -2.67621 0
M  V30 13076 C 1261.61 -2.13168 -3.88683 0
M  V30 13077 H 1258.83 -0.448789 -0.498828 0
M  V30 13078 H 1261.38 -1.77453 -1.01639 0
M  V30 13079 H 1259.53 -1.66634 -3.49731 0
M  V30 13080 H 1259.95 -3.87979 -3.52949 0
M  V30 13081 H 1261.42 -2.73147 -4.79682 0
M  V30 13082 H 1261.9 -1.12758 -4.24479 0
M  V30 13083 H 1262.5 -2.56587 -3.39181 0
M  V30 13084 N 1260.82 1.03812 -1.18578 0
M  V30 13085 C 1261.77 2.11883 -0.915115 0
M  V30 13086 C 1262.74 1.65453 0.146479 0
M  V30 13087 O 1263.92 1.90799 0.00630058 0
M  V30 13088 C 1261.06 3.42157 -0.449755 0
M  V30 13089 C 1260.17 4.02185 -1.57706 0
M  V30 13090 C 1259.31 5.20431 -1.06417 0
M  V30 13091 C 1258.35 5.72496 -2.16599 0
M  V30 13092 N 1257.49 6.82027 -1.66685 0
M  V30 13093 H 1262.33 2.34373 -1.84047 0
M  V30 13094 H 1259.86 1.14962 -0.917728 0
M  V30 13095 H 1261.82 4.16888 -0.161407 0
M  V30 13096 H 1260.45 3.19806 0.438622 0
M  V30 13097 H 1259.5 3.24757 -1.98083 0
M  V30 13098 H 1260.81 4.36851 -2.40754 0
M  V30 13099 H 1259.97 6.02286 -0.730497 0
M  V30 13100 H 1258.71 4.87276 -0.203301 0
M  V30 13101 H 1257.71 4.8926 -2.50808 0
M  V30 13102 H 1258.94 6.07694 -3.03126 0
M  V30 13103 H 1256.88 6.50742 -0.828916 0
M  V30 13104 H 1256.8 7.1577 -2.43329 0
M  V30 13105 H 1258.07 7.67499 -1.36253 0
M  V30 13106 N 1262.3 0.988223 1.22768 0
M  V30 13107 C 1263.25 0.527454 2.26541 0
M  V30 13108 C 1264.24 -0.419506 1.64123 0
M  V30 13109 O 1265.45 -0.292539 1.77607 0
M  V30 13110 H 1261.82 0.152165 0.736444 0
M  V30 13111 H 1263.79 1.41422 2.62759 0
M  V30 13112 C 1262.54 -0.146845 3.4739 0
M  V30 13113 H 1261.86 0.572752 3.95676 0
M  V30 13114 H 1263.3 -0.432768 4.21786 0
M  V30 13115 C 1261.76 -1.38065 3.0731 0
M  V30 13116 O 1262.29 -2.47634 3.16291 0
M  V30 13117 N 1260.5 -1.25418 2.62143 0
M  V30 13118 H 1260.05 -0.362641 2.55035 0
M  V30 13119 H 1260 -2.08077 2.35694 0
M  V30 13120 N 1263.78 -1.38018 0.760839 0
M  V30 13121 C 1265.02 -2.00248 0.320716 0
M  V30 13122 C 1265.35 -1.60259 -1.09684 0
M  V30 13123 O 1264.63 -0.843567 -1.75255 0
M  V30 13124 C 1264.91 -3.57254 0.451849 0
M  V30 13125 C 1264.77 -4.07185 1.91103 0
M  V30 13126 C 1266.08 -4.39843 -0.150439 0
M  V30 13127 H 1263.2 -0.727491 0.118007 0
M  V30 13128 H 1265.85 -1.63855 0.961842 0
M  V30 13129 H 1264 -3.88386 -0.0939672 0
M  V30 13130 H 1265.67 -3.86665 2.51571 0
M  V30 13131 H 1263.91 -3.59782 2.42362 0
M  V30 13132 H 1264.58 -5.16262 1.9539 0
M  V30 13133 H 1267.06 -4.14905 0.315145 0
M  V30 13134 H 1265.93 -5.48893 -0.0284853 0
M  V30 13135 H 1266.19 -4.24367 -1.23956 0
M  V30 13136 N 1265.25 -0.510493 -1.49103 0
M  V30 13137 C 1266.48 0.0271718 -2.06882 0
M  V30 13138 C 1266.9 1.2995 -1.36962 0
M  V30 13139 O 1266.25 1.76842 -0.450916 0
M  V30 13140 C 1266.3 0.274956 -3.60453 0
M  V30 13141 O 1266.03 -0.946941 -4.27744 0
M  V30 13142 C 1267.53 0.855197 -4.34973 0
M  V30 13143 H 1264.75 -0.024732 -0.670544 0
M  V30 13144 H 1267.29 -0.710567 -1.91758 0
M  V30 13145 H 1265.45 0.962696 -3.75248 0
M  V30 13146 H 1265.86 -0.715627 -5.19595 0
M  V30 13147 H 1267.33 0.978103 -5.43265 0
M  V30 13148 H 1267.81 1.85535 -3.98087 0
M  V30 13149 H 1268.42 0.204632 -4.24807 0
M  V30 13150 N 1266.73 1.55688 -0.24474 0
M  V30 13151 C 1267.98 1.99186 0.381167 0
M  V30 13152 C 1268.31 1.13266 1.57748 0
M  V30 13153 O 1267.59 0.195568 1.93514 0
M  V30 13154 C 1267.87 3.51257 0.793142 0
M  V30 13155 C 1267.72 4.47942 -0.408409 0
M  V30 13156 C 1269.04 4.08365 1.64091 0
M  V30 13157 H 1266.16 0.724141 0.137073 0
M  V30 13158 H 1268.8 1.8683 -0.345619 0
M  V30 13159 H 1266.95 3.61917 1.4124 0
M  V30 13160 H 1268.62 4.49265 -1.04682 0
M  V30 13161 H 1266.87 4.20854 -1.05189 0
M  V30 13162 H 1267.54 5.51946 -0.0768531 0
M  V30 13163 H 1270.01 4.00794 1.1182 0
M  V30 13164 H 1268.89 5.1504 1.89802 0
M  V30 13165 H 1269.15 3.56687 2.61202 0
M  V30 13166 N 1268.21 -0.0283989 1.57574 0
M  V30 13167 C 1269.16 -1.02881 2.06601 0
M  V30 13168 C 1270.13 -1.35879 0.955308 0
M  V30 13169 O 1271.31 -1.46205 1.22592 0
M  V30 13170 C 1268.45 -2.32447 2.55073 0
M  V30 13171 C 1267.56 -2.05602 3.79937 0
M  V30 13172 C 1266.7 -3.29043 4.17018 0
M  V30 13173 C 1265.74 -2.97755 5.34797 0
M  V30 13174 N 1264.88 -4.1365 5.67308 0
M  V30 13175 H 1269.72 -0.603772 2.91819 0
M  V30 13176 H 1267.25 -0.286503 1.44283 0
M  V30 13177 H 1269.21 -3.08152 2.81244 0
M  V30 13178 H 1267.84 -2.72672 1.72771 0
M  V30 13179 H 1266.89 -1.2039 3.60847 0
M  V30 13180 H 1268.2 -1.78522 4.65759 0
M  V30 13181 H 1267.36 -4.13115 4.4432 0
M  V30 13182 H 1266.1 -3.59237 3.29849 0
M  V30 13183 H 1265.1 -2.12085 5.07247 0
M  V30 13184 H 1266.33 -2.68839 6.23621 0
M  V30 13185 H 1264.27 -4.43794 4.83097 0
M  V30 13186 H 1264.19 -3.89996 6.47641 0
M  V30 13187 H 1265.46 -4.98594 5.99186 0
M  V30 13188 N 1269.69 -1.54705 -0.300681 0
M  V30 13189 C 1270.91 -1.78318 -1.05913 0
M  V30 13190 C 1271.34 -0.541177 -1.80147 0
M  V30 13191 O 1270.7 0.508291 -1.74029 0
M  V30 13192 C 1270.74 -2.99041 -2.01511 0
M  V30 13193 O 1269.85 -2.72188 -3.09818 0
M  V30 13194 H 1269.19 -0.590197 -0.304242 0
M  V30 13195 H 1271.72 -2.01789 -0.338006 0
M  V30 13196 H 1271.73 -3.2702 -2.43971 0
M  V30 13197 H 1270.4 -3.89098 -1.46886 0
M  V30 13198 H 1268.98 -2.55227 -2.71871 0
M  V30 13199 N 1271.17 0.563888 -1.47167 0
M  V30 13200 C 1272.08 1.69903 -1.61772 0
M  V30 13201 C 1273.09 1.6664 -0.500705 0
M  V30 13202 O 1274.27 1.86209 -0.767354 0
M  V30 13203 C 1271.33 3.06411 -1.62213 0
M  V30 13204 C 1270.39 3.20793 -2.8529 0
M  V30 13205 C 1269.63 4.50789 -2.85701 0
M  V30 13206 O 1269.85 5.3584 -1.95529 0
M  V30 13207 O 1268.78 4.68819 -3.77481 0
M  V30 13208 H 1272.61 1.60525 -2.57809 0
M  V30 13209 H 1270.2 0.733125 -1.30175 0
M  V30 13210 H 1272.08 3.87659 -1.65221 0
M  V30 13211 H 1270.75 3.16186 -0.693415 0
M  V30 13212 H 1269.66 2.38967 -2.87829 0
M  V30 13213 H 1270.99 3.15918 -3.77434 0
M  V30 13214 N 1272.64 1.35187 0.810078 0
M  V30 13215 C 1273.89 1.28011 1.56389 0
M  V30 13216 C 1274.21 -0.14622 1.94451 0
M  V30 13217 O 1273.48 -1.08185 1.63318 0
M  V30 13218 H 1272.06 0.470837 0.579932 0
M  V30 13219 H 1274.73 1.69249 0.966476 0
M  V30 13220 H 1273.82 1.89362 2.4809 0
M  V30 13221 N 1274.12 -1.03182 1.19127 0
M  V30 13222 C 1275.09 -2.09559 0.928307 0
M  V30 13223 C 1276.09 -1.60548 -0.0899992 0
M  V30 13224 O 1277.28 -1.736 0.144422 0
M  V30 13225 C 1274.41 -3.38609 0.394561 0
M  V30 13226 H 1275.6 -2.34321 1.87173 0
M  V30 13227 H 1273.15 -1.19746 1.00452 0
M  V30 13228 H 1273.89 -3.19515 -0.555046 0
M  V30 13229 H 1273.67 -3.75502 1.12873 0
M  V30 13230 H 1275.16 -4.16969 0.229569 0
M  V30 13231 N 1275.6 -0.99472 -1.22242 0
M  V30 13232 C 1276.85 -0.667045 -1.90351 0
M  V30 13233 C 1277.16 0.804615 -1.78284 0
M  V30 13234 O 1278.37 1.24395 -2.41326 0
M  V30 13235 C 1276.82 -1.14256 -3.41282 0
M  V30 13236 C 1276.43 -2.63958 -3.61981 0
M  V30 13237 C 1278.18 -0.889302 -4.1508 0
M  V30 13238 C 1276.08 -3.05103 -5.06622 0
M  V30 13239 H 1275.01 -0.245795 -0.712812 0
M  V30 13240 H 1277.66 -1.20452 -1.38432 0
M  V30 13241 H 1276.05 -0.533203 -3.92394 0
M  V30 13242 H 1277.22 -3.30255 -3.21354 0
M  V30 13243 H 1275.54 -2.87186 -3.01518 0
M  V30 13244 H 1278.13 -1.17239 -5.21689 0
M  V30 13245 H 1278.48 0.174556 -4.15934 0
M  V30 13246 H 1279.01 -1.46095 -3.70002 0
M  V30 13247 H 1275.75 -4.10672 -5.1091 0
M  V30 13248 H 1275.27 -2.4351 -5.48145 0
M  V30 13249 H 1276.95 -2.96506 -5.75059 0
M  V30 13250 N 1277.08 1.37613 -0.768148 0
M  V30 13251 C 1278.01 2.28935 -0.110234 0
M  V30 13252 C 1279.02 1.48459 0.668122 0
M  V30 13253 O 1280.21 1.71154 0.506808 0
M  V30 13254 C 1277.31 3.27606 0.867598 0
M  V30 13255 C 1276.49 4.37163 0.143819 0
M  V30 13256 C 1275.54 5.15931 1.03449 0
M  V30 13257 O 1274.57 5.67003 0.499605 0
M  V30 13258 N 1275.77 5.30311 2.36114 0
M  V30 13259 H 1278.54 2.86037 -0.894585 0
M  V30 13260 H 1276.1 1.4955 -0.620185 0
M  V30 13261 H 1278.09 3.77183 1.4668 0
M  V30 13262 H 1276.66 2.71298 1.55294 0
M  V30 13263 H 1275.88 3.89031 -0.636257 0
M  V30 13264 H 1277.17 5.0755 -0.356446 0
M  V30 13265 H 1276.57 4.90394 2.82011 0
M  V30 13266 H 1275.12 5.83209 2.9105 0
M  V30 13267 N 1278.56 0.518393 1.4883 0
M  V30 13268 C 1279.8 -0.0199348 2.0279 0
M  V30 13269 C 1280.14 -1.35026 1.39576 0
M  V30 13270 O 1279.41 -1.86927 0.537449 0
M  V30 13271 C 1279.69 -0.154184 3.5977 0
M  V30 13272 C 1279.55 1.2005 4.33484 0
M  V30 13273 C 1280.87 -0.886547 4.31078 0
M  V30 13274 H 1277.98 -0.00577061 0.736977 0
M  V30 13275 H 1280.63 0.673178 1.77675 0
M  V30 13276 H 1278.78 -0.74451 3.81299 0
M  V30 13277 H 1280.45 1.83104 4.23404 0
M  V30 13278 H 1278.69 1.78537 3.95357 0
M  V30 13279 H 1279.36 1.05968 5.41733 0
M  V30 13280 H 1281.84 -0.385711 4.14308 0
M  V30 13281 H 1280.71 -0.949355 5.40628 0
M  V30 13282 H 1280.98 -1.93424 3.97542 0
M  V30 13283 N 1280.03 -1.55556 0.252993 0
M  V30 13284 C 1280.98 -2.23035 -0.660161 0
M  V30 13285 C 1281.98 -1.21994 -1.17532 0
M  V30 13286 O 1283.18 -1.39989 -1.13151 0
M  V30 13287 H 1279.56 -0.715516 -0.23139 0
M  V30 13288 H 1281.53 -2.98323 -0.0679506 0
M  V30 13289 C 1280.28 -2.94817 -1.84332 0
M  V30 13290 H 1279.6 -3.72342 -1.45607 0
M  V30 13291 H 1281.04 -3.45386 -2.45936 0
M  V30 13292 C 1279.5 -1.99033 -2.71822 0
M  V30 13293 O 1280.03 -1.5273 -3.71533 0
M  V30 13294 N 1278.24 -1.66004 -2.38518 0
M  V30 13295 H 1277.78 -2.03853 -1.57485 0
M  V30 13296 H 1277.74 -1.02183 -2.97331 0
M  V30 13297 N 1281.51 0.0200419 -1.57587 0
M  V30 13298 C 1282.76 0.709027 -1.89681 0
M  V30 13299 C 1283.09 1.74876 -0.851396 0
M  V30 13300 O 1282.34 1.95151 0.146483 0
M  V30 13301 C 1282.64 1.40729 -3.28527 0
M  V30 13302 C 1282.31 0.502686 -4.48089 0
M  V30 13303 C 1280.97 0.253558 -4.80532 0
M  V30 13304 C 1283.32 -0.121338 -5.21059 0
M  V30 13305 C 1280.65 -0.628221 -5.83327 0
M  V30 13306 C 1283 -0.990873 -6.24792 0
M  V30 13307 C 1281.67 -1.24937 -6.55703 0
M  V30 13308 H 1280.94 0.259451 -0.694094 0
M  V30 13309 H 1283.58 -0.03118 -1.91475 0
M  V30 13310 H 1281.89 2.22105 -3.22764 0
M  V30 13311 H 1283.58 1.94609 -3.50611 0
M  V30 13312 H 1280.17 0.707018 -4.22728 0
M  V30 13313 H 1284.36 0.0581516 -4.96266 0
M  V30 13314 H 1279.61 -0.836712 -6.05648 0
M  V30 13315 H 1283.79 -1.48087 -6.80473 0
M  V30 13316 H 1281.42 -1.93436 -7.35178 0
M  V30 13317 N 1282.99 1.54862 0.292472 0
M  V30 13318 C 1284.22 1.7855 1.04534 0
M  V30 13319 C 1284.63 0.549161 1.80637 0
M  V30 13320 O 1283.99 -0.481268 1.7604 0
M  V30 13321 C 1284.04 2.99849 2.01923 0
M  V30 13322 O 1283.76 4.18706 1.28907 0
M  V30 13323 C 1285.26 3.35991 2.8918 0
M  V30 13324 H 1282.48 0.595279 0.309652 0
M  V30 13325 H 1285.03 2.01834 0.329159 0
M  V30 13326 H 1283.18 2.78749 2.69032 0
M  V30 13327 H 1283.6 4.87151 1.94383 0
M  V30 13328 H 1285.07 4.24085 3.53349 0
M  V30 13329 H 1285.55 2.54524 3.57931 0
M  V30 13330 H 1286.15 3.59281 2.27591 0
M  V30 13331 N 1284.47 -0.556076 1.47464 0
M  V30 13332 C 1285.4 -1.67275 1.62915 0
M  V30 13333 C 1286.38 -1.63229 0.478562 0
M  V30 13334 O 1287.56 -1.80833 0.708032 0
M  V30 13335 C 1284.69 -3.05911 1.64426 0
M  V30 13336 C 1283.65 -3.24804 2.78722 0
M  V30 13337 C 1282.97 -4.64238 2.65307 0
M  V30 13338 C 1284.27 -3.10071 4.20302 0
M  V30 13339 H 1285.97 -1.54601 2.56396 0
M  V30 13340 H 1283.51 -0.742337 1.23391 0
M  V30 13341 H 1285.47 -3.83878 1.73826 0
M  V30 13342 H 1284.19 -3.19547 0.675053 0
M  V30 13343 H 1282.85 -2.49246 2.68835 0
M  V30 13344 H 1282.5 -4.74675 1.66412 0
M  V30 13345 H 1282.2 -4.77828 3.41986 0
M  V30 13346 H 1283.72 -5.44339 2.76637 0
M  V30 13347 H 1285.14 -3.77855 4.3116 0
M  V30 13348 H 1283.53 -3.3517 4.97776 0
M  V30 13349 H 1284.6 -2.06803 4.38589 0
M  V30 13350 N 1285.95 -1.35615 -0.802897 0
M  V30 13351 C 1287.19 -1.29285 -1.56247 0
M  V30 13352 C 1287.53 0.131474 -1.93754 0
M  V30 13353 O 1286.8 1.08172 -1.61645 0
M  V30 13354 C 1287.08 -2.20285 -2.84863 0
M  V30 13355 C 1286.94 -3.71351 -2.53808 0
M  V30 13356 C 1288.26 -2.10318 -3.86593 0
M  V30 13357 H 1285.38 -0.470972 -0.566882 0
M  V30 13358 H 1288.02 -1.66048 -0.923469 0
M  V30 13359 H 1286.17 -1.89063 -3.39393 0
M  V30 13360 H 1287.84 -4.13031 -2.05433 0
M  V30 13361 H 1286.08 -3.9145 -1.86947 0
M  V30 13362 H 1286.75 -4.30416 -3.4561 0
M  V30 13363 H 1289.23 -2.37772 -3.41473 0
M  V30 13364 H 1288.11 -2.76183 -4.74357 0
M  V30 13365 H 1288.37 -1.08627 -4.28547 0
M  V30 13366 N 1287.43 1.02549 -1.19673 0
M  V30 13367 C 1288.84 1.28271 -0.94967 0
M  V30 13368 C 1289.04 1.97961 0.37599 0
M  V30 13369 O 1288.1 2.26955 1.10668 0
M  V30 13370 C 1289.41 2.12647 -2.12607 0
M  V30 13371 C 1290.96 2.25943 -2.16607 0
M  V30 13372 C 1291.43 3.13693 -3.33708 0
M  V30 13373 N 1292.92 3.21281 -3.33665 0
M  V30 13374 C 1293.66 3.89377 -4.20919 0
M  V30 13375 N 1293.16 4.59675 -5.18334 0
M  V30 13376 N 1294.95 3.85811 -4.08786 0
M  V30 13377 H 1287.1 0.557304 -2.04958 0
M  V30 13378 H 1289.36 0.308531 -0.896389 0
M  V30 13379 H 1289.07 1.68766 -3.08563 0
M  V30 13380 H 1288.94 3.13367 -2.09955 0
M  V30 13381 H 1291.33 2.69053 -1.2122 0
M  V30 13382 H 1291.41 1.24762 -2.23311 0
M  V30 13383 H 1291.05 2.7129 -4.29376 0
M  V30 13384 H 1290.98 4.14941 -3.2424 0
M  V30 13385 H 1293.48 2.71218 -2.63152 0
M  V30 13386 H 1293.79 5.09277 -5.81254 0
M  V30 13387 H 1292.13 4.58529 -5.22279 0
M  V30 13388 H 1295.32 3.30033 -3.31957 0
M  V30 13389 H 1295.5 4.38607 -4.76999 0
M  V30 13390 N 1288.9 1.00119 1.21713 0
M  V30 13391 C 1290.13 0.700172 1.95224 0
M  V30 13392 C 1290.55 -0.730138 1.73351 0
M  V30 13393 O 1289.91 -1.50026 1.01794 0
M  V30 13394 C 1289.96 1.02202 3.45814 0
M  V30 13395 O 1289.06 0.125188 4.1221 0
M  V30 13396 H 1288.4 0.261238 0.610451 0
M  V30 13397 H 1290.93 1.34041 1.54578 0
M  V30 13398 H 1290.94 0.967293 3.96368 0
M  V30 13399 H 1289.62 2.06422 3.61058 0
M  V30 13400 H 1288.2 0.236114 3.72152 0
M  V30 13401 N 1290.38 -1.37203 0.775435 0
M  V30 13402 C 1291.61 -2.04396 0.351737 0
M  V30 13403 C 1292.03 -1.58099 -1.01913 0
M  V30 13404 O 1291.39 -0.742932 -1.65379 0
M  V30 13405 C 1291.44 -3.58283 0.408105 0
M  V30 13406 O 1290.54 -4.08156 -0.590104 0
M  V30 13407 H 1289.88 -0.646451 0.151647 0
M  V30 13408 H 1292.41 -1.75443 1.05265 0
M  V30 13409 H 1292.42 -4.07127 0.266711 0
M  V30 13410 H 1291.1 -3.91335 1.40819 0
M  V30 13411 H 1289.67 -3.70622 -0.411524 0
M  V30 13412 N 1291.86 -0.526279 -1.48553 0
M  V30 13413 C 1293.09 0.0052277 -2.06899 0
M  V30 13414 C 1293.5 1.2849 -1.38332 0
M  V30 13415 O 1292.86 1.76354 -0.469648 0
M  V30 13416 C 1292.91 0.236709 -3.60724 0
M  V30 13417 O 1292.63 -0.992256 -4.26715 0
M  V30 13418 C 1294.13 0.809014 -4.35855 0
M  V30 13419 H 1291.35 -0.0318426 -0.670244 0
M  V30 13420 H 1293.9 -0.730865 -1.90994 0
M  V30 13421 H 1292.05 0.922842 -3.76248 0
M  V30 13422 H 1292.47 -0.770697 -5.18807 0
M  V30 13423 H 1293.94 0.920428 -5.44272 0
M  V30 13424 H 1294.42 1.81302 -4.00033 0
M  V30 13425 H 1295.02 0.159564 -4.25001 0
M  V30 13426 N 1293.34 1.5542 -0.261239 0
M  V30 13427 C 1294.61 1.91243 0.41056 0
M  V30 13428 C 1294.99 1.1838 1.74784 0
M  V30 13429 O 1294.34 0.306013 2.26442 0
M  V30 13430 C 1294.55 3.44404 0.56453 0
M  V30 13431 C 1295.9 4.15927 0.853827 0
M  V30 13432 O 1296.92 3.50222 0.649861 0
M  V30 13433 O 1295.78 5.32175 1.24308 0
M  V30 13434 H 1292.88 0.796491 0.222555 0
M  V30 13435 H 1295.42 1.66912 -0.306367 0
M  V30 13436 H 1294.2 3.89478 -0.377134 0
M  V30 13437 H 1293.82 3.74644 1.33145 0
M  V30 13438 N 1294.82 -0.0116844 1.57596 0
M  V30 13439 C 1296.04 -0.713924 1.94725 0
M  V30 13440 C 1296.47 -1.67157 0.862565 0
M  V30 13441 O 1295.82 -1.80401 -0.180308 0
M  V30 13442 C 1295.87 -1.43214 3.30941 0
M  V30 13443 O 1294.98 -2.5461 3.24419 0
M  V30 13444 H 1294.32 -0.190772 0.636005 0
M  V30 13445 H 1296.85 0.0380247 2.04565 0
M  V30 13446 H 1296.86 -1.79819 3.66237 0
M  V30 13447 H 1295.53 -0.729906 4.09445 0
M  V30 13448 H 1294.11 -2.20419 3.00782 0
M  V30 13449 N 1296.29 -1.55015 -0.284256 0
M  V30 13450 C 1297.24 -1.87898 -1.37102 0
M  V30 13451 C 1298.24 -0.754231 -1.51683 0
M  V30 13452 O 1299.44 -0.93844 -1.53601 0
M  V30 13453 H 1295.82 -0.596208 -0.458301 0
M  V30 13454 H 1297.79 -2.78704 -1.06613 0
M  V30 13455 C 1296.54 -2.15764 -2.72656 0
M  V30 13456 H 1295.86 -3.01792 -2.62224 0
M  V30 13457 H 1297.3 -2.42701 -3.47667 0
M  V30 13458 C 1295.76 -0.961561 -3.22886 0
M  V30 13459 O 1296.29 -0.190489 -4.01248 0
M  V30 13460 N 1294.49 -0.762338 -2.80422 0
M  V30 13461 H 1294.04 -1.39104 -2.16813 0
M  V30 13462 H 1294 0.0363482 -3.14379 0
M  V30 13463 N 1297.77 0.548248 -1.47757 0
M  V30 13464 C 1298.72 1.67553 -1.61335 0
M  V30 13465 C 1299.71 1.62447 -0.480335 0
M  V30 13466 O 1300.92 1.67525 -0.658445 0
M  V30 13467 H 1297.29 0.55457 -0.507894 0
M  V30 13468 H 1299.27 1.53239 -2.56047 0
M  V30 13469 C 1298.01 3.05883 -1.6532 0
M  V30 13470 H 1297.34 3.10497 -2.51856 0
M  V30 13471 H 1298.78 3.84424 -1.78868 0
M  V30 13472 C 1297.24 3.34656 -0.388238 0
M  V30 13473 O 1297.77 3.9849 0.506816 0
M  V30 13474 N 1295.97 2.89384 -0.265514 0
M  V30 13475 H 1295.52 2.37615 -0.994819 0
M  V30 13476 H 1295.48 3.09006 0.579889 0
M  V30 13477 N 1299.25 1.36039 0.795694 0
M  V30 13478 C 1300.16 1.31991 1.93948 0
M  V30 13479 C 1301.18 0.223064 1.72564 0
M  V30 13480 O 1302.35 0.454344 1.96208 0
M  V30 13481 C 1299.42 1.10228 3.28711 0
M  V30 13482 C 1298.48 2.29328 3.62914 0
M  V30 13483 C 1297.71 2.08595 4.91247 0
M  V30 13484 O 1297.93 1.05793 5.60503 0
M  V30 13485 O 1296.87 2.96222 5.23962 0
M  V30 13486 H 1300.69 2.28274 2.00311 0
M  V30 13487 H 1298.28 1.16521 0.935048 0
M  V30 13488 H 1300.16 0.999842 4.09367 0
M  V30 13489 H 1298.84 0.17003 3.23253 0
M  V30 13490 H 1297.74 2.4514 2.8259 0
M  V30 13491 H 1299.08 3.21038 3.73089 0
M  V30 13492 N 1300.73 -1.01913 1.20215 0
M  V30 13493 C 1301.95 -1.79613 1.03702 0
M  V30 13494 C 1302.38 -1.83591 -0.409374 0
M  V30 13495 O 1301.74 -1.26911 -1.29473 0
M  V30 13496 C 1301.78 -3.22052 1.62219 0
M  V30 13497 O 1300.89 -4.03374 0.858106 0
M  V30 13498 H 1300.23 -0.554095 0.365889 0
M  V30 13499 H 1302.76 -1.28203 1.59452 0
M  V30 13500 H 1302.77 -3.72772 1.65847 0
M  V30 13501 H 1301.44 -3.18471 2.67487 0
M  V30 13502 H 1300.02 -3.6198 0.895835 0
M  V30 13503 N 1302.21 -1.00763 -1.2118 0
M  V30 13504 C 1303.15 -0.570257 -2.23644 0
M  V30 13505 C 1304.12 0.405039 -1.61086 0
M  V30 13506 O 1305.31 0.306496 -1.88322 0
M  V30 13507 C 1302.45 0.094325 -3.44971 0
M  V30 13508 C 1301.56 -0.924463 -4.21993 0
M  V30 13509 C 1300.7 -0.231869 -5.30694 0
M  V30 13510 C 1299.74 -1.23803 -5.99449 0
M  V30 13511 N 1298.87 -0.572725 -6.9976 0
M  V30 13512 H 1303.71 -1.44869 -2.60417 0
M  V30 13513 H 1301.25 -0.725369 -1.27972 0
M  V30 13514 H 1303.21 0.496689 -4.14233 0
M  V30 13515 H 1301.84 0.936457 -3.08918 0
M  V30 13516 H 1300.89 -1.44505 -3.51884 0
M  V30 13517 H 1302.2 -1.69004 -4.69296 0
M  V30 13518 H 1301.36 0.226465 -6.06277 0
M  V30 13519 H 1300.09 0.566092 -4.84403 0
M  V30 13520 H 1299.1 -1.70684 -5.22635 0
M  V30 13521 H 1300.32 -2.03711 -6.47826 0
M  V30 13522 H 1298.27 0.205531 -6.55678 0
M  V30 13523 H 1298.19 -1.27651 -7.45145 0
M  V30 13524 H 1299.46 -0.137683 -7.79378 0
M  V30 13525 N 1303.68 1.3679 -0.7827 0
M  V30 13526 C 1304.63 2.30139 -0.174595 0
M  V30 13527 C 1305.6 1.51645 0.677714 0
M  V30 13528 O 1306.79 1.80176 0.627796 0
M  V30 13529 C 1303.93 3.38133 0.689936 0
M  V30 13530 C 1303.04 4.31624 -0.180179 0
M  V30 13531 C 1302.17 5.26698 0.69009 0
M  V30 13532 C 1301.21 6.1183 -0.181891 0
M  V30 13533 N 1300.35 6.99113 0.646977 0
M  V30 13534 H 1305.19 2.81559 -0.97613 0
M  V30 13535 H 1302.73 1.38595 -0.492944 0
M  V30 13536 H 1304.69 3.99386 1.2061 0
M  V30 13537 H 1303.32 2.88049 1.45696 0
M  V30 13538 H 1302.37 3.71583 -0.81425 0
M  V30 13539 H 1303.68 4.91464 -0.852337 0
M  V30 13540 H 1302.83 5.93209 1.27232 0
M  V30 13541 H 1301.57 4.67297 1.3959 0
M  V30 13542 H 1300.58 5.44288 -0.776572 0
M  V30 13543 H 1301.8 6.73306 -0.885195 0
M  V30 13544 H 1299.75 6.42227 1.3372 0
M  V30 13545 H 1299.67 7.55993 0.0323547 0
M  V30 13546 H 1300.93 7.7 1.21325 0
M  V30 13547 N 1305.16 0.53415 1.48272 0
M  V30 13548 C 1306.41 0.00156948 2.021 0
M  V30 13549 C 1306.73 -1.34371 1.41313 0
M  V30 13550 O 1306 -1.87117 0.579996 0
M  V30 13551 H 1304.58 -0.00240789 0.746996 0
M  V30 13552 H 1307.24 0.698928 1.81937 0
M  V30 13553 H 1306.34 -0.103671 3.11928 0
M  V30 13554 N 1306.64 -1.55279 0.269478 0
M  V30 13555 C 1307.59 -2.22304 -0.620435 0
M  V30 13556 C 1308.56 -1.19457 -1.15409 0
M  V30 13557 O 1309.74 -1.4798 -1.20443 0
M  V30 13558 C 1306.88 -2.94356 -1.80134 0
M  V30 13559 C 1306 -4.1191 -1.30207 0
M  V30 13560 C 1305.13 -4.71621 -2.44433 0
M  V30 13561 C 1304.17 -5.81379 -1.91481 0
M  V30 13562 N 1303.31 -6.35176 -2.99158 0
M  V30 13563 H 1308.15 -2.9797 -0.0422165 0
M  V30 13564 H 1305.68 -1.47097 -0.00907173 0
M  V30 13565 H 1307.64 -3.34343 -2.4954 0
M  V30 13566 H 1306.27 -2.21124 -2.35168 0
M  V30 13567 H 1305.32 -3.77082 -0.501301 0
M  V30 13568 H 1306.64 -4.9108 -0.874183 0
M  V30 13569 H 1305.79 -5.14298 -3.21842 0
M  V30 13570 H 1304.53 -3.91715 -2.90535 0
M  V30 13571 H 1303.53 -5.38157 -1.12549 0
M  V30 13572 H 1304.76 -6.63149 -1.46322 0
M  V30 13573 H 1302.7 -5.58167 -3.44652 0
M  V30 13574 H 1302.62 -7.09602 -2.60769 0
M  V30 13575 H 1303.89 -6.82512 -3.7656 0
M  V30 13576 N 1308.12 0.00332656 -1.576 0
M  V30 13577 C 1309.37 0.687508 -1.90047 0
M  V30 13578 C 1309.69 1.74497 -0.870388 0
M  V30 13579 O 1308.96 1.95681 0.0926544 0
M  V30 13580 H 1307.54 0.256924 -0.701426 0
M  V30 13581 H 1310.2 -0.0368129 -1.94865 0
M  V30 13582 H 1309.3 1.16086 -2.89707 0
M  V30 13583 N 1309.6 1.55164 0.276031 0
M  V30 13584 C 1310.56 1.87065 1.32436 0
M  V30 13585 C 1311.56 0.745024 1.42499 0
M  V30 13586 O 1312.75 1.01321 1.41702 0
M  V30 13587 C 1309.88 2.07322 2.70611 0
M  V30 13588 H 1311.07 2.80775 1.05382 0
M  V30 13589 H 1308.63 1.47609 0.513947 0
M  V30 13590 H 1309.36 1.15983 3.0285 0
M  V30 13591 H 1309.15 2.89275 2.64693 0
M  V30 13592 H 1310.64 2.33287 3.46362 0
M  V30 13593 N 1311.07 -0.540404 1.48045 0
M  V30 13594 C 1312.3 -1.32656 1.59427 0
M  V30 13595 C 1312.72 -1.86419 0.250924 0
M  V30 13596 O 1312.08 -1.63861 -0.775838 0
M  V30 13597 C 1312.13 -2.46062 2.63602 0
M  V30 13598 O 1311.23 -3.48794 2.20038 0
M  V30 13599 H 1310.58 -0.393334 0.534962 0
M  V30 13600 H 1313.11 -0.651363 1.93955 0
M  V30 13601 H 1313.12 -2.92396 2.84549 0
M  V30 13602 H 1311.79 -2.06291 3.61133 0
M  V30 13603 H 1310.37 -3.0865 2.0926 0
M  V30 13604 N 1312.55 -1.36459 -0.788468 0
M  V30 13605 C 1313.78 -1.34063 -1.58246 0
M  V30 13606 C 1314.2 0.0754933 -1.87948 0
M  V30 13607 O 1313.56 1.04772 -1.47961 0
M  V30 13608 C 1313.61 -2.17038 -2.8797 0
M  V30 13609 O 1312.71 -1.56353 -3.81612 0
M  V30 13610 H 1312.05 -0.458816 -0.479983 0
M  V30 13611 H 1314.58 -1.79755 -0.977207 0
M  V30 13612 H 1314.59 -2.29651 -3.3723 0
M  V30 13613 H 1313.27 -3.19981 -2.65678 0
M  V30 13614 H 1311.85 -1.52685 -3.40208 0
M  V30 13615 N 1314.03 1.01274 -1.20754 0
M  V30 13616 C 1315.26 1.7906 -1.04653 0
M  V30 13617 C 1315.68 1.83806 0.399632 0
M  V30 13618 O 1315.04 1.27596 1.28798 0
M  V30 13619 C 1315.09 3.21187 -1.63925 0
M  V30 13620 O 1314.19 4.02913 -0.879486 0
M  V30 13621 H 1313.53 0.552147 -0.368823 0
M  V30 13622 H 1316.06 1.27356 -1.6013 0
M  V30 13623 H 1316.07 3.71887 -1.67822 0
M  V30 13624 H 1314.75 3.17048 -2.69172 0
M  V30 13625 H 1313.32 3.61499 -0.915019 0
M  V30 13626 N 1315.51 1.01404 1.20644 0
M  V30 13627 C 1316.74 0.72104 1.93929 0
M  V30 13628 C 1317.15 -0.717853 1.7462 0
M  V30 13629 O 1316.51 -1.48664 1.05855 0
M  V30 13630 C 1316.56 1.04399 3.46097 0
M  V30 13631 O 1316.28 2.42637 3.64773 0
M  V30 13632 C 1317.78 0.771678 4.36532 0
M  V30 13633 H 1315 0.264983 0.616462 0
M  V30 13634 H 1317.55 1.35453 1.53208 0
M  V30 13635 H 1315.7 0.455946 3.84708 0
M  V30 13636 H 1316.12 2.54201 4.58783 0
M  V30 13637 H 1317.59 1.04774 5.41965 0
M  V30 13638 H 1318.07 -0.294188 4.38214 0
M  V30 13639 H 1318.67 1.34176 4.0358 0
M  V30 13640 N 1316.99 -1.36373 0.789944 0
M  V30 13641 C 1317.94 -2.31928 0.17666 0
M  V30 13642 C 1318.93 -1.55831 -0.664316 0
M  V30 13643 O 1320.14 -1.71089 -0.559341 0
M  V30 13644 H 1316.51 -0.751021 0.038353 0
M  V30 13645 H 1318.48 -2.81216 0.998004 0
M  V30 13646 C 1317.23 -3.41112 -0.673646 0
M  V30 13647 H 1316.55 -3.99784 -0.0358875 0
M  V30 13648 H 1317.99 -4.10292 -1.06942 0
M  V30 13649 C 1316.45 -2.82728 -1.83211 0
M  V30 13650 O 1316.98 -2.74935 -2.92871 0
M  V30 13651 N 1315.19 -2.4001 -1.6384 0
M  V30 13652 H 1314.74 -2.46549 -0.746423 0
M  V30 13653 H 1314.69 -2.01294 -2.41512 0
M  V30 13654 N 1318.47 -0.542005 -1.47987 0
M  V30 13655 C 1319.74 0.0526494 -1.95529 0
M  V30 13656 C 1320.12 1.50092 -1.48444 0
M  V30 13657 O 1319.47 2.16981 -0.716347 0
M  V30 13658 C 1319.68 -0.0770524 -3.48915 0
M  V30 13659 C 1321.03 0.0760849 -4.24532 0
M  V30 13660 O 1322.05 -0.00384644 -3.562 0
M  V30 13661 O 1320.91 0.245406 -5.45949 0
M  V30 13662 H 1318.01 0.0726163 -0.823806 0
M  V30 13663 H 1320.55 -0.607454 -1.58455 0
M  V30 13664 H 1319.32 -1.08544 -3.75944 0
M  V30 13665 H 1318.95 0.621357 -3.92715 0
M  V30 13666 N 1319.94 1.55134 -0.277709 0
M  V30 13667 C 1320.91 2.21327 0.595569 0
M  V30 13668 C 1321.91 1.19193 1.07933 0
M  V30 13669 O 1323.1 1.44081 0.979093 0
M  V30 13670 C 1320.23 2.88127 1.82196 0
M  V30 13671 H 1321.42 2.99895 0.0175855 0
M  V30 13672 H 1318.97 1.56274 -0.0283453 0
M  V30 13673 H 1319.71 2.13578 2.44039 0
M  V30 13674 H 1319.49 3.62974 1.48297 0
M  V30 13675 H 1320.98 3.38691 2.44291 0
M  V30 13676 N 1321.42 0.00503138 1.57599 0
M  V30 13677 C 1322.65 -0.693231 1.95471 0
M  V30 13678 C 1323.07 -1.66233 0.880246 0
M  V30 13679 O 1322.43 -1.80582 -0.161164 0
M  V30 13680 C 1322.48 -1.39696 3.32442 0
M  V30 13681 O 1321.58 -2.51154 3.27101 0
M  V30 13682 H 1320.92 -0.184015 0.637992 0
M  V30 13683 H 1323.45 0.0597194 2.04513 0
M  V30 13684 H 1323.46 -1.75924 3.68123 0
M  V30 13685 H 1322.14 -0.686438 4.10196 0
M  V30 13686 H 1320.71 -2.17216 3.03103 0
M  V30 13687 N 1322.9 -1.55308 -0.267798 0
M  V30 13688 C 1324.18 -1.66881 -1.02029 0
M  V30 13689 C 1324.56 -0.538708 -2.04111 0
M  V30 13690 O 1323.9 0.460575 -2.2381 0
M  V30 13691 C 1324.11 -3.06318 -1.67243 0
M  V30 13692 C 1325.46 -3.64237 -2.18212 0
M  V30 13693 O 1326.49 -3.08984 -1.77221 0
M  V30 13694 O 1325.35 -4.61055 -2.93413 0
M  V30 13695 H 1322.44 -0.677967 -0.473593 0
M  V30 13696 H 1324.99 -1.67646 -0.263242 0
M  V30 13697 H 1323.76 -3.80015 -0.932985 0
M  V30 13698 H 1323.38 -3.09475 -2.49622 0
M  V30 13699 N 1324.38 0.532545 -1.4833 0
M  V30 13700 C 1325.79 1.11451 -1.49785 0
M  V30 13701 C 1326.14 1.94386 -0.266207 0
M  V30 13702 O 1325.26 2.07121 0.62688 0
M  V30 13703 C 1325.86 2.0279 -2.71407 0
M  V30 13704 C 1324.42 2.56209 -2.75742 0
M  V30 13705 C 1323.57 1.33114 -2.43261 0
M  V30 13706 H 1326.52 0.317924 -1.55483 0
M  V30 13707 H 1326.54 2.87038 -2.49779 0
M  V30 13708 H 1326.05 1.42401 -3.61031 0
M  V30 13709 H 1324.15 3.20327 -1.9032 0
M  V30 13710 H 1324.26 2.95518 -3.77102 0
M  V30 13711 H 1322.63 1.64607 -1.94362 0
M  V30 13712 H 1323.41 0.744809 -3.35123 0
M  V30 13713 N 1325.86 1.36875 0.78122 0
M  V30 13714 C 1327.08 1.34732 1.57019 0
M  V30 13715 C 1327.5 -0.0695423 1.88672 0
M  V30 13716 O 1326.86 -1.02873 1.50743 0
M  V30 13717 C 1326.91 2.17668 2.88623 0
M  V30 13718 O 1326.63 3.53832 2.5833 0
M  V30 13719 C 1328.13 2.23398 3.82895 0
M  V30 13720 H 1325.35 0.461857 0.486754 0
M  V30 13721 H 1327.89 1.80086 0.968989 0
M  V30 13722 H 1326.05 1.75848 3.4519 0
M  V30 13723 H 1326.46 3.972 3.42538 0
M  V30 13724 H 1327.94 2.85769 4.72271 0
M  V30 13725 H 1328.41 1.23972 4.2134 0
M  V30 13726 H 1329.02 2.65489 3.32258 0
M  V30 13727 N 1327.33 -1.00632 1.21289 0
M  V30 13728 C 1328.56 -1.77967 1.05524 0
M  V30 13729 C 1328.98 -1.84621 -0.395023 0
M  V30 13730 O 1328.33 -1.30664 -1.27409 0
M  V30 13731 C 1328.38 -3.21939 1.64432 0
M  V30 13732 O 1328.11 -3.15669 3.03784 0
M  V30 13733 C 1329.61 -4.1578 1.5376 0
M  V30 13734 H 1326.83 -0.559341 0.370646 0
M  V30 13735 H 1329.37 -1.26604 1.60598 0
M  V30 13736 H 1327.53 -3.70415 1.13453 0
M  V30 13737 H 1327.94 -4.06112 3.31924 0
M  V30 13738 H 1329.41 -5.14602 1.99722 0
M  V30 13739 H 1329.89 -4.36438 0.491811 0
M  V30 13740 H 1330.5 -3.73192 2.0398 0
M  V30 13741 N 1328.81 -1.02043 -1.20104 0
M  V30 13742 C 1329.76 -0.593945 -2.23027 0
M  V30 13743 C 1330.73 0.387931 -1.61506 0
M  V30 13744 O 1331.91 0.286504 -1.88637 0
M  V30 13745 C 1329.05 0.0577309 -3.45052 0
M  V30 13746 C 1328.17 -0.969169 -4.20988 0
M  V30 13747 C 1327.3 -0.288143 -5.30418 0
M  V30 13748 C 1326.34 -1.30154 -5.98102 0
M  V30 13749 N 1325.48 -0.646912 -6.99113 0
M  V30 13750 H 1330.32 -1.47623 -2.58866 0
M  V30 13751 H 1327.85 -0.738901 -1.27195 0
M  V30 13752 H 1329.81 0.452726 -4.14736 0
M  V30 13753 H 1328.44 0.90364 -3.09894 0
M  V30 13754 H 1327.49 -1.48229 -3.50332 0
M  V30 13755 H 1328.81 -1.73972 -4.67477 0
M  V30 13756 H 1327.96 0.162149 -6.06483 0
M  V30 13757 H 1326.7 0.514683 -4.84977 0
M  V30 13758 H 1325.7 -1.76218 -5.20795 0
M  V30 13759 H 1326.93 -2.10571 -6.45629 0
M  V30 13760 H 1324.88 0.135976 -6.55859 0
M  V30 13761 H 1324.79 -1.35548 -7.43749 0
M  V30 13762 H 1326.06 -0.220339 -7.79189 0
M  V30 13763 N 1330.29 1.35952 -0.797165 0
M  V30 13764 C 1331.2 2.33726 -0.202271 0
M  V30 13765 C 1332.22 1.61415 0.649719 0
M  V30 13766 O 1333.39 1.93351 0.563686 0
M  V30 13767 C 1330.46 3.40612 0.64685 0
M  V30 13768 C 1329.52 4.28712 -0.224536 0
M  V30 13769 C 1328.75 5.30493 0.584153 0
M  V30 13770 O 1328.97 5.40599 1.81957 0
M  V30 13771 O 1327.91 6.01897 -0.0200239 0
M  V30 13772 H 1331.73 2.86383 -1.01087 0
M  V30 13773 H 1329.32 1.38557 -0.558768 0
M  V30 13774 H 1331.2 4.05944 1.1308 0
M  V30 13775 H 1329.88 2.90243 1.43321 0
M  V30 13776 H 1328.78 3.66394 -0.755415 0
M  V30 13777 H 1330.12 4.82454 -0.974603 0
M  V30 13778 N 1331.77 0.549846 1.47697 0
M  V30 13779 C 1333.02 0.0230503 2.02487 0
M  V30 13780 C 1333.34 -1.32382 1.42497 0
M  V30 13781 O 1332.6 -1.87293 0.567441 0
M  V30 13782 C 1332.9 -0.127268 3.57173 0
M  V30 13783 C 1332.56 1.14777 4.36047 0
M  V30 13784 C 1331.23 1.49716 4.57317 0
M  V30 13785 C 1333.58 1.99302 4.81589 0
M  V30 13786 C 1330.91 2.69042 5.21376 0
M  V30 13787 C 1333.26 3.17824 5.46965 0
M  V30 13788 C 1331.92 3.53086 5.66469 0
M  V30 13789 H 1331.19 0.00843471 0.740952 0
M  V30 13790 H 1333.84 0.719876 1.77454 0
M  V30 13791 H 1332.14 -0.907008 3.81157 0
M  V30 13792 H 1333.84 -0.550103 3.97209 0
M  V30 13793 H 1330.43 0.865703 4.19766 0
M  V30 13794 H 1334.61 1.73618 4.64942 0
M  V30 13795 H 1329.87 2.9654 5.34672 0
M  V30 13796 H 1334.04 3.83612 5.81218 0
M  V30 13797 H 1331.67 4.45643 6.15878 0
M  V30 13798 N 1333.25 -1.54984 0.285932 0
M  V30 13799 C 1334.16 -2.26621 -0.606648 0
M  V30 13800 C 1335.17 -1.29595 -1.16108 0
M  V30 13801 O 1336.35 -1.62551 -1.18908 0
M  V30 13802 C 1333.41 -2.98156 -1.76929 0
M  V30 13803 C 1332.47 -4.10685 -1.25045 0
M  V30 13804 C 1331.71 -4.788 -2.35768 0
M  V30 13805 O 1331.93 -4.46183 -3.55354 0
M  V30 13806 O 1330.86 -5.66523 -2.03312 0
M  V30 13807 H 1334.69 -3.03689 -0.0259981 0
M  V30 13808 H 1332.28 -1.49306 0.0529355 0
M  V30 13809 H 1334.16 -3.43076 -2.44697 0
M  V30 13810 H 1332.83 -2.23996 -2.33683 0
M  V30 13811 H 1331.74 -3.70198 -0.538919 0
M  V30 13812 H 1333.07 -4.86778 -0.728528 0
M  V30 13813 N 1334.72 -0.0133892 -1.57594 0
M  V30 13814 C 1335.95 0.679255 -1.95432 0
M  V30 13815 C 1336.37 1.66558 -0.889028 0
M  V30 13816 O 1335.72 1.82031 0.130755 0
M  V30 13817 C 1335.78 1.39943 -3.33314 0
M  V30 13818 O 1335.5 0.452643 -4.35755 0
M  V30 13819 C 1337 2.18535 -3.85691 0
M  V30 13820 H 1334.22 0.188337 -0.644026 0
M  V30 13821 H 1336.76 -0.0684861 -2.04385 0
M  V30 13822 H 1334.92 2.0987 -3.25628 0
M  V30 13823 H 1335.33 0.962243 -5.15598 0
M  V30 13824 H 1336.8 2.64403 -4.84557 0
M  V30 13825 H 1337.28 3.01779 -3.19102 0
M  V30 13826 H 1337.89 1.53598 -3.96595 0
M  V30 13827 N 1336.2 1.55448 0.259558 0
M  V30 13828 C 1337.13 1.9226 1.32508 0
M  V30 13829 C 1338.11 0.786012 1.5085 0
M  V30 13830 O 1339.3 1.04526 1.6367 0
M  V30 13831 C 1336.43 2.20627 2.68218 0
M  V30 13832 C 1335.38 3.36418 2.64589 0
M  V30 13833 C 1334.71 3.50295 4.03977 0
M  V30 13834 C 1336.01 4.72452 2.2268 0
M  V30 13835 H 1337.7 2.81509 1.01945 0
M  V30 13836 H 1335.25 1.35444 0.488965 0
M  V30 13837 H 1337.2 2.44968 3.42883 0
M  V30 13838 H 1335.93 1.28191 3.00391 0
M  V30 13839 H 1334.58 3.12065 1.92382 0
M  V30 13840 H 1334.23 2.55302 4.33394 0
M  V30 13841 H 1333.93 4.28155 4.02439 0
M  V30 13842 H 1335.46 3.76944 4.8036 0
M  V30 13843 H 1336.87 4.96249 2.87071 0
M  V30 13844 H 1335.27 5.53323 2.32279 0
M  V30 13845 H 1336.34 4.70367 1.17826 0
M  V30 13846 N 1337.68 -0.524672 1.4861 0
M  V30 13847 C 1338.93 -1.27671 1.5615 0
M  V30 13848 C 1339.24 -1.94088 0.242709 0
M  V30 13849 O 1340.45 -2.70789 0.196407 0
M  V30 13850 C 1338.9 -2.31686 2.75408 0
M  V30 13851 C 1338.51 -1.71315 4.13951 0
M  V30 13852 C 1340.26 -3.07867 2.92264 0
M  V30 13853 C 1338.16 -2.73302 5.24462 0
M  V30 13854 H 1337.09 -0.480177 0.581332 0
M  V30 13855 H 1339.74 -0.553473 1.74954 0
M  V30 13856 H 1338.13 -3.07069 2.50049 0
M  V30 13857 H 1339.3 -1.02085 4.4935 0
M  V30 13858 H 1337.62 -1.07608 4.02255 0
M  V30 13859 H 1340.21 -3.84088 3.71995 0
M  V30 13860 H 1340.56 -3.64052 2.01921 0
M  V30 13861 H 1341.09 -2.39599 3.17549 0
M  V30 13862 H 1337.83 -2.21929 6.16788 0
M  V30 13863 H 1337.35 -3.40843 4.93544 0
M  V30 13864 H 1339.03 -3.36186 5.528 0
M  V30 13865 N 1339.16 -1.37287 -0.77395 0
M  V30 13866 C 1340.11 -1.32872 -1.88716 0
M  V30 13867 C 1341.08 -0.194655 -1.64955 0
M  V30 13868 O 1342.26 -0.383662 -1.86903 0
M  V30 13869 C 1339.4 -1.13934 -3.2575 0
M  V30 13870 C 1338.51 -2.36552 -3.61479 0
M  V30 13871 C 1337.65 -2.10504 -4.87711 0
M  V30 13872 C 1336.69 -3.28999 -5.16165 0
M  V30 13873 N 1335.82 -3.02517 -6.33584 0
M  V30 13874 H 1340.66 -2.28051 -1.91825 0
M  V30 13875 H 1338.2 -1.13325 -0.93786 0
M  V30 13876 H 1340.16 -1.00976 -4.04796 0
M  V30 13877 H 1338.79 -0.22404 -3.22022 0
M  V30 13878 H 1337.84 -2.60257 -2.77435 0
M  V30 13879 H 1339.15 -3.24931 -3.78446 0
M  V30 13880 H 1338.31 -1.94564 -5.74656 0
M  V30 13881 H 1337.05 -1.19459 -4.72843 0
M  V30 13882 H 1336.05 -3.4548 -4.27696 0
M  V30 13883 H 1337.28 -4.20892 -5.32942 0
M  V30 13884 H 1335.22 -2.14099 -6.20079 0
M  V30 13885 H 1335.14 -3.84439 -6.50955 0
M  V30 13886 H 1336.41 -2.9019 -7.23471 0
M  V30 13887 N 1340.64 0.999871 -1.21821 0
M  V30 13888 C 1341.91 1.71135 -0.947213 0
M  V30 13889 C 1342.29 2.04087 0.539601 0
M  V30 13890 O 1341.64 1.71866 1.5058 0
M  V30 13891 C 1341.85 2.96704 -1.8376 0
M  V30 13892 C 1343.2 3.69627 -2.08952 0
M  V30 13893 O 1344.22 3.06697 -1.81151 0
M  V30 13894 O 1343.08 4.82832 -2.55999 0
M  V30 13895 H 1340.18 0.746631 -0.355628 0
M  V30 13896 H 1342.72 1.05684 -1.32774 0
M  V30 13897 H 1341.49 2.68802 -2.84361 0
M  V30 13898 H 1341.12 3.69894 -1.45821 0
M  V30 13899 N 1342.11 1.02678 1.19562 0
M  V30 13900 C 1343.04 0.626359 2.24942 0
M  V30 13901 C 1344.03 -0.363612 1.66168 0
M  V30 13902 O 1345.21 -0.246793 1.92625 0
M  V30 13903 C 1342.34 -0.0257912 3.4729 0
M  V30 13904 C 1341.29 0.886237 4.18724 0
M  V30 13905 C 1340.62 0.0993081 5.34608 0
M  V30 13906 C 1341.92 2.19901 4.73752 0
M  V30 13907 H 1343.61 1.50729 2.58691 0
M  V30 13908 H 1341.16 0.726195 1.24348 0
M  V30 13909 H 1343.11 -0.317545 4.20202 0
M  V30 13910 H 1341.84 -0.941511 3.12735 0
M  V30 13911 H 1340.5 1.16215 3.47692 0
M  V30 13912 H 1340.14 -0.81838 4.96298 0
M  V30 13913 H 1339.84 0.706776 5.83334 0
M  V30 13914 H 1341.37 -0.185754 6.10317 0
M  V30 13915 H 1342.78 1.96892 5.3843 0
M  V30 13916 H 1341.18 2.75821 5.32956 0
M  V30 13917 H 1342.25 2.85509 3.91934 0
M  V30 13918 N 1343.59 -1.35528 0.804364 0
M  V30 13919 C 1344.82 -2.03604 0.395013 0
M  V30 13920 C 1345.24 -1.60225 -0.985371 0
M  V30 13921 O 1344.6 -0.777844 -1.63766 0
M  V30 13922 C 1344.65 -3.57337 0.484011 0
M  V30 13923 O 1343.75 -4.09316 -0.503395 0
M  V30 13924 H 1343.09 -0.643089 0.165325 0
M  V30 13925 H 1345.62 -1.73171 1.08963 0
M  V30 13926 H 1345.63 -4.0647 0.353009 0
M  V30 13927 H 1344.31 -3.8826 1.49088 0
M  V30 13928 H 1342.89 -3.71412 -0.332817 0
M  V30 13929 N 1345.07 -0.557671 -1.47404 0
M  V30 13930 C 1346.03 0.179311 -2.28498 0
M  V30 13931 C 1347.03 0.842281 -1.36975 0
M  V30 13932 O 1348.22 0.698072 -1.59601 0
M  V30 13933 C 1345.36 1.26229 -3.16668 0
M  V30 13934 H 1346.55 -0.533033 -2.95125 0
M  V30 13935 H 1344.1 -0.314634 -1.531 0
M  V30 13936 H 1344.84 2.00702 -2.54733 0
M  V30 13937 H 1344.62 0.791712 -3.84024 0
M  V30 13938 H 1346.11 1.77991 -3.77768 0
M  V30 13939 N 1346.55 1.54831 -0.294147 0
M  V30 13940 C 1347.46 2.26939 0.594621 0
M  V30 13941 C 1348.48 1.30209 1.15419 0
M  V30 13942 O 1349.65 1.6318 1.18044 0
M  V30 13943 C 1346.72 2.9909 1.75345 0
M  V30 13944 C 1345.78 4.11342 1.22865 0
M  V30 13945 C 1345.01 4.80043 2.33225 0
M  V30 13946 O 1345.23 4.48062 3.52983 0
M  V30 13947 O 1344.17 5.67593 2.00304 0
M  V30 13948 H 1347.99 3.03698 0.00989235 0
M  V30 13949 H 1345.58 1.49276 -0.0608528 0
M  V30 13950 H 1347.46 3.44369 2.42875 0
M  V30 13951 H 1346.14 2.25232 2.32492 0
M  V30 13952 H 1345.04 3.70478 0.519279 0
M  V30 13953 H 1346.38 4.87158 0.702703 0
M  V30 13954 N 1348.03 0.0217466 1.57585 0
M  V30 13955 C 1348.98 -0.980624 2.10918 0
M  V30 13956 C 1349.97 -1.34178 1.03406 0
M  V30 13957 O 1351.18 -1.32487 1.21849 0
M  V30 13958 H 1347.55 -0.333984 0.673764 0
M  V30 13959 H 1349.52 -0.505431 2.94088 0
M  V30 13960 C 1348.27 -2.25639 2.64542 0
M  V30 13961 H 1347.59 -1.98722 3.46914 0
M  V30 13962 H 1349.03 -2.94003 3.05513 0
M  V30 13963 C 1347.49 -2.98111 1.56945 0
M  V30 13964 O 1348.02 -3.89937 0.964975 0
M  V30 13965 N 1346.23 -2.60316 1.29166 0
M  V30 13966 H 1345.78 -1.85722 1.78508 0
M  V30 13967 H 1345.73 -3.09116 0.573987 0
M  V30 13968 N 1349.51 -1.55583 -0.251311 0
M  V30 13969 C 1350.75 -1.76859 -0.978031 0
M  V30 13970 C 1351.07 -0.584924 -1.86021 0
M  V30 13971 O 1350.34 0.399456 -1.91784 0
M  V30 13972 H 1348.92 -0.652252 -0.364111 0
M  V30 13973 H 1351.59 -1.93016 -0.270319 0
M  V30 13974 H 1350.68 -2.67828 -1.60233 0
M  V30 13975 N 1350.98 0.516783 -1.48886 0
M  V30 13976 C 1351.91 1.62897 -1.67292 0
M  V30 13977 C 1352.89 1.61903 -0.521671 0
M  V30 13978 O 1354.08 1.78892 -0.755728 0
M  V30 13979 C 1351.21 3.01444 -1.72478 0
M  V30 13980 C 1350.16 3.173 -2.87236 0
M  V30 13981 C 1349.49 4.5704 -2.77522 0
M  V30 13982 C 1350.79 2.98818 -4.28375 0
M  V30 13983 H 1352.48 1.47748 -2.60405 0
M  V30 13984 H 1350.03 0.709361 -1.25316 0
M  V30 13985 H 1351.98 3.79135 -1.83942 0
M  V30 13986 H 1350.71 3.17645 -0.759538 0
M  V30 13987 H 1349.37 2.4203 -2.75349 0
M  V30 13988 H 1349.01 4.70096 -1.78938 0
M  V30 13989 H 1348.71 4.68593 -3.54534 0
M  V30 13990 H 1350.24 5.36813 -2.90972 0
M  V30 13991 H 1351.65 3.66291 -4.41026 0
M  V30 13992 H 1350.05 3.21854 -5.06488 0
M  V30 13993 H 1351.12 1.95102 -4.43918 0
M  V30 13994 N 1352.46 1.37696 0.766659 0
M  V30 13995 C 1353.37 1.36075 1.91104 0
M  V30 13996 C 1354.39 0.259617 1.72052 0
M  V30 13997 O 1355.56 0.49586 1.952 0
M  V30 13998 C 1352.63 1.17176 3.26298 0
M  V30 13999 C 1351.69 2.36975 3.57968 0
M  V30 14000 C 1350.92 2.18968 4.86712 0
M  V30 14001 O 1351.15 1.17658 5.58133 0
M  V30 14002 O 1350.08 3.07269 5.17561 0
M  V30 14003 H 1353.91 2.32472 1.95424 0
M  V30 14004 H 1351.49 1.18478 0.910122 0
M  V30 14005 H 1353.37 1.08645 4.07154 0
M  V30 14006 H 1352.05 0.238559 3.2282 0
M  V30 14007 H 1350.95 2.51079 2.77327 0
M  V30 14008 H 1352.29 3.2888 3.66195 0
M  V30 14009 N 1353.94 -0.993397 1.22349 0
M  V30 14010 C 1355.16 -1.77373 1.07488 0
M  V30 14011 C 1355.59 -1.84418 -0.37034 0
M  V30 14012 O 1354.95 -1.29629 -1.26752 0
M  V30 14013 C 1355 -3.18538 1.69014 0
M  V30 14014 O 1354.1 -4.01463 0.943474 0
M  V30 14015 H 1353.44 -0.546209 0.37756 0
M  V30 14016 H 1355.97 -1.24792 1.62136 0
M  V30 14017 H 1355.98 -3.6917 1.73717 0
M  V30 14018 H 1354.66 -3.12725 2.74182 0
M  V30 14019 H 1353.23 -3.59998 0.972415 0
M  V30 14020 N 1355.42 -1.03311 -1.19015 0
M  V30 14021 C 1356.35 -0.638279 -2.24607 0
M  V30 14022 C 1357.33 0.354795 -1.66359 0
M  V30 14023 O 1358.51 0.236574 -1.92754 0
M  V30 14024 C 1355.64 0.00737316 -3.47299 0
M  V30 14025 C 1354.6 -0.908431 -4.18248 0
M  V30 14026 C 1353.92 -0.127658 -5.34548 0
M  V30 14027 C 1355.22 -2.2241 -4.72579 0
M  V30 14028 H 1356.92 -1.52099 -2.57888 0
M  V30 14029 H 1354.46 -0.732779 -1.23961 0
M  V30 14030 H 1356.42 0.295256 -4.20364 0
M  V30 14031 H 1355.14 0.924912 -3.1323 0
M  V30 14032 H 1353.8 -1.18058 -3.47071 0
M  V30 14033 H 1353.45 0.792048 -4.96725 0
M  V30 14034 H 1353.15 -0.737702 -5.82951 0
M  V30 14035 H 1354.67 0.153385 -6.10407 0
M  V30 14036 H 1356.09 -1.99745 -5.37378 0
M  V30 14037 H 1354.48 -2.78644 -5.31486 0
M  V30 14038 H 1355.55 -2.87584 -3.90415 0
M  V30 14039 N 1356.9 1.35099 -0.81154 0
M  V30 14040 C 1357.83 2.2756 -0.170838 0
M  V30 14041 C 1358.81 1.48331 0.666085 0
M  V30 14042 O 1359.99 1.77579 0.632294 0
M  V30 14043 C 1357.12 3.30006 0.762483 0
M  V30 14044 C 1356.16 4.265 0.00454934 0
M  V30 14045 S 1357 5.18595 -1.33488 0
M  V30 14046 C 1358.15 6.24581 -0.406132 0
M  V30 14047 H 1358.39 2.81553 -0.95475 0
M  V30 14048 H 1355.92 1.41974 -0.606851 0
M  V30 14049 H 1357.88 3.89523 1.29545 0
M  V30 14050 H 1356.54 2.74882 1.51982 0
M  V30 14051 H 1355.73 4.98922 0.71361 0
M  V30 14052 H 1355.33 3.71178 -0.458613 0
M  V30 14053 H 1357.62 6.76278 0.406707 0
M  V30 14054 H 1358.57 6.99509 -1.09969 0
M  V30 14055 H 1358.98 5.645 0.000376348 0
M  V30 14056 N 1358.37 0.56548 1.47106 0
M  V30 14057 C 1359.3 -0.16567 2.32912 0
M  V30 14058 C 1360.28 -0.900678 1.44298 0
M  V30 14059 O 1361.47 -0.879523 1.73142 0
M  V30 14060 C 1358.6 -1.19092 3.26243 0
M  V30 14061 C 1357.55 -0.571849 4.24163 0
M  V30 14062 C 1356.88 -1.70233 5.06878 0
M  V30 14063 C 1358.18 0.479785 5.20092 0
M  V30 14064 H 1359.87 0.550705 2.94292 0
M  V30 14065 H 1357.42 0.266284 1.41517 0
M  V30 14066 H 1359.37 -1.71064 3.85117 0
M  V30 14067 H 1358.1 -1.93734 2.62934 0
M  V30 14068 H 1356.76 -0.073353 3.66527 0
M  V30 14069 H 1356.4 -2.438 4.39967 0
M  V30 14070 H 1356.1 -1.29384 5.73178 0
M  V30 14071 H 1357.63 -2.22515 5.68612 0
M  V30 14072 H 1359.04 0.0458042 5.73282 0
M  V30 14073 H 1357.44 0.807615 5.94641 0
M  V30 14074 H 1358.51 1.37259 4.65068 0
M  V30 14075 N 1359.85 -1.54672 0.302354 0
M  V30 14076 C 1361.27 -1.59519 -0.0509899 0
M  V30 14077 C 1361.47 -1.31931 -1.52304 0
M  V30 14078 O 1360.52 -1.09338 -2.27599 0
M  V30 14079 C 1361.84 -2.98678 0.348168 0
M  V30 14080 C 1363.39 -3.11587 0.297046 0
M  V30 14081 C 1363.86 -4.53057 0.671046 0
M  V30 14082 N 1365.35 -4.58983 0.623633 0
M  V30 14083 C 1366.09 -5.66522 0.885476 0
M  V30 14084 N 1365.58 -6.82092 1.21336 0
M  V30 14085 N 1367.38 -5.56198 0.812448 0
M  V30 14086 H 1359.53 -1.70865 1.2617 0
M  V30 14087 H 1361.79 -0.798099 0.511608 0
M  V30 14088 H 1361.5 -3.23794 1.37297 0
M  V30 14089 H 1361.37 -3.76025 -0.297505 0
M  V30 14090 H 1363.76 -2.86219 -0.718515 0
M  V30 14091 H 1363.84 -2.36392 0.977361 0
M  V30 14092 H 1363.48 -4.79155 1.68442 0
M  V30 14093 H 1363.41 -5.26591 -0.0313537 0
M  V30 14094 H 1365.9 -3.75972 0.381203 0
M  V30 14095 H 1366.22 -7.6003 1.39909 0
M  V30 14096 H 1364.56 -6.83641 1.25141 0
M  V30 14097 H 1367.75 -4.64787 0.555939 0
M  V30 14098 H 1367.92 -6.39924 1.01988 0
M  V30 14099 N 1361.33 -0.0301034 -1.57571 0
M  V30 14100 C 1362.56 0.662045 -1.9655 0
M  V30 14101 C 1362.98 1.64811 -0.906581 0
M  V30 14102 O 1362.34 1.80816 0.132415 0
M  V30 14103 C 1362.39 1.34389 -3.34622 0
M  V30 14104 O 1361.49 2.45919 -3.31056 0
M  V30 14105 H 1360.83 0.173842 -0.640839 0
M  V30 14106 H 1363.36 -0.092248 -2.04392 0
M  V30 14107 H 1363.37 1.70045 -3.70875 0
M  V30 14108 H 1362.05 0.621092 -4.11236 0
M  V30 14109 H 1360.62 2.12367 -3.06521 0
M  V30 14110 N 1362.81 1.55714 0.243056 0
M  V30 14111 C 1364.03 1.82126 0.992219 0
M  V30 14112 C 1364.46 0.607665 1.78014 0
M  V30 14113 O 1363.82 -0.443351 1.75796 0
M  V30 14114 C 1363.86 3.06314 1.90274 0
M  V30 14115 O 1362.97 2.83499 2.99503 0
M  V30 14116 H 1362.31 0.601082 0.282128 0
M  V30 14117 H 1364.84 2.02904 0.262881 0
M  V30 14118 H 1364.85 3.35849 2.31666 0
M  V30 14119 H 1363.52 3.94282 1.32344 0
M  V30 14120 H 1362.1 2.65141 2.62211 0
M  V30 14121 N 1364.29 -0.50888 1.49158 0
M  V30 14122 C 1365.51 -1.29245 1.62205 0
M  V30 14123 C 1365.94 -1.85845 0.29041 0
M  V30 14124 O 1365.29 -1.6547 -0.740906 0
M  V30 14125 C 1365.34 -2.40415 2.68762 0
M  V30 14126 O 1364.45 -3.44048 2.27387 0
M  V30 14127 H 1363.79 -0.381898 0.543185 0
M  V30 14128 H 1366.32 -0.610076 1.95293 0
M  V30 14129 H 1366.33 -2.86295 2.90688 0
M  V30 14130 H 1365 -1.98584 3.65427 0
M  V30 14131 H 1363.58 -3.04141 2.1576 0
M  V30 14132 N 1365.76 -1.381 -0.759346 0
M  V30 14133 C 1366.71 -1.34972 -1.89434 0
M  V30 14134 C 1367.71 -0.236499 -1.67741 0
M  V30 14135 O 1368.91 -0.405218 -1.7538 0
M  V30 14136 H 1365.29 -0.420922 -0.62316 0
M  V30 14137 H 1367.26 -2.3076 -1.89189 0
M  V30 14138 C 1366.01 -1.18594 -3.2685 0
M  V30 14139 H 1365.33 -2.03514 -3.44125 0
M  V30 14140 H 1366.77 -1.20458 -4.06529 0
M  V30 14141 C 1365.23 0.107562 -3.36728 0
M  V30 14142 O 1365.76 1.08668 -3.86722 0
M  V30 14143 N 1363.97 0.162455 -2.90146 0
M  V30 14144 H 1363.51 -0.634985 -2.49651 0
M  V30 14145 H 1363.47 1.02751 -2.97136 0
M  V30 14146 N 1367.24 0.986894 -1.22875 0
M  V30 14147 C 1368.17 2.09628 -1.0285 0
M  V30 14148 C 1369.15 1.70019 0.0525118 0
M  V30 14149 O 1370.34 1.93883 -0.110874 0
M  V30 14150 C 1367.47 3.41866 -0.61194 0
M  V30 14151 C 1366.42 3.95351 -1.63956 0
M  V30 14152 C 1365.75 5.23707 -1.07865 0
M  V30 14153 C 1367.05 4.25354 -3.03102 0
M  V30 14154 H 1368.74 2.26639 -1.95641 0
M  V30 14155 H 1366.29 1.0891 -0.942048 0
M  V30 14156 H 1368.24 4.18893 -0.458936 0
M  V30 14157 H 1366.97 3.24701 0.35164 0
M  V30 14158 H 1365.62 3.20462 -1.78045 0
M  V30 14159 H 1365.27 5.02888 -0.106246 0
M  V30 14160 H 1364.97 5.60459 -1.76522 0
M  V30 14161 H 1366.5 6.03362 -0.937359 0
M  V30 14162 H 1367.91 4.93156 -2.92353 0
M  V30 14163 H 1366.31 4.73292 -3.68938 0
M  V30 14164 H 1367.38 3.32887 -3.52583 0
M  V30 14165 N 1368.72 1.0394 1.18466 0
M  V30 14166 C 1369.68 0.633804 2.20262 0
M  V30 14167 C 1370.68 -0.308136 1.5782 0
M  V30 14168 O 1371.87 -0.0937087 1.73948 0
M  V30 14169 C 1369.01 -0.0709693 3.40826 0
M  V30 14170 H 1370.2 1.53463 2.57661 0
M  V30 14171 H 1367.75 0.831806 1.32328 0
M  V30 14172 H 1368.49 -0.985659 3.08958 0
M  V30 14173 H 1368.27 0.606023 3.87388 0
M  V30 14174 H 1369.76 -0.341298 4.16203 0
M  V30 14175 N 1370.2 -1.34667 0.818693 0
M  V30 14176 C 1371.13 -2.32134 0.252239 0
M  V30 14177 C 1372.11 -1.58044 -0.628982 0
M  V30 14178 O 1373.29 -1.86049 -0.55674 0
M  V30 14179 C 1370.42 -3.42249 -0.590183 0
M  V30 14180 C 1369.38 -4.27562 0.193547 0
M  V30 14181 C 1368.7 -5.29107 -0.771349 0
M  V30 14182 C 1370 -5.03205 1.39936 0
M  V30 14183 H 1371.7 -2.79758 1.06657 0
M  V30 14184 H 1369.24 -1.34502 0.514325 0
M  V30 14185 H 1371.2 -4.09445 -0.996616 0
M  V30 14186 H 1369.92 -2.93262 -1.43752 0
M  V30 14187 H 1368.58 -3.61962 0.581297 0
M  V30 14188 H 1368.23 -4.76384 -1.61453 0
M  V30 14189 H 1367.93 -5.87063 -0.251201 0
M  V30 14190 H 1369.45 -5.99174 -1.17573 0
M  V30 14191 H 1370.87 -5.6328 1.06717 0
M  V30 14192 H 1369.26 -5.70715 1.85485 0
M  V30 14193 H 1370.33 -4.33145 2.17976 0
M  V30 14194 N 1371.68 -0.573274 -1.46804 0
M  V30 14195 C 1372.64 0.155066 -2.28675 0
M  V30 14196 C 1373.64 0.827706 -1.37861 0
M  V30 14197 O 1374.83 0.681105 -1.60333 0
M  V30 14198 C 1371.96 1.22864 -3.1799 0
M  V30 14199 H 1373.15 -0.564305 -2.94543 0
M  V30 14200 H 1370.71 -0.330855 -1.52758 0
M  V30 14201 H 1371.44 1.97989 -2.56848 0
M  V30 14202 H 1371.23 0.750936 -3.84842 0
M  V30 14203 H 1372.72 1.73974 -3.79635 0
M  V30 14204 N 1373.15 1.5451 -0.310553 0
M  V30 14205 C 1374.08 2.26827 0.554243 0
M  V30 14206 C 1375.07 1.27133 1.13009 0
M  V30 14207 O 1376.25 1.55923 1.15765 0
M  V30 14208 C 1373.38 3.01626 1.7216 0
M  V30 14209 C 1372.33 4.08547 1.27566 0
M  V30 14210 C 1371.66 4.71115 2.52893 0
M  V30 14211 C 1372.96 5.20766 0.399955 0
M  V30 14212 H 1374.65 2.9936 -0.0489475 0
M  V30 14213 H 1372.2 1.43978 -0.0249817 0
M  V30 14214 H 1374.15 3.50942 2.33276 0
M  V30 14215 H 1372.88 2.26688 2.35118 0
M  V30 14216 H 1371.54 3.60096 0.687499 0
M  V30 14217 H 1371.18 3.92805 3.14186 0
M  V30 14218 H 1370.88 5.43331 2.23752 0
M  V30 14219 H 1372.41 5.23198 3.14796 0
M  V30 14220 H 1373.82 5.65918 0.917054 0
M  V30 14221 H 1372.22 5.9976 0.2019 0
M  V30 14222 H 1373.29 4.81508 -0.572537 0
M  V30 14223 N 1374.63 0.0384594 1.57553 0
M  V30 14224 C 1375.86 -0.647137 1.96203 0
M  V30 14225 C 1376.27 -1.65656 0.914042 0
M  V30 14226 O 1375.61 -1.83361 -0.111617 0
M  V30 14227 C 1375.68 -1.40193 3.31038 0
M  V30 14228 C 1375.34 -0.549782 4.53681 0
M  V30 14229 C 1376.34 0.178839 5.19592 0
M  V30 14230 C 1374.02 -0.48444 4.99958 0
M  V30 14231 C 1376.02 0.961376 6.30108 0
M  V30 14232 C 1373.7 0.301795 6.10354 0
M  V30 14233 C 1374.7 1.0234 6.75289 0
M  V30 14234 O 1374.39 1.79673 7.83564 0
M  V30 14235 H 1374.12 -0.182651 0.650857 0
M  V30 14236 H 1376.68 0.0973346 2.05169 0
M  V30 14237 H 1374.91 -2.19175 3.1859 0
M  V30 14238 H 1376.59 -1.97653 3.54525 0
M  V30 14239 H 1377.36 0.137749 4.84804 0
M  V30 14240 H 1373.24 -1.03568 4.49216 0
M  V30 14241 H 1376.78 1.52513 6.80724 0
M  V30 14242 H 1372.68 0.344569 6.4458 0
M  V30 14243 H 1373.45 1.71749 8.00278 0
M  V30 14244 N 1376.11 -1.55841 -0.234795 0
M  V30 14245 C 1377.53 -1.48536 -0.583885 0
M  V30 14246 C 1377.73 -0.731018 -1.87772 0
M  V30 14247 O 1376.78 -0.265287 -2.51103 0
M  V30 14248 C 1378.1 -2.93017 -0.675389 0
M  V30 14249 C 1379.64 -3.03459 -0.766906 0
M  V30 14250 C 1380.12 -4.49272 -0.889868 0
M  V30 14251 N 1381.61 -4.5326 -0.95443 0
M  V30 14252 C 1382.35 -5.63346 -1.06905 0
M  V30 14253 N 1381.84 -6.83215 -1.14845 0
M  V30 14254 N 1383.63 -5.51169 -1.10315 0
M  V30 14255 H 1375.79 -2.0332 0.614405 0
M  V30 14256 H 1378.05 -0.923581 0.213779 0
M  V30 14257 H 1377.75 -3.51099 0.205493 0
M  V30 14258 H 1377.63 -3.4418 -1.54337 0
M  V30 14259 H 1380.02 -2.4545 -1.63823 0
M  V30 14260 H 1380.1 -2.55487 0.126472 0
M  V30 14261 H 1379.74 -5.07895 -0.0230489 0
M  V30 14262 H 1379.67 -4.94937 -1.79847 0
M  V30 14263 H 1382.16 -3.6693 -0.903923 0
M  V30 14264 H 1382.47 -7.62863 -1.23532 0
M  V30 14265 H 1380.82 -6.85952 -1.11781 0
M  V30 14266 H 1384.01 -4.56453 -1.03769 0
M  V30 14267 H 1384.18 -6.36998 -1.18903 0
M  V30 14268 N 1377.59 0.500963 -1.49426 0
M  V30 14269 C 1378.82 1.27725 -1.62388 0
M  V30 14270 C 1379.23 1.86893 -0.294544 0
M  V30 14271 O 1378.57 1.68571 0.73003 0
M  V30 14272 C 1378.63 2.44649 -2.63414 0
M  V30 14273 C 1378.3 2.0635 -4.0776 0
M  V30 14274 C 1379.29 1.60323 -4.94563 0
M  V30 14275 C 1376.98 2.15984 -4.53493 0
M  V30 14276 C 1378.97 1.24433 -6.25136 0
M  V30 14277 C 1376.66 1.79706 -5.8408 0
M  V30 14278 C 1377.66 1.34005 -6.69725 0
M  V30 14279 O 1377.35 0.982171 -7.97878 0
M  V30 14280 H 1377.08 0.393595 -0.549599 0
M  V30 14281 H 1379.63 0.607944 -1.96197 0
M  V30 14282 H 1377.86 3.14656 -2.24785 0
M  V30 14283 H 1379.55 3.06675 -2.65905 0
M  V30 14284 H 1380.32 1.52326 -4.60458 0
M  V30 14285 H 1376.2 2.50507 -3.86998 0
M  V30 14286 H 1379.74 0.886906 -6.91939 0
M  V30 14287 H 1375.64 1.87352 -6.17713 0
M  V30 14288 H 1376.4 1.11364 -8.10889 0
M  V30 14289 N 1379.07 1.38501 0.752011 0
M  V30 14290 C 1380.02 1.32359 1.85648 0
M  V30 14291 C 1381 0.207578 1.59555 0
M  V30 14292 O 1382.19 0.443683 1.71349 0
M  V30 14293 C 1379.32 1.15253 3.23375 0
M  V30 14294 C 1378.41 2.31483 3.55354 0
M  V30 14295 N 1378.8 3.56929 3.58379 0
M  V30 14296 C 1377.1 2.2407 3.85628 0
M  V30 14297 C 1377.8 4.33691 3.87669 0
M  V30 14298 N 1376.77 3.63065 4.04579 0
M  V30 14299 H 1380.58 2.27336 1.86267 0
M  V30 14300 H 1378.09 1.31755 0.949441 0
M  V30 14301 H 1380.09 1.08937 4.02416 0
M  V30 14302 H 1378.75 0.212108 3.24006 0
M  V30 14303 H 1379.76 3.90578 3.40101 0
M  V30 14304 H 1376.44 1.38196 3.93965 0
M  V30 14305 H 1377.83 5.42349 3.9662 0
M  V30 14306 N 1380.55 -0.980364 1.23396 0
M  V30 14307 C 1381.77 -1.76223 1.09363 0
M  V30 14308 C 1382.2 -1.84801 -0.350759 0
M  V30 14309 O 1381.55 -1.30966 -1.2537 0
M  V30 14310 C 1381.6 -3.16728 1.72383 0
M  V30 14311 O 1380.71 -4.00439 0.986002 0
M  V30 14312 H 1380.05 -0.542174 0.383332 0
M  V30 14313 H 1382.58 -1.23066 1.6345 0
M  V30 14314 H 1382.59 -3.67307 1.77623 0
M  V30 14315 H 1381.26 -3.098 2.77483 0
M  V30 14316 H 1379.84 -3.58946 1.01054 0
M  V30 14317 N 1382.02 -1.04567 -1.17913 0
M  V30 14318 C 1383.25 -0.771084 -1.91671 0
M  V30 14319 C 1383.66 0.676261 -1.76701 0
M  V30 14320 O 1383 1.47314 -1.09746 0
M  V30 14321 C 1383.07 -1.06406 -3.43392 0
M  V30 14322 C 1382.73 -2.50632 -3.82142 0
M  V30 14323 C 1383.73 -3.48825 -3.85509 0
M  V30 14324 C 1381.41 -2.85476 -4.1329 0
M  V30 14325 C 1383.41 -4.79909 -4.19483 0
M  V30 14326 C 1381.09 -4.16766 -4.46934 0
M  V30 14327 C 1382.09 -5.13793 -4.50007 0
M  V30 14328 O 1381.78 -6.42728 -4.82862 0
M  V30 14329 H 1381.51 -0.280258 -0.615168 0
M  V30 14330 H 1384.07 -1.39781 -1.50501 0
M  V30 14331 H 1382.3 -0.380221 -3.84826 0
M  V30 14332 H 1383.98 -0.776475 -3.98404 0
M  V30 14333 H 1384.75 -3.23245 -3.61577 0
M  V30 14334 H 1380.63 -2.10621 -4.10073 0
M  V30 14335 H 1384.17 -5.55638 -4.21796 0
M  V30 14336 H 1380.07 -4.42111 -4.70328 0
M  V30 14337 H 1380.84 -6.47454 -5.00744 0
M  V30 14338 N 1383.5 1.34231 -0.825823 0
M  V30 14339 C 1384.45 2.29467 -0.247724 0
M  V30 14340 C 1385.42 1.53724 0.629127 0
M  V30 14341 O 1386.6 1.82082 0.570156 0
M  V30 14342 C 1383.74 3.40157 0.582012 0
M  V30 14343 C 1382.86 4.30832 -0.317406 0
M  V30 14344 C 1381.99 5.28627 0.522176 0
M  V30 14345 C 1381.03 6.10941 -0.376448 0
M  V30 14346 N 1380.17 7.00817 0.424232 0
M  V30 14347 H 1385.01 2.78311 -1.06521 0
M  V30 14348 H 1382.54 1.36956 -0.536788 0
M  V30 14349 H 1384.5 4.03021 1.07843 0
M  V30 14350 H 1383.13 2.92539 1.36459 0
M  V30 14351 H 1382.18 3.68805 -0.932054 0
M  V30 14352 H 1383.5 4.88503 -1.00826 0
M  V30 14353 H 1382.65 5.96957 1.08295 0
M  V30 14354 H 1381.39 4.71501 1.24652 0
M  V30 14355 H 1380.39 5.41542 -0.94934 0
M  V30 14356 H 1381.62 6.70149 -1.09895 0
M  V30 14357 H 1379.57 6.46156 1.1322 0
M  V30 14358 H 1379.48 7.55713 -0.208175 0
M  V30 14359 H 1380.75 7.7347 0.967664 0
M  V30 14360 N 1384.98 0.581051 1.46498 0
M  V30 14361 C 1386.26 -0.000789846 1.956 0
M  V30 14362 C 1386.64 -1.46104 1.52371 0
M  V30 14363 O 1385.98 -2.15005 0.773623 0
M  V30 14364 C 1386.19 0.169534 3.48588 0
M  V30 14365 C 1387.54 0.036499 4.24584 0
M  V30 14366 O 1388.57 0.0982852 3.56064 0
M  V30 14367 O 1387.43 -0.100571 5.46407 0
M  V30 14368 H 1384.52 -0.050749 0.825441 0
M  V30 14369 H 1387.07 0.649252 1.56789 0
M  V30 14370 H 1385.84 1.18473 3.72934 0
M  V30 14371 H 1385.46 -0.517017 3.94224 0
M  V30 14372 N 1386.46 -1.54343 0.318742 0
M  V30 14373 C 1387.39 -2.27118 -0.542206 0
M  V30 14374 C 1388.37 -1.27731 -1.12334 0
M  V30 14375 O 1389.55 -1.56535 -1.14937 0
M  V30 14376 C 1386.68 -3.02535 -1.70558 0
M  V30 14377 C 1385.64 -4.09218 -1.25398 0
M  V30 14378 C 1384.96 -4.72449 -2.50391 0
M  V30 14379 C 1386.26 -5.20971 -0.372332 0
M  V30 14380 H 1387.96 -2.9933 0.0648226 0
M  V30 14381 H 1385.5 -1.43963 0.0326168 0
M  V30 14382 H 1387.46 -3.52174 -2.31412 0
M  V30 14383 H 1386.18 -2.27931 -2.33912 0
M  V30 14384 H 1384.84 -3.60455 -0.668392 0
M  V30 14385 H 1384.49 -3.94466 -3.12099 0
M  V30 14386 H 1384.19 -5.4451 -2.20868 0
M  V30 14387 H 1385.71 -5.2486 -3.12016 0
M  V30 14388 H 1387.13 -5.66396 -0.887029 0
M  V30 14389 H 1385.52 -5.99859 -0.17009 0
M  V30 14390 H 1386.59 -4.81198 0.598064 0
M  V30 14391 N 1387.94 -0.0468143 -1.5753 0
M  V30 14392 C 1389.16 0.641161 -1.97241 0
M  V30 14393 C 1389.59 1.6384 -0.92401 0
M  V30 14394 O 1388.94 1.80946 0.113229 0
M  V30 14395 C 1388.99 1.30832 -3.36029 0
M  V30 14396 O 1388.1 2.42394 -3.33645 0
M  V30 14397 H 1387.44 0.167035 -0.642647 0
M  V30 14398 H 1389.97 -0.113921 -2.04283 0
M  V30 14399 H 1389.98 1.66102 -3.72658 0
M  V30 14400 H 1388.65 0.57744 -4.11872 0
M  V30 14401 H 1387.23 2.09104 -3.08756 0
M  V30 14402 N 1389.41 1.55964 0.226527 0
M  V30 14403 C 1390.32 1.95169 1.30178 0
M  V30 14404 C 1391.34 0.854831 1.51554 0
M  V30 14405 O 1392.52 1.15798 1.64781 0
M  V30 14406 C 1389.58 2.25612 2.63249 0
M  V30 14407 C 1388.64 3.4884 2.50219 0
M  V30 14408 C 1387.88 3.77822 3.76944 0
M  V30 14409 O 1388.1 3.08556 4.79739 0
M  V30 14410 O 1387.03 4.7132 3.74354 0
M  V30 14411 H 1390.86 2.86794 0.999145 0
M  V30 14412 H 1388.44 1.43109 0.42898 0
M  V30 14413 H 1390.33 2.4641 3.41848 0
M  V30 14414 H 1389 1.37162 2.93203 0
M  V30 14415 H 1387.91 3.33326 1.69836 0
M  V30 14416 H 1389.24 4.37657 2.25205 0
M  V30 14417 N 1390.89 -0.493031 1.4969 0
M  V30 14418 C 1392.14 -1.24664 1.59578 0
M  V30 14419 C 1392.47 -1.92385 0.286075 0
M  V30 14420 O 1391.72 -1.81712 -0.726586 0
M  V30 14421 C 1392.02 -2.33014 2.70997 0
M  V30 14422 C 1391.69 -1.82697 4.12229 0
M  V30 14423 C 1390.35 -1.68694 4.50662 0
M  V30 14424 C 1392.7 -1.45127 5.00587 0
M  V30 14425 C 1390.03 -1.15512 5.75216 0
M  V30 14426 C 1392.38 -0.933951 6.25668 0
M  V30 14427 C 1391.05 -0.780378 6.62923 0
M  V30 14428 H 1390.32 -0.456178 0.583937 0
M  V30 14429 H 1392.96 -0.546091 1.83549 0
M  V30 14430 H 1391.27 -3.08889 2.41029 0
M  V30 14431 H 1392.96 -2.91041 2.75855 0
M  V30 14432 H 1389.55 -1.94557 3.81897 0
M  V30 14433 H 1393.74 -1.5479 4.71544 0
M  V30 14434 H 1388.99 -1.0234 6.02774 0
M  V30 14435 H 1393.17 -0.634088 6.93507 0
M  V30 14436 H 1390.8 -0.366111 7.59318 0
M  V30 14437 N 1392.37 -1.38898 -0.744656 0
M  V30 14438 C 1393.3 -1.39571 -1.87195 0
M  V30 14439 C 1394.28 -0.260372 -1.68095 0
M  V30 14440 O 1395.47 -0.464776 -1.88556 0
M  V30 14441 C 1392.6 -1.22889 -3.24832 0
M  V30 14442 C 1391.55 -2.33721 -3.58551 0
M  V30 14443 C 1390.88 -2.02136 -4.9502 0
M  V30 14444 C 1392.18 -3.7601 -3.62511 0
M  V30 14445 H 1393.87 -2.33908 -1.86889 0
M  V30 14446 H 1391.42 -1.12591 -0.897739 0
M  V30 14447 H 1393.37 -1.21983 -4.03359 0
M  V30 14448 H 1392.09 -0.250172 -3.2564 0
M  V30 14449 H 1390.75 -2.33828 -2.82348 0
M  V30 14450 H 1390.4 -1.02726 -4.92399 0
M  V30 14451 H 1390.1 -2.76371 -5.18549 0
M  V30 14452 H 1391.62 -2.02864 -5.75915 0
M  V30 14453 H 1393.04 -3.77885 -4.31133 0
M  V30 14454 H 1391.44 -4.49524 -3.97553 0
M  V30 14455 H 1392.51 -4.07682 -2.62533 0
M  V30 14456 N 1393.85 0.973806 -1.23914 0
M  V30 14457 C 1395.26 1.24128 -1.00322 0
M  V30 14458 C 1395.46 1.99378 0.29169 0
M  V30 14459 O 1394.52 2.31445 1.00943 0
M  V30 14460 C 1395.83 2.03438 -2.21435 0
M  V30 14461 C 1397.38 2.16553 -2.25995 0
M  V30 14462 C 1397.86 2.99257 -3.46712 0
M  V30 14463 N 1399.35 3.0684 -3.46992 0
M  V30 14464 C 1400.08 3.71174 -4.37055 0
M  V30 14465 N 1399.58 4.37277 -5.37364 0
M  V30 14466 N 1401.37 3.68126 -4.24782 0
M  V30 14467 H 1393.52 0.469872 -2.07138 0
M  V30 14468 H 1395.79 0.270234 -0.908668 0
M  V30 14469 H 1395.49 1.55527 -3.15443 0
M  V30 14470 H 1395.37 3.0418 -2.23057 0
M  V30 14471 H 1397.75 2.6367 -1.32522 0
M  V30 14472 H 1397.83 1.15179 -2.28402 0
M  V30 14473 H 1397.48 2.52835 -4.40496 0
M  V30 14474 H 1397.41 4.00815 -3.41547 0
M  V30 14475 H 1399.9 2.59813 -2.74419 0
M  V30 14476 H 1400.21 4.84166 -6.02331 0
M  V30 14477 H 1398.56 4.35965 -5.41257 0
M  V30 14478 H 1401.75 3.15657 -3.45656 0
M  V30 14479 H 1401.92 4.17981 -4.95173 0
M  V30 14480 N 1395.33 1.05191 1.17357 0
M  V30 14481 C 1396.57 0.760479 1.87246 0
M  V30 14482 C 1396.9 -0.714618 1.81434 0
M  V30 14483 O 1396.17 -1.51636 1.24029 0
M  V30 14484 H 1394.75 0.278317 0.693216 0
M  V30 14485 H 1397.41 1.33106 1.42369 0
M  V30 14486 H 1396.5 1.07542 2.92987 0
M  V30 14487 N 1396.8 -1.33791 0.83293 0
M  V30 14488 C 1397.73 -2.31853 0.276846 0
M  V30 14489 C 1398.72 -1.58702 -0.612184 0
M  V30 14490 O 1399.9 -1.86629 -0.536975 0
M  V30 14491 C 1397.03 -3.42855 -0.55385 0
M  V30 14492 C 1395.98 -4.27333 0.238884 0
M  V30 14493 C 1395.31 -5.29895 -0.715187 0
M  V30 14494 C 1396.61 -5.01692 1.45265 0
M  V30 14495 H 1398.3 -2.78611 1.09618 0
M  V30 14496 H 1395.85 -1.33949 0.528562 0
M  V30 14497 H 1397.8 -4.10479 -0.953133 0
M  V30 14498 H 1396.53 -2.94771 -1.40634 0
M  V30 14499 H 1395.19 -3.61325 0.619656 0
M  V30 14500 H 1394.83 -4.7807 -1.56391 0
M  V30 14501 H 1394.53 -5.87296 -0.188921 0
M  V30 14502 H 1396.06 -6.00387 -1.11211 0
M  V30 14503 H 1397.47 -5.62117 1.12685 0
M  V30 14504 H 1395.87 -5.68715 1.91528 0
M  V30 14505 H 1396.94 -4.30809 2.22558 0
M  V30 14506 N 1398.28 -0.588812 -1.46187 0
M  V30 14507 C 1399.53 -0.0768417 -2.02654 0
M  V30 14508 C 1399.86 1.28213 -1.4586 0
M  V30 14509 O 1399.14 1.8415 -0.626022 0
M  V30 14510 C 1399.42 -0.0176429 -3.60096 0
M  V30 14511 C 1399.27 -1.40595 -4.27262 0
M  V30 14512 C 1400.59 0.679864 -4.34817 0
M  V30 14513 H 1397.71 -0.0293981 -0.736413 0
M  V30 14514 H 1400.35 -0.757183 -1.74261 0
M  V30 14515 H 1398.5 0.56174 -3.84417 0
M  V30 14516 H 1400.17 -2.03097 -4.14185 0
M  V30 14517 H 1398.42 -1.97196 -3.86388 0
M  V30 14518 H 1399.09 -1.31694 -5.3606 0
M  V30 14519 H 1401.56 0.1876 -4.15677 0
M  V30 14520 H 1400.44 0.690333 -5.44542 0
M  V30 14521 H 1400.7 1.74237 -4.06318 0
M  V30 14522 N 1399.76 1.54172 -0.326923 0
M  V30 14523 C 1400.69 2.20703 0.580137 0
M  V30 14524 C 1401.67 1.18523 1.11315 0
M  V30 14525 O 1402.86 1.47276 1.17652 0
M  V30 14526 C 1399.98 2.87137 1.79638 0
M  V30 14527 C 1399.03 4.03064 1.39432 0
M  V30 14528 S 1399.86 5.33785 0.428179 0
M  V30 14529 C 1401.02 6.03715 1.65163 0
M  V30 14530 H 1401.25 2.97296 0.0149964 0
M  V30 14531 H 1398.78 1.54 -0.111004 0
M  V30 14532 H 1400.74 3.26035 2.49423 0
M  V30 14533 H 1399.4 2.1034 2.33272 0
M  V30 14534 H 1398.6 4.48424 2.3007 0
M  V30 14535 H 1398.2 3.65858 0.776144 0
M  V30 14536 H 1400.49 6.26098 2.58858 0
M  V30 14537 H 1401.43 6.97156 1.24014 0
M  V30 14538 H 1401.84 5.33666 1.84014 0
M  V30 14539 N 1401.24 0.0551678 1.57503 0
M  V30 14540 C 1402.19 -0.935665 2.12951 0
M  V30 14541 C 1403.18 -1.31954 1.06229 0
M  V30 14542 O 1404.39 -1.29873 1.24632 0
M  V30 14543 H 1400.76 -0.319618 0.680697 0
M  V30 14544 H 1402.73 -0.442937 2.95094 0
M  V30 14545 C 1401.48 -2.19977 2.69268 0
M  V30 14546 H 1400.8 -1.91319 3.51051 0
M  V30 14547 H 1402.24 -2.87456 3.11681 0
M  V30 14548 C 1400.7 -2.94714 1.63233 0
M  V30 14549 O 1401.23 -3.87803 1.04747 0
M  V30 14550 N 1399.44 -2.57518 1.34659 0
M  V30 14551 H 1398.99 -1.81894 1.82407 0
M  V30 14552 H 1398.94 -3.07829 0.639425 0
M  V30 14553 N 1402.72 -1.56081 -0.218252 0
M  V30 14554 C 1403.95 -1.83069 -0.957574 0
M  V30 14555 C 1404.35 -0.6325 -1.78315 0
M  V30 14556 O 1403.7 0.408298 -1.79105 0
M  V30 14557 C 1403.76 -3.03835 -1.92157 0
M  V30 14558 C 1403.42 -4.38702 -1.2802 0
M  V30 14559 C 1404.42 -5.15585 -0.66846 0
M  V30 14560 C 1402.11 -4.85427 -1.29098 0
M  V30 14561 C 1404.1 -6.37355 -0.0760499 0
M  V30 14562 C 1401.79 -6.07138 -0.69473 0
M  V30 14563 C 1402.78 -6.82943 -0.0883201 0
M  V30 14564 O 1402.47 -8.02352 0.498648 0
M  V30 14565 H 1402.2 -0.612493 -0.286057 0
M  V30 14566 H 1404.76 -2.04021 -0.23759 0
M  V30 14567 H 1402.99 -2.78709 -2.68064 0
M  V30 14568 H 1404.68 -3.17666 -2.52672 0
M  V30 14569 H 1405.44 -4.80592 -0.652434 0
M  V30 14570 H 1401.32 -4.26395 -1.75238 0
M  V30 14571 H 1404.87 -6.96464 0.397893 0
M  V30 14572 H 1400.76 -6.41604 -0.70818 0
M  V30 14573 H 1401.53 -8.17555 0.393289 0
M  V30 14574 N 1404.2 0.485086 -1.49949 0
M  V30 14575 C 1405.61 1.06629 -1.53255 0
M  V30 14576 C 1405.96 1.9344 -0.327915 0
M  V30 14577 O 1405.08 2.09011 0.560669 0
M  V30 14578 C 1405.68 1.94053 -2.77721 0
M  V30 14579 C 1404.24 2.47307 -2.83754 0
M  V30 14580 C 1403.38 1.25307 -2.47373 0
M  V30 14581 H 1406.33 0.268297 -1.56416 0
M  V30 14582 H 1406.36 2.78946 -2.58784 0
M  V30 14583 H 1405.87 1.30843 -3.65379 0
M  V30 14584 H 1403.97 3.1411 -2.00414 0
M  V30 14585 H 1404.08 2.83371 -3.86313 0
M  V30 14586 H 1402.45 1.5834 -1.99501 0
M  V30 14587 H 1403.23 0.637815 -3.37323 0
M  V30 14588 N 1405.67 1.39291 0.737279 0
M  V30 14589 C 1406.62 1.34321 1.84233 0
M  V30 14590 C 1407.61 0.224489 1.59326 0
M  V30 14591 O 1408.8 0.461832 1.70869 0
M  V30 14592 C 1405.93 1.18676 3.22135 0
M  V30 14593 C 1405.01 2.35239 3.52878 0
M  V30 14594 N 1405.41 3.6071 3.54573 0
M  V30 14595 C 1403.7 2.28147 3.83229 0
M  V30 14596 C 1404.4 4.37778 3.83047 0
M  V30 14597 N 1403.38 3.67336 4.00706 0
M  V30 14598 H 1407.18 2.29299 1.83845 0
M  V30 14599 H 1404.7 1.32755 0.935413 0
M  V30 14600 H 1406.69 1.13199 4.01238 0
M  V30 14601 H 1405.35 0.246461 3.23763 0
M  V30 14602 H 1406.36 3.94164 3.3594 0
M  V30 14603 H 1403.04 1.42366 3.92477 0
M  V30 14604 H 1404.43 5.46525 3.90845 0
M  V30 14605 N 1407.15 -0.967221 1.24429 0
M  V30 14606 C 1408.4 -1.70458 1.07829 0
M  V30 14607 C 1408.71 -1.91818 -0.38278 0
M  V30 14608 O 1409.92 -2.63129 -0.668982 0
M  V30 14609 C 1408.38 -3.06817 1.88125 0
M  V30 14610 C 1407.98 -2.93298 3.38645 0
M  V30 14611 C 1409.73 -3.84422 1.80056 0
M  V30 14612 C 1407.63 -4.2497 4.11284 0
M  V30 14613 H 1406.56 -0.639217 0.399897 0
M  V30 14614 H 1409.22 -1.07776 1.48515 0
M  V30 14615 H 1407.6 -3.70331 1.40254 0
M  V30 14616 H 1408.77 -2.38793 3.94099 0
M  V30 14617 H 1407.09 -2.29159 3.47671 0
M  V30 14618 H 1409.68 -4.81925 2.31629 0
M  V30 14619 H 1410.03 -4.09194 0.765908 0
M  V30 14620 H 1410.56 -3.27636 2.2561 0
M  V30 14621 H 1407.3 -4.05391 5.1511 0
M  V30 14622 H 1406.82 -4.79288 3.60615 0
M  V30 14623 H 1408.5 -4.93586 4.18308 0
M  V30 14624 N 1408.63 -1.05812 -1.16797 0
M  V30 14625 C 1409.86 -0.792519 -1.9112 0
M  V30 14626 C 1410.27 0.652549 -1.77164 0
M  V30 14627 O 1409.63 1.44633 -1.113 0
M  V30 14628 C 1409.68 -1.17172 -3.41984 0
M  V30 14629 O 1409.4 -2.56008 -3.55516 0
M  V30 14630 C 1410.9 -0.933162 -4.33367 0
M  V30 14631 H 1408.12 -0.28768 -0.606202 0
M  V30 14632 H 1410.67 -1.41046 -1.48075 0
M  V30 14633 H 1408.82 -0.598413 -3.8275 0
M  V30 14634 H 1409.24 -2.71053 -4.49033 0
M  V30 14635 H 1410.71 -1.24817 -5.37703 0
M  V30 14636 H 1411.19 0.131345 -4.39004 0
M  V30 14637 H 1411.79 -1.49062 -3.98322 0
M  V30 14638 N 1410.11 1.33347 -0.840014 0
M  V30 14639 C 1411.06 2.31113 -0.262617 0
M  V30 14640 C 1412.05 1.58189 0.606023 0
M  V30 14641 O 1413.26 1.73047 0.495457 0
M  V30 14642 H 1409.63 0.74908 -0.0662003 0
M  V30 14643 H 1411.6 2.77318 -1.10169 0
M  V30 14644 C 1410.35 3.43377 0.54658 0
M  V30 14645 H 1409.67 3.99642 -0.112514 0
M  V30 14646 H 1411.11 4.13978 0.91641 0
M  V30 14647 C 1409.57 2.89333 1.72592 0
M  V30 14648 O 1410.1 2.85615 2.82466 0
M  V30 14649 N 1408.31 2.45926 1.54819 0
M  V30 14650 H 1407.86 2.49149 0.654404 0
M  V30 14651 H 1407.81 2.10119 2.33875 0
M  V30 14652 N 1411.59 0.596556 1.45873 0
M  V30 14653 C 1412.52 -0.116229 2.33211 0
M  V30 14654 C 1413.5 -0.869868 1.46176 0
M  V30 14655 O 1414.68 -0.842599 1.74968 0
M  V30 14656 C 1411.81 -1.12145 3.28696 0
M  V30 14657 C 1410.77 -0.481749 4.2528 0
M  V30 14658 C 1410.09 -1.59443 5.10374 0
M  V30 14659 C 1411.39 0.589996 5.18957 0
M  V30 14660 H 1413.09 0.613005 2.93057 0
M  V30 14661 H 1410.63 0.296242 1.4092 0
M  V30 14662 H 1412.58 -1.62857 3.88659 0
M  V30 14663 H 1411.31 -1.88114 2.66985 0
M  V30 14664 H 1409.97 0.0044092 3.666 0
M  V30 14665 H 1409.62 -2.34413 4.45039 0
M  V30 14666 H 1409.32 -1.17197 5.75794 0
M  V30 14667 H 1410.84 -2.10404 5.73204 0
M  V30 14668 H 1412.25 0.167395 5.73056 0
M  V30 14669 H 1410.65 0.933565 5.92794 0
M  V30 14670 H 1411.72 1.47093 4.62052 0
M  V30 14671 N 1413.06 -1.53996 0.335095 0
M  V30 14672 C 1414.29 -2.05188 -0.26563 0
M  V30 14673 C 1414.71 -1.21058 -1.44881 0
M  V30 14674 O 1414.06 -0.243919 -1.80863 0
M  V30 14675 C 1414.11 -3.54875 -0.688904 0
M  V30 14676 O 1413.84 -4.35811 0.447217 0
M  V30 14677 C 1415.34 -4.22204 -1.35123 0
M  V30 14678 H 1412.56 -0.668921 -0.0527806 0
M  V30 14679 H 1415.1 -1.98675 0.48463 0
M  V30 14680 H 1413.26 -3.61638 -1.38912 0
M  V30 14681 H 1413.67 -5.24381 0.111495 0
M  V30 14682 H 1415.14 -5.28356 -1.59823 0
M  V30 14683 H 1415.62 -3.74029 -2.30216 0
M  V30 14684 H 1416.23 -4.19611 -0.693283 0
M  V30 14685 N 1414.54 -0.0635198 -1.57472 0
M  V30 14686 C 1415.49 0.924358 -2.13444 0
M  V30 14687 C 1416.48 1.31389 -1.06927 0
M  V30 14688 O 1417.69 1.2921 -1.25319 0
M  V30 14689 H 1414.06 0.316003 -0.682383 0
M  V30 14690 H 1416.04 0.427281 -2.95325 0
M  V30 14691 C 1414.78 2.18546 -2.70431 0
M  V30 14692 H 1414.11 1.89455 -3.52061 0
M  V30 14693 H 1415.55 2.85799 -3.13201 0
M  V30 14694 C 1414.01 2.93845 -1.64794 0
M  V30 14695 O 1414.54 3.87242 -1.06802 0
M  V30 14696 N 1412.74 2.568 -1.36023 0
M  V30 14697 H 1412.29 1.80924 -1.83369 0
M  V30 14698 H 1412.25 3.07486 -0.655741 0
M  V30 14699 N 1416.02 1.56195 0.209972 0
M  V30 14700 C 1416.95 1.96378 1.26324 0
M  V30 14701 C 1417.93 0.833606 1.48273 0
M  V30 14702 O 1419.12 1.0968 1.60262 0
M  V30 14703 C 1416.25 2.29048 2.61064 0
M  V30 14704 C 1415.2 3.44665 2.53752 0
M  V30 14705 C 1414.53 3.6297 3.92628 0
M  V30 14706 C 1415.83 4.79297 2.07536 0
M  V30 14707 H 1417.52 2.8461 0.929379 0
M  V30 14708 H 1415.07 1.36931 0.445627 0
M  V30 14709 H 1417.02 2.55752 3.34916 0
M  V30 14710 H 1415.74 1.37682 2.96161 0
M  V30 14711 H 1414.4 3.18028 1.82356 0
M  V30 14712 H 1414.05 2.68961 4.25052 0
M  V30 14713 H 1413.75 4.40741 3.88614 0
M  V30 14714 H 1415.27 3.92035 4.68125 0
M  V30 14715 H 1416.69 5.05131 2.71138 0
M  V30 14716 H 1415.08 5.60433 2.14557 0
M  V30 14717 H 1416.15 4.73877 1.02802 0
M  V30 14718 N 1417.5 -0.477127 1.50204 0
M  V30 14719 C 1418.75 -1.22722 1.60573 0
M  V30 14720 C 1419.07 -1.92595 0.305326 0
M  V30 14721 O 1418.34 -1.83836 -0.676842 0
M  V30 14722 H 1416.92 -0.455973 0.591691 0
M  V30 14723 H 1419.58 -0.550915 1.86952 0
M  V30 14724 H 1418.67 -1.97837 2.41385 0
M  V30 14725 N 1418.98 -1.3968 -0.729882 0
M  V30 14726 C 1419.91 -1.34713 -1.85432 0
M  V30 14727 C 1420.92 -0.254999 -1.60791 0
M  V30 14728 O 1422.11 -0.514324 -1.7093 0
M  V30 14729 C 1419.21 -1.07019 -3.21559 0
M  V30 14730 C 1418.38 -2.27609 -3.73515 0
M  V30 14731 C 1417.44 -1.96292 -4.88217 0
M  V30 14732 O 1416.47 -2.69025 -5.01612 0
M  V30 14733 N 1417.67 -0.932181 -5.72967 0
M  V30 14734 H 1420.44 -2.31616 -1.90195 0
M  V30 14735 H 1418 -1.33849 -0.910834 0
M  V30 14736 H 1419.99 -0.84079 -3.9587 0
M  V30 14737 H 1418.56 -0.188323 -3.12032 0
M  V30 14738 H 1417.78 -2.66468 -2.90497 0
M  V30 14739 H 1419.07 -3.08033 -4.04961 0
M  V30 14740 H 1418.46 -0.329507 -5.6474 0
M  V30 14741 H 1417.02 -0.762684 -6.47322 0
M  V30 14742 N 1420.45 0.960609 -1.2494 0
M  V30 14743 C 1421.68 1.7446 -1.12153 0
M  V30 14744 C 1422.1 1.85335 0.321315 0
M  V30 14745 O 1421.46 1.32944 1.23271 0
M  V30 14746 C 1421.51 3.13945 -1.774 0
M  V30 14747 O 1420.61 3.9882 -1.04958 0
M  V30 14748 H 1419.96 0.536007 -0.391909 0
M  V30 14749 H 1422.49 1.2045 -1.65388 0
M  V30 14750 H 1422.5 3.64434 -1.83444 0
M  V30 14751 H 1421.17 3.05346 -2.82377 0
M  V30 14752 H 1419.75 3.57293 -1.06752 0
M  V30 14753 N 1421.93 1.0643 1.16234 0
M  V30 14754 C 1423.16 0.802644 1.90697 0
M  V30 14755 C 1423.58 -0.643145 1.77508 0
M  V30 14756 O 1422.93 -1.4404 1.12065 0
M  V30 14757 C 1422.98 1.18984 3.41358 0
M  V30 14758 O 1422.7 2.5789 3.54153 0
M  V30 14759 C 1424.21 0.956132 4.32866 0
M  V30 14760 H 1421.43 0.290891 0.604668 0
M  V30 14761 H 1423.97 1.41829 1.47325 0
M  V30 14762 H 1422.12 0.618703 3.82428 0
M  V30 14763 H 1422.54 2.73431 4.47589 0
M  V30 14764 H 1424.01 1.27667 5.37034 0
M  V30 14765 H 1424.49 -0.108062 4.39067 0
M  V30 14766 H 1425.1 1.51172 3.97526 0
M  V30 14767 N 1423.41 -1.329 0.847073 0
M  V30 14768 C 1424.32 -2.32815 0.288878 0
M  V30 14769 C 1425.34 -1.63715 -0.589363 0
M  V30 14770 O 1426.51 -1.9531 -0.491537 0
M  V30 14771 C 1423.58 -3.42778 -0.519988 0
M  V30 14772 C 1422.64 -4.27584 0.383496 0
M  V30 14773 C 1421.87 -5.32296 -0.386862 0
M  V30 14774 O 1422.09 -5.4698 -1.61768 0
M  V30 14775 O 1421.03 -6.01408 0.2434 0
M  V30 14776 H 1424.85 -2.82434 1.11647 0
M  V30 14777 H 1422.44 -1.36388 0.609807 0
M  V30 14778 H 1424.32 -4.09862 -0.979357 0
M  V30 14779 H 1423 -2.95362 -1.3245 0
M  V30 14780 H 1421.9 -3.63338 0.890879 0
M  V30 14781 H 1423.24 -4.78505 1.15299 0
M  V30 14782 N 1424.89 -0.604284 -1.45555 0
M  V30 14783 C 1426.12 -0.104301 -2.06337 0
M  V30 14784 C 1426.53 1.21523 -1.45013 0
M  V30 14785 O 1425.87 1.75039 -0.557422 0
M  V30 14786 C 1425.93 0.113202 -3.59322 0
M  V30 14787 C 1425.6 -1.12402 -4.42961 0
M  V30 14788 C 1426.59 -2.04136 -4.78147 0
M  V30 14789 C 1424.28 -1.35192 -4.83765 0
M  V30 14790 C 1426.27 -3.16991 -5.52988 0
M  V30 14791 C 1423.96 -2.48348 -5.5836 0
M  V30 14792 C 1424.96 -3.39076 -5.92888 0
M  V30 14793 O 1424.64 -4.50264 -6.65971 0
M  V30 14794 H 1424.38 -0.0644639 -0.672919 0
M  V30 14795 H 1426.93 -0.830982 -1.8784 0
M  V30 14796 H 1425.16 0.894739 -3.76206 0
M  V30 14797 H 1426.85 0.564372 -4.01957 0
M  V30 14798 H 1427.62 -1.87753 -4.47184 0
M  V30 14799 H 1423.49 -0.654731 -4.56327 0
M  V30 14800 H 1427.04 -3.87831 -5.79856 0
M  V30 14801 H 1422.94 -2.64686 -5.88737 0
M  V30 14802 H 1423.7 -4.48904 -6.84418 0
M  V30 14803 N 1426.37 1.53816 -0.343257 0
M  V30 14804 C 1427.78 1.59598 0.00867849 0
M  V30 14805 C 1427.98 1.35922 1.48753 0
M  V30 14806 O 1427.04 1.15334 2.2462 0
M  V30 14807 C 1428.35 2.97649 -0.427234 0
M  V30 14808 C 1429.9 3.1069 -0.379554 0
M  V30 14809 C 1430.37 4.51119 -0.79093 0
M  V30 14810 N 1431.87 4.57168 -0.745105 0
M  V30 14811 C 1432.6 5.63975 -1.03537 0
M  V30 14812 N 1432.1 6.78635 -1.39377 0
M  V30 14813 N 1433.89 5.53848 -0.959628 0
M  V30 14814 H 1426.04 1.6746 -1.30656 0
M  V30 14815 H 1428.3 0.784254 -0.532588 0
M  V30 14816 H 1428.01 3.2004 -1.45834 0
M  V30 14817 H 1427.88 3.76682 0.197704 0
M  V30 14818 H 1430.27 2.88024 0.642376 0
M  V30 14819 H 1430.35 2.33718 -1.03969 0
M  V30 14820 H 1430 4.74521 -1.81087 0
M  V30 14821 H 1429.93 5.26489 -0.108274 0
M  V30 14822 H 1432.42 3.7483 -0.480752 0
M  V30 14823 H 1432.73 7.56053 -1.60011 0
M  V30 14824 H 1431.07 6.80083 -1.43222 0
M  V30 14825 H 1434.27 4.6315 -0.678974 0
M  V30 14826 H 1434.44 6.36995 -1.18919 0
M  V30 14827 N 1427.84 0.0718701 1.57436 0
M  V30 14828 C 1428.79 -0.905443 2.0925 0
M  V30 14829 C 1429.78 -1.25875 1.00221 0
M  V30 14830 O 1430.97 -1.23771 1.26529 0
M  V30 14831 C 1428.1 -2.17298 2.65775 0
M  V30 14832 C 1427.19 -1.84614 3.81809 0
M  V30 14833 N 1427.58 -1.22381 4.90771 0
M  V30 14834 C 1425.87 -2.14364 3.91106 0
M  V30 14835 C 1426.58 -1.07791 5.71626 0
M  V30 14836 N 1425.55 -1.58764 5.19899 0
M  V30 14837 H 1429.35 -0.419955 2.90884 0
M  V30 14838 H 1426.87 -0.132017 1.61863 0
M  V30 14839 H 1428.86 -2.88231 3.01211 0
M  V30 14840 H 1427.52 -2.66434 1.85588 0
M  V30 14841 H 1428.54 -0.89345 5.10135 0
M  V30 14842 H 1425.21 -2.65877 3.21894 0
M  V30 14843 H 1426.6 -0.593061 6.69278 0
M  V30 14844 N 1429.32 -1.56304 -0.201686 0
M  V30 14845 C 1430.57 -1.79433 -0.921241 0
M  V30 14846 C 1430.88 -0.643943 -1.84696 0
M  V30 14847 O 1432.09 -0.759359 -2.60665 0
M  V30 14848 C 1430.55 -3.17835 -1.68846 0
M  V30 14849 C 1430.15 -4.40655 -0.807892 0
M  V30 14850 C 1431.9 -3.50277 -2.39805 0
M  V30 14851 C 1429.81 -5.7008 -1.5736 0
M  V30 14852 H 1428.74 -0.669029 -0.34773 0
M  V30 14853 H 1431.39 -1.82667 -0.174657 0
M  V30 14854 H 1429.77 -3.08832 -2.47869 0
M  V30 14855 H 1430.94 -4.60765 -0.0567923 0
M  V30 14856 H 1429.26 -4.15873 -0.209465 0
M  V30 14857 H 1431.85 -4.44207 -2.97631 0
M  V30 14858 H 1432.2 -2.7371 -3.1367 0
M  V30 14859 H 1432.73 -3.60698 -1.67754 0
M  V30 14860 H 1429.47 -6.49595 -0.877855 0
M  V30 14861 H 1428.99 -5.53999 -2.2988 0
M  V30 14862 H 1430.67 -6.10964 -2.12912 0
M  V30 14863 N 1430.8 0.469154 -1.50455 0
M  V30 14864 C 1432.05 1.22002 -1.62748 0
M  V30 14865 C 1432.4 1.89642 -0.324611 0
M  V30 14866 O 1431.69 1.79218 0.677597 0
M  V30 14867 C 1431.89 2.28673 -2.7467 0
M  V30 14868 C 1431.72 1.71498 -4.15714 0
M  V30 14869 C 1430.49 1.51386 -4.8209 0
M  V30 14870 C 1432.69 1.20886 -4.99891 0
M  V30 14871 N 1430.67 0.894745 -6.07345 0
M  V30 14872 C 1432.04 0.713084 -6.15886 0
M  V30 14873 C 1434.09 1.09759 -4.85652 0
M  V30 14874 C 1432.8 0.117016 -7.19205 0
M  V30 14875 C 1434.82 0.515452 -5.89149 0
M  V30 14876 C 1434.18 0.0300686 -7.04394 0
M  V30 14877 H 1430.28 0.435249 -0.649679 0
M  V30 14878 H 1432.87 0.521706 -1.8758 0
M  V30 14879 H 1431.04 2.95929 -2.51557 0
M  V30 14880 H 1432.77 2.95693 -2.76311 0
M  V30 14881 H 1429.53 1.76665 -4.39416 0
M  V30 14882 H 1429.95 0.603547 -6.74304 0
M  V30 14883 H 1434.59 1.45878 -3.96837 0
M  V30 14884 H 1432.31 -0.256378 -8.07693 0
M  V30 14885 H 1435.9 0.431698 -5.80196 0
M  V30 14886 H 1434.78 -0.413327 -7.8311 0
M  V30 14887 N 1432.28 1.40065 0.722464 0
M  V30 14888 C 1433.5 1.4146 1.5167 0
M  V30 14889 C 1433.93 0.0142653 1.88095 0
M  V30 14890 O 1433.29 -0.975934 1.52791 0
M  V30 14891 C 1433.33 2.30531 2.77287 0
M  V30 14892 O 1432.44 1.74382 3.73717 0
M  V30 14893 H 1431.78 0.481194 0.457546 0
M  V30 14894 H 1434.31 1.84213 0.890331 0
M  V30 14895 H 1434.32 2.45479 3.25889 0
M  V30 14896 H 1432.99 3.32292 2.50109 0
M  V30 14897 H 1431.57 1.68743 3.32536 0
M  V30 14898 N 1433.76 -0.95397 1.25448 0
M  V30 14899 C 1434.69 -2.06828 1.08372 0
M  V30 14900 C 1435.67 -1.70098 -0.00741585 0
M  V30 14901 O 1436.85 -1.93521 0.16224 0
M  V30 14902 C 1433.98 -3.40124 0.702365 0
M  V30 14903 C 1432.94 -3.90865 1.74381 0
M  V30 14904 C 1432.26 -5.20663 1.21712 0
M  V30 14905 C 1433.56 -4.17169 3.14273 0
M  V30 14906 H 1435.26 -2.21372 2.01581 0
M  V30 14907 H 1432.8 -1.06374 0.970592 0
M  V30 14908 H 1434.76 -4.17529 0.569837 0
M  V30 14909 H 1433.48 -3.2552 -0.265428 0
M  V30 14910 H 1432.14 -3.15628 1.86479 0
M  V30 14911 H 1431.79 -5.02429 0.23954 0
M  V30 14912 H 1431.49 -5.55581 1.91319 0
M  V30 14913 H 1433.01 -6.00665 1.097 0
M  V30 14914 H 1434.43 -4.85231 3.05325 0
M  V30 14915 H 1432.82 -4.63344 3.81356 0
M  V30 14916 H 1433.89 -3.23421 3.61285 0
M  V30 14917 N 1435.24 -1.07045 -1.15668 0
M  V30 14918 C 1436.15 -0.699332 -2.23934 0
M  V30 14919 C 1437.16 0.288036 -1.71599 0
M  V30 14920 O 1438.34 0.135447 -2.00944 0
M  V30 14921 C 1435.4 -0.0994775 -3.46557 0
M  V30 14922 C 1434.46 -1.13968 -4.13896 0
M  V30 14923 C 1433.7 -0.56836 -5.30665 0
M  V30 14924 O 1433.92 0.616556 -5.67058 0
M  V30 14925 O 1432.85 -1.31174 -5.87432 0
M  V30 14926 H 1436.68 -1.60212 -2.58003 0
M  V30 14927 H 1434.26 -0.843202 -1.23331 0
M  V30 14928 H 1436.15 0.23293 -4.20756 0
M  V30 14929 H 1434.82 0.776684 -3.14244 0
M  V30 14930 H 1433.73 -1.5244 -3.41633 0
M  V30 14931 H 1435.06 -1.98764 -4.50282 0
M  V30 14932 N 1436.71 1.32449 -0.85411 0
M  V30 14933 C 1437.96 1.96537 -0.453451 0
M  V30 14934 C 1438.28 1.68344 0.995982 0
M  V30 14935 O 1439.48 2.26166 1.50204 0
M  V30 14936 C 1437.94 3.51785 -0.759934 0
M  V30 14937 C 1437.55 3.88838 -2.22506 0
M  V30 14938 C 1439.29 4.22347 -0.426973 0
M  V30 14939 C 1437.2 5.37129 -2.47479 0
M  V30 14940 H 1436.13 0.735537 -0.165835 0
M  V30 14941 H 1438.78 1.50851 -1.04481 0
M  V30 14942 H 1437.16 3.95879 -0.0980116 0
M  V30 14943 H 1438.33 3.55756 -2.92873 0
M  V30 14944 H 1436.65 3.31299 -2.52249 0
M  V30 14945 H 1439.25 5.31424 -0.590986 0
M  V30 14946 H 1439.59 4.11485 0.631359 0
M  V30 14947 H 1440.12 3.83835 -1.04477 0
M  V30 14948 H 1436.86 5.53012 -3.51935 0
M  V30 14949 H 1436.38 5.71619 -1.8169 0
M  V30 14950 H 1438.06 6.04204 -2.31401 0
M  V30 14951 N 1438.19 0.611994 1.45232 0
M  V30 14952 C 1439.42 0.113618 2.07089 0
M  V30 14953 C 1439.84 -1.1947 1.45288 0
M  V30 14954 O 1439.2 -1.72845 0.547207 0
M  V30 14955 C 1439.25 -0.00789978 3.60599 0
M  V30 14956 O 1438.35 -1.05697 3.98625 0
M  V30 14957 H 1437.69 0.076066 0.659629 0
M  V30 14958 H 1440.22 0.843253 1.86415 0
M  V30 14959 H 1440.23 -0.204692 4.07486 0
M  V30 14960 H 1438.91 0.947386 4.04966 0
M  V30 14961 H 1437.48 -0.836291 3.63401 0
M  V30 14962 N 1439.67 -1.53632 0.351409 0
M  V30 14963 C 1440.62 -2.26782 -0.516983 0
M  V30 14964 C 1441.61 -1.29222 -1.09536 0
M  V30 14965 O 1442.82 -1.46901 -1.04019 0
M  V30 14966 H 1439.19 -0.728783 -0.185417 0
M  V30 14967 H 1441.16 -2.98151 0.121909 0
M  V30 14968 C 1439.91 -3.05943 -1.6521 0
M  V30 14969 H 1439.24 -3.80848 -1.21633 0
M  V30 14970 H 1440.68 -3.60328 -2.23472 0
M  V30 14971 C 1439.13 -2.15917 -2.58614 0
M  V30 14972 O 1439.66 -1.76049 -3.61067 0
M  V30 14973 N 1437.87 -1.80837 -2.27478 0
M  V30 14974 H 1437.42 -2.13456 -1.44202 0
M  V30 14975 H 1437.38 -1.20886 -2.90231 0
M  V30 14976 N 1441.15 -0.0802183 -1.57396 0
M  V30 14977 C 1442.09 0.884041 -2.13198 0
M  V30 14978 C 1443.06 1.28975 -1.04664 0
M  V30 14979 O 1444.25 1.37413 -1.32372 0
M  V30 14980 C 1441.39 2.14323 -2.7048 0
M  V30 14981 C 1440.5 1.7894 -3.93198 0
M  V30 14982 C 1439.64 2.99534 -4.38695 0
M  V30 14983 C 1438.68 2.60207 -5.54039 0
M  V30 14984 N 1437.81 3.73587 -5.94455 0
M  V30 14985 H 1442.65 0.40131 -2.95285 0
M  V30 14986 H 1440.19 0.186429 -1.45914 0
M  V30 14987 H 1442.15 2.88046 -3.01804 0
M  V30 14988 H 1440.78 2.60122 -1.91144 0
M  V30 14989 H 1439.83 0.952465 -3.68283 0
M  V30 14990 H 1441.14 1.46012 -4.76951 0
M  V30 14991 H 1440.3 3.81526 -4.71724 0
M  V30 14992 H 1439.04 3.35661 -3.53812 0
M  V30 14993 H 1438.04 1.76638 -5.20652 0
M  V30 14994 H 1439.27 2.2524 -6.40659 0
M  V30 14995 H 1437.21 4.0946 -5.12521 0
M  V30 14996 H 1437.13 3.44455 -6.72969 0
M  V30 14997 H 1438.4 4.56133 -6.3211 0
M  V30 14998 N 1442.63 1.56409 0.193394 0
M  V30 14999 C 1444.04 1.70624 0.757915 0
M  V30 15000 C 1444.39 0.687074 1.83776 0
M  V30 15001 O 1443.51 -0.15616 2.15836 0
M  V30 15002 C 1444.11 3.09352 1.38156 0
M  V30 15003 C 1442.67 3.25326 1.89315 0
M  V30 15004 C 1441.81 2.66576 0.763727 0
M  V30 15005 H 1444.76 1.58668 -0.0317034 0
M  V30 15006 H 1444.79 3.06776 2.25098 0
M  V30 15007 H 1444.3 3.83506 0.595398 0
M  V30 15008 H 1442.4 2.5609 2.70644 0
M  V30 15009 H 1442.51 4.32848 2.05376 0
M  V30 15010 H 1440.88 2.25797 1.17846 0
M  V30 15011 H 1441.66 3.43298 -0.0102243 0
M  V30 15012 N 1444.1 -0.461169 1.50702 0
M  V30 15013 C 1445.05 -1.57861 1.70829 0
M  V30 15014 C 1446.05 -1.59371 0.57423 0
M  V30 15015 O 1447.25 -1.63401 0.754996 0
M  V30 15016 H 1443.63 -0.524015 0.539363 0
M  V30 15017 H 1445.6 -1.3805 2.64546 0
M  V30 15018 C 1444.35 -2.95724 1.82873 0
M  V30 15019 H 1443.67 -2.95285 2.6953 0
M  V30 15020 H 1445.11 -3.73342 2.00977 0
M  V30 15021 C 1443.57 -3.31823 0.582691 0
M  V30 15022 O 1444.1 -4.00767 -0.273623 0
M  V30 15023 N 1442.3 -2.87344 0.433781 0
M  V30 15024 H 1441.85 -2.31411 1.13166 0
M  V30 15025 H 1441.81 -3.11861 -0.398743 0
M  V30 15026 N 1445.58 -1.40446 -0.715026 0
M  V30 15027 C 1446.83 -1.3896 -1.47709 0
M  V30 15028 C 1447.16 0.00798698 -1.94198 0
M  V30 15029 O 1446.44 0.976732 -1.68197 0
M  V30 15030 C 1446.72 -2.37955 -2.70277 0
M  V30 15031 C 1446.57 -3.8674 -2.29678 0
M  V30 15032 C 1447.89 -2.34478 -3.72435 0
M  V30 15033 H 1445.01 -0.50607 -0.535782 0
M  V30 15034 H 1447.65 -1.71585 -0.815999 0
M  V30 15035 H 1445.8 -2.10264 -3.26682 0
M  V30 15036 H 1447.47 -4.2526 -1.7875 0
M  V30 15037 H 1445.72 -4.02547 -1.61674 0
M  V30 15038 H 1446.39 -4.51524 -3.17538 0
M  V30 15039 H 1448.86 -2.59007 -3.2566 0
M  V30 15040 H 1447.74 -3.05791 -4.55832 0
M  V30 15041 H 1448 -1.35661 -4.20771 0
M  V30 15042 N 1447.06 0.947303 -1.25952 0
M  V30 15043 C 1448.28 1.73261 -1.13997 0
M  V30 15044 C 1448.71 1.85666 0.301639 0
M  V30 15045 O 1448.07 1.34244 1.21854 0
M  V30 15046 C 1448.12 3.12046 -1.8072 0
M  V30 15047 O 1447.22 3.97684 -1.09182 0
M  V30 15048 H 1446.56 0.53182 -0.397572 0
M  V30 15049 H 1449.09 1.18689 -1.66656 0
M  V30 15050 H 1449.1 3.62468 -1.87299 0
M  V30 15051 H 1447.78 3.02334 -2.856 0
M  V30 15052 H 1446.35 3.56141 -1.10536 0
M  V30 15053 N 1448.54 1.07657 1.15099 0
M  V30 15054 C 1449.45 0.711198 2.2356 0
M  V30 15055 C 1450.46 -0.278932 1.7175 0
M  V30 15056 O 1451.64 -0.124788 2.01013 0
M  V30 15057 C 1448.71 0.117855 3.465 0
M  V30 15058 C 1447.77 1.16162 4.13286 0
M  V30 15059 C 1447 0.596494 5.30356 0
M  V30 15060 O 1447.22 -0.586474 5.67377 0
M  V30 15061 O 1446.16 1.34288 5.86729 0
M  V30 15062 H 1449.98 1.61578 2.5715 0
M  V30 15063 H 1447.57 0.84973 1.22882 0
M  V30 15064 H 1449.45 -0.210613 4.20873 0
M  V30 15065 H 1448.12 -0.760008 3.14652 0
M  V30 15066 H 1447.03 1.54249 3.4082 0
M  V30 15067 H 1448.36 2.01149 4.49221 0
M  V30 15068 N 1450.02 -1.31994 0.861122 0
M  V30 15069 C 1451.43 -1.79271 0.521437 0
M  V30 15070 C 1451.78 -1.71046 -0.96113 0
M  V30 15071 O 1450.9 -1.2729 -1.75003 0
M  V30 15072 C 1451.5 -3.25507 0.939731 0
M  V30 15073 C 1450.06 -3.70713 0.651845 0
M  V30 15074 C 1449.2 -2.52967 1.13592 0
M  V30 15075 H 1452.16 -1.19201 1.0477 0
M  V30 15076 H 1452.18 -3.79619 0.258754 0
M  V30 15077 H 1451.69 -3.3146 2.0188 0
M  V30 15078 H 1449.79 -3.70268 -0.416232 0
M  V30 15079 H 1449.9 -4.63236 1.22267 0
M  V30 15080 H 1448.27 -2.48558 0.555971 0
M  V30 15081 H 1449.05 -2.61671 2.22223 0
M  V30 15082 N 1451.49 -0.619688 -1.44906 0
M  V30 15083 C 1452.4 0.0935512 -2.34413 0
M  V30 15084 C 1453.42 0.847738 -1.51952 0
M  V30 15085 O 1454.6 0.802591 -1.84717 0
M  V30 15086 C 1451.66 1.07047 -3.2976 0
M  V30 15087 C 1450.72 0.31691 -4.28129 0
M  V30 15088 C 1449.96 1.24729 -5.1892 0
M  V30 15089 O 1450.18 2.4856 -5.13395 0
M  V30 15090 O 1449.11 0.737799 -5.97361 0
M  V30 15091 H 1452.94 -0.642335 -2.96829 0
M  V30 15092 H 1450.52 -0.379908 -1.44489 0
M  V30 15093 H 1452.41 1.63281 -3.88481 0
M  V30 15094 H 1451.08 1.78717 -2.69893 0
M  V30 15095 H 1449.99 -0.288192 -3.72988 0
M  V30 15096 H 1451.32 -0.359539 -4.90885 0
M  V30 15097 N 1452.97 1.53444 -0.359552 0
M  V30 15098 C 1453.88 2.29257 0.497834 0
M  V30 15099 C 1454.9 1.34987 1.09793 0
M  V30 15100 O 1456.07 1.68039 1.11017 0
M  V30 15101 C 1453.14 3.06258 1.62502 0
M  V30 15102 C 1452.2 4.16183 1.05308 0
M  V30 15103 C 1451.43 4.89503 2.12655 0
M  V30 15104 O 1451.66 4.6263 3.33661 0
M  V30 15105 O 1450.59 5.75578 1.76051 0
M  V30 15106 H 1454.42 3.03467 -0.118925 0
M  V30 15107 H 1452 1.48884 -0.124111 0
M  V30 15108 H 1453.88 3.5436 2.2805 0
M  V30 15109 H 1452.56 2.3489 2.22729 0
M  V30 15110 H 1451.47 3.72348 0.361679 0
M  V30 15111 H 1452.8 4.897 0.49545 0
M  V30 15112 N 1454.45 0.0885642 1.57351 0
M  V30 15113 C 1455.86 -0.441569 1.81403 0
M  V30 15114 C 1456.21 -1.68582 1.00372 0
M  V30 15115 O 1455.34 -2.15162 0.231153 0
M  V30 15116 C 1455.93 -0.807886 3.29027 0
M  V30 15117 C 1454.49 -1.2828 3.53866 0
M  V30 15118 C 1453.64 -0.276217 2.75921 0
M  V30 15119 H 1456.59 0.314083 1.55561 0
M  V30 15120 H 1456.61 -1.66797 3.41993 0
M  V30 15121 H 1456.12 0.0978886 3.87977 0
M  V30 15122 H 1454.22 -2.2065 3.0024 0
M  V30 15123 H 1454.34 -1.24914 4.62529 0
M  V30 15124 H 1452.7 -0.757007 2.4319 0
M  V30 15125 H 1453.48 0.622123 3.37616 0
M  V30 15126 N 1455.93 -1.56509 -0.185096 0
M  V30 15127 C 1456.88 -1.95336 -1.22934 0
M  V30 15128 C 1457.85 -0.81532 -1.44713 0
M  V30 15129 O 1459.03 -1.07431 -1.57681 0
M  V30 15130 C 1456.17 -2.30671 -2.56681 0
M  V30 15131 C 1455.28 -3.57586 -2.42397 0
M  V30 15132 C 1454.42 -3.82197 -3.68916 0
M  V30 15133 C 1453.46 -5.02505 -3.49507 0
M  V30 15134 N 1452.59 -5.23319 -4.68062 0
M  V30 15135 H 1457.43 -2.84361 -0.89123 0
M  V30 15136 H 1454.97 -1.40715 -0.428689 0
M  V30 15137 H 1456.93 -2.49176 -3.34615 0
M  V30 15138 H 1455.56 -1.44773 -2.88514 0
M  V30 15139 H 1454.61 -3.47072 -1.55709 0
M  V30 15140 H 1455.92 -4.45677 -2.23994 0
M  V30 15141 H 1455.08 -4.00996 -4.55288 0
M  V30 15142 H 1453.82 -2.92455 -3.90284 0
M  V30 15143 H 1452.82 -4.83619 -2.6152 0
M  V30 15144 H 1454.05 -5.93765 -3.29574 0
M  V30 15145 H 1451.99 -4.36526 -4.89674 0
M  V30 15146 H 1451.91 -6.05608 -4.52521 0
M  V30 15147 H 1453.18 -5.46585 -5.55757 0
M  V30 15148 N 1457.41 0.45317 -1.50944 0
M  V30 15149 C 1458.66 1.20076 -1.62064 0
M  V30 15150 C 1458.97 1.92709 -0.335034 0
M  V30 15151 O 1460.17 2.69543 -0.32538 0
M  V30 15152 C 1458.63 2.18283 -2.86148 0
M  V30 15153 C 1458.24 1.5137 -4.21653 0
M  V30 15154 C 1459.98 2.93572 -3.0662 0
M  V30 15155 C 1457.89 2.47968 -5.36904 0
M  V30 15156 H 1456.82 0.451894 -0.603579 0
M  V30 15157 H 1459.47 0.46937 -1.77396 0
M  V30 15158 H 1457.85 2.94789 -2.64415 0
M  V30 15159 H 1459.03 0.805295 -4.53709 0
M  V30 15160 H 1457.34 0.882935 -4.06931 0
M  V30 15161 H 1459.94 3.65903 -3.89897 0
M  V30 15162 H 1460.28 3.54003 -2.1906 0
M  V30 15163 H 1460.81 2.24175 -3.28619 0
M  V30 15164 H 1457.55 1.92249 -6.26674 0
M  V30 15165 H 1457.07 3.16907 -5.09244 0
M  V30 15166 H 1458.75 3.09428 -5.6821 0
M  V30 15167 N 1458.88 1.40823 0.707568 0
M  V30 15168 C 1460.3 1.23029 1.01666 0
M  V30 15169 C 1460.5 0.111152 2.01193 0
M  V30 15170 O 1459.56 -0.52836 2.4691 0
M  V30 15171 C 1460.87 2.57509 1.55272 0
M  V30 15172 C 1462.42 2.6459 1.67216 0
M  V30 15173 C 1462.89 3.99357 2.24227 0
M  V30 15174 N 1464.38 4.01141 2.31603 0
M  V30 15175 C 1465.12 5.02211 2.76715 0
M  V30 15176 N 1464.61 6.13674 3.21521 0
M  V30 15177 N 1466.41 4.89577 2.76172 0
M  V30 15178 H 1458.56 2.12346 0.0480107 0
M  V30 15179 H 1460.82 0.944281 0.0838885 0
M  V30 15180 H 1460.53 3.40095 0.896012 0
M  V30 15181 H 1460.4 2.79158 2.53674 0
M  V30 15182 H 1462.79 1.8237 2.32002 0
M  V30 15183 H 1462.87 2.46763 0.673927 0
M  V30 15184 H 1462.51 4.8202 1.6006 0
M  V30 15185 H 1462.44 4.14518 3.2478 0
M  V30 15186 H 1464.93 3.20657 1.99968 0
M  V30 15187 H 1465.25 6.86677 3.54534 0
M  V30 15188 H 1463.59 6.17228 3.1946 0
M  V30 15189 H 1466.78 4.01588 2.40509 0
M  V30 15190 H 1466.96 5.68485 3.11012 0
M  V30 15191 N 1460.36 -0.94061 1.26453 0
M  V30 15192 C 1461.61 -1.68687 1.12031 0
M  V30 15193 C 1461.94 -1.91571 -0.336252 0
M  V30 15194 O 1461.19 -1.49458 -1.26336 0
M  V30 15195 C 1461.49 -3.06683 1.83521 0
M  V30 15196 C 1461.16 -3.03553 3.33416 0
M  V30 15197 C 1459.82 -3.02407 3.74304 0
M  V30 15198 C 1462.17 -2.95817 4.29118 0
M  V30 15199 C 1459.5 -2.9129 5.09281 0
M  V30 15200 C 1461.85 -2.86242 5.64135 0
M  V30 15201 C 1460.52 -2.83438 6.04333 0
M  V30 15202 H 1459.79 -0.61727 0.40995 0
M  V30 15203 H 1462.43 -1.0979 1.56902 0
M  V30 15204 H 1460.74 -3.69208 1.31121 0
M  V30 15205 H 1462.43 -3.63274 1.69802 0
M  V30 15206 H 1459.02 -3.05226 3.00891 0
M  V30 15207 H 1463.21 -2.9581 3.9851 0
M  V30 15208 H 1458.46 -2.87498 5.39588 0
M  V30 15209 H 1462.64 -2.79219 6.37973 0
M  V30 15210 H 1460.27 -2.74581 7.08879 0
M  V30 15211 N 1461.84 -1.08266 -1.14527 0
M  V30 15212 C 1463.09 -0.812661 -1.85805 0
M  V30 15213 C 1463.42 0.659878 -1.82645 0
M  V30 15214 O 1462.69 1.48498 -1.25612 0
M  V30 15215 C 1462.98 -1.33335 -3.34505 0
M  V30 15216 C 1462.83 -2.87113 -3.46246 0
M  V30 15217 C 1464.15 -0.957435 -4.29559 0
M  V30 15218 H 1461.27 -0.296681 -0.674648 0
M  V30 15219 H 1463.91 -1.34203 -1.34497 0
M  V30 15220 H 1462.06 -0.883056 -3.78331 0
M  V30 15221 H 1463.73 -3.40502 -3.11217 0
M  V30 15222 H 1461.98 -3.24845 -2.87504 0
M  V30 15223 H 1462.65 -3.18618 -4.50762 0
M  V30 15224 H 1465.12 -1.3456 -3.93742 0
M  V30 15225 H 1464 -1.34897 -5.32066 0
M  V30 15226 H 1464.26 0.135689 -4.41892 0
M  V30 15227 N 1463.32 1.31536 -0.86811 0
M  V30 15228 C 1464.28 2.26849 -0.327456 0
M  V30 15229 C 1465.28 1.52142 0.520514 0
M  V30 15230 O 1466.47 1.71044 0.330088 0
M  V30 15231 C 1463.6 3.36673 0.535174 0
M  V30 15232 H 1464.8 2.76184 -1.16886 0
M  V30 15233 H 1462.35 1.42437 -0.643545 0
M  V30 15234 H 1463.09 2.92627 1.39785 0
M  V30 15235 H 1462.87 3.92034 -0.0719835 0
M  V30 15236 H 1464.36 4.07658 0.905786 0
M  V30 15237 N 1464.8 0.627364 1.44575 0
M  V30 15238 C 1466.05 0.130094 2.01681 0
M  V30 15239 C 1466.37 -1.25112 1.49572 0
M  V30 15240 O 1465.64 -1.8305 0.697822 0
M  V30 15241 H 1464.22 0.0451032 0.745637 0
M  V30 15242 H 1466.88 0.813218 1.77124 0
M  V30 15243 H 1465.97 0.0949131 3.11956 0
M  V30 15244 N 1466.28 -1.53251 0.367684 0
M  V30 15245 C 1467.52 -2.00469 -0.222481 0
M  V30 15246 C 1467.84 -1.259 -1.49695 0
M  V30 15247 O 1469.04 -1.63717 -2.16585 0
M  V30 15248 C 1467.5 -3.57113 -0.447018 0
M  V30 15249 C 1467.11 -4.40562 0.812946 0
M  V30 15250 C 1468.85 -4.12681 -0.994725 0
M  V30 15251 C 1466.76 -5.88763 0.557877 0
M  V30 15252 H 1465.69 -0.748974 -0.0869144 0
M  V30 15253 H 1468.34 -1.76927 0.48675 0
M  V30 15254 H 1466.72 -3.76818 -1.21756 0
M  V30 15255 H 1467.9 -4.3263 1.58644 0
M  V30 15256 H 1466.21 -3.96108 1.28403 0
M  V30 15257 H 1468.81 -5.2104 -1.20091 0
M  V30 15258 H 1469.15 -3.67408 -1.95748 0
M  V30 15259 H 1469.68 -3.96783 -0.284295 0
M  V30 15260 H 1466.42 -6.38317 1.49102 0
M  V30 15261 H 1465.94 -5.99539 -0.177082 0
M  V30 15262 H 1467.62 -6.46738 0.18419 0
M  V30 15263 N 1467.75 -0.0969077 -1.57302 0
M  V30 15264 C 1468.7 0.872039 -2.10664 0
M  V30 15265 C 1469.69 1.24265 -1.02211 0
M  V30 15266 O 1470.88 1.21743 -1.28482 0
M  V30 15267 C 1468.01 2.13042 -2.69199 0
M  V30 15268 C 1467.09 1.78517 -3.84698 0
M  V30 15269 N 1467.49 1.14558 -4.92656 0
M  V30 15270 C 1465.78 2.08115 -3.94467 0
M  V30 15271 C 1466.48 0.986837 -5.73268 0
M  V30 15272 N 1465.46 1.50473 -5.22359 0
M  V30 15273 H 1469.26 0.373625 -2.91515 0
M  V30 15274 H 1466.78 0.10625 -1.62052 0
M  V30 15275 H 1468.77 2.83403 -3.05759 0
M  V30 15276 H 1467.43 2.63448 -1.89803 0
M  V30 15277 H 1468.44 0.812179 -5.11492 0
M  V30 15278 H 1465.12 2.60722 -3.26083 0
M  V30 15279 H 1466.51 0.48651 -6.70136 0
M  V30 15280 N 1469.23 1.56605 0.176793 0
M  V30 15281 C 1470.48 1.81324 0.892535 0
M  V30 15282 C 1470.8 0.67301 1.83018 0
M  V30 15283 O 1470.07 -0.307498 1.93472 0
M  V30 15284 H 1468.65 0.668881 0.332576 0
M  V30 15285 H 1471.31 1.94086 0.17792 0
M  V30 15286 H 1470.41 2.75168 1.47272 0
M  V30 15287 N 1470.71 -0.445159 1.51182 0
M  V30 15288 C 1471.66 -1.5604 1.72494 0
M  V30 15289 C 1472.65 -1.58753 0.591101 0
M  V30 15290 O 1473.86 -1.62591 0.772285 0
M  V30 15291 H 1470.23 -0.518265 0.544891 0
M  V30 15292 H 1472.2 -1.35237 2.65995 0
M  V30 15293 C 1470.95 -2.93768 1.85999 0
M  V30 15294 H 1470.28 -2.9241 2.72647 0
M  V30 15295 H 1471.72 -3.71189 2.04926 0
M  V30 15296 C 1470.17 -3.31186 0.617853 0
M  V30 15297 O 1470.7 -4.01035 -0.231101 0
M  V30 15298 N 1468.91 -2.86868 0.464234 0
M  V30 15299 H 1468.46 -2.30198 1.15614 0
M  V30 15300 H 1468.42 -3.12267 -0.365643 0
M  V30 15301 N 1472.19 -1.41197 -0.700089 0
M  V30 15302 C 1473.15 -1.42419 -1.79582 0
M  V30 15303 C 1474.15 -0.31551 -1.57674 0
M  V30 15304 O 1475.34 -0.575173 -1.64431 0
M  V30 15305 C 1472.47 -1.23114 -3.17893 0
M  V30 15306 H 1473.67 -2.39956 -1.79892 0
M  V30 15307 H 1471.22 -1.27273 -0.907271 0
M  V30 15308 H 1471.95 -0.263992 -3.23224 0
M  V30 15309 H 1471.74 -2.03437 -3.35195 0
M  V30 15310 H 1473.23 -1.26793 -3.97886 0
M  V30 15311 N 1473.67 0.933891 -1.2695 0
M  V30 15312 C 1475.08 1.49578 -1.11728 0
M  V30 15313 C 1475.43 1.93895 0.299889 0
M  V30 15314 O 1474.55 1.806 1.19216 0
M  V30 15315 C 1475.15 2.71841 -2.02208 0
M  V30 15316 C 1473.71 3.24274 -1.9111 0
M  V30 15317 C 1472.85 1.97029 -1.95128 0
M  V30 15318 H 1475.8 0.748628 -1.39933 0
M  V30 15319 H 1475.83 3.46407 -1.57425 0
M  V30 15320 H 1475.34 2.39556 -3.05343 0
M  V30 15321 H 1473.44 3.61333 -0.909367 0
M  V30 15322 H 1473.55 3.90887 -2.77027 0
M  V30 15323 H 1471.92 2.13249 -1.39273 0
M  V30 15324 H 1472.7 1.67066 -2.99907 0
M  V30 15325 N 1475.14 1.08871 1.13951 0
M  V30 15326 C 1476.39 0.822504 1.85372 0
M  V30 15327 C 1476.72 -0.650183 1.82993 0
M  V30 15328 O 1476 -1.4783 1.26398 0
M  V30 15329 C 1476.28 1.35107 3.33793 0
M  V30 15330 C 1476.13 2.88945 3.44719 0
M  V30 15331 C 1477.45 0.980203 4.29045 0
M  V30 15332 H 1474.57 0.300255 0.673065 0
M  V30 15333 H 1477.21 1.34914 1.33784 0
M  V30 15334 H 1475.36 0.903108 3.77857 0
M  V30 15335 H 1477.04 3.42148 3.09407 0
M  V30 15336 H 1475.28 3.26365 2.85777 0
M  V30 15337 H 1475.95 3.21004 4.49066 0
M  V30 15338 H 1478.43 1.36646 3.93023 0
M  V30 15339 H 1477.3 1.37717 5.31343 0
M  V30 15340 H 1477.56 -0.112253 4.41957 0
M  V30 15341 N 1476.62 -1.31073 0.875073 0
M  V30 15342 C 1477.87 -1.9613 0.487584 0
M  V30 15343 C 1478.19 -1.69482 -0.964407 0
M  V30 15344 O 1477.46 -1.013 -1.67676 0
M  V30 15345 H 1476.04 -0.725649 0.177319 0
M  V30 15346 H 1478.7 -1.59787 1.11598 0
M  V30 15347 H 1477.8 -3.05265 0.649574 0
M  V30 15348 N 1478.1 -0.635022 -1.4424 0
M  V30 15349 C 1479.33 -0.14826 -2.06368 0
M  V30 15350 C 1479.74 1.17875 -1.47482 0
M  V30 15351 O 1479.1 1.72384 -0.599168 0
M  V30 15352 C 1479.15 -0.031519 -3.61486 0
M  V30 15353 O 1478.87 -1.30605 -4.18179 0
M  V30 15354 C 1480.37 0.483479 -4.40656 0
M  V30 15355 H 1477.59 -0.081472 -0.666036 0
M  V30 15356 H 1480.14 -0.870526 -1.85046 0
M  V30 15357 H 1478.29 0.641208 -3.82057 0
M  V30 15358 H 1478.71 -1.15341 -5.11661 0
M  V30 15359 H 1480.18 0.514164 -5.496 0
M  V30 15360 H 1480.66 1.51129 -4.12379 0
M  V30 15361 H 1481.26 -0.156131 -4.25013 0
M  V30 15362 N 1479.58 1.53054 -0.375806 0
M  V30 15363 C 1480.49 2.29772 0.47349 0
M  V30 15364 C 1481.5 1.36144 1.08355 0
M  V30 15365 O 1482.68 1.69208 1.09228 0
M  V30 15366 C 1479.75 3.07964 1.59245 0
M  V30 15367 C 1478.81 4.17277 1.00888 0
M  V30 15368 C 1478.04 4.91731 2.07451 0
M  V30 15369 O 1478.26 4.66143 3.28736 0
M  V30 15370 O 1477.2 5.77413 1.69936 0
M  V30 15371 H 1481.02 3.03324 -0.151105 0
M  V30 15372 H 1478.61 1.48744 -0.139895 0
M  V30 15373 H 1480.49 3.56759 2.24279 0
M  V30 15374 H 1479.16 2.37239 2.20226 0
M  V30 15375 H 1478.07 3.7271 0.322167 0
M  V30 15376 H 1479.4 4.90198 0.443483 0
M  V30 15377 N 1481.06 0.105248 1.57248 0
M  V30 15378 C 1481.99 -0.846915 2.176 0
M  V30 15379 C 1482.97 -1.28706 1.11216 0
M  V30 15380 O 1484.15 -1.35213 1.39396 0
M  V30 15381 C 1481.28 -2.10228 2.76445 0
M  V30 15382 C 1480.24 -1.80041 3.8829 0
M  V30 15383 C 1479.56 -3.12491 4.33882 0
M  V30 15384 C 1480.86 -1.07943 5.11024 0
M  V30 15385 H 1482.56 -0.344052 2.97417 0
M  V30 15386 H 1480.1 -0.164045 1.43063 0
M  V30 15387 H 1482.06 -2.77284 3.17319 0
M  V30 15388 H 1480.78 -2.62815 1.93897 0
M  V30 15389 H 1479.44 -1.15379 3.4797 0
M  V30 15390 H 1479.09 -3.62985 3.48211 0
M  V30 15391 H 1478.79 -2.93072 5.09296 0
M  V30 15392 H 1480.31 -3.80688 4.77398 0
M  V30 15393 H 1481.72 -1.65127 5.49004 0
M  V30 15394 H 1480.12 -0.986674 5.91933 0
M  V30 15395 H 1481.19 -0.0638511 4.84858 0
M  V30 15396 N 1482.53 -1.56697 -0.168486 0
M  V30 15397 C 1483.46 -1.99659 -1.21073 0
M  V30 15398 C 1484.45 -0.872625 -1.46011 0
M  V30 15399 O 1485.63 -1.13891 -1.57297 0
M  V30 15400 C 1482.76 -2.35889 -2.54899 0
M  V30 15401 C 1481.71 -3.51272 -2.44524 0
M  V30 15402 C 1481.04 -3.73253 -3.82866 0
M  V30 15403 C 1482.34 -4.84631 -1.94756 0
M  V30 15404 H 1484.03 -2.86974 -0.853593 0
M  V30 15405 H 1481.58 -1.38065 -0.409165 0
M  V30 15406 H 1483.53 -2.64542 -3.28017 0
M  V30 15407 H 1482.26 -1.45486 -2.92406 0
M  V30 15408 H 1480.92 -3.22751 -1.7386 0
M  V30 15409 H 1480.56 -2.80136 -4.17772 0
M  V30 15410 H 1480.26 -4.5089 -3.76792 0
M  V30 15411 H 1481.79 -4.04309 -4.57566 0
M  V30 15412 H 1483.2 -5.12142 -2.5765 0
M  V30 15413 H 1481.6 -5.65925 -1.99623 0
M  V30 15414 H 1482.67 -4.76436 -0.902021 0
M  V30 15415 N 1484.01 0.437135 -1.51416 0
M  V30 15416 C 1484.94 1.538 -1.75692 0
M  V30 15417 C 1485.92 1.5891 -0.606759 0
M  V30 15418 O 1487.11 1.74635 -0.849492 0
M  V30 15419 C 1484.24 2.91877 -1.88215 0
M  V30 15420 C 1483.19 3.01628 -3.03652 0
M  V30 15421 C 1482.52 4.41687 -3.01358 0
M  V30 15422 C 1483.82 2.75691 -4.43612 0
M  V30 15423 H 1485.51 1.33737 -2.67871 0
M  V30 15424 H 1483.06 0.641936 -1.289 0
M  V30 15425 H 1485.01 3.68851 -2.03781 0
M  V30 15426 H 1483.74 3.13173 -0.926847 0
M  V30 15427 H 1482.39 2.27094 -2.87791 0
M  V30 15428 H 1482.04 4.5995 -2.03605 0
M  V30 15429 H 1481.74 4.49141 -3.78875 0
M  V30 15430 H 1483.27 5.20634 -3.19018 0
M  V30 15431 H 1484.68 3.42398 -4.59822 0
M  V30 15432 H 1483.08 2.94554 -5.22836 0
M  V30 15433 H 1484.15 1.71297 -4.53636 0
M  V30 15434 N 1485.49 1.41566 0.692592 0
M  V30 15435 C 1486.45 1.43369 1.78824 0
M  V30 15436 C 1487.45 0.323867 1.57505 0
M  V30 15437 O 1488.64 0.583885 1.64123 0
M  V30 15438 C 1485.78 1.24798 3.17235 0
M  V30 15439 H 1486.97 2.40906 1.78617 0
M  V30 15440 H 1484.52 1.27752 0.900508 0
M  V30 15441 H 1485.26 0.281129 3.23079 0
M  V30 15442 H 1485.04 2.05212 3.34111 0
M  V30 15443 H 1486.53 1.28902 3.97208 0
M  V30 15444 N 1486.97 -0.927146 1.27443 0
M  V30 15445 C 1487.9 -2.04483 1.12735 0
M  V30 15446 C 1488.88 -1.70076 0.0286662 0
M  V30 15447 O 1490.06 -1.93133 0.203252 0
M  V30 15448 C 1487.19 -3.38557 0.774352 0
M  V30 15449 C 1486.15 -3.87078 1.82632 0
M  V30 15450 C 1485.47 -5.17964 1.32729 0
M  V30 15451 C 1486.77 -4.10409 3.23051 0
M  V30 15452 H 1488.47 -2.17046 2.06231 0
M  V30 15453 H 1486.01 -1.04292 0.992937 0
M  V30 15454 H 1487.97 -4.16227 0.658273 0
M  V30 15455 H 1486.69 -3.26009 -0.196321 0
M  V30 15456 H 1485.35 -3.11602 1.93132 0
M  V30 15457 H 1485 -5.01808 0.346059 0
M  V30 15458 H 1484.7 -5.51398 2.03061 0
M  V30 15459 H 1486.22 -5.98203 1.22416 0
M  V30 15460 H 1487.64 -4.78646 3.15549 0
M  V30 15461 H 1486.03 -4.5515 3.91099 0
M  V30 15462 H 1487.1 -3.15685 3.68064 0
M  V30 15463 N 1488.45 -1.09474 -1.13372 0
M  V30 15464 C 1489.41 -0.738173 -2.16988 0
M  V30 15465 C 1490.41 0.232488 -1.5911 0
M  V30 15466 O 1491.6 0.0106093 -1.74197 0
M  V30 15467 C 1488.73 -0.091724 -3.40777 0
M  V30 15468 H 1489.92 -1.65582 -2.50045 0
M  V30 15469 H 1487.48 -0.893994 -1.28209 0
M  V30 15470 H 1488.21 0.837129 -3.13309 0
M  V30 15471 H 1488 -0.790161 -3.84056 0
M  V30 15472 H 1489.49 0.142334 -4.17357 0
M  V30 15473 N 1489.92 1.30607 -0.882012 0
M  V30 15474 C 1490.83 2.31967 -0.350503 0
M  V30 15475 C 1491.85 1.6522 0.54575 0
M  V30 15476 O 1493.03 1.96544 0.439581 0
M  V30 15477 C 1490.09 3.44037 0.428924 0
M  V30 15478 C 1489.15 4.26417 -0.496727 0
M  V30 15479 C 1488.39 5.33135 0.245597 0
M  V30 15480 O 1488.61 5.51077 1.47209 0
M  V30 15481 O 1487.54 6.00551 -0.402767 0
M  V30 15482 H 1491.37 2.79374 -1.19095 0
M  V30 15483 H 1488.95 1.34723 -0.645754 0
M  V30 15484 H 1490.84 4.12314 0.870346 0
M  V30 15485 H 1489.51 2.9877 1.24573 0
M  V30 15486 H 1488.42 3.60848 -0.986899 0
M  V30 15487 H 1489.75 4.7528 -1.27945 0
M  V30 15488 N 1491.4 0.642663 1.43901 0
M  V30 15489 C 1492.65 0.151778 2.0193 0
M  V30 15490 C 1492.98 -1.23052 1.50627 0
M  V30 15491 O 1492.23 -1.83305 0.685404 0
M  V30 15492 C 1492.53 0.100139 3.5726 0
M  V30 15493 C 1492.2 1.42276 4.27865 0
M  V30 15494 C 1490.86 1.78497 4.46869 0
M  V30 15495 C 1493.21 2.29526 4.67939 0
M  V30 15496 C 1490.54 3.01655 5.03211 0
M  V30 15497 C 1492.89 3.51966 5.25645 0
M  V30 15498 C 1491.56 3.88396 5.42867 0
M  V30 15499 H 1490.83 0.0555394 0.738916 0
M  V30 15500 H 1493.47 0.831273 1.72517 0
M  V30 15501 H 1491.78 -0.66277 3.86154 0
M  V30 15502 H 1493.47 -0.29638 3.99903 0
M  V30 15503 H 1490.06 1.13091 4.13411 0
M  V30 15504 H 1494.25 2.02835 4.52959 0
M  V30 15505 H 1489.5 3.29943 5.14731 0
M  V30 15506 H 1493.68 4.19799 5.55645 0
M  V30 15507 H 1491.31 4.83909 5.8629 0
M  V30 15508 N 1492.88 -1.52852 0.383918 0
M  V30 15509 C 1493.81 -2.29213 -0.44539 0
M  V30 15510 C 1494.79 -1.3238 -1.06815 0
M  V30 15511 O 1495.98 -1.61269 -1.08194 0
M  V30 15512 C 1493.11 -3.09497 -1.57573 0
M  V30 15513 C 1492.06 -4.14168 -1.07928 0
M  V30 15514 C 1491.39 -4.82644 -2.30128 0
M  V30 15515 C 1492.69 -5.22082 -0.151035 0
M  V30 15516 H 1494.38 -2.98786 0.19172 0
M  V30 15517 H 1491.93 -1.43695 0.0936471 0
M  V30 15518 H 1493.88 -3.61672 -2.16267 0
M  V30 15519 H 1492.6 -2.37647 -2.24034 0
M  V30 15520 H 1491.26 -3.62966 -0.514909 0
M  V30 15521 H 1490.91 -4.07348 -2.95087 0
M  V30 15522 H 1490.61 -5.53388 -1.97574 0
M  V30 15523 H 1492.14 -5.37621 -2.89475 0
M  V30 15524 H 1493.55 -5.69649 -0.646003 0
M  V30 15525 H 1491.95 -6.00041 0.0844833 0
M  V30 15526 H 1493.02 -4.78228 0.801618 0
M  V30 15527 N 1494.36 -0.113586 -1.5719 0
M  V30 15528 C 1495.6 0.548872 -1.96893 0
M  V30 15529 C 1495.96 1.64191 -0.99525 0
M  V30 15530 O 1497.16 2.36289 -1.28145 0
M  V30 15531 C 1495.44 1.07279 -3.40919 0
M  V30 15532 S 1496.99 1.74453 -4.02631 0
M  V30 15533 H 1493.81 0.178565 -0.688212 0
M  V30 15534 H 1496.41 -0.197382 -1.94501 0
M  V30 15535 H 1495.12 0.266019 -4.09537 0
M  V30 15536 H 1494.65 1.85444 -3.46949 0
M  V30 15537 H 1496.66 3.02998 -3.92946 0
M  V30 15538 N 1495.84 1.56784 0.160173 0
M  V30 15539 C 1496.77 2.00298 1.20012 0
M  V30 15540 C 1497.75 0.880356 1.45546 0
M  V30 15541 O 1498.93 1.14724 1.56691 0
M  V30 15542 C 1496.06 2.37238 2.53645 0
M  V30 15543 C 1495.02 3.52563 2.42658 0
M  V30 15544 C 1494.34 3.75278 3.80881 0
M  V30 15545 C 1495.64 4.85657 1.92183 0
M  V30 15546 H 1497.34 2.87423 0.838362 0
M  V30 15547 H 1494.88 1.3828 0.401838 0
M  V30 15548 H 1496.84 2.66278 3.2661 0
M  V30 15549 H 1495.56 1.47035 2.9163 0
M  V30 15550 H 1494.22 3.23669 1.72146 0
M  V30 15551 H 1493.87 2.82347 4.1628 0
M  V30 15552 H 1493.57 4.52882 3.74396 0
M  V30 15553 H 1495.09 4.0673 4.55415 0
M  V30 15554 H 1496.51 5.13501 2.54931 0
M  V30 15555 H 1494.9 5.66975 1.96619 0
M  V30 15556 H 1495.97 4.76908 0.876742 0
M  V30 15557 N 1497.32 -0.429099 1.51646 0
M  V30 15558 C 1498.26 -1.54202 1.74139 0
M  V30 15559 C 1499.26 -1.58117 0.607905 0
M  V30 15560 O 1500.46 -1.61763 0.789486 0
M  V30 15561 H 1496.84 -0.512456 0.550357 0
M  V30 15562 H 1498.81 -1.32408 2.67415 0
M  V30 15563 C 1497.56 -2.91779 1.89104 0
M  V30 15564 H 1496.88 -2.89502 2.75733 0
M  V30 15565 H 1498.32 -3.68995 2.08851 0
M  V30 15566 C 1496.78 -3.30512 0.652945 0
M  V30 15567 O 1497.31 -4.01257 -0.188553 0
M  V30 15568 N 1495.52 -2.86359 0.494634 0
M  V30 15569 H 1495.06 -2.28959 1.18049 0
M  V30 15570 H 1495.02 -3.12637 -0.332503 0
M  V30 15571 N 1498.79 -1.41931 -0.685074 0
M  V30 15572 C 1500.02 -1.45018 -1.4715 0
M  V30 15573 C 1500.43 -0.0569412 -1.89114 0
M  V30 15574 O 1499.77 0.936419 -1.58041 0
M  V30 15575 C 1499.84 -2.30522 -2.75862 0
M  V30 15576 C 1499.5 -3.78542 -2.56037 0
M  V30 15577 C 1500.5 -4.70448 -2.21303 0
M  V30 15578 C 1498.18 -4.22698 -2.71351 0
M  V30 15579 C 1500.18 -6.045 -2.02135 0
M  V30 15580 C 1497.86 -5.56812 -2.518 0
M  V30 15581 C 1498.86 -6.47529 -2.17244 0
M  V30 15582 O 1498.55 -7.79167 -1.97872 0
M  V30 15583 H 1498.28 -0.495682 -0.459647 0
M  V30 15584 H 1500.84 -1.86983 -0.850079 0
M  V30 15585 H 1499.07 -1.83389 -3.40449 0
M  V30 15586 H 1500.75 -2.25186 -3.37707 0
M  V30 15587 H 1501.52 -4.37621 -2.09077 0
M  V30 15588 H 1497.4 -3.52385 -2.9723 0
M  V30 15589 H 1500.94 -6.75271 -1.75086 0
M  V30 15590 H 1496.84 -5.89216 -2.6362 0
M  V30 15591 H 1497.61 -7.9042 -2.12552 0
M  V30 15592 N 1500.27 0.920374 -1.27933 0
M  V30 15593 C 1501.22 2.02196 -1.1129 0
M  V30 15594 C 1502.19 1.66096 -0.0118871 0
M  V30 15595 O 1503.37 1.8999 -0.175586 0
M  V30 15596 C 1500.51 3.36312 -0.77383 0
M  V30 15597 C 1499.63 3.85322 -1.95322 0
M  V30 15598 C 1498.76 5.07919 -1.55537 0
M  V30 15599 C 1497.8 5.49244 -2.7018 0
M  V30 15600 N 1496.94 6.63034 -2.30933 0
M  V30 15601 H 1501.78 2.15764 -2.05548 0
M  V30 15602 H 1499.31 1.05691 -1.02312 0
M  V30 15603 H 1501.27 4.13451 -0.558024 0
M  V30 15604 H 1499.9 3.22531 0.131806 0
M  V30 15605 H 1498.95 3.04399 -2.28135 0
M  V30 15606 H 1500.27 4.11915 -2.81296 0
M  V30 15607 H 1499.42 5.92581 -1.30123 0
M  V30 15608 H 1498.16 4.8312 -0.666818 0
M  V30 15609 H 1497.16 4.63127 -2.96299 0
M  V30 15610 H 1498.39 5.76035 -3.59667 0
M  V30 15611 H 1496.34 6.39878 -1.44539 0
M  V30 15612 H 1496.25 6.89319 -3.10444 0
M  V30 15613 H 1497.52 7.51018 -2.08786 0
M  V30 15614 N 1501.75 1.10074 1.1279 0
M  V30 15615 C 1502.7 0.746173 2.18405 0
M  V30 15616 C 1503.67 -0.275751 1.63795 0
M  V30 15617 O 1504.85 -0.155876 1.90162 0
M  V30 15618 C 1501.99 0.180105 3.4463 0
M  V30 15619 C 1501.1 1.25688 4.13312 0
M  V30 15620 C 1500.24 0.652852 5.27173 0
M  V30 15621 C 1499.28 1.71046 5.87716 0
M  V30 15622 N 1498.42 1.12698 6.92996 0
M  V30 15623 H 1503.26 1.65105 2.48081 0
M  V30 15624 H 1500.79 0.824768 1.21803 0
M  V30 15625 H 1502.75 -0.165948 4.1687 0
M  V30 15626 H 1501.38 -0.688014 3.15383 0
M  V30 15627 H 1500.43 1.72011 3.39288 0
M  V30 15628 H 1501.74 2.05762 4.54382 0
M  V30 15629 H 1500.9 0.25603 6.0616 0
M  V30 15630 H 1499.64 -0.17937 4.8737 0
M  V30 15631 H 1498.64 2.11676 5.07418 0
M  V30 15632 H 1499.87 2.54547 6.29589 0
M  V30 15633 H 1497.81 0.316154 6.55238 0
M  V30 15634 H 1497.73 1.86461 7.32645 0
M  V30 15635 H 1499 0.756582 7.7582 0
M  V30 15636 N 1503.23 -1.30138 0.888926 0
M  V30 15637 C 1504.18 -2.29979 0.348212 0
M  V30 15638 C 1505.17 -1.60329 -0.546894 0
M  V30 15639 O 1506.38 -1.74767 -0.43089 0
M  V30 15640 H 1502.75 -0.746107 0.0939563 0
M  V30 15641 H 1504.72 -2.73038 1.20385 0
M  V30 15642 C 1503.47 -3.45169 -0.418762 0
M  V30 15643 H 1502.79 -3.98949 0.260761 0
M  V30 15644 H 1504.23 -4.17094 -0.762133 0
M  V30 15645 C 1502.69 -2.95539 -1.61734 0
M  V30 15646 O 1503.22 -2.95902 -2.7167 0
M  V30 15647 N 1501.43 -2.51502 -1.45585 0
M  V30 15648 H 1500.98 -2.51406 -0.561483 0
M  V30 15649 H 1500.93 -2.18654 -2.25916 0
M  V30 15650 N 1504.71 -0.650285 -1.43559 0
M  V30 15651 C 1506.12 -0.24263 -1.85117 0
M  V30 15652 C 1506.47 1.21017 -1.54432 0
M  V30 15653 O 1505.59 1.92332 -0.991839 0
M  V30 15654 C 1506.19 -0.433575 -3.36014 0
M  V30 15655 C 1504.75 -0.0802635 -3.76314 0
M  V30 15656 C 1503.89 -0.737844 -2.67303 0
M  V30 15657 H 1506.84 -0.854158 -1.33753 0
M  V30 15658 H 1506.87 0.321801 -3.79137 0
M  V30 15659 H 1506.38 -1.49102 -3.58316 0
M  V30 15660 H 1504.48 0.974703 -3.59625 0
M  V30 15661 H 1504.59 -0.503683 -4.76445 0
M  V30 15662 H 1502.96 -0.171349 -2.54123 0
M  V30 15663 H 1503.74 -1.79826 -2.92434 0
M  V30 15664 N 1506.18 1.52647 -0.392018 0
M  V30 15665 C 1507.15 2.25135 0.429754 0
M  V30 15666 C 1508.15 1.26871 0.987946 0
M  V30 15667 O 1509.34 1.50947 0.86952 0
M  V30 15668 C 1506.47 3.00849 1.60321 0
M  V30 15669 H 1507.66 2.99199 -0.204918 0
M  V30 15670 H 1505.21 1.55634 -0.144188 0
M  V30 15671 H 1505.95 2.31092 2.27524 0
M  V30 15672 H 1505.73 3.72975 1.20964 0
M  V30 15673 H 1507.22 3.55879 2.18494 0
M  V30 15674 N 1507.66 0.121921 1.57128 0
M  V30 15675 C 1508.91 -0.536164 1.95584 0
M  V30 15676 C 1509.24 -1.66143 1.0055 0
M  V30 15677 O 1508.52 -1.94452 0.0432427 0
M  V30 15678 C 1508.8 -1.0661 3.43957 0
M  V30 15679 C 1508.65 0.0559458 4.49765 0
M  V30 15680 C 1509.97 -1.95603 3.94243 0
M  V30 15681 H 1507.09 -0.193427 0.711165 0
M  V30 15682 H 1509.73 0.198072 1.88965 0
M  V30 15683 H 1507.88 -1.69181 3.49729 0
M  V30 15684 H 1509.55 0.691357 4.5609 0
M  V30 15685 H 1507.8 0.71868 4.27805 0
M  V30 15686 H 1508.47 -0.356133 5.5085 0
M  V30 15687 H 1510.94 -1.42899 3.90793 0
M  V30 15688 H 1509.82 -2.29599 4.98573 0
M  V30 15689 H 1510.08 -2.88364 3.3511 0
M  V30 15690 N 1509.14 -1.56867 -0.151857 0
M  V30 15691 C 1510.37 -1.87237 -0.880343 0
M  V30 15692 C 1510.78 -0.709565 -1.74959 0
M  V30 15693 O 1510.14 0.320818 -1.79658 0
M  V30 15694 C 1510.19 -3.16811 -1.74107 0
M  V30 15695 O 1509.91 -4.28611 -0.906858 0
M  V30 15696 C 1511.41 -3.60662 -2.57755 0
M  V30 15697 H 1508.63 -0.62074 -0.254799 0
M  V30 15698 H 1511.18 -2.03977 -0.146104 0
M  V30 15699 H 1509.33 -3.01838 -2.42842 0
M  V30 15700 H 1509.75 -5.02673 -1.49733 0
M  V30 15701 H 1511.22 -4.54176 -3.13732 0
M  V30 15702 H 1511.7 -2.85716 -3.33561 0
M  V30 15703 H 1512.3 -3.78312 -1.94319 0
M  V30 15704 N 1510.62 0.421051 -1.51871 0
M  V30 15705 C 1511.55 1.53094 -1.70572 0
M  V30 15706 C 1512.56 1.5188 -0.586201 0
M  V30 15707 O 1513.75 1.56361 -0.861013 0
M  V30 15708 C 1510.85 2.92002 -1.72011 0
M  V30 15709 C 1510.03 3.17541 -3.0081 0
M  V30 15710 C 1509.08 4.36259 -2.94219 0
M  V30 15711 O 1508.11 4.34118 -3.68144 0
M  V30 15712 N 1509.31 5.40722 -2.11188 0
M  V30 15713 H 1512.08 1.3745 -2.66322 0
M  V30 15714 H 1509.64 0.610204 -1.4996 0
M  V30 15715 H 1511.63 3.6947 -1.65149 0
M  V30 15716 H 1510.2 3.01162 -0.837861 0
M  V30 15717 H 1509.42 2.28225 -3.21414 0
M  V30 15718 H 1510.71 3.3144 -3.86037 0
M  V30 15719 H 1510.11 5.45304 -1.50534 0
M  V30 15720 H 1508.66 6.16979 -2.10192 0
M  V30 15721 N 1512.1 1.42293 0.677538 0
M  V30 15722 C 1513.03 1.48344 1.80323 0
M  V30 15723 C 1514.01 0.340276 1.66662 0
M  V30 15724 O 1515.19 0.554209 1.86124 0
M  V30 15725 C 1512.32 1.38247 3.18599 0
M  V30 15726 C 1511.28 2.50562 3.46991 0
M  V30 15727 C 1510.6 2.25524 4.84812 0
M  V30 15728 C 1511.9 3.92877 3.44158 0
M  V30 15729 H 1513.6 2.42558 1.75516 0
M  V30 15730 H 1511.14 1.16746 0.842999 0
M  V30 15731 H 1513.1 1.41089 3.97079 0
M  V30 15732 H 1511.82 0.405255 3.24076 0
M  V30 15733 H 1510.48 2.47032 2.7087 0
M  V30 15734 H 1510.13 1.26102 4.86937 0
M  V30 15735 H 1509.83 3.00797 5.04772 0
M  V30 15736 H 1511.35 2.3011 5.65581 0
M  V30 15737 H 1512.76 3.98024 4.12613 0
M  V30 15738 H 1511.16 4.6798 3.75653 0
M  V30 15739 H 1512.23 4.19743 2.42783 0
M  V30 15740 N 1513.57 -0.913576 1.28419 0
M  V30 15741 C 1514.82 -1.66519 1.15755 0
M  V30 15742 C 1515.15 -1.91974 -0.293166 0
M  V30 15743 O 1514.43 -1.52025 -1.21321 0
M  V30 15744 C 1514.71 -3.02299 1.95672 0
M  V30 15745 C 1514.56 -2.83996 3.48807 0
M  V30 15746 C 1515.88 -4.02838 1.77226 0
M  V30 15747 H 1513 -0.604309 0.421877 0
M  V30 15748 H 1515.64 -1.05919 1.57737 0
M  V30 15749 H 1513.79 -3.54025 1.59995 0
M  V30 15750 H 1515.47 -2.39279 3.9439 0
M  V30 15751 H 1513.71 -2.19052 3.74431 0
M  V30 15752 H 1514.38 -3.80419 3.99982 0
M  V30 15753 H 1516.86 -3.60174 2.0836 0
M  V30 15754 H 1515.73 -4.95806 2.35515 0
M  V30 15755 H 1515.99 -4.36135 0.723804 0
M  V30 15756 N 1515.05 -1.1067 -1.12204 0
M  V30 15757 C 1516.33 -0.762632 -1.8012 0
M  V30 15758 C 1516.71 0.750529 -1.97308 0
M  V30 15759 O 1516.06 1.67764 -1.55137 0
M  V30 15760 C 1516.27 -1.51651 -3.14329 0
M  V30 15761 C 1517.62 -1.69061 -3.89491 0
M  V30 15762 O 1518.64 -1.48009 -3.23994 0
M  V30 15763 O 1517.5 -2.03984 -5.07004 0
M  V30 15764 H 1514.59 -0.275417 -0.779791 0
M  V30 15765 H 1517.14 -1.20966 -1.19018 0
M  V30 15766 H 1515.91 -2.54622 -2.97125 0
M  V30 15767 H 1515.53 -1.0625 -3.83141 0
M  V30 15768 N 1516.53 1.29665 -0.895815 0
M  V30 15769 C 1517.95 1.4824 -0.591355 0
M  V30 15770 C 1518.15 1.81839 0.86815 0
M  V30 15771 O 1517.2 1.91251 1.64861 0
M  V30 15772 C 1518.52 2.59814 -1.51384 0
M  V30 15773 C 1520.06 2.73691 -1.51862 0
M  V30 15774 C 1520.54 3.8839 -2.42729 0
M  V30 15775 N 1522.03 3.95717 -2.40754 0
M  V30 15776 C 1522.76 4.83804 -3.07769 0
M  V30 15777 N 1522.26 5.7661 -3.84048 0
M  V30 15778 N 1524.05 4.77263 -2.96946 0
M  V30 15779 H 1516.2 1.06131 -1.83984 0
M  V30 15780 H 1518.47 0.526819 -0.788141 0
M  V30 15781 H 1518.17 2.4184 -2.55355 0
M  V30 15782 H 1518.05 3.56532 -1.23147 0
M  V30 15783 H 1520.43 2.91064 -0.486375 0
M  V30 15784 H 1520.52 1.77561 -1.84135 0
M  V30 15785 H 1520.16 3.71773 -3.46045 0
M  V30 15786 H 1520.09 4.8388 -2.07767 0
M  V30 15787 H 1522.58 3.29334 -1.8533 0
M  V30 15788 H 1522.89 6.40611 -4.32247 0
M  V30 15789 H 1521.24 5.76507 -3.88155 0
M  V30 15790 H 1524.43 4.03744 -2.36871 0
M  V30 15791 H 1524.6 5.45701 -3.49448 0
M  V30 15792 N 1518.01 0.657889 1.43212 0
M  V30 15793 C 1519.24 0.181072 2.06106 0
M  V30 15794 C 1519.65 -1.15513 1.49339 0
M  V30 15795 O 1519.01 -1.71409 0.626517 0
M  V30 15796 C 1519.06 0.0890244 3.6139 0
M  V30 15797 O 1518.78 1.37241 4.16049 0
M  V30 15798 C 1520.28 -0.413313 4.41369 0
M  V30 15799 H 1517.5 0.0920577 0.664655 0
M  V30 15800 H 1520.05 0.899855 1.83638 0
M  V30 15801 H 1518.2 -0.580345 3.83028 0
M  V30 15802 H 1518.61 1.23467 5.09761 0
M  V30 15803 H 1520.09 -0.426663 5.50349 0
M  V30 15804 H 1520.57 -1.44549 4.14731 0
M  V30 15805 H 1521.17 0.223727 4.24711 0
M  V30 15806 N 1519.49 -1.52437 0.400108 0
M  V30 15807 C 1520.9 -1.5952 0.0505611 0
M  V30 15808 C 1521.1 -1.4135 -1.43606 0
M  V30 15809 O 1520.16 -1.23591 -2.20185 0
M  V30 15810 C 1521.47 -2.95859 0.537411 0
M  V30 15811 C 1523.02 -3.09067 0.494603 0
M  V30 15812 C 1523.49 -4.47873 0.957815 0
M  V30 15813 N 1524.99 -4.54087 0.914267 0
M  V30 15814 C 1525.72 -5.59744 1.24397 0
M  V30 15815 N 1525.22 -6.72995 1.64469 0
M  V30 15816 N 1527.01 -5.49905 1.16452 0
M  V30 15817 H 1519.16 -1.62496 1.36781 0
M  V30 15818 H 1521.42 -0.763947 0.561328 0
M  V30 15819 H 1521.13 -3.14407 1.57611 0
M  V30 15820 H 1521 -3.77156 -0.0577652 0
M  V30 15821 H 1523.39 -2.90209 -0.535035 0
M  V30 15822 H 1523.47 -2.29698 1.12572 0
M  V30 15823 H 1523.12 -4.67473 1.98574 0
M  V30 15824 H 1523.05 -5.25724 0.303602 0
M  V30 15825 H 1525.54 -3.72787 0.619536 0
M  V30 15826 H 1525.85 -7.49594 1.87961 0
M  V30 15827 H 1524.19 -6.74298 1.68364 0
M  V30 15828 H 1527.39 -4.60311 0.850401 0
M  V30 15829 H 1527.56 -6.32142 1.42478 0
M  V30 15830 N 1520.96 -0.130252 -1.57061 0
M  V30 15831 C 1522.21 0.52488 -1.94751 0
M  V30 15832 C 1522.53 1.67107 -1.0166 0
M  V30 15833 O 1523.73 2.38971 -1.28861 0
M  V30 15834 C 1522.19 0.985118 -3.46155 0
M  V30 15835 C 1521.8 -0.133222 -4.47802 0
M  V30 15836 C 1523.54 1.61099 -3.92743 0
M  V30 15837 C 1521.45 0.344346 -5.90397 0
M  V30 15838 H 1520.38 0.19985 -0.727032 0
M  V30 15839 H 1523.03 -0.211912 -1.82272 0
M  V30 15840 H 1521.41 1.77667 -3.53907 0
M  V30 15841 H 1522.58 -0.909784 -4.5173 0
M  V30 15842 H 1520.9 -0.666449 -4.11032 0
M  V30 15843 H 1523.5 1.97963 -4.96704 0
M  V30 15844 H 1523.84 2.49366 -3.3335 0
M  V30 15845 H 1524.37 0.884641 -3.87839 0
M  V30 15846 H 1521.11 -0.502547 -6.53571 0
M  V30 15847 H 1520.63 1.08714 -5.89865 0
M  V30 15848 H 1522.31 0.801885 -6.42012 0
M  V30 15849 N 1522.44 1.56945 0.143535 0
M  V30 15850 C 1523.69 1.8381 0.856831 0
M  V30 15851 C 1524.02 0.712375 1.80662 0
M  V30 15852 O 1523.3 -0.283743 1.92419 0
M  V30 15853 C 1523.58 3.21184 1.62828 0
M  V30 15854 C 1523.43 4.44324 0.699744 0
M  V30 15855 C 1524.75 3.5582 2.58999 0
M  V30 15856 H 1521.87 0.668611 0.310046 0
M  V30 15857 H 1524.51 1.89609 0.1219 0
M  V30 15858 H 1522.66 3.16372 2.2548 0
M  V30 15859 H 1524.34 4.61224 0.0839619 0
M  V30 15860 H 1522.58 4.33799 0.0095529 0
M  V30 15861 H 1523.25 5.37058 1.27564 0
M  V30 15862 H 1525.73 3.61264 2.06464 0
M  V30 15863 H 1524.6 4.52964 3.10024 0
M  V30 15864 H 1524.86 2.81956 3.40519 0
M  V30 15865 N 1523.92 -0.412991 1.52093 0
M  V30 15866 C 1525.17 -1.15737 1.65191 0
M  V30 15867 C 1525.48 -1.91753 0.38601 0
M  V30 15868 O 1526.69 -2.68586 0.396731 0
M  V30 15869 C 1525.15 -2.10619 2.91835 0
M  V30 15870 C 1524.75 -1.40137 4.25518 0
M  V30 15871 C 1526.5 -2.85339 3.14296 0
M  V30 15872 C 1524.4 -2.33645 5.4329 0
M  V30 15873 H 1523.33 -0.435732 0.615348 0
M  V30 15874 H 1525.99 -0.422172 1.78578 0
M  V30 15875 H 1524.37 -2.87675 2.72138 0
M  V30 15876 H 1525.54 -0.684719 4.55684 0
M  V30 15877 H 1523.86 -0.774734 4.09129 0
M  V30 15878 H 1526.45 -3.55437 3.99461 0
M  V30 15879 H 1526.8 -3.48071 2.28369 0
M  V30 15880 H 1527.33 -2.15384 3.34447 0
M  V30 15881 H 1524.07 -1.75566 6.31551 0
M  V30 15882 H 1523.59 -3.03294 5.17467 0
M  V30 15883 H 1525.27 -2.94255 5.76215 0
M  V30 15884 N 1525.4 -1.4265 -0.669982 0
M  V30 15885 C 1526.65 -1.43589 -1.43213 0
M  V30 15886 C 1526.98 -0.0537998 -1.94125 0
M  V30 15887 O 1526.25 0.922727 -1.71219 0
M  V30 15888 C 1526.54 -2.46433 -2.62569 0
M  V30 15889 C 1526.39 -3.93851 -2.17258 0
M  V30 15890 C 1527.71 -2.46208 -3.64787 0
M  V30 15891 H 1524.83 -0.522859 -0.519411 0
M  V30 15892 H 1527.47 -1.74094 -0.760997 0
M  V30 15893 H 1525.62 -2.20551 -3.19828 0
M  V30 15894 H 1527.29 -4.30732 -1.6513 0
M  V30 15895 H 1525.53 -4.07487 -1.48786 0
M  V30 15896 H 1526.21 -4.61398 -3.03012 0
M  V30 15897 H 1528.68 -2.69237 -3.17255 0
M  V30 15898 H 1527.56 -3.20138 -4.45873 0
M  V30 15899 H 1527.82 -1.48979 -4.16242 0
M  V30 15900 N 1526.88 0.906753 -1.28902 0
M  V30 15901 C 1528.29 1.47175 -1.14876 0
M  V30 15902 C 1528.64 1.94487 0.258693 0
M  V30 15903 O 1527.76 1.83088 1.15359 0
M  V30 15904 C 1528.36 2.67491 -2.07928 0
M  V30 15905 C 1526.92 3.20148 -1.97946 0
M  V30 15906 C 1526.07 1.92846 -1.99263 0
M  V30 15907 H 1529.02 0.718777 -1.4149 0
M  V30 15908 H 1529.04 3.42989 -1.64738 0
M  V30 15909 H 1528.55 2.33025 -3.10356 0
M  V30 15910 H 1526.65 3.59322 -0.985806 0
M  V30 15911 H 1526.76 3.84923 -2.85256 0
M  V30 15912 H 1525.13 2.10247 -1.43765 0
M  V30 15913 H 1525.91 1.60666 -3.03383 0
M  V30 15914 N 1528.36 1.11264 1.11616 0
M  V30 15915 C 1529.58 0.88306 1.87661 0
M  V30 15916 C 1530.01 -0.561586 1.79521 0
M  V30 15917 O 1529.36 -1.3964 1.1563 0
M  V30 15918 C 1529.41 1.34698 3.34498 0
M  V30 15919 O 1528.52 0.517512 4.0914 0
M  V30 15920 H 1527.86 0.318233 0.582772 0
M  V30 15921 H 1530.39 1.48164 1.41098 0
M  V30 15922 H 1530.4 1.34068 3.85344 0
M  V30 15923 H 1529.07 2.39896 3.39739 0
M  V30 15924 H 1527.65 0.589751 3.68207 0
M  V30 15925 N 1529.83 -1.29188 0.902679 0
M  V30 15926 C 1530.76 -2.3006 0.399357 0
M  V30 15927 C 1531.74 -1.61724 -0.527199 0
M  V30 15928 O 1532.93 -1.89213 -0.437293 0
M  V30 15929 C 1530.06 -3.45309 -0.371331 0
M  V30 15930 C 1529.01 -4.25466 0.465068 0
M  V30 15931 C 1528.34 -5.32941 -0.433295 0
M  V30 15932 C 1529.64 -4.93287 1.71655 0
M  V30 15933 H 1531.33 -2.72409 1.24233 0
M  V30 15934 H 1528.88 -1.30958 0.598822 0
M  V30 15935 H 1530.83 -4.14955 -0.734207 0
M  V30 15936 H 1529.56 -3.01811 -1.24811 0
M  V30 15937 H 1528.22 -3.57532 0.810315 0
M  V30 15938 H 1527.86 -4.85688 -1.3083 0
M  V30 15939 H 1527.56 -5.87472 0.122657 0
M  V30 15940 H 1529.09 -6.05438 -0.792298 0
M  V30 15941 H 1530.5 -5.55353 1.42323 0
M  V30 15942 H 1528.9 -5.57763 2.21405 0
M  V30 15943 H 1529.97 -4.18406 2.45081 0
M  V30 15944 N 1531.31 -0.665475 -1.42861 0
M  V30 15945 C 1532.26 0.030395 -2.3258 0
M  V30 15946 C 1533.25 0.800329 -1.49302 0
M  V30 15947 O 1534.46 0.709346 -1.65434 0
M  V30 15948 H 1530.83 0.0286201 -0.751455 0
M  V30 15949 H 1532.81 -0.743838 -2.8898 0
M  V30 15950 C 1531.55 0.974474 -3.33765 0
M  V30 15951 H 1530.88 0.391447 -3.97879 0
M  V30 15952 H 1532.32 1.43023 -3.99149 0
M  V30 15953 C 1530.78 2.0764 -2.65306 0
M  V30 15954 O 1531.31 3.16172 -2.47787 0
M  V30 15955 N 1529.51 1.84544 -2.24481 0
M  V30 15956 H 1529.06 0.962826 -2.3893 0
M  V30 15957 H 1529.02 2.58464 -1.79007 0
M  V30 15958 N 1532.79 1.52222 -0.408187 0
M  V30 15959 C 1534.2 1.86598 0.0616213 0
M  V30 15960 C 1534.55 1.32698 1.44519 0
M  V30 15961 O 1533.68 0.665883 2.059 0
M  V30 15962 C 1534.27 3.38592 0.118595 0
M  V30 15963 C 1532.83 3.72611 0.532737 0
M  V30 15964 C 1531.98 2.75744 -0.293356 0
M  V30 15965 H 1534.93 1.45862 -0.625291 0
M  V30 15966 H 1534.95 3.68858 0.934039 0
M  V30 15967 H 1534.46 3.77792 -0.888516 0
M  V30 15968 H 1532.56 3.38989 1.54652 0
M  V30 15969 H 1532.68 4.78294 0.277777 0
M  V30 15970 H 1531.04 2.53527 0.244166 0
M  V30 15971 H 1531.82 3.17783 -1.2988 0
M  V30 15972 N 1534.27 0.138579 1.5699 0
M  V30 15973 C 1535.54 -0.559239 1.87435 0
M  V30 15974 C 1535.92 -1.83527 1.04312 0
M  V30 15975 O 1535.27 -2.28144 0.127531 0
M  V30 15976 C 1535.48 -0.83282 3.38918 0
M  V30 15977 C 1536.83 -1.1773 4.07952 0
M  V30 15978 O 1537.85 -0.92245 3.44048 0
M  V30 15979 O 1536.71 -1.6565 5.2079 0
M  V30 15980 H 1533.81 -0.284318 0.77659 0
M  V30 15981 H 1536.35 0.174558 1.688 0
M  V30 15982 H 1535.13 0.0706054 3.91236 0
M  V30 15983 H 1534.75 -1.62109 3.63051 0
M  V30 15984 N 1535.75 -1.57019 -0.13521 0
M  V30 15985 C 1536.99 -1.83626 -0.844147 0
M  V30 15986 C 1537.31 -0.721298 -1.81169 0
M  V30 15987 O 1536.58 0.256095 -1.94219 0
M  V30 15988 H 1535.16 -0.677464 -0.314725 0
M  V30 15989 H 1537.83 -1.9449 -0.126399 0
M  V30 15990 H 1536.92 -2.78976 -1.39925 0
M  V30 15991 N 1537.22 0.404919 -1.52309 0
M  V30 15992 C 1538.64 0.743846 -1.41206 0
M  V30 15993 C 1538.84 1.94678 -0.519874 0
M  V30 15994 O 1537.9 2.52497 0.0127417 0
M  V30 15995 C 1539.21 0.99384 -2.83802 0
M  V30 15996 C 1540.76 1.0963 -2.93173 0
M  V30 15997 C 1541.23 1.37902 -4.36746 0
M  V30 15998 N 1542.72 1.44758 -4.39999 0
M  V30 15999 C 1543.46 1.68269 -5.48154 0
M  V30 16000 N 1542.95 1.89356 -6.6642 0
M  V30 16001 N 1544.75 1.70318 -5.35675 0
M  V30 16002 H 1536.9 -0.386855 -2.08847 0
M  V30 16003 H 1539.16 -0.110811 -0.941501 0
M  V30 16004 H 1538.87 0.182249 -3.51227 0
M  V30 16005 H 1538.74 1.91287 -3.25099 0
M  V30 16006 H 1541.13 1.89847 -2.25925 0
M  V30 16007 H 1541.21 0.155539 -2.55327 0
M  V30 16008 H 1540.85 0.582004 -5.04554 0
M  V30 16009 H 1540.78 2.33237 -4.72132 0
M  V30 16010 H 1543.27 1.30235 -3.5475 0
M  V30 16011 H 1543.59 2.06758 -7.44628 0
M  V30 16012 H 1541.93 1.86612 -6.69478 0
M  V30 16013 H 1545.12 1.53385 -4.42256 0
M  V30 16014 H 1545.3 1.88302 -6.20037 0
M  V30 16015 N 1538.7 1.43003 0.662408 0
M  V30 16016 C 1539.61 1.49876 1.80484 0
M  V30 16017 C 1540.63 0.386526 1.69653 0
M  V30 16018 O 1541.8 0.639289 1.90984 0
M  V30 16019 C 1538.87 1.41057 3.16708 0
M  V30 16020 C 1537.93 2.62875 3.39404 0
M  V30 16021 C 1537.16 2.54468 4.69129 0
M  V30 16022 O 1537.39 1.58735 5.47868 0
M  V30 16023 O 1536.32 3.44814 4.93343 0
M  V30 16024 H 1540.15 2.46327 1.77641 0
M  V30 16025 H 1537.73 1.24903 0.81973 0
M  V30 16026 H 1539.61 1.38547 3.97973 0
M  V30 16027 H 1538.29 0.477361 3.20161 0
M  V30 16028 H 1537.2 2.70958 2.57939 0
M  V30 16029 H 1538.53 3.55137 3.40791 0
M  V30 16030 N 1540.18 -0.899904 1.29381 0
M  V30 16031 C 1541.6 -1.18067 1.07388 0
M  V30 16032 C 1541.8 -2.00739 -0.174951 0
M  V30 16033 O 1540.85 -2.36937 -0.872771 0
M  V30 16034 C 1542.17 -1.90182 2.32919 0
M  V30 16035 C 1543.71 -2.03009 2.38236 0
M  V30 16036 C 1544.19 -2.78533 3.6357 0
M  V30 16037 N 1545.68 -2.86088 3.64291 0
M  V30 16038 C 1546.41 -3.45062 4.57952 0
M  V30 16039 N 1545.91 -4.05204 5.61945 0
M  V30 16040 N 1547.7 -3.42734 4.45522 0
M  V30 16041 H 1539.85 -0.348306 2.09525 0
M  V30 16042 H 1542.12 -0.216796 0.922878 0
M  V30 16043 H 1541.82 -1.36871 3.23974 0
M  V30 16044 H 1541.7 -2.90658 2.40412 0
M  V30 16045 H 1544.08 -2.55495 1.47669 0
M  V30 16046 H 1544.17 -1.01666 2.34729 0
M  V30 16047 H 1543.81 -2.26723 4.54488 0
M  V30 16048 H 1543.74 -3.8022 3.64335 0
M  V30 16049 H 1546.23 -2.43372 2.891 0
M  V30 16050 H 1546.54 -4.48225 6.29535 0
M  V30 16051 H 1544.89 -4.03667 5.65755 0
M  V30 16052 H 1548.08 -2.94967 3.63472 0
M  V30 16053 H 1548.25 -3.884 5.187 0
M  V30 16054 N 1541.66 -1.11854 -1.11024 0
M  V30 16055 C 1542.62 -0.784033 -2.15373 0
M  V30 16056 C 1543.62 0.198686 -1.59568 0
M  V30 16057 O 1544.81 -0.0263428 -1.7418 0
M  V30 16058 C 1541.94 -0.163987 -3.40505 0
M  V30 16059 H 1543.14 -1.70849 -2.46477 0
M  V30 16060 H 1540.69 -0.920988 -1.26283 0
M  V30 16061 H 1541.42 0.770483 -3.15014 0
M  V30 16062 H 1541.21 -0.871447 -3.82293 0
M  V30 16063 H 1542.7 0.0537739 -4.17565 0
M  V30 16064 N 1543.14 1.28707 -0.909517 0
M  V30 16065 C 1544.07 2.26481 -0.35198 0
M  V30 16066 C 1545.08 1.54698 0.507199 0
M  V30 16067 O 1546.27 1.75558 0.322765 0
M  V30 16068 C 1543.37 3.3495 0.515897 0
M  V30 16069 C 1542.54 4.36229 -0.3198 0
M  V30 16070 C 1541.6 5.23983 0.482483 0
M  V30 16071 O 1540.63 5.69106 -0.10347 0
M  V30 16072 N 1541.83 5.52328 1.78645 0
M  V30 16073 H 1544.6 2.74959 -1.19238 0
M  V30 16074 H 1542.16 1.42144 -0.775023 0
M  V30 16075 H 1544.15 3.90592 1.05925 0
M  V30 16076 H 1542.72 2.86214 1.257 0
M  V30 16077 H 1541.94 3.80109 -1.04454 0
M  V30 16078 H 1543.23 5.00924 -0.891769 0
M  V30 16079 H 1542.62 5.17494 2.28509 0
M  V30 16080 H 1541.18 6.10744 2.27672 0
M  V30 16081 N 1544.61 0.673042 1.42506 0
M  V30 16082 C 1545.52 -0.00648572 2.34599 0
M  V30 16083 C 1546.54 -0.790758 1.54994 0
M  V30 16084 O 1547.72 -0.733482 1.87569 0
M  V30 16085 C 1544.78 -0.94734 3.33506 0
M  V30 16086 C 1543.84 -0.157795 4.2901 0
M  V30 16087 C 1543.08 -1.05384 5.23192 0
M  V30 16088 O 1543.3 -2.29334 5.22266 0
M  V30 16089 O 1542.23 -0.515584 5.99688 0
M  V30 16090 H 1546.06 0.752059 2.94241 0
M  V30 16091 H 1543.64 0.433272 1.42979 0
M  V30 16092 H 1545.53 -1.4875 3.94273 0
M  V30 16093 H 1544.2 -1.68577 2.7634 0
M  V30 16094 H 1543.11 0.426426 3.71662 0
M  V30 16095 H 1544.44 0.54148 4.89212 0
M  V30 16096 N 1546.09 -1.52004 0.416254 0
M  V30 16097 C 1547.04 -2.27206 -0.405723 0
M  V30 16098 C 1548.01 -1.29913 -1.03498 0
M  V30 16099 O 1549.19 -1.58786 -1.0579 0
M  V30 16100 C 1546.33 -3.10186 -1.51258 0
M  V30 16101 C 1545.45 -4.22445 -0.903539 0
M  V30 16102 C 1544.58 -4.92771 -1.98368 0
M  V30 16103 C 1543.62 -5.96983 -1.35196 0
M  V30 16104 N 1542.76 -6.60798 -2.37255 0
M  V30 16105 H 1547.6 -2.97016 0.241983 0
M  V30 16106 H 1545.14 -1.46514 0.131174 0
M  V30 16107 H 1547.09 -3.56606 -2.16537 0
M  V30 16108 H 1545.72 -2.42532 -2.13021 0
M  V30 16109 H 1544.78 -3.80144 -0.139607 0
M  V30 16110 H 1546.09 -4.97176 -0.402136 0
M  V30 16111 H 1545.24 -5.42633 -2.71357 0
M  V30 16112 H 1543.98 -4.17624 -2.51876 0
M  V30 16113 H 1542.99 -5.46434 -0.607431 0
M  V30 16114 H 1544.21 -6.74076 -0.824482 0
M  V30 16115 H 1542.16 -5.88476 -2.89882 0
M  V30 16116 H 1542.07 -7.31227 -1.91947 0
M  V30 16117 H 1543.34 -7.15296 -3.09792 0
M  V30 16118 N 1547.57 -0.146903 -1.56914 0
M  V30 16119 C 1548.85 0.549291 -1.87729 0
M  V30 16120 C 1549.23 1.82971 -1.05284 0
M  V30 16121 O 1548.58 2.28073 -0.139628 0
M  V30 16122 C 1548.79 0.814835 -3.39354 0
M  V30 16123 C 1550.13 1.15565 -4.0857 0
M  V30 16124 O 1551.16 0.904191 -3.44533 0
M  V30 16125 O 1550.02 1.62886 -5.21661 0
M  V30 16126 H 1547.11 0.280196 -0.778087 0
M  V30 16127 H 1549.66 -0.183507 -1.68705 0
M  V30 16128 H 1548.43 -0.0913527 -3.91193 0
M  V30 16129 H 1548.05 1.60182 -3.63906 0
M  V30 16130 N 1549.05 1.57088 0.126881 0
M  V30 16131 C 1550.29 1.8625 0.842031 0
M  V30 16132 C 1550.65 0.733868 1.77421 0
M  V30 16133 O 1551.85 0.907051 2.53034 0
M  V30 16134 C 1550.12 3.2063 1.57897 0
M  V30 16135 S 1551.68 3.71403 2.33677 0
M  V30 16136 H 1548.5 0.653034 0.28119 0
M  V30 16137 H 1551.1 1.9524 0.100825 0
M  V30 16138 H 1549.81 4.00722 0.885982 0
M  V30 16139 H 1549.34 3.14698 2.3607 0
M  V30 16140 H 1551.35 3.42274 3.59253 0
M  V30 16141 N 1550.53 -0.396836 1.52522 0
M  V30 16142 C 1551.75 -1.16404 1.71049 0
M  V30 16143 C 1552.17 -1.83946 0.425378 0
M  V30 16144 O 1551.53 -1.7237 -0.599561 0
M  V30 16145 C 1551.58 -2.21796 2.85463 0
M  V30 16146 O 1551.3 -1.57009 4.08998 0
M  V30 16147 C 1552.8 -3.11303 3.15603 0
M  V30 16148 H 1550.02 -0.349314 0.572905 0
M  V30 16149 H 1552.56 -0.465297 1.99136 0
M  V30 16150 H 1550.72 -2.87318 2.59859 0
M  V30 16151 H 1551.13 -2.26977 4.72844 0
M  V30 16152 H 1552.61 -3.81299 3.99143 0
M  V30 16153 H 1553.08 -3.7437 2.2966 0
M  V30 16154 H 1553.69 -2.51435 3.43017 0
M  V30 16155 N 1552.01 -1.43353 -0.654814 0
M  V30 16156 C 1553.23 -1.48536 -1.44748 0
M  V30 16157 C 1553.66 -0.103991 -1.87812 0
M  V30 16158 O 1553.01 0.901924 -1.57274 0
M  V30 16159 C 1553.06 -2.43498 -2.65972 0
M  V30 16160 O 1552.17 -1.92014 -3.64972 0
M  V30 16161 H 1551.51 -0.502476 -0.434067 0
M  V30 16162 H 1554.04 -1.88251 -0.801427 0
M  V30 16163 H 1554.05 -2.60748 -3.13806 0
M  V30 16164 H 1552.72 -3.43847 -2.3397 0
M  V30 16165 H 1551.3 -1.84417 -3.24106 0
M  V30 16166 N 1553.48 0.89303 -1.29857 0
M  V30 16167 C 1554.43 1.9979 -1.15554 0
M  V30 16168 C 1555.4 1.66033 -0.0471157 0
M  V30 16169 O 1556.59 1.89575 -0.215846 0
M  V30 16170 C 1553.73 3.34595 -0.844993 0
M  V30 16171 C 1552.84 3.81093 -2.03451 0
M  V30 16172 C 1551.97 5.04506 -1.66275 0
M  V30 16173 C 1551.01 5.4339 -2.8177 0
M  V30 16174 N 1550.15 6.57987 -2.44945 0
M  V30 16175 H 1554.99 2.11355 -2.10079 0
M  V30 16176 H 1552.53 1.03497 -1.04531 0
M  V30 16177 H 1554.48 4.12175 -0.645598 0
M  V30 16178 H 1553.11 3.22738 0.0633626 0
M  V30 16179 H 1552.17 2.99491 -2.34541 0
M  V30 16180 H 1553.48 4.05855 -2.8997 0
M  V30 16181 H 1552.63 5.89688 -1.42664 0
M  V30 16182 H 1551.37 4.81597 -0.769144 0
M  V30 16183 H 1550.38 4.56738 -3.06056 0
M  V30 16184 H 1551.6 5.68276 -3.71805 0
M  V30 16185 H 1549.55 6.36669 -1.58079 0
M  V30 16186 H 1549.46 6.82579 -3.24996 0
M  V30 16187 H 1550.73 7.46421 -2.24669 0
M  V30 16188 N 1554.96 1.12442 1.10429 0
M  V30 16189 C 1556.21 0.874466 1.81758 0
M  V30 16190 C 1556.52 -0.601487 1.86122 0
M  V30 16191 O 1557.73 -0.968037 2.53656 0
M  V30 16192 C 1556.19 1.51478 3.2647 0
M  V30 16193 C 1555.79 3.02552 3.30403 0
M  V30 16194 C 1557.54 1.34511 4.02625 0
M  V30 16195 C 1555.44 3.59518 4.69575 0
M  V30 16196 H 1554.37 0.323494 0.681078 0
M  V30 16197 H 1557.03 1.35091 1.24188 0
M  V30 16198 H 1555.41 0.966 3.84037 0
M  V30 16199 H 1556.58 3.63924 2.82659 0
M  V30 16200 H 1554.9 3.18917 2.67733 0
M  V30 16201 H 1557.49 1.74492 5.05427 0
M  V30 16202 H 1557.84 0.288788 4.15297 0
M  V30 16203 H 1558.37 1.86311 3.51473 0
M  V30 16204 H 1555.11 4.6491 4.62103 0
M  V30 16205 H 1554.63 3.02922 5.17686 0
M  V30 16206 H 1556.31 3.58581 5.38543 0
M  V30 16207 N 1556.44 -1.28223 0.91633 0
M  V30 16208 C 1557.69 -1.9448 0.549734 0
M  V30 16209 C 1558.01 -1.72465 -0.909999 0
M  V30 16210 O 1557.28 -1.06583 -1.64368 0
M  V30 16211 H 1555.86 -0.719641 0.200315 0
M  V30 16212 H 1558.52 -1.56156 1.16625 0
M  V30 16213 H 1557.62 -3.03044 0.746363 0
M  V30 16214 N 1557.92 -0.68059 -1.42147 0
M  V30 16215 C 1558.85 0.0331442 -2.29176 0
M  V30 16216 C 1559.86 0.759652 -1.4399 0
M  V30 16217 O 1561.05 0.612846 -1.6765 0
M  V30 16218 C 1558.15 1.07077 -3.2154 0
M  V30 16219 C 1557.32 0.416914 -4.35409 0
M  V30 16220 C 1556.38 1.3551 -5.08452 0
M  V30 16221 O 1555.41 0.853198 -5.62769 0
M  V30 16222 N 1556.61 2.68815 -5.14508 0
M  V30 16223 H 1559.38 -0.713963 -2.91072 0
M  V30 16224 H 1556.94 -0.525451 -1.53136 0
M  V30 16225 H 1558.93 1.6998 -3.67272 0
M  V30 16226 H 1557.5 1.71955 -2.61056 0
M  V30 16227 H 1556.72 -0.391734 -3.92249 0
M  V30 16228 H 1558.01 -0.0383564 -5.08786 0
M  V30 16229 H 1557.41 3.12125 -4.71799 0
M  V30 16230 H 1555.96 3.26951 -5.63867 0
M  V30 16231 N 1559.4 1.51781 -0.424309 0
M  V30 16232 C 1560.62 2.06387 0.145548 0
M  V30 16233 C 1561.04 1.29299 1.37576 0
M  V30 16234 O 1560.4 0.348952 1.79133 0
M  V30 16235 C 1560.45 3.58288 0.48083 0
M  V30 16236 O 1560.17 4.32463 -0.700546 0
M  V30 16237 C 1561.67 4.29364 1.10278 0
M  V30 16238 H 1558.89 0.67086 0.0136908 0
M  V30 16239 H 1561.43 1.95511 -0.599639 0
M  V30 16240 H 1559.59 3.69122 1.17591 0
M  V30 16241 H 1560 5.22839 -0.417035 0
M  V30 16242 H 1561.48 5.36776 1.28747 0
M  V30 16243 H 1561.95 3.86815 2.08017 0
M  V30 16244 H 1562.56 4.2294 0.447458 0
M  V30 16245 N 1560.87 0.155222 1.56834 0
M  V30 16246 C 1561.82 -0.798342 2.1847 0
M  V30 16247 C 1562.82 -1.24931 1.14405 0
M  V30 16248 O 1564.02 -1.21684 1.32639 0
M  V30 16249 H 1560.4 -0.275681 0.699646 0
M  V30 16250 H 1562.37 -0.254371 2.97314 0
M  V30 16251 C 1561.12 -2.02407 2.82713 0
M  V30 16252 H 1560.44 -1.68606 3.62508 0
M  V30 16253 H 1561.88 -2.67053 3.29331 0
M  V30 16254 C 1560.34 -2.83737 1.81645 0
M  V30 16255 O 1560.87 -3.80356 1.29198 0
M  V30 16256 N 1559.07 -2.48433 1.50764 0
M  V30 16257 H 1558.62 -1.69925 1.93606 0
M  V30 16258 H 1558.58 -3.03139 0.833899 0
M  V30 16259 N 1562.35 -1.57153 -0.118549 0
M  V30 16260 C 1563.31 -1.99438 -1.12947 0
M  V30 16261 C 1564.31 -0.884588 -1.34282 0
M  V30 16262 O 1565.5 -1.15062 -1.30792 0
M  V30 16263 C 1562.64 -2.33492 -2.48384 0
M  V30 16264 H 1563.83 -2.89952 -0.766034 0
M  V30 16265 H 1561.38 -1.5203 -0.362858 0
M  V30 16266 H 1562.12 -1.45859 -2.89647 0
M  V30 16267 H 1561.9 -3.14433 -2.34252 0
M  V30 16268 H 1563.39 -2.66945 -3.21139 0
M  V30 16269 N 1563.83 0.388742 -1.5273 0
M  V30 16270 C 1565.25 0.728828 -1.41987 0
M  V30 16271 C 1565.45 1.94116 -0.540493 0
M  V30 16272 O 1564.5 2.52496 -0.0140397 0
M  V30 16273 C 1565.81 0.963683 -2.8484 0
M  V30 16274 C 1567.36 1.06514 -2.94319 0
M  V30 16275 C 1567.84 1.33262 -4.38184 0
M  V30 16276 N 1569.33 1.40083 -4.4151 0
M  V30 16277 C 1570.06 1.62446 -5.49908 0
M  V30 16278 N 1569.56 1.82277 -6.68391 0
M  V30 16279 N 1571.35 1.64627 -5.37452 0
M  V30 16280 H 1563.5 -0.408984 -2.08425 0
M  V30 16281 H 1565.77 -0.120791 -0.940273 0
M  V30 16282 H 1565.47 0.144986 -3.51401 0
M  V30 16283 H 1565.35 1.87828 -3.27109 0
M  V30 16284 H 1567.73 1.8744 -2.27926 0
M  V30 16285 H 1567.81 0.12845 -2.55477 0
M  V30 16286 H 1567.46 0.528457 -5.05143 0
M  V30 16287 H 1567.39 2.28216 -4.74579 0
M  V30 16288 H 1569.88 1.26465 -3.56111 0
M  V30 16289 H 1570.19 1.98848 -7.46779 0
M  V30 16290 H 1568.54 1.79501 -6.7142 0
M  V30 16291 H 1571.73 1.48686 -4.43858 0
M  V30 16292 H 1571.9 1.81715 -6.22 0
M  V30 16293 N 1565.31 1.43698 0.647203 0
M  V30 16294 C 1566.56 1.45346 1.40425 0
M  V30 16295 C 1566.88 0.081129 1.94831 0
M  V30 16296 O 1566.15 -0.884379 1.74801 0
M  V30 16297 H 1564.73 0.535145 0.521181 0
M  V30 16298 H 1567.39 1.79349 0.762887 0
M  V30 16299 H 1566.48 2.16954 2.2436 0
M  V30 16300 N 1566.79 -0.886131 1.30328 0
M  V30 16301 C 1567.73 -1.99174 1.16612 0
M  V30 16302 C 1568.7 -1.66006 0.0559202 0
M  V30 16303 O 1569.89 -1.89458 0.225897 0
M  V30 16304 C 1567.03 -3.34142 0.862726 0
M  V30 16305 C 1566.14 -3.80008 2.05469 0
M  V30 16306 C 1565.28 -5.03617 1.68949 0
M  V30 16307 C 1564.32 -5.41888 2.84647 0
M  V30 16308 N 1563.45 -6.56678 2.48431 0
M  V30 16309 H 1568.29 -2.10238 2.11197 0
M  V30 16310 H 1565.83 -1.02941 1.05079 0
M  V30 16311 H 1567.79 -4.11826 0.667447 0
M  V30 16312 H 1566.42 -3.22767 -0.0462461 0
M  V30 16313 H 1565.47 -2.98243 2.36126 0
M  V30 16314 H 1566.78 -4.04312 2.92119 0
M  V30 16315 H 1565.94 -5.88923 1.45789 0
M  V30 16316 H 1564.67 -4.81182 0.794674 0
M  V30 16317 H 1563.68 -4.55109 3.08474 0
M  V30 16318 H 1564.9 -5.66296 3.74813 0
M  V30 16319 H 1562.85 -6.35821 1.61453 0
M  V30 16320 H 1562.77 -6.80846 3.28611 0
M  V30 16321 H 1564.04 -7.45219 2.28624 0
M  V30 16322 N 1568.26 -1.13026 -1.09832 0
M  V30 16323 C 1569.54 -0.800667 -1.78462 0
M  V30 16324 C 1569.92 0.708508 -1.98855 0
M  V30 16325 O 1569.27 1.64436 -1.58661 0
M  V30 16326 C 1569.48 -1.58284 -3.11042 0
M  V30 16327 C 1570.83 -1.77285 -3.85818 0
M  V30 16328 O 1571.85 -1.54848 -3.20781 0
M  V30 16329 O 1570.71 -2.14693 -5.02563 0
M  V30 16330 H 1567.8 -0.291895 -0.773774 0
M  V30 16331 H 1570.35 -1.23464 -1.16425 0
M  V30 16332 H 1569.12 -2.60867 -2.91657 0
M  V30 16333 H 1568.75 -1.14353 -3.80801 0
M  V30 16334 N 1569.74 1.27735 -0.923117 0
M  V30 16335 C 1570.67 2.29395 -0.435907 0
M  V30 16336 C 1571.65 1.62542 0.501403 0
M  V30 16337 O 1572.84 1.89884 0.407135 0
M  V30 16338 C 1569.97 3.45856 0.316348 0
M  V30 16339 C 1568.92 4.24672 -0.532697 0
M  V30 16340 C 1568.25 5.33563 0.348454 0
M  V30 16341 C 1569.55 4.90494 -1.79481 0
M  V30 16342 H 1571.24 2.70398 -1.28551 0
M  V30 16343 H 1568.79 1.29989 -0.619581 0
M  V30 16344 H 1570.74 4.1607 0.668098 0
M  V30 16345 H 1569.47 3.03758 1.19994 0
M  V30 16346 H 1568.12 3.56198 -0.867093 0
M  V30 16347 H 1567.77 4.87708 1.23086 0
M  V30 16348 H 1567.47 5.87202 -0.216104 0
M  V30 16349 H 1569 6.06622 0.695878 0
M  V30 16350 H 1570.41 5.53019 -1.5114 0
M  V30 16351 H 1568.81 5.5417 -2.30251 0
M  V30 16352 H 1569.88 4.14454 -2.51707 0
M  V30 16353 N 1571.22 0.688118 1.41784 0
M  V30 16354 C 1572.5 0.144304 1.95067 0
M  V30 16355 C 1572.88 -1.34399 1.62789 0
M  V30 16356 O 1572.23 -2.08675 0.930978 0
M  V30 16357 C 1572.44 0.427641 3.4637 0
M  V30 16358 C 1573.78 0.351345 4.23144 0
M  V30 16359 O 1574.81 0.362134 3.54354 0
M  V30 16360 O 1573.67 0.305018 5.45648 0
M  V30 16361 H 1570.76 0.01062 0.826932 0
M  V30 16362 H 1573.31 0.763766 1.51541 0
M  V30 16363 H 1572.08 1.4581 3.63119 0
M  V30 16364 H 1571.7 -0.223167 3.96973 0
M  V30 16365 N 1572.7 -1.51554 0.432352 0
M  V30 16366 C 1573.93 -2.06462 -0.1346 0
M  V30 16367 C 1574.34 -1.30027 -1.36889 0
M  V30 16368 O 1573.7 -0.358447 -1.78945 0
M  V30 16369 C 1573.75 -3.58538 -0.461822 0
M  V30 16370 O 1573.47 -4.32085 0.723471 0
M  V30 16371 C 1574.97 -4.29943 -1.07999 0
M  V30 16372 H 1572.19 -0.670923 -0.0101329 0
M  V30 16373 H 1574.74 -1.9519 0.609999 0
M  V30 16374 H 1572.89 -3.6974 -1.15632 0
M  V30 16375 H 1573.3 -5.22611 0.444757 0
M  V30 16376 H 1574.78 -5.37451 -1.25898 0
M  V30 16377 H 1575.26 -3.87912 -2.05963 0
M  V30 16378 H 1575.86 -4.23171 -0.425022 0
M  V30 16379 N 1574.18 -0.163538 -1.56749 0
M  V30 16380 C 1575.45 0.529349 -1.88301 0
M  V30 16381 C 1575.83 1.81844 -1.07219 0
M  V30 16382 O 1575.18 2.27912 -0.16381 0
M  V30 16383 C 1575.39 0.778796 -3.402 0
M  V30 16384 C 1576.74 1.11225 -4.09773 0
M  V30 16385 O 1577.76 0.867598 -3.45472 0
M  V30 16386 O 1576.62 1.57344 -5.2336 0
M  V30 16387 H 1573.72 0.271928 -0.781015 0
M  V30 16388 H 1576.26 -0.20139 -1.68501 0
M  V30 16389 H 1575.03 -0.132839 -3.91074 0
M  V30 16390 H 1574.66 1.56313 -3.65584 0
M  V30 16391 N 1575.65 1.57214 0.110213 0
M  V30 16392 C 1576.9 1.85312 0.816439 0
M  V30 16393 C 1577.23 0.749901 1.79462 0
M  V30 16394 O 1576.48 -0.257948 1.93993 0
M  V30 16395 C 1576.78 3.19933 1.59304 0
M  V30 16396 C 1576.45 4.44477 0.75835 0
M  V30 16397 C 1575.11 4.78292 0.528201 0
M  V30 16398 C 1577.46 5.20899 0.177117 0
M  V30 16399 C 1574.79 5.85966 -0.293292 0
M  V30 16400 C 1577.14 6.29439 -0.631615 0
M  V30 16401 C 1575.81 6.6178 -0.871998 0
M  V30 16402 H 1575.08 0.678104 0.298756 0
M  V30 16403 H 1577.72 1.91339 0.0784721 0
M  V30 16404 H 1576.03 3.09522 2.40216 0
M  V30 16405 H 1577.73 3.38897 2.14359 0
M  V30 16406 H 1574.32 4.17988 0.94783 0
M  V30 16407 H 1578.5 4.95119 0.342121 0
M  V30 16408 H 1573.76 6.09444 -0.488665 0
M  V30 16409 H 1577.93 6.87834 -1.08894 0
M  V30 16410 H 1575.56 7.45045 -1.51037 0
M  V30 16411 N 1577.13 -0.380637 1.52934 0
M  V30 16412 C 1578.36 -1.14583 1.72274 0
M  V30 16413 C 1578.78 -1.83484 0.444864 0
M  V30 16414 O 1578.13 -1.72997 -0.581245 0
M  V30 16415 C 1578.18 -2.18756 2.87799 0
M  V30 16416 O 1577.9 -1.52662 4.10641 0
M  V30 16417 C 1579.41 -3.07938 3.18887 0
M  V30 16418 H 1576.63 -0.343218 0.576578 0
M  V30 16419 H 1579.17 -0.444149 1.99619 0
M  V30 16420 H 1577.32 -2.84546 2.62892 0
M  V30 16421 H 1577.74 -2.21949 4.75225 0
M  V30 16422 H 1579.21 -3.77045 4.03164 0
M  V30 16423 H 1579.69 -3.71913 2.33618 0
M  V30 16424 H 1580.3 -2.47783 3.45664 0
M  V30 16425 N 1578.61 -1.44039 -0.639573 0
M  V30 16426 C 1579.56 -1.50541 -1.77314 0
M  V30 16427 C 1580.55 -0.37781 -1.65133 0
M  V30 16428 O 1581.76 -0.552396 -1.71314 0
M  V30 16429 H 1578.13 -0.472221 -0.585245 0
M  V30 16430 H 1580.1 -2.45964 -1.68951 0
M  V30 16431 C 1578.85 -1.45868 -3.15623 0
M  V30 16432 H 1578.18 -2.31946 -3.25639 0
M  V30 16433 H 1579.62 -1.54479 -3.94857 0
M  V30 16434 C 1578.08 -0.178204 -3.36428 0
M  V30 16435 O 1578.61 0.755017 -3.94541 0
M  V30 16436 N 1576.81 -0.0840295 -2.90478 0
M  V30 16437 H 1576.36 -0.844281 -2.43371 0
M  V30 16438 H 1576.32 0.771988 -3.04775 0
M  V30 16439 N 1580.09 0.879207 -1.30796 0
M  V30 16440 C 1581.04 2.00692 -1.17582 0
M  V30 16441 C 1582.03 1.6918 -0.0863163 0
M  V30 16442 O 1583.24 1.78289 -0.24757 0
M  V30 16443 H 1579.61 0.65814 -0.363808 0
M  V30 16444 H 1581.58 2.0897 -2.13012 0
M  V30 16445 C 1580.33 3.36105 -0.890429 0
M  V30 16446 H 1579.65 3.60868 -1.72088 0
M  V30 16447 H 1581.09 4.15634 -0.838103 0
M  V30 16448 C 1579.55 3.34436 0.406734 0
M  V30 16449 O 1580.08 3.7552 1.42645 0
M  V30 16450 N 1578.29 2.87549 0.419963 0
M  V30 16451 H 1577.84 2.54311 -0.410343 0
M  V30 16452 H 1577.79 2.86815 1.28781 0
M  V30 16453 N 1581.57 1.13606 1.09231 0
M  V30 16454 C 1582.53 0.818197 2.14099 0
M  V30 16455 C 1583.53 -0.173275 1.59864 0
M  V30 16456 O 1584.72 0.05405 1.74116 0
M  V30 16457 C 1581.85 0.218138 3.40201 0
M  V30 16458 H 1583.05 1.74748 2.43727 0
M  V30 16459 H 1580.6 0.940962 1.24802 0
M  V30 16460 H 1581.33 -0.720269 3.162 0
M  V30 16461 H 1581.12 0.932156 3.80859 0
M  V30 16462 H 1582.61 0.0126639 4.17598 0
M  V30 16463 N 1583.05 -1.27244 0.929878 0
M  V30 16464 C 1584.27 -1.98912 0.587277 0
M  V30 16465 C 1584.7 -1.68888 -0.828168 0
M  V30 16466 O 1584.05 -0.930394 -1.55606 0
M  V30 16467 C 1584.1 -3.51097 0.822399 0
M  V30 16468 O 1583.21 -4.12251 -0.110968 0
M  V30 16469 H 1582.55 -0.624404 0.225867 0
M  V30 16470 H 1585.08 -1.61997 1.24973 0
M  V30 16471 H 1585.09 -4.01255 0.738824 0
M  V30 16472 H 1583.76 -3.72282 1.85416 0
M  V30 16473 H 1582.34 -3.72893 0.0227053 0
M  V30 16474 N 1584.52 -0.695628 -1.41417 0
M  V30 16475 C 1585.46 0.00883515 -2.29198 0
M  V30 16476 C 1586.47 0.744337 -1.44788 0
M  V30 16477 O 1587.66 0.59503 -1.6829 0
M  V30 16478 C 1584.76 1.0366 -3.22657 0
M  V30 16479 C 1583.93 0.37071 -4.35826 0
M  V30 16480 C 1582.99 1.3011 -5.09861 0
M  V30 16481 O 1582.02 0.793461 -5.63642 0
M  V30 16482 N 1583.22 2.63343 -5.1733 0
M  V30 16483 H 1585.98 -0.744795 -2.90298 0
M  V30 16484 H 1583.54 -0.541663 -1.5257 0
M  V30 16485 H 1585.54 1.66075 -3.69054 0
M  V30 16486 H 1584.11 1.69177 -2.62865 0
M  V30 16487 H 1583.33 -0.433315 -3.91811 0
M  V30 16488 H 1584.61 -0.0923178 -5.08716 0
M  V30 16489 H 1584.01 3.07103 -4.75083 0
M  V30 16490 H 1582.57 3.20952 -5.67303 0
M  V30 16491 N 1586 1.51322 -0.440383 0
M  V30 16492 C 1587.41 1.86687 0.0220272 0
M  V30 16493 C 1587.76 1.35734 1.41671 0
M  V30 16494 O 1586.89 0.709408 2.04442 0
M  V30 16495 C 1587.48 3.38768 0.0467477 0
M  V30 16496 C 1586.04 3.73657 0.45358 0
M  V30 16497 C 1585.19 2.7506 -0.351779 0
M  V30 16498 H 1588.14 1.44503 -0.65609 0
M  V30 16499 H 1588.16 3.70756 0.855589 0
M  V30 16500 H 1587.67 3.75823 -0.968451 0
M  V30 16501 H 1585.77 3.42193 1.47427 0
M  V30 16502 H 1585.89 4.78776 0.176262 0
M  V30 16503 H 1584.25 2.53988 0.190334 0
M  V30 16504 H 1585.03 3.14957 -1.36591 0
M  V30 16505 N 1587.48 0.171848 1.5666 0
M  V30 16506 C 1588.39 -0.770721 2.21579 0
M  V30 16507 C 1589.41 -1.25273 1.20759 0
M  V30 16508 O 1590.58 -1.30474 1.53422 0
M  V30 16509 C 1587.65 -1.98256 2.84422 0
M  V30 16510 C 1586.71 -1.54738 4.00443 0
M  V30 16511 C 1585.94 -2.70145 4.6028 0
M  V30 16512 O 1586.16 -3.87026 4.19007 0
M  V30 16513 O 1585.1 -2.44189 5.50141 0
M  V30 16514 H 1588.92 -0.247974 3.02686 0
M  V30 16515 H 1586.51 -0.0563734 1.49294 0
M  V30 16516 H 1588.39 -2.69127 3.24266 0
M  V30 16517 H 1587.07 -2.49435 2.0631 0
M  V30 16518 H 1585.97 -0.808152 3.65267 0
M  V30 16519 H 1587.31 -1.08249 4.80149 0
M  V30 16520 N 1588.96 -1.5727 -0.101874 0
M  V30 16521 C 1590.19 -1.89943 -0.820329 0
M  V30 16522 C 1590.6 -0.764867 -1.72613 0
M  V30 16523 O 1589.96 0.263499 -1.80588 0
M  V30 16524 C 1590.01 -3.2219 -1.63939 0
M  V30 16525 O 1589.73 -4.31279 -0.770039 0
M  V30 16526 C 1591.23 -3.6868 -2.46151 0
M  V30 16527 H 1588.45 -0.628532 -0.234922 0
M  V30 16528 H 1590.99 -2.04339 -0.0811362 0
M  V30 16529 H 1589.15 -3.09411 -2.33117 0
M  V30 16530 H 1589.56 -5.07182 -1.33665 0
M  V30 16531 H 1591.04 -4.63928 -2.99124 0
M  V30 16532 H 1591.51 -2.96183 -3.24303 0
M  V30 16533 H 1592.12 -3.84303 -1.82185 0
M  V30 16534 N 1590.44 0.372521 -1.53134 0
M  V30 16535 C 1591.38 1.45597 -1.79082 0
M  V30 16536 C 1592.35 1.5349 -0.63482 0
M  V30 16537 O 1593.54 1.69488 -0.876276 0
M  V30 16538 C 1590.68 2.8263 -1.98026 0
M  V30 16539 C 1589.79 2.83758 -3.25738 0
M  V30 16540 C 1588.93 4.12322 -3.34909 0
M  V30 16541 C 1587.96 4.07565 -4.5668 0
M  V30 16542 N 1587.1 5.27766 -4.63042 0
M  V30 16543 H 1591.94 1.22771 -2.71535 0
M  V30 16544 H 1589.48 0.595285 -1.34517 0
M  V30 16545 H 1591.44 3.62227 -2.06997 0
M  V30 16546 H 1590.07 3.0387 -1.08917 0
M  V30 16547 H 1589.12 1.96435 -3.25757 0
M  V30 16548 H 1590.43 2.76114 -4.15406 0
M  V30 16549 H 1589.58 5.00331 -3.43153 0
M  V30 16550 H 1588.32 4.22709 -2.43245 0
M  V30 16551 H 1587.33 3.17943 -4.48545 0
M  V30 16552 H 1588.55 3.98786 -5.49678 0
M  V30 16553 H 1586.5 5.38752 -3.74276 0
M  V30 16554 H 1586.42 5.22264 -5.46605 0
M  V30 16555 H 1587.68 6.17626 -4.75561 0
M  V30 16556 N 1591.91 1.44376 0.631925 0
M  V30 16557 C 1592.88 1.50825 1.72582 0
M  V30 16558 C 1593.88 0.390379 1.55989 0
M  V30 16559 O 1595.07 0.65297 1.61499 0
M  V30 16560 C 1592.2 1.38141 3.11657 0
M  V30 16561 H 1593.39 2.48265 1.68239 0
M  V30 16562 H 1590.94 1.31456 0.845514 0
M  V30 16563 H 1591.68 0.417905 3.21596 0
M  V30 16564 H 1591.46 2.19198 3.25107 0
M  V30 16565 H 1592.95 1.45633 3.91383 0
M  V30 16566 N 1593.39 -0.872258 1.31261 0
M  V30 16567 C 1594.64 -1.6199 1.20176 0
M  V30 16568 C 1594.95 -1.94129 -0.239439 0
M  V30 16569 O 1596.16 -2.67366 -0.471956 0
M  V30 16570 C 1594.62 -2.92017 2.10366 0
M  V30 16571 C 1594.22 -2.6737 3.59468 0
M  V30 16572 C 1595.97 -3.70007 2.08075 0
M  V30 16573 C 1593.87 -3.93291 4.41674 0
M  V30 16574 H 1592.8 -0.607793 0.446211 0
M  V30 16575 H 1595.46 -0.964627 1.561 0
M  V30 16576 H 1593.84 -3.58907 1.67338 0
M  V30 16577 H 1595.01 -2.08902 4.10727 0
M  V30 16578 H 1593.33 -2.02738 3.63712 0
M  V30 16579 H 1595.92 -4.63416 2.66739 0
M  V30 16580 H 1596.27 -4.02385 1.06733 0
M  V30 16581 H 1596.8 -3.09998 2.49291 0
M  V30 16582 H 1593.54 -3.66064 5.43762 0
M  V30 16583 H 1593.06 -4.51218 3.95174 0
M  V30 16584 H 1594.74 -4.61197 4.53769 0
M  V30 16585 N 1594.87 -1.14184 -1.08627 0
M  V30 16586 C 1596.12 -0.903271 -1.80344 0
M  V30 16587 C 1596.43 0.571801 -1.87056 0
M  V30 16588 O 1597.64 0.92756 -2.55164 0
M  V30 16589 C 1596.09 -1.56653 -3.24018 0
M  V30 16590 C 1595.7 -3.07771 -3.25548 0
M  V30 16591 C 1597.45 -1.40899 -4.00434 0
M  V30 16592 C 1595.35 -3.66943 -4.63796 0
M  V30 16593 H 1594.28 -0.334288 -0.675846 0
M  V30 16594 H 1596.93 -1.3705 -1.22023 0
M  V30 16595 H 1595.32 -1.02698 -3.82452 0
M  V30 16596 H 1596.49 -3.68375 -2.76834 0
M  V30 16597 H 1594.8 -3.23136 -2.62625 0
M  V30 16598 H 1597.4 -1.82511 -5.02587 0
M  V30 16599 H 1597.74 -0.354822 -4.14785 0
M  V30 16600 H 1598.28 -1.91879 -3.48464 0
M  V30 16601 H 1595.02 -4.72203 -4.54648 0
M  V30 16602 H 1594.54 -3.11119 -5.12801 0
M  V30 16603 H 1596.22 -3.67103 -5.32771 0
M  V30 16604 N 1596.35 1.26749 -0.936613 0
M  V30 16605 C 1597.26 2.30272 -0.448573 0
M  V30 16606 C 1598.27 1.67386 0.475184 0
M  V30 16607 O 1599.45 1.98232 0.355825 0
M  V30 16608 C 1596.52 3.45546 0.28262 0
M  V30 16609 C 1595.58 4.23926 -0.677138 0
M  V30 16610 C 1594.81 5.33697 0.019255 0
M  V30 16611 O 1595.03 5.56825 1.23703 0
M  V30 16612 O 1593.97 5.98302 -0.657119 0
M  V30 16613 H 1597.79 2.74072 -1.30838 0
M  V30 16614 H 1595.38 1.31863 -0.702314 0
M  V30 16615 H 1597.26 4.15635 0.694686 0
M  V30 16616 H 1595.93 3.03784 1.11789 0
M  V30 16617 H 1594.84 3.56337 -1.13906 0
M  V30 16618 H 1596.17 4.69425 -1.47988 0
M  V30 16619 N 1597.83 0.703118 1.41046 0
M  V30 16620 C 1598.77 0.0312802 2.32579 0
M  V30 16621 C 1599.77 -0.760463 1.51371 0
M  V30 16622 O 1600.97 -0.665235 1.67256 0
M  V30 16623 H 1597.35 -0.00868655 0.75195 0
M  V30 16624 H 1599.32 0.820195 2.86907 0
M  V30 16625 C 1598.07 -0.885639 3.36232 0
M  V30 16626 H 1597.39 -0.285819 3.98777 0
M  V30 16627 H 1598.83 -1.3239 4.02801 0
M  V30 16628 C 1597.29 -2.00533 2.70718 0
M  V30 16629 O 1597.82 -3.09491 2.56082 0
M  V30 16630 N 1596.03 -1.78528 2.29295 0
M  V30 16631 H 1595.57 -0.899139 2.41399 0
M  V30 16632 H 1595.53 -2.53627 1.85797 0
M  V30 16633 N 1599.3 -1.51086 0.448402 0
M  V30 16634 C 1600.23 -2.30896 -0.347773 0
M  V30 16635 C 1601.22 -1.36792 -1.01104 0
M  V30 16636 O 1602.4 -1.65713 -1.01257 0
M  V30 16637 C 1599.53 -3.15901 -1.44304 0
M  V30 16638 C 1598.48 -4.18373 -0.90265 0
M  V30 16639 C 1597.81 -4.9197 -2.0945 0
M  V30 16640 C 1599.11 -5.22252 0.0705335 0
M  V30 16641 H 1600.8 -2.97704 0.318273 0
M  V30 16642 H 1598.35 -1.43169 0.154509 0
M  V30 16643 H 1600.3 -3.70519 -2.00733 0
M  V30 16644 H 1599.03 -2.46935 -2.13753 0
M  V30 16645 H 1597.69 -3.64823 -0.3605 0
M  V30 16646 H 1597.33 -4.19497 -2.77545 0
M  V30 16647 H 1597.03 -5.6127 -1.73926 0
M  V30 16648 H 1598.56 -5.49415 -2.66412 0
M  V30 16649 H 1599.97 -5.71876 -0.403814 0
M  V30 16650 H 1598.37 -5.99142 0.338905 0
M  V30 16651 H 1599.44 -4.74398 1.00373 0
M  V30 16652 N 1600.78 -0.180154 -1.56567 0
M  V30 16653 C 1602.03 0.462656 -1.96322 0
M  V30 16654 C 1602.34 1.63788 -1.06925 0
M  V30 16655 O 1603.55 2.34751 -1.36398 0
M  V30 16656 C 1602.01 0.874492 -3.49114 0
M  V30 16657 C 1601.61 -0.27562 -4.47151 0
M  V30 16658 C 1603.36 1.48522 -3.9767 0
M  V30 16659 C 1601.27 0.156341 -5.91193 0
M  V30 16660 H 1600.2 0.176619 -0.733022 0
M  V30 16661 H 1602.85 -0.269793 -1.81506 0
M  V30 16662 H 1601.23 1.66318 -3.59381 0
M  V30 16663 H 1602.4 -1.05304 -4.48606 0
M  V30 16664 H 1600.72 -0.796878 -4.08704 0
M  V30 16665 H 1603.31 1.8206 -5.02751 0
M  V30 16666 H 1603.66 2.38634 -3.41115 0
M  V30 16667 H 1604.19 0.760806 -3.90457 0
M  V30 16668 H 1600.93 -0.710221 -6.51641 0
M  V30 16669 H 1600.45 0.898933 -5.93025 0
M  V30 16670 H 1602.13 0.597228 -6.44238 0
M  V30 16671 N 1602.26 1.57322 0.0935319 0
M  V30 16672 C 1603.19 1.98861 1.13961 0
M  V30 16673 C 1604.21 0.891385 1.36228 0
M  V30 16674 O 1605.39 1.16949 1.34853 0
M  V30 16675 C 1602.49 2.29369 2.49485 0
M  V30 16676 C 1601.67 3.6066 2.47473 0
M  V30 16677 C 1600.73 3.79087 3.64937 0
M  V30 16678 O 1599.75 4.50923 3.47357 0
M  V30 16679 N 1600.95 3.19784 4.84478 0
M  V30 16680 H 1603.72 2.89208 0.786048 0
M  V30 16681 H 1601.28 1.59416 0.282491 0
M  V30 16682 H 1603.27 2.38889 3.26671 0
M  V30 16683 H 1601.84 1.45021 2.76925 0
M  V30 16684 H 1601.06 3.62095 1.55823 0
M  V30 16685 H 1602.35 4.46908 2.43209 0
M  V30 16686 H 1601.75 2.61436 5.01665 0
M  V30 16687 H 1600.31 3.34786 5.59251 0
M  V30 16688 N 1603.74 -0.364395 1.53329 0
M  V30 16689 C 1604.69 -1.44645 1.79851 0
M  V30 16690 C 1605.66 -1.53151 0.642951 0
M  V30 16691 O 1606.84 -1.6902 0.885252 0
M  V30 16692 C 1603.98 -2.81575 1.99523 0
M  V30 16693 C 1603.09 -2.82026 3.27239 0
M  V30 16694 C 1602.23 -4.1054 3.37091 0
M  V30 16695 C 1601.27 -4.05138 4.58835 0
M  V30 16696 N 1600.4 -5.25303 4.65834 0
M  V30 16697 H 1605.24 -1.21329 2.72182 0
M  V30 16698 H 1602.78 -0.588143 1.34831 0
M  V30 16699 H 1604.74 -3.61124 2.08915 0
M  V30 16700 H 1603.37 -3.03288 1.10527 0
M  V30 16701 H 1602.42 -1.94704 3.26794 0
M  V30 16702 H 1603.73 -2.73907 4.16865 0
M  V30 16703 H 1602.89 -4.98504 3.45801 0
M  V30 16704 H 1601.63 -4.21413 2.45483 0
M  V30 16705 H 1600.63 -3.1556 4.50224 0
M  V30 16706 H 1601.86 -3.95866 5.51785 0
M  V30 16707 H 1599.8 -5.36759 3.77128 0
M  V30 16708 H 1599.72 -5.19358 5.49367 0
M  V30 16709 H 1600.99 -6.15096 4.78829 0
M  V30 16710 N 1605.22 -1.44709 -0.62426 0
M  V30 16711 C 1606.15 -1.48097 -1.74928 0
M  V30 16712 C 1607.16 -0.373567 -1.58456 0
M  V30 16713 O 1608.35 -0.639699 -1.66644 0
M  V30 16714 C 1605.45 -1.30576 -3.12735 0
M  V30 16715 C 1604.62 -2.54688 -3.55602 0
M  V30 16716 C 1603.68 -2.31966 -4.72311 0
M  V30 16717 O 1602.71 -3.05492 -4.80274 0
M  V30 16718 N 1603.91 -1.35463 -5.64473 0
M  V30 16719 H 1606.68 -2.45086 -1.72491 0
M  V30 16720 H 1604.24 -1.40236 -0.809039 0
M  V30 16721 H 1606.23 -1.13212 -3.88542 0
M  V30 16722 H 1604.8 -0.419262 -3.09776 0
M  V30 16723 H 1604.02 -2.87282 -2.69931 0
M  V30 16724 H 1605.31 -3.37223 -3.80996 0
M  V30 16725 H 1604.7 -0.747509 -5.60739 0
M  V30 16726 H 1603.26 -1.24075 -6.39882 0
M  V30 16727 N 1606.69 0.865285 -1.31722 0
M  V30 16728 C 1607.97 1.60146 -1.12306 0
M  V30 16729 C 1608.35 2.08653 0.320508 0
M  V30 16730 O 1607.7 1.86841 1.31539 0
M  V30 16731 C 1607.91 2.75583 -2.14138 0
M  V30 16732 C 1609.26 3.45429 -2.46909 0
M  V30 16733 O 1610.28 2.85795 -2.12602 0
M  V30 16734 O 1609.14 4.53017 -3.05676 0
M  V30 16735 H 1606.23 0.704786 -0.432673 0
M  V30 16736 H 1608.78 0.910339 -1.43216 0
M  V30 16737 H 1607.55 2.37187 -3.1122 0
M  V30 16738 H 1607.18 3.52378 -1.84161 0
M  V30 16739 N 1608.17 1.14759 1.0802 0
M  V30 16740 C 1609.42 0.918248 1.80484 0
M  V30 16741 C 1609.75 -0.554986 1.86414 0
M  V30 16742 O 1609 -1.42732 1.33888 0
M  V30 16743 C 1609.3 1.4692 3.25805 0
M  V30 16744 C 1608.97 2.96176 3.39987 0
M  V30 16745 C 1607.63 3.36923 3.43564 0
M  V30 16746 C 1609.98 3.92131 3.43341 0
M  V30 16747 C 1607.31 4.72281 3.48092 0
M  V30 16748 C 1609.66 5.27351 3.49404 0
M  V30 16749 C 1608.33 5.67605 3.51256 0
M  V30 16750 H 1607.6 0.336011 0.660437 0
M  V30 16751 H 1610.24 1.43191 1.27156 0
M  V30 16752 H 1608.55 0.876571 3.81868 0
M  V30 16753 H 1610.24 1.26765 3.80436 0
M  V30 16754 H 1606.83 2.63675 3.37896 0
M  V30 16755 H 1611.02 3.61728 3.39804 0
M  V30 16756 H 1606.27 5.02823 3.4782 0
M  V30 16757 H 1610.45 6.01507 3.50946 0
M  V30 16758 H 1608.08 6.72474 3.54517 0
M  V30 16759 N 1609.65 -1.26251 0.943322 0
M  V30 16760 C 1610.88 -1.98278 0.608341 0
M  V30 16761 C 1611.3 -1.69756 -0.810208 0
M  V30 16762 O 1610.66 -0.946846 -1.54611 0
M  V30 16763 C 1610.71 -3.50205 0.859591 0
M  V30 16764 O 1609.81 -4.12345 -0.0672371 0
M  V30 16765 H 1609.15 -0.621973 0.232477 0
M  V30 16766 H 1611.68 -1.60662 1.26684 0
M  V30 16767 H 1611.69 -4.00449 0.781341 0
M  V30 16768 H 1610.37 -3.70294 1.89354 0
M  V30 16769 H 1608.94 -3.72848 0.0622543 0
M  V30 16770 N 1611.13 -0.710588 -1.40671 0
M  V30 16771 C 1612.06 -0.0694601 -2.33397 0
M  V30 16772 C 1613.04 0.750959 -1.52626 0
M  V30 16773 O 1614.23 0.700896 -1.81111 0
M  V30 16774 C 1611.36 0.856704 -3.36568 0
M  V30 16775 C 1610.31 0.142276 -4.27763 0
M  V30 16776 C 1609.64 1.18382 -5.21431 0
M  V30 16777 C 1610.94 -1.00052 -5.12627 0
M  V30 16778 H 1612.63 -0.843945 -2.87259 0
M  V30 16779 H 1610.18 -0.407287 -1.3812 0
M  V30 16780 H 1612.13 1.31457 -4.00371 0
M  V30 16781 H 1610.85 1.66303 -2.81089 0
M  V30 16782 H 1609.51 -0.295714 -3.65405 0
M  V30 16783 H 1609.16 1.98306 -4.62259 0
M  V30 16784 H 1608.86 0.71071 -5.83286 0
M  V30 16785 H 1610.38 1.64189 -5.88111 0
M  V30 16786 H 1611.8 -0.622246 -5.69913 0
M  V30 16787 H 1610.19 -1.40168 -5.83501 0
M  V30 16788 H 1611.26 -1.83345 -4.48902 0
M  V30 16789 N 1612.61 1.50847 -0.456408 0
M  V30 16790 C 1613.83 2.07139 0.104054 0
M  V30 16791 C 1614.26 1.31966 1.34039 0
M  V30 16792 O 1613.62 0.363038 1.77628 0
M  V30 16793 C 1613.66 3.5853 0.385794 0
M  V30 16794 O 1612.77 3.85351 1.46895 0
M  V30 16795 H 1612.11 0.663968 -0.00651246 0
M  V30 16796 H 1614.64 1.94226 -0.64323 0
M  V30 16797 H 1614.65 4.03097 0.630644 0
M  V30 16798 H 1613.32 4.12665 -0.51773 0
M  V30 16799 H 1611.9 3.52635 1.21256 0
M  V30 16800 N 1614.09 0.188454 1.56469 0
M  V30 16801 C 1615.33 -0.452728 1.97682 0
M  V30 16802 C 1615.66 -1.61729 1.07506 0
M  V30 16803 O 1614.94 -1.94094 0.125677 0
M  V30 16804 C 1615.22 -0.919257 3.48169 0
M  V30 16805 C 1615.08 0.246656 4.49123 0
M  V30 16806 C 1616.39 -1.78706 4.02184 0
M  V30 16807 H 1613.51 -0.16309 0.718729 0
M  V30 16808 H 1616.16 0.27804 1.87955 0
M  V30 16809 H 1614.31 -1.54195 3.5659 0
M  V30 16810 H 1615.98 0.884178 4.52747 0
M  V30 16811 H 1614.22 0.89948 4.24372 0
M  V30 16812 H 1614.89 -0.122179 5.51865 0
M  V30 16813 H 1617.37 -1.26196 3.96502 0
M  V30 16814 H 1616.24 -2.08247 5.07863 0
M  V30 16815 H 1616.5 -2.73891 3.47039 0
M  V30 16816 N 1615.56 -1.5737 -0.0851874 0
M  V30 16817 C 1616.53 -2.01789 -1.08692 0
M  V30 16818 C 1617.53 -0.912872 -1.32376 0
M  V30 16819 O 1618.72 -1.1781 -1.28322 0
M  V30 16820 C 1615.85 -2.38708 -2.43375 0
M  V30 16821 H 1617.04 -2.91511 -0.704359 0
M  V30 16822 H 1614.59 -1.52765 -0.330528 0
M  V30 16823 H 1615.33 -1.5197 -2.86488 0
M  V30 16824 H 1615.11 -3.19331 -2.2753 0
M  V30 16825 H 1616.6 -2.73697 -3.15404 0
M  V30 16826 N 1617.04 0.356258 -1.53521 0
M  V30 16827 C 1617.97 1.44271 -1.83598 0
M  V30 16828 C 1618.95 1.5547 -0.690141 0
M  V30 16829 O 1620.14 1.69886 -0.940868 0
M  V30 16830 C 1617.27 2.8149 -2.03422 0
M  V30 16831 C 1616.22 2.85108 -3.19213 0
M  V30 16832 C 1615.55 4.25091 -3.24348 0
M  V30 16833 C 1616.85 2.51788 -4.57602 0
M  V30 16834 H 1618.54 1.1935 -2.74583 0
M  V30 16835 H 1616.09 0.572707 -1.32121 0
M  V30 16836 H 1618.04 3.57531 -2.23046 0
M  V30 16837 H 1616.76 3.07819 -1.09155 0
M  V30 16838 H 1615.42 2.1152 -2.99424 0
M  V30 16839 H 1615.07 4.4851 -2.277 0
M  V30 16840 H 1614.77 4.28426 -4.0215 0
M  V30 16841 H 1616.3 5.02992 -3.46167 0
M  V30 16842 H 1617.71 3.17542 -4.77326 0
M  V30 16843 H 1616.11 2.66426 -5.37715 0
M  V30 16844 H 1617.18 1.4701 -4.62078 0
M  V30 16845 N 1618.52 1.45038 0.616577 0
M  V30 16846 C 1619.8 1.39059 1.37557 0
M  V30 16847 C 1620.18 0.0566307 2.11024 0
M  V30 16848 O 1619.52 -0.961203 2.073 0
M  V30 16849 C 1619.73 2.59841 2.32989 0
M  V30 16850 C 1621.08 3.04539 2.95874 0
M  V30 16851 O 1622.11 2.6015 2.43312 0
M  V30 16852 O 1620.97 3.81547 3.9126 0
M  V30 16853 H 1618.06 0.551396 0.616353 0
M  V30 16854 H 1620.61 1.57152 0.640416 0
M  V30 16855 H 1619.38 3.48521 1.779 0
M  V30 16856 H 1619 2.44036 3.13899 0
M  V30 16857 N 1620 -0.858287 1.32179 0
M  V30 16858 C 1621.25 -1.60902 1.2229 0
M  V30 16859 C 1621.57 -1.93797 -0.216227 0
M  V30 16860 O 1620.84 -1.59312 -1.14002 0
M  V30 16861 H 1619.42 -0.596529 0.449624 0
M  V30 16862 H 1622.08 -1.02686 1.65655 0
M  V30 16863 H 1621.17 -2.54755 1.80295 0
M  V30 16864 N 1621.48 -1.1533 -1.07409 0
M  V30 16865 C 1622.72 -0.925974 -1.79639 0
M  V30 16866 C 1623.04 0.548365 -1.87131 0
M  V30 16867 O 1622.31 1.39854 -1.37178 0
M  V30 16868 H 1620.89 -0.339599 -0.665343 0
M  V30 16869 H 1623.56 -1.45383 -1.29806 0
M  V30 16870 H 1622.65 -1.33484 -2.82114 0
M  V30 16871 N 1622.95 1.25748 -0.950004 0
M  V30 16872 C 1624.18 1.97952 -0.618848 0
M  V30 16873 C 1624.6 1.70184 0.801194 0
M  V30 16874 O 1623.96 0.955032 1.54107 0
M  V30 16875 C 1624.01 3.49744 -0.878151 0
M  V30 16876 O 1623.11 4.12375 0.0453685 0
M  V30 16877 H 1622.45 0.620731 -0.235773 0
M  V30 16878 H 1624.98 1.59988 -1.27534 0
M  V30 16879 H 1624.99 4.00029 -0.802567 0
M  V30 16880 H 1623.67 3.69285 -1.91315 0
M  V30 16881 H 1622.25 3.7281 -0.0820265 0
M  V30 16882 N 1624.43 0.718038 1.40292 0
M  V30 16883 C 1625.36 0.0160994 2.28194 0
M  V30 16884 C 1626.34 -0.765159 1.43472 0
M  V30 16885 O 1627.53 -0.751283 1.72881 0
M  V30 16886 C 1624.65 -0.984558 3.24074 0
M  V30 16887 C 1623.7 -0.293817 4.25487 0
M  V30 16888 S 1624.53 0.980059 5.26455 0
M  V30 16889 C 1625.69 -0.0184326 6.25897 0
M  V30 16890 H 1625.92 0.761585 2.8738 0
M  V30 16891 H 1623.45 0.509158 1.45763 0
M  V30 16892 H 1625.41 -1.55667 3.7984 0
M  V30 16893 H 1624.07 -1.70276 2.63941 0
M  V30 16894 H 1623.27 -1.05037 4.92933 0
M  V30 16895 H 1622.87 0.205802 3.73433 0
M  V30 16896 H 1625.16 -0.864464 6.71962 0
M  V30 16897 H 1626.1 0.622712 7.05357 0
M  V30 16898 H 1626.51 -0.383254 5.63197 0
M  V30 16899 N 1625.91 -1.50602 0.464402 0
M  V30 16900 C 1626.84 -2.31252 -0.323263 0
M  V30 16901 C 1627.82 -1.37856 -0.996476 0
M  V30 16902 O 1629.01 -1.66777 -0.994933 0
M  V30 16903 C 1626.14 -3.17414 -1.40945 0
M  V30 16904 C 1625.09 -4.19307 -0.858226 0
M  V30 16905 C 1624.42 -4.94164 -2.0422 0
M  V30 16906 C 1625.72 -5.22148 0.125921 0
M  V30 16907 H 1627.41 -2.97349 0.34983 0
M  V30 16908 H 1624.96 -1.42997 0.169685 0
M  V30 16909 H 1626.91 -3.72627 -1.96791 0
M  V30 16910 H 1625.63 -2.49189 -2.11122 0
M  V30 16911 H 1624.29 -3.65185 -0.321785 0
M  V30 16912 H 1623.94 -4.22417 -2.7308 0
M  V30 16913 H 1623.64 -5.63083 -1.67963 0
M  V30 16914 H 1625.16 -5.5221 -2.60569 0
M  V30 16915 H 1626.58 -5.72272 -0.343136 0
M  V30 16916 H 1624.98 -5.98749 0.402433 0
M  V30 16917 H 1626.05 -4.73307 1.05399 0
M  V30 16918 N 1627.39 -0.19675 -1.56367 0
M  V30 16919 C 1628.63 0.442238 -1.97919 0
M  V30 16920 C 1628.97 1.61156 -1.08362 0
M  V30 16921 O 1628.24 1.94024 -0.135969 0
M  V30 16922 C 1628.53 0.90078 -3.48652 0
M  V30 16923 C 1628.38 -0.270471 -4.48986 0
M  V30 16924 C 1629.7 1.7657 -4.03126 0
M  V30 16925 H 1626.82 0.159276 -0.719583 0
M  V30 16926 H 1629.46 -0.288004 -1.87805 0
M  V30 16927 H 1627.61 1.52302 -3.57402 0
M  V30 16928 H 1629.28 -0.908176 -4.52272 0
M  V30 16929 H 1627.52 -0.921973 -4.23889 0
M  V30 16930 H 1628.19 0.0929101 -5.51922 0
M  V30 16931 H 1630.67 1.24091 -3.97166 0
M  V30 16932 H 1629.55 2.0555 -5.0896 0
M  V30 16933 H 1629.81 2.72047 -3.48486 0
M  V30 16934 N 1628.87 1.57413 0.0768405 0
M  V30 16935 C 1630.09 1.91224 0.790007 0
M  V30 16936 C 1630.51 0.792232 1.71374 0
M  V30 16937 O 1629.87 -0.234736 1.80984 0
M  V30 16938 C 1629.92 3.24757 1.58793 0
M  V30 16939 O 1629.64 4.3245 0.701329 0
M  V30 16940 C 1631.14 3.72549 2.40254 0
M  V30 16941 H 1628.36 0.63219 0.224893 0
M  V30 16942 H 1630.9 2.04442 0.0486173 0
M  V30 16943 H 1629.06 3.13081 2.28165 0
M  V30 16944 H 1629.47 5.09245 1.2558 0
M  V30 16945 H 1630.95 4.68628 2.91705 0
M  V30 16946 H 1631.42 3.01305 3.1955 0
M  V30 16947 H 1632.03 3.87153 1.76048 0
M  V30 16948 N 1630.34 -0.348112 1.53707 0
M  V30 16949 C 1631.57 -1.10742 1.74412 0
M  V30 16950 C 1631.98 -1.82982 0.481049 0
M  V30 16951 O 1631.33 -1.7506 -0.556759 0
M  V30 16952 C 1631.39 -2.16911 2.86687 0
M  V30 16953 C 1631.05 -1.64286 4.26449 0
M  V30 16954 C 1632.05 -1.09761 5.08182 0
M  V30 16955 C 1629.73 -1.69271 4.72919 0
M  V30 16956 C 1631.73 -0.609186 6.34482 0
M  V30 16957 C 1629.41 -1.20041 5.99194 0
M  V30 16958 C 1630.41 -0.659566 6.79808 0
M  V30 16959 O 1630.1 -0.174591 8.0371 0
M  V30 16960 H 1629.83 -0.336313 0.586404 0
M  V30 16961 H 1632.39 -0.407502 2.01317 0
M  V30 16962 H 1630.62 -2.90449 2.55297 0
M  V30 16963 H 1632.31 -2.78371 2.95405 0
M  V30 16964 H 1633.07 -1.05235 4.73445 0
M  V30 16965 H 1628.95 -2.10308 4.10234 0
M  V30 16966 H 1632.49 -0.186374 6.97351 0
M  V30 16967 H 1628.39 -1.24265 6.33426 0
M  V30 16968 H 1629.16 -0.292303 8.17978 0
M  V30 16969 N 1631.82 -1.45363 -0.608876 0
M  V30 16970 C 1633.23 -1.43794 -1.19081 0
M  V30 16971 C 1633.58 -0.164874 -1.95506 0
M  V30 16972 O 1632.71 0.733623 -2.03585 0
M  V30 16973 C 1633.3 -2.60506 -2.16615 0
M  V30 16974 C 1631.86 -2.62061 -2.70187 0
M  V30 16975 C 1631.01 -2.36018 -1.4557 0
M  V30 16976 H 1633.96 -1.53622 -0.39826 0
M  V30 16977 H 1633.98 -2.34531 -2.99625 0
M  V30 16978 H 1633.49 -3.53147 -1.60963 0
M  V30 16979 H 1631.6 -1.73423 -3.2978 0
M  V30 16980 H 1631.71 -3.61242 -3.14708 0
M  V30 16981 H 1630.07 -1.8555 -1.74481 0
M  V30 16982 H 1630.86 -3.30802 -0.917884 0
M  V30 16983 N 1633.3 0.851265 -1.32632 0
M  V30 16984 C 1634.53 1.63568 -1.26211 0
M  V30 16985 C 1634.94 1.8842 0.171578 0
M  V30 16986 O 1634.28 1.45592 1.12021 0
M  V30 16987 C 1634.34 3.01653 -1.95566 0
M  V30 16988 C 1634.01 2.99827 -3.44896 0
M  V30 16989 C 1635 2.76431 -4.4032 0
M  V30 16990 C 1632.69 3.20355 -3.86883 0
M  V30 16991 C 1634.68 2.73572 -5.75706 0
M  V30 16992 C 1632.37 3.17122 -5.22376 0
M  V30 16993 C 1633.37 2.9376 -6.16599 0
M  V30 16994 O 1633.06 2.90408 -7.49612 0
M  V30 16995 H 1632.79 0.516079 -0.436622 0
M  V30 16996 H 1635.34 1.06941 -1.75365 0
M  V30 16997 H 1633.57 3.60083 -1.40986 0
M  V30 16998 H 1635.26 3.62403 -1.82809 0
M  V30 16999 H 1636.03 2.60335 -4.09208 0
M  V30 17000 H 1631.91 3.37563 -3.13962 0
M  V30 17001 H 1635.45 2.55257 -6.49222 0
M  V30 17002 H 1631.35 3.32764 -5.53117 0
M  V30 17003 H 1632.12 3.06338 -7.59012 0
M  V30 17004 N 1634.78 1.15898 1.06796 0
M  V30 17005 C 1636.06 0.847701 1.76276 0
M  V30 17006 C 1636.44 -0.655537 2.00664 0
M  V30 17007 O 1635.78 -1.60171 1.62964 0
M  V30 17008 C 1635.99 1.66475 3.06736 0
M  V30 17009 C 1637.34 1.87452 3.80982 0
M  V30 17010 O 1638.37 1.63298 3.16563 0
M  V30 17011 O 1637.22 2.27942 4.96694 0
M  V30 17012 H 1634.32 0.312308 0.765763 0
M  V30 17013 H 1636.86 1.26507 1.13111 0
M  V30 17014 H 1635.64 2.68508 2.84638 0
M  V30 17015 H 1635.26 1.24409 3.77635 0
M  V30 17016 N 1636.26 -1.25243 0.956659 0
M  V30 17017 C 1637.2 -2.25811 0.477292 0
M  V30 17018 C 1638.17 -1.59273 -0.471301 0
M  V30 17019 O 1639.36 -1.86894 -0.384105 0
M  V30 17020 C 1636.5 -3.44286 -0.236891 0
M  V30 17021 C 1635.61 -4.25454 0.749177 0
M  V30 17022 C 1634.75 -5.31199 0.012228 0
M  V30 17023 C 1633.79 -6.04056 0.989094 0
M  V30 17024 N 1632.92 -7.0153 0.282883 0
M  V30 17025 H 1637.76 -2.66185 1.33977 0
M  V30 17026 H 1635.3 -1.30862 0.671832 0
M  V30 17027 H 1637.26 -4.11825 -0.66755 0
M  V30 17028 H 1635.89 -3.04781 -1.06339 0
M  V30 17029 H 1634.94 -3.57558 1.29831 0
M  V30 17030 H 1636.25 -4.75883 1.49454 0
M  V30 17031 H 1635.41 -6.04822 -0.476968 0
M  V30 17032 H 1634.14 -4.81648 -0.76591 0
M  V30 17033 H 1633.15 -5.29245 1.48927 0
M  V30 17034 H 1634.37 -6.55695 1.76749 0
M  V30 17035 H 1632.32 -6.54267 -0.476479 0
M  V30 17036 H 1632.24 -7.49786 0.967304 0
M  V30 17037 H 1633.51 -7.79281 -0.184709 0
M  V30 17038 N 1637.73 -0.725468 -1.3991 0
M  V30 17039 C 1639.15 -0.340415 -1.8357 0
M  V30 17040 C 1639.5 1.1266 -1.6063 0
M  V30 17041 O 1638.62 1.86804 -1.0924 0
M  V30 17042 C 1639.22 -0.611079 -3.33244 0
M  V30 17043 C 1637.78 -0.279627 -3.7536 0
M  V30 17044 C 1636.92 -0.878498 -2.63017 0
M  V30 17045 H 1639.87 -0.923856 -1.29037 0
M  V30 17046 H 1639.89 0.120377 -3.8031 0
M  V30 17047 H 1639.41 -1.67886 -3.49908 0
M  V30 17048 H 1637.51 0.782703 -3.64286 0
M  V30 17049 H 1637.62 -0.755528 -4.73105 0
M  V30 17050 H 1635.98 -0.305813 -2.52857 0
M  V30 17051 H 1636.77 -1.95075 -2.8249 0
M  V30 17052 N 1639.21 1.50354 -0.472382 0
M  V30 17053 C 1640.46 2.02633 0.0822846 0
M  V30 17054 C 1640.79 1.35358 1.39254 0
M  V30 17055 O 1640.07 0.479714 1.88491 0
M  V30 17056 C 1640.35 3.59126 0.264742 0
M  V30 17057 C 1640.2 4.3697 -1.06663 0
M  V30 17058 C 1641.52 4.28148 1.01869 0
M  V30 17059 H 1638.64 0.736451 0.0284304 0
M  V30 17060 H 1641.28 1.79661 -0.618224 0
M  V30 17061 H 1639.43 3.7883 0.86141 0
M  V30 17062 H 1641.1 4.28834 -1.69997 0
M  V30 17063 H 1639.35 4.0066 -1.66295 0
M  V30 17064 H 1640.02 5.44736 -0.892592 0
M  V30 17065 H 1642.49 4.12926 0.512931 0
M  V30 17066 H 1641.37 5.37453 1.11515 0
M  V30 17067 H 1641.63 3.91406 2.05557 0
M  V30 17068 N 1640.69 0.205039 1.56261 0
M  V30 17069 C 1641.62 -0.743854 2.16794 0
M  V30 17070 C 1642.64 -1.16959 1.13245 0
M  V30 17071 O 1643.83 -1.1036 1.40296 0
M  V30 17072 C 1640.93 -2.01717 2.7233 0
M  V30 17073 C 1640.1 -1.74965 4.00882 0
M  V30 17074 C 1639.16 -2.86841 4.41145 0
M  V30 17075 O 1638.18 -2.5602 5.08372 0
M  V30 17076 N 1639.39 -4.15425 4.05466 0
M  V30 17077 H 1642.15 -0.226145 2.98846 0
M  V30 17078 H 1639.71 0.0234276 1.61883 0
M  V30 17079 H 1641.7 -2.7572 2.96244 0
M  V30 17080 H 1640.27 -2.44582 1.94675 0
M  V30 17081 H 1639.49 -0.846903 3.84995 0
M  V30 17082 H 1640.78 -1.54501 4.84775 0
M  V30 17083 H 1640.18 -4.43314 3.5141 0
M  V30 17084 H 1638.74 -4.86023 4.3431 0
M  V30 17085 N 1642.17 -1.57451 -0.0684915 0
M  V30 17086 C 1643.4 -1.9164 -0.779855 0
M  V30 17087 C 1643.81 -0.801309 -1.70952 0
M  V30 17088 O 1643.17 0.225134 -1.81106 0
M  V30 17089 C 1643.22 -3.25594 -1.57068 0
M  V30 17090 O 1642.94 -4.32816 -0.678385 0
M  V30 17091 C 1644.44 -3.73818 -2.38275 0
M  V30 17092 H 1641.66 -0.633374 -0.221537 0
M  V30 17093 H 1644.21 -2.04465 -0.0377746 0
M  V30 17094 H 1642.36 -3.14287 -2.26501 0
M  V30 17095 H 1642.78 -5.09903 -1.22877 0
M  V30 17096 H 1644.25 -4.70168 -2.89216 0
M  V30 17097 H 1644.73 -3.02995 -3.17947 0
M  V30 17098 H 1645.33 -3.88081 -1.73992 0
M  V30 17099 N 1643.65 0.339955 -1.5389 0
M  V30 17100 C 1644.89 1.08139 -1.71563 0
M  V30 17101 C 1645.23 1.88193 -0.479292 0
M  V30 17102 O 1644.5 1.87317 0.523702 0
M  V30 17103 C 1644.78 2.01963 -2.98132 0
M  V30 17104 C 1644.64 1.25349 -4.31981 0
M  V30 17105 C 1645.96 3.01729 -3.20387 0
M  V30 17106 H 1643.08 0.391744 -0.624264 0
M  V30 17107 H 1645.72 0.359609 -1.86566 0
M  V30 17108 H 1643.87 2.63511 -2.85472 0
M  V30 17109 H 1645.54 0.66388 -4.56498 0
M  V30 17110 H 1643.78 0.555541 -4.30228 0
M  V30 17111 H 1644.45 1.94154 -5.16728 0
M  V30 17112 H 1646.93 2.50297 -3.32401 0
M  V30 17113 H 1645.81 3.64577 -4.10335 0
M  V30 17114 H 1646.07 3.73303 -2.36849 0
M  V30 17115 N 1645.13 1.45684 0.601159 0
M  V30 17116 C 1646.04 1.57396 1.73965 0
M  V30 17117 C 1647.05 0.458133 1.6786 0
M  V30 17118 O 1648.23 0.719717 1.88101 0
M  V30 17119 C 1645.29 1.54363 3.1044 0
M  V30 17120 C 1644.35 2.77034 3.27949 0
M  V30 17121 C 1643.59 2.74136 4.57914 0
M  V30 17122 O 1643.81 1.81829 5.40643 0
M  V30 17123 O 1642.74 3.65428 4.78274 0
M  V30 17124 H 1646.57 2.5364 1.67034 0
M  V30 17125 H 1644.15 1.28267 0.766017 0
M  V30 17126 H 1646.04 1.55302 3.91739 0
M  V30 17127 H 1644.71 0.612723 3.17848 0
M  V30 17128 H 1643.62 2.81655 2.46214 0
M  V30 17129 H 1644.95 3.69272 3.25422 0
M  V30 17130 N 1646.6 -0.84422 1.33082 0
M  V30 17131 C 1647.55 -1.97504 1.22862 0
M  V30 17132 C 1648.55 -1.68892 0.131141 0
M  V30 17133 O 1649.75 -1.7757 0.294753 0
M  V30 17134 H 1646.13 -0.648263 0.381129 0
M  V30 17135 H 1648.1 -2.03249 2.18478 0
M  V30 17136 C 1646.85 -3.33626 0.979228 0
M  V30 17137 H 1646.17 -3.56178 1.81596 0
M  V30 17138 H 1647.61 -4.13266 0.948007 0
M  V30 17139 C 1646.07 -3.35397 -0.317922 0
M  V30 17140 O 1646.6 -3.7917 -1.32638 0
M  V30 17141 N 1644.8 -2.88562 -0.343577 0
M  V30 17142 H 1644.35 -2.53133 0.477625 0
M  V30 17143 H 1644.31 -2.90129 -1.21131 0
M  V30 17144 N 1648.08 -1.16463 -1.0618 0
M  V30 17145 C 1649.03 -0.87224 -2.13683 0
M  V30 17146 C 1650 0.179784 -1.65124 0
M  V30 17147 O 1651.18 0.0447406 -1.90748 0
M  V30 17148 C 1648.32 -0.380728 -3.42993 0
M  V30 17149 C 1647.44 -1.49571 -4.05281 0
M  V30 17150 C 1646.57 -0.959099 -5.2247 0
M  V30 17151 C 1645.61 -2.05021 -5.76743 0
M  V30 17152 N 1644.75 -1.5291 -6.85247 0
M  V30 17153 H 1649.59 -1.79288 -2.38033 0
M  V30 17154 H 1647.12 -0.894379 -1.16787 0
M  V30 17155 H 1649.08 -0.0773816 -4.17128 0
M  V30 17156 H 1647.71 0.502966 -3.18857 0
M  V30 17157 H 1646.76 -1.915 -3.28682 0
M  V30 17158 H 1648.08 -2.31904 -4.41613 0
M  V30 17159 H 1647.23 -0.609003 -6.03636 0
M  V30 17160 H 1645.97 -0.105086 -4.87587 0
M  V30 17161 H 1644.97 -2.40899 -4.94214 0
M  V30 17162 H 1646.2 -2.90821 -6.13678 0
M  V30 17163 H 1644.15 -0.697639 -6.5228 0
M  V30 17164 H 1644.06 -2.28859 -7.20527 0
M  V30 17165 H 1645.33 -1.20762 -7.70089 0
M  V30 17166 N 1649.56 1.24734 -0.963288 0
M  V30 17167 C 1650.47 2.29268 -0.497316 0
M  V30 17168 C 1651.49 1.68356 0.439572 0
M  V30 17169 O 1652.66 1.98942 0.313697 0
M  V30 17170 C 1649.73 3.46068 0.209261 0
M  V30 17171 C 1648.79 4.22394 -0.766907 0
M  V30 17172 C 1648.02 5.33617 -0.0939542 0
M  V30 17173 O 1648.24 5.59323 1.11864 0
M  V30 17174 O 1647.18 5.96774 -0.78388 0
M  V30 17175 H 1651 2.71235 -1.36622 0
M  V30 17176 H 1648.59 1.30344 -0.730126 0
M  V30 17177 H 1650.47 4.17015 0.606367 0
M  V30 17178 H 1649.15 3.06087 1.0532 0
M  V30 17179 H 1648.05 3.53841 -1.21439 0
M  V30 17180 H 1649.39 4.66181 -1.57912 0
M  V30 17181 N 1651.04 0.732878 1.39523 0
M  V30 17182 C 1652.27 0.29007 2.04857 0
M  V30 17183 C 1652.68 -1.07435 1.55252 0
M  V30 17184 O 1652.04 -1.67847 0.716497 0
M  V30 17185 C 1652.09 0.280464 3.6041 0
M  V30 17186 O 1651.81 1.59102 4.08189 0
M  V30 17187 C 1653.31 -0.178772 4.42939 0
M  V30 17188 H 1650.53 0.12716 0.658841 0
M  V30 17189 H 1653.07 0.995933 1.7861 0
M  V30 17190 H 1651.23 -0.376494 3.85566 0
M  V30 17191 H 1651.64 1.50314 5.025 0
M  V30 17192 H 1653.12 -0.134335 5.51837 0
M  V30 17193 H 1653.59 -1.22362 4.21811 0
M  V30 17194 H 1654.2 0.448543 4.22928 0
M  V30 17195 N 1652.52 -1.50101 0.480349 0
M  V30 17196 C 1653.45 -2.31581 -0.298718 0
M  V30 17197 C 1654.43 -1.38905 -0.981798 0
M  V30 17198 O 1655.61 -1.67823 -0.977188 0
M  V30 17199 C 1652.74 -3.18891 -1.37571 0
M  V30 17200 C 1651.7 -4.20194 -0.813704 0
M  V30 17201 C 1651.02 -4.96302 -1.98968 0
M  V30 17202 C 1652.32 -5.21985 0.181295 0
M  V30 17203 H 1654.02 -2.96961 0.381349 0
M  V30 17204 H 1651.56 -1.42809 0.184842 0
M  V30 17205 H 1653.51 -3.74694 -1.92828 0
M  V30 17206 H 1652.24 -2.51414 -2.08467 0
M  V30 17207 H 1650.9 -3.65506 -0.283034 0
M  V30 17208 H 1650.55 -4.2529 -2.68584 0
M  V30 17209 H 1650.25 -5.64833 -1.61981 0
M  V30 17210 H 1651.77 -5.54943 -2.54698 0
M  V30 17211 H 1653.18 -5.72604 -0.28242 0
M  V30 17212 H 1651.58 -5.98289 0.465916 0
M  V30 17213 H 1652.65 -4.72162 1.10413 0
M  V30 17214 N 1653.99 -0.213323 -1.5615 0
M  V30 17215 C 1654.94 0.700175 -2.19923 0
M  V30 17216 C 1655.91 1.19641 -1.15218 0
M  V30 17217 O 1657.1 1.257 -1.43542 0
M  V30 17218 C 1654.24 1.90629 -2.87671 0
M  V30 17219 C 1653.35 1.44973 -4.06948 0
M  V30 17220 C 1652.48 2.61277 -4.62502 0
M  V30 17221 C 1651.52 2.12316 -5.74098 0
M  V30 17222 N 1650.66 3.21862 -6.23978 0
M  V30 17223 H 1655.5 0.14961 -2.97624 0
M  V30 17224 H 1653.04 0.0620957 -1.46969 0
M  V30 17225 H 1654.99 2.61431 -3.2513 0
M  V30 17226 H 1653.62 2.42987 -2.12502 0
M  V30 17227 H 1652.68 0.636917 -3.7503 0
M  V30 17228 H 1653.99 1.05065 -4.87609 0
M  V30 17229 H 1653.14 3.40174 -5.02361 0
M  V30 17230 H 1651.88 3.04468 -3.80987 0
M  V30 17231 H 1650.89 1.31877 -5.33749 0
M  V30 17232 H 1652.11 1.70134 -6.57443 0
M  V30 17233 H 1650.06 3.64551 -5.45379 0
M  V30 17234 H 1649.97 2.86181 -6.9974 0
M  V30 17235 H 1651.24 4.0092 -6.68493 0
M  V30 17236 N 1655.47 1.57485 0.0601405 0
M  V30 17237 C 1656.42 2.00939 1.07739 0
M  V30 17238 C 1657.41 0.893348 1.33821 0
M  V30 17239 O 1658.6 1.15727 1.33927 0
M  V30 17240 C 1655.73 2.46657 2.38778 0
M  V30 17241 C 1654.81 3.65019 2.1592 0
M  V30 17242 N 1655.2 4.78807 1.63025 0
M  V30 17243 C 1653.5 3.71794 2.46344 0
M  V30 17244 C 1654.2 5.60599 1.55253 0
M  V30 17245 N 1653.18 5.04788 2.01718 0
M  V30 17246 H 1656.98 2.86349 0.661923 0
M  V30 17247 H 1654.5 1.6019 0.267017 0
M  V30 17248 H 1656.49 2.76032 3.12429 0
M  V30 17249 H 1655.15 1.62639 2.81031 0
M  V30 17250 H 1656.16 5.00868 1.31725 0
M  V30 17251 H 1652.84 2.98513 2.91884 0
M  V30 17252 H 1654.23 6.61966 1.1511 0
M  V30 17253 N 1656.95 -0.331789 1.54068 0
M  V30 17254 C 1657.88 -1.41332 1.8587 0
M  V30 17255 C 1658.86 -1.54353 0.714787 0
M  V30 17256 O 1660.05 -1.68368 0.967777 0
M  V30 17257 C 1657.18 -2.78218 2.07875 0
M  V30 17258 C 1656.13 -2.79994 3.23709 0
M  V30 17259 C 1655.46 -4.19878 3.31069 0
M  V30 17260 C 1656.76 -2.44476 4.6155 0
M  V30 17261 H 1658.45 -1.14966 2.76447 0
M  V30 17262 H 1656 -0.551615 1.33016 0
M  V30 17263 H 1657.95 -3.53937 2.28706 0
M  V30 17264 H 1656.67 -3.06044 1.14038 0
M  V30 17265 H 1655.33 -2.0673 3.02751 0
M  V30 17266 H 1654.98 -4.44831 2.34807 0
M  V30 17267 H 1654.68 -4.21974 4.08915 0
M  V30 17268 H 1656.2 -4.97421 3.54125 0
M  V30 17269 H 1657.62 -3.09908 4.82317 0
M  V30 17270 H 1656.02 -2.57837 5.41886 0
M  V30 17271 H 1657.09 -1.3964 4.64358 0
M  V30 17272 N 1658.43 -1.46001 -0.593424 0
M  V30 17273 C 1659.39 -1.55347 -1.68523 0
M  V30 17274 C 1660.39 -0.431599 -1.549 0
M  V30 17275 O 1661.58 -0.695559 -1.59711 0
M  V30 17276 C 1658.71 -1.46355 -3.07885 0
M  V30 17277 H 1659.91 -2.52639 -1.61597 0
M  V30 17278 H 1657.46 -1.33652 -0.810363 0
M  V30 17279 H 1658.19 -0.503024 -3.20375 0
M  V30 17280 H 1657.98 -2.27741 -3.19181 0
M  V30 17281 H 1659.47 -1.55958 -3.87385 0
M  V30 17282 N 1659.91 0.83715 -1.33527 0
M  V30 17283 C 1661.13 1.62976 -1.28271 0
M  V30 17284 C 1661.56 1.87554 0.143201 0
M  V30 17285 O 1660.91 1.44088 1.10038 0
M  V30 17286 C 1660.96 2.95607 -2.06516 0
M  V30 17287 O 1660.07 3.87 -1.42494 0
M  V30 17288 H 1659.41 0.496212 -0.441214 0
M  V30 17289 H 1661.94 1.04137 -1.76115 0
M  V30 17290 H 1661.95 3.4529 -2.17344 0
M  V30 17291 H 1660.62 2.77041 -3.10195 0
M  V30 17292 H 1659.2 3.45492 -1.40321 0
M  V30 17293 N 1661.38 1.17024 1.05561 0
M  V30 17294 C 1662.31 0.906823 2.15172 0
M  V30 17295 C 1663.3 -0.149745 1.6944 0
M  V30 17296 O 1664.48 -0.000287092 1.942 0
M  V30 17297 C 1661.61 0.415251 3.44809 0
M  V30 17298 C 1660.56 1.41058 4.04088 0
M  V30 17299 C 1659.89 0.777109 5.29023 0
M  V30 17300 C 1661.19 2.78258 4.42007 0
M  V30 17301 H 1662.88 1.82347 2.37466 0
M  V30 17302 H 1660.43 0.878162 1.14124 0
M  V30 17303 H 1662.38 0.218407 4.20834 0
M  V30 17304 H 1661.11 -0.536924 3.22156 0
M  V30 17305 H 1659.77 1.5941 3.30127 0
M  V30 17306 H 1659.41 -0.181784 5.02671 0
M  V30 17307 H 1659.11 1.44151 5.69644 0
M  V30 17308 H 1660.64 0.590455 6.07738 0
M  V30 17309 H 1662.05 2.63645 5.09082 0
M  V30 17310 H 1660.45 3.41241 4.93634 0
M  V30 17311 H 1661.52 3.3295 3.52523 0
M  V30 17312 N 1662.86 -1.24221 0.969889 0
M  V30 17313 C 1664.09 -1.96118 0.649715 0
M  V30 17314 C 1664.5 -1.72127 -0.785436 0
M  V30 17315 O 1663.84 -1.00319 -1.53889 0
M  V30 17316 C 1663.91 -3.49374 0.847236 0
M  V30 17317 C 1663.57 -3.97067 2.26244 0
M  V30 17318 C 1664.57 -4.06568 3.24034 0
M  V30 17319 C 1662.25 -4.30333 2.59072 0
M  V30 17320 C 1664.25 -4.48672 4.52738 0
M  V30 17321 C 1661.93 -4.72121 3.88001 0
M  V30 17322 C 1662.93 -4.81256 4.84646 0
M  V30 17323 O 1662.62 -5.22109 6.11275 0
M  V30 17324 H 1662.35 -0.63149 0.24124 0
M  V30 17325 H 1664.9 -1.58948 1.30095 0
M  V30 17326 H 1663.13 -3.86451 0.138828 0
M  V30 17327 H 1664.82 -4.0248 0.525817 0
M  V30 17328 H 1665.59 -3.81083 3.00002 0
M  V30 17329 H 1661.47 -4.22441 1.84565 0
M  V30 17330 H 1665.01 -4.55717 5.28174 0
M  V30 17331 H 1660.91 -4.97054 4.11834 0
M  V30 17332 H 1661.68 -5.40252 6.14874 0
M  V30 17333 N 1664.34 -0.740267 -1.39132 0
M  V30 17334 C 1665.3 -0.112183 -2.28925 0
M  V30 17335 C 1666.3 0.661598 -1.46559 0
M  V30 17336 O 1667.49 0.489835 -1.67171 0
M  V30 17337 C 1664.63 0.850121 -3.3013 0
M  V30 17338 H 1665.82 -0.903339 -2.85972 0
M  V30 17339 H 1663.37 -0.506427 -1.47868 0
M  V30 17340 H 1664.11 1.66744 -2.78149 0
M  V30 17341 H 1663.89 0.297847 -3.90967 0
M  V30 17342 H 1665.38 1.28599 -3.97306 0
M  V30 17343 N 1665.82 1.49844 -0.488302 0
M  V30 17344 C 1666.77 2.30515 0.310703 0
M  V30 17345 C 1667.76 1.38559 0.974569 0
M  V30 17346 O 1668.97 1.5567 0.903708 0
M  V30 17347 H 1665.34 0.742517 0.119049 0
M  V30 17348 H 1667.31 2.95842 -0.389849 0
M  V30 17349 C 1666.06 3.19575 1.36994 0
M  V30 17350 H 1665.38 3.90253 0.868497 0
M  V30 17351 H 1666.82 3.78984 1.90123 0
M  V30 17352 C 1665.28 2.38324 2.38124 0
M  V30 17353 O 1665.81 2.07842 3.43751 0
M  V30 17354 N 1664.02 2.00583 2.10273 0
M  V30 17355 H 1663.57 2.25572 1.24399 0
M  V30 17356 H 1663.52 1.46525 2.78169 0
M  V30 17357 N 1667.3 0.221601 1.56034 0
M  V30 17358 C 1668.24 -0.704963 2.2166 0
M  V30 17359 C 1669.24 -1.19966 1.19601 0
M  V30 17360 O 1670.44 -1.15949 1.37681 0
M  V30 17361 H 1666.82 -0.245758 0.710709 0
M  V30 17362 H 1668.79 -0.128041 2.98125 0
M  V30 17363 C 1667.54 -1.90234 2.91043 0
M  V30 17364 H 1666.86 -1.53079 3.69333 0
M  V30 17365 H 1668.3 -2.52844 3.40361 0
M  V30 17366 C 1666.76 -2.75777 1.93516 0
M  V30 17367 O 1667.29 -3.74534 1.45214 0
M  V30 17368 N 1665.5 -2.41815 1.61165 0
M  V30 17369 H 1665.04 -1.61561 2.00639 0
M  V30 17370 H 1665 -2.9933 0.96172 0
M  V30 17371 N 1668.77 -1.57515 -0.0517878 0
M  V30 17372 C 1669.72 -2.01507 -1.06672 0
M  V30 17373 C 1670.71 -0.900432 -1.33346 0
M  V30 17374 O 1671.9 -1.16435 -1.33311 0
M  V30 17375 C 1669.03 -2.4792 -2.37467 0
M  V30 17376 C 1668.12 -3.66159 -2.13982 0
M  V30 17377 N 1668.51 -4.79665 -1.60483 0
M  V30 17378 C 1666.8 -3.73095 -2.44369 0
M  V30 17379 C 1667.51 -5.61415 -1.52278 0
M  V30 17380 N 1666.48 -5.05851 -1.99038 0
M  V30 17381 H 1670.28 -2.86696 -0.646728 0
M  V30 17382 H 1667.8 -1.60329 -0.258518 0
M  V30 17383 H 1669.79 -2.77685 -3.1096 0
M  V30 17384 H 1668.45 -1.64127 -2.80165 0
M  V30 17385 H 1669.47 -5.0156 -1.29067 0
M  V30 17386 H 1666.14 -3.00057 -2.90296 0
M  V30 17387 H 1667.53 -6.62567 -1.11598 0
M  V30 17388 N 1670.25 0.323614 -1.54242 0
M  V30 17389 C 1671.66 0.898051 -1.63682 0
M  V30 17390 C 1672.02 1.88882 -0.530861 0
M  V30 17391 O 1671.14 2.13772 0.336245 0
M  V30 17392 C 1671.74 1.63561 -2.96704 0
M  V30 17393 C 1670.29 2.15877 -3.08341 0
M  V30 17394 C 1669.44 0.984145 -2.59249 0
M  V30 17395 H 1672.39 0.101198 -1.58377 0
M  V30 17396 H 1672.41 2.49982 -2.86861 0
M  V30 17397 H 1671.93 0.914265 -3.77177 0
M  V30 17398 H 1670.03 2.91127 -2.32542 0
M  V30 17399 H 1670.14 2.40881 -4.14141 0
M  V30 17400 H 1668.5 1.3633 -2.15143 0
M  V30 17401 H 1669.29 0.277118 -3.4218 0
M  V30 17402 N 1671.73 1.46313 0.585673 0
M  V30 17403 C 1672.96 1.55273 1.37496 0
M  V30 17404 C 1673.38 0.193481 1.87102 0
M  V30 17405 O 1672.74 -0.825859 1.61398 0
M  V30 17406 C 1672.79 2.5591 2.54052 0
M  V30 17407 O 1671.89 2.09208 3.55395 0
M  V30 17408 H 1671.23 0.522614 0.409598 0
M  V30 17409 H 1673.76 1.9186 0.710697 0
M  V30 17410 H 1673.77 2.75424 3.01008 0
M  V30 17411 H 1672.45 3.54619 2.17298 0
M  V30 17412 H 1671.02 1.9967 3.14939 0
M  V30 17413 N 1673.21 -0.830057 1.33969 0
M  V30 17414 C 1674.14 -1.94534 1.19297 0
M  V30 17415 C 1675.12 -1.62371 0.0862986 0
M  V30 17416 O 1676.3 -1.86833 0.250152 0
M  V30 17417 C 1673.43 -3.28329 0.831718 0
M  V30 17418 C 1672.48 -3.79459 1.94713 0
M  V30 17419 S 1673.31 -4.00075 3.5595 0
M  V30 17420 C 1674.47 -5.36808 3.21851 0
M  V30 17421 H 1674.7 -2.06683 2.13704 0
M  V30 17422 H 1672.23 -0.984833 1.18913 0
M  V30 17423 H 1674.19 -4.05636 0.630076 0
M  V30 17424 H 1672.85 -3.1396 -0.0939047 0
M  V30 17425 H 1672.04 -4.76297 1.64795 0
M  V30 17426 H 1671.65 -3.09076 2.10589 0
M  V30 17427 H 1673.94 -6.19964 2.73223 0
M  V30 17428 H 1674.88 -5.71705 4.17802 0
M  V30 17429 H 1675.29 -5.0198 2.58217 0
M  V30 17430 N 1674.69 -1.17582 -1.04939 0
M  V30 17431 C 1675.64 -0.862938 -2.11039 0
M  V30 17432 C 1676.62 0.163585 -1.60066 0
M  V30 17433 O 1677.81 -0.0392119 -1.76957 0
M  V30 17434 C 1674.94 -0.380811 -3.41181 0
M  V30 17435 C 1674.03 -1.4389 -3.98944 0
M  V30 17436 N 1674.42 -2.65304 -4.30636 0
M  V30 17437 C 1672.72 -1.29736 -4.26714 0
M  V30 17438 C 1673.42 -3.33311 -4.76737 0
M  V30 17439 N 1672.39 -2.6069 -4.77013 0
M  V30 17440 H 1676.2 -1.78602 -2.33407 0
M  V30 17441 H 1673.71 -1.06491 -1.22611 0
M  V30 17442 H 1675.71 -0.1382 -4.16671 0
M  V30 17443 H 1674.37 0.536032 -3.20245 0
M  V30 17444 H 1675.38 -3.02247 -4.20556 0
M  V30 17445 H 1672.06 -0.442367 -4.1515 0
M  V30 17446 H 1673.45 -4.37026 -5.1035 0
M  V30 17447 N 1676.17 1.23705 -0.976463 0
M  V30 17448 C 1677.1 2.2355 -0.458309 0
M  V30 17449 C 1678.08 1.55586 0.472414 0
M  V30 17450 O 1679.26 1.84169 0.40177 0
M  V30 17451 C 1676.39 3.37015 0.337422 0
M  V30 17452 C 1675.43 4.23108 -0.536865 0
M  V30 17453 S 1676.27 4.97456 -1.98236 0
M  V30 17454 C 1677.42 6.14374 -1.19566 0
M  V30 17455 H 1677.66 2.67156 -1.30442 0
M  V30 17456 H 1675.19 1.33123 -0.782157 0
M  V30 17457 H 1677.15 4.02816 0.790531 0
M  V30 17458 H 1675.81 2.91951 1.15861 0
M  V30 17459 H 1675 5.03945 0.07453 0
M  V30 17460 H 1674.6 3.62354 -0.926058 0
M  V30 17461 H 1676.89 6.7597 -0.455017 0
M  V30 17462 H 1677.84 6.79891 -1.97872 0
M  V30 17463 H 1678.25 5.59939 -0.716175 0
M  V30 17464 N 1677.64 0.747635 1.38738 0
M  V30 17465 C 1678.89 0.300552 1.99853 0
M  V30 17466 C 1679.21 -1.11986 1.59638 0
M  V30 17467 O 1678.48 -1.76477 0.850447 0
M  V30 17468 H 1677.06 0.108134 0.739132 0
M  V30 17469 H 1679.72 0.960405 1.69594 0
M  V30 17470 H 1678.82 0.358956 3.10029 0
M  V30 17471 N 1679.12 -1.49583 0.496242 0
M  V30 17472 C 1680.05 -2.26936 -0.321366 0
M  V30 17473 C 1681.07 -1.33282 -0.934863 0
M  V30 17474 O 1682.26 -1.58602 -0.819008 0
M  V30 17475 C 1679.36 -3.05503 -1.467 0
M  V30 17476 C 1678.53 -4.26697 -0.961687 0
M  V30 17477 C 1677.59 -4.8735 -1.98436 0
M  V30 17478 O 1676.61 -5.47553 -1.55482 0
M  V30 17479 N 1677.82 -4.76577 -3.31443 0
M  V30 17480 H 1680.58 -2.97744 0.341884 0
M  V30 17481 H 1678.14 -1.58532 0.328504 0
M  V30 17482 H 1680.13 -3.42954 -2.1486 0
M  V30 17483 H 1678.7 -2.37334 -2.03449 0
M  V30 17484 H 1677.92 -3.9406 -0.105143 0
M  V30 17485 H 1679.21 -5.05221 -0.602405 0
M  V30 17486 H 1678.61 -4.28756 -3.69032 0
M  V30 17487 H 1677.17 -5.18226 -3.95329 0
M  V30 17488 N 1680.6 -0.229873 -1.55915 0
M  V30 17489 C 1682.01 0.276452 -1.84642 0
M  V30 17490 C 1682.36 1.58861 -1.15142 0
M  V30 17491 O 1681.49 2.12207 -0.423932 0
M  V30 17492 C 1682.08 0.508371 -3.34964 0
M  V30 17493 C 1680.64 0.958989 -3.63979 0
M  V30 17494 C 1679.79 0.0266738 -2.77287 0
M  V30 17495 H 1682.74 -0.452864 -1.52101 0
M  V30 17496 H 1682.76 1.35328 -3.55621 0
M  V30 17497 H 1682.27 -0.4468 -3.8552 0
M  V30 17498 H 1680.37 1.92722 -3.18887 0
M  V30 17499 H 1680.49 0.827637 -4.71897 0
M  V30 17500 H 1678.85 0.53498 -2.49018 0
M  V30 17501 H 1679.63 -0.923563 -3.30644 0
M  V30 17502 N 1682.08 1.5754 0.0434337 0
M  V30 17503 C 1683.3 1.93247 0.753012 0
M  V30 17504 C 1683.73 0.828712 1.68861 0
M  V30 17505 O 1683.09 -0.216618 1.80001 0
M  V30 17506 C 1683.13 3.27989 1.49852 0
M  V30 17507 O 1682.24 3.19223 2.61094 0
M  V30 17508 H 1681.58 0.632032 0.203547 0
M  V30 17509 H 1684.11 2.046 0.00319776 0
M  V30 17510 H 1684.12 3.62539 1.87161 0
M  V30 17511 H 1682.79 4.07891 0.812251 0
M  V30 17512 H 1681.37 2.9628 2.26434 0
M  V30 17513 N 1683.56 -0.31543 1.54411 0
M  V30 17514 C 1684.8 -1.06053 1.74734 0
M  V30 17515 C 1685.16 -1.84978 0.51451 0
M  V30 17516 O 1686.36 -2.62127 0.595228 0
M  V30 17517 C 1684.63 -1.95417 2.99244 0
M  V30 17518 S 1686.19 -2.76769 3.40506 0
M  V30 17519 H 1683.01 -0.357904 0.61435 0
M  V30 17520 H 1685.61 -0.33558 1.92598 0
M  V30 17521 H 1684.31 -1.36285 3.8711 0
M  V30 17522 H 1683.85 -2.72304 2.83926 0
M  V30 17523 H 1685.86 -3.97914 2.96444 0
M  V30 17524 N 1685.03 -1.46622 -0.577906 0
M  V30 17525 C 1686.45 -1.46287 -1.16004 0
M  V30 17526 C 1686.8 -0.206307 -1.95112 0
M  V30 17527 O 1685.92 0.690275 -2.05096 0
M  V30 17528 C 1686.52 -2.65042 -2.1104 0
M  V30 17529 C 1685.08 -2.67733 -2.64567 0
M  V30 17530 C 1684.22 -2.39053 -1.40531 0
M  V30 17531 H 1687.17 -1.54432 -0.365585 0
M  V30 17532 H 1687.19 -2.40834 -2.94583 0
M  V30 17533 H 1686.71 -3.56481 -1.53436 0
M  V30 17534 H 1684.81 -1.80379 -3.26028 0
M  V30 17535 H 1684.92 -3.67836 -3.06974 0
M  V30 17536 H 1683.28 -1.89209 -1.70506 0
M  V30 17537 H 1684.07 -3.32674 -0.847509 0
M  V30 17538 N 1686.51 0.822941 -1.34408 0
M  V30 17539 C 1687.46 1.95524 -1.25988 0
M  V30 17540 C 1688.45 1.68662 -0.157994 0
M  V30 17541 O 1689.66 1.77079 -0.322966 0
M  V30 17542 H 1686.04 0.642117 -0.391394 0
M  V30 17543 H 1688.01 1.99747 -2.21683 0
M  V30 17544 C 1686.76 3.32026 -1.03218 0
M  V30 17545 H 1686.08 3.53244 -1.87239 0
M  V30 17546 H 1687.52 4.11706 -1.01363 0
M  V30 17547 C 1685.98 3.3586 0.264523 0
M  V30 17548 O 1686.51 3.81232 1.26589 0
M  V30 17549 N 1684.71 2.89072 0.297626 0
M  V30 17550 H 1684.26 2.52341 -0.517836 0
M  V30 17551 H 1684.22 2.92019 1.165 0
M  V30 17552 N 1687.99 1.18137 1.04314 0
M  V30 17553 C 1688.94 0.906125 2.12269 0
M  V30 17554 C 1689.91 -0.153492 1.65389 0
M  V30 17555 O 1691.09 -0.0143887 1.90795 0
M  V30 17556 C 1688.23 0.435247 3.42344 0
M  V30 17557 C 1687.35 1.56 4.0285 0
M  V30 17558 C 1686.48 1.0421 5.20878 0
M  V30 17559 C 1685.52 2.14171 5.73409 0
M  V30 17560 N 1684.66 1.63792 6.82727 0
M  V30 17561 H 1689.5 1.83052 2.35151 0
M  V30 17562 H 1687.03 0.912846 1.1535 0
M  V30 17563 H 1688.99 0.143733 4.16952 0
M  V30 17564 H 1687.62 -0.452175 3.19617 0
M  V30 17565 H 1686.67 1.96705 3.25594 0
M  V30 17566 H 1687.99 2.389 4.37868 0
M  V30 17567 H 1687.14 0.704959 6.0259 0
M  V30 17568 H 1685.88 0.182643 4.87358 0
M  V30 17569 H 1684.88 2.48732 4.90319 0
M  V30 17570 H 1686.11 3.00547 6.08973 0
M  V30 17571 H 1684.05 0.801323 6.51087 0
M  V30 17572 H 1683.97 2.40293 7.16795 0
M  V30 17573 H 1685.24 1.32998 7.6807 0
M  V30 17574 N 1689.47 -1.23186 0.98301 0
M  V30 17575 C 1690.69 -1.96242 0.671114 0
M  V30 17576 C 1691.12 -1.72248 -0.755792 0
M  V30 17577 O 1690.48 -0.995555 -1.5152 0
M  V30 17578 C 1690.52 -3.47293 0.970571 0
M  V30 17579 O 1689.63 -4.1235 0.0639814 0
M  V30 17580 H 1688.97 -0.614262 0.252147 0
M  V30 17581 H 1691.5 -1.56551 1.31731 0
M  V30 17582 H 1691.51 -3.9776 0.908345 0
M  V30 17583 H 1690.18 -3.64083 2.01039 0
M  V30 17584 H 1688.76 -3.72461 0.180842 0
M  V30 17585 N 1690.95 -0.754982 -1.38339 0
M  V30 17586 C 1692.22 -0.237208 -1.94156 0
M  V30 17587 C 1692.6 1.26479 -1.69016 0
M  V30 17588 O 1691.95 2.03995 -1.02948 0
M  V30 17589 C 1692.16 -0.592412 -3.43935 0
M  V30 17590 C 1693.51 -0.552832 -4.20986 0
M  V30 17591 O 1694.53 -0.530789 -3.52223 0
M  V30 17592 O 1693.39 -0.565006 -5.43571 0
M  V30 17593 H 1690.49 -0.0500619 -0.825483 0
M  V30 17594 H 1693.03 -0.835199 -1.47724 0
M  V30 17595 H 1691.8 -1.62969 -3.55748 0
M  V30 17596 H 1691.43 0.0335119 -3.97586 0
M  V30 17597 N 1692.42 1.49318 -0.504168 0
M  V30 17598 C 1693.33 2.32958 0.277053 0
M  V30 17599 C 1694.35 1.44838 0.964266 0
M  V30 17600 O 1695.53 1.77856 0.944947 0
M  V30 17601 C 1692.59 3.20352 1.32572 0
M  V30 17602 C 1691.65 4.24326 0.651606 0
M  V30 17603 C 1690.89 5.07544 1.65031 0
M  V30 17604 O 1691.11 4.92326 2.88047 0
M  V30 17605 O 1690.04 5.89737 1.20388 0
M  V30 17606 H 1693.87 3.00952 -0.40763 0
M  V30 17607 H 1691.45 1.47023 -0.265453 0
M  V30 17608 H 1693.34 3.74483 1.93237 0
M  V30 17609 H 1692.01 2.5505 1.99327 0
M  V30 17610 H 1690.92 3.741 0.00513384 0
M  V30 17611 H 1692.25 4.92193 0.0264424 0
M  V30 17612 N 1693.9 0.238138 1.5579 0
M  V30 17613 C 1694.85 -0.681413 2.22395 0
M  V30 17614 C 1695.84 -1.18691 1.20867 0
M  V30 17615 O 1697.05 -1.14482 1.38903 0
M  V30 17616 H 1693.43 -0.238207 0.713275 0
M  V30 17617 H 1695.4 -0.0964141 2.98244 0
M  V30 17618 C 1694.15 -1.87137 2.93045 0
M  V30 17619 H 1693.47 -1.49153 3.70936 0
M  V30 17620 H 1694.91 -2.4922 3.43024 0
M  V30 17621 C 1693.37 -2.73709 1.9643 0
M  V30 17622 O 1693.9 -3.72973 1.49178 0
M  V30 17623 N 1692.1 -2.40092 1.6372 0
M  V30 17624 H 1691.65 -1.59423 2.02341 0
M  V30 17625 H 1691.61 -2.98293 0.993414 0
M  V30 17626 N 1695.38 -1.57561 -0.0350783 0
M  V30 17627 C 1696.63 -1.88177 -0.726105 0
M  V30 17628 C 1696.94 -0.835856 -1.76841 0
M  V30 17629 O 1698.15 -1.03105 -2.51161 0
M  V30 17630 C 1696.6 -3.33924 -1.34249 0
M  V30 17631 C 1696.21 -4.46732 -0.336845 0
M  V30 17632 C 1697.96 -3.73696 -2.01374 0
M  V30 17633 C 1695.86 -5.83536 -0.961234 0
M  V30 17634 H 1694.79 -0.702082 -0.274948 0
M  V30 17635 H 1697.44 -1.83489 0.0197081 0
M  V30 17636 H 1695.83 -3.33337 -2.13781 0
M  V30 17637 H 1697 -4.58777 0.431323 0
M  V30 17638 H 1695.32 -4.15753 0.231983 0
M  V30 17639 H 1697.91 -4.7322 -2.48931 0
M  V30 17640 H 1698.26 -3.05379 -2.8293 0
M  V30 17641 H 1698.79 -3.76431 -1.28626 0
M  V30 17642 H 1695.53 -6.55238 -0.185217 0
M  V30 17643 H 1695.05 -5.75223 -1.69938 0
M  V30 17644 H 1696.73 -6.30071 -1.47035 0
M  V30 17645 N 1696.86 0.307236 -1.54576 0
M  V30 17646 C 1698.27 0.88064 -1.64626 0
M  V30 17647 C 1698.62 1.88308 -0.550865 0
M  V30 17648 O 1697.75 2.14116 0.313553 0
M  V30 17649 C 1698.34 1.60405 -2.98422 0
M  V30 17650 C 1696.9 2.12595 -3.10613 0
M  V30 17651 C 1696.05 0.956593 -2.60278 0
M  V30 17652 H 1699 0.0843939 -1.58475 0
M  V30 17653 H 1699.02 2.46925 -2.89496 0
M  V30 17654 H 1698.53 0.874209 -3.78126 0
M  V30 17655 H 1696.63 2.88644 -2.35617 0
M  V30 17656 H 1696.74 2.36475 -4.16673 0
M  V30 17657 H 1695.11 1.3404 -2.16576 0
M  V30 17658 H 1695.89 0.24081 -3.42454 0
M  V30 17659 N 1698.34 1.46926 0.570122 0
M  V30 17660 C 1699.58 1.52585 1.32523 0
M  V30 17661 C 1699.91 0.184291 1.94127 0
M  V30 17662 O 1699.18 -0.790478 1.79244 0
M  V30 17663 H 1697.76 0.562019 0.492081 0
M  V30 17664 H 1700.42 1.83141 0.666746 0
M  V30 17665 H 1699.51 2.28541 2.12545 0
M  V30 17666 N 1699.82 -0.815801 1.34842 0
M  V30 17667 C 1701.06 -1.5693 1.27347 0
M  V30 17668 C 1701.38 -1.94387 -0.154462 0
M  V30 17669 O 1700.65 -1.62858 -1.08876 0
M  V30 17670 H 1699.23 -0.581923 0.468374 0
M  V30 17671 H 1701.9 -0.973642 1.68838 0
M  V30 17672 H 1700.99 -2.4889 1.88308 0
M  V30 17673 N 1701.29 -1.18689 -1.03686 0
M  V30 17674 C 1702.54 -0.98606 -1.77214 0
M  V30 17675 C 1702.87 0.482788 -1.88103 0
M  V30 17676 O 1702.15 1.3585 -1.39194 0
M  V30 17677 C 1702.43 -1.64611 -3.20274 0
M  V30 17678 C 1702.28 -3.18808 -3.17304 0
M  V30 17679 C 1703.6 -1.36251 -4.18478 0
M  V30 17680 H 1700.72 -0.359634 -0.643298 0
M  V30 17681 H 1703.36 -1.46412 -1.21094 0
M  V30 17682 H 1701.51 -1.23964 -3.68192 0
M  V30 17683 H 1703.19 -3.68615 -2.77346 0
M  V30 17684 H 1701.43 -3.50769 -2.55232 0
M  V30 17685 H 1702.1 -3.60131 -4.18341 0
M  V30 17686 H 1704.58 -1.71476 -3.79124 0
M  V30 17687 H 1703.45 -1.84997 -5.16786 0
M  V30 17688 H 1703.71 -0.286113 -4.41173 0
M  V30 17689 N 1702.77 1.22662 -0.989529 0
M  V30 17690 C 1703.7 2.23052 -0.481994 0
M  V30 17691 C 1704.68 1.56078 0.455885 0
M  V30 17692 O 1705.87 1.84584 0.382214 0
M  V30 17693 C 1702.99 3.37354 0.301658 0
M  V30 17694 C 1702.04 4.22514 -0.581711 0
M  V30 17695 S 1702.87 4.95326 -2.03501 0
M  V30 17696 C 1704.03 6.13071 -1.26075 0
M  V30 17697 H 1704.26 2.65757 -1.33268 0
M  V30 17698 H 1701.79 1.32286 -0.796233 0
M  V30 17699 H 1703.75 4.03632 0.747763 0
M  V30 17700 H 1702.41 2.93163 1.12758 0
M  V30 17701 H 1701.61 5.03996 0.0210757 0
M  V30 17702 H 1701.21 3.61351 -0.964439 0
M  V30 17703 H 1703.5 6.7545 -0.526687 0
M  V30 17704 H 1704.44 6.77754 -2.05072 0
M  V30 17705 H 1704.85 5.59147 -0.775524 0
M  V30 17706 N 1704.25 0.762308 1.37937 0
M  V30 17707 C 1705.67 0.440871 1.5339 0
M  V30 17708 C 1705.87 -1.04483 1.72295 0
M  V30 17709 O 1704.92 -1.83078 1.73892 0
M  V30 17710 C 1706.23 1.24772 2.73592 0
M  V30 17711 C 1707.78 1.23867 2.87447 0
M  V30 17712 C 1708.26 2.02866 4.10621 0
M  V30 17713 N 1709.75 2.00171 4.17715 0
M  V30 17714 C 1710.48 2.58086 5.12034 0
M  V30 17715 N 1709.98 3.2475 6.11972 0
M  V30 17716 N 1711.77 2.47968 5.04449 0
M  V30 17717 H 1703.92 1.72506 1.23916 0
M  V30 17718 H 1706.19 0.731791 0.602649 0
M  V30 17719 H 1705.89 2.30016 2.66056 0
M  V30 17720 H 1705.77 0.870485 3.67018 0
M  V30 17721 H 1708.15 0.194255 2.9446 0
M  V30 17722 H 1708.23 1.65548 1.95007 0
M  V30 17723 H 1707.88 3.07323 4.04369 0
M  V30 17724 H 1707.81 1.58574 5.02157 0
M  V30 17725 H 1710.3 1.5163 3.46146 0
M  V30 17726 H 1710.61 3.66339 6.80453 0
M  V30 17727 H 1708.96 3.28846 6.12279 0
M  V30 17728 H 1712.15 1.95509 4.25316 0
M  V30 17729 H 1712.32 2.93398 5.77773 0
M  V30 17730 N 1705.73 -1.49049 0.51208 0
M  V30 17731 C 1706.98 -2.0208 -0.0284326 0
M  V30 17732 C 1707.3 -1.39303 -1.36454 0
M  V30 17733 O 1706.57 -0.552155 -1.87958 0
M  V30 17734 H 1705.15 -0.746878 -0.0134968 0
M  V30 17735 H 1707.81 -1.82954 0.671842 0
M  V30 17736 H 1706.9 -3.11739 -0.149966 0
M  V30 17737 N 1707.21 -0.246397 -1.55662 0
M  V30 17738 C 1708.17 0.640041 -2.20082 0
M  V30 17739 C 1709.17 1.10313 -1.16994 0
M  V30 17740 O 1710.36 1.00792 -1.42079 0
M  V30 17741 C 1707.49 1.87964 -2.84398 0
M  V30 17742 H 1708.68 0.0780034 -2.99799 0
M  V30 17743 H 1706.24 0.00314588 -1.563 0
M  V30 17744 H 1706.97 2.48292 -2.08618 0
M  V30 17745 H 1706.76 1.5558 -3.59913 0
M  V30 17746 H 1708.25 2.51065 -3.33701 0
M  V30 17747 N 1708.68 1.57577 0.026722 0
M  V30 17748 C 1709.59 2.10114 1.04351 0
M  V30 17749 C 1710.61 1.04029 1.39477 0
M  V30 17750 O 1711.79 1.35778 1.48749 0
M  V30 17751 C 1708.85 2.57203 2.32481 0
M  V30 17752 C 1707.91 3.77779 2.03915 0
M  V30 17753 C 1707.14 4.22613 3.25936 0
M  V30 17754 O 1707.37 3.66955 4.36692 0
M  V30 17755 O 1706.3 5.15026 3.11499 0
M  V30 17756 H 1710.13 2.97157 0.627021 0
M  V30 17757 H 1707.71 1.47396 0.243855 0
M  V30 17758 H 1709.59 2.87809 3.07805 0
M  V30 17759 H 1708.27 1.7327 2.73421 0
M  V30 17760 H 1707.18 3.52188 1.26152 0
M  V30 17761 H 1708.51 4.62703 1.67829 0
M  V30 17762 N 1710.16 -0.299034 1.54737 0
M  V30 17763 C 1711.41 -1.03159 1.75299 0
M  V30 17764 C 1711.76 -1.84859 0.533365 0
M  V30 17765 O 1711.06 -1.85639 -0.474219 0
M  V30 17766 C 1711.25 -1.9673 2.98382 0
M  V30 17767 C 1711.08 -1.24234 4.32199 0
M  V30 17768 C 1709.85 -0.96869 4.95928 0
M  V30 17769 C 1712.05 -0.645795 5.10229 0
M  V30 17770 N 1710.03 -0.214208 6.13526 0
M  V30 17771 C 1711.4 -0.0241804 6.19995 0
M  V30 17772 C 1713.45 -0.55104 4.94841 0
M  V30 17773 C 1712.16 0.683023 7.1605 0
M  V30 17774 C 1714.18 0.142513 5.91228 0
M  V30 17775 C 1713.55 0.752971 7.00364 0
M  V30 17776 H 1709.64 -0.360348 0.694027 0
M  V30 17777 H 1712.23 -0.31 1.92216 0
M  V30 17778 H 1710.4 -2.66138 2.82887 0
M  V30 17779 H 1712.13 -2.63152 3.07462 0
M  V30 17780 H 1708.89 -1.26735 4.56328 0
M  V30 17781 H 1709.31 0.149604 6.76835 0
M  V30 17782 H 1713.95 -1.0087 4.10591 0
M  V30 17783 H 1711.67 1.15245 7.9984 0
M  V30 17784 H 1715.26 0.215798 5.814 0
M  V30 17785 H 1714.14 1.2811 7.73665 0
M  V30 17786 N 1711.64 -1.47227 -0.562322 0
M  V30 17787 C 1712.59 -1.55739 -1.66521 0
M  V30 17788 C 1713.57 -0.416678 -1.55411 0
M  V30 17789 O 1714.77 -0.666302 -1.6398 0
M  V30 17790 C 1711.89 -1.5699 -3.05302 0
M  V30 17791 C 1710.98 -2.76427 -3.21634 0
M  V30 17792 N 1711.37 -4.01172 -3.0805 0
M  V30 17793 C 1709.67 -2.73081 -3.52623 0
M  V30 17794 C 1710.37 -4.81132 -3.26936 0
M  V30 17795 N 1709.35 -4.13362 -3.53034 0
M  V30 17796 H 1713.15 -2.49965 -1.5458 0
M  V30 17797 H 1710.66 -1.4315 -0.766937 0
M  V30 17798 H 1712.66 -1.61178 -3.84483 0
M  V30 17799 H 1711.32 -0.638563 -3.18359 0
M  V30 17800 H 1712.33 -4.3211 -2.85485 0
M  V30 17801 H 1709.01 -1.89062 -3.72239 0
M  V30 17802 H 1710.4 -5.9002 -3.21444 0
M  V30 17803 N 1713.12 0.808639 -1.35273 0
M  V30 17804 C 1714.34 1.60219 -1.31699 0
M  V30 17805 C 1714.77 1.87816 0.103386 0
M  V30 17806 O 1714.13 1.46389 1.06957 0
M  V30 17807 C 1714.17 2.9116 -2.12739 0
M  V30 17808 O 1713.28 3.83891 -1.5067 0
M  V30 17809 H 1712.62 0.486742 -0.45164 0
M  V30 17810 H 1715.15 1.00378 -1.78284 0
M  V30 17811 H 1715.16 3.40602 -2.2462 0
M  V30 17812 H 1713.83 2.70399 -3.16002 0
M  V30 17813 H 1712.41 3.42437 -1.47618 0
M  V30 17814 N 1714.6 1.19237 1.03055 0
M  V30 17815 C 1715.55 0.896404 2.09639 0
M  V30 17816 C 1716.53 -0.138099 1.60306 0
M  V30 17817 O 1717.72 0.0673592 1.76872 0
M  V30 17818 C 1714.85 0.435042 3.40532 0
M  V30 17819 C 1713.94 1.50219 3.96604 0
M  V30 17820 N 1714.33 2.72121 4.26361 0
M  V30 17821 C 1712.63 1.36509 4.24596 0
M  V30 17822 C 1713.33 3.40853 4.71374 0
M  V30 17823 N 1712.3 2.68246 4.72806 0
M  V30 17824 H 1716.11 1.82292 2.30536 0
M  V30 17825 H 1713.62 1.08428 1.20901 0
M  V30 17826 H 1715.62 0.204471 4.16398 0
M  V30 17827 H 1714.28 -0.485016 3.21057 0
M  V30 17828 H 1715.29 3.08899 4.15694 0
M  V30 17829 H 1711.96 0.508358 4.14394 0
M  V30 17830 H 1713.35 4.4509 5.03333 0
M  V30 17831 N 1716.07 -1.22136 0.99602 0
M  V30 17832 C 1717 -2.26463 0.568909 0
M  V30 17833 C 1717.99 -1.65189 -0.405783 0
M  V30 17834 O 1719.17 -1.91935 -0.295735 0
M  V30 17835 C 1716.3 -3.47112 -0.114166 0
M  V30 17836 C 1715.25 -4.20844 0.779387 0
M  V30 17837 C 1714.58 -5.34687 -0.0367787 0
M  V30 17838 C 1715.88 -4.79195 2.07773 0
M  V30 17839 H 1717.57 -2.62443 1.44097 0
M  V30 17840 H 1715.12 -1.26156 0.694314 0
M  V30 17841 H 1717.07 -4.19258 -0.424381 0
M  V30 17842 H 1715.8 -3.10238 -1.02079 0
M  V30 17843 H 1714.46 -3.50537 1.07329 0
M  V30 17844 H 1714.1 -4.94054 -0.94442 0
M  V30 17845 H 1713.8 -5.84944 0.558092 0
M  V30 17846 H 1715.33 -6.09647 -0.341016 0
M  V30 17847 H 1716.74 -5.43266 1.83126 0
M  V30 17848 H 1715.14 -5.39803 2.62169 0
M  V30 17849 H 1716.21 -3.99073 2.75442 0
M  V30 17850 N 1717.55 -0.769612 -1.37531 0
M  V30 17851 C 1718.8 -0.332309 -1.99349 0
M  V30 17852 C 1719.12 1.09432 -1.61399 0
M  V30 17853 O 1718.39 1.75102 -0.878415 0
M  V30 17854 H 1716.97 -0.119879 -0.737318 0
M  V30 17855 H 1719.63 -0.987265 -1.68045 0
M  V30 17856 H 1718.73 -0.408233 -3.09419 0
M  V30 17857 N 1719.03 1.48775 -0.519977 0
M  V30 17858 C 1720.26 2.07394 0.0161061 0
M  V30 17859 C 1720.68 1.37532 1.28322 0
M  V30 17860 O 1720.04 0.438049 1.75928 0
M  V30 17861 C 1720.09 3.59844 0.233382 0
M  V30 17862 O 1719.19 3.91235 1.30418 0
M  V30 17863 H 1718.53 0.663094 -0.0346678 0
M  V30 17864 H 1721.06 1.91323 -0.725029 0
M  V30 17865 H 1721.07 4.05409 0.45911 0
M  V30 17866 H 1719.75 4.10098 -0.69229 0
M  V30 17867 H 1718.32 3.5746 1.0619 0
M  V30 17868 N 1720.51 0.254649 1.55529 0
M  V30 17869 C 1721.44 -0.682459 2.17756 0
M  V30 17870 C 1722.42 -1.16722 1.13202 0
M  V30 17871 O 1723.6 -1.24395 1.41627 0
M  V30 17872 C 1720.73 -1.92837 2.78445 0
M  V30 17873 C 1719.78 -1.58082 3.96121 0
M  V30 17874 S 1720.61 -0.676715 5.31207 0
M  V30 17875 C 1721.77 -1.93146 5.95353 0
M  V30 17876 H 1722 -0.153664 2.96903 0
M  V30 17877 H 1719.53 0.0390444 1.54351 0
M  V30 17878 H 1721.49 -2.6436 3.14045 0
M  V30 17879 H 1720.15 -2.4283 1.9923 0
M  V30 17880 H 1719.34 -2.50738 4.37203 0
M  V30 17881 H 1718.95 -0.945965 3.61839 0
M  V30 17882 H 1721.24 -2.87783 6.13341 0
M  V30 17883 H 1722.18 -1.564 6.90612 0
M  V30 17884 H 1722.59 -2.08708 5.24501 0
M  V30 17885 N 1721.99 -1.57589 -0.0183649 0
M  V30 17886 C 1722.93 -2.07252 -1.01563 0
M  V30 17887 C 1723.9 -0.963941 -1.35268 0
M  V30 17888 O 1725.09 -1.2352 -1.45421 0
M  V30 17889 C 1722.23 -2.56548 -2.30818 0
M  V30 17890 C 1721.34 -3.81238 -2.03178 0
M  V30 17891 C 1720.48 -4.19105 -3.26381 0
M  V30 17892 C 1719.52 -5.36682 -2.94344 0
M  V30 17893 N 1718.65 -5.6993 -4.1003 0
M  V30 17894 H 1723.49 -2.92198 -0.585179 0
M  V30 17895 H 1721.03 -1.44462 -0.27731 0
M  V30 17896 H 1722.99 -2.832 -3.06355 0
M  V30 17897 H 1721.62 -1.74504 -2.71566 0
M  V30 17898 H 1720.67 -3.61606 -1.1809 0
M  V30 17899 H 1721.98 -4.66886 -1.75552 0
M  V30 17900 H 1721.14 -4.46942 -4.10278 0
M  V30 17901 H 1719.87 -3.32129 -3.57129 0
M  V30 17902 H 1718.88 -5.08587 -2.08851 0
M  V30 17903 H 1720.1 -6.2532 -2.64862 0
M  V30 17904 H 1718.05 -4.85913 -4.40709 0
M  V30 17905 H 1717.97 -6.50111 -3.85865 0
M  V30 17906 H 1719.24 -6.02349 -4.94768 0
M  V30 17907 N 1723.46 0.290824 -1.54893 0
M  V30 17908 C 1724.74 1.04495 -1.65348 0
M  V30 17909 C 1725.12 2.04888 -0.508348 0
M  V30 17910 O 1724.47 2.23102 0.493749 0
M  V30 17911 C 1724.68 1.71772 -3.03801 0
M  V30 17912 C 1726.03 2.23595 -3.60958 0
M  V30 17913 O 1727.05 1.81788 -3.06319 0
M  V30 17914 O 1725.91 3.00225 -4.56648 0
M  V30 17915 H 1723 0.483605 -0.670862 0
M  V30 17916 H 1725.55 0.288101 -1.67237 0
M  V30 17917 H 1724.32 0.989296 -3.78588 0
M  V30 17918 H 1723.95 2.54188 -3.05735 0
M  V30 17919 N 1724.94 1.47523 0.554506 0
M  V30 17920 C 1726.17 1.57678 1.33496 0
M  V30 17921 C 1726.58 0.226976 1.87834 0
M  V30 17922 O 1725.92 -0.790327 1.6583 0
M  V30 17923 C 1725.99 2.54423 2.53987 0
M  V30 17924 C 1725.65 4.00056 2.20916 0
M  V30 17925 C 1726.65 4.88462 1.78048 0
M  V30 17926 C 1724.33 4.45412 2.32192 0
M  V30 17927 C 1726.33 6.20244 1.46889 0
M  V30 17928 C 1724.01 5.77221 2.00646 0
M  V30 17929 C 1725.01 6.64459 1.58062 0
M  V30 17930 O 1724.7 7.93818 1.26917 0
M  V30 17931 H 1724.43 0.535053 0.413152 0
M  V30 17932 H 1726.98 1.93878 0.678279 0
M  V30 17933 H 1725.21 2.13296 3.22555 0
M  V30 17934 H 1726.9 2.54676 3.16061 0
M  V30 17935 H 1727.67 4.54667 1.68827 0
M  V30 17936 H 1723.55 3.77715 2.64296 0
M  V30 17937 H 1727.09 6.88292 1.13578 0
M  V30 17938 H 1722.99 6.10557 2.095 0
M  V30 17939 H 1723.76 8.06347 1.40525 0
M  V30 17940 N 1726.42 -0.801453 1.357 0
M  V30 17941 C 1727.65 -1.59518 1.32547 0
M  V30 17942 C 1728.07 -1.87868 -0.0934243 0
M  V30 17943 O 1727.43 -1.46955 -1.06179 0
M  V30 17944 C 1727.48 -2.90028 2.14281 0
M  V30 17945 O 1726.58 -3.83086 1.52704 0
M  V30 17946 H 1725.92 -0.48434 0.454215 0
M  V30 17947 H 1728.45 -0.994315 1.78814 0
M  V30 17948 H 1728.46 -3.39406 2.26423 0
M  V30 17949 H 1727.14 -2.6872 3.17431 0
M  V30 17950 H 1725.71 -3.4165 1.49432 0
M  V30 17951 N 1727.9 -1.19782 -1.02421 0
M  V30 17952 C 1729.14 -1.0048 -1.76158 0
M  V30 17953 C 1729.48 0.46281 -1.88605 0
M  V30 17954 O 1728.75 1.34366 -1.40628 0
M  V30 17955 C 1729.04 -1.67999 -3.1851 0
M  V30 17956 C 1728.89 -3.22155 -3.13905 0
M  V30 17957 C 1730.21 -1.40681 -4.17009 0
M  V30 17958 H 1727.33 -0.366436 -0.639448 0
M  V30 17959 H 1729.97 -1.47688 -1.19534 0
M  V30 17960 H 1728.12 -1.27862 -3.66856 0
M  V30 17961 H 1729.79 -3.71536 -2.7342 0
M  V30 17962 H 1728.03 -3.53456 -2.51498 0
M  V30 17963 H 1728.7 -3.64548 -4.14498 0
M  V30 17964 H 1731.18 -1.75488 -3.77284 0
M  V30 17965 H 1730.06 -1.90467 -5.14795 0
M  V30 17966 H 1730.32 -0.332889 -4.40845 0
M  V30 17967 N 1729.38 1.21606 -1.00248 0
M  V30 17968 C 1730.61 1.94609 -0.702502 0
M  V30 17969 C 1731.02 1.73928 0.734483 0
M  V30 17970 O 1730.38 1.04432 1.49667 0
M  V30 17971 C 1730.43 3.47077 -1.01092 0
M  V30 17972 O 1730.15 3.67071 -2.39145 0
M  V30 17973 C 1731.65 4.37248 -0.729988 0
M  V30 17974 H 1728.87 0.618962 -0.259088 0
M  V30 17975 H 1731.41 1.54494 -1.33985 0
M  V30 17976 H 1729.57 3.85125 -0.419215 0
M  V30 17977 H 1729.98 4.61188 -2.49811 0
M  V30 17978 H 1731.46 5.4294 -0.99598 0
M  V30 17979 H 1731.93 4.37913 0.33599 0
M  V30 17980 H 1732.54 4.04842 -1.30318 0
M  V30 17981 N 1730.86 0.776895 1.37121 0
M  V30 17982 C 1732.09 0.354582 2.03534 0
M  V30 17983 C 1732.49 -1.02976 1.58722 0
M  V30 17984 O 1731.84 -1.66956 0.766255 0
M  V30 17985 C 1731.9 0.324836 3.58029 0
M  V30 17986 C 1731.56 1.65463 4.25994 0
M  V30 17987 C 1732.56 2.60797 4.49756 0
M  V30 17988 C 1730.24 1.93049 4.63721 0
M  V30 17989 C 1732.24 3.8192 5.1031 0
M  V30 17990 C 1729.93 3.14441 5.23995 0
M  V30 17991 C 1730.92 4.08695 5.47227 0
M  V30 17992 O 1730.61 5.27949 6.06238 0
M  V30 17993 H 1730.34 0.145861 0.660076 0
M  V30 17994 H 1732.9 1.05336 1.76334 0
M  V30 17995 H 1731.13 -0.43035 3.84298 0
M  V30 17996 H 1732.82 -0.0711053 4.05838 0
M  V30 17997 H 1733.58 2.40768 4.21017 0
M  V30 17998 H 1729.46 1.20509 4.4497 0
M  V30 17999 H 1733.01 4.55502 5.28359 0
M  V30 18000 H 1728.9 3.34352 5.52158 0
M  V30 18001 H 1729.67 5.28844 6.24713 0
M  V30 18002 N 1732.33 -1.48497 0.527859 0
M  V30 18003 C 1733.58 -2.02099 -0.00699772 0
M  V30 18004 C 1733.9 -1.40742 -1.34969 0
M  V30 18005 O 1733.17 -0.572059 -1.87361 0
M  V30 18006 H 1731.75 -0.746979 -0.00557445 0
M  V30 18007 H 1734.41 -1.82231 0.691209 0
M  V30 18008 H 1733.51 -3.11881 -0.116893 0
M  V30 18009 N 1733.81 -0.262893 -1.55392 0
M  V30 18010 C 1734.76 0.644115 -2.18712 0
M  V30 18011 C 1735.75 1.12746 -1.14792 0
M  V30 18012 O 1736.94 1.07457 -1.40649 0
M  V30 18013 C 1734.07 1.83346 -2.9024 0
M  V30 18014 C 1733.15 1.36787 -4.01435 0
M  V30 18015 N 1733.54 0.617586 -5.02015 0
M  V30 18016 C 1731.84 1.65185 -4.14283 0
M  V30 18017 C 1732.54 0.374392 -5.80494 0
M  V30 18018 N 1731.52 0.943273 -5.35353 0
M  V30 18019 H 1735.32 0.062908 -2.93833 0
M  V30 18020 H 1732.83 -0.0659062 -1.62266 0
M  V30 18021 H 1734.83 2.49441 -3.34043 0
M  V30 18022 H 1733.49 2.41874 -2.16627 0
M  V30 18023 H 1734.5 0.266115 -5.17216 0
M  V30 18024 H 1731.18 2.24736 -3.51852 0
M  V30 18025 H 1732.57 -0.225674 -6.71521 0
M  V30 18026 N 1735.29 1.57597 0.0100073 0
M  V30 18027 C 1736.53 1.91983 0.701555 0
M  V30 18028 C 1736.89 0.863453 1.71489 0
M  V30 18029 O 1738.09 1.09225 2.45608 0
M  V30 18030 C 1736.37 3.31459 1.33678 0
M  V30 18031 S 1737.92 3.87714 2.05484 0
M  V30 18032 H 1734.74 0.672093 0.231975 0
M  V30 18033 H 1737.34 1.9545 -0.0442772 0
M  V30 18034 H 1736.05 4.06191 0.586295 0
M  V30 18035 H 1735.58 3.31342 2.12076 0
M  V30 18036 H 1737.59 3.6798 3.32874 0
M  V30 18037 N 1736.77 -0.282606 1.55045 0
M  V30 18038 C 1738.18 -0.854338 1.66006 0
M  V30 18039 C 1738.53 -1.87408 0.580753 0
M  V30 18040 O 1737.65 -2.14588 -0.279449 0
M  V30 18041 C 1738.25 -1.55637 3.00936 0
M  V30 18042 C 1736.81 -2.07626 3.13956 0
M  V30 18043 C 1735.96 -0.915064 2.61767 0
M  V30 18044 H 1738.91 -0.0591711 1.5859 0
M  V30 18045 H 1738.93 -2.42289 2.93388 0
M  V30 18046 H 1738.44 -0.813942 3.79469 0
M  V30 18047 H 1736.54 -2.84859 2.40179 0
M  V30 18048 H 1736.65 -2.29816 4.20382 0
M  V30 18049 H 1735.02 -1.30577 2.18682 0
M  V30 18050 H 1735.8 -0.186298 3.42794 0
M  V30 18051 N 1738.25 -1.47815 -0.546675 0
M  V30 18052 C 1739.16 -1.63744 -1.68003 0
M  V30 18053 C 1740.17 -0.520118 -1.66044 0
M  V30 18054 O 1741.35 -0.789033 -1.853 0
M  V30 18055 C 1738.41 -1.65778 -3.04497 0
M  V30 18056 C 1737.47 -2.89015 -3.17441 0
M  V30 18057 C 1736.71 -2.90943 -4.47424 0
M  V30 18058 O 1736.93 -2.01769 -5.33522 0
M  V30 18059 O 1735.86 -3.82927 -4.64382 0
M  V30 18060 H 1739.69 -2.59665 -1.57505 0
M  V30 18061 H 1737.27 -1.31022 -0.717883 0
M  V30 18062 H 1739.16 -1.69734 -3.85705 0
M  V30 18063 H 1737.83 -0.730268 -3.15355 0
M  V30 18064 H 1736.74 -2.90599 -2.35591 0
M  V30 18065 H 1738.07 -3.81095 -3.11492 0
M  V30 18066 N 1739.72 0.794246 -1.36123 0
M  V30 18067 C 1740.97 1.54708 -1.29416 0
M  V30 18068 C 1741.29 1.95195 0.125849 0
M  V30 18069 O 1742.49 2.69663 0.315271 0
M  V30 18070 C 1740.95 2.79256 -2.27034 0
M  V30 18071 C 1740.56 2.45957 -3.74445 0
M  V30 18072 C 1742.3 3.57246 -2.29294 0
M  V30 18073 C 1740.21 3.66871 -4.63853 0
M  V30 18074 H 1739.14 0.580743 -0.480888 0
M  V30 18075 H 1741.79 0.871975 -1.61458 0
M  V30 18076 H 1740.17 3.4854 -1.87979 0
M  V30 18077 H 1741.34 1.846 -4.22208 0
M  V30 18078 H 1739.66 1.81187 -3.74913 0
M  V30 18079 H 1742.26 4.47076 -2.93304 0
M  V30 18080 H 1742.6 3.95478 -1.30011 0
M  V30 18081 H 1743.13 2.94936 -2.66941 0
M  V30 18082 H 1739.87 3.33739 -5.6418 0
M  V30 18083 H 1739.39 4.27411 -4.20809 0
M  V30 18084 H 1741.07 4.33957 -4.79886 0
M  V30 18085 N 1741.2 1.20323 1.01785 0
M  V30 18086 C 1742.43 1.03821 1.78966 0
M  V30 18087 C 1742.84 -0.412622 1.84236 0
M  V30 18088 O 1742.2 -1.2865 1.29443 0
M  V30 18089 C 1742.25 1.61352 3.23493 0
M  V30 18090 O 1741.97 3.00758 3.18553 0
M  V30 18091 C 1743.47 1.49786 4.17228 0
M  V30 18092 H 1740.69 0.365291 0.562853 0
M  V30 18093 H 1743.24 1.59383 1.2813 0
M  V30 18094 H 1741.39 1.09913 3.71481 0
M  V30 18095 H 1741.81 3.28034 4.09261 0
M  V30 18096 H 1743.28 1.94802 5.16484 0
M  V30 18097 H 1743.76 0.450143 4.36887 0
M  V30 18098 H 1744.36 2.00409 3.75122 0
M  V30 18099 N 1742.68 -1.21073 1.00892 0
M  V30 18100 C 1743.93 -1.90524 0.694879 0
M  V30 18101 C 1744.26 -1.78161 -0.772802 0
M  V30 18102 O 1743.53 -1.1608 -1.56063 0
M  V30 18103 C 1743.82 -3.42188 1.12156 0
M  V30 18104 C 1743.67 -3.63523 2.64898 0
M  V30 18105 C 1744.99 -4.34706 0.68694 0
M  V30 18106 H 1742.11 -0.69188 0.253912 0
M  V30 18107 H 1744.75 -1.42626 1.2553 0
M  V30 18108 H 1742.9 -3.83113 0.644742 0
M  V30 18109 H 1744.57 -3.31901 3.20374 0
M  V30 18110 H 1742.81 -3.07255 3.0623 0
M  V30 18111 H 1743.49 -4.69805 2.89806 0
M  V30 18112 H 1745.96 -4.01386 1.09674 0
M  V30 18113 H 1744.84 -5.3946 1.01361 0
M  V30 18114 H 1745.1 -4.40178 -0.411757 0
M  V30 18115 N 1744.16 -0.784156 -1.36707 0
M  V30 18116 C 1745.39 -0.365371 -2.03344 0
M  V30 18117 C 1745.8 1.02133 -1.59266 0
M  V30 18118 O 1745.14 1.66547 -0.775098 0
M  V30 18119 C 1745.2 -0.343819 -3.57852 0
M  V30 18120 C 1744.87 -1.6772 -4.25111 0
M  V30 18121 C 1745.86 -2.63179 -4.48367 0
M  V30 18122 C 1743.55 -1.95505 -4.62691 0
M  V30 18123 C 1745.54 -3.84621 -5.08277 0
M  V30 18124 C 1743.23 -3.17215 -5.2232 0
M  V30 18125 C 1744.23 -4.11592 -5.45052 0
M  V30 18126 O 1743.91 -5.31157 -6.0343 0
M  V30 18127 H 1743.65 -0.14936 -0.659293 0
M  V30 18128 H 1746.2 -1.06269 -1.75772 0
M  V30 18129 H 1744.43 0.409964 -3.84521 0
M  V30 18130 H 1746.12 0.0495818 -4.0587 0
M  V30 18131 H 1746.89 -2.42998 -4.19735 0
M  V30 18132 H 1742.76 -1.22867 -4.44325 0
M  V30 18133 H 1746.31 -4.58298 -5.25936 0
M  V30 18134 H 1742.21 -3.37276 -5.50377 0
M  V30 18135 H 1742.97 -5.32149 -6.219 0
M  V30 18136 N 1745.64 1.48215 -0.535727 0
M  V30 18137 C 1746.86 2.06898 -0.0079465 0
M  V30 18138 C 1747.28 1.39148 1.27606 0
M  V30 18139 O 1746.64 0.480867 1.76051 0
M  V30 18140 C 1746.69 3.60868 0.213736 0
M  V30 18141 O 1746.41 4.26075 -1.01941 0
M  V30 18142 C 1747.91 4.36362 0.781245 0
M  V30 18143 H 1745.13 0.670028 -0.0361097 0
M  V30 18144 H 1747.67 1.90524 -0.743012 0
M  V30 18145 H 1745.83 3.76828 0.898866 0
M  V30 18146 H 1746.24 5.18306 -0.803716 0
M  V30 18147 H 1747.72 5.44847 0.885753 0
M  V30 18148 H 1748.19 4.01179 1.78751 0
M  V30 18149 H 1748.8 4.25094 0.132499 0
M  V30 18150 N 1747.11 0.27113 1.5525 0
M  V30 18151 C 1748.34 -0.353138 2.04371 0
M  V30 18152 C 1748.76 -1.48978 1.14835 0
M  V30 18153 O 1748.12 -1.8071 0.146138 0
M  V30 18154 C 1748.17 -0.815425 3.51259 0
M  V30 18155 O 1747.27 -1.92302 3.6482 0
M  V30 18156 H 1746.62 -0.0736207 0.659906 0
M  V30 18157 H 1749.15 0.404266 2.00566 0
M  V30 18158 H 1749.16 -1.11224 3.92547 0
M  V30 18159 H 1747.83 0.0162079 4.15897 0
M  V30 18160 H 1746.41 -1.62904 3.35435 0
M  V30 18161 N 1748.59 -1.576 -0.00164943 0
M  V30 18162 C 1749.83 -1.92353 -0.691364 0
M  V30 18163 C 1750.2 -0.872536 -1.71029 0
M  V30 18164 O 1751.4 -1.10526 -2.45026 0
M  V30 18165 C 1749.67 -3.32163 -1.31918 0
M  V30 18166 S 1751.23 -3.88798 -2.03425 0
M  V30 18167 H 1748.05 -0.673314 -0.228407 0
M  V30 18168 H 1750.65 -1.95424 0.0546418 0
M  V30 18169 H 1749.35 -4.06496 -0.564746 0
M  V30 18170 H 1748.88 -3.32462 -2.10316 0
M  V30 18171 H 1750.9 -3.6974 -3.30918 0
M  V30 18172 N 1750.07 0.274379 -1.55193 0
M  V30 18173 C 1751.31 1.01383 -1.77485 0
M  V30 18174 C 1751.67 1.83549 -0.563373 0
M  V30 18175 O 1752.88 2.60457 -0.664517 0
M  V30 18176 C 1751.15 1.87414 -3.0432 0
M  V30 18177 S 1752.71 2.67644 -3.47725 0
M  V30 18178 H 1749.52 0.341489 -0.623623 0
M  V30 18179 H 1752.13 0.284398 -1.9342 0
M  V30 18180 H 1750.83 1.25974 -3.90588 0
M  V30 18181 H 1750.36 2.6468 -2.91046 0
M  V30 18182 H 1752.38 3.89914 -3.06889 0
M  V30 18183 N 1751.55 1.48103 0.538828 0
M  V30 18184 C 1752.78 1.59085 1.31816 0
M  V30 18185 C 1753.19 0.246886 1.87582 0
M  V30 18186 O 1752.53 -0.772694 1.66659 0
M  V30 18187 C 1752.59 2.57102 2.51274 0
M  V30 18188 C 1752.26 4.02377 2.16661 0
M  V30 18189 C 1753.25 4.90323 1.72857 0
M  V30 18190 C 1750.94 4.4785 2.27455 0
M  V30 18191 C 1752.93 6.21767 1.40302 0
M  V30 18192 C 1750.62 5.79317 1.94512 0
M  V30 18193 C 1751.62 6.66098 1.51006 0
M  V30 18194 O 1751.3 7.9512 1.18491 0
M  V30 18195 H 1751.04 0.539404 0.407454 0
M  V30 18196 H 1753.59 1.94586 0.657678 0
M  V30 18197 H 1751.82 2.16705 3.20275 0
M  V30 18198 H 1753.51 2.58014 3.13342 0
M  V30 18199 H 1754.28 4.56432 1.63995 0
M  V30 18200 H 1750.15 3.80497 2.60275 0
M  V30 18201 H 1753.7 6.89458 1.06271 0
M  V30 18202 H 1749.6 6.12745 2.03012 0
M  V30 18203 H 1750.36 8.07792 1.31964 0
M  V30 18204 N 1753.03 -0.787016 1.36542 0
M  V30 18205 C 1754.27 -1.54499 1.30906 0
M  V30 18206 C 1754.6 -1.94183 -0.110963 0
M  V30 18207 O 1753.86 -1.63149 -1.08079 0
M  V30 18208 C 1754.16 -2.83235 2.17974 0
M  V30 18209 C 1753.82 -2.62677 3.66485 0
M  V30 18210 C 1752.48 -2.56779 4.06962 0
M  V30 18211 C 1754.84 -2.43853 4.60636 0
M  V30 18212 C 1752.16 -2.30026 5.39727 0
M  V30 18213 C 1754.52 -2.18626 5.93621 0
M  V30 18214 C 1753.18 -2.11162 6.33219 0
M  V30 18215 H 1752.45 -0.565352 0.479017 0
M  V30 18216 H 1755.1 -0.907794 1.68616 0
M  V30 18217 H 1753.4 -3.51435 1.73208 0
M  V30 18218 H 1755.1 -3.41038 2.10936 0
M  V30 18219 H 1751.69 -2.68125 3.34376 0
M  V30 18220 H 1755.87 -2.4741 4.30235 0
M  V30 18221 H 1751.13 -2.22731 5.69386 0
M  V30 18222 H 1755.3 -2.03056 6.66139 0
M  V30 18223 H 1752.93 -1.90195 7.36023 0
M  V30 18224 N 1754.5 -1.20861 -1.01145 0
M  V30 18225 C 1755.92 -1.02156 -1.56272 0
M  V30 18226 C 1756.27 0.420552 -1.9164 0
M  V30 18227 O 1755.39 1.30277 -1.72792 0
M  V30 18228 C 1755.99 -1.84812 -2.83954 0
M  V30 18229 C 1754.55 -1.70458 -3.35591 0
M  V30 18230 C 1753.69 -1.82425 -2.08846 0
M  V30 18231 H 1756.64 -1.34978 -0.834669 0
M  V30 18232 H 1756.66 -1.35455 -3.55573 0
M  V30 18233 H 1756.18 -2.89765 -2.58181 0
M  V30 18234 H 1754.28 -0.681631 -3.66312 0
M  V30 18235 H 1754.39 -2.52041 -4.07446 0
M  V30 18236 H 1752.75 -1.25665 -2.21541 0
M  V30 18237 H 1753.54 -2.88872 -1.85493 0
M  V30 18238 N 1755.98 1.20536 -1.01532 0
M  V30 18239 C 1757.21 1.94393 -0.722908 0
M  V30 18240 C 1757.63 1.74191 0.709857 0
M  V30 18241 O 1756.99 1.03538 1.48827 0
M  V30 18242 C 1757.04 3.44597 -1.06231 0
M  V30 18243 O 1756.14 4.12036 -0.173286 0
M  V30 18244 H 1755.48 0.607361 -0.268345 0
M  V30 18245 H 1758.01 1.53003 -1.35835 0
M  V30 18246 H 1758.02 3.95212 -1.01348 0
M  V30 18247 H 1756.7 3.58624 -2.10621 0
M  V30 18248 H 1755.28 3.71851 -0.27953 0
M  V30 18249 N 1757.46 0.791395 1.36289 0
M  V30 18250 C 1758.42 0.197069 2.28351 0
M  V30 18251 C 1759.42 -0.606748 1.48913 0
M  V30 18252 O 1760.61 -0.427453 1.68874 0
M  V30 18253 C 1757.75 -0.727009 3.33058 0
M  V30 18254 H 1758.94 1.00885 2.82422 0
M  V30 18255 H 1756.49 0.560959 1.45887 0
M  V30 18256 H 1757.23 -1.56306 2.84146 0
M  V30 18257 H 1757.01 -0.152537 3.91803 0
M  V30 18258 H 1758.5 -1.13765 4.01805 0
M  V30 18259 N 1758.94 -1.47929 0.54358 0
M  V30 18260 C 1759.9 -2.28316 -0.201107 0
M  V30 18261 C 1760.9 -1.36165 -0.855313 0
M  V30 18262 O 1762.09 -1.58928 -0.71327 0
M  V30 18263 C 1759.22 -3.1545 -1.29245 0
M  V30 18264 H 1760.42 -2.9562 0.504848 0
M  V30 18265 H 1757.97 -1.53394 0.300011 0
M  V30 18266 H 1758.71 -2.52807 -2.03124 0
M  V30 18267 H 1758.49 -3.83251 -0.82832 0
M  V30 18268 H 1759.98 -3.76053 -1.81587 0
M  V30 18269 N 1760.42 -0.27936 -1.55104 0
M  V30 18270 C 1761.83 0.074665 -1.59425 0
M  V30 18271 C 1762.03 1.54246 -1.29655 0
M  V30 18272 O 1761.09 2.29197 -1.05947 0
M  V30 18273 C 1762.4 -0.30379 -2.99162 0
M  V30 18274 C 1763.95 -0.250758 -3.11994 0
M  V30 18275 C 1764.43 -0.603715 -4.54004 0
M  V30 18276 N 1765.92 -0.555428 -4.59858 0
M  V30 18277 C 1766.65 -0.801278 -5.67774 0
M  V30 18278 N 1766.15 -1.11197 -6.83818 0
M  V30 18279 N 1767.94 -0.72979 -5.57342 0
M  V30 18280 H 1760.09 -1.23619 -1.7272 0
M  V30 18281 H 1762.35 -0.499704 -0.805606 0
M  V30 18282 H 1762.06 -1.32475 -3.25796 0
M  V30 18283 H 1761.93 0.353294 -3.75542 0
M  V30 18284 H 1764.32 0.760925 -2.85121 0
M  V30 18285 H 1764.4 -0.94216 -2.37817 0
M  V30 18286 H 1764.05 -1.6131 -4.81603 0
M  V30 18287 H 1763.98 0.109523 -5.26486 0
M  V30 18288 H 1766.47 -0.325348 -3.76497 0
M  V30 18289 H 1766.78 -1.28611 -7.62023 0
M  V30 18290 H 1765.13 -1.14978 -6.85423 0
M  V30 18291 H 1768.32 -0.48688 -4.65561 0
M  V30 18292 H 1768.49 -0.92477 -6.41367 0
M  V30 18293 N 1761.9 1.57599 -0.0067085 0
M  V30 18294 C 1762.83 2.11878 0.981331 0
M  V30 18295 C 1763.81 1.02949 1.35408 0
M  V30 18296 O 1764.99 1.30667 1.43665 0
M  V30 18297 C 1762.12 2.62757 2.27104 0
M  V30 18298 C 1761.08 3.76272 2.0397 0
M  V30 18299 C 1760.4 4.13491 3.39012 0
M  V30 18300 C 1761.7 5.03274 1.39688 0
M  V30 18301 H 1763.4 2.94683 0.529366 0
M  V30 18302 H 1760.94 1.41757 0.253187 0
M  V30 18303 H 1762.89 2.99359 2.96585 0
M  V30 18304 H 1761.62 1.77082 2.74426 0
M  V30 18305 H 1760.28 3.40074 1.36913 0
M  V30 18306 H 1759.93 3.24831 3.8405 0
M  V30 18307 H 1759.63 4.89972 3.24347 0
M  V30 18308 H 1761.15 4.52657 4.09797 0
M  V30 18309 H 1762.56 5.37604 1.99136 0
M  V30 18310 H 1760.96 5.84604 1.3549 0
M  V30 18311 H 1762.03 4.8351 0.366928 0
M  V30 18312 N 1763.37 -0.266145 1.55336 0
M  V30 18313 C 1764.78 -0.836683 1.66903 0
M  V30 18314 C 1765.14 -1.86781 0.600597 0
M  V30 18315 O 1764.26 -2.14872 -0.256674 0
M  V30 18316 C 1764.86 -1.52436 3.0257 0
M  V30 18317 C 1763.41 -2.04284 3.1614 0
M  V30 18318 C 1762.56 -0.887248 2.62723 0
M  V30 18319 H 1765.51 -0.0423472 1.58643 0
M  V30 18320 H 1765.53 -2.39163 2.95941 0
M  V30 18321 H 1765.05 -0.773649 3.80311 0
M  V30 18322 H 1763.15 -2.82296 2.43187 0
M  V30 18323 H 1763.26 -2.25345 4.22796 0
M  V30 18324 H 1761.62 -1.28251 2.20054 0
M  V30 18325 H 1762.41 -0.14993 3.42972 0
M  V30 18326 N 1764.85 -1.48386 -0.530967 0
M  V30 18327 C 1766.08 -1.60269 -1.31638 0
M  V30 18328 C 1766.5 -0.262789 -1.86255 0
M  V30 18329 O 1765.86 0.765389 -1.64352 0
M  V30 18330 C 1765.91 -2.65163 -2.44379 0
M  V30 18331 O 1765.01 -2.22254 -3.47386 0
M  V30 18332 H 1764.35 -0.537456 -0.38992 0
M  V30 18333 H 1766.88 -1.94366 -0.639 0
M  V30 18334 H 1766.89 -2.86405 -2.90579 0
M  V30 18335 H 1765.57 -3.62439 -2.03987 0
M  V30 18336 H 1764.14 -2.11221 -3.07311 0
M  V30 18337 N 1766.33 0.779763 -1.36958 0
M  V30 18338 C 1767.26 1.90687 -1.34762 0
M  V30 18339 C 1768.24 1.68704 -0.217508 0
M  V30 18340 O 1769.43 1.89678 -0.416639 0
M  V30 18341 C 1766.56 3.27854 -1.14582 0
M  V30 18342 C 1765.51 3.64383 -2.2452 0
M  V30 18343 C 1764.84 5.00004 -1.89473 0
M  V30 18344 C 1766.14 3.71963 -3.66662 0
M  V30 18345 H 1767.83 1.92781 -2.29076 0
M  V30 18346 H 1765.38 0.926102 -1.10269 0
M  V30 18347 H 1767.33 4.06332 -1.11678 0
M  V30 18348 H 1766.05 3.26172 -0.167218 0
M  V30 18349 H 1764.71 2.88207 -2.26566 0
M  V30 18350 H 1764.36 4.94853 -0.901617 0
M  V30 18351 H 1764.06 5.25414 -2.63085 0
M  V30 18352 H 1765.58 5.80892 -1.88141 0
M  V30 18353 H 1767 4.40611 -3.6679 0
M  V30 18354 H 1765.39 4.08864 -4.39261 0
M  V30 18355 H 1766.46 2.72824 -4.00868 0
M  V30 18356 N 1767.81 1.21396 1.00503 0
M  V30 18357 C 1769.05 1.04275 1.74638 0
M  V30 18358 C 1769.41 -0.419351 1.87774 0
M  V30 18359 O 1768.7 -1.30703 1.40097 0
M  V30 18360 C 1768.9 1.67343 3.15802 0
M  V30 18361 C 1768.72 3.19534 3.1643 0
M  V30 18362 C 1767.49 3.88577 3.23011 0
M  V30 18363 C 1769.69 4.16621 3.01548 0
M  V30 18364 N 1767.67 5.27957 3.13265 0
M  V30 18365 C 1769.05 5.42753 2.99699 0
M  V30 18366 C 1771.1 4.07669 2.8585 0
M  V30 18367 C 1769.8 6.60963 2.8376 0
M  V30 18368 C 1771.83 5.25517 2.71268 0
M  V30 18369 C 1771.19 6.5056 2.70095 0
M  V30 18370 H 1767.29 0.435905 0.649239 0
M  V30 18371 H 1769.87 1.5375 1.19454 0
M  V30 18372 H 1768.05 1.20435 3.69256 0
M  V30 18373 H 1769.78 1.43428 3.78432 0
M  V30 18374 H 1766.53 3.39502 3.30205 0
M  V30 18375 H 1766.96 6.00958 3.11734 0
M  V30 18376 H 1771.6 3.11791 2.85563 0
M  V30 18377 H 1769.32 7.57002 2.82795 0
M  V30 18378 H 1772.9 5.20411 2.60121 0
M  V30 18379 H 1771.78 7.40214 2.58945 0
M  V30 18380 N 1769.29 -1.19996 1.0217 0
M  V30 18381 C 1770.25 -2.21179 0.601036 0
M  V30 18382 C 1771.25 -1.57345 -0.331531 0
M  V30 18383 O 1772.44 -1.73789 -0.119521 0
M  V30 18384 C 1769.57 -3.40683 -0.121557 0
M  V30 18385 H 1770.76 -2.5991 1.49622 0
M  V30 18386 H 1768.32 -1.33548 0.812071 0
M  V30 18387 H 1769.05 -3.07461 -1.03142 0
M  V30 18388 H 1768.84 -3.88245 0.548448 0
M  V30 18389 H 1770.33 -4.1565 -0.403046 0
M  V30 18390 N 1770.76 -0.798611 -1.35867 0
M  V30 18391 C 1772.04 -0.298858 -1.93303 0
M  V30 18392 C 1772.42 1.21038 -1.72954 0
M  V30 18393 O 1771.77 2.00617 -1.09386 0
M  V30 18394 C 1771.98 -0.701532 -3.41876 0
M  V30 18395 C 1773.33 -0.686486 -4.19014 0
M  V30 18396 O 1774.35 -0.642577 -3.50356 0
M  V30 18397 O 1773.21 -0.737653 -5.41499 0
M  V30 18398 H 1770.3 -0.0762987 -0.823473 0
M  V30 18399 H 1772.85 -0.881773 -1.44993 0
M  V30 18400 H 1771.62 -1.74204 -3.50383 0
M  V30 18401 H 1771.24 -0.092994 -3.97491 0
M  V30 18402 N 1772.24 1.47639 -0.551417 0
M  V30 18403 C 1773.19 2.31626 0.212654 0
M  V30 18404 C 1774.18 1.42567 0.914925 0
M  V30 18405 O 1775.39 1.59363 0.836869 0
M  V30 18406 H 1771.76 0.746898 0.0874493 0
M  V30 18407 H 1773.74 2.93923 -0.514976 0
M  V30 18408 C 1772.48 3.25098 1.23316 0
M  V30 18409 H 1771.81 3.93585 0.702196 0
M  V30 18410 H 1773.25 3.86707 1.73878 0
M  V30 18411 C 1771.71 2.48209 2.27802 0
M  V30 18412 O 1772.24 2.22235 3.34626 0
M  V30 18413 N 1770.44 2.09321 2.01577 0
M  V30 18414 H 1769.99 2.30645 1.14719 0
M  V30 18415 H 1769.95 1.58191 2.71704 0
M  V30 18416 N 1773.72 0.287581 1.54954 0
M  V30 18417 C 1774.67 -0.594449 2.23013 0
M  V30 18418 C 1775.64 -1.14007 1.20795 0
M  V30 18419 O 1776.82 -1.18708 1.49376 0
M  V30 18420 C 1773.96 -1.76687 2.96439 0
M  V30 18421 C 1773.08 -1.25391 4.13402 0
M  V30 18422 C 1772.21 -2.38912 4.74441 0
M  V30 18423 C 1771.25 -1.84683 5.83574 0
M  V30 18424 N 1770.39 -2.91725 6.38624 0
M  V30 18425 H 1775.23 -0.00743921 2.97999 0
M  V30 18426 H 1772.76 0.00809578 1.47098 0
M  V30 18427 H 1774.72 -2.45621 3.37233 0
M  V30 18428 H 1773.35 -2.32571 2.23853 0
M  V30 18429 H 1772.4 -0.45726 3.77642 0
M  V30 18430 H 1773.72 -0.816813 4.92067 0
M  V30 18431 H 1772.87 -3.15818 5.18019 0
M  V30 18432 H 1771.61 -2.85943 3.95079 0
M  V30 18433 H 1770.61 -1.06261 5.39434 0
M  V30 18434 H 1771.84 -1.38572 6.64812 0
M  V30 18435 H 1769.78 -3.38115 5.62152 0
M  V30 18436 H 1769.7 -2.5247 7.12597 0
M  V30 18437 H 1770.97 -3.68569 6.86861 0
M  V30 18438 N 1775.2 -1.57593 0.0150662 0
M  V30 18439 C 1776.61 -1.5591 -0.341189 0
M  V30 18440 C 1776.81 -1.01927 -1.73819 0
M  V30 18441 O 1775.87 -0.659752 -2.43728 0
M  V30 18442 C 1777.18 -3.00016 -0.202639 0
M  V30 18443 C 1778.73 -3.11777 -0.276457 0
M  V30 18444 C 1779.21 -4.57696 -0.166859 0
M  V30 18445 N 1780.7 -4.62657 -0.224287 0
M  V30 18446 C 1781.43 -5.73168 -0.163053 0
M  V30 18447 N 1780.93 -6.92781 -0.0515442 0
M  V30 18448 N 1782.72 -5.61685 -0.216018 0
M  V30 18449 H 1774.87 -1.91018 0.92876 0
M  V30 18450 H 1777.14 -0.878048 0.3574 0
M  V30 18451 H 1776.84 -3.43409 0.759136 0
M  V30 18452 H 1776.72 -3.64285 -0.978599 0
M  V30 18453 H 1779.1 -2.68305 -1.22868 0
M  V30 18454 H 1779.18 -2.50257 0.529637 0
M  V30 18455 H 1778.83 -5.01846 0.781888 0
M  V30 18456 H 1778.76 -5.17179 -0.991635 0
M  V30 18457 H 1781.25 -3.76617 -0.311188 0
M  V30 18458 H 1781.56 -7.72799 -0.0111287 0
M  V30 18459 H 1779.91 -6.94998 -0.0169584 0
M  V30 18460 H 1783.1 -4.67128 -0.301435 0
M  V30 18461 H 1783.27 -6.4779 -0.164834 0
M  V30 18462 N 1776.68 0.257904 -1.55475 0
M  V30 18463 C 1777.9 1.00955 -1.81171 0
M  V30 18464 C 1778.33 1.78586 -0.590651 0
M  V30 18465 O 1777.68 1.75365 0.460105 0
M  V30 18466 C 1777.73 1.93188 -3.04485 0
M  V30 18467 O 1776.84 3.02194 -2.80628 0
M  V30 18468 H 1776.18 0.28785 -0.598363 0
M  V30 18469 H 1778.71 0.28223 -2.02644 0
M  V30 18470 H 1778.72 2.3486 -3.33624 0
M  V30 18471 H 1777.39 1.361 -3.93001 0
M  V30 18472 H 1775.97 2.64729 -2.62627 0
M  V30 18473 N 1778.15 1.48666 0.52309 0
M  V30 18474 C 1779.08 1.666 1.63605 0
M  V30 18475 C 1780.07 0.514803 1.62123 0
M  V30 18476 O 1781.25 0.748138 1.79211 0
M  V30 18477 C 1778.38 1.71199 3.02172 0
M  V30 18478 C 1777.33 2.85888 3.18515 0
M  V30 18479 C 1776.66 2.75582 4.58213 0
M  V30 18480 C 1777.96 4.27104 3.00631 0
M  V30 18481 H 1779.65 2.59776 1.48851 0
M  V30 18482 H 1777.2 1.25014 0.714667 0
M  V30 18483 H 1779.15 1.82333 3.79911 0
M  V30 18484 H 1777.88 0.746066 3.17964 0
M  V30 18485 H 1776.54 2.7432 2.43195 0
M  V30 18486 H 1776.18 1.76944 4.7085 0
M  V30 18487 H 1775.88 3.52545 4.70091 0
M  V30 18488 H 1777.41 2.88693 5.38041 0
M  V30 18489 H 1778.82 4.3947 3.68157 0
M  V30 18490 H 1777.22 5.05119 3.23999 0
M  V30 18491 H 1778.29 4.43087 1.96982 0
M  V30 18492 N 1779.63 -0.772489 1.37369 0
M  V30 18493 C 1780.56 -1.89969 1.35772 0
M  V30 18494 C 1781.54 -1.68586 0.226452 0
M  V30 18495 O 1782.73 -1.89454 0.426692 0
M  V30 18496 C 1779.86 -3.27242 1.16319 0
M  V30 18497 C 1778.81 -3.63187 2.2645 0
M  V30 18498 C 1778.14 -4.98992 1.92121 0
M  V30 18499 C 1779.44 -3.70013 3.6863 0
M  V30 18500 H 1781.13 -1.91564 2.30095 0
M  V30 18501 H 1778.68 -0.920241 1.10759 0
M  V30 18502 H 1780.63 -4.05734 1.13832 0
M  V30 18503 H 1779.36 -3.26078 0.184513 0
M  V30 18504 H 1778.01 -2.87001 2.28091 0
M  V30 18505 H 1777.66 -4.94368 0.927848 0
M  V30 18506 H 1777.36 -5.24012 2.65867 0
M  V30 18507 H 1778.89 -5.79886 1.91219 0
M  V30 18508 H 1780.3 -4.38659 3.69122 0
M  V30 18509 H 1778.7 -4.06529 4.41423 0
M  V30 18510 H 1779.77 -2.70694 4.02309 0
M  V30 18511 N 1781.11 -1.21927 -0.998575 0
M  V30 18512 C 1782.34 -1.06735 -1.77827 0
M  V30 18513 C 1782.76 0.378154 -1.8426 0
M  V30 18514 O 1782.12 1.27301 -1.2909 0
M  V30 18515 C 1782.17 -1.67662 -3.19252 0
M  V30 18516 O 1781.27 -0.926448 -4.01859 0
M  V30 18517 H 1780.61 -0.375241 -0.547805 0
M  V30 18518 H 1783.14 -1.61605 -1.25478 0
M  V30 18519 H 1783.15 -1.72151 -3.69903 0
M  V30 18520 H 1781.83 -2.72854 -3.13885 0
M  V30 18521 H 1780.4 -0.957145 -3.60407 0
M  V30 18522 N 1782.59 1.19452 -1.02805 0
M  V30 18523 C 1783.52 2.21405 -0.552712 0
M  V30 18524 C 1784.5 1.5745 0.405999 0
M  V30 18525 O 1785.68 1.85707 0.323296 0
M  V30 18526 C 1782.81 3.38143 0.194179 0
M  V30 18527 C 1781.86 4.2045 -0.715836 0
M  V30 18528 S 1782.69 4.88601 -2.19156 0
M  V30 18529 C 1783.85 6.08749 -1.45516 0
M  V30 18530 H 1784.08 2.61383 -1.41655 0
M  V30 18531 H 1781.61 1.29686 -0.837915 0
M  V30 18532 H 1783.57 4.05807 0.618972 0
M  V30 18533 H 1782.23 2.96602 1.03374 0
M  V30 18534 H 1781.42 5.03808 -0.139277 0
M  V30 18535 H 1781.03 3.581 -1.07891 0
M  V30 18536 H 1783.32 6.73432 -0.74131 0
M  V30 18537 H 1784.26 6.70887 -2.26531 0
M  V30 18538 H 1784.67 5.56397 -0.95302 0
M  V30 18539 N 1784.07 0.805805 1.35442 0
M  V30 18540 C 1785 0.230077 2.32364 0
M  V30 18541 C 1785.98 -0.644034 1.57436 0
M  V30 18542 O 1787.16 -0.574467 1.85509 0
M  V30 18543 C 1784.29 -0.622814 3.4167 0
M  V30 18544 C 1783.25 0.152739 4.27727 0
M  V30 18545 C 1782.57 -0.821803 5.28347 0
M  V30 18546 C 1783.87 1.35128 5.04517 0
M  V30 18547 H 1785.57 1.03983 2.80763 0
M  V30 18548 H 1783.11 0.501467 1.34986 0
M  V30 18549 H 1785.07 -1.03564 4.08476 0
M  V30 18550 H 1783.79 -1.46544 2.91877 0
M  V30 18551 H 1782.45 0.546732 3.625 0
M  V30 18552 H 1782.1 -1.65991 4.74822 0
M  V30 18553 H 1781.8 -0.307209 5.86796 0
M  V30 18554 H 1783.32 -1.23285 5.98024 0
M  V30 18555 H 1784.73 1.01337 5.64273 0
M  V30 18556 H 1783.13 1.80031 5.72459 0
M  V30 18557 H 1784.2 2.13833 4.35205 0
M  V30 18558 N 1785.54 -1.47344 0.559239 0
M  V30 18559 C 1786.79 -2.02768 0.0359962 0
M  V30 18560 C 1787.12 -1.43247 -1.31126 0
M  V30 18561 O 1786.4 -0.588793 -1.85374 0
M  V30 18562 C 1786.68 -3.60058 -0.0549111 0
M  V30 18563 C 1786.53 -4.30008 1.31958 0
M  V30 18564 C 1787.85 -4.33359 -0.767331 0
M  V30 18565 H 1784.97 -0.736856 0.0145552 0
M  V30 18566 H 1787.61 -1.75751 0.72192 0
M  V30 18567 H 1785.76 -3.83208 -0.639076 0
M  V30 18568 H 1787.44 -4.18193 1.94711 0
M  V30 18569 H 1785.68 -3.90283 1.89372 0
M  V30 18570 H 1786.35 -5.38605 1.20867 0
M  V30 18571 H 1788.83 -4.15215 -0.27131 0
M  V30 18572 H 1787.7 -5.4304 -0.799905 0
M  V30 18573 H 1787.96 -4.02725 -1.82387 0
M  V30 18574 N 1787.02 -0.295795 -1.54799 0
M  V30 18575 C 1787.93 0.592206 -2.27002 0
M  V30 18576 C 1788.95 1.1528 -1.30332 0
M  V30 18577 O 1790.12 1.1787 -1.63305 0
M  V30 18578 C 1787.19 1.75027 -2.99277 0
M  V30 18579 C 1786.25 1.22427 -4.11473 0
M  V30 18580 C 1785.48 2.32714 -4.80291 0
M  V30 18581 O 1785.71 3.52506 -4.48437 0
M  V30 18582 O 1784.64 1.997 -5.67806 0
M  V30 18583 H 1788.47 0.00666048 -3.03699 0
M  V30 18584 H 1786.05 -0.0624413 -1.49269 0
M  V30 18585 H 1787.93 2.42508 -3.44627 0
M  V30 18586 H 1786.61 2.32252 -2.25479 0
M  V30 18587 H 1785.52 0.515337 -3.70534 0
M  V30 18588 H 1786.85 0.697518 -4.87233 0
M  V30 18589 N 1788.5 1.57583 -0.0234236 0
M  V30 18590 C 1789.75 1.91848 0.657422 0
M  V30 18591 C 1790.08 0.899633 1.72105 0
M  V30 18592 O 1789.36 -0.0784409 1.94342 0
M  V30 18593 C 1789.64 3.36617 1.2791 0
M  V30 18594 C 1789.49 4.49235 0.225421 0
M  V30 18595 C 1790.81 3.81239 2.19874 0
M  V30 18596 H 1787.93 0.697677 0.23752 0
M  V30 18597 H 1790.57 1.89834 -0.0795169 0
M  V30 18598 H 1788.72 3.38465 1.90719 0
M  V30 18599 H 1790.39 4.59521 -0.404792 0
M  V30 18600 H 1788.64 4.31462 -0.449749 0
M  V30 18601 H 1789.31 5.47545 0.699906 0
M  V30 18602 H 1791.78 3.81092 1.67058 0
M  V30 18603 H 1790.66 4.8324 2.60328 0
M  V30 18604 H 1790.92 3.16421 3.08755 0
M  V30 18605 N 1789.98 -0.249655 1.5561 0
M  V30 18606 C 1790.93 -1.31189 1.86477 0
M  V30 18607 C 1791.91 -1.43619 0.725415 0
M  V30 18608 O 1793.11 -1.46907 0.987281 0
M  V30 18609 C 1790.23 -2.66786 2.16056 0
M  V30 18610 C 1789.32 -2.58371 3.36311 0
M  V30 18611 N 1789.71 -2.19587 4.55648 0
M  V30 18612 C 1788.01 -2.8939 3.39366 0
M  V30 18613 C 1788.71 -2.21737 5.3778 0
M  V30 18614 N 1787.69 -2.61131 4.76772 0
M  V30 18615 H 1791.49 -1.00248 2.76275 0
M  V30 18616 H 1789 -0.458283 1.558 0
M  V30 18617 H 1791 -3.43442 2.36333 0
M  V30 18618 H 1789.66 -2.98597 1.27555 0
M  V30 18619 H 1790.67 -1.91176 4.81323 0
M  V30 18620 H 1787.35 -3.25758 2.61128 0
M  V30 18621 H 1788.74 -1.94114 6.43249 0
M  V30 18622 N 1791.46 -1.48941 -0.515198 0
M  V30 18623 C 1792.4 -1.64561 -1.61828 0
M  V30 18624 C 1793.37 -0.487323 -1.5879 0
M  V30 18625 O 1794.56 -0.712626 -1.76992 0
M  V30 18626 C 1791.7 -1.70506 -3.00036 0
M  V30 18627 C 1790.81 -2.97543 -3.13197 0
M  V30 18628 C 1789.95 -2.94555 -4.42053 0
M  V30 18629 C 1788.99 -4.16232 -4.48795 0
M  V30 18630 N 1788.12 -4.11236 -5.6906 0
M  V30 18631 H 1792.96 -2.58754 -1.47818 0
M  V30 18632 H 1790.5 -1.28307 -0.719423 0
M  V30 18633 H 1792.46 -1.71934 -3.80125 0
M  V30 18634 H 1791.09 -0.797907 -3.12783 0
M  V30 18635 H 1790.14 -3.05792 -2.26264 0
M  V30 18636 H 1791.45 -3.87532 -3.14039 0
M  V30 18637 H 1790.61 -2.94466 -5.30447 0
M  V30 18638 H 1789.35 -2.0232 -4.43754 0
M  V30 18639 H 1788.35 -4.1658 -3.58805 0
M  V30 18640 H 1789.58 -5.09644 -4.48821 0
M  V30 18641 H 1787.52 -3.2183 -5.7163 0
M  V30 18642 H 1787.44 -4.94945 -5.71459 0
M  V30 18643 H 1788.71 -4.15229 -6.59701 0
M  V30 18644 N 1792.94 0.765193 -1.37777 0
M  V30 18645 C 1794.18 1.52096 -1.33084 0
M  V30 18646 C 1794.5 1.94827 0.08221 0
M  V30 18647 O 1793.77 1.66787 1.02757 0
M  V30 18648 H 1792.35 0.564139 -0.489649 0
M  V30 18649 H 1795.02 0.910308 -1.72335 0
M  V30 18650 H 1794.11 2.4173 -1.97416 0
M  V30 18651 N 1794.41 1.22455 0.992094 0
M  V30 18652 C 1795.66 1.05115 1.73432 0
M  V30 18653 C 1795.99 -0.412642 1.89765 0
M  V30 18654 O 1795.27 -1.3059 1.44141 0
M  V30 18655 C 1795.55 1.76385 3.13943 0
M  V30 18656 C 1795.4 3.30364 3.05253 0
M  V30 18657 C 1796.72 1.51688 4.13133 0
M  V30 18658 H 1793.84 0.383261 0.629508 0
M  V30 18659 H 1796.48 1.50805 1.15576 0
M  V30 18660 H 1794.63 1.37544 3.63337 0
M  V30 18661 H 1796.31 3.78655 2.63474 0
M  V30 18662 H 1794.55 3.6 2.42038 0
M  V30 18663 H 1795.22 3.75409 4.04687 0
M  V30 18664 H 1797.7 1.85429 3.72499 0
M  V30 18665 H 1796.57 2.04049 5.09564 0
M  V30 18666 H 1796.83 0.449654 4.39807 0
M  V30 18667 N 1795.89 -1.18905 1.03437 0
M  V30 18668 C 1796.84 -2.20223 0.59042 0
M  V30 18669 C 1797.83 -1.56734 -0.363774 0
M  V30 18670 O 1799.02 -1.76043 -0.183852 0
M  V30 18671 C 1796.15 -3.43261 -0.051695 0
M  V30 18672 C 1795.23 -4.13884 0.925268 0
M  V30 18673 N 1795.62 -4.60607 2.08985 0
M  V30 18674 C 1793.92 -4.3965 0.749899 0
M  V30 18675 C 1794.62 -5.14902 2.70648 0
M  V30 18676 N 1793.6 -5.06034 1.9857 0
M  V30 18677 H 1797.4 -2.54032 1.478 0
M  V30 18678 H 1794.91 -1.3504 0.902101 0
M  V30 18679 H 1796.91 -4.15096 -0.387403 0
M  V30 18680 H 1795.57 -3.1095 -0.934891 0
M  V30 18681 H 1796.58 -4.55257 2.46903 0
M  V30 18682 H 1793.26 -4.17416 -0.08374 0
M  V30 18683 H 1794.65 -5.61303 3.69308 0
M  V30 18684 N 1797.37 -0.812977 -1.35013 0
M  V30 18685 C 1798.62 -0.395562 -1.98191 0
M  V30 18686 C 1798.94 1.04242 -1.64799 0
M  V30 18687 O 1798.21 1.72219 -0.933678 0
M  V30 18688 H 1796.79 -0.143276 -0.733131 0
M  V30 18689 H 1799.45 -1.04023 -1.64819 0
M  V30 18690 H 1798.55 -0.506466 -3.07963 0
M  V30 18691 N 1798.85 1.47045 -0.567045 0
M  V30 18692 C 1800.09 2.02446 -0.0466799 0
M  V30 18693 C 1800.42 1.44032 1.3071 0
M  V30 18694 O 1799.68 0.58926 1.86618 0
M  V30 18695 C 1799.98 3.57298 0.0855754 0
M  V30 18696 C 1799.64 4.34678 -1.19858 0
M  V30 18697 C 1798.3 4.55538 -1.55043 0
M  V30 18698 C 1800.66 4.7923 -2.04909 0
M  V30 18699 C 1797.98 5.18201 -2.75108 0
M  V30 18700 C 1800.34 5.43218 -3.24186 0
M  V30 18701 C 1799 5.62309 -3.59673 0
M  V30 18702 H 1798.27 0.740803 -0.0170814 0
M  V30 18703 H 1800.92 1.76602 -0.740536 0
M  V30 18704 H 1799.22 3.82189 0.862463 0
M  V30 18705 H 1800.92 3.97824 0.50371 0
M  V30 18706 H 1797.51 4.18727 -0.914632 0
M  V30 18707 H 1801.69 4.62884 -1.79032 0
M  V30 18708 H 1796.95 5.31175 -3.02759 0
M  V30 18709 H 1801.12 5.76702 -3.90369 0
M  V30 18710 H 1798.75 6.10636 -4.528 0
M  V30 18711 N 1800.33 0.304 1.5464 0
M  V30 18712 C 1801.57 -0.304845 2.00496 0
M  V30 18713 C 1801.9 -1.53308 1.19206 0
M  V30 18714 O 1801.18 -1.92627 0.269305 0
M  V30 18715 C 1801.46 -0.658462 3.54029 0
M  V30 18716 C 1801.32 0.579125 4.46056 0
M  V30 18717 C 1802.63 -1.4838 4.14332 0
M  V30 18718 H 1799.75 -0.109327 0.728846 0
M  V30 18719 H 1802.4 0.416694 1.85374 0
M  V30 18720 H 1800.55 -1.27319 3.67045 0
M  V30 18721 H 1802.22 1.21758 4.44941 0
M  V30 18722 H 1800.46 1.21179 4.16531 0
M  V30 18723 H 1801.13 0.287518 5.51251 0
M  V30 18724 H 1803.61 -0.964367 4.04771 0
M  V30 18725 H 1802.48 -1.70001 5.21911 0
M  V30 18726 H 1802.74 -2.47394 3.66399 0
M  V30 18727 N 1801.8 -1.57568 0.0317802 0
M  V30 18728 C 1802.75 -2.10379 -0.949183 0
M  V30 18729 C 1803.72 -1.00649 -1.32133 0
M  V30 18730 O 1804.91 -1.28084 -1.41418 0
M  V30 18731 C 1802.05 -2.63762 -2.22539 0
M  V30 18732 C 1801.16 -3.87509 -1.90946 0
M  V30 18733 C 1800.29 -4.29276 -3.12882 0
M  V30 18734 C 1799.33 -5.45775 -2.77121 0
M  V30 18735 N 1798.47 -5.82686 -3.9169 0
M  V30 18736 H 1803.31 -2.93912 -0.491922 0
M  V30 18737 H 1800.85 -1.45272 -0.23121 0
M  V30 18738 H 1802.8 -2.92803 -2.9719 0
M  V30 18739 H 1801.43 -1.83055 -2.65877 0
M  V30 18740 H 1800.49 -3.6518 -1.06526 0
M  V30 18741 H 1801.8 -4.72235 -1.6061 0
M  V30 18742 H 1800.95 -4.59768 -3.95851 0
M  V30 18743 H 1799.69 -3.43323 -3.46382 0
M  V30 18744 H 1798.7 -5.14974 -1.92565 0
M  V30 18745 H 1799.92 -6.3343 -2.44834 0
M  V30 18746 H 1797.87 -4.99688 -4.25027 0
M  V30 18747 H 1797.78 -6.62058 -3.64986 0
M  V30 18748 H 1799.05 -6.17785 -4.75355 0
M  V30 18749 N 1803.28 0.241399 -1.5574 0
M  V30 18750 C 1804.56 0.991821 -1.68589 0
M  V30 18751 C 1804.94 2.03167 -0.573274 0
M  V30 18752 O 1804.29 2.2456 0.422521 0
M  V30 18753 C 1804.5 1.6202 -3.09112 0
M  V30 18754 C 1805.85 2.11998 -3.67889 0
M  V30 18755 O 1806.87 1.71951 -3.11948 0
M  V30 18756 O 1805.73 2.85545 -4.65968 0
M  V30 18757 H 1802.82 0.462017 -0.685907 0
M  V30 18758 H 1805.37 0.23475 -1.68068 0
M  V30 18759 H 1804.14 0.86835 -3.81543 0
M  V30 18760 H 1803.76 2.44333 -3.13667 0
M  V30 18761 N 1804.76 1.49212 0.507292 0
M  V30 18762 C 1805.71 1.65417 1.60953 0
M  V30 18763 C 1806.68 0.495737 1.5853 0
M  V30 18764 O 1807.86 0.722002 1.76612 0
M  V30 18765 C 1805 1.72095 2.99128 0
M  V30 18766 C 1804.12 2.99199 3.11615 0
M  V30 18767 C 1803.25 2.96895 4.40485 0
M  V30 18768 C 1802.29 4.18607 4.46581 0
M  V30 18769 N 1801.43 4.14248 5.66871 0
M  V30 18770 H 1806.27 2.59535 1.46444 0
M  V30 18771 H 1803.8 1.28687 0.712609 0
M  V30 18772 H 1805.76 1.73947 3.79207 0
M  V30 18773 H 1804.39 0.814484 3.12356 0
M  V30 18774 H 1803.44 3.06988 2.24639 0
M  V30 18775 H 1804.76 3.89192 3.11979 0
M  V30 18776 H 1803.91 2.97275 5.28878 0
M  V30 18777 H 1802.65 2.0467 4.42675 0
M  V30 18778 H 1801.65 4.18477 3.56591 0
M  V30 18779 H 1802.88 5.12017 4.46112 0
M  V30 18780 H 1800.82 3.24857 5.69916 0
M  V30 18781 H 1800.74 4.97969 5.68826 0
M  V30 18782 H 1802.01 4.18722 6.57489 0
M  V30 18783 N 1806.24 -0.757876 1.38181 0
M  V30 18784 C 1807.47 -1.54709 1.37378 0
M  V30 18785 C 1807.88 -1.88763 -0.0375087 0
M  V30 18786 O 1807.24 -1.52467 -1.00299 0
M  V30 18787 C 1807.29 -2.84887 2.22535 0
M  V30 18788 O 1807.01 -2.52287 3.58166 0
M  V30 18789 C 1808.51 -3.79048 2.29865 0
M  V30 18790 H 1805.73 -0.478845 0.470052 0
M  V30 18791 H 1808.28 -0.938283 1.81704 0
M  V30 18792 H 1806.43 -3.42156 1.81682 0
M  V30 18793 H 1806.84 -3.35747 4.02957 0
M  V30 18794 H 1808.32 -4.67353 2.93744 0
M  V30 18795 H 1808.8 -4.19175 1.31106 0
M  V30 18796 H 1809.4 -3.27704 2.7109 0
M  V30 18797 N 1807.72 -1.22979 -0.985586 0
M  V30 18798 C 1808.96 -1.05667 -1.72275 0
M  V30 18799 C 1809.29 0.408045 -1.90683 0
M  V30 18800 O 1808.56 1.29293 -1.47174 0
M  V30 18801 H 1807.14 -0.388017 -0.63832 0
M  V30 18802 H 1809.8 -1.54612 -1.18665 0
M  V30 18803 H 1808.89 -1.54043 -2.71436 0
M  V30 18804 N 1809.19 1.18355 -1.04066 0
M  V30 18805 C 1810.14 2.21987 -0.631714 0
M  V30 18806 C 1811.11 1.62142 0.360462 0
M  V30 18807 O 1812.3 1.89096 0.254445 0
M  V30 18808 C 1809.44 3.451 -0.000843566 0
M  V30 18809 C 1808.55 4.19283 -1.04048 0
M  V30 18810 C 1807.68 5.29852 -0.37813 0
M  V30 18811 C 1806.72 5.95807 -1.40287 0
M  V30 18812 N 1805.86 6.97915 -0.765481 0
M  V30 18813 H 1810.7 2.56323 -1.51995 0
M  V30 18814 H 1808.24 1.25923 -0.760384 0
M  V30 18815 H 1810.2 4.15445 0.382267 0
M  V30 18816 H 1808.83 3.11383 0.850911 0
M  V30 18817 H 1807.88 3.47765 -1.54154 0
M  V30 18818 H 1809.19 4.64457 -1.81882 0
M  V30 18819 H 1808.34 6.06671 0.059186 0
M  V30 18820 H 1807.08 4.8578 0.432293 0
M  V30 18821 H 1806.09 5.17729 -1.85032 0
M  V30 18822 H 1807.31 6.41962 -2.21499 0
M  V30 18823 H 1805.26 6.55995 0.0246364 0
M  V30 18824 H 1805.18 7.41341 -1.48152 0
M  V30 18825 H 1806.44 7.78702 -0.35256 0
M  V30 18826 N 1810.67 0.820125 1.3458 0
M  V30 18827 C 1812.08 0.466064 1.80789 0
M  V30 18828 C 1812.43 -1.01327 1.6801 0
M  V30 18829 O 1811.56 -1.78835 1.21849 0
M  V30 18830 C 1812.15 0.839192 3.28242 0
M  V30 18831 C 1810.71 0.53754 3.72542 0
M  V30 18832 C 1809.86 1.0576 2.5634 0
M  V30 18833 H 1812.81 1.01055 1.22366 0
M  V30 18834 H 1812.83 0.141897 3.80235 0
M  V30 18835 H 1812.34 1.91592 3.37512 0
M  V30 18836 H 1810.45 -0.529895 3.68813 0
M  V30 18837 H 1810.56 1.07964 4.66777 0
M  V30 18838 H 1808.92 0.479275 2.5015 0
M  V30 18839 H 1809.71 2.14072 2.68381 0
M  V30 18840 N 1812.15 -1.46743 0.574835 0
M  V30 18841 C 1813.4 -2.01625 0.0551724 0
M  V30 18842 C 1813.71 -1.4528 -1.3097 0
M  V30 18843 O 1814.92 -1.91932 -1.92026 0
M  V30 18844 C 1813.37 -3.59868 0.0480708 0
M  V30 18845 C 1812.98 -4.25207 1.41078 0
M  V30 18846 C 1814.73 -4.22436 -0.41806 0
M  V30 18847 C 1812.63 -5.75507 1.36183 0
M  V30 18848 H 1811.56 -0.753812 0.0168558 0
M  V30 18849 H 1814.21 -1.68557 0.725313 0
M  V30 18850 H 1812.6 -3.89976 -0.688076 0
M  V30 18851 H 1813.77 -4.06718 2.16603 0
M  V30 18852 H 1812.09 -3.747 1.81628 0
M  V30 18853 H 1814.68 -5.32601 -0.473353 0
M  V30 18854 H 1815.03 -3.90826 -1.43391 0
M  V30 18855 H 1815.56 -3.96925 0.263775 0
M  V30 18856 H 1812.3 -6.11765 2.35423 0
M  V30 18857 H 1811.82 -5.96282 0.648655 0
M  V30 18858 H 1813.5 -6.38068 1.07137 0
M  V30 18859 N 1813.63 -0.312197 -1.54477 0
M  V30 18860 C 1814.85 0.298829 -2.05236 0
M  V30 18861 C 1815.28 1.45881 -1.18745 0
M  V30 18862 O 1814.64 1.80259 -0.193999 0
M  V30 18863 C 1814.68 0.722008 -3.53298 0
M  V30 18864 O 1813.79 1.82562 -3.6979 0
M  V30 18865 H 1813.13 0.0560985 -0.661626 0
M  V30 18866 H 1815.66 -0.4573 -1.99424 0
M  V30 18867 H 1815.67 1.00777 -3.95358 0
M  V30 18868 H 1814.34 -0.12647 -4.15708 0
M  V30 18869 H 1812.92 1.53954 -3.39636 0
M  V30 18870 N 1815.11 1.57549 -0.040136 0
M  V30 18871 C 1816.05 2.10879 0.938013 0
M  V30 18872 C 1817.02 1.01348 1.31597 0
M  V30 18873 O 1818.21 1.28832 1.40737 0
M  V30 18874 C 1815.35 2.64938 2.21138 0
M  V30 18875 C 1814.46 3.88516 1.88889 0
M  V30 18876 C 1813.6 4.3093 3.10601 0
M  V30 18877 C 1812.64 5.47237 2.74223 0
M  V30 18878 N 1811.77 5.84755 3.88594 0
M  V30 18879 H 1816.61 2.94169 0.476328 0
M  V30 18880 H 1814.15 1.45392 0.223503 0
M  V30 18881 H 1816.11 2.94375 2.95633 0
M  V30 18882 H 1814.74 1.84463 2.64903 0
M  V30 18883 H 1813.79 3.6574 1.04588 0
M  V30 18884 H 1815.1 4.7308 1.58103 0
M  V30 18885 H 1814.26 4.61861 3.93407 0
M  V30 18886 H 1812.99 3.45155 3.44557 0
M  V30 18887 H 1812 5.15988 1.89831 0
M  V30 18888 H 1813.22 6.34719 2.41472 0
M  V30 18889 H 1811.17 5.01935 4.22371 0
M  V30 18890 H 1811.09 6.63984 3.6147 0
M  V30 18891 H 1812.36 6.20297 4.72072 0
M  V30 18892 N 1816.58 -0.233136 1.55866 0
M  V30 18893 C 1817.55 -1.27227 1.90646 0
M  V30 18894 C 1818.55 -1.4039 0.784038 0
M  V30 18895 O 1819.74 -1.38854 1.05191 0
M  V30 18896 C 1816.87 -2.64791 2.14706 0
M  V30 18897 H 1818.06 -0.975986 2.83575 0
M  V30 18898 H 1815.62 -0.473045 1.4897 0
M  V30 18899 H 1816.35 -2.99537 1.24291 0
M  V30 18900 H 1816.14 -2.56615 2.96464 0
M  V30 18901 H 1817.63 -3.39797 2.4275 0
M  V30 18902 N 1818.06 -1.49479 -0.499372 0
M  V30 18903 C 1819.31 -1.59284 -1.25525 0
M  V30 18904 C 1819.64 -0.27941 -1.92179 0
M  V30 18905 O 1818.92 0.717142 -1.80796 0
M  V30 18906 C 1819.2 -2.75323 -2.32098 0
M  V30 18907 C 1819.05 -4.16464 -1.69934 0
M  V30 18908 C 1820.37 -2.86998 -3.33646 0
M  V30 18909 H 1817.49 -0.579768 -0.455015 0
M  V30 18910 H 1820.13 -1.81769 -0.553165 0
M  V30 18911 H 1818.28 -2.56282 -2.91979 0
M  V30 18912 H 1819.96 -4.47026 -1.13867 0
M  V30 18913 H 1818.2 -4.22036 -1.0034 0
M  V30 18914 H 1818.87 -4.93534 -2.47242 0
M  V30 18915 H 1821.35 -3.04337 -2.83757 0
M  V30 18916 H 1820.22 -3.69865 -4.05575 0
M  V30 18917 H 1820.48 -1.96419 -3.9607 0
M  V30 18918 N 1819.54 0.750537 -1.38581 0
M  V30 18919 C 1820.79 1.50512 -1.34272 0
M  V30 18920 C 1821.1 1.95496 0.0636858 0
M  V30 18921 O 1822.31 2.7053 0.22932 0
M  V30 18922 C 1820.77 2.71891 -2.35803 0
M  V30 18923 C 1820.37 2.3392 -3.8208 0
M  V30 18924 C 1822.12 3.4977 -2.40543 0
M  V30 18925 C 1820.02 3.51928 -4.7529 0
M  V30 18926 H 1818.95 0.56515 -0.49912 0
M  V30 18927 H 1821.61 0.820167 -1.64151 0
M  V30 18928 H 1819.99 3.42383 -1.98972 0
M  V30 18929 H 1821.16 1.71075 -4.27867 0
M  V30 18930 H 1819.48 1.69168 -3.80488 0
M  V30 18931 H 1822.07 4.37519 -3.07379 0
M  V30 18932 H 1822.42 3.91141 -1.42527 0
M  V30 18933 H 1822.95 2.86294 -2.76189 0
M  V30 18934 H 1819.69 3.15621 -5.74512 0
M  V30 18935 H 1819.21 4.13807 -4.34194 0
M  V30 18936 H 1820.89 4.1847 -4.93449 0
M  V30 18937 N 1821.02 1.235 0.979051 0
M  V30 18938 C 1822.27 1.06949 1.72307 0
M  V30 18939 C 1822.6 -0.392491 1.90192 0
M  V30 18940 O 1821.87 -1.29054 1.45518 0
M  V30 18941 C 1822.16 1.79705 3.12055 0
M  V30 18942 C 1822.01 3.33583 3.01732 0
M  V30 18943 C 1823.33 1.56062 4.11501 0
M  V30 18944 H 1820.45 0.389917 0.625407 0
M  V30 18945 H 1823.09 1.52022 1.1397 0
M  V30 18946 H 1821.24 1.4139 3.61858 0
M  V30 18947 H 1822.91 3.81428 2.59443 0
M  V30 18948 H 1821.15 3.62547 2.38206 0
M  V30 18949 H 1821.83 3.79681 4.00683 0
M  V30 18950 H 1824.3 1.8937 3.70511 0
M  V30 18951 H 1823.18 2.09442 5.07371 0
M  V30 18952 H 1823.44 0.496276 4.39306 0
M  V30 18953 N 1822.5 -1.17802 1.04693 0
M  V30 18954 C 1823.43 -2.23847 0.664448 0
M  V30 18955 C 1824.41 -1.66761 -0.335356 0
M  V30 18956 O 1825.59 -1.93017 -0.214062 0
M  V30 18957 C 1822.72 -3.47284 0.0331587 0
M  V30 18958 C 1821.68 -4.1716 0.95718 0
M  V30 18959 C 1821 -5.34362 0.190034 0
M  V30 18960 C 1822.3 -4.69951 2.2791 0
M  V30 18961 H 1824 -2.56095 1.55099 0
M  V30 18962 H 1821.54 -1.23097 0.747196 0
M  V30 18963 H 1823.5 -4.2068 -0.246178 0
M  V30 18964 H 1822.22 -3.14288 -0.888294 0
M  V30 18965 H 1820.88 -3.45669 1.221 0
M  V30 18966 H 1820.53 -4.97615 -0.734025 0
M  V30 18967 H 1820.23 -5.8205 0.805684 0
M  V30 18968 H 1821.75 -6.10545 -0.0821372 0
M  V30 18969 H 1823.17 -5.3501 2.06003 0
M  V30 18970 H 1821.56 -5.28198 2.84828 0
M  V30 18971 H 1822.63 -3.87032 2.9212 0
M  V30 18972 N 1823.98 -0.827251 -1.34143 0
M  V30 18973 C 1824.92 -0.240552 -2.31353 0
M  V30 18974 C 1825.92 0.62109 -1.57603 0
M  V30 18975 O 1827.12 0.511947 -1.72566 0
M  V30 18976 H 1823.5 -0.0590494 -0.749678 0
M  V30 18977 H 1825.47 -1.07518 -2.78357 0
M  V30 18978 C 1824.22 0.579321 -3.4284 0
M  V30 18979 H 1823.54 -0.0743746 -3.99731 0
M  V30 18980 H 1824.98 0.955871 -4.13085 0
M  V30 18981 C 1823.44 1.75345 -2.87673 0
M  V30 18982 O 1823.97 2.85178 -2.82907 0
M  V30 18983 N 1822.18 1.57158 -2.44437 0
M  V30 18984 H 1821.72 0.678148 -2.48513 0
M  V30 18985 H 1821.68 2.35869 -2.07877 0
M  V30 18986 N 1825.45 1.46436 -0.582609 0
M  V30 18987 C 1826.36 2.34099 0.153178 0
M  V30 18988 C 1827.38 1.49745 0.886135 0
M  V30 18989 O 1828.56 1.82615 0.849341 0
M  V30 18990 C 1825.62 3.26929 1.15404 0
M  V30 18991 C 1824.68 4.27183 0.425764 0
M  V30 18992 C 1823.91 5.15578 1.37895 0
M  V30 18993 O 1824.14 5.06903 2.61545 0
M  V30 18994 O 1823.07 5.9529 0.889585 0
M  V30 18995 H 1826.9 2.98368 -0.566585 0
M  V30 18996 H 1824.48 1.45409 -0.343013 0
M  V30 18997 H 1826.36 3.842 1.73114 0
M  V30 18998 H 1825.04 2.65257 1.85527 0
M  V30 18999 H 1823.95 3.73601 -0.193175 0
M  V30 19000 H 1825.28 4.91641 -0.234496 0
M  V30 19001 N 1826.93 0.320385 1.54309 0
M  V30 19002 C 1828.18 -0.282584 2.00115 0
M  V30 19003 C 1828.5 -1.52904 1.21018 0
M  V30 19004 O 1827.77 -1.93413 0.311163 0
M  V30 19005 H 1826.35 -0.107406 0.739238 0
M  V30 19006 H 1829.01 0.436196 1.89956 0
M  V30 19007 H 1828.11 -0.541189 3.07372 0
M  V30 19008 N 1828.41 -1.57525 0.0484906 0
M  V30 19009 C 1829.66 -1.91761 -0.625335 0
M  V30 19010 C 1829.97 -0.928421 -1.72162 0
M  V30 19011 O 1831.18 -1.16273 -2.45342 0
M  V30 19012 C 1829.63 -3.40571 -1.1636 0
M  V30 19013 C 1829.24 -4.47889 -0.0995687 0
M  V30 19014 C 1830.99 -3.83845 -1.81282 0
M  V30 19015 C 1828.89 -5.87811 -0.650563 0
M  V30 19016 H 1827.82 -0.71567 -0.237346 0
M  V30 19017 H 1830.47 -1.83127 0.116944 0
M  V30 19018 H 1828.86 -3.44201 -1.95811 0
M  V30 19019 H 1830.03 -4.55846 0.673904 0
M  V30 19020 H 1828.34 -4.13939 0.452038 0
M  V30 19021 H 1830.94 -4.8575 -2.23497 0
M  V30 19022 H 1831.28 -3.19947 -2.66345 0
M  V30 19023 H 1831.82 -3.8272 -1.08491 0
M  V30 19024 H 1828.56 -6.55299 0.162371 0
M  V30 19025 H 1828.08 -5.83422 -1.39208 0
M  V30 19026 H 1829.76 -6.36979 -1.1343 0
M  V30 19027 N 1829.89 0.224867 -1.55988 0
M  V30 19028 C 1830.83 1.27865 -1.92144 0
M  V30 19029 C 1831.8 1.46741 -0.778228 0
M  V30 19030 O 1832.99 1.60364 -1.03383 0
M  V30 19031 C 1830.13 2.62468 -2.24063 0
M  V30 19032 C 1829.24 2.51419 -3.51301 0
M  V30 19033 C 1828.38 3.78523 -3.72684 0
M  V30 19034 C 1827.42 3.62182 -4.93448 0
M  V30 19035 N 1826.55 4.81228 -5.11237 0
M  V30 19036 H 1831.39 0.96331 -2.82001 0
M  V30 19037 H 1828.93 0.464362 -1.39578 0
M  V30 19038 H 1830.89 3.40848 -2.4058 0
M  V30 19039 H 1829.52 2.92105 -1.37384 0
M  V30 19040 H 1828.57 1.64491 -3.42997 0
M  V30 19041 H 1829.88 2.35263 -4.39833 0
M  V30 19042 H 1829.04 4.65346 -3.89279 0
M  V30 19043 H 1827.78 3.976 -2.82428 0
M  V30 19044 H 1826.78 2.73743 -4.76807 0
M  V30 19045 H 1828.01 3.44579 -5.85186 0
M  V30 19046 H 1825.95 5.00625 -4.23923 0
M  V30 19047 H 1825.87 4.67787 -5.93895 0
M  V30 19048 H 1827.14 5.69487 -5.32264 0
M  V30 19049 N 1831.37 1.49742 0.491438 0
M  V30 19050 C 1832.61 1.59947 1.24679 0
M  V30 19051 C 1832.94 0.289598 1.92029 0
M  V30 19052 O 1832.22 -0.707544 1.81174 0
M  V30 19053 C 1832.5 2.7655 2.30634 0
M  V30 19054 C 1832.36 4.1736 1.67723 0
M  V30 19055 C 1833.67 2.88764 3.3212 0
M  V30 19056 H 1830.79 0.582173 0.451934 0
M  V30 19057 H 1833.44 1.8206 0.543517 0
M  V30 19058 H 1831.59 2.57826 2.90616 0
M  V30 19059 H 1833.26 4.47623 1.11495 0
M  V30 19060 H 1831.5 4.22562 0.981 0
M  V30 19061 H 1832.17 4.94838 2.44621 0
M  V30 19062 H 1834.65 3.05838 2.82139 0
M  V30 19063 H 1833.52 3.7201 4.03608 0
M  V30 19064 H 1833.78 1.98517 3.95023 0
M  V30 19065 N 1832.84 -0.743177 1.38977 0
M  V30 19066 C 1833.78 -1.86709 1.32938 0
M  V30 19067 C 1834.79 -1.61027 0.239644 0
M  V30 19068 O 1835.98 -1.71413 0.497991 0
M  V30 19069 C 1833.08 -3.22566 1.03945 0
M  V30 19070 C 1832.25 -3.75669 2.24034 0
M  V30 19071 C 1831.31 -4.90068 1.91625 0
M  V30 19072 O 1830.34 -5.04156 2.64226 0
M  V30 19073 N 1831.54 -5.7383 0.877465 0
M  V30 19074 H 1834.3 -1.92397 2.2979 0
M  V30 19075 H 1831.86 -0.923564 1.32973 0
M  V30 19076 H 1833.86 -3.96654 0.802977 0
M  V30 19077 H 1832.43 -3.12198 0.15854 0
M  V30 19078 H 1831.65 -2.93027 2.63683 0
M  V30 19079 H 1832.93 -4.07882 3.04154 0
M  V30 19080 H 1832.33 -5.65028 0.275604 0
M  V30 19081 H 1830.89 -6.48021 0.700881 0
M  V30 19082 N 1834.32 -1.24018 -0.972487 0
M  V30 19083 C 1835.55 -1.10392 -1.74989 0
M  V30 19084 C 1835.97 0.34396 -1.8564 0
M  V30 19085 O 1835.32 1.23757 -1.34128 0
M  V30 19086 C 1835.37 -1.73247 -3.17282 0
M  V30 19087 O 1835.09 -3.12374 -3.07171 0
M  V30 19088 C 1836.6 -1.65168 -4.11381 0
M  V30 19089 H 1833.82 -0.38593 -0.548907 0
M  V30 19090 H 1836.36 -1.64028 -1.22127 0
M  V30 19091 H 1834.51 -1.23625 -3.67145 0
M  V30 19092 H 1834.93 -3.42997 -3.96804 0
M  V30 19093 H 1836.4 -2.13837 -5.08898 0
M  V30 19094 H 1836.88 -0.61198 -4.34915 0
M  V30 19095 H 1837.49 -2.14194 -3.67425 0
M  V30 19096 N 1835.8 1.17245 -1.05316 0
M  V30 19097 C 1836.75 2.21304 -0.655223 0
M  V30 19098 C 1837.72 1.62515 0.343244 0
M  V30 19099 O 1838.9 1.89355 0.234375 0
M  V30 19100 C 1836.04 3.4508 -0.037446 0
M  V30 19101 C 1835.16 4.18155 -1.0849 0
M  V30 19102 C 1834.29 5.29422 -0.434307 0
M  V30 19103 C 1833.33 5.94286 -1.46598 0
M  V30 19104 N 1832.47 6.97063 -0.839461 0
M  V30 19105 H 1837.31 2.54696 -1.54705 0
M  V30 19106 H 1834.84 1.25109 -0.773697 0
M  V30 19107 H 1836.8 4.15827 0.338182 0
M  V30 19108 H 1835.43 3.12268 0.817837 0
M  V30 19109 H 1834.48 3.46111 -1.57834 0
M  V30 19110 H 1835.8 4.62502 -1.86798 0
M  V30 19111 H 1834.95 6.067 -0.00516288 0
M  V30 19112 H 1833.69 4.86212 0.380745 0
M  V30 19113 H 1832.69 5.15737 -1.90513 0
M  V30 19114 H 1833.92 6.39576 -2.28295 0
M  V30 19115 H 1831.86 6.55985 -0.0449421 0
M  V30 19116 H 1831.78 7.39728 -1.56006 0
M  V30 19117 H 1833.05 7.78285 -0.435132 0
M  V30 19118 N 1837.28 0.834353 1.33702 0
M  V30 19119 C 1838.19 0.266649 2.3308 0
M  V30 19120 C 1839.2 -0.604958 1.63145 0
M  V30 19121 O 1840.38 -0.510151 1.94832 0
M  V30 19122 C 1837.45 -0.552673 3.42267 0
M  V30 19123 C 1836.51 0.342677 4.2793 0
M  V30 19124 C 1835.74 -0.437637 5.31903 0
M  V30 19125 O 1835.96 -1.6698 5.45412 0
M  V30 19126 O 1834.9 0.186001 6.01613 0
M  V30 19127 H 1838.72 1.08946 2.83486 0
M  V30 19128 H 1836.31 0.596765 1.36964 0
M  V30 19129 H 1838.19 -1.01842 4.08908 0
M  V30 19130 H 1836.86 -1.35263 2.94085 0
M  V30 19131 H 1835.77 0.856168 3.64171 0
M  V30 19132 H 1837.1 1.10728 4.79583 0
M  V30 19133 N 1838.76 -1.46125 0.590367 0
M  V30 19134 C 1840 -2.01947 0.0787256 0
M  V30 19135 C 1840.33 -1.4634 -1.28878 0
M  V30 19136 O 1839.6 -0.651011 -1.84767 0
M  V30 19137 H 1838.18 -0.746543 0.0261125 0
M  V30 19138 H 1840.84 -1.79136 0.767877 0
M  V30 19139 H 1839.93 -3.12096 0.0154914 0
M  V30 19140 N 1840.23 -0.328564 -1.54137 0
M  V30 19141 C 1841.48 0.271967 -2.00262 0
M  V30 19142 C 1841.8 1.5226 -1.21827 0
M  V30 19143 O 1841.07 1.93245 -0.321415 0
M  V30 19144 H 1839.65 0.103484 -0.739797 0
M  V30 19145 H 1842.32 -0.446264 -1.89722 0
M  V30 19146 H 1841.41 0.52488 -3.07655 0
M  V30 19147 N 1841.71 1.57497 -0.0568439 0
M  V30 19148 C 1842.94 1.96945 0.624196 0
M  V30 19149 C 1843.35 0.933312 1.64578 0
M  V30 19150 O 1842.69 -0.0902107 1.83478 0
M  V30 19151 C 1842.76 3.32652 1.3632 0
M  V30 19152 C 1842.42 4.54292 0.496798 0
M  V30 19153 C 1843.42 5.19348 -0.239466 0
M  V30 19154 C 1841.1 5.0049 0.426059 0
M  V30 19155 C 1843.1 6.28943 -1.03485 0
M  V30 19156 C 1840.78 6.09961 -0.373005 0
M  V30 19157 C 1841.78 6.74049 -1.10214 0
M  V30 19158 O 1841.47 7.81414 -1.88805 0
M  V30 19159 H 1841.2 0.652944 0.175043 0
M  V30 19160 H 1843.75 2.05042 -0.121272 0
M  V30 19161 H 1841.98 3.21126 2.15442 0
M  V30 19162 H 1843.67 3.56808 1.93502 0
M  V30 19163 H 1844.44 4.84611 -0.194318 0
M  V30 19164 H 1840.32 4.50394 0.983188 0
M  V30 19165 H 1843.86 6.78898 -1.60447 0
M  V30 19166 H 1839.76 6.44134 -0.419771 0
M  V30 19167 H 1840.53 7.98219 -1.81077 0
M  V30 19168 N 1843.19 -0.216591 1.56105 0
M  V30 19169 C 1844.44 -0.940249 1.79348 0
M  V30 19170 C 1844.77 -1.84135 0.626451 0
M  V30 19171 O 1844.02 -1.91796 -0.388932 0
M  V30 19172 C 1844.32 -1.80637 3.08391 0
M  V30 19173 C 1843.99 -1.05808 4.3831 0
M  V30 19174 C 1842.65 -0.851392 4.73608 0
M  V30 19175 C 1845 -0.530015 5.18498 0
M  V30 19176 C 1842.33 -0.104822 5.86606 0
M  V30 19177 C 1844.68 0.203236 6.32273 0
M  V30 19178 C 1843.34 0.42113 6.6617 0
M  V30 19179 H 1842.61 -0.344062 0.656279 0
M  V30 19180 H 1845.26 -0.208069 1.90366 0
M  V30 19181 H 1843.57 -2.60656 2.92516 0
M  V30 19182 H 1845.26 -2.36852 3.23577 0
M  V30 19183 H 1841.85 -1.22915 4.10597 0
M  V30 19184 H 1846.04 -0.677154 4.91659 0
M  V30 19185 H 1841.29 0.074177 6.11355 0
M  V30 19186 H 1845.47 0.619898 6.93636 0
M  V30 19187 H 1843.09 1.00155 7.53573 0
M  V30 19188 N 1844.67 -1.5 -0.48349 0
M  V30 19189 C 1845.62 -1.64347 -1.58032 0
M  V30 19190 C 1846.6 -0.498472 -1.52984 0
M  V30 19191 O 1847.79 -0.752287 -1.60217 0
M  V30 19192 C 1844.92 -1.72952 -2.96551 0
M  V30 19193 C 1844.01 -2.93088 -3.06529 0
M  V30 19194 N 1844.4 -4.16937 -2.86352 0
M  V30 19195 C 1842.7 -2.91389 -3.37652 0
M  V30 19196 C 1843.4 -4.97786 -3.00972 0
M  V30 19197 N 1842.38 -4.31494 -3.30626 0
M  V30 19198 H 1846.18 -2.57807 -1.41112 0
M  V30 19199 H 1843.69 -1.47014 -0.689978 0
M  V30 19200 H 1845.69 -1.81332 -3.75399 0
M  V30 19201 H 1844.35 -0.80642 -3.14527 0
M  V30 19202 H 1845.36 -4.46635 -2.62178 0
M  V30 19203 H 1842.04 -2.08528 -3.61694 0
M  V30 19204 H 1843.43 -6.06229 -2.89716 0
M  V30 19205 N 1846.15 0.735796 -1.39369 0
M  V30 19206 C 1847.39 1.49756 -1.36752 0
M  V30 19207 C 1847.73 1.94165 0.036815 0
M  V30 19208 O 1847 1.66728 1.00159 0
M  V30 19209 C 1847.28 2.73779 -2.33916 0
M  V30 19210 C 1847.14 2.35394 -3.83288 0
M  V30 19211 C 1848.46 3.75875 -2.28924 0
M  V30 19212 H 1845.57 0.543236 -0.49806 0
M  V30 19213 H 1848.22 0.841381 -1.70355 0
M  V30 19214 H 1846.37 3.29768 -2.05391 0
M  V30 19215 H 1848.04 1.85043 -4.2256 0
M  V30 19216 H 1846.28 1.67632 -4.00102 0
M  V30 19217 H 1846.95 3.24206 -4.4676 0
M  V30 19218 H 1849.43 3.29469 -2.54144 0
M  V30 19219 H 1848.3 4.60321 -2.98991 0
M  V30 19220 H 1848.57 4.22739 -1.29399 0
M  V30 19221 N 1847.63 1.24532 0.965897 0
M  V30 19222 C 1848.56 1.06393 2.07853 0
M  V30 19223 C 1849.54 -0.0236467 1.70084 0
M  V30 19224 O 1850.72 0.143767 1.93667 0
M  V30 19225 C 1847.85 0.669877 3.40778 0
M  V30 19226 C 1846.81 1.70643 3.92511 0
M  V30 19227 C 1846.13 1.16738 5.21801 0
M  V30 19228 C 1847.43 3.10278 4.20149 0
M  V30 19229 H 1849.13 1.99459 2.23285 0
M  V30 19230 H 1846.67 0.960397 1.07296 0
M  V30 19231 H 1848.62 0.52997 4.18054 0
M  V30 19232 H 1847.35 -0.296477 3.25252 0
M  V30 19233 H 1846.01 1.83458 3.17393 0
M  V30 19234 H 1845.66 0.191586 5.02635 0
M  V30 19235 H 1845.36 1.86009 5.57382 0
M  V30 19236 H 1846.88 1.03963 6.01684 0
M  V30 19237 H 1848.29 3.00681 4.88123 0
M  V30 19238 H 1846.69 3.76918 4.66962 0
M  V30 19239 H 1847.76 3.58182 3.26854 0
M  V30 19240 N 1849.1 -1.16685 1.05936 0
M  V30 19241 C 1850.03 -2.23129 0.688153 0
M  V30 19242 C 1851.01 -1.67108 -0.31765 0
M  V30 19243 O 1852.2 -1.93233 -0.193578 0
M  V30 19244 C 1849.33 -3.47229 0.069991 0
M  V30 19245 C 1848.28 -4.16121 1.00137 0
M  V30 19246 C 1847.61 -5.34131 0.246699 0
M  V30 19247 C 1848.91 -4.67508 2.32882 0
M  V30 19248 H 1850.6 -2.54436 1.57806 0
M  V30 19249 H 1848.15 -1.22298 0.76021 0
M  V30 19250 H 1850.1 -4.20918 -0.201545 0
M  V30 19251 H 1848.83 -3.15212 -0.854909 0
M  V30 19252 H 1847.49 -3.44355 1.25759 0
M  V30 19253 H 1847.13 -4.98366 -0.681204 0
M  V30 19254 H 1846.83 -5.81163 0.867373 0
M  V30 19255 H 1848.36 -6.10598 -0.0173762 0
M  V30 19256 H 1849.77 -5.32795 2.11666 0
M  V30 19257 H 1848.17 -5.25147 2.90414 0
M  V30 19258 H 1849.24 -3.83912 2.96209 0
M  V30 19259 N 1850.58 -0.841432 -1.33258 0
M  V30 19260 C 1851.54 -0.281685 -2.27462 0
M  V30 19261 C 1852.54 0.551062 -1.51063 0
M  V30 19262 O 1853.73 0.364482 -1.70344 0
M  V30 19263 C 1850.87 0.602896 -3.35526 0
M  V30 19264 H 1852.06 -1.11298 -2.78483 0
M  V30 19265 H 1849.61 -0.614717 -1.43704 0
M  V30 19266 H 1850.35 1.45652 -2.89751 0
M  V30 19267 H 1850.13 0.00701634 -3.92099 0
M  V30 19268 H 1851.62 0.987735 -4.05751 0
M  V30 19269 N 1852.06 1.4581 -0.598108 0
M  V30 19270 C 1853.47 1.85871 -0.175736 0
M  V30 19271 C 1853.82 1.49969 1.26505 0
M  V30 19272 O 1852.95 0.921857 1.95782 0
M  V30 19273 C 1853.54 3.37359 -0.312157 0
M  V30 19274 C 1852.1 3.76359 0.0554534 0
M  V30 19275 C 1851.25 2.6979 -0.640999 0
M  V30 19276 H 1854.2 1.36745 -0.805383 0
M  V30 19277 H 1854.22 3.7773 0.458274 0
M  V30 19278 H 1853.73 3.63458 -1.36088 0
M  V30 19279 H 1851.83 3.55878 1.10372 0
M  V30 19280 H 1851.95 4.77951 -0.331592 0
M  V30 19281 H 1850.31 2.54576 -0.0796238 0
M  V30 19282 H 1851.09 2.98726 -1.69167 0
M  V30 19283 N 1853.54 0.336733 1.53961 0
M  V30 19284 C 1854.79 -0.261343 2.00403 0
M  V30 19285 C 1855.11 -1.51612 1.22633 0
M  V30 19286 O 1854.38 -1.93072 0.331659 0
M  V30 19287 H 1852.96 -0.0995594 0.740336 0
M  V30 19288 H 1855.62 0.456319 1.89483 0
M  V30 19289 H 1854.71 -0.508557 3.07929 0
M  V30 19290 N 1855.02 -1.57465 0.0651956 0
M  V30 19291 C 1856.26 -1.93524 -0.606325 0
M  V30 19292 C 1856.59 -0.944947 -1.6966 0
M  V30 19293 O 1855.87 0.0268871 -1.94481 0
M  V30 19294 C 1856.15 -3.3989 -1.18941 0
M  V30 19295 C 1856.01 -4.49675 -0.106235 0
M  V30 19296 C 1857.32 -3.86935 -2.09689 0
M  V30 19297 H 1854.44 -0.703729 -0.218939 0
M  V30 19298 H 1857.09 -1.89556 0.12982 0
M  V30 19299 H 1855.24 -3.43402 -1.81679 0
M  V30 19300 H 1856.91 -4.58286 0.526483 0
M  V30 19301 H 1855.15 -4.30118 0.563985 0
M  V30 19302 H 1855.82 -5.49208 -0.554488 0
M  V30 19303 H 1858.3 -3.85387 -1.56895 0
M  V30 19304 H 1857.17 -4.89972 -2.47424 0
M  V30 19305 H 1857.43 -3.24496 -3.00258 0
M  V30 19306 N 1856.49 0.20831 -1.56217 0
M  V30 19307 C 1857.44 1.26199 -1.89889 0
M  V30 19308 C 1858.43 1.41646 -0.763239 0
M  V30 19309 O 1859.62 1.44238 -1.02588 0
M  V30 19310 C 1856.75 2.60964 -2.23053 0
M  V30 19311 C 1855.83 2.49364 -3.43043 0
M  V30 19312 N 1856.23 2.07429 -4.6131 0
M  V30 19313 C 1854.52 2.80291 -3.4692 0
M  V30 19314 C 1855.22 2.07401 -5.4347 0
M  V30 19315 N 1854.2 2.48398 -4.83528 0
M  V30 19316 H 1858 0.928874 -2.78835 0
M  V30 19317 H 1855.52 0.416815 -1.5696 0
M  V30 19318 H 1857.51 3.37055 -2.45356 0
M  V30 19319 H 1856.17 2.9511 -1.35426 0
M  V30 19320 H 1857.18 1.78348 -4.86223 0
M  V30 19321 H 1853.86 3.1872 -2.69673 0
M  V30 19322 H 1855.25 1.76991 -6.4817 0
M  V30 19323 N 1857.97 1.50255 0.475528 0
M  V30 19324 C 1858.92 1.69315 1.59484 0
M  V30 19325 C 1859.91 0.558996 1.59911 0
M  V30 19326 O 1861.12 0.73937 1.64114 0
M  V30 19327 H 1857.49 0.534338 0.529138 0
M  V30 19328 H 1859.47 2.63217 1.40568 0
M  V30 19329 C 1858.21 1.80042 2.97456 0
M  V30 19330 H 1857.54 2.667 2.97844 0
M  V30 19331 H 1858.98 1.97405 3.75243 0
M  V30 19332 C 1857.44 0.551002 3.32364 0
M  V30 19333 O 1857.97 -0.311853 4.00488 0
M  V30 19334 N 1856.17 0.406343 2.87745 0
M  V30 19335 H 1855.72 1.10953 2.32481 0
M  V30 19336 H 1855.68 -0.428483 3.11467 0
M  V30 19337 N 1859.45 -0.728395 1.39758 0
M  V30 19338 C 1860.7 -1.48357 1.3665 0
M  V30 19339 C 1861.01 -1.95573 -0.0325759 0
M  V30 19340 O 1862.22 -2.7086 -0.186252 0
M  V30 19341 C 1860.67 -2.68105 2.40099 0
M  V30 19342 C 1860.28 -2.27812 3.85754 0
M  V30 19343 C 1862.03 -3.45899 2.46077 0
M  V30 19344 C 1859.93 -3.44322 4.80828 0
M  V30 19345 H 1858.86 -0.557138 0.508048 0
M  V30 19346 H 1861.51 -0.793948 1.65435 0
M  V30 19347 H 1859.9 -3.39174 2.04394 0
M  V30 19348 H 1861.07 -1.64246 4.30534 0
M  V30 19349 H 1859.38 -1.63094 3.83131 0
M  V30 19350 H 1861.98 -4.32573 3.143 0
M  V30 19351 H 1862.32 -3.88824 1.48732 0
M  V30 19352 H 1862.86 -2.81864 2.80709 0
M  V30 19353 H 1859.6 -3.06441 5.7946 0
M  V30 19354 H 1859.12 -4.06847 4.40722 0
M  V30 19355 H 1860.8 -4.10567 5.00044 0
M  V30 19356 N 1860.93 -1.25042 -0.959279 0
M  V30 19357 C 1862.18 -1.08912 -1.69768 0
M  V30 19358 C 1862.49 0.370558 -1.92058 0
M  V30 19359 O 1863.7 0.652214 -2.6355 0
M  V30 19360 C 1862.15 -1.90075 -3.05613 0
M  V30 19361 C 1861.76 -3.40506 -2.91136 0
M  V30 19362 C 1863.5 -1.825 -3.83268 0
M  V30 19363 C 1861.41 -4.13982 -4.22343 0
M  V30 19364 H 1860.34 -0.403959 -0.636658 0
M  V30 19365 H 1862.99 -1.49198 -1.06828 0
M  V30 19366 H 1861.37 -1.42609 -3.6943 0
M  V30 19367 H 1862.55 -3.95612 -2.36279 0
M  V30 19368 H 1860.86 -3.49123 -2.2694 0
M  V30 19369 H 1863.46 -2.34693 -4.80441 0
M  V30 19370 H 1863.8 -0.791947 -4.08698 0
M  V30 19371 H 1864.34 -2.27691 -3.26192 0
M  V30 19372 H 1861.07 -5.17681 -4.02103 0
M  V30 19373 H 1860.59 -3.6366 -4.76982 0
M  V30 19374 H 1862.27 -4.21443 -4.90913 0
M  V30 19375 N 1862.41 1.16121 -1.06553 0
M  V30 19376 C 1863.37 2.18796 -0.682711 0
M  V30 19377 C 1864.37 1.58467 0.272905 0
M  V30 19378 O 1865.56 1.74113 0.0549379 0
M  V30 19379 C 1862.69 3.409 -0.00496866 0
M  V30 19380 H 1863.88 2.54178 -1.59165 0
M  V30 19381 H 1861.44 1.30442 -0.861077 0
M  V30 19382 H 1862.17 3.11077 0.916593 0
M  V30 19383 H 1861.96 3.85942 -0.692165 0
M  V30 19384 H 1863.45 4.1686 0.248503 0
M  V30 19385 N 1863.88 0.848487 1.3281 0
M  V30 19386 C 1865.13 0.445116 1.96727 0
M  V30 19387 C 1865.45 -1.00311 1.6792 0
M  V30 19388 O 1866.65 -1.51162 2.25527 0
M  V30 19389 C 1865.11 0.745015 3.52104 0
M  V30 19390 C 1864.72 2.20856 3.89778 0
M  V30 19391 C 1866.46 0.409065 4.22524 0
M  V30 19392 C 1864.37 2.452 5.38174 0
M  V30 19393 H 1863.3 0.162715 0.736233 0
M  V30 19394 H 1865.95 1.03841 1.51292 0
M  V30 19395 H 1864.33 0.0812291 3.95917 0
M  V30 19396 H 1865.5 2.91362 3.56994 0
M  V30 19397 H 1863.82 2.50842 3.32366 0
M  V30 19398 H 1866.42 0.568453 5.3167 0
M  V30 19399 H 1866.76 -0.648796 4.11213 0
M  V30 19400 H 1867.29 1.02848 3.84275 0
M  V30 19401 H 1864.03 3.49588 5.54499 0
M  V30 19402 H 1863.55 1.79265 5.72384 0
M  V30 19403 H 1865.23 2.28838 6.0518 0
M  V30 19404 N 1865.36 -1.4549 0.605832 0
M  V30 19405 C 1866.33 -2.28964 -0.104089 0
M  V30 19406 C 1867.33 -1.39671 -0.796791 0
M  V30 19407 O 1868.52 -1.6181 -0.645221 0
M  V30 19408 C 1865.65 -3.20647 -1.1575 0
M  V30 19409 H 1866.84 -2.93213 0.629776 0
M  V30 19410 H 1864.39 -1.51983 0.3648 0
M  V30 19411 H 1865.13 -2.61194 -1.92219 0
M  V30 19412 H 1864.91 -3.86419 -0.665025 0
M  V30 19413 H 1866.4 -3.83416 -1.65474 0
M  V30 19414 N 1866.84 -0.344893 -1.5378 0
M  V30 19415 C 1868.12 0.306554 -1.93183 0
M  V30 19416 C 1868.5 1.68127 -1.27658 0
M  V30 19417 O 1867.85 2.24456 -0.428003 0
M  V30 19418 C 1868.06 0.377484 -3.46953 0
M  V30 19419 C 1869.4 0.627685 -4.19935 0
M  V30 19420 O 1870.43 0.459544 -3.53223 0
M  V30 19421 O 1869.29 0.953511 -5.38117 0
M  V30 19422 H 1866.38 0.179163 -0.80736 0
M  V30 19423 H 1868.93 -0.396168 -1.65011 0
M  V30 19424 H 1867.7 -0.587175 -3.86869 0
M  V30 19425 H 1867.32 1.12694 -3.81295 0
M  V30 19426 N 1868.32 1.57428 -0.0735454 0
M  V30 19427 C 1869.57 1.93174 0.593996 0
M  V30 19428 C 1869.89 0.954462 1.70044 0
M  V30 19429 O 1869.16 0.00289765 1.959 0
M  V30 19430 H 1867.74 0.713123 0.222407 0
M  V30 19431 H 1870.4 1.94454 -0.131813 0
M  V30 19432 H 1869.5 2.95025 1.01818 0
M  V30 19433 N 1869.8 -0.200022 1.56326 0
M  V30 19434 C 1871.03 -0.936144 1.84174 0
M  V30 19435 C 1871.43 -1.77564 0.653267 0
M  V30 19436 O 1870.78 -1.79569 -0.387368 0
M  V30 19437 C 1870.84 -1.88598 3.06057 0
M  V30 19438 C 1870.5 -1.22892 4.40167 0
M  V30 19439 C 1871.5 -0.608243 5.1633 0
M  V30 19440 C 1869.19 -1.23424 4.869 0
M  V30 19441 C 1871.18 -0.00166268 6.374 0
M  V30 19442 C 1868.87 -0.623827 6.07908 0
M  V30 19443 C 1869.86 -0.00861163 6.82999 0
M  V30 19444 O 1869.55 0.592252 8.01715 0
M  V30 19445 H 1869.28 -0.278889 0.615789 0
M  V30 19446 H 1871.84 -0.213764 2.04285 0
M  V30 19447 H 1870.07 -2.64793 2.81818 0
M  V30 19448 H 1871.76 -2.48948 3.20593 0
M  V30 19449 H 1872.52 -0.596302 4.8132 0
M  V30 19450 H 1868.4 -1.7025 4.28411 0
M  V30 19451 H 1871.95 0.479147 6.95953 0
M  V30 19452 H 1867.84 -0.633254 6.42386 0
M  V30 19453 H 1868.61 0.488674 8.1704 0
M  V30 19454 N 1871.27 -1.50505 -0.467553 0
M  V30 19455 C 1872.21 -1.65784 -1.58267 0
M  V30 19456 C 1873.22 -0.539219 -1.53611 0
M  V30 19457 O 1874.41 -0.812524 -1.58935 0
M  V30 19458 C 1871.51 -1.62951 -2.97154 0
M  V30 19459 C 1870.68 -2.90903 -3.26641 0
M  V30 19460 C 1869.74 -2.80665 -4.451 0
M  V30 19461 O 1868.77 -3.5462 -4.45234 0
M  V30 19462 N 1869.97 -1.9446 -5.4696 0
M  V30 19463 H 1872.73 -2.6197 -1.45575 0
M  V30 19464 H 1870.29 -1.48013 -0.656029 0
M  V30 19465 H 1872.29 -1.53709 -3.74373 0
M  V30 19466 H 1870.86 -0.744855 -3.03596 0
M  V30 19467 H 1870.08 -3.14244 -2.38001 0
M  V30 19468 H 1871.36 -3.75663 -3.43155 0
M  V30 19469 H 1870.76 -1.33694 -5.49675 0
M  V30 19470 H 1869.32 -1.9112 -6.2315 0
M  V30 19471 N 1872.75 0.720973 -1.40142 0
M  V30 19472 C 1873.68 1.8457 -1.35891 0
M  V30 19473 C 1874.7 1.60625 -0.265232 0
M  V30 19474 O 1875.89 1.70599 -0.525198 0
M  V30 19475 C 1872.99 3.20871 -1.09064 0
M  V30 19476 C 1872.16 3.72058 -2.29982 0
M  V30 19477 C 1871.22 4.86957 -1.99397 0
M  V30 19478 O 1870.24 4.99888 -2.72213 0
M  V30 19479 N 1871.45 5.72361 -0.968645 0
M  V30 19480 H 1874.21 1.88717 -2.32822 0
M  V30 19481 H 1871.77 0.902293 -1.34426 0
M  V30 19482 H 1873.76 3.95326 -0.865979 0
M  V30 19483 H 1872.33 3.11906 -0.208188 0
M  V30 19484 H 1871.55 2.88795 -2.68312 0
M  V30 19485 H 1872.84 4.02991 -3.10605 0
M  V30 19486 H 1872.24 5.64518 -0.36546 0
M  V30 19487 H 1870.8 6.46824 -0.803886 0
M  V30 19488 N 1874.23 1.25549 0.952634 0
M  V30 19489 C 1875.16 1.01898 2.05304 0
M  V30 19490 C 1876.18 -0.0167609 1.62791 0
M  V30 19491 O 1877.36 0.222021 1.77114 0
M  V30 19492 C 1874.46 0.518856 3.34905 0
M  V30 19493 C 1873.64 1.62121 4.06246 0
M  V30 19494 C 1872.7 1.12111 5.14118 0
M  V30 19495 O 1871.72 1.81591 5.39456 0
M  V30 19496 N 1872.92 -0.0365454 5.80488 0
M  V30 19497 H 1875.69 1.96648 2.26163 0
M  V30 19498 H 1873.25 1.16782 1.12132 0
M  V30 19499 H 1875.24 0.168729 4.04348 0
M  V30 19500 H 1873.81 -0.334763 3.10802 0
M  V30 19501 H 1873.03 2.14282 3.30873 0
M  V30 19502 H 1874.32 2.36173 4.50666 0
M  V30 19503 H 1873.72 -0.617055 5.62325 0
M  V30 19504 H 1872.28 -0.327688 6.50976 0
M  V30 19505 N 1875.71 -1.15554 1.07168 0
M  V30 19506 C 1876.66 -2.18233 0.660183 0
M  V30 19507 C 1877.64 -1.57812 -0.313726 0
M  V30 19508 O 1878.83 -1.76538 -0.127752 0
M  V30 19509 C 1875.96 -3.43252 0.0575371 0
M  V30 19510 C 1875.05 -4.1073 1.05647 0
M  V30 19511 N 1875.44 -4.53725 2.23534 0
M  V30 19512 C 1873.74 -4.37042 0.88939 0
M  V30 19513 C 1874.44 -5.06031 2.86893 0
M  V30 19514 N 1873.42 -4.99461 2.14569 0
M  V30 19515 H 1877.22 -2.49202 1.55807 0
M  V30 19516 H 1874.73 -1.32102 0.944606 0
M  V30 19517 H 1876.73 -4.16119 -0.255147 0
M  V30 19518 H 1875.39 -3.13767 -0.835491 0
M  V30 19519 H 1876.4 -4.47172 2.61262 0
M  V30 19520 H 1873.08 -4.17471 0.0491001 0
M  V30 19521 H 1874.47 -5.4927 3.86978 0
M  V30 19522 N 1877.19 -0.855519 -1.32358 0
M  V30 19523 C 1878.41 -0.472456 -2.01947 0
M  V30 19524 C 1878.84 0.923482 -1.6387 0
M  V30 19525 O 1878.2 1.60677 -0.839799 0
M  V30 19526 C 1878.24 -0.620081 -3.55229 0
M  V30 19527 O 1877.35 0.34676 -4.1094 0
M  V30 19528 H 1876.69 -0.189756 -0.636309 0
M  V30 19529 H 1879.22 -1.15495 -1.68885 0
M  V30 19530 H 1879.23 -0.507933 -4.04826 0
M  V30 19531 H 1877.9 -1.63802 -3.82285 0
M  V30 19532 H 1876.48 0.190778 -3.72412 0
M  V30 19533 N 1878.67 1.45167 -0.61354 0
M  V30 19534 C 1879.6 2.28772 0.140015 0
M  V30 19535 C 1880.61 1.4029 0.825993 0
M  V30 19536 O 1881.8 1.64608 0.690385 0
M  V30 19537 C 1878.9 3.16195 1.21959 0
M  V30 19538 C 1878.07 4.3299 0.619571 0
M  V30 19539 C 1877.13 5.01577 1.59081 0
M  V30 19540 O 1876.16 5.58177 1.11479 0
M  V30 19541 N 1877.36 5.01408 2.92523 0
M  V30 19542 H 1880.12 2.94085 -0.577406 0
M  V30 19543 H 1877.69 1.5542 -0.453443 0
M  V30 19544 H 1879.68 3.58943 1.86927 0
M  V30 19545 H 1878.25 2.5275 1.83946 0
M  V30 19546 H 1877.47 3.93649 -0.20833 0
M  V30 19547 H 1878.76 5.08411 0.199025 0
M  V30 19548 H 1878.15 4.56725 3.33794 0
M  V30 19549 H 1876.71 5.48002 3.52898 0
M  V30 19550 N 1880.14 0.353044 1.53595 0
M  V30 19551 C 1881.39 -0.240904 2.01364 0
M  V30 19552 C 1881.72 -1.49438 1.24023 0
M  V30 19553 O 1881 -1.91672 0.330451 0
M  V30 19554 C 1881.28 -0.545497 3.55944 0
M  V30 19555 C 1881.13 0.720742 4.43988 0
M  V30 19556 C 1882.45 -1.35124 4.18843 0
M  V30 19557 H 1879.57 -0.0860838 0.731955 0
M  V30 19558 H 1882.21 0.475459 1.83955 0
M  V30 19559 H 1880.36 -1.15578 3.7091 0
M  V30 19560 H 1882.04 1.35852 4.40842 0
M  V30 19561 H 1880.28 1.34369 4.12465 0
M  V30 19562 H 1880.95 0.462749 5.50057 0
M  V30 19563 H 1883.43 -0.835104 4.07634 0
M  V30 19564 H 1882.3 -1.53311 5.27055 0
M  V30 19565 H 1882.56 -2.35612 3.74085 0
M  V30 19566 N 1881.62 -1.57387 0.0818932 0
M  V30 19567 C 1882.87 -1.93869 -0.584899 0
M  V30 19568 C 1883.2 -0.962686 -1.69005 0
M  V30 19569 O 1882.45 0.0199955 -1.9569 0
M  V30 19570 C 1882.75 -3.36939 -1.19193 0
M  V30 19571 C 1882.42 -4.50402 -0.211908 0
M  V30 19572 C 1881.08 -4.81165 0.0576757 0
M  V30 19573 C 1883.43 -5.19184 0.457992 0
M  V30 19574 C 1880.76 -5.78044 1.00408 0
M  V30 19575 C 1883.11 -6.17077 1.39278 0
M  V30 19576 C 1881.77 -6.46253 1.67073 0
M  V30 19577 H 1881.04 -0.709417 -0.21403 0
M  V30 19578 H 1883.69 -1.90872 0.154919 0
M  V30 19579 H 1882 -3.3645 -2.00771 0
M  V30 19580 H 1883.69 -3.62461 -1.71532 0
M  V30 19581 H 1880.28 -4.26415 -0.43221 0
M  V30 19582 H 1884.47 -4.95603 0.262847 0
M  V30 19583 H 1879.72 -5.9897 1.22656 0
M  V30 19584 H 1883.9 -6.69474 1.91775 0
M  V30 19585 H 1881.52 -7.21132 2.40566 0
M  V30 19586 N 1883.1 0.191729 -1.56429 0
M  V30 19587 C 1884.35 0.912948 -1.81089 0
M  V30 19588 C 1884.68 1.82767 -0.656483 0
M  V30 19589 O 1883.95 1.91456 0.342779 0
M  V30 19590 C 1884.24 1.72628 -3.16025 0
M  V30 19591 C 1884.09 0.836045 -4.41962 0
M  V30 19592 C 1885.41 2.69818 -3.47687 0
M  V30 19593 H 1882.53 0.33046 -0.658761 0
M  V30 19594 H 1885.17 0.180148 -1.89144 0
M  V30 19595 H 1883.32 2.35102 -3.09289 0
M  V30 19596 H 1884.99 0.225751 -4.60747 0
M  V30 19597 H 1883.23 0.142944 -4.33564 0
M  V30 19598 H 1883.91 1.44019 -5.32881 0
M  V30 19599 H 1886.38 2.17475 -3.54745 0
M  V30 19600 H 1885.26 3.23806 -4.43216 0
M  V30 19601 H 1885.52 3.49028 -2.71352 0
M  V30 19602 N 1884.58 1.50751 0.459565 0
M  V30 19603 C 1885.53 1.6684 1.55397 0
M  V30 19604 C 1886.51 0.522747 1.52171 0
M  V30 19605 O 1887.7 0.777681 1.59 0
M  V30 19606 C 1884.83 1.77648 2.93762 0
M  V30 19607 C 1883.92 2.97927 3.01828 0
M  V30 19608 N 1884.31 4.2144 2.79682 0
M  V30 19609 C 1882.61 2.96724 3.32973 0
M  V30 19610 C 1883.31 5.02511 2.93015 0
M  V30 19611 N 1882.28 4.367 3.2372 0
M  V30 19612 H 1886.09 2.60019 1.36993 0
M  V30 19613 H 1883.6 1.48093 0.666502 0
M  V30 19614 H 1885.6 1.87281 3.72467 0
M  V30 19615 H 1884.26 0.856356 3.13204 0
M  V30 19616 H 1885.27 4.5075 2.55039 0
M  V30 19617 H 1881.95 2.14256 3.5833 0
M  V30 19618 H 1883.34 6.10762 2.80035 0
M  V30 19619 N 1886.06 -0.713531 1.40522 0
M  V30 19620 C 1887.01 -1.81927 1.37429 0
M  V30 19621 C 1887.99 -1.58922 0.251499 0
M  V30 19622 O 1889.18 -1.7006 0.490768 0
M  V30 19623 C 1886.31 -3.20074 1.24127 0
M  V30 19624 C 1885.4 -3.48835 2.41195 0
M  V30 19625 N 1885.79 -3.484 3.66676 0
M  V30 19626 C 1884.09 -3.79302 2.34619 0
M  V30 19627 C 1884.79 -3.75562 4.44217 0
M  V30 19628 N 1883.76 -3.94413 3.74084 0
M  V30 19629 H 1887.56 -1.79927 2.32387 0
M  V30 19630 H 1885.08 -0.912746 1.34323 0
M  V30 19631 H 1887.08 -3.99258 1.19993 0
M  V30 19632 H 1885.74 -3.23298 0.301379 0
M  V30 19633 H 1886.75 -3.29201 3.99809 0
M  V30 19634 H 1883.42 -3.90004 1.49007 0
M  V30 19635 H 1884.81 -3.81513 5.5308 0
M  V30 19636 N 1887.53 -1.26053 -0.945962 0
M  V30 19637 C 1888.81 -1.02072 -1.66855 0
M  V30 19638 C 1889.19 0.45036 -2.0624 0
M  V30 19639 O 1888.54 1.42966 -1.7825 0
M  V30 19640 C 1888.75 -1.96486 -2.88434 0
M  V30 19641 C 1890.1 -2.24825 -3.60193 0
M  V30 19642 O 1891.12 -1.94314 -2.98531 0
M  V30 19643 O 1889.98 -2.76749 -4.71245 0
M  V30 19644 H 1887.07 -0.387753 -0.730463 0
M  V30 19645 H 1889.62 -1.37243 -0.998117 0
M  V30 19646 H 1888.39 -2.95779 -2.56185 0
M  V30 19647 H 1888.01 -1.61765 -3.63205 0
M  V30 19648 N 1889.01 1.14984 -1.07779 0
M  V30 19649 C 1889.97 2.1806 -0.705879 0
M  V30 19650 C 1890.97 1.58748 0.256082 0
M  V30 19651 O 1892.16 1.74162 0.0364678 0
M  V30 19652 C 1889.3 3.40875 -0.0411253 0
M  V30 19653 H 1890.49 2.52476 -1.61852 0
M  V30 19654 H 1888.04 1.29522 -0.874863 0
M  V30 19655 H 1888.78 3.12032 0.883548 0
M  V30 19656 H 1888.56 3.85186 -0.73306 0
M  V30 19657 H 1890.05 4.171 0.204275 0
M  V30 19658 N 1890.49 0.862526 1.31902 0
M  V30 19659 C 1891.45 0.317836 2.26986 0
M  V30 19660 C 1892.45 -0.526959 1.5192 0
M  V30 19661 O 1893.64 -0.337336 1.70903 0
M  V30 19662 C 1890.77 -0.549441 3.36443 0
M  V30 19663 H 1891.97 1.15714 2.76677 0
M  V30 19664 H 1889.52 0.637501 1.42708 0
M  V30 19665 H 1890.26 -1.41024 2.92032 0
M  V30 19666 H 1890.04 0.0553642 3.92061 0
M  V30 19667 H 1891.53 -0.923059 4.07271 0
M  V30 19668 N 1891.97 -1.4484 0.62123 0
M  V30 19669 C 1893.19 -2.07012 0.126801 0
M  V30 19670 C 1893.62 -1.46046 -1.18542 0
M  V30 19671 O 1892.98 -0.558202 -1.72493 0
M  V30 19672 C 1893.02 -3.60597 0.0150611 0
M  V30 19673 O 1892.13 -3.9929 -1.03157 0
M  V30 19674 H 1891.47 -0.659131 0.0802646 0
M  V30 19675 H 1894 -1.85874 0.855105 0
M  V30 19676 H 1894.01 -4.07608 -0.178742 0
M  V30 19677 H 1892.68 -4.04354 0.973153 0
M  V30 19678 H 1891.26 -3.63927 -0.813135 0
M  V30 19679 N 1893.45 -0.361184 -1.53405 0
M  V30 19680 C 1894.67 0.233383 -2.06083 0
M  V30 19681 C 1895.1 1.42029 -1.23326 0
M  V30 19682 O 1894.45 1.79551 -0.251249 0
M  V30 19683 C 1894.5 0.609243 -3.55416 0
M  V30 19684 O 1893.61 1.70705 -3.75411 0
M  V30 19685 H 1892.95 0.035021 -0.663076 0
M  V30 19686 H 1895.48 -0.520514 -1.97868 0
M  V30 19687 H 1895.49 0.881483 -3.98364 0
M  V30 19688 H 1894.16 -0.25866 -4.15095 0
M  V30 19689 H 1892.74 1.4307 -3.44362 0
M  V30 19690 N 1894.92 1.57341 -0.0902386 0
M  V30 19691 C 1896.17 1.94464 0.575461 0
M  V30 19692 C 1896.5 0.971819 1.68135 0
M  V30 19693 O 1895.78 0.00405665 1.945 0
M  V30 19694 C 1896.06 3.41739 1.13518 0
M  V30 19695 C 1895.91 4.49787 0.0346821 0
M  V30 19696 C 1897.23 3.90222 2.03506 0
M  V30 19697 H 1894.35 0.707123 0.207716 0
M  V30 19698 H 1896.99 1.89325 -0.15996 0
M  V30 19699 H 1895.14 3.46249 1.76192 0
M  V30 19700 H 1896.82 4.5739 -0.599326 0
M  V30 19701 H 1895.06 4.29166 -0.632342 0
M  V30 19702 H 1895.73 5.50021 0.467044 0
M  V30 19703 H 1898.21 3.87834 1.50744 0
M  V30 19704 H 1897.08 4.93846 2.39598 0
M  V30 19705 H 1897.34 3.29232 2.95057 0
M  V30 19706 N 1896.4 -0.183431 1.56529 0
M  V30 19707 C 1897.65 -0.903332 1.8157 0
M  V30 19708 C 1897.98 -1.82417 0.666167 0
M  V30 19709 O 1897.26 -1.91635 -0.332621 0
M  V30 19710 C 1897.54 -1.70949 3.16936 0
M  V30 19711 C 1897.39 -0.812595 4.42399 0
M  V30 19712 C 1898.71 -2.6797 3.49113 0
M  V30 19713 H 1895.83 -0.326961 0.660504 0
M  V30 19714 H 1898.47 -0.170115 1.89237 0
M  V30 19715 H 1896.62 -2.33458 3.10531 0
M  V30 19716 H 1898.29 -0.201313 4.60861 0
M  V30 19717 H 1896.54 -0.119949 4.33634 0
M  V30 19718 H 1897.21 -1.4119 5.33638 0
M  V30 19719 H 1899.68 -2.15591 3.55893 0
M  V30 19720 H 1898.56 -3.21451 4.44927 0
M  V30 19721 H 1898.82 -3.47584 2.73199 0
M  V30 19722 N 1897.88 -1.50992 -0.451564 0
M  V30 19723 C 1899.13 -1.62192 -1.19903 0
M  V30 19724 C 1899.44 -0.337085 -1.92674 0
M  V30 19725 O 1900.65 -0.328248 -2.69508 0
M  V30 19726 C 1899.1 -2.8638 -2.17978 0
M  V30 19727 C 1898.71 -4.21814 -1.50921 0
M  V30 19728 C 1900.46 -3.06932 -2.93246 0
M  V30 19729 C 1898.36 -5.37168 -2.47396 0
M  V30 19730 H 1897.29 -0.60406 -0.451251 0
M  V30 19731 H 1899.94 -1.77445 -0.467482 0
M  V30 19732 H 1898.33 -2.64728 -2.94508 0
M  V30 19733 H 1899.5 -4.53794 -0.800466 0
M  V30 19734 H 1897.82 -4.07025 -0.878604 0
M  V30 19735 H 1900.41 -3.90286 -3.65487 0
M  V30 19736 H 1900.76 -2.19437 -3.5377 0
M  V30 19737 H 1901.29 -3.28857 -2.23826 0
M  V30 19738 H 1898.03 -6.26878 -1.91582 0
M  V30 19739 H 1897.55 -5.09581 -3.16365 0
M  V30 19740 H 1899.23 -5.68539 -3.08824 0
M  V30 19741 N 1899.36 0.706069 -1.40899 0
M  V30 19742 C 1900.6 1.46821 -1.39898 0
M  V30 19743 C 1900.94 1.942 -0.00437855 0
M  V30 19744 O 1900.21 1.68815 0.966002 0
M  V30 19745 C 1900.5 2.68756 -2.39671 0
M  V30 19746 C 1900.35 2.27211 -3.88195 0
M  V30 19747 C 1901.67 3.70935 -2.36845 0
M  V30 19748 H 1898.79 0.532549 -0.509471 0
M  V30 19749 H 1901.43 0.805057 -1.72101 0
M  V30 19750 H 1899.58 3.25337 -2.1234 0
M  V30 19751 H 1901.25 1.76038 -4.2639 0
M  V30 19752 H 1899.49 1.59108 -4.03568 0
M  V30 19753 H 1900.16 3.14656 -4.53537 0
M  V30 19754 H 1902.64 3.24004 -2.61076 0
M  V30 19755 H 1901.52 4.53876 -3.08687 0
M  V30 19756 H 1901.78 4.19899 -1.38337 0
M  V30 19757 N 1900.84 1.26553 0.939264 0
M  V30 19758 C 1902.08 1.1221 1.68568 0
M  V30 19759 C 1902.41 -0.334213 1.91607 0
M  V30 19760 O 1901.67 -1.26177 1.49593 0
M  V30 19761 C 1901.97 1.83848 3.06488 0
M  V30 19762 C 1901.63 3.33739 3.03198 0
M  V30 19763 C 1900.29 3.74626 3.02008 0
M  V30 19764 C 1902.65 4.29432 2.9536 0
M  V30 19765 C 1899.97 5.0959 2.90748 0
M  V30 19766 C 1902.33 5.64439 2.85641 0
M  V30 19767 C 1900.99 6.04635 2.82795 0
M  V30 19768 H 1900.26 0.410606 0.616833 0
M  V30 19769 H 1902.91 1.57019 1.09623 0
M  V30 19770 H 1901.21 1.31514 3.69068 0
M  V30 19771 H 1902.91 1.70189 3.63093 0
M  V30 19772 H 1899.5 3.01216 3.04905 0
M  V30 19773 H 1903.68 3.98824 2.95386 0
M  V30 19774 H 1898.94 5.39894 2.86923 0
M  V30 19775 H 1903.11 6.3827 2.7854 0
M  V30 19776 H 1900.74 7.09171 2.73826 0
M  V30 19777 N 1902.31 -1.14411 1.08387 0
M  V30 19778 C 1903.59 -1.8162 0.726188 0
M  V30 19779 C 1903.97 -1.95755 -0.790129 0
M  V30 19780 O 1903.32 -1.51725 -1.70856 0
M  V30 19781 C 1903.53 -3.17321 1.45287 0
M  V30 19782 C 1904.88 -3.92818 1.6118 0
M  V30 19783 O 1905.9 -3.2691 1.41451 0
M  V30 19784 O 1904.76 -5.1101 1.93728 0
M  V30 19785 H 1901.85 -0.785182 0.25965 0
M  V30 19786 H 1904.4 -1.21431 1.18544 0
M  V30 19787 H 1903.17 -3.02195 2.48584 0
M  V30 19788 H 1902.8 -3.85203 0.985093 0
M  V30 19789 N 1903.79 -0.869509 -1.31443 0
M  V30 19790 C 1905.02 -0.494667 -2.009 0
M  V30 19791 C 1905.44 0.912728 -1.65272 0
M  V30 19792 O 1904.79 1.59788 -0.881702 0
M  V30 19793 C 1904.84 -0.641585 -3.55761 0
M  V30 19794 O 1904.56 -1.99356 -3.90114 0
M  V30 19795 C 1906.07 -0.267695 -4.42491 0
M  V30 19796 H 1903.29 -0.192789 -0.642708 0
M  V30 19797 H 1905.83 -1.17055 -1.67686 0
M  V30 19798 H 1903.98 -0.0132632 -3.87398 0
M  V30 19799 H 1904.4 -2.00099 -4.8483 0
M  V30 19800 H 1905.87 -0.421448 -5.50389 0
M  V30 19801 H 1906.35 0.793108 -4.3198 0
M  V30 19802 H 1906.96 -0.871698 -4.16271 0
M  V30 19803 N 1905.27 1.44508 -0.628902 0
M  V30 19804 C 1906.55 1.95497 -0.0635197 0
M  V30 19805 C 1906.93 1.57092 1.41015 0
M  V30 19806 O 1906.28 0.843894 2.12346 0
M  V30 19807 C 1906.49 3.47842 -0.284051 0
M  V30 19808 C 1907.83 4.24235 -0.176073 0
M  V30 19809 O 1908.86 3.55549 -0.215298 0
M  V30 19810 O 1907.72 5.46443 -0.0791303 0
M  V30 19811 H 1904.81 0.826664 0.0235829 0
M  V30 19812 H 1907.36 1.5457 -0.70045 0
M  V30 19813 H 1906.13 3.68837 -1.30671 0
M  V30 19814 H 1905.75 3.95711 0.387125 0
M  V30 19815 N 1906.75 0.369315 1.53212 0
M  V30 19816 C 1907.7 -0.490481 2.2737 0
M  V30 19817 C 1908.69 -1.08021 1.30491 0
M  V30 19818 O 1909.9 -1.02298 1.48105 0
M  V30 19819 H 1906.27 -0.176899 0.730897 0
M  V30 19820 H 1908.24 0.156696 2.97988 0
M  V30 19821 C 1906.99 -1.61628 3.0785 0
M  V30 19822 H 1906.32 -1.1718 3.82242 0
M  V30 19823 H 1907.76 -2.19252 3.62911 0
M  V30 19824 C 1906.21 -2.56077 2.18921 0
M  V30 19825 O 1906.74 -3.58988 1.80251 0
M  V30 19826 N 1904.95 -2.25352 1.83479 0
M  V30 19827 H 1904.5 -1.41701 2.15124 0
M  V30 19828 H 1904.46 -2.888 1.24264 0
M  V30 19829 N 1908.23 -1.57291 0.0985816 0
M  V30 19830 C 1909.64 -1.575 -0.258064 0
M  V30 19831 C 1909.84 -1.10997 -1.68172 0
M  V30 19832 O 1908.9 -0.78802 -2.39889 0
M  V30 19833 C 1910.21 -3.00669 -0.0433215 0
M  V30 19834 C 1911.76 -3.12804 -0.110802 0
M  V30 19835 C 1912.24 -4.57937 0.0759907 0
M  V30 19836 N 1913.73 -4.63195 0.021273 0
M  V30 19837 C 1914.46 -5.73227 0.141 0
M  V30 19838 N 1913.96 -6.9208 0.315756 0
M  V30 19839 N 1915.75 -5.6204 0.0820222 0
M  V30 19840 H 1907.9 -1.85826 1.02871 0
M  V30 19841 H 1910.16 -0.857869 0.403441 0
M  V30 19842 H 1909.87 -3.38903 0.940103 0
M  V30 19843 H 1909.74 -3.6896 -0.784124 0
M  V30 19844 H 1912.13 -2.7444 -1.08473 0
M  V30 19845 H 1912.21 -2.47098 0.661548 0
M  V30 19846 H 1911.86 -4.96995 1.04681 0
M  V30 19847 H 1911.79 -5.21708 -0.716096 0
M  V30 19848 H 1914.28 -3.77737 -0.111114 0
M  V30 19849 H 1914.59 -7.71772 0.398531 0
M  V30 19850 H 1912.94 -6.94111 0.351469 0
M  V30 19851 H 1916.13 -4.6807 -0.0533968 0
M  V30 19852 H 1916.3 -6.47753 0.178778 0
M  V30 19853 N 1909.71 0.175127 -1.56624 0
M  V30 19854 C 1910.95 0.890653 -1.8097 0
M  V30 19855 C 1911.27 1.83577 -0.675199 0
M  V30 19856 O 1912.47 2.59338 -0.803492 0
M  V30 19857 C 1910.93 1.63427 -3.20655 0
M  V30 19858 C 1910.54 0.732982 -4.41963 0
M  V30 19859 C 1912.28 2.33825 -3.54297 0
M  V30 19860 C 1910.19 1.47661 -5.72669 0
M  V30 19861 H 1909.12 0.336324 -0.674835 0
M  V30 19862 H 1911.77 0.143627 -1.82937 0
M  V30 19863 H 1910.15 2.42591 -3.12994 0
M  V30 19864 H 1911.33 -0.0214223 -4.60795 0
M  V30 19865 H 1909.64 0.138848 -4.16168 0
M  V30 19866 H 1912.24 2.90048 -4.49195 0
M  V30 19867 H 1912.58 3.08979 -2.78994 0
M  V30 19868 H 1913.11 1.61608 -3.63494 0
M  V30 19869 H 1909.85 0.767472 -6.50992 0
M  V30 19870 H 1909.37 2.20444 -5.57821 0
M  V30 19871 H 1911.05 2.02512 -6.1449 0
M  V30 19872 N 1911.18 1.5123 0.44355 0
M  V30 19873 C 1912.43 1.6359 1.1935 0
M  V30 19874 C 1912.76 0.349172 1.9134 0
M  V30 19875 O 1912.01 -0.66645 1.84003 0
M  V30 19876 C 1912.31 2.78511 2.23978 0
M  V30 19877 C 1911.98 4.18013 1.69045 0
M  V30 19878 C 1910.64 4.55964 1.53786 0
M  V30 19879 C 1912.99 5.05088 1.28591 0
M  V30 19880 C 1910.32 5.78703 0.965374 0
M  V30 19881 C 1912.67 6.284 0.72774 0
M  V30 19882 C 1911.34 6.6513 0.562001 0
M  V30 19883 H 1910.61 0.59862 0.436733 0
M  V30 19884 H 1913.25 1.85245 0.485449 0
M  V30 19885 H 1911.56 2.51054 3.00798 0
M  V30 19886 H 1913.26 2.85275 2.81814 0
M  V30 19887 H 1909.85 3.88087 1.81896 0
M  V30 19888 H 1914.03 4.76378 1.39202 0
M  V30 19889 H 1909.29 6.05813 0.824671 0
M  V30 19890 H 1913.46 6.95217 0.405735 0
M  V30 19891 H 1911.09 7.60111 0.116266 0
M  V30 19892 N 1912.66 -0.698586 1.41271 0
M  V30 19893 C 1913.91 -1.45573 1.40189 0
M  V30 19894 C 1914.23 -1.94997 0.0108379 0
M  V30 19895 O 1913.5 -1.715 -0.946822 0
M  V30 19896 H 1912.08 -0.540134 0.516008 0
M  V30 19897 H 1914.74 -0.827048 1.76482 0
M  V30 19898 H 1913.84 -2.32036 2.08724 0
M  V30 19899 N 1914.14 -1.27049 -0.93254 0
M  V30 19900 C 1915.07 -1.11867 -2.04959 0
M  V30 19901 C 1916.05 -0.0214563 -1.70086 0
M  V30 19902 O 1917.24 -0.195063 -1.93218 0
M  V30 19903 C 1914.37 -0.759993 -3.38883 0
M  V30 19904 C 1913.32 -1.8099 -3.87849 0
M  V30 19905 C 1912.65 -1.30532 -5.18522 0
M  V30 19906 C 1913.95 -3.21309 -4.11774 0
M  V30 19907 H 1915.64 -2.05309 -2.17918 0
M  V30 19908 H 1913.19 -0.988507 -1.04712 0
M  V30 19909 H 1915.14 -0.640623 -4.16502 0
M  V30 19910 H 1913.86 0.210139 -3.25923 0
M  V30 19911 H 1912.52 -1.91809 -3.12418 0
M  V30 19912 H 1912.17 -0.324784 -5.0195 0
M  V30 19913 H 1911.87 -2.00722 -5.52254 0
M  V30 19914 H 1913.39 -1.19879 -5.98716 0
M  V30 19915 H 1914.81 -3.13517 -4.79979 0
M  V30 19916 H 1913.2 -3.89166 -4.56804 0
M  V30 19917 H 1914.27 -3.66722 -3.17243 0
M  V30 19918 N 1915.62 1.13835 -1.08993 0
M  V30 19919 C 1917.03 1.66568 -0.843325 0
M  V30 19920 C 1917.38 1.85846 0.628955 0
M  V30 19921 O 1916.5 1.57401 1.48506 0
M  V30 19922 C 1917.1 3.02573 -1.52431 0
M  V30 19923 C 1915.66 3.52315 -1.3248 0
M  V30 19924 C 1914.81 2.27658 -1.58326 0
M  V30 19925 H 1917.76 0.978181 -1.24969 0
M  V30 19926 H 1917.78 3.68323 -0.954898 0
M  V30 19927 H 1917.29 2.8851 -2.59584 0
M  V30 19928 H 1915.39 3.71589 -0.274248 0
M  V30 19929 H 1915.5 4.32715 -2.05657 0
M  V30 19930 H 1913.87 2.34028 -1.00514 0
M  V30 19931 H 1914.65 2.16165 -2.66698 0
M  V30 19932 N 1917.1 0.876467 1.3098 0
M  V30 19933 C 1918.51 0.569284 1.49102 0
M  V30 19934 C 1918.71 -0.895048 1.8053 0
M  V30 19935 O 1917.77 -1.67682 1.88783 0
M  V30 19936 C 1919.08 1.4751 2.62033 0
M  V30 19937 C 1920.63 1.47783 2.75915 0
M  V30 19938 C 1921.1 2.36937 3.9195 0
M  V30 19939 N 1922.59 2.34853 3.99247 0
M  V30 19940 C 1923.33 3.00553 4.88319 0
M  V30 19941 N 1922.83 3.75446 5.82247 0
M  V30 19942 N 1924.62 2.89828 4.81618 0
M  V30 19943 H 1916.77 1.82388 1.08851 0
M  V30 19944 H 1919.03 0.780233 0.538461 0
M  V30 19945 H 1918.74 2.51737 2.45605 0
M  V30 19946 H 1918.61 1.1784 3.5832 0
M  V30 19947 H 1921 0.443113 2.91754 0
M  V30 19948 H 1921.08 1.81479 1.80275 0
M  V30 19949 H 1920.72 3.40488 3.76869 0
M  V30 19950 H 1920.65 2.00561 4.86911 0
M  V30 19951 H 1923.15 1.80421 3.32049 0
M  V30 19952 H 1923.46 4.2269 6.46957 0
M  V30 19953 H 1921.8 3.79554 5.82206 0
M  V30 19954 H 1924.99 2.30852 4.07216 0
M  V30 19955 H 1925.17 3.41309 5.50829 0
M  V30 19956 N 1918.57 -1.44173 0.636557 0
M  V30 19957 C 1919.48 -2.34507 -0.0661877 0
M  V30 19958 C 1920.5 -1.52931 -0.829947 0
M  V30 19959 O 1921.68 -1.85641 -0.780979 0
M  V30 19960 C 1918.74 -3.30987 -1.03191 0
M  V30 19961 C 1917.8 -4.28469 -0.266924 0
M  V30 19962 C 1917.03 -5.20341 -1.18664 0
M  V30 19963 O 1917.26 -5.1626 -2.42552 0
M  V30 19964 O 1916.19 -5.98181 -0.668035 0
M  V30 19965 H 1920.02 -2.9606 0.676932 0
M  V30 19966 H 1917.6 -1.44036 0.396744 0
M  V30 19967 H 1919.48 -3.9036 -1.58736 0
M  V30 19968 H 1918.16 -2.7196 -1.75555 0
M  V30 19969 H 1917.07 -3.72627 0.331702 0
M  V30 19970 H 1918.4 -4.90432 0.416803 0
M  V30 19971 N 1920.05 -0.377435 -1.53014 0
M  V30 19972 C 1920.98 0.455103 -2.29022 0
M  V30 19973 C 1921.96 1.07375 -1.31926 0
M  V30 19974 O 1923.15 1.08877 -1.60809 0
M  V30 19975 C 1920.28 1.58883 -3.08826 0
M  V30 19976 C 1919.23 1.09683 -4.13707 0
M  V30 19977 C 1918.56 2.32172 -4.81664 0
M  V30 19978 C 1919.86 0.173165 -5.22013 0
M  V30 19979 H 1921.55 -0.179053 -2.98864 0
M  V30 19980 H 1919.1 -0.0875549 -1.43734 0
M  V30 19981 H 1921.05 2.17798 -3.60752 0
M  V30 19982 H 1919.77 2.2504 -2.36695 0
M  V30 19983 H 1918.43 0.530291 -3.62744 0
M  V30 19984 H 1918.08 2.96811 -4.06094 0
M  V30 19985 H 1917.78 1.99919 -5.52545 0
M  V30 19986 H 1919.31 2.91751 -5.3639 0
M  V30 19987 H 1920.72 0.670145 -5.6937 0
M  V30 19988 H 1919.12 -0.0590463 -6.00071 0
M  V30 19989 H 1920.19 -0.781339 -4.78564 0
M  V30 19990 N 1921.53 1.57237 -0.106922 0
M  V30 19991 C 1922.78 1.95064 0.554803 0
M  V30 19992 C 1923.11 0.989597 1.67095 0
M  V30 19993 O 1922.38 0.0246857 1.94484 0
M  V30 19994 C 1922.67 3.42924 1.09887 0
M  V30 19995 C 1922.52 4.49798 -0.0130257 0
M  V30 19996 C 1923.84 3.92358 1.99356 0
M  V30 19997 H 1920.96 0.709287 0.200204 0
M  V30 19998 H 1923.6 1.89145 -0.180032 0
M  V30 19999 H 1921.75 3.48098 1.7251 0
M  V30 20000 H 1923.42 4.56729 -0.647804 0
M  V30 20001 H 1921.67 4.28472 -0.677825 0
M  V30 20002 H 1922.34 5.50485 0.40868 0
M  V30 20003 H 1924.81 3.89411 1.46622 0
M  V30 20004 H 1923.69 4.9636 2.34346 0
M  V30 20005 H 1923.95 3.32343 2.91549 0
M  V30 20006 N 1923.01 -0.166818 1.56715 0
M  V30 20007 C 1924.25 -0.884023 1.82518 0
M  V30 20008 C 1924.59 -1.817 0.685477 0
M  V30 20009 O 1923.86 -1.91977 -0.312277 0
M  V30 20010 C 1924.15 -1.67578 3.18731 0
M  V30 20011 C 1924 -0.765627 4.43236 0
M  V30 20012 C 1925.32 -2.64252 3.51936 0
M  V30 20013 H 1922.44 -0.319938 0.663934 0
M  V30 20014 H 1925.08 -0.150034 1.89407 0
M  V30 20015 H 1923.23 -2.30152 3.1299 0
M  V30 20016 H 1924.9 -0.152422 4.61048 0
M  V30 20017 H 1923.14 -0.0739497 4.33737 0
M  V30 20018 H 1923.81 -1.35523 5.35105 0
M  V30 20019 H 1926.29 -2.11804 3.5816 0
M  V30 20020 H 1925.17 -3.16714 4.48312 0
M  V30 20021 H 1925.43 -3.44667 2.7687 0
M  V30 20022 N 1924.49 -1.51463 -0.435524 0
M  V30 20023 C 1925.71 -1.68031 -1.20719 0
M  V30 20024 C 1926.13 -0.378427 -1.84969 0
M  V30 20025 O 1925.49 0.643234 -1.70789 0
M  V30 20026 C 1925.54 -2.79726 -2.28989 0
M  V30 20027 O 1925.26 -4.0487 -1.67367 0
M  V30 20028 C 1926.76 -3.07578 -3.19234 0
M  V30 20029 H 1923.98 -0.56383 -0.363781 0
M  V30 20030 H 1926.52 -1.97888 -0.515825 0
M  V30 20031 H 1924.68 -2.52463 -2.93839 0
M  V30 20032 H 1925.09 -4.66915 -2.38937 0
M  V30 20033 H 1926.57 -3.89309 -3.91334 0
M  V30 20034 H 1927.04 -2.20059 -3.80093 0
M  V30 20035 H 1927.65 -3.36507 -2.60083 0
M  V30 20036 N 1925.96 0.691085 -1.4164 0
M  V30 20037 C 1927.21 1.45329 -1.41447 0
M  V30 20038 C 1927.54 1.94184 -0.0249758 0
M  V30 20039 O 1926.82 1.69831 0.948043 0
M  V30 20040 C 1927.1 2.66199 -2.42508 0
M  V30 20041 C 1926.95 2.23081 -3.90583 0
M  V30 20042 C 1928.27 3.68402 -2.40766 0
M  V30 20043 H 1925.39 0.527115 -0.515091 0
M  V30 20044 H 1928.03 0.786758 -1.72945 0
M  V30 20045 H 1926.18 3.23066 -2.15778 0
M  V30 20046 H 1927.86 1.71506 -4.28233 0
M  V30 20047 H 1926.1 1.54818 -4.05233 0
M  V30 20048 H 1926.77 3.09828 -4.56848 0
M  V30 20049 H 1929.25 3.21217 -2.64497 0
M  V30 20050 H 1928.12 4.50576 -3.13484 0
M  V30 20051 H 1928.38 4.18408 -1.42783 0
M  V30 20052 N 1927.44 1.27542 0.925789 0
M  V30 20053 C 1928.67 1.16921 1.71301 0
M  V30 20054 C 1929.09 -0.270082 1.86151 0
M  V30 20055 O 1928.45 -1.19558 1.36293 0
M  V30 20056 C 1928.5 1.8599 3.08934 0
M  V30 20057 O 1927.6 1.15917 3.95774 0
M  V30 20058 H 1926.94 0.406542 0.524995 0
M  V30 20059 H 1929.47 1.68646 1.15843 0
M  V30 20060 H 1929.48 1.93424 3.59237 0
M  V30 20061 H 1928.16 2.9069 2.97443 0
M  V30 20062 H 1926.74 1.16564 3.54213 0
M  V30 20063 N 1928.92 -1.13255 1.09595 0
M  V30 20064 C 1930.17 -1.84206 0.831411 0
M  V30 20065 C 1930.49 -1.8403 -0.64483 0
M  V30 20066 O 1929.76 -1.29728 -1.46791 0
M  V30 20067 H 1928.34 -0.682085 0.304579 0
M  V30 20068 H 1931 -1.37183 1.38444 0
M  V30 20069 H 1930.1 -2.88667 1.18649 0
M  V30 20070 N 1930.4 -0.883401 -1.30514 0
M  V30 20071 C 1931.36 -0.353908 -2.26451 0
M  V30 20072 C 1932.36 0.502723 -1.52739 0
M  V30 20073 O 1933.55 0.310104 -1.71418 0
M  V30 20074 C 1930.68 0.495846 -3.37275 0
M  V30 20075 H 1931.88 -1.20101 -2.74801 0
M  V30 20076 H 1929.43 -0.660124 -1.41676 0
M  V30 20077 H 1930.16 1.3636 -2.94239 0
M  V30 20078 H 1929.95 -0.117731 -3.91923 0
M  V30 20079 H 1931.44 0.858149 -4.08688 0
M  V30 20080 N 1931.88 1.43833 -0.644194 0
M  V30 20081 C 1933.1 2.0627 -0.161397 0
M  V30 20082 C 1933.52 1.4823 1.16933 0
M  V30 20083 O 1932.88 0.610133 1.71999 0
M  V30 20084 C 1932.93 3.61459 -0.0545357 0
M  V30 20085 O 1932.65 4.17339 -1.33265 0
M  V30 20086 C 1934.15 4.40955 0.455411 0
M  V30 20087 H 1931.37 0.665503 -0.0857112 0
M  V30 20088 H 1933.91 1.84488 -0.882291 0
M  V30 20089 H 1932.07 3.82457 0.616868 0
M  V30 20090 H 1932.48 5.10916 -1.18597 0
M  V30 20091 H 1933.96 5.49916 0.479159 0
M  V30 20092 H 1934.43 4.13333 1.485 0
M  V30 20093 H 1935.04 4.24905 -0.18319 0
M  V30 20094 N 1933.35 0.385544 1.52811 0
M  V30 20095 C 1934.29 -0.495455 2.22757 0
M  V30 20096 C 1935.27 -1.06709 1.22687 0
M  V30 20097 O 1936.45 -1.11944 1.5166 0
M  V30 20098 C 1933.58 -1.68545 2.93786 0
M  V30 20099 C 1932.62 -1.23942 4.08094 0
M  V30 20100 S 1933.46 -0.22408 5.35031 0
M  V30 20101 C 1934.61 -1.41995 6.0958 0
M  V30 20102 H 1934.84 0.0985156 2.97137 0
M  V30 20103 H 1932.38 0.169717 1.53464 0
M  V30 20104 H 1934.34 -2.36794 3.35319 0
M  V30 20105 H 1933 -2.25071 2.19093 0
M  V30 20106 H 1932.19 -2.12783 4.5688 0
M  V30 20107 H 1931.79 -0.635901 3.68554 0
M  V30 20108 H 1934.08 -2.34766 6.35524 0
M  V30 20109 H 1935.03 -0.973078 7.01382 0
M  V30 20110 H 1935.43 -1.63505 5.40302 0
M  V30 20111 N 1934.83 -1.57178 0.115259 0
M  V30 20112 C 1936.06 -1.99842 -0.554802 0
M  V30 20113 C 1936.48 -0.994368 -1.59668 0
M  V30 20114 O 1935.84 0.0344531 -1.81267 0
M  V30 20115 C 1935.89 -3.41399 -1.16099 0
M  V30 20116 O 1934.99 -3.43868 -2.27659 0
M  V30 20117 H 1934.33 -0.649301 -0.138937 0
M  V30 20118 H 1936.86 -2.03594 0.202629 0
M  V30 20119 H 1936.87 -3.79527 -1.49743 0
M  V30 20120 H 1935.55 -4.13993 -0.397827 0
M  V30 20121 H 1934.13 -3.17555 -1.95482 0
M  V30 20122 N 1936.31 0.158505 -1.56801 0
M  V30 20123 C 1937.27 1.17986 -1.96499 0
M  V30 20124 C 1938.27 1.3649 -0.850127 0
M  V30 20125 O 1939.46 1.33678 -1.11696 0
M  V30 20126 C 1936.6 2.54245 -2.27095 0
M  V30 20127 H 1937.79 0.839577 -2.87908 0
M  V30 20128 H 1935.34 0.401431 -1.51057 0
M  V30 20129 H 1936.08 2.93266 -1.38441 0
M  V30 20130 H 1935.86 2.42179 -3.0837 0
M  V30 20131 H 1937.35 3.27829 -2.58686 0
M  V30 20132 N 1937.79 1.51692 0.427485 0
M  V30 20133 C 1938.72 1.76668 1.52679 0
M  V30 20134 C 1939.7 0.616865 1.58521 0
M  V30 20135 O 1940.89 0.860595 1.7409 0
M  V30 20136 C 1938.02 1.9007 2.90673 0
M  V30 20137 C 1936.97 3.05566 2.99689 0
M  V30 20138 C 1936.3 3.04165 4.39759 0
M  V30 20139 C 1937.6 4.45359 2.72861 0
M  V30 20140 H 1939.29 2.68717 1.32029 0
M  V30 20141 H 1936.84 1.29306 0.633716 0
M  V30 20142 H 1938.79 2.06125 3.67546 0
M  V30 20143 H 1937.51 0.946769 3.12576 0
M  V30 20144 H 1936.17 2.89231 2.25257 0
M  V30 20145 H 1935.82 2.0653 4.58644 0
M  V30 20146 H 1935.52 3.81727 4.46719 0
M  V30 20147 H 1937.04 3.22326 5.18592 0
M  V30 20148 H 1938.46 4.61993 3.39463 0
M  V30 20149 H 1936.85 5.24701 2.91219 0
M  V30 20150 H 1937.92 4.54717 1.68405 0
M  V30 20151 N 1939.27 -0.683564 1.42004 0
M  V30 20152 C 1940.52 -1.43934 1.413 0
M  V30 20153 C 1940.83 -1.95578 0.0296606 0
M  V30 20154 O 1942.04 -2.71316 -0.0999859 0
M  V30 20155 C 1940.49 -2.60331 2.48507 0
M  V30 20156 C 1940.1 -2.15424 3.92806 0
M  V30 20157 C 1941.84 -3.37895 2.56957 0
M  V30 20158 C 1939.75 -3.28851 4.91539 0
M  V30 20159 H 1938.68 -0.540693 0.525516 0
M  V30 20160 H 1941.33 -0.740914 1.67877 0
M  V30 20161 H 1939.71 -3.325 2.15081 0
M  V30 20162 H 1940.89 -1.50466 4.35542 0
M  V30 20163 H 1939.2 -1.50822 3.88126 0
M  V30 20164 H 1941.8 -4.22355 3.27903 0
M  V30 20165 H 1942.14 -3.83896 1.61027 0
M  V30 20166 H 1942.68 -2.72791 2.89534 0
M  V30 20167 H 1939.41 -2.87851 5.88916 0
M  V30 20168 H 1938.93 -3.92619 4.53443 0
M  V30 20169 H 1940.61 -3.9445 5.12853 0
M  V30 20170 N 1940.75 -1.28031 -0.919012 0
M  V30 20171 C 1941.68 -1.14034 -2.03761 0
M  V30 20172 C 1942.66 -0.039495 -1.70054 0
M  V30 20173 O 1943.84 -0.215546 -1.93 0
M  V30 20174 C 1940.97 -0.795894 -3.38057 0
M  V30 20175 C 1939.93 -1.85093 -3.85907 0
M  V30 20176 C 1939.25 -1.36024 -5.17109 0
M  V30 20177 C 1940.55 -3.25658 -4.08343 0
M  V30 20178 H 1942.25 -2.07609 -2.15729 0
M  V30 20179 H 1939.79 -0.999558 -1.03657 0
M  V30 20180 H 1941.74 -0.684762 -4.15799 0
M  V30 20181 H 1940.47 0.175558 -3.26128 0
M  V30 20182 H 1939.13 -1.95112 -3.10366 0
M  V30 20183 H 1938.78 -0.378004 -5.01578 0
M  V30 20184 H 1938.48 -2.06568 -5.50094 0
M  V30 20185 H 1940 -1.26223 -5.97411 0
M  V30 20186 H 1941.41 -3.1859 -4.76627 0
M  V30 20187 H 1939.81 -3.93989 -4.52651 0
M  V30 20188 H 1940.88 -3.70066 -3.13335 0
M  V30 20189 N 1942.22 1.12672 -1.10194 0
M  V30 20190 C 1943.45 1.87955 -0.864907 0
M  V30 20191 C 1943.87 1.79527 0.584436 0
M  V30 20192 O 1943.22 1.1674 1.40278 0
M  V30 20193 C 1943.27 3.37261 -1.30143 0
M  V30 20194 O 1943 3.45483 -2.69394 0
M  V30 20195 C 1944.5 4.29488 -1.09793 0
M  V30 20196 H 1941.72 0.594777 -0.310614 0
M  V30 20197 H 1944.26 1.42583 -1.46596 0
M  V30 20198 H 1942.42 3.80187 -0.744103 0
M  V30 20199 H 1942.83 4.38357 -2.87999 0
M  V30 20200 H 1944.3 5.32546 -1.45254 0
M  V30 20201 H 1944.78 4.39185 -0.0363527 0
M  V30 20202 H 1945.39 3.92341 -1.6416 0
M  V30 20203 N 1943.7 0.89031 1.30043 0
M  V30 20204 C 1944.66 0.365912 2.2626 0
M  V30 20205 C 1945.66 -0.494616 1.53004 0
M  V30 20206 O 1946.85 -0.301009 1.7158 0
M  V30 20207 C 1943.99 -0.477952 3.37533 0
M  V30 20208 H 1945.18 1.21557 2.7416 0
M  V30 20209 H 1942.73 0.667628 1.41324 0
M  V30 20210 H 1943.47 -1.34798 2.94958 0
M  V30 20211 H 1943.25 0.138514 3.91855 0
M  V30 20212 H 1944.74 -0.836463 4.09137 0
M  V30 20213 N 1945.18 -1.43489 0.651812 0
M  V30 20214 C 1946.42 -2.03707 0.168214 0
M  V30 20215 C 1946.78 -1.50302 -1.19471 0
M  V30 20216 O 1947.98 -2.02154 -1.77164 0
M  V30 20217 C 1946.26 -3.56964 0.176447 0
M  V30 20218 S 1947.81 -4.38146 -0.239511 0
M  V30 20219 H 1944.63 -0.70742 0.0712573 0
M  V30 20220 H 1947.23 -1.75577 0.859833 0
M  V30 20221 H 1945.94 -3.93335 1.17115 0
M  V30 20222 H 1945.47 -3.89735 -0.535755 0
M  V30 20223 H 1947.48 -4.73654 -1.47874 0
M  V30 20224 N 1946.66 -0.393643 -1.52605 0
M  V30 20225 C 1947.91 0.188423 -2.00818 0
M  V30 20226 C 1948.22 1.47537 -1.28422 0
M  V30 20227 O 1949.43 2.13775 -1.6737 0
M  V30 20228 C 1947.88 0.386341 -3.5782 0
M  V30 20229 C 1947.49 -0.887606 -4.39119 0
M  V30 20230 C 1949.23 0.924537 -4.1431 0
M  V30 20231 C 1947.14 -0.657729 -5.87731 0
M  V30 20232 H 1946.07 0.0741894 -0.750341 0
M  V30 20233 H 1948.72 -0.516709 -1.76075 0
M  V30 20234 H 1947.1 1.15343 -3.7883 0
M  V30 20235 H 1948.28 -1.65965 -4.29875 0
M  V30 20236 H 1946.59 -1.35107 -3.93872 0
M  V30 20237 H 1949.19 1.1123 -5.23003 0
M  V30 20238 H 1949.53 1.89484 -3.70677 0
M  V30 20239 H 1950.07 0.216908 -3.97208 0
M  V30 20240 H 1946.8 -1.59915 -6.35694 0
M  V30 20241 H 1946.32 0.0752963 -5.99753 0
M  V30 20242 H 1948 -0.293935 -6.46332 0
M  V30 20243 N 1948.14 1.57115 -0.123593 0
M  V30 20244 C 1949.38 1.94527 0.533131 0
M  V30 20245 C 1949.7 1.0095 1.67536 0
M  V30 20246 O 1950.9 1.27846 2.39515 0
M  V30 20247 C 1949.36 3.45735 0.999783 0
M  V30 20248 C 1948.97 4.47854 -0.114238 0
M  V30 20249 C 1950.71 3.92057 1.62762 0
M  V30 20250 C 1948.62 5.90245 0.36937 0
M  V30 20251 H 1947.55 0.726179 0.20293 0
M  V30 20252 H 1950.2 1.8236 -0.204183 0
M  V30 20253 H 1948.58 3.53151 1.79166 0
M  V30 20254 H 1949.76 4.52111 -0.890627 0
M  V30 20255 H 1948.07 4.11311 -0.649019 0
M  V30 20256 H 1950.67 4.9586 2.00067 0
M  V30 20257 H 1951.01 3.3229 2.50777 0
M  V30 20258 H 1951.54 3.8746 0.901074 0
M  V30 20259 H 1948.28 6.53778 -0.474837 0
M  V30 20260 H 1947.8 5.89399 1.11214 0
M  V30 20261 H 1949.48 6.41666 0.829093 0
M  V30 20262 N 1949.61 -0.150187 1.56883 0
M  V30 20263 C 1950.86 -0.859806 1.84334 0
M  V30 20264 C 1951.21 -1.78934 0.707134 0
M  V30 20265 O 1950.51 -1.89314 -0.29512 0
M  V30 20266 C 1950.7 -1.67394 3.15775 0
M  V30 20267 C 1950.53 -0.824738 4.42073 0
M  V30 20268 C 1949.3 -0.491592 5.02903 0
M  V30 20269 C 1951.5 -0.156535 5.14062 0
M  V30 20270 N 1949.48 0.371543 6.12775 0
M  V30 20271 C 1950.85 0.566871 6.17403 0
M  V30 20272 C 1952.91 -0.0768789 4.97841 0
M  V30 20273 C 1951.61 1.36241 7.0628 0
M  V30 20274 C 1953.64 0.705387 5.87178 0
M  V30 20275 C 1953 1.41709 6.89999 0
M  V30 20276 H 1949.1 -0.292557 0.725213 0
M  V30 20277 H 1951.68 -0.12538 1.94296 0
M  V30 20278 H 1949.85 -2.37963 3.06966 0
M  V30 20279 H 1951.58 -2.32649 3.31145 0
M  V30 20280 H 1948.34 -0.826634 4.6633 0
M  V30 20281 H 1948.76 0.794041 6.72327 0
M  V30 20282 H 1953.4 -0.61276 4.18336 0
M  V30 20283 H 1951.12 1.90956 7.85214 0
M  V30 20284 H 1954.71 0.76897 5.76696 0
M  V30 20285 H 1953.59 2.01268 7.57932 0
M  V30 20286 N 1951.09 -1.51916 -0.419434 0
M  V30 20287 C 1952.33 -1.67139 -1.17661 0
M  V30 20288 C 1952.7 -0.387862 -1.88042 0
M  V30 20289 O 1953.9 -0.416066 -2.6556 0
M  V30 20290 C 1952.17 -2.853 -2.15264 0
M  V30 20291 S 1953.73 -3.2095 -2.99227 0
M  V30 20292 H 1950.55 -0.58866 -0.398748 0
M  V30 20293 H 1953.15 -1.89879 -0.46544 0
M  V30 20294 H 1951.85 -3.76975 -1.62228 0
M  V30 20295 H 1951.38 -2.64803 -2.90935 0
M  V30 20296 H 1953.4 -2.68772 -4.17104 0
M  V30 20297 N 1952.57 0.676023 -1.42365 0
M  V30 20298 C 1953.82 1.43183 -1.42062 0
M  V30 20299 C 1954.13 1.95559 -0.0400321 0
M  V30 20300 O 1955.34 2.71365 0.0855959 0
M  V30 20301 C 1953.79 2.5901 -2.49884 0
M  V30 20302 C 1953.4 2.13338 -3.93943 0
M  V30 20303 C 1955.15 3.36528 -2.58746 0
M  V30 20304 C 1953.05 3.2624 -4.93276 0
M  V30 20305 H 1951.98 0.537899 -0.528376 0
M  V30 20306 H 1954.63 0.732001 -1.68268 0
M  V30 20307 H 1953.02 3.31355 -2.16841 0
M  V30 20308 H 1954.19 1.48154 -4.36334 0
M  V30 20309 H 1952.51 1.48761 -3.8892 0
M  V30 20310 H 1955.1 4.2061 -3.30138 0
M  V30 20311 H 1955.45 3.83036 -1.63061 0
M  V30 20312 H 1955.98 2.71252 -2.90977 0
M  V30 20313 H 1952.72 2.84724 -5.90434 0
M  V30 20314 H 1952.24 3.90209 -4.55518 0
M  V30 20315 H 1953.92 3.91725 -5.14938 0
M  V30 20316 N 1954.05 1.28517 0.912209 0
M  V30 20317 C 1955.29 1.17014 1.67592 0
M  V30 20318 C 1955.65 -0.27643 1.9 0
M  V30 20319 O 1956.85 -0.514187 2.63836 0
M  V30 20320 C 1955.12 1.94823 2.99631 0
M  V30 20321 S 1956.68 1.99713 3.90717 0
M  V30 20322 H 1953.5 0.417458 0.575543 0
M  V30 20323 H 1956.1 1.62637 1.08488 0
M  V30 20324 H 1954.81 2.99087 2.81025 0
M  V30 20325 H 1954.34 1.49757 3.63781 0
M  V30 20326 H 1956.35 1.10475 4.83745 0
M  V30 20327 N 1955.53 -1.12086 1.1079 0
M  V30 20328 C 1956.75 -1.88034 0.875097 0
M  V30 20329 C 1957.18 -1.79281 -0.569191 0
M  V30 20330 O 1956.53 -1.15037 -1.40129 0
M  V30 20331 C 1956.58 -3.35066 1.33278 0
M  V30 20332 O 1955.69 -4.09356 0.500163 0
M  V30 20333 H 1955.03 -0.584116 0.31576 0
M  V30 20334 H 1957.56 -1.41725 1.47564 0
M  V30 20335 H 1957.57 -3.85908 1.32434 0
M  V30 20336 H 1956.24 -3.40753 2.38453 0
M  V30 20337 H 1954.82 -3.68454 0.574137 0
M  V30 20338 N 1957 -0.897194 -1.29569 0
M  V30 20339 C 1958.25 -0.517823 -1.9494 0
M  V30 20340 C 1958.57 0.940096 -1.71527 0
M  V30 20341 O 1959.77 1.42687 -2.30982 0
M  V30 20342 C 1958.23 -0.875183 -3.49097 0
M  V30 20343 C 1957.84 -2.3517 -3.81312 0
M  V30 20344 C 1959.58 -0.565601 -4.20715 0
M  V30 20345 C 1957.49 -2.65005 -5.28702 0
M  V30 20346 H 1956.42 -0.189928 -0.729687 0
M  V30 20347 H 1959.07 -1.09385 -1.47334 0
M  V30 20348 H 1957.45 -0.228115 -3.95342 0
M  V30 20349 H 1958.62 -3.04411 -3.45934 0
M  V30 20350 H 1956.94 -2.63005 -3.22827 0
M  V30 20351 H 1959.54 -0.765387 -5.29194 0
M  V30 20352 H 1959.88 0.49573 -4.13338 0
M  V30 20353 H 1960.41 -1.1704 -3.80193 0
M  V30 20354 H 1957.15 -3.69927 -5.41142 0
M  V30 20355 H 1956.67 -2.00386 -5.65337 0
M  V30 20356 H 1958.35 -2.51141 -5.96269 0
M  V30 20357 N 1958.48 1.43142 -0.659413 0
M  V30 20358 C 1959.43 2.30783 0.0284037 0
M  V30 20359 C 1960.4 1.451 0.808407 0
M  V30 20360 O 1961.58 1.73959 0.783764 0
M  V30 20361 C 1958.72 3.30758 0.984529 0
M  V30 20362 C 1957.84 4.31537 0.199975 0
M  V30 20363 C 1956.97 5.18592 1.15046 0
M  V30 20364 C 1956.01 6.1106 0.356695 0
M  V30 20365 N 1955.15 6.90718 1.25909 0
M  V30 20366 H 1959.99 2.89051 -0.724821 0
M  V30 20367 H 1957.53 1.42392 -0.369192 0
M  V30 20368 H 1959.48 3.87236 1.55254 0
M  V30 20369 H 1958.11 2.74125 1.70456 0
M  V30 20370 H 1957.17 3.77303 -0.484425 0
M  V30 20371 H 1958.48 4.97054 -0.416974 0
M  V30 20372 H 1957.63 5.79727 1.7889 0
M  V30 20373 H 1956.37 4.53215 1.80131 0
M  V30 20374 H 1955.38 5.49008 -0.295063 0
M  V30 20375 H 1956.6 6.78481 -0.28984 0
M  V30 20376 H 1954.55 6.27984 1.89662 0
M  V30 20377 H 1954.46 7.52782 0.69685 0
M  V30 20378 H 1955.73 7.56353 1.88549 0
M  V30 20379 N 1959.96 0.40173 1.52394 0
M  V30 20380 C 1961.19 -0.178662 2.06629 0
M  V30 20381 C 1961.61 -1.3871 1.27048 0
M  V30 20382 O 1960.97 -1.78821 0.298765 0
M  V30 20383 C 1961.02 -0.514797 3.56906 0
M  V30 20384 O 1960.12 -1.60691 3.79805 0
M  V30 20385 H 1959.46 -0.0174284 0.663771 0
M  V30 20386 H 1961.99 0.572792 1.96419 0
M  V30 20387 H 1962 -0.775554 4.00561 0
M  V30 20388 H 1960.68 0.368624 4.14263 0
M  V30 20389 H 1959.25 -1.3389 3.48034 0
M  V30 20390 N 1961.44 -1.57047 0.131923 0
M  V30 20391 C 1962.39 -2.17261 -0.830686 0
M  V30 20392 C 1963.38 -1.12538 -1.26616 0
M  V30 20393 O 1964.59 -1.30818 -1.23639 0
M  V30 20394 H 1960.96 -0.695476 -0.286037 0
M  V30 20395 H 1962.93 -2.96903 -0.29848 0
M  V30 20396 C 1961.68 -2.79677 -2.06582 0
M  V30 20397 H 1961 -3.59965 -1.73969 0
M  V30 20398 H 1962.44 -3.2533 -2.71912 0
M  V30 20399 C 1960.9 -1.77413 -2.86402 0
M  V30 20400 O 1961.43 -1.23537 -3.82232 0
M  V30 20401 N 1959.64 -1.47059 -2.50643 0
M  V30 20402 H 1959.19 -1.91062 -1.7278 0
M  V30 20403 H 1959.14 -0.788806 -3.04344 0
M  V30 20404 N 1962.92 0.141865 -1.5696 0
M  V30 20405 C 1964.33 0.494676 -1.5174 0
M  V30 20406 C 1964.53 1.83101 -0.8412 0
M  V30 20407 O 1963.59 2.49085 -0.413886 0
M  V30 20408 C 1964.9 0.500247 -2.9651 0
M  V30 20409 C 1966.45 0.585404 -3.07477 0
M  V30 20410 C 1966.92 0.621588 -4.53762 0
M  V30 20411 N 1968.42 0.683668 -4.58127 0
M  V30 20412 C 1969.15 0.732734 -5.68699 0
M  V30 20413 N 1968.65 0.740833 -6.88828 0
M  V30 20414 N 1970.44 0.774006 -5.56745 0
M  V30 20415 H 1962.59 -0.734022 -1.99314 0
M  V30 20416 H 1964.85 -0.268231 -0.909261 0
M  V30 20417 H 1964.56 -0.413562 -3.4926 0
M  V30 20418 H 1964.43 1.33632 -3.52735 0
M  V30 20419 H 1966.82 1.48963 -2.54743 0
M  V30 20420 H 1966.9 -0.277919 -2.54286 0
M  V30 20421 H 1966.55 -0.278504 -5.07136 0
M  V30 20422 H 1966.48 1.50147 -5.04741 0
M  V30 20423 H 1968.97 0.6845 -3.71649 0
M  V30 20424 H 1969.28 0.780262 -7.68851 0
M  V30 20425 H 1967.62 0.708625 -6.91378 0
M  V30 20426 H 1970.82 0.764885 -4.61809 0
M  V30 20427 H 1970.99 0.808779 -6.42933 0
M  V30 20428 N 1964.39 1.52136 0.411372 0
M  V30 20429 C 1965.34 1.717 1.50011 0
M  V30 20430 C 1966.33 0.570895 1.50431 0
M  V30 20431 O 1967.52 0.827873 1.56446 0
M  V30 20432 C 1964.65 1.86904 2.87961 0
M  V30 20433 C 1963.74 3.07379 2.92197 0
M  V30 20434 N 1964.13 4.30124 2.66133 0
M  V30 20435 C 1962.42 3.07167 3.23365 0
M  V30 20436 C 1963.13 5.11579 2.76879 0
M  V30 20437 N 1962.1 4.46777 3.09663 0
M  V30 20438 H 1965.9 2.64246 1.28651 0
M  V30 20439 H 1963.42 1.50138 0.61905 0
M  V30 20440 H 1965.41 1.99036 3.6632 0
M  V30 20441 H 1964.07 0.955566 3.10321 0
M  V30 20442 H 1965.09 4.58635 2.4057 0
M  V30 20443 H 1961.76 2.25548 3.51333 0
M  V30 20444 H 1963.15 6.19362 2.60463 0
M  V30 20445 N 1965.87 -0.668464 1.42721 0
M  V30 20446 C 1966.82 -1.78184 1.46694 0
M  V30 20447 C 1967.79 -1.63023 0.318213 0
M  V30 20448 O 1968.98 -1.83486 0.523198 0
M  V30 20449 C 1966.12 -3.16254 1.3812 0
M  V30 20450 C 1965.23 -3.42657 2.63078 0
M  V30 20451 C 1964.36 -4.7049 2.46602 0
M  V30 20452 C 1963.4 -4.89948 3.66902 0
M  V30 20453 N 1962.54 -6.09027 3.49329 0
M  V30 20454 H 1967.38 -1.74123 2.41837 0
M  V30 20455 H 1964.92 -0.849937 1.2006 0
M  V30 20456 H 1966.87 -3.96051 1.31146 0
M  V30 20457 H 1965.5 -3.19423 0.46569 0
M  V30 20458 H 1964.56 -2.57068 2.80393 0
M  V30 20459 H 1965.87 -3.52926 3.52484 0
M  V30 20460 H 1965.02 -5.58388 2.37249 0
M  V30 20461 H 1963.76 -4.62515 1.54696 0
M  V30 20462 H 1962.77 -4.0049 3.7668 0
M  V30 20463 H 1963.99 -4.99764 4.59797 0
M  V30 20464 H 1961.94 -6.02213 2.60146 0
M  V30 20465 H 1961.85 -6.20186 4.32326 0
M  V30 20466 H 1963.12 -6.99587 3.438 0
M  V30 20467 N 1967.35 -1.28999 -0.905381 0
M  V30 20468 C 1968.63 -1.07329 -1.63523 0
M  V30 20469 C 1969.01 0.384519 -2.07568 0
M  V30 20470 O 1968.36 1.37223 -1.82708 0
M  V30 20471 C 1968.57 -2.05563 -2.82037 0
M  V30 20472 C 1969.91 -2.3617 -3.52858 0
M  V30 20473 O 1970.94 -2.03713 -2.92198 0
M  V30 20474 O 1969.8 -2.91601 -4.62202 0
M  V30 20475 H 1966.89 -0.410796 -0.717757 0
M  V30 20476 H 1969.44 -1.40349 -0.953949 0
M  V30 20477 H 1968.21 -3.03779 -2.46645 0
M  V30 20478 H 1967.83 -1.73238 -3.57875 0
M  V30 20479 N 1968.83 1.11497 -1.11383 0
M  V30 20480 C 1970.08 1.8286 -0.860611 0
M  V30 20481 C 1970.4 1.85032 0.615471 0
M  V30 20482 O 1969.67 1.32047 1.44708 0
M  V30 20483 H 1968.25 0.677153 -0.315392 0
M  V30 20484 H 1970.91 1.34963 -1.40609 0
M  V30 20485 H 1970.01 2.86743 -1.23227 0
M  V30 20486 N 1970.31 0.904053 1.29092 0
M  V30 20487 C 1971.55 0.532203 1.95381 0
M  V30 20488 C 1971.88 -0.922327 1.71241 0
M  V30 20489 O 1971.14 -1.66968 1.02079 0
M  V30 20490 C 1971.44 0.776255 3.48868 0
M  V30 20491 C 1971.1 2.20882 3.93093 0
M  V30 20492 C 1969.76 2.60052 4.04878 0
M  V30 20493 C 1972.12 3.14152 4.15882 0
M  V30 20494 C 1969.44 3.91663 4.36826 0
M  V30 20495 C 1971.8 4.45317 4.49306 0
M  V30 20496 C 1970.46 4.84354 4.59301 0
M  V30 20497 H 1969.73 0.194747 0.714951 0
M  V30 20498 H 1972.38 1.14354 1.53608 0
M  V30 20499 H 1970.68 0.0820369 3.91714 0
M  V30 20500 H 1972.38 0.467861 3.98261 0
M  V30 20501 H 1968.97 1.89485 3.84439 0
M  V30 20502 H 1973.15 2.85103 4.06239 0
M  V30 20503 H 1968.41 4.21623 4.42769 0
M  V30 20504 H 1972.58 5.17611 4.65888 0
M  V30 20505 H 1970.21 5.86371 4.83811 0
M  V30 20506 N 1971.79 -1.4279 0.666995 0
M  V30 20507 C 1972.74 -2.27967 -0.0387665 0
M  V30 20508 C 1973.72 -1.40659 -0.781266 0
M  V30 20509 O 1974.91 -1.64176 -0.661464 0
M  V30 20510 C 1972.04 -3.28569 -0.994837 0
M  V30 20511 C 1971.13 -4.23362 -0.250089 0
M  V30 20512 N 1971.52 -5.00345 0.740833 0
M  V30 20513 C 1969.82 -4.43304 -0.489628 0
M  V30 20514 C 1970.52 -5.6952 1.18413 0
M  V30 20515 N 1969.49 -5.41149 0.515624 0
M  V30 20516 H 1973.29 -2.84908 0.721413 0
M  V30 20517 H 1970.81 -1.54659 0.49541 0
M  V30 20518 H 1972.81 -3.88384 -1.51536 0
M  V30 20519 H 1971.47 -2.73189 -1.75493 0
M  V30 20520 H 1972.48 -5.05643 1.12008 0
M  V30 20521 H 1969.15 -3.98976 -1.22982 0
M  V30 20522 H 1970.54 -6.41293 2.00482 0
M  V30 20523 N 1973.26 -0.409806 -1.52179 0
M  V30 20524 C 1974.68 -0.0607174 -1.59484 0
M  V30 20525 C 1974.88 1.42703 -1.42261 0
M  V30 20526 O 1973.94 2.19394 -1.24991 0
M  V30 20527 C 1975.25 -0.556238 -2.95511 0
M  V30 20528 C 1976.8 -0.514272 -3.08746 0
M  V30 20529 C 1977.27 -0.986314 -4.47254 0
M  V30 20530 N 1978.76 -0.943162 -4.53496 0
M  V30 20531 C 1979.5 -1.27959 -5.5894 0
M  V30 20532 N 1978.99 -1.6875 -6.71934 0
M  V30 20533 N 1980.79 -1.19951 -5.49152 0
M  V30 20534 H 1972.94 -1.37813 -1.61621 0
M  V30 20535 H 1975.2 -0.566181 -0.760357 0
M  V30 20536 H 1974.91 -1.5961 -3.13397 0
M  V30 20537 H 1974.78 0.033749 -3.77185 0
M  V30 20538 H 1977.17 0.516546 -2.90544 0
M  V30 20539 H 1977.25 -1.14032 -2.28977 0
M  V30 20540 H 1976.89 -2.01546 -4.66199 0
M  V30 20541 H 1976.82 -0.337071 -5.2552 0
M  V30 20542 H 1979.31 -0.64326 -3.72385 0
M  V30 20543 H 1979.63 -1.9273 -7.48381 0
M  V30 20544 H 1977.97 -1.72654 -6.73213 0
M  V30 20545 H 1981.16 -0.879693 -4.5976 0
M  V30 20546 H 1981.34 -1.465 -6.31222 0
M  V30 20547 N 1974.74 1.56975 -0.14025 0
M  V30 20548 C 1975.67 2.19432 0.798233 0
M  V30 20549 C 1976.65 1.14055 1.26196 0
M  V30 20550 O 1977.84 1.42373 1.32074 0
M  V30 20551 C 1974.97 2.81059 2.04018 0
M  V30 20552 C 1973.92 3.92204 1.71347 0
M  V30 20553 C 1973.25 4.40735 3.02748 0
M  V30 20554 C 1974.55 5.13302 0.965327 0
M  V30 20555 H 1976.24 2.98109 0.277716 0
M  V30 20556 H 1973.79 1.43392 0.132137 0
M  V30 20557 H 1975.74 3.23417 2.70147 0
M  V30 20558 H 1974.46 1.99703 2.5843 0
M  V30 20559 H 1973.12 3.50454 1.07599 0
M  V30 20560 H 1972.77 3.5621 3.55138 0
M  V30 20561 H 1972.47 5.15698 2.81654 0
M  V30 20562 H 1974 4.85759 3.6996 0
M  V30 20563 H 1975.41 5.52547 1.52857 0
M  V30 20564 H 1973.81 5.93984 0.854574 0
M  V30 20565 H 1974.88 4.8488 -0.0441688 0
M  V30 20566 N 1976.22 -0.133539 1.57033 0
M  V30 20567 C 1977.64 -0.486622 1.52 0
M  V30 20568 C 1977.84 -1.82653 0.850899 0
M  V30 20569 O 1976.89 -2.48862 0.42709 0
M  V30 20570 C 1978.2 -0.484516 2.96771 0
M  V30 20571 C 1979.75 -0.56909 3.07783 0
M  V30 20572 C 1980.23 -0.597515 4.54086 0
M  V30 20573 N 1981.72 -0.659363 4.58483 0
M  V30 20574 C 1982.45 -0.702564 5.6908 0
M  V30 20575 N 1981.95 -0.704292 6.89211 0
M  V30 20576 N 1983.74 -0.74447 5.57148 0
M  V30 20577 H 1975.89 0.744582 1.98921 0
M  V30 20578 H 1978.16 0.273049 0.907826 0
M  V30 20579 H 1977.86 0.432078 3.49036 0
M  V30 20580 H 1977.74 -1.3176 3.53439 0
M  V30 20581 H 1980.12 -1.4761 2.55529 0
M  V30 20582 H 1980.2 0.291401 2.54135 0
M  V30 20583 H 1979.85 0.305395 5.06981 0
M  V30 20584 H 1979.78 -1.47469 5.0553 0
M  V30 20585 H 1982.27 -0.664781 3.72007 0
M  V30 20586 H 1982.58 -0.739477 7.69254 0
M  V30 20587 H 1980.93 -0.67195 6.91744 0
M  V30 20588 H 1984.12 -0.740383 4.62208 0
M  V30 20589 H 1984.29 -0.774672 6.43353 0
M  V30 20590 N 1977.7 -1.52352 -0.403298 0
M  V30 20591 C 1978.63 -1.72347 -1.51093 0
M  V30 20592 C 1979.64 -0.603886 -1.51186 0
M  V30 20593 O 1980.83 -0.879203 -1.55346 0
M  V30 20594 C 1977.93 -1.75407 -2.89975 0
M  V30 20595 C 1977.1 -3.04495 -3.14009 0
M  V30 20596 C 1976.16 -2.9929 -4.32795 0
M  V30 20597 O 1975.19 -3.73185 -4.29792 0
M  V30 20598 N 1976.39 -2.17484 -5.3822 0
M  V30 20599 H 1979.16 -2.67908 -1.34333 0
M  V30 20600 H 1976.72 -1.50662 -0.592661 0
M  V30 20601 H 1978.71 -1.6945 -3.67517 0
M  V30 20602 H 1977.28 -0.87295 -3.00164 0
M  V30 20603 H 1976.5 -3.24056 -2.24458 0
M  V30 20604 H 1977.79 -3.89879 -3.26913 0
M  V30 20605 H 1977.19 -1.56888 -5.4351 0
M  V30 20606 H 1975.74 -2.17378 -6.14484 0
M  V30 20607 N 1979.18 0.660885 -1.43074 0
M  V30 20608 C 1980.13 1.76701 -1.44086 0
M  V30 20609 C 1981.11 1.57879 -0.310309 0
M  V30 20610 O 1982.3 1.68122 -0.553546 0
M  V30 20611 C 1979.43 3.15247 -1.35921 0
M  V30 20612 C 1978.52 3.39643 -2.53976 0
M  V30 20613 N 1978.91 3.34551 -3.79354 0
M  V30 20614 C 1977.21 3.70333 -2.48535 0
M  V30 20615 C 1977.91 3.58816 -4.57849 0
M  V30 20616 N 1976.88 3.80258 -3.88465 0
M  V30 20617 H 1980.68 1.71178 -2.38904 0
M  V30 20618 H 1978.2 0.862264 -1.37618 0
M  V30 20619 H 1980.2 3.9453 -1.34728 0
M  V30 20620 H 1978.86 3.21957 -0.421161 0
M  V30 20621 H 1979.87 3.14136 -4.11751 0
M  V30 20622 H 1976.54 3.84205 -1.63379 0
M  V30 20623 H 1977.93 3.60723 -5.66859 0
M  V30 20624 N 1980.65 1.29477 0.898527 0
M  V30 20625 C 1981.6 1.1133 1.98971 0
M  V30 20626 C 1982.59 0.0323879 1.60867 0
M  V30 20627 O 1983.78 0.254229 1.75165 0
M  V30 20628 C 1980.91 0.793107 3.34013 0
M  V30 20629 C 1980 1.91362 3.78473 0
M  V30 20630 N 1980.39 3.1573 3.95156 0
M  V30 20631 C 1978.68 1.80692 4.07758 0
M  V30 20632 C 1979.39 3.88841 4.3264 0
M  V30 20633 N 1978.36 3.16793 4.4175 0
M  V30 20634 H 1982.16 2.05674 2.09941 0
M  V30 20635 H 1979.68 1.20619 1.08743 0
M  V30 20636 H 1981.67 0.644149 4.11894 0
M  V30 20637 H 1980.33 -0.142398 3.24388 0
M  V30 20638 H 1981.35 3.51171 3.80656 0
M  V30 20639 H 1978.02 0.944205 4.06683 0
M  V30 20640 H 1979.41 4.95875 4.53384 0
M  V30 20641 N 1982.13 -1.10905 1.11972 0
M  V30 20642 C 1983.41 -1.79218 0.783601 0
M  V30 20643 C 1983.79 -1.9817 -0.727451 0
M  V30 20644 O 1983.14 -1.57084 -1.65942 0
M  V30 20645 C 1983.35 -3.12538 1.55309 0
M  V30 20646 C 1984.7 -3.87492 1.73595 0
M  V30 20647 O 1985.72 -3.22244 1.5178 0
M  V30 20648 O 1984.58 -5.04588 2.09887 0
M  V30 20649 H 1981.67 -0.776524 0.284498 0
M  V30 20650 H 1984.22 -1.17598 1.22347 0
M  V30 20651 H 1982.99 -2.94133 2.58072 0
M  V30 20652 H 1982.61 -3.81874 1.10714 0
M  V30 20653 N 1983.61 -0.910886 -1.2861 0
M  V30 20654 C 1984.52 -0.402088 -2.31129 0
M  V30 20655 C 1985.54 0.508811 -1.66394 0
M  V30 20656 O 1986.71 0.395691 -1.97475 0
M  V30 20657 C 1983.78 0.352182 -3.44907 0
M  V30 20658 C 1982.84 -0.59159 -4.25204 0
M  V30 20659 C 1982.07 0.126778 -5.33549 0
M  V30 20660 O 1982.29 1.34897 -5.54219 0
M  V30 20661 O 1981.23 -0.536442 -5.99505 0
M  V30 20662 H 1985.05 -1.25289 -2.76652 0
M  V30 20663 H 1982.64 -0.675604 -1.33251 0
M  V30 20664 H 1984.52 0.778285 -4.14151 0
M  V30 20665 H 1983.2 1.17886 -3.01471 0
M  V30 20666 H 1982.1 -1.06703 -3.5856 0
M  V30 20667 H 1983.44 -1.38501 -4.72312 0
M  V30 20668 N 1985.09 1.42434 -0.674558 0
M  V30 20669 C 1986.32 2.05582 -0.204816 0
M  V30 20670 C 1986.73 1.50768 1.14305 0
M  V30 20671 O 1986.07 0.642132 1.72111 0
M  V30 20672 C 1986.13 3.59446 -0.0621889 0
M  V30 20673 C 1985.8 4.36952 -1.33873 0
M  V30 20674 C 1986.79 4.67621 -2.27215 0
M  V30 20675 C 1984.48 4.76595 -1.58626 0
M  V30 20676 C 1986.47 5.36868 -3.43586 0
M  V30 20677 C 1984.16 5.45583 -2.75287 0
M  V30 20678 C 1985.16 5.75644 -3.6759 0
M  V30 20679 O 1984.84 6.43217 -4.8221 0
M  V30 20680 H 1984.58 0.668974 -0.0972083 0
M  V30 20681 H 1987.13 1.83563 -0.92161 0
M  V30 20682 H 1985.36 3.80123 0.710183 0
M  V30 20683 H 1987.05 4.04232 0.367648 0
M  V30 20684 H 1987.82 4.37494 -2.09341 0
M  V30 20685 H 1983.69 4.5259 -0.876522 0
M  V30 20686 H 1987.24 5.6025 -4.15651 0
M  V30 20687 H 1983.14 5.75127 -2.93086 0
M  V30 20688 H 1983.9 6.61708 -4.81752 0
M  V30 20689 N 1986.57 0.417871 1.51959 0
M  V30 20690 C 1987.48 -0.409946 2.3099 0
M  V30 20691 C 1988.49 -1.04559 1.39081 0
M  V30 20692 O 1989.67 -1.0452 1.72155 0
M  V30 20693 C 1986.73 -1.50691 3.12239 0
M  V30 20694 C 1985.79 -0.893424 4.199 0
M  V30 20695 C 1985.03 -1.93812 4.97265 0
M  V30 20696 O 1985.25 -3.15756 4.75031 0
M  V30 20697 O 1984.18 -1.53948 5.81879 0
M  V30 20698 H 1988.01 0.234696 3.02792 0
M  V30 20699 H 1985.6 0.180861 1.48301 0
M  V30 20700 H 1987.48 -2.14355 3.62808 0
M  V30 20701 H 1986.15 -2.136 2.43222 0
M  V30 20702 H 1985.06 -0.219262 3.73457 0
M  V30 20703 H 1986.39 -0.308133 4.91235 0
M  V30 20704 N 1988.04 -1.56898 0.148573 0
M  V30 20705 C 1989.32 -1.87787 -0.547293 0
M  V30 20706 C 1989.7 -1.05479 -1.82859 0
M  V30 20707 O 1989.05 -0.142055 -2.28058 0
M  V30 20708 C 1989.26 -3.39441 -0.811223 0
M  V30 20709 C 1990.61 -4.08693 -1.1513 0
M  V30 20710 O 1991.63 -3.44629 -0.900524 0
M  V30 20711 O 1990.49 -5.21834 -1.62331 0
M  V30 20712 H 1987.58 -0.778385 -0.279368 0
M  V30 20713 H 1990.13 -1.68685 0.185302 0
M  V30 20714 H 1988.9 -3.91183 0.0955156 0
M  V30 20715 H 1988.53 -3.64076 -1.59794 0
M  V30 20716 N 1989.52 0.125209 -1.57102 0
M  V30 20717 C 1990.43 1.17286 -2.03177 0
M  V30 20718 C 1991.45 1.4571 -0.951035 0
M  V30 20719 O 1992.62 1.56949 -1.2621 0
M  V30 20720 C 1989.69 2.4811 -2.42161 0
M  V30 20721 C 1988.75 2.2714 -3.64288 0
M  V30 20722 C 1987.98 3.51726 -4.01404 0
M  V30 20723 O 1988.21 4.58785 -3.38929 0
M  V30 20724 O 1987.14 3.43096 -4.94539 0
M  V30 20725 H 1990.97 0.811619 -2.92654 0
M  V30 20726 H 1988.55 0.335551 -1.45583 0
M  V30 20727 H 1990.43 3.252 -2.67998 0
M  V30 20728 H 1989.11 2.83721 -1.55833 0
M  V30 20729 H 1988.02 1.47929 -3.4361 0
M  V30 20730 H 1989.35 1.96435 -4.51303 0
M  V30 20731 N 1991 1.52564 0.395213 0
M  V30 20732 C 1992.25 1.6653 1.13801 0
M  V30 20733 C 1992.56 0.408362 1.9129 0
M  V30 20734 O 1993.77 0.428049 2.68104 0
M  V30 20735 C 1992.22 2.94273 2.07199 0
M  V30 20736 C 1991.83 4.27125 1.35162 0
M  V30 20737 C 1993.58 3.17604 2.81652 0
M  V30 20738 C 1991.48 5.4598 2.27289 0
M  V30 20739 H 1990.41 0.620392 0.428521 0
M  V30 20740 H 1993.06 1.79058 0.401302 0
M  V30 20741 H 1991.45 2.75477 2.8448 0
M  V30 20742 H 1992.62 4.56452 0.631492 0
M  V30 20743 H 1990.94 4.10006 0.726934 0
M  V30 20744 H 1993.53 4.03582 3.5075 0
M  V30 20745 H 1993.88 2.32415 3.45382 0
M  V30 20746 H 1994.41 3.36938 2.11466 0
M  V30 20747 H 1991.15 6.33557 1.68184 0
M  V30 20748 H 1990.67 5.20972 2.97235 0
M  V30 20749 H 1992.35 5.79609 2.8751 0
M  V30 20750 N 1992.48 -0.653289 1.43422 0
M  V30 20751 C 1993.89 -0.968948 1.26821 0
M  V30 20752 C 1994.09 -2.00622 0.187882 0
M  V30 20753 O 1993.15 -2.48747 -0.43371 0
M  V30 20754 C 1994.46 -1.45328 2.63249 0
M  V30 20755 C 1996.01 -1.56993 2.70781 0
M  V30 20756 C 1996.49 -2.08817 4.07627 0
M  V30 20757 N 1997.98 -2.16119 4.09691 0
M  V30 20758 C 1998.71 -2.5734 5.1241 0
M  V30 20759 N 1998.21 -2.97858 6.25502 0
M  V30 20760 N 2000 -2.57279 4.99764 0
M  V30 20761 H 1992.15 0.0330932 2.12374 0
M  V30 20762 H 1994.42 -0.0477768 0.946795 0
M  V30 20763 H 1994.12 -0.765519 3.43268 0
M  V30 20764 H 1994 -2.42831 2.8864 0
M  V30 20765 H 1996.38 -2.24871 1.91095 0
M  V30 20766 H 1996.46 -0.579228 2.49156 0
M  V30 20767 H 1996.11 -1.41541 4.87779 0
M  V30 20768 H 1996.04 -3.08718 4.26616 0
M  V30 20769 H 1998.53 -1.8758 3.28058 0
M  V30 20770 H 1998.84 -3.2806 6.99712 0
M  V30 20771 H 1997.19 -2.95662 6.28974 0
M  V30 20772 H 2000.38 -2.25002 4.10478 0
M  V30 20773 H 2000.55 -2.89082 5.79944 0
M  V30 20774 N 1993.96 -1.29952 -0.891648 0
M  V30 20775 C 1994.89 -1.10092 -1.99887 0
M  V30 20776 C 1995.87 -0.0104614 -1.62597 0
M  V30 20777 O 1997.05 -0.162725 -1.87796 0
M  V30 20778 C 1994.18 -0.677652 -3.31852 0
M  V30 20779 C 1993.22 -1.768 -3.88129 0
M  V30 20780 S 1994.06 -3.36899 -4.16244 0
M  V30 20781 C 1995.21 -2.96459 -5.51237 0
M  V30 20782 H 1995.45 -2.0383 -2.16427 0
M  V30 20783 H 1992.98 -1.1419 -1.03923 0
M  V30 20784 H 1994.94 -0.440168 -4.08133 0
M  V30 20785 H 1993.6 0.240259 -3.1318 0
M  V30 20786 H 1992.79 -1.42397 -4.83466 0
M  V30 20787 H 1992.39 -1.95942 -3.18564 0
M  V30 20788 H 1994.69 -2.44005 -6.32035 0
M  V30 20789 H 1995.63 -3.90678 -5.90573 0
M  V30 20790 H 1996.04 -2.3452 -5.13479 0
M  V30 20791 N 1995.44 1.1031 -1.12559 0
M  V30 20792 C 1996.37 2.15925 -0.738365 0
M  V30 20793 C 1997.35 1.60324 0.271099 0
M  V30 20794 O 1998.53 1.87779 0.164746 0
M  V30 20795 C 1995.66 3.38572 -0.0930976 0
M  V30 20796 C 1994.7 4.1287 -1.06959 0
M  V30 20797 S 1995.54 4.68269 -2.59777 0
M  V30 20798 C 1996.69 5.94227 -1.96584 0
M  V30 20799 H 1996.93 2.48437 -1.63298 0
M  V30 20800 H 1994.46 1.22118 -0.94481 0
M  V30 20801 H 1996.42 4.09592 0.272822 0
M  V30 20802 H 1995.08 3.04296 0.778647 0
M  V30 20803 H 1994.27 5.00815 -0.565756 0
M  V30 20804 H 1993.87 3.47668 -1.37852 0
M  V30 20805 H 1996.16 6.64727 -1.30938 0
M  V30 20806 H 1997.11 6.49275 -2.82574 0
M  V30 20807 H 1997.52 5.46318 -1.42114 0
M  V30 20808 N 1996.91 0.917694 1.28125 0
M  V30 20809 C 1998.14 0.56827 1.99463 0
M  V30 20810 C 1998.56 -0.844246 1.6809 0
M  V30 20811 O 1997.92 -1.56487 0.915504 0
M  V30 20812 C 1997.97 0.788859 3.51866 0
M  V30 20813 O 1997.07 -0.150301 4.12126 0
M  V30 20814 H 1996.41 0.219899 0.626531 0
M  V30 20815 H 1998.94 1.23421 1.63182 0
M  V30 20816 H 1998.95 0.700502 4.01942 0
M  V30 20817 H 1997.63 1.81855 3.74034 0
M  V30 20818 H 1996.21 -0.012878 3.72898 0
M  V30 20819 N 1998.39 -1.42074 0.682102 0
M  V30 20820 C 1999.62 -2.05769 0.216029 0
M  V30 20821 C 2000.03 -1.51278 -1.12962 0
M  V30 20822 O 1999.39 -0.655521 -1.70321 0
M  V30 20823 C 1999.44 -3.61187 0.150351 0
M  V30 20824 O 1999.16 -4.13659 1.44283 0
M  V30 20825 C 2000.66 -4.42007 -0.338339 0
M  V30 20826 H 1997.88 -0.662997 0.103326 0
M  V30 20827 H 2000.43 -1.82084 0.930895 0
M  V30 20828 H 1998.58 -3.83958 -0.515249 0
M  V30 20829 H 1999 -5.07592 1.32101 0
M  V30 20830 H 2000.47 -5.50994 -0.33319 0
M  V30 20831 H 2000.95 -4.17125 -1.37489 0
M  V30 20832 H 2001.55 -4.2427 0.295782 0
M  V30 20833 N 1999.87 -0.425924 -1.51735 0
M  V30 20834 C 2001.12 0.144058 -2.01586 0
M  V30 20835 C 2001.44 1.44204 -1.31264 0
M  V30 20836 O 2000.71 1.9081 -0.443661 0
M  V30 20837 H 1999.29 0.0562264 -0.744881 0
M  V30 20838 H 2001.95 -0.566016 -1.865 0
M  V30 20839 H 2001.05 0.328161 -3.1037 0
M  V30 20840 N 2001.35 1.56817 -0.156891 0
M  V30 20841 C 2002.57 2.01242 0.501622 0
M  V30 20842 C 2003 1.03635 1.56976 0
M  V30 20843 O 2002.36 0.0136188 1.81295 0
M  V30 20844 C 2002.4 3.44357 1.07007 0
M  V30 20845 O 2001.51 3.49783 2.18461 0
M  V30 20846 H 2000.85 0.652757 0.121673 0
M  V30 20847 H 2003.38 2.02985 -0.256537 0
M  V30 20848 H 2003.39 3.83364 1.39628 0
M  V30 20849 H 2002.06 4.14902 0.287924 0
M  V30 20850 H 2000.64 3.22626 1.86994 0
M  V30 20851 N 2002.83 -0.116876 1.57166 0
M  V30 20852 C 2003.77 -1.14325 2.00496 0
M  V30 20853 C 2004.74 -1.41031 0.877465 0
M  V30 20854 O 2005.93 -1.52861 1.14185 0
M  V30 20855 C 2003.07 -2.46409 2.41612 0
M  V30 20856 C 2002.18 -2.26621 3.67787 0
M  V30 20857 C 2001.32 -3.51951 3.97875 0
M  V30 20858 C 2000.35 -3.27329 5.17225 0
M  V30 20859 N 1999.49 -4.44867 5.43174 0
M  V30 20860 H 2004.33 -0.766757 2.87967 0
M  V30 20861 H 2001.87 -0.367106 1.42446 0
M  V30 20862 H 2003.83 -3.23465 2.63488 0
M  V30 20863 H 2002.46 -2.81947 1.5718 0
M  V30 20864 H 2001.51 -1.40472 3.53513 0
M  V30 20865 H 2002.82 -2.04405 4.54994 0
M  V30 20866 H 2001.97 -4.37424 4.20411 0
M  V30 20867 H 2000.71 -3.772 3.09147 0
M  V30 20868 H 1999.72 -2.40247 4.94532 0
M  V30 20869 H 2000.94 -3.03448 6.07533 0
M  V30 20870 H 1998.89 -4.70233 4.57403 0
M  V30 20871 H 1998.81 -4.25764 6.24709 0
M  V30 20872 H 2000.07 -5.31468 5.7023 0
M  V30 20873 N 2004.3 -1.52772 -0.387116 0
M  V30 20874 C 2005.25 -1.77684 -1.47299 0
M  V30 20875 C 2006.22 -0.620145 -1.54089 0
M  V30 20876 O 2007.41 -0.860064 -1.70316 0
M  V30 20877 C 2004.55 -1.95321 -2.84506 0
M  V30 20878 C 2003.66 -3.23016 -2.86853 0
M  V30 20879 C 2002.79 -3.30959 -4.15499 0
M  V30 20880 C 2001.83 -4.5277 -4.11905 0
M  V30 20881 N 2000.97 -4.57985 -5.3216 0
M  V30 20882 H 2005.81 -2.70351 -1.25356 0
M  V30 20883 H 2003.35 -1.33943 -0.608094 0
M  V30 20884 H 2005.3 -2.03531 -3.64185 0
M  V30 20885 H 2003.93 -1.06012 -3.04895 0
M  V30 20886 H 2002.99 -3.23868 -1.99534 0
M  V30 20887 H 2004.3 -4.12753 -2.80066 0
M  V30 20888 H 2003.45 -3.38363 -5.03583 0
M  V30 20889 H 2002.19 -2.392 -4.25011 0
M  V30 20890 H 2001.2 -4.4549 -3.22209 0
M  V30 20891 H 2002.42 -5.45848 -4.04013 0
M  V30 20892 H 2000.37 -3.69118 -5.42299 0
M  V30 20893 H 2000.28 -5.41596 -5.27456 0
M  V30 20894 H 2001.55 -4.69645 -6.22136 0
M  V30 20895 N 2005.78 0.645673 -1.43767 0
M  V30 20896 C 2007.01 1.43799 -1.49454 0
M  V30 20897 C 2007.43 1.87742 -0.115948 0
M  V30 20898 O 2006.79 1.57845 0.891891 0
M  V30 20899 C 2006.84 2.64416 -2.45186 0
M  V30 20900 O 2005.94 3.63742 -1.94334 0
M  V30 20901 H 2005.28 0.430858 -0.50523 0
M  V30 20902 H 2007.81 0.789424 -1.88757 0
M  V30 20903 H 2007.82 3.12139 -2.62741 0
M  V30 20904 H 2006.5 2.31776 -3.4533 0
M  V30 20905 H 2005.07 3.22926 -1.86476 0
M  V30 20906 N 2007.26 1.30423 0.884744 0
M  V30 20907 C 2008.19 1.19397 2.00666 0
M  V30 20908 C 2009.17 0.084568 1.6989 0
M  V30 20909 O 2010.36 0.266641 1.92361 0
M  V30 20910 C 2007.49 0.885244 3.35828 0
M  V30 20911 C 2006.44 1.9526 3.80864 0
M  V30 20912 C 2005.77 1.49687 5.13321 0
M  V30 20913 C 2007.07 3.3637 3.99566 0
M  V30 20914 H 2008.76 2.13256 2.10148 0
M  V30 20915 H 2006.31 1.02669 1.00971 0
M  V30 20916 H 2008.26 0.794764 4.13837 0
M  V30 20917 H 2006.98 -0.0890295 3.26479 0
M  V30 20918 H 2005.64 2.03272 3.05084 0
M  V30 20919 H 2005.29 0.510855 5.00399 0
M  V30 20920 H 2004.99 2.2108 5.44424 0
M  V30 20921 H 2006.51 1.42018 5.93855 0
M  V30 20922 H 2007.93 3.31115 4.68012 0
M  V30 20923 H 2006.32 4.05852 4.42046 0
M  V30 20924 H 2007.39 3.78244 3.03414 0
M  V30 20925 N 2008.74 -1.09711 1.13142 0
M  V30 20926 C 2009.67 -2.18301 0.828662 0
M  V30 20927 C 2010.65 -1.6879 -0.210733 0
M  V30 20928 O 2011.83 -1.94073 -0.0702977 0
M  V30 20929 C 2008.96 -3.46081 0.290674 0
M  V30 20930 C 2007.92 -4.0891 1.26398 0
M  V30 20931 C 2007.24 -5.3148 0.585887 0
M  V30 20932 C 2008.54 -4.51751 2.62142 0
M  V30 20933 H 2010.24 -2.43885 1.73668 0
M  V30 20934 H 2007.78 -1.17216 0.836449 0
M  V30 20935 H 2009.74 -4.21347 0.0665509 0
M  V30 20936 H 2008.46 -3.20011 -0.652716 0
M  V30 20937 H 2007.12 -3.3566 1.47405 0
M  V30 20938 H 2006.77 -5.01689 -0.362883 0
M  V30 20939 H 2006.47 -5.7447 1.23522 0
M  V30 20940 H 2007.99 -6.09472 0.370976 0
M  V30 20941 H 2009.41 -5.18255 2.45121 0
M  V30 20942 H 2007.8 -5.05615 3.23223 0
M  V30 20943 H 2008.87 -3.64297 3.20025 0
M  V30 20944 N 2010.22 -0.924476 -1.27637 0
M  V30 20945 C 2011.44 -0.57884 -1.99159 0
M  V30 20946 C 2011.87 0.83532 -1.68535 0
M  V30 20947 O 2011.22 1.55999 -0.92379 0
M  V30 20948 C 2011.27 -0.807508 -3.51442 0
M  V30 20949 O 2010.38 0.128443 -4.122 0
M  V30 20950 H 2009.72 -0.223218 -0.625356 0
M  V30 20951 H 2012.25 -1.24285 -1.62525 0
M  V30 20952 H 2012.26 -0.721808 -4.01564 0
M  V30 20953 H 2010.93 -1.83836 -3.73064 0
M  V30 20954 H 2009.51 -0.00689785 -3.72899 0
M  V30 20955 N 2011.69 1.41711 -0.689627 0
M  V30 20956 C 2012.64 2.28 0.00249406 0
M  V30 20957 C 2013.63 1.41884 0.75879 0
M  V30 20958 O 2014.82 1.65207 0.635261 0
M  V30 20959 C 2011.95 3.30111 0.942438 0
M  V30 20960 C 2011.04 4.23706 0.182705 0
M  V30 20961 N 2011.43 4.99103 -0.820339 0
M  V30 20962 C 2009.72 4.44027 0.41904 0
M  V30 20963 C 2010.43 5.67564 -1.27459 0
M  V30 20964 N 2009.4 5.4026 -0.60165 0
M  V30 20965 H 2013.2 2.83725 -0.766648 0
M  V30 20966 H 2010.72 1.53851 -0.519952 0
M  V30 20967 H 2012.71 3.90746 1.45338 0
M  V30 20968 H 2011.37 2.75947 1.71124 0
M  V30 20969 H 2012.39 5.03797 -1.20038 0
M  V30 20970 H 2009.06 4.00882 1.16619 0
M  V30 20971 H 2010.45 6.38022 -2.10659 0
M  V30 20972 N 2013.17 0.433965 1.51507 0
M  V30 20973 C 2014.08 -0.385423 2.31412 0
M  V30 20974 C 2015.1 -1.03078 1.40182 0
M  V30 20975 O 2016.27 -1.02688 1.73254 0
M  V30 20976 C 2013.34 -1.47371 3.13819 0
M  V30 20977 C 2012.4 -0.848838 4.20824 0
M  V30 20978 C 2011.63 -1.88527 4.99293 0
M  V30 20979 O 2011.86 -3.107 4.78353 0
M  V30 20980 O 2010.79 -1.47768 5.83479 0
M  V30 20981 H 2014.62 0.266798 3.02526 0
M  V30 20982 H 2012.2 0.19658 1.48101 0
M  V30 20983 H 2014.08 -2.10495 3.65061 0
M  V30 20984 H 2012.76 -2.11008 2.45474 0
M  V30 20985 H 2011.67 -0.179639 3.73668 0
M  V30 20986 H 2013 -0.256013 4.91534 0
M  V30 20987 N 2014.65 -1.56732 0.165206 0
M  V30 20988 C 2015.9 -1.96697 -0.481311 0
M  V30 20989 C 2016.23 -1.05092 -1.63664 0
M  V30 20990 O 2015.48 -0.0837635 -1.95521 0
M  V30 20991 C 2015.78 -3.42783 -1.01165 0
M  V30 20992 C 2015.45 -4.50892 0.0271385 0
M  V30 20993 C 2014.11 -4.80183 0.31265 0
M  V30 20994 C 2016.46 -5.16026 0.732556 0
M  V30 20995 C 2013.79 -5.71909 1.30907 0
M  V30 20996 C 2016.14 -6.08827 1.71792 0
M  V30 20997 C 2014.8 -6.36488 2.01094 0
M  V30 20998 H 2014.07 -0.719765 -0.176124 0
M  V30 20999 H 2016.72 -1.89783 0.255878 0
M  V30 21000 H 2015.03 -3.46619 -1.82654 0
M  V30 21001 H 2016.72 -3.71044 -1.52078 0
M  V30 21002 H 2013.31 -4.28107 -0.205569 0
M  V30 21003 H 2017.5 -4.93513 0.525186 0
M  V30 21004 H 2012.75 -5.91626 1.54234 0
M  V30 21005 H 2016.93 -6.58367 2.26993 0
M  V30 21006 H 2014.55 -7.07367 2.78454 0
M  V30 21007 N 2016.13 0.10854 -1.57226 0
M  V30 21008 C 2017.06 1.15853 -1.97764 0
M  V30 21009 C 2018.07 1.37073 -0.878345 0
M  V30 21010 O 2019.26 1.35963 -1.15657 0
M  V30 21011 C 2016.36 2.51663 -2.26978 0
M  V30 21012 C 2015.54 2.50904 -3.58282 0
M  V30 21013 C 2014.59 3.68538 -3.75588 0
M  V30 21014 O 2013.62 3.51644 -4.47588 0
M  V30 21015 N 2014.82 4.87507 -3.15146 0
M  V30 21016 H 2017.59 0.81361 -2.88445 0
M  V30 21017 H 2015.15 0.29769 -1.5914 0
M  V30 21018 H 2017.14 3.28936 -2.35761 0
M  V30 21019 H 2015.71 2.78297 -1.42372 0
M  V30 21020 H 2014.93 1.59271 -3.60592 0
M  V30 21021 H 2016.22 2.47463 -4.44567 0
M  V30 21022 H 2015.62 5.04137 -2.56637 0
M  V30 21023 H 2014.17 5.6242 -3.29434 0
M  V30 21024 N 2017.61 1.52975 0.379009 0
M  V30 21025 C 2018.88 1.59096 1.13789 0
M  V30 21026 C 2019.26 0.390236 2.07462 0
M  V30 21027 O 2018.61 -0.620644 2.1991 0
M  V30 21028 C 2018.82 2.93471 1.8888 0
M  V30 21029 C 2020.17 3.47567 2.43889 0
M  V30 21030 O 2021.19 2.95411 1.99024 0
M  V30 21031 O 2020.05 4.38714 3.25871 0
M  V30 21032 H 2017.15 0.64208 0.521213 0
M  V30 21033 H 2019.69 1.65313 0.383355 0
M  V30 21034 H 2018.46 3.72304 1.20438 0
M  V30 21035 H 2018.09 2.90684 2.71272 0
M  V30 21036 N 2019.08 -0.63804 1.44107 0
M  V30 21037 C 2019.99 -1.77914 1.52917 0
M  V30 21038 C 2021.01 -1.68972 0.415266 0
M  V30 21039 O 2022.19 -1.89872 0.671613 0
M  V30 21040 C 2019.25 -3.14268 1.46412 0
M  V30 21041 C 2018.31 -3.34893 2.68598 0
M  V30 21042 C 2017.55 -4.64742 2.62394 0
M  V30 21043 O 2017.77 -5.45095 1.68011 0
M  V30 21044 O 2016.7 -4.87419 3.53138 0
M  V30 21045 H 2020.53 -1.73435 2.49307 0
M  V30 21046 H 2018.11 -0.798412 1.26276 0
M  V30 21047 H 2020 -3.95564 1.45282 0
M  V30 21048 H 2018.67 -3.19304 0.531634 0
M  V30 21049 H 2017.58 -2.53302 2.75297 0
M  V30 21050 H 2018.91 -3.34714 3.6087 0
M  V30 21051 N 2020.56 -1.3089 -0.877815 0
M  V30 21052 C 2021.79 -1.23068 -1.66319 0
M  V30 21053 C 2022.21 0.205309 -1.8768 0
M  V30 21054 O 2021.56 1.13467 -1.42939 0
M  V30 21055 C 2021.61 -1.96305 -3.03557 0
M  V30 21056 O 2021.33 -3.34298 -2.83154 0
M  V30 21057 C 2022.84 -1.95228 -3.97996 0
M  V30 21058 H 2020.06 -0.425583 -0.518768 0
M  V30 21059 H 2022.6 -1.72636 -1.09623 0
M  V30 21060 H 2020.75 -1.50518 -3.56964 0
M  V30 21061 H 2021.17 -3.71486 -3.70268 0
M  V30 21062 H 2022.64 -2.50997 -4.91635 0
M  V30 21063 H 2023.12 -0.932904 -4.29178 0
M  V30 21064 H 2023.73 -2.40858 -3.50525 0
M  V30 21065 N 2022.04 1.0911 -1.13723 0
M  V30 21066 C 2023.32 1.77949 -0.812014 0
M  V30 21067 C 2023.7 1.99302 0.695832 0
M  V30 21068 O 2023.05 1.59704 1.63422 0
M  V30 21069 C 2023.26 3.10028 -1.60262 0
M  V30 21070 C 2024.6 3.84681 -1.79738 0
M  V30 21071 O 2025.63 3.19789 -1.56887 0
M  V30 21072 O 2024.49 5.01185 -2.17888 0
M  V30 21073 H 2021.58 0.7719 -0.296816 0
M  V30 21074 H 2024.13 1.15637 -1.24202 0
M  V30 21075 H 2022.9 2.8999 -2.62719 0
M  V30 21076 H 2022.52 3.80065 -1.16776 0
M  V30 21077 N 2023.52 0.931232 1.27145 0
M  V30 21078 C 2024.75 0.589956 1.98311 0
M  V30 21079 C 2025.16 -0.832836 1.69438 0
M  V30 21080 O 2024.52 -1.55399 0.956935 0
M  V30 21081 C 2024.57 0.810592 3.52295 0
M  V30 21082 O 2024.29 2.17741 3.80158 0
M  V30 21083 C 2025.79 0.478508 4.4071 0
M  V30 21084 H 2023.01 0.223234 0.632778 0
M  V30 21085 H 2025.56 1.24922 1.6191 0
M  V30 21086 H 2023.71 0.198081 3.86893 0
M  V30 21087 H 2024.12 2.23003 4.74731 0
M  V30 21088 H 2025.6 0.683566 5.47751 0
M  V30 21089 H 2026.08 -0.586102 4.35272 0
M  V30 21090 H 2026.68 1.06931 4.11638 0
M  V30 21091 N 2025 -1.41343 0.697132 0
M  V30 21092 C 2025.91 -2.34576 0.0333341 0
M  V30 21093 C 2026.92 -1.56313 -0.764337 0
M  V30 21094 O 2028.1 -1.88787 -0.70154 0
M  V30 21095 C 2025.16 -3.35066 -0.890597 0
M  V30 21096 C 2024.23 -4.29216 -0.0849556 0
M  V30 21097 C 2023.46 -5.24905 -0.964881 0
M  V30 21098 O 2023.68 -5.26083 -2.20437 0
M  V30 21099 O 2022.62 -6.00476 -0.413724 0
M  V30 21100 H 2026.44 -2.92922 0.801892 0
M  V30 21101 H 2024.03 -1.42223 0.457478 0
M  V30 21102 H 2025.91 -3.96741 -1.42036 0
M  V30 21103 H 2024.58 -2.79161 -1.63862 0
M  V30 21104 H 2023.49 -3.70884 0.489447 0
M  V30 21105 H 2024.82 -4.88223 0.624437 0
M  V30 21106 N 2026.48 -0.441993 -1.51275 0
M  V30 21107 C 2027.39 0.373145 -2.31613 0
M  V30 21108 C 2028.4 1.02333 -1.40726 0
M  V30 21109 O 2029.58 1.01768 -1.73796 0
M  V30 21110 C 2026.64 1.45705 -3.14597 0
M  V30 21111 C 2025.7 0.826508 -4.21269 0
M  V30 21112 C 2024.94 1.85876 -5.00286 0
M  V30 21113 O 2025.16 3.08159 -4.79994 0
M  V30 21114 O 2024.09 1.44671 -5.84255 0
M  V30 21115 H 2027.92 -0.282837 -3.0238 0
M  V30 21116 H 2025.5 -0.204432 -1.47995 0
M  V30 21117 H 2027.39 2.08556 -3.66172 0
M  V30 21118 H 2026.06 2.09703 -2.46589 0
M  V30 21119 H 2024.97 0.15982 -3.73758 0
M  V30 21120 H 2026.3 0.229942 -4.91663 0
M  V30 21121 N 2027.95 1.56642 -0.173515 0
M  V30 21122 C 2028.86 2.2166 0.768363 0
M  V30 21123 C 2029.88 1.20892 1.25144 0
M  V30 21124 O 2031.06 1.53561 1.30311 0
M  V30 21125 C 2028.12 2.84632 1.97953 0
M  V30 21126 C 2027.18 4.00608 1.54312 0
M  V30 21127 C 2026.41 4.60567 2.69655 0
M  V30 21128 O 2026.64 4.19419 3.8658 0
M  V30 21129 O 2025.57 5.50401 2.43604 0
M  V30 21130 H 2029.4 3.02712 0.244753 0
M  V30 21131 H 2026.98 1.493 0.0547846 0
M  V30 21132 H 2028.86 3.24553 2.68782 0
M  V30 21133 H 2027.54 2.06575 2.49215 0
M  V30 21134 H 2026.45 3.65352 0.804264 0
M  V30 21135 H 2027.78 4.80264 1.07738 0
M  V30 21136 N 2029.43 -0.1002 1.57281 0
M  V30 21137 C 2030.66 -0.818307 1.9003 0
M  V30 21138 C 2031.07 -1.72531 0.766704 0
M  V30 21139 O 2030.43 -1.80616 -0.261577 0
M  V30 21140 C 2030.48 -1.63596 3.22364 0
M  V30 21141 O 2030.2 -0.765449 4.31361 0
M  V30 21142 C 2031.7 -2.45758 3.68942 0
M  V30 21143 H 2028.92 -0.234253 0.628782 0
M  V30 21144 H 2031.47 -0.0789616 2.04347 0
M  V30 21145 H 2029.62 -2.32787 3.09659 0
M  V30 21146 H 2030.04 -1.33126 5.07324 0
M  V30 21147 H 2031.51 -2.9863 4.64246 0
M  V30 21148 H 2031.99 -3.23987 2.96528 0
M  V30 21149 H 2032.59 -1.81776 3.84497 0
M  V30 21150 N 2030.91 -1.53174 -0.370891 0
M  V30 21151 C 2031.84 -1.82213 -1.46017 0
M  V30 21152 C 2032.82 -0.675274 -1.56122 0
M  V30 21153 O 2034.01 -0.924614 -1.70776 0
M  V30 21154 C 2031.14 -2.00727 -2.83419 0
M  V30 21155 C 2030.09 -3.16478 -2.88141 0
M  V30 21156 C 2029.42 -3.20276 -4.28167 0
M  V30 21157 C 2030.72 -4.55179 -2.56143 0
M  V30 21158 H 2032.41 -2.73432 -1.21965 0
M  V30 21159 H 2029.96 -1.31569 -0.585288 0
M  V30 21160 H 2031.91 -2.19625 -3.59643 0
M  V30 21161 H 2030.63 -1.06213 -3.08847 0
M  V30 21162 H 2029.29 -2.97392 -2.14367 0
M  V30 21163 H 2028.94 -2.2341 -4.50663 0
M  V30 21164 H 2028.64 -3.98044 -4.32244 0
M  V30 21165 H 2030.16 -3.41352 -5.06272 0
M  V30 21166 H 2031.58 -4.74274 -3.22082 0
M  V30 21167 H 2029.97 -5.35148 -2.71544 0
M  V30 21168 H 2031.04 -4.60654 -1.51412 0
M  V30 21169 N 2032.39 0.630389 -1.44443 0
M  V30 21170 C 2033.62 1.41507 -1.5053 0
M  V30 21171 C 2034.03 1.88759 -0.129099 0
M  V30 21172 O 2033.37 1.61501 0.8754 0
M  V30 21173 C 2033.43 2.6686 -2.40886 0
M  V30 21174 C 2033.09 2.41399 -3.88041 0
M  V30 21175 C 2034.09 2.03181 -4.78554 0
M  V30 21176 C 2031.78 2.55016 -4.3275 0
M  V30 21177 C 2033.77 1.78909 -6.11776 0
M  V30 21178 C 2031.46 2.30359 -5.6602 0
M  V30 21179 C 2032.46 1.92364 -6.55351 0
M  V30 21180 O 2032.14 1.67981 -7.86154 0
M  V30 21181 H 2031.88 0.440388 -0.512869 0
M  V30 21182 H 2034.43 0.778074 -1.90093 0
M  V30 21183 H 2032.66 3.33199 -1.96252 0
M  V30 21184 H 2034.35 3.28864 -2.37915 0
M  V30 21185 H 2035.11 1.92217 -4.45284 0
M  V30 21186 H 2030.99 2.8356 -3.63476 0
M  V30 21187 H 2034.54 1.49178 -6.81463 0
M  V30 21188 H 2030.43 2.40932 -5.9885 0
M  V30 21189 H 2031.2 1.82221 -7.97959 0
M  V30 21190 N 2033.87 1.31354 0.870861 0
M  V30 21191 C 2035.09 1.24082 1.66188 0
M  V30 21192 C 2035.52 -0.190886 1.87129 0
M  V30 21193 O 2034.87 -1.13669 1.41241 0
M  V30 21194 C 2034.92 1.98926 3.00767 0
M  V30 21195 O 2034.03 1.32599 3.90501 0
M  V30 21196 H 2033.37 0.428443 0.50728 0
M  V30 21197 H 2035.9 1.73408 1.08586 0
M  V30 21198 H 2035.91 2.08487 3.5071 0
M  V30 21199 H 2034.58 3.03044 2.84846 0
M  V30 21200 H 2033.16 1.31483 3.48951 0
M  V30 21201 N 2035.34 -1.08505 1.143 0
M  V30 21202 C 2036.57 -1.85155 0.934475 0
M  V30 21203 C 2036.99 -1.81002 -0.511866 0
M  V30 21204 O 2036.35 -1.19437 -1.36398 0
M  V30 21205 C 2036.4 -3.30656 1.43871 0
M  V30 21206 O 2035.5 -4.07557 0.630143 0
M  V30 21207 H 2034.84 -0.573775 0.334183 0
M  V30 21208 H 2037.37 -1.36959 1.51998 0
M  V30 21209 H 2037.38 -3.815 1.44644 0
M  V30 21210 H 2036.06 -3.32995 2.49173 0
M  V30 21211 H 2034.64 -3.66441 0.691067 0
M  V30 21212 N 2036.82 -0.937962 -1.26649 0
M  V30 21213 C 2037.77 -0.443717 -2.26495 0
M  V30 21214 C 2038.74 0.494894 -1.58556 0
M  V30 21215 O 2039.92 0.411807 -1.86303 0
M  V30 21216 C 2037.06 0.287974 -3.43896 0
M  V30 21217 C 2036.18 -0.685936 -4.2652 0
M  V30 21218 C 2035.31 0.0666303 -5.31158 0
M  V30 21219 C 2034.35 -0.899313 -6.05457 0
M  V30 21220 N 2033.49 -0.17871 -7.01873 0
M  V30 21221 H 2038.33 -1.3001 -2.68144 0
M  V30 21222 H 2035.86 -0.652331 -1.31845 0
M  V30 21223 H 2037.82 0.728613 -4.10788 0
M  V30 21224 H 2036.45 1.10852 -3.03169 0
M  V30 21225 H 2035.5 -1.24509 -3.59446 0
M  V30 21226 H 2036.82 -1.42373 -4.7805 0
M  V30 21227 H 2035.97 0.566702 -6.04047 0
M  V30 21228 H 2034.71 0.837326 -4.80458 0
M  V30 21229 H 2033.71 -1.41054 -5.31398 0
M  V30 21230 H 2034.94 -1.66996 -6.58247 0
M  V30 21231 H 2032.89 0.573553 -6.53488 0
M  V30 21232 H 2032.8 -0.855891 -7.51139 0
M  V30 21233 H 2034.07 0.300374 -7.78921 0
M  V30 21234 N 2038.3 1.40971 -0.704618 0
M  V30 21235 C 2039.25 2.2799 -0.0216885 0
M  V30 21236 C 2040.23 1.42681 0.743698 0
M  V30 21237 O 2041.43 1.65872 0.617703 0
M  V30 21238 C 2038.55 3.31092 0.907373 0
M  V30 21239 C 2037.64 4.23876 0.137755 0
M  V30 21240 N 2038.03 4.98205 -0.87323 0
M  V30 21241 C 2036.33 4.44447 0.371921 0
M  V30 21242 C 2037.03 5.6618 -1.33471 0
M  V30 21243 N 2036.01 5.39592 -0.658918 0
M  V30 21244 H 2039.81 2.82896 -0.796698 0
M  V30 21245 H 2037.32 1.53291 -0.536241 0
M  V30 21246 H 2039.32 3.92266 1.41185 0
M  V30 21247 H 2037.98 2.77746 1.68188 0
M  V30 21248 H 2038.99 5.02495 -1.25375 0
M  V30 21249 H 2035.67 4.02096 1.12361 0
M  V30 21250 H 2037.06 6.35752 -2.17415 0
M  V30 21251 O 2039.82 0.591994 1.50259 0
M  V30 21252 H 2040.51 0.0993419 1.93445 0
M  V30 END ATOM
M  V30 BEGIN BOND
M  V30 END BOND
M  V30 END CTAB
M  END
$$$$
