drugbank_target|Q9Y6K9 NF-kappa-B essential modulator (DB04998; DB05289)
 OpenBabel12092120143D

  0  0  0     0  0            999 V3000
M  V30 BEGIN CTAB
M  V30 COUNTS 6737 6779 0 0 0
M  V30 BEGIN ATOM
M  V30 1 H -0.908 1.98254 -0.117106 0
M  V30 2 N 0 1.576 0 0
M  V30 3 C 0.933 2.03868 1.02534 0
M  V30 4 C 1.911 0.928543 1.3348 0
M  V30 5 O 3.095 1.19667 1.45644 0
M  V30 6 C 0.222 2.43627 2.35294 0
M  V30 7 C -0.732 3.65373 2.2001 0
M  V30 8 S 0.101 5.13292 1.52614 0
M  V30 9 C 1.257 5.56322 2.86805 0
M  V30 10 H 1.49 2.90518 0.631377 0
M  V30 11 H -0.977 1.52953 0.210867 0
M  V30 12 H 0.981 2.67203 3.11629 0
M  V30 13 H -0.358 1.57376 2.7183 0
M  V30 14 H -1.165 3.90944 3.18086 0
M  V30 15 H -1.563 3.418 1.51819 0
M  V30 16 H 0.729 5.58782 3.83104 0
M  V30 17 H 1.672 6.56266 2.65933 0
M  V30 18 H 2.08 4.83886 2.90714 0
M  V30 19 N 1.4781 -0.272755 1.55222 0
M  V30 20 C 2.4261 -1.35705 1.88909 0
M  V30 21 C 3.4201 -1.5112 0.765456 0
M  V30 22 O 4.6261 -1.52901 0.949802 0
M  V30 23 H 1.0011 -0.453868 0.59959 0
M  V30 24 H 2.9721 -1.04544 2.79487 0
M  V30 25 C 1.7211 -2.71049 2.17779 0
M  V30 26 H 1.0441 -2.59979 3.03728 0
M  V30 27 H 2.4841 -3.45858 2.45272 0
M  V30 28 C 0.9431 -3.22165 0.985473 0
M  V30 29 O 1.4731 -4.01096 0.220233 0
M  V30 30 N -0.3209 -2.7985 0.783108 0
M  V30 31 H -0.7739 -2.15775 1.40708 0
M  V30 32 H -0.8159 -3.14397 -0.0130392 0
M  V30 33 N 2.9562 -1.48159 -0.537278 0
M  V30 34 C 4.3722 -1.34118 -0.865129 0
M  V30 35 C 4.5722 -0.346678 -1.98495 0
M  V30 36 O 3.6282 0.234715 -2.51407 0
M  V30 37 C 4.9412 -2.73963 -1.23954 0
M  V30 38 C 6.4892 -2.82397 -1.34984 0
M  V30 39 C 6.9642 -4.22928 -1.75772 0
M  V30 40 N 8.4552 -4.25566 -1.82887 0
M  V30 41 C 9.1902 -5.31235 -2.15817 0
M  V30 42 N 8.6862 -6.47189 -2.47222 0
M  V30 43 N 10.4792 -5.18624 -2.16761 0
M  V30 44 H 2.6302 -2.1144 0.201715 0
M  V30 45 H 4.8932 -0.947598 0.0275949 0
M  V30 46 H 4.5992 -3.48264 -0.490381 0
M  V30 47 H 4.4732 -3.0702 -2.19132 0
M  V30 48 H 6.8602 -2.08356 -2.08978 0
M  V30 49 H 6.9412 -2.5297 -0.379448 0
M  V30 50 H 6.5852 -4.97482 -1.02341 0
M  V30 51 H 6.5152 -4.49794 -2.73848 0
M  V30 52 H 9.0062 -3.41924 -1.60924 0
M  V30 53 H 9.3192 -7.23564 -2.71433 0
M  V30 54 H 7.6642 -6.50476 -2.44757 0
M  V30 55 H 10.8552 -4.27056 -1.91679 0
M  V30 56 H 11.0282 -6.01078 -2.42093 0
M  V30 57 N 4.4343 0.785586 -1.36625 0
M  V30 58 C 5.3843 1.88822 -1.27789 0
M  V30 59 C 6.3683 1.60014 -0.168579 0
M  V30 60 O 7.5603 1.72381 -0.401737 0
M  V30 61 C 4.6893 3.26092 -1.07327 0
M  V30 62 C 3.7753 3.60897 -2.22743 0
M  V30 63 N 4.1663 3.66982 -3.48077 0
M  V30 64 C 2.4643 3.90981 -2.14593 0
M  V30 65 C 3.1653 3.98137 -4.24101 0
M  V30 66 N 2.1413 4.13319 -3.53084 0
M  V30 67 H 5.9433 1.91759 -2.22723 0
M  V30 68 H 3.4573 0.981311 -1.29399 0
M  V30 69 H 5.4543 4.04954 -0.990842 0
M  V30 70 H 4.1143 3.24428 -0.132977 0
M  V30 71 H 5.1253 3.49531 -3.82163 0
M  V30 72 H 1.8023 3.9722 -1.2854 0
M  V30 73 H 3.1923 4.09737 -5.32509 0
M  V30 74 N 5.9124 1.20967 1.01018 0
M  V30 75 C 6.8424 0.988272 2.11555 0
M  V30 76 C 7.8234 -0.0849778 1.69888 0
M  V30 77 O 9.0084 0.0738202 1.9406 0
M  V30 78 C 6.1384 0.546528 3.42973 0
M  V30 79 C 5.0924 1.56375 3.9841 0
M  V30 80 C 4.4184 0.97842 5.25672 0
M  V30 81 C 5.7184 2.94922 4.31066 0
M  V30 82 H 7.4124 1.91276 2.30334 0
M  V30 83 H 4.9584 0.921073 1.1069 0
M  V30 84 H 6.9114 0.378839 4.19694 0
M  V30 85 H 5.6354 -0.413598 3.23971 0
M  V30 86 H 4.2944 1.71891 3.23804 0
M  V30 87 H 3.9424 0.0101688 5.02999 0
M  V30 88 H 3.6424 1.65784 5.63728 0
M  V30 89 H 5.1664 0.821939 6.05043 0
M  V30 90 H 6.5804 2.8288 4.9865 0
M  V30 91 H 4.9774 3.5983 4.80253 0
M  V30 92 H 6.0474 3.4616 3.39561 0
M  V30 93 N 7.3905 -1.2043 1.01659 0
M  V30 94 C 8.6365 -1.90356 0.716674 0
M  V30 95 C 8.9915 -1.77367 -0.745557 0
M  V30 96 O 8.2845 -1.1471 -1.53467 0
M  V30 97 C 8.4785 -3.40464 1.08714 0
M  V30 98 C 8.3075 -3.6806 2.58384 0
M  V30 99 C 7.0775 -3.86775 3.25167 0
M  V30 100 C 9.2755 -3.70623 3.56572 0
M  V30 101 N 7.2575 -4.01889 4.64067 0
M  V30 102 C 8.6285 -3.91161 4.81034 0
M  V30 103 C 10.6835 -3.53586 3.50544 0
M  V30 104 C 9.3865 -3.96428 6.00198 0
M  V30 105 C 11.4125 -3.60125 4.6911 0
M  V30 106 C 10.7745 -3.81135 5.92381 0
M  V30 107 H 6.8735 -0.716226 0.313918 0
M  V30 108 H 9.4575 -1.44815 1.30141 0
M  V30 109 H 7.6285 -3.84757 0.530745 0
M  V30 110 H 9.3605 -3.97863 0.740763 0
M  V30 111 H 6.1155 -3.85156 2.75594 0
M  V30 112 H 6.5395 -4.13323 5.36184 0
M  V30 113 H 11.1815 -3.36308 2.56235 0
M  V30 114 H 8.8995 -4.12502 6.94887 0
M  V30 115 H 12.4855 -3.4825 4.66062 0
M  V30 116 H 11.3655 -3.86054 6.82592 0
M  V30 117 N 8.8686 -0.792821 -1.36206 0
M  V30 118 C 9.8156 -0.191653 -2.30003 0
M  V30 119 C 10.7856 0.666453 -1.52143 0
M  V30 120 O 11.9706 0.61442 -1.80636 0
M  V30 121 C 9.1106 0.664848 -3.38635 0
M  V30 122 C 8.2236 -0.212175 -4.31479 0
M  V30 123 C 7.3586 0.651022 -5.27196 0
M  V30 124 C 6.3976 -0.227247 -6.11678 0
M  V30 125 N 5.5346 0.595127 -6.99573 0
M  V30 126 H 10.3746 -0.996978 -2.80828 0
M  V30 127 H 7.9116 -0.503206 -1.38225 0
M  V30 128 H 9.8696 1.17645 -4.00269 0
M  V30 129 H 8.4996 1.43557 -2.89122 0
M  V30 130 H 7.5516 -0.841777 -3.70969 0
M  V30 131 H 8.8636 -0.888751 -4.90818 0
M  V30 132 H 8.0176 1.2283 -5.94136 0
M  V30 133 H 6.7566 1.36121 -4.68319 0
M  V30 134 H 5.7616 -0.816904 -5.43697 0
M  V30 135 H 6.9866 -0.93509 -6.72631 0
M  V30 136 H 4.9326 1.28955 -6.432 0
M  V30 137 H 4.8496 -0.0236952 -7.55996 0
M  V30 138 H 6.1176 1.15613 -7.70879 0
M  V30 139 N 10.3467 1.47872 -0.545128 0
M  V30 140 C 11.5717 2.07391 -0.0190611 0
M  V30 141 C 11.9967 1.39688 1.25971 0
M  V30 142 O 11.3547 0.467816 1.7516 0
M  V30 143 C 11.4027 3.60188 0.172335 0
M  V30 144 O 10.5067 3.9339 1.23766 0
M  V30 145 H 9.8477 0.662411 -0.0459059 0
M  V30 146 H 12.3777 1.90066 -0.757365 0
M  V30 147 H 12.3877 4.06129 0.390305 0
M  V30 148 H 11.0627 4.08865 -0.761725 0
M  V30 149 H 9.6397 3.5921 1.00114 0
M  V30 150 N 11.8248 0.280983 1.55075 0
M  V30 151 C 12.7568 -0.637268 2.20163 0
M  V30 152 C 13.7698 -1.11298 1.18813 0
M  V30 153 O 14.9588 -1.03388 1.4551 0
M  V30 154 C 12.0588 -1.88199 2.81841 0
M  V30 155 C 11.2318 -1.55211 4.08936 0
M  V30 156 C 10.2908 -2.64991 4.54606 0
M  V30 157 O 9.3168 -2.30929 5.2025 0
M  V30 158 N 10.5188 -3.95161 4.25238 0
M  V30 159 H 13.2838 -0.0801694 2.99593 0
M  V30 160 H 10.8448 0.102329 1.61576 0
M  V30 161 H 12.8368 -2.60948 3.09335 0
M  V30 162 H 11.4068 -2.34799 2.06369 0
M  V30 163 H 10.6268 -0.658185 3.88666 0
M  V30 164 H 11.9148 -1.30681 4.91732 0
M  V30 165 H 11.3128 -4.25653 3.72607 0
M  V30 166 H 9.8698 -4.6427 4.5749 0
M  V30 167 N 13.3029 -1.57598 0.00835791 0
M  V30 168 C 14.2329 -2.1198 -0.979113 0
M  V30 169 C 15.2139 -1.03091 -1.35301 0
M  V30 170 O 16.3989 -1.30818 -1.43528 0
M  V30 171 C 13.5289 -2.62995 -2.26828 0
M  V30 172 C 12.4829 -3.76485 -2.03576 0
M  V30 173 C 11.8089 -4.13846 -3.38579 0
M  V30 174 C 13.1089 -5.0342 -1.39161 0
M  V30 175 H 14.8029 -2.94738 -0.526281 0
M  V30 176 H 12.3489 -1.41783 -0.251704 0
M  V30 177 H 14.3019 -2.99669 -2.96271 0
M  V30 178 H 13.0259 -1.7737 -2.7424 0
M  V30 179 H 11.6849 -3.40217 -1.36557 0
M  V30 180 H 11.3329 -3.25232 -3.83709 0
M  V30 181 H 11.0329 -4.90312 -3.23834 0
M  V30 182 H 12.5569 -4.53086 -4.09323 0
M  V30 183 H 13.9709 -5.37812 -1.98573 0
M  V30 184 H 12.3679 -5.84746 -1.34878 0
M  V30 185 H 13.4379 -4.83548 -0.361868 0
M  V30 186 N 14.781 0.264519 -1.55364 0
M  V30 187 C 16.021 1.00254 -1.78125 0
M  V30 188 C 16.385 1.83187 -0.575017 0
M  V30 189 O 17.586 2.60029 -0.681042 0
M  V30 190 C 15.857 1.85478 -3.05504 0
M  V30 191 S 17.416 2.6543 -3.49417 0
M  V30 192 H 14.234 0.337522 -0.625779 0
M  V30 193 H 16.836 0.272111 -1.93597 0
M  V30 194 H 15.54 1.23491 -3.9138 0
M  V30 195 H 15.071 2.62827 -2.92721 0
M  V30 196 H 17.086 3.87958 -3.09359 0
M  V30 197 N 16.2591 1.48442 0.529413 0
M  V30 198 C 17.1691 1.6569 1.66084 0
M  V30 199 C 18.1851 0.539432 1.65427 0
M  V30 200 O 19.3611 0.810572 1.84368 0
M  V30 201 C 16.4261 1.69315 3.02545 0
M  V30 202 C 15.4871 2.92694 3.14052 0
M  V30 203 C 14.7201 2.96137 4.44003 0
M  V30 204 O 14.9431 2.07973 5.31134 0
M  V30 205 O 13.8771 3.88312 4.59888 0
M  V30 206 H 17.7031 2.61483 1.54469 0
M  V30 207 H 15.2881 1.3185 0.702567 0
M  V30 208 H 17.1701 1.74217 3.83701 0
M  V30 209 H 15.8451 0.766966 3.14483 0
M  V30 210 H 14.7521 2.93324 2.32189 0
M  V30 211 H 16.0851 3.84699 3.0703 0
M  V30 212 N 17.7372 -0.778329 1.37039 0
M  V30 213 C 18.6702 -1.8984 1.26633 0
M  V30 214 C 19.6482 -1.61923 0.148197 0
M  V30 215 O 20.8322 -1.85742 0.321265 0
M  V30 216 C 17.9592 -3.24916 0.956403 0
M  V30 217 C 17.0052 -3.71752 2.09051 0
M  V30 218 S 17.8382 -3.86201 3.70957 0
M  V30 219 C 18.9942 -5.24135 3.42101 0
M  V30 220 H 19.2272 -1.98377 2.21436 0
M  V30 221 H 16.7602 -0.938738 1.22585 0
M  V30 222 H 18.7182 -4.02936 0.784409 0
M  V30 223 H 17.3792 -3.14089 0.0259713 0
M  V30 224 H 16.5722 -4.69661 1.8285 0
M  V30 225 H 16.1742 -3.00815 2.2223 0
M  V30 226 H 18.4662 -6.09086 2.96682 0
M  V30 227 H 19.4092 -5.55346 4.39314 0
M  V30 228 H 19.8172 -4.91761 2.77185 0
M  V30 229 N 19.2153 -1.21501 -1.00376 0
M  V30 230 C 20.4613 -1.03452 -1.74429 0
M  V30 231 C 20.7943 0.430764 -1.89362 0
M  V30 232 O 20.0693 1.31962 -1.42886 0
M  V30 233 C 20.3523 -1.73375 -3.15615 0
M  V30 234 C 20.2053 -3.27431 -3.08397 0
M  V30 235 C 21.5243 -1.47732 -4.14564 0
M  V30 236 H 18.6433 -0.377226 -0.633143 0
M  V30 237 H 21.2853 -1.49693 -1.17013 0
M  V30 238 H 19.4353 -1.34064 -3.64636 0
M  V30 239 H 21.1073 -3.76119 -2.67081 0
M  V30 240 H 19.3503 -3.5767 -2.45468 0
M  V30 241 H 20.0213 -3.71524 -4.08258 0
M  V30 242 H 22.4973 -1.8186 -3.74254 0
M  V30 243 H 21.3733 -1.99169 -5.11491 0
M  V30 244 H 21.6343 -0.407589 -4.40217 0
M  V30 245 N 20.6934 1.19889 -1.02296 0
M  V30 246 C 21.6254 2.22334 -0.556787 0
M  V30 247 C 22.6384 1.58674 0.364199 0
M  V30 248 O 23.8274 1.77768 0.161533 0
M  V30 249 C 20.9274 3.38257 0.208694 0
M  V30 250 C 20.1004 4.31504 -0.71577 0
M  V30 251 C 19.1594 5.262 0.00325597 0
M  V30 252 O 18.1854 5.65798 -0.621357 0
M  V30 253 N 19.3874 5.66303 1.27599 0
M  V30 254 H 22.1524 2.62957 -1.43784 0
M  V30 255 H 19.7134 1.34495 -0.901261 0
M  V30 256 H 21.7054 3.98616 0.699111 0
M  V30 257 H 20.2754 2.96472 0.991102 0
M  V30 258 H 19.4954 3.69016 -1.38638 0
M  V30 259 H 20.7834 4.9072 -1.34428 0
M  V30 260 H 20.1814 5.36155 1.80429 0
M  V30 261 H 18.7384 6.28942 1.71102 0
M  V30 262 N 22.1715 0.800033 1.35784 0
M  V30 263 C 23.5825 0.439142 1.81462 0
M  V30 264 C 23.9335 -1.03813 1.66485 0
M  V30 265 O 23.0585 -1.80626 1.19177 0
M  V30 266 C 23.6535 0.790314 3.29453 0
M  V30 267 C 22.2125 0.482111 3.733 0
M  V30 268 C 21.3595 1.01938 2.57883 0
M  V30 269 H 24.3105 0.992254 1.23855 0
M  V30 270 H 24.3315 0.0853677 3.80404 0
M  V30 271 H 23.8435 1.86554 3.40322 0
M  V30 272 H 21.9445 -0.584652 3.67984 0
M  V30 273 H 22.0575 1.01015 4.6833 0
M  V30 274 H 20.4215 0.442043 2.50835 0
M  V30 275 H 21.2045 2.10059 2.71533 0
M  V30 276 N 23.6496 -1.47581 0.552962 0
M  V30 277 C 24.8746 -2.07378 0.0300593 0
M  V30 278 C 25.2996 -1.40355 -1.25229 0
M  V30 279 O 24.6576 -0.477099 -1.7491 0
M  V30 280 C 24.7056 -3.60274 -0.153231 0
M  V30 281 O 23.8096 -3.94041 -1.21678 0
M  V30 282 H 23.1506 -0.662158 0.0494182 0
M  V30 283 H 25.6806 -1.89662 0.767434 0
M  V30 284 H 25.6906 -4.0633 -0.368761 0
M  V30 285 H 24.3656 -4.08455 0.783397 0
M  V30 286 H 22.9426 -3.59735 -0.982079 0
M  V30 287 N 25.1277 -0.289203 -1.54924 0
M  V30 288 C 26.3757 0.322879 -1.99504 0
M  V30 289 C 26.6967 1.55313 -1.1791 0
M  V30 290 O 25.9667 1.94001 -0.272097 0
M  V30 291 H 24.5467 0.122291 -0.736922 0
M  V30 292 H 27.2087 -0.397802 -1.90797 0
M  V30 293 H 26.3047 0.603061 -3.06218 0
M  V30 294 N 26.6058 1.57591 -0.0167156 0
M  V30 295 C 27.8538 1.90906 0.663285 0
M  V30 296 C 28.1748 0.892509 1.73376 0
M  V30 297 O 27.4448 -0.0677623 1.95783 0
M  V30 298 H 26.0248 0.704637 0.247983 0
M  V30 299 H 28.6868 1.94803 -0.0615909 0
M  V30 300 H 27.7828 2.9116 1.12393 0
M  V30 301 N 28.0839 -0.256276 1.55502 0
M  V30 302 C 29.4949 -0.826068 1.67431 0
M  V30 303 C 29.8459 -1.86396 0.612446 0
M  V30 304 O 28.9709 -2.15031 -0.243025 0
M  V30 305 C 29.5659 -1.50512 3.03532 0
M  V30 306 C 28.1249 -2.02273 3.17431 0
M  V30 307 C 27.2719 -0.870548 2.63281 0
M  V30 308 H 30.2229 -0.0322728 1.58667 0
M  V30 309 H 30.2439 -2.37279 2.97454 0
M  V30 310 H 29.7559 -0.749484 3.80794 0
M  V30 311 H 27.8569 -2.80746 2.44974 0
M  V30 312 H 27.9699 -2.22655 4.24219 0
M  V30 313 H 26.3339 -1.26851 2.20864 0
M  V30 314 H 27.1169 -0.128149 3.43061 0
M  V30 315 N 29.562 -1.4872 -0.521534 0
M  V30 316 C 30.525 -1.63379 -1.60748 0
M  V30 317 C 31.525 -0.50661 -1.52611 0
M  V30 318 O 32.715 -0.772601 -1.5613 0
M  V30 319 C 29.847 -1.61192 -3.00383 0
M  V30 320 H 31.04 -2.60217 -1.49087 0
M  V30 321 H 28.593 -1.37444 -0.744235 0
M  V30 322 H 29.328 -0.65863 -3.17541 0
M  V30 323 H 29.113 -2.43032 -3.07698 0
M  V30 324 H 30.603 -1.7466 -3.7932 0
M  V30 325 N 31.0401 0.771051 -1.3745 0
M  V30 326 C 32.0031 1.86598 -1.33093 0
M  V30 327 C 33.0031 1.59076 -0.234845 0
M  V30 328 O 34.1931 1.67145 -0.490732 0
M  V30 329 C 31.3251 3.23747 -1.06773 0
M  V30 330 H 32.5181 1.91873 -2.30488 0
M  V30 331 H 30.0711 0.970876 -1.2249 0
M  V30 332 H 30.8061 3.24148 -0.099129 0
M  V30 333 H 30.5911 3.45115 -1.86112 0
M  V30 334 H 32.0811 4.03824 -1.06377 0
M  V30 335 N 32.5182 1.22032 0.997298 0
M  V30 336 C 33.7952 0.950823 1.70935 0
M  V30 337 C 34.1752 -0.535292 2.042 0
M  V30 338 O 33.5232 -1.50217 1.72183 0
M  V30 339 C 33.7332 1.84386 2.96315 0
M  V30 340 C 35.0812 2.09732 3.69185 0
M  V30 341 O 36.1052 1.81798 3.06314 0
M  V30 342 O 34.9642 2.57018 4.82291 0
M  V30 343 H 32.0582 0.357204 0.745878 0
M  V30 344 H 34.6042 1.32997 1.05404 0
M  V30 345 H 33.3762 2.84928 2.68201 0
M  V30 346 H 32.9992 1.46602 3.69586 0
M  V30 347 N 33.9963 -1.19345 1.0293 0
M  V30 348 C 34.9283 -2.22036 0.56857 0
M  V30 349 C 35.9413 -1.58865 -0.355779 0
M  V30 350 O 37.1303 -1.77851 -0.152103 0
M  V30 351 C 34.2303 -3.38363 -0.190752 0
M  V30 352 C 33.4033 -4.31118 0.738643 0
M  V30 353 C 32.4623 -5.26194 0.0246497 0
M  V30 354 O 31.4883 -5.65461 0.651354 0
M  V30 355 N 32.6903 -5.66971 -1.24594 0
M  V30 356 H 35.4553 -2.6219 1.45177 0
M  V30 357 H 33.0163 -1.34015 0.908381 0
M  V30 358 H 35.0083 -3.98981 -0.677961 0
M  V30 359 H 33.5783 -2.96994 -0.975366 0
M  V30 360 H 32.7983 -3.68276 1.40593 0
M  V30 361 H 34.0863 -4.90001 1.37029 0
M  V30 362 H 33.4843 -5.37104 -1.77583 0
M  V30 363 H 32.0413 -6.2984 -1.67764 0
M  V30 364 N 35.4744 -0.807222 -1.35358 0
M  V30 365 C 36.7514 -0.311126 -1.9311 0
M  V30 366 C 37.1314 1.19937 -1.73719 0
M  V30 367 O 36.4794 1.99918 -1.10657 0
M  V30 368 C 36.6894 -0.723226 -3.41424 0
M  V30 369 C 38.0374 -0.713078 -4.18569 0
M  V30 370 O 39.0614 -0.664811 -3.49941 0
M  V30 371 O 37.9204 -0.772022 -5.41019 0
M  V30 372 H 35.0144 -0.081526 -0.822972 0
M  V30 373 H 37.5604 -0.890962 -1.4443 0
M  V30 374 H 36.3324 -1.76426 -3.4927 0
M  V30 375 H 35.9554 -0.118232 -3.97424 0
M  V30 376 N 36.9525 1.47285 -0.560781 0
M  V30 377 C 38.1985 2.02764 -0.0381184 0
M  V30 378 C 38.5315 1.43384 1.30976 0
M  V30 379 O 37.8065 0.590733 1.85312 0
M  V30 380 C 38.0895 3.60064 0.0511427 0
M  V30 381 C 37.9425 4.2987 -1.32408 0
M  V30 382 C 39.2615 4.33439 0.762795 0
M  V30 383 H 36.3805 0.736841 -0.0153264 0
M  V30 384 H 39.0225 1.75675 -0.723759 0
M  V30 385 H 37.1725 3.83274 0.635065 0
M  V30 386 H 38.8445 4.17989 -1.95148 0
M  V30 387 H 37.0875 3.90085 -1.8978 0
M  V30 388 H 37.7585 5.38478 -1.21431 0
M  V30 389 H 40.2345 4.15243 0.266965 0
M  V30 390 H 39.1105 5.43124 0.794221 0
M  V30 391 H 39.3715 4.02915 1.81966 0
M  V30 392 N 38.4306 0.297415 1.54768 0
M  V30 393 C 39.3606 -0.573494 2.26348 0
M  V30 394 C 40.3416 -1.14085 1.26169 0
M  V30 395 O 41.5266 -1.17086 1.54934 0
M  V30 396 C 38.6566 -1.74716 3.00153 0
M  V30 397 C 37.6106 -1.31032 4.07449 0
M  V30 398 C 36.9366 -2.56887 4.68949 0
M  V30 399 C 38.2366 -0.444183 5.20408 0
M  V30 400 H 39.9306 0.0235131 2.99391 0
M  V30 401 H 37.4766 0.0127488 1.43994 0
M  V30 402 H 39.4296 -2.3625 3.48947 0
M  V30 403 H 38.1536 -2.37035 2.24682 0
M  V30 404 H 36.8126 -0.718066 3.59499 0
M  V30 405 H 36.4606 -3.17512 3.90122 0
M  V30 406 H 36.1606 -2.2836 5.41411 0
M  V30 407 H 37.6846 -3.19229 5.20505 0
M  V30 408 H 39.0986 -0.9651 5.65118 0
M  V30 409 H 37.4956 -0.252846 5.99567 0
M  V30 410 H 38.5656 0.531609 4.81977 0
M  V30 411 N 39.9087 -1.5758 0.0250728 0
M  V30 412 C 41.1567 -1.91255 -0.653151 0
M  V30 413 C 41.4777 -0.901691 -1.729 0
M  V30 414 O 40.7477 0.0573785 -1.95816 0
M  V30 415 H 39.3277 -0.705942 -0.244243 0
M  V30 416 H 41.9897 -1.94767 0.0719209 0
M  V30 417 H 41.0857 -2.91752 -1.10847 0
M  V30 418 N 41.3868 0.248026 -1.55636 0
M  V30 419 C 42.2968 1.32859 -1.93354 0
M  V30 420 C 43.3128 1.52719 -0.833838 0
M  V30 421 O 44.4888 1.66363 -1.13513 0
M  V30 422 C 41.5538 2.66337 -2.21958 0
M  V30 423 C 40.6148 2.55008 -3.45354 0
M  V30 424 C 39.8478 3.82121 -3.72584 0
M  V30 425 O 40.0708 4.83951 -3.01907 0
M  V30 426 O 39.0048 3.80822 -4.6611 0
M  V30 427 H 42.8308 1.03862 -2.85388 0
M  V30 428 H 40.4158 0.448686 -1.42503 0
M  V30 429 H 42.2978 3.45216 -2.4167 0
M  V30 430 H 40.9728 2.95068 -1.33103 0
M  V30 431 H 39.8798 1.7442 -3.30951 0
M  V30 432 H 41.2128 2.31222 -4.34508 0
M  V30 433 N 42.8649 1.48995 0.513639 0
M  V30 434 C 43.7749 1.67443 1.64317 0
M  V30 435 C 44.7909 0.556947 1.64846 0
M  V30 436 O 45.9669 0.830082 1.83498 0
M  V30 437 C 43.0319 1.72515 3.00732 0
M  V30 438 C 42.0929 2.96009 3.1093 0
M  V30 439 C 41.3259 3.00829 4.40837 0
M  V30 440 O 41.5489 2.13594 5.28898 0
M  V30 441 O 40.4829 3.93168 4.55744 0
M  V30 442 H 44.3089 2.63106 1.51687 0
M  V30 443 H 41.8939 1.32588 0.688543 0
M  V30 444 H 43.7759 1.78277 3.81831 0
M  V30 445 H 42.4509 0.800278 3.13651 0
M  V30 446 H 41.3579 2.9577 2.29065 0
M  V30 447 H 42.6909 3.87934 3.02933 0
M  V30 448 N 44.343 -0.763751 1.37857 0
M  V30 449 C 45.568 -1.55805 1.36893 0
M  V30 450 C 45.993 -1.88054 -0.0416135 0
M  V30 451 O 45.351 -1.49825 -1.02089 0
M  V30 452 C 45.399 -2.84012 2.22192 0
M  V30 453 O 44.503 -3.78732 1.63204 0
M  V30 454 H 43.844 -0.471638 0.46739 0
M  V30 455 H 46.374 -0.944657 1.81487 0
M  V30 456 H 46.384 -3.33037 2.35691 0
M  V30 457 H 45.059 -2.59869 3.24716 0
M  V30 458 H 43.636 -3.37402 1.58791 0
M  V30 459 N 45.8211 -1.22559 -0.990812 0
M  V30 460 C 47.2321 -1.04791 -1.54518 0
M  V30 461 C 47.5831 0.387998 -1.92325 0
M  V30 462 O 46.7081 1.27328 -1.74976 0
M  V30 463 C 47.3031 -1.896 -2.80779 0
M  V30 464 C 45.8621 -1.76124 -3.32652 0
M  V30 465 C 45.0091 -1.8594 -2.05722 0
M  V30 466 H 47.9601 -1.36374 -0.811662 0
M  V30 467 H 47.9811 -1.41464 -3.53225 0
M  V30 468 H 47.4931 -2.94101 -2.53231 0
M  V30 469 H 45.5941 -0.743643 -3.65104 0
M  V30 470 H 45.7071 -2.58913 -4.03114 0
M  V30 471 H 44.0711 -1.29403 -2.19379 0
M  V30 472 H 44.8541 -2.91976 -1.80568 0
M  V30 473 N 47.2992 1.18797 -1.03562 0
M  V30 474 C 48.2292 2.24472 -0.643019 0
M  V30 475 C 49.2102 1.66433 0.351283 0
M  V30 476 O 50.3952 1.92803 0.232505 0
M  V30 477 C 47.5252 3.473 4.24935e-05 0
M  V30 478 C 46.4792 4.18055 -0.917257 0
M  V30 479 C 45.8052 5.34519 -0.138941 0
M  V30 480 C 47.1052 4.72109 -2.23407 0
M  V30 481 H 48.7992 2.57566 -1.52643 0
M  V30 482 H 46.3452 1.23806 -0.735394 0
M  V30 483 H 48.2982 4.20426 0.286383 0
M  V30 484 H 47.0222 3.13424 0.918299 0
M  V30 485 H 45.6812 3.46821 -1.1879 0
M  V30 486 H 45.3292 4.96891 0.781562 0
M  V30 487 H 45.0292 5.82794 -0.750005 0
M  V30 488 H 46.5532 6.10438 0.1405 0
M  V30 489 H 47.9672 5.36955 -2.00879 0
M  V30 490 H 46.3642 5.30897 -2.79765 0
M  V30 491 H 47.4342 3.89807 -2.88407 0
M  V30 492 N 48.7773 0.814389 1.34928 0
M  V30 493 C 50.0253 0.397636 1.9815 0
M  V30 494 C 50.3463 -1.04069 1.64908 0
M  V30 495 O 49.6163 -1.72121 0.93548 0
M  V30 496 H 48.1963 0.144043 0.732981 0
M  V30 497 H 50.8583 1.04195 1.6471 0
M  V30 498 H 49.9543 0.509688 3.0791 0
M  V30 499 N 50.2554 -1.46986 0.568584 0
M  V30 500 C 51.2024 -2.30153 -0.172707 0
M  V30 501 C 52.1724 -1.39759 -0.897586 0
M  V30 502 O 53.3574 -1.68716 -0.891044 0
M  V30 503 C 50.4974 -3.23952 -1.1895 0
M  V30 504 C 49.6104 -4.29441 -0.469517 0
M  V30 505 C 48.7454 -5.1038 -1.47259 0
M  V30 506 C 47.7844 -6.07632 -0.738225 0
M  V30 507 N 46.9214 -6.8149 -1.68868 0
M  V30 508 H 51.7614 -2.93019 0.542596 0
M  V30 509 H 49.2984 -1.44422 0.279401 0
M  V30 510 H 51.2564 -3.76767 -1.79173 0
M  V30 511 H 49.8864 -2.62926 -1.87269 0
M  V30 512 H 48.9384 -3.79594 0.247467 0
M  V30 513 H 50.2504 -4.98689 0.105241 0
M  V30 514 H 49.4044 -5.67402 -2.14803 0
M  V30 515 H 48.1434 -4.4106 -2.08128 0
M  V30 516 H 47.1484 -5.49778 -0.0489293 0
M  V30 517 H 48.3734 -6.78966 -0.135129 0
M  V30 518 H 46.3194 -6.14891 -2.28573 0
M  V30 519 H 46.2364 -7.46948 -1.16636 0
M  V30 520 H 47.5044 -7.43078 -2.3549 0
M  V30 521 N 51.7335 -0.305618 -1.54608 0
M  V30 522 C 53.1445 0.186098 -1.8577 0
M  V30 523 C 53.4955 1.53058 -1.22751 0
M  V30 524 O 52.6205 2.09888 -0.526893 0
M  V30 525 C 53.2155 0.344449 -3.37044 0
M  V30 526 C 51.7745 0.780384 -3.68221 0
M  V30 527 C 50.9215 -0.108554 -2.77087 0
M  V30 528 H 53.8725 -0.526485 -1.49712 0
M  V30 529 H 53.8935 1.17828 -3.61796 0
M  V30 530 H 53.4055 -0.634235 -3.82883 0
M  V30 531 H 51.5065 1.76945 -3.27904 0
M  V30 532 H 51.6195 0.596572 -4.75371 0
M  V30 533 H 49.9835 0.412931 -2.5133 0
M  V30 534 H 50.7665 -1.08368 -3.25747 0
M  V30 535 N 53.2116 1.57565 -0.0334293 0
M  V30 536 C 54.1746 2.09393 0.932048 0
M  V30 537 C 55.1746 1.00986 1.25134 0
M  V30 538 O 56.3646 1.27129 1.19096 0
M  V30 539 C 53.4966 2.56338 2.2473 0
M  V30 540 H 54.6896 2.95984 0.483085 0
M  V30 541 H 52.2426 1.54819 0.21468 0
M  V30 542 H 52.9776 1.7309 2.74245 0
M  V30 543 H 52.7626 3.35542 2.02865 0
M  V30 544 H 54.2526 2.96646 2.93923 0
M  V30 545 N 54.6897 -0.239769 1.55765 0
M  V30 546 C 55.6227 -1.32356 1.85895 0
M  V30 547 C 56.6007 -1.46053 0.714662 0
M  V30 548 O 57.7847 -1.62154 0.961157 0
M  V30 549 C 54.9117 -2.6962 2.04994 0
M  V30 550 C 53.9577 -2.73036 3.27648 0
M  V30 551 S 54.7907 -2.28929 4.84099 0
M  V30 552 C 55.9467 -3.68103 5.06212 0
M  V30 553 H 56.1797 -1.06601 2.77531 0
M  V30 554 H 53.7127 -0.441112 1.47965 0
M  V30 555 H 55.6707 -3.48653 2.16682 0
M  V30 556 H 54.3317 -2.92609 1.14188 0
M  V30 557 H 53.5247 -3.7386 3.38 0
M  V30 558 H 53.1267 -2.02052 3.14723 0
M  V30 559 H 55.4187 -4.63656 4.93993 0
M  V30 560 H 56.3617 -3.6268 6.08168 0
M  V30 561 H 56.7697 -3.60947 4.34025 0
M  V30 562 N 56.1678 -1.49265 -0.50573 0
M  V30 563 C 57.0978 -1.68495 -1.61653 0
M  V30 564 C 58.0788 -0.53366 -1.61512 0
M  V30 565 O 59.2638 -0.76897 -1.78327 0
M  V30 566 C 56.3938 -1.74709 -3.00157 0
M  V30 567 C 55.3478 -2.89581 -3.15162 0
M  V30 568 C 54.6738 -2.80903 -4.5497 0
M  V30 569 C 55.9738 -4.30578 -2.95634 0
M  V30 570 H 57.6678 -2.61493 -1.45814 0
M  V30 571 H 55.2138 -1.25838 -0.70005 0
M  V30 572 H 57.1668 -1.86748 -3.77761 0
M  V30 573 H 55.8908 -0.783067 -3.17074 0
M  V30 574 H 54.5498 -2.77136 -2.39982 0
M  V30 575 H 54.1978 -1.82419 -4.68756 0
M  V30 576 H 53.8978 -3.57999 -4.65951 0
M  V30 577 H 55.4218 -2.94944 -5.34641 0
M  V30 578 H 56.8358 -4.4373 -3.63011 0
M  V30 579 H 55.2328 -5.0886 -3.18091 0
M  V30 580 H 56.3028 -4.45352 -1.91806 0
M  V30 581 N 57.6459 0.756429 -1.3826 0
M  V30 582 C 58.5959 1.86069 -1.31766 0
M  V30 583 C 59.5799 1.59621 -0.202483 0
M  V30 584 O 60.7719 1.7149 -0.438211 0
M  V30 585 C 57.9009 3.23742 -1.1422 0
M  V30 586 C 56.9869 3.56091 -2.30348 0
M  V30 587 N 57.3779 3.59517 -3.55783 0
M  V30 588 C 55.6759 3.86341 -2.22838 0
M  V30 589 C 56.3769 3.89052 -4.32451 0
M  V30 590 N 55.3529 4.05736 -3.61772 0
M  V30 591 H 59.1549 1.86992 -2.26741 0
M  V30 592 H 56.6689 0.953643 -1.31451 0
M  V30 593 H 58.6659 4.02761 -1.07652 0
M  V30 594 H 57.3259 3.24073 -0.201763 0
M  V30 595 H 58.3369 3.41347 -3.89491 0
M  V30 596 H 55.0139 3.94404 -1.36937 0
M  V30 597 H 56.4039 3.98349 -5.4108 0
M  V30 598 N 59.124 1.23083 0.984299 0
M  V30 599 C 60.054 1.03292 2.09411 0
M  V30 600 C 61.035 -0.048923 1.7003 0
M  V30 601 O 62.22 0.114967 1.93859 0
M  V30 602 C 59.35 0.619155 3.41736 0
M  V30 603 C 58.304 1.64791 3.95004 0
M  V30 604 C 57.63 1.0897 5.23478 0
M  V30 605 C 58.93 3.03999 4.24714 0
M  V30 606 H 60.624 1.96119 2.26225 0
M  V30 607 H 58.17 0.944344 1.08711 0
M  V30 608 H 60.123 0.467777 4.18796 0
M  V30 609 H 58.847 -0.344786 3.24775 0
M  V30 610 H 57.506 1.78721 3.20085 0
M  V30 611 H 57.154 0.11686 5.02864 0
M  V30 612 H 56.854 1.77704 5.60085 0
M  V30 613 H 58.378 0.950093 6.03163 0
M  V30 614 H 59.792 2.93393 4.92538 0
M  V30 615 H 58.189 3.69936 4.72512 0
M  V30 616 H 59.259 3.53285 3.32142 0
M  V30 617 N 60.6021 -1.18246 1.0419 0
M  V30 618 C 62.0131 -1.69914 0.773698 0
M  V30 619 C 62.3641 -1.83085 -0.705297 0
M  V30 620 O 61.4891 -1.51123 -1.5489 0
M  V30 621 C 62.0841 -3.08619 1.39784 0
M  V30 622 C 60.6431 -3.57494 1.17792 0
M  V30 623 C 59.7901 -2.34013 1.48773 0
M  V30 624 H 62.7411 -1.02904 1.20816 0
M  V30 625 H 62.7621 -3.71958 0.801714 0
M  V30 626 H 62.2741 -2.99001 2.47426 0
M  V30 627 H 60.3751 -3.72406 0.120295 0
M  V30 628 H 60.4881 -4.40852 1.87581 0
M  V30 629 H 58.8521 -2.37986 0.907463 0
M  V30 630 H 59.6351 -2.27013 2.57527 0
M  V30 631 N 62.0802 -0.821533 -1.34494 0
M  V30 632 C 63.3052 -0.420873 -2.03085 0
M  V30 633 C 63.7302 0.964915 -1.61465 0
M  V30 634 O 63.0882 1.62763 -0.798607 0
M  V30 635 C 63.1362 -0.529414 -3.56693 0
M  V30 636 O 62.2402 0.451302 -4.09923 0
M  V30 637 H 61.5812 -0.173489 -0.640935 0
M  V30 638 H 64.1112 -1.11157 -1.71771 0
M  V30 639 H 64.1212 -0.404671 -4.05988 0
M  V30 640 H 62.7962 -1.54014 -3.86332 0
M  V30 641 H 61.3732 0.285558 -3.71805 0
M  V30 642 N 63.5583 1.46682 -0.576371 0
M  V30 643 C 64.4683 2.34032 0.163141 0
M  V30 644 C 65.4843 1.49367 0.892501 0
M  V30 645 O 66.6603 1.82252 0.857106 0
M  V30 646 C 63.7253 3.26435 1.16795 0
M  V30 647 C 62.7863 4.26998 0.443944 0
M  V30 648 C 62.0193 5.14986 1.40088 0
M  V30 649 O 62.2423 5.05785 2.637 0
M  V30 650 O 61.1763 5.94906 0.914917 0
M  V30 651 H 65.0023 2.98607 -0.55388 0
M  V30 652 H 62.5873 1.45554 -0.336821 0
M  V30 653 H 64.4693 3.83459 1.74748 0
M  V30 654 H 63.1443 2.64465 1.86655 0
M  V30 655 H 62.0513 3.7368 -0.177271 0
M  V30 656 H 63.3843 4.91736 -0.213566 0
M  V30 657 N 65.0364 0.313813 1.54444 0
M  V30 658 C 65.9684 -0.590425 2.21465 0
M  V30 659 C 66.9814 -1.08753 1.21147 0
M  V30 660 O 68.1704 -1.00278 1.4767 0
M  V30 661 C 65.2704 -1.82179 2.85769 0
M  V30 662 C 64.4434 -1.46502 4.12136 0
M  V30 663 C 63.5024 -2.55288 4.60124 0
M  V30 664 O 62.5284 -2.19842 5.25032 0
M  V30 665 N 63.7304 -3.86053 4.33525 0
M  V30 666 H 66.4954 -0.0166033 2.99695 0
M  V30 667 H 64.0564 0.136578 1.61323 0
M  V30 668 H 66.0484 -2.54328 3.14801 0
M  V30 669 H 64.6184 -2.30369 2.11303 0
M  V30 670 H 63.8384 -0.575595 3.89975 0
M  V30 671 H 65.1264 -1.20221 4.94393 0
M  V30 672 H 64.5244 -4.17654 3.81552 0
M  V30 673 H 63.0814 -4.54461 4.67235 0
M  V30 674 N 66.5145 -1.57545 0.0417849 0
M  V30 675 C 67.7625 -1.91937 -0.632829 0
M  V30 676 C 68.0835 -0.919978 -1.71934 0
M  V30 677 O 67.3535 0.0366064 -1.95866 0
M  V30 678 H 65.9335 -0.708493 -0.236742 0
M  V30 679 H 68.5955 -1.9468 0.0925745 0
M  V30 680 H 67.6915 -2.92912 -1.07746 0
M  V30 681 N 67.9926 0.231505 -1.5589 0
M  V30 682 C 68.9556 1.27028 -1.90779 0
M  V30 683 C 69.9556 1.40308 -0.785507 0
M  V30 684 O 71.1456 1.38744 -1.05336 0
M  V30 685 C 68.2776 2.64566 -2.14983 0
M  V30 686 H 69.4706 0.973017 -2.83677 0
M  V30 687 H 67.0236 0.471486 -1.49019 0
M  V30 688 H 67.7586 2.99406 -1.24604 0
M  V30 689 H 67.5436 2.56305 -2.96732 0
M  V30 690 H 69.0336 3.39543 -2.43105 0
M  V30 691 N 69.4707 1.49531 0.497807 0
M  V30 692 C 70.8817 1.52344 1.07927 0
M  V30 693 C 71.2327 0.311469 1.93712 0
M  V30 694 O 70.3577 -0.578405 2.08527 0
M  V30 695 C 70.9527 2.76062 1.96405 0
M  V30 696 C 69.5117 2.81643 2.49709 0
M  V30 697 C 68.6587 2.46299 1.27404 0
M  V30 698 H 71.6097 1.56182 0.281576 0
M  V30 699 H 71.6307 2.56405 2.81135 0
M  V30 700 H 71.1427 3.64254 1.33943 0
M  V30 701 H 69.2437 1.97739 3.15801 0
M  V30 702 H 69.3567 3.83891 2.86643 0
M  V30 703 H 67.7207 1.98148 1.60029 0
M  V30 704 H 68.5037 3.36769 0.66645 0
M  V30 705 N 70.9488 -0.749086 1.3866 0
M  V30 706 C 71.8588 -1.89358 1.38494 0
M  V30 707 C 72.8748 -1.71708 0.281476 0
M  V30 708 O 74.0508 -1.94554 0.520643 0
M  V30 709 C 71.1158 -3.24782 1.21316 0
M  V30 710 C 70.1768 -3.54926 2.41508 0
M  V30 711 C 69.4098 -4.83888 2.2514 0
M  V30 712 O 69.6328 -5.56592 1.24746 0
M  V30 713 O 68.5668 -5.13612 3.13826 0
M  V30 714 H 72.3928 -1.92452 2.34938 0
M  V30 715 H 69.9778 -0.894981 1.19626 0
M  V30 716 H 71.8598 -4.05739 1.13814 0
M  V30 717 H 70.5348 -3.2249 0.279592 0
M  V30 718 H 69.4418 -2.74112 2.54585 0
M  V30 719 H 70.7748 -3.61983 3.3351 0
M  V30 720 N 72.4269 -1.23603 -0.977757 0
M  V30 721 C 73.6549 -1.09646 -1.75458 0
M  V30 722 C 74.0699 0.351859 -1.85492 0
M  V30 723 O 73.4269 1.24327 -1.336 0
M  V30 724 C 73.4779 -1.71895 -3.18016 0
M  V30 725 O 73.1989 -3.11063 -3.08498 0
M  V30 726 C 74.6999 -1.63415 -4.12081 0
M  V30 727 H 71.9199 -0.38359 -0.550545 0
M  V30 728 H 74.4639 -1.63507 -1.22824 0
M  V30 729 H 72.6189 -1.22061 -3.67668 0
M  V30 730 H 73.0329 -3.41305 -3.9826 0
M  V30 731 H 74.5069 -2.11669 -5.09804 0
M  V30 732 H 74.9839 -0.593462 -4.35172 0
M  V30 733 H 75.5899 -2.12628 -3.68334 0
M  V30 734 N 73.905 1.17692 -1.04816 0
M  V30 735 C 74.835 2.23777 -0.666791 0
M  V30 736 C 75.816 1.66796 0.33361 0
M  V30 737 O 77.001 1.93039 0.212042 0
M  V30 738 C 74.131 3.47281 -0.0367933 0
M  V30 739 C 73.085 4.17059 -0.961546 0
M  V30 740 C 72.411 5.34342 -0.195626 0
M  V30 741 C 73.711 4.69713 -2.28402 0
M  V30 742 H 75.405 2.55933 -1.55367 0
M  V30 743 H 72.951 1.23019 -0.748484 0
M  V30 744 H 74.904 4.20706 0.241775 0
M  V30 745 H 73.628 3.14381 0.885004 0
M  V30 746 H 72.287 3.45541 -1.22462 0
M  V30 747 H 71.935 4.97692 0.728816 0
M  V30 748 H 71.635 5.81966 -0.811775 0
M  V30 749 H 73.159 6.10553 0.0757473 0
M  V30 750 H 74.573 5.34794 -2.06563 0
M  V30 751 H 72.97 5.279 -2.8538 0
M  V30 752 H 74.04 3.86726 -2.92525 0
M  V30 753 N 75.3831 0.828654 1.34056 0
M  V30 754 C 76.3151 0.212052 2.28217 0
M  V30 755 C 77.3281 -0.601362 1.51286 0
M  V30 756 O 78.5171 -0.430104 1.73241 0
M  V30 757 C 75.6171 -0.72088 3.31144 0
M  V30 758 C 74.7901 0.0509587 4.3737 0
M  V30 759 C 73.8491 -0.803766 5.20025 0
M  V30 760 O 72.8751 -0.246667 5.68665 0
M  V30 761 N 74.0771 -2.1227 5.40298 0
M  V30 762 H 76.8421 1.02105 2.81771 0
M  V30 763 H 74.4031 0.686153 1.46641 0
M  V30 764 H 76.3951 -1.29742 3.8334 0
M  V30 765 H 74.9651 -1.43061 2.77943 0
M  V30 766 H 74.1851 0.808831 3.85813 0
M  V30 767 H 75.4731 0.582065 5.0546 0
M  V30 768 H 74.8711 -2.59898 5.02464 0
M  V30 769 H 73.4281 -2.64796 5.95589 0
M  V30 770 N 76.8612 -1.46375 0.584142 0
M  V30 771 C 78.2772 -1.57694 0.245929 0
M  V30 772 C 78.4772 -1.57903 -1.25175 0
M  V30 773 O 77.5332 -1.49676 -2.03355 0
M  V30 774 C 78.8462 -2.87028 0.896402 0
M  V30 775 C 80.3942 -3.00662 0.870127 0
M  V30 776 C 80.8692 -4.32734 1.50017 0
M  V30 777 N 82.3602 -4.39436 1.46458 0
M  V30 778 C 83.0952 -5.40248 1.92144 0
M  V30 779 N 82.5912 -6.47726 2.4581 0
M  V30 780 N 84.3842 -5.31459 1.83052 0
M  V30 781 H 76.5352 -1.44483 1.55687 0
M  V30 782 H 78.7982 -0.689291 0.650831 0
M  V30 783 H 78.5042 -2.9269 1.95002 0
M  V30 784 H 78.3782 -3.75014 0.405486 0
M  V30 785 H 80.7652 -2.94581 -0.174871 0
M  V30 786 H 80.8462 -2.14148 1.39908 0
M  V30 787 H 80.4902 -4.39573 2.54437 0
M  V30 788 H 80.4202 -5.18025 0.946432 0
M  V30 789 H 82.9112 -3.62367 1.07231 0
M  V30 790 H 83.2242 -7.20863 2.78525 0
M  V30 791 H 81.5692 -6.48542 2.49836 0
M  V30 792 H 84.7602 -4.46396 1.40883 0
M  V30 793 H 84.9332 -6.09881 2.18973 0
M  V30 794 N 78.3393 -0.321999 -1.54275 0
M  V30 795 C 79.5793 0.281657 -2.0245 0
M  V30 796 C 79.9433 1.49468 -1.20513 0
M  V30 797 O 81.1443 2.17109 -1.58484 0
M  V30 798 C 79.4153 0.609014 -3.52173 0
M  V30 799 S 80.9743 1.19255 -4.22284 0
M  V30 800 H 77.7923 0.0852825 -0.705867 0
M  V30 801 H 80.3943 -0.454758 -1.90137 0
M  V30 802 H 79.0983 -0.281982 -4.0943 0
M  V30 803 H 78.6293 1.37567 -3.68563 0
M  V30 804 H 80.6443 2.47944 -4.29812 0
M  V30 805 N 79.8174 1.5752 -0.0501392 0
M  V30 806 C 80.7474 2.14502 0.922566 0
M  V30 807 C 81.7284 1.06642 1.3252 0
M  V30 808 O 82.9134 1.34577 1.4001 0
M  V30 809 C 80.0434 2.68916 2.19776 0
M  V30 810 C 78.9974 3.8175 1.93523 0
M  V30 811 C 78.3234 4.22677 3.27487 0
M  V30 812 C 79.6234 5.06932 1.25765 0
M  V30 813 H 81.3174 2.9603 0.447952 0
M  V30 814 H 78.8634 1.42401 0.214024 0
M  V30 815 H 80.8164 3.07419 2.88222 0
M  V30 816 H 79.5404 1.84578 2.69441 0
M  V30 817 H 78.1994 3.43718 1.27489 0
M  V30 818 H 77.8474 3.35291 3.74952 0
M  V30 819 H 77.5474 4.98725 3.1072 0
M  V30 820 H 79.0714 4.63779 3.97166 0
M  V30 821 H 80.4854 5.42888 1.84244 0
M  V30 822 H 78.8824 5.88116 1.19328 0
M  V30 823 H 79.9524 4.84337 0.233536 0
M  V30 824 N 81.2955 -0.223234 1.56011 0
M  V30 825 C 82.2055 -1.29766 1.95443 0
M  V30 826 C 83.2215 -1.51373 0.858028 0
M  V30 827 O 84.3975 -1.64536 1.16146 0
M  V30 828 C 81.4625 -2.62772 2.26167 0
M  V30 829 C 80.5235 -2.49482 3.49367 0
M  V30 830 C 79.7565 -3.76145 3.78616 0
M  V30 831 O 79.9795 -4.79087 3.09568 0
M  V30 832 O 78.9135 -3.73358 4.72109 0
M  V30 833 H 82.7395 -0.99309 2.87004 0
M  V30 834 H 80.3245 -0.425958 1.43199 0
M  V30 835 H 82.2065 -3.41327 2.47131 0
M  V30 836 H 80.8815 -2.92913 1.37781 0
M  V30 837 H 79.7885 -1.69133 3.33684 0
M  V30 838 H 81.1215 -2.2428 4.38131 0
M  V30 839 N 82.7736 -1.49793 -0.48987 0
M  V30 840 C 83.6836 -1.70036 -1.61632 0
M  V30 841 C 84.6996 -0.583102 -1.63939 0
M  V30 842 O 85.8756 -0.859169 -1.82154 0
M  V30 843 C 82.9406 -1.77277 -2.97949 0
M  V30 844 C 82.0016 -3.00918 -3.06181 0
M  V30 845 C 81.2346 -3.07804 -4.35996 0
M  V30 846 O 81.4576 -2.21982 -5.25433 0
M  V30 847 O 80.3916 -4.00369 -4.49431 0
M  V30 848 H 84.2176 -2.65486 -1.47482 0
M  V30 849 H 81.8026 -1.33666 -0.667362 0
M  V30 850 H 83.6846 -1.84329 -3.78947 0
M  V30 851 H 82.3596 -0.850076 -3.12339 0
M  V30 852 H 81.2666 -2.99377 -2.2433 0
M  V30 853 H 82.5996 -3.92704 -2.96723 0
M  V30 854 N 84.2517 0.741722 -1.39055 0
M  V30 855 C 85.1997 1.87702 -1.3737 0
M  V30 856 C 86.1937 1.67427 -0.257812 0
M  V30 857 O 87.3997 1.7485 -0.427489 0
M  V30 858 H 83.7747 0.617757 -0.428812 0
M  V30 859 H 85.7457 1.86239 -2.33147 0
M  V30 860 C 84.4947 3.25315 -1.22741 0
M  V30 861 H 83.8177 3.41509 -2.07873 0
M  V30 862 H 85.2577 4.04964 -1.25618 0
M  V30 863 C 83.7167 3.36838 0.0647316 0
M  V30 864 O 84.2467 3.88073 1.03741 0
M  V30 865 N 82.4527 2.90329 0.125544 0
M  V30 866 H 81.9997 2.48823 -0.666682 0
M  V30 867 H 81.9577 2.98418 0.989639 0
M  V30 868 N 85.7298 1.2412 0.971189 0
M  V30 869 C 86.6618 0.988349 2.06795 0
M  V30 870 C 87.6748 -0.0409541 1.62748 0
M  V30 871 O 88.8638 0.195673 1.77424 0
M  V30 872 C 85.9638 0.469023 3.35639 0
M  V30 873 C 85.1368 1.56065 4.08611 0
M  V30 874 C 84.1958 1.04458 5.15728 0
M  V30 875 O 83.2218 1.73553 5.42096 0
M  V30 876 N 84.4238 -0.122817 5.8037 0
M  V30 877 H 87.1888 1.93265 2.29061 0
M  V30 878 H 84.7498 1.15102 1.13856 0
M  V30 879 H 86.7418 0.108613 4.04554 0
M  V30 880 H 85.3118 -0.380919 3.1027 0
M  V30 881 H 84.5318 2.09341 3.34021 0
M  V30 882 H 85.8198 2.29449 4.54126 0
M  V30 883 H 85.2178 -0.700563 5.61345 0
M  V30 884 H 83.7748 -0.424404 6.50417 0
M  V30 885 N 87.2079 -1.17134 1.05439 0
M  V30 886 C 88.1179 -2.24878 0.668365 0
M  V30 887 C 89.1339 -1.71186 -0.311687 0
M  V30 888 O 90.3099 -2.00738 -0.163161 0
M  V30 889 C 87.3749 -3.46662 0.051648 0
M  V30 890 C 86.4359 -4.15429 1.08246 0
M  V30 891 C 85.6689 -5.31399 0.495082 0
M  V30 892 O 85.8919 -5.66153 -0.694743 0
M  V30 893 O 84.8259 -5.89187 1.23056 0
M  V30 894 H 88.6519 -2.60189 1.56637 0
M  V30 895 H 86.2369 -1.24482 0.826104 0
M  V30 896 H 88.1189 -4.20394 -0.290966 0
M  V30 897 H 86.7939 -3.13142 -0.819971 0
M  V30 898 H 85.7009 -3.43704 1.47711 0
M  V30 899 H 87.0339 -4.52982 1.92532 0
M  V30 900 N 88.686 -0.835752 -1.33615 0
M  V30 901 C 89.616 -0.281739 -2.31794 0
M  V30 902 C 90.597 0.608833 -1.58831 0
M  V30 903 O 91.782 0.533035 -1.86741 0
M  V30 904 C 88.912 0.546612 -3.42971 0
M  V30 905 C 87.866 -0.247904 -4.27281 0
M  V30 906 C 87.192 0.704001 -5.30045 0
M  V30 907 C 88.492 -1.46324 -5.01385 0
M  V30 908 H 90.186 -1.10206 -2.78379 0
M  V30 909 H 87.732 -0.531388 -1.33837 0
M  V30 910 H 89.685 0.944467 -4.1068 0
M  V30 911 H 88.409 1.40011 -2.95067 0
M  V30 912 H 87.068 -0.627281 -3.61194 0
M  V30 913 H 86.716 1.55381 -4.78399 0
M  V30 914 H 86.416 0.176524 -5.87335 0
M  V30 915 H 87.94 1.09944 -6.0062 0
M  V30 916 H 89.354 -1.13871 -5.61877 0
M  V30 917 H 87.751 -1.92728 -5.6831 0
M  V30 918 H 88.821 -2.23467 -4.30338 0
M  V30 919 N 90.1641 1.46063 -0.591896 0
M  V30 920 C 91.5801 1.57561 -0.254288 0
M  V30 921 C 91.7801 1.58565 1.24336 0
M  V30 922 O 90.8361 1.50753 2.02558 0
M  V30 923 C 92.1491 2.86549 -0.911611 0
M  V30 924 C 93.6971 3.00197 -0.886059 0
M  V30 925 C 94.1721 4.31933 -1.5231 0
M  V30 926 N 95.6631 4.38654 -1.48786 0
M  V30 927 C 96.3981 5.39222 -1.95006 0
M  V30 928 N 95.8941 6.46414 -2.49241 0
M  V30 929 N 97.6871 5.3048 -1.85868 0
M  V30 930 H 89.8381 1.43655 -1.56451 0
M  V30 931 H 92.1011 0.68583 -0.654478 0
M  V30 932 H 91.8071 2.91651 -1.96551 0
M  V30 933 H 91.6811 3.74794 -0.425368 0
M  V30 934 H 94.0681 2.9467 0.159246 0
M  V30 935 H 94.1491 2.13403 -1.41041 0
M  V30 936 H 93.7931 4.38217 -2.56765 0
M  V30 937 H 93.7231 5.17516 -0.973891 0
M  V30 938 H 96.2141 3.61793 -1.09151 0
M  V30 939 H 96.5271 7.19376 -2.82344 0
M  V30 940 H 94.8721 6.47208 -2.53272 0
M  V30 941 H 98.0631 4.45643 -1.43248 0
M  V30 942 H 98.2361 6.08711 -2.22204 0
M  V30 943 N 91.6422 0.330177 1.54103 0
M  V30 944 C 92.9192 -0.325007 1.92881 0
M  V30 945 C 93.2992 -1.6934 1.26045 0
M  V30 946 O 92.6472 -2.24855 0.406526 0
M  V30 947 C 92.8572 -0.410634 3.46576 0
M  V30 948 C 94.2052 -0.667801 4.19316 0
M  V30 949 O 95.2292 -0.49329 3.52768 0
M  V30 950 O 94.0882 -1.00491 5.37181 0
M  V30 951 H 91.1822 -0.186873 0.80561 0
M  V30 952 H 93.7282 0.380376 1.65382 0
M  V30 953 H 92.5002 0.550164 3.87413 0
M  V30 954 H 92.1232 -1.16333 3.802 0
M  V30 955 N 93.1203 -1.57491 0.0584922 0
M  V30 956 C 94.0833 -2.1085 -0.898617 0
M  V30 957 C 95.0833 -1.02964 -1.23511 0
M  V30 958 O 96.2733 -1.29007 -1.17059 0
M  V30 959 C 93.4053 -2.59881 -2.20623 0
M  V30 960 H 94.5983 -2.96715 -0.435936 0
M  V30 961 H 92.1513 -1.55141 -0.190023 0
M  V30 962 H 92.8863 -1.77431 -2.71457 0
M  V30 963 H 92.6713 -3.38727 -1.97501 0
M  V30 964 H 94.1613 -3.01285 -2.89166 0
M  V30 965 N 94.5984 0.214957 -1.56127 0
M  V30 966 C 95.8474 0.936451 -1.78643 0
M  V30 967 C 96.1604 1.85237 -0.628229 0
M  V30 968 O 97.3664 2.613 -0.737186 0
M  V30 969 C 95.8224 1.7154 -3.16389 0
M  V30 970 C 95.4304 0.845299 -4.39953 0
M  V30 971 C 97.1744 2.42772 -3.48227 0
M  V30 972 C 95.0814 1.62198 -5.68723 0
M  V30 973 H 94.0114 0.353401 -0.666051 0
M  V30 974 H 96.6624 0.190169 -1.82512 0
M  V30 975 H 95.0444 2.50484 -3.06715 0
M  V30 976 H 96.2184 0.0959353 -4.607 0
M  V30 977 H 94.5334 0.244789 -4.1568 0
M  V30 978 H 97.1304 3.01394 -4.41663 0
M  V30 979 H 97.4734 3.15984 -2.71035 0
M  V30 980 H 98.0064 1.70813 -3.5926 0
M  V30 981 H 94.7454 0.933011 -6.48826 0
M  V30 982 H 94.2654 2.34579 -5.52026 0
M  V30 983 H 95.9444 2.18095 -6.09133 0
M  V30 984 N 96.0765 1.50051 0.48192 0
M  V30 985 C 97.4925 1.37237 0.814756 0
M  V30 986 C 97.6925 0.420109 1.97072 0
M  V30 987 O 96.7485 -0.141246 2.52105 0
M  V30 988 C 98.0615 2.78375 1.13701 0
M  V30 989 C 99.6095 2.87213 1.2441 0
M  V30 990 C 100.084 4.29161 1.59954 0
M  V30 991 N 101.575 4.32061 1.66967 0
M  V30 992 C 102.31 5.38879 1.95952 0
M  V30 993 N 101.806 6.55918 2.23031 0
M  V30 994 N 103.599 5.26312 1.97363 0
M  V30 995 H 95.7505 2.10546 -0.28005 0
M  V30 996 H 98.0135 0.945921 -0.0627454 0
M  V30 997 H 97.7195 3.49845 0.360787 0
M  V30 998 H 97.5935 3.14941 2.07586 0
M  V30 999 H 99.9805 2.15969 2.01101 0
M  V30 1000 H 100.061 2.54204 0.285299 0
M  V30 1001 H 99.7055 5.00938 0.838067 0
M  V30 1002 H 99.6355 4.59648 2.56966 0
M  V30 1003 H 102.126 3.47661 1.48123 0
M  V30 1004 H 102.439 7.33139 2.44391 0
M  V30 1005 H 100.784 6.59112 2.20447 0
M  V30 1006 H 103.975 4.33876 1.75697 0
M  V30 1007 H 104.148 6.09649 2.19618 0
M  V30 1008 N 97.5546 -0.734337 1.39446 0
M  V30 1009 C 98.4866 -1.85861 1.34121 0
M  V30 1010 C 99.4996 -1.60871 0.249864 0
M  V30 1011 O 100.689 -1.71093 0.508865 0
M  V30 1012 C 97.7886 -3.21899 1.05991 0
M  V30 1013 C 96.9616 -3.74239 2.26415 0
M  V30 1014 C 96.0206 -4.88841 1.94733 0
M  V30 1015 O 95.0466 -5.02468 2.67422 0
M  V30 1016 N 96.2486 -5.73261 0.913884 0
M  V30 1017 H 99.0136 -1.90934 2.31007 0
M  V30 1018 H 96.5746 -0.915102 1.33557 0
M  V30 1019 H 98.5666 -3.96136 0.828147 0
M  V30 1020 H 97.1366 -3.12091 0.178361 0
M  V30 1021 H 96.3566 -2.91347 2.65539 0
M  V30 1022 H 97.6446 -4.05942 3.06738 0
M  V30 1023 H 97.0426 -5.64842 0.311476 0
M  V30 1024 H 95.5996 -6.47563 0.742015 0
M  V30 1025 N 99.0327 -1.24633 -0.964593 0
M  V30 1026 C 100.258 -1.11596 -1.74818 0
M  V30 1027 C 100.683 0.32723 -1.85232 0
M  V30 1028 O 100.041 1.23695 -1.32549 0
M  V30 1029 C 100.089 -1.76397 -3.1451 0
M  V30 1030 O 99.1927 -1.03685 -3.99153 0
M  V30 1031 H 98.5337 -0.390196 -0.537255 0
M  V30 1032 H 101.064 -1.65002 -1.20977 0
M  V30 1033 H 101.074 -1.8228 -3.65018 0
M  V30 1034 H 99.7487 -2.81401 -3.06246 0
M  V30 1035 H 98.3257 -1.05611 -3.57632 0
M  V30 1036 N 100.511 1.16574 -1.06058 0
M  V30 1037 C 101.459 2.22941 -0.663343 0
M  V30 1038 C 102.453 1.66358 0.319593 0
M  V30 1039 O 103.659 1.7905 0.184713 0
M  V30 1040 H 100.034 0.725907 -0.196376 0
M  V30 1041 H 102.005 2.53736 -1.57037 0
M  V30 1042 C 100.754 3.47642 -0.0632808 0
M  V30 1043 H 100.077 3.91493 -0.810733 0
M  V30 1044 H 101.517 4.2363 0.177177 0
M  V30 1045 C 99.9758 3.1509 1.19248 0
M  V30 1046 O 100.506 3.30673 2.28075 0
M  V30 1047 N 98.7118 2.6924 1.09353 0
M  V30 1048 H 98.2588 2.5676 0.207912 0
M  V30 1049 H 98.2168 2.47833 1.93458 0
M  V30 1050 N 101.989 0.842826 1.3317 0
M  V30 1051 C 102.921 0.236245 2.27979 0
M  V30 1052 C 103.934 -0.585282 1.51915 0
M  V30 1053 O 105.123 -0.411705 1.73687 0
M  V30 1054 C 102.223 -0.685717 3.3189 0
M  V30 1055 C 101.396 0.0973448 4.37292 0
M  V30 1056 C 100.455 -0.748565 5.20848 0
M  V30 1057 O 99.4809 -0.186339 5.68895 0
M  V30 1058 N 100.683 -2.06527 5.42519 0
M  V30 1059 H 103.448 1.05088 2.80672 0
M  V30 1060 H 101.009 0.701667 1.45905 0
M  V30 1061 H 103.001 -1.25669 3.84694 0
M  V30 1062 H 101.571 -1.40105 2.79445 0
M  V30 1063 H 100.791 0.849706 3.84933 0
M  V30 1064 H 102.079 0.635643 5.04814 0
M  V30 1065 H 101.477 -2.54554 5.05192 0
M  V30 1066 H 100.034 -2.58464 5.98364 0
M  V30 1067 N 103.467 -1.45747 0.599634 0
M  V30 1068 C 104.716 -2.01502 0.0893511 0
M  V30 1069 C 105.029 -1.4748 -1.28488 0
M  V30 1070 O 106.235 -1.95161 -1.88745 0
M  V30 1071 C 104.691 -3.59735 0.109082 0
M  V30 1072 C 104.299 -4.22754 1.48267 0
M  V30 1073 C 106.043 -4.23085 -0.346374 0
M  V30 1074 C 103.95 -5.73115 1.45921 0
M  V30 1075 H 102.88 -0.753417 0.0296347 0
M  V30 1076 H 105.531 -1.67303 0.753788 0
M  V30 1077 H 103.913 -3.91087 -0.621854 0
M  V30 1078 H 105.087 -4.02987 2.23468 0
M  V30 1079 H 103.402 -3.71567 1.87955 0
M  V30 1080 H 105.999 -5.33327 -0.38298 0
M  V30 1081 H 106.342 -3.93201 -1.36743 0
M  V30 1082 H 106.875 -3.9642 0.331038 0
M  V30 1083 H 103.614 -6.07685 2.45762 0
M  V30 1084 H 103.134 -5.95097 0.749665 0
M  V30 1085 H 104.813 -6.3616 1.17941 0
M  V30 1086 N 104.945 -0.338344 -1.53925 0
M  V30 1087 C 105.875 0.51328 -2.27789 0
M  V30 1088 C 106.856 1.107 -1.29149 0
M  V30 1089 O 108.041 1.12937 -1.57984 0
M  V30 1090 C 105.171 1.66697 -3.04679 0
M  V30 1091 C 104.125 1.20183 -4.1078 0
M  V30 1092 C 103.451 2.44363 -4.75595 0
M  V30 1093 C 104.751 0.30605 -5.21403 0
M  V30 1094 H 106.445 -0.102883 -2.99223 0
M  V30 1095 H 103.991 -0.0509219 -1.4391 0
M  V30 1096 H 105.944 2.26915 -3.55088 0
M  V30 1097 H 104.668 2.30995 -2.30887 0
M  V30 1098 H 103.327 0.622499 -3.61276 0
M  V30 1099 H 102.975 3.07057 -3.98403 0
M  V30 1100 H 102.675 2.13925 -5.47275 0
M  V30 1101 H 104.199 3.05317 -5.28786 0
M  V30 1102 H 105.613 0.814929 -5.67478 0
M  V30 1103 H 104.01 0.0937929 -6.00027 0
M  V30 1104 H 105.08 -0.65921 -4.80398 0
M  V30 1105 N 106.423 1.57458 -0.0668435 0
M  V30 1106 C 107.839 1.56947 0.289772 0
M  V30 1107 C 108.039 1.07584 1.70376 0
M  V30 1108 O 107.095 0.739486 2.41429 0
M  V30 1109 C 108.408 3.0052 0.103943 0
M  V30 1110 C 109.956 3.12517 0.173857 0
M  V30 1111 C 110.431 4.57997 0.0163682 0
M  V30 1112 N 111.922 4.63144 0.0721352 0
M  V30 1113 C 112.657 5.73394 -0.0253794 0
M  V30 1114 N 112.153 6.92576 -0.176133 0
M  V30 1115 N 113.946 5.62091 0.0313305 0
M  V30 1116 H 106.097 1.87863 -0.991027 0
M  V30 1117 H 108.36 0.86583 -0.38606 0
M  V30 1118 H 108.066 3.40729 -0.871572 0
M  V30 1119 H 107.94 3.67304 0.858366 0
M  V30 1120 H 110.327 2.72197 1.13985 0
M  V30 1121 H 110.408 2.48381 -0.611586 0
M  V30 1122 H 110.052 4.99005 -0.946374 0
M  V30 1123 H 109.982 5.20158 0.821153 0
M  V30 1124 H 112.473 3.77436 0.187263 0
M  V30 1125 H 112.786 7.72418 -0.242821 0
M  V30 1126 H 111.131 6.94678 -0.211429 0
M  V30 1127 H 114.322 4.67867 0.147773 0
M  V30 1128 H 114.495 6.47982 -0.048121 0
M  V30 1129 N 107.901 -0.206675 1.56239 0
M  V30 1130 C 108.811 -1.27686 1.96808 0
M  V30 1131 C 109.827 -1.50455 0.874035 0
M  V30 1132 O 111.003 -1.63295 1.17884 0
M  V30 1133 C 108.068 -2.60358 2.28942 0
M  V30 1134 C 107.129 -2.45762 3.51994 0
M  V30 1135 C 106.362 -3.72108 3.82585 0
M  V30 1136 O 106.585 -4.75776 3.14631 0
M  V30 1137 O 105.519 -3.6833 4.76043 0
M  V30 1138 H 109.345 -0.962593 2.88041 0
M  V30 1139 H 106.93 -0.410746 1.43643 0
M  V30 1140 H 108.812 -3.38687 2.50737 0
M  V30 1141 H 107.487 -2.91435 1.4088 0
M  V30 1142 H 106.394 -1.65584 3.35459 0
M  V30 1143 H 107.727 -2.19621 4.40486 0
M  V30 1144 N 109.379 -1.50304 -0.473955 0
M  V30 1145 C 110.795 -1.37667 -0.807466 0
M  V30 1146 C 110.995 -0.430555 -1.96846 0
M  V30 1147 O 110.051 0.127874 -2.52176 0
M  V30 1148 C 111.364 -2.78974 -1.12223 0
M  V30 1149 C 112.912 -2.87868 -1.22885 0
M  V30 1150 C 113.387 -4.30003 -1.57676 0
M  V30 1151 N 114.878 -4.3294 -1.64673 0
M  V30 1152 C 115.613 -5.3991 -1.93091 0
M  V30 1153 N 115.109 -6.57092 -2.1955 0
M  V30 1154 N 116.902 -5.27351 -1.94569 0
M  V30 1155 H 109.053 -2.10394 0.291212 0
M  V30 1156 H 111.316 -0.945575 0.0677609 0
M  V30 1157 H 111.022 -3.50031 -0.342229 0
M  V30 1158 H 110.896 -3.16038 -2.05913 0
M  V30 1159 H 113.283 -2.17032 -1.99953 0
M  V30 1160 H 113.364 -2.54352 -0.271814 0
M  V30 1161 H 113.008 -5.01375 -0.81149 0
M  V30 1162 H 112.938 -4.61004 -2.54525 0
M  V30 1163 H 115.429 -3.48441 -1.46277 0
M  V30 1164 H 115.742 -7.34425 -2.405 0
M  V30 1165 H 114.087 -6.60272 -2.16948 0
M  V30 1166 H 117.278 -4.34801 -1.73394 0
M  V30 1167 H 117.451 -6.10805 -2.16381 0
M  V30 1168 N 110.857 0.726932 -1.39834 0
M  V30 1169 C 112.097 1.4992 -1.38936 0
M  V30 1170 C 112.461 1.91996 0.0126883 0
M  V30 1171 O 113.662 2.68399 0.146715 0
M  V30 1172 C 111.933 2.70013 -2.34153 0
M  V30 1173 S 113.492 3.59563 -2.51515 0
M  V30 1174 H 110.31 0.51271 -0.492595 0
M  V30 1175 H 112.912 0.85107 -1.76003 0
M  V30 1176 H 111.616 2.37254 -3.34871 0
M  V30 1177 H 111.147 3.39748 -1.98331 0
M  V30 1178 H 113.162 4.63973 -1.75909 0
M  V30 1179 N 112.336 1.25143 0.95797 0
M  V30 1180 C 113.246 1.06968 2.08794 0
M  V30 1181 C 114.262 0.00773911 1.73998 0
M  V30 1182 O 115.438 0.207972 2.00323 0
M  V30 1183 C 112.503 0.68691 3.39827 0
M  V30 1184 C 111.564 1.82641 3.88511 0
M  V30 1185 C 110.797 1.46181 5.1329 0
M  V30 1186 O 111.02 0.355971 5.69288 0
M  V30 1187 O 109.954 2.29085 5.566 0
M  V30 1188 H 113.78 2.01723 2.27027 0
M  V30 1189 H 111.365 1.04051 1.07209 0
M  V30 1190 H 113.247 0.485417 4.18595 0
M  V30 1191 H 111.922 -0.231417 3.22872 0
M  V30 1192 H 110.829 2.08274 3.10762 0
M  V30 1193 H 112.162 2.72386 4.09959 0
M  V30 1194 N 113.814 -1.1601 1.06675 0
M  V30 1195 C 114.724 -2.24156 0.692179 0
M  V30 1196 C 115.74 -1.71507 -0.293513 0
M  V30 1197 O 116.916 -2.009 -0.141861 0
M  V30 1198 C 113.981 -3.46587 0.0884131 0
M  V30 1199 C 113.042 -4.14257 1.12646 0
M  V30 1200 C 112.275 -5.30844 0.551416 0
M  V30 1201 O 112.498 -5.66858 -0.634656 0
M  V30 1202 O 111.432 -5.87848 1.29298 0
M  V30 1203 H 115.258 -2.58513 1.59388 0
M  V30 1204 H 112.843 -1.23599 0.83926 0
M  V30 1205 H 114.725 -4.20679 -0.246361 0
M  V30 1206 H 113.4 -3.13994 -0.786712 0
M  V30 1207 H 112.307 -3.42118 1.51348 0
M  V30 1208 H 113.64 -4.50914 1.97325 0
M  V30 1209 N 115.292 -0.849877 -1.32721 0
M  V30 1210 C 116.222 -0.306308 -2.31482 0
M  V30 1211 C 117.203 0.591952 -1.59468 0
M  V30 1212 O 118.388 0.513199 -1.87296 0
M  V30 1213 C 115.518 0.510204 -3.43532 0
M  V30 1214 C 114.472 -0.293209 -4.26994 0
M  V30 1215 C 113.798 0.647743 -5.30762 0
M  V30 1216 C 115.098 -1.51634 -4.99804 0
M  V30 1217 H 116.792 -1.13153 -2.77195 0
M  V30 1218 H 114.338 -0.545553 -1.33266 0
M  V30 1219 H 116.291 0.900856 -4.11658 0
M  V30 1220 H 115.015 1.36874 -2.96535 0
M  V30 1221 H 113.674 -0.665555 -3.60508 0
M  V30 1222 H 113.322 1.50299 -4.8002 0
M  V30 1223 H 113.022 0.11422 -5.87489 0
M  V30 1224 H 114.546 1.03567 -6.01753 0
M  V30 1225 H 115.96 -1.19824 -5.60638 0
M  V30 1226 H 114.357 -1.98745 -5.66234 0
M  V30 1227 H 115.427 -2.28018 -4.27943 0
M  V30 1228 N 116.77 1.45427 -0.607355 0
M  V30 1229 C 117.7 2.3329 0.0989352 0
M  V30 1230 C 118.681 1.46816 0.859007 0
M  V30 1231 O 119.866 1.75588 0.829604 0
M  V30 1232 C 116.996 3.29518 1.09705 0
M  V30 1233 C 115.95 4.25626 0.450206 0
M  V30 1234 C 115.276 5.11542 1.55655 0
M  V30 1235 C 116.576 5.18505 -0.628455 0
M  V30 1236 H 118.27 2.92595 -0.634716 0
M  V30 1237 H 115.816 1.40696 -0.306681 0
M  V30 1238 H 117.769 3.89855 1.59971 0
M  V30 1239 H 116.493 2.68372 1.86129 0
M  V30 1240 H 115.152 3.66586 -0.0315886 0
M  V30 1241 H 114.8 4.46765 2.31107 0
M  V30 1242 H 114.5 5.76647 1.12925 0
M  V30 1243 H 116.024 5.74748 2.06148 0
M  V30 1244 H 117.438 5.72916 -0.209877 0
M  V30 1245 H 115.835 5.92085 -0.977489 0
M  V30 1246 H 116.905 4.60948 -1.50514 0
M  V30 1247 N 118.248 0.346503 1.53744 0
M  V30 1248 C 119.198 -0.524953 2.21874 0
M  V30 1249 C 120.182 -1.06376 1.20718 0
M  V30 1250 O 121.374 -0.996972 1.46251 0
M  V30 1251 C 118.503 -1.6739 2.99726 0
M  V30 1252 C 117.589 -1.14888 4.08242 0
M  V30 1253 N 117.98 -0.345329 5.0462 0
M  V30 1254 C 116.278 -1.4255 4.22606 0
M  V30 1255 C 116.979 -0.0600706 5.81669 0
M  V30 1256 N 115.955 -0.65252 5.39669 0
M  V30 1257 H 119.757 0.0960091 2.93743 0
M  V30 1258 H 117.271 0.15352 1.61673 0
M  V30 1259 H 119.268 -2.3102 3.47038 0
M  V30 1260 H 117.928 -2.29811 2.29384 0
M  V30 1261 H 118.939 0.0138439 5.17898 0
M  V30 1262 H 115.616 -2.05389 3.63486 0
M  V30 1263 H 117.006 0.588321 6.69319 0
M  V30 1264 N 119.726 -1.57421 0.075193 0
M  V30 1265 C 120.973 -1.93618 -0.593146 0
M  V30 1266 C 121.301 -0.955484 -1.69413 0
M  V30 1267 O 120.556 0.0283251 -1.9568 0
M  V30 1268 C 120.855 -3.36428 -1.20626 0
M  V30 1269 C 120.521 -4.50307 -0.231078 0
M  V30 1270 C 119.183 -4.81186 0.0371936 0
M  V30 1271 C 121.535 -5.19374 0.435888 0
M  V30 1272 C 118.863 -5.78466 0.979461 0
M  V30 1273 C 121.215 -6.17665 1.3665 0
M  V30 1274 C 119.879 -6.46958 1.6432 0
M  V30 1275 H 119.149 -0.708499 -0.217047 0
M  V30 1276 H 121.796 -1.90937 0.146793 0
M  V30 1277 H 120.101 -3.35592 -2.02201 0
M  V30 1278 H 121.798 -3.61727 -1.73073 0
M  V30 1279 H 118.388 -4.26227 -0.450357 0
M  V30 1280 H 122.572 -4.95711 0.241748 0
M  V30 1281 H 117.828 -5.99487 1.20106 0
M  V30 1282 H 122.002 -6.70284 1.88924 0
M  V30 1283 H 119.629 -7.2215 2.37494 0
M  V30 1284 N 121.204 0.198386 -1.56346 0
M  V30 1285 C 122.136 1.26987 -1.90806 0
M  V30 1286 C 123.149 1.41877 -0.798419 0
M  V30 1287 O 124.338 1.42362 -1.07682 0
M  V30 1288 C 121.438 2.64246 -2.12196 0
M  V30 1289 C 120.611 2.71007 -3.43328 0
M  V30 1290 C 119.67 3.89439 -3.5387 0
M  V30 1291 O 118.696 3.76695 -4.26719 0
M  V30 1292 N 119.898 5.04752 -2.86715 0
M  V30 1293 H 122.663 0.977433 -2.83313 0
M  V30 1294 H 120.224 0.388322 -1.57174 0
M  V30 1295 H 122.216 3.41896 -2.1654 0
M  V30 1296 H 120.786 2.85992 -1.26204 0
M  V30 1297 H 120.006 1.79657 -3.50881 0
M  V30 1298 H 121.294 2.72512 -4.29668 0
M  V30 1299 H 120.692 5.18004 -2.2735 0
M  V30 1300 H 119.249 5.8036 -2.96691 0
M  V30 1301 N 122.682 1.50554 0.465978 0
M  V30 1302 C 123.645 1.69233 1.54574 0
M  V30 1303 C 124.645 0.562901 1.50626 0
M  V30 1304 O 125.835 0.830016 1.53155 0
M  V30 1305 C 122.967 1.7223 2.94193 0
M  V30 1306 H 124.16 2.65571 1.39327 0
M  V30 1307 H 121.713 1.40111 0.692711 0
M  V30 1308 H 122.448 0.77603 3.14878 0
M  V30 1309 H 122.233 2.54285 2.98466 0
M  V30 1310 H 123.723 1.88618 3.72576 0
M  V30 1311 N 124.16 -0.719506 1.40217 0
M  V30 1312 C 125.385 -1.51371 1.4178 0
M  V30 1313 C 125.81 -1.88091 0.0182355 0
M  V30 1314 O 125.168 -1.52997 -0.972707 0
M  V30 1315 C 125.216 -2.768 2.31115 0
M  V30 1316 O 124.32 -3.73349 1.7517 0
M  V30 1317 H 123.661 -0.456529 0.482159 0
M  V30 1318 H 126.191 -0.88644 1.844 0
M  V30 1319 H 126.201 -3.25371 2.46167 0
M  V30 1320 H 124.876 -2.49407 3.3282 0
M  V30 1321 H 123.453 -3.32179 1.69444 0
M  V30 1322 N 125.638 -1.25649 -0.95132 0
M  V30 1323 C 126.57 -1.02112 -2.05197 0
M  V30 1324 C 127.583 0.0150571 -1.62793 0
M  V30 1325 O 128.772 -0.223874 -1.77091 0
M  V30 1326 C 125.872 -0.522361 -3.3485 0
M  V30 1327 C 125.045 -1.62546 -4.06076 0
M  V30 1328 C 124.104 -1.12649 -5.14001 0
M  V30 1329 O 123.13 -1.82156 -5.39266 0
M  V30 1330 N 124.332 0.03047 -5.80492 0
M  V30 1331 H 127.097 -1.96885 -2.25957 0
M  V30 1332 H 124.658 -1.16899 -1.1201 0
M  V30 1333 H 126.65 -0.172961 -4.0433 0
M  V30 1334 H 125.22 0.33151 -3.10837 0
M  V30 1335 H 124.44 -2.14628 -3.30649 0
M  V30 1336 H 125.728 -2.36644 -4.50419 0
M  V30 1337 H 125.126 0.611169 -5.62389 0
M  V30 1338 H 123.683 0.320875 -6.5101 0
M  V30 1339 N 127.117 1.15442 -1.07289 0
M  V30 1340 C 128.533 1.38201 -0.798288 0
M  V30 1341 C 128.733 1.92429 0.597769 0
M  V30 1342 O 127.789 2.12962 1.3566 0
M  V30 1343 C 129.102 2.35357 -1.87156 0
M  V30 1344 C 130.65 2.49021 -1.89624 0
M  V30 1345 C 131.125 3.49468 -2.96034 0
M  V30 1346 N 132.616 3.57003 -2.95132 0
M  V30 1347 C 133.351 4.34543 -3.74112 0
M  V30 1348 N 132.847 5.15421 -4.6294 0
M  V30 1349 N 134.64 4.29625 -3.62462 0
M  V30 1350 H 126.791 0.78584 -1.97328 0
M  V30 1351 H 129.054 0.408065 -0.855679 0
M  V30 1352 H 128.76 2.02626 -2.87464 0
M  V30 1353 H 128.634 3.35129 -1.73114 0
M  V30 1354 H 131.021 2.81051 -0.899687 0
M  V30 1355 H 131.102 1.4925 -2.07745 0
M  V30 1356 H 130.746 3.18173 -3.95889 0
M  V30 1357 H 130.676 4.48992 -2.75161 0
M  V30 1358 H 133.167 2.99276 -2.30743 0
M  V30 1359 H 133.48 5.7183 -5.19837 0
M  V30 1360 H 131.825 5.14729 -4.66989 0
M  V30 1361 H 135.016 3.65505 -2.92444 0
M  V30 1362 H 135.189 4.89807 -4.24256 0
M  V30 1363 N 128.595 0.856903 1.32268 0
M  V30 1364 C 129.505 0.306131 2.32594 0
M  V30 1365 C 130.521 -0.577209 1.64147 0
M  V30 1366 O 131.697 -0.477043 1.95669 0
M  V30 1367 C 128.762 -0.494561 3.43154 0
M  V30 1368 C 127.823 0.415186 4.27288 0
M  V30 1369 C 127.056 -0.347387 5.32568 0
M  V30 1370 O 127.279 -1.57708 5.48165 0
M  V30 1371 O 126.213 0.287982 6.01211 0
M  V30 1372 H 130.039 1.13737 2.81598 0
M  V30 1373 H 127.624 0.619902 1.35932 0
M  V30 1374 H 129.506 -0.948944 4.10576 0
M  V30 1375 H 128.181 -1.30257 2.96336 0
M  V30 1376 H 127.088 0.917793 3.62667 0
M  V30 1377 H 128.421 1.18844 4.77637 0
M  V30 1378 N 130.073 -1.45103 0.615059 0
M  V30 1379 C 130.983 -2.34382 -0.101034 0
M  V30 1380 C 131.999 -1.51681 -0.852585 0
M  V30 1381 O 133.175 -1.8446 -0.808484 0
M  V30 1382 C 130.24 -3.29417 -1.08099 0
M  V30 1383 C 129.301 -4.28025 -0.330577 0
M  V30 1384 C 128.534 -5.1852 -1.26385 0
M  V30 1385 O 128.757 -5.12598 -2.50198 0
M  V30 1386 O 127.691 -5.97122 -0.756866 0
M  V30 1387 H 131.517 -2.97033 0.632855 0
M  V30 1388 H 129.102 -1.4461 0.375293 0
M  V30 1389 H 130.984 -3.87958 -1.6452 0
M  V30 1390 H 129.659 -2.69321 -1.79577 0
M  V30 1391 H 128.566 -3.73078 0.276283 0
M  V30 1392 H 129.899 -4.90997 0.343866 0
M  V30 1393 N 131.551 -0.354651 -1.53558 0
M  V30 1394 C 132.498 0.496968 -2.25386 0
M  V30 1395 C 133.468 1.0865 -1.25636 0
M  V30 1396 O 134.653 1.12104 -1.54394 0
M  V30 1397 C 131.793 1.63637 -3.03837 0
M  V30 1398 C 130.906 1.07307 -4.18461 0
M  V30 1399 C 130.041 2.18068 -4.84376 0
M  V30 1400 C 129.08 1.59147 -5.91049 0
M  V30 1401 N 128.217 2.63695 -6.50699 0
M  V30 1402 H 133.057 -0.122075 -2.9775 0
M  V30 1403 H 130.594 -0.0720154 -1.46924 0
M  V30 1404 H 132.552 2.30734 -3.47589 0
M  V30 1405 H 131.182 2.22623 -2.33749 0
M  V30 1406 H 130.234 0.292708 -3.79272 0
M  V30 1407 H 131.546 0.602193 -4.95152 0
M  V30 1408 H 130.7 2.93007 -5.31255 0
M  V30 1409 H 129.439 2.68504 -4.07133 0
M  V30 1410 H 128.444 0.827175 -5.43542 0
M  V30 1411 H 129.669 1.09549 -6.70206 0
M  V30 1412 H 127.615 3.13365 -5.76315 0
M  V30 1413 H 127.532 2.21263 -7.22896 0
M  V30 1414 H 128.8 3.3837 -7.02229 0
M  V30 1415 N 133.029 1.57378 -0.0835403 0
M  V30 1416 C 133.939 2.16897 0.894021 0
M  V30 1417 C 134.955 1.13528 1.31861 0
M  V30 1418 O 136.131 1.45848 1.3889 0
M  V30 1419 C 133.196 2.72831 2.13925 0
M  V30 1420 C 132.257 3.91115 1.76997 0
M  V30 1421 C 131.49 4.44371 2.95584 0
M  V30 1422 O 131.713 3.96596 4.09961 0
M  V30 1423 O 130.647 5.35549 2.74719 0
M  V30 1424 H 134.473 3.00814 0.417679 0
M  V30 1425 H 132.058 1.48741 0.140181 0
M  V30 1426 H 133.94 3.0863 2.86924 0
M  V30 1427 H 132.615 1.91967 2.60635 0
M  V30 1428 H 131.522 3.60148 1.01214 0
M  V30 1429 H 132.855 4.73307 1.3506 0
M  V30 1430 N 134.507 -0.190092 1.56449 0
M  V30 1431 C 135.754 -0.909705 1.80916 0
M  V30 1432 C 136.082 -1.83047 0.657583 0
M  V30 1433 O 135.337 -1.92428 -0.356356 0
M  V30 1434 C 135.636 -1.75382 3.1141 0
M  V30 1435 C 135.302 -0.983606 4.40041 0
M  V30 1436 C 133.964 -0.770967 4.74984 0
M  V30 1437 C 136.316 -0.442024 5.19322 0
M  V30 1438 C 133.644 -0.0053448 5.867 0
M  V30 1439 C 135.996 0.310412 6.31838 0
M  V30 1440 C 134.66 0.534023 6.6536 0
M  V30 1441 H 133.93 -0.332885 0.662019 0
M  V30 1442 H 136.577 -0.175762 1.90692 0
M  V30 1443 H 134.882 -2.55659 2.96893 0
M  V30 1444 H 136.579 -2.31331 3.27547 0
M  V30 1445 H 133.169 -1.15936 4.12622 0
M  V30 1446 H 137.353 -0.593693 4.92736 0
M  V30 1447 H 132.609 0.177825 6.11141 0
M  V30 1448 H 136.783 0.737419 6.92485 0
M  V30 1449 H 134.41 1.12918 7.51767 0
M  V30 1450 N 135.985 -1.50799 -0.457987 0
M  V30 1451 C 136.915 -1.73553 -1.5621 0
M  V30 1452 C 137.896 -0.584774 -1.59732 0
M  V30 1453 O 139.081 -0.825314 -1.7579 0
M  V30 1454 C 136.211 -1.84169 -2.94447 0
M  V30 1455 C 135.165 -2.99461 -3.0579 0
M  V30 1456 C 134.491 -2.95235 -4.45803 0
M  V30 1457 C 135.791 -4.39766 -2.81786 0
M  V30 1458 H 137.485 -2.66 -1.37421 0
M  V30 1459 H 135.031 -1.28002 -0.659662 0
M  V30 1460 H 136.984 -1.98672 -3.71628 0
M  V30 1461 H 135.708 -0.883545 -3.14422 0
M  V30 1462 H 134.367 -2.8463 -2.31044 0
M  V30 1463 H 134.015 -1.97239 -4.62715 0
M  V30 1464 H 133.715 -3.72642 -4.54326 0
M  V30 1465 H 135.239 -3.11803 -5.24987 0
M  V30 1466 H 136.653 -4.55054 -3.4871 0
M  V30 1467 H 135.05 -5.18722 -3.0174 0
M  V30 1468 H 136.12 -4.51229 -1.7754 0
M  V30 1469 N 137.463 0.71206 -1.40597 0
M  V30 1470 C 138.396 1.83582 -1.35546 0
M  V30 1471 C 139.374 1.61032 -0.225284 0
M  V30 1472 O 140.558 1.83998 -0.409519 0
M  V30 1473 C 137.685 3.19983 -1.11034 0
M  V30 1474 C 136.731 3.61355 -2.2655 0
M  V30 1475 S 137.564 3.68062 -3.88961 0
M  V30 1476 C 138.72 5.07216 -3.66719 0
M  V30 1477 H 138.953 1.87586 -2.30648 0
M  V30 1478 H 136.486 0.879182 -1.26924 0
M  V30 1479 H 138.444 3.98734 -0.975761 0
M  V30 1480 H 137.105 3.13608 -0.175798 0
M  V30 1481 H 136.298 4.60403 -2.0505 0
M  V30 1482 H 135.9 2.8987 -2.36329 0
M  V30 1483 H 138.192 5.94238 -3.25404 0
M  V30 1484 H 139.135 5.33753 -4.6531 0
M  V30 1485 H 139.543 4.77976 -3.00332 0
M  V30 1486 N 138.941 1.26152 0.944643 0
M  V30 1487 C 140.181 1.12708 1.70517 0
M  V30 1488 C 140.545 -0.324727 1.89234 0
M  V30 1489 O 141.746 -0.581211 2.62441 0
M  V30 1490 C 140.017 1.8713 3.04495 0
M  V30 1491 S 141.576 1.89698 3.95677 0
M  V30 1492 H 138.394 0.402665 0.585988 0
M  V30 1493 H 140.996 1.59821 1.12594 0
M  V30 1494 H 139.7 2.91833 2.88551 0
M  V30 1495 H 139.231 1.40444 3.67477 0
M  V30 1496 H 141.246 0.981198 4.86402 0
M  V30 1497 N 140.419 -1.14872 1.07899 0
M  V30 1498 C 141.366 -2.19791 0.704319 0
M  V30 1499 C 142.336 -1.63238 -0.306987 0
M  V30 1500 O 143.521 -1.8983 -0.192171 0
M  V30 1501 C 140.661 -3.44911 0.114244 0
M  V30 1502 C 139.774 -4.15637 1.1777 0
M  V30 1503 C 138.909 -5.28324 0.552037 0
M  V30 1504 C 137.948 -5.90875 1.59789 0
M  V30 1505 N 137.085 -6.95022 0.994404 0
M  V30 1506 H 141.925 -2.5119 1.60336 0
M  V30 1507 H 139.462 -1.23356 0.801352 0
M  V30 1508 H 141.42 -4.16477 -0.245544 0
M  V30 1509 H 140.05 -3.14011 -0.74813 0
M  V30 1510 H 139.102 -3.42512 1.65499 0
M  V30 1511 H 140.414 -4.5823 1.97046 0
M  V30 1512 H 139.568 -6.06538 0.1402 0
M  V30 1513 H 138.307 -4.86939 -0.272431 0
M  V30 1514 H 137.312 -5.11369 2.01945 0
M  V30 1515 H 138.537 -6.34337 2.42474 0
M  V30 1516 H 136.483 -6.55722 0.190939 0
M  V30 1517 H 136.4 -7.36073 1.72432 0
M  V30 1518 H 137.668 -7.77123 0.608253 0
M  V30 1519 N 141.898 -0.863906 -1.31812 0
M  V30 1520 C 143.145 -0.471836 -1.96926 0
M  V30 1521 C 143.473 0.974578 -1.68322 0
M  V30 1522 O 142.728 1.7003 -0.968933 0
M  V30 1523 C 143.027 -0.668547 -3.51091 0
M  V30 1524 C 142.693 -2.08683 -3.99703 0
M  V30 1525 C 141.355 -2.47471 -4.12688 0
M  V30 1526 C 143.707 -3.01207 -4.25351 0
M  V30 1527 C 141.035 -3.78037 -4.4867 0
M  V30 1528 C 143.387 -4.31282 -4.62794 0
M  V30 1529 C 142.051 -4.69992 -4.73987 0
M  V30 1530 H 141.321 -0.172657 -0.720604 0
M  V30 1531 H 143.968 -1.09573 -1.57054 0
M  V30 1532 H 142.273 0.0385252 -3.91781 0
M  V30 1533 H 143.97 -0.345102 -3.99512 0
M  V30 1534 H 140.56 -1.77566 -3.90087 0
M  V30 1535 H 144.744 -2.72469 -4.14819 0
M  V30 1536 H 140 -4.078 -4.55532 0
M  V30 1537 H 144.174 -5.03031 -4.81594 0
M  V30 1538 H 141.801 -5.71207 -5.01624 0
M  V30 1539 N 143.376 1.44774 -0.622745 0
M  V30 1540 C 144.308 2.28856 0.125485 0
M  V30 1541 C 145.321 1.40811 0.817069 0
M  V30 1542 O 146.51 1.65044 0.679918 0
M  V30 1543 C 143.61 3.16963 1.19949 0
M  V30 1544 C 142.783 4.33374 0.592064 0
M  V30 1545 C 141.842 5.02577 1.55893 0
M  V30 1546 O 140.868 5.58873 1.07933 0
M  V30 1547 N 142.07 5.03256 2.89334 0
M  V30 1548 H 144.835 2.93713 -0.596068 0
M  V30 1549 H 142.396 1.55129 -0.463303 0
M  V30 1550 H 144.388 3.60123 1.84644 0
M  V30 1551 H 142.958 2.53913 1.82337 0
M  V30 1552 H 142.178 3.93509 -0.233322 0
M  V30 1553 H 143.466 5.08527 0.166738 0
M  V30 1554 H 142.864 4.58836 3.30887 0
M  V30 1555 H 141.421 5.50232 3.49412 0
M  V30 1556 N 144.854 0.36279 1.53368 0
M  V30 1557 C 145.764 -0.492994 2.29362 0
M  V30 1558 C 146.78 -1.09507 1.35219 0
M  V30 1559 O 147.956 -1.10662 1.68273 0
M  V30 1560 C 145.021 -1.61855 3.066 0
M  V30 1561 C 144.082 -1.04429 4.16405 0
M  V30 1562 C 143.315 -2.11621 4.89951 0
M  V30 1563 O 143.538 -3.32684 4.63333 0
M  V30 1564 O 142.472 -1.74835 5.75948 0
M  V30 1565 H 146.298 0.125331 3.03441 0
M  V30 1566 H 143.883 0.127253 1.48857 0
M  V30 1567 H 145.765 -2.27302 3.54841 0
M  V30 1568 H 144.44 -2.22233 2.3536 0
M  V30 1569 H 143.347 -0.353819 3.72423 0
M  V30 1570 H 144.68 -0.485113 4.89804 0
M  V30 1571 N 146.332 -1.57332 0.0918853 0
M  V30 1572 C 147.295 -2.12708 -0.85369 0
M  V30 1573 C 148.295 -1.05561 -1.213 0
M  V30 1574 O 149.485 -1.31461 -1.14296 0
M  V30 1575 C 146.617 -2.64503 -2.15061 0
M  V30 1576 H 147.81 -2.97573 -0.3729 0
M  V30 1577 H 145.363 -1.55509 -0.157072 0
M  V30 1578 H 146.098 -1.83149 -2.67632 0
M  V30 1579 H 145.883 -3.4284 -1.90272 0
M  V30 1580 H 147.373 -3.07351 -2.82711 0
M  V30 1581 N 147.81 0.181792 -1.56548 0
M  V30 1582 C 149.226 0.53316 -1.50431 0
M  V30 1583 C 149.426 1.85184 -0.794297 0
M  V30 1584 O 148.482 2.50058 -0.350318 0
M  V30 1585 C 149.795 0.575597 -2.9514 0
M  V30 1586 C 151.343 0.663519 -3.05886 0
M  V30 1587 C 151.818 0.736946 -4.52032 0
M  V30 1588 N 153.309 0.800118 -4.56237 0
M  V30 1589 C 154.044 0.877327 -5.66649 0
M  V30 1590 N 153.54 0.916016 -6.86718 0
M  V30 1591 N 155.333 0.915542 -5.54594 0
M  V30 1592 H 147.484 -0.683025 -2.01118 0
M  V30 1593 H 149.747 -0.244988 -0.915797 0
M  V30 1594 H 149.453 -0.324482 -3.502 0
M  V30 1595 H 149.327 1.42572 -3.49218 0
M  V30 1596 H 151.714 1.55403 -2.50867 0
M  V30 1597 H 151.795 -0.21307 -2.54911 0
M  V30 1598 H 151.439 -0.149262 -5.07681 0
M  V30 1599 H 151.369 1.62953 -5.00753 0
M  V30 1600 H 153.86 0.778926 -3.69785 0
M  V30 1601 H 154.173 0.975813 -7.66614 0
M  V30 1602 H 152.518 0.884469 -6.89349 0
M  V30 1603 H 155.709 0.882245 -4.59711 0
M  V30 1604 H 155.882 0.972253 -6.40665 0
M  V30 1605 N 149.288 1.51039 0.449983 0
M  V30 1606 C 150.235 1.71439 1.54523 0
M  V30 1607 C 151.205 0.555871 1.56522 0
M  V30 1608 O 152.39 0.788871 1.73728 0
M  V30 1609 C 149.53 1.83384 2.92343 0
M  V30 1610 C 148.643 3.10873 2.9997 0
M  V30 1611 C 147.778 3.13488 4.28834 0
M  V30 1612 C 146.817 4.35343 4.30282 0
M  V30 1613 N 145.954 4.35579 5.5065 0
M  V30 1614 H 150.794 2.64934 1.36433 0
M  V30 1615 H 148.331 1.31312 0.662982 0
M  V30 1616 H 150.289 1.88291 3.72293 0
M  V30 1617 H 148.919 0.933086 3.0902 0
M  V30 1618 H 147.971 3.15336 2.12761 0
M  V30 1619 H 149.283 4.00814 2.96901 0
M  V30 1620 H 148.437 3.17241 5.17149 0
M  V30 1621 H 147.176 2.21414 4.34543 0
M  V30 1622 H 146.181 4.3178 3.40362 0
M  V30 1623 H 147.406 5.28668 4.26248 0
M  V30 1624 H 145.352 3.46369 5.57104 0
M  V30 1625 H 145.269 5.19313 5.49409 0
M  V30 1626 H 146.537 4.43507 6.41032 0
M  V30 1627 N 150.766 -0.704594 1.40972 0
M  V30 1628 C 151.696 -1.83124 1.44872 0
M  V30 1629 C 152.677 -1.67281 0.30838 0
M  V30 1630 O 153.862 -1.87149 0.518556 0
M  V30 1631 C 150.992 -3.21181 1.32136 0
M  V30 1632 C 149.946 -3.51714 2.43888 0
M  V30 1633 C 149.272 -4.89032 2.16222 0
M  V30 1634 C 150.572 -3.516 3.86232 0
M  V30 1635 H 152.266 -1.80117 2.39161 0
M  V30 1636 H 149.812 -0.865145 1.15114 0
M  V30 1637 H 151.765 -3.99702 1.33479 0
M  V30 1638 H 150.489 -3.24791 0.343279 0
M  V30 1639 H 149.148 -2.75539 2.41813 0
M  V30 1640 H 148.796 -4.89256 1.16778 0
M  V30 1641 H 148.496 -5.10426 2.911 0
M  V30 1642 H 150.02 -5.69873 2.19265 0
M  V30 1643 H 151.434 -4.2014 3.9007 0
M  V30 1644 H 149.831 -3.84523 4.60719 0
M  V30 1645 H 150.901 -2.50757 4.15029 0
M  V30 1646 N 152.244 -1.26651 -0.937939 0
M  V30 1647 C 153.49 -1.12553 -1.687 0
M  V30 1648 C 153.823 0.329782 -1.91379 0
M  V30 1649 O 153.098 1.24202 -1.4968 0
M  V30 1650 C 153.381 -1.89862 -3.05981 0
M  V30 1651 C 153.234 -3.43318 -2.90607 0
M  V30 1652 C 154.553 -1.69499 -4.0615 0
M  V30 1653 H 151.672 -0.410257 -0.612257 0
M  V30 1654 H 154.314 -1.55685 -1.08913 0
M  V30 1655 H 152.464 -1.53204 -3.57017 0
M  V30 1656 H 154.136 -3.89747 -2.46769 0
M  V30 1657 H 152.379 -3.70179 -2.26164 0
M  V30 1658 H 153.05 -3.92642 -3.8799 0
M  V30 1659 H 155.526 -2.01442 -3.64088 0
M  V30 1660 H 154.402 -2.26002 -5.00214 0
M  V30 1661 H 154.663 -0.640365 -4.37438 0
M  V30 1662 N 153.722 1.14298 -1.08507 0
M  V30 1663 C 154.632 2.23027 -0.727753 0
M  V30 1664 C 155.648 1.71952 0.26619 0
M  V30 1665 O 156.824 2.011 0.109882 0
M  V30 1666 C 153.889 3.46403 -0.143541 0
M  V30 1667 C 152.95 4.12413 -1.19223 0
M  V30 1668 C 152.183 5.29899 -0.635798 0
M  V30 1669 O 152.406 5.67796 0.544393 0
M  V30 1670 O 151.34 5.85717 -1.38634 0
M  V30 1671 H 155.166 2.55945 -1.63481 0
M  V30 1672 H 152.751 1.22248 -0.858817 0
M  V30 1673 H 154.633 4.21018 0.179404 0
M  V30 1674 H 153.308 3.15206 0.736659 0
M  V30 1675 H 152.215 3.39667 -1.56772 0
M  V30 1676 H 153.548 4.47718 -2.04474 0
M  V30 1677 N 155.201 0.870884 1.31352 0
M  V30 1678 C 156.617 0.562932 1.49343 0
M  V30 1679 C 156.817 -0.902725 1.80148 0
M  V30 1680 O 155.873 -1.68484 1.88067 0
M  V30 1681 C 157.186 1.46393 2.62659 0
M  V30 1682 C 158.734 1.46607 2.76542 0
M  V30 1683 C 159.209 2.35266 3.92955 0
M  V30 1684 N 160.7 2.33151 4.00243 0
M  V30 1685 C 161.435 2.98471 4.89594 0
M  V30 1686 N 160.931 3.72964 5.8384 0
M  V30 1687 N 162.724 2.87775 4.82848 0
M  V30 1688 H 154.875 1.81923 1.09626 0
M  V30 1689 H 157.138 0.777934 0.541777 0
M  V30 1690 H 156.844 2.50689 2.46674 0
M  V30 1691 H 156.718 1.16314 3.58819 0
M  V30 1692 H 159.105 0.43069 2.9194 0
M  V30 1693 H 159.186 1.8071 1.81046 0
M  V30 1694 H 158.83 3.38881 3.78315 0
M  V30 1695 H 158.76 1.98487 4.87761 0
M  V30 1696 H 161.251 1.79006 3.32814 0
M  V30 1697 H 161.564 4.19932 6.4875 0
M  V30 1698 H 159.909 3.77073 5.83816 0
M  V30 1699 H 163.1 2.29116 4.08195 0
M  V30 1700 H 163.273 3.38961 5.52277 0
M  V30 1701 N 156.679 -1.44442 0.630414 0
M  V30 1702 C 157.609 -2.33418 -0.0618083 0
M  V30 1703 C 158.59 -1.48165 -0.835541 0
M  V30 1704 O 159.775 -1.76886 -0.801564 0
M  V30 1705 C 156.905 -3.31222 -1.04449 0
M  V30 1706 C 155.859 -4.26288 -0.382436 0
M  V30 1707 C 155.185 -5.13954 -1.47497 0
M  V30 1708 C 156.485 -5.1744 0.710865 0
M  V30 1709 H 158.179 -2.91548 0.681184 0
M  V30 1710 H 155.725 -1.40191 0.329026 0
M  V30 1711 H 157.678 -3.92351 -1.53748 0
M  V30 1712 H 156.402 -2.71299 -1.81836 0
M  V30 1713 H 155.061 -3.6649 0.0899054 0
M  V30 1714 H 154.709 -4.50385 -2.2397 0
M  V30 1715 H 154.409 -5.7837 -1.03737 0
M  V30 1716 H 155.933 -5.77955 -1.96979 0
M  V30 1717 H 157.347 -5.72509 0.300996 0
M  V30 1718 H 155.744 -5.90455 1.07156 0
M  V30 1719 H 156.814 -4.58496 1.57829 0
M  V30 1720 N 158.157 -0.370918 -1.53173 0
M  V30 1721 C 159.405 0.216673 -2.00935 0
M  V30 1722 C 159.726 1.48845 -1.25977 0
M  V30 1723 O 158.996 1.92286 -0.374551 0
M  V30 1724 H 157.576 0.0830565 -0.742368 0
M  V30 1725 H 160.238 -0.49838 -1.8842 0
M  V30 1726 H 159.334 0.439893 -3.08984 0
M  V30 1727 N 159.635 1.57281 -0.100228 0
M  V30 1728 C 160.565 2.17328 0.853857 0
M  V30 1729 C 161.546 1.10804 1.2906 0
M  V30 1730 O 162.731 1.38963 1.35657 0
M  V30 1731 C 159.861 2.75772 2.11109 0
M  V30 1732 C 158.815 3.87713 1.81279 0
M  V30 1733 C 158.141 4.32882 3.13874 0
M  V30 1734 C 159.441 5.10677 1.09574 0
M  V30 1735 H 161.135 2.97305 0.353545 0
M  V30 1736 H 158.681 1.43009 0.168612 0
M  V30 1737 H 160.634 3.16433 2.78296 0
M  V30 1738 H 159.358 1.93057 2.63432 0
M  V30 1739 H 158.017 3.476 1.16489 0
M  V30 1740 H 157.665 3.47051 3.64095 0
M  V30 1741 H 157.365 5.08358 2.94696 0
M  V30 1742 H 158.889 4.7618 3.82211 0
M  V30 1743 H 160.303 5.48474 1.66879 0
M  V30 1744 H 158.7 5.91615 1.00557 0
M  V30 1745 H 159.77 4.84835 0.0793299 0
M  V30 1746 N 161.113 -0.173488 1.56642 0
M  V30 1747 C 162.023 -1.23482 1.99473 0
M  V30 1748 C 163.039 -1.48567 0.905752 0
M  V30 1749 O 164.215 -1.60758 1.21321 0
M  V30 1750 C 161.28 -2.55444 2.34413 0
M  V30 1751 C 160.341 -2.38241 3.57127 0
M  V30 1752 C 159.574 -3.63909 3.90392 0
M  V30 1753 O 159.797 -4.68996 3.24653 0
M  V30 1754 O 158.731 -3.58149 4.83749 0
M  V30 1755 H 162.557 -0.901279 2.90018 0
M  V30 1756 H 160.142 -0.380185 1.44482 0
M  V30 1757 H 162.024 -3.33292 2.57865 0
M  V30 1758 H 160.699 -2.88382 1.4703 0
M  V30 1759 H 159.606 -1.58431 3.38896 0
M  V30 1760 H 160.939 -2.10228 4.45045 0
M  V30 1761 N 162.591 -1.51276 -0.441967 0
M  V30 1762 C 163.538 -1.72256 -1.53612 0
M  V30 1763 C 164.508 -0.564164 -1.56225 0
M  V30 1764 O 165.693 -0.798074 -1.73307 0
M  V30 1765 C 162.833 -1.84932 -2.91366 0
M  V30 1766 C 161.946 -3.12459 -2.98317 0
M  V30 1767 C 161.081 -3.15758 -4.27166 0
M  V30 1768 C 160.12 -4.37619 -4.27967 0
M  V30 1769 N 159.257 -4.38493 -5.48333 0
M  V30 1770 H 164.097 -2.65654 -1.35026 0
M  V30 1771 H 161.634 -1.31662 -0.656009 0
M  V30 1772 H 163.592 -1.90263 -3.7129 0
M  V30 1773 H 162.222 -0.949461 -3.08521 0
M  V30 1774 H 161.274 -3.1646 -2.11086 0
M  V30 1775 H 162.586 -4.02382 -2.94771 0
M  V30 1776 H 161.74 -3.19979 -5.15459 0
M  V30 1777 H 160.479 -2.23715 -4.33362 0
M  V30 1778 H 159.484 -4.33579 -3.38067 0
M  V30 1779 H 160.709 -5.30921 -4.23438 0
M  V30 1780 H 158.655 -3.49318 -5.55259 0
M  V30 1781 H 158.572 -5.22219 -5.46647 0
M  V30 1782 H 159.84 -4.469 -6.38671 0
M  V30 1783 N 164.069 0.697108 -1.41344 0
M  V30 1784 C 164.999 1.82353 -1.45841 0
M  V30 1785 C 165.98 1.67115 -0.317247 0
M  V30 1786 O 167.165 1.86871 -0.528474 0
M  V30 1787 C 164.295 3.20476 -1.33838 0
M  V30 1788 C 163.249 3.50415 -2.4575 0
M  V30 1789 C 162.575 4.87878 -2.18813 0
M  V30 1790 C 163.875 3.49546 -3.88091 0
M  V30 1791 H 165.569 1.78846 -2.40113 0
M  V30 1792 H 163.115 0.859028 -1.15571 0
M  V30 1793 H 165.068 3.98988 -1.35596 0
M  V30 1794 H 163.792 3.24604 -0.360498 0
M  V30 1795 H 162.451 2.74253 -2.43271 0
M  V30 1796 H 162.099 4.8863 -1.19371 0
M  V30 1797 H 161.799 5.08875 -2.93803 0
M  V30 1798 H 163.323 5.68702 -2.22284 0
M  V30 1799 H 164.737 4.18066 -3.92293 0
M  V30 1800 H 163.134 3.82075 -4.62751 0
M  V30 1801 H 164.204 2.48552 -4.16353 0
M  V30 1802 N 165.547 1.27147 0.931209 0
M  V30 1803 C 166.824 1.0401 1.65654 0
M  V30 1804 C 167.204 -0.426297 2.06751 0
M  V30 1805 O 166.552 -1.40879 1.79904 0
M  V30 1806 C 166.762 1.99834 2.86125 0
M  V30 1807 C 168.11 2.29007 3.57549 0
M  V30 1808 O 169.134 1.97779 2.96246 0
M  V30 1809 O 167.993 2.82222 4.67989 0
M  V30 1810 H 165.087 0.396239 0.725895 0
M  V30 1811 H 167.633 1.38397 0.982056 0
M  V30 1812 H 166.405 2.98744 2.52721 0
M  V30 1813 H 166.028 1.65987 3.61295 0
M  V30 1814 N 167.025 -1.13721 1.09112 0
M  V30 1815 C 167.955 -2.21148 0.749385 0
M  V30 1816 C 168.936 -1.6792 -0.271475 0
M  V30 1817 O 170.121 -1.93693 -0.140251 0
M  V30 1818 C 167.251 -3.46905 0.165659 0
M  V30 1819 C 166.205 -4.13203 1.11567 0
M  V30 1820 C 165.531 -5.33248 0.393809 0
M  V30 1821 C 166.831 -4.60912 2.45678 0
M  V30 1822 H 168.525 -2.4999 1.64758 0
M  V30 1823 H 166.071 -1.20156 0.793626 0
M  V30 1824 H 168.024 -4.21313 -0.085466 0
M  V30 1825 H 166.748 -3.17449 -0.767714 0
M  V30 1826 H 165.407 -3.40758 1.35202 0
M  V30 1827 H 165.055 -5.00054 -0.543599 0
M  V30 1828 H 164.755 -5.78552 1.02721 0
M  V30 1829 H 166.279 -6.10413 0.150908 0
M  V30 1830 H 167.693 -5.26759 2.26269 0
M  V30 1831 H 166.09 -5.16944 3.04776 0
M  V30 1832 H 167.16 -3.75603 3.06677 0
M  V30 1833 N 168.503 -0.877838 -1.30888 0
M  V30 1834 C 169.45 -0.337538 -2.28318 0
M  V30 1835 C 170.42 0.568346 -1.56074 0
M  V30 1836 O 171.605 0.498298 -1.84178 0
M  V30 1837 C 168.745 0.448142 -3.42178 0
M  V30 1838 C 167.858 -0.48615 -4.29256 0
M  V30 1839 C 166.993 0.314427 -5.30269 0
M  V30 1840 C 166.032 -0.615791 -6.08995 0
M  V30 1841 N 165.169 0.14902 -7.01942 0
M  V30 1842 H 170.009 -1.17356 -2.73919 0
M  V30 1843 H 167.546 -0.590094 -1.34745 0
M  V30 1844 H 169.504 0.919517 -4.06941 0
M  V30 1845 H 168.134 1.24879 -2.97666 0
M  V30 1846 H 167.186 -1.076 -3.64865 0
M  V30 1847 H 168.498 -1.19909 -4.84173 0
M  V30 1848 H 167.652 0.847969 -6.00745 0
M  V30 1849 H 166.391 1.06062 -4.76027 0
M  V30 1850 H 165.396 -1.16102 -5.37401 0
M  V30 1851 H 166.621 -1.36097 -6.65323 0
M  V30 1852 H 164.567 0.877884 -6.50099 0
M  V30 1853 H 164.484 -0.504433 -7.54315 0
M  V30 1854 H 165.752 0.663537 -7.76671 0
M  V30 1855 N 169.982 1.44106 -0.638065 0
M  V30 1856 C 171.398 1.56672 -0.304286 0
M  V30 1857 C 171.598 1.6244 1.19228 0
M  V30 1858 O 170.654 1.57121 1.9766 0
M  V30 1859 C 171.967 2.83503 -1.00231 0
M  V30 1860 C 173.515 2.97226 -0.981116 0
M  V30 1861 C 173.99 4.26868 -1.65974 0
M  V30 1862 N 175.481 4.33698 -1.62666 0
M  V30 1863 C 176.216 5.32745 -2.12063 0
M  V30 1864 N 175.712 6.38157 -2.6968 0
M  V30 1865 N 177.505 5.24299 -2.02651 0
M  V30 1866 H 169.656 1.38605 -1.60942 0
M  V30 1867 H 171.919 0.664661 -0.675965 0
M  V30 1868 H 171.625 2.85251 -2.0573 0
M  V30 1869 H 171.499 3.73251 -0.54439 0
M  V30 1870 H 173.886 2.95027 0.0654188 0
M  V30 1871 H 173.967 2.08808 -1.47759 0
M  V30 1872 H 173.611 4.29826 -2.70576 0
M  V30 1873 H 173.541 5.14156 -1.13804 0
M  V30 1874 H 176.032 3.58138 -1.20606 0
M  V30 1875 H 176.345 7.10029 -3.05087 0
M  V30 1876 H 174.69 6.38823 -2.73734 0
M  V30 1877 H 177.881 4.4086 -1.57353 0
M  V30 1878 H 178.054 6.01334 -2.41457 0
M  V30 1879 N 171.46 0.379036 1.52974 0
M  V30 1880 C 172.392 -0.495963 2.2377 0
M  V30 1881 C 173.405 -1.03517 1.25651 0
M  V30 1882 O 174.594 -0.939249 1.51791 0
M  V30 1883 C 171.694 -1.69894 2.93239 0
M  V30 1884 C 170.867 -1.2889 4.17979 0
M  V30 1885 C 169.926 -2.35543 4.70538 0
M  V30 1886 O 168.952 -1.97375 5.33883 0
M  V30 1887 N 170.154 -3.67318 4.49508 0
M  V30 1888 H 172.919 0.110523 2.99496 0
M  V30 1889 H 170.48 0.204878 1.60598 0
M  V30 1890 H 172.472 -2.40747 3.25304 0
M  V30 1891 H 171.042 -2.212 2.20883 0
M  V30 1892 H 170.262 -0.409676 3.92065 0
M  V30 1893 H 171.55 -0.991443 4.99047 0
M  V30 1894 H 170.948 -4.01095 3.98923 0
M  V30 1895 H 169.505 -4.34235 4.8609 0
M  V30 1896 N 172.938 -1.57226 0.108567 0
M  V30 1897 C 173.885 -2.14756 -0.845481 0
M  V30 1898 C 174.855 -1.06971 -1.27068 0
M  V30 1899 O 176.04 -1.34827 -1.35005 0
M  V30 1900 C 173.18 -2.74298 -2.09415 0
M  V30 1901 C 172.293 -3.96358 -1.71826 0
M  V30 1902 C 171.428 -4.44021 -2.9158 0
M  V30 1903 C 170.467 -5.58637 -2.50181 0
M  V30 1904 N 169.604 -6.01091 -3.62814 0
M  V30 1905 H 174.444 -2.95961 -0.348035 0
M  V30 1906 H 171.981 -1.46226 -0.160106 0
M  V30 1907 H 173.939 -3.06945 -2.82561 0
M  V30 1908 H 172.569 -1.95801 -2.56636 0
M  V30 1909 H 171.621 -3.69939 -0.885947 0
M  V30 1910 H 172.933 -4.79504 -1.37394 0
M  V30 1911 H 172.087 -4.78522 -3.72963 0
M  V30 1912 H 170.826 -3.59803 -3.29231 0
M  V30 1913 H 169.831 -5.23751 -1.67228 0
M  V30 1914 H 171.056 -6.44613 -2.13659 0
M  V30 1915 H 169.002 -5.19817 -4.00158 0
M  V30 1916 H 168.919 -6.79066 -3.32273 0
M  V30 1917 H 170.187 -6.40227 -4.44668 0
M  V30 1918 N 174.416 0.165178 -1.56732 0
M  V30 1919 C 175.326 1.22423 -2.00125 0
M  V30 1920 C 176.342 1.48084 -0.913619 0
M  V30 1921 O 177.518 1.60112 -1.22172 0
M  V30 1922 C 174.583 2.54197 -2.35764 0
M  V30 1923 C 173.644 2.36343 -3.58386 0
M  V30 1924 C 172.877 3.61834 -3.92316 0
M  V30 1925 O 173.1 4.67267 -3.27135 0
M  V30 1926 O 172.034 3.55579 -4.85641 0
M  V30 1927 H 175.86 0.885886 -2.90492 0
M  V30 1928 H 173.445 0.372518 -1.44681 0
M  V30 1929 H 175.327 3.3192 -2.59629 0
M  V30 1930 H 174.002 2.87598 -1.48557 0
M  V30 1931 H 172.909 1.56632 -3.39731 0
M  V30 1932 H 174.242 2.07865 -4.46154 0
M  V30 1933 N 175.894 1.51508 0.433938 0
M  V30 1934 C 176.826 1.69266 1.54537 0
M  V30 1935 C 177.839 0.573276 1.52373 0
M  V30 1936 O 179.028 0.847698 1.57087 0
M  V30 1937 C 176.128 1.69524 2.93453 0
M  V30 1938 C 175.301 2.98101 3.20085 0
M  V30 1939 C 174.36 2.90502 4.38742 0
M  V30 1940 O 173.386 3.64442 4.3723 0
M  V30 1941 N 174.588 2.06586 5.42496 0
M  V30 1942 H 177.353 2.65145 1.39708 0
M  V30 1943 H 174.914 1.49437 0.622922 0
M  V30 1944 H 176.906 1.62004 3.70859 0
M  V30 1945 H 175.476 0.812245 3.01863 0
M  V30 1946 H 174.696 3.19464 2.30947 0
M  V30 1947 H 175.984 3.83207 3.34708 0
M  V30 1948 H 175.382 1.45896 5.46563 0
M  V30 1949 H 173.939 2.04943 6.18742 0
M  V30 1950 N 177.372 -0.689602 1.41712 0
M  V30 1951 C 178.335 -1.78521 1.43746 0
M  V30 1952 C 179.335 -1.57436 0.327191 0
M  V30 1953 O 180.525 -1.64 0.587348 0
M  V30 1954 C 177.657 -3.16971 1.25467 0
M  V30 1955 H 178.85 -1.78108 2.41283 0
M  V30 1956 H 176.403 -0.89781 1.27942 0
M  V30 1957 H 177.138 -3.23019 0.287948 0
M  V30 1958 H 176.923 -3.33678 2.05917 0
M  V30 1959 H 178.413 -3.96935 1.2974 0
M  V30 1960 N 178.85 -1.27639 -0.924453 0
M  V30 1961 C 179.78 -1.13166 -2.04244 0
M  V30 1962 C 180.761 -0.032256 -1.70069 0
M  V30 1963 O 181.946 -0.207328 -1.9309 0
M  V30 1964 C 179.076 -0.781496 -3.38393 0
M  V30 1965 C 178.03 -1.83449 -3.86692 0
M  V30 1966 C 177.356 -1.33822 -5.17683 0
M  V30 1967 C 178.656 -3.23917 -4.09726 0
M  V30 1968 H 180.35 -2.06689 -2.1661 0
M  V30 1969 H 177.896 -0.995136 -1.04082 0
M  V30 1970 H 179.849 -0.667057 -4.16087 0
M  V30 1971 H 178.573 0.189439 -3.2605 0
M  V30 1972 H 177.232 -1.93789 -3.11193 0
M  V30 1973 H 176.88 -0.35665 -5.01734 0
M  V30 1974 H 176.58 -2.04224 -5.50968 0
M  V30 1975 H 178.104 -1.23679 -5.97943 0
M  V30 1976 H 179.518 -3.16559 -4.77978 0
M  V30 1977 H 177.915 -3.92059 -4.54324 0
M  V30 1978 H 178.985 -3.68729 -3.14908 0
M  V30 1979 N 180.328 1.1314 -1.09713 0
M  V30 1980 C 181.744 1.36477 -0.827423 0
M  V30 1981 C 181.944 1.93654 0.556817 0
M  V30 1982 O 181 2.15791 1.31112 0
M  V30 1983 C 182.313 2.31334 -1.92106 0
M  V30 1984 C 183.861 2.44943 -1.94864 0
M  V30 1985 C 184.336 3.4311 -3.0338 0
M  V30 1986 N 185.827 3.50662 -3.02639 0
M  V30 1987 C 186.562 4.2651 -3.83246 0
M  V30 1988 N 186.058 5.05485 -4.73768 0
M  V30 1989 N 187.851 4.2184 -3.71493 0
M  V30 1990 H 180.002 0.743807 -1.9895 0
M  V30 1991 H 182.265 0.389823 -0.864143 0
M  V30 1992 H 181.971 1.96483 -2.91698 0
M  V30 1993 H 181.845 3.31381 -1.80184 0
M  V30 1994 H 184.232 2.79079 -0.959099 0
M  V30 1995 H 184.313 1.4481 -2.10864 0
M  V30 1996 H 183.957 3.09704 -4.02549 0
M  V30 1997 H 183.887 4.43055 -2.84622 0
M  V30 1998 H 186.378 2.94315 -2.37039 0
M  V30 1999 H 186.691 5.60675 -5.3185 0
M  V30 2000 H 185.036 5.04708 -4.77802 0
M  V30 2001 H 188.227 3.5922 -3.00131 0
M  V30 2002 H 188.4 4.80697 -4.3455 0
M  V30 2003 N 181.806 0.884767 1.30421 0
M  V30 2004 C 182.716 0.355398 2.31892 0
M  V30 2005 C 183.732 -0.542261 1.65335 0
M  V30 2006 O 184.908 -0.435432 1.96637 0
M  V30 2007 C 181.973 -0.421661 3.44126 0
M  V30 2008 C 181.034 0.505727 4.26311 0
M  V30 2009 C 180.267 -0.234343 5.33185 0
M  V30 2010 O 180.49 -1.46045 5.51386 0
M  V30 2011 O 179.424 0.415443 6.00465 0
M  V30 2012 H 183.25 1.19685 2.79122 0
M  V30 2013 H 180.835 0.648596 1.34587 0
M  V30 2014 H 182.717 -0.861641 4.12497 0
M  V30 2015 H 181.392 -1.23942 2.99032 0
M  V30 2016 H 180.299 0.994513 3.60639 0
M  V30 2017 H 181.632 1.28948 4.75009 0
M  V30 2018 N 183.284 -1.43765 0.645699 0
M  V30 2019 C 184.53 -2.02197 0.156271 0
M  V30 2020 C 184.863 -1.50776 -1.22393 0
M  V30 2021 O 184.138 -0.697771 -1.81553 0
M  V30 2022 C 184.421 -3.59749 0.158872 0
M  V30 2023 C 184.274 -4.21419 1.57245 0
M  V30 2024 C 185.593 -4.37149 -0.50879 0
M  V30 2025 H 182.712 -0.734694 0.0582602 0
M  V30 2026 H 185.354 -1.71157 0.824951 0
M  V30 2027 H 183.504 -3.86325 -0.410525 0
M  V30 2028 H 185.176 -4.059 2.19186 0
M  V30 2029 H 183.419 -3.78356 2.122 0
M  V30 2030 H 184.09 -5.30482 1.52619 0
M  V30 2031 H 186.566 -4.16093 -0.024412 0
M  V30 2032 H 185.442 -5.4683 -0.476213 0
M  V30 2033 H 185.703 -4.12839 -1.58165 0
M  V30 2034 N 184.763 -0.387143 -1.52771 0
M  V30 2035 C 185.673 0.456442 -2.30117 0
M  V30 2036 C 186.689 1.07342 -1.36944 0
M  V30 2037 O 187.865 1.07971 -1.70013 0
M  V30 2038 C 184.93 1.56957 -3.09136 0
M  V30 2039 C 183.991 0.977916 -4.18014 0
M  V30 2040 C 183.224 2.038 -4.93256 0
M  V30 2041 O 183.447 3.25271 -4.68567 0
M  V30 2042 O 182.381 1.6565 -5.78657 0
M  V30 2043 H 186.207 -0.17359 -3.03203 0
M  V30 2044 H 183.792 -0.150919 -1.48636 0
M  V30 2045 H 185.674 2.21628 -3.58412 0
M  V30 2046 H 184.349 2.18461 -2.38865 0
M  V30 2047 H 183.256 0.294525 -3.72939 0
M  V30 2048 H 184.589 0.407128 -4.90513 0
M  V30 2049 N 186.241 1.57166 -0.116904 0
M  V30 2050 C 187.191 2.11756 0.845178 0
M  V30 2051 C 188.175 1.03783 1.22955 0
M  V30 2052 O 189.367 1.3002 1.20099 0
M  V30 2053 C 186.496 2.71886 2.09602 0
M  V30 2054 C 185.582 3.86937 1.7361 0
M  V30 2055 N 185.973 4.94073 1.08284 0
M  V30 2056 C 184.271 3.97082 2.03082 0
M  V30 2057 C 184.972 5.74477 0.913855 0
M  V30 2058 N 183.948 5.2423 1.43818 0
M  V30 2059 H 187.75 2.91967 0.336523 0
M  V30 2060 H 185.264 1.62174 0.0856332 0
M  V30 2061 H 187.261 3.09338 2.79492 0
M  V30 2062 H 185.921 1.93138 2.61013 0
M  V30 2063 H 186.932 5.12483 0.747067 0
M  V30 2064 H 183.609 3.29372 2.56554 0
M  V30 2065 H 184.999 6.70701 0.40125 0
M  V30 2066 N 187.719 -0.156864 1.56817 0
M  V30 2067 C 188.649 -1.19589 2.00551 0
M  V30 2068 C 189.63 -1.4536 0.883426 0
M  V30 2069 O 190.815 -1.56449 1.15054 0
M  V30 2070 C 187.945 -2.53143 2.37773 0
M  V30 2071 C 186.899 -2.41913 3.53075 0
M  V30 2072 C 186.225 -3.80088 3.76081 0
M  V30 2073 C 187.525 -1.91157 4.86062 0
M  V30 2074 H 189.219 -0.832293 2.87599 0
M  V30 2075 H 186.765 -0.398918 1.38364 0
M  V30 2076 H 188.718 -3.26047 2.66967 0
M  V30 2077 H 187.442 -2.91319 1.4765 0
M  V30 2078 H 186.101 -1.71462 3.24031 0
M  V30 2079 H 185.749 -4.15683 2.83225 0
M  V30 2080 H 185.449 -3.73439 4.53671 0
M  V30 2081 H 186.973 -4.54556 4.0769 0
M  V30 2082 H 188.387 -2.53846 5.14038 0
M  V30 2083 H 186.784 -1.95422 5.67389 0
M  V30 2084 H 187.854 -0.866673 4.77092 0
M  V30 2085 N 189.197 -1.51736 -0.425897 0
M  V30 2086 C 190.144 -1.73875 -1.51776 0
M  V30 2087 C 191.114 -0.580702 -1.55618 0
M  V30 2088 O 192.299 -0.81641 -1.72451 0
M  V30 2089 C 189.439 -1.88012 -2.89388 0
M  V30 2090 C 188.552 -3.15606 -2.94986 0
M  V30 2091 C 187.687 -3.20271 -4.23793 0
M  V30 2092 C 186.726 -4.42134 -4.23302 0
M  V30 2093 N 185.863 -4.44284 -5.43651 0
M  V30 2094 H 190.703 -2.67071 -1.32201 0
M  V30 2095 H 188.24 -1.32351 -0.642008 0
M  V30 2096 H 190.198 -1.9419 -3.69251 0
M  V30 2097 H 188.828 -0.98213 -3.07496 0
M  V30 2098 H 187.88 -3.18681 -2.07717 0
M  V30 2099 H 189.192 -4.05486 -2.90486 0
M  V30 2100 H 188.346 -3.25428 -5.12036 0
M  V30 2101 H 187.085 -2.28299 -4.30965 0
M  V30 2102 H 186.09 -4.3714 -3.3345 0
M  V30 2103 H 187.315 -5.35382 -4.17783 0
M  V30 2104 H 185.261 -3.55188 -5.51523 0
M  V30 2105 H 185.178 -5.27988 -5.41078 0
M  V30 2106 H 186.446 -4.53649 -6.33895 0
M  V30 2107 N 190.675 0.682077 -1.42076 0
M  V30 2108 C 192.091 0.994324 -1.24841 0
M  V30 2109 C 192.291 2.0096 -0.147389 0
M  V30 2110 O 191.347 2.47822 0.483782 0
M  V30 2111 C 192.66 1.50607 -2.60265 0
M  V30 2112 C 194.208 1.62421 -2.6756 0
M  V30 2113 C 194.683 2.16994 -4.03333 0
M  V30 2114 N 196.174 2.24337 -4.0525 0
M  V30 2115 C 196.909 2.67621 -5.07116 0
M  V30 2116 N 196.405 3.1041 -6.19368 0
M  V30 2117 N 198.198 2.67305 -4.94474 0
M  V30 2118 H 190.349 0.00973908 -2.12398 0
M  V30 2119 H 192.612 0.0668593 -0.945639 0
M  V30 2120 H 192.318 0.834583 -3.41654 0
M  V30 2121 H 192.192 2.48602 -2.83684 0
M  V30 2122 H 194.579 2.28678 -1.86521 0
M  V30 2123 H 194.66 0.629352 -2.47937 0
M  V30 2124 H 194.304 1.51349 -4.84826 0
M  V30 2125 H 194.234 3.17258 -4.20304 0
M  V30 2126 H 196.725 1.94158 -3.24209 0
M  V30 2127 H 197.038 3.42103 -6.92954 0
M  V30 2128 H 195.383 3.08286 -6.22884 0
M  V30 2129 H 198.574 2.33233 -4.05857 0
M  V30 2130 H 198.747 3.00718 -5.73997 0
M  V30 2131 N 192.153 1.28127 0.917671 0
M  V30 2132 C 193.393 1.163 1.68088 0
M  V30 2133 C 193.757 -0.284515 1.8988 0
M  V30 2134 O 194.958 -0.525413 2.63615 0
M  V30 2135 C 193.229 1.93546 3.00457 0
M  V30 2136 S 194.788 1.98048 3.91564 0
M  V30 2137 H 191.606 0.415005 0.577315 0
M  V30 2138 H 194.208 1.62173 1.09179 0
M  V30 2139 H 192.912 2.97888 2.82295 0
M  V30 2140 H 192.443 1.48207 3.64415 0
M  V30 2141 H 194.458 1.08415 4.84211 0
M  V30 2142 N 193.631 -1.12557 1.10312 0
M  V30 2143 C 194.563 -2.17971 0.708625 0
M  V30 2144 C 195.576 -1.60806 -0.254027 0
M  V30 2145 O 196.765 -1.78458 -0.0386891 0
M  V30 2146 C 193.865 -3.38891 0.0248198 0
M  V30 2147 C 193.038 -4.25548 1.01132 0
M  V30 2148 C 192.097 -5.24972 0.35924 0
M  V30 2149 O 191.123 -5.60174 1.00965 0
M  V30 2150 N 192.325 -5.73747 -0.882847 0
M  V30 2151 H 195.09 -2.52427 1.61557 0
M  V30 2152 H 192.651 -1.27967 0.991771 0
M  V30 2153 H 194.643 -4.02485 -0.422852 0
M  V30 2154 H 193.213 -3.02596 -0.784514 0
M  V30 2155 H 192.433 -3.58589 1.6373 0
M  V30 2156 H 193.721 -4.80294 1.67914 0
M  V30 2157 H 193.119 -5.4731 -1.43065 0
M  V30 2158 H 191.676 -6.39234 -1.27369 0
M  V30 2159 N 195.109 -0.891671 -1.2995 0
M  V30 2160 C 196.041 -0.320695 -2.26945 0
M  V30 2161 C 197.054 0.528497 -1.53983 0
M  V30 2162 O 198.243 0.346959 -1.75096 0
M  V30 2163 C 195.343 0.562066 -3.34207 0
M  V30 2164 C 194.516 -0.259576 -4.36629 0
M  V30 2165 C 193.575 0.554739 -5.23268 0
M  V30 2166 O 192.601 -0.0249311 -5.69195 0
M  V30 2167 N 193.803 1.8625 -5.4981 0
M  V30 2168 H 196.568 -1.15432 -2.76578 0
M  V30 2169 H 194.129 -0.755336 -1.432 0
M  V30 2170 H 196.121 1.11304 -3.89093 0
M  V30 2171 H 194.691 1.29637 -2.84452 0
M  V30 2172 H 193.911 -0.991986 -3.81514 0
M  V30 2173 H 195.199 -0.822564 -5.02107 0
M  V30 2174 H 194.597 2.35628 -5.14292 0
M  V30 2175 H 193.154 2.36078 -6.07545 0
M  V30 2176 N 196.587 1.43421 -0.653314 0
M  V30 2177 C 197.519 2.29071 0.0769134 0
M  V30 2178 C 198.532 1.42513 0.787017 0
M  V30 2179 O 199.721 1.66449 0.644757 0
M  V30 2180 C 196.821 3.19436 1.13199 0
M  V30 2181 C 195.994 4.34533 0.500006 0
M  V30 2182 C 195.053 5.05771 1.45198 0
M  V30 2183 O 194.079 5.61037 0.960538 0
M  V30 2184 N 195.281 5.0928 2.78594 0
M  V30 2185 H 198.046 2.92382 -0.658235 0
M  V30 2186 H 195.607 1.54112 -0.496104 0
M  V30 2187 H 197.599 3.63958 1.76964 0
M  V30 2188 H 196.169 2.57724 1.7691 0
M  V30 2189 H 195.389 3.92925 -0.316738 0
M  V30 2190 H 196.677 5.08766 0.0588345 0
M  V30 2191 H 196.075 4.65751 3.2108 0
M  V30 2192 H 194.632 5.57519 3.37662 0
M  V30 2193 N 198.065 0.39524 1.52563 0
M  V30 2194 C 198.998 -0.4813 2.23067 0
M  V30 2195 C 199.976 -1.05927 1.23362 0
M  V30 2196 O 201.16 -1.10979 1.52368 0
M  V30 2197 C 198.287 -1.66676 2.9485 0
M  V30 2198 C 197.333 -1.21348 4.08873 0
M  V30 2199 S 198.166 -0.190102 5.35162 0
M  V30 2200 C 199.322 -1.38121 6.1047 0
M  V30 2201 H 199.555 0.117381 2.97068 0
M  V30 2202 H 197.088 0.179458 1.53354 0
M  V30 2203 H 199.046 -2.3466 3.36816 0
M  V30 2204 H 197.707 -2.23676 2.20518 0
M  V30 2205 H 196.9 -2.09877 4.58222 0
M  V30 2206 H 196.502 -0.612486 3.68951 0
M  V30 2207 H 198.794 -2.30726 6.37002 0
M  V30 2208 H 199.737 -0.928521 7.01986 0
M  V30 2209 H 200.145 -1.60071 5.41329 0
M  V30 2210 N 199.544 -1.57102 0.125237 0
M  V30 2211 C 200.507 -2.14471 -0.80838 0
M  V30 2212 C 201.507 -1.0811 -1.19033 0
M  V30 2213 O 202.697 -1.33856 -1.11482 0
M  V30 2214 C 199.829 -2.69005 -2.09402 0
M  V30 2215 H 201.022 -2.98297 -0.309696 0
M  V30 2216 H 198.575 -1.55807 -0.124051 0
M  V30 2217 H 199.31 -1.88785 -2.63687 0
M  V30 2218 H 199.095 -3.46799 -1.82957 0
M  V30 2219 H 200.585 -3.13278 -2.76128 0
M  V30 2220 N 201.022 0.148545 -1.56898 0
M  V30 2221 C 201.932 1.20293 -2.01412 0
M  V30 2222 C 202.948 1.47107 -0.929273 0
M  V30 2223 O 204.124 1.58807 -1.23863 0
M  V30 2224 C 201.189 2.51682 -2.38447 0
M  V30 2225 C 200.25 2.32529 -3.60872 0
M  V30 2226 C 199.483 3.57653 -3.96132 0
M  V30 2227 O 199.706 4.63771 -3.32073 0
M  V30 2228 O 198.64 3.50408 -4.89385 0
M  V30 2229 H 202.466 0.855025 -2.91416 0
M  V30 2230 H 200.051 0.357151 -1.45068 0
M  V30 2231 H 201.933 3.29147 -2.63135 0
M  V30 2232 H 200.608 2.86006 -1.51599 0
M  V30 2233 H 199.515 1.53019 -3.41373 0
M  V30 2234 H 200.848 2.03121 -4.48333 0
M  V30 2235 N 202.5 1.5196 0.417844 0
M  V30 2236 C 203.777 1.56146 1.17803 0
M  V30 2237 C 204.157 0.337275 2.08388 0
M  V30 2238 O 203.505 -0.676447 2.18258 0
M  V30 2239 C 203.715 2.88566 1.96293 0
M  V30 2240 C 205.063 3.41244 2.52662 0
M  V30 2241 O 206.087 2.90247 2.06483 0
M  V30 2242 O 204.946 4.30273 3.36938 0
M  V30 2243 H 202.04 0.628598 0.537395 0
M  V30 2244 H 204.586 1.64283 0.425331 0
M  V30 2245 H 203.358 3.69116 1.2988 0
M  V30 2246 H 202.981 2.83681 2.78587 0
M  V30 2247 N 203.978 -0.674533 1.42435 0
M  V30 2248 C 204.925 -1.78807 1.45934 0
M  V30 2249 C 205.895 -1.63157 0.311271 0
M  V30 2250 O 207.08 -1.83707 0.515383 0
M  V30 2251 C 204.22 -3.16839 1.36773 0
M  V30 2252 C 203.333 -3.43774 2.61617 0
M  V30 2253 C 202.468 -4.71536 2.44597 0
M  V30 2254 C 201.507 -4.91505 3.64814 0
M  V30 2255 N 200.644 -6.10508 3.46734 0
M  V30 2256 H 205.484 -1.75151 2.41093 0
M  V30 2257 H 203.021 -0.85504 1.19697 0
M  V30 2258 H 204.979 -3.96606 1.29459 0
M  V30 2259 H 203.609 -3.19619 0.452089 0
M  V30 2260 H 202.661 -2.58259 2.79297 0
M  V30 2261 H 203.973 -3.54423 3.50978 0
M  V30 2262 H 203.127 -5.59393 2.3487 0
M  V30 2263 H 201.866 -4.6317 1.52726 0
M  V30 2264 H 200.871 -4.0209 3.74972 0
M  V30 2265 H 202.096 -5.01716 4.57665 0
M  V30 2266 H 200.042 -6.03315 2.5758 0
M  V30 2267 H 199.959 -6.2202 4.29682 0
M  V30 2268 H 201.227 -7.01044 3.40819 0
M  V30 2269 N 205.456 -1.28612 -0.910864 0
M  V30 2270 C 206.419 -1.12803 -1.9952 0
M  V30 2271 C 207.419 -0.0668264 -1.60661 0
M  V30 2272 O 208.609 -0.312847 -1.71368 0
M  V30 2273 C 205.741 -0.72254 -3.33155 0
M  V30 2274 H 206.934 -2.09109 -2.14973 0
M  V30 2275 H 204.487 -1.11639 -1.09391 0
M  V30 2276 H 205.222 0.241152 -3.23402 0
M  V30 2277 H 205.007 -1.48916 -3.62721 0
M  V30 2278 H 206.497 -0.634666 -4.12749 0
M  V30 2279 N 206.934 1.1197 -1.10907 0
M  V30 2280 C 208.159 1.87942 -0.877064 0
M  V30 2281 C 208.584 1.79341 0.567314 0
M  V30 2282 O 207.942 1.15184 1.40009 0
M  V30 2283 C 207.99 3.34926 -1.33629 0
M  V30 2284 O 207.094 4.09303 -0.504447 0
M  V30 2285 H 206.435 0.583785 -0.316371 0
M  V30 2286 H 208.965 1.4157 -1.47712 0
M  V30 2287 H 208.975 3.8577 -1.32837 0
M  V30 2288 H 207.65 3.40504 -2.3881 0
M  V30 2289 H 206.227 3.68393 -0.577993 0
M  V30 2290 N 208.412 0.89855 1.29475 0
M  V30 2291 C 209.658 0.524658 1.95896 0
M  V30 2292 C 209.991 -0.926468 1.70676 0
M  V30 2293 O 209.266 -1.65665 1.01908 0
M  V30 2294 C 209.549 0.81633 3.50725 0
M  V30 2295 C 209.402 2.31907 3.85408 0
M  V30 2296 C 210.721 0.302038 4.39062 0
M  V30 2297 H 207.84 0.19209 0.711527 0
M  V30 2298 H 210.482 1.12502 1.53112 0
M  V30 2299 H 208.632 0.305369 3.87298 0
M  V30 2300 H 210.304 2.89949 3.58786 0
M  V30 2301 H 208.547 2.78027 3.32992 0
M  V30 2302 H 209.218 2.47373 4.93468 0
M  V30 2303 H 211.694 0.739551 4.09475 0
M  V30 2304 H 210.57 0.535331 5.46283 0
M  V30 2305 H 210.831 -0.797216 4.34853 0
M  V30 2306 N 209.89 -1.43072 0.660911 0
M  V30 2307 C 210.837 -2.30785 -0.0259884 0
M  V30 2308 C 211.807 -1.45184 -0.806888 0
M  V30 2309 O 212.992 -1.74041 -0.781943 0
M  V30 2310 C 210.132 -3.30861 -0.981067 0
M  V30 2311 C 209.245 -4.31558 -0.195458 0
M  V30 2312 C 208.38 -5.18712 -1.14503 0
M  V30 2313 C 207.419 -6.11097 -0.350299 0
M  V30 2314 N 206.556 -6.90849 -1.25186 0
M  V30 2315 H 211.396 -2.88975 0.727846 0
M  V30 2316 H 208.933 -1.42353 0.370682 0
M  V30 2317 H 210.891 -3.87399 -1.54849 0
M  V30 2318 H 209.521 -2.74304 -1.70169 0
M  V30 2319 H 208.573 -3.77252 0.488374 0
M  V30 2320 H 209.885 -4.9701 0.422176 0
M  V30 2321 H 209.039 -5.79914 -1.78284 0
M  V30 2322 H 207.778 -4.53404 -1.79656 0
M  V30 2323 H 206.783 -5.48976 0.300808 0
M  V30 2324 H 208.008 -6.7845 0.296941 0
M  V30 2325 H 205.954 -6.28182 -1.89005 0
M  V30 2326 H 205.871 -7.52854 -0.688971 0
M  V30 2327 H 207.139 -7.5655 -1.87757 0
M  V30 2328 N 211.368 -0.403325 -1.52352 0
M  V30 2329 C 212.331 0.413051 -2.25447 0
M  V30 2330 C 213.331 0.978513 -1.276 0
M  V30 2331 O 214.521 0.858305 -1.51587 0
M  V30 2332 C 211.653 1.58087 -3.02029 0
M  V30 2333 H 212.846 -0.227094 -2.99039 0
M  V30 2334 H 210.399 -0.155722 -1.55522 0
M  V30 2335 H 211.134 2.25804 -2.32772 0
M  V30 2336 H 210.919 1.18195 -3.73861 0
M  V30 2337 H 212.409 2.1585 -3.57489 0
M  V30 2338 N 212.846 1.57033 -0.133567 0
M  V30 2339 C 213.778 2.13176 0.841944 0
M  V30 2340 C 214.791 1.07794 1.22001 0
M  V30 2341 O 215.98 1.35117 1.16643 0
M  V30 2342 C 213.08 2.62847 2.13926 0
M  V30 2343 C 212.253 3.92486 1.93064 0
M  V30 2344 C 211.312 4.27605 3.0666 0
M  V30 2345 O 210.338 4.96168 2.78937 0
M  V30 2346 N 211.54 3.861 4.33483 0
M  V30 2347 H 214.305 2.97503 0.362192 0
M  V30 2348 H 211.866 1.61821 0.05042 0
M  V30 2349 H 213.858 2.83363 2.88942 0
M  V30 2350 H 212.428 1.83319 2.53205 0
M  V30 2351 H 211.648 3.80732 1.02159 0
M  V30 2352 H 212.936 4.77225 1.76447 0
M  V30 2353 H 212.334 3.30828 4.58878 0
M  V30 2354 H 210.891 4.11694 5.05323 0
M  V30 2355 N 214.325 -0.140222 1.56975 0
M  V30 2356 C 215.571 -0.852949 1.83991 0
M  V30 2357 C 215.904 -1.80512 0.716187 0
M  V30 2358 O 215.179 -1.92479 -0.279681 0
M  V30 2359 C 215.462 -1.6215 3.21527 0
M  V30 2360 C 215.315 -0.690363 4.4447 0
M  V30 2361 C 216.634 -2.58247 3.56366 0
M  V30 2362 H 213.753 -0.308634 0.669264 0
M  V30 2363 H 216.395 -0.117898 1.89634 0
M  V30 2364 H 214.545 -2.24812 3.16847 0
M  V30 2365 H 216.217 -0.0742264 4.6124 0
M  V30 2366 H 214.46 -0.000396433 4.338 0
M  V30 2367 H 215.131 -1.2643 5.37326 0
M  V30 2368 H 217.607 -2.05701 3.61699 0
M  V30 2369 H 216.483 -3.09067 4.53617 0
M  V30 2370 H 216.744 -3.39923 2.82674 0
M  V30 2371 N 215.803 -1.52179 -0.40978 0
M  V30 2372 C 217.031 -1.70054 -1.17853 0
M  V30 2373 C 217.446 -0.409735 -1.843 0
M  V30 2374 O 216.803 0.614183 -1.71855 0
M  V30 2375 C 216.854 -2.83568 -2.24213 0
M  V30 2376 O 216.575 -4.0765 -1.60478 0
M  V30 2377 C 218.076 -3.12947 -3.13973 0
M  V30 2378 H 215.296 -0.569917 -0.354169 0
M  V30 2379 H 217.84 -1.98734 -0.482198 0
M  V30 2380 H 215.995 -2.57409 -2.89516 0
M  V30 2381 H 216.409 -4.70899 -2.30986 0
M  V30 2382 H 217.883 -3.95889 -3.84677 0
M  V30 2383 H 218.36 -2.26472 -3.76307 0
M  V30 2384 H 218.966 -3.40868 -2.5434 0
M  V30 2385 N 217.281 0.66697 -1.42791 0
M  V30 2386 C 218.506 1.46004 -1.47301 0
M  V30 2387 C 218.931 1.87894 -0.0880317 0
M  V30 2388 O 218.289 1.56502 0.915253 0
M  V30 2389 C 218.337 2.68031 -2.41229 0
M  V30 2390 O 217.441 3.6659 -1.88906 0
M  V30 2391 H 216.782 0.43832 -0.49877 0
M  V30 2392 H 219.312 0.817391 -1.87563 0
M  V30 2393 H 219.322 3.1601 -2.58073 0
M  V30 2394 H 217.997 2.36883 -3.41847 0
M  V30 2395 H 216.574 3.25661 -1.81656 0
M  V30 2396 N 218.759 1.29093 0.90403 0
M  V30 2397 C 219.689 1.16401 2.02418 0
M  V30 2398 C 220.67 0.0593085 1.69997 0
M  V30 2399 O 221.855 0.238021 1.92736 0
M  V30 2400 C 218.985 0.835233 3.37107 0
M  V30 2401 C 217.939 1.89578 3.83724 0
M  V30 2402 C 217.265 1.42041 5.15489 0
M  V30 2403 C 218.565 3.30394 4.04521 0
M  V30 2404 H 220.259 2.10109 2.13295 0
M  V30 2405 H 217.805 1.01157 1.02486 0
M  V30 2406 H 219.758 0.733169 4.14973 0
M  V30 2407 H 218.482 -0.137543 3.2631 0
M  V30 2408 H 217.141 1.98715 3.08071 0
M  V30 2409 H 216.789 0.436426 5.01103 0
M  V30 2410 H 216.489 2.12964 5.4765 0
M  V30 2411 H 218.013 1.33176 5.959 0
M  V30 2412 H 219.427 3.24123 4.72882 0
M  V30 2413 H 217.824 3.99237 4.48029 0
M  V30 2414 H 218.894 3.73692 3.09002 0
M  V30 2415 N 220.237 -1.11381 1.11499 0
M  V30 2416 C 221.167 -2.19509 0.796125 0
M  V30 2417 C 222.148 -1.68458 -0.235796 0
M  V30 2418 O 223.333 -1.93947 -0.0991344 0
M  V30 2419 C 220.463 -3.46475 0.239205 0
M  V30 2420 C 219.417 -4.10744 1.20307 0
M  V30 2421 C 218.743 -5.32293 0.50683 0
M  V30 2422 C 220.043 -4.55597 2.55399 0
M  V30 2423 H 221.737 -2.46439 1.70024 0
M  V30 2424 H 219.283 -1.18446 0.818935 0
M  V30 2425 H 221.236 -4.214 0.00392006 0
M  V30 2426 H 219.96 -3.19006 -0.700206 0
M  V30 2427 H 218.619 -3.37813 1.42399 0
M  V30 2428 H 218.267 -5.01095 -0.437408 0
M  V30 2429 H 217.967 -5.76243 1.1497 0
M  V30 2430 H 219.491 -6.09956 0.280351 0
M  V30 2431 H 220.905 -5.21841 2.37391 0
M  V30 2432 H 219.302 -5.10363 3.15673 0
M  V30 2433 H 220.372 -3.69013 3.14575 0
M  V30 2434 N 221.715 -0.905404 -1.28997 0
M  V30 2435 C 222.963 -0.533192 -1.9494 0
M  V30 2436 C 223.284 0.924618 -1.71685 0
M  V30 2437 O 222.554 1.65268 -1.05183 0
M  V30 2438 H 221.134 -0.194194 -0.721317 0
M  V30 2439 H 223.796 -1.15294 -1.57141 0
M  V30 2440 H 222.892 -0.72059 -3.03667 0
M  V30 2441 N 223.193 1.4272 -0.668489 0
M  V30 2442 C 224.103 2.34596 0.0139753 0
M  V30 2443 C 225.119 1.5474 0.795703 0
M  V30 2444 O 226.295 1.87334 0.739466 0
M  V30 2445 C 223.36 3.33202 0.957982 0
M  V30 2446 C 222.421 4.28957 0.17149 0
M  V30 2447 C 221.654 5.22853 1.07053 0
M  V30 2448 O 221.877 5.21531 2.31001 0
M  V30 2449 O 220.811 5.9952 0.534727 0
M  V30 2450 H 224.637 2.9448 -0.742661 0
M  V30 2451 H 222.222 1.43117 -0.428705 0
M  V30 2452 H 224.104 3.93796 1.50008 0
M  V30 2453 H 222.779 2.758 1.69458 0
M  V30 2454 H 221.686 3.71796 -0.414558 0
M  V30 2455 H 223.019 4.89383 -0.52586 0
M  V30 2456 N 224.671 0.411399 1.52136 0
M  V30 2457 C 225.601 -0.404015 2.29978 0
M  V30 2458 C 226.582 -1.04412 1.34284 0
M  V30 2459 O 227.767 -1.0527 1.63192 0
M  V30 2460 C 224.897 -1.5197 3.12286 0
M  V30 2461 C 223.851 -1.00448 4.16046 0
M  V30 2462 C 223.177 -2.21393 4.86712 0
M  V30 2463 C 224.477 -0.0569336 5.22269 0
M  V30 2464 H 226.171 0.245529 2.98392 0
M  V30 2465 H 223.717 0.119525 1.43503 0
M  V30 2466 H 225.67 -2.09715 3.6551 0
M  V30 2467 H 224.394 -2.19716 2.41646 0
M  V30 2468 H 223.053 -0.449421 3.63835 0
M  V30 2469 H 222.701 -2.87699 4.12599 0
M  V30 2470 H 222.401 -1.87571 5.56858 0
M  V30 2471 H 223.925 -2.7974 5.4275 0
M  V30 2472 H 225.339 -0.54325 5.7072 0
M  V30 2473 H 223.736 0.192594 5.99791 0
M  V30 2474 H 224.806 0.887663 4.76706 0
M  V30 2475 N 226.149 -1.5696 0.141893 0
M  V30 2476 C 227.081 -2.13619 -0.830627 0
M  V30 2477 C 228.094 -1.08439 -1.21428 0
M  V30 2478 O 229.283 -1.35734 -1.15925 0
M  V30 2479 C 226.383 -2.63978 -2.12529 0
M  V30 2480 C 225.556 -3.93504 -1.9098 0
M  V30 2481 C 224.615 -4.29225 -3.04388 0
M  V30 2482 O 223.641 -4.97641 -2.76302 0
M  V30 2483 N 224.843 -3.88393 -4.31429 0
M  V30 2484 H 227.608 -2.97691 -0.34641 0
M  V30 2485 H 225.169 -1.61846 -0.0418375 0
M  V30 2486 H 227.161 -2.84891 -2.87436 0
M  V30 2487 H 225.731 -1.84659 -2.52229 0
M  V30 2488 H 224.951 -3.81269 -1.00139 0
M  V30 2489 H 226.239 -4.78154 -1.73914 0
M  V30 2490 H 225.637 -3.33257 -4.57117 0
M  V30 2491 H 224.194 -4.14368 -5.03133 0
M  V30 2492 N 227.627 0.131896 -1.57047 0
M  V30 2493 C 228.537 1.1815 -2.02676 0
M  V30 2494 C 229.553 1.46113 -0.944824 0
M  V30 2495 O 230.729 1.57485 -1.25541 0
M  V30 2496 C 227.794 2.49139 -2.41103 0
M  V30 2497 C 226.855 2.28688 -3.63318 0
M  V30 2498 C 226.088 3.53431 -3.99903 0
M  V30 2499 O 226.311 4.60223 -3.36973 0
M  V30 2500 O 225.245 3.45198 -4.93074 0
M  V30 2501 H 229.071 0.824069 -2.92306 0
M  V30 2502 H 226.656 0.341745 -1.45439 0
M  V30 2503 H 228.538 3.26338 -2.66611 0
M  V30 2504 H 227.213 2.84382 -1.54624 0
M  V30 2505 H 226.12 1.4939 -3.42977 0
M  V30 2506 H 227.453 1.98355 -4.50462 0
M  V30 2507 N 229.106 1.52395 0.401703 0
M  V30 2508 C 230.331 1.70972 1.17403 0
M  V30 2509 C 230.756 0.421615 1.83314 0
M  V30 2510 O 230.114 -0.621564 1.70312 0
M  V30 2511 C 230.162 2.85151 2.20728 0
M  V30 2512 O 229.266 2.51238 3.27037 0
M  V30 2513 H 228.607 0.568927 0.342372 0
M  V30 2514 H 231.137 1.99131 0.469891 0
M  V30 2515 H 231.147 3.10279 2.64936 0
M  V30 2516 H 229.822 3.78603 1.7214 0
M  V30 2517 H 228.399 2.36808 2.88057 0
M  V30 2518 N 230.584 -0.659388 1.43143 0
M  V30 2519 C 231.516 -1.7849 1.43784 0
M  V30 2520 C 232.529 -1.5932 0.334787 0
M  V30 2521 O 233.718 -1.68155 0.598842 0
M  V30 2522 C 230.818 -3.15828 1.22906 0
M  V30 2523 C 229.991 -3.61711 2.45934 0
M  V30 2524 C 229.05 -4.77831 2.20371 0
M  V30 2525 O 228.076 -4.87586 2.93681 0
M  V30 2526 N 229.278 -5.67611 1.21647 0
M  V30 2527 H 232.043 -1.7842 2.40803 0
M  V30 2528 H 229.604 -0.84302 1.3822 0
M  V30 2529 H 231.596 -3.91189 1.03697 0
M  V30 2530 H 230.166 -3.10707 0.343542 0
M  V30 2531 H 229.386 -2.76861 2.80609 0
M  V30 2532 H 230.674 -3.89112 3.27825 0
M  V30 2533 H 230.072 -5.62397 0.610449 0
M  V30 2534 H 228.629 -6.42719 1.08423 0
M  V30 2535 N 232.062 -1.29571 -0.897171 0
M  V30 2536 C 233.287 -1.20705 -1.68656 0
M  V30 2537 C 233.712 0.228582 -1.86706 0
M  V30 2538 O 233.07 1.16494 -1.3892 0
M  V30 2539 C 233.118 -1.9282 -3.04717 0
M  V30 2540 O 232.222 -1.24697 -3.93096 0
M  V30 2541 H 231.563 -0.418126 -0.515816 0
M  V30 2542 H 234.093 -1.71183 -1.12061 0
M  V30 2543 H 234.103 -2.01372 -3.54843 0
M  V30 2544 H 232.778 -2.97239 -2.90899 0
M  V30 2545 H 231.355 -1.2442 -3.51531 0
M  V30 2546 N 233.54 1.10788 -1.12088 0
M  V30 2547 C 234.956 1.34691 -0.856186 0
M  V30 2548 C 235.156 1.94791 0.515615 0
M  V30 2549 O 234.212 2.18524 1.26505 0
M  V30 2550 C 235.525 2.27208 -1.9697 0
M  V30 2551 C 237.073 2.40755 -2.00016 0
M  V30 2552 C 237.548 3.36598 -3.1059 0
M  V30 2553 N 239.039 3.44164 -3.10008 0
M  V30 2554 C 239.774 4.18284 -3.92206 0
M  V30 2555 N 239.27 4.95322 -4.84384 0
M  V30 2556 N 241.063 4.13865 -3.80357 0
M  V30 2557 H 233.214 0.70144 -2.00483 0
M  V30 2558 H 235.477 0.371405 -0.872217 0
M  V30 2559 H 235.183 1.90251 -2.958 0
M  V30 2560 H 235.057 3.27485 -1.87172 0
M  V30 2561 H 237.444 2.76982 -1.01808 0
M  V30 2562 H 237.525 1.40305 -2.13888 0
M  V30 2563 H 237.169 3.01096 -4.09028 0
M  V30 2564 H 237.099 4.36918 -2.93956 0
M  V30 2565 H 239.59 2.8922 -2.43228 0
M  V30 2566 H 239.903 5.49267 -5.43623 0
M  V30 2567 H 238.248 4.94459 -4.884 0
M  V30 2568 H 241.439 3.52773 -3.07683 0
M  V30 2569 H 241.612 4.71372 -4.44649 0
M  V30 2570 N 235.018 0.912232 1.28515 0
M  V30 2571 C 235.948 0.416403 2.29757 0
M  V30 2572 C 236.929 -0.515194 1.6211 0
M  V30 2573 O 238.114 -0.423253 1.89532 0
M  V30 2574 C 235.244 -0.34572 3.45575 0
M  V30 2575 C 234.198 0.496599 4.25109 0
M  V30 2576 C 233.524 -0.393771 5.33248 0
M  V30 2577 C 234.824 1.75307 4.92001 0
M  V30 2578 H 236.518 1.26249 2.7148 0
M  V30 2579 H 234.064 0.608515 1.30511 0
M  V30 2580 H 236.017 -0.703422 4.15488 0
M  V30 2581 H 234.741 -1.2257 3.02728 0
M  V30 2582 H 233.4 0.8368 3.56922 0
M  V30 2583 H 233.048 -1.27225 4.86644 0
M  V30 2584 H 232.748 0.166209 5.87365 0
M  V30 2585 H 234.272 -0.747389 6.06009 0
M  V30 2586 H 235.686 1.46437 5.54283 0
M  V30 2587 H 234.083 2.25534 5.56106 0
M  V30 2588 H 235.153 2.48176 4.16577 0
M  V30 2589 N 236.496 -1.42363 0.676048 0
M  V30 2590 C 237.406 -2.346 -0.00153389 0
M  V30 2591 C 238.422 -1.5516 -0.787485 0
M  V30 2592 O 239.598 -1.87723 -0.729521 0
M  V30 2593 C 236.663 -3.33705 -0.940298 0
M  V30 2594 C 235.724 -4.29042 -0.148739 0
M  V30 2595 C 234.957 -5.23413 -1.04279 0
M  V30 2596 O 235.18 -5.22749 -2.28232 0
M  V30 2597 O 234.114 -5.99795 -0.502925 0
M  V30 2598 H 237.94 -2.94082 0.758268 0
M  V30 2599 H 235.525 -1.42888 0.436289 0
M  V30 2600 H 237.407 -3.94586 -1.47917 0
M  V30 2601 H 236.082 -2.76695 -1.67993 0
M  V30 2602 H 234.989 -3.71571 0.43427 0
M  V30 2603 H 236.322 -4.89097 0.551805 0
M  V30 2604 N 237.974 -0.419461 -1.51915 0
M  V30 2605 C 238.937 0.389116 -2.25873 0
M  V30 2606 C 239.937 0.964924 -1.28631 0
M  V30 2607 O 241.127 0.842179 -1.52489 0
M  V30 2608 C 238.259 1.54874 -3.03689 0
M  V30 2609 H 239.452 -0.258799 -2.98781 0
M  V30 2610 H 237.005 -0.172209 -1.55348 0
M  V30 2611 H 237.74 2.23323 -2.35154 0
M  V30 2612 H 237.525 1.14223 -3.75094 0
M  V30 2613 H 239.015 2.12046 -3.59759 0
M  V30 2614 N 239.452 1.56882 -0.150215 0
M  V30 2615 C 240.415 2.1573 0.774157 0
M  V30 2616 C 241.415 1.0999 1.17298 0
M  V30 2617 O 242.605 1.35613 1.09338 0
M  V30 2618 C 239.737 2.72302 2.05096 0
M  V30 2619 H 240.93 2.98752 0.262201 0
M  V30 2620 H 238.483 1.55985 0.099248 0
M  V30 2621 H 239.218 1.92956 2.6065 0
M  V30 2622 H 239.003 3.49665 1.77416 0
M  V30 2623 H 240.493 3.17632 2.71109 0
M  V30 2624 N 240.93 -0.123565 1.57115 0
M  V30 2625 C 242.158 -0.846461 1.88793 0
M  V30 2626 C 242.573 -1.73652 0.740976 0
M  V30 2627 O 241.93 -1.80207 -0.288393 0
M  V30 2628 C 241.981 -1.6837 3.19897 0
M  V30 2629 O 241.702 -0.829477 4.30176 0
M  V30 2630 C 243.203 -2.51214 3.65248 0
M  V30 2631 H 240.423 -0.243573 0.625231 0
M  V30 2632 H 242.967 -0.109324 2.04208 0
M  V30 2633 H 241.122 -2.37364 3.06165 0
M  V30 2634 H 241.536 -1.40651 5.0529 0
M  V30 2635 H 243.01 -3.05497 4.59756 0
M  V30 2636 H 243.487 -3.28359 2.9168 0
M  V30 2637 H 244.093 -1.8747 3.81752 0
M  V30 2638 N 242.408 -1.52605 -0.393616 0
M  V30 2639 C 243.355 -1.77055 -1.48054 0
M  V30 2640 C 244.325 -0.61358 -1.54352 0
M  V30 2641 O 245.51 -0.852806 -1.70681 0
M  V30 2642 C 242.65 -1.94108 -2.85335 0
M  V30 2643 C 241.763 -3.21792 -2.88226 0
M  V30 2644 C 240.898 -3.29188 -4.16904 0
M  V30 2645 C 239.937 -4.51013 -4.13828 0
M  V30 2646 N 239.074 -4.55716 -5.34105 0
M  V30 2647 H 243.914 -2.69815 -1.26506 0
M  V30 2648 H 241.451 -1.33683 -0.61379 0
M  V30 2649 H 243.409 -2.01979 -3.65049 0
M  V30 2650 H 242.039 -1.04713 -3.05344 0
M  V30 2651 H 241.091 -3.23015 -2.00911 0
M  V30 2652 H 242.403 -4.11557 -2.8182 0
M  V30 2653 H 241.557 -3.36216 -5.05018 0
M  V30 2654 H 240.296 -2.37389 -4.26026 0
M  V30 2655 H 239.301 -4.44115 -3.24102 0
M  V30 2656 H 240.526 -5.44123 -4.06333 0
M  V30 2657 H 238.472 -3.66807 -5.43865 0
M  V30 2658 H 238.389 -5.39346 -5.29756 0
M  V30 2659 H 239.657 -4.66993 -6.2413 0
M  V30 2660 N 243.887 0.651787 -1.4349 0
M  V30 2661 C 244.797 1.79368 -1.5121 0
M  V30 2662 C 245.813 1.69361 -0.399093 0
M  V30 2663 O 246.989 1.90505 -0.653431 0
M  V30 2664 C 244.054 3.15653 -1.43401 0
M  V30 2665 C 243.115 3.37446 -2.65384 0
M  V30 2666 C 242.348 4.67229 -2.57939 0
M  V30 2667 O 242.571 5.46676 -1.62792 0
M  V30 2668 O 241.505 4.90773 -3.48462 0
M  V30 2669 H 245.331 1.7581 -2.47638 0
M  V30 2670 H 242.916 0.810447 -1.25507 0
M  V30 2671 H 244.798 3.96935 -1.41494 0
M  V30 2672 H 243.473 3.19798 -0.501085 0
M  V30 2673 H 242.38 2.55923 -2.72863 0
M  V30 2674 H 243.713 3.38148 -3.57654 0
M  V30 2675 N 245.365 1.30045 0.890287 0
M  V30 2676 C 246.605 1.19839 1.65584 0
M  V30 2677 C 246.969 -0.244175 1.90441 0
M  V30 2678 O 248.17 -0.469378 2.6467 0
M  V30 2679 C 246.441 1.99876 2.96284 0
M  V30 2680 S 248 2.06309 3.87275 0
M  V30 2681 H 244.818 0.427157 0.568382 0
M  V30 2682 H 247.42 1.64453 1.05715 0
M  V30 2683 H 246.124 3.03809 2.75913 0
M  V30 2684 H 245.655 1.55903 3.61189 0
M  V30 2685 H 247.67 1.18661 4.81803 0
M  V30 2686 N 246.843 -1.10192 1.12674 0
M  V30 2687 C 247.775 -2.16418 0.754701 0
M  V30 2688 C 248.788 -1.61309 -0.21986 0
M  V30 2689 O 249.977 -1.785 -0.000826841 0
M  V30 2690 C 247.077 -3.38762 0.096698 0
M  V30 2691 C 246.25 -4.23307 1.10136 0
M  V30 2692 C 245.309 -5.24092 0.470513 0
M  V30 2693 O 244.335 -5.57906 1.12824 0
M  V30 2694 N 245.537 -5.75491 -0.760948 0
M  V30 2695 H 248.302 -2.48943 1.66875 0
M  V30 2696 H 245.863 -1.25834 1.01869 0
M  V30 2697 H 247.855 -4.03291 -0.337384 0
M  V30 2698 H 246.425 -3.04192 -0.720153 0
M  V30 2699 H 245.645 -3.55036 1.71299 0
M  V30 2700 H 246.933 -4.76624 1.78064 0
M  V30 2701 H 246.331 -5.50222 -1.31424 0
M  V30 2702 H 244.888 -6.41792 -1.13781 0
M  V30 2703 N 248.321 -0.919034 -1.28029 0
M  V30 2704 C 249.284 -0.416182 -2.2539 0
M  V30 2705 C 250.284 0.460438 -1.54067 0
M  V30 2706 O 251.474 0.262744 -1.72207 0
M  V30 2707 C 248.606 0.402707 -3.38513 0
M  V30 2708 H 249.799 -1.27629 -2.71387 0
M  V30 2709 H 247.352 -0.698919 -1.39803 0
M  V30 2710 H 248.087 1.282 -2.97885 0
M  V30 2711 H 247.872 -0.225698 -3.9145 0
M  V30 2712 H 249.362 0.745191 -4.10897 0
M  V30 2713 N 249.799 1.42003 -0.683588 0
M  V30 2714 C 250.729 2.33487 -0.024866 0
M  V30 2715 C 251.71 1.51163 0.779975 0
M  V30 2716 O 252.895 1.79739 0.735362 0
M  V30 2717 C 250.025 3.3487 0.920836 0
M  V30 2718 C 248.979 4.27414 0.223958 0
M  V30 2719 C 248.305 5.19074 1.2832 0
M  V30 2720 C 249.605 5.14445 -0.90242 0
M  V30 2721 H 251.299 2.88819 -0.788921 0
M  V30 2722 H 248.845 1.38873 -0.38083 0
M  V30 2723 H 250.798 3.97787 1.39081 0
M  V30 2724 H 249.522 2.77861 1.71642 0
M  V30 2725 H 248.181 3.65904 -0.225864 0
M  V30 2726 H 247.829 4.58387 2.071 0
M  V30 2727 H 247.529 5.81822 0.821995 0
M  V30 2728 H 249.053 5.84867 1.75392 0
M  V30 2729 H 250.467 5.70998 -0.513272 0
M  V30 2730 H 248.864 5.86072 -1.28997 0
M  V30 2731 H 249.934 4.52322 -1.74737 0
M  V30 2732 N 251.277 0.427512 1.51691 0
M  V30 2733 C 252.187 -0.39527 2.31246 0
M  V30 2734 C 253.203 -1.03674 1.39742 0
M  V30 2735 O 254.379 -1.03425 1.72816 0
M  V30 2736 C 251.444 -1.48706 3.13189 0
M  V30 2737 C 250.505 -0.866743 4.20459 0
M  V30 2738 C 249.738 -1.90651 4.98486 0
M  V30 2739 O 249.961 -3.12733 4.77026 0
M  V30 2740 O 248.895 -1.5025 5.82845 0
M  V30 2741 H 252.721 0.253918 3.02637 0
M  V30 2742 H 250.306 0.190274 1.48183 0
M  V30 2743 H 252.188 -2.12047 3.64162 0
M  V30 2744 H 250.863 -2.12051 2.44573 0
M  V30 2745 H 249.77 -0.195544 3.73589 0
M  V30 2746 H 251.103 -0.276934 4.9142 0
M  V30 2747 N 252.755 -1.56801 0.158532 0
M  V30 2748 C 254.003 -1.96102 -0.488712 0
M  V30 2749 C 254.324 -1.04498 -1.64636 0
M  V30 2750 O 253.594 -0.108783 -1.95598 0
M  V30 2751 H 252.174 -0.724102 -0.183535 0
M  V30 2752 H 254.836 -1.93457 0.236728 0
M  V30 2753 H 253.932 -3.00097 -0.857219 0
M  V30 2754 N 254.233 0.115231 -1.57178 0
M  V30 2755 C 255.649 0.468877 -1.52557 0
M  V30 2756 C 255.849 1.81649 -0.872125 0
M  V30 2757 O 254.905 2.48347 -0.45606 0
M  V30 2758 C 256.218 0.4499 -2.97315 0
M  V30 2759 C 257.766 0.533185 -3.08425 0
M  V30 2760 C 258.241 0.54456 -4.54751 0
M  V30 2761 N 259.732 0.605892 -4.5922 0
M  V30 2762 C 260.467 0.636203 -5.6986 0
M  V30 2763 N 259.963 0.623931 -6.89985 0
M  V30 2764 N 261.756 0.679496 -5.57978 0
M  V30 2765 H 253.907 -0.767712 -1.9804 0
M  V30 2766 H 256.17 -0.283609 -0.904583 0
M  V30 2767 H 255.876 -0.472721 -3.48509 0
M  V30 2768 H 255.75 1.27632 -3.5495 0
M  V30 2769 H 258.137 1.44623 -2.57232 0
M  V30 2770 H 258.218 -0.320995 -2.53778 0
M  V30 2771 H 257.862 -0.364452 -5.06591 0
M  V30 2772 H 257.792 1.41568 -5.07214 0
M  V30 2773 H 260.283 0.621386 -3.72756 0
M  V30 2774 H 260.596 0.649787 -7.70063 0
M  V30 2775 H 258.941 0.591296 -6.9248 0
M  V30 2776 H 262.132 0.686472 -4.63039 0
M  V30 2777 H 262.305 0.69965 -6.44212 0
M  V30 2778 N 255.711 1.52812 0.385517 0
M  V30 2779 C 256.674 1.77188 1.45386 0
M  V30 2780 C 257.674 0.641953 1.4743 0
M  V30 2781 O 258.864 0.910033 1.4854 0
M  V30 2782 C 255.996 1.87582 2.8465 0
M  V30 2783 H 257.189 2.72583 1.25054 0
M  V30 2784 H 254.742 1.43586 0.617467 0
M  V30 2785 H 255.477 0.941849 3.10322 0
M  V30 2786 H 255.262 2.69748 2.84567 0
M  V30 2787 H 256.752 2.08102 3.62054 0
M  V30 2788 N 257.189 -0.644168 1.43834 0
M  V30 2789 C 258.605 -0.960875 1.27434 0
M  V30 2790 C 258.805 -2.00499 0.200618 0
M  V30 2791 O 257.861 -2.49018 -0.417906 0
M  V30 2792 C 259.174 -1.43653 2.64167 0
M  V30 2793 C 260.722 -1.55271 2.71772 0
M  V30 2794 C 261.197 -2.06224 4.08944 0
M  V30 2795 N 262.688 -2.13513 4.11055 0
M  V30 2796 C 263.423 -2.54081 5.14033 0
M  V30 2797 N 262.919 -2.9388 6.27381 0
M  V30 2798 N 264.712 -2.54101 5.01387 0
M  V30 2799 H 256.863 0.0465779 2.12349 0
M  V30 2800 H 259.126 -0.0417638 0.94708 0
M  V30 2801 H 258.832 -0.743706 3.43747 0
M  V30 2802 H 258.706 -2.40993 2.90176 0
M  V30 2803 H 261.093 -2.23653 1.92519 0
M  V30 2804 H 261.174 -0.563395 2.49519 0
M  V30 2805 H 260.818 -1.38441 4.88668 0
M  V30 2806 H 260.748 -3.06003 4.28567 0
M  V30 2807 H 263.239 -1.85493 3.29242 0
M  V30 2808 H 263.552 -3.2361 7.01781 0
M  V30 2809 H 261.897 -2.91663 6.30839 0
M  V30 2810 H 265.088 -2.22391 4.11898 0
M  V30 2811 H 265.261 -2.85394 5.81768 0
M  V30 2812 N 258.668 -1.30515 -0.883378 0
M  V30 2813 C 259.631 -1.1701 -1.97082 0
M  V30 2814 C 260.631 -0.10089 -1.60483 0
M  V30 2815 O 261.821 -0.349127 -1.70666 0
M  V30 2816 C 258.953 -0.793045 -3.31547 0
M  V30 2817 H 260.146 -2.13622 -2.10489 0
M  V30 2818 H 257.699 -1.13935 -1.06998 0
M  V30 2819 H 258.434 0.172499 -3.23841 0
M  V30 2820 H 258.219 -1.56576 -3.5948 0
M  V30 2821 H 259.709 -0.722073 -4.1131 0
M  V30 2822 N 260.146 1.09593 -1.13257 0
M  V30 2823 C 261.109 2.14359 -0.811358 0
M  V30 2824 C 262.109 1.59808 0.178377 0
M  V30 2825 O 263.299 1.74132 -0.0484911 0
M  V30 2826 C 260.431 3.40269 -0.207276 0
M  V30 2827 H 261.624 2.44284 -1.73969 0
M  V30 2828 H 259.177 1.25102 -0.936973 0
M  V30 2829 H 259.912 3.15969 0.73036 0
M  V30 2830 H 259.697 3.81154 -0.919992 0
M  V30 2831 H 261.187 4.176 0.000667944 0
M  V30 2832 N 261.624 0.925811 1.2754 0
M  V30 2833 C 262.849 0.580924 1.99098 0
M  V30 2834 C 263.274 -0.833555 1.68622 0
M  V30 2835 O 262.632 -1.55903 0.925422 0
M  V30 2836 C 262.68 0.811186 3.51358 0
M  V30 2837 O 261.784 -0.124129 4.12213 0
M  V30 2838 H 261.125 0.223873 0.625122 0
M  V30 2839 H 263.655 1.24455 1.62395 0
M  V30 2840 H 263.665 0.72601 4.01489 0
M  V30 2841 H 262.34 1.84227 3.72872 0
M  V30 2842 H 260.917 0.0108006 3.72898 0
M  V30 2843 N 263.102 -1.41638 0.69111 0
M  V30 2844 C 264.012 -2.34588 0.0233487 0
M  V30 2845 C 265.028 -1.55987 -0.770984 0
M  V30 2846 O 266.204 -1.88486 -0.709569 0
M  V30 2847 C 263.269 -3.34684 -0.904851 0
M  V30 2848 C 262.33 -4.29176 -0.103225 0
M  V30 2849 C 261.563 -5.2449 -0.987216 0
M  V30 2850 O 261.786 -5.2514 -2.22674 0
M  V30 2851 O 260.72 -6.00295 -0.439281 0
M  V30 2852 H 264.546 -2.93261 0.789416 0
M  V30 2853 H 262.131 -1.42417 0.45142 0
M  V30 2854 H 264.013 -3.96133 -1.43724 0
M  V30 2855 H 262.688 -2.78461 -1.65049 0
M  V30 2856 H 261.595 -3.71089 0.473655 0
M  V30 2857 H 262.928 -4.88484 0.60365 0
M  V30 2858 N 264.58 -0.43555 -1.51462 0
M  V30 2859 C 265.512 0.41257 -2.25456 0
M  V30 2860 C 266.525 0.987822 -1.29406 0
M  V30 2861 O 267.714 0.882266 -1.55172 0
M  V30 2862 C 264.814 1.58894 -2.99342 0
M  V30 2863 C 263.987 1.13288 -4.22474 0
M  V30 2864 C 263.046 2.17917 -4.78956 0
M  V30 2865 O 262.072 1.77425 -5.40841 0
M  V30 2866 N 263.274 3.50382 -4.62832 0
M  V30 2867 H 266.039 -0.221603 -2.9888 0
M  V30 2868 H 263.6 -0.264342 -1.59727 0
M  V30 2869 H 265.592 2.28508 -3.34015 0
M  V30 2870 H 264.162 2.12849 -2.28941 0
M  V30 2871 H 263.382 0.263881 -3.93316 0
M  V30 2872 H 264.67 0.805542 -5.02383 0
M  V30 2873 H 264.068 3.86013 -4.13534 0
M  V30 2874 H 262.625 4.15895 -5.01871 0
M  V30 2875 N 266.058 1.56714 -0.166846 0
M  V30 2876 C 267.021 2.16539 0.751232 0
M  V30 2877 C 268.021 1.11228 1.16125 0
M  V30 2878 O 269.211 1.36765 1.07894 0
M  V30 2879 C 266.343 2.74462 2.02196 0
M  V30 2880 H 267.536 2.99013 0.230499 0
M  V30 2881 H 265.089 1.56081 0.0826982 0
M  V30 2882 H 265.824 1.95709 2.58589 0
M  V30 2883 H 265.609 3.51527 1.73698 0
M  V30 2884 H 267.099 3.20489 2.67725 0
M  V30 2885 N 267.536 -0.106894 1.57237 0
M  V30 2886 C 268.952 -0.46078 1.52804 0
M  V30 2887 C 269.152 -1.81184 0.881746 0
M  V30 2888 O 268.208 -2.48102 0.469224 0
M  V30 2889 C 269.521 -0.434127 2.9755 0
M  V30 2890 C 271.069 -0.516821 3.08704 0
M  V30 2891 C 271.544 -0.520436 4.55033 0
M  V30 2892 N 273.035 -0.58153 4.59535 0
M  V30 2893 C 273.77 -0.605973 5.70189 0
M  V30 2894 N 273.266 -0.587331 6.90306 0
M  V30 2895 N 275.059 -0.649895 5.5833 0
M  V30 2896 H 267.21 0.778203 1.9763 0
M  V30 2897 H 269.473 0.288403 0.903066 0
M  V30 2898 H 269.179 0.491197 3.48253 0
M  V30 2899 H 269.053 -1.25748 3.55622 0
M  V30 2900 H 271.44 -1.43256 2.57995 0
M  V30 2901 H 271.521 0.334449 2.53604 0
M  V30 2902 H 271.165 0.391313 5.0639 0
M  V30 2903 H 271.095 -1.38876 5.07958 0
M  V30 2904 H 273.586 -0.60161 3.73081 0
M  V30 2905 H 273.899 -0.60894 7.70397 0
M  V30 2906 H 272.244 -0.554564 6.92784 0
M  V30 2907 H 275.435 -0.661907 4.63397 0
M  V30 2908 H 275.608 -0.665476 6.44574 0
M  V30 2909 N 269.014 -1.53014 -0.377408 0
M  V30 2910 C 269.946 -1.74884 -1.48149 0
M  V30 2911 C 270.959 -0.629433 -1.5014 0
M  V30 2912 O 272.148 -0.905416 -1.53833 0
M  V30 2913 C 269.248 -1.80299 -2.86959 0
M  V30 2914 C 268.421 -3.09776 -3.08801 0
M  V30 2915 C 267.48 -3.06586 -4.27658 0
M  V30 2916 O 266.506 -3.80419 -4.23403 0
M  V30 2917 N 267.708 -2.26578 -5.34455 0
M  V30 2918 H 270.473 -2.70147 -1.29771 0
M  V30 2919 H 268.034 -1.51646 -0.56703 0
M  V30 2920 H 270.026 -1.75657 -3.64591 0
M  V30 2921 H 268.596 -0.92372 -2.98641 0
M  V30 2922 H 267.816 -3.27815 -2.18931 0
M  V30 2923 H 269.104 -3.95366 -3.20255 0
M  V30 2924 H 268.502 -1.66081 -5.40771 0
M  V30 2925 H 267.059 -2.27766 -6.10709 0
M  V30 2926 N 270.492 0.636531 -1.44174 0
M  V30 2927 C 271.422 1.76003 -1.53444 0
M  V30 2928 C 272.403 1.65619 -0.387841 0
M  V30 2929 O 273.588 1.84461 -0.607257 0
M  V30 2930 C 270.718 3.14511 -1.4731 0
M  V30 2931 C 269.672 3.39677 -2.60391 0
M  V30 2932 C 268.998 4.78159 -2.39308 0
M  V30 2933 C 270.298 3.32772 -4.02567 0
M  V30 2934 H 271.992 1.68501 -2.47483 0
M  V30 2935 H 269.538 0.809237 -1.19111 0
M  V30 2936 H 271.491 3.92878 -1.52397 0
M  V30 2937 H 270.215 3.22783 -0.49785 0
M  V30 2938 H 268.874 2.63688 -2.54684 0
M  V30 2939 H 268.522 4.83128 -1.39988 0
M  V30 2940 H 268.222 4.95956 -3.15122 0
M  V30 2941 H 269.746 5.58762 -2.46205 0
M  V30 2942 H 271.16 4.01051 -4.09672 0
M  V30 2943 H 269.557 3.62104 -4.7854 0
M  V30 2944 H 270.627 2.30669 -4.2652 0
M  V30 2945 N 271.97 1.30982 0.876444 0
M  V30 2946 C 272.88 1.2003 2.01569 0
M  V30 2947 C 273.896 0.11838 1.73597 0
M  V30 2948 O 275.072 0.33495 1.98595 0
M  V30 2949 C 272.137 0.901637 3.34771 0
M  V30 2950 C 271.198 2.06979 3.76109 0
M  V30 2951 C 270.431 1.78529 5.02954 0
M  V30 2952 O 270.654 0.717296 5.65872 0
M  V30 2953 O 269.588 2.64019 5.40905 0
M  V30 2954 H 273.414 2.15753 2.13739 0
M  V30 2955 H 270.999 1.10658 1.00375 0
M  V30 2956 H 272.881 0.750645 4.1466 0
M  V30 2957 H 271.556 -0.0256141 3.2369 0
M  V30 2958 H 270.463 2.27616 2.96887 0
M  V30 2959 H 271.796 2.97907 3.91807 0
M  V30 2960 N 273.449 -1.08991 1.13837 0
M  V30 2961 C 274.674 -1.85551 0.926585 0
M  V30 2962 C 275.099 -1.80782 -0.519566 0
M  V30 2963 O 274.457 -1.18855 -1.36906 0
M  V30 2964 C 274.505 -3.31266 1.42462 0
M  V30 2965 O 273.609 -4.07822 0.612789 0
M  V30 2966 H 272.95 -0.575192 0.331738 0
M  V30 2967 H 275.48 -1.37604 1.51414 0
M  V30 2968 H 275.49 -3.82112 1.43019 0
M  V30 2969 H 274.165 -3.34052 2.47754 0
M  V30 2970 H 272.742 -3.66731 0.675463 0
M  V30 2971 N 274.927 -0.932562 -1.27047 0
M  V30 2972 C 275.837 -0.441219 -2.30414 0
M  V30 2973 C 276.853 0.480525 -1.67233 0
M  V30 2974 O 278.029 0.362151 -1.98117 0
M  V30 2975 C 275.094 0.293651 -3.45454 0
M  V30 2976 C 274.155 -0.663601 -4.2414 0
M  V30 2977 C 273.388 0.0362932 -5.33688 0
M  V30 2978 O 273.611 1.2548 -5.56427 0
M  V30 2979 O 272.545 -0.638015 -5.98509 0
M  V30 2980 H 276.371 -1.29962 -2.74488 0
M  V30 2981 H 273.956 -0.6981 -1.32087 0
M  V30 2982 H 275.838 0.707951 -4.15411 0
M  V30 2983 H 274.513 1.12758 -3.03426 0
M  V30 2984 H 273.42 -1.12768 -3.56699 0
M  V30 2985 H 274.753 -1.46489 -4.69896 0
M  V30 2986 N 276.405 1.4127 -0.698611 0
M  V30 2987 C 277.821 1.55241 -0.370462 0
M  V30 2988 C 278.021 1.67351 1.12231 0
M  V30 2989 O 277.077 1.65363 1.90818 0
M  V30 2990 C 278.39 2.78997 -1.12165 0
M  V30 2991 C 279.938 2.92797 -1.1063 0
M  V30 2992 C 280.413 4.19445 -1.8393 0
M  V30 2993 N 281.904 4.26409 -1.80914 0
M  V30 2994 C 282.639 5.23271 -2.34467 0
M  V30 2995 N 282.135 6.26145 -2.96504 0
M  V30 2996 N 283.928 5.15232 -2.24706 0
M  V30 2997 H 276.079 1.31654 -1.66676 0
M  V30 2998 H 278.342 0.635393 -0.703548 0
M  V30 2999 H 278.048 2.76268 -2.17644 0
M  V30 3000 H 277.922 3.70606 -0.702209 0
M  V30 3001 H 280.309 2.95039 -0.0597713 0
M  V30 3002 H 280.39 2.02353 -1.56483 0
M  V30 3003 H 280.034 4.17964 -2.88563 0
M  V30 3004 H 279.964 5.08866 -1.35509 0
M  V30 3005 H 282.455 3.527 -1.35687 0
M  V30 3006 H 282.768 6.96451 -3.34927 0
M  V30 3007 H 281.113 6.26638 -3.00583 0
M  V30 3008 H 284.304 4.33789 -1.7591 0
M  V30 3009 H 284.477 5.90552 -2.66745 0
M  V30 3010 N 277.883 0.443576 1.51229 0
M  V30 3011 C 278.793 -0.370721 2.31652 0
M  V30 3012 C 279.809 -1.02186 1.40833 0
M  V30 3013 O 280.985 -1.01586 1.73903 0
M  V30 3014 C 278.05 -1.45376 3.14749 0
M  V30 3015 C 277.111 -0.822099 4.21355 0
M  V30 3016 C 276.344 -1.85353 5.0048 0
M  V30 3017 O 276.567 -3.07656 4.80316 0
M  V30 3018 O 275.501 -1.4406 5.84406 0
M  V30 3019 H 279.327 0.286002 3.0235 0
M  V30 3020 H 276.912 0.20598 1.47973 0
M  V30 3021 H 278.794 -2.08173 3.66391 0
M  V30 3022 H 277.469 -2.09445 2.46809 0
M  V30 3023 H 276.376 -0.155909 3.73775 0
M  V30 3024 H 277.709 -0.224797 4.91686 0
M  V30 3025 N 279.361 -1.56624 0.175154 0
M  V30 3026 C 280.324 -2.16934 -0.739738 0
M  V30 3027 C 281.324 -1.11842 -1.15533 0
M  V30 3028 O 282.514 -1.37335 -1.07167 0
M  V30 3029 C 279.646 -2.75531 -2.00738 0
M  V30 3030 H 280.839 -2.99131 -0.214639 0
M  V30 3031 H 278.392 -1.56123 -0.0744197 0
M  V30 3032 H 279.127 -1.97078 -2.57548 0
M  V30 3033 H 278.912 -3.52444 -1.71831 0
M  V30 3034 H 280.402 -3.21904 -2.66021 0
M  V30 3035 N 280.839 0.0985539 -1.57292 0
M  V30 3036 C 281.769 1.12064 -2.04851 0
M  V30 3037 C 282.75 1.41981 -0.936767 0
M  V30 3038 O 283.935 1.52071 -1.20781 0
M  V30 3039 C 281.065 2.44144 -2.47004 0
M  V30 3040 C 280.019 2.28643 -3.6181 0
M  V30 3041 C 279.345 3.65869 -3.89929 0
M  V30 3042 C 280.645 1.72986 -4.92822 0
M  V30 3043 H 282.339 0.724979 -2.9049 0
M  V30 3044 H 279.885 0.34729 -1.39749 0
M  V30 3045 H 281.838 3.15914 -2.78884 0
M  V30 3046 H 280.562 2.85639 -1.5836 0
M  V30 3047 H 279.221 1.59318 -3.30172 0
M  V30 3048 H 278.869 4.04885 -2.98458 0
M  V30 3049 H 278.569 3.56344 -4.67218 0
M  V30 3050 H 280.093 4.39112 -4.2428 0
M  V30 3051 H 281.507 2.34593 -5.23105 0
M  V30 3052 H 279.904 1.74229 -5.74251 0
M  V30 3053 H 280.974 0.689007 -4.7998 0
M  V30 3054 N 282.317 1.53212 0.369288 0
M  V30 3055 C 283.249 1.75668 1.47219 0
M  V30 3056 C 284.262 0.637387 1.49804 0
M  V30 3057 O 285.451 0.913561 1.5335 0
M  V30 3058 C 282.551 1.81818 2.85999 0
M  V30 3059 C 281.724 3.11409 3.07153 0
M  V30 3060 C 280.783 3.08849 4.26026 0
M  V30 3061 O 279.809 3.82659 4.2138 0
M  V30 3062 N 281.011 2.29409 5.33246 0
M  V30 3063 H 283.776 2.70832 1.28337 0
M  V30 3064 H 281.337 1.51944 0.55898 0
M  V30 3065 H 283.329 1.77588 3.63655 0
M  V30 3066 H 281.899 0.939544 2.98146 0
M  V30 3067 H 281.119 3.28971 2.1719 0
M  V30 3068 H 282.407 3.97059 3.18154 0
M  V30 3069 H 281.805 1.68946 5.39883 0
M  V30 3070 H 280.362 2.31001 6.09493 0
M  V30 3071 N 283.795 -0.628877 1.44509 0
M  V30 3072 C 284.727 -1.754 1.47538 0
M  V30 3073 C 285.74 -1.58575 0.368506 0
M  V30 3074 O 286.929 -1.66847 0.634376 0
M  V30 3075 C 284.029 -3.1315 1.29577 0
M  V30 3076 C 283.202 -3.56413 2.53551 0
M  V30 3077 C 282.261 -4.7305 2.30457 0
M  V30 3078 O 281.287 -4.81247 3.03957 0
M  V30 3079 N 282.489 -5.64903 1.3366 0
M  V30 3080 H 285.254 -1.73272 2.44534 0
M  V30 3081 H 282.815 -0.813512 1.39977 0
M  V30 3082 H 284.807 -3.88902 1.11971 0
M  V30 3083 H 283.377 -3.09908 0.409371 0
M  V30 3084 H 282.597 -2.70847 2.86419 0
M  V30 3085 H 283.885 -3.82071 3.36005 0
M  V30 3086 H 283.283 -5.60975 0.729604 0
M  V30 3087 H 281.84 -6.40275 1.22032 0
M  V30 3088 N 285.273 -1.31445 -0.869486 0
M  V30 3089 C 286.205 -1.14955 -1.98287 0
M  V30 3090 C 287.218 -0.0885037 -1.62559 0
M  V30 3091 O 288.407 -0.336044 -1.75308 0
M  V30 3092 C 285.507 -0.734255 -3.3085 0
M  V30 3093 C 284.68 -1.88042 -3.94917 0
M  V30 3094 C 283.739 -1.4511 -5.05796 0
M  V30 3095 O 282.765 -2.16082 -5.2659 0
M  V30 3096 N 283.967 -0.338763 -5.79511 0
M  V30 3097 H 286.732 -2.10856 -2.12979 0
M  V30 3098 H 284.293 -1.23786 -1.04349 0
M  V30 3099 H 286.285 -0.42975 -4.02412 0
M  V30 3100 H 284.855 0.133158 -3.12316 0
M  V30 3101 H 284.075 -2.35222 -3.1633 0
M  V30 3102 H 285.363 -2.6481 -4.34457 0
M  V30 3103 H 284.761 0.252274 -5.65137 0
M  V30 3104 H 283.318 -0.0937925 -6.51733 0
M  V30 3105 N 286.751 1.08385 -1.14413 0
M  V30 3106 C 287.701 2.13509 -0.79987 0
M  V30 3107 C 288.685 1.5951 0.211059 0
M  V30 3108 O 289.877 1.76995 0.0133694 0
M  V30 3109 C 287.006 3.42162 -0.279297 0
M  V30 3110 C 286.092 4.03042 -1.31976 0
M  V30 3111 N 286.483 4.38327 -2.52395 0
M  V30 3112 C 284.781 4.30379 -1.17004 0
M  V30 3113 C 285.482 4.86428 -3.19003 0
M  V30 3114 N 284.458 4.84547 -2.46405 0
M  V30 3115 H 288.26 2.38609 -1.7159 0
M  V30 3116 H 285.774 1.2572 -1.02802 0
M  V30 3117 H 287.771 4.16898 -0.0143688 0
M  V30 3118 H 286.431 3.18511 0.630923 0
M  V30 3119 H 287.442 4.29349 -2.89621 0
M  V30 3120 H 284.119 4.16281 -0.318854 0
M  V30 3121 H 285.509 5.23107 -4.21674 0
M  V30 3122 N 288.23 0.939286 1.26551 0
M  V30 3123 C 289.455 0.602008 1.98471 0
M  V30 3124 C 289.88 -0.815624 1.69497 0
M  V30 3125 O 289.238 -1.54912 0.941905 0
M  V30 3126 C 289.286 0.848407 3.50477 0
M  V30 3127 O 288.39 -0.0804009 4.12322 0
M  V30 3128 H 287.731 0.23049 0.622712 0
M  V30 3129 H 290.261 1.2617 1.61066 0
M  V30 3130 H 290.271 0.768553 4.00696 0
M  V30 3131 H 288.946 1.88171 3.70897 0
M  V30 3132 H 287.523 0.0503508 3.72866 0
M  V30 3133 N 289.708 -1.40897 0.706093 0
M  V30 3134 C 290.954 -2.01352 0.241889 0
M  V30 3135 C 291.287 -1.55832 -1.15888 0
M  V30 3136 O 290.562 -0.774145 -1.7843 0
M  V30 3137 C 290.845 -3.58752 0.311311 0
M  V30 3138 C 290.698 -4.1437 1.74978 0
M  V30 3139 C 292.017 -4.38914 -0.322922 0
M  V30 3140 H 289.136 -0.731562 0.0893687 0
M  V30 3141 H 291.778 -1.67504 0.896802 0
M  V30 3142 H 289.928 -3.87718 -0.246302 0
M  V30 3143 H 291.6 -3.96239 2.36205 0
M  V30 3144 H 289.843 -3.69016 2.28057 0
M  V30 3145 H 290.514 -5.23532 1.74981 0
M  V30 3146 H 292.99 -4.15822 0.152089 0
M  V30 3147 H 291.866 -5.48358 -0.243855 0
M  V30 3148 H 292.127 -4.19176 -1.40513 0
M  V30 3149 N 291.186 -0.45159 -1.50991 0
M  V30 3150 C 292.118 0.388634 -2.25881 0
M  V30 3151 C 293.131 0.974041 -1.30446 0
M  V30 3152 O 294.32 0.865758 -1.56099 0
M  V30 3153 C 291.42 1.5571 -3.01011 0
M  V30 3154 C 290.593 1.08801 -4.23652 0
M  V30 3155 C 289.652 2.12825 -4.8124 0
M  V30 3156 O 288.678 1.71678 -5.42693 0
M  V30 3157 N 289.88 3.45453 -4.66522 0
M  V30 3158 H 292.645 -0.25329 -2.98628 0
M  V30 3159 H 290.206 -0.281268 -1.59438 0
M  V30 3160 H 292.198 2.24952 -3.3642 0
M  V30 3161 H 290.768 2.10409 -2.31186 0
M  V30 3162 H 289.988 0.22215 -3.93574 0
M  V30 3163 H 291.276 0.752213 -5.03209 0
M  V30 3164 H 290.674 3.81605 -4.17605 0
M  V30 3165 H 289.231 4.10549 -5.06254 0
M  V30 3166 N 292.664 1.56529 -0.183458 0
M  V30 3167 C 293.91 1.97537 0.459036 0
M  V30 3168 C 294.243 1.06989 1.62071 0
M  V30 3169 O 293.518 0.11948 1.94133 0
M  V30 3170 C 293.801 3.47874 0.930368 0
M  V30 3171 C 293.654 4.492 -0.232317 0
M  V30 3172 C 294.973 4.01612 1.79989 0
M  V30 3173 H 292.092 0.718204 0.165383 0
M  V30 3174 H 294.734 1.88042 -0.272038 0
M  V30 3175 H 292.884 3.56095 1.55333 0
M  V30 3176 H 294.556 4.53027 -0.86972 0
M  V30 3177 H 292.799 4.24657 -0.885928 0
M  V30 3178 H 293.47 5.51823 0.139796 0
M  V30 3179 H 295.946 3.96097 1.27461 0
M  V30 3180 H 294.822 5.07195 2.09867 0
M  V30 3181 H 295.083 3.46163 2.74998 0
M  V30 3182 N 294.142 -0.090211 1.57342 0
M  V30 3183 C 295.419 -0.824761 1.77361 0
M  V30 3184 C 295.799 -1.96698 0.76637 0
M  V30 3185 O 295.147 -2.27586 -0.204179 0
M  V30 3186 C 295.357 -1.31481 3.23286 0
M  V30 3187 C 296.705 -1.75563 3.86604 0
M  V30 3188 O 297.729 -1.41093 3.27065 0
M  V30 3189 O 296.588 -2.39317 4.91314 0
M  V30 3190 H 293.682 -0.393776 0.727234 0
M  V30 3191 H 296.228 -0.0717138 1.69548 0
M  V30 3192 H 295 -0.496671 3.88135 0
M  V30 3193 H 294.623 -2.12973 3.35751 0
M  V30 3194 N 295.62 -1.53406 -0.361157 0
M  V30 3195 C 296.552 -1.76446 -1.46286 0
M  V30 3196 C 297.565 -0.645322 -1.49464 0
M  V30 3197 O 298.754 -0.921681 -1.52864 0
M  V30 3198 C 295.854 -1.83332 -2.85031 0
M  V30 3199 C 295.027 -3.13033 -3.05498 0
M  V30 3200 C 294.086 -3.11104 -4.24383 0
M  V30 3201 O 293.112 -3.84888 -4.19344 0
M  V30 3202 N 294.314 -2.32234 -5.32022 0
M  V30 3203 H 297.079 -2.71508 -1.26899 0
M  V30 3204 H 294.64 -1.52238 -0.550915 0
M  V30 3205 H 296.632 -1.79514 -3.62708 0
M  V30 3206 H 295.202 -0.955342 -2.97644 0
M  V30 3207 H 294.422 -3.30119 -2.15442 0
M  V30 3208 H 295.71 -3.9874 -3.16044 0
M  V30 3209 H 295.108 -1.71807 -5.38979 0
M  V30 3210 H 293.665 -2.3423 -6.08259 0
M  V30 3211 N 297.098 0.621204 -1.44841 0
M  V30 3212 C 298.028 1.74366 -1.55303 0
M  V30 3213 C 299.009 1.65199 -0.405385 0
M  V30 3214 O 300.194 1.83807 -0.626787 0
M  V30 3215 C 297.324 3.12931 -1.50637 0
M  V30 3216 C 296.278 3.36896 -2.63979 0
M  V30 3217 C 295.604 4.75594 -2.44366 0
M  V30 3218 C 296.904 3.28483 -4.06074 0
M  V30 3219 H 298.598 1.65867 -2.49256 0
M  V30 3220 H 296.144 0.796558 -1.19962 0
M  V30 3221 H 298.097 3.9124 -1.56555 0
M  V30 3222 H 296.821 3.22237 -0.532057 0
M  V30 3223 H 295.48 2.60972 -2.57467 0
M  V30 3224 H 295.128 4.81616 -1.45105 0
M  V30 3225 H 294.828 4.92586 -3.20364 0
M  V30 3226 H 296.352 5.5612 -2.52117 0
M  V30 3227 H 297.766 3.96684 -4.13902 0
M  V30 3228 H 296.163 3.57008 -4.82354 0
M  V30 3229 H 297.233 2.26133 -4.28943 0
M  V30 3230 N 298.576 1.31904 0.862503 0
M  V30 3231 C 299.992 1.10724 1.14945 0
M  V30 3232 C 300.192 -0.117421 2.01158 0
M  V30 3233 O 299.248 -0.804595 2.39338 0
M  V30 3234 C 300.561 2.38267 1.83437 0
M  V30 3235 C 302.109 2.43949 1.96106 0
M  V30 3236 C 302.584 3.71394 2.68013 0
M  V30 3237 N 304.075 3.72331 2.75543 0
M  V30 3238 C 304.81 4.67641 3.31812 0
M  V30 3239 N 304.306 5.73313 3.88953 0
M  V30 3240 N 306.099 4.5515 3.29841 0
M  V30 3241 H 298.25 2.10436 0.288191 0
M  V30 3242 H 300.513 0.928705 0.190292 0
M  V30 3243 H 300.219 3.27759 1.27542 0
M  V30 3244 H 300.093 2.48633 2.83657 0
M  V30 3245 H 302.48 1.54922 2.51164 0
M  V30 3246 H 302.561 2.37543 0.949059 0
M  V30 3247 H 302.205 4.60791 2.13621 0
M  V30 3248 H 302.135 3.75069 3.69636 0
M  V30 3249 H 304.626 2.95947 2.34997 0
M  V30 3250 H 304.939 6.42107 4.30022 0
M  V30 3251 H 303.284 5.77077 3.87308 0
M  V30 3252 H 306.475 3.71766 2.84443 0
M  V30 3253 H 306.648 5.29604 3.73394 0
M  V30 3254 N 300.054 -1.07777 1.14986 0
M  V30 3255 C 300.987 -2.14228 0.786243 0
M  V30 3256 C 301.965 -1.60888 -0.235347 0
M  V30 3257 O 303.149 -1.88099 -0.122909 0
M  V30 3258 C 300.276 -3.38281 0.168433 0
M  V30 3259 C 299.322 -4.10387 1.16123 0
M  V30 3260 S 300.155 -4.62371 2.70135 0
M  V30 3261 C 301.311 -5.89704 2.09762 0
M  V30 3262 H 301.544 -2.44741 1.68787 0
M  V30 3263 H 299.077 -1.19984 0.971756 0
M  V30 3264 H 301.035 -4.10098 -0.181588 0
M  V30 3265 H 299.696 -3.05953 -0.710725 0
M  V30 3266 H 298.889 -4.99431 0.677086 0
M  V30 3267 H 298.491 -3.44513 1.45556 0
M  V30 3268 H 300.783 -6.61648 1.45701 0
M  V30 3269 H 301.726 -6.42824 2.96955 0
M  V30 3270 H 302.134 -5.4302 1.54239 0
M  V30 3271 N 301.532 -0.945985 -1.26051 0
M  V30 3272 C 302.464 -0.416662 -2.25381 0
M  V30 3273 C 303.477 0.462712 -1.56086 0
M  V30 3274 O 304.666 0.272383 -1.7641 0
M  V30 3275 C 301.766 0.419812 -3.3629 0
M  V30 3276 C 300.939 -0.444531 -4.35135 0
M  V30 3277 C 299.998 0.332305 -5.2515 0
M  V30 3278 O 299.024 -0.266324 -5.68577 0
M  V30 3279 N 300.226 1.62763 -5.57215 0
M  V30 3280 H 302.991 -1.27059 -2.71433 0
M  V30 3281 H 300.552 -0.815392 -1.39868 0
M  V30 3282 H 302.544 0.947013 -3.93464 0
M  V30 3283 H 301.114 1.17456 -2.89694 0
M  V30 3284 H 300.334 -1.15291 -3.76964 0
M  V30 3285 H 301.622 -1.03478 -4.98166 0
M  V30 3286 H 301.02 2.13603 -5.23823 0
M  V30 3287 H 299.577 2.10097 -6.17011 0
M  V30 3288 N 303.011 1.40521 -0.713556 0
M  V30 3289 C 304.259 2.00527 -0.251692 0
M  V30 3290 C 304.58 1.56857 1.15848 0
M  V30 3291 O 303.85 0.807127 1.785 0
M  V30 3292 H 302.43 0.741551 -0.0900646 0
M  V30 3293 H 305.092 1.71887 -0.918733 0
M  V30 3294 H 304.188 3.10813 -0.283192 0
M  V30 3295 N 304.489 0.459591 1.5075 0
M  V30 3296 C 305.421 -0.37665 2.26084 0
M  V30 3297 C 306.434 -0.967109 1.30961 0
M  V30 3298 O 307.623 -0.857468 1.56556 0
M  V30 3299 C 304.723 -1.54112 3.01832 0
M  V30 3300 C 303.896 -1.06553 4.24223 0
M  V30 3301 C 302.955 -2.1027 4.82362 0
M  V30 3302 O 301.981 -1.68798 5.43595 0
M  V30 3303 N 303.183 -3.42974 4.68347 0
M  V30 3304 H 305.948 0.269124 2.98489 0
M  V30 3305 H 303.509 0.28972 1.59287 0
M  V30 3306 H 305.501 -2.23165 3.37608 0
M  V30 3307 H 304.071 -2.0918 2.32298 0
M  V30 3308 H 303.291 -0.201274 3.93686 0
M  V30 3309 H 304.579 -0.725516 5.03601 0
M  V30 3310 H 303.977 -3.79385 4.19623 0
M  V30 3311 H 302.534 -4.07858 5.08424 0
M  V30 3312 N 305.967 -1.56429 0.191757 0
M  V30 3313 C 307.192 -2.02309 -0.456706 0
M  V30 3314 C 307.617 -1.07103 -1.5463 0
M  V30 3315 O 306.975 -0.0539677 -1.8122 0
M  V30 3316 C 307.023 -3.46654 -0.993159 0
M  V30 3317 O 306.127 -3.54559 -2.10622 0
M  V30 3318 H 305.468 -0.655303 -0.107114 0
M  V30 3319 H 307.998 -2.02364 0.301653 0
M  V30 3320 H 308.008 -3.86377 -1.31061 0
M  V30 3321 H 306.683 -4.1544 -0.195504 0
M  V30 3322 H 305.26 -3.26708 -1.79767 0
M  V30 3323 N 307.445 0.0818655 -1.57387 0
M  V30 3324 C 308.691 0.784074 -1.8703 0
M  V30 3325 C 309.024 1.77729 -0.782689 0
M  V30 3326 O 308.299 1.93384 0.208051 0
M  V30 3327 C 308.582 1.50105 -3.27323 0
M  V30 3328 C 308.435 0.524925 -4.46727 0
M  V30 3329 C 309.754 2.44843 -3.65705 0
M  V30 3330 H 306.873 0.283582 -0.680257 0
M  V30 3331 H 309.515 0.0474352 -1.89941 0
M  V30 3332 H 307.665 2.12897 -3.24972 0
M  V30 3333 H 309.337 -0.0970111 -4.61198 0
M  V30 3334 H 307.58 -0.160606 -4.33503 0
M  V30 3335 H 308.251 1.064 -5.41648 0
M  V30 3336 H 310.727 1.92135 -3.69085 0
M  V30 3337 H 309.603 2.92018 -4.64776 0
M  V30 3338 H 309.864 3.29197 -2.95096 0
M  V30 3339 N 308.923 1.53595 0.353017 0
M  V30 3340 C 309.833 1.83897 1.45667 0
M  V30 3341 C 310.849 0.728334 1.58023 0
M  V30 3342 O 312.025 1.01968 1.73679 0
M  V30 3343 C 309.09 2.03383 2.80778 0
M  V30 3344 C 308.151 3.27262 2.77845 0
M  V30 3345 C 307.384 3.45809 4.06512 0
M  V30 3346 O 307.607 2.68387 5.03314 0
M  V30 3347 O 306.541 4.39207 4.11559 0
M  V30 3348 H 310.367 2.77686 1.2298 0
M  V30 3349 H 307.952 1.39132 0.544308 0
M  V30 3350 H 309.834 2.17698 3.60812 0
M  V30 3351 H 308.509 1.12783 3.03417 0
M  V30 3352 H 307.416 3.18359 1.96465 0
M  V30 3353 H 308.749 4.17824 2.60161 0
M  V30 3354 N 310.401 -0.613514 1.45168 0
M  V30 3355 C 311.364 -1.7065 1.53007 0
M  V30 3356 C 312.364 -1.5548 0.410184 0
M  V30 3357 O 313.554 -1.60656 0.673455 0
M  V30 3358 C 310.686 -3.09875 1.42093 0
M  V30 3359 H 311.879 -1.65068 2.50385 0
M  V30 3360 H 309.432 -0.828728 1.32521 0
M  V30 3361 H 310.167 -3.21039 0.458769 0
M  V30 3362 H 309.952 -3.22293 2.23315 0
M  V30 3363 H 311.442 -3.895 1.50598 0
M  V30 3364 N 311.879 -1.3236 -0.855495 0
M  V30 3365 C 312.842 -1.21164 -1.94556 0
M  V30 3366 C 313.842 -0.134908 -1.60233 0
M  V30 3367 O 315.032 -0.385249 -1.69887 0
M  V30 3368 C 312.164 -0.863192 -3.29791 0
M  V30 3369 H 313.357 -2.18038 -2.05911 0
M  V30 3370 H 310.91 -1.16179 -1.04557 0
M  V30 3371 H 311.645 0.103769 -3.24134 0
M  V30 3372 H 311.43 -1.64166 -3.56078 0
M  V30 3373 H 312.92 -0.809156 -4.09686 0
M  V30 3374 N 313.357 1.07166 -1.15556 0
M  V30 3375 C 314.287 2.16403 -0.877046 0
M  V30 3376 C 315.268 1.69217 0.173111 0
M  V30 3377 O 316.453 1.94181 0.027084 0
M  V30 3378 C 313.583 3.45349 -0.367632 0
M  V30 3379 C 312.537 4.05995 -1.35468 0
M  V30 3380 C 311.863 5.30045 -0.704038 0
M  V30 3381 C 313.163 4.45804 -2.72132 0
M  V30 3382 H 314.857 2.39959 -1.79053 0
M  V30 3383 H 312.403 1.15325 -0.862331 0
M  V30 3384 H 314.356 4.21095 -0.160317 0
M  V30 3385 H 313.08 3.21385 0.581326 0
M  V30 3386 H 311.739 3.32296 -1.54839 0
M  V30 3387 H 311.387 5.02373 0.251128 0
M  V30 3388 H 311.087 5.71579 -1.36277 0
M  V30 3389 H 312.611 6.08495 -0.50654 0
M  V30 3390 H 314.025 5.12671 -2.56595 0
M  V30 3391 H 312.422 4.98296 -3.34397 0
M  V30 3392 H 313.492 3.57083 -3.28054 0
M  V30 3393 N 314.835 0.952656 1.25548 0
M  V30 3394 C 316.251 0.656769 1.4546 0
M  V30 3395 C 316.451 -0.78633 1.85524 0
M  V30 3396 O 315.507 -1.56183 1.98402 0
M  V30 3397 C 316.82 1.62801 2.52817 0
M  V30 3398 C 318.368 1.63897 2.66659 0
M  V30 3399 C 318.843 2.5978 3.77198 0
M  V30 3400 N 320.334 2.58133 3.84606 0
M  V30 3401 C 321.069 3.29003 4.69621 0
M  V30 3402 N 320.565 4.09339 5.58939 0
M  V30 3403 N 322.358 3.179 4.63569 0
M  V30 3404 H 314.509 1.88526 0.978344 0
M  V30 3405 H 316.772 0.810815 0.491206 0
M  V30 3406 H 316.478 2.65869 2.30232 0
M  V30 3407 H 316.352 1.38898 3.50695 0
M  V30 3408 H 318.739 0.615481 2.8861 0
M  V30 3409 H 318.82 1.91858 1.69187 0
M  V30 3410 H 318.464 3.62254 3.55997 0
M  V30 3411 H 318.394 2.29105 4.7415 0
M  V30 3412 H 320.885 1.99809 3.20757 0
M  V30 3413 H 321.198 4.6034 6.20731 0
M  V30 3414 H 319.543 4.13438 5.58654 0
M  V30 3415 H 322.734 2.54612 3.92798 0
M  V30 3416 H 322.907 3.73398 5.29602 0
M  V30 3417 N 316.313 -1.40141 0.720998 0
M  V30 3418 C 317.246 -2.2819 0.020916 0
M  V30 3419 C 318.224 -1.43633 -0.762129 0
M  V30 3420 O 319.408 -1.7304 -0.747633 0
M  V30 3421 C 316.535 -3.24281 -0.977715 0
M  V30 3422 C 315.581 -4.25548 -0.284836 0
M  V30 3423 S 316.414 -5.26247 0.991169 0
M  V30 3424 C 317.57 -6.259 -0.0052214 0
M  V30 3425 H 317.803 -2.87218 0.767649 0
M  V30 3426 H 315.336 -1.45656 0.512233 0
M  V30 3427 H 317.294 -3.80167 -1.54865 0
M  V30 3428 H 315.955 -2.643 -1.69719 0
M  V30 3429 H 315.148 -4.93154 -1.03996 0
M  V30 3430 H 314.75 -3.73389 0.213684 0
M  V30 3431 H 317.042 -6.72143 -0.850279 0
M  V30 3432 H 317.985 -7.05224 0.637599 0
M  V30 3433 H 318.393 -5.63277 -0.371366 0
M  V30 3434 N 317.792 -0.46758 -1.50504 0
M  V30 3435 C 318.702 0.33382 -2.32213 0
M  V30 3436 C 319.718 0.999323 -1.42441 0
M  V30 3437 O 320.894 0.988068 -1.75497 0
M  V30 3438 C 317.959 1.4035 -3.17022 0
M  V30 3439 C 317.02 0.754961 -4.2261 0
M  V30 3440 C 316.253 1.77367 -5.03365 0
M  V30 3441 O 316.476 2.99976 -4.8515 0
M  V30 3442 O 315.41 1.34744 -5.86624 0
M  V30 3443 H 319.236 -0.334067 -3.01857 0
M  V30 3444 H 316.821 -0.229496 -1.47627 0
M  V30 3445 H 318.703 2.02318 -3.69656 0
M  V30 3446 H 317.378 2.05492 -2.5011 0
M  V30 3447 H 316.285 0.0964244 -3.73976 0
M  V30 3448 H 317.618 0.146545 -4.91982 0
M  V30 3449 N 319.27 1.56325 -0.20005 0
M  V30 3450 C 320.686 1.58839 0.155716 0
M  V30 3451 C 320.886 1.21636 1.60645 0
M  V30 3452 O 319.942 0.941437 2.34293 0
M  V30 3453 C 321.255 3.0032 -0.151124 0
M  V30 3454 C 322.803 3.12866 -0.0916284 0
M  V30 3455 C 323.278 4.56488 -0.371845 0
M  V30 3456 N 324.769 4.62089 -0.320641 0
M  V30 3457 C 325.504 5.71116 -0.511243 0
M  V30 3458 N 325 6.88592 -0.762461 0
M  V30 3459 N 326.793 5.60335 -0.445157 0
M  V30 3460 H 318.944 1.78788 -1.14668 0
M  V30 3461 H 321.207 0.829996 -0.458051 0
M  V30 3462 H 320.913 3.32117 -1.15721 0
M  V30 3463 H 320.787 3.73257 0.543986 0
M  V30 3464 H 323.174 2.80878 0.905065 0
M  V30 3465 H 323.255 2.42304 -0.81989 0
M  V30 3466 H 322.899 4.89189 -1.36588 0
M  V30 3467 H 322.829 5.25246 0.377362 0
M  V30 3468 H 325.32 3.77665 -0.13329 0
M  V30 3469 H 325.633 7.67581 -0.896576 0
M  V30 3470 H 323.978 6.90387 -0.799412 0
M  V30 3471 H 327.169 4.67436 -0.249278 0
M  V30 3472 H 327.342 6.45243 -0.597116 0
M  V30 3473 N 320.748 -0.0735177 1.57428 0
M  V30 3474 C 321.68 -1.11423 2.00294 0
M  V30 3475 C 322.693 -1.35084 0.908637 0
M  V30 3476 O 323.882 -1.33355 1.18654 0
M  V30 3477 C 320.982 -2.46548 2.32523 0
M  V30 3478 C 320.155 -2.42867 3.63778 0
M  V30 3479 C 319.214 -3.60087 3.83697 0
M  V30 3480 O 318.24 -3.41595 4.55304 0
M  V30 3481 N 319.442 -4.80372 3.25919 0
M  V30 3482 H 322.207 -0.749206 2.90184 0
M  V30 3483 H 319.768 -0.262195 1.59763 0
M  V30 3484 H 321.76 -3.23607 2.43024 0
M  V30 3485 H 320.33 -2.75059 1.48531 0
M  V30 3486 H 319.55 -1.51206 3.64047 0
M  V30 3487 H 320.838 -2.37506 4.49965 0
M  V30 3488 H 320.236 -4.983 2.67795 0
M  V30 3489 H 318.793 -5.54948 3.41871 0
M  V30 3490 N 322.226 -1.5378 -0.344866 0
M  V30 3491 C 323.189 -1.80981 -1.40637 0
M  V30 3492 C 324.189 -0.680816 -1.45676 0
M  V30 3493 O 325.379 -0.949095 -1.46075 0
M  V30 3494 C 322.511 -1.95063 -2.79577 0
M  V30 3495 H 323.704 -2.75803 -1.17783 0
M  V30 3496 H 321.257 -1.45173 -0.579181 0
M  V30 3497 H 321.992 -1.02379 -3.07716 0
M  V30 3498 H 321.777 -2.77198 -2.77315 0
M  V30 3499 H 323.267 -2.17629 -3.56409 0
M  V30 3500 N 323.704 0.605807 -1.45491 0
M  V30 3501 C 324.667 1.69836 -1.5391 0
M  V30 3502 C 325.667 1.55261 -0.418424 0
M  V30 3503 O 326.857 1.60296 -0.681965 0
M  V30 3504 C 323.989 3.09117 -1.43734 0
M  V30 3505 H 325.182 1.63738 -2.51257 0
M  V30 3506 H 322.735 0.821689 -1.32959 0
M  V30 3507 H 323.47 3.20791 -0.475788 0
M  V30 3508 H 323.255 3.21104 -2.25021 0
M  V30 3509 H 324.745 3.88696 -1.52661 0
M  V30 3510 N 325.182 1.32811 0.848464 0
M  V30 3511 C 326.407 1.26882 1.6406 0
M  V30 3512 C 326.832 -0.15913 1.87426 0
M  V30 3513 O 326.19 -1.11258 1.43148 0
M  V30 3514 C 326.238 2.03997 2.97351 0
M  V30 3515 O 325.342 1.39201 3.88197 0
M  V30 3516 H 324.683 0.436982 0.499943 0
M  V30 3517 H 327.213 1.75224 1.0563 0
M  V30 3518 H 327.223 2.14403 3.47124 0
M  V30 3519 H 325.898 3.0783 2.79666 0
M  V30 3520 H 324.475 1.37381 3.46671 0
M  V30 3521 N 326.66 -1.06551 1.16123 0
M  V30 3522 C 327.57 -2.17484 0.879662 0
M  V30 3523 C 328.586 -1.73377 -0.147104 0
M  V30 3524 O 329.762 -2.01379 0.0289128 0
M  V30 3525 C 326.827 -3.44591 0.381829 0
M  V30 3526 C 325.888 -4.0322 1.4735 0
M  V30 3527 C 325.121 -5.24261 0.999324 0
M  V30 3528 O 325.344 -5.70198 -0.151957 0
M  V30 3529 O 324.278 -5.74775 1.78653 0
M  V30 3530 H 328.104 -2.44075 1.80724 0
M  V30 3531 H 325.689 -1.16042 0.940992 0
M  V30 3532 H 327.571 -4.21254 0.111053 0
M  V30 3533 H 326.246 -3.19532 -0.51777 0
M  V30 3534 H 325.153 -3.2806 1.79798 0
M  V30 3535 H 326.486 -4.32568 2.34831 0
M  V30 3536 N 328.138 -0.959301 -1.25041 0
M  V30 3537 C 329.048 -0.489994 -2.29426 0
M  V30 3538 C 330.064 0.444944 -1.68215 0
M  V30 3539 O 331.24 0.320046 -1.98841 0
M  V30 3540 C 328.305 0.220309 -3.45999 0
M  V30 3541 C 327.366 -0.753418 -4.22637 0
M  V30 3542 C 326.599 -0.076918 -5.33645 0
M  V30 3543 O 326.822 1.13649 -5.58963 0
M  V30 3544 O 325.756 -0.764824 -5.97021 0
M  V30 3545 H 329.582 -1.35755 -2.71669 0
M  V30 3546 H 327.167 -0.725961 -1.30576 0
M  V30 3547 H 329.049 0.619677 -4.16819 0
M  V30 3548 H 327.724 1.06296 -3.0575 0
M  V30 3549 H 326.631 -1.20308 -3.54227 0
M  V30 3550 H 327.964 -1.56423 -4.66683 0
M  V30 3551 N 329.616 1.39756 -0.72842 0
M  V30 3552 C 330.563 2.30647 -0.0841519 0
M  V30 3553 C 331.533 1.48869 0.7367 0
M  V30 3554 O 332.718 1.77574 0.698015 0
M  V30 3555 C 329.858 3.35165 0.822091 0
M  V30 3556 C 328.971 4.31999 -0.0106663 0
M  V30 3557 C 328.106 5.23585 0.896241 0
M  V30 3558 C 327.145 6.12072 0.0583381 0
M  V30 3559 N 326.282 6.96035 0.920818 0
M  V30 3560 H 331.122 2.85173 -0.864891 0
M  V30 3561 H 328.659 1.40422 -0.438179 0
M  V30 3562 H 330.617 3.94345 1.36189 0
M  V30 3563 H 329.247 2.8211 1.56888 0
M  V30 3564 H 328.299 3.74492 -0.66781 0
M  V30 3565 H 329.611 4.9443 -0.658825 0
M  V30 3566 H 328.765 5.87759 1.50412 0
M  V30 3567 H 327.504 4.61459 1.57819 0
M  V30 3568 H 326.509 5.46916 -0.562389 0
M  V30 3569 H 327.734 6.76261 -0.6203 0
M  V30 3570 H 325.68 6.36485 1.58818 0
M  V30 3571 H 325.597 7.55284 0.32899 0
M  V30 3572 H 326.865 7.64646 1.51447 0
M  V30 3573 N 331.094 0.475555 1.50254 0
M  V30 3574 C 332.51 0.12997 1.5907 0
M  V30 3575 C 332.71 -1.36385 1.48328 0
M  V30 3576 O 331.766 -2.13754 1.34407 0
M  V30 3577 C 333.079 0.684139 2.92814 0
M  V30 3578 C 334.627 0.647965 3.0622 0
M  V30 3579 C 335.102 1.17975 4.42545 0
M  V30 3580 N 336.593 1.13936 4.48969 0
M  V30 3581 C 337.328 1.52129 5.52851 0
M  V30 3582 N 336.824 1.97793 6.63965 0
M  V30 3583 N 338.617 1.43704 5.4342 0
M  V30 3584 H 330.768 1.44706 1.55479 0
M  V30 3585 H 333.031 0.598691 0.735033 0
M  V30 3586 H 332.737 1.73079 3.06164 0
M  V30 3587 H 332.611 0.130204 3.76975 0
M  V30 3588 H 334.998 -0.38979 2.92514 0
M  V30 3589 H 335.079 1.23876 2.23805 0
M  V30 3590 H 334.723 2.21616 4.57 0
M  V30 3591 H 334.653 0.565138 5.23559 0
M  V30 3592 H 337.144 0.804488 3.69238 0
M  V30 3593 H 337.457 2.25072 7.39299 0
M  V30 3594 H 335.802 2.01749 6.65073 0
M  V30 3595 H 338.993 1.07867 4.55502 0
M  V30 3596 H 339.166 1.73794 6.24259 0
M  V30 3597 N 332.573 -1.56217 0.208337 0
M  V30 3598 C 333.52 -2.19699 -0.707192 0
M  V30 3599 C 334.49 -1.14836 -1.20008 0
M  V30 3600 O 335.675 -1.4314 -1.26157 0
M  V30 3601 C 332.815 -2.87061 -1.91546 0
M  V30 3602 C 331.928 -4.06483 -1.46271 0
M  V30 3603 C 331.063 -4.61665 -2.62752 0
M  V30 3604 C 330.102 -5.73417 -2.14147 0
M  V30 3605 N 329.239 -6.22948 -3.23853 0
M  V30 3606 H 334.079 -2.97575 -0.159111 0
M  V30 3607 H 331.616 -1.46948 -0.0667874 0
M  V30 3608 H 333.574 -3.24294 -2.62468 0
M  V30 3609 H 332.204 -2.11725 -2.43664 0
M  V30 3610 H 331.256 -3.74825 -0.648886 0
M  V30 3611 H 332.568 -4.87271 -1.06622 0
M  V30 3612 H 331.722 -5.01272 -3.41776 0
M  V30 3613 H 330.461 -3.80013 -3.05682 0
M  V30 3614 H 329.466 -5.33326 -1.33581 0
M  V30 3615 H 330.691 -6.56897 -1.72232 0
M  V30 3616 H 328.637 -5.44213 -3.6629 0
M  V30 3617 H 328.554 -6.98823 -2.88414 0
M  V30 3618 H 329.822 -6.6721 -4.03052 0
M  V30 3619 N 334.051 0.0651679 -1.57465 0
M  V30 3620 C 334.981 1.07693 -2.07182 0
M  V30 3621 C 335.962 1.39962 -0.966673 0
M  V30 3622 O 337.147 1.49475 -1.2398 0
M  V30 3623 C 334.277 2.3885 -2.52127 0
M  V30 3624 C 333.231 2.20917 -3.66579 0
M  V30 3625 C 332.557 3.57515 -3.97601 0
M  V30 3626 C 333.857 1.62493 -4.9638 0
M  V30 3627 H 335.551 0.663199 -2.91962 0
M  V30 3628 H 333.097 0.317569 -1.40455 0
M  V30 3629 H 335.05 3.09928 -2.85522 0
M  V30 3630 H 333.774 2.82215 -1.64384 0
M  V30 3631 H 332.433 1.52279 -3.33477 0
M  V30 3632 H 332.081 3.98463 -3.06979 0
M  V30 3633 H 331.781 3.46353 -4.74672 0
M  V30 3634 H 333.305 4.30013 -4.33499 0
M  V30 3635 H 334.719 2.23445 -5.27963 0
M  V30 3636 H 333.116 1.62009 -5.77818 0
M  V30 3637 H 334.186 0.587041 -4.81333 0
M  V30 3638 N 335.529 1.53961 0.336706 0
M  V30 3639 C 336.492 1.81724 1.39675 0
M  V30 3640 C 337.492 0.688532 1.45313 0
M  V30 3641 O 338.682 0.956829 1.45569 0
M  V30 3642 C 335.814 1.96543 2.78538 0
M  V30 3643 H 337.007 2.76424 1.16318 0
M  V30 3644 H 334.56 1.45478 0.571474 0
M  V30 3645 H 335.295 1.0401 3.07168 0
M  V30 3646 H 335.08 2.78665 2.75841 0
M  V30 3647 H 336.57 2.19516 3.5525 0
M  V30 3648 N 337.007 -0.598083 1.45811 0
M  V30 3649 C 337.939 -1.72231 1.51225 0
M  V30 3650 C 338.952 -1.57757 0.402059 0
M  V30 3651 O 340.141 -1.65464 0.669624 0
M  V30 3652 C 337.241 -3.10331 1.3619 0
M  V30 3653 C 336.414 -3.50955 2.61054 0
M  V30 3654 C 335.473 -4.68055 2.40439 0
M  V30 3655 O 334.499 -4.74691 3.14097 0
M  V30 3656 N 335.701 -5.61941 1.45612 0
M  V30 3657 H 338.466 -1.68046 2.48154 0
M  V30 3658 H 336.027 -0.783637 1.41671 0
M  V30 3659 H 338.019 -3.86439 1.20195 0
M  V30 3660 H 336.589 -3.0897 0.475015 0
M  V30 3661 H 335.809 -2.64711 2.92099 0
M  V30 3662 H 337.097 -3.74858 3.44034 0
M  V30 3663 H 336.495 -5.59301 0.848431 0
M  V30 3664 H 335.052 -6.37542 1.35585 0
M  V30 3665 N 338.485 -1.33259 -0.841409 0
M  V30 3666 C 339.415 -1.25926 -1.96634 0
M  V30 3667 C 340.396 -0.140349 -1.6952 0
M  V30 3668 O 341.581 -0.329707 -1.91381 0
M  V30 3669 C 338.711 -0.99512 -3.32738 0
M  V30 3670 C 337.665 -2.0767 -3.74242 0
M  V30 3671 C 336.991 -1.66474 -5.08125 0
M  V30 3672 C 338.291 -3.49318 -3.88297 0
M  V30 3673 H 339.985 -2.20046 -2.03027 0
M  V30 3674 H 337.531 -1.05931 -0.975425 0
M  V30 3675 H 339.484 -0.930323 -4.11002 0
M  V30 3676 H 338.208 -0.0183004 -3.26595 0
M  V30 3677 H 336.867 -2.13187 -2.98239 0
M  V30 3678 H 336.515 -0.675012 -4.9845 0
M  V30 3679 H 336.215 -2.3885 -5.36865 0
M  V30 3680 H 337.739 -1.61455 -5.88867 0
M  V30 3681 H 339.153 -3.46316 -4.56879 0
M  V30 3682 H 337.55 -4.20158 -4.28471 0
M  V30 3683 H 338.62 -3.8801 -2.9082 0
M  V30 3684 N 339.963 1.05934 -1.16686 0
M  V30 3685 C 340.895 2.13468 -0.834503 0
M  V30 3686 C 341.908 1.62013 0.15984 0
M  V30 3687 O 343.097 1.7838 -0.0654228 0
M  V30 3688 C 340.197 3.3817 -0.222361 0
M  V30 3689 C 339.37 4.18928 -1.25771 0
M  V30 3690 C 338.429 5.21985 -0.664703 0
M  V30 3691 O 337.455 5.53334 -1.33453 0
M  V30 3692 N 338.657 5.77919 0.546834 0
M  V30 3693 H 341.422 2.42578 -1.75999 0
M  V30 3694 H 338.983 1.21967 -1.06469 0
M  V30 3695 H 340.975 4.04266 0.187472 0
M  V30 3696 H 339.545 3.06655 0.606758 0
M  V30 3697 H 338.765 3.48433 -1.84358 0
M  V30 3698 H 340.053 4.69687 -1.95631 0
M  V30 3699 H 339.451 5.54721 1.10912 0
M  V30 3700 H 338.008 6.45573 0.898829 0
M  V30 3701 N 341.441 0.965919 1.2453 0
M  V30 3702 C 342.687 0.62776 1.92839 0
M  V30 3703 C 343.02 -0.834694 1.75347 0
M  V30 3704 O 342.295 -1.60031 1.10546 0
M  V30 3705 C 342.578 1.00109 3.45905 0
M  V30 3706 C 342.431 2.52011 3.72573 0
M  V30 3707 C 343.75 0.53435 4.36844 0
M  V30 3708 H 340.869 0.229537 0.700344 0
M  V30 3709 H 343.511 1.2046 1.46933 0
M  V30 3710 H 341.661 0.510238 3.85135 0
M  V30 3711 H 343.333 3.08559 3.42912 0
M  V30 3712 H 341.576 2.95287 3.17786 0
M  V30 3713 H 342.247 2.73183 4.79661 0
M  V30 3714 H 344.723 0.955565 4.04979 0
M  V30 3715 H 343.599 0.824152 5.42678 0
M  V30 3716 H 343.86 -0.565589 4.38467 0
M  V30 3717 N 342.919 -1.39368 0.735821 0
M  V30 3718 C 343.882 -2.2896 0.104874 0
M  V30 3719 C 344.882 -1.46347 -0.666274 0
M  V30 3720 O 346.072 -1.67014 -0.49517 0
M  V30 3721 C 343.204 -3.29857 -0.860656 0
M  V30 3722 H 344.397 -2.86259 0.894205 0
M  V30 3723 H 341.95 -1.48029 0.501704 0
M  V30 3724 H 342.685 -2.77615 -1.67631 0
M  V30 3725 H 342.47 -3.9087 -0.310327 0
M  V30 3726 H 343.96 -3.96893 -1.29867 0
M  V30 3727 N 344.397 -0.483516 -1.5 0
M  V30 3728 C 345.627 0.0643896 -2.065 0
M  V30 3729 C 346.035 1.32949 -1.34615 0
M  V30 3730 O 345.378 1.79003 -0.412756 0
M  V30 3731 C 345.44 0.405983 -3.572 0
M  V30 3732 C 345.104 -0.758875 -4.50655 0
M  V30 3733 C 346.101 -1.64445 -4.93208 0
M  V30 3734 C 343.786 -0.952725 -4.93182 0
M  V30 3735 C 345.78 -2.70818 -5.77006 0
M  V30 3736 C 343.467 -2.01966 -5.76761 0
M  V30 3737 C 344.465 -2.89574 -6.18576 0
M  V30 3738 O 344.153 -3.94429 -7.00486 0
M  V30 3739 H 343.885 -0.00934786 -0.675935 0
M  V30 3740 H 346.439 -0.674959 -1.93993 0
M  V30 3741 H 344.669 1.19869 -3.67652 0
M  V30 3742 H 346.358 0.890433 -3.96013 0
M  V30 3743 H 347.124 -1.50643 -4.61012 0
M  V30 3744 H 343.003 -0.280247 -4.60147 0
M  V30 3745 H 346.547 -3.3923 -6.09565 0
M  V30 3746 H 342.444 -2.1577 -6.0837 0
M  V30 3747 H 343.212 -3.91568 -7.1876 0
M  V30 3748 N 345.875 1.56104 -0.216619 0
M  V30 3749 C 346.825 2.16703 0.708798 0
M  V30 3750 C 347.809 1.11392 1.16106 0
M  V30 3751 O 349.001 1.37395 1.11587 0
M  V30 3752 C 346.13 2.84666 1.91886 0
M  V30 3753 C 345.216 3.97195 1.48651 0
M  V30 3754 N 345.607 4.99959 0.766434 0
M  V30 3755 C 343.905 4.09193 1.77418 0
M  V30 3756 C 344.606 5.79126 0.546659 0
M  V30 3757 N 343.582 5.32315 1.10188 0
M  V30 3758 H 347.384 2.93516 0.150162 0
M  V30 3759 H 344.898 1.6239 -0.0176768 0
M  V30 3760 H 346.895 3.26486 2.59253 0
M  V30 3761 H 345.555 2.09347 2.48202 0
M  V30 3762 H 346.566 5.16197 0.419634 0
M  V30 3763 H 343.243 3.45021 2.35088 0
M  V30 3764 H 344.633 6.71895 -0.026103 0
M  V30 3765 N 347.353 -0.0568162 1.57498 0
M  V30 3766 C 348.285 -1.09292 2.01464 0
M  V30 3767 C 349.298 -1.34112 0.922913 0
M  V30 3768 O 350.487 -1.32089 1.20062 0
M  V30 3769 C 347.587 -2.44068 2.35125 0
M  V30 3770 C 346.76 -2.38995 3.66333 0
M  V30 3771 C 345.819 -3.55997 3.87495 0
M  V30 3772 O 344.845 -3.36746 4.58901 0
M  V30 3773 N 346.047 -4.76888 3.30996 0
M  V30 3774 H 348.812 -0.718386 2.90963 0
M  V30 3775 H 346.373 -0.245235 1.60032 0
M  V30 3776 H 348.365 -3.21011 2.46443 0
M  V30 3777 H 346.935 -2.73468 1.5144 0
M  V30 3778 H 346.155 -1.47336 3.65631 0
M  V30 3779 H 347.443 -2.3272 4.52458 0
M  V30 3780 H 346.841 -4.95431 2.73065 0
M  V30 3781 H 345.398 -5.51291 3.47738 0
M  V30 3782 N 348.832 -1.54138 -0.328536 0
M  V30 3783 C 349.762 -1.86167 -1.40939 0
M  V30 3784 C 350.743 -0.718044 -1.54202 0
M  V30 3785 O 351.928 -0.971328 -1.68163 0
M  V30 3786 C 349.058 -2.08461 -2.77779 0
M  V30 3787 C 348.012 -3.24299 -2.7931 0
M  V30 3788 C 347.338 -3.31955 -4.19178 0
M  V30 3789 C 348.638 -4.62065 -2.43502 0
M  V30 3790 H 350.332 -2.76689 -1.14383 0
M  V30 3791 H 347.878 -1.33132 -0.548806 0
M  V30 3792 H 349.831 -2.29453 -3.53454 0
M  V30 3793 H 348.555 -1.14684 -3.05802 0
M  V30 3794 H 347.214 -3.03187 -2.0609 0
M  V30 3795 H 346.862 -2.35745 -4.44335 0
M  V30 3796 H 346.562 -4.09805 -4.2111 0
M  V30 3797 H 348.086 -3.55175 -4.96672 0
M  V30 3798 H 349.5 -4.8297 -3.08889 0
M  V30 3799 H 347.897 -5.42429 -2.56693 0
M  V30 3800 H 348.967 -4.64652 -1.38659 0
M  V30 3801 N 350.31 0.590341 -1.46126 0
M  V30 3802 C 351.557 1.34882 -1.5104 0
M  V30 3803 C 351.885 1.93849 -0.159021 0
M  V30 3804 O 351.14 1.76544 0.844436 0
M  V30 3805 C 351.439 2.5032 -2.55097 0
M  V30 3806 C 351.105 2.09394 -3.99331 0
M  V30 3807 C 349.767 1.97947 -4.38601 0
M  V30 3808 C 352.119 1.77712 -4.89967 0
M  V30 3809 C 349.447 1.53065 -5.66381 0
M  V30 3810 C 351.799 1.34312 -6.18177 0
M  V30 3811 C 350.463 1.21436 -6.56361 0
M  V30 3812 H 349.733 0.493568 -0.552695 0
M  V30 3813 H 352.38 0.665539 -1.79563 0
M  V30 3814 H 350.685 3.24062 -2.20207 0
M  V30 3815 H 352.382 3.08541 -2.56132 0
M  V30 3816 H 348.972 2.19235 -3.68285 0
M  V30 3817 H 353.156 1.85445 -4.60352 0
M  V30 3818 H 348.412 1.41733 -5.94745 0
M  V30 3819 H 352.586 1.08849 -6.87841 0
M  V30 3820 H 350.213 0.864345 -7.5527 0
M  V30 3821 N 351.788 1.33704 0.83433 0
M  V30 3822 C 352.72 1.20172 1.9517 0
M  V30 3823 C 353.733 0.131572 1.62267 0
M  V30 3824 O 354.922 0.382406 1.74356 0
M  V30 3825 C 352.022 0.821716 3.28787 0
M  V30 3826 C 351.195 1.98446 3.89792 0
M  V30 3827 C 350.254 1.58469 5.01771 0
M  V30 3828 O 349.28 2.29968 5.20676 0
M  V30 3829 N 350.482 0.492291 5.78409 0
M  V30 3830 H 353.247 2.16429 2.07313 0
M  V30 3831 H 350.808 1.26509 1.0103 0
M  V30 3832 H 352.8 0.536291 4.01131 0
M  V30 3833 H 351.37 -0.0503058 3.1256 0
M  V30 3834 H 350.59 2.43526 3.09982 0
M  V30 3835 H 351.878 2.76236 4.27283 0
M  V30 3836 H 351.276 -0.102349 5.65607 0
M  V30 3837 H 349.833 0.266555 6.51255 0
M  V30 3838 N 353.266 -1.05314 1.17247 0
M  V30 3839 C 354.176 -2.16538 0.90268 0
M  V30 3840 C 355.192 -1.73523 -0.128707 0
M  V30 3841 O 356.368 -2.01337 0.0502701 0
M  V30 3842 C 353.433 -3.44167 0.418356 0
M  V30 3843 C 352.494 -4.01635 1.51618 0
M  V30 3844 C 351.727 -5.23171 1.05487 0
M  V30 3845 O 351.95 -5.70327 -0.0914715 0
M  V30 3846 O 350.884 -5.72848 1.8474 0
M  V30 3847 H 354.71 -2.42145 1.83302 0
M  V30 3848 H 352.295 -1.15037 0.953246 0
M  V30 3849 H 354.177 -4.21112 0.155726 0
M  V30 3850 H 352.852 -3.20063 -0.48385 0
M  V30 3851 H 351.759 -3.26135 1.83268 0
M  V30 3852 H 353.092 -4.30053 2.39405 0
M  V30 3853 N 354.744 -0.972509 -1.24016 0
M  V30 3854 C 355.974 -0.653853 -1.9598 0
M  V30 3855 C 356.382 0.781801 -1.72292 0
M  V30 3856 O 355.725 1.53677 -1.00644 0
M  V30 3857 C 355.787 -0.854608 -3.49194 0
M  V30 3858 C 355.451 -2.27082 -3.96589 0
M  V30 3859 C 356.448 -3.24892 -4.05883 0
M  V30 3860 C 354.133 -2.5998 -4.29786 0
M  V30 3861 C 356.127 -4.53684 -4.47716 0
M  V30 3862 C 353.814 -3.88997 -4.71301 0
M  V30 3863 C 354.812 -4.85661 -4.80232 0
M  V30 3864 O 354.5 -6.12376 -5.20818 0
M  V30 3865 H 354.232 -0.242572 -0.630979 0
M  V30 3866 H 356.786 -1.30431 -1.58673 0
M  V30 3867 H 355.016 -0.146985 -3.86421 0
M  V30 3868 H 356.705 -0.534311 -4.02368 0
M  V30 3869 H 357.471 -3.00805 -3.80449 0
M  V30 3870 H 353.35 -1.85457 -4.22051 0
M  V30 3871 H 356.894 -5.29135 -4.54601 0
M  V30 3872 H 352.791 -4.12882 -4.96184 0
M  V30 3873 H 353.559 -6.16013 -5.38953 0
M  V30 3874 N 356.222 1.38976 -0.743202 0
M  V30 3875 C 357.499 1.94351 -0.220705 0
M  V30 3876 C 357.879 1.67935 1.2791 0
M  V30 3877 O 357.227 1.01211 2.04862 0
M  V30 3878 C 357.437 3.44426 -0.563171 0
M  V30 3879 C 358.785 4.2144 -0.517046 0
M  V30 3880 O 359.809 3.52661 -0.500846 0
M  V30 3881 O 358.668 5.44032 -0.518806 0
M  V30 3882 H 355.762 0.825879 -0.043047 0
M  V30 3883 H 358.308 1.48429 -0.822618 0
M  V30 3884 H 357.08 3.5712 -1.59941 0
M  V30 3885 H 356.703 3.97543 0.0672883 0
M  V30 3886 N 357.7 0.491464 1.49741 0
M  V30 3887 C 358.648 -0.305837 2.30581 0
M  V30 3888 C 359.642 -0.971642 1.38764 0
M  V30 3889 O 360.848 -0.90042 1.5586 0
M  V30 3890 H 357.223 -0.117482 0.742767 0
M  V30 3891 H 359.194 0.396093 2.95759 0
M  V30 3892 C 357.943 -1.36319 3.19863 0
M  V30 3893 H 357.266 -0.860258 3.90435 0
M  V30 3894 H 358.706 -1.89323 3.79385 0
M  V30 3895 C 357.165 -2.37621 2.38826 0
M  V30 3896 O 357.695 -3.43311 2.08567 0
M  V30 3897 N 355.901 -2.09849 2.01026 0
M  V30 3898 H 355.448 -1.23922 2.25834 0
M  V30 3899 H 355.406 -2.77859 1.47112 0
M  V30 3900 N 359.178 -1.55987 0.224894 0
M  V30 3901 C 360.128 -2.17076 -0.697296 0
M  V30 3902 C 361.112 -1.12006 -1.15514 0
M  V30 3903 O 362.304 -1.37985 -1.10857 0
M  V30 3904 C 359.433 -2.85679 -1.90374 0
M  V30 3905 C 358.519 -3.97977 -1.46543 0
M  V30 3906 N 358.91 -5.00359 -0.739909 0
M  V30 3907 C 357.208 -4.10128 -1.75245 0
M  V30 3908 C 357.909 -5.79407 -0.515939 0
M  V30 3909 N 356.885 -5.32892 -1.07364 0
M  V30 3910 H 360.687 -2.93592 -0.134594 0
M  V30 3911 H 358.201 -1.62379 0.0262885 0
M  V30 3912 H 360.198 -3.27857 -2.57518 0
M  V30 3913 H 358.858 -2.1066 -2.47088 0
M  V30 3914 H 359.869 -5.16412 -0.392253 0
M  V30 3915 H 356.546 -3.46263 -2.33255 0
M  V30 3916 H 357.936 -6.71872 0.0617349 0
M  V30 3917 N 360.656 0.0484629 -1.57525 0
M  V30 3918 C 361.905 0.742065 -1.87553 0
M  V30 3919 C 362.218 1.77545 -0.820802 0
M  V30 3920 O 363.424 2.52027 -1.00967 0
M  V30 3921 C 361.88 1.37081 -3.32771 0
M  V30 3922 C 361.488 0.374786 -4.4643 0
M  V30 3923 C 363.232 2.04542 -3.71972 0
M  V30 3924 C 361.139 1.01077 -5.82698 0
M  V30 3925 H 360.069 0.280903 -0.699721 0
M  V30 3926 H 362.72 -0.00411877 -1.835 0
M  V30 3927 H 361.102 2.16605 -3.31509 0
M  V30 3928 H 362.276 -0.392331 -4.59127 0
M  V30 3929 H 360.591 -0.196653 -4.15935 0
M  V30 3930 H 363.188 2.52943 -4.71088 0
M  V30 3931 H 363.531 2.85515 -3.02964 0
M  V30 3932 H 364.064 1.31819 -3.75325 0
M  V30 3933 H 360.803 0.240878 -6.55057 0
M  V30 3934 H 360.323 1.74819 -5.73758 0
M  V30 3935 H 362.002 1.52383 -6.28799 0
M  V30 3936 N 362.134 1.5431 0.320358 0
M  V30 3937 C 363.081 1.83918 1.39438 0
M  V30 3938 C 364.051 0.686525 1.51248 0
M  V30 3939 O 365.236 0.933269 1.66417 0
M  V30 3940 C 362.376 2.075 2.75749 0
M  V30 3941 C 361.489 3.35177 2.72544 0
M  V30 3942 C 360.624 3.48704 4.00723 0
M  V30 3943 C 359.663 4.70244 3.91838 0
M  V30 3944 N 358.8 4.80679 5.11754 0
M  V30 3945 H 363.64 2.75544 1.13489 0
M  V30 3946 H 361.177 1.36459 0.549309 0
M  V30 3947 H 363.135 2.19166 3.54996 0
M  V30 3948 H 361.765 1.19163 3 0
M  V30 3949 H 360.817 3.32233 1.85271 0
M  V30 3950 H 362.129 4.24534 2.61863 0
M  V30 3951 H 361.283 3.59928 4.88402 0
M  V30 3952 H 360.022 2.57445 4.14214 0
M  V30 3953 H 359.027 4.59072 3.02544 0
M  V30 3954 H 360.252 5.6289 3.7991 0
M  V30 3955 H 358.198 3.92337 5.25745 0
M  V30 3956 H 358.115 5.64007 5.0342 0
M  V30 3957 H 359.383 4.96239 6.01138 0
M  V30 3958 N 363.613 -0.582584 1.46437 0
M  V30 3959 C 364.838 -1.37168 1.55563 0
M  V30 3960 C 365.263 -1.87061 0.19743 0
M  V30 3961 O 364.621 -1.61572 -0.822451 0
M  V30 3962 C 364.669 -2.53511 2.56446 0
M  V30 3963 O 363.773 -3.54953 2.09958 0
M  V30 3964 H 363.114 -0.408494 0.523477 0
M  V30 3965 H 365.644 -0.706646 1.9201 0
M  V30 3966 H 365.654 -3.00426 2.76058 0
M  V30 3967 H 364.329 -2.16549 3.55076 0
M  V30 3968 H 362.906 -3.14516 2.00334 0
M  V30 3969 N 365.091 -1.34144 -0.827227 0
M  V30 3970 C 366.316 -1.29476 -1.62021 0
M  V30 3971 C 366.741 0.129292 -1.87655 0
M  V30 3972 O 366.099 1.08967 -1.449 0
M  V30 3973 C 366.147 -2.08702 -2.94068 0
M  V30 3974 O 365.251 -1.45359 -3.85933 0
M  V30 3975 H 364.592 -0.444881 -0.492927 0
M  V30 3976 H 367.122 -1.76882 -1.02829 0
M  V30 3977 H 367.132 -2.19898 -3.43669 0
M  V30 3978 H 365.807 -3.12241 -2.74734 0
M  V30 3979 H 364.384 -1.42879 -3.44442 0
M  V30 3980 N 366.569 1.04691 -1.17803 0
M  V30 3981 C 367.815 1.78045 -0.970969 0
M  V30 3982 C 368.148 1.87686 0.498751 0
M  V30 3983 O 367.423 1.38035 1.37027 0
M  V30 3984 C 367.706 3.2166 -1.61884 0
M  V30 3985 C 367.559 3.20001 -3.161 0
M  V30 3986 C 368.878 4.1962 -1.3269 0
M  V30 3987 H 365.997 0.64633 -0.354155 0
M  V30 3988 H 368.639 1.22333 -1.45378 0
M  V30 3989 H 366.789 3.69232 -1.20831 0
M  V30 3990 H 368.461 2.80467 -3.66246 0
M  V30 3991 H 366.704 2.58203 -3.48588 0
M  V30 3992 H 367.375 4.21386 -3.56564 0
M  V30 3993 H 369.851 3.80567 -1.68249 0
M  V30 3994 H 368.727 5.18339 -1.80599 0
M  V30 3995 H 368.988 4.414 -0.248622 0
M  V30 3996 N 368.047 0.979072 1.23499 0
M  V30 3997 C 369.293 0.648178 1.92163 0
M  V30 3998 C 369.626 -0.816049 1.76222 0
M  V30 3999 O 368.901 -1.58849 1.12237 0
M  V30 4000 C 369.184 1.03773 3.44824 0
M  V30 4001 C 369.037 2.55948 3.69879 0
M  V30 4002 C 370.356 0.580653 4.36253 0
M  V30 4003 H 367.475 0.236952 0.69787 0
M  V30 4004 H 370.117 1.22012 1.45647 0
M  V30 4005 H 368.267 0.551058 3.84572 0
M  V30 4006 H 369.939 3.12179 3.3962 0
M  V30 4007 H 368.182 2.98641 3.14636 0
M  V30 4008 H 368.853 2.78255 4.76737 0
M  V30 4009 H 371.329 0.998465 4.03943 0
M  V30 4010 H 370.205 0.881663 5.41773 0
M  V30 4011 H 370.466 -0.519052 4.39042 0
M  V30 4012 N 369.525 -1.3858 0.750561 0
M  V30 4013 C 370.773 -1.99789 0.30477 0
M  V30 4014 C 371.094 -1.59874 -1.11649 0
M  V30 4015 O 370.364 -0.85417 -1.76297 0
M  V30 4016 H 368.944 -0.738902 0.109694 0
M  V30 4017 H 371.606 -1.69391 0.963983 0
M  V30 4018 H 370.702 -3.09952 0.365499 0
M  V30 4019 N 371.003 -0.499398 -1.49478 0
M  V30 4020 C 372.228 0.044722 -2.07352 0
M  V30 4021 C 372.653 1.30207 -1.35749 0
M  V30 4022 O 372.011 1.76516 -0.413732 0
M  V30 4023 C 372.059 0.283013 -3.59488 0
M  V30 4024 O 371.163 1.35804 -3.89398 0
M  V30 4025 H 370.504 -0.0255147 -0.66351 0
M  V30 4026 H 373.034 -0.698561 -1.92305 0
M  V30 4027 H 373.044 0.515007 -4.04737 0
M  V30 4028 H 371.719 -0.635636 -4.11014 0
M  V30 4029 H 370.296 1.11113 -3.55961 0
M  V30 4030 N 372.481 1.55866 -0.233164 0
M  V30 4031 C 373.391 2.24431 0.683217 0
M  V30 4032 C 374.407 1.2558 1.2044 0
M  V30 4033 O 375.583 1.58422 1.24356 0
M  V30 4034 C 372.648 2.91979 1.86947 0
M  V30 4035 C 371.709 4.06204 1.38912 0
M  V30 4036 C 370.942 4.70522 2.51883 0
M  V30 4037 O 371.165 4.33865 3.70293 0
M  V30 4038 O 370.099 5.59296 2.22423 0
M  V30 4039 H 373.925 3.03426 0.129059 0
M  V30 4040 H 371.51 1.494 -0.0022283 0
M  V30 4041 H 373.392 3.34573 2.56201 0
M  V30 4042 H 372.067 2.15935 2.41151 0
M  V30 4043 H 370.974 3.68155 0.664259 0
M  V30 4044 H 372.307 4.84025 0.893328 0
M  V30 4045 N 373.959 -0.0401083 1.57549 0
M  V30 4046 C 375.375 -0.395556 1.54621 0
M  V30 4047 C 375.575 -1.77281 0.957799 0
M  V30 4048 O 374.631 -2.45888 0.574031 0
M  V30 4049 C 375.944 -0.307535 2.99123 0
M  V30 4050 C 377.492 -0.385425 3.10618 0
M  V30 4051 C 377.967 -0.326973 4.56831 0
M  V30 4052 N 379.458 -0.386102 4.61588 0
M  V30 4053 C 380.193 -0.363591 5.72246 0
M  V30 4054 N 379.689 -0.29402 6.92176 0
M  V30 4055 N 381.482 -0.412503 5.60584 0
M  V30 4056 H 373.633 0.861325 1.94152 0
M  V30 4057 H 375.896 0.326445 0.890021 0
M  V30 4058 H 375.602 0.638461 3.45856 0
M  V30 4059 H 375.476 -1.10552 3.60636 0
M  V30 4060 H 377.863 -1.32185 2.63839 0
M  V30 4061 H 377.944 0.44171 2.51957 0
M  V30 4062 H 377.588 0.605738 5.04275 0
M  V30 4063 H 377.518 -1.17207 5.13391 0
M  V30 4064 H 380.009 -0.442832 3.75296 0
M  V30 4065 H 380.322 -0.28164 7.72287 0
M  V30 4066 H 378.667 -0.260232 6.94513 0
M  V30 4067 H 381.858 -0.464769 4.65787 0
M  V30 4068 H 382.031 -0.391492 6.46816 0
M  V30 4069 N 375.437 -1.54477 -0.31217 0
M  V30 4070 C 376.384 -1.84655 -1.38461 0
M  V30 4071 C 377.354 -0.694536 -1.50882 0
M  V30 4072 O 378.539 -0.942081 -1.6592 0
M  V30 4073 C 375.679 -2.0896 -2.74645 0
M  V30 4074 C 374.792 -3.36618 -2.70763 0
M  V30 4075 C 373.927 -3.50824 -3.98868 0
M  V30 4076 C 372.966 -4.72315 -3.89339 0
M  V30 4077 N 372.103 -4.83387 -5.09197 0
M  V30 4078 H 376.943 -2.76142 -1.12026 0
M  V30 4079 H 374.48 -1.36748 -0.542065 0
M  V30 4080 H 376.438 -2.21045 -3.53829 0
M  V30 4081 H 375.068 -1.20752 -2.99364 0
M  V30 4082 H 374.12 -3.33211 -1.83506 0
M  V30 4083 H 375.432 -4.25917 -2.59608 0
M  V30 4084 H 374.586 -3.62513 -4.86486 0
M  V30 4085 H 373.325 -2.59638 -4.12843 0
M  V30 4086 H 372.33 -4.6067 -3.00105 0
M  V30 4087 H 373.555 -5.64897 -3.76919 0
M  V30 4088 H 371.501 -3.9512 -5.23657 0
M  V30 4089 H 371.418 -5.66669 -5.00422 0
M  V30 4090 H 372.686 -4.9942 -5.98498 0
M  V30 4091 N 376.915 0.57481 -1.46744 0
M  V30 4092 C 378.331 0.898981 -1.31873 0
M  V30 4093 C 378.531 1.99313 -0.29605 0
M  V30 4094 O 377.587 2.50728 0.298621 0
M  V30 4095 C 378.9 1.30886 -2.7072 0
M  V30 4096 C 380.448 1.42127 -2.78871 0
M  V30 4097 C 380.923 1.86478 -4.18318 0
M  V30 4098 N 382.414 1.93658 -4.20774 0
M  V30 4099 C 383.149 2.29267 -5.2557 0
M  V30 4100 N 382.645 2.63612 -6.40688 0
M  V30 4101 N 384.438 2.29889 -5.1294 0
M  V30 4102 H 376.589 -0.147839 -2.11885 0
M  V30 4103 H 378.852 -0.00347013 -0.947994 0
M  V30 4104 H 378.558 0.578853 -3.46904 0
M  V30 4105 H 378.432 2.26874 -3.01343 0
M  V30 4106 H 380.819 2.14213 -2.0297 0
M  V30 4107 H 380.9 0.443705 -2.51922 0
M  V30 4108 H 380.544 1.14968 -4.94717 0
M  V30 4109 H 380.474 2.85207 -4.42679 0
M  V30 4110 H 382.965 1.69574 -3.37718 0
M  V30 4111 H 383.278 2.89759 -7.16421 0
M  V30 4112 H 381.623 2.61232 -6.44036 0
M  V30 4113 H 384.814 2.02485 -4.22039 0
M  V30 4114 H 384.987 2.57312 -5.94722 0
M  V30 4115 N 378.394 1.34581 0.820102 0
M  V30 4116 C 379.642 1.26845 1.57336 0
M  V30 4117 C 379.963 -0.160667 1.94337 0
M  V30 4118 O 379.233 -1.09396 1.6251 0
M  V30 4119 H 377.813 0.466514 0.583415 0
M  V30 4120 H 380.475 1.68526 0.979027 0
M  V30 4121 H 379.571 1.87513 2.4949 0
M  V30 4122 N 379.872 -1.04064 1.18357 0
M  V30 4123 C 380.805 -2.11618 0.854 0
M  V30 4124 C 381.783 -1.61555 -0.184043 0
M  V30 4125 O 382.967 -1.88395 -0.0630048 0
M  V30 4126 C 380.094 -3.37574 0.27597 0
M  V30 4127 C 379.14 -4.06485 1.2912 0
M  V30 4128 S 379.973 -4.53543 2.84709 0
M  V30 4129 C 381.129 -5.82732 2.28417 0
M  V30 4130 H 381.362 -2.39247 1.76488 0
M  V30 4131 H 378.895 -1.16832 1.00944 0
M  V30 4132 H 380.853 -4.10468 -0.051026 0
M  V30 4133 H 379.514 -3.0806 -0.613028 0
M  V30 4134 H 378.707 -4.97024 0.835633 0
M  V30 4135 H 378.309 -3.39708 1.56443 0
M  V30 4136 H 380.601 -6.56677 1.66677 0
M  V30 4137 H 381.544 -6.33052 3.17256 0
M  V30 4138 H 381.952 -5.37838 1.71436 0
M  V30 4139 N 381.35 -0.985608 -1.22978 0
M  V30 4140 C 382.282 -0.488154 -2.23941 0
M  V30 4141 C 383.295 0.41282 -1.57479 0
M  V30 4142 O 384.484 0.216121 -1.77187 0
M  V30 4143 C 381.584 0.312611 -3.37455 0
M  V30 4144 C 380.757 -0.582741 -4.33501 0
M  V30 4145 C 379.816 0.165064 -5.25941 0
M  V30 4146 O 378.842 -0.447077 -5.67442 0
M  V30 4147 N 380.044 1.44953 -5.62111 0
M  V30 4148 H 382.809 -1.3563 -2.67254 0
M  V30 4149 H 380.37 -0.859477 -1.37203 0
M  V30 4150 H 382.362 0.821357 -3.96277 0
M  V30 4151 H 380.932 1.0818 -2.93285 0
M  V30 4152 H 380.152 -1.27225 -3.73105 0
M  V30 4153 H 381.44 -1.19275 -4.94622 0
M  V30 4154 H 380.838 1.9683 -5.30353 0
M  V30 4155 H 379.395 1.90361 -6.23383 0
M  V30 4156 N 382.828 1.3818 -0.7579 0
M  V30 4157 C 383.758 2.33027 -0.148597 0
M  V30 4158 C 384.739 1.55085 0.69875 0
M  V30 4159 O 385.924 1.83384 0.639053 0
M  V30 4160 C 383.054 3.3928 0.742034 0
M  V30 4161 C 382.008 4.28 -0.00291946 0
M  V30 4162 C 381.334 5.25146 1.00625 0
M  V30 4163 C 382.634 5.08938 -1.17385 0
M  V30 4164 H 384.328 2.84231 -0.940909 0
M  V30 4165 H 381.874 1.36659 -0.453908 0
M  V30 4166 H 383.827 4.046 1.17799 0
M  V30 4167 H 382.551 2.86569 1.56671 0
M  V30 4168 H 381.21 3.64192 -0.419504 0
M  V30 4169 H 380.858 4.68721 1.8251 0
M  V30 4170 H 380.558 5.85361 0.512428 0
M  V30 4171 H 382.082 5.93342 1.44143 0
M  V30 4172 H 383.496 5.67474 -0.815224 0
M  V30 4173 H 381.893 5.7841 -1.59882 0
M  V30 4174 H 382.963 4.42424 -1.98468 0
M  V30 4175 N 384.306 0.507319 1.49211 0
M  V30 4176 C 385.216 -0.272136 2.33016 0
M  V30 4177 C 386.232 -0.961206 1.45041 0
M  V30 4178 O 387.408 -0.941191 1.78055 0
M  V30 4179 C 384.473 -1.31895 3.20631 0
M  V30 4180 C 383.534 -0.642648 4.24463 0
M  V30 4181 C 382.767 -1.63959 5.07891 0
M  V30 4182 O 382.99 -2.87007 4.92933 0
M  V30 4183 O 381.924 -1.19143 5.8999 0
M  V30 4184 H 385.75 0.413982 3.00865 0
M  V30 4185 H 383.335 0.268556 1.46966 0
M  V30 4186 H 385.217 -1.92446 3.7489 0
M  V30 4187 H 383.892 -1.98788 2.5547 0
M  V30 4188 H 382.799 0.00276252 3.741 0
M  V30 4189 H 384.132 -0.0160534 4.92197 0
M  V30 4190 N 385.784 -1.5574 0.241426 0
M  V30 4191 C 387.061 -1.90704 -0.434881 0
M  V30 4192 C 387.441 -1.16145 -1.76277 0
M  V30 4193 O 386.789 -0.277152 -2.26813 0
M  V30 4194 C 386.999 -3.43657 -0.608343 0
M  V30 4195 C 388.347 -4.14806 -0.906725 0
M  V30 4196 O 389.371 -3.49366 -0.694408 0
M  V30 4197 O 388.23 -5.30548 -1.31075 0
M  V30 4198 H 385.324 -0.793592 -0.23268 0
M  V30 4199 H 387.87 -1.67288 0.285086 0
M  V30 4200 H 386.642 -3.89927 0.327505 0
M  V30 4201 H 386.265 -3.72918 -1.37906 0
M  V30 4202 N 387.262 0.0317525 -1.57568 0
M  V30 4203 C 388.192 1.03274 -2.0942 0
M  V30 4204 C 389.173 1.3788 -0.996143 0
M  V30 4205 O 390.358 1.46811 -1.27122 0
M  V30 4206 C 387.488 2.33448 -2.57137 0
M  V30 4207 C 386.442 2.13091 -3.71182 0
M  V30 4208 C 385.768 3.49001 -4.05095 0
M  V30 4209 C 387.068 1.51928 -4.99715 0
M  V30 4210 H 388.762 0.60112 -2.93303 0
M  V30 4211 H 386.308 0.287705 -1.41097 0
M  V30 4212 H 388.261 3.03802 -2.92032 0
M  V30 4213 H 386.985 2.78665 -1.70333 0
M  V30 4214 H 385.644 1.45171 -3.36632 0
M  V30 4215 H 385.292 3.91862 -3.15362 0
M  V30 4216 H 384.992 3.36207 -4.81911 0
M  V30 4217 H 386.516 4.20721 -4.42522 0
M  V30 4218 H 387.93 2.12196 -5.32584 0
M  V30 4219 H 386.327 1.49716 -5.81124 0
M  V30 4220 H 387.397 0.484811 -4.8247 0
M  V30 4221 N 388.74 1.54641 0.303973 0
M  V30 4222 C 389.687 1.85386 1.37479 0
M  V30 4223 C 390.657 0.702528 1.50512 0
M  V30 4224 O 391.842 0.950867 1.65418 0
M  V30 4225 C 388.982 2.10413 2.73533 0
M  V30 4226 C 388.095 3.38049 2.68974 0
M  V30 4227 C 387.23 3.52934 3.97002 0
M  V30 4228 C 386.269 4.74373 3.86829 0
M  V30 4229 N 385.406 4.8608 5.06627 0
M  V30 4230 H 390.246 2.76732 1.1056 0
M  V30 4231 H 387.783 1.37034 0.534805 0
M  V30 4232 H 389.741 2.22919 3.52652 0
M  V30 4233 H 388.371 1.22338 2.98719 0
M  V30 4234 H 387.423 3.3418 1.81736 0
M  V30 4235 H 388.735 4.27288 2.57346 0
M  V30 4236 H 387.889 3.65088 4.84557 0
M  V30 4237 H 386.628 2.61824 4.1146 0
M  V30 4238 H 385.633 4.62255 2.97658 0
M  V30 4239 H 386.858 5.66888 3.73918 0
M  V30 4240 H 384.804 3.97891 5.21554 0
M  V30 4241 H 384.721 5.69315 4.9741 0
M  V30 4242 H 385.989 5.02587 5.95841 0
M  V30 4243 N 390.218 -0.567019 1.47046 0
M  V30 4244 C 391.15 -1.68985 1.54844 0
M  V30 4245 C 392.163 -1.56869 0.435431 0
M  V30 4246 O 393.352 -1.64006 0.70457 0
M  V30 4247 C 390.452 -3.07373 1.42742 0
M  V30 4248 C 389.625 -3.45339 2.6844 0
M  V30 4249 C 388.684 -4.62849 2.50314 0
M  V30 4250 O 387.71 -4.67922 3.24095 0
M  V30 4251 N 388.912 -5.58726 1.57499 0
M  V30 4252 H 391.677 -1.62745 2.51663 0
M  V30 4253 H 389.238 -0.753411 1.43302 0
M  V30 4254 H 391.23 -3.83803 1.28365 0
M  V30 4255 H 389.8 -3.07893 0.540445 0
M  V30 4256 H 389.02 -2.58455 2.97648 0
M  V30 4257 H 390.308 -3.67476 3.51907 0
M  V30 4258 H 389.706 -5.57376 0.966876 0
M  V30 4259 H 388.263 -6.34523 1.49078 0
M  V30 4260 N 391.696 -1.35014 -0.812953 0
M  V30 4261 C 392.628 -1.23262 -1.93233 0
M  V30 4262 C 393.641 -0.157371 -1.62038 0
M  V30 4263 O 394.83 -0.410096 -1.73725 0
M  V30 4264 C 391.93 -0.87392 -3.27438 0
M  V30 4265 C 391.103 -2.04622 -3.86586 0
M  V30 4266 C 390.162 -1.66432 -4.99186 0
M  V30 4267 O 389.188 -2.38222 -5.16951 0
M  V30 4268 N 390.39 -0.584248 -5.77552 0
M  V30 4269 H 393.155 -2.19699 -2.03844 0
M  V30 4270 H 390.716 -1.281 -0.99005 0
M  V30 4271 H 392.708 -0.600039 -4.00227 0
M  V30 4272 H 391.278 0.00057392 -3.126 0
M  V30 4273 H 390.498 -2.48427 -3.06068 0
M  V30 4274 H 391.786 -2.82999 -4.22835 0
M  V30 4275 H 391.184 0.0123526 -5.65699 0
M  V30 4276 H 389.741 -0.37013 -6.50748 0
M  V30 4277 N 393.175 1.03435 -1.18907 0
M  V30 4278 C 394.105 2.13503 -0.945448 0
M  V30 4279 C 395.086 1.69682 0.119189 0
M  V30 4280 O 396.271 1.94169 -0.034707 0
M  V30 4281 C 393.401 3.44004 -0.477316 0
M  V30 4282 C 392.355 4.0148 -1.48316 0
M  V30 4283 C 391.681 5.27537 -0.872311 0
M  V30 4284 C 392.981 4.36921 -2.86177 0
M  V30 4285 H 394.675 2.34141 -1.86597 0
M  V30 4286 H 392.221 1.12523 -0.898584 0
M  V30 4287 H 394.174 4.20372 -0.294204 0
M  V30 4288 H 392.898 3.23072 0.478786 0
M  V30 4289 H 391.557 3.27201 -1.65332 0
M  V30 4290 H 391.205 5.02917 0.0911752 0
M  V30 4291 H 390.905 5.66954 -1.54393 0
M  V30 4292 H 392.429 6.06576 -0.699871 0
M  V30 4293 H 393.843 5.04248 -2.72776 0
M  V30 4294 H 392.24 4.87405 -3.50081 0
M  V30 4295 H 393.31 3.46466 -3.39248 0
M  V30 4296 N 394.653 0.992116 1.22453 0
M  V30 4297 C 395.585 0.500024 2.23679 0
M  V30 4298 C 396.598 -0.404463 1.57696 0
M  V30 4299 O 397.787 -0.206722 1.77299 0
M  V30 4300 C 394.887 -0.294711 3.37616 0
M  V30 4301 C 394.06 0.605723 4.33186 0
M  V30 4302 C 393.119 -0.13717 5.26021 0
M  V30 4303 O 392.145 0.477164 5.67196 0
M  V30 4304 N 393.347 -1.4197 5.62872 0
M  V30 4305 H 396.112 1.37045 2.66531 0
M  V30 4306 H 393.673 0.866741 1.36745 0
M  V30 4307 H 395.665 -0.800329 3.96707 0
M  V30 4308 H 394.235 -1.06623 2.93854 0
M  V30 4309 H 393.455 1.29202 3.72425 0
M  V30 4310 H 394.743 1.21896 4.93983 0
M  V30 4311 H 394.141 -1.94015 5.31389 0
M  V30 4312 H 392.698 -1.87052 6.24383 0
M  V30 4313 N 396.131 -1.37776 0.765217 0
M  V30 4314 C 397.063 -2.28958 0.105361 0
M  V30 4315 C 398.076 -1.48316 -0.67128 0
M  V30 4316 O 399.265 -1.71046 -0.51045 0
M  V30 4317 C 396.365 -3.27421 -0.874569 0
M  V30 4318 C 395.538 -4.37132 -0.153123 0
M  V30 4319 C 394.597 -5.1571 -1.04547 0
M  V30 4320 O 393.623 -5.66896 -0.511672 0
M  V30 4321 N 394.825 -5.29808 -2.37243 0
M  V30 4322 H 397.59 -2.86227 0.888495 0
M  V30 4323 H 395.151 -1.49682 0.617 0
M  V30 4324 H 397.143 -3.7687 -1.47483 0
M  V30 4325 H 395.713 -2.70967 -1.55871 0
M  V30 4326 H 394.933 -3.89166 0.627975 0
M  V30 4327 H 396.221 -5.07625 0.345643 0
M  V30 4328 H 395.619 -4.89793 -2.83054 0
M  V30 4329 H 394.176 -5.82589 -2.9229 0
M  V30 4330 N 397.609 -0.515225 -1.4894 0
M  V30 4331 C 398.572 0.244681 -2.2789 0
M  V30 4332 C 399.572 0.881166 -1.34507 0
M  V30 4333 O 400.762 0.743497 -1.57537 0
M  V30 4334 C 397.894 1.35247 -3.12923 0
M  V30 4335 H 399.087 -0.448289 -2.96531 0
M  V30 4336 H 396.64 -0.270656 -1.53939 0
M  V30 4337 H 397.375 2.07916 -2.48881 0
M  V30 4338 H 397.16 0.901374 -3.81599 0
M  V30 4339 H 398.65 1.88737 -3.72516 0
M  V30 4340 N 399.087 1.5561 -0.249682 0
M  V30 4341 C 399.997 2.25143 0.659375 0
M  V30 4342 C 401.013 1.2685 1.19101 0
M  V30 4343 O 402.189 1.59732 1.22669 0
M  V30 4344 C 399.254 2.93945 1.8384 0
M  V30 4345 C 398.315 4.07655 1.34596 0
M  V30 4346 C 397.548 4.73167 2.46878 0
M  V30 4347 O 397.771 4.37768 3.65671 0
M  V30 4348 O 396.705 5.61623 2.16478 0
M  V30 4349 H 400.531 3.03545 0.0968698 0
M  V30 4350 H 398.116 1.49389 -0.018074 0
M  V30 4351 H 399.998 3.37271 2.52638 0
M  V30 4352 H 398.673 2.18481 2.38847 0
M  V30 4353 H 397.58 3.68839 0.625174 0
M  V30 4354 H 398.913 4.84946 0.841941 0
M  V30 4355 N 400.565 -0.0233959 1.57583 0
M  V30 4356 C 401.475 -1.03907 2.10334 0
M  V30 4357 C 402.491 -1.39257 1.04323 0
M  V30 4358 O 403.667 -1.48462 1.36091 0
M  V30 4359 C 400.732 -2.31938 2.57693 0
M  V30 4360 C 399.793 -2.03117 3.78209 0
M  V30 4361 C 399.026 -3.25043 4.233 0
M  V30 4362 O 399.249 -4.35916 3.67876 0
M  V30 4363 O 398.183 -3.10411 5.15683 0
M  V30 4364 H 402.009 -0.620748 2.97288 0
M  V30 4365 H 399.594 -0.240743 1.47448 0
M  V30 4366 H 401.476 -3.07196 2.88458 0
M  V30 4367 H 400.151 -2.73055 1.73847 0
M  V30 4368 H 399.058 -1.25408 3.52454 0
M  V30 4369 H 400.391 -1.66852 4.63056 0
M  V30 4370 N 402.043 -1.548 -0.295768 0
M  V30 4371 C 403.006 -1.85363 -1.34808 0
M  V30 4372 C 404.006 -0.726817 -1.43436 0
M  V30 4373 O 405.196 -0.995088 -1.42981 0
M  V30 4374 C 402.328 -2.03859 -2.73229 0
M  V30 4375 H 403.521 -2.7941 -1.08949 0
M  V30 4376 H 401.074 -1.46942 -0.532702 0
M  V30 4377 H 401.809 -1.12117 -3.04303 0
M  V30 4378 H 401.594 -2.8588 -2.68356 0
M  V30 4379 H 403.084 -2.28857 -3.49305 0
M  V30 4380 N 403.521 0.559213 -1.47345 0
M  V30 4381 C 404.451 1.67622 -1.62558 0
M  V30 4382 C 405.432 1.63331 -0.475087 0
M  V30 4383 O 406.617 1.80983 -0.704182 0
M  V30 4384 C 403.747 3.0626 -1.63774 0
M  V30 4385 C 402.701 3.25397 -2.7803 0
M  V30 4386 C 402.027 4.64801 -2.64318 0
M  V30 4387 C 403.327 3.10965 -4.19641 0
M  V30 4388 H 405.021 1.55146 -2.56067 0
M  V30 4389 H 402.567 0.744961 -1.23233 0
M  V30 4390 H 404.52 3.84247 -1.73008 0
M  V30 4391 H 403.244 3.1969 -0.66825 0
M  V30 4392 H 401.903 2.49817 -2.68304 0
M  V30 4393 H 401.551 4.75028 -1.65401 0
M  V30 4394 H 401.251 4.78555 -3.40968 0
M  V30 4395 H 402.775 5.44926 -2.75478 0
M  V30 4396 H 404.189 3.78772 -4.30354 0
M  V30 4397 H 402.586 3.36229 -4.97062 0
M  V30 4398 H 403.656 2.07736 -4.38148 0
M  V30 4399 N 404.999 1.35443 0.805782 0
M  V30 4400 C 406.245 1.28952 1.56522 0
M  V30 4401 C 406.578 -0.135597 1.93726 0
M  V30 4402 O 405.853 -1.08516 1.61414 0
M  V30 4403 C 406.136 2.19678 2.85331 0
M  V30 4404 C 405.989 3.7081 2.54598 0
M  V30 4405 C 407.308 2.09495 3.8704 0
M  V30 4406 H 404.427 0.469764 0.567883 0
M  V30 4407 H 407.069 1.65851 0.927001 0
M  V30 4408 H 405.219 1.8834 3.39795 0
M  V30 4409 H 406.891 4.12593 2.06312 0
M  V30 4410 H 405.134 3.91051 1.8778 0
M  V30 4411 H 405.805 4.29679 3.46525 0
M  V30 4412 H 408.281 2.37045 3.41978 0
M  V30 4413 H 407.157 2.75173 4.74943 0
M  V30 4414 H 407.418 1.07714 4.28777 0
M  V30 4415 N 406.477 -1.02803 1.19454 0
M  V30 4416 C 407.44 -2.09264 0.934955 0
M  V30 4417 C 408.44 -1.60576 -0.0849015 0
M  V30 4418 O 409.63 -1.73554 0.149933 0
M  V30 4419 C 406.762 -3.38482 0.40531 0
M  V30 4420 H 407.955 -2.33726 1.87916 0
M  V30 4421 H 405.508 -1.19426 1.00832 0
M  V30 4422 H 406.243 -3.19689 -0.544899 0
M  V30 4423 H 406.028 -3.75142 1.14065 0
M  V30 4424 H 407.518 -4.16894 0.242806 0
M  V30 4425 N 407.956 -0.998596 -1.21925 0
M  V30 4426 C 408.903 -0.553621 -2.24062 0
M  V30 4427 C 409.873 0.416999 -1.6078 0
M  V30 4428 O 411.058 0.320482 -1.88089 0
M  V30 4429 C 408.198 0.119959 -3.44891 0
M  V30 4430 C 407.311 -0.893077 -4.22668 0
M  V30 4431 C 406.446 -0.192424 -5.30851 0
M  V30 4432 C 405.485 -1.19344 -6.00353 0
M  V30 4433 N 404.622 -0.520707 -7.00166 0
M  V30 4434 H 409.462 -1.4293 -2.61486 0
M  V30 4435 H 406.999 -0.715838 -1.28507 0
M  V30 4436 H 408.957 0.527459 -4.13852 0
M  V30 4437 H 407.587 0.959389 -3.08214 0
M  V30 4438 H 406.639 -1.41886 -3.52948 0
M  V30 4439 H 407.951 -1.65512 -4.70539 0
M  V30 4440 H 407.105 0.271515 -6.06092 0
M  V30 4441 H 405.844 0.602075 -4.83969 0
M  V30 4442 H 404.849 -1.66795 -5.23889 0
M  V30 4443 H 406.074 -1.98891 -6.49322 0
M  V30 4444 H 404.02 0.254252 -6.55507 0
M  V30 4445 H 403.937 -1.2211 -7.46073 0
M  V30 4446 H 405.205 -0.0797596 -7.79459 0
M  V30 4447 N 409.434 1.37368 -0.772513 0
M  V30 4448 C 410.366 2.28899 -0.117502 0
M  V30 4449 C 411.379 1.4867 0.663405 0
M  V30 4450 O 412.568 1.71314 0.501372 0
M  V30 4451 C 409.668 3.2788 0.857192 0
M  V30 4452 C 408.841 4.37207 0.129938 0
M  V30 4453 C 407.9 5.16257 1.01811 0
M  V30 4454 O 406.926 5.67159 0.481601 0
M  V30 4455 N 408.128 5.31058 2.3443 0
M  V30 4456 H 410.893 2.85752 -0.903662 0
M  V30 4457 H 408.454 1.49353 -0.62493 0
M  V30 4458 H 410.446 3.77647 1.45482 0
M  V30 4459 H 409.016 2.7179 1.54432 0
M  V30 4460 H 408.236 3.88827 -0.648605 0
M  V30 4461 H 409.524 5.07434 -0.372559 0
M  V30 4462 H 408.922 4.91287 2.80452 0
M  V30 4463 H 407.479 5.84131 2.89197 0
M  V30 4464 N 410.912 0.523116 1.48665 0
M  V30 4465 C 411.822 -0.247406 2.33292 0
M  V30 4466 C 412.838 -0.945769 1.46052 0
M  V30 4467 O 414.014 -0.922253 1.79043 0
M  V30 4468 C 411.079 -1.28487 3.22012 0
M  V30 4469 C 410.14 -0.597592 4.2512 0
M  V30 4470 C 409.373 -1.58563 5.09601 0
M  V30 4471 O 409.596 -2.81763 4.95949 0
M  V30 4472 O 408.53 -1.12879 5.91221 0
M  V30 4473 H 412.356 0.445869 3.00409 0
M  V30 4474 H 409.941 0.284128 1.46673 0
M  V30 4475 H 411.823 -1.88459 3.7691 0
M  V30 4476 H 410.498 -1.96068 2.57564 0
M  V30 4477 H 409.405 0.0424407 3.74076 0
M  V30 4478 H 410.738 0.0361517 4.92187 0
M  V30 4479 N 412.39 -1.55475 0.257931 0
M  V30 4480 C 413.636 -1.99502 -0.364266 0
M  V30 4481 C 413.969 -1.146 -1.56782 0
M  V30 4482 O 413.244 -0.211968 -1.93342 0
M  V30 4483 C 413.527 -3.51917 -0.763333 0
M  V30 4484 C 413.38 -4.4758 0.446371 0
M  V30 4485 C 414.699 -4.09742 -1.60623 0
M  V30 4486 H 411.818 -0.725277 -0.130929 0
M  V30 4487 H 414.46 -1.8653 0.361446 0
M  V30 4488 H 412.61 -3.63101 -1.38166 0
M  V30 4489 H 414.282 -4.48362 1.08487 0
M  V30 4490 H 412.525 -4.19947 1.08753 0
M  V30 4491 H 413.196 -5.51862 0.123645 0
M  V30 4492 H 415.672 -4.01727 -1.08418 0
M  V30 4493 H 414.548 -5.16631 -1.85429 0
M  V30 4494 H 414.809 -3.58889 -2.58169 0
M  V30 4495 N 413.868 0.0150385 -1.57593 0
M  V30 4496 C 415.117 0.702115 -1.89085 0
M  V30 4497 C 415.43 1.75764 -0.858277 0
M  V30 4498 O 416.636 2.49829 -1.0629 0
M  V30 4499 C 415.092 1.29992 -3.35604 0
M  V30 4500 C 414.7 0.280007 -4.47124 0
M  V30 4501 C 416.444 1.96606 -3.76227 0
M  V30 4502 C 414.351 0.886949 -5.84711 0
M  V30 4503 H 413.281 0.265997 -0.705522 0
M  V30 4504 H 415.932 -0.0430408 -1.8345 0
M  V30 4505 H 414.314 2.09525 -3.36029 0
M  V30 4506 H 415.488 -0.489631 -4.58191 0
M  V30 4507 H 413.803 -0.284835 -4.15425 0
M  V30 4508 H 416.4 2.42893 -4.76347 0
M  V30 4509 H 416.743 2.79024 -3.08952 0
M  V30 4510 H 417.276 1.23828 -3.78036 0
M  V30 4511 H 414.015 0.101876 -6.55421 0
M  V30 4512 H 413.535 1.6261 -5.77337 0
M  V30 4513 H 415.214 1.39011 -6.3189 0
M  V30 4514 N 415.346 1.54954 0.287554 0
M  V30 4515 C 416.623 1.65569 1.04146 0
M  V30 4516 C 417.003 0.512672 2.0478 0
M  V30 4517 O 416.351 -0.489038 2.23205 0
M  V30 4518 C 416.561 3.04163 1.71131 0
M  V30 4519 C 417.909 3.61429 2.22832 0
M  V30 4520 O 418.933 3.06702 1.81141 0
M  V30 4521 O 417.792 4.57281 2.9926 0
M  V30 4522 H 414.886 0.671881 0.482188 0
M  V30 4523 H 417.432 1.67297 0.28457 0
M  V30 4524 H 416.204 3.78796 0.981303 0
M  V30 4525 H 415.827 3.06271 2.53543 0
M  V30 4526 N 416.824 -0.551391 1.4764 0
M  V30 4527 C 417.771 -1.65796 1.60563 0
M  V30 4528 C 418.741 -1.59932 0.448428 0
M  V30 4529 O 419.926 -1.78679 0.669222 0
M  V30 4530 C 417.066 -3.04108 1.63133 0
M  V30 4531 C 416.179 -3.20365 2.89811 0
M  V30 4532 C 415.314 -4.49109 2.8368 0
M  V30 4533 C 414.353 -4.58819 4.05156 0
M  V30 4534 N 413.49 -5.78926 3.97227 0
M  V30 4535 H 418.33 -1.54088 2.5507 0
M  V30 4536 H 415.867 -0.75052 1.26513 0
M  V30 4537 H 417.825 -3.84207 1.62606 0
M  V30 4538 H 416.455 -3.14637 0.721341 0
M  V30 4539 H 415.507 -2.33659 3.00179 0
M  V30 4540 H 416.819 -3.23402 3.79753 0
M  V30 4541 H 415.973 -5.37475 2.81434 0
M  V30 4542 H 414.712 -4.4856 1.91431 0
M  V30 4543 H 413.717 -3.68864 4.077 0
M  V30 4544 H 414.942 -4.61124 4.98539 0
M  V30 4545 H 412.888 -5.79314 3.07785 0
M  V30 4546 H 412.805 -5.83367 4.80853 0
M  V30 4547 H 414.073 -6.69637 3.99007 0
M  V30 4548 N 418.302 -1.35869 -0.798587 0
M  V30 4549 C 419.232 -1.32118 -1.92528 0
M  V30 4550 C 420.213 -0.194209 -1.68988 0
M  V30 4551 O 421.398 -0.390426 -1.90235 0
M  V30 4552 C 418.528 -1.10047 -3.29404 0
M  V30 4553 C 417.482 -2.19471 -3.67446 0
M  V30 4554 C 416.808 -1.82555 -5.02571 0
M  V30 4555 C 418.108 -3.61495 -3.76987 0
M  V30 4556 H 419.802 -2.26394 -1.95924 0
M  V30 4557 H 417.348 -1.08981 -0.94123 0
M  V30 4558 H 419.301 -1.06061 -4.07835 0
M  V30 4559 H 418.025 -0.122195 -3.26371 0
M  V30 4560 H 416.684 -2.22568 -2.91306 0
M  V30 4561 H 416.332 -0.833249 -4.9605 0
M  V30 4562 H 416.032 -2.5581 -5.28995 0
M  V30 4563 H 417.556 -1.80108 -5.83432 0
M  V30 4564 H 418.97 -3.60676 -4.4563 0
M  V30 4565 H 417.367 -4.33577 -4.14887 0
M  V30 4566 H 418.437 -3.97065 -2.78329 0
M  V30 4567 N 419.78 1.02168 -1.19998 0
M  V30 4568 C 420.727 2.10601 -0.944228 0
M  V30 4569 C 421.697 1.65639 0.123664 0
M  V30 4570 O 422.882 1.9079 -0.0199941 0
M  V30 4571 C 420.022 3.41504 -0.496865 0
M  V30 4572 C 419.135 3.99973 -1.63234 0
M  V30 4573 C 418.27 5.18915 -1.13579 0
M  V30 4574 C 417.309 5.69456 -2.24468 0
M  V30 4575 N 416.446 6.79665 -1.76068 0
M  V30 4576 H 421.286 2.31814 -1.8726 0
M  V30 4577 H 418.823 1.13686 -0.933483 0
M  V30 4578 H 420.781 4.16626 -0.218843 0
M  V30 4579 H 419.411 3.2038 0.394508 0
M  V30 4580 H 418.463 3.21997 -2.0254 0
M  V30 4581 H 419.775 4.33492 -2.46752 0
M  V30 4582 H 418.929 6.01222 -0.813429 0
M  V30 4583 H 417.668 4.8695 -0.270434 0
M  V30 4584 H 416.673 4.85757 -2.57526 0
M  V30 4585 H 417.898 6.03459 -3.11472 0
M  V30 4586 H 415.844 6.49538 -0.918516 0
M  V30 4587 H 415.761 7.12349 -2.5317 0
M  V30 4588 H 417.029 7.65549 -1.46817 0
M  V30 4589 N 421.258 1.00505 1.21394 0
M  V30 4590 C 422.168 0.574806 2.27449 0
M  V30 4591 C 423.184 -0.382206 1.6975 0
M  V30 4592 O 424.36 -0.246027 1.99892 0
M  V30 4593 C 421.425 -0.0917414 3.46579 0
M  V30 4594 C 420.486 0.909758 4.1955 0
M  V30 4595 C 419.719 0.274924 5.32991 0
M  V30 4596 O 419.942 -0.928254 5.62796 0
M  V30 4597 O 418.876 0.985877 5.93771 0
M  V30 4598 H 422.702 1.45744 2.66444 0
M  V30 4599 H 420.287 0.773923 1.27792 0
M  V30 4600 H 422.169 -0.464551 4.18832 0
M  V30 4601 H 420.844 -0.948755 3.09484 0
M  V30 4602 H 419.751 1.33372 3.49518 0
M  V30 4603 H 421.084 1.73636 4.60555 0
M  V30 4604 N 422.737 -1.36956 0.779787 0
M  V30 4605 C 423.647 -2.33965 0.172491 0
M  V30 4606 C 424.663 -1.60574 -0.670222 0
M  V30 4607 O 425.839 -1.92617 -0.588263 0
M  V30 4608 C 422.904 -3.39761 -0.690173 0
M  V30 4609 C 421.965 -4.28964 0.169924 0
M  V30 4610 C 421.198 -5.29707 -0.651662 0
M  V30 4611 O 421.421 -5.38238 -1.88827 0
M  V30 4612 O 420.355 -6.01873 -0.0566264 0
M  V30 4613 H 424.181 -2.87647 0.974321 0
M  V30 4614 H 421.766 -1.39258 0.541078 0
M  V30 4615 H 423.648 -4.04471 -1.1824 0
M  V30 4616 H 422.323 -2.88394 -1.47006 0
M  V30 4617 H 421.23 -3.67326 0.708696 0
M  V30 4618 H 422.563 -4.83656 0.913085 0
M  V30 4619 N 424.215 -0.530993 -1.48385 0
M  V30 4620 C 425.178 0.220497 -2.28137 0
M  V30 4621 C 426.178 0.866851 -1.35434 0
M  V30 4622 O 427.368 0.726746 -1.58316 0
M  V30 4623 C 424.5 1.31921 -3.1434 0
M  V30 4624 H 425.693 -0.479714 -2.96038 0
M  V30 4625 H 423.246 -0.286968 -1.53643 0
M  V30 4626 H 423.981 2.05264 -2.51072 0
M  V30 4627 H 423.766 0.86085 -3.82533 0
M  V30 4628 H 425.256 1.84776 -3.74497 0
M  V30 4629 N 425.693 1.55336 -0.266172 0
M  V30 4630 C 426.603 2.2583 0.635458 0
M  V30 4631 C 427.619 1.28106 1.17749 0
M  V30 4632 O 428.795 1.61024 1.20968 0
M  V30 4633 C 425.86 2.95879 1.80712 0
M  V30 4634 C 424.921 4.09059 1.30265 0
M  V30 4635 C 424.154 4.75759 2.41846 0
M  V30 4636 O 424.377 4.41622 3.61007 0
M  V30 4637 O 423.311 5.63888 2.1051 0
M  V30 4638 H 427.137 3.03631 0.0646693 0
M  V30 4639 H 424.722 1.49361 -0.0339177 0
M  V30 4640 H 426.604 3.39932 2.49047 0
M  V30 4641 H 425.279 2.21002 2.36516 0
M  V30 4642 H 424.186 3.69482 0.586019 0
M  V30 4643 H 425.519 4.85811 0.790458 0
M  V30 4644 N 427.171 -0.0066808 1.57599 0
M  V30 4645 C 428.103 -1.02827 2.04839 0
M  V30 4646 C 429.116 -1.31108 0.965113 0
M  V30 4647 O 430.305 -1.28202 1.24203 0
M  V30 4648 C 427.405 -2.36464 2.42771 0
M  V30 4649 C 426.578 -2.27219 3.73751 0
M  V30 4650 C 425.637 -3.43489 3.98625 0
M  V30 4651 O 424.663 -3.21976 4.69382 0
M  V30 4652 N 425.865 -4.66116 3.46 0
M  V30 4653 H 428.63 -0.625455 2.93101 0
M  V30 4654 H 426.191 -0.194198 1.60731 0
M  V30 4655 H 428.183 -3.13008 2.56531 0
M  V30 4656 H 426.753 -2.68512 1.60063 0
M  V30 4657 H 425.973 -1.35629 3.70133 0
M  V30 4658 H 427.261 -2.18208 4.59633 0
M  V30 4659 H 426.659 -4.86493 2.88688 0
M  V30 4660 H 425.216 -5.39949 3.65101 0
M  V30 4661 N 428.649 -1.55105 -0.279332 0
M  V30 4662 C 429.599 -1.83937 -1.34727 0
M  V30 4663 C 430.583 -0.69785 -1.44979 0
M  V30 4664 O 431.775 -0.95904 -1.48766 0
M  V30 4665 C 428.904 -2.1092 -2.70864 0
M  V30 4666 C 427.99 -3.31314 -2.64748 0
M  V30 4667 N 428.381 -4.51371 -2.2825 0
M  V30 4668 C 426.679 -3.33777 -2.95819 0
M  V30 4669 C 427.38 -5.33447 -2.31969 0
M  V30 4670 N 426.356 -4.71697 -2.7019 0
M  V30 4671 H 430.158 -2.74309 -1.05506 0
M  V30 4672 H 427.672 -1.54896 -0.487959 0
M  V30 4673 H 429.669 -2.2973 -3.47893 0
M  V30 4674 H 428.329 -1.21828 -3.00979 0
M  V30 4675 H 429.34 -4.77584 -2.00335 0
M  V30 4676 H 426.017 -2.54858 -3.30687 0
M  V30 4677 H 427.407 -6.39424 -2.06365 0
M  V30 4678 N 430.127 0.543554 -1.4793 0
M  V30 4679 C 431.074 1.64942 -1.6144 0
M  V30 4680 C 432.044 1.59692 -0.456903 0
M  V30 4681 O 433.229 1.78321 -0.678688 0
M  V30 4682 C 430.369 3.03238 -1.64744 0
M  V30 4683 C 429.482 3.18823 -2.91506 0
M  V30 4684 C 428.617 4.47599 -2.86057 0
M  V30 4685 C 427.656 4.56664 -4.07584 0
M  V30 4686 N 426.793 5.76811 -4.00292 0
M  V30 4687 H 431.633 1.52733 -2.55884 0
M  V30 4688 H 429.17 0.7438 -1.2691 0
M  V30 4689 H 431.128 3.83339 -1.64641 0
M  V30 4690 H 429.758 3.1425 -0.738017 0
M  V30 4691 H 428.81 2.32064 -3.01414 0
M  V30 4692 H 430.122 3.21384 -3.81463 0
M  V30 4693 H 429.276 5.35975 -2.84281 0
M  V30 4694 H 428.015 4.47538 -1.93807 0
M  V30 4695 H 427.02 3.66697 -4.09651 0
M  V30 4696 H 428.245 4.58474 -5.00978 0
M  V30 4697 H 426.191 5.77673 -3.10853 0
M  V30 4698 H 426.108 5.80808 -4.8394 0
M  V30 4699 H 427.376 6.67512 -4.02553 0
M  V30 4700 N 431.605 1.3629 0.791371 0
M  V30 4701 C 432.854 1.29742 1.54434 0
M  V30 4702 C 433.167 -0.121729 1.95221 0
M  V30 4703 O 434.373 -0.309579 2.69729 0
M  V30 4704 C 432.829 2.27623 2.78776 0
M  V30 4705 C 432.437 3.74963 2.45166 0
M  V30 4706 C 434.181 2.30047 3.56761 0
M  V30 4707 C 432.088 4.64626 3.65891 0
M  V30 4708 H 431.018 0.482113 0.579727 0
M  V30 4709 H 433.669 1.61642 0.868565 0
M  V30 4710 H 432.051 1.88714 3.48142 0
M  V30 4711 H 433.225 4.22596 1.83709 0
M  V30 4712 H 431.54 3.75295 1.80396 0
M  V30 4713 H 434.137 2.94247 4.46456 0
M  V30 4714 H 434.48 1.30846 3.95203 0
M  V30 4715 H 435.013 2.67563 2.94372 0
M  V30 4716 H 431.752 5.64883 3.32547 0
M  V30 4717 H 431.272 4.2171 4.26521 0
M  V30 4718 H 432.951 4.80801 4.32943 0
M  V30 4719 N 433.083 -1.0153 1.20538 0
M  V30 4720 C 434.329 -1.75408 1.01783 0
M  V30 4721 C 434.662 -1.88943 -0.448814 0
M  V30 4722 O 433.937 -1.4162 -1.33319 0
M  V30 4723 C 434.22 -3.17255 1.70356 0
M  V30 4724 C 434.073 -3.11508 3.24473 0
M  V30 4725 C 435.392 -4.15955 1.43769 0
M  V30 4726 H 432.511 -0.636713 0.371167 0
M  V30 4727 H 435.153 -1.18436 1.4857 0
M  V30 4728 H 433.303 -3.65898 1.30578 0
M  V30 4729 H 434.975 -2.70658 3.73553 0
M  V30 4730 H 433.218 -2.4887 3.55311 0
M  V30 4731 H 433.889 -4.11784 3.67611 0
M  V30 4732 H 436.365 -3.75973 1.7828 0
M  V30 4733 H 435.241 -5.13368 1.94279 0
M  V30 4734 H 435.502 -4.40586 0.365564 0
M  V30 4735 N 434.561 -1.01147 -1.20859 0
M  V30 4736 C 435.494 -0.522108 -2.22147 0
M  V30 4737 C 436.472 0.427686 -1.56874 0
M  V30 4738 O 437.656 0.34889 -1.85243 0
M  V30 4739 C 434.783 0.240819 -3.37843 0
M  V30 4740 C 433.829 -0.657752 -4.21398 0
M  V30 4741 S 434.662 -2.12393 -4.91578 0
M  V30 4742 C 435.818 -1.37102 -6.10699 0
M  V30 4743 H 436.051 -1.38035 -2.63313 0
M  V30 4744 H 433.584 -0.819941 -1.30829 0
M  V30 4745 H 435.542 0.674908 -4.04914 0
M  V30 4746 H 434.203 1.07457 -2.95147 0
M  V30 4747 H 433.396 -0.0697456 -5.03952 0
M  V30 4748 H 432.998 -1.0294 -3.59555 0
M  V30 4749 H 435.29 -0.648315 -6.74391 0
M  V30 4750 H 436.233 -2.17252 -6.73949 0
M  V30 4751 H 436.641 -0.876154 -5.57659 0
M  V30 4752 N 436.039 1.36541 -0.78704 0
M  V30 4753 C 436.949 2.3387 -0.184896 0
M  V30 4754 C 437.965 1.60927 0.661697 0
M  V30 4755 O 439.141 1.92927 0.57804 0
M  V30 4756 C 436.206 3.40122 0.672145 0
M  V30 4757 C 435.267 4.28867 -0.19267 0
M  V30 4758 C 434.5 5.30045 0.623561 0
M  V30 4759 O 434.723 5.39232 1.8597 0
M  V30 4760 O 433.657 6.01895 0.0247068 0
M  V30 4761 H 437.483 2.87126 -0.989562 0
M  V30 4762 H 435.068 1.38969 -0.548455 0
M  V30 4763 H 436.95 4.05093 1.16094 0
M  V30 4764 H 435.625 2.89169 1.45474 0
M  V30 4765 H 434.532 3.66945 -0.728166 0
M  V30 4766 H 435.865 4.83165 -0.938722 0
M  V30 4767 N 437.518 0.538854 1.48102 0
M  V30 4768 C 438.746 0.0123136 2.06896 0
M  V30 4769 C 439.161 -1.27312 1.39417 0
M  V30 4770 O 438.518 -1.75949 0.484582 0
M  V30 4771 C 438.569 -0.206118 3.60912 0
M  V30 4772 O 438.29 1.0284 4.25859 0
M  V30 4773 C 439.791 -0.772033 4.36526 0
M  V30 4774 H 437.011 0.0375239 0.66995 0
M  V30 4775 H 439.555 0.747032 1.90367 0
M  V30 4776 H 437.71 -0.89091 3.77017 0
M  V30 4777 H 438.124 0.814654 5.18135 0
M  V30 4778 H 439.598 -0.874251 5.45033 0
M  V30 4779 H 440.075 -1.77904 4.01555 0
M  V30 4780 H 440.681 -0.123526 4.25121 0
M  V30 4781 N 438.996 -1.55193 0.274407 0
M  V30 4782 C 440.242 -1.99877 -0.343086 0
M  V30 4783 C 440.575 -1.16256 -1.55558 0
M  V30 4784 O 439.85 -0.232462 -1.93106 0
M  V30 4785 C 440.133 -3.52706 -0.725965 0
M  V30 4786 C 439.986 -4.47081 0.493818 0
M  V30 4787 C 441.305 -4.11422 -1.56268 0
M  V30 4788 H 438.424 -0.726625 -0.123229 0
M  V30 4789 H 441.066 -1.86136 0.38121 0
M  V30 4790 H 439.216 -3.64546 -1.34307 0
M  V30 4791 H 440.888 -4.47186 1.13237 0
M  V30 4792 H 439.131 -4.1877 1.13201 0
M  V30 4793 H 439.802 -5.51699 0.18217 0
M  V30 4794 H 442.278 -4.02855 -1.04151 0
M  V30 4795 H 441.154 -5.18568 -1.79939 0
M  V30 4796 H 441.415 -3.61607 -2.54348 0
M  V30 4797 N 440.474 -0.00167713 -1.576 0
M  V30 4798 C 441.885 0.54091 -1.78693 0
M  V30 4799 C 442.236 1.7386 -0.909247 0
M  V30 4800 O 441.361 2.16109 -0.112176 0
M  V30 4801 C 441.956 0.98806 -3.24072 0
M  V30 4802 C 440.515 1.47594 -3.46256 0
M  V30 4803 C 439.662 0.42792 -2.73978 0
M  V30 4804 H 442.613 -0.22784 -1.57056 0
M  V30 4805 H 442.634 1.85398 -3.32277 0
M  V30 4806 H 442.146 0.116164 -3.87926 0
M  V30 4807 H 440.247 2.36868 -2.87618 0
M  V30 4808 H 440.36 1.50225 -4.54939 0
M  V30 4809 H 438.724 0.889934 -2.38647 0
M  V30 4810 H 439.507 -0.435038 -3.40532 0
M  V30 4811 N 441.952 1.55251 0.271103 0
M  V30 4812 C 443.198 1.76207 1.00394 0
M  V30 4813 C 443.531 0.562604 1.85872 0
M  V30 4814 O 442.806 -0.439785 1.89463 0
M  V30 4815 C 443.089 3.06828 1.8849 0
M  V30 4816 C 442.942 4.37134 1.05992 0
M  V30 4817 C 444.261 3.33503 2.87165 0
M  V30 4818 H 441.38 0.641086 0.363562 0
M  V30 4819 H 444.022 1.87982 0.276189 0
M  V30 4820 H 442.172 2.96921 2.5054 0
M  V30 4821 H 443.844 4.59001 0.459978 0
M  V30 4822 H 442.087 4.32275 0.363443 0
M  V30 4823 H 442.758 5.2486 1.70955 0
M  V30 4824 H 445.234 3.43215 2.3525 0
M  V30 4825 H 444.11 4.2616 3.45946 0
M  V30 4826 H 444.371 2.53235 3.62387 0
M  V30 4827 N 443.43 -0.535701 1.48216 0
M  V30 4828 C 444.36 -1.65014 1.65204 0
M  V30 4829 C 445.341 -1.62554 0.501011 0
M  V30 4830 O 446.526 -1.7984 0.732886 0
M  V30 4831 C 443.656 -3.03616 1.68626 0
M  V30 4832 C 442.61 -3.20932 2.83172 0
M  V30 4833 C 441.936 -4.60537 2.71679 0
M  V30 4834 C 443.236 -3.04249 4.24535 0
M  V30 4835 H 444.93 -1.51053 2.58502 0
M  V30 4836 H 442.476 -0.725262 1.24402 0
M  V30 4837 H 444.429 -3.81446 1.79099 0
M  V30 4838 H 443.153 -3.18587 0.719026 0
M  V30 4839 H 441.812 -2.45517 2.72244 0
M  V30 4840 H 441.46 -4.72336 1.72937 0
M  V30 4841 H 441.16 -4.73069 3.48538 0
M  V30 4842 H 442.684 -5.40475 2.84112 0
M  V30 4843 H 444.098 -3.71877 4.36326 0
M  V30 4844 H 442.495 -3.28278 5.02348 0
M  V30 4845 H 443.565 -2.00739 4.41397 0
M  V30 4846 N 444.908 -1.36708 -0.784132 0
M  V30 4847 C 445.855 -1.31466 -1.89698 0
M  V30 4848 C 446.825 -0.18239 -1.65096 0
M  V30 4849 O 448.01 -0.369762 -1.87183 0
M  V30 4850 C 445.15 -1.1151 -3.26588 0
M  V30 4851 C 444.263 -2.33859 -3.63227 0
M  V30 4852 C 443.398 -2.06873 -4.89262 0
M  V30 4853 C 442.437 -3.25154 -5.18595 0
M  V30 4854 N 441.574 -2.978 -6.35814 0
M  V30 4855 H 446.414 -2.26619 -1.93515 0
M  V30 4856 H 443.951 -1.12625 -0.946256 0
M  V30 4857 H 445.909 -0.979653 -4.05535 0
M  V30 4858 H 444.539 -0.200103 -3.22179 0
M  V30 4859 H 443.591 -2.58188 -2.79362 0
M  V30 4860 H 444.903 -3.22109 -3.8085 0
M  V30 4861 H 444.057 -1.90289 -5.76086 0
M  V30 4862 H 442.796 -1.15942 -4.73718 0
M  V30 4863 H 441.801 -3.42292 -4.30251 0
M  V30 4864 H 443.026 -4.1692 -5.36055 0
M  V30 4865 H 440.972 -2.09485 -6.21653 0
M  V30 4866 H 440.889 -3.7959 -6.53794 0
M  V30 4867 H 442.157 -2.84805 -7.25607 0
M  V30 4868 N 446.386 1.0089 -1.21074 0
M  V30 4869 C 447.349 2.0775 -0.968129 0
M  V30 4870 C 448.349 1.6069 0.0593445 0
M  V30 4871 O 449.539 1.73293 -0.177525 0
M  V30 4872 C 446.671 3.37794 -0.459108 0
M  V30 4873 H 447.864 2.30707 -1.9161 0
M  V30 4874 H 445.417 1.17807 -1.02719 0
M  V30 4875 H 446.152 3.20516 0.49397 0
M  V30 4876 H 445.937 3.7328 -1.20019 0
M  V30 4877 H 447.427 4.16454 -0.309099 0
M  V30 4878 N 447.864 1.01787 1.20321 0
M  V30 4879 C 448.796 0.547357 2.22568 0
M  V30 4880 C 449.809 -0.370922 1.58518 0
M  V30 4881 O 450.998 -0.169067 1.77698 0
M  V30 4882 C 448.098 -0.223031 3.38165 0
M  V30 4883 C 447.271 0.697472 4.31803 0
M  V30 4884 C 446.33 -0.025562 5.26194 0
M  V30 4885 O 445.356 0.597367 5.66057 0
M  V30 4886 N 446.558 -1.29999 5.65757 0
M  V30 4887 H 449.323 1.42668 2.63564 0
M  V30 4888 H 446.884 0.895552 1.34876 0
M  V30 4889 H 448.876 -0.716002 3.98316 0
M  V30 4890 H 447.446 -1.00366 2.9605 0
M  V30 4891 H 446.666 1.37073 3.69601 0
M  V30 4892 H 447.954 1.32347 4.91286 0
M  V30 4893 H 447.352 -1.827 5.35385 0
M  V30 4894 H 445.909 -1.73766 6.28211 0
M  V30 4895 N 449.342 -1.36122 0.79427 0
M  V30 4896 C 450.305 -2.28309 0.201889 0
M  V30 4897 C 451.305 -1.49041 -0.603603 0
M  V30 4898 O 452.495 -1.68964 -0.423888 0
M  V30 4899 C 449.627 -3.3321 -0.719978 0
M  V30 4900 H 450.82 -2.82208 1.01481 0
M  V30 4901 H 448.373 -1.45768 0.564037 0
M  V30 4902 H 449.108 -2.84475 -1.55706 0
M  V30 4903 H 448.893 -3.91835 -0.144266 0
M  V30 4904 H 450.383 -4.02044 -1.12916 0
M  V30 4905 N 450.82 -0.546701 -1.47814 0
M  V30 4906 C 452.097 0.0464413 -1.95545 0
M  V30 4907 C 452.477 1.4962 -1.48919 0
M  V30 4908 O 451.825 2.16752 -0.723232 0
M  V30 4909 C 452.035 -0.0881298 -3.48889 0
M  V30 4910 C 453.383 0.0626059 -4.24554 0
M  V30 4911 O 454.407 -0.0151555 -3.56197 0
M  V30 4912 O 453.266 0.228071 -5.46024 0
M  V30 4913 H 450.36 0.0700004 -0.824032 0
M  V30 4914 H 452.906 -0.612482 -1.58262 0
M  V30 4915 H 451.678 -1.09737 -3.75597 0
M  V30 4916 H 451.301 0.608886 -3.9291 0
M  V30 4917 N 452.299 1.55045 -0.282633 0
M  V30 4918 C 453.548 1.98938 0.332667 0
M  V30 4919 C 453.861 1.17455 1.56409 0
M  V30 4920 O 455.067 1.51527 2.25282 0
M  V30 4921 C 453.523 3.54105 0.643226 0
M  V30 4922 C 453.131 4.44374 -0.568814 0
M  V30 4923 C 454.875 4.06569 1.22074 0
M  V30 4924 C 452.782 5.90943 -0.232426 0
M  V30 4925 H 451.712 0.743043 0.128075 0
M  V30 4926 H 454.363 1.79341 -0.388464 0
M  V30 4927 H 452.745 3.69532 1.42346 0
M  V30 4928 H 453.919 4.40718 -1.34551 0
M  V30 4929 H 452.234 4.02585 -1.06369 0
M  V30 4930 H 454.831 5.13626 1.48635 0
M  V30 4931 H 455.174 3.56057 2.15707 0
M  V30 4932 H 455.707 3.94612 0.502621 0
M  V30 4933 H 452.446 6.45567 -1.13683 0
M  V30 4934 H 451.966 5.9765 0.507357 0
M  V30 4935 H 453.645 6.4677 0.172657 0
M  V30 4936 N 453.777 0.010035 1.57597 0
M  V30 4937 C 455.007 -0.682422 1.95004 0
M  V30 4938 C 455.415 -1.67278 0.884014 0
M  V30 4939 O 454.758 -1.83129 -0.144672 0
M  V30 4940 C 454.82 -1.46141 3.28456 0
M  V30 4941 C 454.484 -0.631523 4.52615 0
M  V30 4942 C 455.481 0.0850905 5.1983 0
M  V30 4943 C 453.166 -0.574539 4.99003 0
M  V30 4944 C 455.16 0.847566 6.3174 0
M  V30 4945 C 452.847 0.191655 6.10799 0
M  V30 4946 C 453.845 0.901432 6.77025 0
M  V30 4947 O 453.533 1.65511 7.86677 0
M  V30 4948 H 453.265 -0.194361 0.647456 0
M  V30 4949 H 455.819 0.060312 2.05311 0
M  V30 4950 H 454.049 -2.24885 3.14585 0
M  V30 4951 H 455.738 -2.04016 3.50902 0
M  V30 4952 H 456.504 0.0502812 4.84974 0
M  V30 4953 H 452.383 -1.11654 4.47274 0
M  V30 4954 H 455.927 1.4021 6.83364 0
M  V30 4955 H 451.824 0.228249 6.45096 0
M  V30 4956 H 452.592 1.57287 8.03245 0
M  V30 4957 N 455.255 -1.55392 -0.262866 0
M  V30 4958 C 456.202 -1.88966 -1.32516 0
M  V30 4959 C 457.172 -0.742187 -1.48596 0
M  V30 4960 O 458.357 -0.99439 -1.62839 0
M  V30 4961 C 455.497 -2.17592 -2.67858 0
M  V30 4962 C 454.61 -3.45061 -2.59917 0
M  V30 4963 C 453.745 -3.63336 -3.87505 0
M  V30 4964 C 452.784 -4.84462 -3.74116 0
M  V30 4965 N 451.921 -4.99342 -4.93561 0
M  V30 4966 H 456.761 -2.79566 -1.03184 0
M  V30 4967 H 454.298 -1.38404 -0.498285 0
M  V30 4968 H 456.256 -2.3219 -3.46617 0
M  V30 4969 H 454.886 -1.30215 -2.95371 0
M  V30 4970 H 453.938 -3.38881 -1.72812 0
M  V30 4971 H 455.25 -4.3396 -2.45926 0
M  V30 4972 H 454.404 -3.77807 -4.74707 0
M  V30 4973 H 453.143 -2.72641 -4.04374 0
M  V30 4974 H 452.148 -4.69985 -2.85297 0
M  V30 4975 H 453.373 -5.76603 -3.58757 0
M  V30 4976 H 451.319 -4.1158 -5.10821 0
M  V30 4977 H 451.236 -5.82303 -4.82141 0
M  V30 4978 H 452.504 -5.18208 -5.82306 0
M  V30 4979 N 456.733 0.527833 -1.48498 0
M  V30 4980 C 457.696 1.61439 -1.62696 0
M  V30 4981 C 458.696 1.52824 -0.500136 0
M  V30 4982 O 459.886 1.56456 -0.765976 0
M  V30 4983 C 457.018 3.01063 -1.59918 0
M  V30 4984 H 458.211 1.50189 -2.59583 0
M  V30 4985 H 455.764 0.750055 -1.37127 0
M  V30 4986 H 456.499 3.17818 -0.645163 0
M  V30 4987 H 456.284 3.08725 -2.41726 0
M  V30 4988 H 457.774 3.80057 -1.73051 0
M  V30 4989 N 458.211 1.37122 0.776871 0
M  V30 4990 C 459.488 1.22586 1.52421 0
M  V30 4991 C 459.868 -0.182726 2.10308 0
M  V30 4992 O 459.216 -1.18979 1.9508 0
M  V30 4993 C 459.426 2.31782 2.60918 0
M  V30 4994 C 460.774 2.69071 3.2846 0
M  V30 4995 O 461.798 2.3092 2.71209 0
M  V30 4996 O 460.657 3.3478 4.31954 0
M  V30 4997 H 457.751 0.478045 0.674835 0
M  V30 4998 H 460.297 1.48888 0.814275 0
M  V30 4999 H 459.069 3.26131 2.16227 0
M  V30 5000 H 458.692 2.06916 3.39517 0
M  V30 5001 N 459.689 -1.00246 1.21608 0
M  V30 5002 C 460.936 -1.74061 1.03485 0
M  V30 5003 C 461.264 -1.89658 -0.431308 0
M  V30 5004 O 460.519 -1.42976 -1.33627 0
M  V30 5005 C 460.818 -3.15448 1.68009 0
M  V30 5006 C 460.484 -3.19792 3.17874 0
M  V30 5007 C 459.146 -3.20685 3.58768 0
M  V30 5008 C 461.498 -3.16835 4.13842 0
M  V30 5009 C 458.826 -3.16309 4.94131 0
M  V30 5010 C 461.178 -3.14001 5.49169 0
M  V30 5011 C 459.842 -3.13204 5.89457 0
M  V30 5012 H 459.112 -0.636934 0.378677 0
M  V30 5013 H 461.759 -1.17473 1.51236 0
M  V30 5014 H 460.064 -3.75284 1.12557 0
M  V30 5015 H 461.761 -3.71285 1.51487 0
M  V30 5016 H 458.351 -3.19842 2.85305 0
M  V30 5017 H 462.535 -3.15303 3.83272 0
M  V30 5018 H 457.791 -3.14032 5.24589 0
M  V30 5019 H 461.965 -3.10667 6.23265 0
M  V30 5020 H 459.592 -3.09568 6.94314 0
M  V30 5021 N 461.167 -1.02423 -1.1978 0
M  V30 5022 C 462.099 -0.559152 -2.22275 0
M  V30 5023 C 463.112 0.36251 -1.58713 0
M  V30 5024 O 464.301 0.159641 -1.77785 0
M  V30 5025 C 461.401 0.205094 -3.38279 0
M  V30 5026 C 460.574 -0.720361 -4.31427 0
M  V30 5027 C 459.633 -0.00234368 -5.262 0
M  V30 5028 O 458.659 -0.627378 -5.65732 0
M  V30 5029 N 459.861 1.26996 -5.66438 0
M  V30 5030 H 462.626 -1.44064 -2.62804 0
M  V30 5031 H 460.187 -0.902692 -1.34399 0
M  V30 5032 H 462.179 0.694868 -3.9869 0
M  V30 5033 H 460.749 0.987947 -2.96578 0
M  V30 5034 H 459.969 -1.39031 -3.68869 0
M  V30 5035 H 461.257 -1.3495 -4.90577 0
M  V30 5036 H 460.655 1.79858 -5.36347 0
M  V30 5037 H 459.212 1.70432 -6.29123 0
M  V30 5038 N 462.645 1.35699 -0.801477 0
M  V30 5039 C 463.608 2.28199 -0.213994 0
M  V30 5040 C 464.608 1.49359 0.595691 0
M  V30 5041 O 465.798 1.69186 0.414921 0
M  V30 5042 C 462.93 3.33587 0.702297 0
M  V30 5043 H 464.123 2.81666 -1.02976 0
M  V30 5044 H 461.676 1.45467 -0.571759 0
M  V30 5045 H 462.411 2.85297 1.54195 0
M  V30 5046 H 462.196 3.91906 0.123484 0
M  V30 5047 H 463.686 4.02638 1.10783 0
M  V30 5048 N 464.123 0.554532 1.47522 0
M  V30 5049 C 465.033 -0.197865 2.33764 0
M  V30 5050 C 466.049 -0.914576 1.48025 0
M  V30 5051 O 467.225 -0.884067 1.80959 0
M  V30 5052 C 464.29 -1.21628 3.24665 0
M  V30 5053 C 463.351 -0.507283 4.26292 0
M  V30 5054 C 462.584 -1.47718 5.1285 0
M  V30 5055 O 462.807 -2.7118 5.01814 0
M  V30 5056 O 461.741 -1.00313 5.93482 0
M  V30 5057 H 465.567 0.50949 2.99396 0
M  V30 5058 H 463.152 0.315176 1.46038 0
M  V30 5059 H 465.034 -1.80421 3.80823 0
M  V30 5060 H 463.709 -1.9056 2.61665 0
M  V30 5061 H 462.616 0.121778 3.73902 0
M  V30 5062 H 463.949 0.140544 4.91999 0
M  V30 5063 N 465.601 -1.54893 0.290851 0
M  V30 5064 C 467.017 -1.59476 -0.0628432 0
M  V30 5065 C 467.217 -1.30795 -1.5328 0
M  V30 5066 O 466.273 -1.07644 -2.28406 0
M  V30 5067 C 467.586 -2.98928 0.325962 0
M  V30 5068 C 469.134 -3.11799 0.273882 0
M  V30 5069 C 469.609 -4.53544 0.637359 0
M  V30 5070 N 471.1 -4.59433 0.589507 0
M  V30 5071 C 471.835 -5.67164 0.84335 0
M  V30 5072 N 471.331 -6.82975 1.16263 0
M  V30 5073 N 473.124 -5.56786 0.771091 0
M  V30 5074 H 465.275 -1.71798 1.24896 0
M  V30 5075 H 467.538 -0.801879 0.505663 0
M  V30 5076 H 467.244 -3.24805 1.34887 0
M  V30 5077 H 467.118 -3.75793 -0.325441 0
M  V30 5078 H 469.505 -2.85677 -0.739765 0
M  V30 5079 H 469.586 -2.37112 0.959766 0
M  V30 5080 H 469.23 -4.80394 1.64877 0
M  V30 5081 H 469.16 -5.26553 -0.0704866 0
M  V30 5082 H 471.651 -3.76245 0.353252 0
M  V30 5083 H 471.964 -7.61048 1.34257 0
M  V30 5084 H 470.309 -6.84552 1.20057 0
M  V30 5085 H 473.5 -4.65187 0.521383 0
M  V30 5086 H 473.673 -6.40664 0.972295 0
M  V30 5087 N 467.08 -0.0183926 -1.57589 0
M  V30 5088 C 468.012 0.995557 -2.06449 0
M  V30 5089 C 469.025 1.29556 -0.985849 0
M  V30 5090 O 470.214 1.2621 -1.26227 0
M  V30 5091 C 467.314 2.32572 -2.46502 0
M  V30 5092 C 466.487 2.21245 -3.77319 0
M  V30 5093 C 465.546 3.37104 -4.04039 0
M  V30 5094 O 464.572 3.14468 -4.74445 0
M  V30 5095 N 465.774 4.60553 -3.53372 0
M  V30 5096 H 468.539 0.578746 -2.94059 0
M  V30 5097 H 466.1 0.168603 -1.6102 0
M  V30 5098 H 468.092 3.08887 -2.61478 0
M  V30 5099 H 466.662 2.65931 -1.64315 0
M  V30 5100 H 465.882 1.29723 -3.72244 0
M  V30 5101 H 467.17 2.10868 -4.63047 0
M  V30 5102 H 466.568 4.81839 -2.96391 0
M  V30 5103 H 465.125 5.34072 -3.73644 0
M  V30 5104 N 468.558 1.5553 0.254621 0
M  V30 5105 C 469.521 1.88872 1.29846 0
M  V30 5106 C 470.521 0.764591 1.41459 0
M  V30 5107 O 471.711 1.03265 1.40293 0
M  V30 5108 C 468.843 2.11032 2.67728 0
M  V30 5109 H 470.036 2.82201 1.01502 0
M  V30 5110 H 467.589 1.48303 0.493556 0
M  V30 5111 H 468.324 1.20146 3.01223 0
M  V30 5112 H 468.109 2.92895 2.60682 0
M  V30 5113 H 469.599 2.38038 3.43115 0
M  V30 5114 N 470.036 -0.519951 1.48776 0
M  V30 5115 C 471.452 -0.849418 1.35119 0
M  V30 5116 C 471.652 -1.98077 0.36982 0
M  V30 5117 O 470.708 -2.51664 -0.205359 0
M  V30 5118 C 472.021 -1.20748 2.75391 0
M  V30 5119 C 473.569 -1.31679 2.83954 0
M  V30 5120 C 474.044 -1.70824 4.24951 0
M  V30 5121 N 475.535 -1.77908 4.27672 0
M  V30 5122 C 476.27 -2.09603 5.33717 0
M  V30 5123 N 475.766 -2.39652 6.5003 0
M  V30 5124 N 477.559 -2.10694 5.21119 0
M  V30 5125 H 469.71 0.226377 2.1119 0
M  V30 5126 H 471.973 0.0386519 0.947212 0
M  V30 5127 H 471.679 -0.449703 3.48813 0
M  V30 5128 H 471.553 -2.15534 3.09556 0
M  V30 5129 H 473.94 -2.06532 2.10781 0
M  V30 5130 H 474.021 -0.3499 2.53396 0
M  V30 5131 H 473.665 -0.965282 4.98643 0
M  V30 5132 H 473.595 -2.6858 4.52959 0
M  V30 5133 H 476.086 -1.56923 3.43779 0
M  V30 5134 H 476.399 -2.6297 7.26682 0
M  V30 5135 H 474.744 -2.37149 6.53288 0
M  V30 5136 H 477.935 -1.86682 4.29264 0
M  V30 5137 H 478.108 -2.35062 6.03863 0
M  V30 5138 N 471.514 -1.37532 -0.769588 0
M  V30 5139 C 472.424 -1.35668 -1.91393 0
M  V30 5140 C 473.44 -0.255954 -1.72107 0
M  V30 5141 O 474.616 -0.491704 -1.95305 0
M  V30 5142 C 471.681 -1.16481 -3.26547 0
M  V30 5143 C 470.742 -2.36212 -3.58472 0
M  V30 5144 C 469.975 -2.17932 -4.87177 0
M  V30 5145 O 470.198 -1.1647 -5.58382 0
M  V30 5146 O 469.132 -3.06167 -5.18214 0
M  V30 5147 H 472.958 -2.32055 -1.95918 0
M  V30 5148 H 470.543 -1.18284 -0.912641 0
M  V30 5149 H 472.425 -1.07778 -4.07384 0
M  V30 5150 H 471.1 -0.231687 -3.2287 0
M  V30 5151 H 470.007 -2.50488 -2.77861 0
M  V30 5152 H 471.34 -3.281 -3.66894 0
M  V30 5153 N 472.992 0.995999 -1.22138 0
M  V30 5154 C 473.939 2.08551 -0.988687 0
M  V30 5155 C 474.909 1.65864 0.0885021 0
M  V30 5156 O 476.094 1.90704 -0.0604589 0
M  V30 5157 C 473.234 3.40374 -0.569191 0
M  V30 5158 C 472.347 3.96421 -1.71681 0
M  V30 5159 C 471.482 5.1639 -1.2456 0
M  V30 5160 C 470.521 5.64567 -2.36497 0
M  V30 5161 N 469.658 6.75777 -1.90445 0
M  V30 5162 H 474.498 2.2779 -1.92135 0
M  V30 5163 H 472.035 1.1168 -0.957388 0
M  V30 5164 H 473.993 4.16068 -0.307166 0
M  V30 5165 H 472.623 3.21145 0.326462 0
M  V30 5166 H 471.675 3.17628 -2.09324 0
M  V30 5167 H 472.987 4.2816 -2.55891 0
M  V30 5168 H 472.141 5.99362 -0.940774 0
M  V30 5169 H 470.88 4.86266 -0.373662 0
M  V30 5170 H 469.885 4.80185 -2.67772 0
M  V30 5171 H 471.11 5.96716 -3.24202 0
M  V30 5172 H 469.056 6.47443 -1.05609 0
M  V30 5173 H 468.973 7.06818 -2.68223 0
M  V30 5174 H 470.241 7.62262 -1.63022 0
M  V30 5175 N 474.47 1.03057 1.19235 0
M  V30 5176 C 475.4 0.633497 2.24742 0
M  V30 5177 C 476.381 -0.358335 1.66283 0
M  V30 5178 O 477.566 -0.240676 1.92703 0
M  V30 5179 C 474.696 -0.0147648 3.47297 0
M  V30 5180 C 473.65 0.899527 4.18441 0
M  V30 5181 C 472.976 0.116281 5.34574 0
M  V30 5182 C 474.276 2.21404 4.73051 0
M  V30 5183 H 475.97 1.5155 2.58211 0
M  V30 5184 H 473.516 0.73014 1.24117 0
M  V30 5185 H 475.469 -0.304202 4.20301 0
M  V30 5186 H 474.193 -0.931577 3.13032 0
M  V30 5187 H 472.852 1.17319 3.47321 0
M  V30 5188 H 472.5 -0.802619 4.96555 0
M  V30 5189 H 472.2 0.725293 5.83107 0
M  V30 5190 H 473.724 -0.166376 6.10373 0
M  V30 5191 H 475.138 1.98601 5.37802 0
M  V30 5192 H 473.535 2.77512 5.32078 0
M  V30 5193 H 474.605 2.86752 3.91026 0
M  V30 5194 N 475.948 -1.35272 0.808662 0
M  V30 5195 C 476.911 -2.28082 0.226093 0
M  V30 5196 C 477.911 -1.49673 -0.587762 0
M  V30 5197 O 479.101 -1.69404 -0.405943 0
M  V30 5198 C 476.233 -3.33955 -0.684596 0
M  V30 5199 H 477.426 -2.81116 1.04469 0
M  V30 5200 H 474.979 -1.45162 0.579466 0
M  V30 5201 H 475.714 -2.86111 -1.5268 0
M  V30 5202 H 475.499 -3.91965 -0.102699 0
M  V30 5203 H 476.989 -4.03219 -1.08646 0
M  V30 5204 N 477.426 -0.562348 -1.47226 0
M  V30 5205 C 478.336 0.185466 -2.33866 0
M  V30 5206 C 479.352 0.906713 -1.48508 0
M  V30 5207 O 480.528 0.874458 -1.81425 0
M  V30 5208 C 477.593 1.19904 -3.25306 0
M  V30 5209 C 476.654 0.484669 -4.26555 0
M  V30 5210 C 475.887 1.44996 -5.13626 0
M  V30 5211 O 476.11 2.68515 -5.03245 0
M  V30 5212 O 475.044 0.971642 -5.94006 0
M  V30 5213 H 478.87 -0.525361 -2.99121 0
M  V30 5214 H 476.455 -0.322916 -1.45868 0
M  V30 5215 H 478.337 1.78399 -3.81774 0
M  V30 5216 H 477.012 1.8917 -2.62672 0
M  V30 5217 H 475.919 -0.141605 -3.73832 0
M  V30 5218 H 477.252 -0.166634 -4.91918 0
M  V30 5219 N 478.904 1.54736 -0.299062 0
M  V30 5220 C 479.851 2.23448 0.577899 0
M  V30 5221 C 480.821 1.21637 1.13109 0
M  V30 5222 O 482.006 1.50252 1.17597 0
M  V30 5223 C 479.146 2.9774 1.74484 0
M  V30 5224 C 478.259 4.1432 1.22323 0
M  V30 5225 C 477.394 4.76199 2.35388 0
M  V30 5226 C 476.433 5.84927 1.80351 0
M  V30 5227 N 475.57 6.4077 2.86982 0
M  V30 5228 H 480.41 2.97996 -0.0146545 0
M  V30 5229 H 477.947 1.47088 -0.0190013 0
M  V30 5230 H 479.905 3.39045 2.43114 0
M  V30 5231 H 478.535 2.25572 2.30905 0
M  V30 5232 H 477.587 3.7797 0.429249 0
M  V30 5233 H 478.899 4.92659 0.780309 0
M  V30 5234 H 478.053 5.20346 3.11969 0
M  V30 5235 H 476.792 3.97188 2.83006 0
M  V30 5236 H 475.797 5.40207 1.02259 0
M  V30 5237 H 477.022 6.65821 1.3364 0
M  V30 5238 H 474.968 5.64643 3.33938 0
M  V30 5239 H 474.885 7.1445 2.4718 0
M  V30 5240 H 476.153 6.89574 3.63466 0
M  V30 5241 N 480.382 0.0267497 1.57577 0
M  V30 5242 C 481.329 -0.955894 2.10075 0
M  V30 5243 C 482.299 -1.32453 1.00226 0
M  V30 5244 O 483.484 -1.41826 1.27632 0
M  V30 5245 C 480.624 -2.2338 2.6305 0
M  V30 5246 C 479.737 -1.92183 3.86898 0
M  V30 5247 C 478.872 -3.14251 4.28275 0
M  V30 5248 C 477.911 -2.78862 5.44888 0
M  V30 5249 N 477.048 -3.93548 5.81433 0
M  V30 5250 H 481.888 -0.501303 2.93753 0
M  V30 5251 H 479.425 -0.235847 1.45197 0
M  V30 5252 H 481.383 -2.98124 2.91853 0
M  V30 5253 H 480.013 -2.6646 1.82205 0
M  V30 5254 H 479.065 -1.07692 3.64838 0
M  V30 5255 H 480.377 -1.62117 4.7172 0
M  V30 5256 H 479.531 -3.97317 4.58502 0
M  V30 5257 H 478.27 -3.47476 3.42215 0
M  V30 5258 H 477.275 -1.94208 5.14357 0
M  V30 5259 H 478.5 -2.46855 6.32645 0
M  V30 5260 H 476.446 -4.2662 4.98328 0
M  V30 5261 H 476.363 -3.67098 6.6089 0
M  V30 5262 H 477.631 -4.77325 6.16264 0
M  V30 5263 N 481.861 -1.55662 -0.24637 0
M  V30 5264 C 482.771 -1.93495 -1.32653 0
M  V30 5265 C 483.787 -0.835462 -1.5263 0
M  V30 5266 O 484.963 -1.1369 -1.66242 0
M  V30 5267 C 482.028 -2.22242 -2.66101 0
M  V30 5268 C 481.089 -3.45625 -2.54641 0
M  V30 5269 C 480.322 -3.72991 -3.81724 0
M  V30 5270 O 480.545 -3.02421 -4.8363 0
M  V30 5271 O 479.479 -4.66515 -3.80325 0
M  V30 5272 H 483.305 -2.85498 -1.03559 0
M  V30 5273 H 480.89 -1.42551 -0.44717 0
M  V30 5274 H 482.772 -2.42037 -3.44958 0
M  V30 5275 H 481.447 -1.33417 -2.94926 0
M  V30 5276 H 480.354 -3.31136 -1.74067 0
M  V30 5277 H 481.687 -4.34754 -2.3076 0
M  V30 5278 N 483.339 0.512053 -1.4905 0
M  V30 5279 C 484.269 1.62365 -1.67809 0
M  V30 5280 C 485.25 1.61737 -0.526809 0
M  V30 5281 O 486.435 1.78651 -0.761404 0
M  V30 5282 C 483.565 3.00895 -1.73435 0
M  V30 5283 C 482.519 3.16387 -2.88242 0
M  V30 5284 C 481.845 4.56157 -2.78971 0
M  V30 5285 C 483.145 2.97457 -4.29321 0
M  V30 5286 H 484.839 1.46921 -2.60873 0
M  V30 5287 H 482.385 0.705379 -1.2554 0
M  V30 5288 H 484.338 3.78549 -1.85145 0
M  V30 5289 H 483.062 3.17403 -0.769619 0
M  V30 5290 H 481.721 2.41155 -2.76116 0
M  V30 5291 H 481.369 4.69525 -1.8043 0
M  V30 5292 H 481.069 4.67465 -3.5602 0
M  V30 5293 H 482.593 5.35886 -2.92675 0
M  V30 5294 H 484.007 3.64888 -4.42187 0
M  V30 5295 H 482.404 3.20245 -5.07507 0
M  V30 5296 H 483.474 1.93692 -4.44535 0
M  V30 5297 N 484.817 1.37938 0.762283 0
M  V30 5298 C 485.747 1.37176 1.88958 0
M  V30 5299 C 486.728 0.238945 1.68413 0
M  V30 5300 O 487.913 0.440726 1.89133 0
M  V30 5301 C 485.043 1.18742 3.2637 0
M  V30 5302 C 483.997 2.29136 3.61498 0
M  V30 5303 C 483.323 1.95816 4.97554 0
M  V30 5304 C 484.623 3.71363 3.6727 0
M  V30 5305 H 486.317 2.31509 1.89853 0
M  V30 5306 H 483.863 1.11438 0.912005 0
M  V30 5307 H 485.816 1.16837 4.04879 0
M  V30 5308 H 484.54 0.208683 3.25933 0
M  V30 5309 H 483.199 2.30213 2.85303 0
M  V30 5310 H 482.847 0.964475 4.93667 0
M  V30 5311 H 482.547 2.69745 5.22026 0
M  V30 5312 H 484.071 1.95513 5.78452 0
M  V30 5313 H 485.485 3.72364 4.35911 0
M  V30 5314 H 483.882 4.44425 4.03245 0
M  V30 5315 H 484.952 4.04305 2.67704 0
M  V30 5316 N 486.295 -0.989507 1.22664 0
M  V30 5317 C 487.227 -2.0824 0.957542 0
M  V30 5318 C 488.24 -1.6267 -0.0651098 0
M  V30 5319 O 489.429 -1.77695 0.169312 0
M  V30 5320 C 486.529 -3.36298 0.419145 0
M  V30 5321 C 485.702 -4.10882 1.49982 0
M  V30 5322 C 484.761 -5.17221 0.967904 0
M  V30 5323 O 483.787 -5.44613 1.65487 0
M  V30 5324 N 484.989 -5.80124 -0.20896 0
M  V30 5325 H 487.754 -2.31904 1.89843 0
M  V30 5326 H 485.315 -1.15552 1.13399 0
M  V30 5327 H 487.307 -4.04671 0.0485451 0
M  V30 5328 H 485.877 -3.09671 -0.426937 0
M  V30 5329 H 485.097 -3.37092 2.04359 0
M  V30 5330 H 486.385 -4.57482 2.22682 0
M  V30 5331 H 485.783 -5.60244 -0.783818 0
M  V30 5332 H 484.34 -6.49715 -0.520913 0
M  V30 5333 N 487.773 -1.03688 -1.18687 0
M  V30 5334 C 488.683 -0.634908 -2.25845 0
M  V30 5335 C 489.699 0.337065 -1.70704 0
M  V30 5336 O 490.875 0.192943 -2.00474 0
M  V30 5337 C 487.94 -0.000180054 -3.467 0
M  V30 5338 C 487.001 -1.02067 -4.1699 0
M  V30 5339 C 486.234 -0.41614 -5.32075 0
M  V30 5340 O 486.457 0.778712 -5.65059 0
M  V30 5341 O 485.391 -1.14296 -5.90948 0
M  V30 5342 H 489.217 -1.52757 -2.62486 0
M  V30 5343 H 486.802 -0.807533 -1.25695 0
M  V30 5344 H 488.684 0.353342 -4.19916 0
M  V30 5345 H 487.359 0.866367 -3.11891 0
M  V30 5346 H 486.266 -1.42592 -3.45859 0
M  V30 5347 H 487.599 -1.85786 -4.5579 0
M  V30 5348 N 489.251 1.34841 -0.815825 0
M  V30 5349 C 490.183 2.28409 -0.190265 0
M  V30 5350 C 491.196 1.50705 0.615771 0
M  V30 5351 O 492.385 1.72822 0.446616 0
M  V30 5352 C 489.485 3.30441 0.752446 0
M  V30 5353 C 488.658 4.37399 -0.00922152 0
M  V30 5354 C 487.717 5.19234 0.853351 0
M  V30 5355 O 486.743 5.68404 0.300919 0
M  V30 5356 N 487.945 5.38248 2.17416 0
M  V30 5357 H 490.71 2.82732 -0.994114 0
M  V30 5358 H 488.271 1.47289 -0.672129 0
M  V30 5359 H 490.263 3.82084 1.33394 0
M  V30 5360 H 488.833 2.76565 1.45707 0
M  V30 5361 H 488.053 3.86567 -0.771979 0
M  V30 5362 H 489.341 5.05992 -0.533807 0
M  V30 5363 H 488.739 4.99961 2.6468 0
M  V30 5364 H 487.296 5.93035 2.70467 0
M  V30 5365 N 490.729 0.570148 1.46925 0
M  V30 5366 C 491.659 -0.158274 2.32963 0
M  V30 5367 C 492.64 -0.896093 1.44583 0
M  V30 5368 O 493.825 -0.874022 1.7342 0
M  V30 5369 C 490.955 -1.18055 3.26619 0
M  V30 5370 C 489.909 -0.558379 4.24342 0
M  V30 5371 C 489.235 -1.68623 5.07415 0
M  V30 5372 C 490.535 0.496295 5.19937 0
M  V30 5373 H 492.229 0.560046 2.94115 0
M  V30 5374 H 489.775 0.270775 1.41431 0
M  V30 5375 H 491.728 -1.69841 3.85658 0
M  V30 5376 H 490.452 -1.92899 2.63548 0
M  V30 5377 H 489.111 -0.0617157 3.66548 0
M  V30 5378 H 488.759 -2.42402 4.40738 0
M  V30 5379 H 488.459 -1.27564 5.73586 0
M  V30 5380 H 489.983 -2.20709 5.69315 0
M  V30 5381 H 491.397 0.0640052 5.73264 0
M  V30 5382 H 489.794 0.82649 5.94381 0
M  V30 5383 H 490.864 1.38735 4.6463 0
M  V30 5384 N 492.207 -1.54576 0.307264 0
M  V30 5385 C 493.117 -2.27435 -0.57536 0
M  V30 5386 C 494.133 -1.31183 -1.14311 0
M  V30 5387 O 495.309 -1.64175 -1.16656 0
M  V30 5388 C 492.374 -3.00566 -1.72803 0
M  V30 5389 C 491.435 -4.12369 -1.19373 0
M  V30 5390 C 490.668 -4.82003 -2.29147 0
M  V30 5391 O 490.891 -4.51038 -3.49171 0
M  V30 5392 O 489.825 -5.69271 -1.95485 0
M  V30 5393 H 493.651 -3.03696 0.0158558 0
M  V30 5394 H 491.236 -1.49219 0.0735064 0
M  V30 5395 H 493.118 -3.46416 -2.39946 0
M  V30 5396 H 491.793 -2.27195 -2.30574 0
M  V30 5397 H 490.7 -3.70905 -0.487851 0
M  V30 5398 H 492.033 -4.87736 -0.661376 0
M  V30 5399 N 493.685 -0.035106 -1.57561 0
M  V30 5400 C 494.617 0.973604 -2.07494 0
M  V30 5401 C 495.63 1.28504 -0.999534 0
M  V30 5402 O 496.819 1.24864 -1.27559 0
M  V30 5403 C 493.919 2.29945 -2.48955 0
M  V30 5404 C 493.092 2.1723 -3.79644 0
M  V30 5405 C 492.151 3.328 -4.07592 0
M  V30 5406 O 491.177 3.09418 -4.77754 0
M  V30 5407 N 492.379 4.56779 -3.58236 0
M  V30 5408 H 495.144 0.547525 -2.94656 0
M  V30 5409 H 492.705 0.151515 -1.61189 0
M  V30 5410 H 494.697 3.06097 -2.64739 0
M  V30 5411 H 493.267 2.64173 -1.67126 0
M  V30 5412 H 492.487 1.25768 -3.73599 0
M  V30 5413 H 493.775 2.05945 -4.65257 0
M  V30 5414 H 493.173 4.78668 -3.01485 0
M  V30 5415 H 491.73 5.30079 -3.79288 0
M  V30 5416 N 495.163 1.55791 0.238111 0
M  V30 5417 C 496.093 1.94068 1.29846 0
M  V30 5418 C 497.074 0.806726 1.49753 0
M  V30 5419 O 498.259 1.06772 1.62214 0
M  V30 5420 C 495.389 2.24302 2.65153 0
M  V30 5421 C 494.343 3.40032 2.59927 0
M  V30 5422 C 493.669 3.55829 3.99111 0
M  V30 5423 C 494.969 4.75476 2.16148 0
M  V30 5424 H 496.663 2.82887 0.980563 0
M  V30 5425 H 494.209 1.36105 0.470253 0
M  V30 5426 H 496.162 2.4967 3.39475 0
M  V30 5427 H 494.886 1.32318 2.98596 0
M  V30 5428 H 493.545 3.14687 1.88063 0
M  V30 5429 H 493.193 2.6125 4.29834 0
M  V30 5430 H 492.893 4.3366 3.96501 0
M  V30 5431 H 494.417 3.83528 4.7512 0
M  V30 5432 H 495.831 5.00158 2.80205 0
M  V30 5433 H 494.228 5.56472 2.24631 0
M  V30 5434 H 495.298 4.71946 1.11333 0
M  V30 5435 N 496.642 -0.504142 1.49319 0
M  V30 5436 C 497.574 -1.62265 1.61872 0
M  V30 5437 C 498.587 -1.54881 0.501573 0
M  V30 5438 O 499.776 -1.6087 0.773497 0
M  V30 5439 C 496.876 -3.01042 1.55651 0
M  V30 5440 C 496.049 -3.33642 2.82845 0
M  V30 5441 C 495.108 -4.51816 2.69719 0
M  V30 5442 O 494.134 -4.53755 3.4365 0
M  V30 5443 N 495.336 -5.51543 1.81055 0
M  V30 5444 H 498.101 -1.51924 2.58339 0
M  V30 5445 H 495.662 -0.691954 1.46368 0
M  V30 5446 H 497.654 -3.78013 1.44528 0
M  V30 5447 H 496.224 -3.05323 0.670546 0
M  V30 5448 H 495.444 -2.45598 3.08343 0
M  V30 5449 H 496.732 -3.5222 3.67177 0
M  V30 5450 H 496.13 -5.52774 1.20241 0
M  V30 5451 H 494.687 -6.27629 1.75856 0
M  V30 5452 N 498.12 -1.38341 -0.754957 0
M  V30 5453 C 499.536 -1.19508 -1.05783 0
M  V30 5454 C 499.736 -0.0428005 -2.01455 0
M  V30 5455 O 498.792 0.611861 -2.44975 0
M  V30 5456 C 500.105 -2.52091 -1.63923 0
M  V30 5457 C 501.653 -2.58762 -1.76101 0
M  V30 5458 C 502.128 -3.91517 -2.37652 0
M  V30 5459 N 503.619 -3.93049 -2.45085 0
M  V30 5460 C 504.354 -4.9253 -2.93602 0
M  V30 5461 N 503.85 -6.02408 -3.42165 0
M  V30 5462 N 505.643 -4.79921 -2.92629 0
M  V30 5463 H 497.794 -2.1206 -0.120056 0
M  V30 5464 H 500.057 -0.94089 -0.11589 0
M  V30 5465 H 499.763 -3.36858 -1.01093 0
M  V30 5466 H 499.637 -2.70388 -2.63003 0
M  V30 5467 H 502.024 -1.74391 -2.38058 0
M  V30 5468 H 502.105 -2.44333 -0.757294 0
M  V30 5469 H 501.749 -4.76309 -1.76329 0
M  V30 5470 H 501.679 -4.03256 -3.38662 0
M  V30 5471 H 504.17 -3.13685 -2.10736 0
M  V30 5472 H 504.483 -6.74248 -3.77637 0
M  V30 5473 H 502.828 -6.0603 -3.40225 0
M  V30 5474 H 506.019 -3.93194 -2.54001 0
M  V30 5475 H 506.192 -5.57601 -3.30128 0
M  V30 5476 N 499.598 0.982988 -1.23187 0
M  V30 5477 C 500.508 2.10907 -1.02739 0
M  V30 5478 C 501.524 1.73979 0.0273188 0
M  V30 5479 O 502.7 2.00702 -0.16757 0
M  V30 5480 C 499.765 3.41142 -0.618304 0
M  V30 5481 C 498.826 3.92112 -1.74777 0
M  V30 5482 C 498.059 5.16131 -1.3581 0
M  V30 5483 O 498.282 5.6989 -0.241201 0
M  V30 5484 O 497.216 5.61103 -2.17824 0
M  V30 5485 H 501.042 2.31046 -1.97108 0
M  V30 5486 H 498.627 1.09284 -1.01869 0
M  V30 5487 H 500.509 4.19488 -0.400982 0
M  V30 5488 H 499.184 3.2234 0.296421 0
M  V30 5489 H 498.091 3.14895 -2.0197 0
M  V30 5490 H 499.424 4.15364 -2.64071 0
M  V30 5491 N 501.076 1.04316 1.18135 0
M  V30 5492 C 502.306 0.767003 1.91835 0
M  V30 5493 C 502.714 -0.68002 1.76557 0
M  V30 5494 O 502.057 -1.47548 1.09432 0
M  V30 5495 C 502.119 1.05674 3.43618 0
M  V30 5496 C 501.783 2.49818 3.82675 0
M  V30 5497 C 502.78 3.48003 3.86251 0
M  V30 5498 C 500.465 2.84596 4.13897 0
M  V30 5499 C 502.459 4.79016 4.20503 0
M  V30 5500 C 500.146 4.15813 4.4782 0
M  V30 5501 C 501.144 5.12834 4.51099 0
M  V30 5502 O 500.832 6.41699 4.84229 0
M  V30 5503 H 500.564 0.278948 0.615763 0
M  V30 5504 H 503.118 1.3946 1.50798 0
M  V30 5505 H 501.348 0.372029 3.84906 0
M  V30 5506 H 503.037 0.767994 3.98568 0
M  V30 5507 H 503.803 3.22475 3.62264 0
M  V30 5508 H 499.682 2.09748 4.1052 0
M  V30 5509 H 503.226 5.54739 4.22978 0
M  V30 5510 H 499.123 4.41109 4.71268 0
M  V30 5511 H 499.891 6.46387 5.02121 0
M  V30 5512 N 502.554 -1.34406 0.822964 0
M  V30 5513 C 503.779 -2.0304 0.423034 0
M  V30 5514 C 504.204 -1.61568 -0.963196 0
M  V30 5515 O 503.562 -0.800339 -1.62678 0
M  V30 5516 C 503.61 -3.56636 0.53321 0
M  V30 5517 O 502.714 -4.09971 -0.446939 0
M  V30 5518 H 502.055 -0.64075 0.174171 0
M  V30 5519 H 504.585 -1.71653 1.11339 0
M  V30 5520 H 504.595 -4.05945 0.408991 0
M  V30 5521 H 503.27 -3.86168 1.54425 0
M  V30 5522 H 501.847 -3.71835 -0.281601 0
M  V30 5523 N 504.032 -0.577932 -1.46621 0
M  V30 5524 C 504.979 0.158048 -2.30258 0
M  V30 5525 C 505.949 0.888669 -1.40328 0
M  V30 5526 O 507.134 0.880283 -1.6928 0
M  V30 5527 C 504.274 1.16884 -3.24703 0
M  V30 5528 C 503.387 0.442163 -4.29731 0
M  V30 5529 C 502.522 1.44007 -5.11308 0
M  V30 5530 C 501.561 0.69952 -6.0809 0
M  V30 5531 N 500.698 1.64525 -6.82551 0
M  V30 5532 H 505.538 -0.561242 -2.92667 0
M  V30 5533 H 503.075 -0.288591 -1.44241 0
M  V30 5534 H 505.033 1.7677 -3.779 0
M  V30 5535 H 503.663 1.85591 -2.64113 0
M  V30 5536 H 502.715 -0.271632 -3.79429 0
M  V30 5537 H 504.027 -0.136992 -4.98612 0
M  V30 5538 H 503.181 2.11186 -5.68758 0
M  V30 5539 H 501.92 2.05315 -4.42377 0
M  V30 5540 H 500.925 0.0139217 -5.49798 0
M  V30 5541 H 502.15 0.091894 -6.79038 0
M  V30 5542 H 500.096 2.24653 -6.16334 0
M  V30 5543 H 500.013 1.11878 -7.47676 0
M  V30 5544 H 501.281 2.30754 -7.44562 0
M  V30 5545 N 505.51 1.54411 -0.315457 0
M  V30 5546 C 506.44 2.27002 0.547039 0
M  V30 5547 C 507.421 1.27492 1.12605 0
M  V30 5548 O 508.606 1.5629 1.15269 0
M  V30 5549 C 505.736 3.02171 1.71201 0
M  V30 5550 C 504.69 4.0895 1.26268 0
M  V30 5551 C 504.016 4.71915 2.51396 0
M  V30 5552 C 505.316 5.20891 0.383419 0
M  V30 5553 H 507.01 2.99343 -0.0584517 0
M  V30 5554 H 504.556 1.4397 -0.0295527 0
M  V30 5555 H 506.509 3.51681 2.32161 0
M  V30 5556 H 505.233 2.27433 2.34397 0
M  V30 5557 H 503.892 3.60312 0.676062 0
M  V30 5558 H 503.54 3.93801 3.12937 0
M  V30 5559 H 503.24 5.44039 2.22026 0
M  V30 5560 H 504.764 5.24195 3.13133 0
M  V30 5561 H 506.178 5.66206 0.899082 0
M  V30 5562 H 504.575 5.99821 0.182857 0
M  V30 5563 H 505.645 4.81324 -0.587821 0
M  V30 5564 N 506.988 0.0434614 1.5754 0
M  V30 5565 C 507.935 -0.93356 2.11077 0
M  V30 5566 C 508.905 -1.31383 1.01626 0
M  V30 5567 O 510.09 -1.40465 1.29129 0
M  V30 5568 C 507.23 -2.20578 2.65404 0
M  V30 5569 C 506.343 -1.88068 3.88914 0
M  V30 5570 C 505.478 -3.09691 4.31584 0
M  V30 5571 C 504.517 -2.73067 5.47815 0
M  V30 5572 N 503.654 -3.87359 5.85574 0
M  V30 5573 H 508.494 -0.470118 2.94268 0
M  V30 5574 H 506.031 -0.220434 1.45439 0
M  V30 5575 H 507.989 -2.95011 2.94999 0
M  V30 5576 H 506.619 -2.64513 1.85021 0
M  V30 5577 H 505.671 -1.03816 3.6596 0
M  V30 5578 H 506.983 -1.57104 4.73413 0
M  V30 5579 H 506.137 -3.92431 4.62691 0
M  V30 5580 H 504.876 -3.43827 3.45882 0
M  V30 5581 H 503.881 -1.88742 5.16388 0
M  V30 5582 H 505.106 -2.40131 6.35227 0
M  V30 5583 H 503.052 -4.21311 5.02825 0
M  V30 5584 H 502.969 -3.60068 6.64746 0
M  V30 5585 H 504.237 -4.70761 6.21292 0
M  V30 5586 N 508.466 -1.55915 -0.229846 0
M  V30 5587 C 509.429 -1.90914 -1.26824 0
M  V30 5588 C 510.429 -0.786999 -1.40225 0
M  V30 5589 O 511.619 -1.05484 -1.38632 0
M  V30 5590 C 508.751 -2.15264 -2.64337 0
M  V30 5591 H 509.944 -2.8378 -0.969998 0
M  V30 5592 H 507.497 -1.49069 -0.4699 0
M  V30 5593 H 508.232 -1.24923 -2.99274 0
M  V30 5594 H 508.017 -2.97005 -2.55989 0
M  V30 5595 H 509.507 -2.43467 -3.39284 0
M  V30 5596 N 509.944 0.496216 -1.49584 0
M  V30 5597 C 511.169 1.27865 -1.63295 0
M  V30 5598 C 511.594 1.85592 -0.306156 0
M  V30 5599 O 510.952 1.66092 0.726851 0
M  V30 5600 C 511 2.38128 -2.7079 0
M  V30 5601 O 510.104 3.42108 -2.30296 0
M  V30 5602 H 509.445 0.377279 -0.546403 0
M  V30 5603 H 511.975 0.593497 -1.95803 0
M  V30 5604 H 511.985 2.8382 -2.93104 0
M  V30 5605 H 510.66 1.95479 -3.67098 0
M  V30 5606 H 509.237 3.02301 -2.18331 0
M  V30 5607 N 511.423 1.38739 0.74761 0
M  V30 5608 C 512.663 1.36695 1.51966 0
M  V30 5609 C 513.027 -0.0411889 1.91956 0
M  V30 5610 O 514.228 -0.186543 2.68152 0
M  V30 5611 C 512.499 2.30119 2.73459 0
M  V30 5612 S 514.058 2.4615 3.63257 0
M  V30 5613 H 510.876 0.484929 0.519966 0
M  V30 5614 H 513.478 1.7472 0.877104 0
M  V30 5615 H 512.182 3.31312 2.422 0
M  V30 5616 H 511.713 1.93265 3.42655 0
M  V30 5617 H 513.728 1.69001 4.66533 0
M  V30 5618 N 512.901 -0.976442 1.23707 0
M  V30 5619 C 513.833 -2.07212 0.979574 0
M  V30 5620 C 514.846 -1.6273 -0.0478528 0
M  V30 5621 O 516.035 -1.77506 0.18815 0
M  V30 5622 C 513.135 -3.35835 0.45479 0
M  V30 5623 C 512.308 -4.09268 1.54331 0
M  V30 5624 C 511.367 -5.16166 1.02271 0
M  V30 5625 O 510.393 -5.42827 1.71254 0
M  V30 5626 N 511.595 -5.80313 -0.147419 0
M  V30 5627 H 514.36 -2.29878 1.92292 0
M  V30 5628 H 511.921 -1.14343 1.14618 0
M  V30 5629 H 513.913 -4.04597 0.0914631 0
M  V30 5630 H 512.483 -3.10106 -0.394068 0
M  V30 5631 H 511.703 -3.34906 2.07923 0
M  V30 5632 H 512.991 -4.55095 2.27522 0
M  V30 5633 H 512.389 -5.61043 -0.724353 0
M  V30 5634 H 510.946 -6.50231 -0.451972 0
M  V30 5635 N 514.379 -1.04941 -1.1758 0
M  V30 5636 C 515.289 -0.658826 -2.25159 0
M  V30 5637 C 516.305 0.318941 -1.71052 0
M  V30 5638 O 517.481 0.171669 -2.00667 0
M  V30 5639 C 514.546 -0.0369522 -3.4668 0
M  V30 5640 C 513.607 -1.06484 -4.15884 0
M  V30 5641 C 512.84 -0.472551 -5.31604 0
M  V30 5642 O 513.063 0.718736 -5.65854 0
M  V30 5643 O 511.997 -1.20557 -5.89703 0
M  V30 5644 H 515.823 -1.55533 -2.60851 0
M  V30 5645 H 513.408 -0.820819 -1.24832 0
M  V30 5646 H 515.29 0.308784 -4.20267 0
M  V30 5647 H 513.965 0.833238 -3.12792 0
M  V30 5648 H 512.872 -1.46253 -3.44327 0
M  V30 5649 H 514.205 -1.9061 -4.53794 0
M  V30 5650 N 515.857 1.33968 -0.830081 0
M  V30 5651 C 517.082 2.02813 -0.433796 0
M  V30 5652 C 517.507 1.62076 0.954614 0
M  V30 5653 O 516.865 0.808955 1.62252 0
M  V30 5654 C 516.913 3.56348 -0.552115 0
M  V30 5655 O 516.017 4.10202 0.425191 0
M  V30 5656 H 515.358 0.639817 -0.177567 0
M  V30 5657 H 517.888 1.7106 -1.12248 0
M  V30 5658 H 517.898 4.05722 -0.430513 0
M  V30 5659 H 516.573 3.85344 -1.56471 0
M  V30 5660 H 515.15 3.71979 0.261878 0
M  V30 5661 N 517.335 0.585699 1.46312 0
M  V30 5662 C 518.298 -0.135673 2.28798 0
M  V30 5663 C 519.298 -0.815988 1.38558 0
M  V30 5664 O 520.488 -0.667487 1.60904 0
M  V30 5665 C 517.62 -1.20163 3.1902 0
M  V30 5666 H 518.813 0.589257 2.94054 0
M  V30 5667 H 516.366 0.343794 1.52472 0
M  V30 5668 H 517.101 -1.95804 2.58517 0
M  V30 5669 H 516.886 -0.718282 3.85465 0
M  V30 5670 H 518.376 -1.70749 3.81096 0
M  V30 5671 N 518.813 -1.54241 0.323641 0
M  V30 5672 C 520.229 -1.59574 -0.0290018 0
M  V30 5673 C 520.429 -1.34017 -1.50472 0
M  V30 5674 O 519.485 -1.12464 -2.26071 0
M  V30 5675 C 520.798 -2.98169 0.389295 0
M  V30 5676 C 522.346 -3.11148 0.339958 0
M  V30 5677 C 522.821 -4.5209 0.733418 0
M  V30 5678 N 524.312 -4.5808 0.686827 0
M  V30 5679 C 525.047 -5.65248 0.963464 0
M  V30 5680 N 524.543 -6.80355 1.30724 0
M  V30 5681 N 526.336 -5.55025 0.88902 0
M  V30 5682 H 518.487 -1.6911 1.28512 0
M  V30 5683 H 520.75 -0.790972 0.522558 0
M  V30 5684 H 520.456 -3.21871 1.41746 0
M  V30 5685 H 520.33 -3.76399 -0.245657 0
M  V30 5686 H 522.717 -2.87182 -0.679002 0
M  V30 5687 H 522.798 -2.35023 1.00985 0
M  V30 5688 H 522.442 -4.76788 1.75029 0
M  V30 5689 H 522.372 -5.26584 0.0412189 0
M  V30 5690 H 524.863 -3.75411 0.43298 0
M  V30 5691 H 525.176 -7.58029 1.5037 0
M  V30 5692 H 523.521 -6.81851 1.3455 0
M  V30 5693 H 526.712 -4.63977 0.619939 0
M  V30 5694 H 526.885 -6.38458 1.10797 0
M  V30 5695 N 520.291 -0.0518155 -1.57515 0
M  V30 5696 C 521.54 0.621286 -1.91893 0
M  V30 5697 C 521.853 1.71966 -0.932052 0
M  V30 5698 O 523.059 2.45096 -1.16791 0
M  V30 5699 C 521.515 1.15641 -3.40816 0
M  V30 5700 C 521.123 0.0901146 -4.47909 0
M  V30 5701 C 522.867 1.80472 -3.84227 0
M  V30 5702 C 520.774 0.638154 -5.87947 0
M  V30 5703 H 519.704 0.235835 -0.716169 0
M  V30 5704 H 522.355 -0.120809 -1.83102 0
M  V30 5705 H 520.737 1.95084 -3.44613 0
M  V30 5706 H 521.911 -0.683525 -4.55702 0
M  V30 5707 H 520.226 -0.460774 -4.13843 0
M  V30 5708 H 522.823 2.22471 -4.86221 0
M  V30 5709 H 523.166 2.65669 -3.20508 0
M  V30 5710 H 523.699 1.07683 -3.82948 0
M  V30 5711 H 520.438 -0.176202 -6.55263 0
M  V30 5712 H 519.958 1.37976 -5.83714 0
M  V30 5713 H 521.637 1.12085 -6.37217 0
M  V30 5714 N 521.769 1.56035 0.221574 0
M  V30 5715 C 522.679 1.95581 1.29558 0
M  V30 5716 C 523.695 0.859639 1.51282 0
M  V30 5717 O 524.871 1.16321 1.64413 0
M  V30 5718 C 521.936 2.26447 2.62531 0
M  V30 5719 C 520.997 3.49632 2.4911 0
M  V30 5720 C 520.23 3.79017 3.75742 0
M  V30 5721 O 520.453 3.10077 4.78757 0
M  V30 5722 O 519.387 4.72507 3.72855 0
M  V30 5723 H 523.213 2.8711 0.990035 0
M  V30 5724 H 520.798 1.43244 0.424434 0
M  V30 5725 H 522.68 2.47494 3.41064 0
M  V30 5726 H 521.355 1.38092 2.92766 0
M  V30 5727 H 520.262 3.33864 1.68777 0
M  V30 5728 H 521.595 4.3837 2.23814 0
M  V30 5729 N 523.247 -0.488276 1.49845 0
M  V30 5730 C 524.524 -1.24959 1.50481 0
M  V30 5731 C 524.904 -2.09735 0.239698 0
M  V30 5732 O 524.252 -2.14865 -0.777524 0
M  V30 5733 C 524.462 -2.0954 2.79095 0
M  V30 5734 C 525.81 -2.68305 3.29086 0
M  V30 5735 O 526.834 -2.19797 2.80299 0
M  V30 5736 O 525.693 -3.56643 4.14087 0
M  V30 5737 H 522.787 -0.566133 0.602845 0
M  V30 5738 H 525.333 -0.501504 1.6212 0
M  V30 5739 H 524.105 -1.46958 3.62656 0
M  V30 5740 H 523.728 -2.91517 2.70377 0
M  V30 5741 N 524.725 -1.39134 -0.740242 0
M  V30 5742 C 525.658 -1.3182 -1.86276 0
M  V30 5743 C 526.636 -0.192794 -1.61453 0
M  V30 5744 O 527.82 -0.372365 -1.84786 0
M  V30 5745 C 524.947 -1.04564 -3.22155 0
M  V30 5746 C 523.993 -2.19224 -3.65846 0
M  V30 5747 S 524.826 -3.81466 -3.75824 0
M  V30 5748 C 525.982 -3.56425 -5.14502 0
M  V30 5749 H 526.215 -2.26822 -1.92195 0
M  V30 5750 H 523.748 -1.25127 -0.904576 0
M  V30 5751 H 525.706 -0.895228 -4.00619 0
M  V30 5752 H 524.367 -0.112578 -3.13898 0
M  V30 5753 H 523.56 -1.95732 -4.6444 0
M  V30 5754 H 523.162 -2.30441 -2.94572 0
M  V30 5755 H 525.454 -3.13366 -6.00673 0
M  V30 5756 H 526.397 -4.54462 -5.43019 0
M  V30 5757 H 526.805 -2.90641 -4.8393 0
M  V30 5758 N 526.204 0.969867 -1.24223 0
M  V30 5759 C 527.62 1.23809 -1.00716 0
M  V30 5760 C 527.82 1.99469 0.285358 0
M  V30 5761 O 526.876 2.31764 1.00207 0
M  V30 5762 C 528.189 2.02734 -2.2208 0
M  V30 5763 C 529.737 2.15834 -2.26681 0
M  V30 5764 C 530.212 2.98154 -3.47661 0
M  V30 5765 N 531.703 3.05737 -3.47964 0
M  V30 5766 C 532.438 3.69785 -4.38231 0
M  V30 5767 N 531.934 4.35569 -5.3875 0
M  V30 5768 N 533.727 3.66775 -4.25949 0
M  V30 5769 H 525.878 0.463294 -2.07286 0
M  V30 5770 H 528.141 0.267348 -0.909521 0
M  V30 5771 H 527.847 1.54524 -3.15935 0
M  V30 5772 H 527.721 3.0347 -2.24021 0
M  V30 5773 H 530.108 2.63248 -1.33359 0
M  V30 5774 H 530.189 1.14453 -2.28767 0
M  V30 5775 H 529.833 2.51435 -4.41297 0
M  V30 5776 H 529.763 3.99729 -3.42818 0
M  V30 5777 H 532.254 2.58941 -2.75242 0
M  V30 5778 H 532.567 4.82251 -6.03866 0
M  V30 5779 H 530.912 4.34244 -5.42639 0
M  V30 5780 H 534.103 3.14558 -3.46657 0
M  V30 5781 H 534.276 4.16407 -4.96497 0
M  V30 5782 N 527.682 1.05563 1.17022 0
M  V30 5783 C 528.629 0.659893 2.21165 0
M  V30 5784 C 529.599 -0.339813 1.62587 0
M  V30 5785 O 530.784 -0.230378 1.89404 0
M  V30 5786 C 527.924 0.0447297 3.45071 0
M  V30 5787 C 527.037 1.09372 4.17926 0
M  V30 5788 C 526.172 0.445481 5.29329 0
M  V30 5789 C 525.211 1.47852 5.93975 0
M  V30 5790 N 524.348 0.854172 6.96885 0
M  V30 5791 H 529.188 1.55243 2.54369 0
M  V30 5792 H 526.725 0.776336 1.24946 0
M  V30 5793 H 528.683 -0.329404 4.15898 0
M  V30 5794 H 527.313 -0.811244 3.1244 0
M  V30 5795 H 526.365 1.58564 3.45777 0
M  V30 5796 H 527.677 1.87773 4.62107 0
M  V30 5797 H 526.831 0.0179688 6.06697 0
M  V30 5798 H 525.57 -0.370481 4.86291 0
M  V30 5799 H 524.575 1.91601 5.15334 0
M  V30 5800 H 525.8 2.29645 6.39093 0
M  V30 5801 H 523.746 0.0587882 6.55974 0
M  V30 5802 H 523.663 1.57567 7.39397 0
M  V30 5803 H 524.931 0.451559 7.78191 0
M  V30 5804 N 529.16 -1.33526 0.837174 0
M  V30 5805 C 530.576 -1.50727 0.524743 0
M  V30 5806 C 530.776 -1.77792 -0.948279 0
M  V30 5807 O 529.832 -1.83719 -1.73216 0
M  V30 5808 C 531.145 -2.66299 1.39661 0
M  V30 5809 C 532.693 -2.80183 1.39521 0
M  V30 5810 C 533.168 -3.98815 2.25189 0
M  V30 5811 N 534.659 -4.06047 2.2289 0
M  V30 5812 C 535.394 -4.97032 2.85915 0
M  V30 5813 N 534.89 -5.93143 3.57985 0
M  V30 5814 N 536.683 -4.90015 2.75394 0
M  V30 5815 H 528.834 -1.1422 1.79074 0
M  V30 5816 H 531.097 -0.561399 0.763894 0
M  V30 5817 H 530.803 -2.52974 2.4433 0
M  V30 5818 H 530.677 -3.61663 1.07145 0
M  V30 5819 H 533.064 -2.92942 0.356253 0
M  V30 5820 H 533.145 -1.85586 1.76044 0
M  V30 5821 H 532.789 -3.86817 3.29143 0
M  V30 5822 H 532.719 -4.92654 1.86009 0
M  V30 5823 H 535.21 -3.37262 1.70478 0
M  V30 5824 H 535.523 -6.59227 4.03286 0
M  V30 5825 H 533.868 -5.93223 3.62093 0
M  V30 5826 H 537.059 -4.13894 2.18654 0
M  V30 5827 H 537.232 -5.60724 3.24796 0
M  V30 5828 N 530.638 -0.59345 -1.46 0
M  V30 5829 C 531.588 0.154751 -2.27474 0
M  V30 5830 C 532.572 0.851849 -1.365 0
M  V30 5831 O 533.764 0.744171 -1.60596 0
M  V30 5832 C 530.893 1.16079 -3.2308 0
M  V30 5833 C 529.979 0.465256 -4.2154 0
M  V30 5834 N 530.37 -0.485197 -5.03467 0
M  V30 5835 C 528.668 0.714634 -4.40237 0
M  V30 5836 C 529.369 -0.892709 -5.74809 0
M  V30 5837 N 528.345 -0.239511 -5.43072 0
M  V30 5838 H 532.147 -0.57546 -2.88211 0
M  V30 5839 H 529.661 -0.416046 -1.5698 0
M  V30 5840 H 531.658 1.71108 -3.80168 0
M  V30 5841 H 530.318 1.89171 -2.63903 0
M  V30 5842 H 531.329 -0.861258 -5.10689 0
M  V30 5843 H 528.006 1.43131 -3.92199 0
M  V30 5844 H 529.396 -1.67581 -6.50666 0
M  V30 5845 N 532.116 1.54067 -0.331816 0
M  V30 5846 C 533.362 2.01012 0.268667 0
M  V30 5847 C 533.695 1.2195 1.51136 0
M  V30 5848 O 532.97 0.303972 1.9211 0
M  V30 5849 C 533.253 3.55158 0.59456 0
M  V30 5850 C 533.106 4.4494 -0.659409 0
M  V30 5851 C 534.425 4.16939 1.4089 0
M  V30 5852 H 531.544 0.730698 0.0961756 0
M  V30 5853 H 534.186 1.84593 -0.450031 0
M  V30 5854 H 532.336 3.6928 1.20685 0
M  V30 5855 H 534.008 4.42675 -1.29756 0
M  V30 5856 H 532.251 4.1428 -1.28665 0
M  V30 5857 H 532.922 5.50643 -0.386804 0
M  V30 5858 H 535.398 4.06443 0.891272 0
M  V30 5859 H 534.274 5.24889 1.60569 0
M  V30 5860 H 534.535 3.70798 2.40752 0
M  V30 5861 N 533.594 0.0601682 1.57485 0
M  V30 5862 C 534.504 -0.926121 2.15546 0
M  V30 5863 C 535.52 -1.33532 1.11558 0
M  V30 5864 O 536.696 -1.4104 1.4377 0
M  V30 5865 C 533.761 -2.17952 2.69625 0
M  V30 5866 C 532.822 -1.82783 3.88444 0
M  V30 5867 C 532.055 -3.02148 4.39935 0
M  V30 5868 O 532.278 -4.15803 3.90466 0
M  V30 5869 O 531.212 -2.82639 5.31412 0
M  V30 5870 H 535.038 -0.462289 3.00161 0
M  V30 5871 H 532.623 -0.162246 1.48516 0
M  V30 5872 H 534.505 -2.91474 3.04337 0
M  V30 5873 H 533.18 -2.63456 1.88077 0
M  V30 5874 H 532.087 -1.06549 3.58606 0
M  V30 5875 H 533.42 -1.42072 4.7125 0
M  V30 5876 N 535.072 -1.5615 -0.213296 0
M  V30 5877 C 536.318 -1.79812 -0.937849 0
M  V30 5878 C 536.651 -0.631201 -1.83656 0
M  V30 5879 O 535.926 0.369165 -1.90964 0
M  V30 5880 C 536.209 -3.13613 -1.76972 0
M  V30 5881 C 536.062 -4.40766 -0.89695 0
M  V30 5882 C 537.381 -3.43931 -2.7459 0
M  V30 5883 H 534.5 -0.654138 -0.339518 0
M  V30 5884 H 537.142 -1.88877 -0.20623 0
M  V30 5885 H 535.292 -3.06015 -2.39347 0
M  V30 5886 H 536.964 -4.60392 -0.289306 0
M  V30 5887 H 535.207 -4.33326 -0.202756 0
M  V30 5888 H 535.878 -5.30843 -1.51358 0
M  V30 5889 H 538.354 -3.5171 -2.22349 0
M  V30 5890 H 537.23 -4.38706 -3.29891 0
M  V30 5891 H 537.491 -2.6651 -3.52739 0
M  V30 5892 N 536.55 0.480323 -1.50102 0
M  V30 5893 C 537.775 1.26126 -1.64642 0
M  V30 5894 C 538.2 1.85257 -0.325823 0
M  V30 5895 O 537.558 1.66854 0.709194 0
M  V30 5896 C 537.606 2.35243 -2.73301 0
M  V30 5897 O 536.71 3.39646 -2.33911 0
M  V30 5898 H 536.051 0.371463 -0.550374 0
M  V30 5899 H 538.581 0.572696 -1.96421 0
M  V30 5900 H 538.591 2.80695 -2.96098 0
M  V30 5901 H 537.266 1.91574 -3.6915 0
M  V30 5902 H 535.843 2.99969 -2.21525 0
M  V30 5903 N 538.028 1.39524 0.732853 0
M  V30 5904 C 538.96 1.34318 1.85718 0
M  V30 5905 C 539.973 0.251576 1.60844 0
M  V30 5906 O 541.162 0.510685 1.71039 0
M  V30 5907 C 538.262 1.06334 3.21786 0
M  V30 5908 C 537.435 2.26813 3.73998 0
M  V30 5909 C 536.494 1.95253 4.88634 0
M  V30 5910 O 535.52 2.67957 5.02183 0
M  V30 5911 N 536.722 0.919984 5.73164 0
M  V30 5912 H 539.487 2.3121 1.90688 0
M  V30 5913 H 537.048 1.33654 0.91368 0
M  V30 5914 H 539.04 0.832363 3.96048 0
M  V30 5915 H 537.61 0.181682 3.12072 0
M  V30 5916 H 536.83 2.65849 2.91064 0
M  V30 5917 H 538.118 3.0717 4.05616 0
M  V30 5918 H 537.516 0.317487 5.64808 0
M  V30 5919 H 536.073 0.748905 6.47483 0
M  V30 5920 N 539.506 -0.963266 1.24736 0
M  V30 5921 C 540.469 -2.04013 1.04457 0
M  V30 5922 C 541.469 -1.608 0.000335555 0
M  V30 5923 O 542.659 -1.72515 0.241719 0
M  V30 5924 C 539.791 -3.35858 0.584162 0
M  V30 5925 H 540.984 -2.23436 2.00041 0
M  V30 5926 H 538.537 -1.13914 1.07021 0
M  V30 5927 H 539.272 -3.22128 -0.374673 0
M  V30 5928 H 539.057 -3.68568 1.3379 0
M  V30 5929 H 540.547 -4.1502 0.463451 0
M  V30 5930 N 540.985 -1.06182 -1.16461 0
M  V30 5931 C 542.396 -0.802426 -1.68576 0
M  V30 5932 C 542.747 0.67412 -1.84255 0
M  V30 5933 O 541.872 1.52303 -1.5373 0
M  V30 5934 C 542.467 -1.45002 -3.06202 0
M  V30 5935 C 541.026 -1.23843 -3.55443 0
M  V30 5936 C 540.173 -1.52724 -2.31454 0
M  V30 5937 H 543.124 -1.22545 -1.00839 0
M  V30 5938 H 543.145 -0.864731 -3.70544 0
M  V30 5939 H 542.657 -2.52466 -2.94759 0
M  V30 5940 H 540.758 -0.183487 -3.72148 0
M  V30 5941 H 540.871 -1.95036 -4.37604 0
M  V30 5942 H 539.235 -0.947726 -2.36411 0
M  V30 5943 H 540.018 -2.61343 -2.22609 0
M  V30 5944 N 542.463 1.3308 -0.844243 0
M  V30 5945 C 543.393 2.3161 -0.296493 0
M  V30 5946 C 544.374 1.59215 0.598707 0
M  V30 5947 O 545.559 1.87077 0.521134 0
M  V30 5948 C 542.689 3.43313 0.524762 0
M  V30 5949 C 541.643 4.27115 -0.275106 0
M  V30 5950 C 540.969 5.30483 0.670236 0
M  V30 5951 C 542.269 5.00443 -1.49514 0
M  V30 5952 H 543.963 2.77672 -1.11976 0
M  V30 5953 H 541.509 1.33496 -0.539899 0
M  V30 5954 H 543.462 4.11273 0.918298 0
M  V30 5955 H 542.186 2.95952 1.3813 0
M  V30 5956 H 540.845 3.60787 -0.650267 0
M  V30 5957 H 540.493 4.79379 1.52332 0
M  V30 5958 H 540.193 5.87435 0.139123 0
M  V30 5959 H 541.717 6.01308 1.06117 0
M  V30 5960 H 543.131 5.61141 -1.17447 0
M  V30 5961 H 541.528 5.67071 -1.96343 0
M  V30 5962 H 542.598 4.28906 -2.26202 0
M  V30 5963 N 543.941 0.601185 1.45683 0
M  V30 5964 C 545.352 0.179659 1.85834 0
M  V30 5965 C 545.703 -1.26189 1.50236 0
M  V30 5966 O 544.828 -1.95587 0.925987 0
M  V30 5967 C 545.423 0.319277 3.37292 0
M  V30 5968 C 543.982 -0.0475092 3.7637 0
M  V30 5969 C 543.129 0.646692 2.69654 0
M  V30 5970 H 546.08 0.808268 1.36575 0
M  V30 5971 H 546.101 -0.4503 3.77826 0
M  V30 5972 H 545.613 1.36855 3.6317 0
M  V30 5973 H 543.714 -1.0962 3.5611 0
M  V30 5974 H 543.827 0.34168 4.7788 0
M  V30 5975 H 542.191 0.0849971 2.54558 0
M  V30 5976 H 542.974 1.69797 2.98369 0
M  V30 5977 N 545.419 -1.53889 0.339982 0
M  V30 5978 C 546.83 -1.86139 -0.144671 0
M  V30 5979 C 547.181 -1.2613 -1.50285 0
M  V30 5980 O 546.306 -0.573515 -2.08662 0
M  V30 5981 C 546.901 -3.37728 -0.269285 0
M  V30 5982 C 545.46 -3.69868 -0.698168 0
M  V30 5983 C 544.607 -2.76777 0.170249 0
M  V30 5984 H 547.558 -1.48503 0.559704 0
M  V30 5985 H 547.579 -3.64331 -1.0974 0
M  V30 5986 H 547.091 -3.81375 0.719366 0
M  V30 5987 H 545.192 -3.31764 -1.69597 0
M  V30 5988 H 545.305 -4.76582 -0.490533 0
M  V30 5989 H 543.669 -2.52188 -0.356844 0
M  V30 5990 H 544.452 -3.23253 1.15597 0
M  V30 5991 N 546.897 -0.0685191 -1.57451 0
M  V30 5992 C 547.86 0.885173 -2.11417 0
M  V30 5993 C 548.86 1.22853 -1.03748 0
M  V30 5994 O 550.05 1.16235 -1.2975 0
M  V30 5995 C 547.182 2.18964 -2.61281 0
M  V30 5996 H 548.375 0.417034 -2.96986 0
M  V30 5997 H 545.928 0.18014 -1.55258 0
M  V30 5998 H 546.663 2.70321 -1.79156 0
M  V30 5999 H 546.448 1.9534 -3.39977 0
M  V30 6000 H 547.938 2.87242 -3.0312 0
M  V30 6001 N 548.375 1.56261 0.205012 0
M  V30 6002 C 549.786 1.70056 0.770574 0
M  V30 6003 C 550.137 0.673398 1.84282 0
M  V30 6004 O 549.262 -0.172196 2.15714 0
M  V30 6005 C 549.857 3.08316 1.40451 0
M  V30 6006 C 548.416 3.2391 1.91727 0
M  V30 6007 C 547.563 2.66001 0.783516 0
M  V30 6008 H 550.514 1.58688 -0.019911 0
M  V30 6009 H 550.535 3.05094 2.27371 0
M  V30 6010 H 550.047 3.83053 0.623882 0
M  V30 6011 H 548.148 2.54072 2.7254 0
M  V30 6012 H 548.261 4.3131 2.08588 0
M  V30 6013 H 546.625 2.24915 1.19521 0
M  V30 6014 H 547.408 3.43297 0.0152883 0
M  V30 6015 N 549.853 -0.472356 1.50355 0
M  V30 6016 C 550.816 -1.5529 1.68576 0
M  V30 6017 C 551.816 -1.50863 0.556511 0
M  V30 6018 O 553.006 -1.53505 0.823516 0
M  V30 6019 C 550.138 -2.94921 1.70981 0
M  V30 6020 H 551.331 -1.40451 2.64978 0
M  V30 6021 H 548.884 -0.698645 1.39816 0
M  V30 6022 H 549.619 -3.15204 0.762675 0
M  V30 6023 H 549.404 -2.99541 2.53017 0
M  V30 6024 H 550.894 -3.73372 1.87037 0
M  V30 6025 N 551.331 -1.39911 -0.725443 0
M  V30 6026 C 552.561 -1.40744 -1.51244 0
M  V30 6027 C 552.969 -0.00275403 -1.892 0
M  V30 6028 O 552.312 0.981299 -1.55294 0
M  V30 6029 C 552.374 -2.22527 -2.82351 0
M  V30 6030 C 552.038 -3.71053 -2.66774 0
M  V30 6031 C 553.035 -4.63916 -2.34686 0
M  V30 6032 C 550.72 -4.14753 -2.83347 0
M  V30 6033 C 552.714 -5.98463 -2.19366 0
M  V30 6034 C 550.401 -5.49372 -2.67644 0
M  V30 6035 C 551.399 -6.41042 -2.357 0
M  V30 6036 O 551.087 -7.73181 -2.20107 0
M  V30 6037 H 550.819 -0.482314 -0.473655 0
M  V30 6038 H 553.373 -1.84472 -0.903284 0
M  V30 6039 H 551.603 -1.73563 -3.45562 0
M  V30 6040 H 553.292 -2.15421 -3.44018 0
M  V30 6041 H 554.058 -4.31453 -2.21525 0
M  V30 6042 H 549.937 -3.43728 -3.072 0
M  V30 6043 H 553.481 -6.69979 -1.94354 0
M  V30 6044 H 549.378 -5.81424 -2.80387 0
M  V30 6045 H 550.146 -7.84008 -2.35103 0
M  V30 6046 N 552.809 0.956637 -1.25245 0
M  V30 6047 C 553.739 2.07058 -1.07931 0
M  V30 6048 C 554.72 1.70096 0.0110361 0
M  V30 6049 O 555.905 1.93555 -0.158121 0
M  V30 6050 C 553.035 3.40272 -0.695124 0
M  V30 6051 C 551.989 3.91235 -1.73549 0
M  V30 6052 C 551.315 5.20921 -1.20604 0
M  V30 6053 C 552.615 4.17837 -3.13385 0
M  V30 6054 H 554.309 2.218 -2.01109 0
M  V30 6055 H 551.855 1.06581 -0.968326 0
M  V30 6056 H 553.808 4.1765 -0.560949 0
M  V30 6057 H 552.532 3.25462 0.272355 0
M  V30 6058 H 551.191 3.16025 -1.85807 0
M  V30 6059 H 550.839 5.02479 -0.228846 0
M  V30 6060 H 550.539 5.55987 -1.90136 0
M  V30 6061 H 552.063 6.00897 -1.08421 0
M  V30 6062 H 553.477 4.8588 -3.04292 0
M  V30 6063 H 551.874 4.64154 -3.80369 0
M  V30 6064 H 552.944 3.2419 -3.60595 0
M  V30 6065 N 554.287 1.06798 1.15896 0
M  V30 6066 C 555.512 0.808739 1.90982 0
M  V30 6067 C 555.937 -0.6316 1.77179 0
M  V30 6068 O 555.295 -1.4407 1.10061 0
M  V30 6069 C 555.343 1.21468 3.39526 0
M  V30 6070 O 554.447 0.356562 4.10856 0
M  V30 6071 H 553.788 0.29512 0.594811 0
M  V30 6072 H 556.318 1.42513 1.46804 0
M  V30 6073 H 556.328 1.18844 3.90308 0
M  V30 6074 H 555.003 2.26379 3.48891 0
M  V30 6075 H 553.58 0.444808 3.70238 0
M  V30 6076 N 555.766 -1.3263 0.851289 0
M  V30 6077 C 556.991 -2.02097 0.466006 0
M  V30 6078 C 557.416 -1.63574 -0.928709 0
M  V30 6079 O 556.774 -0.834665 -1.60944 0
M  V30 6080 C 556.822 -3.55425 0.608737 0
M  V30 6081 O 555.926 -4.10827 -0.359878 0
M  V30 6082 H 555.267 -0.636911 0.187724 0
M  V30 6083 H 557.797 -1.69253 1.14955 0
M  V30 6084 H 557.807 -4.04986 0.495006 0
M  V30 6085 H 556.482 -3.82806 1.62581 0
M  V30 6086 H 555.059 -3.72349 -0.202666 0
M  V30 6087 N 557.244 -0.608902 -1.45362 0
M  V30 6088 C 558.655 -0.189511 -1.85736 0
M  V30 6089 C 559.006 1.2539 -1.50903 0
M  V30 6090 O 558.131 1.95094 -0.936347 0
M  V30 6091 C 558.726 -0.33716 -3.37118 0
M  V30 6092 C 557.285 0.0275487 -3.7639 0
M  V30 6093 C 556.432 -0.660983 -2.69307 0
M  V30 6094 H 559.383 -0.815499 -1.36144 0
M  V30 6095 H 559.404 0.430257 -3.7806 0
M  V30 6096 H 558.916 -1.38779 -3.62439 0
M  V30 6097 H 557.017 1.0773 -3.56686 0
M  V30 6098 H 557.13 -0.367018 -4.77692 0
M  V30 6099 H 555.494 -0.0984958 -2.54509 0
M  V30 6100 H 556.277 -1.71377 -2.97464 0
M  V30 6101 N 558.722 1.53707 -0.348139 0
M  V30 6102 C 559.652 2.28111 0.498766 0
M  V30 6103 C 560.633 1.29851 1.09876 0
M  V30 6104 O 561.818 1.587 1.11928 0
M  V30 6105 C 558.948 3.05735 1.64753 0
M  V30 6106 C 557.902 4.11537 1.17565 0
M  V30 6107 C 557.228 4.77142 2.4133 0
M  V30 6108 C 558.528 5.21587 0.272844 0
M  V30 6109 H 560.222 2.99152 -0.121934 0
M  V30 6110 H 557.768 1.43875 -0.0600842 0
M  V30 6111 H 559.721 3.56526 2.24649 0
M  V30 6112 H 558.445 2.32354 2.2952 0
M  V30 6113 H 557.104 3.61665 0.599483 0
M  V30 6114 H 556.752 4.0035 3.04514 0
M  V30 6115 H 556.452 5.48626 2.10436 0
M  V30 6116 H 557.976 5.30719 3.01943 0
M  V30 6117 H 559.39 5.67986 0.778779 0
M  V30 6118 H 557.787 6.00074 0.0555849 0
M  V30 6119 H 558.857 4.79969 -0.689785 0
M  V30 6120 N 560.2 0.0768682 1.57412 0
M  V30 6121 C 561.163 -0.873949 2.11884 0
M  V30 6122 C 562.163 -1.22301 1.04398 0
M  V30 6123 O 563.353 -1.15545 1.30365 0
M  V30 6124 C 560.485 -2.17575 2.62438 0
M  V30 6125 H 561.678 -0.401278 2.97203 0
M  V30 6126 H 559.231 -0.171904 1.55352 0
M  V30 6127 H 559.966 -2.69368 1.80587 0
M  V30 6128 H 559.751 -1.93534 3.41009 0
M  V30 6129 H 561.241 -2.85631 3.04639 0
M  V30 6130 N 561.678 -1.56367 -0.196722 0
M  V30 6131 C 562.608 -1.97442 -1.24655 0
M  V30 6132 C 563.589 -0.846147 -1.47561 0
M  V30 6133 O 564.774 -1.11035 -1.59326 0
M  V30 6134 C 561.904 -2.31253 -2.59112 0
M  V30 6135 C 560.858 -3.46804 -2.50821 0
M  V30 6136 C 560.184 -3.66286 -3.89536 0
M  V30 6137 C 561.484 -4.8104 -2.03465 0
M  V30 6138 H 563.178 -2.85388 -0.905216 0
M  V30 6139 H 560.724 -1.37304 -0.434002 0
M  V30 6140 H 562.677 -2.58583 -3.32736 0
M  V30 6141 H 561.401 -1.40188 -2.94983 0
M  V30 6142 H 560.06 -3.19563 -1.79653 0
M  V30 6143 H 559.708 -2.72555 -4.22756 0
M  V30 6144 H 559.408 -4.4402 -3.84864 0
M  V30 6145 H 560.932 -3.9599 -4.64784 0
M  V30 6146 H 562.346 -5.07411 -2.66846 0
M  V30 6147 H 560.743 -5.62232 -2.09798 0
M  V30 6148 H 561.813 -4.74732 -0.98781 0
M  V30 6149 N 563.156 0.464375 -1.50603 0
M  V30 6150 C 564.567 1.04507 -1.5471 0
M  V30 6151 C 564.918 1.9297 -0.354542 0
M  V30 6152 O 564.043 2.09763 0.531812 0
M  V30 6153 C 564.638 1.90207 -2.80369 0
M  V30 6154 C 563.197 2.43373 -2.87135 0
M  V30 6155 C 562.344 1.21886 -2.49076 0
M  V30 6156 H 565.295 0.246716 -1.56771 0
M  V30 6157 H 565.316 2.75353 -2.62604 0
M  V30 6158 H 564.828 1.25796 -3.67147 0
M  V30 6159 H 562.929 3.11318 -2.04724 0
M  V30 6160 H 563.042 2.7802 -3.90181 0
M  V30 6161 H 561.406 1.55575 -2.01664 0
M  V30 6162 H 562.189 0.591268 -3.3817 0
M  V30 6163 N 564.634 1.40294 0.718013 0
M  V30 6164 C 565.859 1.41941 1.5122 0
M  V30 6165 C 566.284 0.0202371 1.88089 0
M  V30 6166 O 565.642 -0.971078 1.53101 0
M  V30 6167 C 565.69 2.3141 2.76554 0
M  V30 6168 O 564.794 1.75567 3.73162 0
M  V30 6169 H 564.135 0.482644 0.456016 0
M  V30 6170 H 566.665 1.84494 0.884478 0
M  V30 6171 H 566.675 2.46513 3.25108 0
M  V30 6172 H 565.35 3.33085 2.49053 0
M  V30 6173 H 563.927 1.69798 3.31999 0
M  V30 6174 N 566.112 -0.949982 1.2575 0
M  V30 6175 C 567.044 -2.05088 1.02331 0
M  V30 6176 C 568.057 -1.62795 -0.0133247 0
M  V30 6177 O 569.246 -1.77067 0.225759 0
M  V30 6178 C 566.346 -3.34794 0.525924 0
M  V30 6179 C 565.519 -4.05903 1.62978 0
M  V30 6180 C 564.578 -5.1388 1.13196 0
M  V30 6181 O 563.604 -5.39072 1.82729 0
M  V30 6182 N 564.806 -5.80495 -0.0242926 0
M  V30 6183 H 567.571 -2.25747 1.97125 0
M  V30 6184 H 565.132 -1.11886 1.17018 0
M  V30 6185 H 567.124 -4.04312 0.177263 0
M  V30 6186 H 565.694 -3.10872 -0.328202 0
M  V30 6187 H 564.914 -3.3042 2.1498 0
M  V30 6188 H 566.202 -4.50166 2.37124 0
M  V30 6189 H 565.6 -5.62454 -0.605184 0
M  V30 6190 H 564.157 -6.51043 -0.313947 0
M  V30 6191 N 567.59 -1.07411 -1.15328 0
M  V30 6192 C 569.006 -0.799759 -1.38116 0
M  V30 6193 C 569.206 0.59572 -1.92493 0
M  V30 6194 O 568.262 1.35433 -2.13106 0
M  V30 6195 C 569.575 -1.87407 -2.35158 0
M  V30 6196 C 571.123 -1.89889 -2.48819 0
M  V30 6197 C 571.598 -2.96406 -3.49153 0
M  V30 6198 N 573.089 -2.95512 -3.56689 0
M  V30 6199 C 573.824 -3.74575 -4.34144 0
M  V30 6200 N 573.32 -4.63488 -5.14928 0
M  V30 6201 N 575.113 -3.62919 -4.29239 0
M  V30 6202 H 567.264 -1.97411 -0.78374 0
M  V30 6203 H 569.527 -0.856113 -0.407154 0
M  V30 6204 H 569.233 -2.8768 -2.0232 0
M  V30 6205 H 569.107 -1.73471 -3.34944 0
M  V30 6206 H 571.494 -0.902677 -2.80955 0
M  V30 6207 H 571.575 -2.07904 -1.49029 0
M  V30 6208 H 571.219 -3.96227 -3.17752 0
M  V30 6209 H 571.149 -2.75638 -4.48699 0
M  V30 6210 H 573.64 -2.31061 -2.99031 0
M  V30 6211 H 573.953 -5.20445 -5.71276 0
M  V30 6212 H 572.298 -4.67537 -5.14232 0
M  V30 6213 H 575.489 -2.92833 -3.65194 0
M  V30 6214 H 575.662 -4.24777 -4.89355 0
M  V30 6215 N 569.068 1.32177 -0.85831 0
M  V30 6216 C 570.484 1.49873 -0.548656 0
M  V30 6217 C 570.684 1.79278 0.919874 0
M  V30 6218 O 569.74 1.86451 1.70271 0
M  V30 6219 C 571.053 2.64043 -1.4388 0
M  V30 6220 C 572.601 2.77928 -1.43961 0
M  V30 6221 C 573.076 3.95182 -2.31506 0
M  V30 6222 N 574.567 4.0245 -2.29321 0
M  V30 6223 C 575.302 4.9242 -2.93786 0
M  V30 6224 N 574.798 5.87373 -3.67376 0
M  V30 6225 N 576.591 4.85572 -2.83155 0
M  V30 6226 H 568.742 1.11357 -1.80868 0
M  V30 6227 H 571.005 0.549175 -0.772729 0
M  V30 6228 H 570.711 2.49055 -2.48324 0
M  V30 6229 H 570.585 3.59912 -1.12885 0
M  V30 6230 H 572.972 2.92338 -0.402813 0
M  V30 6231 H 573.053 1.82762 -1.78974 0
M  V30 6232 H 572.697 3.81531 -3.35256 0
M  V30 6233 H 572.627 4.89633 -1.93823 0
M  V30 6234 H 575.118 3.34507 -1.75822 0
M  V30 6235 H 575.431 6.52728 -4.13722 0
M  V30 6236 H 573.776 5.87388 -3.71484 0
M  V30 6237 H 576.967 4.10363 -2.25211 0
M  V30 6238 H 577.14 5.55486 -3.33676 0
M  V30 6239 N 570.547 0.616602 1.45037 0
M  V30 6240 C 571.772 0.120192 2.07051 0
M  V30 6241 C 572.197 -1.19008 1.45666 0
M  V30 6242 O 571.555 -1.7267 0.552692 0
M  V30 6243 C 571.603 0.00354901 3.606 0
M  V30 6244 O 570.707 -1.04431 3.98958 0
M  V30 6245 H 570.048 0.0781599 0.659384 0
M  V30 6246 H 572.578 0.849167 1.86146 0
M  V30 6247 H 572.588 -0.191754 4.07549 0
M  V30 6248 H 571.263 0.960239 4.04663 0
M  V30 6249 H 569.84 -0.824749 3.63665 0
M  V30 6250 N 572.025 -1.5352 0.356285 0
M  V30 6251 C 573.436 -1.86282 -0.12492 0
M  V30 6252 C 573.787 -1.27717 -1.48939 0
M  V30 6253 O 572.912 -0.595614 -2.08042 0
M  V30 6254 C 573.507 -3.37995 -0.23345 0
M  V30 6255 C 572.066 -3.70588 -0.658899 0
M  V30 6256 C 571.213 -2.76581 0.199596 0
M  V30 6257 H 574.164 -1.47901 0.575423 0
M  V30 6258 H 574.185 -3.65475 -1.0587 0
M  V30 6259 H 573.697 -3.8059 0.759776 0
M  V30 6260 H 571.798 -3.33544 -1.66069 0
M  V30 6261 H 571.911 -4.77076 -0.439957 0
M  V30 6262 H 570.275 -2.52552 -0.330076 0
M  V30 6263 H 571.058 -3.22008 1.19019 0
M  V30 6264 N 573.503 -0.0852151 -1.57369 0
M  V30 6265 C 574.914 0.445428 -1.81309 0
M  V30 6266 C 575.265 1.68795 -1.00013 0
M  V30 6267 O 574.39 2.15211 -0.226573 0
M  V30 6268 C 574.985 0.814887 -3.28854 0
M  V30 6269 C 573.544 1.29032 -3.53592 0
M  V30 6270 C 572.691 0.282089 -2.75861 0
M  V30 6271 H 575.642 -0.310771 -1.55627 0
M  V30 6272 H 575.663 1.67524 -3.41637 0
M  V30 6273 H 575.175 -0.0896309 -3.87996 0
M  V30 6274 H 573.276 2.21289 -2.9977 0
M  V30 6275 H 573.389 1.25898 -4.62262 0
M  V30 6276 H 571.753 0.762182 -2.43029 0
M  V30 6277 H 572.536 -0.614936 -3.37748 0
M  V30 6278 N 574.981 1.5647 0.188427 0
M  V30 6279 C 575.891 1.98285 1.2538 0
M  V30 6280 C 576.907 0.891535 1.49424 0
M  V30 6281 O 578.083 1.19782 1.61908 0
M  V30 6282 C 575.148 2.31965 2.57669 0
M  V30 6283 C 574.209 3.54838 2.41638 0
M  V30 6284 C 573.442 3.86901 3.67618 0
M  V30 6285 O 573.665 3.20163 4.72072 0
M  V30 6286 O 572.599 4.80309 3.62749 0
M  V30 6287 H 576.425 2.89145 0.928912 0
M  V30 6288 H 574.01 1.44112 0.393955 0
M  V30 6289 H 575.892 2.54673 3.35737 0
M  V30 6290 H 574.567 1.44271 2.89771 0
M  V30 6291 H 573.474 3.37369 1.61658 0
M  V30 6292 H 574.807 4.43019 2.14465 0
M  V30 6293 N 576.459 -0.456382 1.50847 0
M  V30 6294 C 577.369 -1.57805 1.73594 0
M  V30 6295 C 578.385 -1.62599 0.619476 0
M  V30 6296 O 579.561 -1.80195 0.899532 0
M  V30 6297 C 576.626 -2.93926 1.8387 0
M  V30 6298 C 575.687 -2.99402 3.07663 0
M  V30 6299 C 574.92 -4.29031 3.1744 0
M  V30 6300 O 575.143 -5.20358 2.33631 0
M  V30 6301 O 574.077 -4.40401 4.10281 0
M  V30 6302 H 577.903 -1.41531 2.68705 0
M  V30 6303 H 575.488 -0.637422 1.3512 0
M  V30 6304 H 577.37 -3.74747 1.92725 0
M  V30 6305 H 576.045 -3.10368 0.91944 0
M  V30 6306 H 574.952 -2.17606 3.043 0
M  V30 6307 H 576.285 -2.87901 3.99216 0
M  V30 6308 N 577.937 -1.40673 -0.710563 0
M  V30 6309 C 579.348 -1.34975 -1.28991 0
M  V30 6310 C 579.699 -0.0256272 -1.96183 0
M  V30 6311 O 578.824 0.876339 -1.97862 0
M  V30 6312 C 579.419 -2.44467 -2.34567 0
M  V30 6313 C 577.978 -2.42213 -2.88114 0
M  V30 6314 C 577.125 -2.25085 -1.61963 0
M  V30 6315 H 580.076 -1.50406 -0.506343 0
M  V30 6316 H 580.097 -2.12663 -3.15523 0
M  V30 6317 H 579.609 -3.40825 -1.85634 0
M  V30 6318 H 577.71 -1.49568 -3.41263 0
M  V30 6319 H 577.823 -3.37983 -3.39565 0
M  V30 6320 H 576.187 -1.72691 -1.87216 0
M  V30 6321 H 576.97 -3.23449 -1.15047 0
M  V30 6322 N 579.415 0.9433 -1.26252 0
M  V30 6323 C 580.826 1.50404 -1.10614 0
M  V30 6324 C 581.177 1.93666 0.31429 0
M  V30 6325 O 580.302 1.79709 1.20555 0
M  V30 6326 C 580.897 2.73336 -2.00182 0
M  V30 6327 C 579.456 3.25686 -1.88695 0
M  V30 6328 C 578.603 1.98474 -1.93658 0
M  V30 6329 H 581.554 0.759006 -1.39373 0
M  V30 6330 H 581.575 3.47567 -1.54847 0
M  V30 6331 H 581.087 2.41818 -3.03555 0
M  V30 6332 H 579.188 3.61998 -0.882489 0
M  V30 6333 H 579.301 3.92935 -2.74115 0
M  V30 6334 H 577.665 2.14278 -1.37684 0
M  V30 6335 H 578.448 1.6929 -2.98657 0
M  V30 6336 N 580.893 1.08022 1.14757 0
M  V30 6337 C 582.17 0.720386 1.81851 0
M  V30 6338 C 582.55 -0.796375 1.95502 0
M  V30 6339 O 581.898 -1.71339 1.51179 0
M  V30 6340 C 582.108 1.44273 3.17783 0
M  V30 6341 C 583.456 1.59925 3.93331 0
M  V30 6342 O 584.48 1.40407 3.2736 0
M  V30 6343 O 583.339 1.92096 5.11626 0
M  V30 6344 H 580.433 0.257142 0.786007 0
M  V30 6345 H 582.979 1.18155 1.21809 0
M  V30 6346 H 581.751 2.47618 3.02987 0
M  V30 6347 H 581.374 0.97279 3.85516 0
M  V30 6348 N 582.371 -1.3172 0.865308 0
M  V30 6349 C 583.618 -1.96876 0.473931 0
M  V30 6350 C 583.946 -1.68425 -0.972786 0
M  V30 6351 O 583.201 -0.970742 -1.69927 0
M  V30 6352 C 583.5 -3.5102 0.672283 0
M  V30 6353 C 583.166 -3.9948 2.09108 0
M  V30 6354 C 581.828 -4.12425 2.4791 0
M  V30 6355 C 584.18 -4.2503 3.0166 0
M  V30 6356 C 581.508 -4.48267 3.78515 0
M  V30 6357 C 583.86 -4.62335 4.31774 0
M  V30 6358 C 582.524 -4.73486 4.70497 0
M  V30 6359 H 581.794 -0.72042 0.173424 0
M  V30 6360 H 584.441 -1.56937 1.0974 0
M  V30 6361 H 582.746 -3.91785 -0.034356 0
M  V30 6362 H 584.443 -3.99475 0.349353 0
M  V30 6363 H 581.033 -3.89898 1.77981 0
M  V30 6364 H 585.217 -4.14529 2.7291 0
M  V30 6365 H 580.473 -4.55097 4.08285 0
M  V30 6366 H 584.647 -4.81058 5.03543 0
M  V30 6367 H 582.274 -5.01016 5.71741 0
M  V30 6368 N 583.85 -0.624285 -1.44708 0
M  V30 6369 C 585.09 -0.129273 -2.03991 0
M  V30 6370 C 585.454 1.22321 -1.47992 0
M  V30 6371 O 586.654 1.80993 -1.98734 0
M  V30 6372 C 584.926 -0.108231 -3.57236 0
M  V30 6373 S 586.485 0.323158 -4.37608 0
M  V30 6374 H 583.303 -0.0577318 -0.708652 0
M  V30 6375 H 585.904 -0.826139 -1.77187 0
M  V30 6376 H 584.609 -1.0958 -3.955 0
M  V30 6377 H 584.139 0.610101 -3.8864 0
M  V30 6378 H 586.154 1.56894 -4.70743 0
M  V30 6379 N 585.328 1.53329 -0.364422 0
M  V30 6380 C 586.568 2.0315 0.22572 0
M  V30 6381 C 586.932 1.24589 1.46087 0
M  V30 6382 O 588.133 1.64411 2.12656 0
M  V30 6383 C 586.404 3.53718 0.511663 0
M  V30 6384 S 587.963 4.25412 1.07564 0
M  V30 6385 H 584.781 0.70795 0.0657843 0
M  V30 6386 H 587.383 1.88811 -0.507019 0
M  V30 6387 H 586.087 4.08497 -0.394784 0
M  V30 6388 H 585.618 3.72217 1.27351 0
M  V30 6389 H 587.633 4.36486 2.35997 0
M  V30 6390 N 586.806 0.0935595 1.57322 0
M  V30 6391 C 588.217 -0.435807 1.81542 0
M  V30 6392 C 588.568 -1.68263 1.00907 0
M  V30 6393 O 587.693 -2.15087 0.237983 0
M  V30 6394 C 588.288 -0.797436 3.29282 0
M  V30 6395 C 586.847 -1.27155 3.54272 0
M  V30 6396 C 585.994 -0.267455 2.76007 0
M  V30 6397 H 588.945 0.31902 1.5546 0
M  V30 6398 H 588.966 -1.6571 3.42521 0
M  V30 6399 H 588.478 0.110206 3.87943 0
M  V30 6400 H 586.579 -2.19696 3.00939 0
M  V30 6401 H 586.692 -1.23445 4.62923 0
M  V30 6402 H 585.056 -0.749282 2.43429 0
M  V30 6403 H 585.839 0.632839 3.37417 0
M  V30 6404 N 588.284 -1.56567 -0.180126 0
M  V30 6405 C 589.231 -1.95725 -1.22313 0
M  V30 6406 C 590.201 -0.819911 -1.44453 0
M  V30 6407 O 591.386 -1.07931 -1.57339 0
M  V30 6408 C 588.526 -2.31484 -2.55947 0
M  V30 6409 C 587.639 -3.58354 -2.4126 0
M  V30 6410 C 586.774 -3.83366 -3.67701 0
M  V30 6411 C 585.813 -5.03612 -3.47909 0
M  V30 6412 N 584.95 -5.24802 -4.66398 0
M  V30 6413 H 589.79 -2.84642 -0.882198 0
M  V30 6414 H 587.327 -1.4085 -0.42422 0
M  V30 6415 H 589.285 -2.50237 -3.33822 0
M  V30 6416 H 587.915 -1.45689 -2.88053 0
M  V30 6417 H 586.967 -3.47565 -1.54606 0
M  V30 6418 H 588.279 -4.46386 -2.22577 0
M  V30 6419 H 587.433 -4.02439 -4.54013 0
M  V30 6420 H 586.172 -2.93692 -3.89353 0
M  V30 6421 H 585.177 -4.84447 -2.59983 0
M  V30 6422 H 586.402 -5.94809 -3.27688 0
M  V30 6423 H 584.348 -4.38079 -4.88286 0
M  V30 6424 H 584.265 -6.07041 -4.50596 0
M  V30 6425 H 585.533 -5.48346 -5.54019 0
M  V30 6426 N 589.762 0.448376 -1.51087 0
M  V30 6427 C 591.002 1.20832 -1.64861 0
M  V30 6428 C 591.366 1.88748 -0.351873 0
M  V30 6429 O 592.567 2.66307 -0.365265 0
M  V30 6430 C 590.838 2.20674 -2.81137 0
M  V30 6431 S 592.397 3.05303 -3.15176 0
M  V30 6432 H 589.215 0.40992 -0.580936 0
M  V30 6433 H 591.817 0.501624 -1.88955 0
M  V30 6434 H 590.521 1.69399 -3.73808 0
M  V30 6435 H 590.052 2.9594 -2.59198 0
M  V30 6436 H 592.067 4.22162 -2.60756 0
M  V30 6437 N 591.24 1.41047 0.703093 0
M  V30 6438 C 592.172 1.38228 1.82827 0
M  V30 6439 C 593.185 0.285637 1.60275 0
M  V30 6440 O 594.374 0.54685 1.69917 0
M  V30 6441 C 591.474 1.13136 3.19458 0
M  V30 6442 C 590.647 2.34695 3.69103 0
M  V30 6443 C 589.706 2.05574 4.84382 0
M  V30 6444 O 588.732 2.78549 4.96386 0
M  V30 6445 N 589.934 1.04135 5.71083 0
M  V30 6446 H 592.699 2.35203 1.85741 0
M  V30 6447 H 590.26 1.35562 0.885125 0
M  V30 6448 H 592.252 0.916183 3.94193 0
M  V30 6449 H 590.822 0.247836 3.11616 0
M  V30 6450 H 590.042 2.71963 2.85359 0
M  V30 6451 H 591.33 3.15705 3.99009 0
M  V30 6452 H 590.728 0.43722 5.64008 0
M  V30 6453 H 589.285 0.886078 6.45749 0
M  V30 6454 N 592.718 -0.936591 1.26751 0
M  V30 6455 C 593.948 -1.71509 1.15188 0
M  V30 6456 C 594.356 -1.86885 -0.295037 0
M  V30 6457 O 593.699 -1.37915 -1.21347 0
M  V30 6458 C 593.761 -3.13853 1.75318 0
M  V30 6459 C 593.425 -3.21845 3.24445 0
M  V30 6460 C 594.422 -3.04771 4.21201 0
M  V30 6461 C 592.107 -3.45088 3.64992 0
M  V30 6462 C 594.101 -3.10816 5.56482 0
M  V30 6463 C 591.788 -3.50767 5.00405 0
M  V30 6464 C 592.786 -3.33648 5.9596 0
M  V30 6465 O 592.474 -3.39045 7.28906 0
M  V30 6466 H 592.206 -0.543658 0.401761 0
M  V30 6467 H 594.76 -1.18234 1.67958 0
M  V30 6468 H 592.99 -3.6857 1.17016 0
M  V30 6469 H 594.679 -3.73634 1.58596 0
M  V30 6470 H 595.445 -2.86665 3.91214 0
M  V30 6471 H 591.324 -3.57467 2.91098 0
M  V30 6472 H 594.868 -2.97372 6.31043 0
M  V30 6473 H 590.765 -3.68396 5.30052 0
M  V30 6474 H 591.533 -3.55558 7.37238 0
M  V30 6475 N 594.196 -1.08629 -1.14182 0
M  V30 6476 C 595.128 -0.676189 -2.18998 0
M  V30 6477 C 596.141 0.277871 -1.60411 0
M  V30 6478 O 597.33 0.0651771 -1.78381 0
M  V30 6479 C 594.43 0.0254916 -3.3889 0
M  V30 6480 C 593.603 -0.948039 -4.27002 0
M  V30 6481 C 592.662 -0.281268 -5.25448 0
M  V30 6482 O 591.688 -0.926378 -5.61611 0
M  V30 6483 N 592.89 0.967923 -5.72374 0
M  V30 6484 H 595.655 -1.57792 -2.54798 0
M  V30 6485 H 593.216 -0.972665 -1.29425 0
M  V30 6486 H 595.208 0.482554 -4.01813 0
M  V30 6487 H 593.778 0.829348 -3.01398 0
M  V30 6488 H 592.998 -1.58388 -3.6098 0
M  V30 6489 H 594.286 -1.60765 -4.82734 0
M  V30 6490 H 593.684 1.51175 -5.45126 0
M  V30 6491 H 592.241 1.36844 -6.37273 0
M  V30 6492 N 595.674 1.31259 -0.872281 0
M  V30 6493 C 596.637 2.26744 -0.334656 0
M  V30 6494 C 597.637 1.52307 0.515681 0
M  V30 6495 O 598.827 1.71148 0.324656 0
M  V30 6496 C 595.959 3.36841 0.524482 0
M  V30 6497 H 597.152 2.75812 -1.17762 0
M  V30 6498 H 594.705 1.42232 -0.648064 0
M  V30 6499 H 595.44 2.93069 1.38855 0
M  V30 6500 H 595.225 3.92009 -0.0844299 0
M  V30 6501 H 596.715 4.07944 0.892838 0
M  V30 6502 N 597.152 0.631951 1.44375 0
M  V30 6503 C 598.563 0.219036 1.85411 0
M  V30 6504 C 598.914 -1.22974 1.52879 0
M  V30 6505 O 598.039 -1.93579 0.967266 0
M  V30 6506 C 598.634 0.39075 3.36539 0
M  V30 6507 C 597.193 0.0323351 3.76386 0
M  V30 6508 C 596.34 0.703744 2.68221 0
M  V30 6509 H 599.291 0.837056 1.3483 0
M  V30 6510 H 599.312 -0.370056 3.78696 0
M  V30 6511 H 598.824 1.44527 3.60185 0
M  V30 6512 H 596.925 -1.02042 3.58355 0
M  V30 6513 H 597.038 0.442969 4.77048 0
M  V30 6514 H 595.402 0.138974 2.54321 0
M  V30 6515 H 596.185 1.76088 2.947 0
M  V30 6516 N 598.631 -1.53133 0.372548 0
M  V30 6517 C 599.908 -1.93704 -0.271693 0
M  V30 6518 C 600.288 -1.30667 -1.65799 0
M  V30 6519 O 599.636 -0.46838 -2.23648 0
M  V30 6520 C 599.846 -3.47576 -0.314903 0
M  V30 6521 C 601.194 -4.20998 -0.551912 0
M  V30 6522 O 602.218 -3.53994 -0.39582 0
M  V30 6523 O 601.077 -5.39748 -0.85639 0
M  V30 6524 H 598.171 -0.810457 -0.164586 0
M  V30 6525 H 600.717 -1.6427 0.425838 0
M  V30 6526 H 599.489 -3.85749 0.656792 0
M  V30 6527 H 599.112 -3.83264 -1.05804 0
M  V30 6528 N 600.109 -0.101901 -1.5727 0
M  V30 6529 C 601.042 0.891377 -2.10071 0
M  V30 6530 C 602.02 1.27197 -1.01291 0
M  V30 6531 O 603.204 1.37602 -1.28833 0
M  V30 6532 C 600.331 2.19049 -2.58331 0
M  V30 6533 C 599.377 1.95925 -3.78834 0
M  V30 6534 S 600.21 1.19106 -5.22086 0
M  V30 6535 C 601.366 2.50234 -5.73702 0
M  V30 6536 H 601.599 0.442212 -2.93993 0
M  V30 6537 H 599.132 0.111529 -1.53997 0
M  V30 6538 H 601.09 2.937 -2.86793 0
M  V30 6539 H 599.751 2.61086 -1.74622 0
M  V30 6540 H 598.944 2.92143 -4.10693 0
M  V30 6541 H 598.546 1.29401 -3.50901 0
M  V30 6542 H 600.838 3.46173 -5.82384 0
M  V30 6543 H 601.781 2.22944 -6.72088 0
M  V30 6544 H 602.189 2.58818 -5.01671 0
M  V30 6545 N 601.587 1.56661 0.17182 0
M  V30 6546 C 602.864 1.72838 0.915778 0
M  V30 6547 C 603.244 0.66316 2.00413 0
M  V30 6548 O 602.592 -0.322123 2.26218 0
M  V30 6549 C 602.802 3.16019 1.48097 0
M  V30 6550 C 604.15 3.76962 1.95408 0
M  V30 6551 O 605.174 3.19294 1.57892 0
M  V30 6552 O 604.033 4.78219 2.64516 0
M  V30 6553 H 601.127 0.705797 0.431021 0
M  V30 6554 H 603.673 1.68947 0.159689 0
M  V30 6555 H 602.445 3.85031 0.697618 0
M  V30 6556 H 602.068 3.24234 2.30126 0
M  V30 6557 N 603.065 -0.440357 1.51323 0
M  V30 6558 C 604.293 -1.21255 1.67645 0
M  V30 6559 C 604.708 -1.85088 0.37252 0
M  V30 6560 O 604.065 -1.70582 -0.648683 0
M  V30 6561 C 604.116 -2.29881 2.78993 0
M  V30 6562 O 603.837 -1.68659 4.04334 0
M  V30 6563 C 605.338 -3.20214 3.06558 0
M  V30 6564 H 602.558 -0.36558 0.562666 0
M  V30 6565 H 605.102 -0.52214 1.97722 0
M  V30 6566 H 603.257 -2.94643 2.51524 0
M  V30 6567 H 603.671 -2.40426 4.6615 0
M  V30 6568 H 605.145 -3.92575 3.88058 0
M  V30 6569 H 605.622 -3.80794 2.18844 0
M  V30 6570 H 606.228 -2.61156 3.35675 0
M  V30 6571 N 604.543 -1.41418 -0.695603 0
M  V30 6572 C 605.473 -1.46035 -1.82197 0
M  V30 6573 C 606.454 -0.319025 -1.67082 0
M  V30 6574 O 607.639 -0.530462 -1.86815 0
M  V30 6575 C 604.769 -1.34179 -3.20333 0
M  V30 6576 C 603.723 -2.46123 -3.50154 0
M  V30 6577 C 603.049 -2.19332 -4.87645 0
M  V30 6578 C 604.349 -3.88463 -3.49133 0
M  V30 6579 H 606.043 -2.40303 -1.78591 0
M  V30 6580 H 603.589 -1.15663 -0.857797 0
M  V30 6581 H 605.542 -1.36021 -3.98844 0
M  V30 6582 H 604.266 -0.363952 -3.24566 0
M  V30 6583 H 602.925 -2.43563 -2.73994 0
M  V30 6584 H 602.573 -1.19891 -4.88503 0
M  V30 6585 H 602.273 -2.94344 -5.08562 0
M  V30 6586 H 603.797 -2.22889 -5.68465 0
M  V30 6587 H 605.211 -3.92738 -4.17648 0
M  V30 6588 H 603.608 -4.63158 -3.81582 0
M  V30 6589 H 604.678 -4.16617 -2.48109 0
M  V30 6590 N 606.021 0.929856 -1.27246 0
M  V30 6591 C 606.953 2.03434 -1.0558 0
M  V30 6592 C 607.966 1.62795 -0.0125762 0
M  V30 6593 O 609.155 1.76685 -0.2539 0
M  V30 6594 C 606.255 3.33915 -0.57912 0
M  V30 6595 C 605.428 4.03259 -1.69415 0
M  V30 6596 C 604.487 5.12014 -1.21357 0
M  V30 6597 O 603.513 5.36097 -1.91282 0
M  V30 6598 N 604.715 5.8046 -0.0680622 0
M  V30 6599 H 607.48 2.22583 -2.00691 0
M  V30 6600 H 605.041 1.1001 -1.18783 0
M  V30 6601 H 607.033 4.03978 -0.241563 0
M  V30 6602 H 605.603 3.11355 0.278703 0
M  V30 6603 H 604.823 3.26958 -2.20209 0
M  V30 6604 H 606.111 4.46337 -2.44255 0
M  V30 6605 H 605.509 5.63345 0.515626 0
M  V30 6606 H 604.066 6.51461 0.210332 0
M  V30 6607 N 607.499 1.09233 1.13605 0
M  V30 6608 C 608.748 0.82205 1.84188 0
M  V30 6609 C 609.061 -0.654548 1.84323 0
M  V30 6610 O 610.267 -1.04029 2.50779 0
M  V30 6611 C 608.723 1.42066 3.30674 0
M  V30 6612 C 608.331 2.92965 3.38933 0
M  V30 6613 C 610.075 1.22924 4.06313 0
M  V30 6614 C 607.982 3.45922 4.79679 0
M  V30 6615 H 606.912 0.303854 0.690064 0
M  V30 6616 H 609.563 1.31479 1.28006 0
M  V30 6617 H 607.945 0.855613 3.86646 0
M  V30 6618 H 609.119 3.55679 2.92966 0
M  V30 6619 H 607.434 3.11118 2.76757 0
M  V30 6620 H 610.031 1.59945 5.10217 0
M  V30 6621 H 610.374 0.169726 4.15954 0
M  V30 6622 H 610.907 1.76168 3.56665 0
M  V30 6623 H 607.646 4.51484 4.75229 0
M  V30 6624 H 607.166 2.87971 5.26149 0
M  V30 6625 H 608.845 3.43009 5.48592 0
M  V30 6626 N 608.977 -1.30795 0.87923 0
M  V30 6627 C 609.927 -2.25838 0.313276 0
M  V30 6628 C 610.911 -1.51025 -0.55499 0
M  V30 6629 O 612.103 -1.72413 -0.400353 0
M  V30 6630 C 609.232 -3.39981 -0.476204 0
M  V30 6631 C 608.318 -4.22154 0.405826 0
M  V30 6632 N 608.709 -4.82934 1.50362 0
M  V30 6633 C 607.007 -4.45552 0.199909 0
M  V30 6634 C 607.708 -5.44444 2.0483 0
M  V30 6635 N 606.684 -5.26723 1.34403 0
M  V30 6636 H 610.486 -2.70374 1.15218 0
M  V30 6637 H 608 -1.45168 0.728003 0
M  V30 6638 H 609.997 -4.07108 -0.898251 0
M  V30 6639 H 608.657 -2.96986 -1.31261 0
M  V30 6640 H 609.668 -4.82319 1.8865 0
M  V30 6641 H 606.345 -4.13169 -0.599795 0
M  V30 6642 H 607.735 -6.02701 2.96986 0
M  V30 6643 N 610.455 -0.639598 -1.44038 0
M  V30 6644 C 611.701 -0.147698 -2.02261 0
M  V30 6645 C 612.034 1.23031 -1.50256 0
M  V30 6646 O 611.309 1.81847 -0.690068 0
M  V30 6647 C 611.592 -0.14362 -3.59813 0
M  V30 6648 C 611.445 -1.55458 -4.22082 0
M  V30 6649 C 612.764 0.527317 -4.36929 0
M  V30 6650 H 609.883 -0.0551453 -0.734934 0
M  V30 6651 H 612.525 -0.817688 -1.71505 0
M  V30 6652 H 610.675 0.426898 -3.86147 0
M  V30 6653 H 612.347 -2.17464 -4.06826 0
M  V30 6654 H 610.59 -2.10594 -3.79253 0
M  V30 6655 H 611.261 -1.50369 -5.31124 0
M  V30 6656 H 613.737 0.0420504 -4.16079 0
M  V30 6657 H 612.613 0.499389 -5.46624 0
M  V30 6658 H 612.874 1.59914 -4.12165 0
M  V30 6659 N 611.933 1.52934 -0.380664 0
M  V30 6660 C 612.866 2.22597 0.502564 0
M  V30 6661 C 613.844 1.22345 1.071 0
M  V30 6662 O 615.028 1.51302 1.12428 0
M  V30 6663 C 612.155 2.93246 1.69482 0
M  V30 6664 C 611.201 4.07696 1.25244 0
M  V30 6665 S 612.034 5.34957 0.241159 0
M  V30 6666 C 613.19 6.09124 1.4394 0
M  V30 6667 H 613.423 2.97167 -0.089029 0
M  V30 6668 H 610.956 1.53518 -0.164817 0
M  V30 6669 H 612.914 3.34562 2.37863 0
M  V30 6670 H 611.575 2.18373 2.2577 0
M  V30 6671 H 610.768 4.56199 2.1424 0
M  V30 6672 H 610.37 3.68349 0.647664 0
M  V30 6673 H 612.662 6.34771 2.36794 0
M  V30 6674 H 613.605 7.01068 0.995464 0
M  V30 6675 H 614.013 5.39777 1.65229 0
M  V30 6676 N 613.412 0.11024 1.57214 0
M  V30 6677 C 614.322 -0.857077 2.18383 0
M  V30 6678 C 615.338 -1.29915 1.1575 0
M  V30 6679 O 616.514 -1.36394 1.48184 0
M  V30 6680 C 613.579 -2.09264 2.76423 0
M  V30 6681 C 612.64 -1.70333 3.94063 0
M  V30 6682 C 611.873 -2.87999 4.49324 0
M  V30 6683 O 612.096 -4.0317 4.03497 0
M  V30 6684 O 611.03 -2.6559 5.40135 0
M  V30 6685 H 614.856 -0.366561 3.0148 0
M  V30 6686 H 612.441 -0.114914 1.48957 0
M  V30 6687 H 614.323 -2.81644 3.13456 0
M  V30 6688 H 612.998 -2.57339 1.96363 0
M  V30 6689 H 611.905 -0.950864 3.61814 0
M  V30 6690 H 613.238 -1.27007 4.75531 0
M  V30 6691 N 614.89 -1.56749 -0.16351 0
M  V30 6692 C 616.13 -1.84234 -0.885271 0
M  V30 6693 C 616.494 -0.692259 -1.79086 0
M  V30 6694 O 617.695 -0.847747 -2.55082 0
M  V30 6695 C 615.966 -3.16857 -1.65337 0
M  V30 6696 S 617.525 -3.65848 -2.42282 0
M  V30 6697 H 614.343 -0.646293 -0.296354 0
M  V30 6698 H 616.945 -1.94951 -0.146365 0
M  V30 6699 H 615.649 -3.98546 -0.979266 0
M  V30 6700 H 615.18 -3.09102 -2.4335 0
M  V30 6701 H 617.195 -3.33796 -3.67143 0
M  V30 6702 N 616.368 0.432326 -1.51554 0
M  V30 6703 C 617.617 1.17831 -1.63703 0
M  V30 6704 C 617.93 1.92229 -0.36156 0
M  V30 6705 O 619.136 2.69069 -0.362495 0
M  V30 6706 C 617.592 2.14318 -2.89129 0
M  V30 6707 C 617.2 1.45544 -4.23699 0
M  V30 6708 C 618.944 2.89319 -3.10636 0
M  V30 6709 C 616.851 2.40545 -5.4027 0
M  V30 6710 H 615.781 0.443533 -0.60975 0
M  V30 6711 H 618.432 0.444878 -1.78026 0
M  V30 6712 H 616.814 2.91117 -2.68452 0
M  V30 6713 H 617.988 0.742693 -4.54775 0
M  V30 6714 H 616.303 0.826772 -4.0811 0
M  V30 6715 H 618.9 3.60495 -3.94902 0
M  V30 6716 H 619.243 3.50951 -2.23918 0
M  V30 6717 H 619.776 2.19625 -3.31677 0
M  V30 6718 H 616.515 1.83594 -6.29264 0
M  V30 6719 H 616.035 3.09859 -5.13563 0
M  V30 6720 H 617.714 3.01569 -5.72421 0
M  V30 6721 N 617.846 1.41785 0.688094 0
M  V30 6722 C 618.756 1.46596 1.83158 0
M  V30 6723 C 619.772 0.355862 1.70322 0
M  V30 6724 O 620.948 0.604737 1.92106 0
M  V30 6725 C 618.013 1.35322 3.192 0
M  V30 6726 C 617.074 2.56711 3.4409 0
M  V30 6727 C 616.307 2.45965 4.73642 0
M  V30 6728 O 616.53 1.48827 5.50642 0
M  V30 6729 O 615.464 3.35859 4.99482 0
M  V30 6730 H 619.29 2.43083 1.82056 0
M  V30 6731 H 616.875 1.23404 0.842126 0
M  V30 6732 H 618.757 1.31347 4.00407 0
M  V30 6733 H 617.432 0.419536 3.2097 0
M  V30 6734 H 616.339 2.66262 2.62784 0
M  V30 6735 H 617.672 3.48933 3.47141 0
M  V30 6736 O 619.363 -0.830368 1.38518 0
M  V30 6737 H 620.054 -1.47302 1.25785 0
M  V30 END ATOM
M  V30 BEGIN BOND
M  V30 END BOND
M  V30 END CTAB
M  END
$$$$
