drugbank_target|Q9UF33 Ephrin type-A receptor 6 (DB12010)
 OpenBabel12092121153D

  0  0  0     0  0            999 V3000
M  V30 BEGIN CTAB
M  V30 COUNTS 16268 16472 0 0 0
M  V30 BEGIN ATOM
M  V30 1 H -0.908 1.98254 -0.117106 0
M  V30 2 N 0 1.576 0 0
M  V30 3 C 0.933 2.03868 1.02534 0
M  V30 4 C 1.911 0.928543 1.3348 0
M  V30 5 O 3.095 1.19667 1.45644 0
M  V30 6 C 0.222 2.43627 2.35294 0
M  V30 7 C -0.732 3.65373 2.2001 0
M  V30 8 S 0.101 5.13292 1.52614 0
M  V30 9 C 1.257 5.56322 2.86805 0
M  V30 10 H 1.49 2.90518 0.631377 0
M  V30 11 H -0.977 1.52953 0.210867 0
M  V30 12 H 0.981 2.67203 3.11629 0
M  V30 13 H -0.358 1.57376 2.7183 0
M  V30 14 H -1.165 3.90944 3.18086 0
M  V30 15 H -1.563 3.418 1.51819 0
M  V30 16 H 0.729 5.58782 3.83104 0
M  V30 17 H 1.672 6.56266 2.65933 0
M  V30 18 H 2.08 4.83886 2.90714 0
M  V30 19 N 1.4781 -0.272755 1.55222 0
M  V30 20 C 2.7261 -1.00234 1.75492 0
M  V30 21 C 3.0471 -1.8681 0.5592 0
M  V30 22 O 2.3171 -1.91215 -0.425882 0
M  V30 23 H 0.8971 -0.373076 0.647166 0
M  V30 24 H 3.5591 -0.296926 1.92625 0
M  V30 25 H 2.6551 -1.63913 2.65592 0
M  V30 26 N 2.9562 -1.48159 -0.537278 0
M  V30 27 C 4.2042 -1.55497 -1.29094 0
M  V30 28 C 4.5252 -0.227454 -1.93669 0
M  V30 29 O 3.7952 0.750386 -1.80959 0
M  V30 30 H 2.3752 -0.572832 -0.47945 0
M  V30 31 H 5.0372 -1.84579 -0.625818 0
M  V30 32 H 4.1332 -2.33216 -2.07405 0
M  V30 33 N 4.4343 0.785586 -1.36625 0
M  V30 34 C 5.6743 1.55678 -1.32453 0
M  V30 35 C 6.0383 1.91769 0.0941089 0
M  V30 36 O 7.2393 2.67536 0.26042 0
M  V30 37 C 5.5103 2.79701 -2.22491 0
M  V30 38 S 7.0693 3.69907 -2.36038 0
M  V30 39 H 3.8873 0.533141 -0.470405 0
M  V30 40 H 6.4893 0.924953 -1.72235 0
M  V30 41 H 5.1933 2.51244 -3.24507 0
M  V30 42 H 4.7243 3.47854 -1.83742 0
M  V30 43 H 6.7393 4.71016 -1.56072 0
M  V30 44 N 5.9124 1.20967 1.01018 0
M  V30 45 C 6.8224 0.980157 2.13143 0
M  V30 46 C 7.8384 -0.0660665 1.73875 0
M  V30 47 O 9.0144 0.122821 2.01025 0
M  V30 48 C 6.0794 0.54216 3.42435 0
M  V30 49 C 5.1404 1.65999 3.95908 0
M  V30 50 C 4.3734 1.2428 5.19028 0
M  V30 51 O 4.5964 0.114196 5.70286 0
M  V30 52 O 3.5304 2.05271 5.65816 0
M  V30 53 H 7.3564 1.91913 2.35379 0
M  V30 54 H 4.9414 0.994099 1.11526 0
M  V30 55 H 6.8234 0.30744 4.20277 0
M  V30 56 H 5.4984 -0.36815 3.216 0
M  V30 57 H 4.4054 1.94906 3.19316 0
M  V30 58 H 5.7384 2.54753 4.21143 0
M  V30 59 N 7.3905 -1.2043 1.01659 0
M  V30 60 C 8.6365 -1.90079 0.706963 0
M  V30 61 C 8.9695 -1.78648 -0.761474 0
M  V30 62 O 8.2445 -1.17069 -1.55323 0
M  V30 63 C 8.5275 -3.41469 1.14327 0
M  V30 64 C 8.3805 -3.61833 2.67201 0
M  V30 65 C 9.6995 -4.34261 0.714529 0
M  V30 66 H 6.8185 -0.690254 0.2583 0
M  V30 67 H 9.4605 -1.41826 1.26433 0
M  V30 68 H 7.6105 -3.82696 0.669056 0
M  V30 69 H 9.2825 -3.2986 3.22475 0
M  V30 70 H 7.5255 -3.05304 3.08175 0
M  V30 71 H 8.1965 -4.67955 2.92783 0
M  V30 72 H 10.6725 -4.00682 1.12221 0
M  V30 73 H 9.5485 -5.38806 1.04784 0
M  V30 74 H 9.8095 -4.40431 -0.383799 0
M  V30 75 N 8.8686 -0.792821 -1.36206 0
M  V30 76 C 10.2846 -0.474903 -1.52371 0
M  V30 77 C 10.4846 1.00622 -1.74578 0
M  V30 78 O 9.5406 1.79162 -1.77924 0
M  V30 79 C 10.8536 -1.3083 -2.70747 0
M  V30 80 C 12.4016 -1.30234 -2.84619 0
M  V30 81 C 12.8766 -2.11956 -4.06004 0
M  V30 82 N 14.3676 -2.09419 -4.13156 0
M  V30 83 C 15.1026 -2.69419 -5.06163 0
M  V30 84 N 14.5986 -3.3829 -6.04592 0
M  V30 85 N 16.3916 -2.59134 -4.98804 0
M  V30 86 H 8.5426 -1.75222 -1.20046 0
M  V30 87 H 10.8056 -0.745024 -0.586211 0
M  V30 88 H 10.5116 -2.35881 -2.6087 0
M  V30 89 H 10.3856 -0.95196 -3.6499 0
M  V30 90 H 12.7726 -0.259748 -2.93955 0
M  V30 91 H 12.8536 -1.69847 -1.91274 0
M  V30 92 H 12.4976 -3.16248 -3.97429 0
M  V30 93 H 12.4276 -1.69711 -4.98503 0
M  V30 94 H 14.9186 -1.59297 -3.42685 0
M  V30 95 H 15.2316 -3.81394 -6.7213 0
M  V30 96 H 13.5766 -3.42393 -6.04807 0
M  V30 97 H 16.7676 -2.04927 -4.20859 0
M  V30 98 H 16.9406 -3.06185 -5.711 0
M  V30 99 N 10.3467 1.47872 -0.545128 0
M  V30 100 C 11.2567 2.33633 0.212746 0
M  V30 101 C 12.2727 1.4744 0.923983 0
M  V30 102 O 13.4487 1.80393 0.895572 0
M  V30 103 C 10.5137 3.23884 1.23693 0
M  V30 104 C 9.5747 4.25961 0.534417 0
M  V30 105 C 8.8077 5.11899 1.5098 0
M  V30 106 O 9.0307 5.00077 2.7437 0
M  V30 107 O 7.9647 5.92831 1.0409 0
M  V30 108 H 11.7907 2.99714 -0.490416 0
M  V30 109 H 9.3757 1.46235 -0.305871 0
M  V30 110 H 11.2577 3.79666 1.82843 0
M  V30 111 H 9.9327 2.60446 1.92222 0
M  V30 112 H 8.8397 3.73972 -0.0979679 0
M  V30 113 H 10.1727 4.92079 -0.109213 0
M  V30 114 N 11.8248 0.280983 1.55075 0
M  V30 115 C 13.0718 -0.334115 1.99725 0
M  V30 116 C 13.3998 -1.5542 1.1694 0
M  V30 117 O 12.6548 -1.94361 0.228531 0
M  V30 118 C 12.9538 -0.754656 3.49342 0
M  V30 119 C 12.6198 0.361445 4.49449 0
M  V30 120 C 11.2818 0.667893 4.76542 0
M  V30 121 C 13.6338 1.11322 5.09173 0
M  V30 122 C 10.9618 1.7296 5.60626 0
M  V30 123 C 13.3138 2.1647 5.9441 0
M  V30 124 C 11.9778 2.47742 6.19822 0
M  V30 125 H 11.2478 -0.122261 0.730844 0
M  V30 126 H 13.8948 0.395917 1.87363 0
M  V30 127 H 12.1998 -1.56446 3.5921 0
M  V30 128 H 13.8968 -1.24142 3.813 0
M  V30 129 H 10.4868 0.112481 4.28452 0
M  V30 130 H 14.6708 0.88973 4.8826 0
M  V30 131 H 9.9268 1.97684 5.78559 0
M  V30 132 H 14.1008 2.75193 6.3972 0
M  V30 133 H 11.7278 3.30145 6.84769 0
M  V30 134 N 13.3029 -1.57598 0.00835791 0
M  V30 135 C 14.2329 -2.1198 -0.979113 0
M  V30 136 C 15.2139 -1.03091 -1.35301 0
M  V30 137 O 16.3989 -1.30818 -1.43528 0
M  V30 138 C 13.5289 -2.62995 -2.26828 0
M  V30 139 C 12.4829 -3.76485 -2.03576 0
M  V30 140 C 11.8089 -4.13846 -3.38579 0
M  V30 141 C 13.1089 -5.0342 -1.39161 0
M  V30 142 H 14.8029 -2.94738 -0.526281 0
M  V30 143 H 12.3489 -1.41783 -0.251704 0
M  V30 144 H 14.3019 -2.99669 -2.96271 0
M  V30 145 H 13.0259 -1.7737 -2.7424 0
M  V30 146 H 11.6849 -3.40217 -1.36557 0
M  V30 147 H 11.3329 -3.25232 -3.83709 0
M  V30 148 H 11.0329 -4.90312 -3.23834 0
M  V30 149 H 12.5569 -4.53086 -4.09323 0
M  V30 150 H 13.9709 -5.37812 -1.98573 0
M  V30 151 H 12.3679 -5.84746 -1.34878 0
M  V30 152 H 13.4379 -4.83548 -0.361868 0
M  V30 153 N 14.781 0.264519 -1.55364 0
M  V30 154 C 15.711 1.33121 -1.91836 0
M  V30 155 C 16.692 1.51101 -0.781192 0
M  V30 156 O 17.877 1.64003 -1.04003 0
M  V30 157 C 15.007 2.68921 -2.19769 0
M  V30 158 C 13.961 2.65661 -3.35571 0
M  V30 159 C 13.287 4.05093 -3.49004 0
M  V30 160 C 14.587 2.24187 -4.71739 0
M  V30 161 H 16.281 1.02844 -2.81182 0
M  V30 162 H 13.827 0.493286 -1.35287 0
M  V30 163 H 15.78 3.43663 -2.43872 0
M  V30 164 H 14.504 3.00799 -1.27231 0
M  V30 165 H 13.163 1.93377 -3.1145 0
M  V30 166 H 12.811 4.34206 -2.53917 0
M  V30 167 H 12.511 4.03804 -4.26868 0
M  V30 168 H 14.035 4.81561 -3.75408 0
M  V30 169 H 15.449 2.88654 -4.9533 0
M  V30 170 H 13.846 2.34044 -5.52579 0
M  V30 171 H 14.916 1.19327 -4.69988 0
M  V30 172 N 16.2591 1.48442 0.529413 0
M  V30 173 C 17.1911 1.59095 1.64989 0
M  V30 174 C 18.2041 0.475212 1.5571 0
M  V30 175 O 19.3931 0.746081 1.6216 0
M  V30 176 C 16.4931 1.50518 3.0364 0
M  V30 177 C 15.6661 2.77142 3.38395 0
M  V30 178 C 14.7251 2.62012 4.56329 0
M  V30 179 O 13.7511 3.35898 4.59522 0
M  V30 180 N 14.9531 1.71667 5.54536 0
M  V30 181 H 17.7181 2.55723 1.56287 0
M  V30 182 H 15.2791 1.45173 0.716697 0
M  V30 183 H 17.2711 1.38091 3.80412 0
M  V30 184 H 15.8411 0.618627 3.06418 0
M  V30 185 H 15.0611 3.0413 2.50796 0
M  V30 186 H 16.3491 3.61146 3.58401 0
M  V30 187 H 15.7471 1.10841 5.54735 0
M  V30 188 H 14.3041 1.65178 6.30523 0
M  V30 189 N 17.7372 -0.778329 1.37039 0
M  V30 190 C 18.9842 -1.53665 1.31884 0
M  V30 191 C 19.3122 -1.9425 -0.0986303 0
M  V30 192 O 18.5672 -1.63832 -1.07041 0
M  V30 193 C 18.8662 -2.81845 2.19768 0
M  V30 194 C 18.5322 -2.60345 3.68146 0
M  V30 195 C 17.1942 -2.5419 4.08584 0
M  V30 196 C 19.5462 -2.40923 4.62175 0
M  V30 197 C 16.8742 -2.26594 5.41177 0
M  V30 198 C 19.2262 -2.14852 5.94997 0
M  V30 199 C 17.8902 -2.07137 6.34547 0
M  V30 200 H 17.1602 -0.562299 0.482598 0
M  V30 201 H 19.8072 -0.897069 1.69189 0
M  V30 202 H 18.1122 -3.50328 1.75436 0
M  V30 203 H 19.8092 -3.39692 2.13097 0
M  V30 204 H 16.3992 -2.65996 3.36072 0
M  V30 205 H 20.5832 -2.44673 4.31797 0
M  V30 206 H 15.8392 -2.19111 5.70789 0
M  V30 207 H 20.0132 -1.98822 6.67415 0
M  V30 208 H 17.6402 -1.85518 7.37216 0
M  V30 209 N 19.2153 -1.21501 -1.00376 0
M  V30 210 C 20.4633 -1.03095 -1.73827 0
M  V30 211 C 20.7843 0.436341 -1.90055 0
M  V30 212 O 20.0543 1.31466 -1.45236 0
M  V30 213 H 18.6343 -0.378487 -0.644016 0
M  V30 214 H 21.2963 -1.52831 -1.20949 0
M  V30 215 H 20.3923 -1.49991 -2.73695 0
M  V30 216 N 20.6934 1.19889 -1.02296 0
M  V30 217 C 21.9404 1.8942 -0.715972 0
M  V30 218 C 22.2684 1.79251 0.754944 0
M  V30 219 O 21.5234 1.17526 1.56481 0
M  V30 220 C 21.8224 3.39883 -1.10518 0
M  V30 221 C 21.4884 3.70254 -2.57337 0
M  V30 222 C 20.1504 3.78254 -2.97452 0
M  V30 223 C 22.5024 3.84052 -3.52354 0
M  V30 224 C 19.8304 3.97514 -4.31509 0
M  V30 225 C 22.1824 4.04824 -4.86108 0
M  V30 226 C 20.8464 4.11054 -5.25919 0
M  V30 227 H 20.1164 0.693138 -0.261993 0
M  V30 228 H 22.7634 1.42012 -1.28472 0
M  V30 229 H 21.0684 3.8915 -0.454953 0
M  V30 230 H 22.7654 3.9199 -0.845261 0
M  V30 231 H 19.3554 3.64632 -2.25258 0
M  V30 232 H 23.5394 3.77221 -3.22518 0
M  V30 233 H 18.7954 4.00574 -4.61898 0
M  V30 234 H 22.9694 4.14442 -5.59653 0
M  V30 235 H 20.5964 4.2573 -6.29808 0
M  V30 236 N 22.1715 0.800033 1.35784 0
M  V30 237 C 23.4185 0.377342 1.98953 0
M  V30 238 C 23.7465 -1.05378 1.6348 0
M  V30 239 O 23.0015 -1.74459 0.886707 0
M  V30 240 C 23.3005 0.500276 3.53881 0
M  V30 241 C 22.9665 1.89375 4.09204 0
M  V30 242 C 21.6285 2.27499 4.24025 0
M  V30 243 C 23.9805 2.8057 4.39238 0
M  V30 244 C 21.3085 3.562 4.66195 0
M  V30 245 C 23.6605 4.0871 4.82844 0
M  V30 246 C 22.3245 4.46843 4.95871 0
M  V30 247 H 21.5945 0.138079 0.728021 0
M  V30 248 H 24.2415 1.01955 1.62103 0
M  V30 249 H 22.5465 -0.225405 3.91151 0
M  V30 250 H 24.2435 0.154097 4.00704 0
M  V30 251 H 20.8335 1.58753 3.98115 0
M  V30 252 H 25.0175 2.52367 4.27346 0
M  V30 253 H 20.2735 3.85602 4.74469 0
M  V30 254 H 24.4475 4.79481 5.05046 0
M  V30 255 H 22.0745 5.46623 5.28306 0
M  V30 256 N 23.6496 -1.47581 0.552962 0
M  V30 257 C 24.5796 -2.32762 -0.185451 0
M  V30 258 C 25.5606 -1.43527 -0.912905 0
M  V30 259 O 26.7456 -1.72388 -0.894201 0
M  V30 260 C 23.8756 -3.25219 -1.21859 0
M  V30 261 C 22.8296 -4.23661 -0.607864 0
M  V30 262 C 22.1556 -5.05413 -1.74533 0
M  V30 263 C 23.4556 -5.20481 0.435582 0
M  V30 264 H 25.1496 -2.94749 0.525684 0
M  V30 265 H 22.6956 -1.41738 0.254251 0
M  V30 266 H 24.6486 -3.8365 -1.7433 0
M  V30 267 H 23.3726 -2.61279 -1.95961 0
M  V30 268 H 22.0316 -3.66451 -0.104489 0
M  V30 269 H 21.6796 -4.3788 -2.47529 0
M  V30 270 H 21.3796 -5.72059 -1.34249 0
M  V30 271 H 22.9036 -5.66701 -2.27338 0
M  V30 272 H 24.3176 -5.733 -0.00290157 0
M  V30 273 H 22.7146 -5.95305 0.757067 0
M  V30 274 H 23.7846 -4.66217 1.33303 0
M  V30 275 N 25.1277 -0.289203 -1.54924 0
M  V30 276 C 26.5387 0.205791 -1.85562 0
M  V30 277 C 26.8897 1.54351 -1.2112 0
M  V30 278 O 26.0147 2.10435 -0.504601 0
M  V30 279 C 26.6097 0.380177 -3.3666 0
M  V30 280 C 25.1687 0.819395 -3.67373 0
M  V30 281 C 24.3157 -0.079159 -2.77187 0
M  V30 282 H 27.2667 -0.510577 -1.50262 0
M  V30 283 H 27.2877 1.21659 -3.60526 0
M  V30 284 H 26.7997 -0.593589 -3.83534 0
M  V30 285 H 24.9007 1.80413 -3.26009 0
M  V30 286 H 25.0137 0.646957 -4.74712 0
M  V30 287 H 23.3777 0.439565 -2.50878 0
M  V30 288 H 24.1607 -1.04906 -3.26878 0
M  V30 289 N 26.6058 1.57591 -0.0167156 0
M  V30 290 C 27.5358 2.12496 0.967858 0
M  V30 291 C 28.5168 1.03807 1.34752 0
M  V30 292 O 29.7018 1.31577 1.42833 0
M  V30 293 C 26.8318 2.64194 2.25431 0
M  V30 294 C 25.7858 3.77559 2.01576 0
M  V30 295 C 25.1118 4.15636 3.36379 0
M  V30 296 C 26.4118 5.04151 1.36489 0
M  V30 297 H 28.1058 2.95013 0.510643 0
M  V30 298 H 25.6518 1.41915 0.244181 0
M  V30 299 H 27.6048 3.01236 2.94678 0
M  V30 300 H 26.3288 1.78821 2.73296 0
M  V30 301 H 24.9878 3.40937 1.34751 0
M  V30 302 H 24.6358 3.27263 3.81979 0
M  V30 303 H 24.3358 4.92022 3.21229 0
M  V30 304 H 25.8598 4.5525 4.06915 0
M  V30 305 H 27.2738 5.38857 1.95718 0
M  V30 306 H 25.6708 5.85453 1.31776 0
M  V30 307 H 26.7408 4.83733 0.336219 0
M  V30 308 N 28.0839 -0.256276 1.55502 0
M  V30 309 C 29.0139 -1.32102 1.92539 0
M  V30 310 C 29.9949 -1.50684 0.789194 0
M  V30 311 O 31.1799 -1.63449 1.04872 0
M  V30 312 C 28.3099 -2.67752 2.21192 0
M  V30 313 C 27.2639 -2.63878 3.36975 0
M  V30 314 C 26.5899 -4.03236 3.51147 0
M  V30 315 C 27.8899 -2.21682 4.72921 0
M  V30 316 H 29.5839 -1.01351 2.81724 0
M  V30 317 H 27.1299 -0.486105 1.35547 0
M  V30 318 H 29.0829 -3.42365 2.45691 0
M  V30 319 H 27.8069 -3.0012 1.28824 0
M  V30 320 H 26.4659 -1.91722 3.12471 0
M  V30 321 H 26.1139 -4.32854 2.56216 0
M  V30 322 H 25.8139 -4.01535 4.29003 0
M  V30 323 H 27.3379 -4.79563 3.77957 0
M  V30 324 H 28.7519 -2.86023 4.96854 0
M  V30 325 H 27.1489 -2.3111 5.53812 0
M  V30 326 H 28.2189 -1.16833 4.70615 0
M  V30 327 N 29.562 -1.4872 -0.521534 0
M  V30 328 C 30.79 -1.60843 -1.30142 0
M  V30 329 C 31.205 -0.271897 -1.86832 0
M  V30 330 O 30.562 0.739969 -1.66825 0
M  V30 331 C 30.613 -2.66155 -2.4463 0
M  V30 332 O 30.334 -3.94623 -1.90275 0
M  V30 333 C 31.835 -2.88795 -3.36322 0
M  V30 334 H 29.055 -0.542075 -0.395468 0
M  V30 335 H 31.599 -1.94609 -0.628285 0
M  V30 336 H 29.754 -2.35224 -3.07812 0
M  V30 337 H 30.168 -4.52468 -2.65279 0
M  V30 338 H 31.642 -3.66264 -4.12983 0
M  V30 339 H 32.119 -1.97934 -3.9207 0
M  V30 340 H 32.725 -3.21063 -2.78924 0
M  V30 341 N 31.0401 0.771051 -1.3745 0
M  V30 342 C 32.0031 1.86598 -1.33093 0
M  V30 343 C 33.0031 1.59076 -0.234845 0
M  V30 344 O 34.1931 1.67145 -0.490732 0
M  V30 345 C 31.3251 3.23747 -1.06773 0
M  V30 346 H 32.5181 1.91873 -2.30488 0
M  V30 347 H 30.0711 0.970876 -1.2249 0
M  V30 348 H 30.8061 3.24148 -0.099129 0
M  V30 349 H 30.5911 3.45115 -1.86112 0
M  V30 350 H 32.0811 4.03824 -1.06377 0
M  V30 351 N 32.5182 1.22032 0.997298 0
M  V30 352 C 33.7642 1.05382 1.73972 0
M  V30 353 C 34.1192 -0.407419 1.88037 0
M  V30 354 O 33.4122 -1.29811 1.40924 0
M  V30 355 C 33.6062 1.69345 3.14733 0
M  V30 356 C 33.4352 3.21537 3.14395 0
M  V30 357 C 32.2052 3.9062 3.20537 0
M  V30 358 C 34.4032 4.18527 2.98897 0
M  V30 359 N 32.3852 5.29935 3.09906 0
M  V30 360 C 33.7562 5.44645 2.96247 0
M  V30 361 C 35.8112 4.09476 2.83255 0
M  V30 362 C 34.5142 6.62752 2.79557 0
M  V30 363 C 36.5402 5.27228 2.67926 0
M  V30 364 C 35.9022 6.52262 2.65959 0
M  V30 365 H 32.0012 0.440018 0.646458 0
M  V30 366 H 34.5852 1.54505 1.18475 0
M  V30 367 H 32.7562 1.22778 3.68484 0
M  V30 368 H 34.4882 1.45828 3.77513 0
M  V30 369 H 31.2432 3.41592 3.28043 0
M  V30 370 H 31.6672 6.02926 3.07912 0
M  V30 371 H 36.3092 3.13598 2.83577 0
M  V30 372 H 34.0272 7.58783 2.77982 0
M  V30 373 H 37.6132 5.22053 2.56812 0
M  V30 374 H 36.4932 7.41844 2.54239 0
M  V30 375 N 33.9963 -1.19345 1.0293 0
M  V30 376 C 35.4073 -1.70725 0.755633 0
M  V30 377 C 35.7583 -1.82326 -0.724676 0
M  V30 378 O 34.8833 -1.49471 -1.56484 0
M  V30 379 C 35.4783 -3.10084 1.36503 0
M  V30 380 C 34.0373 -3.58723 1.13994 0
M  V30 381 C 33.1843 -2.35577 1.46283 0
M  V30 382 H 36.1353 -1.0418 1.19718 0
M  V30 383 H 36.1563 -3.72787 0.762217 0
M  V30 384 H 35.6683 -3.01609 2.44241 0
M  V30 385 H 33.7693 -3.72512 0.0807901 0
M  V30 386 H 33.8823 -4.42816 1.82894 0
M  V30 387 H 32.2463 -2.38935 0.88217 0
M  V30 388 H 33.0293 -2.29731 2.55105 0
M  V30 389 N 35.4744 -0.807222 -1.35358 0
M  V30 390 C 36.7224 -0.387122 -1.98358 0
M  V30 391 C 37.0434 1.04942 -1.64354 0
M  V30 392 O 36.3134 1.72615 -0.926339 0
M  V30 393 H 34.8934 -0.140154 -0.733734 0
M  V30 394 H 37.5554 -1.0332 -1.6526 0
M  V30 395 H 36.6514 -0.493352 -3.08176 0
M  V30 396 N 36.9525 1.47285 -0.560781 0
M  V30 397 C 38.2295 1.9558 0.0277798 0
M  V30 398 C 38.6095 1.5034 1.48192 0
M  V30 399 O 37.9575 0.743882 2.16052 0
M  V30 400 C 38.1675 3.48789 -0.121418 0
M  V30 401 C 39.5155 4.24594 0.0220912 0
M  V30 402 O 40.5395 3.56166 -0.0491439 0
M  V30 403 O 39.3985 5.46217 0.175958 0
M  V30 404 H 36.4925 0.824663 0.0621342 0
M  V30 405 H 39.0385 1.5767 -0.627556 0
M  V30 406 H 37.8105 3.74533 -1.13316 0
M  V30 407 H 37.4335 3.93473 0.571366 0
M  V30 408 N 38.4306 0.297415 1.54768 0
M  V30 409 C 39.6706 -0.313829 2.01976 0
M  V30 410 C 40.0346 -1.51366 1.1812 0
M  V30 411 O 41.2356 -2.19603 1.5501 0
M  V30 412 C 39.5066 -0.664964 3.51159 0
M  V30 413 S 41.0656 -1.25958 4.20333 0
M  V30 414 H 37.8836 -0.0965014 0.704421 0
M  V30 415 H 40.4856 0.424451 1.90837 0
M  V30 416 H 39.1896 0.21681 4.09827 0
M  V30 417 H 38.7206 -1.43413 3.66328 0
M  V30 418 H 40.7356 -2.54751 4.25813 0
M  V30 419 N 39.9087 -1.5758 0.0250728 0
M  V30 420 C 41.1337 -1.96337 -0.668317 0
M  V30 421 C 41.5587 -0.901314 -1.651 0
M  V30 422 O 40.9167 0.138187 -1.80773 0
M  V30 423 C 40.9647 -3.34191 -1.35457 0
M  V30 424 O 40.0687 -3.30269 -2.46974 0
M  V30 425 H 39.4097 -0.640281 -0.175887 0
M  V30 426 H 41.9397 -2.0442 0.0857224 0
M  V30 427 H 41.9497 -3.70331 -1.71228 0
M  V30 428 H 40.6247 -4.11036 -0.634218 0
M  V30 429 H 39.2017 -3.05841 -2.13344 0
M  V30 430 N 41.3868 0.248026 -1.55636 0
M  V30 431 C 42.3368 1.30994 -1.86614 0
M  V30 432 C 43.3208 1.43543 -0.726918 0
M  V30 433 O 44.5128 1.46804 -0.988818 0
M  V30 434 C 41.6418 2.6656 -2.16335 0
M  V30 435 C 40.7278 2.58019 -3.36581 0
M  V30 436 N 41.1188 2.1911 -4.55878 0
M  V30 437 C 39.4168 2.89035 -3.39669 0
M  V30 438 C 40.1178 2.21174 -5.38012 0
M  V30 439 N 39.0938 2.60632 -4.77045 0
M  V30 440 H 42.8958 0.999583 -2.76379 0
M  V30 441 H 40.4098 0.456652 -1.55848 0
M  V30 442 H 42.4068 3.43194 -2.36692 0
M  V30 443 H 41.0668 2.98463 -1.27867 0
M  V30 444 H 42.0778 1.90672 -4.81523 0
M  V30 445 H 38.7548 3.25485 -2.61469 0
M  V30 446 H 40.1448 1.9344 -6.43452 0
M  V30 447 N 42.8649 1.48995 0.513639 0
M  V30 448 C 44.1109 1.58076 1.27042 0
M  V30 449 C 44.4439 0.261026 1.92438 0
M  V30 450 O 43.7189 -0.734393 1.80103 0
M  V30 451 C 44.0019 2.73091 2.34719 0
M  V30 452 C 43.8549 4.14821 1.73907 0
M  V30 453 C 45.1739 2.83796 3.36375 0
M  V30 454 H 42.2929 0.575391 0.460536 0
M  V30 455 H 44.9349 1.81232 0.570516 0
M  V30 456 H 43.0849 2.53479 2.94416 0
M  V30 457 H 44.7569 4.45917 1.18135 0
M  V30 458 H 42.9999 4.21058 1.0437 0
M  V30 459 H 43.6709 4.91147 2.51949 0
M  V30 460 H 46.1469 3.01611 2.86653 0
M  V30 461 H 45.0229 3.65971 4.09093 0
M  V30 462 H 45.2839 1.92624 3.9793 0
M  V30 463 N 44.343 -0.763751 1.37857 0
M  V30 464 C 45.568 -1.55805 1.36893 0
M  V30 465 C 45.993 -1.88054 -0.0416135 0
M  V30 466 O 45.351 -1.49825 -1.02089 0
M  V30 467 C 45.399 -2.84012 2.22192 0
M  V30 468 O 44.503 -3.78732 1.63204 0
M  V30 469 H 43.844 -0.471638 0.46739 0
M  V30 470 H 46.374 -0.944657 1.81487 0
M  V30 471 H 46.384 -3.33037 2.35691 0
M  V30 472 H 45.059 -2.59869 3.24716 0
M  V30 473 H 43.636 -3.37402 1.58791 0
M  V30 474 N 45.8211 -1.22559 -0.990812 0
M  V30 475 C 46.7691 -0.994798 -2.10253 0
M  V30 476 C 47.7631 0.0627798 -1.69284 0
M  V30 477 O 48.9691 -0.0898392 -1.79776 0
M  V30 478 H 45.3441 -0.304527 -0.687581 0
M  V30 479 H 47.3151 -1.93812 -2.26891 0
M  V30 480 C 46.0641 -0.591439 -3.42633 0
M  V30 481 H 45.3871 -1.3969 -3.74602 0
M  V30 482 H 46.8271 -0.469385 -4.21394 0
M  V30 483 C 45.2861 0.699232 -3.29564 0
M  V30 484 O 45.8161 1.75112 -3.61523 0
M  V30 485 N 44.0221 0.671182 -2.82743 0
M  V30 486 H 43.5691 -0.185136 -2.56934 0
M  V30 487 H 43.5271 1.53502 -2.7438 0
M  V30 488 N 47.2992 1.18797 -1.03562 0
M  V30 489 C 48.2472 2.24297 -0.615905 0
M  V30 490 C 49.2412 1.65643 0.354808 0
M  V30 491 O 50.4472 1.78618 0.22265 0
M  V30 492 H 46.8222 0.729909 -0.180934 0
M  V30 493 H 48.7932 2.5701 -1.5162 0
M  V30 494 C 47.5422 3.47698 0.0104735 0
M  V30 495 H 46.8652 3.93125 -0.727509 0
M  V30 496 H 48.3052 4.23159 0.266995 0
M  V30 497 C 46.7642 3.12489 1.25905 0
M  V30 498 O 47.2942 3.25761 2.35038 0
M  V30 499 N 45.5002 2.6686 1.15039 0
M  V30 500 H 45.0472 2.56261 0.262328 0
M  V30 501 H 45.0052 2.43674 1.98672 0
M  V30 502 N 48.7773 0.814389 1.34928 0
M  V30 503 C 49.7093 0.187834 2.28429 0
M  V30 504 C 50.7223 -0.617374 1.5064 0
M  V30 505 O 51.9113 -0.448454 1.72775 0
M  V30 506 C 49.0113 -0.755962 3.30361 0
M  V30 507 C 48.1843 0.00456686 4.374 0
M  V30 508 C 47.2433 -0.858876 5.19143 0
M  V30 509 O 46.2693 -0.306968 5.68372 0
M  V30 510 N 47.4713 -2.17988 5.38016 0
M  V30 511 H 50.2363 0.991105 2.82838 0
M  V30 512 H 47.7973 0.670561 1.4736 0
M  V30 513 H 49.7893 -1.338 3.81942 0
M  V30 514 H 48.3593 -1.46001 2.7641 0
M  V30 515 H 47.5793 0.767865 3.86649 0
M  V30 516 H 48.8673 0.528422 5.06049 0
M  V30 517 H 48.2653 -2.65212 4.99679 0
M  V30 518 H 46.8223 -2.71098 5.92747 0
M  V30 519 N 50.2554 -1.46986 0.568584 0
M  V30 520 C 51.5014 -2.02741 0.0488709 0
M  V30 521 C 51.8344 -1.44077 -1.30214 0
M  V30 522 O 51.1094 -0.600552 -1.84996 0
M  V30 523 C 51.3924 -3.60086 -0.032047 0
M  V30 524 C 51.2454 -4.29162 1.34686 0
M  V30 525 C 52.5644 -4.33838 -0.739798 0
M  V30 526 H 49.6834 -0.736749 0.0192338 0
M  V30 527 H 52.3254 -1.75289 0.733065 0
M  V30 528 H 50.4754 -3.83606 -0.61473 0
M  V30 529 H 52.1474 -4.16948 1.97362 0
M  V30 530 H 50.3904 -3.89073 1.91846 0
M  V30 531 H 51.0614 -5.37826 1.24285 0
M  V30 532 H 53.5374 -4.15378 -0.244939 0
M  V30 533 H 52.4134 -5.43537 -0.765406 0
M  V30 534 H 52.6744 -4.03875 -1.79827 0
M  V30 535 N 51.7335 -0.305618 -1.54608 0
M  V30 536 C 52.9795 0.302746 -2.00528 0
M  V30 537 C 53.3125 1.53184 -1.19367 0
M  V30 538 O 52.5875 1.92598 -0.271321 0
M  V30 539 C 52.8705 0.654756 -3.54097 0
M  V30 540 C 52.7235 -0.583793 -4.45995 0
M  V30 541 C 54.0425 1.47947 -4.14487 0
M  V30 542 H 51.1615 0.108564 -0.72896 0
M  V30 543 H 53.8035 -0.418634 -1.85331 0
M  V30 544 H 51.9535 1.26935 -3.67178 0
M  V30 545 H 53.6255 -1.22224 -4.44814 0
M  V30 546 H 51.8685 -1.21615 -4.16404 0
M  V30 547 H 52.5395 -0.293287 -5.5122 0
M  V30 548 H 55.0155 0.96013 -4.04871 0
M  V30 549 H 53.8915 1.69454 -5.22088 0
M  V30 550 H 54.1525 2.47011 -3.66658 0
M  V30 551 N 53.2116 1.57565 -0.0334293 0
M  V30 552 C 54.1416 2.13511 0.945265 0
M  V30 553 C 55.1226 1.05231 1.33643 0
M  V30 554 O 56.3076 1.33084 1.41429 0
M  V30 555 C 53.4376 2.6657 2.22616 0
M  V30 556 C 52.3916 3.79676 1.97561 0
M  V30 557 C 51.7176 4.1918 3.31952 0
M  V30 558 C 53.0176 5.0557 1.31135 0
M  V30 559 H 54.7116 2.95538 0.479325 0
M  V30 560 H 52.2576 1.42166 0.229115 0
M  V30 561 H 54.2106 3.04344 2.91466 0
M  V30 562 H 52.9346 1.8171 2.71384 0
M  V30 563 H 51.5936 3.42347 1.31127 0
M  V30 564 H 51.2416 3.31296 3.78487 0
M  V30 565 H 50.9416 4.95402 3.15992 0
M  V30 566 H 52.4656 4.59541 4.02063 0
M  V30 567 H 53.8796 5.40903 1.89992 0
M  V30 568 H 52.2766 5.86818 1.25559 0
M  V30 569 H 53.3466 4.84062 0.284894 0
M  V30 570 N 54.6897 -0.239769 1.55765 0
M  V30 571 C 55.6197 -1.30052 1.9393 0
M  V30 572 C 56.6007 -1.49839 0.805132 0
M  V30 573 O 57.7857 -1.62328 1.06599 0
M  V30 574 C 54.9157 -2.65391 2.2402 0
M  V30 575 C 53.8697 -2.60289 3.39755 0
M  V30 576 C 53.1957 -3.99489 3.55405 0
M  V30 577 C 54.4957 -2.16654 4.75246 0
M  V30 578 H 56.1897 -0.983573 2.82783 0
M  V30 579 H 53.7357 -0.471701 1.36055 0
M  V30 580 H 55.6887 -3.3974 2.49308 0
M  V30 581 H 54.4127 -2.98736 1.32 0
M  V30 582 H 53.0717 -1.88398 3.14487 0
M  V30 583 H 52.7197 -4.30112 2.60793 0
M  V30 584 H 52.4197 -3.96962 4.33238 0
M  V30 585 H 53.9437 -4.75528 3.83022 0
M  V30 586 H 55.3577 -2.80737 4.99859 0
M  V30 587 H 53.7547 -2.25223 5.56232 0
M  V30 588 H 54.8247 -1.11835 4.71827 0
M  V30 589 N 56.1678 -1.49265 -0.50573 0
M  V30 590 C 57.4448 -1.49012 -1.26707 0
M  V30 591 C 57.8248 -0.215205 -2.1 0
M  V30 592 O 57.1728 0.802547 -2.13943 0
M  V30 593 C 57.3828 -2.7663 -2.12783 0
M  V30 594 C 58.7308 -3.25932 -2.72127 0
M  V30 595 O 59.7548 -2.77715 -2.23054 0
M  V30 596 O 58.6138 -4.09897 -3.61451 0
M  V30 597 H 55.7078 -0.596197 -0.57313 0
M  V30 598 H 58.2538 -1.61524 -0.52039 0
M  V30 599 H 57.0258 -3.60916 -1.5118 0
M  V30 600 H 56.6488 -2.66956 -2.94653 0
M  V30 601 N 57.6459 0.756429 -1.3826 0
M  V30 602 C 58.8739 1.54565 -1.3754 0
M  V30 603 C 59.2889 1.88767 0.0355331 0
M  V30 604 O 58.6459 1.52572 1.0014 0
M  V30 605 C 58.6969 2.84654 -2.22833 0
M  V30 606 O 58.4179 2.51912 -3.5843 0
M  V30 607 C 59.9189 3.78807 -2.30261 0
M  V30 608 H 57.1389 0.478353 -0.470553 0
M  V30 609 H 59.6829 0.936381 -1.81803 0
M  V30 610 H 57.8379 3.41965 -1.8204 0
M  V30 611 H 58.2519 3.35325 -4.03308 0
M  V30 612 H 59.7259 4.67045 -2.94233 0
M  V30 613 H 60.2029 4.19038 -1.31545 0
M  V30 614 H 60.8089 3.2742 -2.71433 0
M  V30 615 N 59.124 1.23083 0.984299 0
M  V30 616 C 60.352 1.08714 1.76037 0
M  V30 617 C 60.767 -0.361691 1.85303 0
M  V30 618 O 60.124 -1.25034 1.32939 0
M  V30 619 C 60.175 1.70206 3.18923 0
M  V30 620 O 59.896 3.09423 3.10144 0
M  V30 621 C 61.397 1.61227 4.12941 0
M  V30 622 H 58.617 0.380664 0.552572 0
M  V30 623 H 61.161 1.62853 1.23689 0
M  V30 624 H 59.316 1.20109 3.6831 0
M  V30 625 H 59.73 3.39188 4.00065 0
M  V30 626 H 61.204 2.08962 5.10919 0
M  V30 627 H 61.681 0.570375 4.35481 0
M  V30 628 H 62.287 2.10671 3.69456 0
M  V30 629 N 60.6021 -1.18246 1.0419 0
M  V30 630 C 61.8301 -1.92195 0.766072 0
M  V30 631 C 62.2451 -1.76247 -0.676933 0
M  V30 632 O 61.6021 -1.09293 -1.46155 0
M  V30 633 C 61.6531 -3.43568 1.12442 0
M  V30 634 O 61.3741 -3.59015 2.51078 0
M  V30 635 C 62.8751 -4.34613 0.873275 0
M  V30 636 H 60.0951 -0.610114 0.279288 0
M  V30 637 H 62.6391 -1.50007 1.38989 0
M  V30 638 H 60.7941 -3.8354 0.545542 0
M  V30 639 H 61.2081 -4.5273 2.64831 0
M  V30 640 H 62.6821 -5.39374 1.17385 0
M  V30 641 H 63.1591 -4.38781 -0.191909 0
M  V30 642 H 63.7651 -4.00341 1.43551 0
M  V30 643 N 62.0802 -0.821533 -1.34494 0
M  V30 644 C 63.3262 -0.409552 -1.98622 0
M  V30 645 C 63.6592 1.0244 -1.64984 0
M  V30 646 O 62.9342 1.71325 -0.920758 0
M  V30 647 C 63.2172 -0.610458 -3.54888 0
M  V30 648 C 63.0702 -2.09043 -3.98273 0
M  V30 649 C 64.3892 -0.0455379 -4.40076 0
M  V30 650 H 61.5082 -0.15028 -0.721516 0
M  V30 651 H 64.1502 -1.03384 -1.59411 0
M  V30 652 H 62.3002 -0.079044 -3.8842 0
M  V30 653 H 63.9722 -2.68537 -3.75081 0
M  V30 654 H 62.2152 -2.58139 -3.48635 0
M  V30 655 H 62.8862 -2.18182 -5.07051 0
M  V30 656 H 65.3622 -0.499557 -4.1309 0
M  V30 657 H 64.2382 -0.215922 -5.48475 0
M  V30 658 H 64.4992 1.04939 -4.29465 0
M  V30 659 N 63.5583 1.46682 -0.576371 0
M  V30 660 C 64.4883 2.33028 0.148397 0
M  V30 661 C 65.4693 1.44961 0.889956 0
M  V30 662 O 66.6543 1.73789 0.866662 0
M  V30 663 C 63.7843 3.27117 1.1667 0
M  V30 664 C 62.7383 4.24575 0.540386 0
M  V30 665 C 62.0643 5.08126 1.6647 0
M  V30 666 C 63.3643 5.19722 -0.518331 0
M  V30 667 H 65.0583 2.93875 -0.572509 0
M  V30 668 H 62.6043 1.41315 -0.276768 0
M  V30 669 H 64.5573 3.86374 1.68204 0
M  V30 670 H 63.2813 2.64364 1.9178 0
M  V30 671 H 61.9403 3.66571 0.0461769 0
M  V30 672 H 61.5883 4.41762 2.40531 0
M  V30 673 H 61.2883 5.74122 1.25131 0
M  V30 674 H 62.8123 5.70246 2.18293 0
M  V30 675 H 64.2263 5.73232 -0.0883058 0
M  V30 676 H 62.6233 5.94026 -0.851679 0
M  V30 677 H 63.6933 4.64037 -1.40703 0
M  V30 678 N 65.0364 0.313813 1.54444 0
M  V30 679 C 66.2844 -0.291099 1.99993 0
M  V30 680 C 66.6054 -1.53418 1.20366 0
M  V30 681 O 65.8754 -1.93544 0.302927 0
M  V30 682 H 64.4554 -0.110552 0.738774 0
M  V30 683 H 67.1174 0.428106 1.9014 0
M  V30 684 H 66.2134 -0.554268 3.07139 0
M  V30 685 N 66.5145 -1.57545 0.0417849 0
M  V30 686 C 67.4245 -2.14451 -0.951213 0
M  V30 687 C 68.4405 -1.09992 -1.34825 0
M  V30 688 O 69.6165 -1.42114 -1.42708 0
M  V30 689 C 66.6815 -2.67063 -2.21084 0
M  V30 690 C 65.7425 -3.86284 -1.87304 0
M  V30 691 C 64.9755 -4.36378 -3.07261 0
M  V30 692 O 65.1985 -3.85587 -4.20332 0
M  V30 693 O 64.1325 -5.28077 -2.88822 0
M  V30 694 H 67.9585 -2.99601 -0.497287 0
M  V30 695 H 65.5435 -1.48317 -0.179567 0
M  V30 696 H 67.4255 -3.00914 -2.95006 0
M  V30 697 H 66.1005 -1.84989 -2.65633 0
M  V30 698 H 65.0075 -3.57338 -1.10727 0
M  V30 699 H 66.3405 -4.6956 -1.47562 0
M  V30 700 N 67.9926 0.231505 -1.5589 0
M  V30 701 C 68.9226 1.29022 -1.94617 0
M  V30 702 C 69.9036 1.4941 -0.813067 0
M  V30 703 O 71.0886 1.6176 -1.07459 0
M  V30 704 C 68.2186 2.64199 -2.25424 0
M  V30 705 C 67.1726 2.58484 -3.41131 0
M  V30 706 C 66.4986 3.97599 -3.57518 0
M  V30 707 C 67.7986 2.1413 -4.76388 0
M  V30 708 H 69.4926 0.968563 -2.83301 0
M  V30 709 H 67.0386 0.464479 -1.36303 0
M  V30 710 H 68.9916 3.38413 -2.51107 0
M  V30 711 H 67.7156 2.98032 -1.33583 0
M  V30 712 H 66.3746 1.86727 -3.15481 0
M  V30 713 H 66.0226 4.28723 -2.6307 0
M  V30 714 H 65.7226 3.94659 -4.35337 0
M  V30 715 H 67.2466 4.7349 -3.85538 0
M  V30 716 H 68.6606 2.78083 -5.01341 0
M  V30 717 H 67.0576 2.2227 -5.57419 0
M  V30 718 H 68.1276 1.09331 -4.72414 0
M  V30 719 N 69.4707 1.49531 0.497807 0
M  V30 720 C 70.7187 1.58865 1.24926 0
M  V30 721 C 71.0397 0.278721 1.92998 0
M  V30 722 O 70.3097 -0.702144 1.82885 0
M  V30 723 H 68.8897 0.585343 0.464094 0
M  V30 724 H 71.5517 1.86174 0.57666 0
M  V30 725 H 70.6477 2.38633 2.01149 0
M  V30 726 N 70.9488 -0.749086 1.3866 0
M  V30 727 C 72.1948 -1.50959 1.36319 0
M  V30 728 C 72.5498 -1.92347 -0.0452451 0
M  V30 729 O 71.8428 -1.6289 -1.00884 0
M  V30 730 C 72.0368 -2.7712 2.25697 0
M  V30 731 C 71.8658 -2.48067 3.7509 0
M  V30 732 C 70.6358 -2.41062 4.44091 0
M  V30 733 C 72.8338 -2.14544 4.67414 0
M  V30 734 N 70.8158 -2.04331 5.78897 0
M  V30 735 C 72.1868 -1.88141 5.90765 0
M  V30 736 C 74.2418 -2.00892 4.55573 0
M  V30 737 C 72.9448 -1.49463 7.036 0
M  V30 738 C 74.9708 -1.63616 5.68317 0
M  V30 739 C 74.3328 -1.38088 6.90732 0
M  V30 740 H 70.4318 -0.551804 0.554108 0
M  V30 741 H 73.0158 -0.871886 1.74087 0
M  V30 742 H 71.1868 -3.38693 1.9011 0
M  V30 743 H 72.9188 -3.4321 2.1445 0
M  V30 744 H 69.6738 -2.57685 3.9736 0
M  V30 745 H 70.0978 -1.88598 6.502 0
M  V30 746 H 74.7398 -2.19301 3.61479 0
M  V30 747 H 72.4578 -1.29794 7.97608 0
M  V30 748 H 76.0438 -1.53678 5.61137 0
M  V30 749 H 74.9238 -1.09674 7.76493 0
M  V30 750 N 72.4269 -1.23603 -0.977757 0
M  V30 751 C 73.3739 -1.01954 -2.07061 0
M  V30 752 C 74.3439 0.0638697 -1.65977 0
M  V30 753 O 75.5289 -0.0887624 -1.90593 0
M  V30 754 C 72.6689 -0.619658 -3.39491 0
M  V30 755 C 71.7819 -1.77547 -3.93829 0
M  V30 756 C 70.9169 -1.32212 -5.14484 0
M  V30 757 C 69.9559 -2.44852 -5.60994 0
M  V30 758 N 69.0929 -2.00456 -6.72876 0
M  V30 759 H 73.9329 -1.95495 -2.24913 0
M  V30 760 H 71.4699 -0.973861 -1.10247 0
M  V30 761 H 73.4279 -0.368898 -4.15566 0
M  V30 762 H 72.0579 0.278752 -3.21594 0
M  V30 763 H 71.1099 -2.14016 -3.14486 0
M  V30 764 H 72.4219 -2.62219 -4.24314 0
M  V30 765 H 71.5759 -1.02965 -5.97899 0
M  V30 766 H 70.3149 -0.445808 -4.85658 0
M  V30 767 H 69.3199 -2.74871 -4.76157 0
M  V30 768 H 70.5449 -3.33024 -5.91837 0
M  V30 769 H 68.4909 -1.15208 -6.45804 0
M  V30 770 H 68.4079 -2.78687 -7.02759 0
M  V30 771 H 69.6759 -1.7432 -7.59758 0
M  V30 772 N 73.905 1.17692 -1.04816 0
M  V30 773 C 75.133 1.91786 -0.776254 0
M  V30 774 C 75.548 1.76604 0.667577 0
M  V30 775 O 74.905 1.10067 1.45573 0
M  V30 776 C 74.956 3.42967 -1.14263 0
M  V30 777 O 74.677 3.57678 -2.52978 0
M  V30 778 C 76.178 4.34144 -0.896311 0
M  V30 779 H 73.398 0.608624 -0.282519 0
M  V30 780 H 75.942 1.49268 -1.39783 0
M  V30 781 H 74.097 3.83245 -0.565874 0
M  V30 782 H 74.511 4.51319 -2.67229 0
M  V30 783 H 75.985 5.38744 -1.20244 0
M  V30 784 H 76.462 4.38876 0.168636 0
M  V30 785 H 77.068 3.99574 -1.45672 0
M  V30 786 N 75.3831 0.828654 1.34056 0
M  V30 787 C 76.6131 0.431993 2.02033 0
M  V30 788 C 77.0211 -0.96844 1.62536 0
M  V30 789 O 76.3641 -1.6391 0.829408 0
M  V30 790 C 76.4261 0.461224 3.56529 0
M  V30 791 C 76.0901 1.81599 4.1937 0
M  V30 792 C 77.0871 2.7777 4.39477 0
M  V30 793 C 74.7721 2.10604 4.56017 0
M  V30 794 C 76.7661 4.01115 4.95364 0
M  V30 795 C 74.4531 3.34207 5.11614 0
M  V30 796 C 75.4511 4.2928 5.31232 0
M  V30 797 O 75.1391 5.50699 5.8565 0
M  V30 798 H 74.8711 0.170943 0.654029 0
M  V30 799 H 77.4251 1.11988 1.72185 0
M  V30 800 H 75.6551 -0.283388 3.8566 0
M  V30 801 H 77.3441 0.0838149 4.05813 0
M  V30 802 H 78.1101 2.56659 4.11523 0
M  V30 803 H 73.9891 1.37402 4.40047 0
M  V30 804 H 77.5331 4.75333 5.10592 0
M  V30 805 H 73.4301 3.55179 5.38997 0
M  V30 806 H 74.1981 5.52298 6.04077 0
M  V30 807 N 76.8612 -1.46375 0.584142 0
M  V30 808 C 78.2722 -1.86031 0.157959 0
M  V30 809 C 78.6232 -1.48753 -1.27933 0
M  V30 810 O 77.7482 -0.903098 -1.96655 0
M  V30 811 C 78.3432 -3.37642 0.279892 0
M  V30 812 C 76.9022 -3.76289 -0.09143 0
M  V30 813 C 76.0492 -2.7039 0.615178 0
M  V30 814 H 79.0002 -1.37509 0.792274 0
M  V30 815 H 79.0212 -3.77275 -0.494364 0
M  V30 816 H 78.5332 -3.64742 1.32607 0
M  V30 817 H 76.6342 -3.54806 -1.13769 0
M  V30 818 H 76.7472 -4.78246 0.285886 0
M  V30 819 H 75.1112 -2.5464 0.0552833 0
M  V30 820 H 75.8942 -3.0033 1.66303 0
M  V30 821 N 78.3393 -0.321999 -1.54275 0
M  V30 822 C 79.2693 0.537411 -2.27231 0
M  V30 823 C 80.2503 1.12064 -1.27968 0
M  V30 824 O 81.4353 1.14606 -1.56777 0
M  V30 825 C 78.5653 1.69919 -3.02894 0
M  V30 826 C 77.5193 1.24534 -4.09482 0
M  V30 827 C 76.8453 2.49394 -4.72977 0
M  V30 828 C 78.1453 0.361335 -5.21049 0
M  V30 829 H 79.8393 -0.0711406 -2.99315 0
M  V30 830 H 77.3853 -0.0356555 -1.43956 0
M  V30 831 H 79.3383 2.30668 -3.52662 0
M  V30 832 H 78.0623 2.33431 -2.28424 0
M  V30 833 H 76.7213 0.660782 -3.60596 0
M  V30 834 H 76.3693 3.11265 -3.95124 0
M  V30 835 H 76.0693 2.19718 -5.44975 0
M  V30 836 H 77.5933 3.10908 -5.25517 0
M  V30 837 H 79.0073 0.875072 -5.66582 0
M  V30 838 H 77.4043 0.157428 -5.99893 0
M  V30 839 H 78.4743 -0.60822 -4.8107 0
M  V30 840 N 79.8174 1.5752 -0.0501392 0
M  V30 841 C 80.7654 2.12651 0.942459 0
M  V30 842 C 81.7594 1.05807 1.32292 0
M  V30 843 O 82.9654 1.24217 1.3027 0
M  V30 844 H 79.3404 0.679673 0.321789 0
M  V30 845 H 81.3114 2.94951 0.452356 0
M  V30 846 C 80.0604 2.68565 2.20836 0
M  V30 847 H 79.3834 3.50439 1.92439 0
M  V30 848 H 80.8234 3.10761 2.8845 0
M  V30 849 C 79.2824 1.62291 2.95234 0
M  V30 850 O 79.8124 1.03508 3.88135 0
M  V30 851 N 78.0184 1.33836 2.57946 0
M  V30 852 H 77.5654 1.81826 1.82475 0
M  V30 853 H 77.5234 0.629595 3.08032 0
M  V30 854 N 81.2955 -0.223234 1.56011 0
M  V30 855 C 82.5435 -0.946003 1.78592 0
M  V30 856 C 82.8645 -1.84936 0.618349 0
M  V30 857 O 82.1345 -1.92473 -0.364833 0
M  V30 858 H 80.7145 -0.352298 0.658707 0
M  V30 859 H 83.3765 -0.235494 1.93472 0
M  V30 860 H 82.4725 -1.55381 2.70672 0
M  V30 861 N 82.7736 -1.49793 -0.48987 0
M  V30 862 C 84.0196 -1.61049 -1.24236 0
M  V30 863 C 84.3746 -0.298412 -1.90072 0
M  V30 864 O 83.6676 0.702262 -1.78266 0
M  V30 865 C 83.8616 -2.71488 -2.32441 0
M  V30 866 C 83.6906 -4.13308 -1.77218 0
M  V30 867 C 82.4606 -4.79955 -1.58023 0
M  V30 868 C 84.6586 -4.98176 -1.27772 0
M  V30 869 N 82.6406 -6.06052 -0.978465 0
M  V30 870 C 84.0116 -6.14843 -0.798 0
M  V30 871 C 86.0666 -4.84091 -1.16449 0
M  V30 872 C 84.7696 -7.18975 -0.216245 0
M  V30 873 C 86.7956 -5.88382 -0.596698 0
M  V30 874 C 86.1576 -7.04285 -0.127262 0
M  V30 875 H 82.2566 -0.643611 -0.444172 0
M  V30 876 H 84.8406 -1.86842 -0.54754 0
M  V30 877 H 83.0116 -2.47449 -2.99372 0
M  V30 878 H 84.7436 -2.72205 -2.99477 0
M  V30 879 H 81.4986 -4.36936 -1.82712 0
M  V30 880 H 81.9226 -6.73407 -0.696534 0
M  V30 881 H 86.5646 -3.94786 -1.5134 0
M  V30 882 H 84.2826 -8.0797 0.144903 0
M  V30 883 H 87.8686 -5.79545 -0.511716 0
M  V30 884 H 86.7486 -7.83606 0.30523 0
M  V30 885 N 84.2517 0.741722 -1.39055 0
M  V30 886 C 85.5287 1.49252 -1.26425 0
M  V30 887 C 85.9087 2.10705 0.129144 0
M  V30 888 O 85.2567 1.98045 1.13976 0
M  V30 889 C 85.4667 2.54934 -2.38347 0
M  V30 890 C 86.8147 3.21506 -2.77343 0
M  V30 891 O 87.8387 2.65245 -2.37747 0
M  V30 892 O 86.6977 4.23294 -3.45665 0
M  V30 893 H 83.7917 0.662451 -0.495064 0
M  V30 894 H 86.3377 0.776121 -1.50912 0
M  V30 895 H 85.1097 2.07857 -3.31529 0
M  V30 896 H 84.7327 3.34141 -2.15489 0
M  V30 897 N 85.7298 1.2412 0.971189 0
M  V30 898 C 86.6928 1.03156 2.04674 0
M  V30 899 C 87.6928 -0.00990322 1.60797 0
M  V30 900 O 88.8828 0.230729 1.72665 0
M  V30 901 C 86.0148 0.562765 3.36223 0
M  V30 902 H 87.2078 1.98614 2.24705 0
M  V30 903 H 84.7608 1.06293 1.14593 0
M  V30 904 H 85.4958 -0.395176 3.21883 0
M  V30 905 H 85.2808 1.31441 3.69413 0
M  V30 906 H 86.7708 0.437015 4.15307 0
M  V30 907 N 87.2079 -1.17134 1.05439 0
M  V30 908 C 88.4569 -1.86791 0.761049 0
M  V30 909 C 88.7699 -1.82072 -0.714795 0
M  V30 910 O 89.9759 -2.47223 -1.12218 0
M  V30 911 C 88.4319 -3.35166 1.31117 0
M  V30 912 C 88.0399 -3.48381 2.81664 0
M  V30 913 C 89.7839 -4.10134 1.09499 0
M  V30 914 C 87.6909 -4.90793 3.29964 0
M  V30 915 H 86.6209 -0.699681 0.281002 0
M  V30 916 H 89.2719 -1.3226 1.27199 0
M  V30 917 H 87.6539 -3.8925 0.72803 0
M  V30 918 H 88.8279 -3.04502 3.45855 0
M  V30 919 H 87.1429 -2.86836 3.01851 0
M  V30 920 H 89.7399 -5.152 1.43084 0
M  V30 921 H 90.0829 -4.16287 0.0328772 0
M  V30 922 H 90.6159 -3.62264 1.64346 0
M  V30 923 H 87.3549 -4.89816 4.35616 0
M  V30 924 H 86.8749 -5.35333 2.70516 0
M  V30 925 H 88.5539 -5.59573 3.24787 0
M  V30 926 N 88.686 -0.835752 -1.33615 0
M  V30 927 C 89.914 -0.443344 -2.02094 0
M  V30 928 C 90.329 0.954522 -1.62894 0
M  V30 929 O 89.686 1.61982 -0.840723 0
M  V30 930 C 89.737 -0.550775 -3.5728 0
M  V30 931 O 89.458 -1.89356 -3.95065 0
M  V30 932 C 90.959 -0.154919 -4.43029 0
M  V30 933 H 88.179 -0.176359 -0.647409 0
M  V30 934 H 90.723 -1.12746 -1.70612 0
M  V30 935 H 88.878 0.0853997 -3.87306 0
M  V30 936 H 89.292 -1.87687 -4.89769 0
M  V30 937 H 90.766 -0.281144 -5.51284 0
M  V30 938 H 91.243 0.902863 -4.2982 0
M  V30 939 H 91.849 -0.765404 -4.18356 0
M  V30 940 N 90.1641 1.46063 -0.591896 0
M  V30 941 C 91.0741 2.34192 0.13831 0
M  V30 942 C 92.0901 1.50305 0.876608 0
M  V30 943 O 93.2661 1.8315 0.837728 0
M  V30 944 C 90.3311 3.27656 1.13326 0
M  V30 945 C 89.3921 4.27445 0.39863 0
M  V30 946 C 88.6251 5.16443 1.34618 0
M  V30 947 O 88.8481 5.08553 2.58321 0
M  V30 948 O 87.7821 5.95843 0.851768 0
M  V30 949 H 91.6081 2.98002 -0.58552 0
M  V30 950 H 89.1931 1.45188 -0.352239 0
M  V30 951 H 91.0751 3.85291 1.70671 0
M  V30 952 H 89.7501 2.6643 1.83839 0
M  V30 953 H 88.6571 3.73471 -0.216895 0
M  V30 954 H 89.9901 4.91482 -0.265709 0
M  V30 955 N 91.6422 0.330177 1.54103 0
M  V30 956 C 92.5752 -0.575477 2.20825 0
M  V30 957 C 93.5532 -1.11064 1.18758 0
M  V30 958 O 94.7372 -1.17341 1.47524 0
M  V30 959 C 91.8642 -1.79032 2.87516 0
M  V30 960 C 90.9102 -1.38581 4.03358 0
M  V30 961 S 91.7432 -0.416911 5.33875 0
M  V30 962 C 92.8992 -1.63889 6.04062 0
M  V30 963 H 93.1322 -0.00872114 2.97299 0
M  V30 964 H 90.6652 0.114254 1.53977 0
M  V30 965 H 92.6232 -2.48734 3.2656 0
M  V30 966 H 91.2842 -2.32827 2.10832 0
M  V30 967 H 90.4772 -2.29123 4.48908 0
M  V30 968 H 90.0792 -0.768419 3.66021 0
M  V30 969 H 92.3712 -2.57536 6.26643 0
M  V30 970 H 93.3142 -1.22542 6.97416 0
M  V30 971 H 93.7222 -1.82887 5.34053 0
M  V30 972 N 93.1203 -1.57491 0.0584922 0
M  V30 973 C 94.3973 -1.84346 -0.653918 0
M  V30 974 C 94.7773 -0.948355 -1.88599 0
M  V30 975 O 94.1253 -0.0112403 -2.28497 0
M  V30 976 C 94.3353 -3.34239 -1.00425 0
M  V30 977 C 95.6833 -4.01431 -1.38342 0
M  V30 978 O 96.7073 -3.38907 -1.09637 0
M  V30 979 O 95.5663 -5.11683 -1.91943 0
M  V30 980 H 92.6603 -0.761112 -0.323478 0
M  V30 981 H 95.2063 -1.6947 0.0884125 0
M  V30 982 H 93.9783 -3.91089 -0.128625 0
M  V30 983 H 93.6013 -3.54329 -1.80378 0
M  V30 984 N 94.5984 0.214957 -1.56127 0
M  V30 985 C 95.5084 1.28727 -1.96129 0
M  V30 986 C 96.5244 1.50916 -0.866044 0
M  V30 987 O 97.7004 1.63918 -1.17016 0
M  V30 988 C 94.7654 2.61569 -2.27558 0
M  V30 989 C 93.8264 2.47625 -3.50685 0
M  V30 990 C 93.0594 3.74132 -3.80606 0
M  V30 991 O 93.2824 4.77438 -3.12104 0
M  V30 992 O 92.2164 3.70849 -4.74083 0
M  V30 993 H 96.0424 0.977855 -2.87527 0
M  V30 994 H 93.6274 0.418358 -1.43423 0
M  V30 995 H 95.5094 3.40012 -2.48938 0
M  V30 996 H 94.1844 2.92178 -1.39332 0
M  V30 997 H 93.0914 1.67361 -3.34576 0
M  V30 998 H 94.4244 2.21954 -4.39315 0
M  V30 999 N 96.0765 1.50051 0.48192 0
M  V30 1000 C 97.0265 1.64512 1.5786 0
M  V30 1001 C 98.0105 0.500073 1.52932 0
M  V30 1002 O 99.2025 0.753964 1.60139 0
M  V30 1003 C 96.3315 1.73263 2.9637 0
M  V30 1004 C 95.4175 2.93409 3.06222 0
M  V30 1005 N 95.8085 4.17236 2.85915 0
M  V30 1006 C 94.1065 2.91742 3.37346 0
M  V30 1007 C 94.8075 4.981 3.00451 0
M  V30 1008 N 93.7835 4.3184 3.30174 0
M  V30 1009 H 97.5855 2.57955 1.40842 0
M  V30 1010 H 95.0995 1.47086 0.688439 0
M  V30 1011 H 97.0965 1.81724 3.75209 0
M  V30 1012 H 95.7565 0.809711 3.14442 0
M  V30 1013 H 96.7675 4.46909 2.6171 0
M  V30 1014 H 93.4445 2.08907 3.61475 0
M  V30 1015 H 94.8345 6.06532 2.89082 0
M  V30 1016 N 97.5546 -0.734337 1.39446 0
M  V30 1017 C 98.5026 -1.86971 1.38364 0
M  V30 1018 C 99.4966 -1.67288 0.266687 0
M  V30 1019 O 100.703 -1.74621 0.436755 0
M  V30 1020 H 97.0776 -0.615474 0.432082 0
M  V30 1021 H 99.0486 -1.85 2.34132 0
M  V30 1022 C 97.7976 -3.2466 1.24465 0
M  V30 1023 H 97.1206 -3.40402 2.09682 0
M  V30 1024 H 98.5606 -4.04292 1.27764 0
M  V30 1025 C 97.0196 -3.36867 -0.0468674 0
M  V30 1026 O 97.5496 -3.88618 -1.01681 0
M  V30 1027 N 95.7556 -2.90391 -0.110145 0
M  V30 1028 H 95.3026 -2.48466 0.679868 0
M  V30 1029 H 95.2606 -2.98939 -0.973799 0
M  V30 1030 N 99.0327 -1.24633 -0.964593 0
M  V30 1031 C 100.449 -1.01239 -1.2338 0
M  V30 1032 C 100.649 0.2769 -1.99588 0
M  V30 1033 O 99.7047 0.992241 -2.32187 0
M  V30 1034 C 101.018 -2.22937 -2.01791 0
M  V30 1035 C 102.566 -2.27594 -2.14872 0
M  V30 1036 C 103.041 -3.48921 -2.96678 0
M  V30 1037 N 104.532 -3.49257 -3.04259 0
M  V30 1038 C 105.267 -4.39795 -3.67924 0
M  V30 1039 N 104.763 -5.40591 -4.33281 0
M  V30 1040 N 106.556 -4.275 -3.64966 0
M  V30 1041 H 98.7067 -2.0748 -0.454502 0
M  V30 1042 H 100.97 -0.910647 -0.26349 0
M  V30 1043 H 100.676 -3.16587 -1.53184 0
M  V30 1044 H 100.55 -2.25306 -3.02518 0
M  V30 1045 H 102.937 -1.34473 -2.6268 0
M  V30 1046 H 103.018 -2.2925 -1.13482 0
M  V30 1047 H 102.662 -4.42359 -2.49562 0
M  V30 1048 H 102.592 -3.4451 -3.98272 0
M  V30 1049 H 105.083 -2.76337 -2.57771 0
M  V30 1050 H 105.396 -6.05904 -4.79687 0
M  V30 1051 H 103.741 -5.44475 -4.3194 0
M  V30 1052 H 106.932 -3.47987 -3.13086 0
M  V30 1053 H 107.105 -4.98258 -4.14298 0
M  V30 1054 N 100.511 1.16574 -1.06058 0
M  V30 1055 C 101.922 1.68662 -0.800632 0
M  V30 1056 C 102.273 1.84184 0.67608 0
M  V30 1057 O 101.398 1.53568 1.52466 0
M  V30 1058 C 101.993 3.06356 -1.44676 0
M  V30 1059 C 100.552 3.55575 -1.23465 0
M  V30 1060 C 99.6988 2.31616 -1.52477 0
M  V30 1061 H 102.65 1.00969 -1.22438 0
M  V30 1062 H 102.671 3.70636 -0.860788 0
M  V30 1063 H 102.183 2.95027 -2.52152 0
M  V30 1064 H 100.284 3.72167 -0.179527 0
M  V30 1065 H 100.397 4.37812 -1.94571 0
M  V30 1066 H 98.7608 2.36512 -0.945209 0
M  V30 1067 H 99.5438 2.22887 -2.61106 0
M  V30 1068 N 101.989 0.842826 1.3317 0
M  V30 1069 C 103.238 0.436738 1.96915 0
M  V30 1070 C 103.551 -1.01025 1.67491 0
M  V30 1071 O 104.757 -1.5212 2.24881 0
M  V30 1072 C 103.213 0.730021 3.52418 0
M  V30 1073 C 102.821 2.19195 3.90714 0
M  V30 1074 C 104.565 0.391076 4.22695 0
M  V30 1075 C 102.472 2.42907 5.39212 0
M  V30 1076 H 101.402 0.15958 0.736919 0
M  V30 1077 H 104.053 1.03196 1.51733 0
M  V30 1078 H 102.435 0.0643755 3.95948 0
M  V30 1079 H 103.609 2.8984 3.58231 0
M  V30 1080 H 101.924 2.49425 3.33431 0
M  V30 1081 H 104.521 0.545817 5.31907 0
M  V30 1082 H 104.864 -0.666294 4.10933 0
M  V30 1083 H 105.397 1.01212 3.84709 0
M  V30 1084 H 102.136 3.47224 5.55982 0
M  V30 1085 H 101.656 1.76827 5.73142 0
M  V30 1086 H 103.335 2.2626 6.06148 0
M  V30 1087 N 103.467 -1.45747 0.599634 0
M  V30 1088 C 104.417 -2.27538 -0.145107 0
M  V30 1089 C 105.401 -1.3686 -0.846055 0
M  V30 1090 O 106.593 -1.6091 -0.737357 0
M  V30 1091 C 103.722 -3.23569 -1.14708 0
M  V30 1092 C 102.808 -4.21734 -0.447383 0
M  V30 1093 N 103.199 -5.03257 0.506535 0
M  V30 1094 C 101.497 -4.40536 -0.695966 0
M  V30 1095 C 102.198 -5.74426 0.917068 0
M  V30 1096 N 101.174 -5.42966 0.26253 0
M  V30 1097 H 104.976 -2.87965 0.587672 0
M  V30 1098 H 102.49 -1.56803 0.422697 0
M  V30 1099 H 104.487 -3.8089 -1.69495 0
M  V30 1100 H 103.147 -2.64702 -1.8805 0
M  V30 1101 H 104.158 -5.10319 0.882899 0
M  V30 1102 H 100.835 -3.92802 -1.41467 0
M  V30 1103 H 102.225 -6.4995 1.70338 0
M  V30 1104 N 104.945 -0.338344 -1.53925 0
M  V30 1105 C 106.173 0.261298 -2.05243 0
M  V30 1106 C 106.588 1.44625 -1.21363 0
M  V30 1107 O 105.945 1.80811 -0.247736 0
M  V30 1108 C 105.996 0.681412 -3.5502 0
M  V30 1109 O 105.717 -0.456414 -4.35716 0
M  V30 1110 C 107.218 1.34232 -4.22489 0
M  V30 1111 H 104.438 0.0513685 -0.669031 0
M  V30 1112 H 106.982 -0.488822 -1.98572 0
M  V30 1113 H 105.137 1.38148 -3.61931 0
M  V30 1114 H 105.551 -0.122564 -5.24357 0
M  V30 1115 H 107.025 1.58708 -5.28693 0
M  V30 1116 H 107.502 2.29426 -3.74514 0
M  V30 1117 H 108.108 0.684424 -4.19757 0
M  V30 1118 N 106.423 1.57458 -0.0668435 0
M  V30 1119 C 107.653 1.97337 0.611677 0
M  V30 1120 C 108.061 0.943744 1.63982 0
M  V30 1121 O 107.404 -0.0785584 1.83532 0
M  V30 1122 C 107.466 3.33511 1.34205 0
M  V30 1123 C 107.13 4.54598 0.467941 0
M  V30 1124 C 108.127 5.19186 -0.272439 0
M  V30 1125 C 105.812 5.0075 0.39427 0
M  V30 1126 C 107.806 6.28274 -1.07476 0
M  V30 1127 C 105.493 6.09711 -0.411729 0
M  V30 1128 C 106.491 6.73335 -1.14492 0
M  V30 1129 O 106.179 7.80199 -1.93763 0
M  V30 1130 H 105.911 0.654042 0.170893 0
M  V30 1131 H 108.465 2.04961 -0.134289 0
M  V30 1132 H 106.695 3.22487 2.13398 0
M  V30 1133 H 108.384 3.58029 1.91233 0
M  V30 1134 H 109.15 4.84477 -0.225086 0
M  V30 1135 H 105.029 4.51009 0.954569 0
M  V30 1136 H 108.573 6.77866 -1.64755 0
M  V30 1137 H 104.47 6.43854 -0.460664 0
M  V30 1138 H 105.238 7.97053 -1.86142 0
M  V30 1139 N 107.901 -0.206675 1.56239 0
M  V30 1140 C 108.833 -1.27997 1.9013 0
M  V30 1141 C 109.846 -1.42299 0.790883 0
M  V30 1142 O 111.035 -1.42931 1.06925 0
M  V30 1143 C 108.135 -2.65368 2.10792 0
M  V30 1144 C 107.308 -2.72824 3.41886 0
M  V30 1145 C 106.367 -3.9131 3.51799 0
M  V30 1146 O 105.393 -3.78953 4.24716 0
M  V30 1147 N 106.595 -5.06265 2.84035 0
M  V30 1148 H 109.36 -0.992444 2.82791 0
M  V30 1149 H 106.921 -0.396652 1.56966 0
M  V30 1150 H 108.913 -3.43039 2.14724 0
M  V30 1151 H 107.483 -2.86657 1.24685 0
M  V30 1152 H 106.703 -1.81515 3.49923 0
M  V30 1153 H 107.991 -2.74786 4.28217 0
M  V30 1154 H 107.389 -5.19203 2.246 0
M  V30 1155 H 105.946 -5.81925 2.93609 0
M  V30 1156 N 109.379 -1.50304 -0.473955 0
M  V30 1157 C 110.625 -1.61389 -1.22806 0
M  V30 1158 C 110.958 -0.311955 -1.91678 0
M  V30 1159 O 110.233 0.686384 -1.81986 0
M  V30 1160 C 110.516 -2.79219 -2.27396 0
M  V30 1161 C 110.369 -4.19286 -1.62848 0
M  V30 1162 C 111.688 -2.92614 -3.28732 0
M  V30 1163 H 108.807 -0.587399 -0.445119 0
M  V30 1164 H 111.449 -1.82681 -0.522265 0
M  V30 1165 H 109.599 -2.61195 -2.87592 0
M  V30 1166 H 111.271 -4.48892 -1.06271 0
M  V30 1167 H 109.514 -4.23677 -0.931693 0
M  V30 1168 H 110.185 -4.97655 -2.38838 0
M  V30 1169 H 112.661 -3.09105 -2.78556 0
M  V30 1170 H 111.537 -3.76688 -3.99246 0
M  V30 1171 H 111.798 -2.03107 -3.92683 0
M  V30 1172 N 110.857 0.726932 -1.39834 0
M  V30 1173 C 112.097 1.4992 -1.38936 0
M  V30 1174 C 112.461 1.91996 0.0126883 0
M  V30 1175 O 113.662 2.68399 0.146715 0
M  V30 1176 C 111.933 2.70013 -2.34153 0
M  V30 1177 S 113.492 3.59563 -2.51515 0
M  V30 1178 H 110.31 0.51271 -0.492595 0
M  V30 1179 H 112.912 0.85107 -1.76003 0
M  V30 1180 H 111.616 2.37254 -3.34871 0
M  V30 1181 H 111.147 3.39748 -1.98331 0
M  V30 1182 H 113.162 4.63973 -1.75909 0
M  V30 1183 N 112.336 1.25143 0.95797 0
M  V30 1184 C 113.284 1.05019 2.07542 0
M  V30 1185 C 114.278 -0.0178751 1.69391 0
M  V30 1186 O 115.484 0.137472 1.79474 0
M  V30 1187 H 111.859 0.32265 0.679265 0
M  V30 1188 H 113.83 1.99759 2.21673 0
M  V30 1189 C 112.579 0.682074 3.40944 0
M  V30 1190 H 111.902 1.49573 3.70767 0
M  V30 1191 H 113.342 0.580945 4.20001 0
M  V30 1192 C 111.801 -0.611608 3.31302 0
M  V30 1193 O 112.331 -1.65465 3.66038 0
M  V30 1194 N 110.537 -0.595982 2.84423 0
M  V30 1195 H 110.084 0.253192 2.56353 0
M  V30 1196 H 110.042 -1.46173 2.78354 0
M  V30 1197 N 113.814 -1.1601 1.06675 0
M  V30 1198 C 115.06 -1.86909 0.786945 0
M  V30 1199 C 115.393 -1.81717 -0.685018 0
M  V30 1200 O 114.668 -1.23551 -1.50218 0
M  V30 1201 C 114.951 -3.36313 1.28707 0
M  V30 1202 C 114.804 -3.50175 2.82308 0
M  V30 1203 C 116.123 -4.3084 0.898071 0
M  V30 1204 H 113.242 -0.678677 0.287343 0
M  V30 1205 H 115.884 -1.36336 1.32334 0
M  V30 1206 H 114.034 -3.79513 0.830768 0
M  V30 1207 H 115.706 -3.15886 3.36175 0
M  V30 1208 H 113.949 -2.91959 3.20847 0
M  V30 1209 H 114.62 -4.55116 3.12368 0
M  V30 1210 H 117.096 -3.95561 1.29114 0
M  V30 1211 H 115.972 -5.33876 1.27543 0
M  V30 1212 H 116.233 -4.41662 -0.196651 0
M  V30 1213 N 115.292 -0.849877 -1.32721 0
M  V30 1214 C 116.225 -0.235903 -2.26977 0
M  V30 1215 C 117.203 0.623355 -1.50177 0
M  V30 1216 O 118.387 0.581207 -1.79316 0
M  V30 1217 C 115.514 0.667712 -3.32053 0
M  V30 1218 C 114.56 -0.11753 -4.26338 0
M  V30 1219 S 115.393 -1.48277 -5.14562 0
M  V30 1220 C 116.549 -0.584741 -6.23163 0
M  V30 1221 H 116.782 -1.03495 -2.78704 0
M  V30 1222 H 114.315 -0.64724 -1.40179 0
M  V30 1223 H 116.273 1.18343 -3.93072 0
M  V30 1224 H 114.934 1.44052 -2.7912 0
M  V30 1225 H 114.127 0.57051 -5.00761 0
M  V30 1226 H 113.729 -0.564668 -3.69713 0
M  V30 1227 H 116.021 0.212968 -6.77165 0
M  V30 1228 H 116.964 -1.29947 -6.96074 0
M  V30 1229 H 117.372 -0.161202 -5.6427 0
M  V30 1230 N 116.77 1.45427 -0.607355 0
M  V30 1231 C 117.68 2.34325 0.113463 0
M  V30 1232 C 118.696 1.51226 0.860617 0
M  V30 1233 O 119.872 1.84029 0.818255 0
M  V30 1234 C 116.937 3.28839 1.09844 0
M  V30 1235 C 115.998 4.27844 0.353271 0
M  V30 1236 C 115.231 5.17842 1.29133 0
M  V30 1237 O 115.454 5.11264 2.52913 0
M  V30 1238 O 114.388 5.96713 0.788523 0
M  V30 1239 H 118.214 2.97364 -0.617094 0
M  V30 1240 H 115.799 1.44807 -0.367619 0
M  V30 1241 H 117.681 3.8708 1.66575 0
M  V30 1242 H 116.356 2.68365 1.81003 0
M  V30 1243 H 115.263 3.7322 -0.256494 0
M  V30 1244 H 116.596 4.91173 -0.317822 0
M  V30 1245 N 118.248 0.346503 1.53744 0
M  V30 1246 C 119.659 -0.136779 1.86198 0
M  V30 1247 C 120.01 -1.49749 1.26766 0
M  V30 1248 O 119.135 -2.08417 0.582355 0
M  V30 1249 C 119.73 -0.254966 3.37839 0
M  V30 1250 C 118.289 -0.682482 3.70161 0
M  V30 1251 C 117.436 0.181981 2.76702 0
M  V30 1252 H 120.387 0.565994 1.48264 0
M  V30 1253 H 120.408 -1.08195 3.64793 0
M  V30 1254 H 119.92 0.735526 3.81066 0
M  V30 1255 H 118.021 -1.68189 3.3248 0
M  V30 1256 H 118.134 -0.470326 4.76786 0
M  V30 1257 H 116.498 -0.34615 2.52337 0
M  V30 1258 H 117.281 1.16966 3.2276 0
M  V30 1259 N 119.726 -1.57421 0.075193 0
M  V30 1260 C 120.674 -2.14124 -0.908508 0
M  V30 1261 C 121.668 -1.07898 -1.30592 0
M  V30 1262 O 122.874 -1.26273 -1.28277 0
M  V30 1263 H 119.249 -0.684707 -0.310935 0
M  V30 1264 H 121.22 -2.95634 -0.405374 0
M  V30 1265 C 119.969 -2.72044 -2.16535 0
M  V30 1266 H 119.292 -3.53456 -1.86839 0
M  V30 1267 H 120.732 -3.15311 -2.83469 0
M  V30 1268 C 119.191 -1.66968 -2.92615 0
M  V30 1269 O 119.721 -1.0967 -3.86439 0
M  V30 1270 N 117.927 -1.37923 -2.55784 0
M  V30 1271 H 117.474 -1.84706 -1.79559 0
M  V30 1272 H 117.432 -0.67852 -3.06991 0
M  V30 1273 N 121.204 0.198386 -1.56346 0
M  V30 1274 C 122.136 1.26987 -1.90806 0
M  V30 1275 C 123.149 1.41877 -0.798419 0
M  V30 1276 O 124.338 1.42362 -1.07682 0
M  V30 1277 C 121.438 2.64246 -2.12196 0
M  V30 1278 C 120.611 2.71007 -3.43328 0
M  V30 1279 C 119.67 3.89439 -3.5387 0
M  V30 1280 O 118.696 3.76695 -4.26719 0
M  V30 1281 N 119.898 5.04752 -2.86715 0
M  V30 1282 H 122.663 0.977433 -2.83313 0
M  V30 1283 H 120.224 0.388322 -1.57174 0
M  V30 1284 H 122.216 3.41896 -2.1654 0
M  V30 1285 H 120.786 2.85992 -1.26204 0
M  V30 1286 H 120.006 1.79657 -3.50881 0
M  V30 1287 H 121.294 2.72512 -4.29668 0
M  V30 1288 H 120.692 5.18004 -2.2735 0
M  V30 1289 H 119.249 5.8036 -2.96691 0
M  V30 1290 N 122.682 1.50554 0.465978 0
M  V30 1291 C 123.63 1.70324 1.58406 0
M  V30 1292 C 124.624 0.569139 1.59553 0
M  V30 1293 O 125.83 0.749776 1.63641 0
M  V30 1294 H 122.205 0.537688 0.525734 0
M  V30 1295 H 124.176 2.64104 1.38894 0
M  V30 1296 C 122.925 1.81928 2.96307 0
M  V30 1297 H 122.248 2.68586 2.96144 0
M  V30 1298 H 123.688 1.99784 3.73982 0
M  V30 1299 C 122.147 0.572095 3.32007 0
M  V30 1300 O 122.677 -0.286416 4.00678 0
M  V30 1301 N 120.883 0.424606 2.87481 0
M  V30 1302 H 120.43 1.12427 2.31771 0
M  V30 1303 H 120.388 -0.408697 3.11732 0
M  V30 1304 N 124.16 -0.719506 1.40217 0
M  V30 1305 C 125.108 -1.85493 1.40339 0
M  V30 1306 C 126.102 -1.66995 0.284415 0
M  V30 1307 O 127.308 -1.74148 0.455252 0
M  V30 1308 H 123.683 -0.610857 0.438586 0
M  V30 1309 H 125.654 -1.82506 2.36081 0
M  V30 1310 C 124.403 -3.23321 1.27901 0
M  V30 1311 H 123.726 -3.38159 2.1328 0
M  V30 1312 H 125.166 -4.02914 1.32045 0
M  V30 1313 C 123.625 -3.36898 -0.0111355 0
M  V30 1314 O 124.155 -3.89674 -0.975538 0
M  V30 1315 N 122.361 -2.90492 -0.0793393 0
M  V30 1316 H 121.908 -2.47731 0.706183 0
M  V30 1317 H 121.866 -2.99955 -0.942038 0
M  V30 1318 N 125.638 -1.25649 -0.95132 0
M  V30 1319 C 126.884 -1.11766 -1.69941 0
M  V30 1320 C 127.239 0.33735 -1.89419 0
M  V30 1321 O 126.532 1.24491 -1.45645 0
M  V30 1322 C 126.726 -1.80909 -3.08231 0
M  V30 1323 C 126.555 -3.32984 -3.02245 0
M  V30 1324 C 125.325 -4.02247 -3.05819 0
M  V30 1325 C 127.523 -4.29332 -2.83157 0
M  V30 1326 N 125.505 -5.41072 -2.90024 0
M  V30 1327 C 126.876 -5.55265 -2.75828 0
M  V30 1328 C 128.931 -4.19707 -2.67863 0
M  V30 1329 C 127.634 -6.72671 -2.54767 0
M  V30 1330 C 129.66 -5.36809 -2.48173 0
M  V30 1331 C 129.022 -6.61683 -2.41567 0
M  V30 1332 H 125.121 -0.463708 -0.629682 0
M  V30 1333 H 127.705 -1.58796 -1.12659 0
M  V30 1334 H 125.876 -1.36369 -3.63673 0
M  V30 1335 H 127.608 -1.59739 -3.71841 0
M  V30 1336 H 124.363 -3.53531 -3.15139 0
M  V30 1337 H 124.787 -6.13938 -2.85323 0
M  V30 1338 H 129.429 -3.23907 -2.71743 0
M  V30 1339 H 127.147 -7.68577 -2.49629 0
M  V30 1340 H 130.733 -5.31224 -2.37259 0
M  V30 1341 H 129.613 -7.50768 -2.26531 0
M  V30 1342 N 127.117 1.15442 -1.07289 0
M  V30 1343 C 128.047 2.22312 -0.714107 0
M  V30 1344 C 129.028 1.67467 0.298155 0
M  V30 1345 O 130.213 1.93445 0.171048 0
M  V30 1346 C 127.343 3.47124 -0.110448 0
M  V30 1347 C 126.297 4.14926 -1.04979 0
M  V30 1348 C 125.623 5.33807 -0.308924 0
M  V30 1349 C 126.923 4.64762 -2.38314 0
M  V30 1350 H 128.617 2.5258 -1.6076 0
M  V30 1351 H 126.163 1.21404 -0.77441 0
M  V30 1352 H 128.116 4.21124 0.152482 0
M  V30 1353 H 126.84 3.16187 0.81812 0
M  V30 1354 H 125.499 3.42866 -1.29764 0
M  V30 1355 H 125.147 4.99126 0.623084 0
M  V30 1356 H 124.847 5.80113 -0.935036 0
M  V30 1357 H 126.371 6.10576 -0.0537771 0
M  V30 1358 H 127.785 5.30292 -2.1786 0
M  V30 1359 H 126.182 5.21728 -2.96514 0
M  V30 1360 H 127.252 3.80434 -3.00663 0
M  V30 1361 N 128.595 0.856903 1.32268 0
M  V30 1362 C 130.011 0.547061 1.49931 0
M  V30 1363 C 130.211 -0.921781 1.7918 0
M  V30 1364 O 129.267 -1.70469 1.8627 0
M  V30 1365 C 130.58 1.43599 2.64196 0
M  V30 1366 C 132.128 1.43665 2.78081 0
M  V30 1367 C 132.603 2.31085 3.95428 0
M  V30 1368 N 134.094 2.28893 4.02694 0
M  V30 1369 C 134.829 2.93262 4.92732 0
M  V30 1370 N 134.325 3.66751 5.87763 0
M  V30 1371 N 136.118 2.82638 4.85873 0
M  V30 1372 H 128.269 1.8075 1.11549 0
M  V30 1373 H 130.532 0.772144 0.549997 0
M  V30 1374 H 130.238 2.48058 2.49319 0
M  V30 1375 H 130.112 1.12502 3.60032 0
M  V30 1376 H 132.499 0.399701 2.92381 0
M  V30 1377 H 132.58 1.7878 1.82952 0
M  V30 1378 H 132.224 3.34849 3.81888 0
M  V30 1379 H 132.154 1.93302 4.89839 0
M  V30 1380 H 134.645 1.75466 3.34694 0
M  V30 1381 H 134.958 4.13027 6.53168 0
M  V30 1382 H 133.303 3.70859 5.87783 0
M  V30 1383 H 136.494 2.24774 4.10602 0
M  V30 1384 H 136.667 3.33084 5.55841 0
M  V30 1385 N 130.073 -1.45103 0.615059 0
M  V30 1386 C 131.301 -2.06553 0.11977 0
M  V30 1387 C 131.716 -1.45842 -1.19898 0
M  V30 1388 O 131.073 -0.575325 -1.73194 0
M  V30 1389 C 131.124 -3.61495 -0.018364 0
M  V30 1390 O 130.845 -4.19942 1.24822 0
M  V30 1391 C 132.346 -4.39947 -0.544237 0
M  V30 1392 H 129.566 -0.667096 0.0722739 0
M  V30 1393 H 132.11 -1.8623 0.84491 0
M  V30 1394 H 130.265 -3.81135 -0.693865 0
M  V30 1395 H 130.679 -5.13204 1.0827 0
M  V30 1396 H 132.153 -5.48838 -0.589953 0
M  V30 1397 H 132.63 -4.10255 -1.56805 0
M  V30 1398 H 133.236 -4.25188 0.0974703 0
M  V30 1399 N 131.551 -0.354651 -1.53558 0
M  V30 1400 C 132.499 0.512195 -2.26891 0
M  V30 1401 C 133.493 1.09263 -1.29452 0
M  V30 1402 O 134.699 1.03709 -1.47121 0
M  V30 1403 H 131.074 0.183878 -0.729173 0
M  V30 1404 H 133.045 -0.128202 -2.98124 0
M  V30 1405 C 131.794 1.64563 -3.06291 0
M  V30 1406 H 131.117 1.20829 -3.81104 0
M  V30 1407 H 132.557 2.22711 -3.60799 0
M  V30 1408 C 131.016 2.58158 -2.16462 0
M  V30 1409 O 131.546 3.60695 -1.76811 0
M  V30 1410 N 129.752 2.27096 -1.81317 0
M  V30 1411 H 129.299 1.43751 -2.1376 0
M  V30 1412 H 129.257 2.89975 -1.21498 0
M  V30 1413 N 133.029 1.57378 -0.0835403 0
M  V30 1414 C 134.275 1.95025 0.577664 0
M  V30 1415 C 134.63 0.964049 1.66505 0
M  V30 1416 O 133.923 -0.0118235 1.91596 0
M  V30 1417 C 134.117 3.37063 1.1884 0
M  V30 1418 C 133.946 4.49409 0.16171 0
M  V30 1419 C 132.716 5.04642 -0.257756 0
M  V30 1420 C 134.914 5.10722 -0.605634 0
M  V30 1421 N 132.896 6.00537 -1.27393 0
M  V30 1422 C 134.267 6.02225 -1.47395 0
M  V30 1423 C 136.322 4.93501 -0.660418 0
M  V30 1424 C 135.025 6.78355 -2.39221 0
M  V30 1425 C 137.051 5.70283 -1.56623 0
M  V30 1426 C 136.413 6.61444 -2.4222 0
M  V30 1427 H 132.512 0.760512 0.182058 0
M  V30 1428 H 135.096 1.94013 -0.163419 0
M  V30 1429 H 133.267 3.3879 1.89936 0
M  V30 1430 H 134.999 3.61917 1.81103 0
M  V30 1431 H 131.754 4.73428 0.127702 0
M  V30 1432 H 132.178 6.53184 -1.77987 0
M  V30 1433 H 136.82 4.22798 -0.0128221 0
M  V30 1434 H 134.538 7.48327 -3.05011 0
M  V30 1435 H 138.124 5.58976 -1.61361 0
M  V30 1436 H 137.004 7.1982 -3.11174 0
M  V30 1437 N 134.507 -0.190092 1.56449 0
M  V30 1438 C 135.756 -0.907912 1.80111 0
M  V30 1439 C 136.069 -1.84214 0.657619 0
M  V30 1440 O 137.275 -2.60094 0.778663 0
M  V30 1441 C 135.731 -1.66485 3.19078 0
M  V30 1442 C 135.339 -0.7752 4.41242 0
M  V30 1443 C 137.083 -2.37201 3.52045 0
M  V30 1444 C 134.99 -1.53129 5.71231 0
M  V30 1445 H 133.92 -0.34276 0.671589 0
M  V30 1446 H 136.571 -0.161109 1.82791 0
M  V30 1447 H 134.953 -2.45572 3.10661 0
M  V30 1448 H 136.127 -0.0226298 4.60794 0
M  V30 1449 H 134.442 -0.178627 4.16017 0
M  V30 1450 H 137.039 -2.94329 4.46402 0
M  V30 1451 H 137.382 -3.11632 2.76028 0
M  V30 1452 H 137.915 -1.65075 3.61932 0
M  V30 1453 H 134.654 -0.82967 6.50228 0
M  V30 1454 H 134.174 -2.25767 5.55688 0
M  V30 1455 H 135.853 -2.08377 6.12526 0
M  V30 1456 N 135.985 -1.50799 -0.457987 0
M  V30 1457 C 137.21 -1.66496 -1.23668 0
M  V30 1458 C 137.635 -0.353288 -1.84752 0
M  V30 1459 O 136.993 0.684346 -1.67888 0
M  V30 1460 C 137.041 -2.76763 -2.3116 0
M  V30 1461 O 136.145 -2.38928 -3.36136 0
M  V30 1462 H 135.486 -0.555828 -0.363252 0
M  V30 1463 H 138.016 -1.9725 -0.543474 0
M  V30 1464 H 138.026 -3.00232 -2.76269 0
M  V30 1465 H 136.701 -3.71954 -1.86073 0
M  V30 1466 H 135.278 -2.25953 -2.96647 0
M  V30 1467 N 137.463 0.71206 -1.40597 0
M  V30 1468 C 138.879 1.02058 -1.22704 0
M  V30 1469 C 139.079 2.01228 -0.104729 0
M  V30 1470 O 138.135 2.4674 0.53624 0
M  V30 1471 C 139.448 1.56094 -2.57012 0
M  V30 1472 C 140.996 1.6806 -2.64054 0
M  V30 1473 C 141.471 2.25501 -3.9864 0
M  V30 1474 N 142.962 2.32882 -4.004 0
M  V30 1475 C 143.697 2.78317 -5.01325 0
M  V30 1476 N 143.193 3.23478 -6.12645 0
M  V30 1477 N 144.986 2.77733 -4.88693 0
M  V30 1478 H 137.137 0.0547896 -2.12329 0
M  V30 1479 H 139.4 0.0869027 -0.944008 0
M  V30 1480 H 139.106 0.906865 -3.39807 0
M  V30 1481 H 138.98 2.54564 -2.78347 0
M  V30 1482 H 141.367 2.32583 -1.81629 0
M  V30 1483 H 141.448 0.681802 -2.46546 0
M  V30 1484 H 141.092 1.61598 -4.81506 0
M  V30 1485 H 141.022 3.26102 -4.13479 0
M  V30 1486 H 143.513 2.00991 -3.20017 0
M  V30 1487 H 143.826 3.56725 -6.85542 0
M  V30 1488 H 142.171 3.21429 -6.16205 0
M  V30 1489 H 145.362 2.4179 -4.00818 0
M  V30 1490 H 145.535 3.12826 -5.67489 0
M  V30 1491 N 138.941 1.26152 0.944643 0
M  V30 1492 C 140.218 1.02247 1.66748 0
M  V30 1493 C 140.598 -0.448202 2.06287 0
M  V30 1494 O 139.946 -1.42779 1.78399 0
M  V30 1495 C 140.156 1.96788 2.88228 0
M  V30 1496 C 141.504 2.25201 3.59958 0
M  V30 1497 O 142.528 1.94626 2.98327 0
M  V30 1498 O 141.387 2.77242 4.70956 0
M  V30 1499 H 138.481 0.388517 0.730057 0
M  V30 1500 H 141.027 1.37348 0.99668 0
M  V30 1501 H 139.799 2.96047 2.55875 0
M  V30 1502 H 139.422 1.62145 3.63035 0
M  V30 1503 N 140.419 -1.14872 1.07899 0
M  V30 1504 C 141.382 -2.17986 0.708161 0
M  V30 1505 C 142.382 -1.58775 -0.25442 0
M  V30 1506 O 143.572 -1.74166 -0.034645 0
M  V30 1507 C 140.704 -3.40871 0.0446929 0
M  V30 1508 H 141.897 -2.52306 1.62116 0
M  V30 1509 H 139.45 -1.2943 0.876218 0
M  V30 1510 H 140.185 -3.12124 -0.880281 0
M  V30 1511 H 139.97 -3.8511 0.737091 0
M  V30 1512 H 141.46 -4.17121 -0.19991 0
M  V30 1513 N 141.898 -0.863906 -1.31812 0
M  V30 1514 C 142.861 -0.320212 -2.26952 0
M  V30 1515 C 143.861 0.525369 -1.51975 0
M  V30 1516 O 145.051 0.335547 -1.70938 0
M  V30 1517 C 142.183 0.545919 -3.365 0
M  V30 1518 H 143.376 -1.16004 -2.76556 0
M  V30 1519 H 140.929 -0.638995 -1.42641 0
M  V30 1520 H 141.664 1.40718 -2.92179 0
M  V30 1521 H 141.449 -0.0594674 -3.92055 0
M  V30 1522 H 142.939 0.918796 -4.07367 0
M  V30 1523 N 143.376 1.44774 -0.622745 0
M  V30 1524 C 144.308 2.28856 0.125485 0
M  V30 1525 C 145.321 1.40811 0.817069 0
M  V30 1526 O 146.51 1.65044 0.679918 0
M  V30 1527 C 143.61 3.16963 1.19949 0
M  V30 1528 C 142.783 4.33374 0.592064 0
M  V30 1529 C 141.842 5.02577 1.55893 0
M  V30 1530 O 140.868 5.58873 1.07933 0
M  V30 1531 N 142.07 5.03256 2.89334 0
M  V30 1532 H 144.835 2.93713 -0.596068 0
M  V30 1533 H 142.396 1.55129 -0.463303 0
M  V30 1534 H 144.388 3.60123 1.84644 0
M  V30 1535 H 142.958 2.53913 1.82337 0
M  V30 1536 H 142.178 3.93509 -0.233322 0
M  V30 1537 H 143.466 5.08527 0.166738 0
M  V30 1538 H 142.864 4.58836 3.30887 0
M  V30 1539 H 141.421 5.50232 3.49412 0
M  V30 1540 N 144.854 0.36279 1.53368 0
M  V30 1541 C 145.801 -0.485008 2.25646 0
M  V30 1542 C 146.771 -1.07982 1.2621 0
M  V30 1543 O 147.956 -1.11284 1.54986 0
M  V30 1544 C 145.096 -1.62023 3.04701 0
M  V30 1545 C 144.209 -1.05086 4.19024 0
M  V30 1546 C 143.344 -2.15496 4.85525 0
M  V30 1547 C 142.383 -1.5601 5.91884 0
M  V30 1548 N 141.52 -2.60241 6.52088 0
M  V30 1549 H 146.36 0.137864 2.97681 0
M  V30 1550 H 143.897 0.0798061 1.46883 0
M  V30 1551 H 145.855 -2.28887 3.48807 0
M  V30 1552 H 144.485 -2.2138 2.34927 0
M  V30 1553 H 143.537 -0.27259 3.79422 0
M  V30 1554 H 144.849 -0.575926 4.95464 0
M  V30 1555 H 144.003 -2.90186 5.32801 0
M  V30 1556 H 142.742 -2.66341 4.08551 0
M  V30 1557 H 141.747 -0.798338 5.43973 0
M  V30 1558 H 142.972 -1.05994 6.70777 0
M  V30 1559 H 140.918 -3.10304 5.77968 0
M  V30 1560 H 140.835 -2.17426 7.24059 0
M  V30 1561 H 142.103 -3.34641 7.04014 0
M  V30 1562 N 146.332 -1.57332 0.0918853 0
M  V30 1563 C 147.581 -1.93412 -0.572249 0
M  V30 1564 C 147.894 -0.975515 -1.69538 0
M  V30 1565 O 149.1 -1.22991 -2.42045 0
M  V30 1566 C 147.556 -3.43648 -1.0693 0
M  V30 1567 C 147.164 -4.47994 0.0239049 0
M  V30 1568 C 148.908 -3.88695 -1.70635 0
M  V30 1569 C 146.815 -5.89381 -0.488319 0
M  V30 1570 H 145.745 -0.721939 -0.217532 0
M  V30 1571 H 148.396 -1.82735 0.167369 0
M  V30 1572 H 146.778 -3.49466 -1.8625 0
M  V30 1573 H 147.952 -4.53815 0.799277 0
M  V30 1574 H 146.267 -4.12536 0.565946 0
M  V30 1575 H 148.864 -4.91725 -2.10025 0
M  V30 1576 H 149.207 -3.27166 -2.57426 0
M  V30 1577 H 149.74 -3.85564 -0.979023 0
M  V30 1578 H 146.479 -6.54602 0.342906 0
M  V30 1579 H 145.999 -5.87037 -1.23077 0
M  V30 1580 H 147.678 -6.39863 -0.958317 0
M  V30 1581 N 147.81 0.181792 -1.56548 0
M  V30 1582 C 149.04 0.914618 -1.85252 0
M  V30 1583 C 149.448 1.76791 -0.673914 0
M  V30 1584 O 148.791 1.80009 0.366416 0
M  V30 1585 C 148.853 1.85019 -3.08234 0
M  V30 1586 C 148.517 1.17754 -4.41569 0
M  V30 1587 C 149.514 0.548035 -5.17003 0
M  V30 1588 C 147.199 1.17742 -4.88305 0
M  V30 1589 C 149.193 -0.0726128 -6.37359 0
M  V30 1590 C 146.88 0.552946 -6.08593 0
M  V30 1591 C 147.878 -0.070978 -6.82963 0
M  V30 1592 O 147.566 -0.685635 -8.00971 0
M  V30 1593 H 147.298 0.271695 -0.618998 0
M  V30 1594 H 149.852 0.189944 -2.0452 0
M  V30 1595 H 148.082 2.61491 -2.84885 0
M  V30 1596 H 149.771 2.45195 -3.23472 0
M  V30 1597 H 150.537 0.540174 -4.81982 0
M  V30 1598 H 146.416 1.65246 -4.30366 0
M  V30 1599 H 149.96 -0.560213 -6.95347 0
M  V30 1600 H 145.857 0.558354 -6.43081 0
M  V30 1601 H 146.625 -0.58385 -8.16415 0
M  V30 1602 N 149.288 1.51039 0.449983 0
M  V30 1603 C 150.534 1.63322 1.20223 0
M  V30 1604 C 150.867 0.34241 1.91158 0
M  V30 1605 O 150.142 -0.657344 1.83055 0
M  V30 1606 C 150.425 2.82801 2.22925 0
M  V30 1607 C 150.278 4.21823 1.56157 0
M  V30 1608 C 151.597 2.97807 3.24035 0
M  V30 1609 H 148.716 0.594407 0.435718 0
M  V30 1610 H 151.358 1.83489 0.493136 0
M  V30 1611 H 149.508 2.65738 2.834 0
M  V30 1612 H 151.18 4.50526 0.991162 0
M  V30 1613 H 149.423 4.25105 0.864172 0
M  V30 1614 H 150.094 5.01391 2.30891 0
M  V30 1615 H 152.57 3.13497 2.73603 0
M  V30 1616 H 151.446 3.82992 3.93202 0
M  V30 1617 H 151.707 2.09328 3.89402 0
M  V30 1618 N 150.766 -0.704594 1.40972 0
M  V30 1619 C 151.676 -1.84856 1.44448 0
M  V30 1620 C 152.692 -1.70726 0.335961 0
M  V30 1621 O 153.868 -1.92799 0.582276 0
M  V30 1622 C 150.933 -3.20758 1.31587 0
M  V30 1623 C 149.994 -3.47063 2.52677 0
M  V30 1624 C 149.227 -4.76481 2.4042 0
M  V30 1625 O 149.45 -5.52341 1.42391 0
M  V30 1626 O 148.384 -5.03367 3.30007 0
M  V30 1627 H 152.21 -1.8488 2.40942 0
M  V30 1628 H 149.795 -0.85647 1.22413 0
M  V30 1629 H 151.677 -4.01913 1.26665 0
M  V30 1630 H 150.352 -3.21438 0.382049 0
M  V30 1631 H 149.259 -2.65873 2.63177 0
M  V30 1632 H 150.592 -3.5119 3.44858 0
M  V30 1633 N 152.244 -1.26651 -0.937939 0
M  V30 1634 C 153.177 -1.02811 -2.03728 0
M  V30 1635 C 154.155 0.0481915 -1.62529 0
M  V30 1636 O 155.339 -0.0948839 -1.88261 0
M  V30 1637 C 152.466 -0.557517 -3.3408 0
M  V30 1638 C 151.512 -1.62686 -3.94253 0
M  V30 1639 S 152.345 -3.21667 -4.28125 0
M  V30 1640 C 153.501 -2.76384 -5.61572 0
M  V30 1641 H 153.734 -1.95891 -2.23638 0
M  V30 1642 H 151.267 -1.10367 -1.07974 0
M  V30 1643 H 153.225 -0.292674 -4.09455 0
M  V30 1644 H 151.886 0.353062 -3.12109 0
M  V30 1645 H 151.079 -1.24866 -4.88287 0
M  V30 1646 H 150.681 -1.84324 -3.25424 0
M  V30 1647 H 152.973 -2.2105 -6.40424 0
M  V30 1648 H 153.916 -3.69123 -6.0428 0
M  V30 1649 H 154.324 -2.15847 -5.21604 0
M  V30 1650 N 153.722 1.14298 -1.08507 0
M  V30 1651 C 154.669 2.19414 -0.715965 0
M  V30 1652 C 155.639 1.63399 0.298326 0
M  V30 1653 O 156.824 1.89929 0.182101 0
M  V30 1654 C 153.964 3.44845 -0.132534 0
M  V30 1655 C 153.077 4.15007 -1.19973 0
M  V30 1656 C 152.212 5.28024 -0.580048 0
M  V30 1657 C 151.251 5.9002 -1.62921 0
M  V30 1658 N 150.388 6.94485 -1.03125 0
M  V30 1659 H 155.228 2.50336 -1.61666 0
M  V30 1660 H 152.765 1.2293 -0.807882 0
M  V30 1661 H 154.723 4.16601 0.223454 0
M  V30 1662 H 153.353 3.14403 0.731467 0
M  V30 1663 H 152.405 3.41629 -1.67313 0
M  V30 1664 H 153.717 4.57178 -1.99473 0
M  V30 1665 H 152.871 6.06455 -0.172364 0
M  V30 1666 H 151.61 4.87076 0.246603 0
M  V30 1667 H 150.615 5.10291 -2.04654 0
M  V30 1668 H 151.84 6.33042 -2.45835 0
M  V30 1669 H 149.786 6.55612 -0.225711 0
M  V30 1670 H 149.703 7.35148 -1.76334 0
M  V30 1671 H 150.971 7.7679 -0.649458 0
M  V30 1672 N 155.201 0.870884 1.31352 0
M  V30 1673 C 156.448 0.482273 1.96673 0
M  V30 1674 C 156.776 -0.965638 1.68836 0
M  V30 1675 O 156.031 -1.69514 0.977937 0
M  V30 1676 C 156.33 0.687157 3.50732 0
M  V30 1677 C 155.996 2.108 3.9859 0
M  V30 1678 C 154.658 2.49656 4.1137 0
M  V30 1679 C 157.01 3.03459 4.23748 0
M  V30 1680 C 154.338 3.80412 4.46659 0
M  V30 1681 C 156.69 4.3373 4.60501 0
M  V30 1682 C 155.354 4.725 4.71487 0
M  V30 1683 H 154.624 0.176476 0.719679 0
M  V30 1684 H 157.271 1.10405 1.56471 0
M  V30 1685 H 155.576 -0.0177476 3.91796 0
M  V30 1686 H 157.273 0.366284 3.99324 0
M  V30 1687 H 153.863 1.79633 3.8914 0
M  V30 1688 H 158.047 2.74665 4.13368 0
M  V30 1689 H 153.303 4.1021 4.53362 0
M  V30 1690 H 157.477 5.05578 4.78919 0
M  V30 1691 H 155.104 5.73859 4.98588 0
M  V30 1692 N 156.679 -1.44442 0.630414 0
M  V30 1693 C 157.907 -2.06414 0.141671 0
M  V30 1694 C 158.322 -1.47105 -1.18345 0
M  V30 1695 O 157.679 -0.593662 -1.72574 0
M  V30 1696 C 157.73 -3.61494 0.0199784 0
M  V30 1697 O 157.451 -4.18594 1.29269 0
M  V30 1698 C 158.952 -4.40499 -0.497544 0
M  V30 1699 H 156.172 -0.666292 0.0793452 0
M  V30 1700 H 158.716 -1.85323 0.864614 0
M  V30 1701 H 156.871 -3.8185 -0.653402 0
M  V30 1702 H 157.285 -5.12026 1.13707 0
M  V30 1703 H 158.759 -5.49433 -0.531708 0
M  V30 1704 H 159.236 -4.11895 -1.52445 0
M  V30 1705 H 159.842 -4.25061 0.142562 0
M  V30 1706 N 158.157 -0.370918 -1.53173 0
M  V30 1707 C 159.087 0.464847 -2.28826 0
M  V30 1708 C 160.068 1.07936 -1.31468 0
M  V30 1709 O 161.253 1.0956 -1.60344 0
M  V30 1710 C 158.383 1.60196 -3.08147 0
M  V30 1711 C 157.337 1.11443 -4.13237 0
M  V30 1712 C 156.663 2.3422 -4.80672 0
M  V30 1713 C 157.963 0.195384 -5.21934 0
M  V30 1714 H 159.657 -0.166329 -2.98938 0
M  V30 1715 H 157.203 -0.0814359 -1.4377 0
M  V30 1716 H 159.156 2.19332 -3.59822 0
M  V30 1717 H 157.88 2.26045 -2.35735 0
M  V30 1718 H 156.539 0.545727 -3.62515 0
M  V30 1719 H 156.187 2.98537 -4.04827 0
M  V30 1720 H 155.887 2.02269 -5.51689 0
M  V30 1721 H 157.411 2.94032 -5.35143 0
M  V30 1722 H 158.825 0.694375 -5.69079 0
M  V30 1723 H 157.222 -0.0335027 -6.00091 0
M  V30 1724 H 158.292 -0.760961 -4.78892 0
M  V30 1725 N 159.635 1.57281 -0.100228 0
M  V30 1726 C 161.051 1.57527 0.256416 0
M  V30 1727 C 161.251 1.11173 1.68056 0
M  V30 1728 O 160.307 0.79053 2.39806 0
M  V30 1729 C 161.62 3.00673 0.0401747 0
M  V30 1730 C 163.168 3.12815 0.107528 0
M  V30 1731 C 163.643 4.57929 -0.0807834 0
M  V30 1732 N 165.134 4.63193 -0.0261207 0
M  V30 1733 C 165.869 5.73212 -0.146999 0
M  V30 1734 N 165.365 6.92047 -0.322999 0
M  V30 1735 N 167.158 5.62031 -0.0879044 0
M  V30 1736 H 159.309 1.85718 -1.03065 0
M  V30 1737 H 161.572 0.857446 -0.404339 0
M  V30 1738 H 161.278 3.38804 -0.943649 0
M  V30 1739 H 161.152 3.69042 0.780262 0
M  V30 1740 H 163.539 2.74554 1.08186 0
M  V30 1741 H 163.62 2.47028 -0.664134 0
M  V30 1742 H 163.264 4.96886 -1.05201 0
M  V30 1743 H 163.194 5.21783 0.710635 0
M  V30 1744 H 165.685 3.77748 0.107161 0
M  V30 1745 H 165.998 7.7173 -0.406608 0
M  V30 1746 H 164.343 6.94074 -0.358733 0
M  V30 1747 H 167.534 4.68075 0.048498 0
M  V30 1748 H 167.707 6.47734 -0.185557 0
M  V30 1749 N 161.113 -0.173488 1.56642 0
M  V30 1750 C 162.39 -0.917617 1.7274 0
M  V30 1751 C 162.77 -2.00484 0.661027 0
M  V30 1752 O 162.118 -2.26184 -0.32453 0
M  V30 1753 C 162.328 -1.48433 3.15862 0
M  V30 1754 C 163.676 -1.95809 3.76754 0
M  V30 1755 O 164.7 -1.58231 3.19126 0
M  V30 1756 O 163.559 -2.65024 4.77938 0
M  V30 1757 H 160.653 -0.431772 0.705338 0
M  V30 1758 H 163.199 -0.161487 1.6893 0
M  V30 1759 H 161.971 -0.701715 3.84957 0
M  V30 1760 H 161.594 -2.30471 3.23989 0
M  V30 1761 N 162.591 -1.51276 -0.441967 0
M  V30 1762 C 163.831 -1.65372 -1.20132 0
M  V30 1763 C 164.195 -0.359871 -1.88597 0
M  V30 1764 O 165.396 -0.376551 -2.66149 0
M  V30 1765 C 163.667 -2.8207 -2.1948 0
M  V30 1766 S 165.226 -3.16467 -3.03964 0
M  V30 1767 H 162.044 -0.582669 -0.407453 0
M  V30 1768 H 164.646 -1.89166 -0.493609 0
M  V30 1769 H 163.35 -3.74523 -1.67812 0
M  V30 1770 H 162.881 -2.6045 -2.94838 0
M  V30 1771 H 164.896 -2.62543 -4.21053 0
M  V30 1772 N 164.069 0.697108 -1.41344 0
M  V30 1773 C 165.017 1.83237 -1.43272 0
M  V30 1774 C 166.011 1.66522 -0.310947 0
M  V30 1775 O 167.217 1.73402 -0.482899 0
M  V30 1776 H 163.592 0.603802 -0.448249 0
M  V30 1777 H 165.563 1.78727 -2.38954 0
M  V30 1778 C 164.312 3.21245 -1.33029 0
M  V30 1779 H 163.635 3.34723 -2.18633 0
M  V30 1780 H 165.075 4.00763 -1.38439 0
M  V30 1781 C 163.534 3.36873 -0.0424635 0
M  V30 1782 O 164.064 3.91177 0.913421 0
M  V30 1783 N 162.27 2.90581 0.0331145 0
M  V30 1784 H 161.817 2.46577 -0.745506 0
M  V30 1785 H 161.775 3.01416 0.894199 0
M  V30 1786 N 165.547 1.27147 0.931209 0
M  V30 1787 C 166.772 1.16191 1.71797 0
M  V30 1788 C 167.197 -0.278004 1.86034 0
M  V30 1789 O 166.555 -1.20137 1.35782 0
M  V30 1790 C 166.603 1.84673 3.09723 0
M  V30 1791 O 165.707 1.14231 3.96264 0
M  V30 1792 H 165.048 0.404303 0.526721 0
M  V30 1793 H 167.578 1.68152 1.1656 0
M  V30 1794 H 167.588 1.91893 3.60057 0
M  V30 1795 H 166.263 2.89421 2.98677 0
M  V30 1796 H 164.84 1.15056 3.54706 0
M  V30 1797 N 167.025 -1.13721 1.09112 0
M  V30 1798 C 168.274 -1.84275 0.82009 0
M  V30 1799 C 168.587 -1.84253 -0.656509 0
M  V30 1800 O 169.793 -2.50668 -1.04296 0
M  V30 1801 C 168.249 -3.30825 1.41714 0
M  V30 1802 C 167.857 -3.39244 2.92605 0
M  V30 1803 C 169.601 -4.06443 1.22492 0
M  V30 1804 C 167.508 -4.80047 3.45411 0
M  V30 1805 H 166.438 -0.690387 0.30312 0
M  V30 1806 H 169.089 -1.28146 1.31343 0
M  V30 1807 H 167.471 -3.86737 0.851498 0
M  V30 1808 H 168.645 -2.93344 3.55367 0
M  V30 1809 H 166.96 -2.77088 3.10823 0
M  V30 1810 H 169.557 -5.10387 1.59402 0
M  V30 1811 H 169.9 -4.15972 0.165299 0
M  V30 1812 H 170.433 -3.56852 1.75788 0
M  V30 1813 H 167.172 -4.75709 4.50978 0
M  V30 1814 H 166.692 -5.26455 2.87411 0
M  V30 1815 H 168.371 -5.48957 3.42425 0
M  V30 1816 N 168.503 -0.877838 -1.30888 0
M  V30 1817 C 169.914 -0.544193 -1.78593 0
M  V30 1818 C 170.265 0.939301 -1.72254 0
M  V30 1819 O 169.39 1.7337 -1.29505 0
M  V30 1820 C 169.985 -0.98105 -3.24285 0
M  V30 1821 C 168.544 -0.698935 -3.69854 0
M  V30 1822 C 167.691 -1.168 -2.51502 0
M  V30 1823 H 170.642 -1.06278 -1.17859 0
M  V30 1824 H 170.663 -0.307009 -3.79259 0
M  V30 1825 H 170.175 -2.06079 -3.28866 0
M  V30 1826 H 168.276 0.369112 -3.70767 0
M  V30 1827 H 168.389 -1.28148 -4.61644 0
M  V30 1828 H 166.753 -0.587535 -2.47831 0
M  V30 1829 H 167.536 -2.25533 -2.58824 0
M  V30 1830 N 169.982 1.44106 -0.638065 0
M  V30 1831 C 171.228 2.02815 -0.15409 0
M  V30 1832 C 171.583 1.49342 1.21304 0
M  V30 1833 O 170.876 0.670699 1.79478 0
M  V30 1834 C 171.07 3.5729 -0.0887327 0
M  V30 1835 C 170.899 4.2575 -1.44799 0
M  V30 1836 C 169.669 4.62443 -2.03653 0
M  V30 1837 C 171.867 4.55746 -2.38327 0
M  V30 1838 N 169.849 5.15903 -3.32741 0
M  V30 1839 C 171.22 5.10364 -3.52036 0
M  V30 1840 C 173.275 4.37703 -2.3732 0
M  V30 1841 C 171.978 5.48837 -4.64941 0
M  V30 1842 C 174.004 4.77229 -3.49294 0
M  V30 1843 C 173.366 5.31966 -4.61726 0
M  V30 1844 H 169.465 0.775519 -0.100466 0
M  V30 1845 H 172.049 1.755 -0.843071 0
M  V30 1846 H 170.22 3.84201 0.569548 0
M  V30 1847 H 171.952 4.02671 0.404711 0
M  V30 1848 H 168.707 4.46987 -1.56523 0
M  V30 1849 H 169.131 5.47102 -3.98758 0
M  V30 1850 H 173.773 3.94671 -1.51641 0
M  V30 1851 H 171.491 5.9082 -5.51323 0
M  V30 1852 H 175.077 4.64976 -3.49698 0
M  V30 1853 H 173.957 5.61986 -5.46939 0
M  V30 1854 N 171.46 0.379036 1.52974 0
M  V30 1855 C 172.706 -0.206727 2.01744 0
M  V30 1856 C 173.039 -1.47314 1.26539 0
M  V30 1857 O 172.314 -1.91084 0.362903 0
M  V30 1858 C 172.597 -0.485066 3.56818 0
M  V30 1859 C 172.45 0.795919 4.42702 0
M  V30 1860 C 173.769 -1.28003 4.21074 0
M  V30 1861 H 170.888 -0.0736607 0.73331 0
M  V30 1862 H 173.53 0.506581 1.83122 0
M  V30 1863 H 171.68 -1.09272 3.72816 0
M  V30 1864 H 173.352 1.43307 4.38476 0
M  V30 1865 H 171.595 1.41344 4.10127 0
M  V30 1866 H 172.266 0.555947 5.49193 0
M  V30 1867 H 174.742 -0.765867 4.08991 0
M  V30 1868 H 173.618 -1.44352 5.29579 0
M  V30 1869 H 173.879 -2.29236 3.78026 0
M  V30 1870 N 172.938 -1.57226 0.108567 0
M  V30 1871 C 173.868 -2.17778 -0.84232 0
M  V30 1872 C 174.849 -1.11487 -1.2847 0
M  V30 1873 O 176.034 -1.39681 -1.34918 0
M  V30 1874 C 173.164 -2.76888 -2.09644 0
M  V30 1875 C 172.118 -3.88669 -1.79221 0
M  V30 1876 C 171.444 -4.34541 -3.11574 0
M  V30 1877 C 172.744 -5.11251 -1.06864 0
M  V30 1878 H 174.438 -2.97489 -0.337774 0
M  V30 1879 H 171.984 -1.43097 -0.161025 0
M  V30 1880 H 173.937 -3.17904 -2.76614 0
M  V30 1881 H 172.661 -1.94451 -2.62405 0
M  V30 1882 H 171.32 -3.48213 -1.14644 0
M  V30 1883 H 170.968 -3.48977 -3.62249 0
M  V30 1884 H 170.668 -5.09914 -2.91996 0
M  V30 1885 H 172.192 -4.782 -3.7968 0
M  V30 1886 H 173.606 -5.49352 -1.63968 0
M  V30 1887 H 172.003 -5.9214 -0.974178 0
M  V30 1888 H 173.073 -4.8487 -0.0536168 0
M  V30 1889 N 174.416 0.165178 -1.56732 0
M  V30 1890 C 175.664 0.879068 -1.8198 0
M  V30 1891 C 175.985 1.82514 -0.686561 0
M  V30 1892 O 175.255 1.93694 0.293146 0
M  V30 1893 H 173.835 0.327608 -0.671329 0
M  V30 1894 H 176.497 0.163526 -1.94213 0
M  V30 1895 H 175.593 1.45228 -2.76252 0
M  V30 1896 N 175.894 1.51508 0.433938 0
M  V30 1897 C 177.122 1.68157 1.20543 0
M  V30 1898 C 177.537 0.380362 1.84929 0
M  V30 1899 O 176.894 -0.641446 1.70856 0
M  V30 1900 C 176.945 2.79965 2.28696 0
M  V30 1901 O 176.666 4.05045 1.66943 0
M  V30 1902 C 178.167 3.07912 3.18912 0
M  V30 1903 H 175.387 0.56421 0.363191 0
M  V30 1904 H 177.931 1.97941 0.513754 0
M  V30 1905 H 176.086 2.5277 2.93574 0
M  V30 1906 H 176.5 4.67165 2.38448 0
M  V30 1907 H 177.974 3.89719 3.90926 0
M  V30 1908 H 178.451 2.20456 3.79863 0
M  V30 1909 H 179.057 3.36779 2.59731 0
M  V30 1910 N 177.372 -0.689602 1.41712 0
M  V30 1911 C 178.612 -1.46184 1.42862 0
M  V30 1912 C 178.976 -1.91962 0.0382204 0
M  V30 1913 O 180.177 -2.68694 -0.0755019 0
M  V30 1914 C 178.448 -2.6371 2.4123 0
M  V30 1915 S 180.007 -3.52768 2.6096 0
M  V30 1916 H 176.825 -0.49947 0.506015 0
M  V30 1917 H 179.427 -0.804107 1.78198 0
M  V30 1918 H 178.131 -2.28293 3.41044 0
M  V30 1919 H 177.662 -3.3437 2.07269 0
M  V30 1920 H 179.677 -4.59146 1.88148 0
M  V30 1921 N 178.85 -1.27639 -0.924453 0
M  V30 1922 C 179.797 -1.10644 -2.0255 0
M  V30 1923 C 180.767 -0.00658438 -1.66099 0
M  V30 1924 O 181.952 -0.16952 -1.90045 0
M  V30 1925 C 179.092 -0.76309 -3.36557 0
M  V30 1926 C 178.205 -1.94091 -3.85944 0
M  V30 1927 C 177.34 -1.53914 -5.08413 0
M  V30 1928 C 176.379 -2.68425 -5.50104 0
M  V30 1929 N 175.516 -2.28815 -6.63768 0
M  V30 1930 H 180.356 -2.04858 -2.16419 0
M  V30 1931 H 177.893 -1.01974 -1.06017 0
M  V30 1932 H 179.851 -0.544822 -4.13627 0
M  V30 1933 H 178.481 0.142102 -3.22487 0
M  V30 1934 H 177.533 -2.27162 -3.05125 0
M  V30 1935 H 178.845 -2.7998 -4.12811 0
M  V30 1936 H 177.999 -1.28231 -5.92994 0
M  V30 1937 H 176.738 -0.651391 -4.8333 0
M  V30 1938 H 175.743 -2.94819 -4.64071 0
M  V30 1939 H 176.968 -3.57826 -5.7718 0
M  V30 1940 H 174.914 -1.42495 -6.40337 0
M  V30 1941 H 174.831 -3.08242 -6.90306 0
M  V30 1942 H 176.099 -2.06387 -7.51681 0
M  V30 1943 N 180.328 1.1314 -1.09713 0
M  V30 1944 C 181.238 2.22242 -0.751367 0
M  V30 1945 C 182.254 1.72224 0.247938 0
M  V30 1946 O 183.43 2.01205 0.0885463 0
M  V30 1947 C 180.495 3.46231 -0.180274 0
M  V30 1948 C 179.556 4.11125 -1.2359 0
M  V30 1949 C 178.789 5.29195 -0.691966 0
M  V30 1950 O 179.012 5.68342 0.48414 0
M  V30 1951 O 177.946 5.84214 -1.44838 0
M  V30 1952 H 181.772 2.54197 -1.66186 0
M  V30 1953 H 179.357 1.21331 -0.871735 0
M  V30 1954 H 181.239 4.21185 0.134739 0
M  V30 1955 H 179.914 3.1597 0.703185 0
M  V30 1956 H 178.821 3.37985 -1.60366 0
M  V30 1957 H 180.154 4.45524 -2.09211 0
M  V30 1958 N 181.806 0.884767 1.30421 0
M  V30 1959 C 183.034 0.518044 2.0031 0
M  V30 1960 C 183.449 -0.893408 1.66324 0
M  V30 1961 O 182.806 -1.5875 0.900262 0
M  V30 1962 C 182.857 0.682997 3.54989 0
M  V30 1963 O 182.578 2.03888 3.87764 0
M  V30 1964 C 184.079 0.31924 4.42149 0
M  V30 1965 H 181.299 0.200265 0.640418 0
M  V30 1966 H 183.843 1.19001 1.6631 0
M  V30 1967 H 181.998 0.0584052 3.87356 0
M  V30 1968 H 182.412 2.05735 4.82466 0
M  V30 1969 H 183.886 0.485555 5.4986 0
M  V30 1970 H 184.363 -0.742717 4.32875 0
M  V30 1971 H 184.969 0.920147 4.15227 0
M  V30 1972 N 183.284 -1.43765 0.645699 0
M  V30 1973 C 184.531 -2.01898 0.15604 0
M  V30 1974 C 184.859 -1.50887 -1.22733 0
M  V30 1975 O 184.114 -0.689271 -1.8316 0
M  V30 1976 C 184.413 -3.57238 0.107679 0
M  V30 1977 C 184.079 -4.27564 1.43178 0
M  V30 1978 C 182.741 -4.46492 1.7944 0
M  V30 1979 C 185.093 -4.67454 2.30513 0
M  V30 1980 C 182.421 -5.02573 3.02716 0
M  V30 1981 C 184.773 -5.24901 3.53074 0
M  V30 1982 C 183.437 -5.42046 3.89541 0
M  V30 1983 H 182.707 -0.738797 0.057099 0
M  V30 1984 H 185.354 -1.72341 0.834912 0
M  V30 1985 H 183.659 -3.86293 -0.654618 0
M  V30 1986 H 185.356 -3.99965 -0.287938 0
M  V30 1987 H 181.946 -4.13171 1.13963 0
M  V30 1988 H 186.13 -4.5253 2.0379 0
M  V30 1989 H 181.386 -5.14033 3.31028 0
M  V30 1990 H 185.56 -5.54758 4.20971 0
M  V30 1991 H 183.187 -5.85268 4.85145 0
M  V30 1992 N 184.763 -0.387143 -1.52771 0
M  V30 1993 C 185.711 0.463953 -2.27926 0
M  V30 1994 C 186.705 1.06493 -1.31741 0
M  V30 1995 O 187.911 1.00565 -1.49287 0
M  V30 1996 H 184.286 0.16837 -0.732909 0
M  V30 1997 H 186.257 -0.19141 -2.97785 0
M  V30 1998 C 185.006 1.5803 -3.09713 0
M  V30 1999 H 184.329 1.12718 -3.83581 0
M  V30 2000 H 185.769 2.15008 -3.65442 0
M  V30 2001 C 184.228 2.53509 -2.2189 0
M  V30 2002 O 184.758 3.56863 -1.84422 0
M  V30 2003 N 182.964 2.23199 -1.86093 0
M  V30 2004 H 182.511 1.39185 -2.16761 0
M  V30 2005 H 182.469 2.87333 -1.27621 0
M  V30 2006 N 186.241 1.57166 -0.116904 0
M  V30 2007 C 187.171 2.18222 0.830759 0
M  V30 2008 C 188.152 1.12167 1.27877 0
M  V30 2009 O 189.337 1.40394 1.34176 0
M  V30 2010 C 186.467 2.77996 2.08172 0
M  V30 2011 C 185.421 3.89614 1.77157 0
M  V30 2012 C 184.747 4.36187 3.09265 0
M  V30 2013 C 186.047 5.1181 1.04151 0
M  V30 2014 H 187.741 2.97664 0.321992 0
M  V30 2015 H 185.287 1.4318 0.153434 0
M  V30 2016 H 187.24 3.19366 2.74924 0
M  V30 2017 H 185.964 1.9584 2.6137 0
M  V30 2018 H 184.623 3.48816 1.12796 0
M  V30 2019 H 184.271 3.50893 3.60393 0
M  V30 2020 H 183.971 5.11455 2.89288 0
M  V30 2021 H 185.495 4.80207 3.77139 0
M  V30 2022 H 186.909 5.50214 1.61052 0
M  V30 2023 H 185.306 5.92648 0.942762 0
M  V30 2024 H 186.376 4.84892 0.0279022 0
M  V30 2025 N 187.719 -0.156864 1.56817 0
M  V30 2026 C 188.966 -0.871125 1.82805 0
M  V30 2027 C 189.294 -1.81611 0.696262 0
M  V30 2028 O 188.549 -1.93141 -0.315459 0
M  V30 2029 C 188.848 -1.68737 3.1506 0
M  V30 2030 C 188.514 -0.890045 4.42028 0
M  V30 2031 C 187.176 -0.670042 4.76512 0
M  V30 2032 C 189.528 -0.331769 5.20143 0
M  V30 2033 C 186.856 0.119104 5.86579 0
M  V30 2034 C 189.208 0.444365 6.31037 0
M  V30 2035 C 187.872 0.675035 6.64078 0
M  V30 2036 H 187.142 -0.318767 0.668931 0
M  V30 2037 H 189.789 -0.135274 1.91022 0
M  V30 2038 H 188.094 -2.49304 3.0225 0
M  V30 2039 H 189.791 -2.24331 3.3238 0
M  V30 2040 H 186.381 -1.07157 4.14988 0
M  V30 2041 H 190.565 -0.489043 4.93885 0
M  V30 2042 H 185.821 0.307417 6.10627 0
M  V30 2043 H 189.995 0.884139 6.90765 0
M  V30 2044 H 187.622 1.28839 7.49203 0
M  V30 2045 N 189.197 -1.51736 -0.425897 0
M  V30 2046 C 190.427 -1.68549 -1.19476 0
M  V30 2047 C 190.835 -0.387288 -1.85194 0
M  V30 2048 O 190.178 0.645142 -1.71999 0
M  V30 2049 C 190.24 -2.75275 -2.31223 0
M  V30 2050 C 189.904 -4.17534 -1.8578 0
M  V30 2051 C 190.901 -5.01936 -1.35485 0
M  V30 2052 C 188.586 -4.6369 -1.93123 0
M  V30 2053 C 190.58 -6.30559 -0.931347 0
M  V30 2054 C 188.267 -5.92307 -1.50384 0
M  V30 2055 C 189.265 -6.75569 -1.00473 0
M  V30 2056 O 188.953 -8.0178 -0.583452 0
M  V30 2057 H 188.685 -0.568525 -0.365725 0
M  V30 2058 H 191.239 -1.98982 -0.509444 0
M  V30 2059 H 189.469 -2.40182 -3.03067 0
M  V30 2060 H 191.158 -2.80853 -2.93047 0
M  V30 2061 H 191.924 -4.67475 -1.29197 0
M  V30 2062 H 187.803 -3.98997 -2.30916 0
M  V30 2063 H 191.347 -6.95498 -0.541084 0
M  V30 2064 H 187.244 -6.2628 -1.56346 0
M  V30 2065 H 188.012 -8.1543 -0.708275 0
M  V30 2066 N 190.675 0.682077 -1.42076 0
M  V30 2067 C 191.608 1.80666 -1.3941 0
M  V30 2068 C 192.586 1.60518 -0.25939 0
M  V30 2069 O 193.77 1.83088 -0.448456 0
M  V30 2070 C 190.897 3.17556 -1.17796 0
M  V30 2071 C 189.943 3.56468 -2.34164 0
M  V30 2072 S 190.776 3.59729 -3.96681 0
M  V30 2073 C 191.932 4.99323 -3.77395 0
M  V30 2074 H 192.165 1.82652 -2.34575 0
M  V30 2075 H 189.698 0.852062 -1.2876 0
M  V30 2076 H 191.656 3.96575 -1.06012 0
M  V30 2077 H 190.317 3.13164 -0.242279 0
M  V30 2078 H 189.51 4.5595 -2.1477 0
M  V30 2079 H 189.112 2.84792 -2.42425 0
M  V30 2080 H 191.404 5.87202 -3.37935 0
M  V30 2081 H 192.347 5.23763 -4.76527 0
M  V30 2082 H 192.755 4.71498 -3.10403 0
M  V30 2083 N 192.153 1.28127 0.917671 0
M  V30 2084 C 193.063 1.13556 2.05286 0
M  V30 2085 C 194.079 0.0630914 1.73886 0
M  V30 2086 O 195.255 0.271598 1.9956 0
M  V30 2087 C 192.32 0.794676 3.3747 0
M  V30 2088 C 191.381 1.94909 3.82504 0
M  V30 2089 C 190.614 1.62437 5.0838 0
M  V30 2090 O 190.837 0.536905 5.67867 0
M  V30 2091 O 189.771 2.46677 5.4903 0
M  V30 2092 H 193.597 2.08844 2.20495 0
M  V30 2093 H 191.182 1.07409 1.03845 0
M  V30 2094 H 193.064 0.618344 4.16839 0
M  V30 2095 H 191.739 -0.128581 3.23445 0
M  V30 2096 H 190.646 2.18055 3.03978 0
M  V30 2097 H 191.979 2.85291 4.01086 0
M  V30 2098 N 193.631 -1.12557 1.10312 0
M  V30 2099 C 194.856 -1.88405 0.867085 0
M  V30 2100 C 195.281 -1.79038 -0.576817 0
M  V30 2101 O 194.639 -1.14439 -1.40618 0
M  V30 2102 C 194.687 -3.3563 1.31851 0
M  V30 2103 O 193.791 -4.09565 0.482734 0
M  V30 2104 H 193.132 -0.585455 0.313271 0
M  V30 2105 H 195.662 -1.42352 1.4696 0
M  V30 2106 H 195.672 -3.86469 1.3079 0
M  V30 2107 H 194.347 -3.41765 2.37001 0
M  V30 2108 H 192.924 -3.68695 0.558448 0
M  V30 2109 N 195.109 -0.891671 -1.2995 0
M  V30 2110 C 196.386 -0.433307 -1.9074 0
M  V30 2111 C 196.766 1.08646 -1.80995 0
M  V30 2112 O 196.114 1.92476 -1.23147 0
M  V30 2113 C 196.324 -0.938895 -3.36134 0
M  V30 2114 C 197.672 -0.977829 -4.13187 0
M  V30 2115 O 198.696 -0.886015 -3.45005 0
M  V30 2116 O 197.555 -1.11453 -5.35015 0
M  V30 2117 H 194.649 -0.133699 -0.816121 0
M  V30 2118 H 197.195 -0.981011 -1.38471 0
M  V30 2119 H 195.967 -1.98281 -3.37343 0
M  V30 2120 H 195.59 -0.37074 -3.95868 0
M  V30 2121 N 196.587 1.43421 -0.653314 0
M  V30 2122 C 197.497 2.34568 0.0388565 0
M  V30 2123 C 198.513 1.53888 0.81207 0
M  V30 2124 O 199.689 1.86539 0.759294 0
M  V30 2125 C 196.754 3.32167 0.993269 0
M  V30 2126 C 195.815 4.28751 0.216977 0
M  V30 2127 C 195.048 5.21688 1.12593 0
M  V30 2128 O 195.271 5.19052 2.36519 0
M  V30 2129 O 194.205 5.98919 0.598284 0
M  V30 2130 H 198.031 2.95251 -0.711386 0
M  V30 2131 H 195.616 1.43564 -0.413502 0
M  V30 2132 H 197.498 3.92183 1.54176 0
M  V30 2133 H 196.173 2.73987 1.72374 0
M  V30 2134 H 195.08 3.72215 -0.375101 0
M  V30 2135 H 196.413 4.89913 -0.473924 0
M  V30 2136 N 198.065 0.39524 1.52563 0
M  V30 2137 C 199.29 -0.187456 2.06551 0
M  V30 2138 C 199.715 -1.39249 1.26457 0
M  V30 2139 O 199.073 -1.78947 0.291151 0
M  V30 2140 C 199.121 -0.529985 3.56684 0
M  V30 2141 O 198.225 -1.62307 3.79118 0
M  V30 2142 H 197.566 -0.0202537 0.663691 0
M  V30 2143 H 200.096 0.564426 1.96661 0
M  V30 2144 H 200.106 -0.792598 4.00227 0
M  V30 2145 H 198.781 0.350987 4.14416 0
M  V30 2146 H 197.358 -1.3537 3.47461 0
M  V30 2147 N 199.544 -1.57102 0.125237 0
M  V30 2148 C 200.494 -2.12202 -0.833936 0
M  V30 2149 C 201.478 -1.04433 -1.22403 0
M  V30 2150 O 202.67 -1.30655 -1.19408 0
M  V30 2151 C 199.799 -2.72994 -2.08157 0
M  V30 2152 C 198.885 -3.87852 -1.71556 0
M  V30 2153 N 199.276 -4.9464 -1.05662 0
M  V30 2154 C 197.574 -3.98153 -2.00973 0
M  V30 2155 C 198.275 -5.74953 -0.883376 0
M  V30 2156 N 197.251 -5.24985 -1.41036 0
M  V30 2157 H 201.053 -2.92141 -0.321035 0
M  V30 2158 H 198.567 -1.62217 -0.0770315 0
M  V30 2159 H 200.564 -3.10816 -2.77847 0
M  V30 2160 H 199.224 -1.9452 -2.59985 0
M  V30 2161 H 200.235 -5.12872 -0.719878 0
M  V30 2162 H 196.912 -3.30728 -2.54804 0
M  V30 2163 H 198.302 -6.70904 -0.365675 0
M  V30 2164 N 201.022 0.148545 -1.56898 0
M  V30 2165 C 202.27 0.859717 -1.82902 0
M  V30 2166 C 202.591 1.81775 -0.70588 0
M  V30 2167 O 201.861 1.93994 0.272586 0
M  V30 2168 H 200.441 0.320469 -0.674766 0
M  V30 2169 H 203.103 0.142918 -1.94375 0
M  V30 2170 H 202.199 1.4229 -2.77777 0
M  V30 2171 N 202.5 1.5196 0.417844 0
M  V30 2172 C 203.749 1.6482 1.16264 0
M  V30 2173 C 204.062 0.379886 1.91876 0
M  V30 2174 O 205.268 0.388154 2.68711 0
M  V30 2175 C 203.724 2.91161 2.1155 0
M  V30 2176 C 203.332 4.25068 1.41495 0
M  V30 2177 C 205.076 3.13383 2.86341 0
M  V30 2178 C 202.983 5.42541 2.35379 0
M  V30 2179 H 201.913 0.613954 0.437694 0
M  V30 2180 H 204.564 1.78442 0.427871 0
M  V30 2181 H 202.946 2.71218 2.88543 0
M  V30 2182 H 204.12 4.55463 0.699263 0
M  V30 2183 H 202.435 4.0888 0.787792 0
M  V30 2184 H 205.032 3.98324 3.5671 0
M  V30 2185 H 205.375 2.27256 3.48798 0
M  V30 2186 H 205.908 3.33757 2.1645 0
M  V30 2187 H 202.647 6.30987 1.77582 0
M  V30 2188 H 202.167 5.16497 3.04945 0
M  V30 2189 H 203.846 5.75272 2.96093 0
M  V30 2190 N 203.978 -0.674533 1.42435 0
M  V30 2191 C 204.925 -1.78807 1.45934 0
M  V30 2192 C 205.895 -1.63157 0.311271 0
M  V30 2193 O 207.08 -1.83707 0.515383 0
M  V30 2194 C 204.22 -3.16839 1.36773 0
M  V30 2195 C 203.333 -3.43774 2.61617 0
M  V30 2196 C 202.468 -4.71536 2.44597 0
M  V30 2197 C 201.507 -4.91505 3.64814 0
M  V30 2198 N 200.644 -6.10508 3.46734 0
M  V30 2199 H 205.484 -1.75151 2.41093 0
M  V30 2200 H 203.021 -0.85504 1.19697 0
M  V30 2201 H 204.979 -3.96606 1.29459 0
M  V30 2202 H 203.609 -3.19619 0.452089 0
M  V30 2203 H 202.661 -2.58259 2.79297 0
M  V30 2204 H 203.973 -3.54423 3.50978 0
M  V30 2205 H 203.127 -5.59393 2.3487 0
M  V30 2206 H 201.866 -4.6317 1.52726 0
M  V30 2207 H 200.871 -4.0209 3.74972 0
M  V30 2208 H 202.096 -5.01716 4.57665 0
M  V30 2209 H 200.042 -6.03315 2.5758 0
M  V30 2210 H 199.959 -6.2202 4.29682 0
M  V30 2211 H 201.227 -7.01044 3.40819 0
M  V30 2212 N 205.456 -1.28612 -0.910864 0
M  V30 2213 C 206.703 -1.15934 -1.66029 0
M  V30 2214 C 207.031 0.291483 -1.92303 0
M  V30 2215 O 206.286 1.22816 -1.52364 0
M  V30 2216 C 206.585 -1.90624 -3.0232 0
M  V30 2217 C 206.251 -3.40405 -2.95695 0
M  V30 2218 C 204.913 -3.81255 -2.93595 0
M  V30 2219 C 207.265 -4.359 -2.85728 0
M  V30 2220 C 204.593 -5.15936 -2.79334 0
M  V30 2221 C 206.945 -5.70657 -2.73007 0
M  V30 2222 C 205.609 -6.10779 -2.69267 0
M  V30 2223 H 204.879 -0.424234 -0.607541 0
M  V30 2224 H 207.526 -1.5942 -1.06101 0
M  V30 2225 H 205.831 -1.39696 -3.6605 0
M  V30 2226 H 207.528 -1.78228 -3.59215 0
M  V30 2227 H 204.118 -3.07927 -2.98125 0
M  V30 2228 H 208.302 -4.053 -2.86436 0
M  V30 2229 H 203.558 -5.46146 -2.74835 0
M  V30 2230 H 207.732 -6.44311 -2.64264 0
M  V30 2231 H 205.359 -7.1509 -2.57974 0
M  V30 2232 N 206.934 1.1197 -1.10907 0
M  V30 2233 C 207.881 2.17846 -0.762345 0
M  V30 2234 C 208.851 1.63995 0.263599 0
M  V30 2235 O 210.036 1.90273 0.141773 0
M  V30 2236 C 207.176 3.44487 -0.205651 0
M  V30 2237 C 206.289 4.12369 -1.28748 0
M  V30 2238 C 205.424 5.26674 -0.691919 0
M  V30 2239 C 204.463 5.86431 -1.75399 0
M  V30 2240 N 203.6 6.92142 -1.17833 0
M  V30 2241 H 208.44 2.46851 -1.6694 0
M  V30 2242 H 205.977 1.21188 -0.833776 0
M  V30 2243 H 207.935 4.16981 0.135037 0
M  V30 2244 H 206.565 3.15884 0.664613 0
M  V30 2245 H 205.617 3.38003 -1.74522 0
M  V30 2246 H 206.929 4.52844 -2.09125 0
M  V30 2247 H 206.083 6.05953 -0.300963 0
M  V30 2248 H 204.822 4.8749 0.143232 0
M  V30 2249 H 203.827 5.05835 -2.15432 0
M  V30 2250 H 205.052 6.27685 -2.59208 0
M  V30 2251 H 202.998 6.54985 -0.364725 0
M  V30 2252 H 202.915 7.31242 -1.91887 0
M  V30 2253 H 204.183 7.75237 -0.81408 0
M  V30 2254 N 208.412 0.89855 1.29475 0
M  V30 2255 C 209.823 0.572537 1.77705 0
M  V30 2256 C 210.174 -0.911778 1.73727 0
M  V30 2257 O 209.299 -1.71288 1.32247 0
M  V30 2258 C 209.894 1.03252 3.22683 0
M  V30 2259 C 208.453 0.757687 3.68695 0
M  V30 2260 C 207.6 1.20787 2.49612 0
M  V30 2261 H 210.551 1.08139 1.16153 0
M  V30 2262 H 210.572 0.367307 3.78723 0
M  V30 2263 H 210.084 2.11285 3.25546 0
M  V30 2264 H 208.185 -0.310079 3.71308 0
M  V30 2265 H 208.298 1.35476 4.59547 0
M  V30 2266 H 206.662 0.626888 2.46865 0
M  V30 2267 H 207.445 2.29622 2.55203 0
M  V30 2268 N 209.89 -1.43072 0.660911 0
M  V30 2269 C 210.838 -2.32569 -0.0378199 0
M  V30 2270 C 211.832 -1.49046 -0.805092 0
M  V30 2271 O 213.038 -1.65206 -0.714624 0
M  V30 2272 H 209.413 -0.75136 -0.031019 0
M  V30 2273 H 211.384 -2.89216 0.734609 0
M  V30 2274 C 210.133 -3.33453 -0.985124 0
M  V30 2275 H 209.456 -3.97752 -0.404147 0
M  V30 2276 H 210.896 -3.98691 -1.44297 0
M  V30 2277 C 209.355 -2.64642 -2.08486 0
M  V30 2278 O 209.885 -2.46776 -3.16961 0
M  V30 2279 N 208.091 -2.23891 -1.8526 0
M  V30 2280 H 207.638 -2.38621 -0.970449 0
M  V30 2281 H 207.596 -1.78181 -2.59034 0
M  V30 2282 N 211.368 -0.403325 -1.52352 0
M  V30 2283 C 212.3 0.4603 -2.2453 0
M  V30 2284 C 213.313 1.01505 -1.27282 0
M  V30 2285 O 214.502 0.914982 -1.53266 0
M  V30 2286 C 211.602 1.65208 -2.95905 0
M  V30 2287 C 210.775 1.22224 -4.19976 0
M  V30 2288 C 209.834 2.28028 -4.74226 0
M  V30 2289 O 208.86 1.88857 -5.36956 0
M  V30 2290 N 210.062 3.6012 -4.55295 0
M  V30 2291 H 212.827 -0.158156 -2.99282 0
M  V30 2292 H 210.388 -0.230402 -1.60252 0
M  V30 2293 H 212.38 2.35541 -3.29093 0
M  V30 2294 H 210.95 2.17658 -2.24374 0
M  V30 2295 H 210.17 0.34725 -3.92668 0
M  V30 2296 H 211.458 0.911924 -5.00561 0
M  V30 2297 H 210.856 3.94698 -4.05253 0
M  V30 2298 H 209.413 4.26447 -4.92936 0
M  V30 2299 N 212.846 1.57033 -0.133567 0
M  V30 2300 C 214.076 1.99754 0.527429 0
M  V30 2301 C 214.484 1.01245 1.59832 0
M  V30 2302 O 213.827 -0.000645496 1.837 0
M  V30 2303 C 213.889 3.38903 1.19939 0
M  V30 2304 C 213.553 4.56174 0.274709 0
M  V30 2305 C 214.55 5.17563 -0.492398 0
M  V30 2306 C 212.235 5.01972 0.18153 0
M  V30 2307 C 214.229 6.2315 -1.34027 0
M  V30 2308 C 211.916 6.07416 -0.669958 0
M  V30 2309 C 212.914 6.67874 -1.42947 0
M  V30 2310 O 212.602 7.71279 -2.2668 0
M  V30 2311 H 212.334 0.660702 0.142999 0
M  V30 2312 H 214.888 2.04207 -0.221099 0
M  V30 2313 H 213.118 3.31248 1.99528 0
M  V30 2314 H 214.807 3.65818 1.75875 0
M  V30 2315 H 215.573 4.83087 -0.430367 0
M  V30 2316 H 211.452 4.54652 0.762422 0
M  V30 2317 H 214.996 6.70268 -1.93357 0
M  V30 2318 H 210.893 6.41321 -0.73333 0
M  V30 2319 H 211.661 7.88441 -2.1978 0
M  V30 2320 N 214.325 -0.140222 1.56975 0
M  V30 2321 C 215.553 -0.866437 1.87884 0
M  V30 2322 C 215.968 -1.74428 0.722517 0
M  V30 2323 O 215.325 -1.79891 -0.30749 0
M  V30 2324 C 215.376 -1.71753 3.18093 0
M  V30 2325 O 215.097 -0.875056 4.29272 0
M  V30 2326 C 216.598 -2.55074 3.62563 0
M  V30 2327 H 213.818 -0.25019 0.622612 0
M  V30 2328 H 216.362 -0.130977 2.0408 0
M  V30 2329 H 214.517 -2.40598 3.03631 0
M  V30 2330 H 214.931 -1.46002 5.03769 0
M  V30 2331 H 216.405 -3.10356 4.5649 0
M  V30 2332 H 216.882 -3.31434 2.88181 0
M  V30 2333 H 217.488 -1.91509 3.79743 0
M  V30 2334 N 215.803 -1.52179 -0.40978 0
M  V30 2335 C 216.75 -1.75475 -1.49924 0
M  V30 2336 C 217.72 -0.597175 -1.54994 0
M  V30 2337 O 218.905 -0.834655 -1.71575 0
M  V30 2338 C 216.045 -1.9107 -2.87378 0
M  V30 2339 C 215.158 -3.18717 -2.91622 0
M  V30 2340 C 214.293 -3.24747 -4.20372 0
M  V30 2341 C 213.332 -4.46598 -4.18588 0
M  V30 2342 N 212.469 -4.50025 -5.38908 0
M  V30 2343 H 217.309 -2.68458 -1.29361 0
M  V30 2344 H 214.846 -1.33024 -0.627934 0
M  V30 2345 H 216.804 -1.98096 -3.6717 0
M  V30 2346 H 215.434 -1.01469 -3.06437 0
M  V30 2347 H 214.486 -3.20866 -2.04326 0
M  V30 2348 H 215.798 -4.08544 -2.86169 0
M  V30 2349 H 214.952 -3.30841 -5.08556 0
M  V30 2350 H 213.691 -2.32857 -4.28519 0
M  V30 2351 H 212.696 -4.40652 -3.28794 0
M  V30 2352 H 213.921 -5.39783 -4.12081 0
M  V30 2353 H 211.867 -3.61017 -5.47725 0
M  V30 2354 H 211.784 -5.33697 -5.35447 0
M  V30 2355 H 213.052 -4.60347 -6.29048 0
M  V30 2356 N 217.281 0.66697 -1.42791 0
M  V30 2357 C 218.53 1.42278 -1.42968 0
M  V30 2358 C 218.843 1.9553 -0.0524489 0
M  V30 2359 O 220.049 2.71414 0.068363 0
M  V30 2360 C 218.505 2.57418 -2.51524 0
M  V30 2361 C 218.113 2.10832 -3.9529 0
M  V30 2362 C 219.857 3.34878 -2.60877 0
M  V30 2363 C 217.764 3.23101 -4.95338 0
M  V30 2364 H 216.694 0.534533 -0.531781 0
M  V30 2365 H 219.345 0.721302 -1.68729 0
M  V30 2366 H 217.727 3.29971 -2.18941 0
M  V30 2367 H 218.901 1.4538 -4.37266 0
M  V30 2368 H 217.216 1.46289 -3.89857 0
M  V30 2369 H 219.813 4.18505 -3.32802 0
M  V30 2370 H 220.156 3.81993 -1.6549 0
M  V30 2371 H 220.689 2.69398 -2.92693 0
M  V30 2372 H 217.428 2.80969 -5.9223 0
M  V30 2373 H 216.948 3.87309 -4.57987 0
M  V30 2374 H 218.627 3.88447 -5.17415 0
M  V30 2375 N 218.759 1.29093 0.90403 0
M  V30 2376 C 220.036 1.075 1.63411 0
M  V30 2377 C 220.416 -0.382346 2.07609 0
M  V30 2378 O 219.764 -1.37031 1.82851 0
M  V30 2379 C 219.974 2.05858 2.81822 0
M  V30 2380 C 221.322 2.36539 3.52611 0
M  V30 2381 O 222.346 2.04019 2.91984 0
M  V30 2382 O 221.205 2.92085 4.61897 0
M  V30 2383 H 218.299 0.411547 0.717327 0
M  V30 2384 H 220.845 1.40449 0.952479 0
M  V30 2385 H 219.617 3.04037 2.46327 0
M  V30 2386 H 219.24 1.73613 3.57693 0
M  V30 2387 N 220.237 -1.11381 1.11499 0
M  V30 2388 C 221.465 -1.86934 0.88675 0
M  V30 2389 C 221.88 -1.80195 -0.563476 0
M  V30 2390 O 221.237 -1.18367 -1.38908 0
M  V30 2391 C 221.288 -3.35722 1.34064 0
M  V30 2392 O 221.009 -3.4232 2.73401 0
M  V30 2393 C 222.51 -4.2818 1.14791 0
M  V30 2394 H 219.73 -0.591117 0.317523 0
M  V30 2395 H 222.274 -1.40865 1.48248 0
M  V30 2396 H 220.429 -3.79294 0.788355 0
M  V30 2397 H 220.843 -4.34971 2.93087 0
M  V30 2398 H 222.317 -5.30817 1.5145 0
M  V30 2399 H 222.794 -4.39113 0.0875279 0
M  V30 2400 H 223.4 -3.90402 1.68721 0
M  V30 2401 N 221.715 -0.905404 -1.28997 0
M  V30 2402 C 222.964 -0.530191 -1.94607 0
M  V30 2403 C 223.277 0.929185 -1.72121 0
M  V30 2404 O 224.483 1.41218 -2.31883 0
M  V30 2405 C 222.939 -0.897333 -3.48534 0
M  V30 2406 C 222.547 -2.37587 -3.79811 0
M  V30 2407 C 224.291 -0.592304 -4.20347 0
M  V30 2408 C 222.198 -2.68357 -5.27009 0
M  V30 2409 H 221.128 -0.194558 -0.728466 0
M  V30 2410 H 223.779 -1.10318 -1.46636 0
M  V30 2411 H 222.161 -0.253214 -3.9519 0
M  V30 2412 H 223.335 -3.06602 -3.43994 0
M  V30 2413 H 221.65 -2.6505 -3.2115 0
M  V30 2414 H 224.247 -0.798975 -5.28697 0
M  V30 2415 H 224.59 0.469474 -4.13644 0
M  V30 2416 H 225.123 -1.19452 -3.79442 0
M  V30 2417 H 221.862 -3.73355 -5.38782 0
M  V30 2418 H 221.382 -2.03971 -5.64053 0
M  V30 2419 H 223.061 -2.54922 -5.94663 0
M  V30 2420 N 223.193 1.4272 -0.668489 0
M  V30 2421 C 224.156 2.292 0.00448567 0
M  V30 2422 C 225.156 1.43001 0.735339 0
M  V30 2423 O 226.346 1.64461 0.57429 0
M  V30 2424 C 223.478 3.25375 1.01705 0
M  V30 2425 H 224.671 2.90199 -0.756608 0
M  V30 2426 H 222.224 1.50254 -0.430506 0
M  V30 2427 H 222.959 2.69301 1.80686 0
M  V30 2428 H 222.744 3.88944 0.496463 0
M  V30 2429 H 224.234 3.90245 1.48655 0
M  V30 2430 N 224.671 0.411399 1.52136 0
M  V30 2431 C 225.634 -0.401089 2.25663 0
M  V30 2432 C 226.634 -0.971732 1.28117 0
M  V30 2433 O 227.824 -0.850254 1.52041 0
M  V30 2434 C 224.956 -1.56483 3.02863 0
M  V30 2435 H 226.149 0.24295 2.98914 0
M  V30 2436 H 223.702 0.163968 1.55438 0
M  V30 2437 H 224.437 -2.24567 2.33967 0
M  V30 2438 H 224.222 -1.16211 3.74483 0
M  V30 2439 H 225.712 -2.13951 3.58629 0
M  V30 2440 N 226.149 -1.5696 0.141893 0
M  V30 2441 C 227.426 -1.87553 -0.555281 0
M  V30 2442 C 227.806 -1.04699 -1.83306 0
M  V30 2443 O 227.154 -0.132346 -2.28116 0
M  V30 2444 C 227.364 -3.39093 -0.825664 0
M  V30 2445 C 228.712 -4.08199 -1.16869 0
M  V30 2446 O 229.736 -3.44242 -0.915185 0
M  V30 2447 O 228.595 -5.21139 -1.6455 0
M  V30 2448 H 225.689 -0.777188 -0.282679 0
M  V30 2449 H 228.235 -1.68763 0.17812 0
M  V30 2450 H 227.007 -3.91221 0.0788633 0
M  V30 2451 H 226.63 -3.63393 -1.61343 0
M  V30 2452 N 227.627 0.131896 -1.57047 0
M  V30 2453 C 228.537 1.1815 -2.02676 0
M  V30 2454 C 229.553 1.46113 -0.944824 0
M  V30 2455 O 230.729 1.57485 -1.25541 0
M  V30 2456 C 227.794 2.49139 -2.41103 0
M  V30 2457 C 226.855 2.28688 -3.63318 0
M  V30 2458 C 226.088 3.53431 -3.99903 0
M  V30 2459 O 226.311 4.60223 -3.36973 0
M  V30 2460 O 225.245 3.45198 -4.93074 0
M  V30 2461 H 229.071 0.824069 -2.92306 0
M  V30 2462 H 226.656 0.341745 -1.45439 0
M  V30 2463 H 228.538 3.26338 -2.66611 0
M  V30 2464 H 227.213 2.84382 -1.54624 0
M  V30 2465 H 226.12 1.4939 -3.42977 0
M  V30 2466 H 227.453 1.98355 -4.50462 0
M  V30 2467 N 229.106 1.52395 0.401703 0
M  V30 2468 C 230.331 1.70972 1.17403 0
M  V30 2469 C 230.756 0.421615 1.83314 0
M  V30 2470 O 230.114 -0.621564 1.70312 0
M  V30 2471 C 230.162 2.85151 2.20728 0
M  V30 2472 O 229.266 2.51238 3.27037 0
M  V30 2473 H 228.607 0.568927 0.342372 0
M  V30 2474 H 231.137 1.99131 0.469891 0
M  V30 2475 H 231.147 3.10279 2.64936 0
M  V30 2476 H 229.822 3.78603 1.7214 0
M  V30 2477 H 228.399 2.36808 2.88057 0
M  V30 2478 N 230.584 -0.659388 1.43143 0
M  V30 2479 C 231.831 -1.41935 1.44433 0
M  V30 2480 C 232.159 -1.94387 0.0663522 0
M  V30 2481 O 231.414 -1.72314 -0.927706 0
M  V30 2482 C 231.713 -2.62206 2.42864 0
M  V30 2483 C 231.379 -2.28208 3.88886 0
M  V30 2484 C 230.041 -2.18647 4.28657 0
M  V30 2485 C 232.393 -2.00887 4.8093 0
M  V30 2486 C 229.721 -1.79914 5.58433 0
M  V30 2487 C 232.073 -1.63653 6.11065 0
M  V30 2488 C 230.737 -1.52614 6.49819 0
M  V30 2489 H 230.007 -0.519376 0.528517 0
M  V30 2490 H 232.654 -0.750453 1.76183 0
M  V30 2491 H 230.959 -3.34199 2.04495 0
M  V30 2492 H 232.656 -3.2041 2.41119 0
M  V30 2493 H 229.246 -2.36557 3.57406 0
M  V30 2494 H 233.43 -2.07198 4.5098 0
M  V30 2495 H 228.686 -1.69948 5.87305 0
M  V30 2496 H 232.86 -1.41543 6.81864 0
M  V30 2497 H 230.487 -1.22371 7.50286 0
M  V30 2498 N 232.062 -1.29571 -0.897171 0
M  V30 2499 C 233.29 -1.20583 -1.68129 0
M  V30 2500 C 233.705 0.233181 -1.87354 0
M  V30 2501 O 233.062 1.15579 -1.41236 0
M  V30 2502 C 233.113 -1.91772 -3.06441 0
M  V30 2503 O 232.834 -3.30053 -2.88091 0
M  V30 2504 C 234.335 -1.89291 -4.00854 0
M  V30 2505 H 231.555 -0.417826 -0.525036 0
M  V30 2506 H 234.099 -1.70987 -1.12177 0
M  V30 2507 H 232.254 -1.45196 -3.59161 0
M  V30 2508 H 232.668 -3.65942 -3.75748 0
M  V30 2509 H 234.142 -2.43662 -4.95311 0
M  V30 2510 H 234.619 -0.869014 -4.30517 0
M  V30 2511 H 235.225 -2.35622 -3.54066 0
M  V30 2512 N 233.54 1.10788 -1.12088 0
M  V30 2513 C 234.472 2.16816 -0.743213 0
M  V30 2514 C 235.485 1.6119 0.228412 0
M  V30 2515 O 236.674 1.78497 0.0102931 0
M  V30 2516 C 233.774 3.38809 -0.0787313 0
M  V30 2517 C 232.947 4.23885 -1.0789 0
M  V30 2518 C 232.006 5.24334 -0.442713 0
M  V30 2519 O 231.032 5.58497 -1.09864 0
M  V30 2520 N 232.234 5.75079 0.791457 0
M  V30 2521 H 234.999 2.49825 -1.65552 0
M  V30 2522 H 232.56 1.26373 -1.012 0
M  V30 2523 H 234.552 4.03107 0.358766 0
M  V30 2524 H 233.122 3.03805 0.736275 0
M  V30 2525 H 232.342 3.55939 -1.69414 0
M  V30 2526 H 233.63 4.77562 -1.75533 0
M  V30 2527 H 233.028 5.49517 1.3434 0
M  V30 2528 H 231.585 6.4118 1.17183 0
M  V30 2529 N 235.018 0.912232 1.28515 0
M  V30 2530 C 235.951 0.343928 2.25593 0
M  V30 2531 C 236.929 -0.550994 1.5298 0
M  V30 2532 O 238.113 -0.494991 1.81885 0
M  V30 2533 C 235.24 -0.508525 3.34861 0
M  V30 2534 C 234.286 0.320808 4.25292 0
M  V30 2535 S 235.119 1.72658 5.06902 0
M  V30 2536 C 236.275 0.881394 6.19663 0
M  V30 2537 H 236.508 1.16674 2.73449 0
M  V30 2538 H 234.041 0.713384 1.36931 0
M  V30 2539 H 235.999 -0.994539 3.9827 0
M  V30 2540 H 234.66 -1.30571 2.85675 0
M  V30 2541 H 233.853 -0.330941 5.02912 0
M  V30 2542 H 233.455 0.74042 3.66598 0
M  V30 2543 H 235.747 0.110359 6.7741 0
M  V30 2544 H 236.69 1.63009 6.89082 0
M  V30 2545 H 237.098 0.430239 5.62858 0
M  V30 2546 N 236.496 -1.42363 0.676048 0
M  V30 2547 C 237.773 -1.95183 0.127726 0
M  V30 2548 C 238.153 -1.61641 -1.35777 0
M  V30 2549 O 237.501 -0.913216 -2.09458 0
M  V30 2550 C 237.711 -3.46721 0.398199 0
M  V30 2551 C 239.059 -4.23427 0.315383 0
M  V30 2552 O 240.083 -3.54649 0.332016 0
M  V30 2553 O 238.942 -5.45888 0.25865 0
M  V30 2554 H 236.036 -0.826992 0.00359427 0
M  V30 2555 H 238.582 -1.52184 0.750864 0
M  V30 2556 H 237.354 -3.64344 1.4272 0
M  V30 2557 H 236.977 -3.96769 -0.256885 0
M  V30 2558 N 237.974 -0.419461 -1.51915 0
M  V30 2559 C 238.904 0.391813 -2.30189 0
M  V30 2560 C 239.885 1.03699 -1.34836 0
M  V30 2561 O 241.07 1.04403 -1.63748 0
M  V30 2562 C 238.2 1.50312 -3.13087 0
M  V30 2563 C 237.154 0.9824 -4.16573 0
M  V30 2564 C 236.48 2.18809 -4.8788 0
M  V30 2565 C 237.78 0.0292356 -5.22292 0
M  V30 2566 H 239.474 -0.26135 -2.98257 0
M  V30 2567 H 237.02 -0.127134 -1.43438 0
M  V30 2568 H 238.973 2.07773 -3.66617 0
M  V30 2569 H 237.697 2.18431 -2.42807 0
M  V30 2570 H 236.356 0.430119 -3.64068 0
M  V30 2571 H 236.004 2.85507 -4.14119 0
M  V30 2572 H 235.704 1.84615 -5.57845 0
M  V30 2573 H 237.228 2.76858 -5.44226 0
M  V30 2574 H 238.642 0.512976 -5.71 0
M  V30 2575 H 237.039 -0.2244 -5.9968 0
M  V30 2576 H 238.109 -0.912931 -4.76228 0
M  V30 2577 N 239.452 1.56882 -0.150215 0
M  V30 2578 C 240.7 1.9584 0.499105 0
M  V30 2579 C 241.021 1.03623 1.65188 0
M  V30 2580 O 240.291 0.0984084 1.95653 0
M  V30 2581 H 238.871 0.723119 0.187373 0
M  V30 2582 H 241.533 1.9358 -0.226466 0
M  V30 2583 H 240.629 2.99638 0.873122 0
M  V30 2584 N 240.93 -0.123565 1.57115 0
M  V30 2585 C 242.207 -0.862196 1.75572 0
M  V30 2586 C 242.587 -1.98279 0.724475 0
M  V30 2587 O 241.935 -2.27102 -0.252407 0
M  V30 2588 C 242.145 -1.38309 3.20424 0
M  V30 2589 C 243.493 -1.83724 3.82793 0
M  V30 2590 O 244.517 -1.47999 3.23998 0
M  V30 2591 O 243.376 -2.49685 4.86127 0
M  V30 2592 H 240.47 -0.409113 0.718718 0
M  V30 2593 H 243.016 -0.107661 1.69358 0
M  V30 2594 H 241.788 -0.578889 3.86994 0
M  V30 2595 H 241.411 -2.20046 3.31158 0
M  V30 2596 N 242.408 -1.52605 -0.393616 0
M  V30 2597 C 243.824 -1.41753 -0.733357 0
M  V30 2598 C 244.024 -0.534293 -1.94287 0
M  V30 2599 O 243.08 -0.0059787 -2.52499 0
M  V30 2600 C 244.393 -2.84531 -0.972772 0
M  V30 2601 C 245.941 -2.93978 -1.07453 0
M  V30 2602 C 246.416 -4.37756 -1.3466 0
M  V30 2603 N 247.907 -4.4106 -1.41492 0
M  V30 2604 C 248.642 -5.49387 -1.642 0
M  V30 2605 N 248.138 -6.67806 -1.8441 0
M  V30 2606 N 249.931 -5.36923 -1.66342 0
M  V30 2607 H 242.082 -2.08555 0.402328 0
M  V30 2608 H 244.345 -0.940654 0.117789 0
M  V30 2609 H 244.051 -3.51353 -0.156204 0
M  V30 2610 H 243.925 -3.26508 -1.88871 0
M  V30 2611 H 246.312 -2.27326 -1.88167 0
M  V30 2612 H 246.393 -2.55435 -0.136605 0
M  V30 2613 H 246.037 -5.04972 -0.544581 0
M  V30 2614 H 245.967 -4.73848 -2.2973 0
M  V30 2615 H 248.458 -3.55705 -1.27601 0
M  V30 2616 H 248.771 -7.46141 -2.01231 0
M  V30 2617 H 247.116 -6.70843 -1.81644 0
M  V30 2618 H 250.307 -4.43381 -1.50102 0
M  V30 2619 H 250.48 -6.21416 -1.837 0
M  V30 2620 N 243.887 0.651787 -1.4349 0
M  V30 2621 C 245.136 1.40754 -1.44469 0
M  V30 2622 C 245.449 1.95463 -0.0731845 0
M  V30 2623 O 246.655 2.71471 0.0395721 0
M  V30 2624 C 245.111 2.54735 -2.5424 0
M  V30 2625 C 244.719 2.06628 -3.97504 0
M  V30 2626 C 246.463 3.32092 -2.64414 0
M  V30 2627 C 244.37 3.17829 -4.98737 0
M  V30 2628 H 243.3 0.528862 -0.53742 0
M  V30 2629 H 245.951 0.703365 -1.69485 0
M  V30 2630 H 244.333 3.2763 -2.22428 0
M  V30 2631 H 245.507 1.40734 -4.38783 0
M  V30 2632 H 243.822 1.42146 -3.91387 0
M  V30 2633 H 246.419 4.14952 -3.37223 0
M  V30 2634 H 246.762 3.80217 -1.69532 0
M  V30 2635 H 247.295 2.66279 -2.95534 0
M  V30 2636 H 244.034 2.74671 -5.95177 0
M  V30 2637 H 243.554 3.82429 -4.62069 0
M  V30 2638 H 245.233 3.82937 -5.21505 0
M  V30 2639 N 245.365 1.30045 0.890287 0
M  V30 2640 C 246.295 1.18541 2.01172 0
M  V30 2641 C 247.276 0.0773356 1.69924 0
M  V30 2642 O 248.461 0.25845 1.92473 0
M  V30 2643 C 245.591 0.870941 3.36202 0
M  V30 2644 C 244.545 1.93637 3.81692 0
M  V30 2645 C 243.871 1.475 5.13953 0
M  V30 2646 C 245.171 3.34666 4.00994 0
M  V30 2647 H 246.865 2.12359 2.11054 0
M  V30 2648 H 244.411 1.02238 1.01407 0
M  V30 2649 H 246.364 0.777141 4.14172 0
M  V30 2650 H 245.088 -0.102926 3.26438 0
M  V30 2651 H 243.747 2.01972 3.05946 0
M  V30 2652 H 243.395 0.489551 5.00612 0
M  V30 2653 H 243.095 2.1876 5.4536 0
M  V30 2654 H 244.619 1.39489 5.94454 0
M  V30 2655 H 246.033 3.2912 4.69417 0
M  V30 2656 H 244.43 4.03966 4.43769 0
M  V30 2657 H 245.5 3.76949 3.05021 0
M  V30 2658 N 246.843 -1.10192 1.12674 0
M  V30 2659 C 247.79 -2.16606 0.796906 0
M  V30 2660 C 248.76 -1.64394 -0.237476 0
M  V30 2661 O 249.945 -1.90474 -0.111484 0
M  V30 2662 C 247.085 -3.44116 0.26043 0
M  V30 2663 C 246.198 -4.10268 1.35293 0
M  V30 2664 C 245.333 -5.25507 0.775621 0
M  V30 2665 C 244.372 -5.83567 1.84706 0
M  V30 2666 N 243.509 -6.90179 1.28829 0
M  V30 2667 H 248.349 -2.44163 1.70846 0
M  V30 2668 H 245.886 -1.19846 0.85295 0
M  V30 2669 H 247.844 -4.17143 -0.0686814 0
M  V30 2670 H 246.474 -3.16901 -0.614274 0
M  V30 2671 H 245.526 -3.35184 1.79877 0
M  V30 2672 H 246.838 -4.4946 2.16303 0
M  V30 2673 H 245.992 -6.05398 0.397327 0
M  V30 2674 H 244.731 -4.87656 -0.0656581 0
M  V30 2675 H 243.736 -5.02344 2.23452 0
M  V30 2676 H 244.961 -6.23482 2.69161 0
M  V30 2677 H 242.907 -6.54322 0.468881 0
M  V30 2678 H 242.824 -7.28097 2.03497 0
M  V30 2679 H 244.092 -7.73844 0.937311 0
M  V30 2680 N 248.321 -0.919034 -1.28029 0
M  V30 2681 C 249.251 -0.428581 -2.29533 0
M  V30 2682 C 250.232 0.50659 -1.62381 0
M  V30 2683 O 251.417 0.413195 -1.89753 0
M  V30 2684 C 248.547 0.327388 -3.45753 0
M  V30 2685 C 247.501 -0.519137 -4.2484 0
M  V30 2686 C 246.827 0.365486 -5.33449 0
M  V30 2687 C 248.127 -1.77914 -4.91064 0
M  V30 2688 H 249.821 -1.27687 -2.70807 0
M  V30 2689 H 247.367 -0.615428 -1.30186 0
M  V30 2690 H 249.32 0.681378 -4.15855 0
M  V30 2691 H 248.044 1.20963 -3.03374 0
M  V30 2692 H 246.703 -0.855717 -3.56473 0
M  V30 2693 H 246.351 1.24642 -4.87312 0
M  V30 2694 H 246.051 -0.197356 -5.87268 0
M  V30 2695 H 247.575 0.715241 -6.06396 0
M  V30 2696 H 248.989 -1.49374 -5.53498 0
M  V30 2697 H 247.386 -2.2848 -5.54903 0
M  V30 2698 H 248.456 -2.50382 -4.15255 0
M  V30 2699 N 249.799 1.42003 -0.683588 0
M  V30 2700 C 250.747 2.326 0.000815408 0
M  V30 2701 C 251.741 1.50308 0.781278 0
M  V30 2702 O 252.947 1.66322 0.688251 0
M  V30 2703 H 249.322 0.751758 0.0190616 0
M  V30 2704 H 251.293 2.88011 -0.780528 0
M  V30 2705 C 250.042 3.34978 0.93195 0
M  V30 2706 H 249.365 3.98345 0.340817 0
M  V30 2707 H 250.805 4.00936 1.37936 0
M  V30 2708 C 249.264 2.67925 2.04249 0
M  V30 2709 O 249.794 2.51788 3.12995 0
M  V30 2710 N 248 2.2681 1.81675 0
M  V30 2711 H 247.547 2.40135 0.932363 0
M  V30 2712 H 247.505 1.8228 2.56167 0
M  V30 2713 N 251.277 0.427512 1.51691 0
M  V30 2714 C 252.505 -0.141191 2.06418 0
M  V30 2715 C 252.92 -1.37303 1.29589 0
M  V30 2716 O 252.277 -1.79059 0.352732 0
M  V30 2717 C 252.328 -0.473266 3.58389 0
M  V30 2718 O 252.049 0.709673 4.32314 0
M  V30 2719 C 253.55 -1.09371 4.29596 0
M  V30 2720 H 250.77 -0.0122747 0.670888 0
M  V30 2721 H 253.314 0.603764 1.95384 0
M  V30 2722 H 251.469 -1.16812 3.69369 0
M  V30 2723 H 251.883 0.42807 5.2275 0
M  V30 2724 H 253.357 -1.27613 5.37046 0
M  V30 2725 H 253.834 -2.072 3.87253 0
M  V30 2726 H 254.44 -0.43853 4.23033 0
M  V30 2727 N 252.755 -1.56801 0.158532 0
M  V30 2728 C 253.665 -2.20916 -0.789518 0
M  V30 2729 C 254.681 -1.1969 -1.26294 0
M  V30 2730 O 255.857 -1.52308 -1.31773 0
M  V30 2731 C 252.922 -2.82727 -2.00665 0
M  V30 2732 C 251.983 -3.99114 -1.58134 0
M  V30 2733 C 251.216 -4.57968 -2.74045 0
M  V30 2734 O 251.439 -4.15704 -3.90572 0
M  V30 2735 O 250.373 -5.48047 -2.48855 0
M  V30 2736 H 254.199 -3.02464 -0.273681 0
M  V30 2737 H 251.784 -1.4924 -0.0690548 0
M  V30 2738 H 253.666 -3.21968 -2.71872 0
M  V30 2739 H 252.341 -2.04184 -2.51179 0
M  V30 2740 H 251.248 -3.64567 -0.839155 0
M  V30 2741 H 252.581 -4.79212 -1.12325 0
M  V30 2742 N 254.233 0.115231 -1.57178 0
M  V30 2743 C 255.482 0.820945 -1.84237 0
M  V30 2744 C 255.795 1.80866 -0.744761 0
M  V30 2745 O 257.001 2.56083 -0.901871 0
M  V30 2746 C 255.457 1.51072 -3.26658 0
M  V30 2747 C 255.065 0.563795 -4.44438 0
M  V30 2748 C 256.809 2.20134 -3.62962 0
M  V30 2749 C 254.716 1.25701 -5.77887 0
M  V30 2750 H 253.646 0.310328 -0.687177 0
M  V30 2751 H 256.297 0.0737134 -1.83352 0
M  V30 2752 H 254.679 2.30471 -3.22024 0
M  V30 2753 H 255.853 -0.197247 -4.60378 0
M  V30 2754 H 254.168 -0.0200638 -4.16395 0
M  V30 2755 H 256.765 2.72696 -4.59936 0
M  V30 2756 H 257.108 2.98107 -2.90582 0
M  V30 2757 H 257.641 1.47619 -3.69396 0
M  V30 2758 H 254.38 0.518493 -6.53446 0
M  V30 2759 H 253.9 1.98997 -5.65827 0
M  V30 2760 H 255.579 1.78915 -6.2177 0
M  V30 2761 N 255.711 1.52812 0.385517 0
M  V30 2762 C 257.127 1.4214 0.725829 0
M  V30 2763 C 257.327 0.544589 1.94001 0
M  V30 2764 O 256.383 0.0193693 2.52493 0
M  V30 2765 C 257.696 2.85042 0.957668 0
M  V30 2766 C 259.244 2.94543 1.05892 0
M  V30 2767 C 259.719 4.38464 1.32337 0
M  V30 2768 N 261.21 4.41804 1.39151 0
M  V30 2769 C 261.945 5.5025 1.61285 0
M  V30 2770 N 261.441 6.68775 1.80866 0
M  V30 2771 N 263.234 5.37798 1.63492 0
M  V30 2772 H 255.385 2.08338 -0.413383 0
M  V30 2773 H 257.648 0.940016 -0.122775 0
M  V30 2774 H 257.354 3.51431 0.137568 0
M  V30 2775 H 257.228 3.27505 1.87137 0
M  V30 2776 H 259.615 2.28321 1.86959 0
M  V30 2777 H 259.696 2.55504 0.123057 0
M  V30 2778 H 259.34 5.05254 0.517793 0
M  V30 2779 H 259.27 4.75059 2.27214 0
M  V30 2780 H 261.761 3.56377 1.25713 0
M  V30 2781 H 262.074 7.47197 1.97271 0
M  V30 2782 H 260.419 6.71797 1.78083 0
M  V30 2783 H 263.61 4.44171 1.47749 0
M  V30 2784 H 263.783 6.22382 1.80402 0
M  V30 2785 N 257.189 -0.644168 1.43834 0
M  V30 2786 C 258.099 -1.78563 1.52159 0
M  V30 2787 C 259.115 -1.69147 0.408069 0
M  V30 2788 O 260.291 -1.90156 0.663524 0
M  V30 2789 C 257.356 -3.14888 1.45073 0
M  V30 2790 C 256.417 -3.36034 2.6717 0
M  V30 2791 C 255.65 -4.65855 2.60413 0
M  V30 2792 O 255.873 -5.45805 1.65689 0
M  V30 2793 O 254.807 -4.88918 3.5106 0
M  V30 2794 H 258.633 -1.74494 2.48567 0
M  V30 2795 H 256.218 -0.80378 1.25935 0
M  V30 2796 H 258.1 -3.96179 1.43597 0
M  V30 2797 H 256.775 -3.19528 0.518037 0
M  V30 2798 H 255.682 -2.54472 2.74217 0
M  V30 2799 H 257.015 -3.36247 3.59442 0
M  V30 2800 N 258.668 -1.30515 -0.883378 0
M  V30 2801 C 259.914 -1.19607 -1.63774 0
M  V30 2802 C 260.247 0.248314 -1.92606 0
M  V30 2803 O 259.522 1.17742 -1.54813 0
M  V30 2804 C 259.805 -2.02669 -2.97653 0
M  V30 2805 C 259.658 -3.55335 -2.75784 0
M  V30 2806 C 260.977 -1.86573 -3.98596 0
M  V30 2807 H 258.096 -0.435856 -0.594305 0
M  V30 2808 H 260.738 -1.60165 -1.02212 0
M  V30 2809 H 258.888 -1.68208 -3.50197 0
M  V30 2810 H 260.56 -3.99863 -2.30016 0
M  V30 2811 H 258.803 -3.79438 -2.1026 0
M  V30 2812 H 259.474 -4.08745 -3.70988 0
M  V30 2813 H 261.95 -2.16703 -3.55217 0
M  V30 2814 H 260.826 -2.47014 -4.90179 0
M  V30 2815 H 261.087 -0.825321 -4.34328 0
M  V30 2816 N 260.146 1.09593 -1.13257 0
M  V30 2817 C 261.394 1.81375 -0.891492 0
M  V30 2818 C 261.715 1.86049 0.584009 0
M  V30 2819 O 260.985 1.34481 1.42449 0
M  V30 2820 H 259.565 0.671708 -0.326828 0
M  V30 2821 H 262.227 1.3256 -1.42877 0
M  V30 2822 H 261.323 2.84612 -1.28071 0
M  V30 2823 N 261.624 0.925811 1.2754 0
M  V30 2824 C 263.035 0.610102 1.7645 0
M  V30 2825 C 263.386 -0.874723 1.75622 0
M  V30 2826 O 262.511 -1.68444 1.35851 0
M  V30 2827 C 263.106 1.10073 3.20421 0
M  V30 2828 C 261.665 0.835723 3.67005 0
M  V30 2829 C 260.812 1.26054 2.46993 0
M  V30 2830 H 263.763 1.10579 1.13833 0
M  V30 2831 H 263.784 0.447557 3.77859 0
M  V30 2832 H 263.296 2.18143 3.20991 0
M  V30 2833 H 261.397 -0.231249 3.71882 0
M  V30 2834 H 261.51 1.45193 4.56569 0
M  V30 2835 H 259.874 0.679111 2.45479 0
M  V30 2836 H 260.657 2.34984 2.50275 0
M  V30 2837 N 263.102 -1.41638 0.69111 0
M  V30 2838 C 264.351 -2.00526 0.217318 0
M  V30 2839 C 264.664 -1.55353 -1.18848 0
M  V30 2840 O 265.87 -2.06769 -1.75951 0
M  V30 2841 C 264.326 -3.58313 0.337639 0
M  V30 2842 C 263.934 -4.12469 1.74852 0
M  V30 2843 C 265.678 -4.24431 -0.0766066 0
M  V30 2844 C 263.585 -5.62675 1.82074 0
M  V30 2845 H 262.515 -0.750008 0.0774893 0
M  V30 2846 H 265.166 -1.6217 0.858661 0
M  V30 2847 H 263.548 -3.9425 -0.371879 0
M  V30 2848 H 264.722 -3.8796 2.48644 0
M  V30 2849 H 263.037 -3.58861 2.11205 0
M  V30 2850 H 265.634 -5.34683 -0.0430284 0
M  V30 2851 H 265.977 -4.01101 -1.1146 0
M  V30 2852 H 266.51 -3.93512 0.582476 0
M  V30 2853 H 263.249 -5.90826 2.83911 0
M  V30 2854 H 262.769 -5.89124 1.12661 0
M  V30 2855 H 264.448 -6.27371 1.58159 0
M  V30 2856 N 264.58 -0.43555 -1.51462 0
M  V30 2857 C 265.49 0.383001 -2.31453 0
M  V30 2858 C 266.506 1.02931 -1.4029 0
M  V30 2859 O 267.682 1.02507 -1.73362 0
M  V30 2860 C 264.747 1.47043 -3.13973 0
M  V30 2861 C 263.808 0.844433 -4.20913 0
M  V30 2862 C 263.041 1.88004 -4.9949 0
M  V30 2863 O 263.264 3.10199 -4.78678 0
M  V30 2864 O 262.198 1.47157 -5.83634 0
M  V30 2865 H 266.024 -0.269964 -3.02498 0
M  V30 2866 H 263.609 -0.19813 -1.4808 0
M  V30 2867 H 265.491 2.10113 -3.65281 0
M  V30 2868 H 264.166 2.10751 -2.45695 0
M  V30 2869 H 263.073 0.175729 -3.73687 0
M  V30 2870 H 264.406 0.250869 -4.9156 0
M  V30 2871 N 266.058 1.56714 -0.166846 0
M  V30 2872 C 267.474 1.58473 0.189372 0
M  V30 2873 C 267.674 1.18201 1.63189 0
M  V30 2874 O 266.73 0.891528 2.36237 0
M  V30 2875 C 268.043 3.00573 -0.0873872 0
M  V30 2876 C 269.591 3.1299 -0.0252443 0
M  V30 2877 C 270.066 4.57174 -0.274934 0
M  V30 2878 N 271.557 4.62665 -0.222553 0
M  V30 2879 C 272.292 5.72072 -0.389985 0
M  V30 2880 N 271.788 6.90054 -0.616229 0
M  V30 2881 N 273.581 5.61153 -0.326202 0
M  V30 2882 H 265.732 1.8118 -1.10849 0
M  V30 2883 H 267.995 0.839525 -0.440342 0
M  V30 2884 H 267.701 3.34497 -1.0865 0
M  V30 2885 H 267.575 3.72019 0.623037 0
M  V30 2886 H 269.962 2.78895 0.96444 0
M  V30 2887 H 270.043 2.43989 -0.768309 0
M  V30 2888 H 269.687 4.91976 -1.26181 0
M  V30 2889 H 269.617 5.24328 0.48869 0
M  V30 2890 H 272.108 3.77863 -0.0531512 0
M  V30 2891 H 272.421 7.69311 -0.733559 0
M  V30 2892 H 270.766 6.91927 -0.652791 0
M  V30 2893 H 273.957 4.67859 -0.150072 0
M  V30 2894 H 274.13 6.46364 -0.460116 0
M  V30 2895 N 267.536 -0.106894 1.57237 0
M  V30 2896 C 268.483 -1.13049 2.01217 0
M  V30 2897 C 269.453 -1.40471 0.886403 0
M  V30 2898 O 270.638 -1.52133 1.15153 0
M  V30 2899 C 267.778 -2.4487 2.43172 0
M  V30 2900 C 266.891 -2.24281 3.69218 0
M  V30 2901 C 266.026 -3.49417 4.00101 0
M  V30 2902 C 265.065 -3.24038 5.19294 0
M  V30 2903 N 264.202 -4.41409 5.45988 0
M  V30 2904 H 269.042 -0.748456 2.88448 0
M  V30 2905 H 266.579 -0.358054 1.42676 0
M  V30 2906 H 268.537 -3.21786 2.65537 0
M  V30 2907 H 267.167 -2.80944 1.58967 0
M  V30 2908 H 266.219 -1.38224 3.54398 0
M  V30 2909 H 267.531 -2.01512 4.56283 0
M  V30 2910 H 266.685 -4.34746 4.2318 0
M  V30 2911 H 265.424 -3.75229 3.11535 0
M  V30 2912 H 264.429 -2.37102 4.96047 0
M  V30 2913 H 265.654 -2.99584 6.09447 0
M  V30 2914 H 263.6 -4.67319 4.60379 0
M  V30 2915 H 263.517 -4.21788 6.274 0
M  V30 2916 H 264.785 -5.27836 5.73593 0
M  V30 2917 N 269.014 -1.53014 -0.377408 0
M  V30 2918 C 270.262 -1.6829 -1.11906 0
M  V30 2919 C 270.583 -0.431206 -1.90173 0
M  V30 2920 O 269.853 0.554595 -1.87886 0
M  V30 2921 H 268.433 -0.620371 -0.416112 0
M  V30 2922 H 271.095 -1.90167 -0.426893 0
M  V30 2923 H 270.191 -2.53862 -1.8155 0
M  V30 2924 N 270.492 0.636531 -1.44174 0
M  V30 2925 C 271.739 1.39619 -1.46672 0
M  V30 2926 C 272.067 1.94257 -0.0972691 0
M  V30 2927 O 271.322 1.73768 0.900175 0
M  V30 2928 C 271.621 2.58309 -2.47005 0
M  V30 2929 C 271.287 2.21992 -3.92467 0
M  V30 2930 C 269.949 2.118 -4.32081 0
M  V30 2931 C 272.301 1.9321 -4.84065 0
M  V30 2932 C 269.629 1.71007 -5.61225 0
M  V30 2933 C 271.981 1.53911 -6.13591 0
M  V30 2934 C 270.645 1.42257 -6.52165 0
M  V30 2935 H 269.915 0.510902 -0.536712 0
M  V30 2936 H 272.562 0.722328 -1.77355 0
M  V30 2937 H 270.867 3.30903 -2.09786 0
M  V30 2938 H 272.564 3.16533 -2.46186 0
M  V30 2939 H 269.154 2.30841 -3.61124 0
M  V30 2940 H 273.338 1.99997 -4.54219 0
M  V30 2941 H 268.594 1.60583 -5.89935 0
M  V30 2942 H 272.768 1.30677 -6.8403 0
M  V30 2943 H 270.395 1.10419 -7.52138 0
M  V30 2944 N 271.97 1.30982 0.876444 0
M  V30 2945 C 273.2 1.23063 1.65949 0
M  V30 2946 C 273.608 -0.207537 1.88058 0
M  V30 2947 O 272.951 -1.14781 1.43426 0
M  V30 2948 C 273.013 1.89768 3.05333 0
M  V30 2949 C 272.677 3.39106 3.0636 0
M  V30 2950 C 273.674 4.3496 2.84791 0
M  V30 2951 C 271.359 3.80693 3.27686 0
M  V30 2952 C 273.353 5.70375 2.84519 0
M  V30 2953 C 271.04 5.16223 3.27043 0
M  V30 2954 C 272.038 6.10875 3.05485 0
M  V30 2955 O 271.726 7.43928 3.04674 0
M  V30 2956 H 271.458 0.426685 0.524324 0
M  V30 2957 H 274.012 1.7329 1.10271 0
M  V30 2958 H 272.242 1.34082 3.6271 0
M  V30 2959 H 273.931 1.75853 3.65829 0
M  V30 2960 H 274.697 4.0416 2.68103 0
M  V30 2961 H 270.576 3.07457 3.43499 0
M  V30 2962 H 274.12 6.44228 2.67611 0
M  V30 2963 H 270.017 5.4666 3.43269 0
M  V30 2964 H 270.785 7.53022 3.2078 0
M  V30 2965 N 273.449 -1.08991 1.13837 0
M  V30 2966 C 274.379 -2.17771 0.842507 0
M  V30 2967 C 275.36 -1.6892 -0.20001 0
M  V30 2968 O 276.545 -1.94113 -0.0579731 0
M  V30 2969 C 273.675 -3.4589 0.312644 0
M  V30 2970 C 272.629 -4.08099 1.28992 0
M  V30 2971 C 271.955 -5.31098 0.619623 0
M  V30 2972 C 273.255 -4.50077 2.65005 0
M  V30 2973 H 274.949 -2.42777 1.75213 0
M  V30 2974 H 272.495 -1.16682 0.843875 0
M  V30 2975 H 274.448 -4.21297 0.0933043 0
M  V30 2976 H 273.172 -3.20419 -0.632382 0
M  V30 2977 H 271.831 -3.34717 1.49533 0
M  V30 2978 H 271.479 -5.0191 -0.33102 0
M  V30 2979 H 271.179 -5.73674 1.27167 0
M  V30 2980 H 272.703 -6.09224 0.409669 0
M  V30 2981 H 274.117 -5.16688 2.48407 0
M  V30 2982 H 272.514 -5.03553 3.26427 0
M  V30 2983 H 273.584 -3.62257 3.22332 0
M  V30 2984 N 274.927 -0.932562 -1.27047 0
M  V30 2985 C 275.89 -0.440064 -2.24936 0
M  V30 2986 C 276.89 0.444071 -1.54547 0
M  V30 2987 O 278.08 0.244465 -1.72476 0
M  V30 2988 C 275.212 0.36678 -3.38921 0
M  V30 2989 H 276.405 -1.305 -2.70018 0
M  V30 2990 H 273.958 -0.713707 -1.39054 0
M  V30 2991 H 274.693 1.25033 -2.99228 0
M  V30 2992 H 274.478 -0.267204 -3.91188 0
M  V30 2993 H 275.968 0.701567 -4.11665 0
M  V30 2994 N 276.405 1.4127 -0.698611 0
M  V30 2995 C 277.652 2.0118 -0.230865 0
M  V30 2996 C 277.98 1.55338 1.17049 0
M  V30 2997 O 277.235 0.756775 1.80475 0
M  V30 2998 C 277.534 3.56592 -0.240192 0
M  V30 2999 C 277.2 4.21955 -1.58948 0
M  V30 3000 C 275.862 4.39524 -1.95887 0
M  V30 3001 C 278.214 4.58576 -2.47704 0
M  V30 3002 C 275.542 4.90992 -3.2116 0
M  V30 3003 C 277.894 5.11435 -3.72313 0
M  V30 3004 C 276.558 5.27215 -4.0939 0
M  V30 3005 H 275.828 0.736169 -0.0844796 0
M  V30 3006 H 278.475 1.69124 -0.8983 0
M  V30 3007 H 276.78 3.88456 0.510797 0
M  V30 3008 H 278.477 4.00758 0.139296 0
M  V30 3009 H 275.067 4.08657 -1.29219 0
M  V30 3010 H 279.251 4.44654 -2.20445 0
M  V30 3011 H 274.507 5.01393 -3.49878 0
M  V30 3012 H 278.681 5.38752 -4.4127 0
M  V30 3013 H 276.308 5.66859 -5.06533 0
M  V30 3014 N 277.883 0.443576 1.51229 0
M  V30 3015 C 278.815 -0.400608 2.25672 0
M  V30 3016 C 279.828 -0.980945 1.29928 0
M  V30 3017 O 281.017 -0.874024 1.55638 0
M  V30 3018 C 278.117 -1.57304 3.00181 0
M  V30 3019 C 277.29 -1.11046 4.23069 0
M  V30 3020 C 276.349 -2.15374 4.80105 0
M  V30 3021 O 275.375 -1.74554 5.41774 0
M  V30 3022 N 276.577 -3.47922 4.64683 0
M  V30 3023 H 279.342 0.23745 2.98758 0
M  V30 3024 H 276.903 0.272809 1.59585 0
M  V30 3025 H 278.895 -2.26733 3.35223 0
M  V30 3026 H 277.465 -2.11632 2.30066 0
M  V30 3027 H 276.685 -0.243019 3.9345 0
M  V30 3028 H 277.973 -0.778888 5.02803 0
M  V30 3029 H 277.371 -3.83815 4.15575 0
M  V30 3030 H 275.928 -4.13228 5.0407 0
M  V30 3031 N 279.361 -1.56624 0.175154 0
M  V30 3032 C 280.638 -1.88688 -0.515373 0
M  V30 3033 C 281.018 -1.08564 -1.81044 0
M  V30 3034 O 280.366 -0.180703 -2.27784 0
M  V30 3035 C 280.576 -3.40768 -0.753552 0
M  V30 3036 C 281.924 -4.10587 -1.08184 0
M  V30 3037 O 282.948 -3.46106 -0.841961 0
M  V30 3038 O 281.807 -5.24512 -1.53459 0
M  V30 3039 H 278.901 -0.78301 -0.26613 0
M  V30 3040 H 281.447 -1.68347 0.213877 0
M  V30 3041 H 280.219 -3.90965 0.161829 0
M  V30 3042 H 279.842 -3.66733 -1.53598 0
M  V30 3043 N 280.839 0.0985539 -1.57292 0
M  V30 3044 C 282.088 0.801358 -1.85098 0
M  V30 3045 C 282.401 1.80066 -0.763902 0
M  V30 3046 O 283.607 2.55112 -0.928981 0
M  V30 3047 C 282.063 1.47599 -3.28242 0
M  V30 3048 C 281.671 0.516624 -4.45011 0
M  V30 3049 C 283.415 2.16272 -3.65276 0
M  V30 3050 C 281.322 1.19564 -5.79188 0
M  V30 3051 H 280.252 0.303022 -0.69043 0
M  V30 3052 H 282.903 0.0542623 -1.8342 0
M  V30 3053 H 281.285 2.27042 -3.2445 0
M  V30 3054 H 282.459 -0.246065 -4.60143 0
M  V30 3055 H 280.774 -0.064227 -4.1635 0
M  V30 3056 H 283.371 2.67802 -4.62803 0
M  V30 3057 H 283.714 2.95009 -2.93727 0
M  V30 3058 H 284.247 1.43693 -3.70941 0
M  V30 3059 H 280.986 0.449157 -6.53959 0
M  V30 3060 H 280.506 1.92984 -5.67906 0
M  V30 3061 H 282.185 1.7231 -6.23633 0
M  V30 3062 N 282.317 1.53212 0.369288 0
M  V30 3063 C 283.565 1.68881 1.11012 0
M  V30 3064 C 283.886 0.441285 1.89941 0
M  V30 3065 O 283.156 -0.544623 1.88177 0
M  V30 3066 H 281.736 0.622569 0.412816 0
M  V30 3067 H 284.398 1.90391 0.416802 0
M  V30 3068 H 283.494 2.54822 1.80201 0
M  V30 3069 N 283.795 -0.628877 1.44509 0
M  V30 3070 C 284.758 -1.72263 1.51188 0
M  V30 3071 C 285.758 -1.55907 0.39367 0
M  V30 3072 O 286.948 -1.61361 0.656377 0
M  V30 3073 C 284.08 -3.11365 1.38798 0
M  V30 3074 H 285.273 -1.67714 2.4862 0
M  V30 3075 H 282.826 -0.842737 1.31634 0
M  V30 3076 H 283.561 -3.21507 0.424693 0
M  V30 3077 H 283.346 -3.24644 2.19884 0
M  V30 3078 H 284.836 -3.91075 1.46458 0
M  V30 3079 N 285.273 -1.31445 -0.869486 0
M  V30 3080 C 286.513 -1.22458 -1.63656 0
M  V30 3081 C 286.877 0.213846 -1.90805 0
M  V30 3082 O 288.078 0.427212 -2.65383 0
M  V30 3083 C 286.349 -2.04564 -2.93067 0
M  V30 3084 S 287.908 -2.12445 -3.83944 0
M  V30 3085 H 284.726 -0.436145 -0.561514 0
M  V30 3086 H 287.328 -1.66114 -1.03085 0
M  V30 3087 H 286.032 -3.0816 -2.71045 0
M  V30 3088 H 285.563 -1.6163 -3.58663 0
M  V30 3089 H 287.578 -1.26312 -4.79854 0
M  V30 3090 N 286.751 1.08385 -1.14413 0
M  V30 3091 C 288 1.80153 -0.907076 0
M  V30 3092 C 288.313 1.87176 0.567851 0
M  V30 3093 O 289.519 2.55359 0.922172 0
M  V30 3094 C 287.975 3.23687 -1.57336 0
M  V30 3095 C 287.583 3.24897 -3.08457 0
M  V30 3096 C 289.327 4.00136 -1.41744 0
M  V30 3097 C 287.234 4.6302 -3.67921 0
M  V30 3098 H 286.164 0.675139 -0.335714 0
M  V30 3099 H 288.815 1.21733 -1.37307 0
M  V30 3100 H 287.197 3.82234 -1.03505 0
M  V30 3101 H 288.371 2.76055 -3.68958 0
M  V30 3102 H 286.686 2.61943 -3.2369 0
M  V30 3103 H 289.283 5.02201 -1.83572 0
M  V30 3104 H 289.626 4.14709 -0.363576 0
M  V30 3105 H 290.159 3.48058 -1.92614 0
M  V30 3106 H 286.898 4.5365 -4.73161 0
M  V30 3107 H 286.418 5.12143 -3.12201 0
M  V30 3108 H 288.097 5.31994 -3.68227 0
M  V30 3109 N 288.23 0.939286 1.26551 0
M  V30 3110 C 289.193 0.451987 2.24699 0
M  V30 3111 C 290.193 -0.435869 1.5478 0
M  V30 3112 O 291.383 -0.235314 1.72603 0
M  V30 3113 C 288.515 -0.348801 3.39111 0
M  V30 3114 H 289.708 1.3193 2.69322 0
M  V30 3115 H 287.261 0.721072 1.38673 0
M  V30 3116 H 287.996 -1.23444 2.99887 0
M  V30 3117 H 287.781 0.287945 3.91041 0
M  V30 3118 H 289.271 -0.679726 4.12031 0
M  V30 3119 N 289.708 -1.40897 0.706093 0
M  V30 3120 C 290.638 -2.33418 0.0620085 0
M  V30 3121 C 291.619 -1.52385 -0.755827 0
M  V30 3122 O 292.804 -1.80886 -0.706674 0
M  V30 3123 C 289.934 -3.36293 -0.867445 0
M  V30 3124 C 288.888 -4.27716 -0.155932 0
M  V30 3125 C 288.214 -5.2105 -1.20046 0
M  V30 3126 C 289.514 -5.12944 0.984149 0
M  V30 3127 H 291.208 -2.87527 0.83477 0
M  V30 3128 H 288.754 -1.38249 0.402875 0
M  V30 3129 H 290.707 -3.99949 -1.32735 0
M  V30 3130 H 289.431 -2.80556 -1.67199 0
M  V30 3131 H 288.09 -3.65498 0.284047 0
M  V30 3132 H 287.738 -4.61624 -1.99781 0
M  V30 3133 H 287.438 -5.83056 -0.729328 0
M  V30 3134 H 288.962 -5.87584 -1.66066 0
M  V30 3135 H 290.376 -5.70109 0.604048 0
M  V30 3136 H 288.773 -5.83945 1.38304 0
M  V30 3137 H 289.843 -4.49485 1.81911 0
M  V30 3138 N 291.186 -0.45159 -1.50991 0
M  V30 3139 C 292.432 0.110237 -2.025 0
M  V30 3140 C 292.765 1.41109 -1.33424 0
M  V30 3141 O 292.04 1.89135 -0.453659 0
M  V30 3142 C 292.323 0.314271 -3.58726 0
M  V30 3143 C 292.176 -1.00623 -4.38401 0
M  V30 3144 C 293.495 1.07767 -4.26702 0
M  V30 3145 H 290.614 0.0385897 -0.735989 0
M  V30 3146 H 293.256 -0.593374 -1.80497 0
M  V30 3147 H 291.406 0.913601 -3.77605 0
M  V30 3148 H 293.078 -1.64064 -4.31139 0
M  V30 3149 H 291.321 -1.6075 -4.02917 0
M  V30 3150 H 291.992 -0.817341 -5.45915 0
M  V30 3151 H 294.468 0.56986 -4.12179 0
M  V30 3152 H 293.344 1.18921 -5.35863 0
M  V30 3153 H 293.605 2.10939 -3.88532 0
M  V30 3154 N 292.664 1.56529 -0.183458 0
M  V30 3155 C 293.889 2.02064 0.467428 0
M  V30 3156 C 294.314 1.06282 1.55196 0
M  V30 3157 O 293.672 0.0443565 1.81246 0
M  V30 3158 C 293.72 3.46122 1.01153 0
M  V30 3159 O 292.824 3.53437 2.12499 0
M  V30 3160 H 292.165 0.654726 0.110588 0
M  V30 3161 H 294.695 2.02521 -0.290917 0
M  V30 3162 H 294.705 3.85676 1.33108 0
M  V30 3163 H 293.38 4.15331 0.217533 0
M  V30 3164 H 291.957 3.2575 1.81497 0
M  V30 3165 N 294.142 -0.090211 1.57342 0
M  V30 3166 C 295.388 -0.793982 1.86611 0
M  V30 3167 C 295.721 -1.78142 0.773252 0
M  V30 3168 O 294.996 -1.93271 -0.218304 0
M  V30 3169 C 295.279 -1.51839 3.26523 0
M  V30 3170 C 295.132 -0.548609 4.46442 0
M  V30 3171 C 296.451 -2.46779 3.64401 0
M  V30 3172 H 293.57 -0.287186 0.678744 0
M  V30 3173 H 296.212 -0.0575076 1.89913 0
M  V30 3174 H 294.362 -2.14617 3.23839 0
M  V30 3175 H 296.034 0.0725513 4.61243 0
M  V30 3176 H 294.277 0.137614 4.33582 0
M  V30 3177 H 294.948 -1.09271 5.41076 0
M  V30 3178 H 297.424 -1.94089 3.68061 0
M  V30 3179 H 296.3 -2.94479 4.63221 0
M  V30 3180 H 296.561 -3.30758 2.93346 0
M  V30 3181 N 295.62 -1.53406 -0.361157 0
M  V30 3182 C 297.036 -1.43277 -0.703124 0
M  V30 3183 C 297.236 -0.575384 -1.9311 0
M  V30 3184 O 296.292 -0.0595362 -2.5243 0
M  V30 3185 C 297.605 -2.8653 -0.9122 0
M  V30 3186 C 299.153 -2.96191 -1.01193 0
M  V30 3187 C 299.628 -4.40514 -1.25345 0
M  V30 3188 N 301.119 -4.43962 -1.32105 0
M  V30 3189 C 301.854 -5.52746 -1.5251 0
M  V30 3190 N 301.35 -6.71567 -1.70203 0
M  V30 3191 N 303.143 -5.40331 -1.54916 0
M  V30 3192 H 295.294 -2.07654 0.446475 0
M  V30 3193 H 297.557 -0.937944 0.137715 0
M  V30 3194 H 297.263 -3.51605 -0.0816414 0
M  V30 3195 H 297.137 -3.30441 -1.81903 0
M  V30 3196 H 299.524 -2.31266 -1.83303 0
M  V30 3197 H 299.605 -2.55667 -0.0823929 0
M  V30 3198 H 299.249 -5.06014 -0.437346 0
M  V30 3199 H 299.179 -4.78614 -2.19627 0
M  V30 3200 H 301.67 -3.58332 -1.20028 0
M  V30 3201 H 301.983 -7.50241 -1.85359 0
M  V30 3202 H 300.328 -6.74545 -1.67373 0
M  V30 3203 H 303.519 -4.46465 -1.40663 0
M  V30 3204 H 303.692 -6.25173 -1.70477 0
M  V30 3205 N 297.098 0.621204 -1.44841 0
M  V30 3206 C 298.344 1.3826 -1.48365 0
M  V30 3207 C 298.677 1.93831 -0.119624 0
M  V30 3208 O 297.952 1.74251 0.864111 0
M  V30 3209 C 298.235 2.54058 -2.55199 0
M  V30 3210 C 298.088 2.03772 -4.00995 0
M  V30 3211 C 299.407 3.56225 -2.58442 0
M  V30 3212 H 296.526 0.501374 -0.540179 0
M  V30 3213 H 299.168 0.7015 -1.76576 0
M  V30 3214 H 297.318 3.12162 -2.31274 0
M  V30 3215 H 298.99 1.50423 -4.36086 0
M  V30 3216 H 297.233 1.34876 -4.12299 0
M  V30 3217 H 297.904 2.87185 -4.71411 0
M  V30 3218 H 300.38 3.07939 -2.79844 0
M  V30 3219 H 299.256 4.34756 -3.3508 0
M  V30 3220 H 299.517 4.10949 -1.63013 0
M  V30 3221 N 298.576 1.31904 0.862503 0
M  V30 3222 C 299.823 1.22017 1.61611 0
M  V30 3223 C 300.151 -0.21991 1.93253 0
M  V30 3224 O 299.406 -1.17076 1.56817 0
M  V30 3225 C 299.705 2.01713 2.95037 0
M  V30 3226 C 299.371 3.51145 2.82857 0
M  V30 3227 C 298.033 3.91889 2.79243 0
M  V30 3228 C 300.385 4.46204 2.69353 0
M  V30 3229 C 297.713 5.25947 2.59993 0
M  V30 3230 C 300.065 5.80397 2.5164 0
M  V30 3231 C 298.729 6.20352 2.46413 0
M  V30 3232 H 297.999 0.44649 0.591378 0
M  V30 3233 H 300.646 1.63248 1.00111 0
M  V30 3234 H 298.951 1.53185 3.60613 0
M  V30 3235 H 300.648 1.91437 3.52353 0
M  V30 3236 H 297.238 3.1878 2.86491 0
M  V30 3237 H 301.422 4.15652 2.71196 0
M  V30 3238 H 296.678 5.5597 2.54376 0
M  V30 3239 H 300.852 6.53676 2.40169 0
M  V30 3240 H 298.479 7.24172 2.31256 0
M  V30 3241 N 300.054 -1.07777 1.14986 0
M  V30 3242 C 301.284 -1.83752 0.944402 0
M  V30 3243 C 301.692 -1.8218 -0.51058 0
M  V30 3244 O 301.035 -1.22852 -1.36576 0
M  V30 3245 C 301.097 -3.32128 1.37592 0
M  V30 3246 C 300.761 -3.57425 2.84775 0
M  V30 3247 C 301.758 -3.5173 3.8286 0
M  V30 3248 C 299.443 -3.8523 3.2234 0
M  V30 3249 C 301.437 -3.73482 5.16517 0
M  V30 3250 C 299.124 -4.06634 4.56171 0
M  V30 3251 C 300.122 -4.00754 5.53069 0
M  V30 3252 O 299.81 -4.2159 6.84483 0
M  V30 3253 H 299.542 -0.58673 0.335744 0
M  V30 3254 H 302.096 -1.36982 1.53052 0
M  V30 3255 H 300.326 -3.79686 0.733165 0
M  V30 3256 H 302.015 -3.89555 1.14024 0
M  V30 3257 H 302.781 -3.30256 3.55184 0
M  V30 3258 H 298.66 -3.88923 2.47508 0
M  V30 3259 H 302.204 -3.68808 5.92137 0
M  V30 3260 H 298.101 -4.27593 4.83564 0
M  V30 3261 H 298.869 -4.38961 6.90837 0
M  V30 3262 N 301.532 -0.945985 -1.26051 0
M  V30 3263 C 302.479 -0.45809 -2.26208 0
M  V30 3264 C 303.449 0.484816 -1.58867 0
M  V30 3265 O 304.634 0.399969 -1.86561 0
M  V30 3266 C 301.774 0.266131 -3.44072 0
M  V30 3267 C 300.887 -0.713005 -4.26075 0
M  V30 3268 C 300.022 0.0329013 -5.3119 0
M  V30 3269 C 299.061 -0.93774 -6.04874 0
M  V30 3270 N 298.198 -0.223274 -7.01745 0
M  V30 3271 H 303.038 -1.3171 -2.67313 0
M  V30 3272 H 300.575 -0.66069 -1.31428 0
M  V30 3273 H 302.533 0.702514 -4.11243 0
M  V30 3274 H 301.163 1.08925 -3.03867 0
M  V30 3275 H 300.215 -1.26789 -3.58648 0
M  V30 3276 H 301.527 -1.45406 -4.77136 0
M  V30 3277 H 300.681 0.528335 -6.04395 0
M  V30 3278 H 299.42 0.806801 -4.8098 0
M  V30 3279 H 298.425 -1.44425 -5.30492 0
M  V30 3280 H 299.65 -1.71172 -6.57173 0
M  V30 3281 H 297.596 0.532046 -6.53839 0
M  V30 3282 H 297.513 -0.90357 -7.50581 0
M  V30 3283 H 298.781 0.250907 -7.79096 0
M  V30 3284 N 303.011 1.40521 -0.713556 0
M  V30 3285 C 303.958 2.30723 -0.059684 0
M  V30 3286 C 304.928 1.48079 0.752448 0
M  V30 3287 O 306.113 1.76823 0.71681 0
M  V30 3288 C 303.253 3.34274 0.857594 0
M  V30 3289 C 302.366 4.31986 0.0351536 0
M  V30 3290 C 301.501 5.22605 0.951724 0
M  V30 3291 C 300.54 6.11976 0.123253 0
M  V30 3292 N 299.677 6.9502 0.99459 0
M  V30 3293 H 304.517 2.86074 -0.834596 0
M  V30 3294 H 302.054 1.40879 -0.42326 0
M  V30 3295 H 304.012 3.92879 1.40364 0
M  V30 3296 H 302.642 2.8043 1.59871 0
M  V30 3297 H 301.694 3.7518 -0.628052 0
M  V30 3298 H 303.006 4.95101 -0.606347 0
M  V30 3299 H 302.16 5.86131 1.56638 0
M  V30 3300 H 300.899 4.59759 1.62705 0
M  V30 3301 H 299.904 5.47482 -0.50435 0
M  V30 3302 H 301.129 6.76881 -0.548539 0
M  V30 3303 H 299.075 6.34764 1.6556 0
M  V30 3304 H 298.992 7.54892 0.40908 0
M  V30 3305 H 300.26 7.62997 1.59549 0
M  V30 3306 N 304.489 0.459591 1.5075 0
M  V30 3307 C 305.729 -0.09824 2.04164 0
M  V30 3308 C 306.093 -1.3801 1.33481 0
M  V30 3309 O 307.294 -2.01959 1.77387 0
M  V30 3310 C 305.565 -0.289467 3.56226 0
M  V30 3311 S 307.124 -0.807507 4.31306 0
M  V30 3312 H 303.942 -0.0213845 0.710678 0
M  V30 3313 H 306.544 0.624098 1.85271 0
M  V30 3314 H 305.248 0.649461 4.05229 0
M  V30 3315 H 304.779 -1.03825 3.79452 0
M  V30 3316 H 306.794 -2.0824 4.50389 0
M  V30 3317 N 305.967 -1.56429 0.191757 0
M  V30 3318 C 307.378 -1.83912 -0.321428 0
M  V30 3319 C 307.729 -1.11231 -1.61623 0
M  V30 3320 O 306.854 -0.37202 -2.13178 0
M  V30 3321 C 307.449 -3.33624 -0.589961 0
M  V30 3322 C 306.008 -3.6153 -1.04753 0
M  V30 3323 C 305.155 -2.7714 -0.0943327 0
M  V30 3324 H 308.106 -1.53161 0.415612 0
M  V30 3325 H 308.127 -3.52213 -1.43966 0
M  V30 3326 H 307.639 -3.86495 0.352588 0
M  V30 3327 H 305.74 -3.14089 -2.00447 0
M  V30 3328 H 305.853 -4.69737 -0.942549 0
M  V30 3329 H 304.217 -2.47638 -0.595589 0
M  V30 3330 H 305 -3.32799 0.842601 0
M  V30 3331 N 307.445 0.0818655 -1.57387 0
M  V30 3332 C 308.692 0.782914 -1.86753 0
M  V30 3333 C 309.02 1.78082 -0.782118 0
M  V30 3334 O 308.275 1.94426 0.22295 0
M  V30 3335 C 308.574 1.53513 -3.22752 0
M  V30 3336 C 308.24 0.678134 -4.45771 0
M  V30 3337 C 306.902 0.441929 -4.79166 0
M  V30 3338 C 309.254 0.0832243 -5.21134 0
M  V30 3339 C 306.582 -0.398833 -5.85343 0
M  V30 3340 C 308.934 -0.744935 -6.28199 0
M  V30 3341 C 307.598 -0.991107 -6.60101 0
M  V30 3342 H 306.868 0.286489 -0.683378 0
M  V30 3343 H 309.515 0.0439808 -1.91449 0
M  V30 3344 H 307.82 2.34599 -3.138 0
M  V30 3345 H 309.517 2.08218 -3.42705 0
M  V30 3346 H 306.107 0.872357 -4.19628 0
M  V30 3347 H 310.291 0.252847 -4.95655 0
M  V30 3348 H 305.547 -0.598405 -6.08465 0
M  V30 3349 H 309.721 -1.21271 -6.8576 0
M  V30 3350 H 307.348 -1.64437 -7.42202 0
M  V30 3351 N 308.923 1.53595 0.353017 0
M  V30 3352 C 310.151 1.74311 1.1146 0
M  V30 3353 C 310.566 0.477854 1.82653 0
M  V30 3354 O 309.923 -0.549977 1.74016 0
M  V30 3355 C 309.974 2.91694 2.13534 0
M  V30 3356 O 309.695 4.13325 1.45238 0
M  V30 3357 C 311.196 3.24384 3.02142 0
M  V30 3358 H 308.416 0.582669 0.332773 0
M  V30 3359 H 310.96 2.00386 0.408107 0
M  V30 3360 H 309.115 2.67977 2.79763 0
M  V30 3361 H 309.529 4.79148 2.13349 0
M  V30 3362 H 311.003 4.09893 3.69718 0
M  V30 3363 H 311.48 2.40282 3.67643 0
M  V30 3364 H 312.086 3.50073 2.41514 0
M  V30 3365 N 310.401 -0.613514 1.45168 0
M  V30 3366 C 311.647 -1.37471 1.49096 0
M  V30 3367 C 311.98 -1.93765 0.129901 0
M  V30 3368 O 311.255 -1.74707 -0.854858 0
M  V30 3369 C 311.538 -2.52701 2.56542 0
M  V30 3370 C 311.391 -2.01643 4.0207 0
M  V30 3371 C 312.71 -3.54849 2.60327 0
M  V30 3372 H 309.829 -0.498502 0.54283 0
M  V30 3373 H 312.471 -0.692125 1.76945 0
M  V30 3374 H 310.621 -3.10931 2.32926 0
M  V30 3375 H 312.293 -1.48108 4.36877 0
M  V30 3376 H 310.536 -1.32688 4.13009 0
M  V30 3377 H 311.207 -2.84681 4.72928 0
M  V30 3378 H 313.683 -3.0645 2.81474 0
M  V30 3379 H 312.559 -4.32973 3.37381 0
M  V30 3380 H 312.82 -4.10079 1.6519 0
M  V30 3381 N 311.879 -1.3236 -0.855495 0
M  V30 3382 C 313.295 -1.11332 -1.14356 0
M  V30 3383 C 313.495 0.106751 -2.01217 0
M  V30 3384 O 312.551 0.791891 -2.39761 0
M  V30 3385 C 313.864 -2.39237 -1.82171 0
M  V30 3386 C 315.412 -2.44986 -1.9481 0
M  V30 3387 C 315.887 -3.7281 -2.66039 0
M  V30 3388 N 317.378 -3.73787 -2.73565 0
M  V30 3389 C 318.113 -4.69394 -3.29327 0
M  V30 3390 N 317.609 -5.75367 -3.85907 0
M  V30 3391 N 319.402 -4.56893 -3.27423 0
M  V30 3392 H 311.553 -2.10586 -0.277027 0
M  V30 3393 H 313.816 -0.929701 -0.185364 0
M  V30 3394 H 313.522 -3.28431 -1.25802 0
M  V30 3395 H 313.396 -2.50134 -2.82335 0
M  V30 3396 H 315.783 -1.56252 -2.50338 0
M  V30 3397 H 315.864 -2.38043 -0.936448 0
M  V30 3398 H 315.508 -4.61918 -2.11174 0
M  V30 3399 H 315.438 -3.77024 -3.67642 0
M  V30 3400 H 317.929 -2.97189 -2.33424 0
M  V30 3401 H 318.242 -6.44378 -4.26611 0
M  V30 3402 H 316.587 -5.79123 -3.84242 0
M  V30 3403 H 319.778 -3.73269 -2.82467 0
M  V30 3404 H 319.951 -5.31577 -3.7058 0
M  V30 3405 N 313.357 1.07166 -1.15556 0
M  V30 3406 C 314.305 2.16517 -0.8499 0
M  V30 3407 C 315.299 1.68468 0.177454 0
M  V30 3408 O 316.505 1.79971 0.0323026 0
M  V30 3409 H 312.88 0.706652 -0.25719 0
M  V30 3410 H 314.851 2.39514 -1.77976 0
M  V30 3411 C 313.6 3.45855 -0.357682 0
M  V30 3412 H 312.923 3.83214 -1.13961 0
M  V30 3413 H 314.363 4.23607 -0.182489 0
M  V30 3414 C 312.822 3.24062 0.921152 0
M  V30 3415 O 313.352 3.48813 1.9923 0
M  V30 3416 N 311.558 2.77539 0.86141 0
M  V30 3417 H 311.105 2.57598 -0.0104408 0
M  V30 3418 H 311.063 2.63337 1.71758 0
M  V30 3419 N 314.835 0.952656 1.25548 0
M  V30 3420 C 315.765 0.489287 2.28316 0
M  V30 3421 C 316.746 -0.463359 1.63667 0
M  V30 3422 O 317.931 -0.36274 1.90782 0
M  V30 3423 C 315.061 -0.235603 3.465 0
M  V30 3424 C 314.015 0.631593 4.23314 0
M  V30 3425 C 313.341 -0.223923 5.34231 0
M  V30 3426 C 314.641 1.90871 4.86174 0
M  V30 3427 H 316.335 1.34822 2.67326 0
M  V30 3428 H 313.881 0.649728 1.28509 0
M  V30 3429 H 315.834 -0.570882 4.17515 0
M  V30 3430 H 314.558 -1.12877 3.06474 0
M  V30 3431 H 313.217 0.949929 3.54079 0
M  V30 3432 H 312.865 -1.11678 4.90446 0
M  V30 3433 H 312.565 0.35299 5.86539 0
M  V30 3434 H 314.089 -0.554214 6.0808 0
M  V30 3435 H 315.503 1.63997 5.49343 0
M  V30 3436 H 313.9 2.43112 5.4865 0
M  V30 3437 H 314.97 2.61304 4.08471 0
M  V30 3438 N 316.313 -1.40141 0.720998 0
M  V30 3439 C 317.276 -2.29058 0.0805834 0
M  V30 3440 C 318.276 -1.45632 -0.681758 0
M  V30 3441 O 319.466 -1.6648 -0.512856 0
M  V30 3442 C 316.598 -3.28925 -0.895593 0
M  V30 3443 H 317.791 -2.87191 0.863793 0
M  V30 3444 H 315.344 -1.48553 0.485975 0
M  V30 3445 H 316.079 -2.75822 -1.70566 0
M  V30 3446 H 315.864 -3.90519 -0.351766 0
M  V30 3447 H 317.354 -3.95494 -1.34069 0
M  V30 3448 N 317.792 -0.46758 -1.50504 0
M  V30 3449 C 318.725 0.374324 -2.25109 0
M  V30 3450 C 319.703 0.99921 -1.28275 0
M  V30 3451 O 320.887 1.03583 -1.57489 0
M  V30 3452 C 318.014 1.52419 -3.02467 0
M  V30 3453 C 317.06 1.01702 -4.14197 0
M  V30 3454 S 317.893 -0.0654477 -5.3546 0
M  V30 3455 C 319.049 1.08837 -6.16365 0
M  V30 3456 H 319.282 -0.258983 -2.9617 0
M  V30 3457 H 316.815 -0.252421 -1.52323 0
M  V30 3458 H 318.773 2.18322 -3.47628 0
M  V30 3459 H 317.434 2.129 -2.30938 0
M  V30 3460 H 316.627 1.87776 -4.67714 0
M  V30 3461 H 316.229 0.435757 -3.71453 0
M  V30 3462 H 318.521 2.00071 -6.47285 0
M  V30 3463 H 319.464 0.592538 -7.05616 0
M  V30 3464 H 319.872 1.34061 -5.4835 0
M  V30 3465 N 319.27 1.56325 -0.20005 0
M  V30 3466 C 320.517 1.97719 0.437411 0
M  V30 3467 C 320.845 1.08709 1.61284 0
M  V30 3468 O 320.1 0.127261 1.95286 0
M  V30 3469 C 320.399 3.4495 0.935103 0
M  V30 3470 C 320.065 4.5072 -0.12749 0
M  V30 3471 C 318.727 4.79368 -0.419451 0
M  V30 3472 C 321.079 5.14268 -0.847231 0
M  V30 3473 C 318.407 5.68854 -1.43604 0
M  V30 3474 C 320.759 6.04852 -1.85301 0
M  V30 3475 C 319.423 6.31855 -2.15211 0
M  V30 3476 H 318.693 0.723507 0.16006 0
M  V30 3477 H 321.34 1.89166 -0.298056 0
M  V30 3478 H 319.645 3.50599 1.74894 0
M  V30 3479 H 321.342 3.74337 1.43781 0
M  V30 3480 H 317.932 4.28458 0.11023 0
M  V30 3481 H 322.116 4.92222 -0.634901 0
M  V30 3482 H 317.372 5.88047 -1.67364 0
M  V30 3483 H 321.546 6.53152 -2.41591 0
M  V30 3484 H 319.173 7.00994 -2.94129 0
M  V30 3485 N 320.748 -0.0735177 1.57428 0
M  V30 3486 C 322.159 -0.625551 1.75908 0
M  V30 3487 C 322.51 -1.78 0.825261 0
M  V30 3488 O 321.635 -2.16398 0.00893964 0
M  V30 3489 C 322.23 -1.14155 3.18989 0
M  V30 3490 C 320.789 -1.63946 3.38819 0
M  V30 3491 C 319.936 -0.558151 2.71625 0
M  V30 3492 H 322.887 0.152647 1.57964 0
M  V30 3493 H 322.908 -2.0104 3.23053 0
M  V30 3494 H 322.42 -0.301116 3.8693 0
M  V30 3495 H 320.521 -2.50321 2.7599 0
M  V30 3496 H 320.634 -1.71759 4.47253 0
M  V30 3497 H 318.998 -1.00278 2.34129 0
M  V30 3498 H 319.781 0.272071 3.4222 0
M  V30 3499 N 322.226 -1.5378 -0.344866 0
M  V30 3500 C 323.503 -1.61589 -1.10219 0
M  V30 3501 C 323.883 -0.436316 -2.06542 0
M  V30 3502 O 323.231 0.571543 -2.21237 0
M  V30 3503 C 323.441 -2.97602 -1.82301 0
M  V30 3504 C 324.789 -3.5291 -2.36093 0
M  V30 3505 O 325.813 -2.99768 -1.924 0
M  V30 3506 O 324.672 -4.45859 -3.16026 0
M  V30 3507 H 321.766 -0.653522 -0.506792 0
M  V30 3508 H 324.312 -1.66126 -0.346465 0
M  V30 3509 H 323.084 -3.74893 -1.12121 0
M  V30 3510 H 322.707 -2.9665 -2.64735 0
M  V30 3511 N 323.704 0.605807 -1.45491 0
M  V30 3512 C 324.932 1.39136 -1.5313 0
M  V30 3513 C 325.347 1.88082 -0.164507 0
M  V30 3514 O 324.704 1.62316 0.834247 0
M  V30 3515 C 324.755 2.59463 -2.51716 0
M  V30 3516 O 324.476 2.12551 -3.83084 0
M  V30 3517 C 325.977 3.52301 -2.6907 0
M  V30 3518 H 323.197 0.425849 -0.51855 0
M  V30 3519 H 325.741 0.73865 -1.90694 0
M  V30 3520 H 323.896 3.20772 -2.17219 0
M  V30 3521 H 324.31 2.90744 -4.36541 0
M  V30 3522 H 325.784 4.33271 -3.42024 0
M  V30 3523 H 326.261 4.02757 -1.75167 0
M  V30 3524 H 326.867 2.96845 -3.04571 0
M  V30 3525 N 325.182 1.32811 0.848464 0
M  V30 3526 C 326.431 1.23075 1.59798 0
M  V30 3527 C 326.744 -0.204419 1.94529 0
M  V30 3528 O 327.95 -0.423701 2.68173 0
M  V30 3529 C 326.406 2.15594 2.88179 0
M  V30 3530 C 326.014 3.64228 2.60849 0
M  V30 3531 C 327.758 2.14709 3.66197 0
M  V30 3532 C 325.665 4.48689 3.85269 0
M  V30 3533 H 324.595 0.457091 0.599653 0
M  V30 3534 H 327.246 1.57813 0.936342 0
M  V30 3535 H 325.628 1.73778 3.55833 0
M  V30 3536 H 326.802 4.14424 2.01467 0
M  V30 3537 H 325.117 3.67306 1.96151 0
M  V30 3538 H 327.714 2.75046 4.58534 0
M  V30 3539 H 328.057 1.13966 4.00397 0
M  V30 3540 H 328.59 2.54837 3.05455 0
M  V30 3541 H 325.329 5.5027 3.56207 0
M  V30 3542 H 324.849 4.03241 4.44024 0
M  V30 3543 H 326.528 4.62006 4.52946 0
M  V30 3544 N 326.66 -1.06551 1.16123 0
M  V30 3545 C 328.071 -1.60768 0.949232 0
M  V30 3546 C 328.422 -1.89523 -0.507508 0
M  V30 3547 O 327.547 -1.66671 -1.38021 0
M  V30 3548 C 328.142 -2.92086 1.71671 0
M  V30 3549 C 326.701 -3.43015 1.54977 0
M  V30 3550 C 325.848 -2.16947 1.72711 0
M  V30 3551 H 328.799 -0.895354 1.31031 0
M  V30 3552 H 328.82 -3.6138 1.19099 0
M  V30 3553 H 328.332 -2.71127 2.7769 0
M  V30 3554 H 326.433 -3.69039 0.513873 0
M  V30 3555 H 326.546 -4.18516 2.33198 0
M  V30 3556 H 324.91 -2.27041 1.15431 0
M  V30 3557 H 325.693 -1.98473 2.80113 0
M  V30 3558 N 328.138 -0.959301 -1.25041 0
M  V30 3559 C 329.554 -0.664474 -1.4511 0
M  V30 3560 C 329.754 0.776481 -1.85938 0
M  V30 3561 O 328.81 1.55128 -1.99227 0
M  V30 3562 C 330.123 -1.64139 -2.5195 0
M  V30 3563 C 331.671 -1.65309 -2.65786 0
M  V30 3564 C 332.146 -2.61777 -3.75815 0
M  V30 3565 N 333.637 -2.60169 -3.83231 0
M  V30 3566 C 334.372 -3.31489 -4.6787 0
M  V30 3567 N 333.868 -4.12298 -5.56761 0
M  V30 3568 N 335.661 -3.20354 -4.61876 0
M  V30 3569 H 327.812 -1.89043 -0.968332 0
M  V30 3570 H 330.075 -0.813408 -0.4869 0
M  V30 3571 H 329.781 -2.67086 -2.28819 0
M  V30 3572 H 329.655 -1.40756 -3.49954 0
M  V30 3573 H 332.042 -0.630778 -2.8828 0
M  V30 3574 H 332.123 -1.92753 -1.68167 0
M  V30 3575 H 331.767 -3.64137 -3.54071 0
M  V30 3576 H 331.697 -2.31616 -4.72929 0
M  V30 3577 H 334.188 -2.01507 -3.19692 0
M  V30 3578 H 334.501 -4.63625 -6.18281 0
M  V30 3579 H 332.846 -4.16395 -5.56454 0
M  V30 3580 H 336.037 -2.56692 -3.91442 0
M  V30 3581 H 336.21 -3.76201 -5.27614 0
M  V30 3582 N 329.616 1.39756 -0.72842 0
M  V30 3583 C 330.862 2.00942 -0.273892 0
M  V30 3584 C 331.195 1.57656 1.13394 0
M  V30 3585 O 330.47 0.802434 1.77176 0
M  V30 3586 C 330.753 3.58211 -0.368346 0
M  V30 3587 C 330.606 4.11534 -1.81548 0
M  V30 3588 C 331.925 4.39372 0.253054 0
M  V30 3589 H 329.044 0.730047 -0.100996 0
M  V30 3590 H 331.686 1.66056 -0.923337 0
M  V30 3591 H 329.836 3.88061 0.184588 0
M  V30 3592 H 331.508 3.92431 -2.42478 0
M  V30 3593 H 329.751 3.65341 -2.33898 0
M  V30 3594 H 330.422 5.20682 -1.83288 0
M  V30 3595 H 332.898 4.15527 -0.218224 0
M  V30 3596 H 331.774 5.48677 0.156585 0
M  V30 3597 H 332.035 4.21358 1.33826 0
M  V30 3598 N 331.094 0.475555 1.50254 0
M  V30 3599 C 332.371 -0.139685 1.95101 0
M  V30 3600 C 332.751 -1.56555 1.41611 0
M  V30 3601 O 332.099 -2.19956 0.618993 0
M  V30 3602 C 332.309 -0.0784298 3.48912 0
M  V30 3603 C 333.657 -0.265095 4.23772 0
M  V30 3604 O 334.681 -0.154808 3.55863 0
M  V30 3605 O 333.54 -0.488327 5.44314 0
M  V30 3606 H 330.634 -0.109236 0.819754 0
M  V30 3607 H 333.18 0.536276 1.61004 0
M  V30 3608 H 331.952 0.916918 3.80405 0
M  V30 3609 H 331.575 -0.795655 3.89558 0
M  V30 3610 N 332.573 -1.56217 0.208337 0
M  V30 3611 C 333.798 -2.02782 -0.435222 0
M  V30 3612 C 334.223 -1.08738 -1.53485 0
M  V30 3613 O 333.581 -0.0731855 -1.81152 0
M  V30 3614 C 333.629 -3.47687 -0.956335 0
M  V30 3615 O 332.733 -3.56773 -2.06849 0
M  V30 3616 H 332.074 -0.656403 -0.100158 0
M  V30 3617 H 334.604 -2.02033 0.3231 0
M  V30 3618 H 334.614 -3.87745 -1.26955 0
M  V30 3619 H 333.289 -4.15624 -0.15143 0
M  V30 3620 H 331.866 -3.28597 -1.76292 0
M  V30 3621 N 334.051 0.0651679 -1.57465 0
M  V30 3622 C 335.276 0.779605 -1.9219 0
M  V30 3623 C 335.701 1.69988 -0.805333 0
M  V30 3624 O 335.059 1.79685 0.241435 0
M  V30 3625 C 335.107 1.54364 -3.2589 0
M  V30 3626 O 334.211 2.65474 -3.1559 0
M  V30 3627 H 333.552 0.212249 -0.629163 0
M  V30 3628 H 336.082 0.0314294 -2.04576 0
M  V30 3629 H 336.092 1.92146 -3.59922 0
M  V30 3630 H 334.767 0.868457 -4.06732 0
M  V30 3631 H 333.344 2.30501 -2.93128 0
M  V30 3632 N 335.529 1.53961 0.336706 0
M  V30 3633 C 336.754 1.75797 1.10046 0
M  V30 3634 C 337.179 0.498985 1.81361 0
M  V30 3635 O 336.537 -0.548769 1.72795 0
M  V30 3636 C 336.585 2.94257 2.08436 0
M  V30 3637 O 335.689 2.64883 3.16087 0
M  V30 3638 H 335.03 0.582936 0.317934 0
M  V30 3639 H 337.56 2.00945 0.38501 0
M  V30 3640 H 337.57 3.21237 2.51537 0
M  V30 3641 H 336.245 3.85564 1.55927 0
M  V30 3642 H 334.822 2.48812 2.77753 0
M  V30 3643 N 337.007 -0.598083 1.45811 0
M  V30 3644 C 337.937 -1.71873 1.58057 0
M  V30 3645 C 338.918 -1.64533 0.431615 0
M  V30 3646 O 340.103 -1.82787 0.65595 0
M  V30 3647 C 337.233 -3.10495 1.55597 0
M  V30 3648 C 336.187 -3.32654 2.69305 0
M  V30 3649 C 335.513 -4.71646 2.51902 0
M  V30 3650 C 336.813 -3.21981 4.11248 0
M  V30 3651 H 338.507 -1.61881 2.51863 0
M  V30 3652 H 336.053 -0.777372 1.21214 0
M  V30 3653 H 338.006 -3.88699 1.6276 0
M  V30 3654 H 336.73 -3.2135 0.583255 0
M  V30 3655 H 335.389 -2.56843 2.61586 0
M  V30 3656 H 335.037 -4.79246 1.52748 0
M  V30 3657 H 334.737 -4.87426 3.2816 0
M  V30 3658 H 336.261 -5.52038 2.60933 0
M  V30 3659 H 337.675 -3.90049 4.20161 0
M  V30 3660 H 336.072 -3.49289 4.87972 0
M  V30 3661 H 337.142 -2.1928 4.32486 0
M  V30 3662 N 338.485 -1.33259 -0.841409 0
M  V30 3663 C 339.731 -1.24757 -1.59886 0
M  V30 3664 C 340.064 0.186913 -1.93298 0
M  V30 3665 O 339.339 1.12757 -1.5848 0
M  V30 3666 C 339.622 -2.12036 -2.91055 0
M  V30 3667 C 339.475 -3.63929 -2.6434 0
M  V30 3668 C 340.794 -1.9916 -3.92458 0
M  V30 3669 H 337.913 -0.454542 -0.580138 0
M  V30 3670 H 340.555 -1.63335 -0.970647 0
M  V30 3671 H 338.705 -1.79265 -3.44669 0
M  V30 3672 H 340.377 -4.06978 -2.17178 0
M  V30 3673 H 338.62 -3.85935 -1.98082 0
M  V30 3674 H 339.291 -4.20341 -3.57796 0
M  V30 3675 H 341.767 -2.27895 -3.48143 0
M  V30 3676 H 340.643 -2.62484 -4.82072 0
M  V30 3677 H 340.904 -0.963082 -4.31482 0
M  V30 3678 N 339.963 1.05934 -1.16686 0
M  V30 3679 C 340.873 2.17014 -0.891183 0
M  V30 3680 C 341.889 1.73453 0.137907 0
M  V30 3681 O 343.065 2.01361 -0.039592 0
M  V30 3682 C 340.13 3.44384 -0.400099 0
M  V30 3683 C 339.191 4.02433 -1.49486 0
M  V30 3684 C 338.424 5.23723 -1.02711 0
M  V30 3685 O 338.647 5.7027 0.121716 0
M  V30 3686 O 337.581 5.7382 -1.81699 0
M  V30 3687 H 341.407 2.43113 -1.82015 0
M  V30 3688 H 338.992 1.15541 -0.947132 0
M  V30 3689 H 340.874 4.21189 -0.133392 0
M  V30 3690 H 339.549 3.19802 0.500817 0
M  V30 3691 H 338.456 3.27102 -1.81535 0
M  V30 3692 H 339.789 4.31317 -2.37121 0
M  V30 3693 N 341.441 0.965919 1.2453 0
M  V30 3694 C 342.687 0.62776 1.92839 0
M  V30 3695 C 343.02 -0.834694 1.75347 0
M  V30 3696 O 342.295 -1.60031 1.10546 0
M  V30 3697 C 342.578 1.00109 3.45905 0
M  V30 3698 C 342.431 2.52011 3.72573 0
M  V30 3699 C 343.75 0.53435 4.36844 0
M  V30 3700 H 340.869 0.229537 0.700344 0
M  V30 3701 H 343.511 1.2046 1.46933 0
M  V30 3702 H 341.661 0.510238 3.85135 0
M  V30 3703 H 343.333 3.08559 3.42912 0
M  V30 3704 H 341.576 2.95287 3.17786 0
M  V30 3705 H 342.247 2.73183 4.79661 0
M  V30 3706 H 344.723 0.955565 4.04979 0
M  V30 3707 H 343.599 0.824152 5.42678 0
M  V30 3708 H 343.86 -0.565589 4.38467 0
M  V30 3709 N 342.919 -1.39368 0.735821 0
M  V30 3710 C 344.335 -1.54204 0.411492 0
M  V30 3711 C 344.535 -1.70268 -1.07755 0
M  V30 3712 O 343.591 -1.70364 -1.86366 0
M  V30 3713 C 344.904 -2.75925 1.19523 0
M  V30 3714 C 346.452 -2.89761 1.18354 0
M  V30 3715 C 346.927 -4.14421 1.94986 0
M  V30 3716 N 348.418 -4.21462 1.92156 0
M  V30 3717 C 349.153 -5.16871 2.48258 0
M  V30 3718 N 348.649 -6.18063 3.13001 0
M  V30 3719 N 350.442 -5.09093 2.38287 0
M  V30 3720 H 342.593 -1.27189 1.70108 0
M  V30 3721 H 344.856 -0.616517 0.720147 0
M  V30 3722 H 344.562 -2.70401 2.24892 0
M  V30 3723 H 344.436 -3.68614 0.800222 0
M  V30 3724 H 346.823 -2.94777 0.137975 0
M  V30 3725 H 346.904 -1.98133 1.61793 0
M  V30 3726 H 346.548 -4.10166 2.99543 0
M  V30 3727 H 346.478 -5.05095 1.48953 0
M  V30 3728 H 348.969 -3.48979 1.44991 0
M  V30 3729 H 349.282 -6.87326 3.53275 0
M  V30 3730 H 347.627 -6.18448 3.17091 0
M  V30 3731 H 350.818 -4.28973 1.8735 0
M  V30 3732 H 350.991 -5.83272 2.82308 0
M  V30 3733 N 344.397 -0.483516 -1.5 0
M  V30 3734 C 345.645 0.067027 -2.01989 0
M  V30 3735 C 345.966 1.3909 -1.36671 0
M  V30 3736 O 345.236 1.88978 -0.516152 0
M  V30 3737 H 343.816 0.0277606 -0.746484 0
M  V30 3738 H 346.478 -0.636773 -1.84204 0
M  V30 3739 H 345.574 0.209484 -3.11396 0
M  V30 3740 N 345.875 1.56104 -0.216619 0
M  V30 3741 C 347.1 2.0301 0.424462 0
M  V30 3742 C 347.525 1.0955 1.52907 0
M  V30 3743 O 346.883 0.0827914 1.81111 0
M  V30 3744 C 346.931 3.4819 0.937883 0
M  V30 3745 O 346.035 3.57865 2.04955 0
M  V30 3746 H 345.376 0.656925 0.0966755 0
M  V30 3747 H 347.906 2.01859 -0.33381 0
M  V30 3748 H 347.916 3.88413 1.24897 0
M  V30 3749 H 346.591 4.15699 0.129387 0
M  V30 3750 H 345.168 3.29527 1.74546 0
M  V30 3751 N 347.353 -0.0568162 1.57498 0
M  V30 3752 C 348.593 -0.758273 1.89815 0
M  V30 3753 C 348.957 -1.73978 0.812132 0
M  V30 3754 O 350.158 -2.48744 1.01881 0
M  V30 3755 C 348.429 -1.43465 3.27342 0
M  V30 3756 S 349.988 -2.1691 3.81439 0
M  V30 3757 H 346.806 -0.251836 0.664906 0
M  V30 3758 H 349.408 -0.0137997 1.95495 0
M  V30 3759 H 348.112 -0.706693 4.0427 0
M  V30 3760 H 347.643 -2.21825 3.24896 0
M  V30 3761 H 349.658 -3.43658 3.5793 0
M  V30 3762 N 348.832 -1.54138 -0.328536 0
M  V30 3763 C 350.078 -1.7236 -1.06865 0
M  V30 3764 C 350.411 -0.493231 -1.87832 0
M  V30 3765 O 349.686 0.5098 -1.877 0
M  V30 3766 C 349.969 -2.99621 -1.99747 0
M  V30 3767 C 349.822 -4.32899 -1.22143 0
M  V30 3768 C 351.141 -3.22615 -2.99345 0
M  V30 3769 H 348.26 -0.627151 -0.387105 0
M  V30 3770 H 350.902 -1.86827 -0.345767 0
M  V30 3771 H 349.052 -2.87418 -2.61387 0
M  V30 3772 H 350.724 -4.56978 -0.630017 0
M  V30 3773 H 348.967 -4.30628 -0.523628 0
M  V30 3774 H 349.638 -5.18154 -1.90318 0
M  V30 3775 H 352.114 -3.34248 -2.47826 0
M  V30 3776 H 350.99 -4.13027 -3.61524 0
M  V30 3777 H 351.251 -2.3961 -3.71536 0
M  V30 3778 N 350.31 0.590341 -1.46126 0
M  V30 3779 C 351.257 1.69994 -1.56111 0
M  V30 3780 C 352.227 1.61065 -0.405867 0
M  V30 3781 O 353.412 1.8039 -0.621613 0
M  V30 3782 C 350.552 3.08326 -1.55013 0
M  V30 3783 C 349.665 3.27936 -2.81215 0
M  V30 3784 C 348.8 4.56473 -2.71673 0
M  V30 3785 C 347.839 4.694 -3.92849 0
M  V30 3786 N 346.976 5.89254 -3.81738 0
M  V30 3787 H 351.816 1.60797 -2.50895 0
M  V30 3788 H 349.353 0.783799 -1.24479 0
M  V30 3789 H 351.311 3.88383 -1.52362 0
M  V30 3790 H 349.941 3.16439 -0.637667 0
M  V30 3791 H 348.993 2.41536 -2.93879 0
M  V30 3792 H 350.305 3.33357 -3.71045 0
M  V30 3793 H 349.459 5.44748 -2.67085 0
M  V30 3794 H 348.198 4.53477 -1.7947 0
M  V30 3795 H 347.203 3.79544 -3.97777 0
M  V30 3796 H 348.428 4.7418 -4.86138 0
M  V30 3797 H 346.374 5.87271 -2.92317 0
M  V30 3798 H 346.291 5.95911 -4.65217 0
M  V30 3799 H 347.559 6.79981 -3.81112 0
M  V30 3800 N 351.788 1.33704 0.83433 0
M  V30 3801 C 353.013 1.28615 1.62705 0
M  V30 3802 C 353.438 -0.139242 1.87584 0
M  V30 3803 O 352.796 -1.09734 1.4432 0
M  V30 3804 C 352.844 2.07139 2.95171 0
M  V30 3805 O 351.948 1.4331 3.86699 0
M  V30 3806 H 351.289 0.44226 0.49528 0
M  V30 3807 H 353.819 1.76335 1.03766 0
M  V30 3808 H 353.829 2.18073 3.44831 0
M  V30 3809 H 352.504 3.10779 2.76386 0
M  V30 3810 H 351.081 1.4105 3.45195 0
M  V30 3811 N 353.266 -1.05314 1.17247 0
M  V30 3812 C 354.229 -2.112 0.890357 0
M  V30 3813 C 355.229 -1.60359 -0.118943 0
M  V30 3814 O 356.419 -1.73833 0.113086 0
M  V30 3815 C 353.551 -3.39266 0.333422 0
M  V30 3816 H 354.744 -2.37659 1.82916 0
M  V30 3817 H 352.297 -1.21538 0.982758 0
M  V30 3818 H 353.032 -3.18462 -0.612587 0
M  V30 3819 H 352.817 -3.77477 1.06082 0
M  V30 3820 H 354.307 -4.17315 0.154322 0
M  V30 3821 N 354.744 -0.972509 -1.24016 0
M  V30 3822 C 355.654 -0.5143 -2.28893 0
M  V30 3823 C 356.67 0.427078 -1.68677 0
M  V30 3824 O 357.846 0.298939 -1.99169 0
M  V30 3825 C 354.911 0.183598 -3.46214 0
M  V30 3826 C 353.972 -0.798202 -4.21814 0
M  V30 3827 C 353.205 -0.133514 -5.33533 0
M  V30 3828 O 353.428 1.07714 -5.60137 0
M  V30 3829 O 352.362 -0.828103 -5.96176 0
M  V30 3830 H 356.188 -1.38629 -2.70214 0
M  V30 3831 H 353.773 -0.739769 -1.29799 0
M  V30 3832 H 355.655 0.575433 -4.17453 0
M  V30 3833 H 354.33 1.03048 -3.0686 0
M  V30 3834 H 353.237 -1.24059 -3.52931 0
M  V30 3835 H 354.57 -1.61364 -4.64997 0
M  V30 3836 N 356.222 1.38976 -0.743202 0
M  V30 3837 C 357.132 2.3434 -0.110399 0
M  V30 3838 C 358.148 1.58741 0.712559 0
M  V30 3839 O 359.324 1.9099 0.639125 0
M  V30 3840 C 356.389 3.37812 0.780012 0
M  V30 3841 C 355.45 4.29263 -0.0561319 0
M  V30 3842 C 354.683 5.27793 0.791875 0
M  V30 3843 O 354.906 5.33043 2.03031 0
M  V30 3844 O 353.84 6.01512 0.216183 0
M  V30 3845 H 357.666 2.90129 -0.897714 0
M  V30 3846 H 355.251 1.40643 -0.503966 0
M  V30 3847 H 357.133 4.01194 1.28923 0
M  V30 3848 H 355.808 2.84395 1.546 0
M  V30 3849 H 354.715 3.69076 -0.611056 0
M  V30 3850 H 356.048 4.85907 -0.784531 0
M  V30 3851 N 357.7 0.491464 1.49741 0
M  V30 3852 C 359.116 0.146835 1.58923 0
M  V30 3853 C 359.316 -1.34804 1.49767 0
M  V30 3854 O 358.372 -2.12317 1.36667 0
M  V30 3855 C 359.685 0.715157 2.92072 0
M  V30 3856 C 361.233 0.680407 3.05515 0
M  V30 3857 C 361.708 1.22663 4.41269 0
M  V30 3858 N 363.199 1.18691 4.47735 0
M  V30 3859 C 363.934 1.57984 5.51207 0
M  V30 3860 N 363.43 2.04824 6.6183 0
M  V30 3861 N 365.223 1.49459 5.41866 0
M  V30 3862 H 357.374 1.46347 1.53936 0
M  V30 3863 H 359.637 0.606453 0.728642 0
M  V30 3864 H 359.343 1.76317 3.04311 0
M  V30 3865 H 359.217 0.17018 3.76816 0
M  V30 3866 H 361.604 -0.358743 2.92911 0
M  V30 3867 H 361.685 1.26242 2.22478 0
M  V30 3868 H 361.329 2.26451 4.54623 0
M  V30 3869 H 361.259 0.620637 5.2293 0
M  V30 3870 H 363.75 0.843605 3.68364 0
M  V30 3871 H 364.063 2.32901 7.3687 0
M  V30 3872 H 362.408 2.08791 6.62896 0
M  V30 3873 H 365.599 1.12692 4.54333 0
M  V30 3874 H 365.772 1.80406 6.22381 0
M  V30 3875 N 359.178 -1.55987 0.224894 0
M  V30 3876 C 360.455 -1.90232 -0.455083 0
M  V30 3877 C 360.835 -1.14269 -1.77499 0
M  V30 3878 O 360.183 -0.253079 -2.27094 0
M  V30 3879 C 360.393 -3.42993 -0.644758 0
M  V30 3880 C 361.741 -4.13821 -0.950669 0
M  V30 3881 O 362.765 -3.4861 -0.731423 0
M  V30 3882 O 361.624 -5.29128 -1.36695 0
M  V30 3883 H 358.718 -0.79108 -0.241084 0
M  V30 3884 H 361.264 -1.67581 0.267327 0
M  V30 3885 H 360.036 -3.90252 0.28613 0
M  V30 3886 H 359.659 -3.71434 -1.41853 0
M  V30 3887 N 360.656 0.0484629 -1.57525 0
M  V30 3888 C 361.884 0.755421 -1.92616 0
M  V30 3889 C 362.299 1.69919 -0.822984 0
M  V30 3890 O 361.656 1.81378 0.202085 0
M  V30 3891 C 361.707 1.52915 -3.27566 0
M  V30 3892 O 361.428 0.62329 -4.33644 0
M  V30 3893 C 362.929 2.33502 -3.76818 0
M  V30 3894 H 360.149 0.213465 -0.63614 0
M  V30 3895 H 362.693 0.0117698 -2.04497 0
M  V30 3896 H 360.848 2.22486 -3.17142 0
M  V30 3897 H 361.262 1.16383 -5.11425 0
M  V30 3898 H 362.736 2.83214 -4.73808 0
M  V30 3899 H 363.213 3.14068 -3.07014 0
M  V30 3900 H 363.819 1.69043 -3.90262 0
M  V30 3901 N 362.134 1.5431 0.320358 0
M  V30 3902 C 363.545 1.63872 0.894594 0
M  V30 3903 C 363.896 0.534847 1.88769 0
M  V30 3904 O 363.021 -0.331732 2.13842 0
M  V30 3905 C 363.616 2.97049 1.62934 0
M  V30 3906 C 362.175 3.08796 2.15226 0
M  V30 3907 C 361.322 2.59456 0.978671 0
M  V30 3908 H 364.273 1.58398 0.0978544 0
M  V30 3909 H 364.294 2.87388 2.49376 0
M  V30 3910 H 363.806 3.7737 0.906302 0
M  V30 3911 H 361.907 2.33156 2.90636 0
M  V30 3912 H 362.02 4.14649 2.40006 0
M  V30 3913 H 360.384 2.1543 1.35875 0
M  V30 3914 H 361.167 3.42237 0.269895 0
M  V30 3915 N 363.613 -0.582584 1.46437 0
M  V30 3916 C 364.56 -1.69164 1.5701 0
M  V30 3917 C 365.53 -1.60847 0.414403 0
M  V30 3918 O 366.715 -1.80058 0.631171 0
M  V30 3919 C 363.855 -3.075 1.56646 0
M  V30 3920 C 362.968 -3.2644 2.82951 0
M  V30 3921 C 362.103 -4.55026 2.7409 0
M  V30 3922 C 361.142 -4.6731 3.95333 0
M  V30 3923 N 360.279 -5.87221 3.84858 0
M  V30 3924 H 365.119 -1.59464 2.51744 0
M  V30 3925 H 362.656 -0.777186 1.24893 0
M  V30 3926 H 364.614 -3.8757 1.5442 0
M  V30 3927 H 363.244 -3.16096 0.654439 0
M  V30 3928 H 362.296 -2.39974 2.95155 0
M  V30 3929 H 363.608 -3.31385 3.72808 0
M  V30 3930 H 362.762 -5.43324 2.6997 0
M  V30 3931 H 361.501 -4.52519 1.81873 0
M  V30 3932 H 360.506 -3.77429 3.99784 0
M  V30 3933 H 361.731 -4.71595 4.88646 0
M  V30 3934 H 359.677 -5.85712 2.95427 0
M  V30 3935 H 359.594 -5.93435 4.6837 0
M  V30 3936 H 360.862 -6.7795 3.84713 0
M  V30 3937 N 365.091 -1.34144 -0.827227 0
M  V30 3938 C 366.021 -1.28005 -1.95287 0
M  V30 3939 C 367.002 -0.158321 -1.69362 0
M  V30 3940 O 368.187 -0.349987 -1.9102 0
M  V30 3941 C 365.317 -1.03036 -3.31664 0
M  V30 3942 C 364.271 -2.11628 -3.72019 0
M  V30 3943 C 363.597 -1.71854 -5.0633 0
M  V30 3944 C 364.897 -3.53417 -3.8457 0
M  V30 3945 H 366.591 -2.22187 -2.00682 0
M  V30 3946 H 364.137 -1.0696 -0.964135 0
M  V30 3947 H 366.09 -0.973863 -4.09993 0
M  V30 3948 H 364.814 -0.0529391 -3.26557 0
M  V30 3949 H 363.473 -2.16339 -2.95961 0
M  V30 3950 H 363.121 -0.727841 -4.97706 0
M  V30 3951 H 362.821 -2.44531 -5.34302 0
M  V30 3952 H 364.345 -1.67692 -5.87122 0
M  V30 3953 H 365.759 -3.51142 -4.5318 0
M  V30 3954 H 364.156 -4.24679 -4.2399 0
M  V30 3955 H 365.226 -3.91072 -2.86689 0
M  V30 3956 N 366.569 1.04691 -1.17803 0
M  V30 3957 C 367.799 1.81183 -0.992788 0
M  V30 3958 C 368.207 1.8347 0.462098 0
M  V30 3959 O 367.55 1.2643 1.33271 0
M  V30 3960 C 367.612 3.28363 -1.46349 0
M  V30 3961 C 367.276 3.49749 -2.94151 0
M  V30 3962 C 368.273 3.41456 -3.92051 0
M  V30 3963 C 365.958 3.76548 -3.32441 0
M  V30 3964 C 367.952 3.59656 -5.26238 0
M  V30 3965 C 365.639 3.94396 -4.66792 0
M  V30 3966 C 366.637 3.8595 -5.635 0
M  V30 3967 O 366.325 4.03294 -6.9542 0
M  V30 3968 H 366.057 0.577622 -0.351182 0
M  V30 3969 H 368.611 1.32876 -1.5663 0
M  V30 3970 H 366.841 3.77609 -0.833574 0
M  V30 3971 H 368.53 3.86395 -1.24313 0
M  V30 3972 H 369.296 3.20723 -3.63815 0
M  V30 3973 H 365.175 3.82224 -2.57732 0
M  V30 3974 H 368.719 3.52979 -6.01707 0
M  V30 3975 H 364.616 4.14622 -4.94731 0
M  V30 3976 H 365.384 4.2049 -7.02232 0
M  V30 3977 N 368.047 0.979072 1.23499 0
M  V30 3978 C 369.287 0.655228 1.93613 0
M  V30 3979 C 369.651 -0.796336 1.74707 0
M  V30 3980 O 370.852 -1.23094 2.38959 0
M  V30 3981 C 369.123 1.03337 3.42135 0
M  V30 3982 S 370.682 0.825793 4.3096 0
M  V30 3983 H 367.5 0.240004 0.669267 0
M  V30 3984 H 370.102 1.25843 1.49612 0
M  V30 3985 H 368.806 2.08646 3.53405 0
M  V30 3986 H 368.337 0.421397 3.91137 0
M  V30 3987 H 370.352 -0.290991 4.95346 0
M  V30 3988 N 369.525 -1.3858 0.750561 0
M  V30 3989 C 370.773 -1.99789 0.30477 0
M  V30 3990 C 371.094 -1.59874 -1.11649 0
M  V30 3991 O 370.364 -0.85417 -1.76297 0
M  V30 3992 H 368.944 -0.738902 0.109694 0
M  V30 3993 H 371.606 -1.69391 0.963983 0
M  V30 3994 H 370.702 -3.09952 0.365499 0
M  V30 3995 N 371.003 -0.499398 -1.49478 0
M  V30 3996 C 371.966 0.268838 -2.27618 0
M  V30 3997 C 372.966 0.895383 -1.33565 0
M  V30 3998 O 374.156 0.760164 -1.56739 0
M  V30 3999 C 371.288 1.38559 -3.11471 0
M  V30 4000 H 372.481 -0.416812 -2.96989 0
M  V30 4001 H 370.034 -0.254313 -1.54217 0
M  V30 4002 H 370.769 2.10544 -2.46661 0
M  V30 4003 H 370.554 0.941797 -3.80621 0
M  V30 4004 H 372.044 1.92678 -3.70493 0
M  V30 4005 N 372.481 1.55866 -0.233164 0
M  V30 4006 C 373.758 1.90471 0.444988 0
M  V30 4007 C 374.138 1.15209 1.7689 0
M  V30 4008 O 373.486 0.265119 2.26957 0
M  V30 4009 C 373.696 3.4333 0.626559 0
M  V30 4010 C 375.044 4.14319 0.92871 0
M  V30 4011 O 376.068 3.48993 0.712926 0
M  V30 4012 O 374.927 5.29846 1.33887 0
M  V30 4013 H 372.021 0.792347 0.236885 0
M  V30 4014 H 374.567 1.67437 -0.276211 0
M  V30 4015 H 373.339 3.90095 -0.306822 0
M  V30 4016 H 372.962 3.72181 1.39881 0
M  V30 4017 N 373.959 -0.0401083 1.57549 0
M  V30 4018 C 375.207 -0.731677 1.8839 0
M  V30 4019 C 375.528 -1.76481 0.829425 0
M  V30 4020 O 374.798 -1.95411 -0.1383 0
M  V30 4021 H 373.378 -0.273225 0.695239 0
M  V30 4022 H 376.04 -0.00867725 1.94898 0
M  V30 4023 H 375.136 -1.22816 2.86919 0
M  V30 4024 N 375.437 -1.54477 -0.31217 0
M  V30 4025 C 376.714 -1.63891 -1.06767 0
M  V30 4026 C 377.094 -0.480028 -2.0557 0
M  V30 4027 O 376.442 0.524487 -2.22399 0
M  V30 4028 C 376.652 -3.01402 -1.75948 0
M  V30 4029 C 378 -3.57838 -2.28554 0
M  V30 4030 O 379.024 -3.03782 -1.85998 0
M  V30 4031 O 377.883 -4.52462 -3.06497 0
M  V30 4032 H 374.977 -0.664125 -0.492816 0
M  V30 4033 H 377.523 -1.66823 -0.311149 0
M  V30 4034 H 376.295 -3.77187 -1.04144 0
M  V30 4035 H 375.918 -3.02199 -2.58383 0
M  V30 4036 N 376.915 0.57481 -1.46744 0
M  V30 4037 C 378.161 1.33251 -1.53674 0
M  V30 4038 C 378.516 1.91468 -0.189125 0
M  V30 4039 O 377.809 1.73954 0.803151 0
M  V30 4040 C 378.003 2.476 -2.57738 0
M  V30 4041 C 377.832 2.00586 -4.02487 0
M  V30 4042 C 376.602 1.85237 -4.70123 0
M  V30 4043 C 378.8 1.56078 -4.90045 0
M  V30 4044 N 376.782 1.32377 -5.99458 0
M  V30 4045 C 378.153 1.14863 -6.09267 0
M  V30 4046 C 380.208 1.43968 -4.76632 0
M  V30 4047 C 378.911 0.627435 -7.16558 0
M  V30 4048 C 380.937 0.932512 -5.84002 0
M  V30 4049 C 380.299 0.53019 -7.02402 0
M  V30 4050 H 376.398 0.480284 -0.617131 0
M  V30 4051 H 378.982 0.653592 -1.83402 0
M  V30 4052 H 377.153 3.13045 -2.29907 0
M  V30 4053 H 378.885 3.14567 -2.54616 0
M  V30 4054 H 375.64 2.07423 -4.25761 0
M  V30 4055 H 376.064 1.08085 -6.68316 0
M  V30 4056 H 380.706 1.73689 -3.85476 0
M  V30 4057 H 378.424 0.317821 -8.07475 0
M  V30 4058 H 382.01 0.842611 -5.75666 0
M  V30 4059 H 380.89 0.14381 -7.84068 0
M  V30 4060 N 378.394 1.34581 0.820102 0
M  V30 4061 C 379.324 1.29038 1.94606 0
M  V30 4062 C 380.305 0.1673 1.69275 0
M  V30 4063 O 381.49 0.360112 1.90832 0
M  V30 4064 C 378.62 1.04793 3.31113 0
M  V30 4065 C 377.574 2.13597 3.70891 0
M  V30 4066 C 376.9 1.74537 5.05412 0
M  V30 4067 C 378.2 3.55451 3.8269 0
M  V30 4068 H 379.894 2.23248 1.99501 0
M  V30 4069 H 377.44 1.0747 0.958449 0
M  V30 4070 H 379.393 0.995592 4.0947 0
M  V30 4071 H 378.117 0.0702565 3.26524 0
M  V30 4072 H 376.776 2.17905 2.9481 0
M  V30 4073 H 376.424 0.754226 4.97313 0
M  V30 4074 H 376.124 2.47361 5.32997 0
M  V30 4075 H 377.648 1.70803 5.86224 0
M  V30 4076 H 379.062 3.5354 4.51312 0
M  V30 4077 H 377.459 4.26922 4.21732 0
M  V30 4078 H 378.529 3.92587 2.84611 0
M  V30 4079 N 379.872 -1.04064 1.18357 0
M  V30 4080 C 381.118 -1.77528 0.980397 0
M  V30 4081 C 381.451 -1.87948 -0.48879 0
M  V30 4082 O 380.726 -1.3876 -1.36293 0
M  V30 4083 C 381.009 -3.20797 1.63588 0
M  V30 4084 C 380.862 -3.1832 3.17793 0
M  V30 4085 C 382.181 -4.18911 1.34914 0
M  V30 4086 H 379.3 -0.644443 0.357578 0
M  V30 4087 H 381.942 -1.2156 1.46024 0
M  V30 4088 H 380.092 -3.68586 1.22788 0
M  V30 4089 H 381.764 -2.78521 3.67728 0
M  V30 4090 H 380.007 -2.56351 3.49952 0
M  V30 4091 H 380.678 -4.19489 3.58794 0
M  V30 4092 H 383.154 -3.7967 1.70265 0
M  V30 4093 H 382.03 -5.17374 1.83346 0
M  V30 4094 H 382.291 -4.41262 0.272027 0
M  V30 4095 N 381.35 -0.985608 -1.22978 0
M  V30 4096 C 382.761 -0.693593 -1.73338 0
M  V30 4097 C 383.112 0.789935 -1.79595 0
M  V30 4098 O 382.237 1.61771 -1.43733 0
M  V30 4099 C 382.832 -1.25235 -3.14804 0
M  V30 4100 C 381.391 -1.00987 -3.626 0
M  V30 4101 C 380.538 -1.37695 -2.40698 0
M  V30 4102 H 383.489 -1.15884 -1.08428 0
M  V30 4103 H 383.51 -0.627329 -3.75293 0
M  V30 4104 H 383.022 -2.33209 -3.10218 0
M  V30 4105 H 381.123 0.0535565 -3.72562 0
M  V30 4106 H 381.236 -1.66812 -4.49122 0
M  V30 4107 H 379.6 -0.795459 -2.4196 0
M  V30 4108 H 380.383 -2.46657 -2.38779 0
M  V30 4109 N 382.828 1.3818 -0.7579 0
M  V30 4110 C 383.758 2.33027 -0.148597 0
M  V30 4111 C 384.739 1.55085 0.69875 0
M  V30 4112 O 385.924 1.83384 0.639053 0
M  V30 4113 C 383.054 3.3928 0.742034 0
M  V30 4114 C 382.008 4.28 -0.00291946 0
M  V30 4115 C 381.334 5.25146 1.00625 0
M  V30 4116 C 382.634 5.08938 -1.17385 0
M  V30 4117 H 384.328 2.84231 -0.940909 0
M  V30 4118 H 381.874 1.36659 -0.453908 0
M  V30 4119 H 383.827 4.046 1.17799 0
M  V30 4120 H 382.551 2.86569 1.56671 0
M  V30 4121 H 381.21 3.64192 -0.419504 0
M  V30 4122 H 380.858 4.68721 1.8251 0
M  V30 4123 H 380.558 5.85361 0.512428 0
M  V30 4124 H 382.082 5.93342 1.44143 0
M  V30 4125 H 383.496 5.67474 -0.815224 0
M  V30 4126 H 381.893 5.7841 -1.59882 0
M  V30 4127 H 382.963 4.42424 -1.98468 0
M  V30 4128 N 384.306 0.507319 1.49211 0
M  V30 4129 C 385.554 -0.0348839 2.0207 0
M  V30 4130 C 385.875 -1.36898 1.38866 0
M  V30 4131 O 385.145 -1.88133 0.546151 0
M  V30 4132 H 383.725 -0.0158812 0.746831 0
M  V30 4133 H 386.387 0.665998 1.83168 0
M  V30 4134 H 385.483 -0.159917 3.1169 0
M  V30 4135 N 385.784 -1.5574 0.241426 0
M  V30 4136 C 387.2 -1.59196 -0.113548 0
M  V30 4137 C 387.4 -1.25852 -1.57364 0
M  V30 4138 O 386.456 -1.00322 -2.31715 0
M  V30 4139 C 387.769 -2.99814 0.230695 0
M  V30 4140 C 389.317 -3.12513 0.174547 0
M  V30 4141 C 389.792 -4.55342 0.492744 0
M  V30 4142 N 391.283 -4.61076 0.443043 0
M  V30 4143 C 392.018 -5.6956 0.662484 0
M  V30 4144 N 391.514 -6.86328 0.944761 0
M  V30 4145 N 393.307 -5.58957 0.593564 0
M  V30 4146 H 385.458 -1.75685 1.19368 0
M  V30 4147 H 387.721 -0.81756 0.479896 0
M  V30 4148 H 387.427 -3.28932 1.24485 0
M  V30 4149 H 387.301 -3.74568 -0.444833 0
M  V30 4150 H 389.688 -2.83179 -0.830277 0
M  V30 4151 H 389.769 -2.40045 0.883845 0
M  V30 4152 H 389.413 -4.85396 1.4951 0
M  V30 4153 H 389.343 -5.26062 -0.23797 0
M  V30 4154 H 391.834 -3.77179 0.233374 0
M  V30 4155 H 392.147 -7.64935 1.09977 0
M  V30 4156 H 390.492 -6.88025 0.982175 0
M  V30 4157 H 393.683 -4.66611 0.373123 0
M  V30 4158 H 393.856 -6.43433 0.767981 0
M  V30 4159 N 387.262 0.0317525 -1.57568 0
M  V30 4160 C 388.502 0.727979 -1.90997 0
M  V30 4161 C 388.866 1.72664 -0.839708 0
M  V30 4162 O 390.067 2.47092 -1.05825 0
M  V30 4163 C 388.338 1.38239 -3.29583 0
M  V30 4164 S 389.897 2.10814 -3.84841 0
M  V30 4165 H 386.715 0.241226 -0.668828 0
M  V30 4166 H 389.317 -0.0173037 -1.95492 0
M  V30 4167 H 388.021 0.642288 -4.05343 0
M  V30 4168 H 387.552 2.16628 -3.28384 0
M  V30 4169 H 389.567 3.3792 -3.63352 0
M  V30 4170 N 388.74 1.54641 0.303973 0
M  V30 4171 C 389.989 1.7299 1.03717 0
M  V30 4172 C 390.302 0.521168 1.88529 0
M  V30 4173 O 391.508 0.586408 2.65092 0
M  V30 4174 C 389.964 3.06051 1.89369 0
M  V30 4175 C 389.572 4.34393 1.09574 0
M  V30 4176 C 391.316 3.3376 2.62306 0
M  V30 4177 C 389.223 5.58506 1.94486 0
M  V30 4178 H 388.153 0.64473 0.390947 0
M  V30 4179 H 390.804 1.81124 0.294328 0
M  V30 4180 H 389.186 2.91874 2.67629 0
M  V30 4181 H 390.36 4.59396 0.359485 0
M  V30 4182 H 388.675 4.13597 0.482324 0
M  V30 4183 H 391.272 4.23687 3.26181 0
M  V30 4184 H 391.615 2.52503 3.3098 0
M  V30 4185 H 392.148 3.48894 1.91097 0
M  V30 4186 H 388.887 6.42422 1.30287 0
M  V30 4187 H 388.407 5.37694 2.65792 0
M  V30 4188 H 390.086 5.95651 2.52605 0
M  V30 4189 N 390.218 -0.567019 1.47046 0
M  V30 4190 C 391.458 -1.3355 1.54738 0
M  V30 4191 C 391.822 -1.90947 0.200772 0
M  V30 4192 O 393.023 -2.68367 0.152489 0
M  V30 4193 C 391.294 -2.42317 2.62712 0
M  V30 4194 S 392.853 -3.29383 2.89918 0
M  V30 4195 H 389.671 -0.454788 0.546525 0
M  V30 4196 H 392.273 -0.650191 1.84371 0
M  V30 4197 H 390.977 -1.98568 3.59164 0
M  V30 4198 H 390.508 -3.15601 2.34861 0
M  V30 4199 H 392.523 -4.41548 2.26384 0
M  V30 4200 N 391.696 -1.35014 -0.812953 0
M  V30 4201 C 392.921 -1.31187 -1.60639 0
M  V30 4202 C 393.346 0.109382 -1.87782 0
M  V30 4203 O 392.704 1.07424 -1.46047 0
M  V30 4204 C 392.752 -2.11809 -2.91838 0
M  V30 4205 O 391.856 -1.49444 -3.8437 0
M  V30 4206 H 391.197 -0.450084 -0.488181 0
M  V30 4207 H 393.727 -1.77963 -1.00947 0
M  V30 4208 H 393.737 -2.23531 -3.41318 0
M  V30 4209 H 392.412 -3.15137 -2.71407 0
M  V30 4210 H 390.989 -1.46524 -3.42907 0
M  V30 4211 N 393.175 1.03435 -1.18907 0
M  V30 4212 C 394.403 1.80381 -1.01342 0
M  V30 4213 C 394.818 1.83649 0.438005 0
M  V30 4214 O 394.175 1.27655 1.30424 0
M  V30 4215 C 394.226 3.25689 -1.56873 0
M  V30 4216 O 393.947 3.22673 -2.96334 0
M  V30 4217 C 395.448 4.19255 -1.44014 0
M  V30 4218 H 392.668 0.56784 -0.35749 0
M  V30 4219 H 395.212 1.30317 -1.576 0
M  V30 4220 H 393.367 3.72962 -1.04777 0
M  V30 4221 H 393.781 4.13748 -3.22355 0
M  V30 4222 H 395.255 5.19123 -1.87657 0
M  V30 4223 H 395.732 4.37467 -0.389815 0
M  V30 4224 H 396.338 3.77851 -1.95214 0
M  V30 4225 N 394.653 0.992116 1.22453 0
M  V30 4226 C 395.901 0.666215 1.90804 0
M  V30 4227 C 396.222 -0.804152 1.77647 0
M  V30 4228 O 395.492 -1.57629 1.16318 0
M  V30 4229 H 394.072 0.243423 0.706225 0
M  V30 4230 H 396.734 1.25845 1.48825 0
M  V30 4231 H 395.83 0.928069 2.97982 0
M  V30 4232 N 396.131 -1.37776 0.765217 0
M  V30 4233 C 397.361 -2.03828 0.337277 0
M  V30 4234 C 397.769 -1.57841 -1.04321 0
M  V30 4235 O 397.112 -0.752043 -1.67601 0
M  V30 4236 C 397.174 -3.58292 0.294407 0
M  V30 4237 C 396.838 -4.27384 1.61838 0
M  V30 4238 C 397.835 -4.51956 2.56967 0
M  V30 4239 C 395.52 -4.65345 1.89102 0
M  V30 4240 C 397.514 -5.13536 3.77571 0
M  V30 4241 C 395.201 -5.26647 3.09978 0
M  V30 4242 C 396.199 -5.50679 4.04032 0
M  V30 4243 O 395.887 -6.10702 5.2278 0
M  V30 4244 H 395.619 -0.661292 0.140248 0
M  V30 4245 H 398.173 -1.77222 1.03834 0
M  V30 4246 H 396.403 -3.83918 -0.462983 0
M  V30 4247 H 398.092 -4.05763 -0.105581 0
M  V30 4248 H 398.858 -4.23048 2.37183 0
M  V30 4249 H 394.737 -4.45978 1.16725 0
M  V30 4250 H 398.281 -5.3221 4.50997 0
M  V30 4251 H 394.178 -5.54979 3.29649 0
M  V30 4252 H 394.946 -6.29183 5.23517 0
M  V30 4253 N 397.609 -0.515225 -1.4894 0
M  V30 4254 C 398.519 0.259774 -2.33157 0
M  V30 4255 C 399.535 0.953501 -1.45548 0
M  V30 4256 O 400.711 0.931735 -1.78552 0
M  V30 4257 C 397.776 1.30193 -3.21326 0
M  V30 4258 C 396.837 0.620129 -4.24797 0
M  V30 4259 C 396.07 1.61263 -5.08753 0
M  V30 4260 O 396.293 2.84389 -4.94448 0
M  V30 4261 O 395.227 1.16013 -5.90614 0
M  V30 4262 H 399.053 -0.429932 -3.00641 0
M  V30 4263 H 396.638 -0.276346 -1.46822 0
M  V30 4264 H 398.52 1.90455 -3.75905 0
M  V30 4265 H 397.195 1.97431 -2.56521 0
M  V30 4266 H 396.102 -0.0226019 -3.74093 0
M  V30 4267 H 397.435 -0.0100493 -4.92199 0
M  V30 4268 N 399.087 1.5561 -0.249682 0
M  V30 4269 C 399.997 2.25143 0.659375 0
M  V30 4270 C 401.013 1.2685 1.19101 0
M  V30 4271 O 402.189 1.59732 1.22669 0
M  V30 4272 C 399.254 2.93945 1.8384 0
M  V30 4273 C 398.315 4.07655 1.34596 0
M  V30 4274 C 397.548 4.73167 2.46878 0
M  V30 4275 O 397.771 4.37768 3.65671 0
M  V30 4276 O 396.705 5.61623 2.16478 0
M  V30 4277 H 400.531 3.03545 0.0968698 0
M  V30 4278 H 398.116 1.49389 -0.018074 0
M  V30 4279 H 399.998 3.37271 2.52638 0
M  V30 4280 H 398.673 2.18481 2.38847 0
M  V30 4281 H 397.58 3.68839 0.625174 0
M  V30 4282 H 398.913 4.84946 0.841941 0
M  V30 4283 N 400.565 -0.0233959 1.57583 0
M  V30 4284 C 401.814 -0.712133 1.8871 0
M  V30 4285 C 402.127 -1.76217 0.848944 0
M  V30 4286 O 403.333 -2.50389 1.04964 0
M  V30 4287 C 401.789 -1.3177 3.3491 0
M  V30 4288 C 401.397 -0.303715 4.46969 0
M  V30 4289 C 403.141 -1.98598 3.75179 0
M  V30 4290 C 401.048 -0.917945 5.84233 0
M  V30 4291 H 399.978 -0.269735 0.704101 0
M  V30 4292 H 402.629 0.0333114 1.8347 0
M  V30 4293 H 401.011 -2.11304 3.34913 0
M  V30 4294 H 402.185 0.465325 4.58445 0
M  V30 4295 H 400.5 0.2628 4.1557 0
M  V30 4296 H 403.097 -2.45416 4.75053 0
M  V30 4297 H 403.44 -2.80659 3.07468 0
M  V30 4298 H 403.973 -1.25831 3.77374 0
M  V30 4299 H 400.712 -0.136633 6.55358 0
M  V30 4300 H 400.232 -1.65669 5.76467 0
M  V30 4301 H 401.911 -1.4236 6.31144 0
M  V30 4302 N 402.043 -1.548 -0.295768 0
M  V30 4303 C 402.953 -1.89177 -1.38742 0
M  V30 4304 C 403.969 -0.786481 -1.55211 0
M  V30 4305 O 405.145 -1.08344 -1.69775 0
M  V30 4306 C 402.21 -2.13663 -2.73036 0
M  V30 4307 C 401.271 -3.37349 -2.65508 0
M  V30 4308 C 400.504 -3.60658 -3.93398 0
M  V30 4309 O 400.727 -2.86882 -4.93006 0
M  V30 4310 O 399.661 -4.54179 -3.94975 0
M  V30 4311 H 403.487 -2.82059 -1.12589 0
M  V30 4312 H 401.072 -1.41056 -0.492295 0
M  V30 4313 H 402.954 -2.3094 -3.52484 0
M  V30 4314 H 401.629 -1.23967 -2.99022 0
M  V30 4315 H 400.536 -3.25431 -1.84514 0
M  V30 4316 H 401.869 -4.27192 -2.44474 0
M  V30 4317 N 403.521 0.559213 -1.47345 0
M  V30 4318 C 404.769 1.31388 -1.53563 0
M  V30 4319 C 405.09 1.93985 -0.198678 0
M  V30 4320 O 404.36 1.79825 0.777167 0
M  V30 4321 H 402.94 0.487901 -0.565652 0
M  V30 4322 H 405.602 0.65315 -1.8363 0
M  V30 4323 H 404.698 2.10844 -2.30111 0
M  V30 4324 N 404.999 1.35443 0.805782 0
M  V30 4325 C 406.224 1.32037 1.59941 0
M  V30 4326 C 406.649 -0.0994215 1.87837 0
M  V30 4327 O 406.007 -1.06648 1.46615 0
M  V30 4328 C 406.055 2.13354 2.90711 0
M  V30 4329 O 405.159 1.5148 3.83572 0
M  V30 4330 H 404.5 0.452666 0.485787 0
M  V30 4331 H 407.03 1.78496 1.00002 0
M  V30 4332 H 407.04 2.25338 3.40128 0
M  V30 4333 H 405.715 3.16572 2.69732 0
M  V30 4334 H 404.292 1.4834 3.42125 0
M  V30 4335 N 406.477 -1.02803 1.19454 0
M  V30 4336 C 407.717 -1.77769 1.00883 0
M  V30 4337 C 408.081 -1.86596 -0.45233 0
M  V30 4338 O 409.282 -2.57895 -0.757877 0
M  V30 4339 C 407.553 -3.16486 1.66046 0
M  V30 4340 S 409.112 -4.07632 1.62424 0
M  V30 4341 H 405.93 -0.611949 0.361993 0
M  V30 4342 H 408.532 -1.23175 1.51816 0
M  V30 4343 H 407.236 -3.0768 2.7159 0
M  V30 4344 H 406.767 -3.76156 1.15196 0
M  V30 4345 H 408.782 -4.91937 0.64903 0
M  V30 4346 N 407.956 -0.998596 -1.21925 0
M  V30 4347 C 408.906 -0.524743 -2.21879 0
M  V30 4348 C 409.89 0.41017 -1.55584 0
M  V30 4349 O 411.082 0.236063 -1.75419 0
M  V30 4350 C 408.211 0.153636 -3.42956 0
M  V30 4351 C 407.297 -0.801918 -4.16449 0
M  V30 4352 N 407.688 -1.95211 -4.66611 0
M  V30 4353 C 405.986 -0.618972 -4.41684 0
M  V30 4354 C 406.687 -2.55234 -5.22715 0
M  V30 4355 N 405.663 -1.83451 -5.1171 0
M  V30 4356 H 409.465 -1.40189 -2.58311 0
M  V30 4357 H 406.979 -0.86159 -1.3766 0
M  V30 4358 H 408.976 0.510534 -4.13762 0
M  V30 4359 H 407.636 1.02684 -3.08036 0
M  V30 4360 H 408.647 -2.33271 -4.62391 0
M  V30 4361 H 405.324 0.207694 -4.16983 0
M  V30 4362 H 406.714 -3.52471 -5.72026 0
M  V30 4363 N 409.434 1.37368 -0.772513 0
M  V30 4364 C 410.397 2.28601 -0.165541 0
M  V30 4365 C 411.397 1.48062 0.627238 0
M  V30 4366 O 412.587 1.68268 0.450715 0
M  V30 4367 C 409.719 3.32023 0.772897 0
M  V30 4368 H 410.912 2.83787 -0.969787 0
M  V30 4369 H 408.465 1.46647 -0.540775 0
M  V30 4370 H 409.2 2.81962 1.60212 0
M  V30 4371 H 408.985 3.91555 0.206585 0
M  V30 4372 H 410.475 4.00197 1.19298 0
M  V30 4373 N 410.912 0.523116 1.48665 0
M  V30 4374 C 412.152 -0.0115588 2.04397 0
M  V30 4375 C 412.516 -1.32225 1.39214 0
M  V30 4376 O 413.717 -1.94253 1.85793 0
M  V30 4377 C 411.988 -0.138119 3.57133 0
M  V30 4378 S 413.547 -0.623849 4.34343 0
M  V30 4379 H 410.365 0.00877706 0.710946 0
M  V30 4380 H 412.967 0.702116 1.82457 0
M  V30 4381 H 411.671 0.820748 4.02109 0
M  V30 4382 H 411.202 -0.876377 3.83514 0
M  V30 4383 H 413.217 -1.8895 4.58816 0
M  V30 4384 N 412.39 -1.55475 0.257931 0
M  V30 4385 C 413.806 -1.59307 -0.0966563 0
M  V30 4386 C 414.006 -1.27514 -1.5602 0
M  V30 4387 O 413.062 -1.02774 -2.30637 0
M  V30 4388 C 414.375 -2.99552 0.262481 0
M  V30 4389 C 415.923 -3.1231 0.207683 0
M  V30 4390 C 416.398 -4.54793 0.541012 0
M  V30 4391 N 417.889 -4.6058 0.491921 0
M  V30 4392 C 418.624 -5.68825 0.722857 0
M  V30 4393 N 418.12 -6.85287 1.0175 0
M  V30 4394 N 419.913 -5.58296 0.652815 0
M  V30 4395 H 412.064 -1.74409 1.21224 0
M  V30 4396 H 414.327 -0.812424 0.48854 0
M  V30 4397 H 414.033 -3.27593 1.27967 0
M  V30 4398 H 413.907 -3.75019 -0.40508 0
M  V30 4399 H 416.294 -2.84044 -0.800195 0
M  V30 4400 H 416.375 -2.39095 0.909255 0
M  V30 4401 H 416.019 -4.83783 1.5465 0
M  V30 4402 H 415.949 -5.26285 -0.18216 0
M  V30 4403 H 418.44 -3.7691 0.273366 0
M  V30 4404 H 418.753 -7.63725 1.18084 0
M  V30 4405 H 417.098 -6.86945 1.05509 0
M  V30 4406 H 420.289 -4.66189 0.422592 0
M  V30 4407 H 420.462 -6.42582 0.836182 0
M  V30 4408 N 413.868 0.0150385 -1.57593 0
M  V30 4409 C 415.279 0.559832 -1.78109 0
M  V30 4410 C 415.63 1.74814 -0.890756 0
M  V30 4411 O 414.755 2.16216 -0.0892482 0
M  V30 4412 C 415.35 1.02238 -3.23006 0
M  V30 4413 C 413.909 1.51258 -3.44671 0
M  V30 4414 C 413.056 0.456955 -2.73509 0
M  V30 4415 H 416.007 -0.211169 -1.57289 0
M  V30 4416 H 416.028 1.88912 -3.30292 0
M  V30 4417 H 415.54 0.157302 -3.87781 0
M  V30 4418 H 413.641 2.39905 -2.8509 0
M  V30 4419 H 413.754 1.55042 -4.5332 0
M  V30 4420 H 412.118 0.915196 -2.37689 0
M  V30 4421 H 412.901 -0.398896 -3.40975 0
M  V30 4422 N 415.346 1.54954 0.287554 0
M  V30 4423 C 416.594 1.74528 1.01904 0
M  V30 4424 C 416.915 0.541349 1.87335 0
M  V30 4425 O 416.185 -0.444108 1.908 0
M  V30 4426 H 414.765 0.643576 0.379235 0
M  V30 4427 H 417.427 1.92333 0.315294 0
M  V30 4428 H 416.523 2.64015 1.6644 0
M  V30 4429 N 416.824 -0.551391 1.4764 0
M  V30 4430 C 418.071 -1.3083 1.54563 0
M  V30 4431 C 418.399 -1.93359 0.210361 0
M  V30 4432 O 417.654 -1.78721 -0.797332 0
M  V30 4433 C 417.953 -2.43469 2.61644 0
M  V30 4434 C 417.619 -1.98732 4.04742 0
M  V30 4435 C 416.281 -1.86248 4.43695 0
M  V30 4436 C 418.633 -1.64659 4.94507 0
M  V30 4437 C 415.961 -1.37995 5.70241 0
M  V30 4438 C 418.313 -1.17875 6.21521 0
M  V30 4439 C 416.977 -1.03992 6.5935 0
M  V30 4440 H 416.247 -0.478741 0.565587 0
M  V30 4441 H 418.894 -0.617697 1.81264 0
M  V30 4442 H 417.199 -3.18109 2.28722 0
M  V30 4443 H 418.896 -3.01642 2.64222 0
M  V30 4444 H 415.486 -2.09393 3.73968 0
M  V30 4445 H 419.67 -1.73174 4.65107 0
M  V30 4446 H 414.926 -1.25915 5.98294 0
M  V30 4447 H 419.1 -0.905739 6.90485 0
M  V30 4448 H 416.727 -0.663794 7.57296 0
M  V30 4449 N 418.302 -1.35869 -0.798587 0
M  V30 4450 C 419.532 -1.32529 -1.58491 0
M  V30 4451 C 419.94 0.0975405 -1.88948 0
M  V30 4452 O 419.283 1.06224 -1.49874 0
M  V30 4453 C 419.345 -2.07247 -2.9375 0
M  V30 4454 C 419.009 -3.56391 -2.86068 0
M  V30 4455 C 420.006 -4.50824 -2.58947 0
M  V30 4456 C 417.691 -3.9915 -3.04933 0
M  V30 4457 C 419.685 -5.85993 -2.5078 0
M  V30 4458 C 417.372 -5.34413 -2.96389 0
M  V30 4459 C 418.37 -6.27646 -2.69349 0
M  V30 4460 O 418.058 -7.60426 -2.60782 0
M  V30 4461 H 417.79 -0.456529 -0.498556 0
M  V30 4462 H 420.344 -1.79425 -0.999799 0
M  V30 4463 H 418.574 -1.55001 -3.54276 0
M  V30 4464 H 420.263 -1.96883 -3.54954 0
M  V30 4465 H 421.029 -4.19104 -2.44084 0
M  V30 4466 H 416.908 -3.26961 -3.24989 0
M  V30 4467 H 420.452 -6.58735 -2.29595 0
M  V30 4468 H 416.349 -5.65743 -3.10813 0
M  V30 4469 H 417.117 -7.70444 -2.76331 0
M  V30 4470 N 419.78 1.02168 -1.19998 0
M  V30 4471 C 420.727 2.10601 -0.944228 0
M  V30 4472 C 421.697 1.65639 0.123664 0
M  V30 4473 O 422.882 1.9079 -0.0199941 0
M  V30 4474 C 420.022 3.41504 -0.496865 0
M  V30 4475 C 419.135 3.99973 -1.63234 0
M  V30 4476 C 418.27 5.18915 -1.13579 0
M  V30 4477 C 417.309 5.69456 -2.24468 0
M  V30 4478 N 416.446 6.79665 -1.76068 0
M  V30 4479 H 421.286 2.31814 -1.8726 0
M  V30 4480 H 418.823 1.13686 -0.933483 0
M  V30 4481 H 420.781 4.16626 -0.218843 0
M  V30 4482 H 419.411 3.2038 0.394508 0
M  V30 4483 H 418.463 3.21997 -2.0254 0
M  V30 4484 H 419.775 4.33492 -2.46752 0
M  V30 4485 H 418.929 6.01222 -0.813429 0
M  V30 4486 H 417.668 4.8695 -0.270434 0
M  V30 4487 H 416.673 4.85757 -2.57526 0
M  V30 4488 H 417.898 6.03459 -3.11472 0
M  V30 4489 H 415.844 6.49538 -0.918516 0
M  V30 4490 H 415.761 7.12349 -2.5317 0
M  V30 4491 H 417.029 7.65549 -1.46817 0
M  V30 4492 N 421.258 1.00505 1.21394 0
M  V30 4493 C 422.221 0.570459 2.21987 0
M  V30 4494 C 423.221 -0.353211 1.56873 0
M  V30 4495 O 424.411 -0.14349 1.73608 0
M  V30 4496 C 421.543 -0.168555 3.40483 0
M  V30 4497 H 422.736 1.46021 2.6195 0
M  V30 4498 H 420.289 0.793565 1.34656 0
M  V30 4499 H 421.024 -1.07374 3.06009 0
M  V30 4500 H 420.809 0.494823 3.88965 0
M  V30 4501 H 422.299 -0.460362 4.15055 0
M  V30 4502 N 422.737 -1.36956 0.779787 0
M  V30 4503 C 423.984 -1.99491 0.347766 0
M  V30 4504 C 424.312 -1.61898 -1.07793 0
M  V30 4505 O 423.567 -0.86071 -1.75756 0
M  V30 4506 C 423.866 -3.54585 0.447686 0
M  V30 4507 C 423.532 -4.1197 1.83279 0
M  V30 4508 C 422.194 -4.27356 2.2118 0
M  V30 4509 C 424.546 -4.43354 2.74019 0
M  V30 4510 C 421.874 -4.71432 3.4924 0
M  V30 4511 C 424.226 -4.88858 4.01497 0
M  V30 4512 C 422.89 -5.0245 4.39432 0
M  V30 4513 H 422.16 -0.729991 0.127257 0
M  V30 4514 H 424.807 -1.63599 0.995376 0
M  V30 4515 H 423.112 -3.90773 -0.283447 0
M  V30 4516 H 424.809 -4.00888 0.0945948 0
M  V30 4517 H 421.399 -4.00428 1.52825 0
M  V30 4518 H 425.583 -4.31045 2.45995 0
M  V30 4519 H 420.839 -4.80141 3.78516 0
M  V30 4520 H 425.013 -5.12108 4.71931 0
M  V30 4521 H 422.64 -5.36362 5.38721 0
M  V30 4522 N 424.215 -0.530993 -1.48385 0
M  V30 4523 C 425.178 0.220497 -2.28137 0
M  V30 4524 C 426.178 0.866851 -1.35434 0
M  V30 4525 O 427.368 0.726746 -1.58316 0
M  V30 4526 C 424.5 1.31921 -3.1434 0
M  V30 4527 H 425.693 -0.479714 -2.96038 0
M  V30 4528 H 423.246 -0.286968 -1.53643 0
M  V30 4529 H 423.981 2.05264 -2.51072 0
M  V30 4530 H 423.766 0.86085 -3.82533 0
M  V30 4531 H 425.256 1.84776 -3.74497 0
M  V30 4532 N 425.693 1.55336 -0.266172 0
M  V30 4533 C 426.941 1.99003 0.35246 0
M  V30 4534 C 427.262 1.15591 1.57047 0
M  V30 4535 O 426.532 0.243268 1.94384 0
M  V30 4536 H 425.112 0.735025 0.133217 0
M  V30 4537 H 427.774 1.91367 -0.369434 0
M  V30 4538 H 426.87 3.05289 0.648453 0
M  V30 4539 N 427.171 -0.0066808 1.57599 0
M  V30 4540 C 428.119 -1.01851 2.09115 0
M  V30 4541 C 429.113 -1.36021 1.00969 0
M  V30 4542 O 430.319 -1.34663 1.19439 0
M  V30 4543 H 426.694 -0.346083 0.667631 0
M  V30 4544 H 428.665 -0.558394 2.93129 0
M  V30 4545 C 427.414 -2.30374 2.60429 0
M  V30 4546 H 426.737 -2.04947 3.43273 0
M  V30 4547 H 428.177 -2.99466 3.00161 0
M  V30 4548 C 426.636 -3.00893 1.51542 0
M  V30 4549 O 427.166 -3.91614 0.894484 0
M  V30 4550 N 425.372 -2.62603 1.2445 0
M  V30 4551 H 424.919 -1.88911 1.75129 0
M  V30 4552 H 424.877 -3.10101 0.518137 0
M  V30 4553 N 428.649 -1.55105 -0.279332 0
M  V30 4554 C 429.877 -1.7943 -1.03017 0
M  V30 4555 C 430.292 -0.564456 -1.80165 0
M  V30 4556 O 429.649 0.466326 -1.76442 0
M  V30 4557 C 429.7 -3.0155 -1.99374 0
M  V30 4558 O 429.421 -4.19784 -1.25352 0
M  V30 4559 C 430.922 -3.3843 -2.86321 0
M  V30 4560 H 428.142 -0.597882 -0.304594 0
M  V30 4561 H 430.686 -2.02105 -0.312035 0
M  V30 4562 H 428.841 -2.81019 -2.66659 0
M  V30 4563 H 429.255 -4.88781 -1.90246 0
M  V30 4564 H 430.729 -4.27066 -3.49741 0
M  V30 4565 H 431.206 -2.57549 -3.5576 0
M  V30 4566 H 431.812 -3.61197 -2.24536 0
M  V30 4567 N 430.127 0.543554 -1.4793 0
M  V30 4568 C 431.074 1.64942 -1.6144 0
M  V30 4569 C 432.044 1.59692 -0.456903 0
M  V30 4570 O 433.229 1.78321 -0.678688 0
M  V30 4571 C 430.369 3.03238 -1.64744 0
M  V30 4572 C 429.482 3.18823 -2.91506 0
M  V30 4573 C 428.617 4.47599 -2.86057 0
M  V30 4574 C 427.656 4.56664 -4.07584 0
M  V30 4575 N 426.793 5.76811 -4.00292 0
M  V30 4576 H 431.633 1.52733 -2.55884 0
M  V30 4577 H 429.17 0.7438 -1.2691 0
M  V30 4578 H 431.128 3.83339 -1.64641 0
M  V30 4579 H 429.758 3.1425 -0.738017 0
M  V30 4580 H 428.81 2.32064 -3.01414 0
M  V30 4581 H 430.122 3.21384 -3.81463 0
M  V30 4582 H 429.276 5.35975 -2.84281 0
M  V30 4583 H 428.015 4.47538 -1.93807 0
M  V30 4584 H 427.02 3.66697 -4.09651 0
M  V30 4585 H 428.245 4.58474 -5.00978 0
M  V30 4586 H 426.191 5.77673 -3.10853 0
M  V30 4587 H 426.108 5.80808 -4.8394 0
M  V30 4588 H 427.376 6.67512 -4.02553 0
M  V30 4589 N 431.605 1.3629 0.791371 0
M  V30 4590 C 432.845 1.31792 1.56238 0
M  V30 4591 C 433.209 -0.102237 1.91728 0
M  V30 4592 O 434.41 -0.271759 2.67423 0
M  V30 4593 C 432.681 2.21303 2.80642 0
M  V30 4594 S 434.24 2.34468 3.70904 0
M  V30 4595 H 431.058 0.468141 0.535131 0
M  V30 4596 H 433.66 1.71841 0.932246 0
M  V30 4597 H 432.364 3.23439 2.52617 0
M  V30 4598 H 431.895 1.82266 3.4863 0
M  V30 4599 H 433.91 1.54074 4.71673 0
M  V30 4600 N 433.083 -1.0153 1.20538 0
M  V30 4601 C 434.308 -1.79283 1.04271 0
M  V30 4602 C 434.733 -1.8372 -0.403544 0
M  V30 4603 O 434.091 -1.27321 -1.2907 0
M  V30 4604 C 434.139 -3.21535 1.63241 0
M  V30 4605 O 433.243 -4.03099 0.870908 0
M  V30 4606 H 432.584 -0.55293 0.367647 0
M  V30 4607 H 435.114 -1.27696 1.59859 0
M  V30 4608 H 435.124 -3.72243 1.6703 0
M  V30 4609 H 433.799 -3.1762 2.68497 0
M  V30 4610 H 432.376 -3.61693 0.907323 0
M  V30 4611 N 434.561 -1.01147 -1.20859 0
M  V30 4612 C 435.508 -0.577354 -2.23462 0
M  V30 4613 C 436.478 0.399922 -1.61214 0
M  V30 4614 O 437.663 0.300515 -1.88419 0
M  V30 4615 C 434.803 0.083372 -3.44999 0
M  V30 4616 C 433.916 -0.937856 -4.21697 0
M  V30 4617 C 433.051 -0.248717 -5.30617 0
M  V30 4618 C 432.09 -1.25705 -5.99053 0
M  V30 4619 N 431.227 -0.594939 -6.99575 0
M  V30 4620 H 436.067 -1.45695 -2.59956 0
M  V30 4621 H 433.604 -0.729428 -1.27741 0
M  V30 4622 H 435.562 0.483535 -4.14388 0
M  V30 4623 H 434.192 0.926645 -3.09214 0
M  V30 4624 H 433.244 -1.45622 -3.51423 0
M  V30 4625 H 434.556 -1.70493 -4.68757 0
M  V30 4626 H 433.71 0.207215 -6.06346 0
M  V30 4627 H 432.449 0.55071 -4.84581 0
M  V30 4628 H 431.454 -1.72343 -5.2209 0
M  V30 4629 H 432.679 -2.05767 -6.47176 0
M  V30 4630 H 430.625 0.184713 -6.5574 0
M  V30 4631 H 430.542 -1.30017 -7.44736 0
M  V30 4632 H 431.81 -0.162427 -7.79331 0
M  V30 4633 N 436.039 1.36541 -0.78704 0
M  V30 4634 C 437.279 2.01138 -0.363714 0
M  V30 4635 C 437.643 1.61114 1.04433 0
M  V30 4636 O 438.844 2.18285 1.56861 0
M  V30 4637 C 437.115 3.53603 -0.519582 0
M  V30 4638 S 438.674 4.38415 -0.183782 0
M  V30 4639 H 435.492 0.697263 -0.13909 0
M  V30 4640 H 438.094 1.66475 -1.02501 0
M  V30 4641 H 436.798 3.8022 -1.5447 0
M  V30 4642 H 436.329 3.93084 0.15773 0
M  V30 4643 H 438.344 4.85698 1.01547 0
M  V30 4644 N 437.518 0.538854 1.48102 0
M  V30 4645 C 438.929 0.100679 1.86428 0
M  V30 4646 C 439.28 -1.32447 1.44749 0
M  V30 4647 O 438.405 -1.99339 0.842199 0
M  V30 4648 C 439 0.175933 3.38343 0
M  V30 4649 C 437.559 -0.207098 3.7583 0
M  V30 4650 C 436.706 0.531741 2.72154 0
M  V30 4651 H 439.657 0.749614 1.3988 0
M  V30 4652 H 439.678 -0.610144 3.75576 0
M  V30 4653 H 439.19 1.21328 3.68648 0
M  V30 4654 H 437.291 -1.24626 3.5114 0
M  V30 4655 H 437.404 0.138687 4.78899 0
M  V30 4656 H 435.768 -0.0230462 2.5469 0
M  V30 4657 H 436.551 1.56989 3.05302 0
M  V30 4658 N 438.996 -1.55193 0.274407 0
M  V30 4659 C 440.407 -1.85358 -0.223488 0
M  V30 4660 C 440.758 -1.19642 -1.555 0
M  V30 4661 O 439.883 -0.484498 -2.10907 0
M  V30 4662 C 440.478 -3.36282 -0.412285 0
M  V30 4663 C 439.037 -3.66574 -0.854413 0
M  V30 4664 C 438.184 -2.7725 0.0527056 0
M  V30 4665 H 441.135 -1.50743 0.496215 0
M  V30 4666 H 441.156 -3.59349 -1.25094 0
M  V30 4667 H 440.668 -3.84083 0.556965 0
M  V30 4668 H 438.769 -3.24273 -1.83516 0
M  V30 4669 H 438.882 -4.74073 -0.692226 0
M  V30 4670 H 437.246 -2.50447 -0.463484 0
M  V30 4671 H 438.029 -3.27865 1.01783 0
M  V30 4672 N 440.474 -0.00167713 -1.576 0
M  V30 4673 C 441.424 0.997744 -2.0501 0
M  V30 4674 C 442.408 1.30214 -0.94515 0
M  V30 4675 O 443.6 1.29284 -1.20891 0
M  V30 4676 C 440.729 2.2892 -2.55833 0
M  V30 4677 C 439.815 2.01437 -3.73208 0
M  V30 4678 N 440.206 1.44119 -4.84833 0
M  V30 4679 C 438.504 2.31571 -3.8117 0
M  V30 4680 C 439.205 1.33145 -5.66257 0
M  V30 4681 N 438.181 1.81763 -5.12312 0
M  V30 4682 H 441.983 0.549098 -2.88725 0
M  V30 4683 H 439.497 0.20398 -1.61114 0
M  V30 4684 H 441.494 3.01361 -2.88075 0
M  V30 4685 H 440.154 2.74436 -1.73537 0
M  V30 4686 H 441.165 1.11978 -5.0565 0
M  V30 4687 H 437.842 2.7995 -3.09732 0
M  V30 4688 H 439.232 0.890567 -6.65972 0
M  V30 4689 N 441.952 1.55251 0.271103 0
M  V30 4690 C 443.177 1.80306 1.02491 0
M  V30 4691 C 443.602 0.575457 1.79081 0
M  V30 4692 O 442.96 -0.474987 1.74967 0
M  V30 4693 C 443.008 3.02832 1.95768 0
M  V30 4694 O 442.112 2.78051 3.04568 0
M  V30 4695 H 441.453 0.595896 0.292923 0
M  V30 4696 H 443.983 2.02397 0.299436 0
M  V30 4697 H 443.993 3.31616 2.37686 0
M  V30 4698 H 442.668 3.9183 1.39434 0
M  V30 4699 H 441.245 2.60369 2.66951 0
M  V30 4700 N 443.43 -0.535701 1.48216 0
M  V30 4701 C 444.36 -1.65014 1.65204 0
M  V30 4702 C 445.341 -1.62554 0.501011 0
M  V30 4703 O 446.526 -1.7984 0.732886 0
M  V30 4704 C 443.656 -3.03616 1.68626 0
M  V30 4705 C 442.61 -3.20932 2.83172 0
M  V30 4706 C 441.936 -4.60537 2.71679 0
M  V30 4707 C 443.236 -3.04249 4.24535 0
M  V30 4708 H 444.93 -1.51053 2.58502 0
M  V30 4709 H 442.476 -0.725262 1.24402 0
M  V30 4710 H 444.429 -3.81446 1.79099 0
M  V30 4711 H 443.153 -3.18587 0.719026 0
M  V30 4712 H 441.812 -2.45517 2.72244 0
M  V30 4713 H 441.46 -4.72336 1.72937 0
M  V30 4714 H 441.16 -4.73069 3.48538 0
M  V30 4715 H 442.684 -5.40475 2.84112 0
M  V30 4716 H 444.098 -3.71877 4.36326 0
M  V30 4717 H 442.495 -3.28278 5.02348 0
M  V30 4718 H 443.565 -2.00739 4.41397 0
M  V30 4719 N 444.908 -1.36708 -0.784132 0
M  V30 4720 C 446.136 -1.34398 -1.57305 0
M  V30 4721 C 446.551 0.0735577 -1.88657 0
M  V30 4722 O 445.908 1.03193 -1.50524 0
M  V30 4723 C 445.959 -2.17053 -2.89085 0
M  V30 4724 O 445.68 -3.53281 -2.59083 0
M  V30 4725 C 447.181 -2.22583 -3.83369 0
M  V30 4726 H 444.401 -0.460819 -0.487736 0
M  V30 4727 H 446.945 -1.79879 -0.972819 0
M  V30 4728 H 445.1 -1.75113 -3.45564 0
M  V30 4729 H 445.514 -3.9647 -3.43383 0
M  V30 4730 H 446.988 -2.84763 -4.72878 0
M  V30 4731 H 447.465 -1.23075 -4.21603 0
M  V30 4732 H 448.071 -2.64781 -3.32823 0
M  V30 4733 N 446.386 1.0089 -1.21074 0
M  V30 4734 C 447.616 1.77933 -1.04993 0
M  V30 4735 C 448.024 1.84847 0.403495 0
M  V30 4736 O 447.367 1.30606 1.29181 0
M  V30 4737 C 447.429 3.23541 -1.56722 0
M  V30 4738 C 447.093 3.40214 -3.05129 0
M  V30 4739 C 448.09 3.2881 -4.02716 0
M  V30 4740 C 445.775 3.65781 -3.44252 0
M  V30 4741 C 447.769 3.42732 -5.37414 0
M  V30 4742 C 445.456 3.79346 -4.79103 0
M  V30 4743 C 446.454 3.67827 -5.75493 0
M  V30 4744 O 446.142 3.80965 -7.07899 0
M  V30 4745 H 445.874 0.566157 -0.369381 0
M  V30 4746 H 448.428 1.27826 -1.60779 0
M  V30 4747 H 446.658 3.74766 -0.953285 0
M  V30 4748 H 448.347 3.82245 -1.36543 0
M  V30 4749 H 449.113 3.08986 -3.73835 0
M  V30 4750 H 444.992 3.73831 -2.69762 0
M  V30 4751 H 448.536 3.33658 -6.12632 0
M  V30 4752 H 444.433 3.98672 -5.07672 0
M  V30 4753 H 445.201 3.97937 -7.15254 0
M  V30 4754 N 447.864 1.01787 1.20321 0
M  V30 4755 C 448.797 0.533882 2.21867 0
M  V30 4756 C 449.775 -0.419361 1.57099 0
M  V30 4757 O 450.959 -0.339062 1.85426 0
M  V30 4758 C 448.086 -0.222899 3.37966 0
M  V30 4759 C 447.132 0.680091 4.21043 0
M  V30 4760 S 447.965 2.14997 4.90445 0
M  V30 4761 C 449.121 1.40339 6.09964 0
M  V30 4762 H 449.354 1.39429 2.62577 0
M  V30 4763 H 446.887 0.826867 1.30393 0
M  V30 4764 H 448.845 -0.653425 4.05266 0
M  V30 4765 H 447.506 -1.0589 2.95713 0
M  V30 4766 H 446.699 0.0964704 5.03908 0
M  V30 4767 H 446.301 1.04845 3.59004 0
M  V30 4768 H 448.593 0.68407 6.74038 0
M  V30 4769 H 449.536 2.20823 6.72787 0
M  V30 4770 H 449.944 0.905716 5.57187 0
M  V30 4771 N 449.342 -1.36122 0.79427 0
M  V30 4772 C 450.252 -2.33769 0.197296 0
M  V30 4773 C 451.268 -1.61276 -0.653153 0
M  V30 4774 O 452.444 -1.9323 -0.5678 0
M  V30 4775 C 449.509 -3.40474 -0.654098 0
M  V30 4776 C 448.57 -4.28759 0.215411 0
M  V30 4777 C 447.803 -5.30368 -0.595443 0
M  V30 4778 O 448.026 -5.40211 -1.83107 0
M  V30 4779 O 446.96 -6.019 0.00721351 0
M  V30 4780 H 450.786 -2.86597 1.00478 0
M  V30 4781 H 448.371 -1.38676 0.555818 0
M  V30 4782 H 450.253 -4.05703 -1.13944 0
M  V30 4783 H 448.928 -2.89937 -1.43938 0
M  V30 4784 H 447.835 -3.66554 0.747615 0
M  V30 4785 H 449.168 -4.82661 0.964332 0
M  V30 4786 N 450.82 -0.546701 -1.47814 0
M  V30 4787 C 451.783 0.196287 -2.28358 0
M  V30 4788 C 452.783 0.852437 -1.36346 0
M  V30 4789 O 453.973 0.709913 -1.59078 0
M  V30 4790 C 451.105 1.28579 -3.15722 0
M  V30 4791 H 452.298 -0.511086 -2.95513 0
M  V30 4792 H 449.851 -0.303248 -1.5333 0
M  V30 4793 H 450.586 2.0259 -2.53235 0
M  V30 4794 H 450.371 0.820229 -3.83425 0
M  V30 4795 H 451.861 1.80793 -3.76435 0
M  V30 4796 N 452.299 1.55045 -0.282633 0
M  V30 4797 C 453.527 2.04168 0.33512 0
M  V30 4798 C 453.942 1.16071 1.48906 0
M  V30 4799 O 453.299 0.182391 1.81586 0
M  V30 4800 C 453.35 3.52332 0.808957 0
M  V30 4801 O 453.071 4.37078 -0.299038 0
M  V30 4802 C 454.572 4.17375 1.49375 0
M  V30 4803 H 451.792 0.666744 0.0754543 0
M  V30 4804 H 454.336 2.00205 -0.416918 0
M  V30 4805 H 452.491 3.56715 1.51106 0
M  V30 4806 H 452.905 5.24458 0.0665514 0
M  V30 4807 H 454.379 5.22627 1.77664 0
M  V30 4808 H 454.856 3.65999 2.42778 0
M  V30 4809 H 455.462 4.17016 0.835305 0
M  V30 4810 N 453.777 0.010035 1.57597 0
M  V30 4811 C 455.002 -0.687021 1.95691 0
M  V30 4812 C 455.427 -1.65952 0.885519 0
M  V30 4813 O 454.785 -1.80633 -0.15543 0
M  V30 4814 C 454.833 -1.3864 3.32884 0
M  V30 4815 O 453.937 -2.50115 3.27897 0
M  V30 4816 H 453.278 -0.181989 0.638573 0
M  V30 4817 H 455.808 0.0662122 2.04493 0
M  V30 4818 H 455.818 -1.74754 3.6868 0
M  V30 4819 H 454.493 -0.673411 4.10412 0
M  V30 4820 H 453.07 -2.16253 3.03791 0
M  V30 4821 N 455.255 -1.55392 -0.262866 0
M  V30 4822 C 456.501 -1.76737 -0.99458 0
M  V30 4823 C 456.834 -0.572453 -1.85571 0
M  V30 4824 O 456.109 0.429732 -1.89693 0
M  V30 4825 C 456.392 -3.07824 -1.8686 0
M  V30 4826 C 456.245 -4.3769 -1.03672 0
M  V30 4827 C 457.564 -3.35021 -2.85393 0
M  V30 4828 H 454.683 -0.643005 -0.360157 0
M  V30 4829 H 457.325 -1.88126 -0.266216 0
M  V30 4830 H 455.475 -2.98245 -2.48962 0
M  V30 4831 H 457.147 -4.59238 -0.43563 0
M  V30 4832 H 455.39 -4.32461 -0.340513 0
M  V30 4833 H 456.061 -5.25759 -1.6817 0
M  V30 4834 H 458.537 -3.44458 -2.33426 0
M  V30 4835 H 457.413 -4.27989 -3.43681 0
M  V30 4836 H 457.674 -2.55153 -3.61039 0
M  V30 4837 N 456.733 0.527833 -1.48498 0
M  V30 4838 C 457.973 1.29401 -1.58224 0
M  V30 4839 C 458.337 1.90348 -0.251327 0
M  V30 4840 O 459.538 2.67868 -0.223588 0
M  V30 4841 C 457.809 2.35266 -2.69044 0
M  V30 4842 S 459.368 3.2158 -2.98549 0
M  V30 4843 H 456.186 0.440138 -0.558391 0
M  V30 4844 H 458.788 0.601079 -1.8603 0
M  V30 4845 H 457.492 1.88975 -3.64303 0
M  V30 4846 H 457.023 3.09263 -2.43146 0
M  V30 4847 H 459.038 4.35391 -2.38011 0
M  V30 4848 N 458.211 1.37122 0.776871 0
M  V30 4849 C 459.143 1.28342 1.89897 0
M  V30 4850 C 460.156 0.200277 1.61563 0
M  V30 4851 O 461.345 0.456012 1.72577 0
M  V30 4852 C 458.445 0.960427 3.25006 0
M  V30 4853 C 457.618 2.148 3.81025 0
M  V30 4854 C 456.677 1.79608 4.94598 0
M  V30 4855 O 455.703 2.51845 5.10454 0
M  V30 4856 N 456.905 0.737171 5.758 0
M  V30 4857 H 459.67 2.25027 1.97947 0
M  V30 4858 H 457.231 1.3068 0.955739 0
M  V30 4859 H 459.223 0.705942 3.98495 0
M  V30 4860 H 457.793 0.0823066 3.12492 0
M  V30 4861 H 457.013 2.56454 2.99374 0
M  V30 4862 H 458.301 2.9411 4.15183 0
M  V30 4863 H 457.699 0.137637 5.65533 0
M  V30 4864 H 456.256 0.542534 6.49538 0
M  V30 4865 N 459.689 -1.00246 1.21608 0
M  V30 4866 C 460.929 -1.75589 1.04631 0
M  V30 4867 C 461.293 -1.87513 -0.412648 0
M  V30 4868 O 462.494 -2.59444 -0.703003 0
M  V30 4869 C 460.765 -3.12893 1.72722 0
M  V30 4870 S 462.324 -4.04095 1.71034 0
M  V30 4871 H 459.142 -0.604133 0.374892 0
M  V30 4872 H 461.744 -1.19927 1.54395 0
M  V30 4873 H 460.448 -3.0185 2.78055 0
M  V30 4874 H 459.979 -3.73628 1.23149 0
M  V30 4875 H 461.994 -4.9045 0.753231 0
M  V30 4876 N 461.167 -1.02423 -1.1978 0
M  V30 4877 C 462.077 -0.610919 -2.26506 0
M  V30 4878 C 463.093 0.355152 -1.70337 0
M  V30 4879 O 464.269 0.214195 -2.00258 0
M  V30 4880 C 461.334 0.0365921 -3.46681 0
M  V30 4881 C 460.395 -0.976389 -4.18049 0
M  V30 4882 C 459.628 -0.359683 -5.32487 0
M  V30 4883 O 459.851 0.838601 -5.64202 0
M  V30 4884 O 458.785 -1.08022 -5.92127 0
M  V30 4885 H 462.611 -1.49965 -2.64091 0
M  V30 4886 H 460.196 -0.794156 -1.26545 0
M  V30 4887 H 462.078 0.39786 -4.19518 0
M  V30 4888 H 460.753 0.899398 -3.10954 0
M  V30 4889 H 459.66 -1.38916 -3.47352 0
M  V30 4890 H 460.993 -1.80941 -4.57735 0
M  V30 4891 N 462.645 1.35699 -0.801477 0
M  V30 4892 C 463.592 2.29876 -0.206294 0
M  V30 4893 C 464.562 1.52565 0.656752 0
M  V30 4894 O 465.747 1.81024 0.602906 0
M  V30 4895 C 462.887 3.39052 0.643272 0
M  V30 4896 C 462 4.31335 -0.239644 0
M  V30 4897 C 461.135 5.27599 0.61744 0
M  V30 4898 C 460.174 6.11521 -0.26619 0
M  V30 4899 N 459.311 6.99938 0.550571 0
M  V30 4900 H 464.151 2.80187 -1.01484 0
M  V30 4901 H 461.688 1.37902 -0.511997 0
M  V30 4902 H 463.646 4.0101 1.15094 0
M  V30 4903 H 462.276 2.9003 1.41713 0
M  V30 4904 H 461.328 3.70426 -0.865381 0
M  V30 4905 H 462.64 4.90243 -0.919985 0
M  V30 4906 H 461.794 5.94906 1.19045 0
M  V30 4907 H 460.533 4.69176 1.33137 0
M  V30 4908 H 459.538 5.43166 -0.851507 0
M  V30 4909 H 460.763 6.72022 -0.9779 0
M  V30 4910 H 458.709 6.44008 1.24856 0
M  V30 4911 H 458.626 7.55966 -0.071832 0
M  V30 4912 H 459.894 7.71599 1.10702 0
M  V30 4913 N 464.123 0.554532 1.47522 0
M  V30 4914 C 465.371 0.0294208 2.02079 0
M  V30 4915 C 465.692 -1.32411 1.43151 0
M  V30 4916 O 464.962 -1.863 0.605728 0
M  V30 4917 H 463.542 0.00788672 0.746958 0
M  V30 4918 H 466.204 0.723934 1.80956 0
M  V30 4919 H 465.3 -0.0606745 3.12041 0
M  V30 4920 N 465.601 -1.54893 0.290851 0
M  V30 4921 C 466.831 -2.04047 -0.323818 0
M  V30 4922 C 467.239 -1.16809 -1.48837 0
M  V30 4923 O 466.582 -0.184145 -1.82775 0
M  V30 4924 C 466.644 -3.49248 -0.852395 0
M  V30 4925 C 466.308 -4.56623 0.185557 0
M  V30 4926 C 467.305 -5.09985 1.01053 0
M  V30 4927 C 464.99 -5.01252 0.324332 0
M  V30 4928 C 466.984 -6.06507 1.96031 0
M  V30 4929 C 464.671 -5.97596 1.27757 0
M  V30 4930 C 465.669 -6.50107 2.09405 0
M  V30 4931 O 465.357 -7.44565 3.03114 0
M  V30 4932 H 465.089 -0.671735 -0.0758129 0
M  V30 4933 H 467.643 -2.00947 0.425393 0
M  V30 4934 H 465.873 -3.49639 -1.65195 0
M  V30 4935 H 467.562 -3.81654 -1.38185 0
M  V30 4936 H 468.328 -4.76307 0.914129 0
M  V30 4937 H 464.207 -4.60015 -0.301213 0
M  V30 4938 H 467.751 -6.47418 2.598 0
M  V30 4939 H 463.648 -6.30691 1.37473 0
M  V30 4940 H 464.416 -7.62334 2.97976 0
M  V30 4941 N 467.08 -0.0183926 -1.57589 0
M  V30 4942 C 468.327 0.662562 -1.91354 0
M  V30 4943 C 468.655 1.72747 -0.893788 0
M  V30 4944 O 467.91 1.9545 0.0988509 0
M  V30 4945 C 468.209 1.32676 -3.31861 0
M  V30 4946 C 467.875 0.393267 -4.49182 0
M  V30 4947 C 466.537 0.136302 -4.81007 0
M  V30 4948 C 468.889 -0.248366 -5.20608 0
M  V30 4949 C 466.217 -0.770282 -5.81621 0
M  V30 4950 C 468.569 -1.14294 -6.22189 0
M  V30 4951 C 467.233 -1.4089 -6.52462 0
M  V30 4952 H 466.503 0.242448 -0.700214 0
M  V30 4953 H 469.15 -0.0778629 -1.91342 0
M  V30 4954 H 467.455 2.14168 -3.28084 0
M  V30 4955 H 469.152 1.86001 -3.55253 0
M  V30 4956 H 465.742 0.603723 -4.24327 0
M  V30 4957 H 469.926 -0.062883 -4.9626 0
M  V30 4958 H 465.182 -0.984154 -6.03427 0
M  V30 4959 H 469.356 -1.64637 -6.76659 0
M  V30 4960 H 466.983 -2.11306 -7.30242 0
M  V30 4961 N 468.558 1.5553 0.254621 0
M  V30 4962 C 469.974 1.4778 0.602753 0
M  V30 4963 C 470.174 0.707047 1.88688 0
M  V30 4964 O 469.23 0.233288 2.5142 0
M  V30 4965 C 470.543 2.92133 0.712648 0
M  V30 4966 C 472.091 3.02458 0.805488 0
M  V30 4967 C 472.566 4.48102 0.947009 0
M  V30 4968 N 474.057 4.52008 1.01207 0
M  V30 4969 C 474.792 5.61939 1.1407 0
M  V30 4970 N 474.288 6.81697 1.23536 0
M  V30 4971 N 476.081 5.49719 1.17325 0
M  V30 4972 H 468.232 2.04085 -0.588463 0
M  V30 4973 H 470.495 0.926229 -0.202001 0
M  V30 4974 H 470.201 3.51332 -0.160766 0
M  V30 4975 H 470.075 3.42187 1.58707 0
M  V30 4976 H 472.462 2.43344 1.66936 0
M  V30 4977 H 472.543 2.55627 -0.0939266 0
M  V30 4978 H 472.187 5.07824 0.087725 0
M  V30 4979 H 472.117 4.92607 1.86135 0
M  V30 4980 H 474.608 3.65749 0.950577 0
M  V30 4981 H 474.921 7.61228 1.33236 0
M  V30 4982 H 473.266 6.84473 1.20508 0
M  V30 4983 H 476.457 4.55095 1.09573 0
M  V30 4984 H 476.63 6.35432 1.27005 0
M  V30 4985 N 470.036 -0.519951 1.48776 0
M  V30 4986 C 470.999 -1.60574 1.6355 0
M  V30 4987 C 471.999 -1.52557 0.508234 0
M  V30 4988 O 473.189 -1.56047 0.774262 0
M  V30 4989 C 470.321 -3.00211 1.61512 0
M  V30 4990 H 471.514 -1.4881 2.60376 0
M  V30 4991 H 469.067 -0.742772 1.37523 0
M  V30 4992 H 469.802 -3.17471 0.662009 0
M  V30 4993 H 469.587 -3.07439 2.43359 0
M  V30 4994 H 471.077 -3.79134 1.75064 0
M  V30 4995 N 471.514 -1.37532 -0.769588 0
M  V30 4996 C 472.424 -1.35668 -1.91393 0
M  V30 4997 C 473.44 -0.255954 -1.72107 0
M  V30 4998 O 474.616 -0.491704 -1.95305 0
M  V30 4999 C 471.681 -1.16481 -3.26547 0
M  V30 5000 C 470.742 -2.36212 -3.58472 0
M  V30 5001 C 469.975 -2.17932 -4.87177 0
M  V30 5002 O 470.198 -1.1647 -5.58382 0
M  V30 5003 O 469.132 -3.06167 -5.18214 0
M  V30 5004 H 472.958 -2.32055 -1.95918 0
M  V30 5005 H 470.543 -1.18284 -0.912641 0
M  V30 5006 H 472.425 -1.07778 -4.07384 0
M  V30 5007 H 471.1 -0.231687 -3.2287 0
M  V30 5008 H 470.007 -2.50488 -2.77861 0
M  V30 5009 H 471.34 -3.281 -3.66894 0
M  V30 5010 N 472.992 0.995999 -1.22138 0
M  V30 5011 C 473.939 2.08551 -0.988687 0
M  V30 5012 C 474.909 1.65864 0.0885021 0
M  V30 5013 O 476.094 1.90704 -0.0604589 0
M  V30 5014 C 473.234 3.40374 -0.569191 0
M  V30 5015 C 472.347 3.96421 -1.71681 0
M  V30 5016 C 471.482 5.1639 -1.2456 0
M  V30 5017 C 470.521 5.64567 -2.36497 0
M  V30 5018 N 469.658 6.75777 -1.90445 0
M  V30 5019 H 474.498 2.2779 -1.92135 0
M  V30 5020 H 472.035 1.1168 -0.957388 0
M  V30 5021 H 473.993 4.16068 -0.307166 0
M  V30 5022 H 472.623 3.21145 0.326462 0
M  V30 5023 H 471.675 3.17628 -2.09324 0
M  V30 5024 H 472.987 4.2816 -2.55891 0
M  V30 5025 H 472.141 5.99362 -0.940774 0
M  V30 5026 H 470.88 4.86266 -0.373662 0
M  V30 5027 H 469.885 4.80185 -2.67772 0
M  V30 5028 H 471.11 5.96716 -3.24202 0
M  V30 5029 H 469.056 6.47443 -1.05609 0
M  V30 5030 H 468.973 7.06818 -2.68223 0
M  V30 5031 H 470.241 7.62262 -1.63022 0
M  V30 5032 N 474.47 1.03057 1.19235 0
M  V30 5033 C 475.747 0.642608 1.84743 0
M  V30 5034 C 476.127 -0.878577 1.91948 0
M  V30 5035 O 475.475 -1.77597 1.43776 0
M  V30 5036 C 475.685 1.30665 3.23616 0
M  V30 5037 C 477.033 1.43098 3.9976 0
M  V30 5038 O 478.057 1.26396 3.3302 0
M  V30 5039 O 476.916 1.70223 5.19313 0
M  V30 5040 H 474.01 0.223573 0.796206 0
M  V30 5041 H 476.556 1.12883 1.26711 0
M  V30 5042 H 475.328 2.34544 3.13217 0
M  V30 5043 H 474.951 0.808405 3.89295 0
M  V30 5044 N 475.948 -1.35272 0.808662 0
M  V30 5045 C 477.359 -1.81179 0.450688 0
M  V30 5046 C 477.71 -1.67143 -1.02751 0
M  V30 5047 O 476.835 -1.20325 -1.79864 0
M  V30 5048 C 477.43 -3.28943 0.811275 0
M  V30 5049 C 475.989 -3.72985 0.505871 0
M  V30 5050 C 475.136 -2.57229 1.03578 0
M  V30 5051 H 478.087 -1.2322 1.00012 0
M  V30 5052 H 478.108 -3.80342 0.109588 0
M  V30 5053 H 477.62 -3.39127 1.88718 0
M  V30 5054 H 475.721 -3.68349 -0.561209 0
M  V30 5055 H 475.834 -4.67677 1.03995 0
M  V30 5056 H 474.198 -2.50548 0.458005 0
M  V30 5057 H 474.981 -2.7019 2.11784 0
M  V30 5058 N 477.426 -0.562348 -1.47226 0
M  V30 5059 C 478.837 -0.130325 -1.86245 0
M  V30 5060 C 479.188 1.30128 -1.46838 0
M  V30 5061 O 478.313 1.97974 -0.873805 0
M  V30 5062 C 478.908 -0.229738 -3.3802 0
M  V30 5063 C 477.467 0.14728 -3.76112 0
M  V30 5064 C 476.614 -0.574971 -2.71274 0
M  V30 5065 H 479.565 -0.771773 -1.3867 0
M  V30 5066 H 479.586 0.550316 -3.76499 0
M  V30 5067 H 479.098 -1.27178 -3.66671 0
M  V30 5068 H 477.199 1.19023 -3.53078 0
M  V30 5069 H 477.312 -0.214858 -4.78618 0
M  V30 5070 H 475.676 -0.0174756 -2.54694 0
M  V30 5071 H 476.459 -1.61827 -3.02766 0
M  V30 5072 N 478.904 1.54736 -0.299062 0
M  V30 5073 C 480.129 2.04975 0.316254 0
M  V30 5074 C 480.554 1.17501 1.46885 0
M  V30 5075 O 479.912 0.178678 1.80417 0
M  V30 5076 C 479.96 3.52672 0.751997 0
M  V30 5077 O 479.064 3.68226 1.85697 0
M  V30 5078 H 478.405 0.661126 0.0617175 0
M  V30 5079 H 480.935 1.99805 -0.440341 0
M  V30 5080 H 480.945 3.94488 1.04133 0
M  V30 5081 H 479.62 4.158 -0.0911482 0
M  V30 5082 H 478.197 3.38316 1.56834 0
M  V30 5083 N 480.382 0.0267497 1.57577 0
M  V30 5084 C 481.315 -0.99059 2.05579 0
M  V30 5085 C 482.293 -1.31884 0.951065 0
M  V30 5086 O 483.477 -1.43592 1.22121 0
M  V30 5087 C 480.604 -2.31125 2.47586 0
M  V30 5088 C 479.65 -2.13777 3.69055 0
M  V30 5089 S 480.483 -1.4388 5.15809 0
M  V30 5090 C 481.639 -2.77321 5.6111 0
M  V30 5091 H 481.872 -0.581976 2.91548 0
M  V30 5092 H 479.405 -0.184876 1.53289 0
M  V30 5093 H 481.363 -3.07049 2.72454 0
M  V30 5094 H 480.024 -2.6912 1.61967 0
M  V30 5095 H 479.217 -3.11405 3.96287 0
M  V30 5096 H 478.819 -1.45996 3.44327 0
M  V30 5097 H 481.111 -3.73565 5.65204 0
M  V30 5098 H 482.054 -2.54756 6.60685 0
M  V30 5099 H 482.462 -2.82459 4.88751 0
M  V30 5100 N 481.861 -1.55662 -0.24637 0
M  V30 5101 C 482.824 -1.89558 -1.28842 0
M  V30 5102 C 483.824 -0.772082 -1.41052 0
M  V30 5103 O 485.014 -1.04007 -1.39743 0
M  V30 5104 C 482.146 -2.12449 -2.66605 0
M  V30 5105 H 483.339 -2.82735 -1.00004 0
M  V30 5106 H 480.892 -1.48562 -0.485684 0
M  V30 5107 H 481.627 -1.21742 -3.00582 0
M  V30 5108 H 481.412 -2.94273 -2.59125 0
M  V30 5109 H 482.902 -2.39854 -3.41847 0
M  V30 5110 N 483.339 0.512053 -1.4905 0
M  V30 5111 C 484.579 1.27715 -1.59588 0
M  V30 5112 C 484.943 1.90071 -0.271502 0
M  V30 5113 O 486.144 2.67616 -0.251987 0
M  V30 5114 C 484.415 2.32399 -2.71524 0
M  V30 5115 S 485.974 3.18396 -3.01943 0
M  V30 5116 H 482.792 0.43419 -0.563027 0
M  V30 5117 H 485.394 0.581315 -1.86657 0
M  V30 5118 H 484.098 1.85101 -3.66287 0
M  V30 5119 H 483.629 3.06667 -2.46412 0
M  V30 5120 H 485.644 4.32842 -2.42616 0
M  V30 5121 N 484.817 1.37938 0.762283 0
M  V30 5122 C 486.045 1.36883 1.55147 0
M  V30 5123 C 486.46 -0.0435348 1.8875 0
M  V30 5124 O 485.817 -1.00786 1.52146 0
M  V30 5125 C 485.868 2.21624 2.85596 0
M  V30 5126 O 485.589 3.57358 2.5343 0
M  V30 5127 C 487.09 2.28653 3.7978 0
M  V30 5128 H 484.31 0.468521 0.480343 0
M  V30 5129 H 486.854 1.81404 0.944079 0
M  V30 5130 H 485.009 1.80588 3.42734 0
M  V30 5131 H 485.423 4.01883 3.37032 0
M  V30 5132 H 486.897 2.9225 4.68288 0
M  V30 5133 H 487.374 1.29767 4.19592 0
M  V30 5134 H 487.98 2.70043 3.28568 0
M  V30 5135 N 486.295 -0.989507 1.22664 0
M  V30 5136 C 487.711 -1.25395 0.987331 0
M  V30 5137 C 487.911 -1.9899 -0.317056 0
M  V30 5138 O 486.967 -2.30141 -1.03882 0
M  V30 5139 C 488.28 -2.06242 2.18826 0
M  V30 5140 C 489.828 -2.19413 2.23219 0
M  V30 5141 C 490.303 -3.03648 3.42873 0
M  V30 5142 N 491.794 -3.11234 3.43056 0
M  V30 5143 C 492.529 -3.7671 4.32293 0
M  V30 5144 N 492.025 -4.44085 5.31752 0
M  V30 5145 N 493.818 -3.73505 4.2006 0
M  V30 5146 H 485.969 -0.496212 2.06522 0
M  V30 5147 H 488.232 -0.281784 0.905153 0
M  V30 5148 H 487.938 -1.59531 3.13437 0
M  V30 5149 H 487.812 -3.06996 2.19165 0
M  V30 5150 H 490.199 -2.65336 1.29154 0
M  V30 5151 H 490.28 -1.18078 2.26917 0
M  V30 5152 H 489.924 -2.58424 4.37241 0
M  V30 5153 H 489.854 -4.05132 3.36416 0
M  V30 5154 H 492.345 -2.63287 2.71088 0
M  V30 5155 H 492.658 -4.91797 5.96117 0
M  V30 5156 H 491.003 -4.42822 5.35662 0
M  V30 5157 H 494.194 -3.20033 3.41609 0
M  V30 5158 H 494.367 -4.24253 4.8981 0
M  V30 5159 N 487.773 -1.03688 -1.18687 0
M  V30 5160 C 489.184 -0.766488 -1.70241 0
M  V30 5161 C 489.535 0.713052 -1.82784 0
M  V30 5162 O 488.66 1.55529 -1.50465 0
M  V30 5163 C 489.255 -1.38475 -3.09209 0
M  V30 5164 C 487.814 -1.16276 -3.5799 0
M  V30 5165 C 486.961 -1.4778 -2.34641 0
M  V30 5166 H 489.912 -1.20378 -1.03415 0
M  V30 5167 H 489.933 -0.785939 -3.72295 0
M  V30 5168 H 489.445 -2.46157 -3.00048 0
M  V30 5169 H 487.546 -0.104508 -3.72453 0
M  V30 5170 H 487.659 -1.8571 -4.41643 0
M  V30 5171 H 486.023 -0.897366 -2.38368 0
M  V30 5172 H 486.806 -2.56562 -2.28102 0
M  V30 5173 N 489.251 1.34841 -0.815825 0
M  V30 5174 C 490.662 1.80937 -0.46029 0
M  V30 5175 C 491.013 1.67685 1.01863 0
M  V30 5176 O 490.138 1.21277 1.79223 0
M  V30 5177 C 490.733 3.28509 -0.828708 0
M  V30 5178 C 489.292 3.72712 -0.525644 0
M  V30 5179 C 488.439 2.56676 -1.04941 0
M  V30 5180 H 491.39 1.22688 -1.00664 0
M  V30 5181 H 491.411 3.80279 -0.129757 0
M  V30 5182 H 490.923 3.38122 -1.90513 0
M  V30 5183 H 489.024 3.68642 0.541666 0
M  V30 5184 H 489.137 4.67119 -1.06474 0
M  V30 5185 H 487.501 2.50302 -0.471286 0
M  V30 5186 H 488.284 2.69063 -2.13214 0
M  V30 5187 N 490.729 0.570148 1.46925 0
M  V30 5188 C 491.954 0.0542592 2.07329 0
M  V30 5189 C 492.379 -1.23582 1.41806 0
M  V30 5190 O 491.737 -1.74341 0.497479 0
M  V30 5191 C 491.785 -0.111175 3.60429 0
M  V30 5192 O 490.889 -1.17071 3.95434 0
M  V30 5193 H 490.23 0.0571425 0.661537 0
M  V30 5194 H 492.76 0.789516 1.88753 0
M  V30 5195 H 492.77 -0.321315 4.06733 0
M  V30 5196 H 491.445 0.831012 4.07513 0
M  V30 5197 H 490.022 -0.940029 3.60857 0
M  V30 5198 N 492.207 -1.54576 0.307264 0
M  V30 5199 C 493.17 -2.22423 -0.553224 0
M  V30 5200 C 494.17 -1.21231 -1.05639 0
M  V30 5201 O 495.36 -1.45923 -0.951419 0
M  V30 5202 C 492.492 -2.91552 -1.76664 0
M  V30 5203 H 493.685 -2.99874 0.0396484 0
M  V30 5204 H 491.238 -1.56192 0.0581629 0
M  V30 5205 H 491.973 -2.18196 -2.39918 0
M  V30 5206 H 491.758 -3.65738 -1.41343 0
M  V30 5207 H 493.248 -3.43292 -2.37783 0
M  V30 5208 N 493.685 -0.035106 -1.57561 0
M  V30 5209 C 495.096 0.502885 -1.798 0
M  V30 5210 C 495.447 1.71892 -0.945921 0
M  V30 5211 O 494.572 2.15822 -0.157991 0
M  V30 5212 C 495.167 0.919097 -3.26095 0
M  V30 5213 C 493.726 1.40216 -3.49308 0
M  V30 5214 C 492.873 0.369709 -2.74824 0
M  V30 5215 H 495.824 -0.261102 -1.56537 0
M  V30 5216 H 495.845 1.78308 -3.36135 0
M  V30 5217 H 495.357 0.0338526 -3.88085 0
M  V30 5218 H 493.458 2.30714 -2.92578 0
M  V30 5219 H 493.571 1.40541 -4.58023 0
M  V30 5220 H 491.935 0.839113 -2.40481 0
M  V30 5221 H 492.718 -0.507173 -3.39533 0
M  V30 5222 N 495.163 1.55791 0.238111 0
M  V30 5223 C 496.579 1.48411 0.587045 0
M  V30 5224 C 496.779 0.72702 1.87927 0
M  V30 5225 O 495.835 0.259942 2.51158 0
M  V30 5226 C 497.148 2.92873 0.681623 0
M  V30 5227 C 498.696 3.03295 0.773363 0
M  V30 5228 C 499.171 4.49082 0.899428 0
M  V30 5229 N 500.662 4.53056 0.964075 0
M  V30 5230 C 501.397 5.63117 1.08104 0
M  V30 5231 N 500.893 6.82969 1.16299 0
M  V30 5232 N 502.686 5.50933 1.11488 0
M  V30 5233 H 494.837 2.0345 -0.610076 0
M  V30 5234 H 497.1 0.924034 -0.211813 0
M  V30 5235 H 496.806 3.51142 -0.19802 0
M  V30 5236 H 496.68 3.43851 1.55069 0
M  V30 5237 H 499.067 2.45101 1.64346 0
M  V30 5238 H 499.148 2.55513 -0.121034 0
M  V30 5239 H 498.792 5.07889 0.0338586 0
M  V30 5240 H 498.722 4.94553 1.809 0
M  V30 5241 H 501.213 3.66737 0.91173 0
M  V30 5242 H 501.526 7.62598 1.25155 0
M  V30 5243 H 499.871 6.85712 1.13241 0
M  V30 5244 H 503.062 4.56231 1.0474 0
M  V30 5245 H 503.235 6.36743 1.20259 0
M  V30 5246 N 496.642 -0.504142 1.49319 0
M  V30 5247 C 497.59 -1.62689 1.66238 0
M  V30 5248 C 498.584 -1.6095 0.528349 0
M  V30 5249 O 499.79 -1.65496 0.707887 0
M  V30 5250 H 496.165 -0.539247 0.524134 0
M  V30 5251 H 498.136 -1.45571 2.60484 0
M  V30 5252 C 496.885 -3.00841 1.74328 0
M  V30 5253 H 496.208 -3.02884 2.60963 0
M  V30 5254 H 497.648 -3.78945 1.90202 0
M  V30 5255 C 496.107 -3.33355 0.487416 0
M  V30 5256 O 496.637 -3.99819 -0.388294 0
M  V30 5257 N 494.843 -2.88469 0.351306 0
M  V30 5258 H 494.39 -2.34557 1.06492 0
M  V30 5259 H 494.348 -3.10591 -0.487899 0
M  V30 5260 N 498.12 -1.38341 -0.754957 0
M  V30 5261 C 499.366 -1.34672 -1.51628 0
M  V30 5262 C 499.699 0.0636036 -1.94096 0
M  V30 5263 O 498.974 1.0245 -1.6533 0
M  V30 5264 C 499.257 -2.30116 -2.76981 0
M  V30 5265 C 499.11 -3.80003 -2.4066 0
M  V30 5266 C 500.429 -2.23715 -3.78998 0
M  V30 5267 H 497.548 -0.490517 -0.550056 0
M  V30 5268 H 500.19 -1.69178 -0.864807 0
M  V30 5269 H 498.34 -2.00821 -3.3257 0
M  V30 5270 H 500.012 -4.19966 -1.90856 0
M  V30 5271 H 498.255 -3.97751 -1.73137 0
M  V30 5272 H 498.926 -4.42244 -3.30339 0
M  V30 5273 H 501.402 -2.49574 -3.32945 0
M  V30 5274 H 500.278 -2.9261 -4.64403 0
M  V30 5275 H 500.539 -1.23554 -4.24484 0
M  V30 5276 N 499.598 0.982988 -1.23187 0
M  V30 5277 C 500.844 1.72648 -1.06398 0
M  V30 5278 C 501.177 1.90066 0.398561 0
M  V30 5279 O 500.452 1.45105 1.29518 0
M  V30 5280 C 500.735 3.12627 -1.78707 0
M  V30 5281 C 500.588 3.02795 -3.32618 0
M  V30 5282 C 501.907 4.11997 -1.54747 0
M  V30 5283 H 499.026 0.626649 -0.387918 0
M  V30 5284 H 501.668 1.14455 -1.51658 0
M  V30 5285 H 499.818 3.62308 -1.40234 0
M  V30 5286 H 501.49 2.60659 -3.80598 0
M  V30 5287 H 499.733 2.39362 -3.61785 0
M  V30 5288 H 500.404 4.01893 -3.78399 0
M  V30 5289 H 502.88 3.71114 -1.88186 0
M  V30 5290 H 501.756 5.08037 -2.07821 0
M  V30 5291 H 502.017 4.39462 -0.482249 0
M  V30 5292 N 501.076 1.04316 1.18135 0
M  V30 5293 C 502.323 0.74802 1.88178 0
M  V30 5294 C 502.651 -0.72441 1.80506 0
M  V30 5295 O 501.906 -1.54463 1.20165 0
M  V30 5296 C 502.205 1.16271 3.37958 0
M  V30 5297 C 501.871 2.63585 3.65833 0
M  V30 5298 C 500.533 3.03829 3.73151 0
M  V30 5299 C 502.885 3.58822 3.78016 0
M  V30 5300 C 500.213 4.38194 3.90132 0
M  V30 5301 C 502.565 4.92909 3.96514 0
M  V30 5302 C 501.229 5.3282 4.02068 0
M  V30 5303 H 500.499 0.27372 0.688592 0
M  V30 5304 H 503.146 1.30863 1.39811 0
M  V30 5305 H 501.451 0.520938 3.88321 0
M  V30 5306 H 503.148 0.911672 3.90499 0
M  V30 5307 H 499.738 2.31414 3.60757 0
M  V30 5308 H 503.922 3.28875 3.71692 0
M  V30 5309 H 499.178 4.68631 3.92677 0
M  V30 5310 H 503.352 5.66606 4.04883 0
M  V30 5311 H 500.979 6.36943 4.14979 0
M  V30 5312 N 502.554 -1.34406 0.822964 0
M  V30 5313 C 503.502 -2.31428 0.233165 0
M  V30 5314 C 504.496 -1.57404 -0.626118 0
M  V30 5315 O 505.702 -1.72402 -0.517453 0
M  V30 5316 H 502.077 -0.749863 0.0566557 0
M  V30 5317 H 504.048 -2.78699 1.06628 0
M  V30 5318 C 502.797 -3.42653 -0.590264 0
M  V30 5319 H 502.12 -3.99753 0.0616129 0
M  V30 5320 H 503.56 -4.12778 -0.969054 0
M  V30 5321 C 502.019 -2.87112 -1.76262 0
M  V30 5322 O 502.549 -2.81995 -2.8608 0
M  V30 5323 N 500.755 -2.43934 -1.57938 0
M  V30 5324 H 500.302 -2.48296 -0.686078 0
M  V30 5325 H 500.26 -2.07123 -2.36532 0
M  V30 5326 N 504.032 -0.577932 -1.46621 0
M  V30 5327 C 505.281 -0.0594281 -2.01612 0
M  V30 5328 C 505.594 1.30663 -1.45556 0
M  V30 5329 O 506.8 1.91621 -1.92337 0
M  V30 5330 C 505.256 -0.0556666 -3.59857 0
M  V30 5331 C 504.864 -1.41975 -4.24908 0
M  V30 5332 C 506.608 0.409143 -4.22524 0
M  V30 5333 C 504.515 -1.37397 -5.75218 0
M  V30 5334 H 503.445 -0.0184469 -0.753774 0
M  V30 5335 H 506.096 -0.728869 -1.68404 0
M  V30 5336 H 504.478 0.679843 -3.90121 0
M  V30 5337 H 505.652 -2.17461 -4.0626 0
M  V30 5338 H 503.967 -1.82419 -3.74316 0
M  V30 5339 H 506.564 0.46211 -5.32699 0
M  V30 5340 H 506.907 1.42565 -3.91128 0
M  V30 5341 H 507.44 -0.272152 -3.96868 0
M  V30 5342 H 504.179 -2.36714 -6.11267 0
M  V30 5343 H 503.699 -0.661239 -5.96144 0
M  V30 5344 H 505.378 -1.08484 -6.3784 0
M  V30 5345 N 505.51 1.54411 -0.315457 0
M  V30 5346 C 506.458 2.25514 0.569771 0
M  V30 5347 C 507.452 1.2663 1.12522 0
M  V30 5348 O 508.658 1.44434 1.07419 0
M  V30 5349 H 505.033 0.724257 0.202376 0
M  V30 5350 H 507.004 2.98354 -0.0522895 0
M  V30 5351 C 505.753 3.02004 1.72305 0
M  V30 5352 H 505.076 3.77906 1.30488 0
M  V30 5353 H 506.516 3.55014 2.31821 0
M  V30 5354 C 504.975 2.09822 2.63583 0
M  V30 5355 O 505.505 1.67574 3.65078 0
M  V30 5356 N 503.711 1.75478 2.31637 0
M  V30 5357 H 503.258 2.10032 1.49145 0
M  V30 5358 H 503.216 1.14079 2.92973 0
M  V30 5359 N 506.988 0.0434614 1.5754 0
M  V30 5360 C 507.898 -0.94893 2.14552 0
M  V30 5361 C 508.914 -1.34707 1.10136 0
M  V30 5362 O 510.09 -1.42557 1.42266 0
M  V30 5363 C 507.155 -2.208 2.67298 0
M  V30 5364 C 506.216 -1.86893 3.86484 0
M  V30 5365 C 505.449 -3.06797 4.36705 0
M  V30 5366 O 505.672 -4.19921 3.86034 0
M  V30 5367 O 504.606 -2.8826 5.28384 0
M  V30 5368 H 508.432 -0.494099 2.99654 0
M  V30 5369 H 506.017 -0.177989 1.48336 0
M  V30 5370 H 507.899 -2.94686 3.01228 0
M  V30 5371 H 506.574 -2.65436 1.85272 0
M  V30 5372 H 505.481 -1.10347 3.57455 0
M  V30 5373 H 506.814 -1.47062 4.69716 0
M  V30 5374 N 508.466 -1.55915 -0.229846 0
M  V30 5375 C 509.694 -1.82617 -0.972562 0
M  V30 5376 C 510.109 -0.621488 -1.78278 0
M  V30 5377 O 509.466 0.409956 -1.77836 0
M  V30 5378 C 509.517 -3.0774 -1.89679 0
M  V30 5379 O 509.238 -4.23559 -1.11934 0
M  V30 5380 C 510.739 -3.47368 -2.75409 0
M  V30 5381 H 507.959 -0.60727 -0.285419 0
M  V30 5382 H 510.503 -2.02996 -0.247579 0
M  V30 5383 H 508.658 -2.89361 -2.57583 0
M  V30 5384 H 509.072 -4.94586 -1.74599 0
M  V30 5385 H 510.546 -4.37977 -3.35977 0
M  V30 5386 H 511.023 -2.68737 -3.47386 0
M  V30 5387 H 511.629 -3.68158 -2.12931 0
M  V30 5388 N 509.944 0.496216 -1.49584 0
M  V30 5389 C 510.907 1.57952 -1.66084 0
M  V30 5390 C 511.907 1.51729 -0.53244 0
M  V30 5391 O 513.097 1.54796 -0.79899 0
M  V30 5392 C 510.229 2.97604 -1.66268 0
M  V30 5393 H 511.422 1.44649 -2.6271 0
M  V30 5394 H 508.975 0.7208 -1.38687 0
M  V30 5395 H 509.71 3.16378 -0.712432 0
M  V30 5396 H 509.495 3.03528 -2.4822 0
M  V30 5397 H 510.985 3.76301 -1.81073 0
M  V30 5398 N 511.423 1.38739 0.74761 0
M  V30 5399 C 512.353 1.39173 1.87492 0
M  V30 5400 C 513.334 0.256794 1.6815 0
M  V30 5401 O 514.519 0.460762 1.88655 0
M  V30 5402 C 511.649 1.22197 3.25093 0
M  V30 5403 C 510.603 2.32957 3.59047 0
M  V30 5404 C 509.929 2.01082 4.95449 0
M  V30 5405 C 511.229 3.75237 3.6331 0
M  V30 5406 H 512.923 2.3351 1.87386 0
M  V30 5407 H 510.469 1.12399 0.900134 0
M  V30 5408 H 512.422 1.21124 4.03617 0
M  V30 5409 H 511.146 0.243241 3.25693 0
M  V30 5410 H 509.805 2.33226 2.82845 0
M  V30 5411 H 509.453 1.01678 4.92616 0
M  V30 5412 H 509.153 2.75267 5.19136 0
M  V30 5413 H 510.677 2.01638 5.76346 0
M  V30 5414 H 512.091 3.76966 4.31937 0
M  V30 5415 H 510.488 4.48677 3.98509 0
M  V30 5416 H 511.558 4.07122 2.634 0
M  V30 5417 N 512.901 -0.976442 1.23707 0
M  V30 5418 C 514.15 -1.71254 1.06559 0
M  V30 5419 C 514.463 -1.91528 -0.397024 0
M  V30 5420 O 515.669 -2.62625 -0.688518 0
M  V30 5421 C 514.125 -3.08207 1.8584 0
M  V30 5422 C 513.733 -2.95806 3.36456 0
M  V30 5423 C 515.477 -3.85749 1.77194 0
M  V30 5424 C 513.384 -4.28015 4.08114 0
M  V30 5425 H 512.314 -0.642171 0.395136 0
M  V30 5426 H 514.965 -1.08877 1.4771 0
M  V30 5427 H 513.347 -3.71363 1.37498 0
M  V30 5428 H 514.521 -2.41716 3.92314 0
M  V30 5429 H 512.836 -2.31736 3.45959 0
M  V30 5430 H 515.433 -4.83633 2.28041 0
M  V30 5431 H 515.776 -4.09752 0.735477 0
M  V30 5432 H 516.309 -3.29303 2.23169 0
M  V30 5433 H 513.048 -4.09208 5.12083 0
M  V30 5434 H 512.568 -4.81955 3.57043 0
M  V30 5435 H 514.247 -4.96681 4.14629 0
M  V30 5436 N 514.379 -1.04941 -1.1758 0
M  V30 5437 C 515.309 -0.669172 -2.23706 0
M  V30 5438 C 516.29 0.331835 -1.66832 0
M  V30 5439 O 517.475 0.209988 -1.93061 0
M  V30 5440 C 514.605 -0.0404889 -3.47276 0
M  V30 5441 C 513.559 -0.965983 -4.16957 0
M  V30 5442 C 512.885 -0.201312 -5.34321 0
M  V30 5443 C 514.185 -2.28902 -4.69469 0
M  V30 5444 H 515.879 -1.55639 -2.55767 0
M  V30 5445 H 513.425 -0.749793 -1.22939 0
M  V30 5446 H 515.378 0.237298 -4.20731 0
M  V30 5447 H 514.102 0.881658 -3.14475 0
M  V30 5448 H 512.761 -1.22829 -3.45411 0
M  V30 5449 H 512.409 0.723519 -4.97769 0
M  V30 5450 H 512.109 -0.817968 -5.81879 0
M  V30 5451 H 513.633 0.0692499 -6.10561 0
M  V30 5452 H 515.047 -2.07132 -5.34574 0
M  V30 5453 H 513.444 -2.85942 -5.27596 0
M  V30 5454 H 514.514 -2.92937 -3.86414 0
M  V30 5455 N 515.857 1.33968 -0.830081 0
M  V30 5456 C 516.767 2.33164 -0.259207 0
M  V30 5457 C 517.783 1.62951 0.610164 0
M  V30 5458 O 518.959 1.94668 0.516369 0
M  V30 5459 C 516.024 3.42088 0.563598 0
M  V30 5460 C 515.085 4.28037 -0.329014 0
M  V30 5461 C 514.318 5.3176 0.454616 0
M  V30 5462 O 514.541 5.44876 1.6872 0
M  V30 5463 O 513.475 6.01669 -0.166794 0
M  V30 5464 H 517.301 2.83832 -1.08041 0
M  V30 5465 H 514.886 1.37154 -0.59239 0
M  V30 5466 H 516.768 4.08581 1.03147 0
M  V30 5467 H 515.443 2.93651 1.36201 0
M  V30 5468 H 514.35 3.64443 -0.844538 0
M  V30 5469 H 515.683 4.79934 -1.09196 0
M  V30 5470 N 517.335 0.585699 1.46312 0
M  V30 5471 C 518.581 0.0808731 2.03239 0
M  V30 5472 C 518.936 -1.26609 1.44872 0
M  V30 5473 O 518.229 -1.81779 0.60556 0
M  V30 5474 C 518.423 -0.0401312 3.57377 0
M  V30 5475 C 518.252 1.29356 4.30694 0
M  V30 5476 C 517.022 1.86849 4.69484 0
M  V30 5477 C 519.22 2.21742 4.64042 0
M  V30 5478 N 517.202 3.13926 5.27564 0
M  V30 5479 C 518.573 3.33408 5.22723 0
M  V30 5480 C 520.628 2.21386 4.45974 0
M  V30 5481 C 519.331 4.44852 5.65242 0
M  V30 5482 C 521.357 3.31862 4.89511 0
M  V30 5483 C 520.719 4.42248 5.48266 0
M  V30 5484 H 516.818 0.072443 0.778637 0
M  V30 5485 H 519.402 0.779254 1.78426 0
M  V30 5486 H 517.573 -0.707686 3.81898 0
M  V30 5487 H 519.305 -0.549615 4.00951 0
M  V30 5488 H 516.06 1.40307 4.52339 0
M  V30 5489 H 516.484 3.78775 5.61122 0
M  V30 5490 H 521.126 1.37314 3.99881 0
M  V30 5491 H 518.844 5.29665 6.10312 0
M  V30 5492 H 522.43 3.32708 4.7728 0
M  V30 5493 H 521.31 5.26323 5.81338 0
M  V30 5494 N 518.813 -1.54241 0.323641 0
M  V30 5495 C 520.038 -2.05452 -0.283605 0
M  V30 5496 C 520.463 -1.19823 -1.44997 0
M  V30 5497 O 519.821 -0.207358 -1.8011 0
M  V30 5498 C 519.869 -3.53823 -0.695795 0
M  V30 5499 O 518.973 -3.71134 -1.79815 0
M  V30 5500 H 518.314 -0.662024 -0.0511917 0
M  V30 5501 H 520.844 -1.99079 0.472073 0
M  V30 5502 H 520.854 -3.96094 -0.978434 0
M  V30 5503 H 519.529 -4.15602 0.157287 0
M  V30 5504 H 518.106 -3.40768 -1.51431 0
M  V30 5505 N 520.291 -0.0518155 -1.57515 0
M  V30 5506 C 521.702 0.483787 -1.80323 0
M  V30 5507 C 522.053 1.70879 -0.964099 0
M  V30 5508 O 521.178 2.15643 -0.180872 0
M  V30 5509 C 521.773 0.884459 -3.27052 0
M  V30 5510 C 520.332 1.36504 -3.50776 0
M  V30 5511 C 519.479 0.340539 -2.75201 0
M  V30 5512 H 522.43 -0.277691 -1.56252 0
M  V30 5513 H 522.451 1.74733 -3.38007 0
M  V30 5514 H 521.963 -0.00731093 -3.88099 0
M  V30 5515 H 520.064 2.27598 -2.95009 0
M  V30 5516 H 520.177 1.35675 -4.59488 0
M  V30 5517 H 518.541 0.81356 -2.41357 0
M  V30 5518 H 519.324 -0.543156 -3.38976 0
M  V30 5519 N 521.769 1.56035 0.221574 0
M  V30 5520 C 523.18 1.69229 0.788567 0
M  V30 5521 C 523.531 0.653814 1.84986 0
M  V30 5522 O 522.656 -0.195065 2.15519 0
M  V30 5523 C 523.251 3.06809 1.43713 0
M  V30 5524 C 521.81 3.21858 1.95152 0
M  V30 5525 C 520.957 2.65155 0.811685 0
M  V30 5526 H 523.908 1.587 -0.00307894 0
M  V30 5527 H 523.929 3.02666 2.30594 0
M  V30 5528 H 523.441 3.82369 0.664475 0
M  V30 5529 H 521.542 2.51167 2.7522 0
M  V30 5530 H 521.655 4.29073 2.1315 0
M  V30 5531 H 520.019 2.23635 1.21899 0
M  V30 5532 H 520.802 3.43261 0.0516987 0
M  V30 5533 N 523.247 -0.488276 1.49845 0
M  V30 5534 C 524.472 -1.26997 1.63971 0
M  V30 5535 C 524.897 -1.85427 0.315994 0
M  V30 5536 O 524.255 -1.66475 -0.718032 0
M  V30 5537 C 524.303 -2.36689 2.72049 0
M  V30 5538 O 523.407 -3.40882 2.32107 0
M  V30 5539 H 522.748 -0.374376 0.548396 0
M  V30 5540 H 525.278 -0.583104 1.96115 0
M  V30 5541 H 525.288 -2.82262 2.94605 0
M  V30 5542 H 523.963 -1.93529 3.68129 0
M  V30 5543 H 522.54 -3.01139 2.19931 0
M  V30 5544 N 524.725 -1.39134 -0.740242 0
M  V30 5545 C 526.002 -1.26584 -1.49117 0
M  V30 5546 C 526.382 0.126902 -2.10718 0
M  V30 5547 O 525.73 1.13765 -1.98166 0
M  V30 5548 C 525.94 -2.38619 -2.54681 0
M  V30 5549 C 527.288 -2.77685 -3.21211 0
M  V30 5550 O 528.312 -2.38029 -2.64991 0
M  V30 5551 O 527.171 -3.46115 -4.22926 0
M  V30 5552 H 524.265 -0.495769 -0.661923 0
M  V30 5553 H 526.811 -1.50995 -0.774514 0
M  V30 5554 H 525.583 -3.3175 -2.07504 0
M  V30 5555 H 525.206 -2.15845 -3.33911 0
M  V30 5556 N 526.204 0.969867 -1.24223 0
M  V30 5557 C 527.432 1.74756 -1.10761 0
M  V30 5558 C 527.847 1.85713 0.340041 0
M  V30 5559 O 527.204 1.34389 1.23474 0
M  V30 5560 C 527.255 3.16915 -1.73917 0
M  V30 5561 O 526.976 3.06511 -3.13021 0
M  V30 5562 C 528.477 4.11032 -1.66036 0
M  V30 5563 H 525.697 0.548092 -0.387087 0
M  V30 5564 H 528.241 1.2178 -1.64286 0
M  V30 5565 H 526.396 3.66884 -1.244 0
M  V30 5566 H 526.81 3.96079 -3.43834 0
M  V30 5567 H 528.284 5.08446 -2.14911 0
M  V30 5568 H 528.761 4.34785 -0.621159 0
M  V30 5569 H 529.367 3.66972 -2.14969 0
M  V30 5570 N 527.682 1.05563 1.17022 0
M  V30 5571 C 528.93 0.76642 1.87004 0
M  V30 5572 C 529.251 -0.708854 1.8166 0
M  V30 5573 O 528.521 -1.51242 1.2451 0
M  V30 5574 H 527.101 0.280516 0.692329 0
M  V30 5575 H 529.763 1.33557 1.41945 0
M  V30 5576 H 528.859 1.08472 2.92644 0
M  V30 5577 N 529.16 -1.33526 0.837174 0
M  V30 5578 C 530.408 -1.97446 0.431211 0
M  V30 5579 C 530.729 -1.6665 -1.01255 0
M  V30 5580 O 529.999 -0.964559 -1.70508 0
M  V30 5581 H 528.579 -0.73043 0.156463 0
M  V30 5582 H 531.241 -1.62918 1.06976 0
M  V30 5583 H 530.337 -3.07001 0.561877 0
M  V30 5584 N 530.638 -0.59345 -1.46 0
M  V30 5585 C 532.054 -0.255965 -1.57534 0
M  V30 5586 C 532.254 1.24167 -1.58697 0
M  V30 5587 O 531.31 2.02398 -1.50968 0
M  V30 5588 C 532.623 -0.91466 -2.86451 0
M  V30 5589 C 534.171 -0.889253 -3.00102 0
M  V30 5590 C 534.646 -1.52769 -4.3177 0
M  V30 5591 N 536.137 -1.49253 -4.38495 0
M  V30 5592 C 536.872 -1.9558 -5.39014 0
M  V30 5593 N 536.368 -2.49929 -6.46148 0
M  V30 5594 N 538.161 -1.86432 -5.30282 0
M  V30 5595 H 530.312 -1.56604 -1.43489 0
M  V30 5596 H 532.575 -0.655207 -0.685133 0
M  V30 5597 H 532.281 -1.96861 -2.91442 0
M  V30 5598 H 532.155 -0.429356 -3.74748 0
M  V30 5599 H 534.542 0.156111 -2.94687 0
M  V30 5600 H 534.623 -1.41268 -2.13253 0
M  V30 5601 H 534.267 -2.57231 -4.37944 0
M  V30 5602 H 534.197 -0.979398 -5.17412 0
M  V30 5603 H 536.688 -1.09536 -3.61677 0
M  V30 5604 H 537.001 -2.83109 -7.19075 0
M  V30 5605 H 535.346 -2.53961 -6.46938 0
M  V30 5606 H 538.537 -1.43722 -4.4549 0
M  V30 5607 H 538.71 -2.22852 -6.08474 0
M  V30 5608 N 532.116 1.54067 -0.331816 0
M  V30 5609 C 533.063 2.24623 0.530372 0
M  V30 5610 C 534.033 1.24009 1.10503 0
M  V30 5611 O 535.218 1.52712 1.14384 0
M  V30 5612 C 532.358 3.01374 1.68129 0
M  V30 5613 C 531.471 4.16821 1.13507 0
M  V30 5614 C 530.606 4.81085 2.25234 0
M  V30 5615 C 529.645 5.88621 1.67903 0
M  V30 5616 N 528.782 6.46713 2.73326 0
M  V30 5617 H 533.622 2.97898 -0.0778607 0
M  V30 5618 H 531.159 1.47014 -0.0501965 0
M  V30 5619 H 533.117 3.44125 2.35868 0
M  V30 5620 H 531.747 2.30419 2.26069 0
M  V30 5621 H 530.799 3.78796 0.348979 0
M  V30 5622 H 532.111 4.94203 0.675633 0
M  V30 5623 H 531.265 5.26846 3.00862 0
M  V30 5624 H 530.004 4.03102 2.74518 0
M  V30 5625 H 529.009 5.42254 0.907773 0
M  V30 5626 H 530.234 6.68506 1.19487 0
M  V30 5627 H 528.18 5.71599 3.21886 0
M  V30 5628 H 528.097 7.19532 2.3197 0
M  V30 5629 H 529.365 6.97129 3.48758 0
M  V30 5630 N 533.594 0.0601682 1.57485 0
M  V30 5631 C 534.871 -0.651956 1.84415 0
M  V30 5632 C 535.251 -1.88498 0.950361 0
M  V30 5633 O 534.599 -2.28496 0.0136719 0
M  V30 5634 C 534.809 -1.00069 3.34346 0
M  V30 5635 C 536.157 -1.37915 4.01578 0
M  V30 5636 O 537.181 -1.09277 3.39024 0
M  V30 5637 O 536.04 -1.91399 5.11887 0
M  V30 5638 H 533.134 -0.322668 0.761455 0
M  V30 5639 H 535.68 0.0902159 1.6946 0
M  V30 5640 H 534.452 -0.124463 3.91102 0
M  V30 5641 H 534.075 -1.80001 3.54521 0
M  V30 5642 N 535.072 -1.5615 -0.213296 0
M  V30 5643 C 536.002 -1.96109 -1.26742 0
M  V30 5644 C 536.983 -0.830448 -1.48451 0
M  V30 5645 O 538.168 -1.09339 -1.60495 0
M  V30 5646 C 535.298 -2.28492 -2.61551 0
M  V30 5647 C 534.252 -3.44124 -2.54485 0
M  V30 5648 C 533.578 -3.62134 -3.93399 0
M  V30 5649 C 534.878 -4.78855 -2.08556 0
M  V30 5650 H 536.572 -2.84412 -0.935434 0
M  V30 5651 H 534.118 -1.36836 -0.44854 0
M  V30 5652 H 536.071 -2.55039 -3.3546 0
M  V30 5653 H 534.795 -1.37052 -2.96453 0
M  V30 5654 H 533.454 -3.17639 -1.83033 0
M  V30 5655 H 533.102 -2.68055 -4.25623 0
M  V30 5656 H 532.802 -4.39913 -3.89551 0
M  V30 5657 H 534.326 -3.91038 -4.68958 0
M  V30 5658 H 535.74 -5.04552 -2.72213 0
M  V30 5659 H 534.137 -5.59975 -2.1575 0
M  V30 5660 H 535.207 -4.73657 -1.03811 0
M  V30 5661 N 536.55 0.480323 -1.50102 0
M  V30 5662 C 537.778 1.25657 -1.64371 0
M  V30 5663 C 538.193 1.86011 -0.323316 0
M  V30 5664 O 537.55 1.68803 0.693682 0
M  V30 5665 C 537.601 2.37197 -2.728 0
M  V30 5666 O 537.322 1.7932 -3.9972 0
M  V30 5667 C 538.823 3.2823 -2.9796 0
M  V30 5668 H 536.043 0.380369 -0.552775 0
M  V30 5669 H 538.587 0.574379 -1.96268 0
M  V30 5670 H 536.742 3.01208 -2.43623 0
M  V30 5671 H 537.156 2.52701 -4.59611 0
M  V30 5672 H 538.63 4.02725 -3.77513 0
M  V30 5673 H 539.107 3.86462 -2.08671 0
M  V30 5674 H 539.713 2.69964 -3.28633 0
M  V30 5675 N 538.028 1.39524 0.732853 0
M  V30 5676 C 539.258 1.3994 1.51988 0
M  V30 5677 C 539.666 -0.00727973 1.89199 0
M  V30 5678 O 539.009 -0.989521 1.54771 0
M  V30 5679 C 539.071 2.21026 2.83527 0
M  V30 5680 C 538.735 3.69633 2.68738 0
M  V30 5681 C 539.732 4.62665 2.37143 0
M  V30 5682 C 537.417 4.13244 2.85542 0
M  V30 5683 C 539.411 5.97291 2.22536 0
M  V30 5684 C 537.098 5.47945 2.70554 0
M  V30 5685 C 538.096 6.39783 2.39097 0
M  V30 5686 O 537.784 7.72002 2.24204 0
M  V30 5687 H 537.516 0.479795 0.476206 0
M  V30 5688 H 540.07 1.8399 0.913054 0
M  V30 5689 H 538.3 1.71728 3.46477 0
M  V30 5690 H 539.989 2.13594 3.45156 0
M  V30 5691 H 540.755 4.30272 2.2381 0
M  V30 5692 H 536.634 3.42094 3.09019 0
M  V30 5693 H 540.178 6.68939 1.97905 0
M  V30 5694 H 536.075 5.79928 2.83466 0
M  V30 5695 H 536.843 7.8275 2.39258 0
M  V30 5696 N 539.506 -0.963266 1.24736 0
M  V30 5697 C 540.731 -1.74699 1.11781 0
M  V30 5698 C 541.156 -1.85267 -0.325258 0
M  V30 5699 O 540.514 -1.32681 -1.23553 0
M  V30 5700 C 540.562 -3.14322 1.76731 0
M  V30 5701 O 539.666 -3.99043 1.04109 0
M  V30 5702 H 539.007 -0.53684 0.390767 0
M  V30 5703 H 541.537 -1.20801 1.65131 0
M  V30 5704 H 541.547 -3.64824 1.82668 0
M  V30 5705 H 540.222 -3.05946 2.81726 0
M  V30 5706 H 538.799 -3.5752 1.05991 0
M  V30 5707 N 540.985 -1.06182 -1.16461 0
M  V30 5708 C 542.231 -0.779015 -1.87241 0
M  V30 5709 C 542.564 0.692715 -1.81425 0
M  V30 5710 O 541.839 1.5074 -1.22913 0
M  V30 5711 C 542.122 -1.2728 -3.36856 0
M  V30 5712 C 541.975 -2.80821 -3.51368 0
M  V30 5713 C 543.294 -0.879799 -4.31216 0
M  V30 5714 H 540.413 -0.284464 -0.679889 0
M  V30 5715 H 543.055 -1.31755 -1.36896 0
M  V30 5716 H 541.205 -0.814673 -3.79862 0
M  V30 5717 H 542.877 -3.34833 -3.17308 0
M  V30 5718 H 541.12 -3.19606 -2.93316 0
M  V30 5719 H 541.791 -3.10435 -4.56436 0
M  V30 5720 H 544.267 -1.27436 -3.96105 0
M  V30 5721 H 543.143 -1.25278 -5.34412 0
M  V30 5722 H 543.404 0.215372 -4.41575 0
M  V30 5723 N 542.463 1.3308 -0.844243 0
M  V30 5724 C 543.712 1.96868 -0.438833 0
M  V30 5725 C 544.025 1.67599 1.00846 0
M  V30 5726 O 545.231 2.25043 1.51881 0
M  V30 5727 C 543.687 3.5234 -0.73377 0
M  V30 5728 C 543.295 3.90481 -2.1961 0
M  V30 5729 C 545.039 4.22653 -0.395574 0
M  V30 5730 C 542.946 5.38954 -2.43481 0
M  V30 5731 H 541.876 0.736749 -0.160364 0
M  V30 5732 H 544.527 1.51623 -1.03358 0
M  V30 5733 H 542.909 3.95941 -0.068589 0
M  V30 5734 H 544.083 3.57922 -2.90221 0
M  V30 5735 H 542.398 3.33165 -2.4978 0
M  V30 5736 H 544.995 5.31848 -0.551477 0
M  V30 5737 H 545.338 4.11004 0.661921 0
M  V30 5738 H 545.871 3.84601 -1.01621 0
M  V30 5739 H 542.61 5.55612 -3.47816 0
M  V30 5740 H 542.13 5.72954 -1.77437 0
M  V30 5741 H 543.809 6.05907 -2.26905 0
M  V30 5742 N 543.941 0.601185 1.45683 0
M  V30 5743 C 545.181 0.0968037 2.04171 0
M  V30 5744 C 545.545 -1.2466 1.46027 0
M  V30 5745 O 546.746 -1.84132 1.95829 0
M  V30 5746 C 545.017 0.051384 3.57363 0
M  V30 5747 S 546.576 -0.392737 4.37039 0
M  V30 5748 H 543.394 0.0464504 0.709481 0
M  V30 5749 H 545.996 0.797846 1.78479 0
M  V30 5750 H 544.7 1.03274 3.97193 0
M  V30 5751 H 544.231 -0.671853 3.87621 0
M  V30 5752 H 546.246 -1.64364 4.68187 0
M  V30 5753 N 545.419 -1.53889 0.339982 0
M  V30 5754 C 546.366 -2.24902 -0.518452 0
M  V30 5755 C 547.336 -1.24593 -1.09844 0
M  V30 5756 O 548.521 -1.53317 -1.13572 0
M  V30 5757 C 545.661 -3.02262 -1.66529 0
M  V30 5758 C 544.774 -4.17418 -1.11295 0
M  V30 5759 C 543.909 -4.82273 -2.2268 0
M  V30 5760 C 542.948 -5.89503 -1.6478 0
M  V30 5761 N 542.085 -6.48153 -2.69893 0
M  V30 5762 H 546.925 -2.97853 0.0936579 0
M  V30 5763 H 544.462 -1.46986 0.0579924 0
M  V30 5764 H 546.42 -3.45371 -2.3404 0
M  V30 5765 H 545.05 -2.31614 -2.24844 0
M  V30 5766 H 544.102 -3.78976 -0.328886 0
M  V30 5767 H 545.414 -4.94554 -0.649414 0
M  V30 5768 H 544.568 -5.28435 -2.98063 0
M  V30 5769 H 543.307 -4.04552 -2.72376 0
M  V30 5770 H 542.312 -5.42728 -0.879004 0
M  V30 5771 H 543.537 -6.6913 -1.1594 0
M  V30 5772 H 541.483 -5.73298 -3.1885 0
M  V30 5773 H 541.4 -7.20752 -2.28151 0
M  V30 5774 H 542.668 -6.98968 -3.45056 0
M  V30 5775 N 546.897 -0.0685191 -1.57451 0
M  V30 5776 C 547.844 0.899861 -2.12535 0
M  V30 5777 C 548.814 1.29749 -1.03703 0
M  V30 5778 O 549.999 1.38392 -1.31348 0
M  V30 5779 C 547.139 2.16328 -2.6888 0
M  V30 5780 C 546.252 1.81857 -3.91857 0
M  V30 5781 C 545.387 3.02786 -4.36457 0
M  V30 5782 C 544.426 2.64317 -5.5209 0
M  V30 5783 N 543.563 3.77994 -5.91663 0
M  V30 5784 H 548.403 0.423243 -2.94979 0
M  V30 5785 H 545.94 0.197268 -1.45771 0
M  V30 5786 H 547.898 2.90281 -2.99655 0
M  V30 5787 H 546.528 2.61536 -1.89206 0
M  V30 5788 H 545.58 0.979808 -3.67565 0
M  V30 5789 H 546.892 1.49553 -4.75852 0
M  V30 5790 H 546.046 3.85021 -4.68875 0
M  V30 5791 H 544.785 3.38281 -3.51308 0
M  V30 5792 H 543.79 1.80503 -5.19325 0
M  V30 5793 H 545.015 2.29995 -6.38967 0
M  V30 5794 H 542.961 4.13258 -5.09464 0
M  V30 5795 H 542.878 3.49447 -6.7039 0
M  V30 5796 H 544.146 4.60818 -6.28703 0
M  V30 5797 N 548.375 1.56261 0.205012 0
M  V30 5798 C 549.615 1.81823 0.933806 0
M  V30 5799 C 549.979 0.644534 1.80858 0
M  V30 5800 O 551.18 0.779819 2.5724 0
M  V30 5801 C 549.451 3.12362 1.7368 0
M  V30 5802 S 551.01 3.59296 2.51897 0
M  V30 5803 H 547.828 0.638209 0.313386 0
M  V30 5804 H 550.43 1.94495 0.198001 0
M  V30 5805 H 549.134 3.95809 1.08459 0
M  V30 5806 H 548.665 3.02542 2.5146 0
M  V30 5807 H 550.68 3.23945 3.75864 0
M  V30 5808 N 549.853 -0.472356 1.50355 0
M  V30 5809 C 551.101 -1.22211 1.60962 0
M  V30 5810 C 551.422 -1.92497 0.311439 0
M  V30 5811 O 550.692 -1.8405 -0.671002 0
M  V30 5812 H 549.272 -0.454092 0.593135 0
M  V30 5813 H 551.934 -0.544977 1.87126 0
M  V30 5814 H 551.03 -1.9707 2.42012 0
M  V30 5815 N 551.331 -1.39911 -0.725443 0
M  V30 5816 C 552.261 -1.42138 -1.85254 0
M  V30 5817 C 553.242 -0.283513 -1.67721 0
M  V30 5818 O 554.427 -0.490717 -1.87898 0
M  V30 5819 C 551.557 -1.27354 -3.23107 0
M  V30 5820 C 550.511 -2.3864 -3.55296 0
M  V30 5821 C 549.837 -2.08939 -4.92188 0
M  V30 5822 C 551.137 -3.8097 -3.57295 0
M  V30 5823 H 552.831 -2.36461 -1.83648 0
M  V30 5824 H 550.377 -1.13817 -0.882138 0
M  V30 5825 H 552.33 -1.2753 -4.01639 0
M  V30 5826 H 551.054 -0.295025 -3.25265 0
M  V30 5827 H 549.713 -2.37696 -2.79099 0
M  V30 5828 H 549.361 -1.09502 -4.90936 0
M  V30 5829 H 549.061 -2.83491 -5.14691 0
M  V30 5830 H 550.585 -2.10781 -5.73065 0
M  V30 5831 H 551.999 -3.8379 -4.25885 0
M  V30 5832 H 550.396 -4.5496 -3.9132 0
M  V30 5833 H 551.466 -4.11261 -2.5689 0
M  V30 5834 N 552.809 0.956637 -1.25245 0
M  V30 5835 C 554.086 1.67716 -1.00651 0
M  V30 5836 C 554.466 2.0585 0.467866 0
M  V30 5837 O 553.814 1.77029 1.44475 0
M  V30 5838 C 554.024 2.90093 -1.94028 0
M  V30 5839 C 555.372 3.6209 -2.21756 0
M  V30 5840 O 556.396 3.00171 -1.9177 0
M  V30 5841 O 555.255 4.7358 -2.72735 0
M  V30 5842 H 552.349 0.733731 -0.381533 0
M  V30 5843 H 554.895 1.00974 -1.3639 0
M  V30 5844 H 553.667 2.58689 -2.93591 0
M  V30 5845 H 553.29 3.64566 -1.58674 0
M  V30 5846 N 554.287 1.06798 1.15896 0
M  V30 5847 C 555.515 0.808694 1.90441 0
M  V30 5848 C 555.93 -0.637506 1.77711 0
M  V30 5849 O 555.287 -1.43684 1.12522 0
M  V30 5850 C 555.338 1.20068 3.40978 0
M  V30 5851 O 555.059 2.59013 3.53333 0
M  V30 5852 C 556.56 0.96987 4.3256 0
M  V30 5853 H 553.78 0.292809 0.603742 0
M  V30 5854 H 556.324 1.42296 1.46874 0
M  V30 5855 H 554.479 0.630842 3.82229 0
M  V30 5856 H 554.893 2.7485 4.46719 0
M  V30 5857 H 556.367 1.29371 5.36626 0
M  V30 5858 H 556.844 -0.0941209 4.39099 0
M  V30 5859 H 557.45 1.52433 3.97044 0
M  V30 5860 N 555.766 -1.3263 0.851289 0
M  V30 5861 C 556.991 -2.02097 0.466006 0
M  V30 5862 C 557.416 -1.63574 -0.928709 0
M  V30 5863 O 556.774 -0.834665 -1.60944 0
M  V30 5864 C 556.822 -3.55425 0.608737 0
M  V30 5865 O 555.926 -4.10827 -0.359878 0
M  V30 5866 H 555.267 -0.636911 0.187724 0
M  V30 5867 H 557.797 -1.69253 1.14955 0
M  V30 5868 H 557.807 -4.04986 0.495006 0
M  V30 5869 H 556.482 -3.82806 1.62581 0
M  V30 5870 H 555.059 -3.72349 -0.202666 0
M  V30 5871 N 557.244 -0.608902 -1.45362 0
M  V30 5872 C 558.176 0.147318 -2.28726 0
M  V30 5873 C 559.189 0.830468 -1.40025 0
M  V30 5874 O 560.378 0.695636 -1.64387 0
M  V30 5875 C 557.478 1.22968 -3.15804 0
M  V30 5876 C 556.651 0.633391 -4.3279 0
M  V30 5877 C 555.71 1.60682 -5.01067 0
M  V30 5878 O 554.736 1.13261 -5.57818 0
M  V30 5879 N 555.938 2.94123 -5.00472 0
M  V30 5880 H 558.703 -0.568014 -2.94268 0
M  V30 5881 H 556.264 -0.448479 -1.55564 0
M  V30 5882 H 558.256 1.88072 -3.58345 0
M  V30 5883 H 556.826 1.84752 -2.52162 0
M  V30 5884 H 556.046 -0.195762 -3.93714 0
M  V30 5885 H 557.334 0.215255 -5.08344 0
M  V30 5886 H 556.732 3.3525 -4.55657 0
M  V30 5887 H 555.289 3.54646 -5.46872 0
M  V30 5888 N 558.722 1.53707 -0.348139 0
M  V30 5889 C 559.962 2.02899 0.247254 0
M  V30 5890 C 560.326 1.23033 1.47401 0
M  V30 5891 O 561.527 1.62146 2.14388 0
M  V30 5892 C 559.798 3.53156 0.549151 0
M  V30 5893 S 561.357 4.24247 1.1207 0
M  V30 5894 H 558.175 0.707213 0.0732894 0
M  V30 5895 H 560.777 1.89338 -0.486965 0
M  V30 5896 H 559.481 4.08893 -0.351435 0
M  V30 5897 H 559.012 3.70845 1.31291 0
M  V30 5898 H 561.027 4.33958 2.40613 0
M  V30 5899 N 560.2 0.0768682 1.57412 0
M  V30 5900 C 561.11 -0.903207 2.16516 0
M  V30 5901 C 562.126 -1.32341 1.12968 0
M  V30 5902 O 563.302 -1.39507 1.45258 0
M  V30 5903 C 560.367 -2.1508 2.71922 0
M  V30 5904 C 559.428 -1.78653 3.90361 0
M  V30 5905 C 558.661 -2.97465 4.43114 0
M  V30 5906 O 558.884 -4.11638 3.94854 0
M  V30 5907 O 557.818 -2.76987 5.3438 0
M  V30 5908 H 561.644 -0.430427 3.00634 0
M  V30 5909 H 559.229 -0.146485 1.4868 0
M  V30 5910 H 561.111 -2.8823 3.07411 0
M  V30 5911 H 559.786 -2.61446 1.9086 0
M  V30 5912 H 558.693 -1.0274 3.59716 0
M  V30 5913 H 560.026 -1.37066 4.7273 0
M  V30 5914 N 561.678 -1.56367 -0.196722 0
M  V30 5915 C 562.955 -1.71359 -0.943159 0
M  V30 5916 C 563.335 -0.631192 -2.01443 0
M  V30 5917 O 562.683 0.358071 -2.25677 0
M  V30 5918 C 562.893 -3.13623 -1.53106 0
M  V30 5919 C 564.241 -3.73806 -2.01381 0
M  V30 5920 O 565.265 -3.16742 -1.62951 0
M  V30 5921 O 564.124 -4.73951 -2.7209 0
M  V30 5922 H 561.218 -0.698851 -0.442195 0
M  V30 5923 H 563.764 -1.68672 -0.186547 0
M  V30 5924 H 562.536 -3.83873 -0.758785 0
M  V30 5925 H 562.159 -3.20532 -2.35255 0
M  V30 5926 N 563.156 0.464375 -1.50603 0
M  V30 5927 C 564.396 1.22573 -1.6357 0
M  V30 5928 C 564.76 1.89111 -0.331834 0
M  V30 5929 O 565.961 2.66679 -0.336999 0
M  V30 5930 C 564.232 2.23643 -2.7878 0
M  V30 5931 S 565.791 3.08628 -3.1192 0
M  V30 5932 H 562.609 0.416058 -0.576556 0
M  V30 5933 H 565.211 0.521637 -1.88412 0
M  V30 5934 H 563.915 1.73354 -3.7199 0
M  V30 5935 H 563.446 2.98672 -2.56044 0
M  V30 5936 H 565.461 4.24904 -2.56264 0
M  V30 5937 N 564.634 1.40294 0.718013 0
M  V30 5938 C 565.882 1.38167 1.47494 0
M  V30 5939 C 566.203 -0.01607 1.94993 0
M  V30 5940 O 565.473 -0.970396 1.70177 0
M  V30 5941 H 564.053 0.508505 0.547203 0
M  V30 5942 H 566.715 1.75324 0.851322 0
M  V30 5943 H 565.811 2.05503 2.34894 0
M  V30 5944 N 566.112 -0.949982 1.2575 0
M  V30 5945 C 567.36 -1.6918 1.10555 0
M  V30 5946 C 567.681 -1.91773 -0.353298 0
M  V30 5947 O 566.951 -1.50814 -1.25027 0
M  V30 5948 H 565.531 -0.626952 0.406129 0
M  V30 5949 H 568.193 -1.1419 1.57945 0
M  V30 5950 H 567.289 -2.66915 1.61749 0
M  V30 5951 N 567.59 -1.07411 -1.15328 0
M  V30 5952 C 568.838 -0.796073 -1.85761 0
M  V30 5953 C 569.159 0.679864 -1.82764 0
M  V30 5954 O 568.429 1.49242 -1.269 0
M  V30 5955 H 567.009 -0.291495 -0.687779 0
M  V30 5956 H 569.671 -1.35799 -1.39802 0
M  V30 5957 H 568.767 -1.13114 -2.90881 0
M  V30 5958 N 569.068 1.32177 -0.85831 0
M  V30 5959 C 569.998 2.31282 -0.321041 0
M  V30 5960 C 570.979 1.59841 0.581786 0
M  V30 5961 O 572.164 1.87619 0.501262 0
M  V30 5962 C 569.294 3.4385 0.48832 0
M  V30 5963 C 568.248 4.26799 -0.320391 0
M  V30 5964 C 567.574 5.31164 0.613934 0
M  V30 5965 C 568.874 4.98829 -1.54813 0
M  V30 5966 H 570.568 2.76469 -1.14915 0
M  V30 5967 H 568.114 1.32916 -0.554028 0
M  V30 5968 H 570.067 4.12224 0.874626 0
M  V30 5969 H 568.791 2.97401 1.34983 0
M  V30 5970 H 567.45 3.60077 -0.688497 0
M  V30 5971 H 567.098 4.80967 1.47239 0
M  V30 5972 H 566.798 5.8755 0.0768097 0
M  V30 5973 H 568.322 6.024 0.997336 0
M  V30 5974 H 569.736 5.59864 -1.23392 0
M  V30 5975 H 568.133 5.64957 -2.02346 0
M  V30 5976 H 569.203 4.26483 -2.30739 0
M  V30 5977 N 570.547 0.616602 1.45037 0
M  V30 5978 C 571.963 0.280994 1.57107 0
M  V30 5979 C 572.163 -1.21627 1.60653 0
M  V30 5980 O 571.219 -1.9997 1.54169 0
M  V30 5981 C 572.532 0.960116 2.8496 0
M  V30 5982 C 574.08 0.936884 2.98649 0
M  V30 5983 C 574.555 1.59619 4.29285 0
M  V30 5984 N 576.046 1.5621 4.36065 0
M  V30 5985 C 576.781 2.04131 5.35834 0
M  V30 5986 N 576.277 2.60177 6.4209 0
M  V30 5987 N 578.07 1.94845 5.27249 0
M  V30 5988 H 570.221 1.58867 1.40979 0
M  V30 5989 H 572.484 0.666024 0.674623 0
M  V30 5990 H 572.19 2.01473 2.88273 0
M  V30 5991 H 572.064 0.488921 3.74018 0
M  V30 5992 H 574.451 -0.109209 2.94898 0
M  V30 5993 H 574.532 1.44643 2.10979 0
M  V30 5994 H 574.176 2.64166 4.33796 0
M  V30 5995 H 574.106 1.06159 5.15789 0
M  V30 5996 H 576.597 1.15276 3.59889 0
M  V30 5997 H 576.91 2.94513 7.1448 0
M  V30 5998 H 575.255 2.64221 6.42816 0
M  V30 5999 H 578.446 1.50792 4.43147 0
M  V30 6000 H 578.619 2.32504 6.04852 0
M  V30 6001 N 572.025 -1.5352 0.356285 0
M  V30 6002 C 573.272 -2.01117 -0.236303 0
M  V30 6003 C 573.6 -1.24381 -1.49531 0
M  V30 6004 O 572.855 -0.323057 -1.93015 0
M  V30 6005 C 573.154 -3.52607 -0.583369 0
M  V30 6006 C 572.82 -4.47151 0.58023 0
M  V30 6007 C 571.482 -4.72718 0.899528 0
M  V30 6008 C 573.834 -5.03137 1.36024 0
M  V30 6009 C 571.162 -5.51523 2.00098 0
M  V30 6010 C 573.514 -5.83145 2.45204 0
M  V30 6011 C 572.178 -6.07001 2.77679 0
M  V30 6012 H 571.448 -0.735938 -0.0864695 0
M  V30 6013 H 574.095 -1.85209 0.48683 0
M  V30 6014 H 572.4 -3.66413 -1.38739 0
M  V30 6015 H 574.097 -3.86901 -1.05397 0
M  V30 6016 H 570.687 -4.27394 0.321322 0
M  V30 6017 H 574.871 -4.83339 1.12682 0
M  V30 6018 H 570.127 -5.68229 2.25668 0
M  V30 6019 H 574.301 -6.25537 3.06067 0
M  V30 6020 H 571.928 -6.67851 3.63151 0
M  V30 6021 N 573.503 -0.0852151 -1.57369 0
M  V30 6022 C 574.752 0.580443 -1.93168 0
M  V30 6023 C 575.065 1.6995 -0.968319 0
M  V30 6024 O 576.271 2.42564 -1.21963 0
M  V30 6025 C 574.727 1.08386 -3.43192 0
M  V30 6026 C 574.335 -0.00491388 -4.48 0
M  V30 6027 C 576.079 1.72281 -3.87968 0
M  V30 6028 C 573.986 0.513299 -5.89168 0
M  V30 6029 H 572.916 0.22059 -0.72101 0
M  V30 6030 H 575.567 -0.159621 -1.82804 0
M  V30 6031 H 573.949 1.8773 -3.48674 0
M  V30 6032 H 575.123 -0.780032 -4.5415 0
M  V30 6033 H 573.438 -0.548453 -4.12772 0
M  V30 6034 H 576.035 2.12108 -4.9083 0
M  V30 6035 H 576.378 2.58811 -3.26071 0
M  V30 6036 H 576.911 0.995359 -3.85146 0
M  V30 6037 H 573.65 -0.315153 -6.54742 0
M  V30 6038 H 573.17 1.25564 -5.8651 0
M  V30 6039 H 574.849 0.985433 -6.39451 0
M  V30 6040 N 574.981 1.5647 0.188427 0
M  V30 6041 C 576.392 1.70864 0.752494 0
M  V30 6042 C 576.743 0.692905 1.83557 0
M  V30 6043 O 575.868 -0.149307 2.15884 0
M  V30 6044 C 576.463 3.09789 1.37173 0
M  V30 6045 C 575.022 3.25925 1.88281 0
M  V30 6046 C 574.169 2.66817 0.755259 0
M  V30 6047 H 577.12 1.58657 -0.0367408 0
M  V30 6048 H 577.141 3.07489 2.24122 0
M  V30 6049 H 576.653 3.83693 0.583219 0
M  V30 6050 H 574.754 2.56948 2.6983 0
M  V30 6051 H 574.867 4.33498 2.04001 0
M  V30 6052 H 573.231 2.2617 1.17128 0
M  V30 6053 H 574.014 3.43294 -0.0211237 0
M  V30 6054 N 576.459 -0.456382 1.50847 0
M  V30 6055 C 577.875 -0.791345 1.386 0
M  V30 6056 C 578.075 -1.9633 0.453498 0
M  V30 6057 O 577.131 -2.52308 -0.0984353 0
M  V30 6058 C 578.444 -1.08959 2.80265 0
M  V30 6059 C 579.992 -1.19517 2.89283 0
M  V30 6060 C 580.467 -1.52647 4.31814 0
M  V30 6061 N 581.958 -1.59609 4.34832 0
M  V30 6062 C 582.693 -1.86777 5.42127 0
M  V30 6063 N 582.189 -2.11866 6.59609 0
M  V30 6064 N 583.982 -1.88402 5.29586 0
M  V30 6065 H 576.133 0.315746 2.1004 0
M  V30 6066 H 578.396 0.0787916 0.94472 0
M  V30 6067 H 578.102 -0.301355 3.50407 0
M  V30 6068 H 577.976 -2.02211 3.18419 0
M  V30 6069 H 580.363 -1.97406 2.19351 0
M  V30 6070 H 580.444 -0.242111 2.54652 0
M  V30 6071 H 580.088 -0.752922 5.02288 0
M  V30 6072 H 580.018 -2.49127 4.63943 0
M  V30 6073 H 582.509 -1.42201 3.50125 0
M  V30 6074 H 582.822 -2.31912 7.37182 0
M  V30 6075 H 581.167 -2.09228 6.62758 0
M  V30 6076 H 584.358 -1.68307 4.36795 0
M  V30 6077 H 584.531 -2.09238 6.13289 0
M  V30 6078 N 577.937 -1.40673 -0.710563 0
M  V30 6079 C 578.887 -1.37812 -1.81636 0
M  V30 6080 C 579.871 -0.254853 -1.58869 0
M  V30 6081 O 581.063 -0.494356 -1.69956 0
M  V30 6082 C 578.192 -1.24802 -3.19811 0
M  V30 6083 C 577.278 -2.41931 -3.48325 0
M  V30 6084 N 577.669 -3.67411 -3.47625 0
M  V30 6085 C 575.967 -2.35419 -3.78806 0
M  V30 6086 C 576.668 -4.45008 -3.74623 0
M  V30 6087 N 575.644 -3.74916 -3.93623 0
M  V30 6088 H 579.446 -2.32766 -1.79436 0
M  V30 6089 H 576.96 -1.34516 -0.909909 0
M  V30 6090 H 578.957 -1.20835 -3.99004 0
M  V30 6091 H 577.617 -0.308202 -3.23234 0
M  V30 6092 H 578.628 -4.00503 -3.28356 0
M  V30 6093 H 575.305 -1.4983 -3.89689 0
M  V30 6094 H 576.695 -5.53884 -3.80344 0
M  V30 6095 N 579.415 0.9433 -1.26252 0
M  V30 6096 C 580.643 1.72367 -1.14443 0
M  V30 6097 C 581.058 1.86392 0.300572 0
M  V30 6098 O 580.415 1.36978 1.20596 0
M  V30 6099 C 580.466 3.13155 -1.806 0
M  V30 6100 O 580.187 2.99803 -3.19452 0
M  V30 6101 C 581.688 4.07417 -1.74717 0
M  V30 6102 H 578.908 0.539758 -0.398626 0
M  V30 6103 H 581.452 1.18268 -1.66832 0
M  V30 6104 H 579.607 3.64162 -1.32154 0
M  V30 6105 H 580.021 3.88697 -3.52158 0
M  V30 6106 H 581.495 5.03773 -2.25647 0
M  V30 6107 H 581.972 4.3337 -0.713244 0
M  V30 6108 H 582.578 3.6233 -2.22704 0
M  V30 6109 N 580.893 1.08022 1.14757 0
M  V30 6110 C 582.141 0.805913 1.85336 0
M  V30 6111 C 582.462 -0.670162 1.83122 0
M  V30 6112 O 581.732 -1.48567 1.2769 0
M  V30 6113 H 580.312 0.295138 0.686223 0
M  V30 6114 H 582.974 1.36538 1.3908 0
M  V30 6115 H 582.07 1.14655 2.90277 0
M  V30 6116 N 582.371 -1.3172 0.865308 0
M  V30 6117 C 583.301 -2.31109 0.333302 0
M  V30 6118 C 584.282 -1.60148 -0.573301 0
M  V30 6119 O 585.467 -1.87882 -0.491305 0
M  V30 6120 C 582.597 -3.44104 -0.470078 0
M  V30 6121 C 581.551 -4.26623 0.343021 0
M  V30 6122 C 580.877 -5.31482 -0.585756 0
M  V30 6123 C 582.177 -4.98001 1.57456 0
M  V30 6124 H 583.871 -2.75855 1.1638 0
M  V30 6125 H 581.417 -1.3262 0.561069 0
M  V30 6126 H 583.37 -4.12682 -0.852752 0
M  V30 6127 H 582.094 -2.98112 -1.33404 0
M  V30 6128 H 580.753 -3.59707 0.707583 0
M  V30 6129 H 580.401 -4.81741 -1.44686 0
M  V30 6130 H 580.101 -5.87582 -0.0456494 0
M  V30 6131 H 581.625 -6.0292 -0.965375 0
M  V30 6132 H 583.039 -5.59201 1.26359 0
M  V30 6133 H 581.436 -5.63876 2.05339 0
M  V30 6134 H 582.506 -4.25253 2.32997 0
M  V30 6135 N 583.85 -0.624285 -1.44708 0
M  V30 6136 C 585.099 -0.123539 -2.01321 0
M  V30 6137 C 585.412 1.25966 -1.49639 0
M  V30 6138 O 586.618 1.85405 -1.98336 0
M  V30 6139 C 585.074 -0.170124 -3.59498 0
M  V30 6140 C 584.682 -1.55421 -4.20176 0
M  V30 6141 C 586.426 0.274513 -4.23611 0
M  V30 6142 C 584.332 -1.55628 -5.70556 0
M  V30 6143 H 583.263 -0.0424183 -0.752806 0
M  V30 6144 H 585.913 -0.782076 -1.65999 0
M  V30 6145 H 584.296 0.555385 -3.92086 0
M  V30 6146 H 585.47 -2.30276 -3.99136 0
M  V30 6147 H 583.784 -1.94235 -3.68323 0
M  V30 6148 H 586.382 0.292402 -5.339 0
M  V30 6149 H 586.725 1.3005 -3.95465 0
M  V30 6150 H 587.258 -0.398275 -3.95801 0
M  V30 6151 H 583.997 -2.56041 -6.03426 0
M  V30 6152 H 583.517 -0.850563 -5.93739 0
M  V30 6153 H 585.196 -1.28721 -6.34066 0
M  V30 6154 N 585.328 1.53329 -0.364422 0
M  V30 6155 C 586.276 2.27212 0.497737 0
M  V30 6156 C 587.27 1.30146 1.08437 0
M  V30 6157 O 588.476 1.47778 1.0277 0
M  V30 6158 H 584.851 0.730329 0.179232 0
M  V30 6159 H 586.822 2.98037 -0.147182 0
M  V30 6160 C 585.571 3.07333 1.6261 0
M  V30 6161 H 584.894 3.81866 1.184 0
M  V30 6162 H 586.334 3.62209 2.20409 0
M  V30 6163 C 584.793 2.18102 2.56775 0
M  V30 6164 O 585.323 1.79104 3.59562 0
M  V30 6165 N 583.529 1.82759 2.25937 0
M  V30 6166 H 583.076 2.14671 1.42387 0
M  V30 6167 H 583.034 1.23342 2.89196 0
M  V30 6168 N 586.806 0.0935595 1.57322 0
M  V30 6169 C 587.754 -0.883457 2.15169 0
M  V30 6170 C 588.748 -1.29324 1.09415 0
M  V30 6171 O 589.954 -1.26795 1.27762 0
M  V30 6172 H 586.329 -0.302923 0.688289 0
M  V30 6173 H 588.3 -0.370845 2.96087 0
M  V30 6174 C 587.049 -2.13345 2.74552 0
M  V30 6175 H 586.372 -1.82702 3.55612 0
M  V30 6176 H 587.812 -2.7977 3.18598 0
M  V30 6177 C 586.271 -2.90646 1.70371 0
M  V30 6178 O 586.801 -3.85133 1.14173 0
M  V30 6179 N 585.007 -2.54157 1.40899 0
M  V30 6180 H 584.554 -1.77391 1.86789 0
M  V30 6181 H 584.512 -3.06178 0.714301 0
M  V30 6182 N 588.284 -1.56567 -0.180126 0
M  V30 6183 C 589.509 -1.85975 -0.918041 0
M  V30 6184 C 589.934 -0.678888 -1.75422 0
M  V30 6185 O 589.292 0.372168 -1.77439 0
M  V30 6186 C 589.34 -3.13731 -1.77779 0
M  V30 6187 O 588.444 -2.95335 -2.87838 0
M  V30 6188 H 587.785 -0.61196 -0.257683 0
M  V30 6189 H 590.315 -2.03798 -0.180923 0
M  V30 6190 H 590.325 -3.4491 -2.17948 0
M  V30 6191 H 589 -3.99293 -1.16352 0
M  V30 6192 H 587.577 -2.7549 -2.51316 0
M  V30 6193 N 589.762 0.448376 -1.51087 0
M  V30 6194 C 591.008 1.20049 -1.6345 0
M  V30 6195 C 591.341 1.91121 -0.344444 0
M  V30 6196 O 590.616 1.83125 0.655396 0
M  V30 6197 C 590.899 2.22624 -2.83038 0
M  V30 6198 C 590.752 1.55708 -4.21989 0
M  V30 6199 C 592.071 3.23718 -2.98152 0
M  V30 6200 H 589.19 0.435085 -0.59487 0
M  V30 6201 H 591.832 0.491183 -1.83541 0
M  V30 6202 H 589.982 2.83117 -2.66039 0
M  V30 6203 H 591.654 0.986367 -4.50631 0
M  V30 6204 H 589.897 0.859647 -4.25197 0
M  V30 6205 H 590.568 2.30357 -5.01637 0
M  V30 6206 H 593.044 2.73269 -3.13788 0
M  V30 6207 H 591.92 3.92795 -3.83411 0
M  V30 6208 H 592.181 3.89179 -2.09743 0
M  V30 6209 N 591.24 1.41047 0.703093 0
M  V30 6210 C 592.489 1.39301 1.4587 0
M  V30 6211 C 592.802 0.00267077 1.956 0
M  V30 6212 O 594.008 -0.137414 2.71152 0
M  V30 6213 C 592.464 2.44891 2.63735 0
M  V30 6214 C 592.072 3.89796 2.20824 0
M  V30 6215 C 593.816 2.5227 3.41409 0
M  V30 6216 C 591.723 4.86955 3.35602 0
M  V30 6217 H 590.653 0.518005 0.547893 0
M  V30 6218 H 593.304 1.66839 0.764009 0
M  V30 6219 H 591.686 2.10472 3.35436 0
M  V30 6220 H 592.86 4.33424 1.56461 0
M  V30 6221 H 591.175 3.86008 1.56163 0
M  V30 6222 H 593.772 3.22044 4.26839 0
M  V30 6223 H 594.115 1.55714 3.86081 0
M  V30 6224 H 594.648 2.85742 2.7676 0
M  V30 6225 H 591.387 5.84888 2.9595 0
M  V30 6226 H 590.907 4.47982 3.98839 0
M  V30 6227 H 592.586 5.07361 4.01489 0
M  V30 6228 N 592.718 -0.936591 1.26751 0
M  V30 6229 C 593.964 -1.6858 1.12733 0
M  V30 6230 C 594.297 -1.91414 -0.327745 0
M  V30 6231 O 593.572 -1.49812 -1.24043 0
M  V30 6232 C 593.855 -3.05779 1.90187 0
M  V30 6233 C 593.708 -2.90242 3.43627 0
M  V30 6234 C 595.027 -4.0597 1.69931 0
M  V30 6235 H 592.146 -0.61182 0.410908 0
M  V30 6236 H 594.788 -1.08747 1.55801 0
M  V30 6237 H 592.938 -3.56853 1.53584 0
M  V30 6238 H 594.61 -2.46354 3.9001 0
M  V30 6239 H 592.853 -2.2577 3.70419 0
M  V30 6240 H 593.524 -3.87572 3.93055 0
M  V30 6241 H 596 -3.63874 2.0183 0
M  V30 6242 H 594.876 -4.99974 2.26534 0
M  V30 6243 H 595.137 -4.37369 0.64502 0
M  V30 6244 N 594.196 -1.08629 -1.14182 0
M  V30 6245 C 595.126 -0.740003 -2.21464 0
M  V30 6246 C 596.107 0.278591 -1.67803 0
M  V30 6247 O 597.292 0.148461 -1.93632 0
M  V30 6248 C 594.422 -0.150952 -3.46972 0
M  V30 6249 C 593.376 -1.09815 -4.13672 0
M  V30 6250 C 592.702 -0.3712 -5.3341 0
M  V30 6251 C 594.002 -2.43722 -4.61949 0
M  V30 6252 H 595.696 -1.63697 -2.50686 0
M  V30 6253 H 593.242 -0.788526 -1.20492 0
M  V30 6254 H 595.195 0.103325 -4.21273 0
M  V30 6255 H 593.919 0.781164 -3.1712 0
M  V30 6256 H 592.578 -1.33756 -3.41328 0
M  V30 6257 H 592.226 0.564792 -4.99819 0
M  V30 6258 H 591.926 -1.00267 -5.78982 0
M  V30 6259 H 593.45 -0.12503 -6.10472 0
M  V30 6260 H 594.864 -2.24034 -5.27714 0
M  V30 6261 H 593.261 -3.02582 -5.18232 0
M  V30 6262 H 594.331 -3.05082 -3.76899 0
M  V30 6263 N 595.674 1.31259 -0.872281 0
M  V30 6264 C 596.951 1.91362 -0.404943 0
M  V30 6265 C 597.331 1.79362 1.11321 0
M  V30 6266 O 596.679 1.20277 1.94283 0
M  V30 6267 C 596.889 3.3749 -0.888893 0
M  V30 6268 C 598.237 4.14593 -0.916384 0
M  V30 6269 O 599.261 3.46282 -0.834701 0
M  V30 6270 O 598.12 5.3661 -1.03498 0
M  V30 6271 H 595.214 0.818016 -0.121569 0
M  V30 6272 H 597.76 1.39912 -0.960346 0
M  V30 6273 H 596.532 3.40249 -1.93251 0
M  V30 6274 H 596.155 3.96375 -0.311932 0
M  V30 6275 N 597.152 0.631951 1.44375 0
M  V30 6276 C 598.399 0.136767 2.02038 0
M  V30 6277 C 598.727 -1.24168 1.49709 0
M  V30 6278 O 597.982 -1.83809 0.671763 0
M  V30 6279 C 598.281 0.0735861 3.57324 0
M  V30 6280 C 597.947 1.39092 4.28911 0
M  V30 6281 C 596.609 1.75171 4.48184 0
M  V30 6282 C 598.961 2.26042 4.69632 0
M  V30 6283 C 596.289 2.97907 5.05439 0
M  V30 6284 C 598.641 3.4805 5.28246 0
M  V30 6285 C 597.305 3.84351 5.45738 0
M  V30 6286 H 596.575 0.0500466 0.739308 0
M  V30 6287 H 599.222 0.818429 1.7313 0
M  V30 6288 H 597.527 -0.691449 3.8565 0
M  V30 6289 H 599.224 -0.326091 3.99672 0
M  V30 6290 H 595.814 1.10015 4.1424 0
M  V30 6291 H 599.998 1.99463 4.54454 0
M  V30 6292 H 595.254 3.26108 5.17169 0
M  V30 6293 H 599.428 4.15658 5.5875 0
M  V30 6294 H 597.055 4.79538 5.8987 0
M  V30 6295 N 598.631 -1.53133 0.372548 0
M  V30 6296 C 599.877 -2.01654 -0.215277 0
M  V30 6297 C 600.21 -1.25914 -1.47849 0
M  V30 6298 O 599.485 -0.3548 -1.91237 0
M  V30 6299 C 599.768 -3.56609 -0.500187 0
M  V30 6300 C 599.621 -4.43036 0.777145 0
M  V30 6301 C 600.94 -4.20528 -1.29786 0
M  V30 6302 H 598.059 -0.732991 -0.0767686 0
M  V30 6303 H 600.701 -1.83335 0.498814 0
M  V30 6304 H 598.851 -3.7235 -1.10852 0
M  V30 6305 H 600.523 -4.39079 1.41447 0
M  V30 6306 H 598.766 -4.10723 1.39604 0
M  V30 6307 H 599.437 -5.49424 0.532662 0
M  V30 6308 H 601.913 -4.08663 -0.783198 0
M  V30 6309 H 600.789 -5.28962 -1.46596 0
M  V30 6310 H 601.05 -3.77051 -2.30836 0
M  V30 6311 N 600.109 -0.101901 -1.5727 0
M  V30 6312 C 601.334 0.571759 -1.99363 0
M  V30 6313 C 601.759 1.60507 -0.980768 0
M  V30 6314 O 601.117 1.81231 0.0498517 0
M  V30 6315 C 601.165 1.18996 -3.404 0
M  V30 6316 O 600.269 2.30572 -3.41922 0
M  V30 6317 H 599.61 0.144449 -0.648098 0
M  V30 6318 H 602.14 -0.185325 -2.03759 0
M  V30 6319 H 602.15 1.52962 -3.78241 0
M  V30 6320 H 600.825 0.432984 -4.1364 0
M  V30 6321 H 599.402 1.98173 -3.15883 0
M  V30 6322 N 601.587 1.56661 0.17182 0
M  V30 6323 C 602.537 1.92781 1.21736 0
M  V30 6324 C 603.521 0.796065 1.39827 0
M  V30 6325 O 604.713 1.05924 1.41806 0
M  V30 6326 C 601.842 2.29079 2.55691 0
M  V30 6327 C 600.928 3.48765 2.41296 0
M  V30 6328 N 601.319 4.66022 1.96614 0
M  V30 6329 C 599.617 3.53362 2.72124 0
M  V30 6330 C 600.318 5.48159 1.94669 0
M  V30 6331 N 599.294 4.89189 2.37054 0
M  V30 6332 H 603.096 2.80926 0.863592 0
M  V30 6333 H 600.61 1.57889 0.380096 0
M  V30 6334 H 602.607 2.5315 3.31241 0
M  V30 6335 H 601.267 1.42272 2.91871 0
M  V30 6336 H 602.278 4.9025 1.66959 0
M  V30 6337 H 598.955 2.77033 3.12345 0
M  V30 6338 H 600.345 6.52121 1.61826 0
M  V30 6339 N 603.065 -0.440357 1.51323 0
M  V30 6340 C 604.311 -1.19181 1.64085 0
M  V30 6341 C 604.644 -1.90936 0.354575 0
M  V30 6342 O 603.919 -1.8347 -0.645675 0
M  V30 6343 C 604.202 -2.2112 2.84215 0
M  V30 6344 C 604.055 -1.53468 4.22809 0
M  V30 6345 C 605.374 -3.22133 2.99864 0
M  V30 6346 H 602.493 -0.431924 0.597169 0
M  V30 6347 H 605.135 -0.481443 1.83799 0
M  V30 6348 H 603.285 -2.81703 2.67537 0
M  V30 6349 H 604.957 -0.962455 4.51148 0
M  V30 6350 H 603.2 -0.837086 4.25647 0
M  V30 6351 H 603.871 -2.27694 5.02852 0
M  V30 6352 H 606.347 -2.71601 3.15233 0
M  V30 6353 H 605.223 -3.90756 3.85488 0
M  V30 6354 H 605.484 -3.88061 2.11804 0
M  V30 6355 N 604.543 -1.41418 -0.695603 0
M  V30 6356 C 605.491 -1.43467 -1.83084 0
M  V30 6357 C 606.485 -0.312719 -1.66489 0
M  V30 6358 O 607.691 -0.484744 -1.7335 0
M  V30 6359 H 604.066 -0.448891 -0.603325 0
M  V30 6360 H 606.037 -2.39144 -1.78473 0
M  V30 6361 C 604.786 -1.3337 -3.21104 0
M  V30 6362 H 604.109 -2.18989 -3.3449 0
M  V30 6363 H 605.549 -1.38865 -4.00615 0
M  V30 6364 C 604.008 -0.0460484 -3.36869 0
M  V30 6365 O 604.538 0.909258 -3.91274 0
M  V30 6366 N 602.744 0.0300222 -2.90584 0
M  V30 6367 H 602.291 -0.748129 -2.46497 0
M  V30 6368 H 602.249 0.890991 -3.01511 0
M  V30 6369 N 606.021 0.929856 -1.27246 0
M  V30 6370 C 607.251 1.70895 -1.16096 0
M  V30 6371 C 607.659 1.87039 0.285122 0
M  V30 6372 O 607.002 1.38557 1.20614 0
M  V30 6373 C 607.064 3.12919 -1.7698 0
M  V30 6374 C 606.728 3.2012 -3.26148 0
M  V30 6375 C 607.725 3.02533 -4.22812 0
M  V30 6376 C 605.41 3.43148 -3.66817 0
M  V30 6377 C 607.404 3.07861 -5.58122 0
M  V30 6378 C 605.091 3.48109 -5.02258 0
M  V30 6379 C 606.089 3.30483 -5.97721 0
M  V30 6380 O 605.777 3.35175 -7.30694 0
M  V30 6381 H 605.509 0.54152 -0.404639 0
M  V30 6382 H 608.063 1.17342 -1.68582 0
M  V30 6383 H 606.293 3.67945 -1.18969 0
M  V30 6384 H 607.982 3.72787 -1.60576 0
M  V30 6385 H 608.748 2.84586 -3.92728 0
M  V30 6386 H 604.627 3.55918 -2.9299 0
M  V30 6387 H 608.171 2.94021 -6.32612 0
M  V30 6388 H 604.068 3.65579 -5.31998 0
M  V30 6389 H 604.836 3.51644 -7.39114 0
M  V30 6390 N 607.499 1.09233 1.13605 0
M  V30 6391 C 608.727 0.848908 1.88683 0
M  V30 6392 C 609.142 -0.599667 1.79024 0
M  V30 6393 O 608.499 -1.41265 1.15544 0
M  V30 6394 C 608.55 1.27273 3.38355 0
M  V30 6395 O 608.271 2.66449 3.47759 0
M  V30 6396 C 609.772 1.0614 4.30406 0
M  V30 6397 H 606.992 0.305549 0.597395 0
M  V30 6398 H 609.536 1.4538 1.43823 0
M  V30 6399 H 607.691 0.711776 3.80805 0
M  V30 6400 H 608.105 2.84264 4.40788 0
M  V30 6401 H 609.579 1.40725 5.33761 0
M  V30 6402 H 610.056 -0.000960332 4.392 0
M  V30 6403 H 610.662 1.60821 3.93722 0
M  V30 6404 N 608.977 -1.30795 0.87923 0
M  V30 6405 C 610.224 -1.96362 0.494786 0
M  V30 6406 C 610.552 -1.69448 -0.954868 0
M  V30 6407 O 609.807 -0.988711 -1.68888 0
M  V30 6408 C 610.106 -3.50287 0.709476 0
M  V30 6409 C 609.772 -3.9724 2.13333 0
M  V30 6410 C 608.434 -4.09772 2.52271 0
M  V30 6411 C 610.786 -4.21807 3.06151 0
M  V30 6412 C 608.114 -4.44227 3.83248 0
M  V30 6413 C 610.466 -4.5773 4.36654 0
M  V30 6414 C 609.13 -4.68469 4.75492 0
M  V30 6415 H 608.4 -0.71854 0.181055 0
M  V30 6416 H 611.047 -1.55764 1.11399 0
M  V30 6417 H 609.352 -3.91799 0.0072 0
M  V30 6418 H 611.049 -3.99082 0.391703 0
M  V30 6419 H 607.639 -3.87988 1.82107 0
M  V30 6420 H 611.823 -4.11611 2.77291 0
M  V30 6421 H 607.079 -4.50741 4.13089 0
M  V30 6422 H 611.253 -4.7569 5.08617 0
M  V30 6423 H 608.88 -4.94923 5.77022 0
M  V30 6424 N 610.455 -0.639598 -1.44038 0
M  V30 6425 C 611.365 0.0612377 -2.3452 0
M  V30 6426 C 612.381 0.826717 -1.53106 0
M  V30 6427 O 613.557 0.777059 -1.85806 0
M  V30 6428 C 610.622 1.02492 -3.31204 0
M  V30 6429 C 609.683 0.25788 -4.28525 0
M  V30 6430 C 608.916 1.17566 -5.2059 0
M  V30 6431 O 609.139 2.41461 -5.16771 0
M  V30 6432 O 608.073 0.655407 -5.98321 0
M  V30 6433 H 611.899 -0.68318 -2.95916 0
M  V30 6434 H 609.484 -0.399784 -1.43952 0
M  V30 6435 H 611.366 1.57911 -3.90694 0
M  V30 6436 H 610.041 1.7498 -2.7233 0
M  V30 6437 H 608.948 -0.339566 -3.72556 0
M  V30 6438 H 610.281 -0.427154 -4.90343 0
M  V30 6439 N 611.933 1.52934 -0.380664 0
M  V30 6440 C 613.182 2.00651 0.205477 0
M  V30 6441 C 613.495 1.27164 1.48623 0
M  V30 6442 O 614.701 1.65547 2.15189 0
M  V30 6443 C 613.157 3.57479 0.416726 0
M  V30 6444 C 612.765 4.39857 -0.850268 0
M  V30 6445 C 614.509 4.13509 0.959702 0
M  V30 6446 C 612.416 5.88269 -0.607773 0
M  V30 6447 H 611.346 0.749684 0.0805614 0
M  V30 6448 H 613.997 1.76508 -0.501732 0
M  V30 6449 H 612.379 3.77836 1.18557 0
M  V30 6450 H 613.553 4.31269 -1.62307 0
M  V30 6451 H 611.868 3.95005 -1.31756 0
M  V30 6452 H 614.465 5.22039 1.15669 0
M  V30 6453 H 614.808 3.69054 1.92626 0
M  V30 6454 H 615.341 3.9701 0.250645 0
M  V30 6455 H 612.08 6.3703 -1.54509 0
M  V30 6456 H 611.6 5.99667 0.126247 0
M  V30 6457 H 613.279 6.46558 -0.239014 0
M  V30 6458 N 613.412 0.11024 1.57214 0
M  V30 6459 C 614.322 -0.857077 2.18383 0
M  V30 6460 C 615.338 -1.29915 1.1575 0
M  V30 6461 O 616.514 -1.36394 1.48184 0
M  V30 6462 C 613.579 -2.09264 2.76423 0
M  V30 6463 C 612.64 -1.70333 3.94063 0
M  V30 6464 C 611.873 -2.87999 4.49324 0
M  V30 6465 O 612.096 -4.0317 4.03497 0
M  V30 6466 O 611.03 -2.6559 5.40135 0
M  V30 6467 H 614.856 -0.366561 3.0148 0
M  V30 6468 H 612.441 -0.114914 1.48957 0
M  V30 6469 H 614.323 -2.81644 3.13456 0
M  V30 6470 H 612.998 -2.57339 1.96363 0
M  V30 6471 H 611.905 -0.950864 3.61814 0
M  V30 6472 H 613.238 -1.27007 4.75531 0
M  V30 6473 N 614.89 -1.56749 -0.16351 0
M  V30 6474 C 615.853 -1.96121 -1.18613 0
M  V30 6475 C 616.853 -0.845765 -1.36761 0
M  V30 6476 O 618.043 -1.11268 -1.34033 0
M  V30 6477 C 615.175 -2.26282 -2.54969 0
M  V30 6478 H 616.368 -2.87639 -0.848764 0
M  V30 6479 H 613.921 -1.50928 -0.406251 0
M  V30 6480 H 614.656 -1.37504 -2.93706 0
M  V30 6481 H 614.441 -3.07595 -2.43162 0
M  V30 6482 H 615.931 -2.57638 -3.28653 0
M  V30 6483 N 616.368 0.432326 -1.51554 0
M  V30 6484 C 617.301 1.54525 -1.6792 0
M  V30 6485 C 618.279 1.53831 -0.526764 0
M  V30 6486 O 619.463 1.72884 -0.751233 0
M  V30 6487 C 616.59 2.931 -1.69736 0
M  V30 6488 C 615.636 3.11799 -2.91005 0
M  V30 6489 S 616.469 2.87565 -4.51737 0
M  V30 6490 C 617.625 4.28412 -4.56305 0
M  V30 6491 H 617.858 1.4041 -2.62054 0
M  V30 6492 H 615.391 0.622357 -1.41301 0
M  V30 6493 H 617.349 3.72974 -1.71467 0
M  V30 6494 H 616.01 3.04574 -0.767705 0
M  V30 6495 H 615.203 4.13127 -2.8869 0
M  V30 6496 H 614.805 2.39757 -2.87041 0
M  V30 6497 H 617.097 5.21692 -4.32254 0
M  V30 6498 H 618.04 4.35758 -5.58141 0
M  V30 6499 H 618.448 4.12301 -3.85576 0
M  V30 6500 N 617.846 1.41785 0.688094 0
M  V30 6501 C 618.794 1.44436 1.82321 0
M  V30 6502 C 619.788 0.321544 1.6632 0
M  V30 6503 O 620.994 0.493931 1.73091 0
M  V30 6504 H 617.369 0.452084 0.600936 0
M  V30 6505 H 619.34 2.40087 1.77202 0
M  V30 6506 C 618.089 1.35071 3.20392 0
M  V30 6507 H 617.412 2.2076 3.33324 0
M  V30 6508 H 618.852 1.40988 3.99873 0
M  V30 6509 C 617.311 0.0639127 3.36839 0
M  V30 6510 O 617.841 -0.888495 3.91751 0
M  V30 6511 N 616.047 -0.0146114 2.90596 0
M  V30 6512 H 615.594 0.761191 2.46097 0
M  V30 6513 H 615.552 -0.874988 3.01979 0
M  V30 6514 N 619.324 -0.923095 1.27737 0
M  V30 6515 C 620.572 -1.66797 1.14119 0
M  V30 6516 C 620.893 -1.92479 -0.312541 0
M  V30 6517 O 620.163 -1.53432 -1.218 0
M  V30 6518 H 618.743 -0.618196 0.419336 0
M  V30 6519 H 621.405 -1.10815 1.60331 0
M  V30 6520 H 620.501 -2.63424 1.67374 0
M  V30 6521 N 620.802 -1.09834 -1.13024 0
M  V30 6522 C 622.048 -0.83819 -1.84668 0
M  V30 6523 C 622.381 0.634645 -1.83537 0
M  V30 6524 O 621.656 1.46753 -1.27647 0
M  V30 6525 C 621.939 -1.37933 -3.32636 0
M  V30 6526 C 621.792 -2.91857 -3.42257 0
M  V30 6527 C 623.111 -1.01654 -4.28199 0
M  V30 6528 H 620.23 -0.30595 -0.670495 0
M  V30 6529 H 622.872 -1.36044 -1.32635 0
M  V30 6530 H 621.022 -0.935111 -3.77078 0
M  V30 6531 H 622.694 -3.44759 -3.06495 0
M  V30 6532 H 620.937 -3.28776 -2.83 0
M  V30 6533 H 621.608 -3.24799 -4.46329 0
M  V30 6534 H 624.084 -1.39973 -3.9185 0
M  V30 6535 H 622.96 -1.42217 -5.30156 0
M  V30 6536 H 623.221 0.0747794 -4.42037 0
M  V30 6537 N 622.28 1.30327 -0.886154 0
M  V30 6538 C 623.505 2.0079 -0.519425 0
M  V30 6539 C 623.93 1.65979 0.885013 0
M  V30 6540 O 623.288 0.877043 1.58675 0
M  V30 6541 C 623.336 3.53686 -0.702758 0
M  V30 6542 O 622.44 4.11637 0.250828 0
M  V30 6543 H 621.781 0.63171 -0.204544 0
M  V30 6544 H 624.311 1.66145 -1.19402 0
M  V30 6545 H 624.321 4.03531 -0.602207 0
M  V30 6546 H 622.996 3.78361 -1.72673 0
M  V30 6547 H 621.573 3.72755 0.103873 0
M  V30 6548 N 623.758 0.647228 1.43697 0
M  V30 6549 C 624.668 -0.0487997 2.34549 0
M  V30 6550 C 625.684 -0.818586 1.53542 0
M  V30 6551 O 626.86 -0.767195 1.86215 0
M  V30 6552 C 623.925 -1.00734 3.31743 0
M  V30 6553 C 622.986 -0.23515 4.28655 0
M  V30 6554 C 622.219 -1.14803 5.21206 0
M  V30 6555 O 622.442 -2.38717 5.18045 0
M  V30 6556 O 621.376 -0.623667 5.9866 0
M  V30 6557 H 625.202 0.698863 2.9555 0
M  V30 6558 H 622.787 0.407412 1.43738 0
M  V30 6559 H 624.669 -1.55837 3.91526 0
M  V30 6560 H 623.344 -1.73534 2.73254 0
M  V30 6561 H 622.251 0.359319 3.7237 0
M  V30 6562 H 623.584 0.453152 4.9011 0
M  V30 6563 N 625.236 -1.5273 0.388769 0
M  V30 6564 C 626.166 -2.29353 -0.438111 0
M  V30 6565 C 627.147 -1.32719 -1.06394 0
M  V30 6566 O 628.332 -1.61612 -1.07681 0
M  V30 6567 C 625.462 -3.09995 -1.56589 0
M  V30 6568 C 624.416 -4.14509 -1.06613 0
M  V30 6569 C 623.742 -4.83372 -2.28594 0
M  V30 6570 C 625.042 -5.22127 -0.134459 0
M  V30 6571 H 626.736 -2.98723 0.201206 0
M  V30 6572 H 624.282 -1.43665 0.0982089 0
M  V30 6573 H 626.235 -3.62357 -2.15118 0
M  V30 6574 H 624.959 -2.38357 -2.23279 0
M  V30 6575 H 623.618 -3.63128 -0.503383 0
M  V30 6576 H 623.266 -4.08283 -2.93792 0
M  V30 6577 H 622.966 -5.54012 -1.95817 0
M  V30 6578 H 624.49 -5.38538 -2.87766 0
M  V30 6579 H 625.904 -5.69851 -0.627914 0
M  V30 6580 H 624.301 -6.00011 0.103534 0
M  V30 6581 H 625.371 -4.77971 0.816798 0
M  V30 6582 N 626.714 -0.118576 -1.57153 0
M  V30 6583 C 627.939 0.550582 -1.99958 0
M  V30 6584 C 628.364 1.59458 -0.997736 0
M  V30 6585 O 627.722 1.81274 0.0306269 0
M  V30 6586 C 627.77 1.15379 -3.41643 0
M  V30 6587 O 626.874 2.26932 -3.44348 0
M  V30 6588 H 626.215 0.137567 -0.649593 0
M  V30 6589 H 628.745 -0.206926 -2.03551 0
M  V30 6590 H 628.755 1.48942 -3.79843 0
M  V30 6591 H 627.43 0.389087 -4.14076 0
M  V30 6592 H 626.007 1.94812 -3.17967 0
M  V30 6593 N 628.193 1.56834 0.155195 0
M  V30 6594 C 629.44 1.82898 0.869179 0
M  V30 6595 C 629.768 0.698194 1.81537 0
M  V30 6596 O 629.023 -0.313404 1.93174 0
M  V30 6597 C 629.322 3.15239 1.68402 0
M  V30 6598 C 628.988 4.42123 0.885341 0
M  V30 6599 C 627.65 4.76583 0.664971 0
M  V30 6600 C 630.002 5.20178 0.326234 0
M  V30 6601 C 627.33 5.86566 -0.125346 0
M  V30 6602 C 629.682 6.3099 -0.45108 0
M  V30 6603 C 628.346 6.64006 -0.682102 0
M  V30 6604 H 627.616 0.66927 0.318055 0
M  V30 6605 H 630.263 1.91036 0.133241 0
M  V30 6606 H 628.568 3.02515 2.48982 0
M  V30 6607 H 630.265 3.32618 2.23978 0
M  V30 6608 H 626.855 4.15102 1.06716 0
M  V30 6609 H 631.039 4.93936 0.483787 0
M  V30 6610 H 626.295 6.10594 -0.313915 0
M  V30 6611 H 630.469 6.9067 -0.89149 0
M  V30 6612 H 628.096 7.49065 -1.29636 0
M  V30 6613 N 629.671 -0.424282 1.51781 0
M  V30 6614 C 630.896 -1.19928 1.6921 0
M  V30 6615 C 631.321 -1.8392 0.394355 0
M  V30 6616 O 630.679 -1.69371 -0.646778 0
M  V30 6617 C 630.727 -2.24937 2.81843 0
M  V30 6618 O 629.831 -3.3073 2.46356 0
M  V30 6619 H 629.172 -0.35078 0.563781 0
M  V30 6620 H 631.702 -0.499401 1.98412 0
M  V30 6621 H 631.712 -2.69512 3.06312 0
M  V30 6622 H 630.387 -1.77742 3.76006 0
M  V30 6623 H 628.964 -2.9154 2.32505 0
M  V30 6624 N 631.149 -1.42148 -0.680565 0
M  V30 6625 C 632.56 -1.3768 -1.26099 0
M  V30 6626 C 632.911 -0.0672348 -1.96085 0
M  V30 6627 O 632.036 0.834172 -1.99676 0
M  V30 6628 C 632.631 -2.49387 -2.29328 0
M  V30 6629 C 631.19 -2.4827 -2.82911 0
M  V30 6630 C 630.337 -2.2847 -1.57152 0
M  V30 6631 H 633.288 -1.51446 -0.474326 0
M  V30 6632 H 633.309 -2.19307 -3.10941 0
M  V30 6633 H 632.821 -3.44686 -1.78363 0
M  V30 6634 H 630.922 -1.56773 -3.38013 0
M  V30 6635 H 631.035 -3.45109 -3.3232 0
M  V30 6636 H 629.399 -1.76623 -1.83511 0
M  V30 6637 H 630.182 -3.25816 -1.0816 0
M  V30 6638 N 632.627 0.916307 -1.28225 0
M  V30 6639 C 633.574 2.01841 -1.11932 0
M  V30 6640 C 634.544 1.66091 -0.0171604 0
M  V30 6641 O 635.729 1.89934 -0.181617 0
M  V30 6642 C 632.869 3.36065 -0.784504 0
M  V30 6643 C 631.982 3.847 -1.96544 0
M  V30 6644 C 631.117 5.07423 -1.57149 0
M  V30 6645 C 630.156 5.48384 -2.71922 0
M  V30 6646 N 629.293 6.62298 -2.33037 0
M  V30 6647 H 634.133 2.1511 -2.06232 0
M  V30 6648 H 631.67 1.05366 -1.02647 0
M  V30 6649 H 633.628 4.13272 -0.571148 0
M  V30 6650 H 632.258 3.22571 0.121565 0
M  V30 6651 H 631.31 3.03673 -2.291 0
M  V30 6652 H 632.622 4.1102 -2.82603 0
M  V30 6653 H 631.776 5.92165 -1.32004 0
M  V30 6654 H 630.515 4.82906 -0.682153 0
M  V30 6655 H 629.52 4.62184 -2.97768 0
M  V30 6656 H 630.745 5.7489 -3.61494 0
M  V30 6657 H 628.691 6.39416 -1.4657 0
M  V30 6658 H 628.608 6.8833 -3.12631 0
M  V30 6659 H 629.876 7.50352 -2.11169 0
M  V30 6660 N 634.105 1.10431 1.1244 0
M  V30 6661 C 635.516 0.864439 1.65482 0
M  V30 6662 C 635.867 -0.60527 1.8663 0
M  V30 6663 O 634.992 -1.46492 1.59276 0
M  V30 6664 C 635.587 1.56267 3.0061 0
M  V30 6665 C 634.146 1.3695 3.50602 0
M  V30 6666 C 633.293 1.61209 2.25626 0
M  V30 6667 H 636.244 1.26203 0.962209 0
M  V30 6668 H 636.265 1.00166 3.67079 0
M  V30 6669 H 635.777 2.63231 2.85186 0
M  V30 6670 H 633.878 0.321481 3.71211 0
M  V30 6671 H 633.991 2.11143 4.30064 0
M  V30 6672 H 632.355 1.03482 2.32731 0
M  V30 6673 H 633.138 2.69425 2.12756 0
M  V30 6674 N 635.583 -1.29855 0.893053 0
M  V30 6675 C 636.83 -1.95826 0.515585 0
M  V30 6676 C 637.158 -1.70451 -0.936842 0
M  V30 6677 O 636.413 -1.00657 -1.67829 0
M  V30 6678 C 636.712 -3.49515 0.746588 0
M  V30 6679 C 636.378 -3.94955 2.17535 0
M  V30 6680 C 635.04 -4.07073 2.56603 0
M  V30 6681 C 637.392 -4.18536 3.10607 0
M  V30 6682 C 634.72 -4.40138 3.87938 0
M  V30 6683 C 637.072 -4.53073 4.41484 0
M  V30 6684 C 635.736 -4.634 4.80434 0
M  V30 6685 H 635.006 -0.71658 0.188666 0
M  V30 6686 H 637.653 -1.54574 1.13045 0
M  V30 6687 H 635.958 -3.9177 0.0487551 0
M  V30 6688 H 637.655 -3.98644 0.434009 0
M  V30 6689 H 634.245 -3.86035 1.86212 0
M  V30 6690 H 638.429 -4.08646 2.81641 0
M  V30 6691 H 633.685 -4.46335 4.17846 0
M  V30 6692 H 637.859 -4.70269 5.13634 0
M  V30 6693 H 635.486 -4.88775 5.82239 0
M  V30 6694 N 637.061 -0.65484 -1.43351 0
M  V30 6695 C 638.289 -0.176685 -2.06144 0
M  V30 6696 C 638.704 1.15831 -1.49093 0
M  V30 6697 O 638.061 1.71542 -0.622868 0
M  V30 6698 C 638.112 -0.0813326 -3.61408 0
M  V30 6699 O 637.833 -1.36355 -4.1634 0
M  V30 6700 C 639.334 0.422706 -4.4128 0
M  V30 6701 H 636.554 -0.0906429 -0.66485 0
M  V30 6702 H 639.098 -0.895945 -1.83829 0
M  V30 6703 H 637.253 0.588496 -3.82904 0
M  V30 6704 H 637.667 -1.22381 -5.10023 0
M  V30 6705 H 639.141 0.438375 -5.50257 0
M  V30 6706 H 639.618 1.45432 -4.14423 0
M  V30 6707 H 640.224 -0.214687 -4.24758 0
M  V30 6708 N 638.539 1.52521 -0.396863 0
M  V30 6709 C 639.502 2.2527 0.422604 0
M  V30 6710 C 640.502 1.27184 0.983913 0
M  V30 6711 O 641.692 1.51222 0.864723 0
M  V30 6712 C 638.824 3.01356 1.59365 0
M  V30 6713 H 640.017 2.99133 -0.214416 0
M  V30 6714 H 637.57 1.55587 -0.149128 0
M  V30 6715 H 638.305 2.31813 2.26789 0
M  V30 6716 H 638.09 3.73357 1.19779 0
M  V30 6717 H 639.58 3.56571 2.17363 0
M  V30 6718 N 640.017 0.126909 1.57088 0
M  V30 6719 C 641.266 -0.529024 1.94639 0
M  V30 6720 C 641.579 -1.67323 1.01304 0
M  V30 6721 O 642.785 -2.39245 1.28352 0
M  V30 6722 C 641.241 -0.992483 3.45945 0
M  V30 6723 C 640.849 0.123691 4.47829 0
M  V30 6724 C 642.593 -1.61934 3.924 0
M  V30 6725 C 640.5 -0.356911 5.90322 0
M  V30 6726 H 639.43 -0.201397 0.726605 0
M  V30 6727 H 642.081 0.208032 1.82317 0
M  V30 6728 H 640.463 -1.7842 3.53528 0
M  V30 6729 H 641.637 0.900168 4.51922 0
M  V30 6730 H 639.952 0.657699 4.11173 0
M  V30 6731 H 642.549 -1.9902 4.96281 0
M  V30 6732 H 642.892 -2.50075 3.32819 0
M  V30 6733 H 643.425 -0.892894 3.8765 0
M  V30 6734 H 640.164 0.488636 6.53676 0
M  V30 6735 H 639.684 -1.0997 5.89633 0
M  V30 6736 H 641.363 -0.815547 6.41839 0
M  V30 6737 N 641.495 -1.56914 -0.146875 0
M  V30 6738 C 642.723 -1.87515 -0.874394 0
M  V30 6739 C 643.138 -0.715116 -1.74733 0
M  V30 6740 O 642.495 0.315113 -1.79759 0
M  V30 6741 C 642.546 -3.17362 -1.731 0
M  V30 6742 O 642.267 -4.28897 -0.893245 0
M  V30 6743 C 643.768 -3.61479 -2.56609 0
M  V30 6744 H 640.988 -0.621546 -0.252827 0
M  V30 6745 H 643.532 -2.04023 -0.139627 0
M  V30 6746 H 641.687 -3.02608 -2.41883 0
M  V30 6747 H 642.101 -5.03146 -1.48137 0
M  V30 6748 H 643.575 -4.5517 -3.12289 0
M  V30 6749 H 644.052 -2.86773 -3.32653 0
M  V30 6750 H 644.658 -3.78927 -1.93117 0
M  V30 6751 N 642.974 0.416227 -1.52004 0
M  V30 6752 C 644.22 1.16555 -1.6596 0
M  V30 6753 C 644.553 1.90347 -0.384906 0
M  V30 6754 O 643.828 1.84474 0.616405 0
M  V30 6755 C 644.111 2.1657 -2.87696 0
M  V30 6756 C 643.964 1.46722 -4.25197 0
M  V30 6757 C 645.283 3.17321 -3.04951 0
M  V30 6758 H 642.402 0.422369 -0.603965 0
M  V30 6759 H 645.044 0.452141 -1.84542 0
M  V30 6760 H 643.194 2.77411 -2.71985 0
M  V30 6761 H 644.866 0.89056 -4.52622 0
M  V30 6762 H 643.109 0.769263 -4.26925 0
M  V30 6763 H 643.78 2.19665 -5.0641 0
M  V30 6764 H 646.256 2.66552 -3.19514 0
M  V30 6765 H 645.132 3.84573 -3.91656 0
M  V30 6766 H 645.393 3.84643 -2.17951 0
M  V30 6767 N 644.452 1.42507 0.673017 0
M  V30 6768 C 645.68 1.46473 1.46128 0
M  V30 6769 C 646.095 0.0765912 1.88645 0
M  V30 6770 O 645.452 -0.909057 1.58248 0
M  V30 6771 C 645.503 2.39339 2.70923 0
M  V30 6772 O 645.224 3.72752 2.3019 0
M  V30 6773 C 646.725 2.52343 3.64469 0
M  V30 6774 H 643.945 0.49812 0.449575 0
M  V30 6775 H 646.489 1.87041 0.826802 0
M  V30 6776 H 644.644 2.02019 3.30556 0
M  V30 6777 H 645.058 4.22503 3.10791 0
M  V30 6778 H 646.532 3.2144 4.48754 0
M  V30 6779 H 647.009 1.56189 4.1049 0
M  V30 6780 H 647.615 2.90392 3.10729 0
M  V30 6781 N 645.93 -0.909495 1.28709 0
M  V30 6782 C 647.158 -1.69272 1.18973 0
M  V30 6783 C 647.573 -1.87123 -0.251048 0
M  V30 6784 O 646.93 -1.40127 -1.16922 0
M  V30 6785 C 646.981 -3.08257 1.88839 0
M  V30 6786 O 646.702 -2.91228 3.27289 0
M  V30 6787 C 648.203 -4.02642 1.85457 0
M  V30 6788 H 645.423 -0.528999 0.412797 0
M  V30 6789 H 647.967 -1.13803 1.69909 0
M  V30 6790 H 646.122 -3.6053 1.41762 0
M  V30 6791 H 646.536 -3.79223 3.6234 0
M  V30 6792 H 648.01 -4.97613 2.38925 0
M  V30 6793 H 648.487 -4.31327 0.827893 0
M  V30 6794 H 649.093 -3.56298 2.32233 0
M  V30 6795 N 647.408 -1.11026 -1.11852 0
M  V30 6796 C 648.685 -0.768347 -1.79877 0
M  V30 6797 C 649.065 0.744261 -1.97545 0
M  V30 6798 O 648.413 1.67271 -1.55669 0
M  V30 6799 C 648.623 -1.52648 -3.13846 0
M  V30 6800 C 649.971 -1.70297 -3.88953 0
M  V30 6801 O 650.995 -1.49037 -3.23522 0
M  V30 6802 O 649.854 -2.05593 -5.06353 0
M  V30 6803 H 646.948 -0.277891 -0.778913 0
M  V30 6804 H 649.494 -1.21343 -1.18633 0
M  V30 6805 H 648.266 -2.55564 -2.96315 0
M  V30 6806 H 647.889 -1.07466 -3.82801 0
M  V30 6807 N 648.886 1.2938 -0.899927 0
M  V30 6808 C 649.818 2.26737 -0.335139 0
M  V30 6809 C 650.831 1.54316 0.518681 0
M  V30 6810 O 652.02 1.75313 0.335803 0
M  V30 6811 C 649.12 3.34558 0.540774 0
M  V30 6812 C 648.293 4.36455 -0.287372 0
M  V30 6813 C 647.352 5.2361 0.52141 0
M  V30 6814 O 646.378 5.69167 -0.0611735 0
M  V30 6815 N 647.58 5.50985 1.82745 0
M  V30 6816 H 650.345 2.75838 -1.17191 0
M  V30 6817 H 647.906 1.42716 -0.764438 0
M  V30 6818 H 649.898 3.89794 1.08825 0
M  V30 6819 H 648.468 2.85272 1.27823 0
M  V30 6820 H 647.688 3.80875 -1.01626 0
M  V30 6821 H 648.976 5.01573 -0.854518 0
M  V30 6822 H 648.374 5.15781 2.32349 0
M  V30 6823 H 646.931 6.09036 2.32204 0
M  V30 6824 N 650.364 0.662433 1.43002 0
M  V30 6825 C 651.641 0.109096 1.95296 0
M  V30 6826 C 652.021 -1.37313 1.60338 0
M  V30 6827 O 651.369 -2.1032 0.893187 0
M  V30 6828 C 651.579 0.365096 3.47085 0
M  V30 6829 C 652.927 0.274964 4.23709 0
M  V30 6830 O 653.951 0.29816 3.5495 0
M  V30 6831 O 652.81 0.206549 5.4611 0
M  V30 6832 H 649.904 -0.00429724 0.826989 0
M  V30 6833 H 652.45 0.736308 1.52894 0
M  V30 6834 H 651.222 1.39237 3.65689 0
M  V30 6835 H 650.845 -0.294733 3.96506 0
M  V30 6836 N 651.842 -1.52309 0.404946 0
M  V30 6837 C 652.805 -2.25491 -0.410651 0
M  V30 6838 C 653.805 -1.27704 -0.977154 0
M  V30 6839 O 654.995 -1.51679 -0.856691 0
M  V30 6840 C 652.127 -3.02197 -1.57765 0
M  V30 6841 H 653.32 -2.99015 0.230277 0
M  V30 6842 H 650.873 -1.55506 0.157377 0
M  V30 6843 H 651.608 -2.33013 -2.25556 0
M  V30 6844 H 651.393 -3.73987 -1.17797 0
M  V30 6845 H 652.883 -3.57719 -2.15469 0
M  V30 6846 N 653.32 -0.135238 -1.57019 0
M  V30 6847 C 654.731 0.387521 -1.82634 0
M  V30 6848 C 655.082 1.65528 -1.05332 0
M  V30 6849 O 654.207 2.14381 -0.294926 0
M  V30 6850 C 654.802 0.709852 -3.3128 0
M  V30 6851 C 653.361 1.17718 -3.57518 0
M  V30 6852 C 652.508 0.194183 -2.76619 0
M  V30 6853 H 655.459 -0.360126 -1.5456 0
M  V30 6854 H 655.48 1.5657 -3.46794 0
M  V30 6855 H 654.992 -0.213024 -3.87515 0
M  V30 6856 H 653.093 2.1164 -3.06658 0
M  V30 6857 H 653.206 1.11128 -4.66034 0
M  V30 6858 H 651.57 0.684478 -2.4533 0
M  V30 6859 H 652.353 -0.722076 -3.3562 0
M  V30 6860 N 654.798 1.5699 0.138552 0
M  V30 6861 C 656.023 1.88344 0.86841 0
M  V30 6862 C 656.448 0.725159 1.7356 0
M  V30 6863 O 655.806 -0.324992 1.78363 0
M  V30 6864 C 655.854 3.18334 1.69398 0
M  V30 6865 O 654.958 3.02863 2.79907 0
M  V30 6866 H 654.299 0.618577 0.241367 0
M  V30 6867 H 656.829 2.04207 0.126826 0
M  V30 6868 H 656.839 3.50567 2.08726 0
M  V30 6869 H 655.514 4.02238 1.05725 0
M  V30 6870 H 654.091 2.82056 2.43924 0
M  V30 6871 N 656.276 -0.40816 1.52223 0
M  V30 6872 C 657.206 -1.5042 1.78595 0
M  V30 6873 C 658.187 -1.57723 0.636974 0
M  V30 6874 O 659.372 -1.72982 0.882664 0
M  V30 6875 C 656.502 -2.88232 1.93751 0
M  V30 6876 C 655.456 -2.95779 3.09352 0
M  V30 6877 C 654.782 -4.35855 3.09732 0
M  V30 6878 C 656.082 -2.67175 4.48793 0
M  V30 6879 H 657.776 -1.28601 2.70374 0
M  V30 6880 H 655.322 -0.617221 1.30101 0
M  V30 6881 H 657.275 -3.64895 2.10783 0
M  V30 6882 H 655.999 -3.11347 0.986443 0
M  V30 6883 H 654.658 -2.21561 2.92072 0
M  V30 6884 H 654.306 -4.55981 2.12346 0
M  V30 6885 H 654.006 -4.41829 3.87377 0
M  V30 6886 H 655.53 -5.14451 3.28895 0
M  V30 6887 H 656.944 -3.3356 4.66273 0
M  V30 6888 H 655.341 -2.84523 5.28362 0
M  V30 6889 H 656.411 -1.62609 4.56822 0
M  V30 6890 N 657.755 -1.42862 -0.66545 0
M  V30 6891 C 659.004 -1.43119 -1.42126 0
M  V30 6892 C 659.317 -0.0545297 -1.95524 0
M  V30 6893 O 660.523 0.0654747 -2.71421 0
M  V30 6894 C 658.979 -2.51797 -2.5715 0
M  V30 6895 C 658.587 -3.95514 -2.10411 0
M  V30 6896 C 660.331 -2.61233 -3.346 0
M  V30 6897 C 658.238 -4.95682 -3.22573 0
M  V30 6898 H 657.168 -0.532349 -0.533966 0
M  V30 6899 H 659.819 -1.68806 -0.719506 0
M  V30 6900 H 658.201 -2.19292 -3.29738 0
M  V30 6901 H 659.375 -4.3742 -1.44915 0
M  V30 6902 H 657.69 -3.90012 -1.45874 0
M  V30 6903 H 660.287 -3.33248 -4.18151 0
M  V30 6904 H 660.63 -1.65896 -3.81817 0
M  V30 6905 H 661.163 -2.9298 -2.69087 0
M  V30 6906 H 657.902 -5.92529 -2.80338 0
M  V30 6907 H 657.422 -4.58399 -3.86821 0
M  V30 6908 H 659.101 -5.17828 -3.87896 0
M  V30 6909 N 659.233 0.902656 -1.29189 0
M  V30 6910 C 660.481 1.6496 -1.16758 0
M  V30 6911 C 660.802 1.92952 0.28188 0
M  V30 6912 O 660.072 1.55351 1.19344 0
M  V30 6913 H 658.652 0.611447 -0.429118 0
M  V30 6914 H 661.314 1.0825 -1.62074 0
M  V30 6915 H 660.41 2.60728 -1.71544 0
M  V30 6916 N 660.711 1.11618 1.11262 0
M  V30 6917 C 661.957 0.867463 1.83311 0
M  V30 6918 C 662.29 -0.605366 1.84524 0
M  V30 6919 O 661.565 -1.44704 1.29965 0
M  V30 6920 C 661.848 1.43207 3.30399 0
M  V30 6921 C 661.701 2.97265 3.3757 0
M  V30 6922 C 663.02 1.08454 4.26528 0
M  V30 6923 H 660.139 0.316578 0.665543 0
M  V30 6924 H 662.781 1.38137 1.30454 0
M  V30 6925 H 660.931 0.994982 3.75543 0
M  V30 6926 H 662.603 3.49591 3.00971 0
M  V30 6927 H 660.846 3.33237 2.77733 0
M  V30 6928 H 661.517 3.31859 4.41105 0
M  V30 6929 H 663.993 1.4619 3.89574 0
M  V30 6930 H 662.869 1.50633 5.27826 0
M  V30 6931 H 663.13 -0.00444568 4.421 0
M  V30 6932 N 662.189 -1.289 0.906776 0
M  V30 6933 C 663.435 -1.95558 0.53712 0
M  V30 6934 C 663.768 -1.71262 -0.915582 0
M  V30 6935 O 663.043 -1.02961 -1.65013 0
M  V30 6936 C 663.326 -3.50198 0.838645 0
M  V30 6937 C 663.179 -3.83923 2.34357 0
M  V30 6938 C 664.498 -4.38861 0.329988 0
M  V30 6939 H 661.617 -0.710289 0.196617 0
M  V30 6940 H 664.259 -1.52392 1.13475 0
M  V30 6941 H 662.409 -3.87096 0.330024 0
M  V30 6942 H 664.081 -3.56933 2.92227 0
M  V30 6943 H 662.324 -3.31215 2.80141 0
M  V30 6944 H 662.995 -4.91883 2.5051 0
M  V30 6945 H 665.471 -4.08996 0.765609 0
M  V30 6946 H 664.347 -5.45931 0.570105 0
M  V30 6947 H 664.608 -4.35352 -0.769511 0
M  V30 6948 N 663.667 -0.670007 -1.42649 0
M  V30 6949 C 665.083 -0.33911 -1.55956 0
M  V30 6950 C 665.283 1.1558 -1.65056 0
M  V30 6951 O 664.339 1.94111 -1.61485 0
M  V30 6952 C 665.652 -1.06522 -2.812 0
M  V30 6953 C 667.2 -1.04708 -2.94966 0
M  V30 6954 C 667.675 -1.75442 -4.23065 0
M  V30 6955 N 669.166 -1.72286 -4.29967 0
M  V30 6956 C 669.901 -2.23877 -5.27889 0
M  V30 6957 N 669.397 -2.83829 -6.31991 0
M  V30 6958 N 671.19 -2.14279 -5.19654 0
M  V30 6959 H 663.341 -1.6399 -1.34986 0
M  V30 6960 H 665.604 -0.690603 -0.649439 0
M  V30 6961 H 665.31 -2.12033 -2.80597 0
M  V30 6962 H 665.184 -0.627398 -3.71946 0
M  V30 6963 H 667.571 -0.000315966 -2.951 0
M  V30 6964 H 667.652 -1.52374 -2.05465 0
M  V30 6965 H 667.296 -2.80084 -4.23693 0
M  V30 6966 H 667.226 -1.25229 -5.11493 0
M  V30 6967 H 669.717 -1.28554 -3.55362 0
M  V30 6968 H 670.03 -3.20827 -7.03057 0
M  V30 6969 H 668.375 -2.87896 -6.32567 0
M  V30 6970 H 671.566 -1.67135 -4.37245 0
M  V30 6971 H 671.739 -2.54792 -5.95806 0
M  V30 6972 N 665.145 1.52092 -0.413018 0
M  V30 6973 C 666.092 2.27119 0.410558 0
M  V30 6974 C 667.062 1.29692 1.03774 0
M  V30 6975 O 668.247 1.58561 1.06128 0
M  V30 6976 C 665.387 3.09863 1.51918 0
M  V30 6977 C 664.5 4.22252 0.912528 0
M  V30 6978 C 663.635 4.92348 1.99417 0
M  V30 6979 C 662.674 5.96694 1.36466 0
M  V30 6980 N 661.811 6.60292 2.38661 0
M  V30 6981 H 666.651 2.97067 -0.235661 0
M  V30 6982 H 664.188 1.46542 -0.128055 0
M  V30 6983 H 666.146 3.56144 2.17295 0
M  V30 6984 H 664.776 2.42078 2.13537 0
M  V30 6985 H 663.828 3.80113 0.147697 0
M  V30 6986 H 665.14 4.9709 0.412717 0
M  V30 6987 H 664.294 5.42054 2.72512 0
M  V30 6988 H 663.033 4.17087 2.52764 0
M  V30 6989 H 662.038 5.46304 0.61906 0
M  V30 6990 H 663.263 6.73899 0.838827 0
M  V30 6991 H 661.209 5.87858 2.91134 0
M  V30 6992 H 661.126 7.30816 1.93503 0
M  V30 6993 H 662.394 7.14635 3.11314 0
M  V30 6994 N 666.623 0.143563 1.56945 0
M  V30 6995 C 667.9 -0.553285 1.87612 0
M  V30 6996 C 668.28 -1.83195 1.04894 0
M  V30 6997 O 667.628 -2.28102 0.134773 0
M  V30 6998 C 667.838 -0.822055 3.3918 0
M  V30 6999 C 669.186 -1.16435 4.08324 0
M  V30 7000 O 670.21 -0.911522 3.4434 0
M  V30 7001 O 669.069 -1.63996 5.21313 0
M  V30 7002 H 666.163 -0.281851 0.777489 0
M  V30 7003 H 668.709 0.179916 1.68744 0
M  V30 7004 H 667.481 0.0830265 3.91212 0
M  V30 7005 H 667.104 -1.60956 3.63564 0
M  V30 7006 N 668.101 -1.57061 -0.130224 0
M  V30 7007 C 669.347 -1.85412 -0.836295 0
M  V30 7008 C 669.702 -0.729831 -1.7802 0
M  V30 7009 O 668.995 0.271021 -1.89673 0
M  V30 7010 C 669.189 -3.17878 -1.63365 0
M  V30 7011 C 669.018 -4.43086 -0.768453 0
M  V30 7012 C 667.788 -5.03488 -0.427598 0
M  V30 7013 C 669.986 -5.14219 -0.0911495 0
M  V30 7014 N 667.968 -6.12253 0.449439 0
M  V30 7015 C 669.339 -6.16632 0.645341 0
M  V30 7016 C 671.394 -4.97898 -0.0135625 0
M  V30 7017 C 670.097 -7.0449 1.45212 0
M  V30 7018 C 672.123 -5.86234 0.780001 0
M  V30 7019 C 671.485 -6.88141 1.50472 0
M  V30 7020 H 667.584 -0.728875 -0.283311 0
M  V30 7021 H 670.168 -1.9444 -0.100662 0
M  V30 7022 H 668.339 -3.09967 -2.3404 0
M  V30 7023 H 670.071 -3.34076 -2.28419 0
M  V30 7024 H 666.826 -4.67344 -0.767264 0
M  V30 7025 H 667.25 -6.71263 0.879476 0
M  V30 7026 H 671.892 -4.19082 -0.559511 0
M  V30 7027 H 669.61 -7.82722 2.00926 0
M  V30 7028 H 673.196 -5.75671 0.842246 0
M  V30 7029 H 672.076 -7.55311 2.1089 0
M  V30 7030 N 669.579 0.400081 -1.52437 0
M  V30 7031 C 670.542 1.4707 -1.75793 0
M  V30 7032 C 671.542 1.48036 -0.627856 0
M  V30 7033 O 672.732 1.49401 -0.895817 0
M  V30 7034 C 669.864 2.86427 -1.84858 0
M  V30 7035 H 671.057 1.27649 -2.71377 0
M  V30 7036 H 668.61 0.631141 -1.42991 0
M  V30 7037 H 669.345 3.11207 -0.912194 0
M  V30 7038 H 669.13 2.87128 -2.6702 0
M  V30 7039 H 670.62 3.64023 -2.04638 0
M  V30 7040 N 671.057 1.43213 0.657864 0
M  V30 7041 C 672.282 1.48227 1.45064 0
M  V30 7042 C 672.707 0.0999939 1.87834 0
M  V30 7043 O 672.065 -0.905269 1.57081 0
M  V30 7044 C 672.113 2.42931 2.6649 0
M  V30 7045 O 671.217 1.91237 3.6538 0
M  V30 7046 H 670.558 0.501551 0.435135 0
M  V30 7047 H 673.088 1.8808 0.805431 0
M  V30 7048 H 673.098 2.6008 3.1436 0
M  V30 7049 H 671.773 3.43348 2.34701 0
M  V30 7050 H 670.35 1.83726 3.24498 0
M  V30 7051 N 672.536 -0.895792 1.29666 0
M  V30 7052 C 673.468 -2.00563 1.10937 0
M  V30 7053 C 674.481 -1.62705 0.055734 0
M  V30 7054 O 675.67 -1.7595 0.300656 0
M  V30 7055 C 672.77 -3.32262 0.667448 0
M  V30 7056 C 671.943 -3.98625 1.80047 0
M  V30 7057 C 671.002 -5.08617 1.3489 0
M  V30 7058 O 670.028 -5.30837 2.05429 0
M  V30 7059 N 671.23 -5.80076 0.221937 0
M  V30 7060 H 673.995 -2.17184 2.06522 0
M  V30 7061 H 671.556 -1.06822 1.21658 0
M  V30 7062 H 673.548 -4.03196 0.348586 0
M  V30 7063 H 672.118 -3.11985 -0.196055 0
M  V30 7064 H 671.338 -3.21005 2.28801 0
M  V30 7065 H 672.626 -4.39704 2.56003 0
M  V30 7066 H 672.024 -5.64514 -0.366084 0
M  V30 7067 H 670.581 -6.51789 -0.0375346 0
M  V30 7068 N 674.014 -1.12206 -1.10668 0
M  V30 7069 C 674.962 -0.782918 -2.19028 0
M  V30 7070 C 675.956 0.229175 -1.67843 0
M  V30 7071 O 677.162 0.0876295 -1.79787 0
M  V30 7072 H 673.537 -0.235339 -0.714227 0
M  V30 7073 H 675.508 -1.70527 -2.44874 0
M  V30 7074 C 674.257 -0.25116 -3.46792 0
M  V30 7075 H 673.58 -1.02123 -3.86537 0
M  V30 7076 H 675.02 -0.0521409 -4.23968 0
M  V30 7077 C 673.479 1.02037 -3.21076 0
M  V30 7078 O 674.009 2.09862 -3.42522 0
M  V30 7079 N 672.215 0.946348 -2.74759 0
M  V30 7080 H 671.762 0.068777 -2.57508 0
M  V30 7081 H 671.72 1.79775 -2.57931 0
M  V30 7082 N 675.492 1.28418 -0.913599 0
M  V30 7083 C 676.717 1.99643 -0.561899 0
M  V30 7084 C 677.142 1.67819 0.849608 0
M  V30 7085 O 676.5 0.910503 1.56779 0
M  V30 7086 C 676.548 3.52116 -0.777622 0
M  V30 7087 O 675.652 4.12076 0.163457 0
M  V30 7088 H 674.993 0.627229 -0.217898 0
M  V30 7089 H 677.523 1.63575 -1.229 0
M  V30 7090 H 677.533 4.02163 -0.687666 0
M  V30 7091 H 676.208 3.74613 -1.8066 0
M  V30 7092 H 674.785 3.72892 0.0247827 0
M  V30 7093 N 676.97 0.677563 1.42291 0
M  V30 7094 C 678.219 0.198173 2.00724 0
M  V30 7095 C 678.532 -1.20325 1.54211 0
M  V30 7096 O 679.738 -1.77916 2.05081 0
M  V30 7097 C 678.194 0.303432 3.58619 0
M  V30 7098 C 677.802 1.70909 4.14119 0
M  V30 7099 C 679.546 -0.117103 4.24338 0
M  V30 7100 C 677.453 1.76696 5.64387 0
M  V30 7101 H 676.383 0.070329 0.750713 0
M  V30 7102 H 679.034 0.843147 1.62982 0
M  V30 7103 H 677.416 -0.409482 3.93877 0
M  V30 7104 H 678.59 2.44931 3.90315 0
M  V30 7105 H 676.905 2.07771 3.6086 0
M  V30 7106 H 679.502 -0.0940471 5.34617 0
M  V30 7107 H 679.845 -1.15283 4.00019 0
M  V30 7108 H 680.378 0.5449 3.9405 0
M  V30 7109 H 677.117 2.7826 5.93508 0
M  V30 7110 H 676.637 1.07034 5.90173 0
M  V30 7111 H 678.316 1.52166 6.28852 0
M  V30 7112 N 678.448 -1.51871 0.421078 0
M  V30 7113 C 679.411 -2.25914 -0.386712 0
M  V30 7114 C 680.411 -1.28733 -0.963555 0
M  V30 7115 O 681.601 -1.52579 -0.840556 0
M  V30 7116 C 678.733 -3.03853 -1.54551 0
M  V30 7117 H 679.926 -2.98754 0.261978 0
M  V30 7118 H 677.479 -1.5533 0.173862 0
M  V30 7119 H 678.214 -2.35392 -2.23072 0
M  V30 7120 H 677.999 -3.75215 -1.13824 0
M  V30 7121 H 679.489 -3.59984 -2.11663 0
M  V30 7122 N 679.926 -0.151884 -1.56866 0
M  V30 7123 C 680.856 0.781943 -2.20018 0
M  V30 7124 C 681.837 1.25347 -1.14987 0
M  V30 7125 O 683.022 1.31015 -1.43348 0
M  V30 7126 C 680.152 2.01928 -2.82564 0
M  V30 7127 C 679.106 1.68434 -3.93464 0
M  V30 7128 C 678.432 2.99472 -4.42968 0
M  V30 7129 C 679.732 0.927244 -5.14003 0
M  V30 7130 H 681.426 0.255607 -2.98307 0
M  V30 7131 H 678.972 0.121502 -1.43486 0
M  V30 7132 H 680.925 2.67741 -3.25411 0
M  V30 7133 H 679.649 2.56943 -2.01614 0
M  V30 7134 H 678.308 1.04998 -3.51242 0
M  V30 7135 H 677.956 3.52488 -3.58834 0
M  V30 7136 H 677.656 2.77823 -5.17772 0
M  V30 7137 H 679.18 3.66348 -4.88489 0
M  V30 7138 H 680.594 1.48756 -5.53665 0
M  V30 7139 H 678.991 0.810513 -5.94601 0
M  V30 7140 H 680.061 -0.0801163 -4.84834 0
M  V30 7141 N 681.404 1.57128 0.121893 0
M  V30 7142 C 682.629 1.89254 0.848385 0
M  V30 7143 C 683.054 0.743527 1.72781 0
M  V30 7144 O 682.412 -0.306056 1.78698 0
M  V30 7145 C 682.46 3.20113 1.66012 0
M  V30 7146 O 681.564 3.05815 2.76679 0
M  V30 7147 H 680.905 0.621103 0.234793 0
M  V30 7148 H 683.435 2.0433 0.10516 0
M  V30 7149 H 683.445 3.52761 2.04996 0
M  V30 7150 H 682.12 4.03336 1.01452 0
M  V30 7151 H 680.697 2.84627 2.40918 0
M  V30 7152 N 682.882 -0.391992 1.52647 0
M  V30 7153 C 684.128 -1.13563 1.68745 0
M  V30 7154 C 684.483 -1.87745 0.420685 0
M  V30 7155 O 683.776 -1.82434 -0.585529 0
M  V30 7156 C 683.97 -2.14401 2.85949 0
M  V30 7157 C 683.799 -1.50124 4.23902 0
M  V30 7158 C 682.569 -1.2666 4.89168 0
M  V30 7159 C 684.767 -0.952933 5.05395 0
M  V30 7160 N 682.749 -0.584555 6.11111 0
M  V30 7161 C 684.12 -0.398784 6.18716 0
M  V30 7162 C 686.175 -0.849053 4.90607 0
M  V30 7163 C 684.878 0.249084 7.18869 0
M  V30 7164 C 686.904 -0.215011 5.91009 0
M  V30 7165 C 686.266 0.328382 7.03634 0
M  V30 7166 H 682.365 -0.401628 0.670984 0
M  V30 7167 H 684.949 -0.425585 1.89992 0
M  V30 7168 H 683.12 -2.82746 2.66288 0
M  V30 7169 H 684.852 -2.8125 2.90999 0
M  V30 7170 H 681.607 -1.54078 4.47836 0
M  V30 7171 H 682.031 -0.259663 6.76502 0
M  V30 7172 H 686.673 -1.25497 4.03745 0
M  V30 7173 H 684.391 0.667019 8.05342 0
M  V30 7174 H 687.977 -0.135921 5.81641 0
M  V30 7175 H 686.857 0.811257 7.79992 0
M  V30 7176 N 684.36 -1.4356 -0.65026 0
M  V30 7177 C 685.292 -1.44918 -1.77571 0
M  V30 7178 C 686.305 -0.344925 -1.59104 0
M  V30 7179 O 687.494 -0.609537 -1.6777 0
M  V30 7180 C 684.594 -1.24914 -3.15039 0
M  V30 7181 C 683.767 -2.48232 -3.60138 0
M  V30 7182 C 682.826 -2.23409 -4.76419 0
M  V30 7183 O 681.852 -2.9678 -4.85706 0
M  V30 7184 N 683.054 -1.25259 -5.66825 0
M  V30 7185 H 685.819 -2.41935 -1.76883 0
M  V30 7186 H 683.38 -1.38754 -0.834202 0
M  V30 7187 H 685.372 -1.06185 -3.90521 0
M  V30 7188 H 683.942 -0.363319 -3.10481 0
M  V30 7189 H 683.162 -2.82366 -2.75069 0
M  V30 7190 H 684.45 -3.30296 -3.87017 0
M  V30 7191 H 683.848 -0.646246 -5.61997 0
M  V30 7192 H 682.405 -1.12513 -6.42016 0
M  V30 7193 N 685.838 0.888903 -1.30139 0
M  V30 7194 C 686.801 1.97576 -1.16174 0
M  V30 7195 C 687.801 1.60525 -0.094086 0
M  V30 7196 O 688.991 1.70812 -0.341889 0
M  V30 7197 C 686.123 3.3188 -0.778983 0
M  V30 7198 H 687.316 2.11393 -2.12728 0
M  V30 7199 H 684.869 1.0748 -1.1348 0
M  V30 7200 H 685.604 3.23765 0.186225 0
M  V30 7201 H 685.389 3.60141 -1.55051 0
M  V30 7202 H 686.879 4.11612 -0.704631 0
M  V30 7203 N 687.317 1.12792 1.10072 0
M  V30 7204 C 688.728 0.899346 1.63611 0
M  V30 7205 C 689.079 -0.565547 1.87872 0
M  V30 7206 O 688.204 -1.43081 1.62348 0
M  V30 7207 C 688.799 1.62608 2.97227 0
M  V30 7208 C 687.358 1.44356 3.47618 0
M  V30 7209 C 686.505 1.65958 2.22156 0
M  V30 7210 H 689.456 1.28216 0.935223 0
M  V30 7211 H 689.477 1.0793 3.64872 0
M  V30 7212 H 688.989 2.69221 2.79538 0
M  V30 7213 H 687.09 0.400148 3.70445 0
M  V30 7214 H 687.203 2.20218 4.25489 0
M  V30 7215 H 685.567 1.08395 2.30484 0
M  V30 7216 H 686.35 2.73877 2.06993 0
M  V30 7217 N 688.795 -1.27931 0.920396 0
M  V30 7218 C 689.758 -2.25345 0.41858 0
M  V30 7219 C 690.758 -1.54116 -0.458798 0
M  V30 7220 O 691.948 -1.72235 -0.260912 0
M  V30 7221 C 689.08 -3.38556 -0.399104 0
M  V30 7222 H 690.273 -2.71251 1.27918 0
M  V30 7223 H 687.826 -1.39728 0.700406 0
M  V30 7224 H 688.561 -2.98021 -1.27882 0
M  V30 7225 H 688.346 -3.91426 0.229863 0
M  V30 7226 H 689.836 -4.10976 -0.740817 0
M  V30 7227 N 690.273 -0.685099 -1.4193 0
M  V30 7228 C 691.52 -0.211658 -2.01391 0
M  V30 7229 C 691.848 1.18526 -1.54214 0
M  V30 7230 O 691.103 1.81189 -0.739519 0
M  V30 7231 C 691.402 -0.206154 -3.56805 0
M  V30 7232 C 691.068 -1.54915 -4.23453 0
M  V30 7233 C 689.73 -1.91684 -4.41373 0
M  V30 7234 C 692.082 -2.43317 -4.60919 0
M  V30 7235 C 689.41 -3.16461 -4.94034 0
M  V30 7236 C 691.762 -3.67415 -5.14965 0
M  V30 7237 C 690.426 -4.04341 -5.31098 0
M  V30 7238 H 689.696 -0.0774511 -0.736941 0
M  V30 7239 H 692.343 -0.882121 -1.69973 0
M  V30 7240 H 690.648 0.547841 -3.87951 0
M  V30 7241 H 692.345 0.17753 -4.00607 0
M  V30 7242 H 688.935 -1.25314 -4.09871 0
M  V30 7243 H 693.119 -2.16192 -4.46738 0
M  V30 7244 H 688.375 -3.45078 -5.04709 0
M  V30 7245 H 692.549 -4.3611 -5.42938 0
M  V30 7246 H 690.176 -5.01101 -5.71666 0
M  V30 7247 N 691.751 1.51645 -0.429126 0
M  V30 7248 C 692.976 2.06917 0.141399 0
M  V30 7249 C 693.401 1.29527 1.36398 0
M  V30 7250 O 692.759 0.33094 1.78254 0
M  V30 7251 C 692.807 3.57776 0.4504 0
M  V30 7252 O 691.911 3.82639 1.53821 0
M  V30 7253 H 691.252 0.663978 0.0054647 0
M  V30 7254 H 693.782 1.95355 -0.608093 0
M  V30 7255 H 693.792 4.01894 0.703249 0
M  V30 7256 H 692.467 4.13532 -0.443213 0
M  V30 7257 H 691.044 3.5039 1.27597 0
M  V30 7258 N 693.229 0.160201 1.56784 0
M  V30 7259 C 694.177 -0.791402 2.18723 0
M  V30 7260 C 695.171 -1.24567 1.14801 0
M  V30 7261 O 696.377 -1.21262 1.33025 0
M  V30 7262 H 692.752 -0.273458 0.700517 0
M  V30 7263 H 694.723 -0.244931 2.97393 0
M  V30 7264 C 693.472 -2.01509 2.83354 0
M  V30 7265 H 692.795 -1.67454 3.63041 0
M  V30 7266 H 694.235 -2.66006 3.30177 0
M  V30 7267 C 692.694 -2.83159 1.82545 0
M  V30 7268 O 693.224 -3.79944 1.30405 0
M  V30 7269 N 691.43 -2.47953 1.51552 0
M  V30 7270 H 690.977 -1.69309 1.94144 0
M  V30 7271 H 690.935 -3.02873 0.843519 0
M  V30 7272 N 694.707 -1.5719 -0.113559 0
M  V30 7273 C 695.955 -1.84772 -0.818761 0
M  V30 7274 C 696.276 -0.746196 -1.80158 0
M  V30 7275 O 695.546 0.229305 -1.94553 0
M  V30 7276 H 694.126 -0.681737 -0.305359 0
M  V30 7277 H 696.788 -1.94645 -0.0995845 0
M  V30 7278 H 695.884 -2.80878 -1.36067 0
M  V30 7279 N 696.185 0.383891 -1.52853 0
M  V30 7280 C 697.148 1.45197 -1.77343 0
M  V30 7281 C 698.148 1.47362 -0.643522 0
M  V30 7282 O 699.338 1.48443 -0.911613 0
M  V30 7283 C 696.47 2.8445 -1.87885 0
M  V30 7284 H 697.663 1.24764 -2.72716 0
M  V30 7285 H 695.216 0.615939 -1.43652 0
M  V30 7286 H 695.951 3.10222 -0.94515 0
M  V30 7287 H 695.736 2.8428 -2.70051 0
M  V30 7288 H 697.226 3.61832 -2.08488 0
M  V30 7289 N 697.663 1.43903 0.642637 0
M  V30 7290 C 698.912 1.45362 1.39831 0
M  V30 7291 C 699.225 0.0856289 1.95412 0
M  V30 7292 O 700.431 -0.0222856 2.71491 0
M  V30 7293 C 698.887 2.55857 2.53111 0
M  V30 7294 C 698.495 3.98811 2.04092 0
M  V30 7295 C 700.239 2.66524 3.30402 0
M  V30 7296 C 698.146 5.00751 3.14647 0
M  V30 7297 H 697.076 0.540777 0.52543 0
M  V30 7298 H 699.727 1.69929 0.692559 0
M  V30 7299 H 698.109 2.2451 3.26207 0
M  V30 7300 H 699.283 4.3967 1.37938 0
M  V30 7301 H 697.598 3.92284 1.39651 0
M  V30 7302 H 700.195 3.39858 4.12796 0
M  V30 7303 H 700.538 1.71949 3.79129 0
M  V30 7304 H 701.071 2.97224 2.64392 0
M  V30 7305 H 697.81 5.96914 2.70876 0
M  V30 7306 H 697.33 4.64495 3.79479 0
M  V30 7307 H 699.009 5.23933 3.79609 0
M  V30 7308 N 699.141 -0.881989 1.30609 0
M  V30 7309 C 700.071 -2.00413 1.1982 0
M  V30 7310 C 701.052 -1.69871 0.0881538 0
M  V30 7311 O 702.237 -1.92304 0.2707 0
M  V30 7312 C 699.367 -3.35641 0.89233 0
M  V30 7313 C 698.321 -3.80451 1.96064 0
M  V30 7314 C 697.647 -5.13003 1.5077 0
M  V30 7315 C 698.947 -3.98855 3.37213 0
M  V30 7316 H 700.641 -2.09698 2.13699 0
M  V30 7317 H 698.187 -1.00754 1.02882 0
M  V30 7318 H 700.14 -4.13669 0.803497 0
M  V30 7319 H 698.864 -3.26497 -0.0821381 0
M  V30 7320 H 697.523 -3.04654 2.03916 0
M  V30 7321 H 697.171 -5.0029 0.521417 0
M  V30 7322 H 696.871 -5.43956 2.22229 0
M  V30 7323 H 698.395 -5.93554 1.43271 0
M  V30 7324 H 699.809 -4.67312 3.32103 0
M  V30 7325 H 698.206 -4.41188 4.06784 0
M  V30 7326 H 699.276 -3.02614 3.78883 0
M  V30 7327 N 700.619 -1.13374 -1.09472 0
M  V30 7328 C 701.896 -0.806329 -1.78207 0
M  V30 7329 C 702.276 0.702191 -1.99079 0
M  V30 7330 O 701.624 1.63931 -1.59182 0
M  V30 7331 C 701.834 -1.59271 -3.10538 0
M  V30 7332 C 703.182 -1.78509 -3.85253 0
M  V30 7333 O 704.206 -1.55866 -3.20288 0
M  V30 7334 O 703.065 -2.16287 -5.01879 0
M  V30 7335 H 700.159 -0.29435 -0.772843 0
M  V30 7336 H 702.705 -1.23833 -1.16033 0
M  V30 7337 H 701.477 -2.61792 -2.90828 0
M  V30 7338 H 701.1 -1.15562 -3.80436 0
M  V30 7339 N 702.098 1.27442 -0.927168 0
M  V30 7340 C 703.328 1.9821 -0.582775 0
M  V30 7341 C 703.736 1.69361 0.843406 0
M  V30 7342 O 703.079 0.950381 1.57205 0
M  V30 7343 C 703.141 3.52048 -0.728165 0
M  V30 7344 C 702.805 4.04518 -2.12637 0
M  V30 7345 C 703.802 4.17332 -3.10048 0
M  V30 7346 C 701.487 4.38879 -2.44317 0
M  V30 7347 C 703.481 4.6378 -4.37249 0
M  V30 7348 C 701.168 4.85018 -3.71753 0
M  V30 7349 C 702.166 4.97428 -4.68033 0
M  V30 7350 O 701.854 5.42556 -5.93202 0
M  V30 7351 H 701.586 0.639314 -0.219667 0
M  V30 7352 H 704.14 1.63272 -1.24626 0
M  V30 7353 H 702.37 3.86699 -0.00758143 0
M  V30 7354 H 704.059 4.04033 -0.388906 0
M  V30 7355 H 704.825 3.91046 -2.86894 0
M  V30 7356 H 700.704 4.28462 -1.70121 0
M  V30 7357 H 704.248 4.73382 -5.12402 0
M  V30 7358 H 700.145 5.10746 -3.94726 0
M  V30 7359 H 700.913 5.60811 -5.96182 0
M  V30 7360 N 703.576 0.692616 1.41565 0
M  V30 7361 C 704.486 0.0258451 2.34586 0
M  V30 7362 C 705.502 -0.769324 1.56069 0
M  V30 7363 O 706.678 -0.707563 1.88562 0
M  V30 7364 C 703.743 -0.901289 3.3478 0
M  V30 7365 C 702.804 -0.0986579 4.29187 0
M  V30 7366 C 702.037 -0.981634 5.24595 0
M  V30 7367 O 702.26 -2.22115 5.25377 0
M  V30 7368 O 701.194 -0.432892 6.00341 0
M  V30 7369 H 705.02 0.792537 2.93177 0
M  V30 7370 H 702.605 0.452935 1.42369 0
M  V30 7371 H 704.487 -1.43302 3.96286 0
M  V30 7372 H 703.162 -1.64752 2.78637 0
M  V30 7373 H 702.069 0.477604 3.71039 0
M  V30 7374 H 703.402 0.608848 4.8842 0
M  V30 7375 N 705.054 -1.51416 0.437162 0
M  V30 7376 C 706.303 -2.01275 -0.130865 0
M  V30 7377 C 706.616 -1.32593 -1.438 0
M  V30 7378 O 707.822 -1.7342 -2.08897 0
M  V30 7379 C 706.278 -3.5878 -0.283763 0
M  V30 7380 C 705.886 -4.36399 1.01293 0
M  V30 7381 C 707.63 -4.16786 -0.805569 0
M  V30 7382 C 705.537 -5.85608 0.825687 0
M  V30 7383 H 704.467 -0.752157 -0.0526818 0
M  V30 7384 H 707.118 -1.74524 0.566896 0
M  V30 7385 H 705.5 -3.81976 -1.04452 0
M  V30 7386 H 706.674 -4.24948 1.78201 0
M  V30 7387 H 704.989 -3.89843 1.46326 0
M  V30 7388 H 707.586 -5.25972 -0.962146 0
M  V30 7389 H 707.929 -3.75949 -1.78796 0
M  V30 7390 H 708.462 -3.97666 -0.103125 0
M  V30 7391 H 705.201 -6.30857 1.78045 0
M  V30 7392 H 704.721 -5.99723 0.0964029 0
M  V30 7393 H 706.4 -6.45226 0.478815 0
M  V30 7394 N 706.532 -0.168513 -1.56696 0
M  V30 7395 C 707.479 0.762875 -2.17828 0
M  V30 7396 C 708.449 1.22892 -1.11745 0
M  V30 7397 O 709.634 1.29759 -1.39883 0
M  V30 7398 C 706.774 1.9879 -2.82093 0
M  V30 7399 C 705.887 1.56568 -4.02629 0
M  V30 7400 C 705.022 2.74416 -4.54829 0
M  V30 7401 C 704.061 2.28671 -5.67782 0
M  V30 7402 N 703.198 3.39602 -6.14504 0
M  V30 7403 H 708.038 0.23479 -2.97074 0
M  V30 7404 H 705.575 0.104163 -1.46731 0
M  V30 7405 H 707.533 2.70636 -3.17509 0
M  V30 7406 H 706.163 2.48973 -2.05456 0
M  V30 7407 H 705.215 0.744067 -3.73052 0
M  V30 7408 H 706.527 1.18988 -4.844 0
M  V30 7409 H 705.681 3.54423 -4.92412 0
M  V30 7410 H 704.42 3.15254 -3.7211 0
M  V30 7411 H 703.425 1.4711 -5.29753 0
M  V30 7412 H 704.65 1.88894 -6.52301 0
M  V30 7413 H 702.596 3.80021 -5.34715 0
M  V30 7414 H 702.513 3.06105 -6.91257 0
M  V30 7415 H 703.781 4.19902 -6.56737 0
M  V30 7416 N 708.01 1.57248 0.105221 0
M  V30 7417 C 709.24 1.89492 0.823175 0
M  V30 7418 C 709.648 0.75934 1.73294 0
M  V30 7419 O 708.991 -0.278182 1.81581 0
M  V30 7420 C 709.053 3.16891 1.69765 0
M  V30 7421 C 708.717 4.46787 0.960769 0
M  V30 7422 C 709.714 5.19061 0.295218 0
M  V30 7423 C 707.399 4.93467 0.937854 0
M  V30 7424 C 709.393 6.36246 -0.383393 0
M  V30 7425 C 707.08 6.10566 0.255452 0
M  V30 7426 C 708.078 6.81804 -0.404003 0
M  V30 7427 O 707.766 7.96673 -1.07549 0
M  V30 7428 H 707.498 0.631512 0.24118 0
M  V30 7429 H 710.052 2.05203 0.0899655 0
M  V30 7430 H 708.282 2.973 2.47285 0
M  V30 7431 H 709.971 3.35046 2.29126 0
M  V30 7432 H 710.737 4.84044 0.304448 0
M  V30 7433 H 706.616 4.37913 1.44058 0
M  V30 7434 H 710.16 6.91787 -0.898696 0
M  V30 7435 H 706.057 6.45039 0.244032 0
M  V30 7436 H 706.825 8.12596 -0.981355 0
M  V30 7437 N 709.488 -0.375779 1.53054 0
M  V30 7438 C 710.718 -1.1387 1.72386 0
M  V30 7439 C 711.126 -1.8382 0.447966 0
M  V30 7440 O 710.469 -1.74027 -0.588244 0
M  V30 7441 C 710.531 -2.22047 2.82728 0
M  V30 7442 C 710.195 -1.71951 4.23417 0
M  V30 7443 C 711.192 -1.18909 5.06119 0
M  V30 7444 C 708.877 -1.77773 4.69789 0
M  V30 7445 C 710.871 -0.723529 6.3328 0
M  V30 7446 C 708.558 -1.30829 5.96931 0
M  V30 7447 C 709.556 -0.782077 6.78508 0
M  V30 7448 O 709.244 -0.319529 8.03265 0
M  V30 7449 H 708.976 -0.346835 0.580242 0
M  V30 7450 H 711.53 -0.443748 2.00549 0
M  V30 7451 H 709.76 -2.95006 2.50017 0
M  V30 7452 H 711.449 -2.83654 2.90336 0
M  V30 7453 H 712.215 -1.13758 4.7147 0
M  V30 7454 H 708.094 -2.17673 4.06373 0
M  V30 7455 H 711.638 -0.312126 6.96901 0
M  V30 7456 H 707.535 -1.3567 6.31081 0
M  V30 7457 H 708.303 -0.439796 8.17318 0
M  V30 7458 N 710.966 -1.44241 -0.634997 0
M  V30 7459 C 711.876 -1.53293 -1.77591 0
M  V30 7460 C 712.892 -0.418831 -1.68884 0
M  V30 7461 O 714.068 -0.675619 -1.8973 0
M  V30 7462 C 711.133 -1.47075 -3.13958 0
M  V30 7463 C 710.194 -2.69304 -3.34326 0
M  V30 7464 C 709.427 -2.63374 -4.64187 0
M  V30 7465 O 709.65 -1.69161 -5.44739 0
M  V30 7466 O 708.584 -3.54166 -4.86673 0
M  V30 7467 H 712.41 -2.49673 -1.72908 0
M  V30 7468 H 709.995 -1.26445 -0.795745 0
M  V30 7469 H 711.877 -1.46117 -3.95257 0
M  V30 7470 H 710.552 -0.538373 -3.19192 0
M  V30 7471 H 709.459 -2.75831 -2.52721 0
M  V30 7472 H 710.792 -3.61576 -3.33951 0
M  V30 7473 N 712.444 0.87505 -1.31075 0
M  V30 7474 C 713.391 1.98178 -1.18296 0
M  V30 7475 C 714.361 1.65952 -0.0699923 0
M  V30 7476 O 715.546 1.8926 -0.241951 0
M  V30 7477 C 712.686 3.33399 -0.891024 0
M  V30 7478 C 711.799 3.78253 -2.08684 0
M  V30 7479 C 710.934 5.02166 -1.73212 0
M  V30 7480 C 709.973 5.39455 -2.89231 0
M  V30 7481 N 709.11 6.54549 -2.53989 0
M  V30 7482 H 713.95 2.0844 -2.12971 0
M  V30 7483 H 711.487 1.02047 -1.05948 0
M  V30 7484 H 713.445 4.11246 -0.702338 0
M  V30 7485 H 712.075 3.22794 0.0188799 0
M  V30 7486 H 711.127 2.9623 -2.38646 0
M  V30 7487 H 712.439 4.01821 -2.95536 0
M  V30 7488 H 711.593 5.87666 -1.50777 0
M  V30 7489 H 710.332 4.80491 -0.83544 0
M  V30 7490 H 709.337 4.52477 -3.12321 0
M  V30 7491 H 710.562 5.63098 -3.79601 0
M  V30 7492 H 708.508 6.3443 -1.66838 0
M  V30 7493 H 708.425 6.78035 -3.34372 0
M  V30 7494 H 709.693 7.43254 -2.34934 0
M  V30 7495 N 713.922 1.13953 1.08869 0
M  V30 7496 C 714.832 0.835666 2.19212 0
M  V30 7497 C 715.848 -0.182005 1.73045 0
M  V30 7498 O 717.024 -0.0116661 2.01397 0
M  V30 7499 C 714.089 0.312325 3.4529 0
M  V30 7500 C 713.15 1.39196 4.06107 0
M  V30 7501 C 712.383 0.893496 5.26168 0
M  V30 7502 O 712.606 -0.266807 5.69776 0
M  V30 7503 O 711.54 1.67037 5.78258 0
M  V30 7504 H 715.366 1.75769 2.47667 0
M  V30 7505 H 712.951 0.917421 1.17914 0
M  V30 7506 H 714.833 0.0261582 4.21392 0
M  V30 7507 H 713.508 -0.582042 3.18424 0
M  V30 7508 H 712.415 1.73152 3.31616 0
M  V30 7509 H 713.748 2.26068 4.37212 0
M  V30 7510 N 715.4 -1.26948 0.933913 0
M  V30 7511 C 716.35 -2.24306 0.408779 0
M  V30 7512 C 717.334 -1.53243 -0.490435 0
M  V30 7513 O 718.526 -1.73956 -0.326866 0
M  V30 7514 C 715.655 -3.41695 -0.331578 0
M  V30 7515 C 714.741 -4.20053 0.58451 0
M  V30 7516 N 715.132 -4.76122 1.70709 0
M  V30 7517 C 713.43 -4.44303 0.388703 0
M  V30 7518 C 714.131 -5.35267 2.27737 0
M  V30 7519 N 713.107 -5.20548 1.56622 0
M  V30 7520 H 716.909 -2.65244 1.26582 0
M  V30 7521 H 714.423 -1.4195 0.788919 0
M  V30 7522 H 716.42 -4.10552 -0.724774 0
M  V30 7523 H 715.08 -3.02286 -1.18547 0
M  V30 7524 H 716.091 -4.73884 2.08937 0
M  V30 7525 H 712.768 -4.15341 -0.424016 0
M  V30 7526 H 714.158 -5.89563 3.22282 0
M  V30 7527 N 716.879 -0.700114 -1.41195 0
M  V30 7528 C 717.789 -0.0382854 -2.34569 0
M  V30 7529 C 718.805 0.761036 -1.56474 0
M  V30 7530 O 719.981 0.697553 -1.88934 0
M  V30 7531 C 717.046 0.883522 -3.35253 0
M  V30 7532 C 716.107 0.0758957 -4.29233 0
M  V30 7533 C 715.34 0.9538 -5.25108 0
M  V30 7534 O 715.563 2.19326 -5.26547 0
M  V30 7535 O 714.497 0.401049 -6.00562 0
M  V30 7536 H 718.323 -0.808073 -2.92752 0
M  V30 7537 H 715.908 -0.460479 -1.42127 0
M  V30 7538 H 717.79 1.41199 -3.9704 0
M  V30 7539 H 716.465 1.63272 -2.79506 0
M  V30 7540 H 715.372 -0.497274 -3.7078 0
M  V30 7541 H 716.705 -0.634741 -4.8809 0
M  V30 7542 N 718.357 1.51182 -0.445186 0
M  V30 7543 C 719.289 2.25714 0.398206 0
M  V30 7544 C 720.302 1.30032 0.979562 0
M  V30 7545 O 721.491 1.55731 0.872368 0
M  V30 7546 C 718.591 3.00348 1.56985 0
M  V30 7547 C 717.764 4.23187 1.10596 0
M  V30 7548 C 716.823 4.80334 2.14863 0
M  V30 7549 O 715.849 5.4196 1.73977 0
M  V30 7550 N 717.051 4.65053 3.47427 0
M  V30 7551 H 719.816 2.98732 -0.240629 0
M  V30 7552 H 717.377 1.59556 -0.274507 0
M  V30 7553 H 719.369 3.35464 2.26376 0
M  V30 7554 H 717.939 2.30291 2.11387 0
M  V30 7555 H 717.159 3.93476 0.238832 0
M  V30 7556 H 718.447 5.02886 0.773537 0
M  V30 7557 H 717.845 4.15984 3.83372 0
M  V30 7558 H 716.402 5.04509 4.12691 0
M  V30 7559 N 719.835 0.176821 1.56605 0
M  V30 7560 C 720.765 -0.746841 2.21234 0
M  V30 7561 C 721.746 -1.23502 1.16967 0
M  V30 7562 O 722.931 -1.28718 1.45414 0
M  V30 7563 C 720.061 -1.97407 2.8574 0
M  V30 7564 C 719.015 -1.62153 3.96094 0
M  V30 7565 C 718.341 -2.92387 4.47676 0
M  V30 7566 C 719.641 -0.845353 5.15413 0
M  V30 7567 H 721.335 -0.208116 2.98676 0
M  V30 7568 H 718.881 -0.0986594 1.43662 0
M  V30 7569 H 720.834 -2.62531 3.2963 0
M  V30 7570 H 719.558 -2.53703 2.05676 0
M  V30 7571 H 718.217 -0.993964 3.52868 0
M  V30 7572 H 717.865 -3.46734 3.64396 0
M  V30 7573 H 717.565 -2.69551 5.22127 0
M  V30 7574 H 719.089 -3.5853 4.94255 0
M  V30 7575 H 720.503 -1.39929 5.55961 0
M  V30 7576 H 718.9 -0.715814 5.95815 0
M  V30 7577 H 719.97 0.157239 4.84645 0
M  V30 7578 N 721.313 -1.57302 -0.09688 0
M  V30 7579 C 722.541 -1.90202 -0.814295 0
M  V30 7580 C 722.956 -0.770344 -1.72369 0
M  V30 7581 O 722.313 0.257764 -1.8067 0
M  V30 7582 C 722.364 -3.22708 -1.62916 0
M  V30 7583 O 722.085 -4.31522 -0.756343 0
M  V30 7584 C 723.586 -3.69459 -2.44979 0
M  V30 7585 H 720.806 -0.629275 -0.232925 0
M  V30 7586 H 723.35 -2.04364 -0.0746482 0
M  V30 7587 H 721.505 -3.1015 -2.32133 0
M  V30 7588 H 721.919 -5.07604 -1.32054 0
M  V30 7589 H 723.393 -4.64875 -2.9765 0
M  V30 7590 H 723.87 -2.97211 -3.23361 0
M  V30 7591 H 724.476 -3.84879 -1.80964 0
M  V30 7592 N 722.791 0.367657 -1.53252 0
M  V30 7593 C 724.021 1.12955 -1.72988 0
M  V30 7594 C 724.429 1.8358 -0.457708 0
M  V30 7595 O 723.772 1.74336 0.579006 0
M  V30 7596 C 723.834 2.20545 -2.83902 0
M  V30 7597 C 723.498 1.69704 -4.24323 0
M  V30 7598 C 724.495 1.16223 -5.06743 0
M  V30 7599 C 722.18 1.7528 -4.70725 0
M  V30 7600 C 724.174 0.689935 -6.33655 0
M  V30 7601 C 721.861 1.27662 -5.97617 0
M  V30 7602 C 722.859 0.746083 -6.78913 0
M  V30 7603 O 722.547 0.276925 -8.03423 0
M  V30 7604 H 722.279 0.343753 -0.582074 0
M  V30 7605 H 724.833 0.433106 -2.00782 0
M  V30 7606 H 723.063 2.93676 -2.51577 0
M  V30 7607 H 724.752 2.82111 -2.91836 0
M  V30 7608 H 725.518 1.11256 -4.72067 0
M  V30 7609 H 721.397 2.15515 -4.07522 0
M  V30 7610 H 724.941 0.275164 -6.97057 0
M  V30 7611 H 720.838 1.32322 -6.31792 0
M  V30 7612 H 721.606 0.396445 -8.17539 0
M  V30 7613 N 724.269 1.44576 0.627338 0
M  V30 7614 C 725.494 1.51271 1.41887 0
M  V30 7615 C 725.919 0.139814 1.8758 0
M  V30 7616 O 725.277 -0.871746 1.58966 0
M  V30 7617 C 725.325 2.48529 2.61277 0
M  V30 7618 O 724.429 1.98944 3.61241 0
M  V30 7619 H 723.77 0.510668 0.424399 0
M  V30 7620 H 726.3 1.89746 0.765356 0
M  V30 7621 H 726.31 2.66689 3.08773 0
M  V30 7622 H 724.985 3.48249 2.27366 0
M  V30 7623 H 723.562 1.90568 3.20528 0
M  V30 7624 N 725.747 -0.868086 1.31537 0
M  V30 7625 C 726.972 -1.65926 1.24432 0
M  V30 7626 C 727.397 -1.87169 -0.186936 0
M  V30 7627 O 726.755 -1.4148 -1.13371 0
M  V30 7628 C 726.803 -3.00347 1.9956 0
M  V30 7629 O 725.907 -3.90221 1.33422 0
M  V30 7630 H 725.248 -0.506375 0.429512 0
M  V30 7631 H 727.778 -1.0822 1.73637 0
M  V30 7632 H 727.788 -3.50269 2.09226 0
M  V30 7633 H 726.463 -2.84205 3.03645 0
M  V30 7634 H 725.04 -3.48672 1.32219 0
M  V30 7635 N 727.225 -1.14528 -1.08264 0
M  V30 7636 C 728.453 -0.937964 -1.84418 0
M  V30 7637 C 728.868 0.51357 -1.81681 0
M  V30 7638 O 728.225 1.35591 -1.22153 0
M  V30 7639 C 728.276 -1.43272 -3.31897 0
M  V30 7640 O 727.997 -2.82738 -3.34651 0
M  V30 7641 C 729.498 -1.26555 -4.24851 0
M  V30 7642 H 726.718 -0.333704 -0.582136 0
M  V30 7643 H 729.262 -1.52076 -1.36723 0
M  V30 7644 H 727.417 -0.892653 -3.76975 0
M  V30 7645 H 727.831 -3.04971 -4.26724 0
M  V30 7646 H 729.305 -1.66031 -5.26439 0
M  V30 7647 H 729.782 -0.208589 -4.38704 0
M  V30 7648 H 730.388 -1.79423 -3.856 0
M  V30 7649 N 728.703 1.26451 -0.940633 0
M  V30 7650 C 730.119 1.4608 -0.642859 0
M  V30 7651 C 730.319 1.84765 0.803998 0
M  V30 7652 O 729.375 1.96902 1.58069 0
M  V30 7653 C 730.688 2.54359 -1.60381 0
M  V30 7654 C 732.236 2.6821 -1.61345 0
M  V30 7655 C 732.711 3.79659 -2.56169 0
M  V30 7656 N 734.202 3.87051 -2.54452 0
M  V30 7657 C 734.937 4.72739 -3.24507 0
M  V30 7658 N 734.433 5.6282 -4.03987 0
M  V30 7659 N 736.226 4.66581 -3.13462 0
M  V30 7660 H 728.377 0.996289 -1.87584 0
M  V30 7661 H 730.64 0.498921 -0.80609 0
M  V30 7662 H 730.346 2.32758 -2.6366 0
M  V30 7663 H 730.22 3.52005 -1.35545 0
M  V30 7664 H 732.607 2.89184 -0.587913 0
M  V30 7665 H 732.688 1.7101 -1.90235 0
M  V30 7666 H 732.332 3.59438 -3.58841 0
M  V30 7667 H 732.262 4.76315 -2.2457 0
M  V30 7668 H 734.753 3.22649 -1.96739 0
M  V30 7669 H 735.066 6.25095 -4.54396 0
M  V30 7670 H 733.411 5.62574 -4.08088 0
M  V30 7671 H 736.602 3.9521 -2.50852 0
M  V30 7672 H 736.775 5.33141 -3.68327 0
M  V30 7673 N 730.181 0.707592 1.40822 0
M  V30 7674 C 731.406 0.251626 2.05868 0
M  V30 7675 C 731.831 -1.09503 1.5294 0
M  V30 7676 O 731.189 -1.68806 0.661385 0
M  V30 7677 C 731.237 0.23287 3.59847 0
M  V30 7678 O 730.341 -0.788477 4.04792 0
M  V30 7679 H 729.682 0.119936 0.653078 0
M  V30 7680 H 732.212 0.96583 1.80369 0
M  V30 7681 H 732.222 0.0678204 4.07944 0
M  V30 7682 H 730.897 1.21565 3.97737 0
M  V30 7683 H 729.474 -0.591802 3.68174 0
M  V30 7684 N 731.66 -1.50943 0.453197 0
M  V30 7685 C 732.607 -2.28128 -0.350197 0
M  V30 7686 C 733.577 -1.32398 -1.00299 0
M  V30 7687 O 734.762 -1.61319 -1.01887 0
M  V30 7688 C 731.902 -3.13782 -1.43649 0
M  V30 7689 C 731.015 -4.24523 -0.800255 0
M  V30 7690 C 730.15 -4.97462 -1.86293 0
M  V30 7691 C 729.189 -6.00102 -1.20598 0
M  V30 7692 N 728.326 -6.66387 -2.21071 0
M  V30 7693 H 733.166 -2.96337 0.31434 0
M  V30 7694 H 730.703 -1.46151 0.166863 0
M  V30 7695 H 732.661 -3.6178 -2.07776 0
M  V30 7696 H 731.291 -2.47655 -2.07044 0
M  V30 7697 H 730.343 -3.80371 -0.0468651 0
M  V30 7698 H 731.655 -4.98009 -0.280777 0
M  V30 7699 H 730.809 -5.49088 -2.58044 0
M  V30 7700 H 729.548 -4.23642 -2.41617 0
M  V30 7701 H 728.553 -5.47753 -0.474 0
M  V30 7702 H 729.778 -6.75887 -0.659859 0
M  V30 7703 H 727.724 -5.9537 -2.75446 0
M  V30 7704 H 727.641 -7.3569 -1.74058 0
M  V30 7705 H 728.909 -7.22638 -2.92257 0
M  V30 7706 N 733.138 -0.185124 -1.56509 0
M  V30 7707 C 734.101 0.72591 -2.17401 0
M  V30 7708 C 735.101 1.14819 -1.12575 0
M  V30 7709 O 736.291 1.0629 -1.38015 0
M  V30 7710 C 733.423 1.98979 -2.76803 0
M  V30 7711 H 734.616 0.195588 -2.99262 0
M  V30 7712 H 732.169 0.0644772 -1.56167 0
M  V30 7713 H 732.904 2.56287 -1.98714 0
M  V30 7714 H 732.689 1.69583 -3.53531 0
M  V30 7715 H 734.179 2.63966 -3.23592 0
M  V30 7716 N 734.616 1.57351 0.0885366 0
M  V30 7717 C 736.027 1.75303 0.642308 0
M  V30 7718 C 736.378 0.808238 1.78779 0
M  V30 7719 O 735.503 -0.01171 2.16397 0
M  V30 7720 C 736.098 3.17885 1.17194 0
M  V30 7721 C 734.657 3.37239 1.67172 0
M  V30 7722 C 733.804 2.7108 0.584045 0
M  V30 7723 H 736.755 1.58103 -0.137567 0
M  V30 7724 H 736.776 3.2112 2.04114 0
M  V30 7725 H 736.288 3.86625 0.338024 0
M  V30 7726 H 734.389 2.73588 2.52943 0
M  V30 7727 H 734.502 4.45594 1.76019 0
M  V30 7728 H 732.866 2.33161 1.02508 0
M  V30 7729 H 733.649 3.42464 -0.239403 0
M  V30 7730 N 736.094 -0.359525 1.53444 0
M  V30 7731 C 737.319 -1.12644 1.74144 0
M  V30 7732 C 737.744 -1.82082 0.472007 0
M  V30 7733 O 737.102 -1.71962 -0.57436 0
M  V30 7734 C 737.15 -2.12781 2.9113 0
M  V30 7735 O 736.254 -3.19984 2.60162 0
M  V30 7736 H 735.595 -0.326553 0.578152 0
M  V30 7737 H 738.125 -0.414798 2.00351 0
M  V30 7738 H 738.135 -2.56278 3.17467 0
M  V30 7739 H 736.81 -1.61634 3.83207 0
M  V30 7740 H 735.387 -2.81417 2.44661 0
M  V30 7741 N 737.572 -1.44907 -0.619662 0
M  V30 7742 C 738.818 -1.48512 -1.38102 0
M  V30 7743 C 739.151 -0.121686 -1.93818 0
M  V30 7744 O 738.426 0.862256 -1.74343 0
M  V30 7745 C 738.709 -2.55469 -2.53787 0
M  V30 7746 C 738.562 -4.01212 -2.03345 0
M  V30 7747 C 739.881 -2.58821 -3.55949 0
M  V30 7748 H 737 -0.540712 -0.500799 0
M  V30 7749 H 739.642 -1.7665 -0.69962 0
M  V30 7750 H 737.792 -2.31606 -3.11915 0
M  V30 7751 H 739.464 -4.36245 -1.49959 0
M  V30 7752 H 737.707 -4.12443 -1.34438 0
M  V30 7753 H 738.378 -4.71717 -2.86683 0
M  V30 7754 H 740.854 -2.80172 -3.07641 0
M  V30 7755 H 739.73 -3.35542 -4.34399 0
M  V30 7756 H 739.991 -1.63451 -4.10775 0
M  V30 7757 N 739.05 0.861098 -1.31996 0
M  V30 7758 C 740.299 1.60965 -1.21545 0
M  V30 7759 C 740.612 1.94325 0.222972 0
M  V30 7760 O 741.818 2.67757 0.449272 0
M  V30 7761 C 740.274 2.90223 -2.12834 0
M  V30 7762 C 739.882 2.64313 -3.61722 0
M  V30 7763 C 741.626 3.68229 -2.11205 0
M  V30 7764 C 739.533 3.89532 -4.44993 0
M  V30 7765 H 738.463 0.603988 -0.451348 0
M  V30 7766 H 741.114 0.951358 -1.56912 0
M  V30 7767 H 739.496 3.57475 -1.70375 0
M  V30 7768 H 740.67 2.05413 -4.12483 0
M  V30 7769 H 738.985 1.99647 -3.65418 0
M  V30 7770 H 741.582 4.61138 -2.70658 0
M  V30 7771 H 741.925 4.01466 -1.1014 0
M  V30 7772 H 742.458 3.07873 -2.51911 0
M  V30 7773 H 739.197 3.61441 -5.46846 0
M  V30 7774 H 738.717 4.47851 -3.98985 0
M  V30 7775 H 740.396 4.57334 -4.57663 0
M  V30 7776 N 740.528 1.15101 1.07655 0
M  V30 7777 C 741.777 0.918528 1.79572 0
M  V30 7778 C 742.09 -0.555922 1.87534 0
M  V30 7779 O 743.296 -0.905893 2.55941 0
M  V30 7780 C 741.752 1.59394 3.22679 0
M  V30 7781 C 741.36 3.1052 3.22927 0
M  V30 7782 C 743.104 1.44289 3.99225 0
M  V30 7783 C 741.011 3.70862 4.60668 0
M  V30 7784 H 739.941 0.340006 0.672987 0
M  V30 7785 H 742.592 1.38079 1.20857 0
M  V30 7786 H 740.974 1.05936 3.81567 0
M  V30 7787 H 742.148 3.70708 2.737 0
M  V30 7788 H 740.463 3.25351 2.59876 0
M  V30 7789 H 743.06 1.86766 5.01022 0
M  V30 7790 H 743.403 0.389975 4.14469 0
M  V30 7791 H 743.936 1.94826 3.46825 0
M  V30 7792 H 740.675 4.7604 4.50628 0
M  V30 7793 H 740.195 3.15456 5.10145 0
M  V30 7794 H 741.874 3.71607 5.29639 0
M  V30 7795 N 742.006 -1.2595 0.947325 0
M  V30 7796 C 743.234 -1.97544 0.615127 0
M  V30 7797 C 743.649 -1.70484 -0.811221 0
M  V30 7798 O 743.006 -0.97662 -1.5417 0
M  V30 7799 C 743.057 -3.51236 0.855328 0
M  V30 7800 O 742.778 -3.77359 2.22558 0
M  V30 7801 C 744.279 -4.40066 0.534515 0
M  V30 7802 H 741.499 -0.629888 0.231263 0
M  V30 7803 H 744.043 -1.60308 1.26971 0
M  V30 7804 H 742.198 -3.8661 0.247266 0
M  V30 7805 H 742.612 -4.71857 2.29022 0
M  V30 7806 H 744.086 -5.46838 0.753168 0
M  V30 7807 H 744.563 -4.35982 -0.530701 0
M  V30 7808 H 745.169 -4.10245 1.12158 0
M  V30 7809 N 743.484 -0.715051 -1.40445 0
M  V30 7810 C 744.732 -0.253826 -2.005 0
M  V30 7811 C 745.053 1.15681 -1.5698 0
M  V30 7812 O 744.323 1.78414 -0.809027 0
M  V30 7813 H 742.903 -0.0908537 -0.741454 0
M  V30 7814 H 745.565 -0.920561 -1.7179 0
M  V30 7815 H 744.661 -0.286499 -3.10782 0
M  V30 7816 N 744.962 1.50701 -0.461195 0
M  V30 7817 C 745.892 2.31182 0.328184 0
M  V30 7818 C 746.873 1.37644 0.999408 0
M  V30 7819 O 748.058 1.66565 0.99848 0
M  V30 7820 C 745.188 3.17113 1.41621 0
M  V30 7821 C 744.142 4.19124 0.867148 0
M  V30 7822 C 743.468 4.93728 2.05272 0
M  V30 7823 C 744.768 5.22174 -0.114808 0
M  V30 7824 H 746.462 2.97423 -0.343501 0
M  V30 7825 H 744.008 1.43033 -0.166641 0
M  V30 7826 H 745.961 3.72208 1.97584 0
M  V30 7827 H 744.685 2.48739 2.11652 0
M  V30 7828 H 743.344 3.65116 0.329557 0
M  V30 7829 H 742.992 4.21835 2.73978 0
M  V30 7830 H 742.692 5.62724 1.69161 0
M  V30 7831 H 744.216 5.51654 2.61744 0
M  V30 7832 H 745.63 5.72198 0.355316 0
M  V30 7833 H 744.027 5.98833 -0.389689 0
M  V30 7834 H 745.097 4.7353 -1.04391 0
M  V30 7835 N 746.441 0.193421 1.56409 0
M  V30 7836 C 747.388 -0.728124 2.19014 0
M  V30 7837 C 748.358 -1.21098 1.13686 0
M  V30 7838 O 749.543 -1.27517 1.4193 0
M  V30 7839 C 746.683 -1.94277 2.8522 0
M  V30 7840 C 745.796 -1.50143 4.05069 0
M  V30 7841 C 744.931 -2.67145 4.59137 0
M  V30 7842 C 743.97 -2.19609 5.71348 0
M  V30 7843 N 743.107 -3.29782 6.19829 0
M  V30 7844 H 747.947 -0.187499 2.9741 0
M  V30 7845 H 745.484 -0.0808064 1.46878 0
M  V30 7846 H 747.442 -2.65551 3.21774 0
M  V30 7847 H 746.072 -2.45673 2.09391 0
M  V30 7848 H 745.124 -0.684624 3.74189 0
M  V30 7849 H 746.436 -1.11266 4.86232 0
M  V30 7850 H 745.59 -3.46544 4.97988 0
M  V30 7851 H 744.329 -3.09295 3.77078 0
M  V30 7852 H 743.334 -1.38664 5.32027 0
M  V30 7853 H 744.559 -1.78492 6.55223 0
M  V30 7854 H 742.505 -3.71466 5.40693 0
M  V30 7855 H 742.422 -2.95069 6.96039 0
M  V30 7856 H 743.69 -4.094 6.63334 0
M  V30 7857 N 747.919 -1.57396 -0.0801906 0
M  V30 7858 C 749.33 -1.75642 -0.633002 0
M  V30 7859 C 749.681 -0.817708 -1.78348 0
M  V30 7860 O 748.806 0.000233743 -2.164 0
M  V30 7861 C 749.401 -3.18502 -1.15507 0
M  V30 7862 C 747.96 -3.38121 -1.65381 0
M  V30 7863 C 747.107 -2.71386 -0.569661 0
M  V30 7864 H 750.058 -1.58027 0.145949 0
M  V30 7865 H 750.079 -3.22198 -2.02408 0
M  V30 7866 H 749.591 -3.86799 -0.317515 0
M  V30 7867 H 747.692 -2.74926 -2.51488 0
M  V30 7868 H 747.805 -4.46521 -1.73654 0
M  V30 7869 H 746.169 -2.33702 -1.0127 0
M  V30 7870 H 746.952 -3.42332 0.257561 0
M  V30 7871 N 749.397 0.351382 -1.53633 0
M  V30 7872 C 750.36 1.41403 -1.80383 0
M  V30 7873 C 751.36 1.45963 -0.674635 0
M  V30 7874 O 752.55 1.46476 -0.942895 0
M  V30 7875 C 749.682 2.80401 -1.93876 0
M  V30 7876 H 750.875 1.18951 -2.75301 0
M  V30 7877 H 748.428 0.58533 -1.44926 0
M  V30 7878 H 749.163 3.08147 -1.01074 0
M  V30 7879 H 748.948 2.78488 -2.7602 0
M  V30 7880 H 750.438 3.57329 -2.16116 0
M  V30 7881 N 750.875 1.45233 0.611969 0
M  V30 7882 C 752.103 1.52539 1.39784 0
M  V30 7883 C 752.518 0.156533 1.8815 0
M  V30 7884 O 751.875 -0.84112 1.61961 0
M  V30 7885 C 751.926 2.50614 2.60528 0
M  V30 7886 O 751.647 3.8218 2.14173 0
M  V30 7887 C 753.148 2.67574 3.53439 0
M  V30 7888 H 750.368 0.51674 0.428043 0
M  V30 7889 H 752.912 1.90379 0.746727 0
M  V30 7890 H 751.067 2.15858 3.2169 0
M  V30 7891 H 751.481 4.35305 2.92592 0
M  V30 7892 H 752.955 3.40184 4.34717 0
M  V30 7893 H 753.432 1.73458 4.03496 0
M  V30 7894 H 754.038 3.0331 2.98133 0
M  V30 7895 N 752.353 -0.854086 1.3245 0
M  V30 7896 C 753.3 -1.96271 1.21434 0
M  V30 7897 C 754.27 -1.6582 0.0963851 0
M  V30 7898 O 755.455 -1.88851 0.27203 0
M  V30 7899 C 752.595 -3.31939 0.943952 0
M  V30 7900 C 751.708 -3.74885 2.14675 0
M  V30 7901 C 750.843 -4.99347 1.81179 0
M  V30 7902 C 749.882 -5.34785 2.97777 0
M  V30 7903 N 749.019 -6.50425 2.6437 0
M  V30 7904 H 753.859 -2.05025 2.16261 0
M  V30 7905 H 751.396 -1.00348 1.07558 0
M  V30 7906 H 753.354 -4.10076 0.767675 0
M  V30 7907 H 751.984 -3.22784 0.0324763 0
M  V30 7908 H 751.036 -2.92396 2.43328 0
M  V30 7909 H 752.348 -3.97068 3.01891 0
M  V30 7910 H 751.502 -5.85193 1.60107 0
M  V30 7911 H 750.241 -4.79101 0.911777 0
M  V30 7912 H 749.246 -4.47451 3.1948 0
M  V30 7913 H 750.471 -5.56988 3.88511 0
M  V30 7914 H 748.417 -6.31695 1.7691 0
M  V30 7915 H 748.334 -6.7263 3.45116 0
M  V30 7916 H 749.602 -7.39422 2.46729 0
M  V30 7917 N 753.831 -1.1567 -1.07043 0
M  V30 7918 C 755.061 -0.956083 -1.83146 0
M  V30 7919 C 755.469 0.498969 -1.82502 0
M  V30 7920 O 754.812 1.35791 -1.23719 0
M  V30 7921 C 754.874 -1.39704 -3.31245 0
M  V30 7922 C 754.538 -2.87045 -3.55604 0
M  V30 7923 C 755.535 -3.85092 -3.49285 0
M  V30 7924 C 753.22 -3.24787 -3.8317 0
M  V30 7925 C 755.214 -5.18885 -3.70185 0
M  V30 7926 C 752.901 -4.58751 -4.03721 0
M  V30 7927 C 753.899 -5.55609 -3.97224 0
M  V30 7928 O 753.587 -6.87154 -4.17223 0
M  V30 7929 H 753.319 -0.339473 -0.58458 0
M  V30 7930 H 755.873 -1.53922 -1.36005 0
M  V30 7931 H 754.103 -0.757326 -3.79212 0
M  V30 7932 H 755.792 -1.16503 -3.88821 0
M  V30 7933 H 756.558 -3.5728 -3.27988 0
M  V30 7934 H 752.437 -2.49979 -3.87339 0
M  V30 7935 H 755.981 -5.94473 -3.6503 0
M  V30 7936 H 751.878 -4.86277 -4.24505 0
M  V30 7937 H 752.646 -6.93618 -4.34553 0
M  V30 7938 N 755.309 1.25446 -0.953992 0
M  V30 7939 C 756.555 1.9343 -0.60933 0
M  V30 7940 C 756.888 1.74542 0.851388 0
M  V30 7941 O 756.163 1.09014 1.61078 0
M  V30 7942 C 756.446 3.46844 -0.968041 0
M  V30 7943 C 756.299 3.74961 -2.48444 0
M  V30 7944 C 757.618 4.37334 -0.492641 0
M  V30 7945 H 754.737 0.702502 -0.222844 0
M  V30 7946 H 757.379 1.48076 -1.19053 0
M  V30 7947 H 755.529 3.85604 -0.473465 0
M  V30 7948 H 757.201 3.45841 -3.05273 0
M  V30 7949 H 755.444 3.20589 -2.92241 0
M  V30 7950 H 756.115 4.82246 -2.68594 0
M  V30 7951 H 758.591 4.05873 -0.916878 0
M  V30 7952 H 757.467 5.43439 -0.772331 0
M  V30 7953 H 757.728 4.37908 0.607403 0
M  V30 7954 N 756.787 0.722489 1.40064 0
M  V30 7955 C 758.034 0.264979 2.00759 0
M  V30 7956 C 758.362 -1.14395 1.57302 0
M  V30 7957 O 757.617 -1.79165 0.787298 0
M  V30 7958 C 757.916 0.300682 3.56133 0
M  V30 7959 C 757.582 1.66087 4.19197 0
M  V30 7960 C 756.244 2.03319 4.36136 0
M  V30 7961 C 758.596 2.55452 4.54306 0
M  V30 7962 C 755.924 3.29448 4.8547 0
M  V30 7963 C 758.276 3.8094 5.05042 0
M  V30 7964 C 756.94 4.1828 5.2019 0
M  V30 7965 H 756.21 0.0969625 0.734629 0
M  V30 7966 H 758.857 0.926877 1.67575 0
M  V30 7967 H 757.162 -0.44479 3.89267 0
M  V30 7968 H 758.859 -0.0712542 4.00937 0
M  V30 7969 H 755.449 1.36137 4.06405 0
M  V30 7970 H 759.633 2.27961 4.40849 0
M  V30 7971 H 754.889 3.58338 4.95382 0
M  V30 7972 H 759.063 4.50351 5.31184 0
M  V30 7973 H 756.69 5.16081 5.58179 0
M  V30 7974 N 758.265 -1.50454 0.469181 0
M  V30 7975 C 759.215 -2.25381 -0.344582 0
M  V30 7976 C 760.199 -1.28892 -0.963098 0
M  V30 7977 O 761.391 -1.53805 -0.875964 0
M  V30 7978 C 758.52 -3.12232 -1.4271 0
M  V30 7979 C 757.606 -4.16168 -0.816411 0
M  V30 7980 N 757.997 -5.05762 0.0621424 0
M  V30 7981 C 756.295 -4.32712 -1.08056 0
M  V30 7982 C 756.996 -5.80264 0.408519 0
M  V30 7983 N 755.972 -5.43171 -0.215827 0
M  V30 7984 H 759.774 -2.92016 0.332237 0
M  V30 7985 H 757.288 -1.59911 0.283209 0
M  V30 7986 H 759.285 -3.64514 -2.02324 0
M  V30 7987 H 757.945 -2.47145 -2.10593 0
M  V30 7988 H 758.956 -5.16105 0.430841 0
M  V30 7989 H 755.633 -3.78844 -1.75452 0
M  V30 7990 H 757.023 -6.62408 1.12539 0
M  V30 7991 N 759.743 -0.201713 -1.56304 0
M  V30 7992 C 760.992 0.435557 -1.96941 0
M  V30 7993 C 761.305 1.62299 -1.09172 0
M  V30 7994 O 762.511 2.32849 -1.3962 0
M  V30 7995 C 760.967 0.826298 -3.50286 0
M  V30 7996 C 760.575 -0.337216 -4.46729 0
M  V30 7997 C 762.319 1.43028 -3.99679 0
M  V30 7998 C 760.226 0.0748539 -5.91353 0
M  V30 7999 H 759.156 0.1665 -0.735387 0
M  V30 8000 H 761.807 -0.294781 -1.81117 0
M  V30 8001 H 760.189 1.61349 -3.61639 0
M  V30 8002 H 761.363 -1.11476 -4.47113 0
M  V30 8003 H 759.678 -0.853126 -4.07567 0
M  V30 8004 H 762.275 1.75115 -5.05212 0
M  V30 8005 H 762.618 2.33911 -3.44371 0
M  V30 8006 H 763.151 0.706924 -3.91468 0
M  V30 8007 H 759.89 -0.799957 -6.506 0
M  V30 8008 H 759.41 0.817122 -5.94208 0
M  V30 8009 H 761.089 0.508389 -6.45 0
M  V30 8010 N 761.222 1.57436 0.0718424 0
M  V30 8011 C 762.638 1.53792 0.426628 0
M  V30 8012 C 762.838 0.921887 1.79174 0
M  V30 8013 O 761.894 0.524374 2.46995 0
M  V30 8014 C 763.207 2.98443 0.367739 0
M  V30 8015 C 764.755 3.09778 0.447928 0
M  V30 8016 C 765.23 4.5608 0.418946 0
M  V30 8017 N 766.721 4.60716 0.479022 0
M  V30 8018 C 767.456 5.71397 0.47881 0
M  V30 8019 N 766.952 6.91443 0.433417 0
M  V30 8020 N 768.745 5.59639 0.525364 0
M  V30 8021 H 760.896 1.95848 -0.822033 0
M  V30 8022 H 763.159 0.896418 -0.308447 0
M  V30 8023 H 762.865 3.47072 -0.56865 0
M  V30 8024 H 762.739 3.58335 1.17795 0
M  V30 8025 H 765.126 2.61122 1.37474 0
M  V30 8026 H 765.207 2.52796 -0.390857 0
M  V30 8027 H 764.851 5.05393 -0.504016 0
M  V30 8028 H 764.781 5.10925 1.27526 0
M  V30 8029 H 767.272 3.74328 0.518355 0
M  V30 8030 H 767.585 7.71562 0.43718 0
M  V30 8031 H 765.93 6.93847 0.400106 0
M  V30 8032 H 769.121 4.64756 0.558519 0
M  V30 8033 H 769.294 6.45896 0.52173 0
M  V30 8034 N 762.7 -0.34323 1.53817 0
M  V30 8035 C 763.946 -1.08504 1.71332 0
M  V30 8036 C 764.279 -1.88294 0.475285 0
M  V30 8037 O 763.554 -1.87205 -0.527688 0
M  V30 8038 C 763.837 -2.02597 2.97702 0
M  V30 8039 C 763.69 -1.26268 4.31713 0
M  V30 8040 C 765.009 -3.0241 3.19744 0
M  V30 8041 H 762.128 -0.393072 0.623429 0
M  V30 8042 H 764.77 -0.363579 1.86489 0
M  V30 8043 H 762.92 -2.64118 2.8491 0
M  V30 8044 H 764.592 -0.673594 4.56356 0
M  V30 8045 H 762.835 -0.564696 4.30109 0
M  V30 8046 H 763.506 -1.95253 5.16314 0
M  V30 8047 H 765.982 -2.51004 3.31868 0
M  V30 8048 H 764.858 -3.65449 4.09558 0
M  V30 8049 H 765.119 -3.73806 2.36054 0
M  V30 8050 N 764.178 -1.45556 -0.604258 0
M  V30 8051 C 765.594 -1.30035 -0.925368 0
M  V30 8052 C 765.794 -0.255833 -1.99869 0
M  V30 8053 O 764.85 0.349076 -2.50075 0
M  V30 8054 C 766.163 -2.68028 -1.36314 0
M  V30 8055 C 767.711 -2.75951 -1.47717 0
M  V30 8056 C 768.186 -4.14476 -1.94868 0
M  V30 8057 N 769.677 -4.16787 -2.02097 0
M  V30 8058 C 770.412 -5.20845 -2.39809 0
M  V30 8059 N 769.908 -6.35246 -2.76467 0
M  V30 8060 N 771.701 -5.08204 -2.40177 0
M  V30 8061 H 763.852 -2.1214 0.10512 0
M  V30 8062 H 766.115 -0.947871 -0.0156303 0
M  V30 8063 H 765.821 -3.45667 -0.648628 0
M  V30 8064 H 765.695 -2.96711 -2.329 0
M  V30 8065 H 768.082 -1.98613 -2.18258 0
M  V30 8066 H 768.163 -2.50977 -0.494371 0
M  V30 8067 H 767.807 -4.923 -1.24912 0
M  V30 8068 H 767.737 -4.36843 -2.94068 0
M  V30 8069 H 770.228 -3.34233 -1.76343 0
M  V30 8070 H 770.541 -7.10438 -3.04134 0
M  V30 8071 H 768.886 -6.38642 -2.74155 0
M  V30 8072 H 772.077 -4.17874 -2.10947 0
M  V30 8073 H 772.25 -5.89417 -2.69242 0
M  V30 8074 N 765.656 0.84705 -1.32902 0
M  V30 8075 C 766.884 1.63403 -1.26913 0
M  V30 8076 C 767.299 1.88108 0.161483 0
M  V30 8077 O 766.656 1.45546 1.10103 0
M  V30 8078 C 766.707 2.98896 -2.03331 0
M  V30 8079 O 766.428 2.75281 -3.40811 0
M  V30 8080 C 767.929 3.93335 -2.04457 0
M  V30 8081 H 765.149 0.508701 -0.437566 0
M  V30 8082 H 767.693 1.05567 -1.75145 0
M  V30 8083 H 765.848 3.53356 -1.58802 0
M  V30 8084 H 766.262 3.61504 -3.8002 0
M  V30 8085 H 767.736 4.85647 -2.62394 0
M  V30 8086 H 768.213 4.26885 -1.03274 0
M  V30 8087 H 768.819 3.44812 -2.48967 0
M  V30 8088 N 767.134 1.16236 1.06428 0
M  V30 8089 C 768.097 0.870163 2.1204 0
M  V30 8090 C 769.097 -0.134239 1.60239 0
M  V30 8091 O 770.287 0.0964932 1.73933 0
M  V30 8092 C 767.419 0.301033 3.39568 0
M  V30 8093 H 768.612 1.8064 2.39394 0
M  V30 8094 H 766.165 0.971116 1.2247 0
M  V30 8095 H 766.9 -0.642948 3.17863 0
M  V30 8096 H 766.685 1.02475 3.78472 0
M  V30 8097 H 768.175 0.114494 4.17443 0
M  V30 8098 N 768.612 -1.24939 0.960631 0
M  V30 8099 C 769.84 -1.96881 0.636045 0
M  V30 8100 C 770.255 -1.71334 -0.793093 0
M  V30 8101 O 769.612 -0.992917 -1.53125 0
M  V30 8102 C 769.663 -3.50309 0.892533 0
M  V30 8103 O 769.384 -3.74977 2.26548 0
M  V30 8104 C 770.885 -4.39474 0.581159 0
M  V30 8105 H 768.105 -0.627399 0.237931 0
M  V30 8106 H 770.649 -1.58952 1.28664 0
M  V30 8107 H 768.804 -3.86326 0.288257 0
M  V30 8108 H 769.218 -4.69401 2.34014 0
M  V30 8109 H 770.692 -5.46008 0.811125 0
M  V30 8110 H 771.169 -4.3652 -0.48443 0
M  V30 8111 H 771.775 -4.09032 1.16502 0
M  V30 8112 N 770.09 -0.729906 -1.39679 0
M  V30 8113 C 771.338 -0.275077 -2.00219 0
M  V30 8114 C 771.659 1.1401 -1.58199 0
M  V30 8115 O 770.929 1.77546 -0.827904 0
M  V30 8116 H 769.509 -0.0987127 -0.740449 0
M  V30 8117 H 772.171 -0.93873 -1.70804 0
M  V30 8118 H 771.267 -0.319446 -3.10461 0
M  V30 8119 N 771.568 1.50203 -0.477153 0
M  V30 8120 C 772.798 2.0647 0.0731427 0
M  V30 8121 C 773.206 1.3405 1.33518 0
M  V30 8122 O 772.549 0.405164 1.79176 0
M  V30 8123 C 772.611 3.57025 0.421121 0
M  V30 8124 C 772.275 4.50973 -0.739765 0
M  V30 8125 C 773.272 4.939 -1.62353 0
M  V30 8126 C 770.957 4.93581 -0.93181 0
M  V30 8127 C 772.951 5.78149 -2.6837 0
M  V30 8128 C 770.638 5.77612 -1.99519 0
M  V30 8129 C 771.636 6.19798 -2.86949 0
M  V30 8130 O 771.324 7.02152 -3.91456 0
M  V30 8131 H 771.056 0.675969 -0.00648243 0
M  V30 8132 H 773.61 1.94278 -0.66673 0
M  V30 8133 H 771.84 3.67141 1.21426 0
M  V30 8134 H 773.529 3.95632 0.907213 0
M  V30 8135 H 774.295 4.61646 -1.48687 0
M  V30 8136 H 770.174 4.60262 -0.260739 0
M  V30 8137 H 773.718 6.10997 -3.36643 0
M  V30 8138 H 769.615 6.09279 -2.13189 0
M  V30 8139 H 770.383 7.20414 -3.88518 0
M  V30 8140 N 773.046 0.209999 1.56195 0
M  V30 8141 C 774.271 -0.433064 2.02828 0
M  V30 8142 C 774.696 -1.5337 1.08901 0
M  V30 8143 O 774.054 -1.81144 0.0751132 0
M  V30 8144 C 774.102 -0.952635 3.47789 0
M  V30 8145 O 773.206 -2.0647 3.56993 0
M  V30 8146 H 772.547 -0.0994594 0.656509 0
M  V30 8147 H 775.077 0.32525 2.01998 0
M  V30 8148 H 775.087 -1.26542 3.8788 0
M  V30 8149 H 773.762 -0.147007 4.1564 0
M  V30 8150 H 772.339 -1.75942 3.28784 0
M  V30 8151 N 774.524 -1.57472 -0.0634922 0
M  V30 8152 C 775.772 -1.87283 -0.759563 0
M  V30 8153 C 776.093 -0.803135 -1.77693 0
M  V30 8154 O 775.363 0.167293 -1.95184 0
M  V30 8155 H 773.943 -0.691106 -0.283516 0
M  V30 8156 H 776.605 -1.94864 -0.0376091 0
M  V30 8157 H 775.701 -2.85064 -1.27062 0
M  V30 8158 N 776.003 0.335068 -1.53997 0
M  V30 8159 C 777.233 1.0926 -1.75345 0
M  V30 8160 C 777.641 1.82568 -0.496545 0
M  V30 8161 O 776.984 1.75525 0.541897 0
M  V30 8162 C 777.046 2.14473 -2.88516 0
M  V30 8163 C 776.71 1.60665 -4.27827 0
M  V30 8164 C 777.707 1.05448 -5.09094 0
M  V30 8165 C 775.392 1.65255 -4.74337 0
M  V30 8166 C 777.386 0.555372 -6.34976 0
M  V30 8167 C 775.073 1.14956 -6.0019 0
M  V30 8168 C 776.071 0.601907 -6.80343 0
M  V30 8169 O 775.759 0.106445 -8.0383 0
M  V30 8170 H 775.491 0.331329 -0.589234 0
M  V30 8171 H 778.045 0.39042 -2.01655 0
M  V30 8172 H 776.275 2.88274 -2.5775 0
M  V30 8173 H 777.964 2.75857 -2.97755 0
M  V30 8174 H 778.73 1.01218 -4.74321 0
M  V30 8175 H 774.609 2.06822 -4.12002 0
M  V30 8176 H 778.153 0.127245 -6.97484 0
M  V30 8177 H 774.05 1.18891 -6.34457 0
M  V30 8178 H 774.818 0.222944 -8.18196 0
M  V30 8179 N 777.481 1.45874 0.596531 0
M  V30 8180 C 778.706 1.54247 1.38646 0
M  V30 8181 C 779.131 0.179571 1.87241 0
M  V30 8182 O 778.489 -0.837831 1.6078 0
M  V30 8183 C 778.537 2.54015 2.55946 0
M  V30 8184 O 777.641 2.06561 3.5694 0
M  V30 8185 H 776.982 0.519555 0.413471 0
M  V30 8186 H 779.512 1.91327 0.724936 0
M  V30 8187 H 779.522 2.73179 3.03047 0
M  V30 8188 H 778.197 3.52994 2.19928 0
M  V30 8189 H 776.774 1.97324 3.16414 0
M  V30 8190 N 778.959 -0.83999 1.33349 0
M  V30 8191 C 779.891 -1.95678 1.19344 0
M  V30 8192 C 780.904 -1.62322 0.124692 0
M  V30 8193 O 782.093 -1.74516 0.375012 0
M  V30 8194 C 779.193 -3.29133 0.807771 0
M  V30 8195 C 778.366 -3.9063 1.96792 0
M  V30 8196 C 777.425 -5.02438 1.56341 0
M  V30 8197 O 776.451 -5.21646 2.27759 0
M  V30 8198 N 777.653 -5.78612 0.467767 0
M  V30 8199 H 780.418 -2.08229 2.15548 0
M  V30 8200 H 777.979 -1.01566 1.26079 0
M  V30 8201 H 779.971 -4.01355 0.519282 0
M  V30 8202 H 778.541 -3.12535 -0.063555 0
M  V30 8203 H 777.761 -3.11011 2.4221 0
M  V30 8204 H 779.049 -4.2845 2.74422 0
M  V30 8205 H 778.447 -5.65559 -0.126324 0
M  V30 8206 H 777.004 -6.51362 0.238945 0
M  V30 8207 N 780.437 -1.16799 -1.0581 0
M  V30 8208 C 781.384 -0.87902 -2.13405 0
M  V30 8209 C 782.354 0.174541 -1.6518 0
M  V30 8210 O 783.539 0.0386843 -1.90761 0
M  V30 8211 C 780.679 -0.391616 -3.42871 0
M  V30 8212 C 779.792 -1.50857 -4.04804 0
M  V30 8213 C 778.927 -0.975682 -5.22163 0
M  V30 8214 C 777.966 -2.06851 -5.76089 0
M  V30 8215 N 777.103 -1.55085 -6.84758 0
M  V30 8216 H 781.943 -1.80043 -2.37463 0
M  V30 8217 H 779.48 -0.898083 -1.16503 0
M  V30 8218 H 781.438 -0.0906247 -4.17102 0
M  V30 8219 H 780.068 0.49284 -3.19016 0
M  V30 8220 H 779.12 -1.92542 -3.28073 0
M  V30 8221 H 780.432 -2.33305 -4.40874 0
M  V30 8222 H 779.586 -0.628165 -6.03439 0
M  V30 8223 H 778.325 -0.120566 -4.87551 0
M  V30 8224 H 777.33 -2.42467 -4.93447 0
M  V30 8225 H 778.555 -2.92768 -6.12751 0
M  V30 8226 H 776.501 -0.718345 -6.52055 0
M  V30 8227 H 776.418 -2.31145 -7.19797 0
M  V30 8228 H 777.686 -1.23206 -7.69702 0
M  V30 8229 N 781.915 1.24427 -0.967243 0
M  V30 8230 C 783.162 1.92487 -0.62888 0
M  V30 8231 C 783.49 1.75623 0.835871 0
M  V30 8232 O 782.745 1.1027 1.61675 0
M  V30 8233 C 783.044 3.44568 -0.949096 0
M  V30 8234 C 782.71 3.816 -2.40192 0
M  V30 8235 C 781.372 3.9142 -2.799 0
M  V30 8236 C 783.724 3.99715 -3.34481 0
M  V30 8237 C 781.052 4.16771 -4.12939 0
M  V30 8238 C 783.404 4.26562 -4.67148 0
M  V30 8239 C 782.068 4.34601 -5.06634 0
M  V30 8240 H 781.338 0.704361 -0.230124 0
M  V30 8241 H 783.985 1.4772 -1.21864 0
M  V30 8242 H 782.29 3.90819 -0.277085 0
M  V30 8243 H 783.987 3.95436 -0.665692 0
M  V30 8244 H 780.577 3.74522 -2.08402 0
M  V30 8245 H 784.761 3.91531 -3.04987 0
M  V30 8246 H 780.017 4.21214 -4.43158 0
M  V30 8247 H 784.191 4.39523 -5.40178 0
M  V30 8248 H 781.818 4.53998 -6.09746 0
M  V30 8249 N 783.393 0.737304 1.3929 0
M  V30 8250 C 784.303 0.100464 2.34385 0
M  V30 8251 C 785.319 -0.719282 1.58437 0
M  V30 8252 O 786.495 -0.647216 1.90717 0
M  V30 8253 C 783.56 -0.794325 3.37478 0
M  V30 8254 C 782.621 0.0379345 4.29283 0
M  V30 8255 C 781.854 -0.814241 5.27452 0
M  V30 8256 O 782.077 -2.05288 5.32177 0
M  V30 8257 O 781.011 -0.241679 6.01415 0
M  V30 8258 H 784.837 0.885407 2.90507 0
M  V30 8259 H 782.422 0.497999 1.40856 0
M  V30 8260 H 784.304 -1.30622 4.00644 0
M  V30 8261 H 782.979 -1.55804 2.83737 0
M  V30 8262 H 781.886 0.595405 3.69331 0
M  V30 8263 H 783.219 0.763926 4.86236 0
M  V30 8264 N 784.871 -1.49948 0.485112 0
M  V30 8265 C 786.118 -2.02396 -0.0650059 0
M  V30 8266 C 786.446 -1.36606 -1.38452 0
M  V30 8267 O 785.701 -0.485476 -1.89583 0
M  V30 8268 C 786 -3.56282 -0.282434 0
M  V30 8269 C 785.666 -4.40625 0.957106 0
M  V30 8270 C 784.328 -4.63393 1.29692 0
M  V30 8271 C 786.68 -4.89799 1.78176 0
M  V30 8272 C 784.008 -5.3258 2.4612 0
M  V30 8273 C 786.36 -5.60266 2.93743 0
M  V30 8274 C 785.024 -5.81284 3.28124 0
M  V30 8275 H 784.294 -0.740618 -0.0237873 0
M  V30 8276 H 786.941 -1.80416 0.642044 0
M  V30 8277 H 785.246 -3.76853 -1.07186 0
M  V30 8278 H 786.943 -3.94442 -0.722276 0
M  V30 8279 H 783.533 -4.23133 0.682384 0
M  V30 8280 H 787.717 -4.7205 1.53239 0
M  V30 8281 H 782.973 -5.47059 2.73014 0
M  V30 8282 H 787.147 -5.97347 3.5798 0
M  V30 8283 H 784.774 -6.34671 4.18446 0
M  V30 8284 N 786.349 -0.21828 -1.56081 0
M  V30 8285 C 787.259 0.704602 -2.23769 0
M  V30 8286 C 788.275 1.21633 -1.24425 0
M  V30 8287 O 789.451 1.25862 -1.57228 0
M  V30 8288 C 786.516 1.89725 -2.90182 0
M  V30 8289 C 785.577 1.42782 -4.0486 0
M  V30 8290 C 784.81 2.56361 -4.68097 0
M  V30 8291 O 785.033 3.74417 -4.30312 0
M  V30 8292 O 783.967 2.2775 -5.57148 0
M  V30 8293 H 787.793 0.158007 -3.03289 0
M  V30 8294 H 785.378 0.0120279 -1.49395 0
M  V30 8295 H 787.26 2.59382 -3.32113 0
M  V30 8296 H 785.935 2.432 -2.13624 0
M  V30 8297 H 784.842 0.699359 -3.67505 0
M  V30 8298 H 786.175 0.939474 -4.83151 0
M  V30 8299 N 787.827 1.57504 0.0551401 0
M  V30 8300 C 789.055 1.92294 0.76358 0
M  V30 8301 C 789.47 0.815774 1.70266 0
M  V30 8302 O 788.827 -0.209772 1.8129 0
M  V30 8303 C 788.878 3.26914 1.54302 0
M  V30 8304 O 788.599 4.33375 0.641666 0
M  V30 8305 C 790.1 3.75825 2.35097 0
M  V30 8306 H 787.32 0.635229 0.216159 0
M  V30 8307 H 789.864 2.0449 0.0204385 0
M  V30 8308 H 788.019 3.16196 2.23828 0
M  V30 8309 H 788.433 5.10927 1.1855 0
M  V30 8310 H 789.907 4.72603 2.8522 0
M  V30 8311 H 790.384 3.0568 3.15367 0
M  V30 8312 H 790.99 3.89542 1.70696 0
M  V30 8313 N 789.305 -0.326896 1.54172 0
M  V30 8314 C 790.553 -1.06313 1.71878 0
M  V30 8315 C 790.874 -1.88652 0.493498 0
M  V30 8316 O 790.144 -1.89608 -0.492522 0
M  V30 8317 H 788.724 -0.39549 0.633716 0
M  V30 8318 H 791.386 -0.364139 1.91468 0
M  V30 8319 H 790.482 -1.73105 2.59694 0
M  V30 8320 N 790.784 -1.46188 -0.588786 0
M  V30 8321 C 792.061 -1.41659 -1.34878 0
M  V30 8322 C 792.441 -0.0968913 -2.10878 0
M  V30 8323 O 791.789 0.921468 -2.09096 0
M  V30 8324 C 791.999 -2.6424 -2.27988 0
M  V30 8325 C 793.347 -3.1013 -2.90008 0
M  V30 8326 O 794.371 -2.64745 -2.38303 0
M  V30 8327 O 793.23 -3.88944 -3.83908 0
M  V30 8328 H 790.324 -0.563058 -0.605718 0
M  V30 8329 H 792.87 -1.58346 -0.610309 0
M  V30 8330 H 791.642 -3.51853 -1.71217 0
M  V30 8331 H 791.265 -2.49982 -3.09184 0
M  V30 8332 N 792.262 0.832906 -1.33792 0
M  V30 8333 C 793.172 1.97514 -1.26592 0
M  V30 8334 C 794.188 1.73114 -0.175391 0
M  V30 8335 O 795.364 1.97387 -0.400062 0
M  V30 8336 C 792.429 3.31625 -1.01121 0
M  V30 8337 C 791.49 3.69101 -2.19233 0
M  V30 8338 C 790.723 4.96813 -1.94968 0
M  V30 8339 O 790.946 5.63208 -0.902955 0
M  V30 8340 O 789.88 5.31932 -2.8166 0
M  V30 8341 H 793.706 2.0653 -2.22664 0
M  V30 8342 H 791.291 0.966826 -1.13898 0
M  V30 8343 H 793.173 4.11968 -0.886571 0
M  V30 8344 H 791.848 3.23599 -0.080822 0
M  V30 8345 H 790.755 2.89243 -2.37253 0
M  V30 8346 H 792.088 3.818 -3.10628 0
M  V30 8347 N 793.74 1.17359 1.05189 0
M  V30 8348 C 794.968 0.986529 1.81866 0
M  V30 8349 C 795.383 -0.46522 1.82979 0
M  V30 8350 O 794.74 -1.32305 1.25705 0
M  V30 8351 C 794.791 1.52021 3.27982 0
M  V30 8352 O 794.512 2.91511 3.27037 0
M  V30 8353 C 796.013 1.37774 4.21347 0
M  V30 8354 H 793.233 0.349021 0.573084 0
M  V30 8355 H 795.777 1.55648 1.32643 0
M  V30 8356 H 793.932 0.992287 3.74476 0
M  V30 8357 H 794.346 3.16178 4.18488 0
M  V30 8358 H 795.82 1.7993 5.21852 0
M  V30 8359 H 796.297 0.32483 4.37997 0
M  V30 8360 H 796.903 1.89583 3.80708 0
M  V30 8361 N 795.218 -1.23913 0.973828 0
M  V30 8362 C 796.443 -1.96735 0.656511 0
M  V30 8363 C 796.868 -1.71682 -0.768571 0
M  V30 8364 O 796.226 -0.984267 -1.52256 0
M  V30 8365 C 796.274 -3.48004 0.944735 0
M  V30 8366 O 795.378 -4.12387 0.0333357 0
M  V30 8367 H 794.719 -0.616119 0.247575 0
M  V30 8368 H 797.249 -1.57525 1.30564 0
M  V30 8369 H 797.259 -3.98424 0.87876 0
M  V30 8370 H 795.934 -3.65567 1.98328 0
M  V30 8371 H 794.511 -3.72585 0.153157 0
M  V30 8372 N 796.696 -0.74468 -1.38897 0
M  V30 8373 C 797.973 -0.222773 -1.94327 0
M  V30 8374 C 798.353 1.27731 -1.68071 0
M  V30 8375 O 797.701 2.04754 -1.01429 0
M  V30 8376 C 797.911 -0.566836 -3.44366 0
M  V30 8377 C 799.259 -0.521531 -4.21385 0
M  V30 8378 O 800.283 -0.504599 -3.52608 0
M  V30 8379 O 799.142 -0.524595 -5.43976 0
M  V30 8380 H 796.236 -0.0439259 -0.825833 0
M  V30 8381 H 798.782 -0.824197 -1.48341 0
M  V30 8382 H 797.554 -1.60321 -3.56949 0
M  V30 8383 H 797.177 0.0630577 -3.9755 0
M  V30 8384 N 798.174 1.49689 -0.493057 0
M  V30 8385 C 799.107 2.25712 0.336062 0
M  V30 8386 C 800.085 1.29953 0.977294 0
M  V30 8387 O 801.269 1.59225 1.00895 0
M  V30 8388 C 798.396 3.0501 1.47263 0
M  V30 8389 C 797.442 4.15863 0.946575 0
M  V30 8390 S 798.275 5.35272 -0.156323 0
M  V30 8391 C 799.431 6.18123 0.983601 0
M  V30 8392 H 799.664 2.95688 -0.309215 0
M  V30 8393 H 797.197 1.51872 -0.278238 0
M  V30 8394 H 799.155 3.51284 2.12391 0
M  V30 8395 H 797.816 2.34519 2.08949 0
M  V30 8396 H 797.009 4.70834 1.7981 0
M  V30 8397 H 796.611 3.72139 0.372647 0
M  V30 8398 H 798.903 6.50588 1.89056 0
M  V30 8399 H 799.846 7.06521 0.472687 0
M  V30 8400 H 800.254 5.50547 1.24735 0
M  V30 8401 N 799.652 0.226554 1.55963 0
M  V30 8402 C 800.615 -0.668015 2.19249 0
M  V30 8403 C 801.615 -1.11794 1.1558 0
M  V30 8404 O 802.805 -1.02593 1.40784 0
M  V30 8405 C 799.937 -1.91571 2.81981 0
M  V30 8406 H 801.13 -0.116175 2.99675 0
M  V30 8407 H 798.683 -0.0230497 1.56283 0
M  V30 8408 H 799.418 -2.50929 2.05439 0
M  V30 8409 H 799.203 -1.6015 3.57903 0
M  V30 8410 H 800.693 -2.55294 3.30477 0
M  V30 8411 N 801.13 -1.57531 -0.0467866 0
M  V30 8412 C 802.093 -2.04379 -1.03738 0
M  V30 8413 C 803.093 -0.944881 -1.3011 0
M  V30 8414 O 804.283 -1.20904 -1.25411 0
M  V30 8415 C 801.415 -2.44572 -2.37482 0
M  V30 8416 H 802.608 -2.93142 -0.633063 0
M  V30 8417 H 800.161 -1.53526 -0.293177 0
M  V30 8418 H 800.896 -1.58911 -2.82697 0
M  V30 8419 H 800.681 -3.24785 -2.19675 0
M  V30 8420 H 802.171 -2.81307 -3.08636 0
M  V30 8421 N 802.608 0.318715 -1.54344 0
M  V30 8422 C 803.518 1.41535 -1.87097 0
M  V30 8423 C 804.534 1.56361 -0.763353 0
M  V30 8424 O 805.71 1.71365 -1.05811 0
M  V30 8425 C 802.775 2.76178 -2.09587 0
M  V30 8426 C 801.836 2.70486 -3.3337 0
M  V30 8427 C 801.069 3.98708 -3.54778 0
M  V30 8428 O 801.292 4.9721 -2.79532 0
M  V30 8429 O 800.226 4.01674 -4.48266 0
M  V30 8430 H 804.052 1.16764 -2.80357 0
M  V30 8431 H 801.637 0.51318 -1.4031 0
M  V30 8432 H 803.519 3.55873 -2.25682 0
M  V30 8433 H 802.194 3.00829 -1.19514 0
M  V30 8434 H 801.101 1.89325 -3.22656 0
M  V30 8435 H 802.434 2.50789 -4.23516 0
M  V30 8436 N 804.086 1.46499 0.581025 0
M  V30 8437 C 805.018 1.53225 1.70455 0
M  V30 8438 C 806.031 0.420443 1.57277 0
M  V30 8439 O 807.22 0.688888 1.64671 0
M  V30 8440 C 804.32 1.39803 3.08721 0
M  V30 8441 C 803.493 2.65132 3.47884 0
M  V30 8442 C 802.552 2.45886 4.65217 0
M  V30 8443 O 801.578 3.19615 4.70993 0
M  V30 8444 N 802.78 1.5216 5.60203 0
M  V30 8445 H 805.545 2.50098 1.65139 0
M  V30 8446 H 803.106 1.42576 0.76705 0
M  V30 8447 H 805.098 1.24697 3.8501 0
M  V30 8448 H 803.668 0.51104 3.08394 0
M  V30 8449 H 802.888 2.95169 2.61284 0
M  V30 8450 H 804.176 3.48385 3.70817 0
M  V30 8451 H 803.574 0.913646 5.58273 0
M  V30 8452 H 802.131 1.43017 6.35916 0
M  V30 8453 N 805.565 -0.825799 1.34232 0
M  V30 8454 C 806.813 -1.57873 1.26177 0
M  V30 8455 C 807.134 -1.94267 -0.168904 0
M  V30 8456 O 806.404 -1.62045 -1.10084 0
M  V30 8457 H 804.984 -0.585388 0.464037 0
M  V30 8458 H 807.646 -0.986163 1.6811 0
M  V30 8459 H 806.742 -2.50283 1.86453 0
M  V30 8460 N 807.043 -1.17915 -1.04565 0
M  V30 8461 C 807.975 -0.859359 -2.1248 0
M  V30 8462 C 808.988 0.140922 -1.62189 0
M  V30 8463 O 810.177 -0.0862361 -1.78292 0
M  V30 8464 C 807.277 -0.261811 -3.37887 0
M  V30 8465 C 806.45 -1.30651 -4.17431 0
M  V30 8466 C 805.509 -0.725575 -5.21174 0
M  V30 8467 O 804.535 -1.39901 -5.51739 0
M  V30 8468 N 805.737 0.479351 -5.78517 0
M  V30 8469 H 808.502 -1.78818 -2.40508 0
M  V30 8470 H 806.063 -1.07885 -1.20716 0
M  V30 8471 H 808.055 0.14028 -4.04457 0
M  V30 8472 H 806.625 0.570929 -3.07342 0
M  V30 8473 H 805.845 -1.88412 -3.46258 0
M  V30 8474 H 807.133 -2.01099 -4.67372 0
M  V30 8475 H 806.531 1.04431 -5.55977 0
M  V30 8476 H 805.088 0.823427 -6.46578 0
M  V30 8477 N 808.521 1.23394 -0.980386 0
M  V30 8478 C 809.77 1.91116 -0.644785 0
M  V30 8479 C 810.083 1.77333 0.825367 0
M  V30 8480 O 811.289 2.39858 1.27203 0
M  V30 8481 C 809.745 3.42592 -1.10266 0
M  V30 8482 C 809.353 3.65037 -2.59715 0
M  V30 8483 C 811.097 4.1609 -0.8408 0
M  V30 8484 C 809.004 5.10148 -2.9917 0
M  V30 8485 H 807.934 0.715632 -0.23746 0
M  V30 8486 H 810.585 1.39829 -1.18828 0
M  V30 8487 H 808.967 3.92989 -0.487372 0
M  V30 8488 H 810.141 3.25186 -3.26482 0
M  V30 8489 H 808.456 3.04849 -2.83647 0
M  V30 8490 H 811.053 5.23021 -1.11143 0
M  V30 8491 H 811.396 4.15702 0.223085 0
M  V30 8492 H 811.929 3.71681 -1.41767 0
M  V30 8493 H 808.668 5.15668 -4.04682 0
M  V30 8494 H 808.188 5.50949 -2.37097 0
M  V30 8495 H 809.867 5.7848 -2.89775 0
M  V30 8496 N 809.999 0.752036 1.385 0
M  V30 8497 C 810.929 0.138718 2.33088 0
M  V30 8498 C 811.91 -0.705318 1.54788 0
M  V30 8499 O 813.095 -0.646821 1.83112 0
M  V30 8500 C 810.225 -0.75641 3.38963 0
M  V30 8501 C 809.179 -0.0152239 4.27997 0
M  V30 8502 C 808.505 -1.0285 5.24715 0
M  V30 8503 C 809.805 1.15226 5.09431 0
M  V30 8504 H 811.499 0.928852 2.84627 0
M  V30 8505 H 809.045 0.448111 1.3685 0
M  V30 8506 H 810.998 -1.19513 4.04097 0
M  V30 8507 H 809.722 -1.57885 2.85902 0
M  V30 8508 H 808.381 0.404061 3.64366 0
M  V30 8509 H 808.029 -1.84496 4.67943 0
M  V30 8510 H 807.729 -0.537238 5.85139 0
M  V30 8511 H 809.253 -1.46657 5.92726 0
M  V30 8512 H 810.667 0.791161 5.67815 0
M  V30 8513 H 809.064 1.57428 5.79082 0
M  V30 8514 H 810.134 1.9659 4.43261 0
M  V30 8515 N 811.477 -1.49425 0.500989 0
M  V30 8516 C 812.723 -2.02753 -0.0436 0
M  V30 8517 C 813.056 -1.37991 -1.36646 0
M  V30 8518 O 812.331 -0.515597 -1.87542 0
M  V30 8519 C 812.614 -3.59565 -0.19616 0
M  V30 8520 C 812.467 -4.34855 1.14982 0
M  V30 8521 C 813.786 -4.30014 -0.936795 0
M  V30 8522 H 810.905 -0.73686 -0.0143711 0
M  V30 8523 H 813.547 -1.78448 0.652397 0
M  V30 8524 H 811.697 -3.80405 -0.788959 0
M  V30 8525 H 813.369 -4.25512 1.7815 0
M  V30 8526 H 811.612 -3.97414 1.73911 0
M  V30 8527 H 812.283 -5.42933 0.996385 0
M  V30 8528 H 814.759 -4.1383 -0.434036 0
M  V30 8529 H 813.635 -5.39483 -1.01238 0
M  V30 8530 H 813.896 -3.95257 -1.9805 0
M  V30 8531 N 812.955 -0.234822 -1.55841 0
M  V30 8532 C 814.204 0.393685 -1.97821 0
M  V30 8533 C 814.517 1.59947 -1.1259 0
M  V30 8534 O 815.723 2.29835 -1.44528 0
M  V30 8535 C 814.179 0.751811 -3.5196 0
M  V30 8536 C 813.787 -0.431898 -4.45913 0
M  V30 8537 C 815.531 1.34518 -4.02623 0
M  V30 8538 C 813.438 -0.0505976 -5.91378 0
M  V30 8539 H 812.368 0.150864 -0.738753 0
M  V30 8540 H 815.019 -0.333132 -1.80451 0
M  V30 8541 H 813.401 1.53642 -3.6498 0
M  V30 8542 H 814.575 -1.20935 -4.44647 0
M  V30 8543 H 812.89 -0.939385 -4.05666 0
M  V30 8544 H 815.487 1.64359 -5.08813 0
M  V30 8545 H 815.83 2.26554 -3.49255 0
M  V30 8546 H 816.363 0.623729 -3.9288 0
M  V30 8547 H 813.102 -0.937779 -6.48757 0
M  V30 8548 H 812.622 0.690898 -5.95808 0
M  V30 8549 H 814.301 0.37146 -6.45933 0
M  V30 8550 N 814.433 1.57553 0.0384317 0
M  V30 8551 C 815.396 2.04927 1.02653 0
M  V30 8552 C 816.396 0.951768 1.29607 0
M  V30 8553 O 817.586 1.21568 1.24768 0
M  V30 8554 C 814.718 2.45828 2.36181 0
M  V30 8555 H 815.911 2.93474 0.617508 0
M  V30 8556 H 813.464 1.53679 0.285031 0
M  V30 8557 H 814.199 1.60408 2.8185 0
M  V30 8558 H 813.984 3.25945 2.1795 0
M  V30 8559 H 815.474 2.82939 3.0714 0
M  V30 8560 N 815.911 -0.310526 1.54511 0
M  V30 8561 C 817.139 -1.06611 1.77318 0
M  V30 8562 C 817.554 -1.81265 0.528043 0
M  V30 8563 O 816.911 -1.75466 -0.50178 0
M  V30 8564 C 816.962 -2.05409 2.97472 0
M  V30 8565 O 816.683 -1.33785 4.17173 0
M  V30 8566 C 818.184 -2.93082 3.32593 0
M  V30 8567 H 815.404 -0.316578 0.591624 0
M  V30 8568 H 817.948 -0.352691 2.01436 0
M  V30 8569 H 816.103 -2.72266 2.7559 0
M  V30 8570 H 816.517 -2.00055 4.84849 0
M  V30 8571 H 817.991 -3.58274 4.19933 0
M  V30 8572 H 818.468 -3.60877 2.50329 0
M  V30 8573 H 819.074 -2.31768 3.566 0
M  V30 8574 N 817.389 -1.46805 -0.573248 0
M  V30 8575 C 818.352 -1.57655 -1.66366 0
M  V30 8576 C 819.352 -0.452905 -1.5429 0
M  V30 8577 O 820.542 -0.717502 -1.58737 0
M  V30 8578 C 817.674 -1.50584 -3.05839 0
M  V30 8579 H 818.867 -2.54842 -1.581 0
M  V30 8580 H 816.42 -1.34756 -0.791868 0
M  V30 8581 H 817.155 -0.547127 -3.19651 0
M  V30 8582 H 816.94 -2.32118 -3.16012 0
M  V30 8583 H 818.43 -1.61282 -3.85199 0
M  V30 8584 N 818.867 0.818669 -1.34668 0
M  V30 8585 C 819.83 1.9114 -1.26483 0
M  V30 8586 C 820.83 1.598 -0.179044 0
M  V30 8587 O 822.02 1.6876 -0.431952 0
M  V30 8588 C 819.152 3.27285 -0.95381 0
M  V30 8589 H 820.345 1.9982 -2.23634 0
M  V30 8590 H 817.898 1.01314 -1.19018 0
M  V30 8591 H 818.633 3.24297 0.0143428 0
M  V30 8592 H 818.418 3.51416 -1.73924 0
M  V30 8593 H 819.908 4.07299 -0.921827 0
M  V30 8594 N 820.346 1.18468 1.03938 0
M  V30 8595 C 821.592 0.982286 1.77423 0
M  V30 8596 C 821.925 -0.48679 1.88 0
M  V30 8597 O 821.2 -1.36146 1.38905 0
M  V30 8598 C 821.483 1.63929 3.20623 0
M  V30 8599 C 821.336 3.18132 3.17982 0
M  V30 8600 C 822.655 1.3536 4.18767 0
M  V30 8601 H 819.774 0.358264 0.644062 0
M  V30 8602 H 822.416 1.46154 1.21405 0
M  V30 8603 H 820.566 1.2318 3.68455 0
M  V30 8604 H 822.238 3.68024 2.78129 0
M  V30 8605 H 820.481 3.50225 2.55978 0
M  V30 8606 H 821.152 3.5924 4.19107 0
M  V30 8607 H 823.628 1.70669 3.79488 0
M  V30 8608 H 822.504 1.83896 5.17178 0
M  V30 8609 H 822.765 0.276722 4.41233 0
M  V30 8610 N 821.824 -1.22873 0.986916 0
M  V30 8611 C 823.072 -1.91084 0.658121 0
M  V30 8612 C 823.393 -1.77304 -0.811675 0
M  V30 8613 O 822.663 -1.15649 -1.58121 0
M  V30 8614 H 821.243 -0.707251 0.240427 0
M  V30 8615 H 823.905 -1.49357 1.25213 0
M  V30 8616 H 823.001 -2.98373 0.915428 0
M  V30 8617 N 823.302 -0.75937 -1.38099 0
M  V30 8618 C 824.55 -0.317485 -1.99591 0
M  V30 8619 C 824.871 1.10628 -1.60581 0
M  V30 8620 O 824.141 1.7575 -0.865378 0
M  V30 8621 H 822.721 -0.114397 -0.738189 0
M  V30 8622 H 825.383 -0.974749 -1.68774 0
M  V30 8623 H 824.479 -0.385227 -3.09713 0
M  V30 8624 N 824.78 1.49157 -0.508906 0
M  V30 8625 C 826.027 2.02473 0.0327983 0
M  V30 8626 C 826.355 1.38792 1.36261 0
M  V30 8627 O 825.61 0.515576 1.88786 0
M  V30 8628 C 825.909 3.56687 0.225717 0
M  V30 8629 C 825.575 4.39046 -1.02708 0
M  V30 8630 C 824.237 4.61271 -1.37048 0
M  V30 8631 C 826.589 4.86902 -1.85946 0
M  V30 8632 C 823.917 5.28598 -2.54562 0
M  V30 8633 C 826.269 5.55521 -3.0262 0
M  V30 8634 C 824.933 5.7599 -3.3733 0
M  V30 8635 H 824.203 0.740903 0.0120017 0
M  V30 8636 H 826.85 1.79372 -0.670665 0
M  V30 8637 H 825.155 3.78511 1.01177 0
M  V30 8638 H 826.852 3.95541 0.659433 0
M  V30 8639 H 823.442 4.21994 -0.749615 0
M  V30 8640 H 827.626 4.69553 -1.6073 0
M  V30 8641 H 822.882 5.42646 -2.81682 0
M  V30 8642 H 827.056 5.91576 -3.67438 0
M  V30 8643 H 824.683 6.27934 -4.2849 0
M  V30 8644 N 826.258 0.243083 1.55714 0
M  V30 8645 C 827.486 -0.386971 2.03249 0
M  V30 8646 C 827.901 -1.51812 1.12243 0
M  V30 8647 O 827.258 -1.81992 0.136119 0
M  V30 8648 C 827.309 -0.898361 3.5016 0
M  V30 8649 O 827.03 0.187708 4.37698 0
M  V30 8650 C 828.531 -1.59949 4.13438 0
M  V30 8651 H 825.751 -0.0923981 0.664608 0
M  V30 8652 H 828.295 0.365832 2.01201 0
M  V30 8653 H 826.45 -1.60136 3.52754 0
M  V30 8654 H 826.864 -0.200001 5.24119 0
M  V30 8655 H 828.338 -1.90907 5.17937 0
M  V30 8656 H 828.815 -2.52014 3.59702 0
M  V30 8657 H 829.421 -0.941163 4.14756 0
M  V30 8658 N 827.736 -1.57571 -0.0300757 0
M  V30 8659 C 828.666 -2.0953 -1.03051 0
M  V30 8660 C 829.647 -0.99761 -1.37774 0
M  V30 8661 O 830.832 -1.27279 -1.46676 0
M  V30 8662 C 827.962 -2.57385 -2.33174 0
M  V30 8663 C 826.916 -3.71409 -2.12696 0
M  V30 8664 C 826.242 -4.05467 -3.4857 0
M  V30 8665 C 827.542 -4.99877 -1.51396 0
M  V30 8666 H 829.236 -2.93367 -0.597999 0
M  V30 8667 H 826.782 -1.41127 -0.286203 0
M  V30 8668 H 828.735 -2.92355 -3.03491 0
M  V30 8669 H 827.459 -1.70629 -2.78484 0
M  V30 8670 H 826.118 -3.36786 -1.44813 0
M  V30 8671 H 825.766 -3.15779 -3.91526 0
M  V30 8672 H 825.466 -4.82269 -3.35694 0
M  V30 8673 H 826.99 -4.4297 -4.2025 0
M  V30 8674 H 828.404 -5.3281 -2.11629 0
M  V30 8675 H 826.801 -5.81283 -1.49098 0
M  V30 8676 H 827.871 -4.82522 -0.479676 0
M  V30 8677 N 829.214 0.302327 -1.54673 0
M  V30 8678 C 830.144 1.37759 -1.88533 0
M  V30 8679 C 831.125 1.52961 -0.744113 0
M  V30 8680 O 832.31 1.6649 -0.999731 0
M  V30 8681 C 829.44 2.74201 -2.13146 0
M  V30 8682 C 828.394 2.73765 -3.28993 0
M  V30 8683 C 827.72 4.13483 -3.39022 0
M  V30 8684 C 829.02 2.35624 -4.66132 0
M  V30 8685 H 830.714 1.0967 -2.78591 0
M  V30 8686 H 828.26 0.52613 -1.34044 0
M  V30 8687 H 830.213 3.49508 -2.35419 0
M  V30 8688 H 828.937 3.03812 -1.19858 0
M  V30 8689 H 827.596 2.00914 -3.06642 0
M  V30 8690 H 827.244 4.40269 -2.43253 0
M  V30 8691 H 826.944 4.14093 -4.16894 0
M  V30 8692 H 828.468 4.90572 -3.63553 0
M  V30 8693 H 829.882 3.00647 -4.88143 0
M  V30 8694 H 828.279 2.47449 -5.46707 0
M  V30 8695 H 829.349 1.30753 -4.66939 0
M  V30 8696 N 830.692 1.47107 0.565454 0
M  V30 8697 C 831.938 1.53535 1.32495 0
M  V30 8698 C 832.271 0.193537 1.93233 0
M  V30 8699 O 831.546 -0.796956 1.77423 0
M  V30 8700 C 831.829 2.64712 2.4413 0
M  V30 8701 C 831.682 4.08482 1.88314 0
M  V30 8702 C 833.001 2.71853 3.46098 0
M  V30 8703 H 830.12 0.558926 0.480386 0
M  V30 8704 H 832.762 1.79125 0.633575 0
M  V30 8705 H 830.912 2.43023 3.03104 0
M  V30 8706 H 832.584 4.4151 1.33665 0
M  V30 8707 H 830.827 4.17148 1.19037 0
M  V30 8708 H 831.498 4.82032 2.68978 0
M  V30 8709 H 833.974 2.91397 2.97031 0
M  V30 8710 H 832.85 3.51433 4.21646 0
M  V30 8711 H 833.111 1.78584 4.04426 0
M  V30 8712 N 832.17 -0.811516 1.35101 0
M  V30 8713 C 833.419 -1.56343 1.27435 0
M  V30 8714 C 833.732 -1.95019 -0.150696 0
M  V30 8715 O 834.938 -2.6924 -0.349586 0
M  V30 8716 C 833.394 -2.82124 2.23459 0
M  V30 8717 C 833.002 -2.50706 3.71283 0
M  V30 8718 C 834.746 -3.60137 2.24726 0
M  V30 8719 C 832.653 -3.72748 4.59143 0
M  V30 8720 H 831.583 -0.58682 0.473453 0
M  V30 8721 H 834.234 -0.892465 1.60335 0
M  V30 8722 H 832.616 -3.50905 1.83525 0
M  V30 8723 H 833.79 -1.89962 4.19823 0
M  V30 8724 H 832.105 -1.85947 3.72576 0
M  V30 8725 H 834.702 -4.50775 2.87587 0
M  V30 8726 H 835.045 -3.97101 1.24965 0
M  V30 8727 H 835.578 -2.98311 2.63164 0
M  V30 8728 H 832.317 -3.40896 5.59884 0
M  V30 8729 H 831.837 -4.32735 4.15332 0
M  V30 8730 H 833.516 -4.40033 4.74321 0
M  V30 8731 N 833.648 -1.19017 -1.03309 0
M  V30 8732 C 834.578 -0.94772 -2.13402 0
M  V30 8733 C 835.559 0.117383 -1.69694 0
M  V30 8734 O 836.744 -0.0367733 -1.94165 0
M  V30 8735 C 833.874 -0.480977 -3.43953 0
M  V30 8736 C 832.828 -1.48743 -4.01322 0
M  V30 8737 C 832.154 -0.877924 -5.27443 0
M  V30 8738 C 833.454 -2.86642 -4.36616 0
M  V30 8739 H 835.148 -1.86846 -2.33942 0
M  V30 8740 H 832.694 -0.899781 -1.12427 0
M  V30 8741 H 834.647 -0.298677 -4.2034 0
M  V30 8742 H 833.371 0.475348 -3.23122 0
M  V30 8743 H 832.03 -1.65681 -3.27025 0
M  V30 8744 H 831.678 0.0858232 -5.02927 0
M  V30 8745 H 831.378 -1.54996 -5.66789 0
M  V30 8746 H 832.902 -0.706326 -6.06501 0
M  V30 8747 H 834.316 -2.73312 -5.03958 0
M  V30 8748 H 832.713 -3.50599 -4.87032 0
M  V30 8749 H 833.783 -3.39617 -3.46105 0
M  V30 8750 N 835.127 1.22348 -0.993418 0
M  V30 8751 C 836.355 1.95125 -0.688021 0
M  V30 8752 C 836.77 1.73377 0.747388 0
M  V30 8753 O 836.127 1.03317 1.50439 0
M  V30 8754 C 836.178 3.47819 -0.985097 0
M  V30 8755 O 835.899 3.68838 -2.3641 0
M  V30 8756 C 837.4 4.37779 -0.697474 0
M  V30 8757 H 834.62 0.62087 -0.254481 0
M  V30 8758 H 837.164 1.55485 -1.32833 0
M  V30 8759 H 835.319 3.85426 -0.390583 0
M  V30 8760 H 835.733 4.63032 -2.46377 0
M  V30 8761 H 837.207 5.43666 -0.955604 0
M  V30 8762 H 837.684 4.37651 0.368524 0
M  V30 8763 H 838.29 4.05799 -1.27306 0
M  V30 8764 N 836.605 0.766683 1.37694 0
M  V30 8765 C 837.535 0.163432 2.32927 0
M  V30 8766 C 838.516 -0.688861 1.55527 0
M  V30 8767 O 839.701 -0.627363 1.83787 0
M  V30 8768 C 836.831 -0.720416 3.39746 0
M  V30 8769 C 835.785 0.0301718 4.27989 0
M  V30 8770 C 835.111 -0.972788 5.25776 0
M  V30 8771 C 836.411 1.20623 5.0818 0
M  V30 8772 H 838.105 0.958988 2.83626 0
M  V30 8773 H 835.651 0.462601 1.36367 0
M  V30 8774 H 837.604 -1.15221 4.05342 0
M  V30 8775 H 836.328 -1.54844 2.8756 0
M  V30 8776 H 834.987 0.442685 3.63917 0
M  V30 8777 H 834.635 -1.79522 4.69873 0
M  V30 8778 H 834.335 -0.475145 5.85676 0
M  V30 8779 H 835.859 -1.40362 5.94248 0
M  V30 8780 H 837.273 0.851341 5.66944 0
M  V30 8781 H 835.67 1.63561 5.7738 0
M  V30 8782 H 836.74 2.01281 4.41151 0
M  V30 8783 N 838.083 -1.48885 0.516809 0
M  V30 8784 C 839.33 -2.02488 -0.0220602 0
M  V30 8785 C 839.658 -1.39513 -1.35523 0
M  V30 8786 O 838.913 -0.52558 -1.8851 0
M  V30 8787 C 839.212 -3.56801 -0.206798 0
M  V30 8788 C 838.878 -4.38496 1.05035 0
M  V30 8789 C 837.54 -4.60538 1.39492 0
M  V30 8790 C 839.892 -4.85909 1.88525 0
M  V30 8791 C 837.22 -5.2724 2.57361 0
M  V30 8792 C 839.572 -5.53909 3.05561 0
M  V30 8793 C 838.236 -5.74193 3.4038 0
M  V30 8794 H 837.506 -0.740956 -0.00807238 0
M  V30 8795 H 840.153 -1.79014 0.680168 0
M  V30 8796 H 838.458 -3.79042 -0.991687 0
M  V30 8797 H 840.155 -3.95885 -0.638447 0
M  V30 8798 H 836.745 -4.2159 0.771984 0
M  V30 8799 H 840.929 -4.68694 1.63218 0
M  V30 8800 H 836.185 -5.41145 2.84556 0
M  V30 8801 H 840.359 -5.89619 3.7057 0
M  V30 8802 H 837.986 -6.25652 4.31814 0
M  V30 8803 N 839.561 -0.251338 -1.55583 0
M  V30 8804 C 840.808 0.372169 -1.99051 0
M  V30 8805 C 841.136 1.57623 -1.13953 0
M  V30 8806 O 840.391 1.94762 -0.191398 0
M  V30 8807 C 840.69 0.821186 -3.47838 0
M  V30 8808 C 840.356 -0.275608 -4.50057 0
M  V30 8809 C 839.018 -0.57683 -4.7773 0
M  V30 8810 C 841.37 -1.01585 -5.11204 0
M  V30 8811 C 838.698 -1.62229 -5.63825 0
M  V30 8812 C 841.05 -2.05087 -5.98433 0
M  V30 8813 C 839.714 -2.35869 -6.24437 0
M  V30 8814 H 838.984 0.136186 -0.728378 0
M  V30 8815 H 841.631 -0.360089 -1.88084 0
M  V30 8816 H 839.936 1.63272 -3.56159 0
M  V30 8817 H 841.633 1.31396 -3.78861 0
M  V30 8818 H 838.223 -0.030697 -4.28589 0
M  V30 8819 H 842.407 -0.79639 -4.89869 0
M  V30 8820 H 837.663 -1.86607 -5.82226 0
M  V30 8821 H 841.837 -2.62934 -6.44855 0
M  V30 8822 H 839.464 -3.17017 -6.90944 0
M  V30 8823 N 841.039 1.57585 0.0217189 0
M  V30 8824 C 841.969 2.10073 1.01939 0
M  V30 8825 C 842.95 1.0049 1.37243 0
M  V30 8826 O 844.135 1.28055 1.45999 0
M  V30 8827 C 841.265 2.58618 2.31806 0
M  V30 8828 C 840.219 3.72531 2.10724 0
M  V30 8829 C 839.545 4.07309 3.46415 0
M  V30 8830 C 840.845 5.00672 1.48743 0
M  V30 8831 H 842.539 2.9368 0.582432 0
M  V30 8832 H 840.085 1.41277 0.278715 0
M  V30 8833 H 842.038 2.9396 3.01936 0
M  V30 8834 H 840.762 1.72104 2.77575 0
M  V30 8835 H 839.421 3.37549 1.43025 0
M  V30 8836 H 839.069 3.17851 3.89846 0
M  V30 8837 H 838.769 4.84042 3.33132 0
M  V30 8838 H 840.293 4.45192 4.17895 0
M  V30 8839 H 841.707 5.33925 2.088 0
M  V30 8840 H 840.104 5.82065 1.46013 0
M  V30 8841 H 841.174 4.82769 0.45408 0
M  V30 8842 N 842.517 -0.29412 1.54831 0
M  V30 8843 C 843.766 -1.02614 1.73647 0
M  V30 8844 C 844.079 -1.88193 0.533162 0
M  V30 8845 O 845.285 -2.64713 0.603275 0
M  V30 8846 C 843.741 -1.87417 3.07251 0
M  V30 8847 C 843.349 -1.06806 4.35082 0
M  V30 8848 C 845.093 -2.60176 3.35423 0
M  V30 8849 C 843 -1.90926 5.59733 0
M  V30 8850 H 841.93 -0.386834 0.647206 0
M  V30 8851 H 844.581 -0.282789 1.81308 0
M  V30 8852 H 842.963 -2.65765 2.93572 0
M  V30 8853 H 844.137 -0.330226 4.59615 0
M  V30 8854 H 842.452 -0.455979 4.13896 0
M  V30 8855 H 845.049 -3.23476 4.25755 0
M  V30 8856 H 845.392 -3.29365 2.54606 0
M  V30 8857 H 845.925 -1.88871 3.50103 0
M  V30 8858 H 842.664 -1.26194 6.43238 0
M  V30 8859 H 842.184 -2.62363 5.39375 0
M  V30 8860 H 843.863 -2.48807 5.97247 0
M  V30 8861 N 843.995 -1.47404 -0.557645 0
M  V30 8862 C 845.223 -1.57622 -1.34026 0
M  V30 8863 C 845.638 -0.226256 -1.87439 0
M  V30 8864 O 844.995 0.78043 -1.64971 0
M  V30 8865 C 845.046 -2.60111 -2.51047 0
M  V30 8866 O 844.767 -3.89866 -1.99841 0
M  V30 8867 C 846.268 -2.80508 -3.43264 0
M  V30 8868 H 843.488 -0.532271 -0.40857 0
M  V30 8869 H 846.032 -1.93019 -0.675555 0
M  V30 8870 H 844.187 -2.27648 -3.13457 0
M  V30 8871 H 844.601 -4.45864 -2.76234 0
M  V30 8872 H 846.075 -3.56084 -4.21792 0
M  V30 8873 H 846.552 -1.88314 -3.9678 0
M  V30 8874 H 847.158 -3.14166 -2.86671 0
M  V30 8875 N 845.473 0.80434 -1.35529 0
M  V30 8876 C 846.721 1.55845 -1.28673 0
M  V30 8877 C 847.042 1.94511 0.137976 0
M  V30 8878 O 846.312 1.63775 1.07492 0
M  V30 8879 H 844.892 0.577931 -0.473291 0
M  V30 8880 H 847.554 0.959293 -1.69657 0
M  V30 8881 H 846.65 2.47285 -1.90411 0
M  V30 8882 N 846.951 1.19563 1.02676 0
M  V30 8883 C 848.367 0.948304 1.28372 0
M  V30 8884 C 848.567 -0.378096 1.97921 0
M  V30 8885 O 847.623 -1.1091 2.26838 0
M  V30 8886 C 848.936 2.12381 2.12873 0
M  V30 8887 C 850.484 2.16366 2.26174 0
M  V30 8888 C 850.959 3.33374 3.14048 0
M  V30 8889 N 852.45 3.33323 3.21636 0
M  V30 8890 C 853.185 4.20504 3.89825 0
M  V30 8891 N 852.681 5.17845 4.60227 0
M  V30 8892 N 854.474 4.08375 3.86246 0
M  V30 8893 H 846.625 2.04899 0.559485 0
M  V30 8894 H 848.888 0.89606 0.309484 0
M  V30 8895 H 848.594 3.08383 1.69094 0
M  V30 8896 H 848.468 2.09621 3.1359 0
M  V30 8897 H 850.855 1.20933 2.69182 0
M  V30 8898 H 850.936 2.23179 1.25 0
M  V30 8899 H 850.58 4.29087 2.71747 0
M  V30 8900 H 850.51 3.23798 4.15286 0
M  V30 8901 H 853.001 2.62863 2.71498 0
M  V30 8902 H 853.314 5.80712 5.09896 0
M  V30 8903 H 851.659 5.21791 4.59085 0
M  V30 8904 H 854.85 3.31606 3.30386 0
M  V30 8905 H 855.023 4.76532 4.39114 0
M  V30 8906 N 848.429 -1.21819 0.999893 0
M  V30 8907 C 849.669 -1.92473 0.687996 0
M  V30 8908 C 850.033 -1.76033 -0.766569 0
M  V30 8909 O 851.234 -2.41013 -1.19021 0
M  V30 8910 C 849.505 -3.40332 1.09129 0
M  V30 8911 S 851.064 -4.29496 0.898822 0
M  V30 8912 H 847.882 -0.665097 0.251329 0
M  V30 8913 H 850.484 -1.47454 1.28364 0
M  V30 8914 H 849.188 -3.49812 2.14615 0
M  V30 8915 H 848.719 -3.90365 0.487724 0
M  V30 8916 H 850.734 -4.95769 -0.206873 0
M  V30 8917 N 849.908 -0.773975 -1.37286 0
M  V30 8918 C 850.84 -0.119938 -2.28886 0
M  V30 8919 C 851.853 0.661822 -1.48741 0
M  V30 8920 O 853.042 0.499548 -1.71367 0
M  V30 8921 C 850.142 0.853703 -3.27971 0
M  V30 8922 C 849.315 0.125286 -4.37221 0
M  V30 8923 C 848.374 1.01261 -5.16365 0
M  V30 8924 O 847.4 0.475565 -5.6721 0
M  V30 8925 N 848.602 2.33864 -5.31308 0
M  V30 8926 H 851.367 -0.906702 -2.85655 0
M  V30 8927 H 848.928 -0.626519 -1.49286 0
M  V30 8928 H 850.92 1.4508 -3.77801 0
M  V30 8929 H 849.49 1.54142 -2.71954 0
M  V30 8930 H 848.71 -0.652742 -3.88758 0
M  V30 8931 H 849.998 -0.377959 -5.07394 0
M  V30 8932 H 849.396 2.79929 -4.91585 0
M  V30 8933 H 847.953 2.88575 -5.84438 0
M  V30 8934 N 851.386 1.48609 -0.524698 0
M  V30 8935 C 852.632 2.034 0.00323579 0
M  V30 8936 C 852.987 1.39513 1.32491 0
M  V30 8937 O 852.28 0.529876 1.84127 0
M  V30 8938 C 852.474 3.56906 0.187873 0
M  V30 8939 C 852.303 4.35674 -1.11436 0
M  V30 8940 C 851.073 4.76809 -1.67276 0
M  V30 8941 C 853.271 4.72814 -2.02365 0
M  V30 8942 N 851.253 5.40093 -2.91843 0
M  V30 8943 C 852.624 5.36062 -3.11508 0
M  V30 8944 C 854.679 4.54747 -2.02755 0
M  V30 8945 C 853.382 5.83154 -4.21099 0
M  V30 8946 C 855.408 5.02815 -3.11337 0
M  V30 8947 C 854.77 5.66084 -4.19199 0
M  V30 8948 H 850.869 0.780967 -0.0401842 0
M  V30 8949 H 853.453 1.81495 -0.704808 0
M  V30 8950 H 851.624 3.78645 0.864996 0
M  V30 8951 H 853.356 3.98335 0.714938 0
M  V30 8952 H 850.111 4.57754 -1.21483 0
M  V30 8953 H 850.535 5.76305 -3.55249 0
M  V30 8954 H 855.177 4.05217 -1.20661 0
M  V30 8955 H 852.895 6.31692 -5.03975 0
M  V30 8956 H 856.481 4.9063 -3.12688 0
M  V30 8957 H 855.361 6.02604 -5.01834 0
M  V30 8958 N 852.864 0.259585 1.55447 0
M  V30 8959 C 854.094 -0.364863 2.03353 0
M  V30 8960 C 854.502 -1.5116 1.13786 0
M  V30 8961 O 853.845 -1.83109 0.147283 0
M  V30 8962 C 853.907 -0.922587 3.4746 0
M  V30 8963 C 853.571 0.0935207 4.56904 0
M  V30 8964 C 854.568 0.907571 5.11917 0
M  V30 8965 C 852.253 0.223276 5.01804 0
M  V30 8966 C 854.247 1.83771 6.10333 0
M  V30 8967 C 851.934 1.15691 6.00049 0
M  V30 8968 C 852.932 1.96264 6.54194 0
M  V30 8969 O 852.62 2.88052 7.50521 0
M  V30 8970 H 852.352 -0.0893313 0.670072 0
M  V30 8971 H 854.906 0.384821 2.01763 0
M  V30 8972 H 853.136 -1.72206 3.4624 0
M  V30 8973 H 854.825 -1.45846 3.78792 0
M  V30 8974 H 855.591 0.817979 4.78052 0
M  V30 8975 H 851.47 -0.393834 4.59315 0
M  V30 8976 H 855.014 2.46703 6.52521 0
M  V30 8977 H 850.911 1.24738 6.33333 0
M  V30 8978 H 851.679 2.82557 7.68182 0
M  V30 8979 N 854.342 -1.57594 -0.0133615 0
M  V30 8980 C 855.591 -1.8916 -0.700103 0
M  V30 8981 C 855.904 -0.860147 -1.75673 0
M  V30 8982 O 857.11 -1.06556 -2.49716 0
M  V30 8983 C 855.566 -3.35742 -1.29635 0
M  V30 8984 C 855.174 -4.47154 -0.275249 0
M  V30 8985 C 856.918 -3.76436 -1.96205 0
M  V30 8986 C 854.825 -5.84805 -0.880726 0
M  V30 8987 H 853.755 -0.705805 -0.265247 0
M  V30 8988 H 856.406 -1.83445 0.044993 0
M  V30 8989 H 854.788 -3.36252 -2.09167 0
M  V30 8990 H 855.962 -4.58139 0.494506 0
M  V30 8991 H 854.277 -4.15394 0.289256 0
M  V30 8992 H 856.874 -4.76606 -2.42386 0
M  V30 8993 H 857.217 -3.09249 -2.78695 0
M  V30 8994 H 857.75 -3.78168 -1.23426 0
M  V30 8995 H 854.489 -6.55431 -0.0949013 0
M  V30 8996 H 854.009 -5.7751 -1.61995 0
M  V30 8997 H 855.688 -6.32038 -1.38338 0
M  V30 8998 N 855.82 0.285905 -1.54985 0
M  V30 8999 C 856.767 1.35306 -1.86978 0
M  V30 9000 C 857.737 1.49682 -0.720046 0
M  V30 9001 O 858.922 1.64297 -0.970107 0
M  V30 9002 C 856.062 2.71059 -2.13591 0
M  V30 9003 C 855.175 2.6501 -3.41165 0
M  V30 9004 C 854.31 3.92856 -3.57544 0
M  V30 9005 C 853.349 3.81266 -4.78855 0
M  V30 9006 N 852.486 5.00919 -4.9196 0
M  V30 9007 H 857.326 1.07323 -2.78003 0
M  V30 9008 H 854.863 0.518776 -1.37649 0
M  V30 9009 H 856.821 3.50026 -2.27019 0
M  V30 9010 H 855.451 2.97271 -1.25816 0
M  V30 9011 H 854.503 1.77824 -3.36278 0
M  V30 9012 H 855.815 2.52342 -4.30262 0
M  V30 9013 H 854.969 4.80263 -3.70718 0
M  V30 9014 H 853.708 4.08377 -2.66608 0
M  V30 9015 H 852.713 2.92243 -4.65698 0
M  V30 9016 H 853.938 3.67277 -5.71213 0
M  V30 9017 H 851.884 5.16875 -4.03951 0
M  V30 9018 H 851.801 4.90732 -5.75081 0
M  V30 9019 H 853.069 5.89935 -5.09507 0
M  V30 9020 N 857.298 1.47698 0.54982 0
M  V30 9021 C 858.261 1.60282 1.63837 0
M  V30 9022 C 859.261 0.477394 1.5355 0
M  V30 9023 O 860.451 0.742665 1.57576 0
M  V30 9024 C 857.583 1.55431 3.03404 0
M  V30 9025 H 858.776 2.57325 1.54026 0
M  V30 9026 H 856.329 1.35999 0.770329 0
M  V30 9027 H 857.064 0.597912 3.1874 0
M  V30 9028 H 856.849 2.37116 3.12279 0
M  V30 9029 H 858.339 1.6739 3.82584 0
M  V30 9030 N 858.776 -0.797141 1.35954 0
M  V30 9031 C 859.723 -1.90944 1.2965 0
M  V30 9032 C 860.693 -1.65262 0.166628 0
M  V30 9033 O 861.878 -1.87527 0.351883 0
M  V30 9034 C 859.018 -3.27637 1.08389 0
M  V30 9035 C 858.131 -3.65442 2.30382 0
M  V30 9036 C 857.266 -4.91213 2.02195 0
M  V30 9037 C 856.305 -5.21674 3.20191 0
M  V30 9038 N 855.442 -6.38627 2.91719 0
M  V30 9039 H 860.282 -1.95668 2.24762 0
M  V30 9040 H 857.819 -0.95696 1.11717 0
M  V30 9041 H 859.777 -4.06451 0.940912 0
M  V30 9042 H 858.407 -3.22355 0.169351 0
M  V30 9043 H 857.459 -2.81813 2.55511 0
M  V30 9044 H 858.771 -3.83907 3.18461 0
M  V30 9045 H 857.925 -5.77876 1.84783 0
M  V30 9046 H 856.664 -4.74803 1.11416 0
M  V30 9047 H 855.669 -4.33498 3.38171 0
M  V30 9048 H 856.894 -5.40009 4.11786 0
M  V30 9049 H 854.84 -6.23623 2.03543 0
M  V30 9050 H 854.757 -6.57387 3.73334 0
M  V30 9051 H 856.025 -7.28292 2.77868 0
M  V30 9052 N 860.254 -1.20106 -1.0204 0
M  V30 9053 C 861.187 -0.889795 -2.10138 0
M  V30 9054 C 862.165 0.156595 -1.61844 0
M  V30 9055 O 863.349 0.0310192 -1.88474 0
M  V30 9056 C 860.476 -0.333227 -3.37057 0
M  V30 9057 C 859.522 -1.36001 -4.04235 0
M  V30 9058 S 860.355 -2.92366 -4.48645 0
M  V30 9059 C 861.511 -2.38274 -5.78771 0
M  V30 9060 H 861.744 -1.80523 -2.36217 0
M  V30 9061 H 859.277 -1.02912 -1.15102 0
M  V30 9062 H 861.235 -0.0186507 -4.10496 0
M  V30 9063 H 859.896 0.560652 -3.09056 0
M  V30 9064 H 859.089 -0.919874 -4.95534 0
M  V30 9065 H 858.691 -1.62186 -3.37004 0
M  V30 9066 H 860.983 -1.77799 -6.53754 0
M  V30 9067 H 861.926 -3.27955 -6.27576 0
M  V30 9068 H 862.334 -1.8054 -5.34851 0
M  V30 9069 N 861.732 1.21287 -1.00634 0
M  V30 9070 C 862.679 2.23705 -0.567876 0
M  V30 9071 C 863.649 1.61043 0.406753 0
M  V30 9072 O 864.834 1.88289 0.308499 0
M  V30 9073 C 861.974 3.44961 0.097996 0
M  V30 9074 C 861.087 4.22091 -0.919972 0
M  V30 9075 C 860.222 5.30718 -0.226222 0
M  V30 9076 C 859.261 5.99581 -1.23165 0
M  V30 9077 N 858.398 6.99821 -0.565278 0
M  V30 9078 H 863.238 2.60571 -1.44592 0
M  V30 9079 H 860.775 1.28049 -0.724006 0
M  V30 9080 H 862.733 4.1418 0.501097 0
M  V30 9081 H 861.363 3.08818 0.939744 0
M  V30 9082 H 860.415 3.52038 -1.44131 0
M  V30 9083 H 861.727 4.69476 -1.68505 0
M  V30 9084 H 860.881 6.06253 0.232917 0
M  V30 9085 H 859.62 4.84343 0.571247 0
M  V30 9086 H 858.625 5.22816 -1.70128 0
M  V30 9087 H 859.85 6.48042 -2.03022 0
M  V30 9088 H 857.796 6.55656 0.212508 0
M  V30 9089 H 857.713 7.4528 -1.26858 0
M  V30 9090 H 858.981 7.79393 -0.129389 0
M  V30 9091 N 863.21 0.781244 1.36873 0
M  V30 9092 C 864.435 0.360398 2.04245 0
M  V30 9093 C 864.86 -1.01242 1.58529 0
M  V30 9094 O 864.218 -1.65063 0.749936 0
M  V30 9095 C 864.266 0.42329 3.58107 0
M  V30 9096 O 863.37 -0.572796 4.08403 0
M  V30 9097 H 862.711 0.154386 0.645803 0
M  V30 9098 H 865.241 1.06008 1.74996 0
M  V30 9099 H 865.251 0.283967 4.07011 0
M  V30 9100 H 863.926 1.42477 3.90734 0
M  V30 9101 H 862.503 -0.395809 3.70793 0
M  V30 9102 N 864.689 -1.48329 0.532571 0
M  V30 9103 C 865.599 -2.33445 -0.232546 0
M  V30 9104 C 866.615 -1.46651 -0.93645 0
M  V30 9105 O 867.791 -1.79627 -0.910834 0
M  V30 9106 C 864.856 -3.22824 -1.26434 0
M  V30 9107 C 863.917 -4.25492 -0.570511 0
M  V30 9108 C 863.15 -5.10601 -1.55315 0
M  V30 9109 O 863.373 -4.97733 -2.78599 0
M  V30 9110 O 862.307 -5.91927 -1.09112 0
M  V30 9111 H 866.133 -3.00119 0.464988 0
M  V30 9112 H 863.718 -1.46489 0.293462 0
M  V30 9113 H 865.6 -3.78103 -1.86055 0
M  V30 9114 H 864.275 -2.58807 -1.94424 0
M  V30 9115 H 863.182 -3.74041 0.0662587 0
M  V30 9116 H 864.515 -4.92154 0.0674904 0
M  V30 9117 N 866.167 -0.267825 -1.55308 0
M  V30 9118 C 867.077 0.633055 -2.25897 0
M  V30 9119 C 868.093 1.17613 -1.28231 0
M  V30 9120 O 869.269 1.20797 -1.61153 0
M  V30 9121 C 866.334 1.80397 -2.96071 0
M  V30 9122 C 865.395 1.29829 -4.09198 0
M  V30 9123 C 864.628 2.4134 -4.76016 0
M  V30 9124 O 864.851 3.60537 -4.42006 0
M  V30 9125 O 863.785 2.09909 -5.64111 0
M  V30 9126 H 867.611 0.0614381 -3.03638 0
M  V30 9127 H 865.196 -0.0355072 -1.49358 0
M  V30 9128 H 867.078 2.48685 -3.40197 0
M  V30 9129 H 865.753 2.36281 -2.21253 0
M  V30 9130 H 864.66 0.582086 -3.69544 0
M  V30 9131 H 865.993 0.785288 -4.85895 0
M  V30 9132 N 867.645 1.57599 0.00500368 0
M  V30 9133 C 868.592 2.08106 0.998025 0
M  V30 9134 C 869.562 0.975374 1.34446 0
M  V30 9135 O 870.747 1.24749 1.44369 0
M  V30 9136 C 867.887 2.58496 2.28635 0
M  V30 9137 C 867 3.82947 1.99939 0
M  V30 9138 C 866.135 4.21857 3.22816 0
M  V30 9139 C 865.174 5.39159 2.89783 0
M  V30 9140 N 864.311 5.73386 4.05183 0
M  V30 9141 H 869.151 2.92684 0.560385 0
M  V30 9142 H 866.688 1.44692 0.265053 0
M  V30 9143 H 868.646 2.85787 3.03943 0
M  V30 9144 H 867.276 1.768 2.70077 0
M  V30 9145 H 866.328 3.62594 1.1502 0
M  V30 9146 H 867.64 4.68358 1.71588 0
M  V30 9147 H 866.794 4.50404 4.06474 0
M  V30 9148 H 865.533 3.35145 3.54301 0
M  V30 9149 H 864.538 5.1034 2.04532 0
M  V30 9150 H 865.763 6.27543 2.59551 0
M  V30 9151 H 863.709 4.89632 4.36574 0
M  V30 9152 H 863.626 6.53359 3.80339 0
M  V30 9153 H 864.894 6.06522 4.89644 0
M  V30 9154 N 869.123 -0.277682 1.55134 0
M  V30 9155 C 870.539 -0.624625 1.46869 0
M  V30 9156 C 870.739 -1.89717 0.678958 0
M  V30 9157 O 869.795 -2.51739 0.195939 0
M  V30 9158 C 871.108 -0.755937 2.91043 0
M  V30 9159 C 872.656 -0.850299 3.01229 0
M  V30 9160 C 873.131 -1.01343 4.46647 0
M  V30 9161 N 874.622 -1.07906 4.50456 0
M  V30 9162 C 875.357 -1.224 5.60184 0
M  V30 9163 N 874.853 -1.33642 6.79788 0
M  V30 9164 N 876.646 -1.25473 5.47917 0
M  V30 9165 H 868.797 0.558102 2.04937 0
M  V30 9166 H 871.06 0.188228 0.929125 0
M  V30 9167 H 870.766 0.108593 3.51532 0
M  V30 9168 H 870.64 -1.6377 3.39793 0
M  V30 9169 H 873.027 -1.7053 2.40839 0
M  V30 9170 H 873.108 0.0559681 2.55739 0
M  V30 9171 H 872.752 -0.163102 5.07638 0
M  V30 9172 H 872.682 -1.93427 4.89789 0
M  V30 9173 H 875.173 -1.00477 3.64298 0
M  V30 9174 H 875.486 -1.44522 7.59166 0
M  V30 9175 H 873.831 -1.30655 6.82608 0
M  V30 9176 H 877.022 -1.16317 4.53418 0
M  V30 9177 H 877.195 -1.36424 6.33476 0
M  V30 9178 N 870.601 -1.47988 -0.541979 0
M  V30 9179 C 872.017 -1.33843 -0.869383 0
M  V30 9180 C 872.217 -0.340374 -1.98604 0
M  V30 9181 O 871.273 0.242696 -2.51331 0
M  V30 9182 C 872.586 -2.73568 -1.24823 0
M  V30 9183 C 874.134 -2.81967 -1.3588 0
M  V30 9184 C 874.609 -4.22368 -1.77114 0
M  V30 9185 N 876.1 -4.24983 -1.84237 0
M  V30 9186 C 876.835 -5.30547 -2.17503 0
M  V30 9187 N 876.331 -6.46401 -2.49275 0
M  V30 9188 N 878.124 -5.17933 -2.18406 0
M  V30 9189 H 870.275 -2.11503 0.195001 0
M  V30 9190 H 872.538 -0.947681 0.0245862 0
M  V30 9191 H 872.244 -3.48107 -0.501435 0
M  V30 9192 H 872.118 -3.06322 -2.20106 0
M  V30 9193 H 874.505 -2.07692 -2.09638 0
M  V30 9194 H 874.586 -2.52848 -0.387478 0
M  V30 9195 H 874.23 -4.97155 -1.0392 0
M  V30 9196 H 874.16 -4.48922 -2.75275 0
M  V30 9197 H 876.651 -3.41411 -1.62009 0
M  V30 9198 H 876.964 -7.22698 -2.73729 0
M  V30 9199 H 875.309 -6.49696 -2.46821 0
M  V30 9200 H 878.5 -4.26445 -1.93034 0
M  V30 9201 H 878.673 -6.00307 -2.44 0
M  V30 9202 N 872.079 0.78992 -1.36375 0
M  V30 9203 C 873.027 1.92394 -1.30719 0
M  V30 9204 C 874.021 1.68226 -0.199076 0
M  V30 9205 O 875.227 1.76239 -0.366051 0
M  V30 9206 H 871.602 0.632382 -0.406936 0
M  V30 9207 H 873.573 1.94282 -2.26488 0
M  V30 9208 C 872.322 3.2941 -1.11284 0
M  V30 9209 H 871.645 3.48573 -1.95798 0
M  V30 9210 H 873.085 4.09111 -1.11373 0
M  V30 9211 C 871.544 3.36405 0.182543 0
M  V30 9212 O 872.074 3.84206 1.17255 0
M  V30 9213 N 870.28 2.89712 0.227046 0
M  V30 9214 H 869.827 2.51004 -0.579217 0
M  V30 9215 H 869.785 2.94773 1.09344 0
M  V30 9216 N 873.557 1.20646 1.01402 0
M  V30 9217 C 874.507 0.925209 2.08384 0
M  V30 9218 C 875.491 -0.115994 1.60481 0
M  V30 9219 O 876.683 0.0917276 1.76762 0
M  V30 9220 C 873.812 0.48193 3.399 0
M  V30 9221 C 872.898 1.5567 3.94497 0
M  V30 9222 N 873.289 2.77971 4.2257 0
M  V30 9223 C 871.587 1.42347 4.22674 0
M  V30 9224 C 872.288 3.47317 4.66632 0
M  V30 9225 N 871.264 2.74736 4.69064 0
M  V30 9226 H 875.066 1.85452 2.28002 0
M  V30 9227 H 872.58 1.10084 1.19395 0
M  V30 9228 H 874.577 0.261835 4.16077 0
M  V30 9229 H 873.237 -0.440725 3.21695 0
M  V30 9230 H 874.248 3.14598 4.11398 0
M  V30 9231 H 870.925 0.565417 4.13654 0
M  V30 9232 H 872.315 4.51985 4.97151 0
M  V30 9233 N 875.035 -1.20752 1.01276 0
M  V30 9234 C 875.965 -2.25658 0.600064 0
M  V30 9235 C 876.946 -1.65733 -0.38298 0
M  V30 9236 O 878.131 -1.92324 -0.269256 0
M  V30 9237 C 875.261 -3.47237 -0.0663197 0
M  V30 9238 C 874.215 -4.1973 0.83731 0
M  V30 9239 C 873.541 -5.34687 0.0369102 0
M  V30 9240 C 874.841 -4.76286 2.14357 0
M  V30 9241 H 876.535 -2.60432 1.477 0
M  V30 9242 H 874.081 -1.25187 0.711634 0
M  V30 9243 H 876.034 -4.19803 -0.366563 0
M  V30 9244 H 874.758 -3.11615 -0.977944 0
M  V30 9245 H 873.417 -3.49024 1.1215 0
M  V30 9246 H 873.065 -4.95309 -0.876244 0
M  V30 9247 H 872.765 -5.84119 0.63865 0
M  V30 9248 H 874.289 -6.10059 -0.256968 0
M  V30 9249 H 875.703 -5.40691 1.90595 0
M  V30 9250 H 874.1 -5.36139 2.69583 0
M  V30 9251 H 875.17 -3.9524 2.80916 0
M  V30 9252 N 876.513 -0.788492 -1.36457 0
M  V30 9253 C 877.445 -0.144208 -2.28746 0
M  V30 9254 C 878.458 0.646009 -1.49434 0
M  V30 9255 O 879.647 0.481344 -1.71888 0
M  V30 9256 C 876.747 0.818869 -3.28858 0
M  V30 9257 C 875.92 0.0789055 -4.37329 0
M  V30 9258 C 874.979 0.957791 -5.1741 0
M  V30 9259 O 874.005 0.415378 -5.67682 0
M  V30 9260 N 875.207 2.28216 -5.33758 0
M  V30 9261 H 877.972 -0.936949 -2.84678 0
M  V30 9262 H 875.533 -0.642317 -1.48613 0
M  V30 9263 H 877.525 1.41065 -3.79319 0
M  V30 9264 H 876.095 1.51249 -2.73573 0
M  V30 9265 H 875.315 -0.693939 -3.88044 0
M  V30 9266 H 876.603 -0.431753 -5.06965 0
M  V30 9267 H 876.001 2.747 -4.94527 0
M  V30 9268 H 874.558 2.8236 -5.87466 0
M  V30 9269 N 877.991 1.48044 -0.54043 0
M  V30 9270 C 878.939 2.31461 0.229862 0
M  V30 9271 C 879.933 1.41884 0.925495 0
M  V30 9272 O 881.139 1.58736 0.848689 0
M  V30 9273 H 877.514 0.746227 0.0929975 0
M  V30 9274 H 879.485 2.94297 -0.493118 0
M  V30 9275 C 878.234 3.24172 1.25729 0
M  V30 9276 H 877.557 3.93052 0.731426 0
M  V30 9277 H 878.997 3.85404 1.76747 0
M  V30 9278 C 877.456 2.4651 2.2964 0
M  V30 9279 O 877.986 2.19742 3.36268 0
M  V30 9280 N 876.192 2.07817 2.03127 0
M  V30 9281 H 875.739 2.29786 1.1643 0
M  V30 9282 H 875.697 1.56168 2.72872 0
M  V30 9283 N 879.47 0.276058 1.55163 0
M  V30 9284 C 880.718 -0.339782 1.99223 0
M  V30 9285 C 881.039 -1.56307 1.16589 0
M  V30 9286 O 880.309 -1.94225 0.25564 0
M  V30 9287 H 878.889 -0.128534 0.735859 0
M  V30 9288 H 881.551 0.381612 1.91128 0
M  V30 9289 H 880.647 -0.629 3.05696 0
M  V30 9290 N 880.948 -1.576 0.00335426 0
M  V30 9291 C 881.898 -2.05116 -0.995562 0
M  V30 9292 C 882.882 -0.946535 -1.30113 0
M  V30 9293 O 884.074 -1.21028 -1.29156 0
M  V30 9294 C 881.203 -2.56077 -2.28648 0
M  V30 9295 C 880.289 -3.73422 -2.0104 0
M  V30 9296 N 880.68 -4.84986 -1.43603 0
M  V30 9297 C 878.978 -3.81416 -2.31166 0
M  V30 9298 C 879.679 -5.66399 -1.32542 0
M  V30 9299 N 878.655 -5.12505 -1.81218 0
M  V30 9300 H 882.457 -2.88783 -0.546025 0
M  V30 9301 H 879.971 -1.61135 -0.202265 0
M  V30 9302 H 881.968 -2.88395 -3.01055 0
M  V30 9303 H 880.628 -1.73829 -2.74251 0
M  V30 9304 H 881.639 -5.05768 -1.11439 0
M  V30 9305 H 878.316 -3.1003 -2.7962 0
M  V30 9306 H 879.706 -6.66066 -0.88348 0
M  V30 9307 N 882.426 0.269451 -1.5528 0
M  V30 9308 C 883.356 1.33729 -1.91413 0
M  V30 9309 C 884.337 1.51348 -0.776391 0
M  V30 9310 O 885.522 1.64332 -1.03482 0
M  V30 9311 C 882.652 2.69618 -2.18914 0
M  V30 9312 C 881.606 2.66725 -3.34726 0
M  V30 9313 C 880.932 4.06199 -3.47716 0
M  V30 9314 C 882.232 2.25684 -4.71025 0
M  V30 9315 H 883.926 1.03736 -2.80854 0
M  V30 9316 H 881.472 0.497579 -1.3513 0
M  V30 9317 H 883.425 3.44436 -2.42779 0
M  V30 9318 H 882.149 3.01201 -1.26275 0
M  V30 9319 H 880.808 1.94365 -3.10834 0
M  V30 9320 H 880.456 4.3501 -2.52537 0
M  V30 9321 H 880.156 4.05157 -4.25583 0
M  V30 9322 H 881.68 4.8275 -3.73877 0
M  V30 9323 H 883.094 2.90225 -4.94411 0
M  V30 9324 H 881.491 2.35797 -5.51833 0
M  V30 9325 H 882.561 1.20819 -4.69607 0
M  V30 9326 N 883.904 1.48273 0.534124 0
M  V30 9327 C 885.32 1.34302 0.862272 0
M  V30 9328 C 885.52 0.350902 1.98421 0
M  V30 9329 O 884.576 -0.229364 2.51456 0
M  V30 9330 C 885.889 2.74227 1.23371 0
M  V30 9331 C 887.437 2.82684 1.34383 0
M  V30 9332 C 887.912 4.23301 1.74871 0
M  V30 9333 N 889.403 4.25954 1.81981 0
M  V30 9334 C 890.138 5.31693 2.14686 0
M  V30 9335 N 889.634 6.47714 2.45844 0
M  V30 9336 N 891.427 5.19084 2.15657 0
M  V30 9337 H 883.578 2.11397 -0.206215 0
M  V30 9338 H 885.841 0.947537 -0.0296116 0
M  V30 9339 H 885.547 3.48368 0.482967 0
M  V30 9340 H 885.421 3.07485 2.18478 0
M  V30 9341 H 887.808 2.08801 2.08534 0
M  V30 9342 H 887.889 2.5305 0.374063 0
M  V30 9343 H 887.533 4.97699 1.01282 0
M  V30 9344 H 887.463 4.50376 2.7289 0
M  V30 9345 H 889.954 3.42266 1.60196 0
M  V30 9346 H 890.267 7.2414 2.69892 0
M  V30 9347 H 888.612 6.50995 2.43372 0
M  V30 9348 H 891.803 4.27463 1.9077 0
M  V30 9349 H 891.976 6.01592 2.40813 0
M  V30 9350 N 885.382 -0.782676 1.36792 0
M  V30 9351 C 886.629 -1.54083 1.31395 0
M  V30 9352 C 886.957 -1.94217 -0.104797 0
M  V30 9353 O 886.212 -1.63491 -1.0756 0
M  V30 9354 C 886.511 -2.82542 2.18872 0
M  V30 9355 C 886.177 -2.61512 3.67317 0
M  V30 9356 C 884.839 -2.55486 4.07775 0
M  V30 9357 C 887.191 -2.42389 4.61407 0
M  V30 9358 C 884.519 -2.28311 5.40454 0
M  V30 9359 C 886.871 -2.1674 5.94312 0
M  V30 9360 C 885.535 -2.09151 6.33887 0
M  V30 9361 H 884.805 -0.563829 0.48081 0
M  V30 9362 H 887.452 -0.902436 1.68903 0
M  V30 9363 H 885.757 -3.50883 1.74323 0
M  V30 9364 H 887.454 -3.40367 2.12017 0
M  V30 9365 H 884.044 -2.67062 3.35225 0
M  V30 9366 H 888.228 -2.46043 4.31018 0
M  V30 9367 H 883.484 -2.20922 5.70091 0
M  V30 9368 H 887.658 -2.0094 6.6678 0
M  V30 9369 H 885.285 -1.87857 7.36623 0
M  V30 9370 N 886.86 -1.21182 -1.00761 0
M  V30 9371 C 888.271 -1.02652 -1.55947 0
M  V30 9372 C 888.622 0.414466 -1.91772 0
M  V30 9373 O 887.747 1.29727 -1.73204 0
M  V30 9374 C 888.342 -1.85713 -2.83366 0
M  V30 9375 C 886.901 -1.71523 -3.35048 0
M  V30 9376 C 886.048 -1.83087 -2.08265 0
M  V30 9377 H 888.999 -1.35242 -0.830379 0
M  V30 9378 H 889.02 -1.36583 -3.55141 0
M  V30 9379 H 888.532 -2.90584 -2.5726 0
M  V30 9380 H 886.633 -0.693257 -3.66094 0
M  V30 9381 H 886.746 -2.53333 -4.06644 0
M  V30 9382 H 885.11 -1.26367 -2.21141 0
M  V30 9383 H 885.893 -2.8946 -1.84575 0
M  V30 9384 N 888.338 1.20213 -1.01915 0
M  V30 9385 C 889.586 1.89272 -0.708552 0
M  V30 9386 C 889.907 1.79394 0.76438 0
M  V30 9387 O 889.177 1.198 1.54999 0
M  V30 9388 H 887.757 0.700628 -0.259094 0
M  V30 9389 H 890.419 1.45985 -1.29129 0
M  V30 9390 H 889.515 2.95841 -0.994215 0
M  V30 9391 N 889.816 0.795718 1.36037 0
M  V30 9392 C 891.065 0.367575 1.98322 0
M  V30 9393 C 891.378 -1.06823 1.63854 0
M  V30 9394 O 892.584 -1.59895 2.19421 0
M  V30 9395 C 891.04 0.606272 3.54757 0
M  V30 9396 C 890.648 2.0539 3.98144 0
M  V30 9397 C 892.392 0.242947 4.23804 0
M  V30 9398 C 890.299 2.23893 5.47381 0
M  V30 9399 H 889.229 0.133699 0.742052 0
M  V30 9400 H 891.88 0.978242 1.5525 0
M  V30 9401 H 890.262 -0.0741957 3.9593 0
M  V30 9402 H 891.436 2.77129 3.68152 0
M  V30 9403 H 889.751 2.37607 3.41953 0
M  V30 9404 H 892.348 0.359382 5.33491 0
M  V30 9405 H 892.691 -0.809661 4.08351 0
M  V30 9406 H 893.224 0.876899 3.88015 0
M  V30 9407 H 889.963 3.27559 5.6779 0
M  V30 9408 H 889.483 1.56666 5.78978 0
M  V30 9409 H 891.162 2.04914 6.13693 0
M  V30 9410 N 891.294 -1.47756 0.548274 0
M  V30 9411 C 892.241 -2.29893 -0.204408 0
M  V30 9412 C 893.211 -1.38509 -0.916761 0
M  V30 9413 O 894.396 -1.67472 -0.91421 0
M  V30 9414 C 891.536 -3.22282 -1.23403 0
M  V30 9415 C 890.649 -4.28753 -0.528654 0
M  V30 9416 C 889.784 -5.08303 -1.54279 0
M  V30 9417 C 888.823 -6.06557 -0.821893 0
M  V30 9418 N 887.96 -6.79098 -1.78243 0
M  V30 9419 H 892.8 -2.93739 0.502163 0
M  V30 9420 H 890.337 -1.44793 0.259471 0
M  V30 9421 H 892.295 -3.74262 -1.84348 0
M  V30 9422 H 890.925 -2.6032 -1.90875 0
M  V30 9423 H 889.977 -3.79899 0.195132 0
M  V30 9424 H 891.289 -4.98787 0.0365066 0
M  V30 9425 H 890.443 -5.64388 -2.22602 0
M  V30 9426 H 889.182 -4.3815 -2.14186 0
M  V30 9427 H 888.187 -5.49659 -0.12469 0
M  V30 9428 H 889.412 -6.78715 -0.228685 0
M  V30 9429 H 887.358 -6.11682 -2.37025 0
M  V30 9430 H 887.275 -7.4527 -1.26919 0
M  V30 9431 H 888.543 -7.39762 -2.45709 0
M  V30 9432 N 892.772 -0.284283 -1.55015 0
M  V30 9433 C 894 0.332948 -2.04203 0
M  V30 9434 C 894.415 1.48783 -1.16229 0
M  V30 9435 O 893.772 1.81567 -0.184323 0
M  V30 9436 C 893.823 0.805207 -3.52418 0
M  V30 9437 O 893.544 -0.303689 -4.37046 0
M  V30 9438 C 895.045 1.48931 -4.17534 0
M  V30 9439 H 892.265 0.0747447 -0.666824 0
M  V30 9440 H 894.809 -0.419048 -2.00161 0
M  V30 9441 H 892.964 1.50727 -3.56876 0
M  V30 9442 H 893.378 0.0609703 -5.24465 0
M  V30 9443 H 894.852 1.77108 -5.22816 0
M  V30 9444 H 895.329 2.42389 -3.66257 0
M  V30 9445 H 895.935 0.830867 -4.17105 0
M  V30 9446 N 894.251 1.57596 -0.0117121 0
M  V30 9447 C 895.481 1.95077 0.680346 0
M  V30 9448 C 895.889 0.885793 1.67184 0
M  V30 9449 O 895.232 -0.142723 1.83145 0
M  V30 9450 C 895.294 3.28611 1.45791 0
M  V30 9451 C 894.958 4.52682 0.626706 0
M  V30 9452 C 895.955 5.19821 -0.0906223 0
M  V30 9453 C 893.64 4.99064 0.569229 0
M  V30 9454 C 895.634 6.31649 -0.854289 0
M  V30 9455 C 893.321 6.10779 -0.198155 0
M  V30 9456 C 894.319 6.76929 -0.908636 0
M  V30 9457 O 894.007 7.86501 -1.66348 0
M  V30 9458 H 893.739 0.647663 0.193672 0
M  V30 9459 H 896.293 2.05305 -0.0624969 0
M  V30 9460 H 894.523 3.14824 2.2455 0
M  V30 9461 H 896.212 3.51119 2.03642 0
M  V30 9462 H 896.978 4.84968 -0.0554421 0
M  V30 9463 H 892.857 4.47393 1.11178 0
M  V30 9464 H 896.401 6.83215 -1.40937 0
M  V30 9465 H 892.298 6.45072 -0.235114 0
M  V30 9466 H 893.066 8.03078 -1.58141 0
M  V30 9467 N 895.729 -0.261212 1.5542 0
M  V30 9468 C 896.978 -0.989072 1.75785 0
M  V30 9469 C 897.291 -1.8702 0.572961 0
M  V30 9470 O 898.497 -2.63374 0.659289 0
M  V30 9471 C 896.953 -1.80857 3.11157 0
M  V30 9472 C 896.561 -0.975535 4.3725 0
M  V30 9473 C 898.305 -2.53003 3.40866 0
M  V30 9474 C 896.212 -1.7901 5.63657 0
M  V30 9475 H 895.142 -0.373019 0.655266 0
M  V30 9476 H 897.793 -0.244267 1.81867 0
M  V30 9477 H 896.175 -2.59479 2.99144 0
M  V30 9478 H 897.349 -0.232661 4.60212 0
M  V30 9479 H 895.664 -0.368083 4.1477 0
M  V30 9480 H 898.261 -3.14372 4.32521 0
M  V30 9481 H 898.604 -3.23891 2.61535 0
M  V30 9482 H 899.137 -1.81403 3.54031 0
M  V30 9483 H 895.876 -1.12522 6.4577 0
M  V30 9484 H 895.396 -2.50863 5.44819 0
M  V30 9485 H 897.075 -2.36082 6.0239 0
M  V30 9486 N 897.207 -1.48554 -0.526253 0
M  V30 9487 C 898.484 -1.47252 -1.28748 0
M  V30 9488 C 898.864 -0.186245 -2.10277 0
M  V30 9489 O 898.212 0.831954 -2.12816 0
M  V30 9490 C 898.422 -2.73672 -2.16575 0
M  V30 9491 C 899.77 -3.22151 -2.76593 0
M  V30 9492 O 900.794 -2.74614 -2.2686 0
M  V30 9493 O 899.653 -4.04877 -3.67066 0
M  V30 9494 H 896.747 -0.588242 -0.581292 0
M  V30 9495 H 899.293 -1.60792 -0.5426 0
M  V30 9496 H 898.065 -3.58798 -1.56139 0
M  V30 9497 H 897.688 -2.6287 -2.98304 0
M  V30 9498 N 898.685 0.775411 -1.37205 0
M  V30 9499 C 900.096 1.35147 -1.28811 0
M  V30 9500 C 900.447 1.96089 0.0659168 0
M  V30 9501 O 899.572 1.93558 0.967684 0
M  V30 9502 C 900.167 2.45715 -2.33258 0
M  V30 9503 C 898.726 2.99099 -2.2851 0
M  V30 9504 C 897.873 1.72286 -2.17285 0
M  V30 9505 H 900.824 0.575954 -1.4788 0
M  V30 9506 H 900.845 3.251 -1.97712 0
M  V30 9507 H 900.357 2.01331 -3.31795 0
M  V30 9508 H 898.458 3.47868 -1.33485 0
M  V30 9509 H 898.571 3.54962 -3.21774 0
M  V30 9510 H 896.935 1.95068 -1.6377 0
M  V30 9511 H 897.718 1.3001 -3.1773 0
M  V30 9512 N 900.163 1.21714 1.00117 0
M  V30 9513 C 901.44 0.945391 1.71236 0
M  V30 9514 C 901.82 -0.541772 2.0403 0
M  V30 9515 O 901.168 -1.50763 1.71705 0
M  V30 9516 C 901.378 1.83444 2.96899 0
M  V30 9517 C 902.726 2.08558 3.69849 0
M  V30 9518 O 903.75 1.80824 3.06889 0
M  V30 9519 O 902.609 2.55485 4.83104 0
M  V30 9520 H 899.703 0.354834 0.747009 0
M  V30 9521 H 902.249 1.32661 1.05825 0
M  V30 9522 H 901.021 2.84075 2.69105 0
M  V30 9523 H 900.644 1.45428 3.70049 0
M  V30 9524 N 901.641 -1.19671 1.02551 0
M  V30 9525 C 902.869 -1.93233 0.739513 0
M  V30 9526 C 903.284 -1.75298 -0.701158 0
M  V30 9527 O 902.641 -1.07269 -1.47647 0
M  V30 9528 C 902.692 -3.45085 1.07697 0
M  V30 9529 O 902.413 -3.62441 2.46106 0
M  V30 9530 C 903.914 -4.35776 0.813298 0
M  V30 9531 H 901.134 -0.613905 0.270853 0
M  V30 9532 H 903.678 -1.51909 1.36909 0
M  V30 9533 H 901.833 -3.84255 0.492635 0
M  V30 9534 H 902.247 -4.56337 2.58567 0
M  V30 9535 H 903.721 -5.40941 1.09941 0
M  V30 9536 H 904.198 -4.38474 -0.252359 0
M  V30 9537 H 904.804 -4.02282 1.38021 0
M  V30 9538 N 903.119 -0.802921 -1.35613 0
M  V30 9539 C 904.349 -0.393359 -2.02821 0
M  V30 9540 C 904.757 0.999282 -1.60658 0
M  V30 9541 O 904.1 1.65463 -0.797977 0
M  V30 9542 C 904.162 -0.393102 -3.57344 0
M  V30 9543 C 903.826 -1.73563 -4.22759 0
M  V30 9544 C 904.823 -2.69333 -4.44698 0
M  V30 9545 C 902.508 -2.01863 -4.59953 0
M  V30 9546 C 904.502 -3.91589 -5.02928 0
M  V30 9547 C 902.189 -3.24383 -5.17898 0
M  V30 9548 C 903.187 -4.19064 -5.39328 0
M  V30 9549 O 902.875 -5.39422 -5.96053 0
M  V30 9550 H 902.607 -0.158431 -0.657172 0
M  V30 9551 H 905.161 -1.08682 -1.74291 0
M  V30 9552 H 903.391 0.356934 -3.85049 0
M  V30 9553 H 905.08 -0.00635596 -4.059 0
M  V30 9554 H 905.846 -2.48759 -4.16346 0
M  V30 9555 H 901.725 -1.28979 -4.42589 0
M  V30 9556 H 905.269 -4.65502 -5.1957 0
M  V30 9557 H 901.166 -3.44829 -5.45677 0
M  V30 9558 H 901.934 -5.40669 -6.14507 0
M  V30 9559 N 904.597 1.47463 -0.556102 0
M  V30 9560 C 905.507 2.33785 0.195378 0
M  V30 9561 C 906.523 1.48123 0.913 0
M  V30 9562 O 907.699 1.81053 0.882141 0
M  V30 9563 C 904.764 3.24795 1.21282 0
M  V30 9564 C 903.825 4.26346 0.502747 0
M  V30 9565 C 903.058 5.13007 1.47172 0
M  V30 9566 O 903.281 5.02103 2.70646 0
M  V30 9567 O 902.215 5.93588 0.996814 0
M  V30 9568 H 906.041 2.99341 -0.512676 0
M  V30 9569 H 903.626 1.46004 -0.31673 0
M  V30 9570 H 905.508 3.81015 1.80016 0
M  V30 9571 H 904.183 2.61868 1.90282 0
M  V30 9572 H 903.09 3.73889 -0.125757 0
M  V30 9573 H 904.423 4.91984 -0.145779 0
M  V30 9574 N 906.075 0.2925 1.54862 0
M  V30 9575 C 907.352 -0.371946 1.92031 0
M  V30 9576 C 907.732 -1.72363 1.21878 0
M  V30 9577 O 907.08 -2.25779 0.351573 0
M  V30 9578 C 907.29 -0.495027 3.45471 0
M  V30 9579 C 908.638 -0.769855 4.17562 0
M  V30 9580 O 909.662 -0.579168 3.5146 0
M  V30 9581 O 908.521 -1.13561 5.34571 0
M  V30 9582 H 905.615 -0.206463 0.800813 0
M  V30 9583 H 908.161 0.339933 1.6626 0
M  V30 9584 H 906.933 0.455528 3.88639 0
M  V30 9585 H 906.556 -1.2557 3.7725 0
M  V30 9586 N 907.553 -1.57587 0.0200696 0
M  V30 9587 C 908.964 -1.79312 -0.520019 0
M  V30 9588 C 909.315 -0.929475 -1.72787 0
M  V30 9589 O 908.44 -0.137389 -2.15963 0
M  V30 9590 C 909.035 -3.25203 -0.950172 0
M  V30 9591 C 907.594 -3.47954 -1.43543 0
M  V30 9592 C 906.741 -2.74459 -0.395917 0
M  V30 9593 H 909.692 -1.56779 0.246153 0
M  V30 9594 H 909.713 -3.34418 -1.81508 0
M  V30 9595 H 909.225 -3.88035 -0.070883 0
M  V30 9596 H 907.326 -2.90363 -2.33495 0
M  V30 9597 H 907.439 -4.56661 -1.44905 0
M  V30 9598 H 905.803 -2.39669 -0.862022 0
M  V30 9599 H 906.586 -3.40001 0.47475 0
M  V30 9600 N 909.032 0.252966 -1.55557 0
M  V30 9601 C 910.257 1.0038 -1.8149 0
M  V30 9602 C 910.682 1.78397 -0.596318 0
M  V30 9603 O 910.04 1.7551 0.454535 0
M  V30 9604 C 910.088 1.9222 -3.05096 0
M  V30 9605 O 909.192 3.01302 -2.81587 0
M  V30 9606 H 908.533 0.285949 -0.599274 0
M  V30 9607 H 911.063 0.275795 -2.02733 0
M  V30 9608 H 911.073 2.338 -3.34368 0
M  V30 9609 H 909.748 1.34852 -3.93431 0
M  V30 9610 H 908.325 2.63894 -2.63466 0
M  V30 9611 N 910.51 1.48831 0.518367 0
M  V30 9612 C 911.44 1.67119 1.63075 0
M  V30 9613 C 912.421 0.519948 1.61958 0
M  V30 9614 O 913.606 0.753824 1.78972 0
M  V30 9615 C 910.736 1.72158 3.01627 0
M  V30 9616 C 909.69 2.86898 3.17606 0
M  V30 9617 C 909.016 2.77035 4.57335 0
M  V30 9618 C 910.316 4.28057 2.99274 0
M  V30 9619 H 912.01 2.60248 1.48025 0
M  V30 9620 H 909.556 1.2524 0.710694 0
M  V30 9621 H 911.509 1.83539 3.7933 0
M  V30 9622 H 910.233 0.756157 3.17726 0
M  V30 9623 H 908.892 2.75091 2.42323 0
M  V30 9624 H 908.54 1.78438 4.70286 0
M  V30 9625 H 908.24 3.54036 4.6897 0
M  V30 9626 H 909.764 2.904 5.37122 0
M  V30 9627 H 911.178 4.40636 3.6676 0
M  V30 9628 H 909.575 5.06145 3.22393 0
M  V30 9629 H 910.645 4.4371 1.95574 0
M  V30 9630 N 911.988 -0.768124 1.37614 0
M  V30 9631 C 912.951 -1.86314 1.3349 0
M  V30 9632 C 913.951 -1.59025 0.23823 0
M  V30 9633 O 915.141 -1.6704 0.494288 0
M  V30 9634 C 912.273 -3.23519 1.07462 0
M  V30 9635 H 913.466 -1.91382 2.30896 0
M  V30 9636 H 911.019 -0.968267 1.22696 0
M  V30 9637 H 911.754 -3.24127 0.106028 0
M  V30 9638 H 911.539 -3.44719 1.86846 0
M  V30 9639 H 913.029 -4.03597 1.07236 0
M  V30 9640 N 913.466 -1.22244 -0.994698 0
M  V30 9641 C 914.712 -1.04746 -1.73655 0
M  V30 9642 C 915.045 0.41668 -1.89677 0
M  V30 9643 O 914.32 1.30897 -1.43862 0
M  V30 9644 C 914.603 -1.75716 -3.14318 0
M  V30 9645 C 914.456 -3.29714 -3.05955 0
M  V30 9646 C 915.775 -1.50809 -4.13455 0
M  V30 9647 H 912.894 -0.381921 -0.630322 0
M  V30 9648 H 915.536 -1.50559 -1.15897 0
M  V30 9649 H 913.686 -1.3677 -3.63629 0
M  V30 9650 H 915.358 -3.78093 -2.64279 0
M  V30 9651 H 913.601 -3.59484 -2.42804 0
M  V30 9652 H 914.272 -3.74547 -4.05485 0
M  V30 9653 H 916.748 -1.84636 -3.72892 0
M  V30 9654 H 915.624 -2.02964 -5.09997 0
M  V30 9655 H 915.885 -0.440292 -4.39902 0
M  V30 9656 N 914.944 1.19125 -1.03184 0
M  V30 9657 C 915.894 2.20348 -0.585731 0
M  V30 9658 C 916.878 1.56656 0.367109 0
M  V30 9659 O 918.07 1.76003 0.187598 0
M  V30 9660 C 915.199 3.43249 0.0590006 0
M  V30 9661 C 914.285 4.1408 -0.916457 0
M  V30 9662 N 914.676 4.61051 -2.08005 0
M  V30 9663 C 912.974 4.39809 -0.74054 0
M  V30 9664 C 913.675 5.15477 -2.69552 0
M  V30 9665 N 912.651 5.06456 -1.97493 0
M  V30 9666 H 916.453 2.54346 -1.47259 0
M  V30 9667 H 913.967 1.35232 -0.899225 0
M  V30 9668 H 915.964 4.15013 0.396236 0
M  V30 9669 H 914.624 3.1075 0.941507 0
M  V30 9670 H 915.635 4.55782 -2.45934 0
M  V30 9671 H 912.312 4.17397 0.0926238 0
M  V30 9672 H 913.702 5.62088 -3.68112 0
M  V30 9673 N 916.422 0.810101 1.35185 0
M  V30 9674 C 917.332 0.224565 2.33523 0
M  V30 9675 C 918.348 -0.634287 1.62027 0
M  V30 9676 O 919.524 -0.545211 1.9388 0
M  V30 9677 C 916.589 -0.614319 3.41214 0
M  V30 9678 C 915.65 0.265435 4.28479 0
M  V30 9679 C 914.883 -0.533506 5.31027 0
M  V30 9680 O 915.106 -1.7679 5.42311 0
M  V30 9681 O 914.04 0.0774573 6.0185 0
M  V30 9682 H 917.866 1.03815 2.85405 0
M  V30 9683 H 915.451 0.571964 1.38018 0
M  V30 9684 H 917.333 -1.09201 4.07005 0
M  V30 9685 H 916.008 -1.40545 2.91597 0
M  V30 9686 H 914.915 0.790343 3.65656 0
M  V30 9687 H 916.248 1.0206 4.81503 0
M  V30 9688 N 917.9 -1.47166 0.563914 0
M  V30 9689 C 919.147 -2.02456 0.042371 0
M  V30 9690 C 919.475 -1.43753 -1.31016 0
M  V30 9691 O 918.73 -0.585287 -1.86743 0
M  V30 9692 C 919.029 -3.57279 -0.0931797 0
M  V30 9693 C 918.695 -4.34932 1.18933 0
M  V30 9694 C 917.357 -4.55867 1.54073 0
M  V30 9695 C 919.709 -4.79665 2.03889 0
M  V30 9696 C 917.037 -5.18785 2.74005 0
M  V30 9697 C 919.389 -5.43907 3.23029 0
M  V30 9698 C 918.053 -5.63074 3.58475 0
M  V30 9699 H 917.323 -0.740838 0.0155047 0
M  V30 9700 H 919.97 -1.76759 0.736776 0
M  V30 9701 H 918.275 -3.82005 -0.870596 0
M  V30 9702 H 919.972 -3.97716 -0.512176 0
M  V30 9703 H 916.562 -4.18921 0.905718 0
M  V30 9704 H 920.746 -4.63264 1.78046 0
M  V30 9705 H 916.002 -5.31818 3.01628 0
M  V30 9706 H 920.176 -5.77531 3.89141 0
M  V30 9707 H 917.803 -6.11598 4.515 0
M  V30 9708 N 919.378 -0.300708 -1.54705 0
M  V30 9709 C 920.341 0.562648 -2.22187 0
M  V30 9710 C 921.341 1.06152 -1.20782 0
M  V30 9711 O 922.531 0.957596 -1.45519 0
M  V30 9712 C 919.663 1.77899 -2.908 0
M  V30 9713 H 920.856 -0.0269361 -2.99888 0
M  V30 9714 H 918.409 -0.0515412 -1.56215 0
M  V30 9715 H 919.144 2.40841 -2.17177 0
M  V30 9716 H 918.929 1.42892 -3.65136 0
M  V30 9717 H 920.419 2.39236 -3.42281 0
M  V30 9718 N 920.856 1.57574 -0.0284266 0
M  V30 9719 C 921.803 2.10176 0.953658 0
M  V30 9720 C 922.773 1.00367 1.32347 0
M  V30 9721 O 923.958 1.27783 1.4169 0
M  V30 9722 C 921.098 2.63287 2.231 0
M  V30 9723 C 920.211 3.87102 1.91771 0
M  V30 9724 C 919.346 4.28609 3.13795 0
M  V30 9725 C 918.385 5.45184 2.78282 0
M  V30 9726 N 917.522 5.81851 3.92929 0
M  V30 9727 H 922.362 2.93806 0.498176 0
M  V30 9728 H 919.899 1.45222 0.234302 0
M  V30 9729 H 921.857 2.9217 2.97813 0
M  V30 9730 H 920.487 1.82489 2.66266 0
M  V30 9731 H 919.539 3.64952 1.07303 0
M  V30 9732 H 920.851 4.71892 1.61615 0
M  V30 9733 H 920.005 4.58925 3.96829 0
M  V30 9734 H 918.744 3.42585 3.47112 0
M  V30 9735 H 917.749 5.14563 1.93661 0
M  V30 9736 H 918.974 6.32907 2.46182 0
M  V30 9737 H 916.92 4.98782 4.2609 0
M  V30 9738 H 916.837 6.6128 3.66395 0
M  V30 9739 H 918.105 6.16772 4.76669 0
M  V30 9740 N 922.334 -0.244713 1.55689 0
M  V30 9741 C 923.244 -1.32447 1.93636 0
M  V30 9742 C 924.26 -1.52541 0.837086 0
M  V30 9743 O 925.436 -1.66121 1.13867 0
M  V30 9744 C 922.501 -2.65864 2.22525 0
M  V30 9745 C 921.562 -2.54273 3.45896 0
M  V30 9746 C 920.795 -3.81327 3.73397 0
M  V30 9747 O 921.018 -4.83307 3.02936 0
M  V30 9748 O 919.952 -3.79829 4.66919 0
M  V30 9749 H 923.778 -1.03255 2.85608 0
M  V30 9750 H 921.363 -0.445652 1.42598 0
M  V30 9751 H 923.245 -3.447 2.42404 0
M  V30 9752 H 921.92 -2.94784 1.33731 0
M  V30 9753 H 920.827 -1.73715 3.31321 0
M  V30 9754 H 922.16 -2.30297 4.34999 0
M  V30 9755 N 923.813 -1.49104 -0.510467 0
M  V30 9756 C 925.062 -1.57362 -1.26175 0
M  V30 9757 C 925.375 -0.261218 -1.93848 0
M  V30 9758 O 926.581 -0.222238 -2.70589 0
M  V30 9759 C 925.037 -2.77606 -2.29048 0
M  V30 9760 C 924.645 -4.15567 -1.67357 0
M  V30 9761 C 926.389 -2.95188 -3.05064 0
M  V30 9762 C 924.296 -5.27046 -2.68285 0
M  V30 9763 H 923.226 -0.585887 -0.474608 0
M  V30 9764 H 925.877 -1.75474 -0.536753 0
M  V30 9765 H 924.259 -2.52968 -3.04669 0
M  V30 9766 H 925.433 -4.50304 -0.977924 0
M  V30 9767 H 923.748 -4.03264 -1.03765 0
M  V30 9768 H 926.345 -3.75643 -3.80521 0
M  V30 9769 H 926.688 -2.05385 -3.62108 0
M  V30 9770 H 927.221 -3.19821 -2.36558 0
M  V30 9771 H 923.96 -6.18878 -2.16034 0
M  V30 9772 H 923.48 -4.96774 -3.36118 0
M  V30 9773 H 925.159 -5.55983 -3.30896 0
M  V30 9774 N 925.291 0.760815 -1.38019 0
M  V30 9775 C 926.568 1.5098 -1.24356 0
M  V30 9776 C 926.948 2.10507 0.158169 0
M  V30 9777 O 926.296 1.96455 1.16695 0
M  V30 9778 C 926.506 2.58195 -2.34811 0
M  V30 9779 C 927.854 3.25297 -2.72886 0
M  V30 9780 O 928.878 2.68496 -2.34069 0
M  V30 9781 O 927.737 4.28018 -3.39799 0
M  V30 9782 H 924.831 0.66921 -0.485888 0
M  V30 9783 H 927.377 0.796844 -1.49828 0
M  V30 9784 H 926.149 2.12406 -3.28633 0
M  V30 9785 H 925.772 3.37079 -2.10864 0
M  V30 9786 N 926.769 1.22769 0.988202 0
M  V30 9787 C 928.18 1.0512 1.54294 0
M  V30 9788 C 928.531 -0.383904 1.92407 0
M  V30 9789 O 927.656 -1.26955 1.75246 0
M  V30 9790 C 928.251 1.90198 2.80375 0
M  V30 9791 C 926.81 1.76831 3.32276 0
M  V30 9792 C 925.957 1.86377 2.05326 0
M  V30 9793 H 928.908 1.36546 0.808758 0
M  V30 9794 H 928.929 1.42216 3.52923 0
M  V30 9795 H 928.441 2.9464 2.52605 0
M  V30 9796 H 926.542 0.751412 3.64945 0
M  V30 9797 H 926.655 2.59771 4.02562 0
M  V30 9798 H 925.019 1.2987 2.19103 0
M  V30 9799 H 925.802 2.9236 1.79946 0
M  V30 9800 N 928.247 -1.18576 1.03814 0
M  V30 9801 C 929.472 -1.92978 0.759873 0
M  V30 9802 C 929.897 -1.75514 -0.676486 0
M  V30 9803 O 929.255 -1.06359 -1.46824 0
M  V30 9804 C 929.303 -3.42507 1.12788 0
M  V30 9805 O 928.407 -4.1163 0.251886 0
M  V30 9806 H 927.748 -0.602129 0.279886 0
M  V30 9807 H 930.278 -1.50383 1.3873 0
M  V30 9808 H 930.288 -3.93206 1.08872 0
M  V30 9809 H 928.963 -3.5454 2.17427 0
M  V30 9810 H 927.54 -3.7125 0.350441 0
M  V30 9811 N 929.725 -0.817259 -1.34754 0
M  V30 9812 C 931.141 -0.502309 -1.51489 0
M  V30 9813 C 931.341 0.974568 -1.76364 0
M  V30 9814 O 930.397 1.75924 -1.81127 0
M  V30 9815 C 931.71 -1.35693 -2.68343 0
M  V30 9816 C 933.258 -1.35347 -2.82224 0
M  V30 9817 C 933.733 -2.19244 -4.02114 0
M  V30 9818 N 935.224 -2.16837 -4.09311 0
M  V30 9819 C 935.959 -2.78505 -5.01221 0
M  V30 9820 N 935.455 -3.4914 -5.98392 0
M  V30 9821 N 937.248 -2.68089 -4.94049 0
M  V30 9822 H 929.399 -1.77359 -1.16866 0
M  V30 9823 H 931.662 -0.755476 -0.572678 0
M  V30 9824 H 931.368 -2.40548 -2.56573 0
M  V30 9825 H 931.242 -1.01764 -3.63213 0
M  V30 9826 H 933.629 -0.312727 -2.93438 0
M  V30 9827 H 933.71 -1.7327 -1.88179 0
M  V30 9828 H 933.354 -3.23365 -3.9166 0
M  V30 9829 H 933.284 -1.78675 -4.95361 0
M  V30 9830 H 935.775 -1.65452 -3.39756 0
M  V30 9831 H 936.088 -3.93455 -6.65141 0
M  V30 9832 H 934.433 -3.53246 -5.98533 0
M  V30 9833 H 937.624 -2.12485 -4.17094 0
M  V30 9834 H 937.797 -3.16436 -5.65484 0
M  V30 9835 N 931.203 1.46865 -0.571711 0
M  V30 9836 C 932.452 2.01636 -0.050881 0
M  V30 9837 C 932.765 1.45001 1.31279 0
M  V30 9838 O 933.971 1.91523 1.92435 0
M  V30 9839 C 932.427 3.59877 -0.0404114 0
M  V30 9840 C 932.035 4.25506 -1.40172 0
M  V30 9841 C 933.779 4.22346 0.42705 0
M  V30 9842 C 931.686 5.75795 -1.34958 0
M  V30 9843 H 930.616 0.753846 -0.0152514 0
M  V30 9844 H 933.267 1.68711 -0.721723 0
M  V30 9845 H 931.649 3.89829 0.696374 0
M  V30 9846 H 932.823 4.07178 -2.15737 0
M  V30 9847 H 931.138 3.75086 -1.8083 0
M  V30 9848 H 933.735 5.32499 0.484688 0
M  V30 9849 H 934.078 3.9052 1.44222 0
M  V30 9850 H 934.611 3.9698 -0.255326 0
M  V30 9851 H 931.35 6.12265 -2.3412 0
M  V30 9852 H 930.87 5.96419 -0.635962 0
M  V30 9853 H 932.549 6.38294 -1.05779 0
M  V30 9854 N 932.681 0.308908 1.54543 0
M  V30 9855 C 934.097 -0.0442273 1.59539 0
M  V30 9856 C 934.297 -1.51743 1.32575 0
M  V30 9857 O 933.353 -2.27134 1.10302 0
M  V30 9858 C 934.666 0.360826 2.98527 0
M  V30 9859 C 936.214 0.310252 3.11459 0
M  V30 9860 C 936.689 0.690246 4.52769 0
M  V30 9861 N 938.18 0.643084 4.58714 0
M  V30 9862 C 938.915 0.909483 5.66141 0
M  V30 9863 N 938.411 1.24226 6.81572 0
M  V30 9864 N 940.204 0.836018 5.55848 0
M  V30 9865 H 932.355 1.26893 1.70329 0
M  V30 9866 H 934.618 0.514986 0.795923 0
M  V30 9867 H 934.324 1.38669 3.23209 0
M  V30 9868 H 934.198 -0.281563 3.76148 0
M  V30 9869 H 936.585 -0.706375 2.86521 0
M  V30 9870 H 936.666 0.987373 2.35976 0
M  V30 9871 H 936.31 1.70472 4.78437 0
M  V30 9872 H 936.24 -0.00903075 5.26599 0
M  V30 9873 H 938.731 0.397138 3.75807 0
M  V30 9874 H 939.044 1.4313 7.5943 0
M  V30 9875 H 937.389 1.28038 6.83104 0
M  V30 9876 H 940.58 0.575637 4.64547 0
M  V30 9877 H 940.753 1.047 6.39486 0
M  V30 9878 N 934.159 -1.57557 0.0367827 0
M  V30 9879 C 935.408 -1.91291 -0.639569 0
M  V30 9880 C 935.721 -0.915601 -1.72847 0
M  V30 9881 O 936.927 -1.14447 -2.46199 0
M  V30 9882 C 935.383 -3.39697 -1.18888 0
M  V30 9883 C 934.991 -4.47803 -0.132851 0
M  V30 9884 C 936.735 -3.82487 -1.8413 0
M  V30 9885 C 934.642 -5.87311 -0.694229 0
M  V30 9886 H 933.572 -0.713886 -0.242658 0
M  V30 9887 H 936.223 -1.83209 0.103332 0
M  V30 9888 H 934.605 -3.42736 -1.98363 0
M  V30 9889 H 935.779 -4.56334 0.640009 0
M  V30 9890 H 934.094 -4.14264 0.421264 0
M  V30 9891 H 936.691 -4.84076 -2.27101 0
M  V30 9892 H 937.034 -3.17959 -2.68716 0
M  V30 9893 H 937.567 -3.81903 -1.11332 0
M  V30 9894 H 934.306 -6.55401 0.113667 0
M  V30 9895 H 933.826 -5.82371 -1.4354 0
M  V30 9896 H 935.505 -6.36119 -1.1816 0
M  V30 9897 N 935.637 0.236453 -1.55816 0
M  V30 9898 C 936.547 1.31418 -1.94336 0
M  V30 9899 C 937.563 1.52095 -0.845164 0
M  V30 9900 O 938.739 1.65515 -1.14746 0
M  V30 9901 C 935.804 2.6468 -2.23932 0
M  V30 9902 C 934.865 2.52435 -3.47239 0
M  V30 9903 C 934.098 3.79342 -3.75414 0
M  V30 9904 O 934.321 4.81694 -3.05495 0
M  V30 9905 O 933.255 3.77347 -4.68927 0
M  V30 9906 H 937.081 1.01739 -2.86152 0
M  V30 9907 H 934.666 0.438084 -1.42833 0
M  V30 9908 H 936.548 3.4341 -2.44228 0
M  V30 9909 H 935.223 2.94071 -1.35292 0
M  V30 9910 H 934.13 1.71955 -3.32238 0
M  V30 9911 H 935.463 2.27987 -4.36214 0
M  V30 9912 N 937.115 1.49373 0.502552 0
M  V30 9913 C 938.531 1.36101 0.833591 0
M  V30 9914 C 938.731 0.392911 1.97632 0
M  V30 9915 O 937.787 -0.175975 2.51886 0
M  V30 9916 C 939.1 2.76782 1.17526 0
M  V30 9917 C 940.648 2.85471 1.28356 0
M  V30 9918 C 941.123 4.26915 1.65853 0
M  V30 9919 N 942.614 4.29719 1.72905 0
M  V30 9920 C 943.349 5.36127 2.0336 0
M  V30 9921 N 942.845 6.52782 2.32049 0
M  V30 9922 N 944.638 5.23542 2.04598 0
M  V30 9923 H 936.789 2.10912 -0.251008 0
M  V30 9924 H 939.052 0.946696 -0.0497037 0
M  V30 9925 H 938.758 3.49314 0.408965 0
M  V30 9926 H 938.632 3.1205 2.11907 0
M  V30 9927 H 941.019 2.13177 2.04058 0
M  V30 9928 H 941.1 2.53787 0.320304 0
M  V30 9929 H 940.744 4.99735 0.907022 0
M  V30 9930 H 940.674 4.56063 2.63276 0
M  V30 9931 H 943.165 3.45586 1.529 0
M  V30 9932 H 943.478 7.29701 2.54471 0
M  V30 9933 H 941.823 6.56011 2.29509 0
M  V30 9934 H 945.014 4.31413 1.8166 0
M  V30 9935 H 945.187 6.06565 2.27998 0
M  V30 9936 N 938.594 -0.753485 1.38421 0
M  V30 9937 C 939.84 -1.51485 1.34834 0
M  V30 9938 C 940.173 -1.94102 -0.0615381 0
M  V30 9939 O 939.448 -1.65439 -1.02274 0
M  V30 9940 C 939.731 -2.76736 2.30411 0
M  V30 9941 C 939.584 -2.40256 3.80259 0
M  V30 9942 C 940.903 -3.7876 2.24119 0
M  V30 9943 H 938.022 -0.549534 0.491102 0
M  V30 9944 H 940.664 -0.863006 1.6927 0
M  V30 9945 H 938.814 -3.32357 2.01175 0
M  V30 9946 H 940.486 -1.90409 4.20169 0
M  V30 9947 H 938.729 -1.72714 3.97935 0
M  V30 9948 H 939.4 -3.29869 4.42595 0
M  V30 9949 H 941.876 -3.32679 2.49928 0
M  V30 9950 H 940.752 -4.64092 2.93104 0
M  V30 9951 H 941.013 -4.24352 1.24006 0
M  V30 9952 N 940.072 -1.23292 -0.981677 0
M  V30 9953 C 941.321 -1.05832 -1.71705 0
M  V30 9954 C 941.634 0.40514 -1.91358 0
M  V30 9955 O 942.84 0.699645 -2.6233 0
M  V30 9956 C 941.296 -1.84532 -3.08992 0
M  V30 9957 C 940.904 -3.35199 -2.9723 0
M  V30 9958 C 942.648 -1.75557 -3.86497 0
M  V30 9959 C 940.555 -4.06296 -4.29741 0
M  V30 9960 H 939.485 -0.39241 -0.64384 0
M  V30 9961 H 942.136 -1.47247 -1.09502 0
M  V30 9962 H 940.518 -1.35923 -3.71942 0
M  V30 9963 H 941.692 -3.91286 -2.43377 0
M  V30 9964 H 940.007 -3.44973 -2.332 0
M  V30 9965 H 942.604 -2.25989 -4.84596 0
M  V30 9966 H 942.947 -0.718101 -4.1006 0
M  V30 9967 H 943.48 -2.21771 -3.30246 0
M  V30 9968 H 940.219 -5.10344 -4.11375 0
M  V30 9969 H 939.739 -3.54997 -4.83464 0
M  V30 9970 H 941.418 -4.12519 -4.98434 0
M  V30 9971 N 941.55 1.18024 -1.04442 0
M  V30 9972 C 942.798 1.87727 -0.74854 0
M  V30 9973 C 943.119 1.80975 0.726156 0
M  V30 9974 O 942.389 1.23061 1.52423 0
M  V30 9975 H 940.969 0.694974 -0.273897 0
M  V30 9976 H 943.631 1.43213 -1.32197 0
M  V30 9977 H 942.727 2.93665 -1.05674 0
M  V30 9978 N 943.028 0.824394 1.34319 0
M  V30 9979 C 943.991 0.252696 2.27803 0
M  V30 9980 C 944.991 -0.570254 1.50349 0
M  V30 9981 O 946.181 -0.386145 1.69866 0
M  V30 9982 C 943.313 -0.645575 3.34731 0
M  V30 9983 H 944.506 1.07742 2.79878 0
M  V30 9984 H 942.059 0.596367 1.44475 0
M  V30 9985 H 942.794 -1.4933 2.87873 0
M  V30 9986 H 942.579 -0.0569478 3.92059 0
M  V30 9987 H 944.069 -1.03933 4.0446 0
M  V30 9988 N 944.506 -1.46559 0.579492 0
M  V30 9989 C 945.754 -2.02 0.0637157 0
M  V30 9990 C 946.075 -1.45378 -1.29962 0
M  V30 9991 O 945.345 -0.637262 -1.85245 0
M  V30 9992 H 943.925 -0.746717 0.0205638 0
M  V30 9993 H 946.587 -1.79702 0.754544 0
M  V30 9994 H 945.683 -3.12099 -0.00770254 0
M  V30 9995 N 945.984 -0.3171 -1.54377 0
M  V30 9996 C 946.894 0.560867 -2.27797 0
M  V30 9997 C 947.91 1.13473 -1.31908 0
M  V30 9998 O 949.086 1.15608 -1.64914 0
M  V30 9999 C 946.151 1.70886 -3.0166 0
M  V30 10000 C 945.212 1.16745 -4.13121 0
M  V30 10001 C 944.445 2.26073 -4.83453 0
M  V30 10002 O 944.668 3.46292 -4.53252 0
M  V30 10003 O 943.602 1.91856 -5.70504 0
M  V30 10004 H 947.428 -0.035193 -3.0368 0
M  V30 10005 H 945.013 -0.0830062 -1.49169 0
M  V30 10006 H 946.895 2.37736 -3.47936 0
M  V30 10007 H 945.57 2.29122 -2.28658 0
M  V30 10008 H 944.477 0.464224 -3.71209 0
M  V30 10009 H 945.81 0.630307 -4.88147 0
M  V30 10010 N 947.462 1.57535 -0.0451378 0
M  V30 10011 C 948.709 1.92451 0.629987 0
M  V30 10012 C 949.037 0.92298 1.71206 0
M  V30 10013 O 948.292 -0.0656626 1.9559 0
M  V30 10014 C 948.591 3.34065 1.27024 0
M  V30 10015 C 948.257 4.49785 0.316971 0
M  V30 10016 C 946.919 4.81169 0.0546406 0
M  V30 10017 C 949.271 5.20111 -0.336693 0
M  V30 10018 C 946.599 5.8023 -0.86889 0
M  V30 10019 C 948.951 6.2016 -1.24838 0
M  V30 10020 C 947.615 6.49976 -1.51944 0
M  V30 10021 H 946.885 0.704228 0.230529 0
M  V30 10022 H 949.532 1.91182 -0.110328 0
M  V30 10023 H 947.837 3.31672 2.08568 0
M  V30 10024 H 949.534 3.58359 1.79945 0
M  V30 10025 H 946.124 4.2529 0.531614 0
M  V30 10026 H 950.308 4.96082 -0.147105 0
M  V30 10027 H 945.564 6.0167 -1.08643 0
M  V30 10028 H 949.738 6.73767 -1.76098 0
M  V30 10029 H 947.365 7.26551 -2.2367 0
M  V30 10030 N 948.94 -0.228186 1.55939 0
M  V30 10031 C 950.188 -0.951668 1.78291 0
M  V30 10032 C 950.509 -1.85132 0.612474 0
M  V30 10033 O 949.779 -1.92356 -0.370942 0
M  V30 10034 H 948.359 -0.354388 0.657585 0
M  V30 10035 H 951.021 -0.241635 1.93396 0
M  V30 10036 H 950.117 -1.56239 2.70177 0
M  V30 10037 N 950.418 -1.49637 -0.494624 0
M  V30 10038 C 951.328 -1.69522 -1.62172 0
M  V30 10039 C 952.344 -0.577894 -1.64123 0
M  V30 10040 O 953.52 -0.853382 -1.82426 0
M  V30 10041 C 950.585 -1.7633 -2.9851 0
M  V30 10042 C 949.646 -2.99944 -3.07135 0
M  V30 10043 C 948.879 -3.06419 -4.36971 0
M  V30 10044 O 949.102 -2.20312 -5.26136 0
M  V30 10045 O 948.036 -3.9894 -4.507 0
M  V30 10046 H 951.862 -2.65017 -1.48324 0
M  V30 10047 H 949.447 -1.33454 -0.671603 0
M  V30 10048 H 951.329 -1.83125 -3.7953 0
M  V30 10049 H 950.004 -0.840155 -3.12607 0
M  V30 10050 H 948.911 -2.98664 -2.2528 0
M  V30 10051 H 950.244 -3.9176 -2.97968 0
M  V30 10052 N 951.896 0.746133 -1.38819 0
M  V30 10053 C 953.142 1.50768 -1.35635 0
M  V30 10054 C 953.475 1.94132 0.0512435 0
M  V30 10055 O 952.75 1.65979 1.01396 0
M  V30 10056 C 953.033 2.7551 -2.31875 0
M  V30 10057 C 952.886 2.38236 -3.81528 0
M  V30 10058 C 954.205 3.77566 -2.26124 0
M  V30 10059 H 951.324 0.546922 -0.494009 0
M  V30 10060 H 953.966 0.854017 -1.69725 0
M  V30 10061 H 952.116 3.31285 -2.02935 0
M  V30 10062 H 953.788 1.88178 -4.21173 0
M  V30 10063 H 952.031 1.70601 -3.98846 0
M  V30 10064 H 952.702 3.27517 -4.44339 0
M  V30 10065 H 955.178 3.31349 -2.51689 0
M  V30 10066 H 954.054 4.62531 -2.95561 0
M  V30 10067 H 954.315 4.23689 -1.26254 0
M  V30 10068 N 953.375 1.23811 0.975125 0
M  V30 10069 C 954.615 1.08517 1.73215 0
M  V30 10070 C 954.979 -0.370777 1.88386 0
M  V30 10071 O 956.18 -0.645036 2.60946 0
M  V30 10072 C 954.451 1.79649 3.08968 0
M  V30 10073 S 956.01 1.79993 4.00185 0
M  V30 10074 H 952.828 0.388256 0.595633 0
M  V30 10075 H 955.43 1.57028 1.16458 0
M  V30 10076 H 954.134 2.8471 2.95581 0
M  V30 10077 H 953.665 1.31441 3.70792 0
M  V30 10078 H 955.68 0.862294 4.8865 0
M  V30 10079 N 954.853 -1.17469 1.05066 0
M  V30 10080 C 956.078 -1.92162 0.780298 0
M  V30 10081 C 956.503 -1.76222 -0.657832 0
M  V30 10082 O 955.861 -1.0791 -1.45688 0
M  V30 10083 C 955.909 -3.41292 1.16414 0
M  V30 10084 O 955.013 -4.1134 0.295531 0
M  V30 10085 H 954.354 -0.599127 0.286257 0
M  V30 10086 H 956.884 -1.48903 1.40318 0
M  V30 10087 H 956.894 -3.92029 1.13036 0
M  V30 10088 H 955.569 -3.52214 2.21175 0
M  V30 10089 H 954.146 -3.70857 0.389797 0
M  V30 10090 N 956.331 -0.831506 -1.3388 0
M  V30 10091 C 957.579 -0.422837 -1.97627 0
M  V30 10092 C 957.9 1.01961 -1.6622 0
M  V30 10093 O 957.17 1.70916 -0.957323 0
M  V30 10094 H 955.75 -0.153365 -0.731087 0
M  V30 10095 H 958.412 -1.06284 -1.6337 0
M  V30 10096 H 957.508 -0.548858 -3.07236 0
M  V30 10097 N 957.809 1.4625 -0.587256 0
M  V30 10098 C 959.225 1.57641 -0.249284 0
M  V30 10099 C 959.425 1.58169 1.24839 0
M  V30 10100 O 958.481 1.50109 2.03036 0
M  V30 10101 C 959.794 2.86837 -0.902509 0
M  V30 10102 C 961.342 3.00476 -0.876524 0
M  V30 10103 C 961.817 4.32414 -1.50938 0
M  V30 10104 N 963.308 4.39124 -1.47392 0
M  V30 10105 C 964.043 5.39838 -1.93293 0
M  V30 10106 N 963.539 6.47202 -2.47188 0
M  V30 10107 N 965.332 5.31068 -1.84183 0
M  V30 10108 H 957.483 1.44151 -1.55994 0
M  V30 10109 H 959.746 0.687905 -0.652297 0
M  V30 10110 H 959.452 2.92274 -1.95624 0
M  V30 10111 H 959.326 3.74927 -0.413466 0
M  V30 10112 H 961.713 2.94618 0.168601 0
M  V30 10113 H 961.794 2.1385 -1.40363 0
M  V30 10114 H 961.438 4.3903 -2.55372 0
M  V30 10115 H 961.368 5.17823 -0.957455 0
M  V30 10116 H 963.859 3.62138 -1.08002 0
M  V30 10117 H 964.172 7.20269 -2.80058 0
M  V30 10118 H 962.517 6.48009 -2.51216 0
M  V30 10119 H 965.708 4.46095 -1.41833 0
M  V30 10120 H 965.881 6.09414 -2.2027 0
M  V30 10121 N 959.287 0.325282 1.54207 0
M  V30 10122 C 960.217 -0.532574 2.27345 0
M  V30 10123 C 961.198 -1.11791 1.28206 0
M  V30 10124 O 962.383 -1.14272 1.57021 0
M  V30 10125 C 959.513 -1.69274 3.03255 0
M  V30 10126 C 958.467 -1.23662 4.09746 0
M  V30 10127 C 957.793 -2.48386 4.73506 0
M  V30 10128 C 959.093 -0.350244 5.21124 0
M  V30 10129 H 960.787 0.0775108 2.993 0
M  V30 10130 H 958.333 0.0387193 1.43948 0
M  V30 10131 H 960.286 -2.29917 3.53152 0
M  V30 10132 H 959.01 -2.32944 2.28921 0
M  V30 10133 H 957.669 -0.653106 3.60735 0
M  V30 10134 H 957.317 -3.10424 3.95786 0
M  V30 10135 H 957.017 -2.18558 5.45441 0
M  V30 10136 H 958.541 -3.09789 5.26178 0
M  V30 10137 H 959.955 -0.863011 5.66767 0
M  V30 10138 H 958.352 -0.14466 5.99926 0
M  V30 10139 H 959.422 0.618457 4.8094 0
M  V30 10140 N 960.765 -1.57509 0.0534917 0
M  V30 10141 C 961.712 -2.11667 -0.920101 0
M  V30 10142 C 962.682 -1.0246 -1.30733 0
M  V30 10143 O 963.867 -1.30021 -1.39639 0
M  V30 10144 C 961.007 -2.66803 -2.18883 0
M  V30 10145 C 960.12 -3.90104 -1.85588 0
M  V30 10146 C 959.255 -4.33547 -3.06937 0
M  V30 10147 C 958.294 -5.49542 -2.69573 0
M  V30 10148 N 957.431 -5.88029 -3.83623 0
M  V30 10149 H 962.271 -2.94562 -0.451371 0
M  V30 10150 H 959.808 -1.45576 -0.211168 0
M  V30 10151 H 961.766 -2.96871 -2.93127 0
M  V30 10152 H 960.396 -1.86702 -2.63329 0
M  V30 10153 H 959.448 -3.66613 -1.01484 0
M  V30 10154 H 960.76 -4.74404 -1.54087 0
M  V30 10155 H 959.914 -4.6518 -3.89477 0
M  V30 10156 H 958.653 -3.48064 -3.41618 0
M  V30 10157 H 957.658 -5.17579 -1.8545 0
M  V30 10158 H 958.883 -6.36743 -2.36082 0
M  V30 10159 H 956.829 -5.05498 -4.181 0
M  V30 10160 H 956.746 -6.67025 -3.55828 0
M  V30 10161 H 958.014 -6.24277 -4.66796 0
M  V30 10162 N 962.243 0.219913 -1.56058 0
M  V30 10163 C 963.471 0.960915 -1.83232 0
M  V30 10164 C 963.886 1.77878 -0.632828 0
M  V30 10165 O 963.243 1.78093 0.398624 0
M  V30 10166 C 963.294 1.87716 -3.08942 0
M  V30 10167 O 963.015 1.09235 -4.24263 0
M  V30 10168 C 964.516 2.73192 -3.49115 0
M  V30 10169 H 961.736 0.281546 -0.609075 0
M  V30 10170 H 964.28 0.234648 -2.03149 0
M  V30 10171 H 962.435 2.55736 -2.90995 0
M  V30 10172 H 962.849 1.71446 -4.95688 0
M  V30 10173 H 964.323 3.33181 -4.40107 0
M  V30 10174 H 964.8 3.45668 -2.70943 0
M  V30 10175 H 965.406 2.10583 -3.69506 0
M  V30 10176 N 963.721 1.49897 0.486681 0
M  V30 10177 C 965.132 1.53142 1.06792 0
M  V30 10178 C 965.483 0.325856 1.93475 0
M  V30 10179 O 964.608 -0.562893 2.08951 0
M  V30 10180 C 965.203 2.77514 1.94348 0
M  V30 10181 C 963.762 2.83491 2.47609 0
M  V30 10182 C 962.909 2.47239 1.2557 0
M  V30 10183 H 965.86 1.56387 0.269962 0
M  V30 10184 H 965.881 2.58487 2.79221 0
M  V30 10185 H 965.393 3.65239 1.31232 0
M  V30 10186 H 963.494 2.0008 3.14323 0
M  V30 10187 H 963.607 3.86011 2.83782 0
M  V30 10188 H 961.971 1.99332 1.58552 0
M  V30 10189 H 962.754 3.37255 0.641404 0
M  V30 10190 N 965.199 -0.738761 1.39212 0
M  V30 10191 C 966.447 -1.49529 1.35962 0
M  V30 10192 C 966.768 -1.94948 -0.0450152 0
M  V30 10193 O 966.038 -1.68717 -0.995552 0
M  V30 10194 H 964.618 -0.554692 0.500326 0
M  V30 10195 H 967.28 -0.877255 1.74041 0
M  V30 10196 H 966.376 -2.37919 2.01993 0
M  V30 10197 N 966.677 -1.24326 -0.968545 0
M  V30 10198 C 967.624 -1.0349 -2.06297 0
M  V30 10199 C 968.594 0.0515333 -1.6602 0
M  V30 10200 O 969.779 -0.102924 -1.90522 0
M  V30 10201 C 966.919 -0.64487 -3.39021 0
M  V30 10202 C 966.032 -1.80469 -3.92498 0
M  V30 10203 C 965.167 -1.36032 -5.13487 0
M  V30 10204 C 964.206 -2.49014 -5.59159 0
M  V30 10205 N 963.343 -2.05451 -6.71367 0
M  V30 10206 H 968.183 -1.97161 -2.23454 0
M  V30 10207 H 965.72 -0.982028 -1.0952 0
M  V30 10208 H 967.678 -0.399771 -4.1528 0
M  V30 10209 H 966.308 0.254845 -3.21792 0
M  V30 10210 H 965.36 -2.16348 -3.12886 0
M  V30 10211 H 966.672 -2.65365 -4.22354 0
M  V30 10212 H 965.826 -1.07405 -5.97117 0
M  V30 10213 H 964.565 -0.481887 -4.85313 0
M  V30 10214 H 963.57 -2.78402 -4.74102 0
M  V30 10215 H 964.795 -3.37413 -5.89346 0
M  V30 10216 H 962.741 -1.20004 -6.4493 0
M  V30 10217 H 962.658 -2.83901 -7.00668 0
M  V30 10218 H 963.926 -1.79962 -7.58442 0
M  V30 10219 N 968.156 1.1691 -1.05688 0
M  V30 10220 C 969.572 1.39288 -0.779167 0
M  V30 10221 C 969.772 1.91587 0.624231 0
M  V30 10222 O 968.828 2.11072 1.38582 0
M  V30 10223 C 970.141 2.37914 -1.83895 0
M  V30 10224 C 971.689 2.51611 -1.86175 0
M  V30 10225 C 972.164 3.53514 -2.9119 0
M  V30 10226 N 973.655 3.61036 -2.90184 0
M  V30 10227 C 974.39 4.39657 -3.68088 0
M  V30 10228 N 973.886 5.21752 -4.55793 0
M  V30 10229 N 975.679 4.3458 -3.56507 0
M  V30 10230 H 967.83 0.81296 -1.96226 0
M  V30 10231 H 970.093 0.419818 -0.849975 0
M  V30 10232 H 969.799 2.06568 -2.84645 0
M  V30 10233 H 969.673 3.37483 -1.68479 0
M  V30 10234 H 972.06 2.82264 -0.86087 0
M  V30 10235 H 972.141 1.52099 -2.05668 0
M  V30 10236 H 971.785 3.23599 -3.91467 0
M  V30 10237 H 971.715 4.52742 -2.68947 0
M  V30 10238 H 974.206 3.02428 -2.26596 0
M  V30 10239 H 974.519 5.78939 -5.11907 0
M  V30 10240 H 972.864 5.21116 -4.59851 0
M  V30 10241 H 976.055 3.69501 -2.87379 0
M  V30 10242 H 976.228 4.95607 -4.17466 0
M  V30 10243 N 969.634 0.838594 1.33437 0
M  V30 10244 C 970.544 0.274048 2.32994 0
M  V30 10245 C 971.56 -0.599776 1.63336 0
M  V30 10246 O 972.736 -0.503963 1.94993 0
M  V30 10247 C 969.801 -0.541804 3.4244 0
M  V30 10248 C 968.862 0.356262 4.27819 0
M  V30 10249 C 968.095 -0.420747 5.32039 0
M  V30 10250 O 968.318 -1.65247 5.45939 0
M  V30 10251 O 967.252 0.205101 6.0155 0
M  V30 10252 H 971.078 1.09846 2.83139 0
M  V30 10253 H 968.663 0.601111 1.36774 0
M  V30 10254 H 970.545 -1.00544 4.0923 0
M  V30 10255 H 969.22 -1.34328 2.94513 0
M  V30 10256 H 968.127 0.867726 3.63897 0
M  V30 10257 H 969.46 1.1225 4.79229 0
M  V30 10258 N 971.112 -1.45937 0.595003 0
M  V30 10259 C 972.361 -2.01529 0.0829531 0
M  V30 10260 C 972.674 -1.47071 -1.28955 0
M  V30 10261 O 973.88 -1.94561 -1.89363 0
M  V30 10262 C 972.336 -3.59767 0.0976597 0
M  V30 10263 C 971.944 -4.23223 1.46924 0
M  V30 10264 C 973.688 -4.22972 -0.359805 0
M  V30 10265 C 971.595 -5.73576 1.44101 0
M  V30 10266 H 970.525 -0.753508 0.0272425 0
M  V30 10267 H 973.176 -1.67541 0.748473 0
M  V30 10268 H 971.558 -3.90888 -0.634268 0
M  V30 10269 H 972.732 -4.03695 2.22187 0
M  V30 10270 H 971.047 -3.72161 1.86775 0
M  V30 10271 H 973.644 -5.33202 -0.39991 0
M  V30 10272 H 973.987 -3.92765 -1.37991 0
M  V30 10273 H 974.52 -3.96523 0.31845 0
M  V30 10274 H 971.259 -6.08462 2.43831 0
M  V30 10275 H 970.779 -5.95332 0.730767 0
M  V30 10276 H 972.458 -6.36531 1.1592 0
M  V30 10277 N 972.59 -0.333456 -1.54032 0
M  V30 10278 C 974.001 0.15256 -1.86076 0
M  V30 10279 C 974.352 1.50819 -1.25492 0
M  V30 10280 O 973.477 2.08903 -0.564665 0
M  V30 10281 C 974.072 0.283599 -3.37611 0
M  V30 10282 C 972.631 0.713841 -3.69569 0
M  V30 10283 C 971.778 -0.158515 -2.76847 0
M  V30 10284 H 974.729 -0.553404 -1.48738 0
M  V30 10285 H 974.75 1.11284 -3.63863 0
M  V30 10286 H 974.262 -0.703193 -3.81676 0
M  V30 10287 H 972.363 1.71002 -3.31042 0
M  V30 10288 H 972.476 0.510731 -4.7637 0
M  V30 10289 H 970.84 0.367531 -2.52034 0
M  V30 10290 H 971.623 -1.14226 -3.2374 0
M  V30 10291 N 974.068 1.57479 -0.061844 0
M  V30 10292 C 975.314 1.93395 0.610443 0
M  V30 10293 C 975.647 0.941334 1.6986 0
M  V30 10294 O 974.922 -0.0310262 1.94475 0
M  V30 10295 C 975.205 3.39636 1.19664 0
M  V30 10296 C 975.058 4.49651 0.115805 0
M  V30 10297 C 976.377 3.86488 2.10512 0
M  V30 10298 H 973.496 0.703262 0.220436 0
M  V30 10299 H 976.138 1.89583 -0.125785 0
M  V30 10300 H 974.288 3.43015 1.82409 0
M  V30 10301 H 975.96 4.58397 -0.516728 0
M  V30 10302 H 974.203 4.30237 -0.55483 0
M  V30 10303 H 974.874 5.49089 0.566176 0
M  V30 10304 H 977.35 3.85052 1.57715 0
M  V30 10305 H 976.226 4.89444 2.48466 0
M  V30 10306 H 976.487 3.23856 3.00948 0
M  V30 10307 N 975.546 -0.211634 1.56173 0
M  V30 10308 C 976.509 -1.24588 1.92381 0
M  V30 10309 C 977.509 -1.39297 0.803311 0
M  V30 10310 O 978.699 -1.37392 1.07094 0
M  V30 10311 C 975.831 -2.61807 2.18335 0
M  V30 10312 H 977.024 -0.936814 2.84893 0
M  V30 10313 H 974.577 -0.452471 1.49607 0
M  V30 10314 H 975.312 -2.97795 1.28407 0
M  V30 10315 H 975.097 -2.52506 2.99972 0
M  V30 10316 H 976.587 -3.3642 2.4741 0
M  V30 10317 N 977.024 -1.50153 -0.478725 0
M  V30 10318 C 978.273 -1.60002 -1.22809 0
M  V30 10319 C 978.586 -0.302277 -1.9325 0
M  V30 10320 O 979.792 -0.279583 -2.70057 0
M  V30 10321 C 978.248 -2.82402 -2.23108 0
M  V30 10322 C 977.856 -4.19023 -1.58505 0
M  V30 10323 C 979.6 -3.01593 -2.98734 0
M  V30 10324 C 977.507 -5.32618 -2.57045 0
M  V30 10325 H 976.437 -0.595822 -0.462073 0
M  V30 10326 H 979.088 -1.76573 -0.499412 0
M  V30 10327 H 977.47 -2.59373 -2.99235 0
M  V30 10328 H 978.644 -4.52277 -0.882187 0
M  V30 10329 H 976.959 -4.05374 -0.951877 0
M  V30 10330 H 979.556 -3.8363 -3.72468 0
M  V30 10331 H 979.899 -2.1302 -3.57671 0
M  V30 10332 H 980.432 -3.24766 -2.29721 0
M  V30 10333 H 977.171 -6.23321 -2.02858 0
M  V30 10334 H 976.691 -5.03792 -3.25505 0
M  V30 10335 H 978.37 -5.62877 -3.19028 0
M  V30 10336 N 978.502 0.731368 -1.39602 0
M  V30 10337 C 979.449 1.84541 -1.38612 0
M  V30 10338 C 980.419 1.64279 -0.245287 0
M  V30 10339 O 981.604 1.85635 -0.440954 0
M  V30 10340 C 978.744 3.22092 -1.23897 0
M  V30 10341 C 977.857 3.54034 -2.47555 0
M  V30 10342 C 976.992 4.81007 -2.25402 0
M  V30 10343 C 976.031 5.05804 -3.44716 0
M  V30 10344 N 975.168 6.23981 -3.21857 0
M  V30 10345 H 980.008 1.84722 -2.33841 0
M  V30 10346 H 977.545 0.902569 -1.16156 0
M  V30 10347 H 979.503 4.01499 -1.13376 0
M  V30 10348 H 978.133 3.2118 -0.322958 0
M  V30 10349 H 977.185 2.69301 -2.68665 0
M  V30 10350 H 978.497 3.68275 -3.36415 0
M  V30 10351 H 977.651 5.68401 -2.12143 0
M  V30 10352 H 976.39 4.68946 -1.33943 0
M  V30 10353 H 975.395 4.1687 -3.58468 0
M  V30 10354 H 976.62 5.19747 -4.37081 0
M  V30 10355 H 974.566 6.13202 -2.33065 0
M  V30 10356 H 974.483 6.38826 -4.04274 0
M  V30 10357 H 975.751 7.14205 -3.123 0
M  V30 10358 N 979.98 1.24838 0.961938 0
M  V30 10359 C 981.208 1.11871 1.74047 0
M  V30 10360 C 981.623 -0.328209 1.85925 0
M  V30 10361 O 980.98 -1.22616 1.35173 0
M  V30 10362 C 981.031 1.75931 3.15801 0
M  V30 10363 O 980.752 3.14967 3.04512 0
M  V30 10364 C 982.253 1.68649 4.09966 0
M  V30 10365 H 979.473 0.390569 0.545616 0
M  V30 10366 H 982.017 1.65058 1.20732 0
M  V30 10367 H 980.172 1.26733 3.66084 0
M  V30 10368 H 980.586 3.46349 3.93882 0
M  V30 10369 H 982.06 2.18144 5.07067 0
M  V30 10370 H 982.537 0.648831 4.34381 0
M  V30 10371 H 983.143 2.17301 3.65596 0
M  V30 10372 N 981.458 -1.16348 1.06306 0
M  V30 10373 C 982.388 -2.2291 0.695234 0
M  V30 10374 C 983.369 -1.67208 -0.312343 0
M  V30 10375 O 984.554 -1.93293 -0.187442 0
M  V30 10376 C 981.684 -3.47205 0.0810149 0
M  V30 10377 C 980.638 -4.15801 1.01458 0
M  V30 10378 C 979.964 -5.3405 0.263656 0
M  V30 10379 C 981.264 -4.66766 2.34365 0
M  V30 10380 H 982.958 -2.53934 1.58613 0
M  V30 10381 H 980.504 -1.22056 0.76409 0
M  V30 10382 H 982.457 -4.2098 -0.18818 0
M  V30 10383 H 981.181 -3.15482 -0.844897 0
M  V30 10384 H 979.84 -3.43954 1.26852 0
M  V30 10385 H 979.488 -4.9858 -0.665378 0
M  V30 10386 H 979.188 -5.80885 0.88582 0
M  V30 10387 H 980.712 -6.106 0.00200994 0
M  V30 10388 H 982.126 -5.3212 2.13356 0
M  V30 10389 H 980.523 -5.24223 2.9208 0
M  V30 10390 H 981.593 -3.82969 2.97426 0
M  V30 10391 N 982.937 -0.845659 -1.3299 0
M  V30 10392 C 983.884 -0.281761 -2.29074 0
M  V30 10393 C 984.854 0.606237 -1.54641 0
M  V30 10394 O 986.039 0.543063 -1.82908 0
M  V30 10395 C 983.179 0.531451 -3.40983 0
M  V30 10396 C 982.292 -0.381328 -4.30314 0
M  V30 10397 C 981.427 0.443643 -5.29344 0
M  V30 10398 C 980.466 -0.467101 -6.10315 0
M  V30 10399 N 979.603 0.320148 -7.0137 0
M  V30 10400 H 984.443 -1.10641 -2.76699 0
M  V30 10401 H 981.98 -0.55706 -1.36144 0
M  V30 10402 H 983.938 1.01848 -4.04577 0
M  V30 10403 H 982.568 1.32101 -2.94532 0
M  V30 10404 H 981.62 -0.986701 -3.6738 0
M  V30 10405 H 982.932 -1.08067 -4.86953 0
M  V30 10406 H 982.086 0.994212 -5.98498 0
M  V30 10407 H 980.825 1.17639 -4.73299 0
M  V30 10408 H 979.83 -1.02963 -5.40073 0
M  V30 10409 H 981.055 -1.19832 -6.68444 0
M  V30 10410 H 979.001 1.03615 -6.47765 0
M  V30 10411 H 978.918 -0.320338 -7.55321 0
M  V30 10412 H 980.186 0.852735 -7.74822 0
M  V30 10413 N 984.415 1.45619 -0.602734 0
M  V30 10414 C 985.663 2.01873 -0.095844 0
M  V30 10415 C 985.984 1.47427 1.27633 0
M  V30 10416 O 985.254 0.666652 1.84208 0
M  V30 10417 H 983.834 0.746295 -0.0324408 0
M  V30 10418 H 986.496 1.78478 -0.783037 0
M  V30 10419 H 985.592 3.12072 -0.0419507 0
M  V30 10420 N 985.893 0.34162 1.53853 0
M  V30 10421 C 987.141 -0.254979 2.00485 0
M  V30 10422 C 987.462 -1.51222 1.23114 0
M  V30 10423 O 986.732 -1.92966 0.337787 0
M  V30 10424 H 985.312 -0.0972084 0.740648 0
M  V30 10425 H 987.974 0.462332 1.89337 0
M  V30 10426 H 987.07 -0.498778 3.08089 0
M  V30 10427 N 987.371 -1.57444 0.0701946 0
M  V30 10428 C 988.321 -2.09154 -0.90767 0
M  V30 10429 C 989.305 -1.00087 -1.25982 0
M  V30 10430 O 990.497 -1.26397 -1.23906 0
M  V30 10431 C 987.626 -2.65544 -2.17581 0
M  V30 10432 C 986.712 -3.81613 -1.85021 0
M  V30 10433 N 987.103 -4.90641 -1.22904 0
M  V30 10434 C 985.401 -3.90878 -2.1478 0
M  V30 10435 C 986.102 -5.71511 -1.084 0
M  V30 10436 N 985.078 -5.1973 -1.59318 0
M  V30 10437 H 988.88 -2.90839 -0.423051 0
M  V30 10438 H 986.394 -1.61848 -0.13374 0
M  V30 10439 H 988.391 -3.00904 -2.88552 0
M  V30 10440 H 987.051 -1.85304 -2.66632 0
M  V30 10441 H 988.062 -5.1004 -0.898878 0
M  V30 10442 H 984.739 -3.21611 -2.66219 0
M  V30 10443 H 986.129 -6.69214 -0.600183 0
M  V30 10444 N 988.849 0.203349 -1.56283 0
M  V30 10445 C 989.782 1.27982 -1.88934 0
M  V30 10446 C 990.76 1.44345 -0.748555 0
M  V30 10447 O 991.944 1.59867 -0.998741 0
M  V30 10448 C 989.071 2.64762 -2.11231 0
M  V30 10449 C 988.117 2.65315 -3.33932 0
M  V30 10450 S 988.95 2.17568 -4.8931 0
M  V30 10451 C 990.106 3.56189 -5.14665 0
M  V30 10452 H 990.339 1.00095 -2.79943 0
M  V30 10453 H 987.872 0.406458 -1.48954 0
M  V30 10454 H 989.83 3.43501 -2.2476 0
M  V30 10455 H 988.491 2.89864 -1.20986 0
M  V30 10456 H 987.684 3.6587 -3.46634 0
M  V30 10457 H 987.286 1.94652 -3.19353 0
M  V30 10458 H 989.578 4.52001 -5.0468 0
M  V30 10459 H 990.521 3.48387 -6.16467 0
M  V30 10460 H 990.929 3.50719 -4.42331 0
M  V30 10461 N 990.327 1.50405 0.470755 0
M  V30 10462 C 991.604 1.51929 1.23195 0
M  V30 10463 C 991.984 0.264159 2.09441 0
M  V30 10464 O 991.332 -0.752395 2.15757 0
M  V30 10465 C 991.542 2.81521 2.06269 0
M  V30 10466 C 992.89 3.32195 2.64446 0
M  V30 10467 O 993.914 2.82845 2.16511 0
M  V30 10468 O 992.773 4.18221 3.51786 0
M  V30 10469 H 989.867 0.609411 0.559059 0
M  V30 10470 H 992.413 1.62695 0.482549 0
M  V30 10471 H 991.185 3.64346 1.42715 0
M  V30 10472 H 990.808 2.7376 2.88342 0
M  V30 10473 N 991.805 -0.723954 1.39988 0
M  V30 10474 C 993.221 -1.03095 1.21834 0
M  V30 10475 C 993.421 -2.01309 0.0876647 0
M  V30 10476 O 992.477 -2.46277 -0.55714 0
M  V30 10477 C 993.79 -1.58267 2.5568 0
M  V30 10478 C 995.338 -1.70293 2.6262 0
M  V30 10479 C 995.813 -2.28872 3.96713 0
M  V30 10480 N 997.304 -2.36269 3.98411 0
M  V30 10481 C 998.039 -2.82557 4.98948 0
M  V30 10482 N 997.535 -3.28661 6.0988 0
M  V30 10483 N 999.328 -2.81866 4.86321 0
M  V30 10484 H 991.479 -0.0727891 2.12275 0
M  V30 10485 H 993.742 -0.0949029 0.943238 0
M  V30 10486 H 993.448 -0.935642 3.39026 0
M  V30 10487 H 993.322 -2.56914 2.76179 0
M  V30 10488 H 995.709 -2.34115 1.7965 0
M  V30 10489 H 995.79 -0.70268 2.45959 0
M  V30 10490 H 995.434 -1.65675 4.80119 0
M  V30 10491 H 995.364 -3.29595 4.107 0
M  V30 10492 H 997.855 -2.03697 3.18302 0
M  V30 10493 H 998.168 -3.62524 6.82493 0
M  V30 10494 H 996.513 -3.26641 6.13458 0
M  V30 10495 H 999.704 -2.45179 3.98754 0
M  V30 10496 H 999.877 -3.17626 5.64817 0
M  V30 10497 N 993.283 -1.25346 -0.955304 0
M  V30 10498 C 994.215 -1.0146 -2.0552 0
M  V30 10499 C 995.228 0.0202256 -1.62787 0
M  V30 10500 O 996.417 -0.218251 -1.77161 0
M  V30 10501 C 993.517 -0.511727 -3.35014 0
M  V30 10502 C 992.69 -1.61256 -4.0659 0
M  V30 10503 C 991.749 -1.11017 -5.14356 0
M  V30 10504 O 990.775 -1.80443 -5.39842 0
M  V30 10505 N 991.977 0.0489001 -5.80479 0
M  V30 10506 H 994.742 -1.96166 -2.26581 0
M  V30 10507 H 992.303 -1.16543 -1.12381 0
M  V30 10508 H 994.295 -0.160123 -4.04383 0
M  V30 10509 H 992.865 0.341377 -3.1073 0
M  V30 10510 H 992.085 -2.13577 -3.31328 0
M  V30 10511 H 993.373 -2.35213 -4.51168 0
M  V30 10512 H 992.771 0.629021 -5.62192 0
M  V30 10513 H 991.328 0.341542 -6.50905 0
M  V30 10514 N 994.761 1.15782 -1.06922 0
M  V30 10515 C 996.177 1.38454 -0.793896 0
M  V30 10516 C 996.377 1.92238 0.603875 0
M  V30 10517 O 995.433 2.1253 1.36335 0
M  V30 10518 C 996.746 2.3595 -1.86408 0
M  V30 10519 C 998.294 2.49622 -1.88833 0
M  V30 10520 C 998.769 3.50406 -2.94923 0
M  V30 10521 N 1000.26 3.57938 -2.93997 0
M  V30 10522 C 1001 4.35728 -3.72731 0
M  V30 10523 N 1000.49 5.16888 -4.61301 0
M  V30 10524 N 1002.28 4.30774 -3.61096 0
M  V30 10525 H 994.435 0.792101 -1.97077 0
M  V30 10526 H 996.698 0.410779 -0.85438 0
M  V30 10527 H 996.404 2.03537 -2.86819 0
M  V30 10528 H 996.278 3.35677 -1.72049 0
M  V30 10529 H 998.665 2.81335 -0.890759 0
M  V30 10530 H 998.746 1.49909 -2.0727 0
M  V30 10531 H 998.39 3.19429 -3.94877 0
M  V30 10532 H 998.32 4.49864 -2.73734 0
M  V30 10533 H 1000.81 3.00007 -2.29791 0
M  V30 10534 H 1001.12 5.73477 -5.18019 0
M  V30 10535 H 999.469 5.16209 -4.65353 0
M  V30 10536 H 1002.66 3.66432 -2.91282 0
M  V30 10537 H 1002.83 4.91151 -4.22699 0
M  V30 10538 N 996.239 0.8527 1.3254 0
M  V30 10539 C 997.655 0.542298 1.50104 0
M  V30 10540 C 997.855 -0.927465 1.78886 0
M  V30 10541 O 996.911 -1.7106 1.85728 0
M  V30 10542 C 998.224 1.4276 2.64651 0
M  V30 10543 C 999.772 1.42782 2.78536 0
M  V30 10544 C 1000.25 2.29828 3.9616 0
M  V30 10545 N 1001.74 2.27613 4.03418 0
M  V30 10546 C 1002.47 2.91696 4.93661 0
M  V30 10547 N 1001.97 3.64883 5.88925 0
M  V30 10548 N 1003.76 2.81094 4.86768 0
M  V30 10549 H 995.913 1.80395 1.12123 0
M  V30 10550 H 998.176 0.770394 0.552446 0
M  V30 10551 H 997.882 2.47266 2.50105 0
M  V30 10552 H 997.756 1.11358 3.60388 0
M  V30 10553 H 1000.14 0.390417 2.92506 0
M  V30 10554 H 1000.22 1.78198 1.83519 0
M  V30 10555 H 999.868 3.33635 3.82949 0
M  V30 10556 H 999.798 1.91746 4.9045 0
M  V30 10557 H 1002.29 1.74402 3.3525 0
M  V30 10558 H 1002.6 4.10952 6.54476 0
M  V30 10559 H 1000.95 3.68991 5.88957 0
M  V30 10560 H 1004.14 2.23469 4.11314 0
M  V30 10561 H 1004.31 3.31318 5.56895 0
M  V30 10562 N 997.718 -1.45297 0.610449 0
M  V30 10563 C 998.995 -1.95562 0.0386189 0
M  V30 10564 C 999.375 -1.55284 -1.43004 0
M  V30 10565 O 998.723 -0.816785 -2.13403 0
M  V30 10566 C 998.933 -3.48176 0.239731 0
M  V30 10567 C 1000.28 -4.24425 0.122035 0
M  V30 10568 O 1001.3 -3.55794 0.170003 0
M  V30 10569 O 1000.16 -5.46499 0.00953695 0
M  V30 10570 H 997.258 -0.826296 -0.0341081 0
M  V30 10571 H 999.804 -1.55449 0.68071 0
M  V30 10572 H 998.576 -3.70471 1.25963 0
M  V30 10573 H 998.199 -3.95186 -0.437486 0
M  V30 10574 N 999.196 -0.349774 -1.5367 0
M  V30 10575 C 1000.44 0.244827 -2.01015 0
M  V30 10576 C 1000.77 1.50057 -1.23746 0
M  V30 10577 O 1000.03 1.9315 -0.314872 0
M  V30 10578 C 1000.32 0.598311 -3.52356 0
M  V30 10579 C 999.991 -0.56127 -4.47393 0
M  V30 10580 C 998.653 -0.879481 -4.73095 0
M  V30 10581 C 1001 -1.3389 -5.03709 0
M  V30 10582 C 998.333 -1.97758 -5.52366 0
M  V30 10583 C 1000.68 -2.4273 -5.84179 0
M  V30 10584 C 999.349 -2.75103 -6.08173 0
M  V30 10585 H 998.619 0.0895884 -0.735564 0
M  V30 10586 H 1001.27 -0.478975 -1.85413 0
M  V30 10587 H 999.571 1.40291 -3.65822 0
M  V30 10588 H 1001.27 1.07036 -3.86451 0
M  V30 10589 H 997.858 -0.303201 -4.27526 0
M  V30 10590 H 1002.04 -1.10632 -4.83812 0
M  V30 10591 H 997.298 -2.23257 -5.6918 0
M  V30 10592 H 1001.47 -3.03412 -6.26828 0
M  V30 10593 H 999.099 -3.60317 -6.69385 0
M  V30 10594 N 1000.67 1.57404 -0.0785433 0
M  V30 10595 C 1001.6 2.16131 0.883726 0
M  V30 10596 C 1002.58 1.09015 1.30575 0
M  V30 10597 O 1003.77 1.3708 1.37559 0
M  V30 10598 C 1000.9 2.72836 2.1489 0
M  V30 10599 C 999.854 3.85178 1.86605 0
M  V30 10600 C 999.18 4.28516 3.1981 0
M  V30 10601 C 1000.48 5.09118 1.16601 0
M  V30 10602 H 1002.17 2.9679 0.394484 0
M  V30 10603 H 999.72 1.42763 0.188304 0
M  V30 10604 H 1001.67 3.12567 2.8263 0
M  V30 10605 H 1000.4 1.89408 2.66068 0
M  V30 10606 H 999.056 3.45962 1.21268 0
M  V30 10607 H 998.704 3.42 3.68843 0
M  V30 10608 H 998.404 5.04249 3.01674 0
M  V30 10609 H 999.928 4.70868 3.88737 0
M  V30 10610 H 1001.34 5.46123 1.74422 0
M  V30 10611 H 999.739 5.90173 1.087 0
M  V30 10612 H 1000.81 4.8468 0.146138 0
M  V30 10613 N 1002.15 -0.195058 1.56388 0
M  V30 10614 C 1003.57 -0.545894 1.49974 0
M  V30 10615 C 1003.77 -1.85851 0.778568 0
M  V30 10616 O 1002.82 -2.50346 0.329105 0
M  V30 10617 C 1004.14 -0.600599 2.94641 0
M  V30 10618 C 1005.68 -0.689429 3.05313 0
M  V30 10619 C 1006.16 -0.775243 4.51391 0
M  V30 10620 N 1007.65 -0.838769 4.55542 0
M  V30 10621 C 1008.39 -0.925337 5.65884 0
M  V30 10622 N 1007.88 -0.974204 6.85916 0
M  V30 10623 N 1009.67 -0.962528 5.53798 0
M  V30 10624 H 1001.83 0.66595 2.0169 0
M  V30 10625 H 1004.09 0.237215 0.917842 0
M  V30 10626 H 1003.79 0.29478 3.50462 0
M  V30 10627 H 1003.67 -1.45528 3.47996 0
M  V30 10628 H 1006.06 -1.57524 2.4954 0
M  V30 10629 H 1006.14 0.191451 2.55083 0
M  V30 10630 H 1005.78 0.106215 5.07789 0
M  V30 10631 H 1005.71 -1.67193 4.99354 0
M  V30 10632 H 1008.2 -0.810249 3.69112 0
M  V30 10633 H 1008.51 -1.04077 7.6576 0
M  V30 10634 H 1006.86 -0.942881 6.88574 0
M  V30 10635 H 1010.05 -0.921188 4.58946 0
M  V30 10636 H 1010.22 -1.02653 6.39817 0
M  V30 10637 N 1003.63 -1.50653 -0.462772 0
M  V30 10638 C 1004.54 -1.72923 -1.58539 0
M  V30 10639 C 1005.56 -0.612577 -1.6286 0
M  V30 10640 O 1006.73 -0.891885 -1.80575 0
M  V30 10641 C 1003.8 -1.82623 -2.94703 0
M  V30 10642 C 1002.86 -3.06392 -3.00704 0
M  V30 10643 C 1002.09 -3.15618 -4.30373 0
M  V30 10644 O 1002.31 -2.31423 -5.21344 0
M  V30 10645 O 1001.25 -4.0841 -4.42136 0
M  V30 10646 H 1005.07 -2.68103 -1.42669 0
M  V30 10647 H 1002.66 -1.34848 -0.643144 0
M  V30 10648 H 1004.54 -1.91134 -3.7556 0
M  V30 10649 H 1003.22 -0.906275 -3.10754 0
M  V30 10650 H 1002.12 -3.03375 -2.18894 0
M  V30 10651 H 1003.46 -3.97992 -2.89591 0
M  V30 10652 N 1005.11 0.71652 -1.4037 0
M  V30 10653 C 1006.07 1.81231 -1.40313 0
M  V30 10654 C 1007.07 1.58032 -0.297087 0
M  V30 10655 O 1008.26 1.65091 -0.555944 0
M  V30 10656 C 1005.39 3.19308 -1.19395 0
M  V30 10657 H 1006.59 1.8268 -2.3784 0
M  V30 10658 H 1004.14 0.922062 -1.26205 0
M  V30 10659 H 1004.87 3.2351 -0.226252 0
M  V30 10660 H 1004.66 3.37546 -1.99512 0
M  V30 10661 H 1006.15 3.99339 -1.22141 0
M  V30 10662 N 1006.59 1.25851 0.948643 0
M  V30 10663 C 1007.81 1.13813 1.73382 0
M  V30 10664 C 1008.24 -0.303615 1.85633 0
M  V30 10665 O 1007.59 -1.21997 1.34114 0
M  V30 10666 C 1007.64 1.80388 3.12238 0
M  V30 10667 O 1006.75 1.08759 3.978 0
M  V30 10668 H 1006.09 0.397006 0.532243 0
M  V30 10669 H 1008.62 1.66529 1.18866 0
M  V30 10670 H 1008.63 1.86913 3.62667 0
M  V30 10671 H 1007.3 2.85278 3.02637 0
M  V30 10672 H 1005.88 1.10157 3.56258 0
M  V30 10673 N 1008.06 -1.15214 1.07534 0
M  V30 10674 C 1009.31 -1.85388 0.794617 0
M  V30 10675 C 1009.63 -1.83331 -0.681838 0
M  V30 10676 O 1010.83 -2.49207 -1.0774 0
M  V30 10677 C 1009.29 -3.32747 1.37141 0
M  V30 10678 C 1008.9 -3.43244 2.87902 0
M  V30 10679 C 1010.64 -4.08093 1.16879 0
M  V30 10680 C 1008.55 -4.84762 3.38763 0
M  V30 10681 H 1007.48 -0.694499 0.293577 0
M  V30 10682 H 1010.13 -1.29944 1.29564 0
M  V30 10683 H 1008.51 -3.87874 0.798121 0
M  V30 10684 H 1009.68 -2.98214 3.51291 0
M  V30 10685 H 1008 -2.81345 3.06975 0
M  V30 10686 H 1010.6 -5.12535 1.52353 0
M  V30 10687 H 1010.94 -4.1616 0.107958 0
M  V30 10688 H 1011.47 -3.59241 1.70854 0
M  V30 10689 H 1008.21 -4.81879 4.4438 0
M  V30 10690 H 1007.73 -5.30366 2.80128 0
M  V30 10691 H 1009.41 -5.53624 3.34827 0
M  V30 10692 N 1009.54 -0.859717 -1.32086 0
M  V30 10693 C 1010.48 -0.252764 -2.26796 0
M  V30 10694 C 1011.45 0.612178 -1.50636 0
M  V30 10695 O 1012.64 0.567865 -1.79743 0
M  V30 10696 C 1009.76 0.643017 -3.3254 0
M  V30 10697 C 1008.81 -0.149211 -4.26239 0
M  V30 10698 S 1009.64 -1.52097 -5.13446 0
M  V30 10699 C 1010.8 -0.631035 -6.22711 0
M  V30 10700 H 1011.03 -1.05563 -2.77928 0
M  V30 10701 H 1008.57 -0.657639 -1.39694 0
M  V30 10702 H 1010.52 1.15418 -3.9394 0
M  V30 10703 H 1009.18 1.41974 -2.80183 0
M  V30 10704 H 1008.38 0.53328 -5.01171 0
M  V30 10705 H 1007.98 -0.592128 -3.69283 0
M  V30 10706 H 1010.27 0.162638 -6.77305 0
M  V30 10707 H 1011.21 -1.35116 -6.95089 0
M  V30 10708 H 1011.62 -0.203131 -5.64134 0
M  V30 10709 N 1011.02 1.44971 -0.618145 0
M  V30 10710 C 1012.27 2.0176 -0.11725 0
M  V30 10711 C 1012.59 1.48773 1.26062 0
M  V30 10712 O 1011.86 0.686152 1.83491 0
M  V30 10713 H 1010.44 0.745909 -0.0403545 0
M  V30 10714 H 1013.1 1.77638 -0.801923 0
M  V30 10715 H 1012.2 3.1201 -0.0750477 0
M  V30 10716 N 1012.5 0.357919 1.53482 0
M  V30 10717 C 1013.43 -0.526753 2.23065 0
M  V30 10718 C 1014.44 -1.05239 1.24212 0
M  V30 10719 O 1015.63 -0.960078 1.50482 0
M  V30 10720 C 1012.73 -1.73919 2.9087 0
M  V30 10721 C 1011.91 -1.34638 4.16163 0
M  V30 10722 C 1010.96 -2.42005 4.67247 0
M  V30 10723 O 1009.99 -2.04714 5.31113 0
M  V30 10724 N 1011.19 -3.73478 4.44404 0
M  V30 10725 H 1013.96 0.0692386 2.9962 0
M  V30 10726 H 1011.52 0.182726 1.60866 0
M  V30 10727 H 1013.51 -2.45207 3.21956 0
M  V30 10728 H 1012.08 -2.24223 2.17814 0
M  V30 10729 H 1011.3 -0.463667 3.91464 0
M  V30 10730 H 1012.59 -1.06012 4.97633 0
M  V30 10731 H 1011.99 -4.06555 3.93357 0
M  V30 10732 H 1010.54 -4.40893 4.80059 0
M  V30 10733 N 1013.98 -1.5736 0.0868897 0
M  V30 10734 C 1015.22 -1.94054 -0.578741 0
M  V30 10735 C 1015.55 -0.968047 -1.68698 0
M  V30 10736 O 1014.81 0.0137824 -1.95695 0
M  V30 10737 C 1015.11 -3.37316 -1.18123 0
M  V30 10738 C 1014.77 -4.50467 -0.197607 0
M  V30 10739 C 1013.43 -4.81145 0.072952 0
M  V30 10740 C 1015.79 -5.19036 0.474473 0
M  V30 10741 C 1013.11 -5.77723 1.02242 0
M  V30 10742 C 1015.47 -6.16632 1.41236 0
M  V30 10743 C 1014.13 -6.45719 1.69124 0
M  V30 10744 H 1013.4 -0.710093 -0.211776 0
M  V30 10745 H 1016.05 -1.90822 0.160978 0
M  V30 10746 H 1014.35 -3.37085 -1.99701 0
M  V30 10747 H 1016.05 -3.63003 -1.7038 0
M  V30 10748 H 1012.64 -4.2655 -0.418669 0
M  V30 10749 H 1016.82 -4.95518 0.278581 0
M  V30 10750 H 1012.08 -5.98578 1.24557 0
M  V30 10751 H 1016.25 -6.68862 1.939 0
M  V30 10752 H 1013.88 -7.20365 2.42855 0
M  V30 10753 N 1015.45 0.186762 -1.56489 0
M  V30 10754 C 1016.73 0.932229 -1.71956 0
M  V30 10755 C 1017.11 2.01037 -0.644006 0
M  V30 10756 O 1016.46 2.259 0.343694 0
M  V30 10757 C 1016.67 1.51106 -3.14592 0
M  V30 10758 C 1018.02 1.98997 -3.75081 0
M  V30 10759 O 1019.04 1.60931 -3.17773 0
M  V30 10760 O 1017.9 2.69067 -4.75673 0
M  V30 10761 H 1014.99 0.437736 -0.701652 0
M  V30 10762 H 1017.54 0.175803 -1.68787 0
M  V30 10763 H 1016.31 0.734327 -3.84348 0
M  V30 10764 H 1015.94 2.33209 -3.22024 0
M  V30 10765 N 1016.93 1.50896 0.454776 0
M  V30 10766 C 1017.88 1.67333 1.54867 0
M  V30 10767 C 1018.87 0.527576 1.52005 0
M  V30 10768 O 1020.06 0.782726 1.58753 0
M  V30 10769 C 1017.19 1.7858 2.93196 0
M  V30 10770 C 1016.27 2.98884 3.0088 0
M  V30 10771 N 1016.66 4.22326 2.78343 0
M  V30 10772 C 1014.96 2.97779 3.32029 0
M  V30 10773 C 1015.66 5.03439 2.91418 0
M  V30 10774 N 1014.64 4.37725 3.22332 0
M  V30 10775 H 1018.44 2.60453 1.36167 0
M  V30 10776 H 1015.96 1.48304 0.661797 0
M  V30 10777 H 1017.95 1.88463 3.7187 0
M  V30 10778 H 1016.61 0.866296 3.1293 0
M  V30 10779 H 1017.62 4.51557 2.53607 0
M  V30 10780 H 1014.3 2.15393 3.57648 0
M  V30 10781 H 1015.69 6.11648 2.78095 0
M  V30 10782 N 1018.41 -0.709066 1.40748 0
M  V30 10783 C 1019.82 -1.28847 1.35112 0
M  V30 10784 C 1020.17 -1.9618 0.0277149 0
M  V30 10785 O 1019.3 -1.97955 -0.874233 0
M  V30 10786 C 1019.89 -2.34306 2.44716 0
M  V30 10787 C 1018.45 -2.87856 2.4252 0
M  V30 10788 C 1017.6 -1.61723 2.25257 0
M  V30 10789 H 1020.55 -0.504742 1.50459 0
M  V30 10790 H 1020.57 -3.15297 2.12998 0
M  V30 10791 H 1020.08 -1.85271 3.41022 0
M  V30 10792 H 1018.18 -3.41103 1.49931 0
M  V30 10793 H 1018.3 -3.39205 3.38344 0
M  V30 10794 H 1016.66 -1.87032 1.7289 0
M  V30 10795 H 1017.44 -1.14703 3.23571 0
M  V30 10796 N 1019.89 -1.26353 -0.941956 0
M  V30 10797 C 1020.84 -1.07654 -2.06188 0
M  V30 10798 C 1021.83 -0.00369741 -1.694 0
M  V30 10799 O 1023.04 -0.160316 -1.79285 0
M  V30 10800 H 1019.41 -0.331274 -0.675101 0
M  V30 10801 H 1021.38 -2.02566 -2.19111 0
M  V30 10802 C 1020.13 -0.725436 -3.40048 0
M  V30 10803 H 1019.46 -1.54283 -3.68832 0
M  V30 10804 H 1020.9 -0.634383 -4.19227 0
M  V30 10805 C 1019.35 0.569369 -3.32054 0
M  V30 10806 O 1019.88 1.60791 -3.68116 0
M  V30 10807 N 1018.09 0.559714 -2.85159 0
M  V30 10808 H 1017.64 -0.285817 -2.56009 0
M  V30 10809 H 1017.6 1.42617 -2.80193 0
M  V30 10810 N 1021.37 1.14642 -1.08144 0
M  V30 10811 C 1022.62 1.84964 -0.804437 0
M  V30 10812 C 1022.93 1.8369 0.672106 0
M  V30 10813 O 1024.14 2.49775 1.06417 0
M  V30 10814 C 1022.59 3.32015 -1.38904 0
M  V30 10815 C 1022.2 3.41713 -2.89718 0
M  V30 10816 C 1023.94 4.07467 -1.19041 0
M  V30 10817 C 1021.85 4.82958 -3.41329 0
M  V30 10818 H 1020.78 0.692932 -0.297256 0
M  V30 10819 H 1023.43 1.29255 -1.30251 0
M  V30 10820 H 1021.81 3.87445 -0.818679 0
M  V30 10821 H 1022.99 2.96347 -3.52867 0
M  V30 10822 H 1021.3 2.79713 -3.08463 0
M  V30 10823 H 1023.9 5.1172 -1.55069 0
M  V30 10824 H 1024.24 4.16097 -0.130027 0
M  V30 10825 H 1024.78 3.58329 -1.72757 0
M  V30 10826 H 1021.51 4.79515 -4.46929 0
M  V30 10827 H 1021.03 5.28873 -2.82937 0
M  V30 10828 H 1022.71 5.51841 -3.37759 0
M  V30 10829 N 1022.85 0.866709 1.31628 0
M  V30 10830 C 1024.09 0.472185 1.96095 0
M  V30 10831 C 1024.41 -0.979873 1.69286 0
M  V30 10832 O 1025.61 -1.48039 2.27589 0
M  V30 10833 C 1024.07 0.793468 3.51044 0
M  V30 10834 C 1023.68 2.26206 3.86697 0
M  V30 10835 C 1025.42 0.467255 4.21921 0
M  V30 10836 C 1023.33 2.52593 5.34743 0
M  V30 10837 H 1022.26 0.172846 0.733921 0
M  V30 10838 H 1024.91 1.05916 1.49847 0
M  V30 10839 H 1023.29 0.135783 3.95767 0
M  V30 10840 H 1024.47 2.96254 3.52945 0
M  V30 10841 H 1022.78 2.55399 3.28877 0
M  V30 10842 H 1025.38 0.641669 5.30836 0
M  V30 10843 H 1025.72 -0.592065 4.12068 0
M  V30 10844 H 1026.25 1.08134 3.82821 0
M  V30 10845 H 1022.99 3.57196 5.49628 0
M  V30 10846 H 1022.51 1.87136 5.6986 0
M  V30 10847 H 1024.19 2.37156 6.01968 0
M  V30 10848 N 1024.32 -1.44642 0.625825 0
M  V30 10849 C 1025.74 -1.56925 0.290992 0
M  V30 10850 C 1025.94 -1.61424 -1.20601 0
M  V30 10851 O 1025 -1.55439 -1.98985 0
M  V30 10852 C 1026.31 -2.84343 0.978242 0
M  V30 10853 C 1027.86 -2.98047 0.955882 0
M  V30 10854 C 1028.33 -4.2826 1.62349 0
M  V30 10855 N 1029.82 -4.35062 1.58983 0
M  V30 10856 C 1030.56 -5.34524 2.07538 0
M  V30 10857 N 1030.05 -6.4042 2.6426 0
M  V30 10858 N 1031.85 -5.25998 1.98198 0
M  V30 10859 H 1024 -1.39965 1.59761 0
M  V30 10860 H 1026.26 -0.670368 0.670306 0
M  V30 10861 H 1025.97 -2.86985 2.03304 0
M  V30 10862 H 1025.84 -3.73699 0.512726 0
M  V30 10863 H 1028.23 -2.94961 -0.0904292 0
M  V30 10864 H 1028.31 -2.10053 1.45984 0
M  V30 10865 H 1027.95 -4.32105 2.66923 0
M  V30 10866 H 1027.88 -5.15102 1.09441 0
M  V30 10867 H 1030.37 -3.59147 1.17565 0
M  V30 10868 H 1030.69 -7.1259 2.99056 0
M  V30 10869 H 1029.03 -6.41121 2.68308 0
M  V30 10870 H 1032.22 -4.42178 1.5361 0
M  V30 10871 H 1032.4 -6.03359 2.3635 0
M  V30 10872 N 1025.8 -0.366053 -1.5329 0
M  V30 10873 C 1026.73 0.47211 -2.28677 0
M  V30 10874 C 1027.71 1.08353 -1.31125 0
M  V30 10875 O 1028.9 1.10069 -1.59995 0
M  V30 10876 C 1026.03 1.61174 -3.07637 0
M  V30 10877 C 1024.98 1.12755 -4.12881 0
M  V30 10878 C 1024.31 2.35745 -4.79925 0
M  V30 10879 C 1025.61 0.211954 -5.2187 0
M  V30 10880 H 1027.3 -0.156838 -2.98989 0
M  V30 10881 H 1024.85 -0.0768709 -1.43795 0
M  V30 10882 H 1026.8 2.20473 -3.59123 0
M  V30 10883 H 1025.52 2.26793 -2.35016 0
M  V30 10884 H 1024.18 0.557234 -3.6234 0
M  V30 10885 H 1023.83 2.99821 -4.03877 0
M  V30 10886 H 1023.53 2.04019 -5.51044 0
M  V30 10887 H 1025.06 2.95729 -5.34207 0
M  V30 10888 H 1026.47 0.71244 -5.68856 0
M  V30 10889 H 1024.87 -0.0144501 -6.00098 0
M  V30 10890 H 1025.94 -0.745753 -4.79131 0
M  V30 10891 N 1027.28 1.57312 -0.0952337 0
M  V30 10892 C 1028.19 2.17556 0.877877 0
M  V30 10893 C 1029.21 1.14505 1.31014 0
M  V30 10894 O 1030.38 1.46876 1.37802 0
M  V30 10895 C 1027.45 2.74413 2.11892 0
M  V30 10896 C 1026.51 3.92419 1.74085 0
M  V30 10897 C 1025.74 4.46556 2.92273 0
M  V30 10898 O 1025.96 3.99631 4.07002 0
M  V30 10899 O 1024.9 5.37576 2.70732 0
M  V30 10900 H 1028.72 3.01116 0.395312 0
M  V30 10901 H 1026.31 1.48841 0.129123 0
M  V30 10902 H 1028.19 3.10754 2.84622 0
M  V30 10903 H 1026.87 1.93899 2.59201 0
M  V30 10904 H 1025.77 3.6089 0.985346 0
M  V30 10905 H 1027.11 4.74298 1.31539 0
M  V30 10906 N 1028.76 -0.17846 1.56586 0
M  V30 10907 C 1030.01 -0.894464 1.81228 0
M  V30 10908 C 1030.33 -1.83089 0.671062 0
M  V30 10909 O 1029.6 -1.93439 -0.309557 0
M  V30 10910 H 1028.18 -0.333288 0.668527 0
M  V30 10911 H 1030.84 -0.179986 1.94067 0
M  V30 10912 H 1029.93 -1.47565 2.75011 0
M  V30 10913 N 1030.24 -1.51135 -0.446768 0
M  V30 10914 C 1031.48 -1.63578 -1.19875 0
M  V30 10915 C 1031.81 -0.346478 -1.91084 0
M  V30 10916 O 1031.09 0.653447 -1.83195 0
M  V30 10917 C 1031.37 -2.83275 -2.22323 0
M  V30 10918 C 1031.23 -4.22155 -1.55259 0
M  V30 10919 C 1032.54 -2.98496 -3.23401 0
M  V30 10920 H 1029.66 -0.595333 -0.434452 0
M  V30 10921 H 1032.31 -1.83593 -0.48923 0
M  V30 10922 H 1030.46 -2.6634 -2.82834 0
M  V30 10923 H 1032.13 -4.50736 -0.981571 0
M  V30 10924 H 1030.37 -4.25288 -0.855122 0
M  V30 10925 H 1031.04 -5.01882 -2.29823 0
M  V30 10926 H 1033.52 -3.14079 -2.72935 0
M  V30 10927 H 1032.39 -3.83828 -3.92386 0
M  V30 10928 H 1032.65 -2.10157 -3.88956 0
M  V30 10929 N 1031.71 0.701592 -1.41122 0
M  V30 10930 C 1032.96 1.46376 -1.40363 0
M  V30 10931 C 1033.29 1.94197 -0.0105442 0
M  V30 10932 O 1032.57 1.69121 0.960637 0
M  V30 10933 C 1032.85 2.67994 -2.40523 0
M  V30 10934 C 1032.7 2.25977 -3.88914 0
M  V30 10935 C 1034.02 3.70181 -2.38022 0
M  V30 10936 H 1031.14 0.530929 -0.511159 0
M  V30 10937 H 1033.78 0.799588 -1.72356 0
M  V30 10938 H 1031.93 3.24661 -2.13372 0
M  V30 10939 H 1033.61 1.74684 -4.26946 0
M  V30 10940 H 1031.85 1.57826 -4.04071 0
M  V30 10941 H 1032.52 3.13215 -4.54533 0
M  V30 10942 H 1035 3.23174 -2.62103 0
M  V30 10943 H 1033.87 4.52894 -3.10127 0
M  V30 10944 H 1034.13 4.19458 -1.3967 0
M  V30 10945 N 1033.19 1.2685 0.935242 0
M  V30 10946 C 1034.42 1.15538 1.71635 0
M  V30 10947 C 1034.83 -0.288698 1.8658 0
M  V30 10948 O 1034.19 -1.19721 1.37743 0
M  V30 10949 C 1034.24 1.8259 3.11999 0
M  V30 10950 O 1033.96 3.21355 2.97763 0
M  V30 10951 C 1035.46 1.77307 4.06297 0
M  V30 10952 H 1032.68 0.402055 0.537208 0
M  V30 10953 H 1035.23 1.67582 1.17203 0
M  V30 10954 H 1033.38 1.3447 3.63313 0
M  V30 10955 H 1033.8 3.54626 3.86446 0
M  V30 10956 H 1035.27 2.28851 5.02326 0
M  V30 10957 H 1035.75 0.740823 4.32907 0
M  V30 10958 H 1036.35 2.25007 3.60904 0
M  V30 10959 N 1034.67 -1.14067 1.0875 0
M  V30 10960 C 1035.62 -2.19261 0.720633 0
M  V30 10961 C 1036.59 -1.63462 -0.294847 0
M  V30 10962 O 1037.77 -1.89967 -0.178058 0
M  V30 10963 C 1034.91 -3.44816 0.139873 0
M  V30 10964 C 1034.03 -4.1475 1.20856 0
M  V30 10965 C 1033.16 -5.27899 0.591285 0
M  V30 10966 C 1032.2 -5.89672 1.64176 0
M  V30 10967 N 1031.34 -6.94264 1.04603 0
M  V30 10968 H 1036.18 -2.49991 1.62198 0
M  V30 10969 H 1033.71 -1.22757 0.810497 0
M  V30 10970 H 1035.67 -4.16648 -0.214587 0
M  V30 10971 H 1034.3 -3.14558 -0.724774 0
M  V30 10972 H 1033.35 -3.41272 1.6804 0
M  V30 10973 H 1034.67 -4.56753 2.00446 0
M  V30 10974 H 1033.82 -6.06417 0.185271 0
M  V30 10975 H 1032.56 -4.87128 -0.236236 0
M  V30 10976 H 1031.56 -5.09854 2.05739 0
M  V30 10977 H 1032.79 -6.32517 2.47182 0
M  V30 10978 H 1030.73 -6.55562 0.239664 0
M  V30 10979 H 1030.65 -7.34771 1.77898 0
M  V30 10980 H 1031.92 -7.7665 0.665989 0
M  V30 10981 N 1036.15 -0.873678 -1.31166 0
M  V30 10982 C 1037.56 -0.566109 -1.49223 0
M  V30 10983 C 1037.76 0.898889 -1.80339 0
M  V30 10984 O 1036.82 1.68084 -1.88425 0
M  V30 10985 C 1038.13 -1.46952 -2.62346 0
M  V30 10986 C 1039.68 -1.47195 -2.76229 0
M  V30 10987 C 1040.16 -2.36102 -3.92454 0
M  V30 10988 N 1041.65 -2.34003 -3.99746 0
M  V30 10989 C 1042.38 -2.99513 -4.88958 0
M  V30 10990 N 1041.88 -3.74206 -5.83045 0
M  V30 10991 N 1043.67 -2.88802 -4.82234 0
M  V30 10992 H 1035.82 -1.82156 -1.09239 0
M  V30 10993 H 1038.09 -0.779086 -0.54012 0
M  V30 10994 H 1037.79 -2.51213 -2.4614 0
M  V30 10995 H 1037.67 -1.17077 -3.5857 0
M  V30 10996 H 1040.05 -0.436902 -2.91848 0
M  V30 10997 H 1040.13 -1.81095 -1.80661 0
M  V30 10998 H 1039.78 -3.39685 -3.77593 0
M  V30 10999 H 1039.71 -1.99524 -4.87337 0
M  V30 11000 H 1042.2 -1.79713 -3.32433 0
M  V30 11001 H 1042.51 -4.21312 -6.47855 0
M  V30 11002 H 1040.86 -3.78314 -5.83012 0
M  V30 11003 H 1044.05 -2.29984 -4.07707 0
M  V30 11004 H 1044.22 -3.40136 -5.51554 0
M  V30 11005 N 1037.63 1.44308 -0.633487 0
M  V30 11006 C 1038.85 2.06897 -0.144347 0
M  V30 11007 C 1039.28 1.47045 1.173 0
M  V30 11008 O 1038.63 0.572806 1.72013 0
M  V30 11009 C 1038.68 3.60571 -0.0456324 0
M  V30 11010 O 1037.79 4.0015 0.997682 0
M  V30 11011 H 1037.13 0.658427 -0.0858499 0
M  V30 11012 H 1039.66 1.85142 -0.870833 0
M  V30 11013 H 1039.67 4.07745 0.144178 0
M  V30 11014 H 1038.34 4.03515 -1.0074 0
M  V30 11015 H 1036.92 3.64603 0.782252 0
M  V30 11016 N 1039.1 0.374177 1.53094 0
M  V30 11017 C 1040.35 -0.212816 2.01379 0
M  V30 11018 C 1040.68 -1.48069 1.26118 0
M  V30 11019 O 1039.93 -1.92625 0.345561 0
M  V30 11020 C 1040.23 -0.542179 3.53264 0
M  V30 11021 C 1039.9 0.632375 4.46444 0
M  V30 11022 C 1038.56 0.954635 4.71636 0
M  V30 11023 C 1040.91 1.41887 5.01515 0
M  V30 11024 C 1038.24 2.06521 5.4915 0
M  V30 11025 C 1040.59 2.51993 5.80243 0
M  V30 11026 C 1039.26 2.84744 6.03719 0
M  V30 11027 H 1038.53 -0.0778749 0.736897 0
M  V30 11028 H 1041.17 0.508412 1.84628 0
M  V30 11029 H 1039.48 -1.34454 3.68007 0
M  V30 11030 H 1041.18 -1.00874 3.88105 0
M  V30 11031 H 1037.77 0.371179 4.2699 0
M  V30 11032 H 1041.95 1.18315 4.81991 0
M  V30 11033 H 1037.21 2.32284 5.65557 0
M  V30 11034 H 1041.38 3.13346 6.21922 0
M  V30 11035 H 1039.01 3.70921 6.63568 0
M  V30 11036 N 1040.58 -1.57259 0.103575 0
M  V30 11037 C 1041.99 -1.81816 -0.424239 0
M  V30 11038 C 1042.34 -1.01976 -1.67617 0
M  V30 11039 O 1041.47 -0.251673 -2.14932 0
M  V30 11040 C 1042.06 -3.29783 -0.776453 0
M  V30 11041 C 1040.62 -3.55074 -1.24897 0
M  V30 11042 C 1039.77 -2.76172 -0.249875 0
M  V30 11043 H 1042.72 -1.55254 0.328913 0
M  V30 11044 H 1042.74 -3.43569 -1.63526 0
M  V30 11045 H 1042.25 -3.87865 0.134906 0
M  V30 11046 H 1040.36 -3.02332 -2.17775 0
M  V30 11047 H 1040.47 -4.637 -1.20495 0
M  V30 11048 H 1038.83 -2.43902 -0.733767 0
M  V30 11049 H 1039.62 -3.37007 0.65431 0
M  V30 11050 N 1042.06 0.170153 -1.56679 0
M  V30 11051 C 1043.02 1.19443 -1.95617 0
M  V30 11052 C 1044.02 1.37118 -0.83996 0
M  V30 11053 O 1045.21 1.34504 -1.10699 0
M  V30 11054 C 1042.35 2.55926 -2.25199 0
M  V30 11055 H 1043.54 0.86095 -2.87276 0
M  V30 11056 H 1041.09 0.412646 -1.50755 0
M  V30 11057 H 1041.83 2.94286 -1.36257 0
M  V30 11058 H 1041.61 2.44464 -3.06562 0
M  V30 11059 H 1043.1 3.29742 -2.56242 0
M  V30 11060 N 1043.54 1.5137 0.438746 0
M  V30 11061 C 1044.79 1.63202 1.18524 0
M  V30 11062 C 1045.1 0.353408 1.92381 0
M  V30 11063 O 1046.31 0.351086 2.6922 0
M  V30 11064 C 1044.76 2.88218 2.15542 0
M  V30 11065 C 1044.37 4.23078 1.47339 0
M  V30 11066 C 1046.11 3.09407 2.90633 0
M  V30 11067 C 1044.02 5.39246 2.42833 0
M  V30 11068 H 1042.95 0.607864 0.446114 0
M  V30 11069 H 1045.6 1.77835 0.452421 0
M  V30 11070 H 1043.98 2.67216 2.92253 0
M  V30 11071 H 1045.16 4.54457 0.761964 0
M  V30 11072 H 1043.47 4.07755 0.844065 0
M  V30 11073 H 1046.07 3.9337 3.62165 0
M  V30 11074 H 1046.41 2.22428 3.51897 0
M  V30 11075 H 1046.95 3.30743 2.21029 0
M  V30 11076 H 1043.69 6.2848 1.8626 0
M  V30 11077 H 1043.21 5.12245 3.12034 0
M  V30 11078 H 1044.88 5.71137 3.03992 0
M  V30 11079 N 1045.02 -0.694098 1.41492 0
M  V30 11080 C 1046.26 -1.45127 1.4065 0
M  V30 11081 C 1046.59 -1.94993 0.0170289 0
M  V30 11082 O 1045.86 -1.71799 -0.941372 0
M  V30 11083 H 1044.44 -0.538493 0.51772 0
M  V30 11084 H 1047.1 -0.821441 1.76744 0
M  V30 11085 H 1046.19 -2.31372 2.0946 0
M  V30 11086 N 1046.49 -1.27344 -0.928501 0
M  V30 11087 C 1047.74 -1.13804 -1.67859 0
M  V30 11088 C 1048.07 0.31555 -1.91619 0
M  V30 11089 O 1047.35 1.23087 -1.50599 0
M  V30 11090 C 1047.63 -1.9213 -3.04562 0
M  V30 11091 C 1047.48 -3.45468 -2.88048 0
M  V30 11092 C 1048.8 -1.72513 -4.04879 0
M  V30 11093 H 1045.92 -0.414796 -0.609191 0
M  V30 11094 H 1048.56 -1.5649 -1.07753 0
M  V30 11095 H 1046.71 -1.55853 -3.55868 0
M  V30 11096 H 1048.39 -3.9157 -2.43865 0
M  V30 11097 H 1046.63 -3.71849 -2.23407 0
M  V30 11098 H 1047.3 -3.95515 -3.85061 0
M  V30 11099 H 1049.78 -2.04143 -3.62581 0
M  V30 11100 H 1048.65 -2.29713 -4.98521 0
M  V30 11101 H 1048.91 -0.672856 -4.3695 0
M  V30 11102 N 1047.97 1.13488 -1.09353 0
M  V30 11103 C 1048.88 2.2248 -0.744307 0
M  V30 11104 C 1049.9 1.72145 0.253404 0
M  V30 11105 O 1051.07 2.01176 0.0949339 0
M  V30 11106 C 1048.14 3.46286 -0.16928 0
M  V30 11107 C 1047.2 4.11516 -1.22284 0
M  V30 11108 C 1046.43 5.29412 -0.675161 0
M  V30 11109 O 1046.66 5.68185 0.502182 0
M  V30 11110 O 1045.59 5.8467 -1.42983 0
M  V30 11111 H 1049.42 2.54723 -1.65378 0
M  V30 11112 H 1047 1.21607 -0.867879 0
M  V30 11113 H 1048.88 4.2114 0.14811 0
M  V30 11114 H 1047.56 3.15745 0.713214 0
M  V30 11115 H 1046.47 3.38492 -1.59292 0
M  V30 11116 H 1047.8 4.46186 -2.07796 0
M  V30 11117 N 1049.45 0.880621 1.30701 0
M  V30 11118 C 1050.41 0.349087 2.26526 0
M  V30 11119 C 1051.41 -0.505973 1.52632 0
M  V30 11120 O 1052.6 -0.313751 1.71351 0
M  V30 11121 C 1049.74 -0.503023 3.37168 0
M  V30 11122 H 1050.93 1.19516 2.75056 0
M  V30 11123 H 1048.48 0.657107 1.41816 0
M  V30 11124 H 1049.22 -1.36986 2.93948 0
M  V30 11125 H 1049 0.109389 3.91947 0
M  V30 11126 H 1050.49 -0.866845 4.08504 0
M  V30 11127 N 1050.93 -1.4397 0.641131 0
M  V30 11128 C 1052.18 -2.01946 0.149629 0
M  V30 11129 C 1052.5 -1.50496 -1.23212 0
M  V30 11130 O 1051.76 -0.683453 -1.83378 0
M  V30 11131 C 1052.06 -3.5727 0.0963368 0
M  V30 11132 C 1051.72 -4.28016 1.4182 0
M  V30 11133 C 1050.39 -4.47059 1.78021 0
M  V30 11134 C 1052.74 -4.68183 2.29028 0
M  V30 11135 C 1050.07 -5.03532 3.01119 0
M  V30 11136 C 1052.42 -5.26019 3.51406 0
M  V30 11137 C 1051.08 -5.4328 3.87818 0
M  V30 11138 H 1050.35 -0.738974 0.0547531 0
M  V30 11139 H 1053 -1.72605 0.829436 0
M  V30 11140 H 1051.3 -3.86083 -0.666879 0
M  V30 11141 H 1053 -3.99871 -0.300635 0
M  V30 11142 H 1049.59 -4.13531 1.12651 0
M  V30 11143 H 1053.78 -4.53175 2.02353 0
M  V30 11144 H 1049.03 -5.15082 3.29395 0
M  V30 11145 H 1053.21 -5.56092 4.19208 0
M  V30 11146 H 1050.83 -5.86805 4.83284 0
M  V30 11147 N 1052.41 -0.382291 -1.52893 0
M  V30 11148 C 1053.65 0.201996 -2.03399 0
M  V30 11149 C 1054.01 1.44624 -1.26286 0
M  V30 11150 O 1055.21 2.10723 -1.66881 0
M  V30 11151 C 1053.48 0.470348 -3.54292 0
M  V30 11152 S 1055.04 1.02592 -4.26638 0
M  V30 11153 H 1051.86 0.0575178 -0.70867 0
M  V30 11154 H 1054.46 -0.52902 -1.88206 0
M  V30 11155 H 1053.17 -0.44243 -4.08008 0
M  V30 11156 H 1052.7 1.22998 -3.73678 0
M  V30 11157 H 1054.71 2.30887 -4.3921 0
M  V30 11158 N 1053.89 1.57202 -0.111913 0
M  V30 11159 C 1055.3 1.82039 0.414591 0
M  V30 11160 C 1055.65 1.02863 1.67074 0
M  V30 11161 O 1054.77 0.263068 2.14795 0
M  V30 11162 C 1055.37 3.3019 0.758953 0
M  V30 11163 C 1053.93 3.55732 1.23012 0
M  V30 11164 C 1053.07 2.76301 0.235226 0
M  V30 11165 H 1056.02 1.55078 -0.337142 0
M  V30 11166 H 1056.05 3.44431 1.61701 0
M  V30 11167 H 1055.56 3.87788 -0.155473 0
M  V30 11168 H 1053.66 3.03483 2.16169 0
M  V30 11169 H 1053.77 4.64333 1.18034 0
M  V30 11170 H 1052.14 2.44287 0.720822 0
M  V30 11171 H 1052.92 3.36655 -0.672173 0
M  V30 11172 N 1055.36 -0.161842 1.56767 0
M  V30 11173 C 1056.59 -0.896274 1.87034 0
M  V30 11174 C 1057.01 -1.74617 0.699314 0
M  V30 11175 O 1056.37 -1.77861 -0.351435 0
M  V30 11176 C 1056.42 -1.74105 3.15784 0
M  V30 11177 O 1055.52 -2.84372 2.98674 0
M  V30 11178 H 1054.86 -0.250523 0.614926 0
M  V30 11179 H 1057.39 -0.157127 2.03996 0
M  V30 11180 H 1057.4 -2.13907 3.4743 0
M  V30 11181 H 1056.08 -1.11684 4.00624 0
M  V30 11182 H 1054.66 -2.48084 2.78404 0
M  V30 11183 N 1056.84 -1.516 -0.430713 0
M  V30 11184 C 1058.09 -1.64596 -1.17959 0
M  V30 11185 C 1058.42 -0.365382 -1.91037 0
M  V30 11186 O 1057.67 0.650826 -1.84561 0
M  V30 11187 C 1057.97 -2.804 -2.21609 0
M  V30 11188 C 1057.64 -4.19431 -1.65495 0
M  V30 11189 C 1056.3 -4.57252 -1.49915 0
M  V30 11190 C 1058.65 -5.0616 -1.24304 0
M  V30 11191 C 1055.98 -5.79501 -0.916276 0
M  V30 11192 C 1058.33 -6.28995 -0.674437 0
M  V30 11193 C 1056.99 -6.65582 -0.505591 0
M  V30 11194 H 1056.26 -0.602301 -0.431642 0
M  V30 11195 H 1058.91 -1.8565 -0.469726 0
M  V30 11196 H 1057.22 -2.53595 -2.98658 0
M  V30 11197 H 1058.91 -2.87654 -2.79385 0
M  V30 11198 H 1055.5 -3.89615 -1.78599 0
M  V30 11199 H 1059.69 -4.77541 -1.35159 0
M  V30 11200 H 1054.94 -6.0649 -0.77328 0
M  V30 11201 H 1059.12 -6.95536 -0.346779 0
M  V30 11202 H 1056.74 -7.60182 -0.0518188 0
M  V30 11203 N 1058.32 0.686584 -1.41858 0
M  V30 11204 C 1059.25 1.81264 -1.47193 0
M  V30 11205 C 1060.23 1.66875 -0.329657 0
M  V30 11206 O 1061.42 1.86473 -0.542347 0
M  V30 11207 C 1058.55 3.19472 -1.36216 0
M  V30 11208 C 1057.5 3.4858 -2.48347 0
M  V30 11209 C 1056.83 4.86239 -2.22432 0
M  V30 11210 C 1058.13 3.46653 -3.90678 0
M  V30 11211 H 1059.82 1.77057 -2.41436 0
M  V30 11212 H 1057.37 0.850415 -1.16206 0
M  V30 11213 H 1059.32 3.97969 -1.38558 0
M  V30 11214 H 1058.04 3.24327 -0.384611 0
M  V30 11215 H 1056.7 2.72437 -2.45303 0
M  V30 11216 H 1056.35 4.8773 -1.22999 0
M  V30 11217 H 1056.05 5.06677 -2.97577 0
M  V30 11218 H 1057.57 5.67034 -2.26505 0
M  V30 11219 H 1058.99 4.15139 -3.95389 0
M  V30 11220 H 1057.38 3.78625 -4.65578 0
M  V30 11221 H 1058.45 2.45451 -4.18189 0
M  V30 11222 N 1059.8 1.27835 0.921735 0
M  V30 11223 C 1061.21 1.05369 1.19873 0
M  V30 11224 C 1061.41 -0.208997 2.00413 0
M  V30 11225 O 1060.47 -0.912861 2.35421 0
M  V30 11226 C 1061.78 2.29658 1.94108 0
M  V30 11227 C 1063.33 2.34756 2.07023 0
M  V30 11228 C 1063.81 3.5879 2.84664 0
M  V30 11229 N 1065.3 3.59383 2.9223 0
M  V30 11230 C 1066.03 4.52029 3.52785 0
M  V30 11231 N 1065.53 5.54986 4.14683 0
M  V30 11232 N 1067.32 4.39641 3.50246 0
M  V30 11233 H 1059.47 2.08903 0.383819 0
M  V30 11234 H 1061.73 0.919065 0.232429 0
M  V30 11235 H 1061.44 3.21604 1.4235 0
M  V30 11236 H 1061.31 2.35444 2.94696 0
M  V30 11237 H 1063.7 1.43312 2.57965 0
M  V30 11238 H 1063.78 2.32969 1.05636 0
M  V30 11239 H 1063.43 4.50574 2.34404 0
M  V30 11240 H 1063.36 3.57829 3.86349 0
M  V30 11241 H 1065.85 2.84927 2.48244 0
M  V30 11242 H 1066.16 6.21837 4.58845 0
M  V30 11243 H 1064.51 5.58822 4.13211 0
M  V30 11244 H 1067.7 3.58413 3.01094 0
M  V30 11245 H 1067.87 5.12033 3.97148 0
M  V30 11246 N 1061.28 -1.12907 1.09954 0
M  V30 11247 C 1062.24 -2.16673 0.747364 0
M  V30 11248 C 1063.24 -1.59208 -0.225741 0
M  V30 11249 O 1064.43 -1.742 -0.00322482 0
M  V30 11250 C 1061.56 -3.40735 0.106169 0
M  V30 11251 H 1062.75 -2.49341 1.6664 0
M  V30 11252 H 1060.31 -1.27828 0.899421 0
M  V30 11253 H 1061.04 -3.13661 -0.82384 0
M  V30 11254 H 1060.83 -3.83717 0.806434 0
M  V30 11255 H 1062.32 -4.17414 -0.12464 0
M  V30 11256 N 1062.75 -0.88754 -1.30232 0
M  V30 11257 C 1064 -0.506277 -1.95656 0
M  V30 11258 C 1064.32 0.948191 -1.70395 0
M  V30 11259 O 1063.59 1.66701 -1.02895 0
M  V30 11260 H 1062.17 -0.184235 -0.723924 0
M  V30 11261 H 1064.83 -1.13118 -1.58715 0
M  V30 11262 H 1063.93 -0.678673 -3.04632 0
M  V30 11263 N 1064.23 1.43628 -0.648757 0
M  V30 11264 C 1065.48 2.01864 -0.160336 0
M  V30 11265 C 1065.81 1.51148 1.22412 0
M  V30 11266 O 1065.06 0.693168 1.83013 0
M  V30 11267 C 1065.36 3.57214 -0.115282 0
M  V30 11268 C 1065.03 4.27258 -1.44088 0
M  V30 11269 C 1063.69 4.46109 -1.8039 0
M  V30 11270 C 1066.04 4.66962 -2.31508 0
M  V30 11271 C 1063.37 5.01928 -3.03785 0
M  V30 11272 C 1065.72 5.24148 -3.54191 0
M  V30 11273 C 1064.39 5.41216 -3.90694 0
M  V30 11274 H 1063.66 0.738674 -0.0586712 0
M  V30 11275 H 1066.3 1.72163 -0.838578 0
M  V30 11276 H 1064.61 3.86431 0.646395 0
M  V30 11277 H 1066.3 4.00025 0.279425 0
M  V30 11278 H 1062.89 4.12928 -1.14842 0
M  V30 11279 H 1067.08 4.52095 -2.04753 0
M  V30 11280 H 1062.33 5.13328 -3.32122 0
M  V30 11281 H 1066.51 5.53861 -4.22151 0
M  V30 11282 H 1064.14 5.84234 -4.8639 0
M  V30 11283 N 1065.71 0.390394 1.52688 0
M  V30 11284 C 1066.64 -0.43567 2.294 0
M  V30 11285 C 1067.62 -1.06253 1.32832 0
M  V30 11286 O 1068.81 -1.07509 1.61726 0
M  V30 11287 C 1065.94 -1.56259 3.10162 0
M  V30 11288 C 1064.89 -1.06172 4.14622 0
M  V30 11289 C 1064.22 -2.2808 4.83615 0
M  V30 11290 C 1065.52 -0.128902 5.22141 0
M  V30 11291 H 1067.21 0.204384 2.98702 0
M  V30 11292 H 1064.76 0.0997377 1.43654 0
M  V30 11293 H 1066.71 -2.14732 3.62585 0
M  V30 11294 H 1065.43 -2.23025 2.38595 0
M  V30 11295 H 1064.09 -0.499518 3.63181 0
M  V30 11296 H 1063.74 -2.93358 4.08595 0
M  V30 11297 H 1063.44 -1.95227 5.5422 0
M  V30 11298 H 1064.96 -2.87193 5.38844 0
M  V30 11299 H 1066.38 -0.621849 5.69917 0
M  V30 11300 H 1064.78 0.109919 5.99999 0
M  V30 11301 H 1065.85 0.821884 4.77884 0
M  V30 11302 N 1067.19 -1.57141 0.120249 0
M  V30 11303 C 1068.14 -2.16638 -0.846809 0
M  V30 11304 C 1069.13 -1.11594 -1.27449 0
M  V30 11305 O 1070.34 -1.29895 -1.24608 0
M  V30 11306 H 1066.71 -0.693331 -0.291197 0
M  V30 11307 H 1068.68 -2.96673 -0.320536 0
M  V30 11308 C 1067.43 -2.78134 -2.08655 0
M  V30 11309 H 1066.75 -3.58662 -1.76639 0
M  V30 11310 H 1068.19 -3.23301 -2.74322 0
M  V30 11311 C 1066.65 -1.7528 -2.87713 0
M  V30 11312 O 1067.18 -1.20693 -3.8314 0
M  V30 11313 N 1065.39 -1.45192 -2.51729 0
M  V30 11314 H 1064.94 -1.89773 -1.74195 0
M  V30 11315 H 1064.89 -0.766166 -3.04922 0
M  V30 11316 N 1068.67 0.153526 -1.5685 0
M  V30 11317 C 1069.89 0.886343 -1.87507 0
M  V30 11318 C 1070.32 1.74244 -0.708565 0
M  V30 11319 O 1069.67 1.78045 0.341997 0
M  V30 11320 C 1069.72 1.72428 -3.16703 0
M  V30 11321 O 1068.83 2.82784 -3.00178 0
M  V30 11322 H 1068.17 0.247259 -0.616246 0
M  V30 11323 H 1070.7 0.146306 -2.04076 0
M  V30 11324 H 1070.71 2.12062 -3.4856 0
M  V30 11325 H 1069.38 1.09558 -4.01211 0
M  V30 11326 H 1067.96 2.46604 -2.79716 0
M  V30 11327 N 1070.14 1.51827 0.422667 0
M  V30 11328 C 1071.39 1.6445 1.16786 0
M  V30 11329 C 1071.71 0.373792 1.91995 0
M  V30 11330 O 1072.91 0.379621 2.68833 0
M  V30 11331 C 1071.37 2.90488 2.12473 0
M  V30 11332 C 1070.98 4.24617 1.42844 0
M  V30 11333 C 1072.72 3.12472 2.87335 0
M  V30 11334 C 1070.63 5.41791 2.371 0
M  V30 11335 H 1069.56 0.612561 0.439641 0
M  V30 11336 H 1072.21 1.78305 0.433534 0
M  V30 11337 H 1070.59 2.703 2.89402 0
M  V30 11338 H 1071.76 4.55239 0.71372 0
M  V30 11339 H 1070.08 4.08628 0.800769 0
M  V30 11340 H 1072.68 3.9719 3.57973 0
M  V30 11341 H 1073.02 2.26148 3.49518 0
M  V30 11342 H 1073.55 3.33069 2.17509 0
M  V30 11343 H 1070.29 6.3042 1.79584 0
M  V30 11344 H 1069.81 5.15526 3.06583 0
M  V30 11345 H 1071.49 5.74329 2.97918 0
M  V30 11346 N 1071.62 -0.679052 1.4222 0
M  V30 11347 C 1072.55 -1.80455 1.41311 0
M  V30 11348 C 1073.57 -1.59767 0.312799 0
M  V30 11349 O 1074.76 -1.68964 0.575612 0
M  V30 11350 C 1071.86 -3.17492 1.18541 0
M  V30 11351 C 1071.03 -3.65066 2.40926 0
M  V30 11352 C 1070.09 -4.80823 2.13765 0
M  V30 11353 O 1069.11 -4.91587 2.86934 0
M  V30 11354 N 1070.32 -5.69233 1.13813 0
M  V30 11355 H 1073.08 -1.81722 2.38322 0
M  V30 11356 H 1070.64 -0.861988 1.37045 0
M  V30 11357 H 1072.63 -3.92581 0.982958 0
M  V30 11358 H 1071.2 -3.1115 0.300691 0
M  V30 11359 H 1070.42 -2.80702 2.76767 0
M  V30 11360 H 1071.71 -3.93593 3.22431 0
M  V30 11361 H 1071.11 -5.63185 0.532887 0
M  V30 11362 H 1069.67 -6.44152 0.995554 0
M  V30 11363 N 1073.1 -1.28322 -0.914942 0
M  V30 11364 C 1074.06 -1.12169 -1.99877 0
M  V30 11365 C 1075.06 -0.0617252 -1.60681 0
M  V30 11366 O 1076.25 -0.307405 -1.71466 0
M  V30 11367 C 1073.39 -0.711959 -3.33383 0
M  V30 11368 H 1074.58 -2.08425 -2.15636 0
M  V30 11369 H 1072.13 -1.11291 -1.09745 0
M  V30 11370 H 1072.87 0.251418 -3.23324 0
M  V30 11371 H 1072.65 -1.47764 -3.63192 0
M  V30 11372 H 1074.14 -0.621558 -4.12948 0
M  V30 11373 N 1074.58 1.12322 -1.10551 0
M  V30 11374 C 1075.99 1.6539 -0.8662 0
M  V30 11375 C 1076.34 1.86695 0.603284 0
M  V30 11376 O 1075.47 1.59432 1.46323 0
M  V30 11377 C 1076.06 3.00443 -1.56587 0
M  V30 11378 C 1074.62 3.50456 -1.37323 0
M  V30 11379 C 1073.77 2.25454 -1.61449 0
M  V30 11380 H 1076.72 0.960866 -1.26305 0
M  V30 11381 H 1076.74 3.66972 -1.00557 0
M  V30 11382 H 1076.25 2.84905 -2.63535 0
M  V30 11383 H 1074.35 3.71176 -0.325431 0
M  V30 11384 H 1074.46 4.29839 -2.11601 0
M  V30 11385 H 1072.83 2.32621 -1.03729 0
M  V30 11386 H 1073.61 2.12469 -2.69651 0
M  V30 11387 N 1076.06 0.894434 1.2976 0
M  V30 11388 C 1077.01 0.339611 2.25457 0
M  V30 11389 C 1077.99 -0.537326 1.51663 0
M  V30 11390 O 1079.18 -0.380204 1.72868 0
M  V30 11391 C 1076.31 -0.436494 3.40514 0
M  V30 11392 C 1075.4 0.455065 4.21651 0
M  V30 11393 N 1075.79 1.55988 4.81146 0
M  V30 11394 C 1074.09 0.251893 4.45288 0
M  V30 11395 C 1074.79 2.1117 5.42017 0
M  V30 11396 N 1073.76 1.40541 5.25118 0
M  V30 11397 H 1077.57 1.18365 2.69011 0
M  V30 11398 H 1075.08 0.744895 1.44309 0
M  V30 11399 H 1077.08 -0.850678 4.08129 0
M  V30 11400 H 1075.74 -1.27786 2.98498 0
M  V30 11401 H 1076.75 1.94266 4.80084 0
M  V30 11402 H 1073.42 -0.551536 4.13841 0
M  V30 11403 H 1074.81 3.04 5.99194 0
M  V30 11404 N 1077.53 -1.43282 0.656365 0
M  V30 11405 C 1078.95 -1.85012 0.250475 0
M  V30 11406 C 1079.3 -1.54944 -1.20361 0
M  V30 11407 O 1078.42 -0.999983 -1.9191 0
M  V30 11408 C 1079.02 -3.35827 0.447815 0
M  V30 11409 C 1077.58 -3.76277 0.0962151 0
M  V30 11410 C 1076.72 -2.66988 0.749168 0
M  V30 11411 H 1079.67 -1.3339 0.85982 0
M  V30 11412 H 1079.69 -3.7927 -0.305726 0
M  V30 11413 H 1079.21 -3.5768 1.5062 0
M  V30 11414 H 1077.31 -3.60035 -0.959449 0
M  V30 11415 H 1077.42 -4.76227 0.523875 0
M  V30 11416 H 1075.78 -2.54048 0.18212 0
M  V30 11417 H 1076.57 -2.91669 1.81064 0
M  V30 11418 N 1079.01 -0.398486 -1.52479 0
M  V30 11419 C 1080.26 0.181019 -2.0199 0
M  V30 11420 C 1080.59 1.45691 -1.28405 0
M  V30 11421 O 1079.87 1.90607 -0.387207 0
M  V30 11422 C 1080.15 0.439587 -3.57407 0
M  V30 11423 C 1080 -0.85223 -4.41653 0
M  V30 11424 C 1081.32 1.2263 -4.2267 0
M  V30 11425 H 1078.44 0.0643164 -0.734188 0
M  V30 11426 H 1081.08 -0.52986 -1.82462 0
M  V30 11427 H 1079.23 1.04516 -3.74177 0
M  V30 11428 H 1080.91 -1.48879 -4.36615 0
M  V30 11429 H 1079.15 -1.46555 -4.08294 0
M  V30 11430 H 1079.82 -0.625839 -5.48441 0
M  V30 11431 H 1082.3 0.713722 -4.09933 0
M  V30 11432 H 1081.17 1.37596 -5.31374 0
M  V30 11433 H 1081.43 2.24403 -3.80914 0
M  V30 11434 N 1080.49 1.57075 -0.12858 0
M  V30 11435 C 1081.9 1.82468 0.39526 0
M  V30 11436 C 1082.25 1.0463 1.65973 0
M  V30 11437 O 1081.38 0.285835 2.14504 0
M  V30 11438 C 1081.97 3.30976 0.723889 0
M  V30 11439 C 1080.53 3.57016 1.19232 0
M  V30 11440 C 1079.68 2.76534 0.205907 0
M  V30 11441 H 1082.63 1.54711 -0.353571 0
M  V30 11442 H 1082.65 3.46127 1.58039 0
M  V30 11443 H 1082.16 3.87602 -0.196595 0
M  V30 11444 H 1080.26 3.05758 2.12938 0
M  V30 11445 H 1080.38 4.65558 1.13103 0
M  V30 11446 H 1078.74 2.45038 0.694872 0
M  V30 11447 H 1079.52 3.35923 -0.707842 0
M  V30 11448 N 1081.97 -0.145205 1.5693 0
M  V30 11449 C 1083.22 -0.855822 1.83085 0
M  V30 11450 C 1083.54 -1.81625 0.709747 0
M  V30 11451 O 1082.81 -1.94052 -0.268456 0
M  V30 11452 H 1081.39 -0.319032 0.675446 0
M  V30 11453 H 1084.05 -0.138781 1.94405 0
M  V30 11454 H 1083.15 -1.41698 2.78079 0
M  V30 11455 N 1083.45 -1.52049 -0.414609 0
M  V30 11456 C 1084.7 -1.65511 -1.15977 0
M  V30 11457 C 1085.02 -0.384703 -1.91168 0
M  V30 11458 O 1084.29 0.600247 -1.86477 0
M  V30 11459 H 1082.87 -0.610039 -0.431116 0
M  V30 11460 H 1085.53 -1.8907 -0.473139 0
M  V30 11461 H 1084.62 -2.4936 -1.87686 0
M  V30 11462 N 1084.93 0.6715 -1.42579 0
M  V30 11463 C 1086.17 1.42871 -1.42941 0
M  V30 11464 C 1086.49 1.94941 -0.0480483 0
M  V30 11465 O 1085.76 1.73275 0.913921 0
M  V30 11466 H 1084.34 0.530189 -0.526221 0
M  V30 11467 H 1087.01 0.793219 -1.78028 0
M  V30 11468 H 1086.1 2.2801 -2.13114 0
M  V30 11469 N 1086.4 1.28806 0.908124 0
M  V30 11470 C 1087.63 1.19271 1.69674 0
M  V30 11471 C 1088.05 -0.244403 1.86505 0
M  V30 11472 O 1087.41 -1.17668 1.37927 0
M  V30 11473 C 1087.46 1.9023 3.06341 0
M  V30 11474 O 1086.56 1.2136 3.94139 0
M  V30 11475 H 1085.9 0.413738 0.519343 0
M  V30 11476 H 1088.43 1.70227 1.13508 0
M  V30 11477 H 1088.44 1.98356 3.56537 0
M  V30 11478 H 1087.12 2.94762 2.93408 0
M  V30 11479 H 1085.7 1.21435 3.52573 0
M  V30 11480 N 1087.88 -1.11734 1.11145 0
M  V30 11481 C 1088.81 -2.1976 0.789152 0
M  V30 11482 C 1089.79 -1.68382 -0.241143 0
M  V30 11483 O 1090.98 -1.93914 -0.105292 0
M  V30 11484 C 1088.11 -3.46549 0.228204 0
M  V30 11485 C 1087.06 -4.11123 1.19002 0
M  V30 11486 C 1086.39 -5.32451 0.489928 0
M  V30 11487 C 1087.69 -4.56406 2.53951 0
M  V30 11488 H 1089.38 -2.46978 1.69241 0
M  V30 11489 H 1086.93 -1.18705 0.81517 0
M  V30 11490 H 1088.88 -4.21399 -0.00945908 0
M  V30 11491 H 1087.6 -3.18782 -0.71033 0
M  V30 11492 H 1086.26 -3.38264 1.41326 0
M  V30 11493 H 1085.91 -5.00953 -0.453315 0
M  V30 11494 H 1085.61 -5.76605 1.1314 0
M  V30 11495 H 1087.14 -6.10042 0.260984 0
M  V30 11496 H 1088.55 -5.22592 2.35733 0
M  V30 11497 H 1086.95 -5.11363 3.14051 0
M  V30 11498 H 1088.02 -3.7001 3.13402 0
M  V30 11499 N 1089.36 -0.901303 -1.29284 0
M  V30 11500 C 1090.77 -0.576317 -1.77582 0
M  V30 11501 C 1091.12 0.908078 -1.73921 0
M  V30 11502 O 1090.25 1.71006 -1.32611 0
M  V30 11503 C 1090.84 -1.03938 -3.22463 0
M  V30 11504 C 1089.4 -0.765533 -3.68533 0
M  V30 11505 C 1088.55 -1.21318 -2.49354 0
M  V30 11506 H 1091.5 -1.08386 -1.15923 0
M  V30 11507 H 1091.52 -0.375367 -3.78644 0
M  V30 11508 H 1091.03 -2.11977 -3.25096 0
M  V30 11509 H 1089.13 0.302176 -3.71373 0
M  V30 11510 H 1089.25 -1.36454 -4.59257 0
M  V30 11511 H 1087.61 -0.632141 -2.46731 0
M  V30 11512 H 1088.39 -2.30165 -2.54714 0
M  V30 11513 N 1090.84 1.42931 -0.663954 0
M  V30 11514 C 1092.25 1.84877 -0.260283 0
M  V30 11515 C 1092.6 1.5558 1.19538 0
M  V30 11516 O 1091.72 1.01015 1.91377 0
M  V30 11517 C 1092.32 3.35585 -0.465618 0
M  V30 11518 C 1090.88 3.76221 -0.116169 0
M  V30 11519 C 1090.03 2.66587 -0.763317 0
M  V30 11520 H 1092.98 1.32932 -0.866882 0
M  V30 11521 H 1093 3.79427 0.285608 0
M  V30 11522 H 1092.51 3.56877 -1.52515 0
M  V30 11523 H 1090.61 3.60539 0.940342 0
M  V30 11524 H 1090.72 4.75943 -0.549123 0
M  V30 11525 H 1089.09 2.53948 -0.19559 0
M  V30 11526 H 1089.87 2.90704 -1.82609 0
M  V30 11527 N 1092.32 0.406567 1.52266 0
M  V30 11528 C 1093.73 0.0573228 1.59497 0
M  V30 11529 C 1093.93 -1.43005 1.41957 0
M  V30 11530 O 1092.99 -2.19659 1.24523 0
M  V30 11531 C 1094.3 0.549947 2.95628 0
M  V30 11532 C 1095.85 0.5077 3.08855 0
M  V30 11533 C 1096.32 0.976792 4.47463 0
M  V30 11534 N 1097.81 0.933508 4.53696 0
M  V30 11535 C 1098.55 1.26769 5.59211 0
M  V30 11536 N 1098.05 1.6732 6.72292 0
M  V30 11537 N 1099.84 1.18782 5.49406 0
M  V30 11538 H 1091.99 1.37468 1.61914 0
M  V30 11539 H 1094.25 0.564562 0.76156 0
M  V30 11540 H 1093.96 1.58943 3.13736 0
M  V30 11541 H 1093.83 -0.0417767 3.77177 0
M  V30 11542 H 1096.22 -0.522728 2.90433 0
M  V30 11543 H 1096.3 1.13545 2.29219 0
M  V30 11544 H 1095.94 2.00554 4.66627 0
M  V30 11545 H 1095.87 0.325885 5.25591 0
M  V30 11546 H 1098.37 0.635333 3.72521 0
M  V30 11547 H 1098.68 1.91137 7.4879 0
M  V30 11548 H 1097.02 1.71221 6.73579 0
M  V30 11549 H 1100.21 0.869906 4.59946 0
M  V30 11550 H 1100.39 1.45157 6.31533 0
M  V30 11551 N 1093.79 -1.57004 0.136909 0
M  V30 11552 C 1095.04 -1.94972 -0.51662 0
M  V30 11553 C 1095.36 -1.02367 -1.66674 0
M  V30 11554 O 1096.56 -1.29873 -2.38423 0
M  V30 11555 C 1095.02 -3.4657 -0.970435 0
M  V30 11556 C 1094.63 -4.47741 0.152204 0
M  V30 11557 C 1096.37 -3.93423 -1.59432 0
M  V30 11558 C 1094.28 -5.90537 -0.319315 0
M  V30 11559 H 1093.21 -0.727873 -0.196766 0
M  V30 11560 H 1095.86 -1.82181 0.219637 0
M  V30 11561 H 1094.24 -3.54657 -1.76165 0
M  V30 11562 H 1095.41 -4.5134 0.928925 0
M  V30 11563 H 1093.73 -4.10746 0.683867 0
M  V30 11564 H 1096.33 -4.97539 -1.95856 0
M  V30 11565 H 1096.67 -3.34404 -2.47951 0
M  V30 11566 H 1097.2 -3.8821 -0.868193 0
M  V30 11567 H 1093.94 -6.53352 0.530248 0
M  V30 11568 H 1093.46 -5.90321 -1.06213 0
M  V30 11569 H 1095.14 -6.42346 -0.774662 0
M  V30 11570 N 1095.27 0.136881 -1.57004 0
M  V30 11571 C 1096.68 0.695911 -1.73245 0
M  V30 11572 C 1097.03 1.8118 -0.75288 0
M  V30 11573 O 1096.16 2.16258 0.0782477 0
M  V30 11574 C 1096.75 1.26914 -3.14131 0
M  V30 11575 C 1095.31 1.77463 -3.31939 0
M  V30 11576 C 1094.46 0.667128 -2.69156 0
M  V30 11577 H 1097.41 -0.0888841 -1.58451 0
M  V30 11578 H 1097.43 2.13892 -3.14691 0
M  V30 11579 H 1096.94 0.456754 -3.85403 0
M  V30 11580 H 1095.05 2.61236 -2.65681 0
M  V30 11581 H 1095.16 1.89638 -4.39971 0
M  V30 11582 H 1093.52 1.09629 -2.29899 0
M  V30 11583 H 1094.31 -0.13398 -3.43038 0
M  V30 11584 N 1096.75 1.52266 0.40654 0
M  V30 11585 C 1097.71 1.75168 1.47814 0
M  V30 11586 C 1098.71 0.621575 1.48301 0
M  V30 11587 O 1099.9 0.889476 1.4978 0
M  V30 11588 C 1097.04 1.83642 2.87208 0
M  V30 11589 H 1098.23 2.70834 1.28798 0
M  V30 11590 H 1095.78 1.42722 0.637196 0
M  V30 11591 H 1096.52 0.898994 3.1159 0
M  V30 11592 H 1096.3 2.65801 2.88257 0
M  V30 11593 H 1097.79 2.03093 3.64888 0
M  V30 11594 N 1098.23 -0.663929 1.42933 0
M  V30 11595 C 1099.48 -1.42111 1.43697 0
M  V30 11596 C 1099.8 -1.94913 0.0583858 0
M  V30 11597 O 1099.07 -1.73757 -0.904719 0
M  V30 11598 H 1097.65 -0.527391 0.529026 0
M  V30 11599 H 1100.31 -0.783766 1.78446 0
M  V30 11600 H 1099.41 -2.26877 2.1432 0
M  V30 11601 N 1099.71 -1.29285 -0.901281 0
M  V30 11602 C 1101.12 -1.07263 -1.18182 0
M  V30 11603 C 1101.32 0.177087 -2.0072 0
M  V30 11604 O 1100.38 0.875292 -2.36844 0
M  V30 11605 C 1101.69 -2.32717 -1.9043 0
M  V30 11606 C 1103.24 -2.3802 -2.03262 0
M  V30 11607 C 1103.71 -3.63273 -2.7892 0
M  V30 11608 N 1105.21 -3.63986 -2.86475 0
M  V30 11609 C 1105.94 -4.57585 -3.45549 0
M  V30 11610 N 1105.44 -5.61513 -4.05801 0
M  V30 11611 N 1107.23 -4.45157 -3.43208 0
M  V30 11612 H 1099.38 -2.09487 -0.350536 0
M  V30 11613 H 1101.64 -0.922647 -0.217778 0
M  V30 11614 H 1101.35 -3.23828 -1.37216 0
M  V30 11615 H 1101.22 -2.40102 -2.90913 0
M  V30 11616 H 1103.61 -1.47398 -2.55652 0
M  V30 11617 H 1103.69 -2.3462 -1.01916 0
M  V30 11618 H 1103.34 -4.54246 -2.27206 0
M  V30 11619 H 1103.27 -3.6393 -3.80608 0
M  V30 11620 H 1105.76 -2.8884 -2.43679 0
M  V30 11621 H 1106.07 -6.29058 -4.48894 0
M  V30 11622 H 1104.41 -5.65325 -4.04268 0
M  V30 11623 H 1107.61 -3.63158 -2.95354 0
M  V30 11624 H 1107.78 -5.18286 -3.88952 0
M  V30 11625 N 1101.18 1.11143 -1.11736 0
M  V30 11626 C 1102.6 1.64462 -0.883693 0
M  V30 11627 C 1102.95 1.87324 0.583448 0
M  V30 11628 O 1102.07 1.60975 1.44623 0
M  V30 11629 C 1102.67 2.98765 -1.59764 0
M  V30 11630 C 1101.23 3.4898 -1.41032 0
M  V30 11631 C 1100.37 2.23729 -1.63831 0
M  V30 11632 H 1103.32 0.947415 -1.27317 0
M  V30 11633 H 1103.34 3.65885 -1.04443 0
M  V30 11634 H 1102.86 2.82094 -2.66542 0
M  V30 11635 H 1100.96 3.7081 -0.364781 0
M  V30 11636 H 1101.07 4.27571 -2.16148 0
M  V30 11637 H 1099.43 2.31507 -1.06191 0
M  V30 11638 H 1100.22 2.09597 -2.7189 0
M  V30 11639 N 1102.66 0.908147 1.28804 0
M  V30 11640 C 1103.91 0.539201 1.95501 0
M  V30 11641 C 1104.24 -0.913759 1.7136 0
M  V30 11642 O 1103.52 -1.64904 1.03136 0
M  V30 11643 C 1103.8 0.842372 3.50109 0
M  V30 11644 C 1103.65 2.34765 3.83673 0
M  V30 11645 C 1104.97 0.334658 4.38826 0
M  V30 11646 H 1102.09 0.197373 0.71008 0
M  V30 11647 H 1104.73 1.13637 1.52272 0
M  V30 11648 H 1102.88 0.334143 3.8706 0
M  V30 11649 H 1104.55 2.92607 3.56621 0
M  V30 11650 H 1102.8 2.80494 3.30916 0
M  V30 11651 H 1103.47 2.51034 4.91616 0
M  V30 11652 H 1105.94 0.769961 4.08914 0
M  V30 11653 H 1104.82 0.575914 5.4587 0
M  V30 11654 H 1105.08 -0.764878 4.35433 0
M  V30 11655 N 1104.14 -1.42577 0.671525 0
M  V30 11656 C 1105.07 -2.28124 -0.0589347 0
M  V30 11657 C 1106.05 -1.40878 -0.811915 0
M  V30 11658 O 1107.24 -1.70318 -0.807717 0
M  V30 11659 C 1104.36 -3.20662 -1.09057 0
M  V30 11660 C 1103.41 -4.24291 -0.43355 0
M  V30 11661 S 1104.24 -5.29393 0.806442 0
M  V30 11662 C 1105.4 -6.25498 -0.224204 0
M  V30 11663 H 1105.63 -2.89728 0.666689 0
M  V30 11664 H 1103.16 -1.47359 0.460959 0
M  V30 11665 H 1105.12 -3.74516 -1.68071 0
M  V30 11666 H 1103.78 -2.582 -1.78862 0
M  V30 11667 H 1102.98 -4.89213 -1.21186 0
M  V30 11668 H 1102.58 -3.73908 0.0829136 0
M  V30 11669 H 1104.87 -6.68757 -1.08492 0
M  V30 11670 H 1105.81 -7.07023 0.390469 0
M  V30 11671 H 1106.22 -5.61633 -0.568214 0
M  V30 11672 N 1105.62 -0.414636 -1.52048 0
M  V30 11673 C 1106.87 0.16073 -2.01059 0
M  V30 11674 C 1107.18 1.45753 -1.30443 0
M  V30 11675 O 1108.39 2.11448 -1.703 0
M  V30 11676 C 1106.84 0.336993 -3.58319 0
M  V30 11677 C 1106.45 -0.948037 -4.37854 0
M  V30 11678 C 1108.19 0.867353 -4.15545 0
M  V30 11679 C 1106.1 -0.738662 -5.86769 0
M  V30 11680 H 1105.03 0.0638419 -0.751292 0
M  V30 11681 H 1107.68 -0.540925 -1.75346 0
M  V30 11682 H 1106.06 1.10111 -3.80383 0
M  V30 11683 H 1107.24 -1.71873 -4.27547 0
M  V30 11684 H 1105.55 -1.40522 -3.91972 0
M  V30 11685 H 1108.15 1.04012 -5.24486 0
M  V30 11686 H 1108.49 1.84358 -3.73253 0
M  V30 11687 H 1109.03 0.162148 -3.97469 0
M  V30 11688 H 1105.77 -1.6866 -6.3343 0
M  V30 11689 H 1105.29 -0.00736294 -5.998 0
M  V30 11690 H 1106.96 -0.382978 -6.45866 0
M  V30 11691 N 1107.1 1.56929 -0.145233 0
M  V30 11692 C 1108.34 1.96358 0.50707 0
M  V30 11693 C 1108.68 1.03005 1.64632 0
M  V30 11694 O 1107.95 0.0721045 1.94366 0
M  V30 11695 C 1108.23 3.45502 1.01492 0
M  V30 11696 C 1108.09 4.49633 -0.122708 0
M  V30 11697 C 1109.41 3.97103 1.89729 0
M  V30 11698 H 1106.52 0.713958 0.182848 0
M  V30 11699 H 1109.17 1.8865 -0.226102 0
M  V30 11700 H 1107.32 3.52202 1.6397 0
M  V30 11701 H 1108.99 4.55013 -0.758988 0
M  V30 11702 H 1107.23 4.26691 -0.782109 0
M  V30 11703 H 1107.9 5.51318 0.27432 0
M  V30 11704 H 1110.38 3.92871 1.37082 0
M  V30 11705 H 1109.25 5.01927 2.22173 0
M  V30 11706 H 1109.52 3.39354 2.83357 0
M  V30 11707 N 1108.58 -0.128553 1.57075 0
M  V30 11708 C 1109.82 -0.839252 1.8462 0
M  V30 11709 C 1110.15 -1.79974 0.729582 0
M  V30 11710 O 1109.43 -1.92681 -0.265369 0
M  V30 11711 C 1109.71 -1.59756 3.22723 0
M  V30 11712 C 1109.57 -0.657313 4.44971 0
M  V30 11713 C 1110.88 -2.55592 3.58275 0
M  V30 11714 H 1108 -0.303652 0.671539 0
M  V30 11715 H 1110.65 -0.103802 1.89716 0
M  V30 11716 H 1108.8 -2.22451 3.18509 0
M  V30 11717 H 1110.47 -0.0399471 4.61283 0
M  V30 11718 H 1108.71 0.0318416 4.33788 0
M  V30 11719 H 1109.38 -1.22433 5.38251 0
M  V30 11720 H 1111.86 -2.03007 3.63218 0
M  V30 11721 H 1110.73 -3.05687 4.55902 0
M  V30 11722 H 1110.99 -3.37813 2.85193 0
M  V30 11723 N 1110.05 -1.5248 -0.398459 0
M  V30 11724 C 1110.96 -1.79492 -1.51062 0
M  V30 11725 C 1111.98 -0.681101 -1.60116 0
M  V30 11726 O 1113.16 -0.967671 -1.7663 0
M  V30 11727 C 1110.22 -1.94958 -2.86692 0
M  V30 11728 C 1109.28 -3.1887 -2.87438 0
M  V30 11729 C 1108.51 -3.33588 -4.16599 0
M  V30 11730 O 1108.74 -2.53327 -5.11059 0
M  V30 11731 O 1107.67 -4.26795 -4.24416 0
M  V30 11732 H 1111.5 -2.73913 -1.31169 0
M  V30 11733 H 1109.08 -1.37455 -0.585372 0
M  V30 11734 H 1110.96 -2.06891 -3.67116 0
M  V30 11735 H 1109.64 -1.03726 -3.06631 0
M  V30 11736 H 1108.55 -3.12386 -2.0583 0
M  V30 11737 H 1109.88 -4.09917 -2.7245 0
M  V30 11738 N 1111.53 0.65634 -1.43283 0
M  V30 11739 C 1112.76 1.44199 -1.47954 0
M  V30 11740 C 1113.17 1.88961 -0.0950315 0
M  V30 11741 O 1112.51 1.59895 0.904388 0
M  V30 11742 C 1112.57 2.71161 -2.36033 0
M  V30 11743 C 1112.24 2.48359 -3.83623 0
M  V30 11744 C 1113.24 2.1178 -4.74811 0
M  V30 11745 C 1110.92 2.6278 -4.28079 0
M  V30 11746 C 1112.91 1.89915 -6.0845 0
M  V30 11747 C 1110.6 2.4053 -5.61772 0
M  V30 11748 C 1111.6 2.04154 -6.51775 0
M  V30 11749 O 1111.29 1.82134 -7.82996 0
M  V30 11750 H 1111.02 0.449567 -0.504842 0
M  V30 11751 H 1113.57 0.812234 -1.88658 0
M  V30 11752 H 1111.8 3.36685 -1.9021 0
M  V30 11753 H 1113.49 3.33102 -2.31944 0
M  V30 11754 H 1114.26 2.00217 -4.41744 0
M  V30 11755 H 1110.14 2.9007 -3.58302 0
M  V30 11756 H 1113.68 1.61445 -6.78661 0
M  V30 11757 H 1109.58 2.51695 -5.94407 0
M  V30 11758 H 1110.35 1.96584 -7.94542 0
M  V30 11759 N 1113.01 1.29761 0.894412 0
M  V30 11760 C 1113.94 1.09666 2.00121 0
M  V30 11761 C 1114.92 0.00700077 1.62598 0
M  V30 11762 O 1116.1 0.158728 1.87831 0
M  V30 11763 C 1113.23 0.670588 3.31995 0
M  V30 11764 C 1112.28 1.75974 3.88504 0
M  V30 11765 S 1113.11 3.36013 4.1696 0
M  V30 11766 C 1114.27 2.95285 5.51867 0
M  V30 11767 H 1114.5 2.03369 2.1686 0
M  V30 11768 H 1112.03 1.13968 1.04166 0
M  V30 11769 H 1113.99 0.431481 4.08226 0
M  V30 11770 H 1112.65 -0.246924 3.13128 0
M  V30 11771 H 1111.84 1.41367 4.83768 0
M  V30 11772 H 1111.45 1.95264 3.1898 0
M  V30 11773 H 1113.74 2.42659 6.32553 0
M  V30 11774 H 1114.68 3.8942 5.91403 0
M  V30 11775 H 1115.09 2.33426 5.13977 0
M  V30 11776 N 1114.49 -1.10549 1.12324 0
M  V30 11777 C 1115.4 -2.20428 0.803032 0
M  V30 11778 C 1116.41 -1.72756 -0.207674 0
M  V30 11779 O 1117.59 -2.01357 -0.0415623 0
M  V30 11780 C 1114.65 -3.45716 0.261032 0
M  V30 11781 C 1113.72 -4.08129 1.33152 0
M  V30 11782 C 1112.95 -5.27436 0.815288 0
M  V30 11783 O 1113.17 -5.69317 -0.351361 0
M  V30 11784 O 1112.11 -5.80674 1.58434 0
M  V30 11785 H 1115.93 -2.50249 1.72073 0
M  V30 11786 H 1113.52 -1.19263 0.899815 0
M  V30 11787 H 1115.4 -4.21384 -0.0364007 0
M  V30 11788 H 1114.07 -3.17525 -0.629249 0
M  V30 11789 H 1112.98 -3.3415 1.6821 0
M  V30 11790 H 1114.31 -4.4052 2.19552 0
M  V30 11791 N 1115.97 -0.914965 -1.28321 0
M  V30 11792 C 1116.91 -0.394477 -2.29231 0
M  V30 11793 C 1117.91 0.514481 -1.61398 0
M  V30 11794 O 1119.11 0.395591 -1.75599 0
M  V30 11795 H 1115.49 -0.108969 -0.744063 0
M  V30 11796 H 1117.46 -1.25862 -2.70557 0
M  V30 11797 C 1116.21 0.349134 -3.45943 0
M  V30 11798 H 1115.53 -0.341087 -3.98342 0
M  V30 11799 H 1116.97 0.677944 -4.18545 0
M  V30 11800 C 1115.43 1.55747 -2.98738 0
M  V30 11801 O 1115.96 2.65654 -3.01315 0
M  V30 11802 N 1114.17 1.40488 -2.54384 0
M  V30 11803 H 1113.71 0.510716 -2.52487 0
M  V30 11804 H 1113.67 2.21464 -2.23161 0
M  V30 11805 N 1117.44 1.42219 -0.679077 0
M  V30 11806 C 1118.69 2.01081 -0.202718 0
M  V30 11807 C 1119.01 1.53986 1.19639 0
M  V30 11808 O 1118.28 0.763359 1.80415 0
M  V30 11809 H 1116.86 0.743526 -0.0719547 0
M  V30 11810 H 1119.52 1.74077 -0.876544 0
M  V30 11811 H 1118.62 3.11411 -0.207314 0
M  V30 11812 N 1118.92 0.422693 1.51826 0
M  V30 11813 C 1120.15 -0.15017 2.06856 0
M  V30 11814 C 1120.57 -1.36946 1.28948 0
M  V30 11815 O 1119.93 -1.78393 0.32338 0
M  V30 11816 C 1119.98 -0.465563 3.57582 0
M  V30 11817 O 1119.08 -1.55442 3.81984 0
M  V30 11818 H 1118.42 -0.00827931 0.663948 0
M  V30 11819 H 1120.95 0.599806 1.95611 0
M  V30 11820 H 1120.96 -0.720279 4.01592 0
M  V30 11821 H 1119.64 0.425679 4.13716 0
M  V30 11822 H 1118.21 -1.29081 3.49846 0
M  V30 11823 N 1120.4 -1.5685 0.153553 0
M  V30 11824 C 1121.33 -2.20101 -0.779601 0
M  V30 11825 C 1122.31 -1.15121 -1.25225 0
M  V30 11826 O 1123.5 -1.43487 -1.30862 0
M  V30 11827 C 1120.63 -2.82778 -2.01628 0
M  V30 11828 C 1119.58 -3.93643 -1.68015 0
M  V30 11829 C 1118.91 -4.43286 -2.99001 0
M  V30 11830 C 1120.21 -5.14102 -0.921774 0
M  V30 11831 H 1121.9 -2.98334 -0.252432 0
M  V30 11832 H 1119.45 -1.43499 -0.119975 0
M  V30 11833 H 1121.4 -3.25696 -2.67395 0
M  V30 11834 H 1120.12 -2.01887 -2.56728 0
M  V30 11835 H 1118.78 -3.51354 -1.04624 0
M  V30 11836 H 1118.43 -3.59208 -3.52106 0
M  V30 11837 H 1118.13 -5.18068 -2.77272 0
M  V30 11838 H 1119.65 -4.88878 -3.65828 0
M  V30 11839 H 1121.07 -5.53823 -1.48167 0
M  V30 11840 H 1119.46 -5.94687 -0.804185 0
M  V30 11841 H 1120.53 -4.84825 0.0852757 0
M  V30 11842 N 1121.88 0.120221 -1.57141 0
M  V30 11843 C 1123.15 0.858458 -1.75755 0
M  V30 11844 C 1123.53 1.98124 -0.728693 0
M  V30 11845 O 1122.88 2.27155 0.247573 0
M  V30 11846 C 1123.09 1.37627 -3.20718 0
M  V30 11847 C 1124.44 1.82909 -3.83183 0
M  V30 11848 O 1125.46 1.47309 -3.24312 0
M  V30 11849 O 1124.32 2.4865 -4.86657 0
M  V30 11850 H 1121.42 0.407583 -0.719587 0
M  V30 11851 H 1123.96 0.104057 -1.69381 0
M  V30 11852 H 1122.74 0.570651 -3.87117 0
M  V30 11853 H 1122.36 2.19341 -3.31625 0
M  V30 11854 N 1123.36 1.52689 0.390367 0
M  V30 11855 C 1124.58 1.71839 1.16129 0
M  V30 11856 C 1125.01 0.435226 1.82996 0
M  V30 11857 O 1124.36 -0.60889 1.70769 0
M  V30 11858 C 1124.41 2.86784 2.18603 0
M  V30 11859 O 1123.52 2.53662 3.25161 0
M  V30 11860 H 1122.86 0.571455 0.338135 0
M  V30 11861 H 1125.39 1.99475 0.45508 0
M  V30 11862 H 1125.4 3.12239 2.62622 0
M  V30 11863 H 1124.07 3.79872 1.69322 0
M  V30 11864 H 1122.65 2.38942 2.86289 0
M  V30 11865 N 1124.83 -0.648732 1.43629 0
M  V30 11866 C 1126.08 -1.40857 1.45483 0
M  V30 11867 C 1126.41 -1.94332 0.0807963 0
M  V30 11868 O 1125.66 -1.72999 -0.914875 0
M  V30 11869 C 1125.96 -2.60394 2.44806 0
M  V30 11870 C 1125.63 -2.25311 3.90571 0
M  V30 11871 C 1124.29 -2.15456 4.3027 0
M  V30 11872 C 1126.64 -1.97307 4.8241 0
M  V30 11873 C 1123.97 -1.75759 5.59755 0
M  V30 11874 C 1126.32 -1.59108 6.12264 0
M  V30 11875 C 1124.99 -1.47781 6.50936 0
M  V30 11876 H 1124.26 -0.515434 0.532362 0
M  V30 11877 H 1126.9 -0.737339 1.76736 0
M  V30 11878 H 1125.21 -3.3267 2.06973 0
M  V30 11879 H 1126.91 -3.18609 2.43494 0
M  V30 11880 H 1123.5 -2.33894 3.59154 0
M  V30 11881 H 1127.68 -2.0384 4.52507 0
M  V30 11882 H 1122.94 -1.65579 5.88552 0
M  V30 11883 H 1127.11 -1.36472 6.82897 0
M  V30 11884 H 1124.74 -1.16792 7.51175 0
M  V30 11885 N 1126.31 -1.30234 -0.887518 0
M  V30 11886 C 1127.24 -1.18969 -2.00919 0
M  V30 11887 C 1128.22 -0.080952 -1.69907 0
M  V30 11888 O 1129.41 -0.262546 -1.92417 0
M  V30 11889 C 1126.54 -0.878094 -3.36016 0
M  V30 11890 C 1125.49 -1.94449 -3.81279 0
M  V30 11891 C 1124.82 -1.48594 -5.13638 0
M  V30 11892 C 1126.12 -3.35519 -4.00281 0
M  V30 11893 H 1127.81 -2.12808 -2.10602 0
M  V30 11894 H 1125.36 -1.02454 -1.01189 0
M  V30 11895 H 1127.31 -0.785954 -4.14006 0
M  V30 11896 H 1126.04 0.0959779 -3.26459 0
M  V30 11897 H 1124.69 -2.02622 -3.05516 0
M  V30 11898 H 1124.34 -0.500204 -5.00507 0
M  V30 11899 H 1124.04 -2.19921 -5.44893 0
M  V30 11900 H 1125.57 -1.40754 -5.94156 0
M  V30 11901 H 1126.98 -3.30119 -4.68716 0
M  V30 11902 H 1125.38 -4.0491 -4.42909 0
M  V30 11903 H 1126.45 -3.77597 -3.04218 0
M  V30 11904 N 1127.79 1.09952 -1.12909 0
M  V30 11905 C 1129.21 1.34051 -0.866172 0
M  V30 11906 C 1129.41 1.95169 0.501125 0
M  V30 11907 O 1128.46 2.19458 1.24878 0
M  V30 11908 C 1129.78 2.25738 -1.98653 0
M  V30 11909 C 1131.32 2.39261 -2.01799 0
M  V30 11910 C 1131.8 3.3428 -3.13083 0
M  V30 11911 N 1133.29 3.41851 -3.12558 0
M  V30 11912 C 1134.02 4.15358 -3.95304 0
M  V30 11913 N 1133.52 4.91709 -4.88051 0
M  V30 11914 N 1135.31 4.11027 -3.83423 0
M  V30 11915 H 1127.46 0.686521 -2.00999 0
M  V30 11916 H 1129.73 0.364913 -0.874953 0
M  V30 11917 H 1129.43 1.88048 -2.97205 0
M  V30 11918 H 1129.31 3.26085 -1.89601 0
M  V30 11919 H 1131.69 2.76218 -1.03864 0
M  V30 11920 H 1131.78 1.38712 -2.14925 0
M  V30 11921 H 1131.42 2.98048 -4.11254 0
M  V30 11922 H 1131.35 4.34721 -2.97195 0
M  V30 11923 H 1133.84 2.87405 -2.45371 0
M  V30 11924 H 1134.15 5.45212 -5.47689 0
M  V30 11925 H 1132.5 4.90816 -4.92061 0
M  V30 11926 H 1135.69 3.50477 -3.10296 0
M  V30 11927 H 1135.86 4.68054 -4.4814 0
M  V30 11928 N 1129.27 0.921757 1.27833 0
M  V30 11929 C 1130.22 0.414838 2.27041 0
M  V30 11930 C 1131.19 -0.515045 1.57913 0
M  V30 11931 O 1132.37 -0.435499 1.85763 0
M  V30 11932 C 1129.51 -0.331744 3.43502 0
M  V30 11933 C 1128.62 0.631565 4.27358 0
M  V30 11934 C 1127.76 -0.134265 5.3103 0
M  V30 11935 C 1126.8 0.822138 6.06554 0
M  V30 11936 N 1125.93 0.0893149 7.02043 0
M  V30 11937 H 1130.77 1.26585 2.69778 0
M  V30 11938 H 1128.31 0.635488 1.32665 0
M  V30 11939 H 1130.27 -0.780866 4.09827 0
M  V30 11940 H 1128.9 -1.14704 3.01733 0
M  V30 11941 H 1127.95 1.19922 3.61003 0
M  V30 11942 H 1129.26 1.36274 4.79824 0
M  V30 11943 H 1128.42 -0.643579 6.03277 0
M  V30 11944 H 1127.16 -0.898443 4.79353 0
M  V30 11945 H 1126.16 1.34275 5.33151 0
M  V30 11946 H 1127.39 1.586 6.6032 0
M  V30 11947 H 1125.33 -0.656725 6.52704 0
M  V30 11948 H 1125.25 0.760167 7.52169 0
M  V30 11949 H 1126.52 -0.399541 7.78475 0
M  V30 11950 N 1130.75 -1.41857 0.686609 0
M  V30 11951 C 1131.7 -2.27999 -0.00734666 0
M  V30 11952 C 1132.68 -1.41723 -0.761808 0
M  V30 11953 O 1133.87 -1.65072 -0.638776 0
M  V30 11954 C 1131 -3.29909 -0.949462 0
M  V30 11955 C 1130.09 -4.23666 -0.191722 0
M  V30 11956 N 1130.48 -4.99277 0.809715 0
M  V30 11957 C 1128.78 -4.43937 -0.428489 0
M  V30 11958 C 1129.48 -5.67834 1.2625 0
M  V30 11959 N 1128.45 -5.40387 0.590151 0
M  V30 11960 H 1132.26 -2.83887 0.760608 0
M  V30 11961 H 1129.77 -1.53962 0.516676 0
M  V30 11962 H 1131.77 -3.90436 -1.46169 0
M  V30 11963 H 1130.43 -2.75582 -1.71711 0
M  V30 11964 H 1131.44 -5.04051 1.18966 0
M  V30 11965 H 1128.11 -4.00633 -1.17472 0
M  V30 11966 H 1129.5 -6.38469 2.09301 0
M  V30 11967 N 1132.22 -0.430739 -1.51599 0
M  V30 11968 C 1133.5 0.197543 -1.946 0
M  V30 11969 C 1133.88 1.6069 -1.36901 0
M  V30 11970 O 1133.23 2.21697 -0.553422 0
M  V30 11971 C 1133.44 0.181976 -3.48525 0
M  V30 11972 C 1134.79 0.390783 -4.22798 0
M  V30 11973 O 1135.81 0.260384 -3.55247 0
M  V30 11974 O 1134.67 0.649701 -5.42624 0
M  V30 11975 H 1131.76 0.133524 -0.81615 0
M  V30 11976 H 1134.31 -0.488243 -1.62525 0
M  V30 11977 H 1133.08 -0.803584 -3.8296 0
M  V30 11978 H 1132.71 0.910952 -3.87024 0
M  V30 11979 N 1133.7 1.56767 -0.161869 0
M  V30 11980 C 1134.95 1.96206 0.484537 0
M  V30 11981 C 1135.27 1.04848 1.64414 0
M  V30 11982 O 1134.54 0.112946 1.95574 0
M  V30 11983 H 1133.12 0.724491 0.181994 0
M  V30 11984 H 1135.78 1.93406 -0.240845 0
M  V30 11985 H 1134.88 3.00279 0.85083 0
M  V30 11986 N 1135.18 -0.111886 1.57202 0
M  V30 11987 C 1136.13 -1.14287 1.97288 0
M  V30 11988 C 1137.11 -1.36686 0.848868 0
M  V30 11989 O 1138.31 -1.37659 1.11261 0
M  V30 11990 C 1135.44 -2.46759 2.38673 0
M  V30 11991 C 1134.52 -2.27805 3.57723 0
M  V30 11992 N 1134.91 -1.78679 4.73189 0
M  V30 11993 C 1133.21 -2.58435 3.63494 0
M  V30 11994 C 1133.91 -1.736 5.55192 0
M  V30 11995 N 1132.89 -2.18205 4.97883 0
M  V30 11996 H 1136.69 -0.755711 2.84018 0
M  V30 11997 H 1134.2 -0.31954 1.59225 0
M  V30 11998 H 1136.2 -3.21335 2.65611 0
M  V30 11999 H 1134.86 -2.86227 1.53311 0
M  V30 12000 H 1135.87 -1.48121 4.96267 0
M  V30 12001 H 1132.55 -3.0154 2.88755 0
M  V30 12002 H 1133.94 -1.36812 6.57824 0
M  V30 12003 N 1136.66 -1.52894 -0.382264 0
M  V30 12004 C 1137.91 -1.68266 -1.12663 0
M  V30 12005 C 1138.23 -0.425974 -1.89778 0
M  V30 12006 O 1137.49 0.59178 -1.86538 0
M  V30 12007 C 1137.79 -2.87309 -2.12576 0
M  V30 12008 C 1137.45 -4.24484 -1.52067 0
M  V30 12009 C 1136.12 -4.6179 -1.35292 0
M  V30 12010 C 1138.47 -5.09858 -1.08138 0
M  V30 12011 C 1135.8 -5.82123 -0.731449 0
M  V30 12012 C 1138.15 -6.30822 -0.473986 0
M  V30 12013 C 1136.81 -6.66854 -0.293585 0
M  V30 12014 H 1136.08 -0.615728 -0.412262 0
M  V30 12015 H 1138.73 -1.8705 -0.410425 0
M  V30 12016 H 1137.03 -2.62968 -2.90439 0
M  V30 12017 H 1138.73 -2.96397 -2.70092 0
M  V30 12018 H 1135.32 -3.951 -1.66114 0
M  V30 12019 H 1139.5 -4.816 -1.19898 0
M  V30 12020 H 1134.76 -6.08643 -0.579938 0
M  V30 12021 H 1138.93 -6.96287 -0.125324 0
M  V30 12022 H 1136.56 -7.59962 0.190054 0
M  V30 12023 N 1138.14 0.641106 -1.43971 0
M  V30 12024 C 1139.37 1.42829 -1.49692 0
M  V30 12025 C 1139.78 1.88427 -0.118594 0
M  V30 12026 O 1139.14 1.60234 0.873581 0
M  V30 12027 C 1139.19 2.65524 -2.45314 0
M  V30 12028 O 1138.91 2.2183 -3.77787 0
M  V30 12029 C 1140.41 3.58758 -2.60399 0
M  V30 12030 H 1137.63 0.438367 -0.508011 0
M  V30 12031 H 1140.17 0.784933 -1.88836 0
M  V30 12032 H 1138.33 3.25973 -2.09332 0
M  V30 12033 H 1138.74 3.01303 -4.29321 0
M  V30 12034 H 1140.22 4.41483 -3.31357 0
M  V30 12035 H 1140.69 4.06909 -1.65294 0
M  V30 12036 H 1141.3 3.04184 -2.97241 0
M  V30 12037 N 1139.62 1.30703 0.880598 0
M  V30 12038 C 1140.86 1.19955 1.63519 0
M  V30 12039 C 1141.19 -0.244214 1.92658 0
M  V30 12040 O 1140.47 -1.17412 1.55063 0
M  V30 12041 C 1140.75 2.03302 2.97221 0
M  V30 12042 C 1140.61 3.55921 2.75028 0
M  V30 12043 C 1141.92 1.87421 3.98198 0
M  V30 12044 H 1139.04 0.43712 0.593376 0
M  V30 12045 H 1141.69 1.60382 1.01871 0
M  V30 12046 H 1139.84 1.68953 3.49839 0
M  V30 12047 H 1141.51 4.00352 2.29164 0
M  V30 12048 H 1139.75 3.79885 2.09452 0
M  V30 12049 H 1140.42 4.09533 3.70117 0
M  V30 12050 H 1142.9 2.17459 3.54755 0
M  V30 12051 H 1141.77 2.48057 4.89652 0
M  V30 12052 H 1142.03 0.834563 4.34151 0
M  V30 12053 N 1141.09 -1.09351 1.1349 0
M  V30 12054 C 1142.34 -1.80915 0.89177 0
M  V30 12055 C 1142.66 -1.86688 -0.5837 0
M  V30 12056 O 1143.86 -2.54568 -0.943788 0
M  V30 12057 C 1142.32 -3.25009 1.54587 0
M  V30 12058 C 1141.93 -3.27501 3.05691 0
M  V30 12059 C 1143.67 -4.01323 1.38346 0
M  V30 12060 C 1141.58 -4.66123 3.63983 0
M  V30 12061 H 1140.51 -0.677961 0.329978 0
M  V30 12062 H 1143.16 -1.22893 1.3627 0
M  V30 12063 H 1141.54 -3.83098 1.0026 0
M  V30 12064 H 1142.71 -2.79174 3.66604 0
M  V30 12065 H 1141.03 -2.64677 3.21457 0
M  V30 12066 H 1143.63 -5.03739 1.79307 0
M  V30 12067 H 1143.97 -4.15003 0.328404 0
M  V30 12068 H 1144.5 -3.49679 1.89656 0
M  V30 12069 H 1141.24 -4.57646 4.69298 0
M  V30 12070 H 1140.76 -5.14772 3.07848 0
M  V30 12071 H 1142.44 -5.35097 3.63703 0
M  V30 12072 N 1142.57 -0.928524 -1.27343 0
M  V30 12073 C 1143.5 -0.385563 -2.25934 0
M  V30 12074 C 1144.52 0.484178 -1.55433 0
M  V30 12075 O 1145.71 0.296668 -1.76017 0
M  V30 12076 C 1142.81 0.466116 -3.35679 0
M  V30 12077 C 1141.98 -0.384523 -4.35707 0
M  V30 12078 C 1141.04 0.404644 -5.24642 0
M  V30 12079 O 1140.06 -0.187943 -5.6889 0
M  V30 12080 N 1141.27 1.70426 -5.54919 0
M  V30 12081 H 1144.03 -1.23306 -2.73159 0
M  V30 12082 H 1141.59 -0.796039 -1.40978 0
M  V30 12083 H 1143.58 1.00115 -3.92121 0
M  V30 12084 H 1142.15 1.21437 -2.88048 0
M  V30 12085 H 1141.37 -1.10085 -3.78517 0
M  V30 12086 H 1142.66 -0.966033 -4.99545 0
M  V30 12087 H 1142.06 2.20802 -5.20829 0
M  V30 12088 H 1140.62 2.1858 -6.14057 0
M  V30 12089 N 1144.05 1.41491 -0.694123 0
M  V30 12090 C 1144.98 2.33462 -0.0422169 0
M  V30 12091 C 1145.96 1.51739 0.76872 0
M  V30 12092 O 1147.15 1.8028 0.721985 0
M  V30 12093 C 1144.28 3.35545 0.895925 0
M  V30 12094 C 1143.23 4.27568 0.192188 0
M  V30 12095 C 1142.56 5.20014 1.24459 0
M  V30 12096 C 1143.86 5.1376 -0.940626 0
M  V30 12097 H 1145.55 2.88225 -0.810363 0
M  V30 12098 H 1143.1 1.38586 -0.39114 0
M  V30 12099 H 1145.05 3.9881 1.36121 0
M  V30 12100 H 1143.77 2.79129 1.69572 0
M  V30 12101 H 1142.43 3.65726 -0.25305 0
M  V30 12102 H 1142.08 4.59913 2.03687 0
M  V30 12103 H 1141.78 5.82417 0.778734 0
M  V30 12104 H 1143.3 5.86155 1.71041 0
M  V30 12105 H 1144.72 5.70601 -0.555692 0
M  V30 12106 H 1143.11 5.85097 -1.33349 0
M  V30 12107 H 1144.18 4.51011 -1.78093 0
M  V30 12108 N 1145.53 0.438773 1.51369 0
M  V30 12109 C 1146.77 -0.127401 2.02399 0
M  V30 12110 C 1147.11 -1.42235 1.32223 0
M  V30 12111 O 1146.38 -1.89513 0.437607 0
M  V30 12112 C 1146.66 -0.344673 3.58447 0
M  V30 12113 C 1146.52 0.969027 4.39238 0
M  V30 12114 C 1147.84 -1.11381 4.25773 0
M  V30 12115 H 1144.96 -0.0448281 0.735635 0
M  V30 12116 H 1147.6 0.57805 1.80993 0
M  V30 12117 H 1145.75 -0.945582 3.76817 0
M  V30 12118 H 1147.42 1.60403 4.32514 0
M  V30 12119 H 1145.66 1.57329 4.04265 0
M  V30 12120 H 1146.33 0.771029 5.46589 0
M  V30 12121 H 1148.81 -0.604785 4.11681 0
M  V30 12122 H 1147.69 -1.23459 5.34835 0
M  V30 12123 H 1147.95 -2.14225 3.8673 0
M  V30 12124 N 1147.01 -1.56678 0.170181 0
M  V30 12125 C 1148.25 -1.9646 -0.474125 0
M  V30 12126 C 1148.57 -1.05719 -1.63855 0
M  V30 12127 O 1147.84 -0.123316 -1.95511 0
M  V30 12128 H 1146.42 -0.725446 -0.178149 0
M  V30 12129 H 1149.09 -1.93276 0.251099 0
M  V30 12130 H 1148.18 -3.00726 -0.834894 0
M  V30 12131 N 1148.48 0.103547 -1.57259 0
M  V30 12132 C 1149.42 1.15707 -1.9669 0
M  V30 12133 C 1150.39 1.39292 -0.838837 0
M  V30 12134 O 1151.58 1.53192 -1.09839 0
M  V30 12135 C 1148.71 2.50793 -2.27642 0
M  V30 12136 C 1147.75 2.43541 -3.50129 0
M  V30 12137 S 1148.58 1.86009 -5.02156 0
M  V30 12138 C 1149.74 3.22737 -5.36276 0
M  V30 12139 H 1149.97 0.820891 -2.85742 0
M  V30 12140 H 1147.51 0.310906 -1.51237 0
M  V30 12141 H 1149.46 3.28512 -2.46151 0
M  V30 12142 H 1148.13 2.81583 -1.39176 0
M  V30 12143 H 1147.32 3.43085 -3.692 0
M  V30 12144 H 1146.92 1.73948 -3.31086 0
M  V30 12145 H 1149.21 4.1899 -5.32404 0
M  V30 12146 H 1150.16 3.08477 -6.37375 0
M  V30 12147 H 1150.56 3.21878 -4.6374 0
M  V30 12148 N 1149.96 1.53094 0.37415 0
M  V30 12149 C 1150.89 1.81901 1.46404 0
M  V30 12150 C 1151.87 0.671949 1.56265 0
M  V30 12151 O 1153.06 0.920978 1.70973 0
M  V30 12152 C 1150.19 2.00123 2.83845 0
M  V30 12153 C 1149.14 3.15864 2.88814 0
M  V30 12154 C 1148.47 3.19364 4.28848 0
M  V30 12155 C 1149.77 4.54633 2.57112 0
M  V30 12156 H 1151.46 2.73172 1.22546 0
M  V30 12157 H 1149.01 1.31444 0.588087 0
M  V30 12158 H 1150.96 2.18859 3.6011 0
M  V30 12159 H 1149.68 1.05555 3.09072 0
M  V30 12160 H 1148.34 2.96935 2.15 0
M  V30 12161 H 1147.99 2.2245 4.51137 0
M  V30 12162 H 1147.69 3.97123 4.3309 0
M  V30 12163 H 1149.22 3.40273 5.06997 0
M  V30 12164 H 1150.63 4.73587 3.23091 0
M  V30 12165 H 1149.03 5.34569 2.72683 0
M  V30 12166 H 1150.1 4.60331 1.52392 0
M  V30 12167 N 1151.44 -0.633461 1.44309 0
M  V30 12168 C 1152.86 -0.951379 1.28144 0
M  V30 12169 C 1153.06 -2.00344 0.215512 0
M  V30 12170 O 1152.11 -2.49321 -0.399389 0
M  V30 12171 C 1153.42 -1.41686 2.65227 0
M  V30 12172 C 1154.97 -1.53247 2.72918 0
M  V30 12173 C 1155.45 -2.03179 4.10466 0
M  V30 12174 N 1156.94 -2.10453 4.1263 0
M  V30 12175 C 1157.67 -2.50254 5.15907 0
M  V30 12176 N 1157.17 -2.89209 6.29547 0
M  V30 12177 N 1158.96 -2.50368 5.03262 0
M  V30 12178 H 1151.11 0.0623574 2.12308 0
M  V30 12179 H 1153.38 -0.0347244 0.947364 0
M  V30 12180 H 1153.08 -0.71814 3.4429 0
M  V30 12181 H 1152.96 -2.3883 2.91959 0
M  V30 12182 H 1155.34 -2.22216 1.94176 0
M  V30 12183 H 1155.42 -0.544836 2.4993 0
M  V30 12184 H 1155.07 -1.34806 4.89683 0
M  V30 12185 H 1155 -3.02809 4.3083 0
M  V30 12186 H 1157.49 -1.83042 3.30612 0
M  V30 12187 H 1157.8 -3.18386 7.04166 0
M  V30 12188 H 1156.15 -2.86966 6.32989 0
M  V30 12189 H 1159.34 -2.19324 4.13539 0
M  V30 12190 H 1159.51 -2.81062 5.83873 0
M  V30 12191 N 1152.92 -1.31168 -0.873655 0
M  V30 12192 C 1154.17 -1.20404 -1.62319 0
M  V30 12193 C 1154.49 0.238829 -1.93532 0
M  V30 12194 O 1153.76 1.15854 -1.57971 0
M  V30 12195 H 1152.34 -0.442632 -0.601736 0
M  V30 12196 H 1155 -1.64445 -1.04613 0
M  V30 12197 H 1154.1 -1.77309 -2.56842 0
M  V30 12198 N 1154.4 1.08748 -1.14068 0
M  V30 12199 C 1155.65 1.8044 -0.901352 0
M  V30 12200 C 1155.96 1.86995 0.573791 0
M  V30 12201 O 1157.16 2.55065 0.930275 0
M  V30 12202 C 1155.62 3.24185 -1.56308 0
M  V30 12203 C 1155.23 3.25875 -3.07424 0
M  V30 12204 C 1156.97 4.00584 -1.40473 0
M  V30 12205 C 1154.88 4.64186 -3.66449 0
M  V30 12206 H 1153.81 0.676201 -0.333569 0
M  V30 12207 H 1156.46 1.22169 -1.3692 0
M  V30 12208 H 1154.84 3.82561 -1.0229 0
M  V30 12209 H 1156.02 2.77225 -3.6808 0
M  V30 12210 H 1154.33 2.62969 -3.22856 0
M  V30 12211 H 1156.93 5.02781 -1.81976 0
M  V30 12212 H 1157.27 4.14823 -0.350408 0
M  V30 12213 H 1157.8 3.48668 -1.91508 0
M  V30 12214 H 1154.54 4.5515 -4.71719 0
M  V30 12215 H 1154.06 5.13132 -3.10574 0
M  V30 12216 H 1155.74 5.33161 -3.66536 0
M  V30 12217 N 1155.87 0.935264 1.26849 0
M  V30 12218 C 1156.84 0.44485 2.24842 0
M  V30 12219 C 1157.84 -0.440781 1.54641 0
M  V30 12220 O 1159.03 -0.240793 1.72528 0
M  V30 12221 C 1156.16 -0.359566 3.38998 0
M  V30 12222 H 1157.35 1.31074 2.6974 0
M  V30 12223 H 1154.91 0.716665 1.38901 0
M  V30 12224 H 1155.64 -1.24396 2.99493 0
M  V30 12225 H 1155.43 0.275529 3.91131 0
M  V30 12226 H 1156.92 -0.692804 4.11813 0
M  V30 12227 N 1157.35 -1.41121 0.701616 0
M  V30 12228 C 1158.58 -2.05973 0.242896 0
M  V30 12229 C 1159 -1.52474 -1.10151 0
M  V30 12230 O 1158.36 -0.654224 -1.69085 0
M  V30 12231 C 1158.41 -3.59943 0.217614 0
M  V30 12232 O 1157.51 -4.04454 -0.805629 0
M  V30 12233 H 1156.85 -0.653581 0.117166 0
M  V30 12234 H 1159.38 -1.80777 0.958175 0
M  V30 12235 H 1159.39 -4.07969 0.0505267 0
M  V30 12236 H 1158.07 -3.98249 1.19877 0
M  V30 12237 H 1156.65 -3.6792 -0.607404 0
M  V30 12238 N 1158.83 -0.446794 -1.51134 0
M  V30 12239 C 1160.08 0.116263 -2.01765 0
M  V30 12240 C 1160.4 1.42382 -1.33238 0
M  V30 12241 O 1159.67 1.9018 -0.469915 0
M  V30 12242 H 1158.25 0.0459558 -0.745585 0
M  V30 12243 H 1160.91 -0.591664 -1.85702 0
M  V30 12244 H 1160.01 0.285358 -3.10793 0
M  V30 12245 N 1160.31 1.56586 -0.178487 0
M  V30 12246 C 1161.24 2.14168 0.787856 0
M  V30 12247 C 1162.22 1.07374 1.22105 0
M  V30 12248 O 1163.4 1.35391 1.31154 0
M  V30 12249 C 1160.53 2.68708 2.06189 0
M  V30 12250 C 1159.58 3.8794 1.77215 0
M  V30 12251 S 1160.41 5.27274 0.935002 0
M  V30 12252 C 1161.57 5.85224 2.21954 0
M  V30 12253 H 1161.8 2.958 0.298293 0
M  V30 12254 H 1159.33 1.54357 0.0362853 0
M  V30 12255 H 1161.29 3.00777 2.79363 0
M  V30 12256 H 1159.95 1.87149 2.52258 0
M  V30 12257 H 1159.14 4.24453 2.71764 0
M  V30 12258 H 1158.75 3.56795 1.12132 0
M  V30 12259 H 1161.04 5.98575 3.17355 0
M  V30 12260 H 1161.98 6.82162 1.89898 0
M  V30 12261 H 1162.39 5.13697 2.34042 0
M  V30 12262 N 1161.79 -0.095206 1.57312 0
M  V30 12263 C 1162.73 -1.11551 2.02052 0
M  V30 12264 C 1163.7 -1.39808 0.896818 0
M  V30 12265 O 1164.89 -1.51273 1.1628 0
M  V30 12266 C 1162.03 -2.43056 2.44985 0
M  V30 12267 C 1161.14 -2.21531 3.70875 0
M  V30 12268 C 1160.28 -3.46434 4.02687 0
M  V30 12269 C 1159.32 -3.2017 5.21687 0
M  V30 12270 N 1158.45 -4.37339 5.49253 0
M  V30 12271 H 1163.29 -0.727 2.88996 0
M  V30 12272 H 1160.83 -0.347441 1.42938 0
M  V30 12273 H 1162.79 -3.19803 2.67921 0
M  V30 12274 H 1161.42 -2.79754 1.61051 0
M  V30 12275 H 1160.47 -1.35587 3.55416 0
M  V30 12276 H 1161.78 -1.98116 4.57768 0
M  V30 12277 H 1160.94 -4.31589 4.26399 0
M  V30 12278 H 1159.67 -3.72904 3.14315 0
M  V30 12279 H 1158.68 -2.33409 4.97796 0
M  V30 12280 H 1159.9 -2.95047 6.11657 0
M  V30 12281 H 1157.85 -4.63885 4.6384 0
M  V30 12282 H 1157.77 -4.17114 6.30517 0
M  V30 12283 H 1159.04 -5.23559 5.775 0
M  V30 12284 N 1163.26 -1.53291 -0.366026 0
M  V30 12285 C 1164.49 -1.73108 -1.1277 0
M  V30 12286 C 1164.9 -0.459662 -1.83531 0
M  V30 12287 O 1164.25 0.577151 -1.74398 0
M  V30 12288 C 1164.31 -2.84137 -2.20242 0
M  V30 12289 C 1163.97 -4.24503 -1.69252 0
M  V30 12290 C 1164.97 -5.06866 -1.15684 0
M  V30 12291 C 1162.65 -4.70912 -1.74778 0
M  V30 12292 C 1164.65 -6.33728 -0.683191 0
M  V30 12293 C 1162.33 -5.97752 -1.27025 0
M  V30 12294 C 1163.33 -6.78992 -0.738858 0
M  V30 12295 O 1163.02 -8.03452 -0.268375 0
M  V30 12296 H 1162.75 -0.582439 -0.343134 0
M  V30 12297 H 1165.31 -2.00828 -0.430969 0
M  V30 12298 H 1163.54 -2.5189 -2.93408 0
M  V30 12299 H 1165.23 -2.92136 -2.818 0
M  V30 12300 H 1165.99 -4.72185 -1.10753 0
M  V30 12301 H 1161.87 -4.07751 -2.15081 0
M  V30 12302 H 1165.41 -6.97086 -0.267746 0
M  V30 12303 H 1161.31 -6.31933 -1.31649 0
M  V30 12304 H 1162.08 -8.17581 -0.387745 0
M  V30 12305 N 1164.74 0.6258 -1.44643 0
M  V30 12306 C 1165.67 1.74858 -1.54748 0
M  V30 12307 C 1166.65 1.65327 -0.400138 0
M  V30 12308 O 1167.84 1.84005 -0.620948 0
M  V30 12309 C 1164.97 3.13408 -1.49643 0
M  V30 12310 C 1163.92 3.37733 -2.62908 0
M  V30 12311 C 1163.25 4.76367 -2.42855 0
M  V30 12312 C 1164.55 3.29771 -4.05029 0
M  V30 12313 H 1166.24 1.66658 -2.48728 0
M  V30 12314 H 1163.79 0.800363 -1.19709 0
M  V30 12315 H 1165.74 3.91735 -1.55312 0
M  V30 12316 H 1164.47 3.22404 -0.521824 0
M  V30 12317 H 1163.12 2.61788 -2.56637 0
M  V30 12318 H 1162.77 4.82074 -1.43575 0
M  V30 12319 H 1162.47 4.936 -3.18799 0
M  V30 12320 H 1164 5.56917 -2.50351 0
M  V30 12321 H 1165.41 3.97996 -4.12641 0
M  V30 12322 H 1163.81 3.58538 -4.81218 0
M  V30 12323 H 1164.88 2.27493 -4.28223 0
M  V30 12324 N 1166.22 1.31629 0.866686 0
M  V30 12325 C 1167.45 1.24609 1.65793 0
M  V30 12326 C 1167.87 -0.184944 1.87189 0
M  V30 12327 O 1167.23 -1.1322 1.41601 0
M  V30 12328 C 1167.28 1.9988 3.00134 0
M  V30 12329 O 1166.38 1.33838 3.90079 0
M  V30 12330 H 1165.72 0.430051 0.505917 0
M  V30 12331 H 1168.25 1.73752 1.08035 0
M  V30 12332 H 1168.26 2.09599 3.50046 0
M  V30 12333 H 1166.94 3.03947 2.83882 0
M  V30 12334 H 1165.51 1.3259 3.48532 0
M  V30 12335 N 1167.7 -1.08142 1.14644 0
M  V30 12336 C 1168.98 -1.77254 0.827071 0
M  V30 12337 C 1169.36 -1.99885 -0.67891 0
M  V30 12338 O 1168.7 -1.61084 -1.62062 0
M  V30 12339 C 1168.91 -3.08658 1.62884 0
M  V30 12340 C 1170.26 -3.83143 1.82993 0
M  V30 12341 O 1171.29 -3.18447 1.59593 0
M  V30 12342 O 1170.15 -4.9932 2.2213 0
M  V30 12343 H 1167.24 -0.769356 0.30335 0
M  V30 12344 H 1169.79 -1.1458 1.25178 0
M  V30 12345 H 1168.56 -2.87753 2.65168 0
M  V30 12346 H 1168.18 -3.79061 1.19994 0
M  V30 12347 N 1169.18 -0.941978 -1.26351 0
M  V30 12348 C 1170.11 -0.396486 -2.24729 0
M  V30 12349 C 1171.09 0.51514 -1.54224 0
M  V30 12350 O 1172.27 0.452405 -1.82991 0
M  V30 12351 C 1169.4 0.430232 -3.35956 0
M  V30 12352 C 1168.45 -0.419981 -4.24427 0
M  V30 12353 S 1169.28 -1.84442 -5.02734 0
M  V30 12354 C 1170.43 -1.02578 -6.17437 0
M  V30 12355 H 1170.67 -1.23025 -2.70651 0
M  V30 12356 H 1168.2 -0.745148 -1.35229 0
M  V30 12357 H 1170.16 0.901315 -4.00483 0
M  V30 12358 H 1168.82 1.23868 -2.88644 0
M  V30 12359 H 1168.01 0.213475 -5.03548 0
M  V30 12360 H 1167.61 -0.82578 -3.6477 0
M  V30 12361 H 1169.91 -0.268431 -6.76968 0
M  V30 12362 H 1170.85 -1.79047 -6.85089 0
M  V30 12363 H 1171.26 -0.561488 -5.61701 0
M  V30 12364 N 1170.66 1.40747 -0.709091 0
M  V30 12365 C 1171.9 2.00606 -0.245324 0
M  V30 12366 C 1172.22 1.56489 1.16346 0
M  V30 12367 O 1171.49 0.801456 1.78755 0
M  V30 12368 H 1170.07 0.741833 -0.0877098 0
M  V30 12369 H 1172.74 1.72178 -0.913271 0
M  V30 12370 H 1171.83 3.10901 -0.273322 0
M  V30 12371 N 1172.13 0.454803 1.50895 0
M  V30 12372 C 1173.36 -0.103785 2.06339 0
M  V30 12373 C 1173.77 -1.35494 1.32053 0
M  V30 12374 O 1173.11 -1.79758 0.37852 0
M  V30 12375 C 1173.18 -0.474076 3.5636 0
M  V30 12376 C 1172.84 0.672736 4.52021 0
M  V30 12377 C 1173.84 1.55003 4.96256 0
M  V30 12378 C 1171.52 0.858435 4.9491 0
M  V30 12379 C 1173.52 2.59757 5.82069 0
M  V30 12380 C 1171.2 1.90922 5.8051 0
M  V30 12381 C 1172.2 2.77717 6.23989 0
M  V30 12382 O 1171.89 3.80989 7.07886 0
M  V30 12383 H 1171.62 -0.0035531 0.675991 0
M  V30 12384 H 1174.18 0.637816 1.95246 0
M  V30 12385 H 1172.41 -1.26863 3.65298 0
M  V30 12386 H 1174.09 -0.965845 3.94241 0
M  V30 12387 H 1174.86 1.41818 4.63802 0
M  V30 12388 H 1170.74 0.192384 4.60598 0
M  V30 12389 H 1174.28 3.27535 6.15927 0
M  V30 12390 H 1170.18 2.04121 6.12376 0
M  V30 12391 H 1170.95 3.7778 7.26102 0
M  V30 12392 N 1173.61 -1.56489 0.186789 0
M  V30 12393 C 1174.86 -1.97634 -0.454831 0
M  V30 12394 C 1175.19 -1.07334 -1.61843 0
M  V30 12395 O 1174.47 -0.123612 -1.94107 0
M  V30 12396 C 1174.75 -3.48071 -0.922962 0
M  V30 12397 C 1174.6 -4.49149 0.241877 0
M  V30 12398 C 1175.92 -4.01994 -1.79134 0
M  V30 12399 H 1173.04 -0.718555 -0.163854 0
M  V30 12400 H 1175.68 -1.87984 0.27604 0
M  V30 12401 H 1173.83 -3.56425 -1.54575 0
M  V30 12402 H 1175.5 -4.52841 0.87936 0
M  V30 12403 H 1173.75 -4.24468 0.894964 0
M  V30 12404 H 1174.42 -5.51851 -0.128051 0
M  V30 12405 H 1176.89 -3.96367 -1.26618 0
M  V30 12406 H 1175.77 -5.07641 -2.08787 0
M  V30 12407 H 1176.03 -3.46747 -2.74261 0
M  V30 12408 N 1175.09 0.086862 -1.5736 0
M  V30 12409 C 1176.04 1.11134 -1.99081 0
M  V30 12410 C 1177.02 1.35318 -0.870506 0
M  V30 12411 O 1178.22 1.35871 -1.13437 0
M  V30 12412 C 1175.34 2.42931 -2.42569 0
M  V30 12413 C 1174.43 2.22085 -3.61302 0
M  V30 12414 N 1174.82 1.71128 -4.75971 0
M  V30 12415 C 1173.12 2.52619 -3.67559 0
M  V30 12416 C 1173.82 1.64745 -5.57883 0
M  V30 12417 N 1172.8 2.10257 -5.01291 0
M  V30 12418 H 1176.6 0.710431 -2.85184 0
M  V30 12419 H 1174.11 0.294168 -1.59714 0
M  V30 12420 H 1176.11 3.17069 -2.7069 0
M  V30 12421 H 1174.77 2.83751 -1.57846 0
M  V30 12422 H 1175.78 1.40207 -4.9856 0
M  V30 12423 H 1172.46 2.96908 -2.93516 0
M  V30 12424 H 1173.85 1.26329 -6.59917 0
M  V30 12425 N 1176.57 1.53483 0.357892 0
M  V30 12426 C 1177.98 1.43426 0.700073 0
M  V30 12427 C 1178.18 0.579493 1.92987 0
M  V30 12428 O 1177.24 0.0649086 2.52417 0
M  V30 12429 C 1178.55 2.86723 0.906099 0
M  V30 12430 C 1180.1 2.96405 1.00563 0
M  V30 12431 C 1180.58 4.4078 1.24407 0
M  V30 12432 N 1182.07 4.44243 1.3116 0
M  V30 12433 C 1182.8 5.53069 1.51333 0
M  V30 12434 N 1182.3 6.71928 1.68774 0
M  V30 12435 N 1184.09 5.40659 1.53765 0
M  V30 12436 H 1176.24 2.07559 -0.450894 0
M  V30 12437 H 1178.5 0.937649 -0.139711 0
M  V30 12438 H 1178.21 3.51622 0.0741579 0
M  V30 12439 H 1178.08 3.30827 1.81199 0
M  V30 12440 H 1180.47 2.31656 1.8281 0
M  V30 12441 H 1180.55 2.55684 0.0769512 0
M  V30 12442 H 1180.2 5.06105 0.426575 0
M  V30 12443 H 1180.13 4.7908 2.18608 0
M  V30 12444 H 1182.62 3.58587 1.19265 0
M  V30 12445 H 1182.93 7.50634 1.83762 0
M  V30 12446 H 1181.28 6.749 1.65937 0
M  V30 12447 H 1184.47 4.46764 1.39713 0
M  V30 12448 H 1184.64 6.25535 1.69146 0
M  V30 12449 N 1178.05 -0.61812 1.44973 0
M  V30 12450 C 1179.32 -1.37705 1.38913 0
M  V30 12451 C 1179.7 -2.1103 0.054385 0
M  V30 12452 O 1179.05 -2.07197 -0.963409 0
M  V30 12453 C 1179.26 -2.33265 2.59593 0
M  V30 12454 C 1180.61 -2.96197 3.04224 0
M  V30 12455 O 1181.63 -2.43589 2.59891 0
M  V30 12456 O 1180.49 -3.91666 3.8113 0
M  V30 12457 H 1177.59 -0.61694 0.55074 0
M  V30 12458 H 1180.13 -0.642088 1.57084 0
M  V30 12459 H 1178.9 -1.78271 3.48332 0
M  V30 12460 H 1178.53 -3.14158 2.43702 0
M  V30 12461 N 1179.52 -1.32087 -0.859693 0
M  V30 12462 C 1180.45 -1.23204 -1.98351 0
M  V30 12463 C 1181.43 -0.116974 -1.69697 0
M  V30 12464 O 1182.62 -0.303301 -1.91817 0
M  V30 12465 C 1179.75 -0.949171 -3.34078 0
M  V30 12466 C 1178.7 -2.02493 -3.77069 0
M  V30 12467 C 1178.03 -1.59455 -5.1037 0
M  V30 12468 C 1179.33 -3.43934 -3.93074 0
M  V30 12469 H 1181.02 -2.17227 -2.0604 0
M  V30 12470 H 1178.57 -1.04577 -0.989931 0
M  V30 12471 H 1180.52 -0.873594 -4.12245 0
M  V30 12472 H 1179.25 0.0267095 -3.26589 0
M  V30 12473 H 1177.91 -2.09057 -3.01149 0
M  V30 12474 H 1177.55 -0.606256 -4.99333 0
M  V30 12475 H 1177.25 -2.31429 -5.40106 0
M  V30 12476 H 1178.78 -1.53325 -5.91036 0
M  V30 12477 H 1180.19 -3.39986 -4.61608 0
M  V30 12478 H 1178.59 -4.14214 -4.3422 0
M  V30 12479 H 1179.66 -3.83965 -2.9614 0
M  V30 12480 N 1181 1.07532 -1.15215 0
M  V30 12481 C 1181.96 2.1286 -0.84989 0
M  V30 12482 C 1182.96 1.60103 0.149524 0
M  V30 12483 O 1184.15 1.74017 -0.0798918 0
M  V30 12484 C 1181.29 3.3984 -0.268617 0
M  V30 12485 H 1182.48 2.41106 -1.78347 0
M  V30 12486 H 1180.03 1.23392 -0.959386 0
M  V30 12487 H 1180.77 3.17235 0.67325 0
M  V30 12488 H 1180.55 3.79433 -0.988592 0
M  V30 12489 H 1182.04 4.17533 -0.0746554 0
M  V30 12490 N 1182.48 0.948665 1.2585 0
M  V30 12491 C 1183.44 0.468673 2.24357 0
M  V30 12492 C 1184.44 -0.424355 1.551 0
M  V30 12493 O 1185.63 -0.222481 1.72773 0
M  V30 12494 C 1182.77 -0.32359 3.39361 0
M  V30 12495 H 1183.96 1.33928 2.68334 0
M  V30 12496 H 1181.51 0.731357 1.38133 0
M  V30 12497 H 1182.25 -1.21212 3.00796 0
M  V30 12498 H 1182.03 0.316998 3.90816 0
M  V30 12499 H 1183.52 -0.649087 4.12525 0
M  V30 12500 N 1183.96 -1.40369 0.716545 0
M  V30 12501 C 1185.37 -1.54757 0.390202 0
M  V30 12502 C 1185.57 -1.68767 -1.10091 0
M  V30 12503 O 1184.63 -1.67779 -1.88697 0
M  V30 12504 C 1185.94 -2.77546 1.15709 0
M  V30 12505 C 1187.49 -2.91364 1.14349 0
M  V30 12506 C 1187.97 -4.17068 1.89256 0
M  V30 12507 N 1189.46 -4.2407 1.8633 0
M  V30 12508 C 1190.19 -5.20243 2.41112 0
M  V30 12509 N 1189.69 -6.22318 3.04454 0
M  V30 12510 N 1191.48 -5.12328 2.31249 0
M  V30 12511 H 1183.63 -1.29521 1.68339 0
M  V30 12512 H 1185.9 -0.626382 0.711582 0
M  V30 12513 H 1185.6 -2.73474 2.21144 0
M  V30 12514 H 1185.48 -3.69682 0.749347 0
M  V30 12515 H 1187.86 -2.94939 0.0973383 0
M  V30 12516 H 1187.94 -2.00344 1.59047 0
M  V30 12517 H 1187.59 -4.14255 2.93863 0
M  V30 12518 H 1187.52 -5.07099 1.41978 0
M  V30 12519 H 1190.01 -3.50944 1.40168 0
M  V30 12520 H 1190.32 -6.92129 3.43769 0
M  V30 12521 H 1188.67 -6.22759 3.08538 0
M  V30 12522 H 1191.86 -4.31514 1.8142 0
M  V30 12523 H 1192.03 -5.87107 2.74243 0
M  V30 12524 N 1185.44 -0.462799 -1.50652 0
M  V30 12525 C 1186.38 0.349784 -2.29955 0
M  V30 12526 C 1187.38 0.997947 -1.36885 0
M  V30 12527 O 1188.58 0.93 -1.54114 0
M  V30 12528 H 1184.96 0.131635 -0.740389 0
M  V30 12529 H 1186.93 -0.33958 -2.96461 0
M  V30 12530 C 1185.68 1.42398 -3.17204 0
M  V30 12531 H 1185 0.934611 -3.88722 0
M  V30 12532 H 1186.44 1.96528 -3.75703 0
M  V30 12533 C 1184.9 2.42135 -2.34248 0
M  V30 12534 O 1185.43 3.47229 -2.01978 0
M  V30 12535 N 1183.64 2.13647 -1.96985 0
M  V30 12536 H 1183.18 1.28209 -2.23428 0
M  V30 12537 H 1183.14 2.80615 -1.41783 0
M  V30 12538 N 1186.91 1.56388 -0.195085 0
M  V30 12539 C 1188.16 1.96755 0.443901 0
M  V30 12540 C 1188.48 1.08483 1.6276 0
M  V30 12541 O 1189.68 1.38632 2.33438 0
M  V30 12542 C 1188.14 3.49933 0.841139 0
M  V30 12543 C 1187.75 4.46868 -0.318275 0
M  V30 12544 C 1189.49 3.99069 1.44721 0
M  V30 12545 C 1187.4 5.91316 0.0999211 0
M  V30 12546 H 1186.33 0.734674 0.169616 0
M  V30 12547 H 1188.98 1.8124 -0.287101 0
M  V30 12548 H 1187.36 3.60951 1.62881 0
M  V30 12549 H 1188.53 4.47581 -1.0958 0
M  V30 12550 H 1186.85 4.07925 -0.835842 0
M  V30 12551 H 1189.45 5.04465 1.77255 0
M  V30 12552 H 1189.79 3.43376 2.35369 0
M  V30 12553 H 1190.32 3.91165 0.723513 0
M  V30 12554 H 1187.06 6.50934 -0.77237 0
M  V30 12555 H 1186.58 5.93856 0.842304 0
M  V30 12556 H 1188.26 6.44778 0.535726 0
M  V30 12557 N 1188.39 -0.0785156 1.57404 0
M  V30 12558 C 1189.32 -1.09446 2.06262 0
M  V30 12559 C 1190.3 -1.40777 0.954772 0
M  V30 12560 O 1191.49 -1.5052 1.22708 0
M  V30 12561 C 1188.62 -2.40979 2.50093 0
M  V30 12562 C 1187.57 -2.24017 3.64692 0
M  V30 12563 C 1186.9 -3.60873 3.94556 0
M  V30 12564 C 1188.2 -1.66696 4.94985 0
M  V30 12565 H 1189.89 -0.687928 2.9139 0
M  V30 12566 H 1187.44 -0.329466 1.4018 0
M  V30 12567 H 1189.39 -3.12337 2.82884 0
M  V30 12568 H 1188.12 -2.83599 1.61985 0
M  V30 12569 H 1186.77 -1.55101 3.32174 0
M  V30 12570 H 1186.42 -4.01051 3.0359 0
M  V30 12571 H 1186.12 -3.50365 4.71718 0
M  V30 12572 H 1187.65 -4.33673 4.29837 0
M  V30 12573 H 1189.06 -2.27913 5.2605 0
M  V30 12574 H 1187.46 -1.66902 5.76423 0
M  V30 12575 H 1188.53 -0.627827 4.80818 0
M  V30 12576 N 1189.87 -1.5367 -0.349747 0
M  V30 12577 C 1191.12 -1.7087 -1.0923 0
M  V30 12578 C 1191.45 -0.467299 -1.88494 0
M  V30 12579 O 1190.72 0.535619 -1.8698 0
M  V30 12580 C 1191.01 -2.9684 -2.03858 0
M  V30 12581 C 1190.86 -4.31174 -1.28097 0
M  V30 12582 C 1192.18 -3.18459 -3.03763 0
M  V30 12583 H 1189.3 -0.621757 -0.395711 0
M  V30 12584 H 1191.94 -1.86333 -0.371481 0
M  V30 12585 H 1190.09 -2.83788 -2.65323 0
M  V30 12586 H 1191.76 -4.56066 -0.692933 0
M  V30 12587 H 1190.01 -4.29866 -0.582924 0
M  V30 12588 H 1190.68 -5.15482 -1.9744 0
M  V30 12589 H 1193.15 -3.30801 -2.52409 0
M  V30 12590 H 1192.03 -4.08006 -3.67182 0
M  V30 12591 H 1192.29 -2.34467 -3.74803 0
M  V30 12592 N 1191.35 0.610423 -1.45298 0
M  V30 12593 C 1192.3 1.74245 -1.54083 0
M  V30 12594 C 1193.29 1.64338 -0.411003 0
M  V30 12595 O 1194.5 1.70167 -0.586799 0
M  V30 12596 H 1190.87 0.575612 -0.483916 0
M  V30 12597 H 1192.84 1.63961 -2.49318 0
M  V30 12598 C 1191.59 3.1262 -1.52198 0
M  V30 12599 H 1190.91 3.209 -2.3846 0
M  V30 12600 H 1192.35 3.91665 -1.62403 0
M  V30 12601 C 1190.81 3.36001 -0.24595 0
M  V30 12602 O 1191.34 3.95982 0.675374 0
M  V30 12603 N 1189.55 2.9025 -0.142537 0
M  V30 12604 H 1189.1 2.41621 -0.893143 0
M  V30 12605 H 1189.05 3.06268 0.710427 0
M  V30 12606 N 1192.83 1.32541 0.852676 0
M  V30 12607 C 1194.05 1.2636 1.64462 0
M  V30 12608 C 1194.48 -0.16508 1.87374 0
M  V30 12609 O 1193.83 -1.11712 1.42794 0
M  V30 12610 C 1193.88 2.03052 2.97997 0
M  V30 12611 O 1192.99 1.37967 3.88637 0
M  V30 12612 H 1192.33 0.435393 0.501327 0
M  V30 12613 H 1194.86 1.74888 1.06186 0
M  V30 12614 H 1194.87 2.133 3.47803 0
M  V30 12615 H 1193.54 3.06941 2.80642 0
M  V30 12616 H 1192.12 1.36279 3.47106 0
M  V30 12617 N 1194.3 -1.0692 1.15784 0
M  V30 12618 C 1195.25 -2.16335 0.854506 0
M  V30 12619 C 1196.25 -1.68505 -0.173868 0
M  V30 12620 O 1197.45 -1.79977 -0.0284722 0
M  V30 12621 H 1193.83 -0.706103 0.258694 0
M  V30 12622 H 1195.8 -2.39135 1.78486 0
M  V30 12623 C 1194.55 -3.45778 0.365042 0
M  V30 12624 H 1193.87 -3.82971 1.14776 0
M  V30 12625 H 1195.31 -4.23567 0.191504 0
M  V30 12626 C 1193.77 -3.24258 -0.914253 0
M  V30 12627 O 1194.3 -3.49236 -1.98487 0
M  V30 12628 N 1192.51 -2.77722 -0.855501 0
M  V30 12629 H 1192.05 -2.57595 0.0159233 0
M  V30 12630 H 1192.01 -2.63702 -1.71198 0
M  V30 12631 N 1195.78 -0.955326 -1.25345 0
M  V30 12632 C 1196.71 -0.494145 -2.28211 0
M  V30 12633 C 1197.69 0.459875 -1.63766 0
M  V30 12634 O 1198.88 0.358679 -1.90859 0
M  V30 12635 C 1196.01 0.228228 -3.46549 0
M  V30 12636 C 1194.96 -0.640601 -4.23179 0
M  V30 12637 C 1194.29 0.212553 -5.34277 0
M  V30 12638 C 1195.59 -1.91906 -4.85767 0
M  V30 12639 H 1197.28 -1.35391 -2.67039 0
M  V30 12640 H 1194.83 -0.652462 -1.2837 0
M  V30 12641 H 1196.78 0.561995 -4.17636 0
M  V30 12642 H 1195.51 1.12224 -3.06714 0
M  V30 12643 H 1194.16 -0.957462 -3.53876 0
M  V30 12644 H 1193.81 1.10634 -4.90682 0
M  V30 12645 H 1193.51 -0.365473 -5.86462 0
M  V30 12646 H 1195.04 0.541271 -6.08196 0
M  V30 12647 H 1196.45 -1.65165 -5.48993 0
M  V30 12648 H 1194.85 -2.44279 -5.48131 0
M  V30 12649 H 1195.92 -2.62173 -4.07914 0
M  V30 12650 N 1197.26 1.39987 -0.723979 0
M  V30 12651 C 1198.51 2.01028 -0.267511 0
M  V30 12652 C 1198.84 1.57295 1.13894 0
M  V30 12653 O 1198.12 0.796805 1.7743 0
M  V30 12654 C 1198.4 3.58326 -0.356971 0
M  V30 12655 C 1198.25 4.12109 -1.8024 0
M  V30 12656 C 1199.57 4.39289 0.267003 0
M  V30 12657 H 1196.69 0.730364 -0.0986775 0
M  V30 12658 H 1199.33 1.66348 -0.91806 0
M  V30 12659 H 1197.48 3.88001 0.196908 0
M  V30 12660 H 1199.15 3.93199 -2.41231 0
M  V30 12661 H 1197.4 3.66082 -2.32737 0
M  V30 12662 H 1198.07 5.21261 -1.81634 0
M  V30 12663 H 1200.54 4.15595 -0.20503 0
M  V30 12664 H 1199.42 5.48624 0.174004 0
M  V30 12665 H 1199.68 4.20931 1.35164 0
M  V30 12666 N 1198.74 0.470782 1.50404 0
M  V30 12667 C 1199.98 -0.0830648 2.04231 0
M  V30 12668 C 1200.34 -1.37015 1.34503 0
M  V30 12669 O 1201.54 -2.00635 1.78883 0
M  V30 12670 C 1199.82 -0.262986 3.56431 0
M  V30 12671 S 1201.37 -0.775432 4.31894 0
M  V30 12672 H 1198.19 -0.0161025 0.710818 0
M  V30 12673 H 1200.79 0.63785 1.84802 0
M  V30 12674 H 1199.5 0.679558 4.04735 0
M  V30 12675 H 1199.03 -1.01002 3.80213 0
M  V30 12676 H 1201.04 -2.04887 4.51924 0
M  V30 12677 N 1200.22 -1.56282 0.203376 0
M  V30 12678 C 1201.16 -2.19473 -0.714164 0
M  V30 12679 C 1202.13 -1.14454 -1.20372 0
M  V30 12680 O 1203.32 -1.42739 -1.26611 0
M  V30 12681 C 1200.46 -2.86451 -1.92457 0
M  V30 12682 C 1199.57 -4.06017 -1.47561 0
M  V30 12683 C 1198.71 -4.60829 -2.64216 0
M  V30 12684 C 1197.75 -5.72734 -2.15967 0
M  V30 12685 N 1196.88 -6.21916 -3.25829 0
M  V30 12686 H 1201.72 -2.97523 -0.168558 0
M  V30 12687 H 1199.26 -1.46926 -0.0714525 0
M  V30 12688 H 1201.22 -3.23459 -2.63496 0
M  V30 12689 H 1199.85 -2.10951 -2.44335 0
M  V30 12690 H 1198.9 -3.74617 -0.660784 0
M  V30 12691 H 1200.21 -4.8693 -1.08168 0
M  V30 12692 H 1199.37 -5.00185 -3.43366 0
M  V30 12693 H 1198.11 -3.7904 -3.06887 0
M  V30 12694 H 1197.11 -5.32899 -1.35273 0
M  V30 12695 H 1198.34 -6.56346 -1.74316 0
M  V30 12696 H 1196.28 -5.43047 -3.68016 0
M  V30 12697 H 1196.2 -6.97904 -2.90631 0
M  V30 12698 H 1197.47 -6.65927 -4.05168 0
M  V30 12699 N 1201.7 0.070167 -1.57444 0
M  V30 12700 C 1202.94 0.770153 -1.87607 0
M  V30 12701 C 1203.27 1.77143 -0.795875 0
M  V30 12702 O 1202.55 1.93533 0.193674 0
M  V30 12703 C 1202.83 1.47668 -3.2843 0
M  V30 12704 C 1202.69 0.491712 -4.47104 0
M  V30 12705 C 1204 2.42118 -3.67514 0
M  V30 12706 H 1201.12 0.278519 -0.682346 0
M  V30 12707 H 1203.77 0.0333184 -1.89971 0
M  V30 12708 H 1201.92 2.10476 -3.26546 0
M  V30 12709 H 1203.59 -0.131283 -4.61113 0
M  V30 12710 H 1201.83 -0.192817 -4.33371 0
M  V30 12711 H 1202.5 1.02372 -5.42424 0
M  V30 12712 H 1204.98 1.89387 -3.70502 0
M  V30 12713 H 1203.85 2.88556 -4.66933 0
M  V30 12714 H 1204.11 3.26995 -2.97534 0
M  V30 12715 N 1203.17 1.53854 0.341593 0
M  V30 12716 C 1204.4 1.75447 1.10604 0
M  V30 12717 C 1204.82 0.493225 1.81518 0
M  V30 12718 O 1204.18 -0.554253 1.7262 0
M  V30 12719 C 1204.23 2.93593 2.09369 0
M  V30 12720 O 1203.33 2.63878 3.16926 0
M  V30 12721 H 1202.67 0.581923 0.319783 0
M  V30 12722 H 1205.2 2.00822 0.391388 0
M  V30 12723 H 1205.21 3.20437 2.52556 0
M  V30 12724 H 1203.89 3.85067 1.57151 0
M  V30 12725 H 1202.47 2.47929 2.78542 0
M  V30 12726 N 1204.65 -0.602709 1.4562 0
M  V30 12727 C 1205.93 -1.36224 1.40366 0
M  V30 12728 C 1206.31 -2.1096 0.0767645 0
M  V30 12729 O 1205.66 -2.08207 -0.941378 0
M  V30 12730 C 1205.87 -2.30499 2.62052 0
M  V30 12731 C 1207.21 -2.92954 3.07348 0
M  V30 12732 O 1208.24 -2.40818 2.62459 0
M  V30 12733 O 1207.1 -3.87601 3.85263 0
M  V30 12734 H 1204.19 -0.611064 0.557253 0
M  V30 12735 H 1206.74 -0.625391 1.57756 0
M  V30 12736 H 1205.51 -1.74566 3.50203 0
M  V30 12737 H 1205.13 -3.11556 2.4702 0
M  V30 12738 N 1206.13 -1.32992 -0.845635 0
M  V30 12739 C 1207.38 -1.24065 -1.60044 0
M  V30 12740 C 1207.7 0.195282 -1.93517 0
M  V30 12741 O 1206.96 1.1507 -1.58296 0
M  V30 12742 C 1207.26 -2.05454 -2.92444 0
M  V30 12743 C 1206.92 -3.54718 -2.78362 0
M  V30 12744 C 1205.59 -3.95413 -2.74229 0
M  V30 12745 C 1207.94 -4.49598 -2.63649 0
M  V30 12746 C 1205.27 -5.29216 -2.53274 0
M  V30 12747 C 1207.62 -5.83554 -2.44228 0
M  V30 12748 C 1206.28 -6.2344 -2.38493 0
M  V30 12749 H 1205.55 -0.453985 -0.585644 0
M  V30 12750 H 1208.2 -1.6451 -0.980244 0
M  V30 12751 H 1206.5 -1.57765 -3.58633 0
M  V30 12752 H 1208.2 -1.95909 -3.49887 0
M  V30 12753 H 1204.79 -3.22403 -2.82409 0
M  V30 12754 H 1208.98 -4.19072 -2.65881 0
M  V30 12755 H 1204.23 -5.59164 -2.47275 0
M  V30 12756 H 1208.41 -6.56681 -2.31825 0
M  V30 12757 H 1206.03 -7.27058 -2.22015 0
M  V30 12758 N 1207.61 1.06304 -1.1635 0
M  V30 12759 C 1208.86 1.78747 -0.943074 0
M  V30 12760 C 1209.18 1.87646 0.530483 0
M  V30 12761 O 1208.45 1.38506 1.38538 0
M  V30 12762 H 1207.03 0.662072 -0.345932 0
M  V30 12763 H 1209.69 1.28413 -1.46615 0
M  V30 12764 H 1208.78 2.80828 -1.3617 0
M  V30 12765 N 1209.09 0.96196 1.24836 0
M  V30 12766 C 1210.02 0.506241 2.27946 0
M  V30 12767 C 1211 -0.451183 1.64007 0
M  V30 12768 O 1212.18 -0.348552 1.91046 0
M  V30 12769 C 1209.31 -0.209846 3.46665 0
M  V30 12770 C 1208.27 0.663035 4.22833 0
M  V30 12771 C 1207.59 -0.184216 5.34383 0
M  V30 12772 C 1208.89 1.94479 4.84742 0
M  V30 12773 H 1210.59 1.36805 2.66317 0
M  V30 12774 H 1208.13 0.65926 1.28023 0
M  V30 12775 H 1210.08 -0.539838 4.17928 0
M  V30 12776 H 1208.81 -1.10596 3.07305 0
M  V30 12777 H 1207.47 0.976216 3.53363 0
M  V30 12778 H 1207.12 -1.08031 4.91262 0
M  V30 12779 H 1206.82 0.39657 5.8626 0
M  V30 12780 H 1208.34 -0.509009 6.08475 0
M  V30 12781 H 1209.75 1.68074 5.48109 0
M  V30 12782 H 1208.15 2.47183 5.46828 0
M  V30 12783 H 1209.22 2.64332 4.06517 0
M  V30 12784 N 1210.56 -1.39601 0.731392 0
M  V30 12785 C 1211.79 -2.05411 0.286532 0
M  V30 12786 C 1212.21 -1.54777 -1.06892 0
M  V30 12787 O 1211.57 -0.689942 -1.67659 0
M  V30 12788 C 1211.62 -3.594 0.293914 0
M  V30 12789 O 1210.72 -4.06072 -0.719657 0
M  V30 12790 H 1210.06 -0.650949 0.131004 0
M  V30 12791 H 1212.59 -1.78703 0.996305 0
M  V30 12792 H 1212.6 -4.0777 0.137052 0
M  V30 12793 H 1211.28 -3.95617 1.28298 0
M  V30 12794 H 1209.86 -3.69125 -0.529226 0
M  V30 12795 N 1212.04 -0.478751 -1.50152 0
M  V30 12796 C 1213.46 -0.133356 -1.59042 0
M  V30 12797 C 1213.66 1.36069 -1.48618 0
M  V30 12798 O 1212.71 2.13468 -1.34862 0
M  V30 12799 C 1214.03 -0.690369 -2.92668 0
M  V30 12800 C 1215.58 -0.654481 -3.06081 0
M  V30 12801 C 1216.05 -1.18917 -4.42293 0
M  V30 12802 N 1217.54 -1.14891 -4.48725 0
M  V30 12803 C 1218.28 -1.53305 -5.52526 0
M  V30 12804 N 1217.77 -1.99205 -6.63543 0
M  V30 12805 N 1219.57 -1.4486 -5.43113 0
M  V30 12806 H 1211.72 -1.45037 -1.55171 0
M  V30 12807 H 1213.98 -0.600254 -0.733757 0
M  V30 12808 H 1213.69 -1.7373 -3.05795 0
M  V30 12809 H 1213.56 -0.138227 -3.76947 0
M  V30 12810 H 1215.95 0.383564 -2.92597 0
M  V30 12811 H 1216.03 -1.24352 -2.2354 0
M  V30 12812 H 1215.67 -2.22588 -4.56527 0
M  V30 12813 H 1215.6 -0.57628 -5.23437 0
M  V30 12814 H 1218.09 -0.812344 -3.69066 0
M  V30 12815 H 1218.41 -2.26645 -7.38818 0
M  V30 12816 H 1216.75 -2.03164 -6.64642 0
M  V30 12817 H 1219.94 -1.08836 -4.55272 0
M  V30 12818 H 1220.11 -1.75123 -6.23888 0
M  V30 12819 N 1213.52 1.56172 -0.211661 0
M  V30 12820 C 1214.77 1.98332 0.423332 0
M  V30 12821 C 1215.1 1.09895 1.60115 0
M  V30 12822 O 1214.37 0.154477 1.93886 0
M  V30 12823 C 1214.66 3.49495 0.86747 0
M  V30 12824 C 1214.51 4.48708 -0.313302 0
M  V30 12825 C 1215.83 4.04793 1.72716 0
M  V30 12826 H 1212.95 0.72107 0.152402 0
M  V30 12827 H 1215.59 1.87521 -0.305912 0
M  V30 12828 H 1213.74 3.58839 1.48885 0
M  V30 12829 H 1215.41 4.51385 -0.951291 0
M  V30 12830 H 1213.66 4.2299 -0.96238 0
M  V30 12831 H 1214.33 5.51985 0.0402402 0
M  V30 12832 H 1216.8 3.98332 1.20296 0
M  V30 12833 H 1215.68 5.10898 2.00684 0
M  V30 12834 H 1215.94 3.51067 2.68709 0
M  V30 12835 N 1215 -0.0618163 1.57479 0
M  V30 12836 C 1215.93 -1.07252 2.07411 0
M  V30 12837 C 1216.91 -1.39756 0.969649 0
M  V30 12838 O 1218.09 -1.4921 1.24298 0
M  V30 12839 C 1215.22 -2.38313 2.52635 0
M  V30 12840 C 1214.18 -2.20136 3.67048 0
M  V30 12841 C 1213.5 -3.56668 3.98361 0
M  V30 12842 C 1214.8 -1.61437 4.96725 0
M  V30 12843 H 1216.5 -0.656983 2.92103 0
M  V30 12844 H 1214.04 -0.314579 1.40522 0
M  V30 12845 H 1216 -3.09319 2.86181 0
M  V30 12846 H 1214.72 -2.81865 1.64984 0
M  V30 12847 H 1213.38 -1.51569 3.338 0
M  V30 12848 H 1213.03 -3.97809 3.07826 0
M  V30 12849 H 1212.73 -3.45342 4.75408 0
M  V30 12850 H 1214.25 -4.2909 4.34413 0
M  V30 12851 H 1215.67 -2.2232 5.28438 0
M  V30 12852 H 1214.06 -1.60779 5.78161 0
M  V30 12853 H 1215.13 -0.576795 4.81457 0
M  V30 12854 N 1216.48 -1.54033 -0.333429 0
M  V30 12855 C 1217.39 -1.85737 -1.43314 0
M  V30 12856 C 1218.4 -0.748398 -1.57083 0
M  V30 12857 O 1219.58 -1.04171 -1.72367 0
M  V30 12858 C 1216.64 -2.06942 -2.78165 0
M  V30 12859 C 1215.7 -3.30774 -2.73655 0
M  V30 12860 C 1214.94 -3.50957 -4.02075 0
M  V30 12861 O 1215.16 -2.74774 -4.99855 0
M  V30 12862 O 1214.09 -4.44412 -4.05933 0
M  V30 12863 H 1217.92 -2.7923 -1.19434 0
M  V30 12864 H 1215.51 -1.39814 -0.526546 0
M  V30 12865 H 1217.39 -2.22276 -3.58011 0
M  V30 12866 H 1216.06 -1.16638 -3.01956 0
M  V30 12867 H 1214.97 -3.20835 -1.92395 0
M  V30 12868 H 1216.3 -4.21103 -2.54819 0
M  V30 12869 N 1217.95 0.594978 -1.45938 0
M  V30 12870 C 1219.23 1.35477 -1.41086 0
M  V30 12871 C 1219.61 2.10917 -0.0879512 0
M  V30 12872 O 1218.96 2.08704 0.930323 0
M  V30 12873 C 1219.17 2.29106 -2.63271 0
M  V30 12874 C 1220.52 2.9132 -3.08898 0
M  V30 12875 O 1221.54 2.39423 -2.63733 0
M  V30 12876 O 1220.4 3.85553 -3.87313 0
M  V30 12877 H 1217.49 0.6081 -0.560485 0
M  V30 12878 H 1220.04 0.617016 -1.58085 0
M  V30 12879 H 1218.81 1.72707 -3.51124 0
M  V30 12880 H 1218.44 3.10241 -2.48669 0
M  V30 12881 N 1219.43 1.33438 0.838571 0
M  V30 12882 C 1220.71 1.1551 1.5785 0
M  V30 12883 C 1221.09 -0.278405 2.09256 0
M  V30 12884 O 1220.44 -1.27748 1.89453 0
M  V30 12885 C 1220.65 2.19647 2.71212 0
M  V30 12886 C 1222 2.53818 3.40384 0
M  V30 12887 O 1223.02 2.18317 2.81454 0
M  V30 12888 O 1221.88 3.14741 4.46766 0
M  V30 12889 H 1218.97 0.446785 0.695925 0
M  V30 12890 H 1221.52 1.45021 0.8813 0
M  V30 12891 H 1220.29 3.15936 2.30869 0
M  V30 12892 H 1219.91 1.91224 3.48596 0
M  V30 12893 N 1220.91 -1.05686 1.16912 0
M  V30 12894 C 1222.32 -1.60059 0.961153 0
M  V30 12895 C 1222.67 -1.89894 -0.493409 0
M  V30 12896 O 1221.8 -1.67692 -1.36778 0
M  V30 12897 C 1222.39 -2.90803 1.73837 0
M  V30 12898 C 1220.95 -3.41854 1.57522 0
M  V30 12899 C 1220.1 -2.15658 1.74319 0
M  V30 12900 H 1223.05 -0.885592 1.31693 0
M  V30 12901 H 1223.07 -3.60485 1.21781 0
M  V30 12902 H 1222.58 -2.69056 2.79697 0
M  V30 12903 H 1220.68 -3.68647 0.541284 0
M  V30 12904 H 1220.8 -4.16771 2.36302 0
M  V30 12905 H 1219.16 -2.26177 1.17115 0
M  V30 12906 H 1219.94 -1.96386 2.8158 0
M  V30 12907 N 1222.39 -0.968567 -1.24324 0
M  V30 12908 C 1223.3 -0.50703 -2.29055 0
M  V30 12909 C 1224.31 0.432431 -1.68541 0
M  V30 12910 O 1225.49 0.30526 -1.99073 0
M  V30 12911 C 1222.56 0.194589 -3.46153 0
M  V30 12912 C 1221.62 -0.784805 -4.22066 0
M  V30 12913 C 1220.85 -0.116574 -5.33573 0
M  V30 12914 O 1221.07 1.09492 -5.59792 0
M  V30 12915 O 1220.01 -0.809171 -5.96436 0
M  V30 12916 H 1223.83 -1.3777 -2.70653 0
M  V30 12917 H 1221.42 -0.735645 -1.30033 0
M  V30 12918 H 1223.3 0.588684 -4.17268 0
M  V30 12919 H 1221.97 1.04021 -3.06531 0
M  V30 12920 H 1220.88 -1.22938 -3.53323 0
M  V30 12921 H 1222.21 -1.59887 -4.65507 0
M  V30 12922 N 1223.87 1.39211 -0.738786 0
M  V30 12923 C 1224.83 2.28937 -0.109746 0
M  V30 12924 C 1225.83 1.46488 0.663157 0
M  V30 12925 O 1227.02 1.67119 0.491614 0
M  V30 12926 C 1224.15 3.30039 0.853633 0
M  V30 12927 H 1225.34 2.86068 -0.900295 0
M  V30 12928 H 1222.9 1.47922 -0.504853 0
M  V30 12929 H 1223.63 2.77971 1.6704 0
M  V30 12930 H 1223.42 3.90935 0.302007 0
M  V30 12931 H 1224.91 3.97169 1.29022 0
M  V30 12932 N 1225.34 0.486708 1.49896 0
M  V30 12933 C 1226.31 -0.288126 2.27382 0
M  V30 12934 C 1227.31 -0.906675 1.32801 0
M  V30 12935 O 1228.5 -0.773425 1.56089 0
M  V30 12936 C 1225.63 -1.41194 3.10285 0
M  V30 12937 H 1226.82 0.391618 2.97332 0
M  V30 12938 H 1224.38 0.24123 1.54427 0
M  V30 12939 H 1225.11 -2.12627 2.44868 0
M  V30 12940 H 1224.9 -0.974033 3.79809 0
M  V30 12941 H 1226.39 -1.95812 3.68846 0
M  V30 12942 N 1226.82 -1.56058 0.219941 0
M  V30 12943 C 1228.05 -2.02358 -0.416497 0
M  V30 12944 C 1228.46 -1.09903 -1.54007 0
M  V30 12945 O 1227.8 -0.100635 -1.83424 0
M  V30 12946 C 1227.87 -3.45 -1.01072 0
M  V30 12947 C 1227.53 -4.56994 -0.0227891 0
M  V30 12948 C 1228.53 -5.14061 0.776997 0
M  V30 12949 C 1226.21 -5.02209 0.0954981 0
M  V30 12950 C 1228.21 -6.14813 1.68179 0
M  V30 12951 C 1225.89 -6.02799 1.00383 0
M  V30 12952 C 1226.89 -6.58977 1.79552 0
M  V30 12953 O 1226.58 -7.57608 2.68858 0
M  V30 12954 H 1226.31 -0.667581 -0.106355 0
M  V30 12955 H 1228.87 -2.02677 0.333348 0
M  V30 12956 H 1227.1 -3.41745 -1.80962 0
M  V30 12957 H 1228.78 -3.74958 -1.55439 0
M  V30 12958 H 1229.55 -4.79979 0.696053 0
M  V30 12959 H 1225.43 -4.58164 -0.510599 0
M  V30 12960 H 1228.97 -6.58588 2.30017 0
M  V30 12961 H 1224.87 -6.36302 1.08579 0
M  V30 12962 H 1225.64 -7.75124 2.62915 0
M  V30 12963 N 1228.3 0.053464 -1.57509 0
M  V30 12964 C 1229.53 0.761533 -1.92375 0
M  V30 12965 C 1229.94 1.70179 -0.817585 0
M  V30 12966 O 1229.3 1.81313 0.207843 0
M  V30 12967 C 1229.35 1.53954 -3.27078 0
M  V30 12968 O 1229.07 0.637054 -4.33443 0
M  V30 12969 C 1230.57 2.34697 -3.76075 0
M  V30 12970 H 1227.79 0.215483 -0.635459 0
M  V30 12971 H 1230.34 0.0182624 -2.04492 0
M  V30 12972 H 1228.49 2.23492 -3.16434 0
M  V30 12973 H 1228.91 1.18006 -5.11053 0
M  V30 12974 H 1230.38 2.84716 -4.72906 0
M  V30 12975 H 1230.86 3.15041 -3.06016 0
M  V30 12976 H 1231.46 1.70281 -3.89724 0
M  V30 12977 N 1229.78 1.54207 0.325255 0
M  V30 12978 C 1231.01 1.76293 1.08298 0
M  V30 12979 C 1231.42 0.510722 1.81761 0
M  V30 12980 O 1230.78 -0.5185 1.7498 0
M  V30 12981 C 1230.83 2.95498 2.08238 0
M  V30 12982 O 1230.55 4.15877 1.37759 0
M  V30 12983 C 1232.05 3.29781 2.96242 0
M  V30 12984 H 1229.27 0.588576 0.322209 0
M  V30 12985 H 1231.82 2.0109 0.371896 0
M  V30 12986 H 1229.97 2.72979 2.74884 0
M  V30 12987 H 1230.39 4.82918 2.04672 0
M  V30 12988 H 1231.86 4.16495 3.62265 0
M  V30 12989 H 1232.34 2.46874 3.63249 0
M  V30 12990 H 1232.94 3.54372 2.3516 0
M  V30 12991 N 1231.26 -0.58723 1.46251 0
M  V30 12992 C 1232.49 -1.37174 1.5489 0
M  V30 12993 C 1232.9 -1.87857 0.188445 0
M  V30 12994 O 1232.26 -1.63365 -0.813509 0
M  V30 12995 C 1232.31 -2.56237 2.55 0
M  V30 12996 O 1232.03 -2.07655 3.8576 0
M  V30 12997 C 1233.53 -3.48846 2.73535 0
M  V30 12998 H 1230.75 -0.419211 0.523931 0
M  V30 12999 H 1233.29 -0.714307 1.91619 0
M  V30 13000 H 1231.45 -3.1798 2.21287 0
M  V30 13001 H 1231.86 -2.85161 4.40208 0
M  V30 13002 H 1233.34 -4.2888 3.47514 0
M  V30 13003 H 1233.81 -4.00493 1.80282 0
M  V30 13004 H 1234.42 -2.92942 3.08326 0
M  V30 13005 N 1232.74 -1.33881 -0.831482 0
M  V30 13006 C 1233.98 -1.25507 -1.58406 0
M  V30 13007 C 1234.3 0.177137 -1.94194 0
M  V30 13008 O 1233.57 1.10769 -1.61576 0
M  V30 13009 H 1232.15 -0.461551 -0.587349 0
M  V30 13010 H 1234.82 -1.6769 -0.99328 0
M  V30 13011 H 1233.91 -1.85391 -2.51071 0
M  V30 13012 N 1234.21 1.05064 -1.1747 0
M  V30 13013 C 1235.46 1.77737 -0.961979 0
M  V30 13014 C 1235.78 1.88198 0.510551 0
M  V30 13015 O 1235.05 1.39968 1.37062 0
M  V30 13016 H 1233.63 0.658366 -0.352935 0
M  V30 13017 H 1236.29 1.26851 -1.47969 0
M  V30 13018 H 1235.39 2.79368 -1.39141 0
M  V30 13019 N 1235.69 0.975146 1.23809 0
M  V30 13020 C 1236.64 0.510761 2.25077 0
M  V30 13021 C 1237.61 -0.447605 1.59955 0
M  V30 13022 O 1238.79 -0.356318 1.87443 0
M  V30 13023 C 1235.93 -0.185755 3.446 0
M  V30 13024 C 1235.05 0.812254 4.24295 0
M  V30 13025 C 1234.18 0.0910835 5.31122 0
M  V30 13026 C 1233.22 1.07866 6.02521 0
M  V30 13027 N 1232.36 0.386995 7.01033 0
M  V30 13028 H 1237.2 1.37913 2.64166 0
M  V30 13029 H 1234.73 0.691184 1.2985 0
M  V30 13030 H 1236.69 -0.606341 4.1277 0
M  V30 13031 H 1235.32 -1.01803 3.06327 0
M  V30 13032 H 1234.37 1.35125 3.55592 0
M  V30 13033 H 1235.69 1.56502 4.73612 0
M  V30 13034 H 1234.84 -0.387129 6.05464 0
M  V30 13035 H 1233.58 -0.694324 4.82732 0
M  V30 13036 H 1232.58 1.56767 5.26976 0
M  V30 13037 H 1233.81 1.86464 6.52999 0
M  V30 13038 H 1231.76 -0.3793 6.54903 0
M  V30 13039 H 1231.67 1.0785 7.48268 0
M  V30 13040 H 1232.94 -0.0690036 7.79469 0
M  V30 13041 N 1237.17 -1.38817 0.746158 0
M  V30 13042 C 1238.42 -1.99519 0.295839 0
M  V30 13043 C 1238.73 -1.59897 -1.12661 0
M  V30 13044 O 1239.94 -2.13514 -1.67702 0
M  V30 13045 C 1238.39 -3.56712 0.477984 0
M  V30 13046 C 1238 -4.0529 1.90904 0
M  V30 13047 C 1239.75 -4.24405 0.0900039 0
M  V30 13048 C 1237.65 -5.55097 2.04014 0
M  V30 13049 H 1236.58 -0.746389 0.106861 0
M  V30 13050 H 1239.23 -1.58676 0.921637 0
M  V30 13051 H 1237.62 -3.95406 -0.216884 0
M  V30 13052 H 1238.79 -3.77904 2.63677 0
M  V30 13053 H 1237.1 -3.50297 2.25125 0
M  V30 13054 H 1239.7 -5.3444 0.16682 0
M  V30 13055 H 1240.04 -4.05166 -0.956349 0
M  V30 13056 H 1240.58 -3.90924 0.736446 0
M  V30 13057 H 1237.32 -5.7923 3.06877 0
M  V30 13058 H 1236.84 -5.8425 1.35692 0
M  V30 13059 H 1238.52 -6.20682 1.82656 0
M  V30 13060 N 1238.65 -0.49465 -1.49636 0
M  V30 13061 C 1240.06 -0.0452894 -1.86645 0
M  V30 13062 C 1240.41 1.36686 -1.40753 0
M  V30 13063 O 1239.53 2.01751 -0.78265 0
M  V30 13064 C 1240.13 -0.0754115 -3.38716 0
M  V30 13065 C 1238.69 0.318579 -3.75049 0
M  V30 13066 C 1237.84 -0.450712 -2.73613 0
M  V30 13067 H 1240.79 -0.707758 -1.42044 0
M  V30 13068 H 1240.81 0.721372 -3.73599 0
M  V30 13069 H 1240.32 -1.10331 -3.72087 0
M  V30 13070 H 1238.42 1.34995 -3.47285 0
M  V30 13071 H 1238.53 0.00354416 -4.791 0
M  V30 13072 H 1236.9 0.0986455 -2.54509 0
M  V30 13073 H 1237.68 -1.47857 -3.09828 0
M  V30 13074 N 1240.13 1.55939 -0.228214 0
M  V30 13075 C 1241.37 1.97652 0.402067 0
M  V30 13076 C 1241.69 1.11911 1.60422 0
M  V30 13077 O 1242.89 1.43552 2.30445 0
M  V30 13078 C 1241.35 3.51638 0.766724 0
M  V30 13079 C 1240.96 4.46092 -0.412991 0
M  V30 13080 C 1242.7 4.02049 1.36224 0
M  V30 13081 C 1240.61 5.91394 -0.0255281 0
M  V30 13082 H 1239.54 0.738107 0.153994 0
M  V30 13083 H 1242.19 1.8059 -0.32548 0
M  V30 13084 H 1240.57 3.64325 1.55188 0
M  V30 13085 H 1241.75 4.45156 -1.19049 0
M  V30 13086 H 1240.06 4.0606 -0.92218 0
M  V30 13087 H 1242.66 5.08111 1.66514 0
M  V30 13088 H 1243 3.48292 2.28032 0
M  V30 13089 H 1243.53 3.92612 0.640378 0
M  V30 13090 H 1240.27 6.49149 -0.910269 0
M  V30 13091 H 1239.79 5.95509 0.716149 0
M  V30 13092 H 1241.47 6.4577 0.398839 0
M  V30 13093 N 1241.6 -0.0451101 1.57535 0
M  V30 13094 C 1243.02 -0.400463 1.54494 0
M  V30 13095 C 1243.22 -1.77584 0.952166 0
M  V30 13096 O 1242.28 -2.46069 0.566221 0
M  V30 13097 C 1243.59 -0.31703 2.99024 0
M  V30 13098 C 1245.14 -0.395284 3.10494 0
M  V30 13099 C 1245.61 -0.341475 4.56725 0
M  V30 13100 N 1247.1 -0.400755 4.61463 0
M  V30 13101 C 1247.84 -0.381757 5.72128 0
M  V30 13102 N 1247.33 -0.315995 6.92079 0
M  V30 13103 N 1249.13 -0.4303 5.60451 0
M  V30 13104 H 1241.28 0.855156 1.94424 0
M  V30 13105 H 1243.54 0.323618 0.891053 0
M  V30 13106 H 1243.25 0.627477 3.46057 0
M  V30 13107 H 1243.12 -1.11696 3.60283 0
M  V30 13108 H 1245.51 -1.33022 2.63418 0
M  V30 13109 H 1245.59 0.433709 2.52096 0
M  V30 13110 H 1245.23 0.589725 5.04465 0
M  V30 13111 H 1245.16 -1.18836 5.13016 0
M  V30 13112 H 1247.65 -0.454745 3.75154 0
M  V30 13113 H 1247.97 -0.306158 7.72193 0
M  V30 13114 H 1246.31 -0.282281 6.94427 0
M  V30 13115 H 1249.5 -0.479555 4.65637 0
M  V30 13116 H 1249.68 -0.412025 6.46689 0
M  V30 13117 N 1243.08 -1.54377 -0.317073 0
M  V30 13118 C 1244.33 -1.74083 -1.05198 0
M  V30 13119 C 1244.68 -0.511755 -1.85469 0
M  V30 13120 O 1243.98 0.495851 -1.85073 0
M  V30 13121 C 1244.17 -2.96066 -2.00199 0
M  V30 13122 C 1244 -4.3072 -1.29269 0
M  V30 13123 C 1242.77 -4.94764 -1.0265 0
M  V30 13124 C 1244.97 -5.09441 -0.705297 0
M  V30 13125 N 1242.95 -6.13234 -0.285795 0
M  V30 13126 C 1244.32 -6.19925 -0.0965349 0
M  V30 13127 C 1246.38 -4.94165 -0.608753 0
M  V30 13128 C 1245.08 -7.16798 0.599411 0
M  V30 13129 C 1247.1 -5.91354 0.0735046 0
M  V30 13130 C 1246.47 -7.01195 0.671184 0
M  V30 13131 H 1242.57 -0.689774 -0.368423 0
M  V30 13132 H 1245.15 -1.91841 -0.332412 0
M  V30 13133 H 1243.32 -2.79762 -2.69421 0
M  V30 13134 H 1245.05 -3.0437 -2.66722 0
M  V30 13135 H 1241.81 -4.54818 -1.32052 0
M  V30 13136 H 1242.23 -6.76963 0.0706046 0
M  V30 13137 H 1246.87 -4.09386 -1.05655 0
M  V30 13138 H 1244.59 -8.01131 1.05902 0
M  V30 13139 H 1248.18 -5.81612 0.147931 0
M  V30 13140 H 1247.06 -7.75107 1.19073 0
M  V30 13141 N 1244.56 0.579466 -1.4656 0
M  V30 13142 C 1245.79 1.36351 -1.55615 0
M  V30 13143 C 1246.2 1.87755 -0.198405 0
M  V30 13144 O 1245.56 1.63795 0.804834 0
M  V30 13145 C 1245.61 2.54881 -2.56355 0
M  V30 13146 O 1245.33 2.05607 -3.86856 0
M  V30 13147 C 1246.83 3.47391 -2.75381 0
M  V30 13148 H 1244.05 0.416426 -0.526147 0
M  V30 13149 H 1246.6 0.704134 -1.91995 0
M  V30 13150 H 1244.75 3.16802 -2.2297 0
M  V30 13151 H 1245.17 2.82823 -4.41714 0
M  V30 13152 H 1246.64 4.27031 -3.49783 0
M  V30 13153 H 1247.12 3.99532 -1.82403 0
M  V30 13154 H 1247.72 2.91303 -3.09875 0
M  V30 13155 N 1246.04 1.3432 0.824371 0
M  V30 13156 C 1247 1.25672 1.91675 0
M  V30 13157 C 1248 0.172269 1.59875 0
M  V30 13158 O 1249.19 0.424794 1.68941 0
M  V30 13159 C 1246.32 0.939928 3.27686 0
M  V30 13160 H 1247.52 2.22785 2.00766 0
M  V30 13161 H 1245.07 1.18587 1.01817 0
M  V30 13162 H 1245.8 -0.0280898 3.24288 0
M  V30 13163 H 1245.59 1.72432 3.5215 0
M  V30 13164 H 1247.08 0.904553 4.07686 0
M  V30 13165 N 1247.52 -1.0444 1.18026 0
M  V30 13166 C 1248.93 -1.5903 0.978076 0
M  V30 13167 C 1249.28 -1.90407 -0.473241 0
M  V30 13168 O 1248.4 -1.69133 -1.34992 0
M  V30 13169 C 1249 -2.88942 1.76912 0
M  V30 13170 C 1247.56 -3.40164 1.61139 0
M  V30 13171 C 1246.7 -2.13797 1.76596 0
M  V30 13172 H 1249.66 -0.871574 1.32625 0
M  V30 13173 H 1249.68 -3.59173 1.25598 0
M  V30 13174 H 1249.19 -2.66074 2.82535 0
M  V30 13175 H 1247.29 -3.68053 0.580353 0
M  V30 13176 H 1247.4 -4.14241 2.40709 0
M  V30 13177 H 1245.77 -2.24922 1.19507 0
M  V30 13178 H 1246.55 -1.93389 2.83647 0
M  V30 13179 N 1248.99 -0.981699 -1.2329 0
M  V30 13180 C 1249.9 -0.531296 -2.28505 0
M  V30 13181 C 1250.92 0.414531 -1.6899 0
M  V30 13182 O 1252.1 0.284129 -1.99386 0
M  V30 13183 C 1249.16 0.157864 -3.4634 0
M  V30 13184 C 1248.22 -0.829527 -4.21209 0
M  V30 13185 C 1247.46 -0.17316 -5.33419 0
M  V30 13186 O 1247.68 1.03549 -5.60922 0
M  V30 13187 O 1246.61 -0.872385 -5.95544 0
M  V30 13188 H 1250.44 -1.40633 -2.69177 0
M  V30 13189 H 1248.02 -0.749395 -1.29246 0
M  V30 13190 H 1249.91 0.544394 -4.17869 0
M  V30 13191 H 1248.58 1.00764 -3.07617 0
M  V30 13192 H 1247.49 -1.26678 -3.51999 0
M  V30 13193 H 1248.82 -1.64815 -4.63785 0
M  V30 13194 N 1250.47 1.3842 -0.753509 0
M  V30 13195 C 1251.44 2.28808 -0.134022 0
M  V30 13196 C 1252.44 1.47184 0.647583 0
M  V30 13197 O 1253.63 1.67631 0.473861 0
M  V30 13198 C 1250.76 3.30926 0.81858 0
M  V30 13199 H 1251.95 2.85097 -0.930586 0
M  V30 13200 H 1249.5 1.47378 -0.520514 0
M  V30 13201 H 1250.24 2.79728 1.64082 0
M  V30 13202 H 1250.02 3.91234 0.260526 0
M  V30 13203 H 1251.51 3.98515 1.24802 0
M  V30 13204 N 1251.95 0.502579 1.49372 0
M  V30 13205 C 1253.2 -0.0432341 2.01654 0
M  V30 13206 C 1253.51 -1.379 1.38719 0
M  V30 13207 O 1254.72 -2.01159 1.82338 0
M  V30 13208 C 1253.17 -0.127509 3.59674 0
M  V30 13209 C 1252.78 1.20171 4.31582 0
M  V30 13210 C 1254.53 -0.623603 4.19895 0
M  V30 13211 C 1252.43 1.07951 5.81464 0
M  V30 13212 H 1251.36 -0.0199308 0.753737 0
M  V30 13213 H 1254.01 0.642237 1.71894 0
M  V30 13214 H 1252.4 -0.877465 3.86156 0
M  V30 13215 H 1253.57 1.96508 4.16799 0
M  V30 13216 H 1251.89 1.63136 3.83113 0
M  V30 13217 H 1254.48 -0.732562 5.29658 0
M  V30 13218 H 1254.83 -1.62282 3.83367 0
M  V30 13219 H 1255.36 0.0698641 3.97739 0
M  V30 13220 H 1252.1 2.05304 6.22519 0
M  V30 13221 H 1251.62 0.357051 5.98736 0
M  V30 13222 H 1253.3 0.758885 6.42534 0
M  V30 13223 N 1253.43 -1.55816 0.23648 0
M  V30 13224 C 1254.39 -2.1967 -0.654041 0
M  V30 13225 C 1255.39 -1.1629 -1.11056 0
M  V30 13226 O 1256.58 -1.41435 -1.01695 0
M  V30 13227 C 1253.71 -2.83196 -1.89771 0
M  V30 13228 H 1254.91 -2.99743 -0.0970911 0
M  V30 13229 H 1252.46 -1.56295 -0.013098 0
M  V30 13230 H 1253.19 -2.07033 -2.49616 0
M  V30 13231 H 1252.98 -3.58915 -1.57868 0
M  V30 13232 H 1254.47 -3.32095 -2.53184 0
M  V30 13233 N 1254.91 0.036755 -1.57557 0
M  V30 13234 C 1256.14 0.740011 -1.92892 0
M  V30 13235 C 1256.54 1.69828 -0.833964 0
M  V30 13236 O 1255.89 1.82619 0.198974 0
M  V30 13237 C 1255.95 1.55827 -3.23972 0
M  V30 13238 C 1255.61 0.765613 -4.50541 0
M  V30 13239 C 1256.61 0.0692686 -5.19854 0
M  V30 13240 C 1254.3 0.722425 -4.97078 0
M  V30 13241 C 1256.29 -0.659649 -6.33977 0
M  V30 13242 C 1253.98 -0.0102431 -6.11099 0
M  V30 13243 C 1254.97 -0.700047 -6.79403 0
M  V30 13244 O 1254.66 -1.42084 -7.91244 0
M  V30 13245 H 1254.39 0.213496 -0.641401 0
M  V30 13246 H 1256.95 0.000665152 -2.054 0
M  V30 13247 H 1255.18 2.34125 -3.0777 0
M  V30 13248 H 1256.87 2.14343 -3.44691 0
M  V30 13249 H 1257.63 0.0937148 -4.84909 0
M  V30 13250 H 1253.51 1.24883 -4.43763 0
M  V30 13251 H 1257.06 -1.19861 -6.87226 0
M  V30 13252 H 1252.95 -0.0366395 -6.4549 0
M  V30 13253 H 1253.72 -1.33372 -8.07561 0
M  V30 13254 N 1256.39 1.54543 0.308881 0
M  V30 13255 C 1257.8 1.45581 0.654088 0
M  V30 13256 C 1258 0.640597 1.91046 0
M  V30 13257 O 1257.06 0.14518 2.52082 0
M  V30 13258 C 1258.37 2.89461 0.814422 0
M  V30 13259 C 1259.92 2.99455 0.910817 0
M  V30 13260 C 1260.39 4.44515 1.10321 0
M  V30 13261 N 1261.88 4.4819 1.1696 0
M  V30 13262 C 1262.62 5.57604 1.33661 0
M  V30 13263 N 1262.12 6.76957 1.47311 0
M  V30 13264 N 1263.91 5.45278 1.36487 0
M  V30 13265 H 1256.06 2.06019 -0.516699 0
M  V30 13266 H 1258.32 0.932729 -0.169471 0
M  V30 13267 H 1258.03 3.5168 -0.0377455 0
M  V30 13268 H 1257.9 3.36425 1.70582 0
M  V30 13269 H 1260.29 2.37355 1.75348 0
M  V30 13270 H 1260.37 2.558 -0.00443172 0
M  V30 13271 H 1260.01 5.07206 0.265346 0
M  V30 13272 H 1259.94 4.85793 2.03256 0
M  V30 13273 H 1262.44 3.62199 1.07796 0
M  V30 13274 H 1262.75 7.561 1.59788 0
M  V30 13275 H 1261.09 6.79837 1.44382 0
M  V30 13276 H 1264.28 4.50983 1.25429 0
M  V30 13277 H 1264.46 6.30599 1.4916 0
M  V30 13278 N 1257.86 -0.571685 1.46866 0
M  V30 13279 C 1258.81 -1.67992 1.58263 0
M  V30 13280 C 1259.78 -1.60535 0.426345 0
M  V30 13281 O 1260.97 -1.79584 0.644534 0
M  V30 13282 C 1258.11 -3.06327 1.58927 0
M  V30 13283 C 1257.22 -3.24328 2.85369 0
M  V30 13284 C 1256.35 -4.52976 2.77464 0
M  V30 13285 C 1255.39 -4.64359 3.98795 0
M  V30 13286 N 1254.53 -5.84345 3.89211 0
M  V30 13287 H 1259.37 -1.57589 2.52922 0
M  V30 13288 H 1256.91 -0.767883 1.25467 0
M  V30 13289 H 1258.86 -3.86411 1.57296 0
M  V30 13290 H 1257.49 -3.15601 0.677912 0
M  V30 13291 H 1256.55 -2.37774 2.96931 0
M  V30 13292 H 1257.86 -3.28605 3.7526 0
M  V30 13293 H 1257.01 -5.41303 2.74001 0
M  V30 13294 H 1255.75 -4.51155 1.85231 0
M  V30 13295 H 1254.76 -3.74448 4.02578 0
M  V30 13296 H 1255.98 -4.6795 4.92137 0
M  V30 13297 H 1253.93 -5.835 2.99772 0
M  V30 13298 H 1253.84 -5.89938 4.72768 0
M  V30 13299 H 1255.11 -6.75072 3.89741 0
M  V30 13300 N 1259.34 -1.34755 -0.817236 0
M  V30 13301 C 1260.59 -1.27432 -1.57377 0
M  V30 13302 C 1260.92 0.15419 -1.93888 0
M  V30 13303 O 1260.17 1.11686 -1.60701 0
M  V30 13304 C 1260.47 -2.11611 -2.8802 0
M  V30 13305 C 1260.14 -3.60543 -2.70776 0
M  V30 13306 C 1258.8 -4.01141 -2.6578 0
M  V30 13307 C 1261.15 -4.55089 -2.54053 0
M  V30 13308 C 1258.48 -5.34469 -2.41991 0
M  V30 13309 C 1260.83 -5.88603 -2.31795 0
M  V30 13310 C 1259.49 -6.28358 -2.25215 0
M  V30 13311 H 1258.76 -0.466305 -0.575882 0
M  V30 13312 H 1261.41 -1.66552 -0.945128 0
M  V30 13313 H 1259.72 -1.65336 -3.55206 0
M  V30 13314 H 1261.41 -2.03287 -3.45652 0
M  V30 13315 H 1258 -3.2832 -2.75506 0
M  V30 13316 H 1262.19 -4.24617 -2.56932 0
M  V30 13317 H 1257.44 -5.64284 -2.35359 0
M  V30 13318 H 1261.62 -6.61451 -2.17844 0
M  V30 13319 H 1259.24 -7.31604 -2.06543 0
M  V30 13320 N 1260.82 1.03812 -1.18578 0
M  V30 13321 C 1262.04 1.8124 -1.00831 0
M  V30 13322 C 1262.47 1.82917 0.43853 0
M  V30 13323 O 1261.83 1.24835 1.31476 0
M  V30 13324 C 1261.88 3.24592 -1.57075 0
M  V30 13325 O 1260.98 4.04688 -0.793824 0
M  V30 13326 H 1260.32 0.559846 -0.357028 0
M  V30 13327 H 1262.85 1.30724 -1.57393 0
M  V30 13328 H 1262.86 3.75363 -1.59896 0
M  V30 13329 H 1261.54 3.22686 -2.62387 0
M  V30 13330 H 1260.11 3.63359 -0.838134 0
M  V30 13331 N 1262.3 0.988223 1.22768 0
M  V30 13332 C 1263.52 0.679426 1.95955 0
M  V30 13333 C 1263.95 -0.748483 1.72567 0
M  V30 13334 O 1263.31 -1.51097 1.00197 0
M  V30 13335 C 1263.35 0.985284 3.46878 0
M  V30 13336 O 1262.46 0.0814607 4.1232 0
M  V30 13337 H 1261.8 0.254749 0.613188 0
M  V30 13338 H 1264.33 1.32393 1.55991 0
M  V30 13339 H 1264.34 0.925198 3.97371 0
M  V30 13340 H 1263.01 2.02581 3.63227 0
M  V30 13341 H 1261.59 0.196629 3.72381 0
M  V30 13342 N 1263.78 -1.38018 0.760839 0
M  V30 13343 C 1264.74 -2.28734 0.146154 0
M  V30 13344 C 1265.74 -1.47525 -0.639768 0
M  V30 13345 O 1266.93 -1.6788 -0.464964 0
M  V30 13346 C 1264.06 -3.31356 -0.801019 0
M  V30 13347 H 1265.25 -2.84599 0.945692 0
M  V30 13348 H 1262.81 -1.471 0.528323 0
M  V30 13349 H 1263.54 -2.80594 -1.62597 0
M  V30 13350 H 1263.33 -3.91366 -0.239775 0
M  V30 13351 H 1264.82 -3.99171 -1.22687 0
M  V30 13352 N 1265.25 -0.510493 -1.49103 0
M  V30 13353 C 1266.48 0.0293113 -2.07379 0
M  V30 13354 C 1266.9 1.29195 -1.36713 0
M  V30 13355 O 1266.26 1.76204 -0.426838 0
M  V30 13356 C 1266.31 0.25629 -3.59688 0
M  V30 13357 O 1265.41 1.32907 -3.90397 0
M  V30 13358 H 1264.75 -0.0304449 -0.663302 0
M  V30 13359 H 1267.28 -0.712832 -1.91781 0
M  V30 13360 H 1267.29 0.484915 -4.05108 0
M  V30 13361 H 1265.97 -0.666163 -4.1053 0
M  V30 13362 H 1264.55 1.08464 -3.56777 0
M  V30 13363 N 1266.73 1.55688 -0.24474 0
M  V30 13364 C 1268.01 1.90796 0.430821 0
M  V30 13365 C 1268.39 1.1652 1.76029 0
M  V30 13366 O 1267.74 0.281978 2.26753 0
M  V30 13367 C 1267.95 3.43786 0.601027 0
M  V30 13368 C 1269.29 4.14998 0.897894 0
M  V30 13369 O 1270.32 3.49513 0.68697 0
M  V30 13370 O 1269.18 5.30826 1.29945 0
M  V30 13371 H 1266.27 0.794086 0.230991 0
M  V30 13372 H 1268.82 1.67227 -0.288646 0
M  V30 13373 H 1267.59 3.89856 -0.335804 0
M  V30 13374 H 1267.21 3.73211 1.37112 0
M  V30 13375 N 1268.21 -0.0283989 1.57574 0
M  V30 13376 C 1269.17 -1.01346 2.05576 0
M  V30 13377 C 1270.17 -1.28999 0.960001 0
M  V30 13378 O 1271.36 -1.23991 1.2236 0
M  V30 13379 C 1268.49 -2.34611 2.47327 0
M  V30 13380 H 1269.69 -0.598809 2.93861 0
M  V30 13381 H 1267.24 -0.27524 1.53857 0
M  V30 13382 H 1267.98 -2.80823 1.622 0
M  V30 13383 H 1267.76 -2.1587 3.27326 0
M  V30 13384 H 1269.25 -3.05332 2.84889 0
M  V30 13385 N 1269.69 -1.54705 -0.300681 0
M  V30 13386 C 1270.93 -1.75189 -1.03345 0
M  V30 13387 C 1271.29 -0.531398 -1.84916 0
M  V30 13388 O 1270.58 0.476194 -1.85588 0
M  V30 13389 C 1270.78 -2.98173 -1.97047 0
M  V30 13390 C 1270.6 -4.32067 -1.24694 0
M  V30 13391 C 1269.37 -4.95825 -0.973967 0
M  V30 13392 C 1271.57 -5.1016 -0.651224 0
M  V30 13393 N 1269.55 -6.13503 -0.220737 0
M  V30 13394 C 1270.93 -6.19992 -0.0307781 0
M  V30 13395 C 1272.98 -4.94782 -0.556306 0
M  V30 13396 C 1271.68 -7.16122 0.675403 0
M  V30 13397 C 1273.71 -5.91243 0.136221 0
M  V30 13398 C 1273.07 -7.00444 0.745517 0
M  V30 13399 H 1269.17 -0.693643 -0.361087 0
M  V30 13400 H 1271.75 -1.92183 -0.312046 0
M  V30 13401 H 1269.93 -2.82604 -2.66439 0
M  V30 13402 H 1271.66 -3.07182 -2.63479 0
M  V30 13403 H 1268.41 -4.56193 -1.2722 0
M  V30 13404 H 1268.84 -6.7685 0.142402 0
M  V30 13405 H 1273.48 -4.10483 -1.01307 0
M  V30 13406 H 1271.2 -7.99962 1.14394 0
M  V30 13407 H 1274.78 -5.81422 0.209611 0
M  V30 13408 H 1273.66 -7.73801 1.27287 0
M  V30 13409 N 1271.17 0.563888 -1.47167 0
M  V30 13410 C 1272.39 1.35176 -1.57297 0
M  V30 13411 C 1272.82 1.86794 -0.221235 0
M  V30 13412 O 1272.17 1.62606 0.801809 0
M  V30 13413 C 1272.22 2.50225 -2.59654 0
M  V30 13414 O 1271.33 3.5225 -2.14461 0
M  V30 13415 H 1270.67 0.401795 -0.528637 0
M  V30 13416 H 1273.2 0.682137 -1.92894 0
M  V30 13417 H 1273.21 2.96886 -2.79862 0
M  V30 13418 H 1271.88 2.1201 -3.57805 0
M  V30 13419 H 1270.46 3.1194 -2.04323 0
M  V30 13420 N 1272.64 1.35187 0.810078 0
M  V30 13421 C 1273.87 1.31181 1.59609 0
M  V30 13422 C 1274.28 -0.113556 1.88859 0
M  V30 13423 O 1273.63 -1.07491 1.48968 0
M  V30 13424 C 1273.69 2.04749 2.95496 0
M  V30 13425 C 1273.35 3.53952 2.89079 0
M  V30 13426 C 1274.35 4.48612 2.6276 0
M  V30 13427 C 1272.03 3.96551 3.08306 0
M  V30 13428 C 1274.03 5.83846 2.5574 0
M  V30 13429 C 1271.71 5.31881 3.00909 0
M  V30 13430 C 1272.71 6.2534 2.74661 0
M  V30 13431 O 1272.4 7.58188 2.6722 0
M  V30 13432 H 1272.13 0.452285 0.502408 0
M  V30 13433 H 1274.69 1.78571 1.01497 0
M  V30 13434 H 1272.92 1.51992 3.55577 0
M  V30 13435 H 1274.61 1.93866 3.5661 0
M  V30 13436 H 1275.37 4.1702 2.47628 0
M  V30 13437 H 1271.25 3.24194 3.27749 0
M  V30 13438 H 1274.79 6.56765 2.35172 0
M  V30 13439 H 1270.69 5.63088 3.15598 0
M  V30 13440 H 1271.46 7.68073 2.82853 0
M  V30 13441 N 1274.12 -1.03182 1.19127 0
M  V30 13442 C 1275.37 -1.76184 0.990134 0
M  V30 13443 C 1275.69 -1.88986 -0.480546 0
M  V30 13444 O 1274.96 -1.4213 -1.34817 0
M  V30 13445 H 1273.54 -0.652668 0.363364 0
M  V30 13446 H 1276.2 -1.24481 1.49968 0
M  V30 13447 H 1275.3 -2.77119 1.43568 0
M  V30 13448 N 1275.6 -0.99472 -1.22242 0
M  V30 13449 C 1276.85 -0.667045 -1.90351 0
M  V30 13450 C 1277.16 0.804615 -1.78284 0
M  V30 13451 O 1278.37 1.24395 -2.41326 0
M  V30 13452 C 1276.82 -1.14256 -3.41282 0
M  V30 13453 C 1276.43 -2.63958 -3.61981 0
M  V30 13454 C 1278.18 -0.889302 -4.1508 0
M  V30 13455 C 1276.08 -3.05103 -5.06622 0
M  V30 13456 H 1275.01 -0.245795 -0.712812 0
M  V30 13457 H 1277.66 -1.20452 -1.38432 0
M  V30 13458 H 1276.05 -0.533203 -3.92394 0
M  V30 13459 H 1277.22 -3.30255 -3.21354 0
M  V30 13460 H 1275.54 -2.87186 -3.01518 0
M  V30 13461 H 1278.13 -1.17239 -5.21689 0
M  V30 13462 H 1278.48 0.174556 -4.15934 0
M  V30 13463 H 1279.01 -1.46095 -3.70002 0
M  V30 13464 H 1275.75 -4.10672 -5.1091 0
M  V30 13465 H 1275.27 -2.4351 -5.48145 0
M  V30 13466 H 1276.95 -2.96506 -5.75059 0
M  V30 13467 N 1277.08 1.37613 -0.768148 0
M  V30 13468 C 1278.32 2.00075 -0.331331 0
M  V30 13469 C 1278.66 1.60839 1.08833 0
M  V30 13470 O 1277.93 0.852849 1.74805 0
M  V30 13471 C 1278.22 3.57009 -0.470789 0
M  V30 13472 C 1278.07 4.06166 -1.9326 0
M  V30 13473 C 1279.39 4.39916 0.127111 0
M  V30 13474 H 1276.51 0.726855 -0.121864 0
M  V30 13475 H 1279.15 1.63343 -0.970518 0
M  V30 13476 H 1277.3 3.88431 0.0733688 0
M  V30 13477 H 1278.97 3.85325 -2.53618 0
M  V30 13478 H 1277.21 3.58492 -2.44266 0
M  V30 13479 H 1277.88 5.15219 -1.98125 0
M  V30 13480 H 1280.36 4.14732 -0.337144 0
M  V30 13481 H 1279.24 5.489 -0.000624226 0
M  V30 13482 H 1279.5 4.25018 1.21704 0
M  V30 13483 N 1278.56 0.518393 1.4883 0
M  V30 13484 C 1279.49 -0.297703 2.2625 0
M  V30 13485 C 1280.47 -0.955096 1.31593 0
M  V30 13486 O 1281.65 -0.981776 1.60914 0
M  V30 13487 C 1278.78 -1.42065 3.07466 0
M  V30 13488 C 1277.82 -0.875854 4.1741 0
M  V30 13489 S 1278.66 0.247153 5.34929 0
M  V30 13490 C 1279.81 -0.878544 6.19703 0
M  V30 13491 H 1280.05 0.359358 2.9512 0
M  V30 13492 H 1277.58 0.303976 1.51378 0
M  V30 13493 H 1279.54 -2.06398 3.54838 0
M  V30 13494 H 1278.2 -2.04939 2.38031 0
M  V30 13495 H 1277.39 -1.71793 4.73818 0
M  V30 13496 H 1276.99 -0.30943 3.72718 0
M  V30 13497 H 1279.29 -1.77986 6.53703 0
M  V30 13498 H 1280.23 -0.3527 7.07221 0
M  V30 13499 H 1280.64 -1.15372 5.52584 0
M  V30 13500 N 1280.03 -1.55556 0.252993 0
M  V30 13501 C 1281.28 -2.00122 -0.363693 0
M  V30 13502 C 1281.64 -1.13821 -1.55121 0
M  V30 13503 O 1280.93 -0.195137 -1.90604 0
M  V30 13504 C 1281.12 -3.47925 -0.817484 0
M  V30 13505 C 1280.95 -4.48528 0.32452 0
M  V30 13506 C 1279.72 -4.98908 0.801175 0
M  V30 13507 C 1281.92 -5.01196 1.15358 0
M  V30 13508 N 1279.9 -5.83269 1.91495 0
M  V30 13509 C 1281.27 -5.82787 2.11563 0
M  V30 13510 C 1283.33 -4.83484 1.18945 0
M  V30 13511 C 1282.03 -6.48557 3.11073 0
M  V30 13512 C 1284.06 -5.50036 2.17288 0
M  V30 13513 C 1283.42 -6.31421 3.12229 0
M  V30 13514 H 1279.52 -0.775724 -0.0988716 0
M  V30 13515 H 1282.1 -1.91114 0.371964 0
M  V30 13516 H 1280.27 -3.57319 -1.52242 0
M  V30 13517 H 1282 -3.79357 -1.40963 0
M  V30 13518 H 1278.76 -4.72039 0.384265 0
M  V30 13519 H 1279.18 -6.30145 2.47479 0
M  V30 13520 H 1283.83 -4.20187 0.469296 0
M  V30 13521 H 1281.54 -7.11016 3.84034 0
M  V30 13522 H 1285.13 -5.38283 2.20777 0
M  V30 13523 H 1284.01 -6.82009 3.87083 0
M  V30 13524 N 1281.51 0.0200419 -1.57587 0
M  V30 13525 C 1282.42 1.0346 -2.10555 0
M  V30 13526 C 1283.44 1.39035 -1.0462 0
M  V30 13527 O 1284.61 1.48172 -1.36407 0
M  V30 13528 C 1281.68 2.31389 -2.58186 0
M  V30 13529 C 1280.74 2.02311 -3.7864 0
M  V30 13530 C 1279.97 3.24141 -4.23991 0
M  V30 13531 O 1280.2 4.35132 -3.68803 0
M  V30 13532 O 1279.13 3.09312 -5.16342 0
M  V30 13533 H 1282.96 0.614419 -2.9742 0
M  V30 13534 H 1280.54 0.237604 -1.47498 0
M  V30 13535 H 1282.42 3.06582 -2.89112 0
M  V30 13536 H 1281.1 2.72684 -1.74428 0
M  V30 13537 H 1280.01 1.24658 -3.5272 0
M  V30 13538 H 1281.34 1.65866 -4.6341 0
M  V30 13539 N 1282.99 1.54862 0.292472 0
M  V30 13540 C 1284.24 1.74807 1.02813 0
M  V30 13541 C 1284.57 0.536935 1.8663 0
M  V30 13542 O 1283.84 -0.465854 1.88839 0
M  V30 13543 C 1284.13 3.04202 1.927 0
M  V30 13544 C 1283.98 4.35631 1.12006 0
M  V30 13545 C 1285.3 3.29514 2.91734 0
M  V30 13546 H 1282.42 0.636015 0.372362 0
M  V30 13547 H 1285.06 1.87583 0.302069 0
M  V30 13548 H 1283.21 2.9344 2.54608 0
M  V30 13549 H 1284.88 4.58323 0.52319 0
M  V30 13550 H 1283.13 4.31733 0.42298 0
M  V30 13551 H 1283.8 5.22454 1.78172 0
M  V30 13552 H 1286.27 3.39941 2.39957 0
M  V30 13553 H 1285.15 4.21352 3.51786 0
M  V30 13554 H 1285.41 2.48216 3.65843 0
M  V30 13555 N 1284.47 -0.556076 1.47464 0
M  V30 13556 C 1285.4 -1.67872 1.54578 0
M  V30 13557 C 1286.38 -1.57658 0.397853 0
M  V30 13558 O 1287.56 -1.785 0.605811 0
M  V30 13559 C 1284.69 -3.06122 1.44937 0
M  V30 13560 C 1283.74 -3.34778 2.64246 0
M  V30 13561 S 1284.57 -3.23909 4.26431 0
M  V30 13562 C 1285.73 -4.64651 4.19345 0
M  V30 13563 H 1285.96 -1.61583 2.49556 0
M  V30 13564 H 1283.49 -0.736985 1.35676 0
M  V30 13565 H 1285.45 -3.85866 1.40062 0
M  V30 13566 H 1284.11 -3.09876 0.513412 0
M  V30 13567 H 1283.3 -4.35569 2.53567 0
M  V30 13568 H 1282.91 -2.62655 2.66248 0
M  V30 13569 H 1285.2 -5.55625 3.87669 0
M  V30 13570 H 1286.14 -4.80386 5.20225 0
M  V30 13571 H 1286.55 -4.42751 3.50189 0
M  V30 13572 N 1285.95 -1.35615 -0.802897 0
M  V30 13573 C 1287.17 -1.32377 -1.59659 0
M  V30 13574 C 1287.6 0.0954235 -1.87858 0
M  V30 13575 O 1286.96 1.06336 -1.46842 0
M  V30 13576 C 1287 -2.13972 -2.90256 0
M  V30 13577 O 1286.11 -1.52296 -3.83249 0
M  V30 13578 H 1285.45 -0.453699 -0.484823 0
M  V30 13579 H 1287.98 -1.78708 -0.996217 0
M  V30 13580 H 1287.99 -2.26061 -3.39647 0
M  V30 13581 H 1286.66 -3.17145 -2.69057 0
M  V30 13582 H 1285.24 -1.49068 -3.41809 0
M  V30 13583 N 1287.43 1.02549 -1.19673 0
M  V30 13584 C 1288.66 1.79363 -1.02531 0
M  V30 13585 C 1289.06 1.84274 0.42893 0
M  V30 13586 O 1288.41 1.28813 1.30969 0
M  V30 13587 C 1288.47 3.2567 -1.52248 0
M  V30 13588 C 1288.13 3.44386 -3.00412 0
M  V30 13589 C 1289.13 3.34329 -3.98146 0
M  V30 13590 C 1286.81 3.70491 -3.39178 0
M  V30 13591 C 1288.81 3.50106 -5.3264 0
M  V30 13592 C 1286.5 3.85912 -4.7383 0
M  V30 13593 C 1287.49 3.75723 -5.70369 0
M  V30 13594 O 1287.18 3.90685 -7.02581 0
M  V30 13595 H 1286.91 0.571194 -0.361544 0
M  V30 13596 H 1289.47 1.30029 -1.59002 0
M  V30 13597 H 1287.7 3.76044 -0.901548 0
M  V30 13598 H 1289.39 3.8409 -1.31262 0
M  V30 13599 H 1290.15 3.14109 -3.69541 0
M  V30 13600 H 1286.03 3.77513 -2.64585 0
M  V30 13601 H 1289.58 3.42069 -6.07976 0
M  V30 13602 H 1285.47 4.05631 -5.02129 0
M  V30 13603 H 1286.24 4.07756 -7.09702 0
M  V30 13604 N 1288.9 1.00119 1.21713 0
M  V30 13605 C 1290.15 0.680377 1.90303 0
M  V30 13606 C 1290.47 -0.790927 1.7824 0
M  V30 13607 O 1289.74 -1.5676 1.17486 0
M  V30 13608 H 1288.32 0.248665 0.704397 0
M  V30 13609 H 1290.98 1.26948 1.47886 0
M  V30 13610 H 1290.08 0.950188 2.97284 0
M  V30 13611 N 1290.38 -1.37203 0.775435 0
M  V30 13612 C 1291.29 -2.34019 0.165062 0
M  V30 13613 C 1292.31 -1.6036 -0.675316 0
M  V30 13614 O 1293.48 -1.9243 -0.594375 0
M  V30 13615 C 1290.55 -3.3954 -0.700957 0
M  V30 13616 C 1289.61 -4.29015 0.156304 0
M  V30 13617 C 1288.84 -5.29497 -0.668476 0
M  V30 13618 O 1289.07 -5.37636 -1.90535 0
M  V30 13619 O 1288 -6.01852 -0.0757351 0
M  V30 13620 H 1291.83 -2.87955 0.965184 0
M  V30 13621 H 1289.41 -1.39429 0.536654 0
M  V30 13622 H 1291.29 -4.04094 -1.19524 0
M  V30 13623 H 1289.97 -2.87926 -1.4792 0
M  V30 13624 H 1288.87 -3.67549 0.69703 0
M  V30 13625 H 1290.21 -4.83944 0.897725 0
M  V30 13626 N 1291.86 -0.526279 -1.48553 0
M  V30 13627 C 1293.28 -0.183886 -1.58537 0
M  V30 13628 C 1293.48 1.31272 -1.52872 0
M  V30 13629 O 1292.53 2.09069 -1.41585 0
M  V30 13630 C 1293.84 -0.78313 -2.90323 0
M  V30 13631 C 1295.39 -0.751527 -3.03844 0
M  V30 13632 C 1295.87 -1.32928 -4.38285 0
M  V30 13633 N 1297.36 -1.29109 -4.44843 0
M  V30 13634 C 1298.09 -1.70806 -5.47369 0
M  V30 13635 N 1297.59 -2.20215 -6.56869 0
M  V30 13636 N 1299.38 -1.62065 -5.3823 0
M  V30 13637 H 1291.53 -1.499 -1.50478 0
M  V30 13638 H 1293.8 -0.623294 -0.714289 0
M  V30 13639 H 1293.5 -1.83371 -3.00113 0
M  V30 13640 H 1293.38 -0.25808 -3.76316 0
M  V30 13641 H 1295.76 0.290282 -2.93669 0
M  V30 13642 H 1295.84 -1.314 -2.19471 0
M  V30 13643 H 1295.49 -2.37 -4.49214 0
M  V30 13644 H 1295.42 -0.742516 -5.21339 0
M  V30 13645 H 1297.91 -0.929348 -3.66294 0
M  V30 13646 H 1298.22 -2.50035 -7.31233 0
M  V30 13647 H 1296.57 -2.24206 -6.57842 0
M  V30 13648 H 1299.76 -1.23265 -4.51579 0
M  V30 13649 H 1299.93 -1.94883 -6.18001 0
M  V30 13650 N 1293.34 1.5542 -0.261239 0
M  V30 13651 C 1294.75 1.85161 0.239195 0
M  V30 13652 C 1295.1 1.18319 1.56509 0
M  V30 13653 O 1294.22 0.4666 2.1131 0
M  V30 13654 C 1294.82 3.3592 0.440781 0
M  V30 13655 C 1293.38 3.65837 0.885461 0
M  V30 13656 C 1292.53 2.77285 -0.0291982 0
M  V30 13657 H 1295.48 1.51158 -0.483417 0
M  V30 13658 H 1295.5 3.58276 1.28136 0
M  V30 13659 H 1295.01 3.84541 -0.524382 0
M  V30 13660 H 1293.11 3.22705 1.86259 0
M  V30 13661 H 1293.22 4.73469 0.732394 0
M  V30 13662 H 1291.59 2.50045 0.484701 0
M  V30 13663 H 1292.37 3.28716 -0.989992 0
M  V30 13664 N 1294.82 -0.0116844 1.57596 0
M  V30 13665 C 1296.05 -0.70923 1.94045 0
M  V30 13666 C 1296.45 -1.6848 0.860877 0
M  V30 13667 O 1295.8 -1.82913 -0.169896 0
M  V30 13668 C 1295.86 -1.50653 3.2641 0
M  V30 13669 C 1295.52 -0.693838 4.51702 0
M  V30 13670 C 1296.52 0.0134445 5.19898 0
M  V30 13671 C 1294.2 -0.643252 4.98164 0
M  V30 13672 C 1296.2 0.760426 6.32848 0
M  V30 13673 C 1293.89 0.107462 6.11006 0
M  V30 13674 C 1294.88 0.808045 6.78203 0
M  V30 13675 O 1294.57 1.54654 7.88884 0
M  V30 13676 H 1294.3 -0.203265 0.644716 0
M  V30 13677 H 1296.86 0.0320123 2.05375 0
M  V30 13678 H 1295.09 -2.29199 3.11456 0
M  V30 13679 H 1296.78 -2.08832 3.48058 0
M  V30 13680 H 1297.54 -0.016558 4.84997 0
M  V30 13681 H 1293.42 -1.17807 4.45693 0
M  V30 13682 H 1296.97 1.30779 6.85232 0
M  V30 13683 H 1292.86 0.139327 6.4535 0
M  V30 13684 H 1293.63 1.46202 8.05337 0
M  V30 13685 N 1296.29 -1.55015 -0.284256 0
M  V30 13686 C 1297.54 -1.76276 -1.01481 0
M  V30 13687 C 1297.89 -0.550981 -1.84342 0
M  V30 13688 O 1297.19 0.456483 -1.86083 0
M  V30 13689 C 1297.38 -3.00246 -1.93874 0
M  V30 13690 C 1297.21 -4.33365 -1.20104 0
M  V30 13691 C 1295.98 -4.9683 -0.921324 0
M  V30 13692 C 1298.18 -5.10822 -0.597078 0
M  V30 13693 N 1296.16 -6.13703 -0.155654 0
M  V30 13694 C 1297.53 -6.1999 0.0349821 0
M  V30 13695 C 1299.59 -4.95345 -0.503796 0
M  V30 13696 C 1298.29 -7.15365 0.751319 0
M  V30 13697 C 1300.32 -5.91065 0.198923 0
M  V30 13698 C 1299.68 -6.99614 0.819767 0
M  V30 13699 H 1295.78 -0.697434 -0.353709 0
M  V30 13700 H 1298.36 -1.92503 -0.291645 0
M  V30 13701 H 1296.53 -2.85414 -2.63426 0
M  V30 13702 H 1298.26 -3.09959 -2.60206 0
M  V30 13703 H 1295.02 -4.57517 -1.22375 0
M  V30 13704 H 1295.44 -6.76661 0.214183 0
M  V30 13705 H 1300.08 -4.11535 -0.969477 0
M  V30 13706 H 1297.8 -7.98704 1.22872 0
M  V30 13707 H 1301.39 -5.81167 0.271267 0
M  V30 13708 H 1300.27 -7.72407 1.35487 0
M  V30 13709 N 1297.77 0.548248 -1.47757 0
M  V30 13710 C 1298.68 1.68178 -1.63565 0
M  V30 13711 C 1299.7 1.661 -0.518351 0
M  V30 13712 O 1300.87 1.85384 -0.787061 0
M  V30 13713 C 1297.94 3.04673 -1.65454 0
M  V30 13714 C 1297 3.17749 -2.88677 0
M  V30 13715 C 1296.23 4.47733 -2.90466 0
M  V30 13716 O 1296.46 5.33736 -2.01201 0
M  V30 13717 O 1295.39 4.64789 -3.82433 0
M  V30 13718 H 1299.22 1.57781 -2.59497 0
M  V30 13719 H 1296.8 0.719277 -1.30946 0
M  V30 13720 H 1298.68 3.85885 -1.69324 0
M  V30 13721 H 1297.36 3.15433 -0.726912 0
M  V30 13722 H 1296.26 2.359 -2.90348 0
M  V30 13723 H 1297.6 3.11897 -3.80763 0
M  V30 13724 N 1299.25 1.36039 0.795694 0
M  V30 13725 C 1300.18 1.24209 1.91435 0
M  V30 13726 C 1301.16 0.127593 1.62099 0
M  V30 13727 O 1302.34 0.297619 1.86136 0
M  V30 13728 C 1299.47 0.915006 3.26106 0
M  V30 13729 C 1298.52 2.04307 3.74381 0
M  V30 13730 S 1299.35 3.66016 3.90887 0
M  V30 13731 C 1300.51 3.35408 5.28443 0
M  V30 13732 H 1300.74 2.18895 2.01177 0
M  V30 13733 H 1298.27 1.21381 0.954251 0
M  V30 13734 H 1300.23 0.733104 4.03901 0
M  V30 13735 H 1298.89 -0.0139734 3.14097 0
M  V30 13736 H 1298.08 1.76863 4.71949 0
M  V30 13737 H 1297.69 2.18387 3.03617 0
M  V30 13738 H 1299.98 2.88912 6.1281 0
M  V30 13739 H 1300.92 4.32216 5.60887 0
M  V30 13740 H 1301.33 2.70909 4.95246 0
M  V30 13741 N 1300.73 -1.01913 1.20215 0
M  V30 13742 C 1301.95 -1.79613 1.03702 0
M  V30 13743 C 1302.38 -1.83591 -0.409374 0
M  V30 13744 O 1301.74 -1.26911 -1.29473 0
M  V30 13745 C 1301.78 -3.22052 1.62219 0
M  V30 13746 O 1300.89 -4.03374 0.858106 0
M  V30 13747 H 1300.23 -0.554095 0.365889 0
M  V30 13748 H 1302.76 -1.28203 1.59452 0
M  V30 13749 H 1302.77 -3.72772 1.65847 0
M  V30 13750 H 1301.44 -3.18471 2.67487 0
M  V30 13751 H 1300.02 -3.6198 0.895835 0
M  V30 13752 N 1302.21 -1.00763 -1.2118 0
M  V30 13753 C 1303.15 -0.563428 -2.25673 0
M  V30 13754 C 1304.15 0.393342 -1.6477 0
M  V30 13755 O 1305.35 0.264246 -1.7805 0
M  V30 13756 H 1301.73 -0.163862 -0.73393 0
M  V30 13757 H 1303.7 -1.45585 -2.60476 0
M  V30 13758 C 1302.45 0.0915599 -3.47579 0
M  V30 13759 H 1301.77 -0.635628 -3.94715 0
M  V30 13760 H 1303.21 0.36561 -4.22421 0
M  V30 13761 C 1301.67 1.33159 -3.09468 0
M  V30 13762 O 1302.2 2.42571 -3.20191 0
M  V30 13763 N 1300.41 1.21231 -2.64105 0
M  V30 13764 H 1299.95 0.322021 -2.55579 0
M  V30 13765 H 1299.91 2.04301 -2.38974 0
M  V30 13766 N 1303.68 1.3679 -0.7827 0
M  V30 13767 C 1304.62 2.28805 -0.13451 0
M  V30 13768 C 1305.63 1.49159 0.652338 0
M  V30 13769 O 1306.82 1.71682 0.488626 0
M  V30 13770 C 1303.92 3.28508 0.832802 0
M  V30 13771 C 1303.09 4.37291 0.0974435 0
M  V30 13772 C 1302.15 5.16999 0.979715 0
M  V30 13773 O 1301.18 5.67501 0.439439 0
M  V30 13774 N 1302.38 5.32786 2.30477 0
M  V30 13775 H 1305.14 2.85072 -0.924873 0
M  V30 13776 H 1302.7 1.48884 -0.636012 0
M  V30 13777 H 1304.7 3.78718 1.42671 0
M  V30 13778 H 1303.27 2.7293 1.52408 0
M  V30 13779 H 1302.49 3.88335 -0.677483 0
M  V30 13780 H 1303.77 5.07143 -0.410259 0
M  V30 13781 H 1303.17 4.93358 2.76793 0
M  V30 13782 H 1301.73 5.86264 2.84848 0
M  V30 13783 N 1305.16 0.53415 1.48272 0
M  V30 13784 C 1306.44 -0.0630181 1.95498 0
M  V30 13785 C 1306.82 -1.50877 1.47646 0
M  V30 13786 O 1306.17 -2.17358 0.704829 0
M  V30 13787 C 1306.38 0.0585475 3.48951 0
M  V30 13788 C 1307.73 -0.0985978 4.24486 0
M  V30 13789 O 1308.75 -0.0150438 3.56197 0
M  V30 13790 O 1307.61 -0.274356 5.45811 0
M  V30 13791 H 1304.7 -0.0769841 0.823409 0
M  V30 13792 H 1307.25 0.599043 1.58775 0
M  V30 13793 H 1306.02 1.06549 3.76514 0
M  V30 13794 H 1305.64 -0.642175 3.9238 0
M  V30 13795 N 1306.64 -1.55279 0.269478 0
M  V30 13796 C 1307.89 -1.99767 -0.34943 0
M  V30 13797 C 1308.22 -1.15762 -1.55926 0
M  V30 13798 O 1307.49 -0.22633 -1.93179 0
M  V30 13799 C 1307.78 -3.52474 -0.73716 0
M  V30 13800 C 1307.63 -4.47236 0.479621 0
M  V30 13801 C 1308.95 -4.10924 -1.57573 0
M  V30 13802 H 1306.07 -0.72623 -0.125535 0
M  V30 13803 H 1308.71 -1.86257 0.375298 0
M  V30 13804 H 1306.86 -3.64118 -1.35464 0
M  V30 13805 H 1308.53 -4.47543 1.11816 0
M  V30 13806 H 1306.78 -4.19127 1.11871 0
M  V30 13807 H 1307.45 -5.51754 0.164653 0
M  V30 13808 H 1309.92 -4.02522 -1.05429 0
M  V30 13809 H 1308.8 -5.17995 -1.81584 0
M  V30 13810 H 1309.06 -3.60798 -2.55495 0
M  V30 13811 N 1308.12 0.00332656 -1.576 0
M  V30 13812 C 1309.37 0.688044 -1.89602 0
M  V30 13813 C 1309.68 1.75121 -0.871316 0
M  V30 13814 O 1310.89 2.49032 -1.08144 0
M  V30 13815 C 1309.34 1.27494 -3.36561 0
M  V30 13816 C 1308.95 0.246771 -4.4732 0
M  V30 13817 C 1310.69 1.93804 -3.77677 0
M  V30 13818 C 1308.6 0.843471 -5.85354 0
M  V30 13819 H 1307.53 0.260747 -0.707479 0
M  V30 13820 H 1310.18 -0.0566727 -1.83412 0
M  V30 13821 H 1308.56 2.07022 -3.37577 0
M  V30 13822 H 1309.74 -0.523668 -4.57815 0
M  V30 13823 H 1308.05 -0.3157 -4.15202 0
M  V30 13824 H 1310.65 2.39347 -4.78139 0
M  V30 13825 H 1310.99 2.7672 -3.11017 0
M  V30 13826 H 1311.53 1.21015 -3.78946 0
M  V30 13827 H 1308.27 0.0531655 -6.55478 0
M  V30 13828 H 1307.79 1.58315 -5.7853 0
M  V30 13829 H 1309.46 1.34311 -6.32906 0
M  V30 13830 N 1309.6 1.55164 0.276031 0
M  V30 13831 C 1310.53 1.90844 1.34539 0
M  V30 13832 C 1311.51 0.769968 1.51676 0
M  V30 13833 O 1312.69 1.02785 1.64769 0
M  V30 13834 C 1309.82 2.17769 2.70543 0
M  V30 13835 C 1308.78 3.33592 2.68142 0
M  V30 13836 C 1308.1 3.45991 4.07669 0
M  V30 13837 C 1309.4 4.70064 2.27678 0
M  V30 13838 H 1311.1 2.80412 1.04926 0
M  V30 13839 H 1308.64 1.34918 0.503303 0
M  V30 13840 H 1310.6 2.41317 3.45462 0
M  V30 13841 H 1309.32 1.24997 3.01734 0
M  V30 13842 H 1307.98 3.10007 1.95681 0
M  V30 13843 H 1307.63 2.50691 4.36077 0
M  V30 13844 H 1307.33 4.23862 4.06958 0
M  V30 13845 H 1308.85 3.71828 4.84331 0
M  V30 13846 H 1310.26 4.93176 2.92319 0
M  V30 13847 H 1308.66 5.50829 2.38134 0
M  V30 13848 H 1309.73 4.69091 1.22808 0
M  V30 13849 N 1311.07 -0.540404 1.48045 0
M  V30 13850 C 1312.3 -1.32656 1.59427 0
M  V30 13851 C 1312.72 -1.86419 0.250924 0
M  V30 13852 O 1312.08 -1.63861 -0.775838 0
M  V30 13853 C 1312.13 -2.46062 2.63602 0
M  V30 13854 O 1311.23 -3.48794 2.20038 0
M  V30 13855 H 1310.58 -0.393334 0.534962 0
M  V30 13856 H 1313.11 -0.651363 1.93955 0
M  V30 13857 H 1313.12 -2.92396 2.84549 0
M  V30 13858 H 1311.79 -2.06291 3.61133 0
M  V30 13859 H 1310.37 -3.0865 2.0926 0
M  V30 13860 N 1312.55 -1.36459 -0.788468 0
M  V30 13861 C 1313.8 -1.3007 -1.54158 0
M  V30 13862 C 1314.11 0.117574 -1.95246 0
M  V30 13863 O 1315.32 0.303837 -2.69795 0
M  V30 13864 C 1313.78 -2.28216 -2.78291 0
M  V30 13865 C 1313.38 -3.75484 -2.44368 0
M  V30 13866 C 1315.13 -2.30806 -3.56271 0
M  V30 13867 C 1313.04 -4.65404 -3.64902 0
M  V30 13868 H 1311.97 -0.483345 -0.5787 0
M  V30 13869 H 1314.62 -1.61827 -0.865123 0
M  V30 13870 H 1313 -1.89454 -3.4774 0
M  V30 13871 H 1314.17 -4.22986 -1.82809 0
M  V30 13872 H 1312.49 -3.75678 -1.79597 0
M  V30 13873 H 1315.08 -2.95196 -4.45829 0
M  V30 13874 H 1315.43 -1.31687 -3.94923 0
M  V30 13875 H 1315.96 -2.68189 -2.93802 0
M  V30 13876 H 1312.7 -5.65589 -3.31344 0
M  V30 13877 H 1312.22 -4.22617 -4.25623 0
M  V30 13878 H 1313.9 -4.81721 -4.31919 0
M  V30 13879 N 1314.03 1.01274 -1.20754 0
M  V30 13880 C 1314.94 2.1335 -0.975656 0
M  V30 13881 C 1315.96 1.7386 0.0697364 0
M  V30 13882 O 1317.13 2.01051 -0.118578 0
M  V30 13883 C 1314.2 3.42548 -0.534931 0
M  V30 13884 C 1313.26 3.96257 -1.65163 0
M  V30 13885 C 1312.49 5.19289 -1.23184 0
M  V30 13886 O 1312.71 5.70309 -0.102158 0
M  V30 13887 O 1311.65 5.66248 -2.04076 0
M  V30 13888 H 1315.47 2.35783 -1.91415 0
M  V30 13889 H 1313.06 1.11736 -0.991743 0
M  V30 13890 H 1314.94 4.20341 -0.298568 0
M  V30 13891 H 1313.62 3.21521 0.374937 0
M  V30 13892 H 1312.52 3.19726 -1.94232 0
M  V30 13893 H 1313.86 4.2168 -2.53864 0
M  V30 13894 N 1315.51 1.01404 1.20644 0
M  V30 13895 C 1316.42 0.591693 2.27016 0
M  V30 13896 C 1317.44 -0.36958 1.7003 0
M  V30 13897 O 1318.61 -0.231165 2.00069 0
M  V30 13898 C 1315.68 -0.0659827 3.46637 0
M  V30 13899 C 1314.74 0.940911 4.18862 0
M  V30 13900 C 1313.97 0.314526 5.32772 0
M  V30 13901 O 1314.19 -0.886404 5.63471 0
M  V30 13902 O 1313.13 1.02998 5.93022 0
M  V30 13903 H 1316.95 1.4772 2.65353 0
M  V30 13904 H 1314.54 0.783399 1.27213 0
M  V30 13905 H 1316.42 -0.433412 4.19165 0
M  V30 13906 H 1315.1 -0.925729 3.10181 0
M  V30 13907 H 1314 1.35966 3.48517 0
M  V30 13908 H 1315.34 1.77054 4.59252 0
M  V30 13909 N 1316.99 -1.36373 0.789944 0
M  V30 13910 C 1318.24 -1.98834 0.361866 0
M  V30 13911 C 1318.56 -1.63006 -1.07024 0
M  V30 13912 O 1317.83 -0.904312 -1.73779 0
M  V30 13913 H 1316.41 -0.735457 0.130812 0
M  V30 13914 H 1319.07 -1.66561 1.0121 0
M  V30 13915 H 1318.16 -3.08778 0.454122 0
M  V30 13916 N 1318.47 -0.542005 -1.47987 0
M  V30 13917 C 1319.7 -0.0166928 -2.06593 0
M  V30 13918 C 1320.1 1.27564 -1.39728 0
M  V30 13919 O 1319.45 1.77245 -0.48268 0
M  V30 13920 C 1319.51 0.265501 -3.58518 0
M  V30 13921 C 1319.17 -0.935133 -4.4733 0
M  V30 13922 C 1320.17 -1.83673 -4.86375 0
M  V30 13923 C 1317.85 -1.14552 -4.89063 0
M  V30 13924 C 1319.85 -2.93252 -5.65935 0
M  V30 13925 C 1317.54 -2.24443 -5.68391 0
M  V30 13926 C 1318.53 -3.13625 -6.06736 0
M  V30 13927 O 1318.22 -4.21613 -6.84469 0
M  V30 13928 H 1317.95 -0.0358651 -0.675048 0
M  V30 13929 H 1320.51 -0.750565 -1.91195 0
M  V30 13930 H 1318.74 1.0535 -3.72073 0
M  V30 13931 H 1320.43 0.734348 -3.99202 0
M  V30 13932 H 1321.19 -1.68618 -4.54745 0
M  V30 13933 H 1317.07 -0.460598 -4.58693 0
M  V30 13934 H 1320.62 -3.62888 -5.95783 0
M  V30 13935 H 1316.51 -2.39477 -5.99434 0
M  V30 13936 H 1317.28 -4.19472 -7.02841 0
M  V30 13937 N 1319.94 1.55134 -0.277709 0
M  V30 13938 C 1321.36 1.59417 0.0763615 0
M  V30 13939 C 1321.56 1.29491 1.54384 0
M  V30 13940 O 1320.62 1.05703 2.2931 0
M  V30 13941 C 1321.93 2.99194 -0.300607 0
M  V30 13942 C 1323.48 3.1202 -0.247438 0
M  V30 13943 C 1323.95 4.54068 -0.598884 0
M  V30 13944 N 1325.44 4.59917 -0.550534 0
M  V30 13945 C 1326.18 5.67859 -0.795235 0
M  V30 13946 N 1325.67 6.83936 -1.10469 0
M  V30 13947 N 1327.47 5.5742 -0.723859 0
M  V30 13948 H 1319.62 1.72851 -1.23435 0
M  V30 13949 H 1321.88 0.806137 -0.498846 0
M  V30 13950 H 1321.59 3.25937 -1.32129 0
M  V30 13951 H 1321.46 3.75504 0.35729 0
M  V30 13952 H 1323.85 2.8504 0.763959 0
M  V30 13953 H 1323.93 2.37917 -0.939629 0
M  V30 13954 H 1323.57 4.81774 -1.60798 0
M  V30 13955 H 1323.5 5.26474 0.115126 0
M  V30 13956 H 1325.99 3.76531 -0.321341 0
M  V30 13957 H 1326.31 7.62159 -1.278 0
M  V30 13958 H 1324.65 6.85545 -1.14249 0
M  V30 13959 H 1327.84 4.65613 -0.481925 0
M  V30 13960 H 1328.02 6.41465 -0.917944 0
M  V30 13961 N 1321.42 0.00503138 1.57599 0
M  V30 13962 C 1322.35 -0.983586 2.11773 0
M  V30 13963 C 1323.33 -1.35518 1.02805 0
M  V30 13964 O 1324.52 -1.43804 1.30514 0
M  V30 13965 C 1321.65 -2.27383 2.62515 0
M  V30 13966 C 1320.6 -2.0437 3.76054 0
M  V30 13967 C 1319.93 -3.39451 4.1313 0
M  V30 13968 C 1321.23 -1.40223 5.03125 0
M  V30 13969 H 1322.92 -0.532501 2.94627 0
M  V30 13970 H 1320.47 -0.254696 1.4173 0
M  V30 13971 H 1322.42 -2.96903 2.99043 0
M  V30 13972 H 1321.14 -2.74614 1.7679 0
M  V30 13973 H 1319.8 -1.37275 3.39928 0
M  V30 13974 H 1319.45 -3.84395 3.24422 0
M  V30 13975 H 1319.15 -3.24868 4.89627 0
M  V30 13976 H 1320.68 -4.10279 4.52221 0
M  V30 13977 H 1322.09 -1.99708 5.37392 0
M  V30 13978 H 1320.49 -1.36112 5.8446 0
M  V30 13979 H 1321.56 -0.372073 4.8347 0
M  V30 13980 N 1322.9 -1.55308 -0.267798 0
M  V30 13981 C 1324.31 -1.66814 -0.838459 0
M  V30 13982 C 1324.66 -0.598609 -1.86845 0
M  V30 13983 O 1323.79 0.25896 -2.14845 0
M  V30 13984 C 1324.38 -3.02408 -1.52758 0
M  V30 13985 C 1322.94 -3.15923 -2.04621 0
M  V30 13986 C 1322.09 -2.62628 -0.890044 0
M  V30 13987 H 1325.04 -1.58639 -0.0440354 0
M  V30 13988 H 1325.06 -2.95687 -2.39478 0
M  V30 13989 H 1324.57 -3.80228 -0.777695 0
M  V30 13990 H 1322.67 -2.42886 -2.82555 0
M  V30 13991 H 1322.79 -4.22556 -2.25794 0
M  V30 13992 H 1321.15 -2.19918 -1.28485 0
M  V30 13993 H 1321.93 -3.42956 -0.153579 0
M  V30 13994 N 1324.38 0.532545 -1.4833 0
M  V30 13995 C 1325.34 1.61955 -1.62183 0
M  V30 13996 C 1326.34 1.52982 -0.495281 0
M  V30 13997 O 1327.53 1.56698 -0.761005 0
M  V30 13998 C 1324.66 3.0157 -1.58961 0
M  V30 13999 H 1325.86 1.51013 -2.59105 0
M  V30 14000 H 1323.41 0.754405 -1.36888 0
M  V30 14001 H 1324.14 3.18021 -0.635069 0
M  V30 14002 H 1323.93 3.09491 -2.40744 0
M  V30 14003 H 1325.42 3.80604 -1.71843 0
M  V30 14004 N 1325.86 1.36875 0.78122 0
M  V30 14005 C 1327.27 1.28236 1.35692 0
M  V30 14006 C 1327.62 -0.0742286 1.9606 0
M  V30 14007 O 1326.74 -0.97588 1.93146 0
M  V30 14008 C 1327.34 2.32215 2.46702 0
M  V30 14009 C 1325.9 2.2724 3.00065 0
M  V30 14010 C 1325.04 2.16553 1.73206 0
M  V30 14011 H 1327.99 1.47634 0.582217 0
M  V30 14012 H 1328.02 1.96333 3.25935 0
M  V30 14013 H 1327.53 3.30938 2.02735 0
M  V30 14014 H 1325.63 1.3201 3.48431 0
M  V30 14015 H 1325.74 3.20267 3.56323 0
M  V30 14016 H 1324.11 1.62941 1.95761 0
M  V30 14017 H 1324.89 3.17176 1.31356 0
M  V30 14018 N 1327.33 -1.00632 1.21289 0
M  V30 14019 C 1328.27 -2.09085 0.914258 0
M  V30 14020 C 1329.24 -1.62016 -0.137697 0
M  V30 14021 O 1330.43 -1.88498 -0.00902131 0
M  V30 14022 C 1327.56 -3.36645 0.37254 0
M  V30 14023 C 1326.6 -4.0262 1.40709 0
M  V30 14024 S 1327.43 -4.45203 2.97582 0
M  V30 14025 C 1328.59 -5.75951 2.45013 0
M  V30 14026 H 1328.82 -2.34094 1.83268 0
M  V30 14027 H 1326.36 -1.13893 1.04248 0
M  V30 14028 H 1328.31 -4.10446 0.0665561 0
M  V30 14029 H 1326.98 -3.09689 -0.524546 0
M  V30 14030 H 1326.17 -4.94427 0.977642 0
M  V30 14031 H 1325.77 -3.35088 1.66108 0
M  V30 14032 H 1328.06 -6.51634 1.85416 0
M  V30 14033 H 1329.01 -6.23706 3.35257 0
M  V30 14034 H 1329.41 -5.32707 1.8677 0
M  V30 14035 N 1328.81 -1.02043 -1.20104 0
M  V30 14036 C 1330.06 -0.710566 -1.89197 0
M  V30 14037 C 1330.38 0.762471 -1.79475 0
M  V30 14038 O 1329.65 1.54871 -1.19965 0
M  V30 14039 H 1328.23 -0.259839 -0.700352 0
M  V30 14040 H 1330.89 -1.29285 -1.45848 0
M  V30 14041 H 1329.99 -0.997363 -2.95735 0
M  V30 14042 N 1330.29 1.35952 -0.797165 0
M  V30 14043 C 1331.53 2.00862 -0.378652 0
M  V30 14044 C 1331.89 1.61886 1.03233 0
M  V30 14045 O 1333.1 2.19444 1.55234 0
M  V30 14046 C 1331.37 3.53207 -0.545845 0
M  V30 14047 S 1332.93 4.38266 -0.216358 0
M  V30 14048 H 1329.74 0.69621 -0.144268 0
M  V30 14049 H 1332.35 1.65708 -1.03735 0
M  V30 14050 H 1331.05 3.79062 -1.57291 0
M  V30 14051 H 1330.58 3.9319 0.128514 0
M  V30 14052 H 1332.6 4.86439 0.979344 0
M  V30 14053 N 1331.77 0.549846 1.47697 0
M  V30 14054 C 1333.18 0.11453 1.86348 0
M  V30 14055 C 1333.53 -1.31368 1.45729 0
M  V30 14056 O 1332.66 -1.98707 0.856989 0
M  V30 14057 C 1333.25 0.201072 3.38203 0
M  V30 14058 C 1331.81 -0.179162 3.75973 0
M  V30 14059 C 1330.96 0.551951 2.71751 0
M  V30 14060 H 1333.91 0.759989 1.39319 0
M  V30 14061 H 1333.93 -0.582216 3.76019 0
M  V30 14062 H 1333.44 1.24065 3.67736 0
M  V30 14063 H 1331.54 -1.22013 3.52056 0
M  V30 14064 H 1331.65 0.174273 4.78783 0
M  V30 14065 H 1330.02 -0.00411819 2.547 0
M  V30 14066 H 1330.8 1.59254 3.04127 0
M  V30 14067 N 1333.25 -1.54984 0.285932 0
M  V30 14068 C 1334.21 -2.2164 -0.583824 0
M  V30 14069 C 1335.21 -1.19764 -1.073 0
M  V30 14070 O 1336.4 -1.44598 -0.971439 0
M  V30 14071 C 1333.53 -2.8909 -1.80665 0
M  V30 14072 H 1334.72 -2.999 -0.00168109 0
M  V30 14073 H 1332.28 -1.56257 0.0366325 0
M  V30 14074 H 1333.01 -2.14869 -2.42903 0
M  V30 14075 H 1332.8 -3.63756 -1.4637 0
M  V30 14076 H 1334.29 -3.39982 -2.42491 0
M  V30 14077 N 1334.72 -0.0133892 -1.57594 0
M  V30 14078 C 1335.95 0.682855 -1.95836 0
M  V30 14079 C 1336.37 1.65763 -0.889049 0
M  V30 14080 O 1335.73 1.80665 0.151585 0
M  V30 14081 C 1335.78 1.37931 -3.33178 0
M  V30 14082 O 1334.88 2.49416 -3.28429 0
M  V30 14083 H 1334.23 0.180629 -0.638959 0
M  V30 14084 H 1336.76 -0.0705644 -2.04478 0
M  V30 14085 H 1336.77 1.73969 -3.69051 0
M  V30 14086 H 1335.44 0.664675 -4.10554 0
M  V30 14087 H 1334.02 2.15606 -3.04251 0
M  V30 14088 N 1336.2 1.55448 0.259558 0
M  V30 14089 C 1337.13 1.9226 1.32508 0
M  V30 14090 C 1338.11 0.786012 1.5085 0
M  V30 14091 O 1339.3 1.04526 1.6367 0
M  V30 14092 C 1336.43 2.20627 2.68218 0
M  V30 14093 C 1335.38 3.36418 2.64589 0
M  V30 14094 C 1334.71 3.50295 4.03977 0
M  V30 14095 C 1336.01 4.72452 2.2268 0
M  V30 14096 H 1337.7 2.81509 1.01945 0
M  V30 14097 H 1335.25 1.35444 0.488965 0
M  V30 14098 H 1337.2 2.44968 3.42883 0
M  V30 14099 H 1335.93 1.28191 3.00391 0
M  V30 14100 H 1334.58 3.12065 1.92382 0
M  V30 14101 H 1334.23 2.55302 4.33394 0
M  V30 14102 H 1333.93 4.28155 4.02439 0
M  V30 14103 H 1335.46 3.76944 4.8036 0
M  V30 14104 H 1336.87 4.96249 2.87071 0
M  V30 14105 H 1335.27 5.53323 2.32279 0
M  V30 14106 H 1336.34 4.70367 1.17826 0
M  V30 14107 N 1337.68 -0.524672 1.4861 0
M  V30 14108 C 1338.63 -1.62504 1.59927 0
M  V30 14109 C 1339.61 -1.543 0.456094 0
M  V30 14110 O 1340.81 -1.62231 0.707818 0
M  V30 14111 C 1337.94 -3.01207 1.64709 0
M  V30 14112 C 1337.02 -3.14495 2.84523 0
M  V30 14113 N 1337.41 -2.97741 4.08882 0
M  V30 14114 C 1335.71 -3.45559 2.81967 0
M  V30 14115 C 1336.41 -3.14585 4.89297 0
M  V30 14116 N 1335.39 -3.424 4.22212 0
M  V30 14117 H 1339.19 -1.48168 2.53818 0
M  V30 14118 H 1336.7 -0.730258 1.45055 0
M  V30 14119 H 1338.7 -3.80257 1.7091 0
M  V30 14120 H 1337.36 -3.16631 0.719376 0
M  V30 14121 H 1338.37 -2.74395 4.39235 0
M  V30 14122 H 1335.05 -3.67307 1.98474 0
M  V30 14123 H 1336.44 -3.06324 5.98009 0
M  V30 14124 N 1339.16 -1.37287 -0.77395 0
M  V30 14125 C 1340.09 -1.28746 -1.89624 0
M  V30 14126 C 1341.1 -0.203715 -1.6152 0
M  V30 14127 O 1342.29 -0.459684 -1.72479 0
M  V30 14128 C 1339.39 -0.967342 -3.24801 0
M  V30 14129 C 1338.57 -2.1561 -3.80567 0
M  V30 14130 C 1337.62 -1.80661 -4.94215 0
M  V30 14131 O 1336.65 -2.5293 -5.09917 0
M  V30 14132 N 1337.85 -0.749424 -5.75642 0
M  V30 14133 H 1340.62 -2.25447 -1.97468 0
M  V30 14134 H 1338.18 -1.30883 -0.952956 0
M  V30 14135 H 1340.17 -0.714421 -3.98344 0
M  V30 14136 H 1338.74 -0.0889573 -3.12473 0
M  V30 14137 H 1337.96 -2.57091 -2.98828 0
M  V30 14138 H 1339.25 -2.94993 -4.14556 0
M  V30 14139 H 1338.65 -0.149673 -5.65502 0
M  V30 14140 H 1337.2 -0.556358 -6.49421 0
M  V30 14141 N 1340.64 0.999871 -1.21821 0
M  V30 14142 C 1341.57 2.10708 -1.00621 0
M  V30 14143 C 1342.55 1.69954 0.0705417 0
M  V30 14144 O 1343.73 1.9399 -0.0903042 0
M  V30 14145 C 1340.86 3.42496 -0.575646 0
M  V30 14146 C 1339.82 3.97068 -1.59754 0
M  V30 14147 C 1339.14 5.24822 -1.02304 0
M  V30 14148 C 1340.44 4.28545 -2.98574 0
M  V30 14149 H 1342.14 2.28701 -1.93226 0
M  V30 14150 H 1339.68 1.09903 -0.930443 0
M  V30 14151 H 1341.64 4.19357 -0.414481 0
M  V30 14152 H 1340.36 3.2431 0.386059 0
M  V30 14153 H 1339.02 3.22332 -1.74636 0
M  V30 14154 H 1338.67 5.02972 -0.0529016 0
M  V30 14155 H 1338.37 5.62299 -1.70567 0
M  V30 14156 H 1339.89 6.04322 -0.873312 0
M  V30 14157 H 1341.3 4.96229 -2.87106 0
M  V30 14158 H 1339.7 4.77178 -3.63897 0
M  V30 14159 H 1340.77 3.36607 -3.49032 0
M  V30 14160 N 1342.11 1.02678 1.19562 0
M  V30 14161 C 1343.05 0.550355 2.21464 0
M  V30 14162 C 1344.03 -0.407674 1.57406 0
M  V30 14163 O 1345.21 -0.325272 1.85672 0
M  V30 14164 C 1342.34 -0.197777 3.38122 0
M  V30 14165 C 1341.38 0.711362 4.20526 0
M  V30 14166 S 1342.22 2.18636 4.88834 0
M  V30 14167 C 1343.37 1.44868 6.08904 0
M  V30 14168 H 1343.6 1.41377 2.61534 0
M  V30 14169 H 1341.14 0.836535 1.29775 0
M  V30 14170 H 1343.1 -0.62329 4.0574 0
M  V30 14171 H 1341.76 -1.03689 2.96492 0
M  V30 14172 H 1340.95 0.133916 5.03822 0
M  V30 14173 H 1340.55 1.0751 3.58214 0
M  V30 14174 H 1342.84 0.734143 6.73511 0
M  V30 14175 H 1343.79 2.25816 6.71128 0
M  V30 14176 H 1344.19 0.947098 5.56498 0
M  V30 14177 N 1343.59 -1.35528 0.804364 0
M  V30 14178 C 1344.52 -2.32388 0.227604 0
M  V30 14179 C 1345.5 -1.57368 -0.645709 0
M  V30 14180 O 1346.69 -1.85448 -0.576441 0
M  V30 14181 C 1343.82 -3.41603 -0.62645 0
M  V30 14182 C 1342.77 -4.27743 0.148187 0
M  V30 14183 C 1342.1 -5.28259 -0.827425 0
M  V30 14184 C 1343.4 -5.04661 1.34591 0
M  V30 14185 H 1345.09 -2.80874 1.03684 0
M  V30 14186 H 1342.64 -1.3504 0.500031 0
M  V30 14187 H 1344.59 -4.08365 -1.03999 0
M  V30 14188 H 1343.32 -2.91721 -1.46855 0
M  V30 14189 H 1341.97 -3.62558 0.542874 0
M  V30 14190 H 1341.62 -4.74645 -1.66496 0
M  V30 14191 H 1341.32 -5.86763 -0.313453 0
M  V30 14192 H 1342.85 -5.97893 -1.23921 0
M  V30 14193 H 1344.26 -5.6438 1.00736 0
M  V30 14194 H 1342.66 -5.7265 1.79422 0
M  V30 14195 H 1343.73 -4.35432 2.1337 0
M  V30 14196 N 1345.07 -0.557671 -1.47404 0
M  V30 14197 C 1346.02 0.210176 -2.27029 0
M  V30 14198 C 1347.01 0.884882 -1.34382 0
M  V30 14199 O 1348.2 0.783112 -1.58734 0
M  V30 14200 C 1345.33 1.23923 -3.20153 0
M  V30 14201 C 1344.41 0.567913 -4.2028 0
M  V30 14202 N 1344.8 -0.362279 -5.04501 0
M  V30 14203 C 1343.1 0.821776 -4.38364 0
M  V30 14204 C 1343.8 -0.752273 -5.76815 0
M  V30 14205 N 1342.78 -0.107008 -5.43495 0
M  V30 14206 H 1346.58 -0.505007 -2.89529 0
M  V30 14207 H 1344.09 -0.377642 -1.57948 0
M  V30 14208 H 1346.09 1.80328 -3.75882 0
M  V30 14209 H 1344.75 1.9555 -2.59211 0
M  V30 14210 H 1345.76 -0.736468 -5.12637 0
M  V30 14211 H 1342.44 1.52652 -3.88592 0
M  V30 14212 H 1343.83 -1.51664 -6.54559 0
M  V30 14213 N 1346.55 1.54831 -0.294147 0
M  V30 14214 C 1347.79 2.0191 0.318092 0
M  V30 14215 C 1348.15 1.178 1.51615 0
M  V30 14216 O 1349.35 1.54546 2.1993 0
M  V30 14217 C 1347.63 3.51018 0.672375 0
M  V30 14218 S 1349.18 4.20066 1.26845 0
M  V30 14219 H 1346 0.704215 0.0979881 0
M  V30 14220 H 1348.6 1.90926 -0.420422 0
M  V30 14221 H 1347.31 4.09872 -0.208159 0
M  V30 14222 H 1346.84 3.66025 1.44186 0
M  V30 14223 H 1348.85 4.25274 2.55649 0
M  V30 14224 N 1348.03 0.0217466 1.57585 0
M  V30 14225 C 1349.27 -0.653715 1.92609 0
M  V30 14226 C 1349.63 -1.70158 0.897998 0
M  V30 14227 O 1348.92 -1.91403 -0.0869654 0
M  V30 14228 C 1349.12 -1.3197 3.32143 0
M  V30 14229 C 1348.94 -0.33786 4.48429 0
M  V30 14230 C 1347.71 0.0596192 5.05265 0
M  V30 14231 C 1349.91 0.404844 5.12704 0
M  V30 14232 N 1347.89 1.03739 6.05071 0
M  V30 14233 C 1349.27 1.2366 6.07543 0
M  V30 14234 C 1351.32 0.466341 4.95711 0
M  V30 14235 C 1350.02 2.1243 6.87216 0
M  V30 14236 C 1352.05 1.34134 5.75988 0
M  V30 14237 C 1351.41 2.1609 6.70436 0
M  V30 14238 H 1347.51 -0.211748 0.752786 0
M  V30 14239 H 1350.09 0.0871946 1.94505 0
M  V30 14240 H 1348.27 -2.03078 3.3108 0
M  V30 14241 H 1350 -1.95159 3.54535 0
M  V30 14242 H 1346.75 -0.313299 4.72563 0
M  V30 14243 H 1347.18 1.5223 6.59663 0
M  V30 14244 H 1351.82 -0.153024 4.22523 0
M  V30 14245 H 1349.54 2.75424 7.59715 0
M  V30 14246 H 1353.12 1.39312 5.64875 0
M  V30 14247 H 1352 2.82701 7.31471 0
M  V30 14248 N 1349.51 -1.55583 -0.251311 0
M  V30 14249 C 1350.44 -1.86388 -1.33387 0
M  V30 14250 C 1351.45 -0.749829 -1.44504 0
M  V30 14251 O 1352.64 -1.0279 -1.45933 0
M  V30 14252 C 1349.74 -2.0311 -2.71293 0
M  V30 14253 C 1348.91 -3.33937 -2.82498 0
M  V30 14254 C 1347.97 -3.40455 -4.01219 0
M  V30 14255 O 1347 -4.13695 -3.90954 0
M  V30 14256 N 1348.2 -2.69427 -5.14188 0
M  V30 14257 H 1350.96 -2.79834 -1.07298 0
M  V30 14258 H 1348.53 -1.55766 -0.441418 0
M  V30 14259 H 1350.52 -2.04817 -3.49045 0
M  V30 14260 H 1349.09 -1.16429 -2.90109 0
M  V30 14261 H 1348.31 -3.44584 -1.91456 0
M  V30 14262 H 1349.6 -4.20176 -2.86931 0
M  V30 14263 H 1348.99 -2.09647 -5.25419 0
M  V30 14264 H 1347.55 -2.76832 -5.90091 0
M  V30 14265 N 1350.98 0.516783 -1.48886 0
M  V30 14266 C 1351.93 1.62003 -1.64389 0
M  V30 14267 C 1352.9 1.58842 -0.485633 0
M  V30 14268 O 1354.09 1.77068 -0.710742 0
M  V30 14269 C 1351.23 3.00218 -1.70186 0
M  V30 14270 C 1350.34 3.13513 -2.97209 0
M  V30 14271 C 1349.47 4.42366 -2.94084 0
M  V30 14272 C 1348.51 4.49238 -4.15754 0
M  V30 14273 N 1347.65 5.69497 -4.10631 0
M  V30 14274 H 1352.49 1.48093 -2.58597 0
M  V30 14275 H 1350.03 0.720788 -1.2823 0
M  V30 14276 H 1351.98 3.80307 -1.71529 0
M  V30 14277 H 1350.61 3.12868 -0.794578 0
M  V30 14278 H 1349.67 2.26589 -3.05551 0
M  V30 14279 H 1350.98 3.14451 -3.87197 0
M  V30 14280 H 1350.13 5.3076 -2.93902 0
M  V30 14281 H 1348.87 4.43969 -2.01847 0
M  V30 14282 H 1347.88 3.59248 -4.16198 0
M  V30 14283 H 1349.1 4.49363 -5.09166 0
M  V30 14284 H 1347.05 5.71973 -3.21222 0
M  V30 14285 H 1346.96 5.71985 -4.94337 0
M  V30 14286 H 1348.23 6.60142 -4.14527 0
M  V30 14287 N 1352.46 1.37696 0.766659 0
M  V30 14288 C 1353.37 1.36075 1.91104 0
M  V30 14289 C 1354.39 0.259617 1.72052 0
M  V30 14290 O 1355.56 0.49586 1.952 0
M  V30 14291 C 1352.63 1.17176 3.26298 0
M  V30 14292 C 1351.69 2.36975 3.57968 0
M  V30 14293 C 1350.92 2.18968 4.86712 0
M  V30 14294 O 1351.15 1.17658 5.58133 0
M  V30 14295 O 1350.08 3.07269 5.17561 0
M  V30 14296 H 1353.91 2.32472 1.95424 0
M  V30 14297 H 1351.49 1.18478 0.910122 0
M  V30 14298 H 1353.37 1.08645 4.07154 0
M  V30 14299 H 1352.05 0.238559 3.2282 0
M  V30 14300 H 1350.95 2.51079 2.77327 0
M  V30 14301 H 1352.29 3.2888 3.66195 0
M  V30 14302 N 1353.94 -0.993397 1.22349 0
M  V30 14303 C 1355.36 -1.25708 0.983345 0
M  V30 14304 C 1355.56 -1.98888 -0.323372 0
M  V30 14305 O 1354.61 -2.2981 -1.04612 0
M  V30 14306 C 1355.92 -2.06935 2.1817 0
M  V30 14307 C 1357.47 -2.20121 2.22521 0
M  V30 14308 C 1357.95 -3.04735 3.41907 0
M  V30 14309 N 1359.44 -3.12322 3.42066 0
M  V30 14310 C 1360.17 -3.78081 4.31095 0
M  V30 14311 N 1359.67 -4.45771 5.3034 0
M  V30 14312 N 1361.46 -3.74837 4.18872 0
M  V30 14313 H 1353.61 -0.502767 2.06364 0
M  V30 14314 H 1355.88 -0.284656 0.904254 0
M  V30 14315 H 1355.58 -1.60525 3.12929 0
M  V30 14316 H 1355.46 -3.0769 2.18189 0
M  V30 14317 H 1357.84 -2.65745 1.28311 0
M  V30 14318 H 1357.92 -1.18798 2.26541 0
M  V30 14319 H 1357.57 -2.59811 4.36418 0
M  V30 14320 H 1357.5 -4.06198 3.35128 0
M  V30 14321 H 1359.99 -2.64146 2.7025 0
M  V30 14322 H 1360.3 -4.93687 5.94553 0
M  V30 14323 H 1358.65 -4.44521 5.34253 0
M  V30 14324 H 1361.84 -3.21116 3.40591 0
M  V30 14325 H 1362.01 -4.25806 4.8846 0
M  V30 14326 N 1355.42 -1.03311 -1.19015 0
M  V30 14327 C 1356.37 -0.611169 -2.24427 0
M  V30 14328 C 1357.36 0.358303 -1.65567 0
M  V30 14329 O 1358.57 0.22642 -1.7857 0
M  V30 14330 H 1354.94 -0.179393 -0.730289 0
M  V30 14331 H 1356.91 -1.51077 -2.57329 0
M  V30 14332 C 1355.66 0.0178126 -3.47695 0
M  V30 14333 H 1354.98 -0.71921 -3.93278 0
M  V30 14334 H 1356.42 0.275926 -4.23101 0
M  V30 14335 C 1354.88 1.26564 -3.12223 0
M  V30 14336 O 1355.41 2.35725 -3.25264 0
M  V30 14337 N 1353.62 1.15602 -2.66617 0
M  V30 14338 H 1353.17 0.267736 -2.56205 0
M  V30 14339 H 1353.12 1.99186 -2.43254 0
M  V30 14340 N 1356.9 1.35099 -0.81154 0
M  V30 14341 C 1357.85 2.27139 -0.197958 0
M  V30 14342 C 1358.83 1.48006 0.631116 0
M  V30 14343 O 1360.02 1.70152 0.487562 0
M  V30 14344 C 1357.15 3.37118 0.648577 0
M  V30 14345 C 1356.24 4.23672 -0.190498 0
M  V30 14346 N 1356.63 4.89959 -1.25594 0
M  V30 14347 C 1354.93 4.45992 0.0270572 0
M  V30 14348 C 1355.63 5.54161 -1.76862 0
M  V30 14349 N 1354.6 5.32879 -1.07428 0
M  V30 14350 H 1358.4 2.75886 -1.01311 0
M  V30 14351 H 1355.92 1.48685 -0.653195 0
M  V30 14352 H 1357.92 4.0201 1.10423 0
M  V30 14353 H 1356.58 2.89922 1.46202 0
M  V30 14354 H 1357.59 4.91293 -1.63864 0
M  V30 14355 H 1354.26 4.09582 0.809248 0
M  V30 14356 H 1355.65 6.17032 -2.65935 0
M  V30 14357 N 1358.37 0.56548 1.47106 0
M  V30 14358 C 1359.79 0.225855 1.57994 0
M  V30 14359 C 1359.99 -1.27173 1.56299 0
M  V30 14360 O 1359.05 -2.05242 1.47078 0
M  V30 14361 C 1360.36 0.859829 2.88145 0
M  V30 14362 C 1361.91 0.831821 3.01744 0
M  V30 14363 C 1362.38 1.44502 4.34607 0
M  V30 14364 N 1363.87 1.40857 4.41263 0
M  V30 14365 C 1364.61 1.85258 5.42648 0
M  V30 14366 N 1364.1 2.37553 6.508 0
M  V30 14367 N 1365.9 1.76279 5.33744 0
M  V30 14368 H 1358.05 1.53837 1.46451 0
M  V30 14369 H 1360.31 0.642013 0.697512 0
M  V30 14370 H 1360.02 1.91264 2.95146 0
M  V30 14371 H 1359.89 0.357762 3.755 0
M  V30 14372 H 1362.28 -0.212319 2.94335 0
M  V30 14373 H 1362.36 1.37173 2.1591 0
M  V30 14374 H 1362 2.48827 4.42773 0
M  V30 14375 H 1361.93 0.880479 5.19187 0
M  V30 14376 H 1364.42 1.02614 3.63702 0
M  V30 14377 H 1364.74 2.69335 7.24347 0
M  V30 14378 H 1363.08 2.41569 6.51667 0
M  V30 14379 H 1366.27 1.35195 4.48152 0
M  V30 14380 H 1366.45 2.11199 6.12616 0
M  V30 14381 N 1359.85 -1.54672 0.302354 0
M  V30 14382 C 1361.26 -1.85731 -0.190019 0
M  V30 14383 C 1361.61 -1.22427 -1.53317 0
M  V30 14384 O 1360.74 -0.522461 -2.09998 0
M  V30 14385 C 1361.33 -3.36971 -0.351562 0
M  V30 14386 C 1359.89 -3.68056 -0.788155 0
M  V30 14387 C 1359.04 -2.7711 0.102705 0
M  V30 14388 H 1361.99 -1.49823 0.523324 0
M  V30 14389 H 1362.01 -3.61547 -1.18592 0
M  V30 14390 H 1361.52 -3.83016 0.626152 0
M  V30 14391 H 1359.63 -3.2753 -1.77637 0
M  V30 14392 H 1359.74 -4.75244 -0.606604 0
M  V30 14393 H 1358.1 -2.51243 -0.418235 0
M  V30 14394 H 1358.89 -3.25975 1.0768 0
M  V30 14395 N 1361.33 -0.0301034 -1.57571 0
M  V30 14396 C 1362.28 0.951421 -2.10277 0
M  V30 14397 C 1363.25 1.3224 -1.00508 0
M  V30 14398 O 1364.43 1.41554 -1.27934 0
M  V30 14399 C 1361.57 2.2282 -2.63525 0
M  V30 14400 C 1360.69 1.91359 -3.87306 0
M  V30 14401 C 1359.82 3.13339 -4.28943 0
M  V30 14402 C 1358.86 2.77701 -5.4548 0
M  V30 14403 N 1358 3.9231 -5.82269 0
M  V30 14404 H 1362.84 0.495049 -2.93859 0
M  V30 14405 H 1360.37 0.232756 -1.45247 0
M  V30 14406 H 1362.33 2.97502 -2.92487 0
M  V30 14407 H 1360.96 2.66072 -1.82772 0
M  V30 14408 H 1360.01 1.06915 -3.65066 0
M  V30 14409 H 1361.33 1.61112 -4.72064 0
M  V30 14410 H 1360.48 3.9634 -4.59347 0
M  V30 14411 H 1359.22 3.46747 -3.42954 0
M  V30 14412 H 1358.22 1.93113 -5.14769 0
M  V30 14413 H 1359.45 2.45508 -6.33169 0
M  V30 14414 H 1357.39 4.25559 -4.99235 0
M  V30 14415 H 1357.31 3.65691 -6.61669 0
M  V30 14416 H 1358.58 4.76012 -6.17279 0
M  V30 14417 N 1362.81 1.55714 0.243056 0
M  V30 14418 C 1364.06 1.77726 0.970555 0
M  V30 14419 C 1364.38 0.595108 1.85172 0
M  V30 14420 O 1363.64 -0.42143 1.91108 0
M  V30 14421 C 1363.94 3.05281 1.85845 0
M  V30 14422 C 1363.6 4.36451 1.13232 0
M  V30 14423 C 1362.27 4.72095 0.931656 0
M  V30 14424 C 1364.62 5.17524 0.617944 0
M  V30 14425 C 1361.95 5.86344 0.204373 0
M  V30 14426 C 1364.3 6.32527 -0.0958899 0
M  V30 14427 C 1362.96 6.66789 -0.308 0
M  V30 14428 H 1362.23 0.650345 0.355151 0
M  V30 14429 H 1364.88 1.89986 0.240351 0
M  V30 14430 H 1363.18 2.8805 2.65584 0
M  V30 14431 H 1364.88 3.19511 2.4231 0
M  V30 14432 H 1361.47 4.08451 1.29867 0
M  V30 14433 H 1365.65 4.90439 0.760507 0
M  V30 14434 H 1360.91 6.11393 0.0296 0
M  V30 14435 H 1365.08 6.94588 -0.502077 0
M  V30 14436 H 1362.71 7.55165 -0.873502 0
M  V30 14437 N 1364.29 -0.50888 1.49158 0
M  V30 14438 C 1365.51 -1.28771 1.61943 0
M  V30 14439 C 1365.93 -1.86594 0.287759 0
M  V30 14440 O 1365.29 -1.67448 -0.725769 0
M  V30 14441 C 1365.34 -2.4236 2.68224 0
M  V30 14442 O 1365.06 -1.86915 3.96225 0
M  V30 14443 C 1366.56 -3.33856 2.91642 0
M  V30 14444 H 1363.78 -0.390849 0.545416 0
M  V30 14445 H 1366.32 -0.611729 1.95136 0
M  V30 14446 H 1364.48 -3.05803 2.37831 0
M  V30 14447 H 1364.89 -2.61426 4.54705 0
M  V30 14448 H 1366.37 -4.09856 3.69759 0
M  V30 14449 H 1366.84 -3.90374 2.01258 0
M  V30 14450 H 1367.45 -2.76187 3.23421 0
M  V30 14451 N 1365.76 -1.381 -0.759346 0
M  V30 14452 C 1367.04 -1.24517 -1.50847 0
M  V30 14453 C 1367.42 0.155929 -2.10523 0
M  V30 14454 O 1366.77 1.16485 -1.96579 0
M  V30 14455 C 1366.98 -2.35086 -2.57945 0
M  V30 14456 C 1368.33 -2.73232 -3.25007 0
M  V30 14457 O 1369.35 -2.34355 -2.68247 0
M  V30 14458 O 1368.21 -3.40254 -4.27656 0
M  V30 14459 H 1365.3 -0.486599 -0.668693 0
M  V30 14460 H 1367.85 -1.49913 -0.795249 0
M  V30 14461 H 1366.62 -3.28858 -2.12056 0
M  V30 14462 H 1366.25 -2.11222 -3.36854 0
M  V30 14463 N 1367.24 0.986894 -1.22875 0
M  V30 14464 C 1368.49 1.72152 -1.05103 0
M  V30 14465 C 1368.8 1.91185 0.413248 0
M  V30 14466 O 1370.01 2.62031 0.710759 0
M  V30 14467 C 1368.47 3.09771 -1.8322 0
M  V30 14468 C 1368.07 2.98648 -3.33936 0
M  V30 14469 C 1369.82 3.87238 -1.73917 0
M  V30 14470 C 1367.73 4.31459 -4.04471 0
M  V30 14471 H 1366.66 0.645498 -0.389677 0
M  V30 14472 H 1369.31 1.10125 -1.46781 0
M  V30 14473 H 1367.69 3.72515 -1.34345 0
M  V30 14474 H 1368.86 2.45033 -3.9025 0
M  V30 14475 H 1367.18 2.34661 -3.43982 0
M  V30 14476 H 1369.77 4.85549 -2.23933 0
M  V30 14477 H 1370.12 4.1036 -0.700711 0
M  V30 14478 H 1370.65 3.31183 -2.20369 0
M  V30 14479 H 1367.39 4.13534 -5.08596 0
M  V30 14480 H 1366.91 4.84964 -3.52944 0
M  V30 14481 H 1368.59 5.00179 -4.10403 0
M  V30 14482 N 1368.72 1.0394 1.18466 0
M  V30 14483 C 1369.97 0.743141 1.88694 0
M  V30 14484 C 1370.3 -0.727211 1.8007 0
M  V30 14485 O 1369.57 -1.53058 1.20014 0
M  V30 14486 C 1369.86 1.20829 3.39223 0
M  V30 14487 C 1369.71 2.74064 3.56664 0
M  V30 14488 C 1371.03 0.797348 4.32817 0
M  V30 14489 H 1368.15 0.271437 0.685194 0
M  V30 14490 H 1370.79 1.29119 1.39386 0
M  V30 14491 H 1368.94 0.742033 3.81348 0
M  V30 14492 H 1370.61 3.28717 3.2364 0
M  V30 14493 H 1368.86 3.1395 2.99362 0
M  V30 14494 H 1369.53 3.01668 4.62277 0
M  V30 14495 H 1372 1.19854 3.98465 0
M  V30 14496 H 1370.88 1.15057 5.36706 0
M  V30 14497 H 1371.14 -0.299601 4.41084 0
M  V30 14498 N 1370.2 -1.34667 0.818693 0
M  V30 14499 C 1371.42 -2.03173 0.416585 0
M  V30 14500 C 1371.85 -1.61261 -0.968321 0
M  V30 14501 O 1371.21 -0.79517 -1.62932 0
M  V30 14502 C 1371.25 -3.56803 0.521884 0
M  V30 14503 O 1370.36 -4.09827 -0.459953 0
M  V30 14504 H 1369.7 -0.6413 0.172136 0
M  V30 14505 H 1372.23 -1.72006 1.10794 0
M  V30 14506 H 1372.24 -4.06073 0.3961 0
M  V30 14507 H 1370.91 -3.86656 1.53198 0
M  V30 14508 H 1369.49 -3.71744 -0.293405 0
M  V30 14509 N 1371.68 -0.573274 -1.46804 0
M  V30 14510 C 1372.92 -0.0552613 -2.02425 0
M  V30 14511 C 1373.25 1.30098 -1.44585 0
M  V30 14512 O 1372.51 1.86366 -0.597166 0
M  V30 14513 C 1372.81 0.0704285 -3.57331 0
M  V30 14514 C 1372.47 -1.217 -4.34166 0
M  V30 14515 C 1371.13 -1.56973 -4.54877 0
M  V30 14516 C 1373.49 -2.06939 -4.78357 0
M  V30 14517 C 1370.81 -2.77302 -5.1703 0
M  V30 14518 C 1373.17 -3.26486 -5.41839 0
M  V30 14519 C 1371.83 -3.62053 -5.6078 0
M  V30 14520 H 1371.1 -0.0202215 -0.740724 0
M  V30 14521 H 1373.75 -0.748016 -1.76287 0
M  V30 14522 H 1372.05 0.846254 -3.82552 0
M  V30 14523 H 1373.75 0.486841 -3.98034 0
M  V30 14524 H 1370.34 -0.932374 -4.18336 0
M  V30 14525 H 1374.52 -1.80992 -4.62121 0
M  V30 14526 H 1369.78 -3.05008 -5.29887 0
M  V30 14527 H 1373.95 -3.92811 -5.75042 0
M  V30 14528 H 1371.58 -4.55385 -6.08711 0
M  V30 14529 N 1373.15 1.5451 -0.310553 0
M  V30 14530 C 1374.08 2.26827 0.554243 0
M  V30 14531 C 1375.07 1.27133 1.13009 0
M  V30 14532 O 1376.25 1.55923 1.15765 0
M  V30 14533 C 1373.38 3.01626 1.7216 0
M  V30 14534 C 1372.33 4.08547 1.27566 0
M  V30 14535 C 1371.66 4.71115 2.52893 0
M  V30 14536 C 1372.96 5.20766 0.399955 0
M  V30 14537 H 1374.65 2.9936 -0.0489475 0
M  V30 14538 H 1372.2 1.43978 -0.0249817 0
M  V30 14539 H 1374.15 3.50942 2.33276 0
M  V30 14540 H 1372.88 2.26688 2.35118 0
M  V30 14541 H 1371.54 3.60096 0.687499 0
M  V30 14542 H 1371.18 3.92805 3.14186 0
M  V30 14543 H 1370.88 5.43331 2.23752 0
M  V30 14544 H 1372.41 5.23198 3.14796 0
M  V30 14545 H 1373.82 5.65918 0.917054 0
M  V30 14546 H 1372.22 5.9976 0.2019 0
M  V30 14547 H 1373.29 4.81508 -0.572537 0
M  V30 14548 N 1374.63 0.0384594 1.57553 0
M  V30 14549 C 1375.91 -0.677308 1.83499 0
M  V30 14550 C 1376.29 -1.89789 0.924294 0
M  V30 14551 O 1375.64 -2.28493 -0.0178185 0
M  V30 14552 C 1375.85 -1.04667 3.32935 0
M  V30 14553 C 1377.2 -1.43436 3.99639 0
M  V30 14554 O 1378.22 -1.13938 3.37486 0
M  V30 14555 O 1377.08 -1.98435 5.09201 0
M  V30 14556 H 1374.17 -0.333131 0.756936 0
M  V30 14557 H 1376.72 0.066854 1.69568 0
M  V30 14558 H 1375.49 -0.178349 3.90893 0
M  V30 14559 H 1375.11 -1.8487 3.52007 0
M  V30 14560 N 1376.11 -1.55841 -0.234795 0
M  V30 14561 C 1377.06 -1.91326 -1.29086 0
M  V30 14562 C 1378.03 -0.768868 -1.47233 0
M  V30 14563 O 1379.21 -1.0236 -1.61019 0
M  V30 14564 C 1376.35 -2.22388 -2.6389 0
M  V30 14565 C 1375.47 -3.49693 -2.5365 0
M  V30 14566 C 1374.6 -3.70267 -3.80889 0
M  V30 14567 C 1373.64 -4.91132 -3.65317 0
M  V30 14568 N 1372.78 -5.08163 -4.84474 0
M  V30 14569 H 1377.62 -2.81382 -0.981246 0
M  V30 14570 H 1375.15 -1.3928 -0.47324 0
M  V30 14571 H 1377.11 -2.38404 -3.42373 0
M  V30 14572 H 1375.74 -1.35521 -2.92974 0
M  V30 14573 H 1374.79 -3.41943 -1.66672 0
M  V30 14574 H 1376.11 -4.38326 -2.38059 0
M  V30 14575 H 1375.26 -3.86308 -4.67815 0
M  V30 14576 H 1374 -2.7989 -3.9939 0
M  V30 14577 H 1373 -4.75054 -2.76774 0
M  V30 14578 H 1374.23 -5.8298 -3.48298 0
M  V30 14579 H 1372.18 -4.20726 -5.03314 0
M  V30 14580 H 1372.09 -5.90904 -4.71559 0
M  V30 14581 H 1373.36 -5.28627 -5.72865 0
M  V30 14582 N 1377.59 0.500963 -1.49426 0
M  V30 14583 C 1378.52 1.61114 -1.69011 0
M  V30 14584 C 1379.5 1.61341 -0.538813 0
M  V30 14585 O 1380.69 1.78081 -0.77466 0
M  V30 14586 C 1377.82 2.99598 -1.75666 0
M  V30 14587 C 1376.77 3.14236 -2.90585 0
M  V30 14588 C 1376.1 4.54071 -2.82354 0
M  V30 14589 C 1377.4 2.94258 -4.3152 0
M  V30 14590 H 1379.09 1.44978 -2.61957 0
M  V30 14591 H 1376.64 0.69603 -1.26061 0
M  V30 14592 H 1378.59 3.77163 -1.87953 0
M  V30 14593 H 1377.31 3.16822 -0.793186 0
M  V30 14594 H 1375.97 2.39096 -2.779 0
M  V30 14595 H 1375.62 4.68172 -1.83914 0
M  V30 14596 H 1375.32 4.64806 -3.59485 0
M  V30 14597 H 1376.84 5.33696 -2.96649 0
M  V30 14598 H 1378.26 3.61592 -4.44886 0
M  V30 14599 H 1376.65 3.16464 -5.09873 0
M  V30 14600 H 1377.72 1.90383 -4.45962 0
M  V30 14601 N 1379.07 1.38501 0.752011 0
M  V30 14602 C 1380.32 1.34112 1.50655 0
M  V30 14603 C 1380.63 -0.0657661 1.95489 0
M  V30 14604 O 1381.84 -0.232199 2.70505 0
M  V30 14605 C 1380.29 2.35514 2.72142 0
M  V30 14606 C 1379.9 3.81831 2.34326 0
M  V30 14607 C 1381.64 2.40171 3.50026 0
M  V30 14608 C 1379.55 4.74915 3.52434 0
M  V30 14609 H 1378.48 0.498519 0.565681 0
M  V30 14610 H 1381.13 1.64064 0.821913 0
M  V30 14611 H 1379.51 1.98607 3.42595 0
M  V30 14612 H 1380.69 4.27685 1.7153 0
M  V30 14613 H 1379 3.80308 1.69573 0
M  V30 14614 H 1381.6 3.06913 4.37845 0
M  V30 14615 H 1381.94 1.42111 3.91293 0
M  V30 14616 H 1382.48 2.75884 2.86588 0
M  V30 14617 H 1379.21 5.74176 3.16232 0
M  V30 14618 H 1378.73 4.33753 4.14268 0
M  V30 14619 H 1380.41 4.93003 4.18995 0
M  V30 14620 N 1380.55 -0.980364 1.23396 0
M  V30 14621 C 1381.96 -1.24658 0.996622 0
M  V30 14622 C 1382.16 -1.9922 -0.302259 0
M  V30 14623 O 1381.22 -2.30906 -1.02169 0
M  V30 14624 C 1382.53 -2.0461 2.20353 0
M  V30 14625 C 1384.08 -2.17749 2.24843 0
M  V30 14626 C 1384.55 -3.01091 3.4512 0
M  V30 14627 N 1386.04 -3.08676 3.4536 0
M  V30 14628 C 1386.78 -3.73487 4.3508 0
M  V30 14629 N 1386.28 -4.40121 5.35038 0
M  V30 14630 N 1388.07 -3.70373 4.22824 0
M  V30 14631 H 1380.22 -0.480851 2.06885 0
M  V30 14632 H 1382.48 -0.275049 0.907222 0
M  V30 14633 H 1382.19 -1.57197 3.14614 0
M  V30 14634 H 1382.06 -3.05359 2.21441 0
M  V30 14635 H 1384.45 -2.64369 1.31122 0
M  V30 14636 H 1384.53 -1.16388 2.27788 0
M  V30 14637 H 1384.17 -2.55168 4.39149 0
M  V30 14638 H 1384.1 -4.02621 3.39417 0
M  V30 14639 H 1386.6 -2.61265 2.73037 0
M  V30 14640 H 1386.91 -4.87354 5.99755 0
M  V30 14641 H 1385.25 -4.38829 5.38938 0
M  V30 14642 H 1388.44 -3.17486 3.43977 0
M  V30 14643 H 1388.62 -4.20601 4.92949 0
M  V30 14644 N 1382.02 -1.04567 -1.17913 0
M  V30 14645 C 1382.97 -0.634939 -2.23766 0
M  V30 14646 C 1383.97 0.340723 -1.65938 0
M  V30 14647 O 1385.17 0.207467 -1.788 0
M  V30 14648 H 1381.55 -0.187129 -0.728345 0
M  V30 14649 H 1383.52 -1.53798 -2.55712 0
M  V30 14650 C 1382.27 -0.0190662 -3.47695 0
M  V30 14651 H 1381.59 -0.760881 -3.92493 0
M  V30 14652 H 1383.03 0.231035 -4.2337 0
M  V30 14653 C 1381.49 1.23246 -3.13548 0
M  V30 14654 O 1382.02 2.32262 -3.27746 0
M  V30 14655 N 1380.22 1.12768 -2.67828 0
M  V30 14656 H 1379.77 0.240547 -2.56474 0
M  V30 14657 H 1379.73 1.96594 -2.45353 0
M  V30 14658 N 1383.5 1.34231 -0.825823 0
M  V30 14659 C 1384.91 1.8059 -0.473724 0
M  V30 14660 C 1385.26 1.68438 1.00614 0
M  V30 14661 O 1384.39 1.22606 1.78317 0
M  V30 14662 C 1384.98 3.27884 -0.853099 0
M  V30 14663 C 1383.54 3.72311 -0.553327 0
M  V30 14664 C 1382.69 2.55889 -1.06845 0
M  V30 14665 H 1385.64 1.21937 -1.01573 0
M  V30 14666 H 1385.66 3.80172 -0.158014 0
M  V30 14667 H 1385.17 3.36696 -1.93021 0
M  V30 14668 H 1383.27 3.69034 0.514256 0
M  V30 14669 H 1383.39 4.66315 -1.09942 0
M  V30 14670 H 1381.75 2.49945 -0.489874 0
M  V30 14671 H 1382.53 2.67471 -2.15207 0
M  V30 14672 N 1384.98 0.581051 1.46498 0
M  V30 14673 C 1386.2 0.0696654 2.07283 0
M  V30 14674 C 1386.63 -1.22525 1.42721 0
M  V30 14675 O 1385.99 -1.73967 0.510421 0
M  V30 14676 C 1386.04 -0.0843864 3.60501 0
M  V30 14677 O 1385.14 -1.14129 3.96293 0
M  V30 14678 H 1384.48 0.0620572 0.661094 0
M  V30 14679 H 1387.01 0.803522 1.88161 0
M  V30 14680 H 1387.02 -0.29108 4.0696 0
M  V30 14681 H 1385.7 0.861274 4.06884 0
M  V30 14682 H 1384.27 -0.913186 3.61546 0
M  V30 14683 N 1386.46 -1.54343 0.318742 0
M  V30 14684 C 1387.42 -2.22828 -0.536679 0
M  V30 14685 C 1388.42 -1.22013 -1.04735 0
M  V30 14686 O 1389.61 -1.46626 -0.940549 0
M  V30 14687 C 1386.74 -2.92857 -1.74493 0
M  V30 14688 H 1387.94 -2.99836 0.0619325 0
M  V30 14689 H 1385.49 -1.56144 0.0697687 0
M  V30 14690 H 1386.22 -2.19973 -2.3829 0
M  V30 14691 H 1386.01 -3.66779 -1.38621 0
M  V30 14692 H 1387.5 -3.45049 -2.35225 0
M  V30 14693 N 1387.94 -0.0468143 -1.5753 0
M  V30 14694 C 1388.87 0.927092 -2.14306 0
M  V30 14695 C 1389.85 1.32745 -1.06362 0
M  V30 14696 O 1391.03 1.40293 -1.34281 0
M  V30 14697 C 1388.16 2.20343 -2.68452 0
M  V30 14698 C 1387.12 1.94328 -3.81341 0
M  V30 14699 C 1386.44 3.28379 -4.21985 0
M  V30 14700 C 1387.74 1.26835 -5.06666 0
M  V30 14701 H 1389.44 0.454199 -2.95935 0
M  V30 14702 H 1386.98 0.217029 -1.42355 0
M  V30 14703 H 1388.93 2.8887 -3.0681 0
M  V30 14704 H 1387.66 2.6983 -1.84009 0
M  V30 14705 H 1386.32 1.28214 -3.43448 0
M  V30 14706 H 1385.97 3.75658 -3.34499 0
M  V30 14707 H 1385.67 3.11772 -4.98068 0
M  V30 14708 H 1387.19 3.98145 -4.6294 0
M  V30 14709 H 1388.6 1.85389 -5.42498 0
M  V30 14710 H 1387 1.20569 -5.87863 0
M  V30 14711 H 1388.07 0.243759 -4.84287 0
M  V30 14712 N 1389.41 1.55964 0.226527 0
M  V30 14713 C 1390.36 1.88403 1.28406 0
M  V30 14714 C 1391.35 0.746656 1.42527 0
M  V30 14715 O 1392.54 1.00898 1.45425 0
M  V30 14716 C 1389.67 2.19992 2.63549 0
M  V30 14717 C 1388.76 3.40109 2.5335 0
M  V30 14718 N 1389.15 4.58858 2.12798 0
M  V30 14719 C 1387.44 3.43625 2.8432 0
M  V30 14720 C 1388.15 5.41013 2.13729 0
M  V30 14721 N 1387.12 4.80596 2.54025 0
M  V30 14722 H 1390.92 2.77732 0.961352 0
M  V30 14723 H 1388.44 1.56463 0.435104 0
M  V30 14724 H 1390.43 2.41405 3.39896 0
M  V30 14725 H 1389.09 1.31973 2.9667 0
M  V30 14726 H 1390.11 4.84108 1.8401 0
M  V30 14727 H 1386.78 2.65935 3.21846 0
M  V30 14728 H 1388.17 6.4606 1.84543 0
M  V30 14729 N 1390.89 -0.493031 1.4969 0
M  V30 14730 C 1392.12 -1.27046 1.633 0
M  V30 14731 C 1392.54 -1.86278 0.307534 0
M  V30 14732 O 1391.89 -1.68208 -0.707968 0
M  V30 14733 C 1391.94 -2.39501 2.70779 0
M  V30 14734 O 1391.66 -1.82702 3.98185 0
M  V30 14735 C 1393.17 -3.30744 2.95166 0
M  V30 14736 H 1390.39 -0.385042 0.54953 0
M  V30 14737 H 1392.93 -0.590998 1.95774 0
M  V30 14738 H 1391.08 -3.03263 2.41061 0
M  V30 14739 H 1391.5 -2.56588 4.57452 0
M  V30 14740 H 1392.97 -4.05912 3.74085 0
M  V30 14741 H 1393.45 -3.88217 2.05387 0
M  V30 14742 H 1394.06 -2.72741 3.26332 0
M  V30 14743 N 1392.37 -1.38898 -0.744656 0
M  V30 14744 C 1393.3 -1.39571 -1.87195 0
M  V30 14745 C 1394.28 -0.260372 -1.68095 0
M  V30 14746 O 1395.47 -0.464776 -1.88556 0
M  V30 14747 C 1392.6 -1.22889 -3.24832 0
M  V30 14748 C 1391.55 -2.33721 -3.58551 0
M  V30 14749 C 1390.88 -2.02136 -4.9502 0
M  V30 14750 C 1392.18 -3.7601 -3.62511 0
M  V30 14751 H 1393.87 -2.33908 -1.86889 0
M  V30 14752 H 1391.42 -1.12591 -0.897739 0
M  V30 14753 H 1393.37 -1.21983 -4.03359 0
M  V30 14754 H 1392.09 -0.250172 -3.2564 0
M  V30 14755 H 1390.75 -2.33828 -2.82348 0
M  V30 14756 H 1390.4 -1.02726 -4.92399 0
M  V30 14757 H 1390.1 -2.76371 -5.18549 0
M  V30 14758 H 1391.62 -2.02864 -5.75915 0
M  V30 14759 H 1393.04 -3.77885 -4.31133 0
M  V30 14760 H 1391.44 -4.49524 -3.97553 0
M  V30 14761 H 1392.51 -4.07682 -2.62533 0
M  V30 14762 N 1393.85 0.973806 -1.23914 0
M  V30 14763 C 1395.09 1.71852 -1.07678 0
M  V30 14764 C 1395.43 1.90357 0.384425 0
M  V30 14765 O 1394.7 1.46063 1.28436 0
M  V30 14766 C 1394.99 3.1129 -1.81026 0
M  V30 14767 C 1394.84 3.00315 -3.3486 0
M  V30 14768 C 1396.16 4.10835 -1.57805 0
M  V30 14769 H 1393.28 0.623749 -0.392564 0
M  V30 14770 H 1395.92 1.13325 -1.52504 0
M  V30 14771 H 1394.07 3.61255 -1.42922 0
M  V30 14772 H 1395.74 2.57823 -3.82524 0
M  V30 14773 H 1393.98 2.36667 -3.63553 0
M  V30 14774 H 1394.65 3.9907 -3.81376 0
M  V30 14775 H 1397.13 3.69705 -1.90939 0
M  V30 14776 H 1396.01 5.06478 -2.11591 0
M  V30 14777 H 1396.27 4.39091 -0.514894 0
M  V30 14778 N 1395.33 1.05191 1.17357 0
M  V30 14779 C 1396.24 0.663617 2.25018 0
M  V30 14780 C 1397.25 -0.315299 1.71119 0
M  V30 14781 O 1398.43 -0.167398 2.00703 0
M  V30 14782 C 1395.49 0.0443307 3.46672 0
M  V30 14783 C 1394.55 1.07369 4.15656 0
M  V30 14784 C 1393.79 0.483864 5.31502 0
M  V30 14785 O 1394.01 -0.706692 5.66005 0
M  V30 14786 O 1392.94 1.21812 5.89445 0
M  V30 14787 H 1396.77 1.56088 2.60519 0
M  V30 14788 H 1394.36 0.823474 1.24657 0
M  V30 14789 H 1396.24 -0.299839 4.20332 0
M  V30 14790 H 1394.91 -0.826579 3.12969 0
M  V30 14791 H 1393.82 1.46985 3.44015 0
M  V30 14792 H 1395.15 1.91575 4.53387 0
M  V30 14793 N 1396.8 -1.33791 0.83293 0
M  V30 14794 C 1398.08 -1.9248 0.347955 0
M  V30 14795 C 1398.46 -1.75978 -1.16597 0
M  V30 14796 O 1397.81 -1.14456 -1.97768 0
M  V30 14797 C 1398.02 -3.3998 0.78831 0
M  V30 14798 C 1399.37 -4.17131 0.7929 0
M  V30 14799 O 1400.39 -3.48607 0.731533 0
M  V30 14800 O 1399.25 -5.39446 0.875223 0
M  V30 14801 H 1396.34 -0.821264 0.0972309 0
M  V30 14802 H 1398.89 -1.42702 0.918387 0
M  V30 14803 H 1397.66 -3.45836 1.83065 0
M  V30 14804 H 1397.29 -3.97126 0.194123 0
M  V30 14805 N 1398.28 -0.588812 -1.46187 0
M  V30 14806 C 1399.53 -0.0744093 -2.01563 0
M  V30 14807 C 1399.84 1.29578 -1.46523 0
M  V30 14808 O 1401.05 1.90186 -1.93756 0
M  V30 14809 C 1399.51 -0.082408 -3.59806 0
M  V30 14810 C 1399.11 -1.45129 -4.23842 0
M  V30 14811 C 1400.86 0.377732 -4.22816 0
M  V30 14812 C 1398.77 -1.41668 -5.74181 0
M  V30 14813 H 1397.7 -0.0240481 -0.753616 0
M  V30 14814 H 1400.35 -0.741364 -1.67857 0
M  V30 14815 H 1398.73 0.650832 -3.90615 0
M  V30 14816 H 1399.9 -2.20474 -4.04633 0
M  V30 14817 H 1398.22 -1.85196 -3.7295 0
M  V30 14818 H 1400.81 0.42251 -5.33028 0
M  V30 14819 H 1401.16 1.39655 -3.92176 0
M  V30 14820 H 1401.69 -0.301638 -3.96655 0
M  V30 14821 H 1398.43 -2.4125 -6.09491 0
M  V30 14822 H 1397.95 -0.705524 -5.95636 0
M  V30 14823 H 1399.63 -1.13221 -6.37016 0
M  V30 14824 N 1399.76 1.54172 -0.326923 0
M  V30 14825 C 1400.69 2.27402 0.530154 0
M  V30 14826 C 1401.67 1.28325 1.11655 0
M  V30 14827 O 1402.86 1.57142 1.14105 0
M  V30 14828 C 1399.99 3.03435 1.68951 0
M  V30 14829 C 1398.94 4.09877 1.23226 0
M  V30 14830 C 1398.27 4.7377 2.47882 0
M  V30 14831 C 1399.57 5.21161 0.344698 0
M  V30 14832 H 1401.26 2.99291 -0.0806959 0
M  V30 14833 H 1398.81 1.43944 -0.0402511 0
M  V30 14834 H 1400.76 3.53396 2.29541 0
M  V30 14835 H 1399.48 2.29169 2.327 0
M  V30 14836 H 1398.14 3.60805 0.649267 0
M  V30 14837 H 1397.79 3.96116 3.10002 0
M  V30 14838 H 1397.49 5.45674 2.17977 0
M  V30 14839 H 1399.01 5.26507 3.09229 0
M  V30 14840 H 1400.43 5.66859 0.856979 0
M  V30 14841 H 1398.83 5.99941 0.138276 0
M  V30 14842 H 1399.9 4.80874 -0.623575 0
M  V30 14843 N 1401.24 0.0551678 1.57503 0
M  V30 14844 C 1402.48 -0.618636 1.93134 0
M  V30 14845 C 1402.82 -1.70258 0.934125 0
M  V30 14846 O 1402.09 -1.9446 -0.0392699 0
M  V30 14847 C 1402.38 -1.21103 3.39126 0
M  V30 14848 C 1402.23 -0.134865 4.49598 0
M  V30 14849 C 1403.55 -2.12148 3.85592 0
M  V30 14850 H 1400.67 -0.223416 0.702321 0
M  V30 14851 H 1403.31 0.117748 1.89635 0
M  V30 14852 H 1401.46 -1.83862 3.42238 0
M  V30 14853 H 1403.13 0.497292 4.58612 0
M  V30 14854 H 1401.37 0.536587 4.30469 0
M  V30 14855 H 1402.04 -0.589447 5.48844 0
M  V30 14856 H 1404.52 -1.59346 3.8438 0
M  V30 14857 H 1403.4 -2.50539 4.88387 0
M  V30 14858 H 1403.66 -3.02318 3.22578 0
M  V30 14859 N 1402.72 -1.56081 -0.218252 0
M  V30 14860 C 1403.65 -1.87704 -1.29779 0
M  V30 14861 C 1404.63 -0.734747 -1.45053 0
M  V30 14862 O 1405.81 -0.98344 -1.60813 0
M  V30 14863 C 1402.94 -2.08695 -2.66766 0
M  V30 14864 C 1401.98 -3.31385 -2.68489 0
M  V30 14865 S 1402.82 -4.87212 -2.22227 0
M  V30 14866 C 1403.97 -5.11243 -3.61083 0
M  V30 14867 H 1404.21 -2.78975 -1.02762 0
M  V30 14868 H 1401.74 -1.48559 -0.420653 0
M  V30 14869 H 1403.7 -2.21472 -3.4563 0
M  V30 14870 H 1402.36 -1.18215 -2.91005 0
M  V30 14871 H 1401.55 -3.43127 -3.69161 0
M  V30 14872 H 1401.15 -3.17482 -1.9769 0
M  V30 14873 H 1403.45 -5.00344 -4.56796 0
M  V30 14874 H 1404.39 -6.13115 -3.54254 0
M  V30 14875 H 1404.8 -4.38964 -3.54924 0
M  V30 14876 N 1404.2 0.485086 -1.49949 0
M  V30 14877 C 1405.61 1.06629 -1.53255 0
M  V30 14878 C 1405.96 1.9344 -0.327915 0
M  V30 14879 O 1405.08 2.09011 0.560669 0
M  V30 14880 C 1405.68 1.94053 -2.77721 0
M  V30 14881 C 1404.24 2.47307 -2.83754 0
M  V30 14882 C 1403.38 1.25307 -2.47373 0
M  V30 14883 H 1406.33 0.268297 -1.56416 0
M  V30 14884 H 1406.36 2.78946 -2.58784 0
M  V30 14885 H 1405.87 1.30843 -3.65379 0
M  V30 14886 H 1403.97 3.1411 -2.00414 0
M  V30 14887 H 1404.08 2.83371 -3.86313 0
M  V30 14888 H 1402.45 1.5834 -1.99501 0
M  V30 14889 H 1403.23 0.637815 -3.37323 0
M  V30 14890 N 1405.67 1.39291 0.737279 0
M  V30 14891 C 1406.58 1.40098 1.88175 0
M  V30 14892 C 1407.6 0.296053 1.71463 0
M  V30 14893 O 1408.78 0.537153 1.94105 0
M  V30 14894 C 1405.84 1.24071 3.2374 0
M  V30 14895 C 1404.9 2.44515 3.52861 0
M  V30 14896 C 1404.13 2.29243 4.81958 0
M  V30 14897 O 1404.36 1.2947 5.55512 0
M  V30 14898 O 1403.29 3.18178 5.10927 0
M  V30 14899 H 1407.12 2.36565 1.90449 0
M  V30 14900 H 1404.7 1.20382 0.884786 0
M  V30 14901 H 1406.58 1.17257 4.04758 0
M  V30 14902 H 1405.26 0.30698 3.22241 0
M  V30 14903 H 1404.17 2.56905 2.71939 0
M  V30 14904 H 1405.5 3.36573 3.59137 0
M  V30 14905 N 1407.15 -0.967221 1.24429 0
M  V30 14906 C 1408.38 -1.75053 1.11226 0
M  V30 14907 C 1408.8 -1.85162 -0.331139 0
M  V30 14908 O 1408.16 -1.32288 -1.23974 0
M  V30 14909 C 1408.21 -3.14882 1.75733 0
M  V30 14910 O 1407.31 -3.99371 1.02842 0
M  V30 14911 H 1406.65 -0.538078 0.389061 0
M  V30 14912 H 1409.18 -1.21325 1.64746 0
M  V30 14913 H 1409.19 -3.65402 1.81509 0
M  V30 14914 H 1407.87 -3.06839 2.80754 0
M  V30 14915 H 1406.44 -3.57854 1.04856 0
M  V30 14916 N 1408.63 -1.05812 -1.16797 0
M  V30 14917 C 1410.04 -0.79707 -1.6883 0
M  V30 14918 C 1410.39 0.679967 -1.8404 0
M  V30 14919 O 1409.52 1.5279 -1.53245 0
M  V30 14920 C 1410.11 -1.44029 -3.06661 0
M  V30 14921 C 1408.67 -1.22714 -3.55835 0
M  V30 14922 C 1407.82 -1.51988 -2.31937 0
M  V30 14923 H 1410.77 -1.22224 -1.01227 0
M  V30 14924 H 1410.79 -0.852962 -3.70816 0
M  V30 14925 H 1410.3 -2.51529 -2.95559 0
M  V30 14926 H 1408.4 -0.171671 -3.72204 0
M  V30 14927 H 1408.52 -1.93646 -4.38221 0
M  V30 14928 H 1406.88 -0.940215 -2.36711 0
M  V30 14929 H 1407.66 -2.60635 -2.23438 0
M  V30 14930 N 1410.11 1.33347 -0.840014 0
M  V30 14931 C 1411.36 1.97354 -0.435412 0
M  V30 14932 C 1411.68 1.66866 1.009 0
M  V30 14933 O 1410.95 0.968186 1.70303 0
M  V30 14934 H 1409.53 0.730096 -0.158017 0
M  V30 14935 H 1412.19 1.6269 -1.07322 0
M  V30 14936 H 1411.28 3.0688 -0.56841 0
M  V30 14937 N 1411.59 0.596556 1.45873 0
M  V30 14938 C 1412.5 -0.130832 2.34235 0
M  V30 14939 C 1413.51 -0.871805 1.50584 0
M  V30 14940 O 1414.69 -0.831877 1.83417 0
M  V30 14941 C 1411.75 -1.12279 3.28016 0
M  V30 14942 C 1410.81 -0.384982 4.2757 0
M  V30 14943 C 1410.05 -1.32969 5.1687 0
M  V30 14944 O 1410.27 -2.56696 5.09375 0
M  V30 14945 O 1409.2 -0.832741 5.96112 0
M  V30 14946 H 1413.03 0.59503 2.97814 0
M  V30 14947 H 1410.61 0.356873 1.45075 0
M  V30 14948 H 1412.5 -1.6944 3.85834 0
M  V30 14949 H 1411.17 -1.82988 2.67015 0
M  V30 14950 H 1410.08 0.228816 3.734 0
M  V30 14951 H 1411.41 0.281398 4.91395 0
M  V30 14952 N 1413.06 -1.53996 0.335095 0
M  V30 14953 C 1414.31 -2.01069 -0.264388 0
M  V30 14954 C 1414.64 -1.22271 -1.50876 0
M  V30 14955 O 1413.92 -0.30806 -1.92045 0
M  V30 14956 C 1414.2 -3.55283 -0.587 0
M  V30 14957 C 1414.05 -4.44799 0.668877 0
M  V30 14958 C 1415.37 -4.17238 -1.40003 0
M  V30 14959 H 1412.49 -0.730901 -0.0946202 0
M  V30 14960 H 1415.13 -1.84497 0.453958 0
M  V30 14961 H 1413.28 -3.69536 -1.19899 0
M  V30 14962 H 1414.96 -4.42398 1.30698 0
M  V30 14963 H 1413.2 -4.14005 1.29547 0
M  V30 14964 H 1413.87 -5.5056 0.398523 0
M  V30 14965 H 1416.35 -4.06631 -0.88262 0
M  V30 14966 H 1415.22 -5.2523 -1.59451 0
M  V30 14967 H 1415.48 -3.71309 -2.39962 0
M  V30 14968 N 1414.54 -0.0635198 -1.57472 0
M  V30 14969 C 1415.95 0.470372 -1.80678 0
M  V30 14970 C 1416.3 1.70158 -0.976771 0
M  V30 14971 O 1415.43 2.15502 -0.196893 0
M  V30 14972 C 1416.02 0.860129 -3.277 0
M  V30 14973 C 1414.58 1.33893 -3.51781 0
M  V30 14974 C 1413.73 0.320078 -2.75447 0
M  V30 14975 H 1416.68 -0.289295 -1.56041 0
M  V30 14976 H 1416.7 1.72216 -3.39296 0
M  V30 14977 H 1416.21 -0.0361525 -3.88083 0
M  V30 14978 H 1414.31 2.25399 -2.96692 0
M  V30 14979 H 1414.43 1.32257 -4.60483 0
M  V30 14980 H 1412.79 0.795601 -2.41955 0
M  V30 14981 H 1413.57 -0.568332 -3.38563 0
M  V30 14982 N 1416.02 1.56195 0.209972 0
M  V30 14983 C 1416.93 1.96539 1.28101 0
M  V30 14984 C 1417.95 0.870858 1.50639 0
M  V30 14985 O 1419.12 1.17539 1.63544 0
M  V30 14986 C 1416.19 2.28392 2.60841 0
M  V30 14987 C 1415.25 3.51474 2.46505 0
M  V30 14988 C 1414.48 3.81798 3.72915 0
M  V30 14989 O 1414.7 3.13627 4.76439 0
M  V30 14990 O 1413.64 4.75264 3.69334 0
M  V30 14991 H 1417.46 2.87838 0.968671 0
M  V30 14992 H 1415.05 1.43556 0.413777 0
M  V30 14993 H 1416.93 2.50022 3.39215 0
M  V30 14994 H 1415.61 1.40264 2.91732 0
M  V30 14995 H 1414.51 3.35109 1.66292 0
M  V30 14996 H 1415.85 4.40021 2.2055 0
M  V30 14997 N 1417.5 -0.477127 1.50204 0
M  V30 14998 C 1418.73 -1.25126 1.64399 0
M  V30 14999 C 1419.14 -1.86401 0.32424 0
M  V30 15000 O 1418.48 -1.69711 -0.703119 0
M  V30 15001 C 1418.54 -2.40428 2.67273 0
M  V30 15002 C 1418.2 -1.99837 4.10992 0
M  V30 15003 C 1419.2 -1.52435 4.97051 0
M  V30 15004 C 1416.89 -2.08742 4.56872 0
M  V30 15005 C 1418.88 -1.14472 6.27037 0
M  V30 15006 C 1416.57 -1.70391 5.86865 0
M  V30 15007 C 1417.57 -1.23333 6.71772 0
M  V30 15008 O 1417.25 -0.855111 7.99339 0
M  V30 15009 H 1416.99 -0.384801 0.555791 0
M  V30 15010 H 1419.54 -0.576654 1.97139 0
M  V30 15011 H 1417.77 -3.1104 2.29763 0
M  V30 15012 H 1419.46 -3.02406 2.7075 0
M  V30 15013 H 1420.22 -1.44981 4.62823 0
M  V30 15014 H 1416.1 -2.44319 3.90934 0
M  V30 15015 H 1419.65 -0.776712 6.93263 0
M  V30 15016 H 1415.54 -1.77501 6.20615 0
M  V30 15017 H 1416.31 -0.984492 8.12558 0
M  V30 15018 N 1418.98 -1.3968 -0.729882 0
M  V30 15019 C 1420.39 -1.33184 -1.30839 0
M  V30 15020 C 1420.74 0.00141129 -1.962 0
M  V30 15021 O 1419.86 0.903523 -1.96635 0
M  V30 15022 C 1420.46 -2.41211 -2.37913 0
M  V30 15023 C 1419.02 -2.3822 -2.91424 0
M  V30 15024 C 1418.16 -2.22832 -1.65049 0
M  V30 15025 H 1421.12 -1.49694 -0.527023 0
M  V30 15026 H 1421.14 -2.08294 -3.18424 0
M  V30 15027 H 1420.65 -3.38234 -1.90313 0
M  V30 15028 H 1418.75 -1.4485 -3.43292 0
M  V30 15029 H 1418.86 -3.33271 -3.44191 0
M  V30 15030 H 1417.23 -1.70095 -1.89578 0
M  V30 15031 H 1418.01 -3.21832 -1.19494 0
M  V30 15032 N 1420.45 0.960609 -1.2494 0
M  V30 15033 C 1421.38 2.074 -1.07274 0
M  V30 15034 C 1422.37 1.70092 0.0164365 0
M  V30 15035 O 1423.55 1.93604 -0.151975 0
M  V30 15036 C 1420.68 3.40491 -0.684317 0
M  V30 15037 C 1419.63 3.91784 -1.72306 0
M  V30 15038 C 1418.96 5.21301 -1.18949 0
M  V30 15039 C 1420.26 4.18829 -3.12056 0
M  V30 15040 H 1421.95 2.22438 -2.00404 0
M  V30 15041 H 1419.5 1.06888 -0.964937 0
M  V30 15042 H 1421.45 4.17826 -0.547686 0
M  V30 15043 H 1420.18 3.25374 0.282687 0
M  V30 15044 H 1418.84 3.16613 -1.84802 0
M  V30 15045 H 1418.48 5.02549 -0.212892 0
M  V30 15046 H 1418.18 5.56588 -1.8837 0
M  V30 15047 H 1419.71 6.01238 -1.06513 0
M  V30 15048 H 1421.12 4.86844 -3.02748 0
M  V30 15049 H 1419.52 4.6536 -3.78894 0
M  V30 15050 H 1420.59 3.25333 -3.59564 0
M  V30 15051 N 1421.93 1.0643 1.16234 0
M  V30 15052 C 1423.18 0.78184 1.86798 0
M  V30 15053 C 1423.51 -0.691734 1.81784 0
M  V30 15054 O 1422.76 -1.52271 1.22931 0
M  V30 15055 C 1423.06 1.22348 3.35806 0
M  V30 15056 C 1422.73 2.7014 3.61019 0
M  V30 15057 C 1421.39 3.1051 3.6761 0
M  V30 15058 C 1423.74 3.65582 3.71482 0
M  V30 15059 C 1421.07 4.45159 3.82165 0
M  V30 15060 C 1423.42 4.99981 3.87559 0
M  V30 15061 C 1422.09 5.39986 3.92392 0
M  V30 15062 H 1421.36 0.286096 0.683542 0
M  V30 15063 H 1424 1.33364 1.37427 0
M  V30 15064 H 1422.31 0.590896 3.87319 0
M  V30 15065 H 1424 0.981959 3.88791 0
M  V30 15066 H 1420.59 2.37884 3.56524 0
M  V30 15067 H 1424.78 3.35525 3.657 0
M  V30 15068 H 1420.03 4.75637 3.8416 0
M  V30 15069 H 1424.21 5.73817 3.94597 0
M  V30 15070 H 1421.84 6.44324 4.03423 0
M  V30 15071 N 1423.41 -1.329 0.847073 0
M  V30 15072 C 1424.66 -1.97803 0.447417 0
M  V30 15073 C 1424.99 -1.6691 -0.9927 0
M  V30 15074 O 1424.26 -0.953315 -1.69535 0
M  V30 15075 C 1424.55 -3.53657 0.678135 0
M  V30 15076 C 1424.4 -3.94207 2.16612 0
M  V30 15077 C 1425.72 -4.39909 0.129589 0
M  V30 15078 H 1422.84 -0.718514 0.164034 0
M  V30 15079 H 1425.48 -1.57407 1.0641 0
M  V30 15080 H 1423.63 -3.88198 0.153222 0
M  V30 15081 H 1425.3 -3.69883 2.75653 0
M  V30 15082 H 1423.55 -3.43641 2.64752 0
M  V30 15083 H 1424.22 -5.02791 2.27827 0
M  V30 15084 H 1426.69 -4.12061 0.578371 0
M  V30 15085 H 1425.57 -5.47963 0.320648 0
M  V30 15086 H 1425.83 -4.31391 -0.967167 0
M  V30 15087 N 1424.89 -0.604284 -1.45555 0
M  V30 15088 C 1426.12 -0.104452 -2.06636 0
M  V30 15089 C 1426.53 1.20976 -1.44949 0
M  V30 15090 O 1425.89 1.73616 -0.562468 0
M  V30 15091 C 1425.94 0.0451646 -3.61472 0
M  V30 15092 O 1425.66 -1.21705 -4.20856 0
M  V30 15093 C 1427.16 0.57684 -4.39531 0
M  V30 15094 H 1424.38 -0.067326 -0.667614 0
M  V30 15095 H 1426.93 -0.831079 -1.86851 0
M  V30 15096 H 1425.08 0.722104 -3.80611 0
M  V30 15097 H 1425.49 -1.04462 -5.13992 0
M  V30 15098 H 1426.97 0.630627 -5.48386 0
M  V30 15099 H 1427.45 1.59842 -4.09081 0
M  V30 15100 H 1428.05 -0.0659444 -4.25249 0
M  V30 15101 N 1426.37 1.53816 -0.343257 0
M  V30 15102 C 1427.61 2.01207 0.253721 0
M  V30 15103 C 1427.95 1.23069 1.50225 0
M  V30 15104 O 1427.22 0.31824 1.91879 0
M  V30 15105 C 1427.5 3.5559 0.56815 0
M  V30 15106 C 1427.36 4.44438 -0.692457 0
M  V30 15107 C 1428.68 4.17974 1.37788 0
M  V30 15108 H 1425.79 0.731392 0.0907427 0
M  V30 15109 H 1428.44 1.84254 -0.463736 0
M  V30 15110 H 1426.59 3.70166 1.17937 0
M  V30 15111 H 1428.26 4.41698 -1.33042 0
M  V30 15112 H 1426.5 4.13312 -1.3174 0
M  V30 15113 H 1427.17 5.5034 -0.427715 0
M  V30 15114 H 1429.65 4.07094 0.861043 0
M  V30 15115 H 1428.52 5.26068 1.56663 0
M  V30 15116 H 1428.79 3.72577 2.3799 0
M  V30 15117 N 1427.84 0.0718701 1.57436 0
M  V30 15118 C 1429.09 -0.596052 1.9311 0
M  V30 15119 C 1429.41 -1.70146 0.952652 0
M  V30 15120 O 1428.68 -1.959 0.000812941 0
M  V30 15121 H 1427.26 -0.223165 0.712886 0
M  V30 15122 H 1429.93 0.129744 1.94468 0
M  V30 15123 H 1429.02 -1.02132 2.94916 0
M  V30 15124 N 1429.32 -1.56304 -0.201686 0
M  V30 15125 C 1430.6 -1.71059 -0.948595 0
M  V30 15126 C 1430.98 -0.624794 -2.01642 0
M  V30 15127 O 1430.33 0.365235 -2.25562 0
M  V30 15128 C 1430.54 -3.13136 -1.54101 0
M  V30 15129 C 1431.89 -3.73165 -2.02567 0
M  V30 15130 O 1432.91 -3.16223 -1.63956 0
M  V30 15131 O 1431.77 -4.73084 -2.73594 0
M  V30 15132 H 1428.86 -0.697443 -0.444412 0
M  V30 15133 H 1431.41 -1.68611 -0.191901 0
M  V30 15134 H 1430.18 -3.8363 -0.770968 0
M  V30 15135 H 1429.8 -3.19784 -2.36271 0
M  V30 15136 N 1430.8 0.469154 -1.50455 0
M  V30 15137 C 1432.05 1.22002 -1.62748 0
M  V30 15138 C 1432.4 1.89642 -0.324611 0
M  V30 15139 O 1431.69 1.79218 0.677597 0
M  V30 15140 C 1431.89 2.28673 -2.7467 0
M  V30 15141 C 1431.72 1.71498 -4.15714 0
M  V30 15142 C 1430.49 1.51386 -4.8209 0
M  V30 15143 C 1432.69 1.20886 -4.99891 0
M  V30 15144 N 1430.67 0.894745 -6.07345 0
M  V30 15145 C 1432.04 0.713084 -6.15886 0
M  V30 15146 C 1434.09 1.09759 -4.85652 0
M  V30 15147 C 1432.8 0.117016 -7.19205 0
M  V30 15148 C 1434.82 0.515452 -5.89149 0
M  V30 15149 C 1434.18 0.0300686 -7.04394 0
M  V30 15150 H 1430.28 0.435249 -0.649679 0
M  V30 15151 H 1432.87 0.521706 -1.8758 0
M  V30 15152 H 1431.04 2.95929 -2.51557 0
M  V30 15153 H 1432.77 2.95693 -2.76311 0
M  V30 15154 H 1429.53 1.76665 -4.39416 0
M  V30 15155 H 1429.95 0.603547 -6.74304 0
M  V30 15156 H 1434.59 1.45878 -3.96837 0
M  V30 15157 H 1432.31 -0.256378 -8.07693 0
M  V30 15158 H 1435.9 0.431698 -5.80196 0
M  V30 15159 H 1434.78 -0.413327 -7.8311 0
M  V30 15160 N 1432.28 1.40065 0.722464 0
M  V30 15161 C 1433.21 1.42532 1.84951 0
M  V30 15162 C 1434.19 0.287082 1.6766 0
M  V30 15163 O 1435.37 0.494715 1.87793 0
M  V30 15164 C 1432.5 1.28041 3.22836 0
M  V30 15165 C 1431.46 2.39396 3.54787 0
M  V30 15166 C 1430.78 2.09986 4.91742 0
M  V30 15167 C 1432.08 3.81729 3.56483 0
M  V30 15168 H 1433.78 2.36851 1.83144 0
M  V30 15169 H 1431.32 1.14005 0.879714 0
M  V30 15170 H 1433.28 1.28385 4.01367 0
M  V30 15171 H 1432 0.301947 3.25201 0
M  V30 15172 H 1430.66 2.3829 2.78592 0
M  V30 15173 H 1430.31 1.10547 4.90702 0
M  V30 15174 H 1430.01 2.84586 5.14086 0
M  V30 15175 H 1431.53 2.12 5.72615 0
M  V30 15176 H 1432.95 3.84696 4.25067 0
M  V30 15177 H 1431.34 4.55791 3.90351 0
M  V30 15178 H 1432.41 4.11807 2.56014 0
M  V30 15179 N 1433.76 -0.95397 1.25448 0
M  V30 15180 C 1435.03 -1.67502 1.01008 0
M  V30 15181 C 1435.41 -2.05949 -0.463483 0
M  V30 15182 O 1434.76 -1.77336 -1.44098 0
M  V30 15183 C 1434.97 -2.89679 1.94645 0
M  V30 15184 C 1436.32 -3.61617 2.22526 0
M  V30 15185 O 1437.34 -2.99762 1.92409 0
M  V30 15186 O 1436.2 -4.72998 2.73743 0
M  V30 15187 H 1433.3 -0.732917 0.383094 0
M  V30 15188 H 1435.84 -1.00684 1.36605 0
M  V30 15189 H 1434.62 -2.58063 2.94141 0
M  V30 15190 H 1434.24 -3.64228 1.59449 0
M  V30 15191 N 1435.24 -1.07045 -1.15668 0
M  V30 15192 C 1436.46 -0.812802 -1.9081 0
M  V30 15193 C 1436.89 0.627827 -1.77313 0
M  V30 15194 O 1436.24 1.43836 -1.10368 0
M  V30 15195 C 1436.29 -1.2219 -3.39267 0
M  V30 15196 O 1435.4 -0.365305 -4.10779 0
M  V30 15197 H 1434.74 -0.296385 -0.594182 0
M  V30 15198 H 1437.27 -1.42825 -1.465 0
M  V30 15199 H 1437.28 -1.19674 -3.90054 0
M  V30 15200 H 1435.95 -2.27121 -3.48409 0
M  V30 15201 H 1434.53 -0.452687 -3.70142 0
M  V30 15202 N 1436.71 1.32449 -0.85411 0
M  V30 15203 C 1437.96 1.96537 -0.453451 0
M  V30 15204 C 1438.28 1.68344 0.995982 0
M  V30 15205 O 1439.48 2.26166 1.50204 0
M  V30 15206 C 1437.94 3.51785 -0.759934 0
M  V30 15207 C 1437.55 3.88838 -2.22506 0
M  V30 15208 C 1439.29 4.22347 -0.426973 0
M  V30 15209 C 1437.2 5.37129 -2.47479 0
M  V30 15210 H 1436.13 0.735537 -0.165835 0
M  V30 15211 H 1438.78 1.50851 -1.04481 0
M  V30 15212 H 1437.16 3.95879 -0.0980116 0
M  V30 15213 H 1438.33 3.55756 -2.92873 0
M  V30 15214 H 1436.65 3.31299 -2.52249 0
M  V30 15215 H 1439.25 5.31424 -0.590986 0
M  V30 15216 H 1439.59 4.11485 0.631359 0
M  V30 15217 H 1440.12 3.83835 -1.04477 0
M  V30 15218 H 1436.86 5.53012 -3.51935 0
M  V30 15219 H 1436.38 5.71619 -1.8169 0
M  V30 15220 H 1438.06 6.04204 -2.31401 0
M  V30 15221 N 1438.19 0.611994 1.45232 0
M  V30 15222 C 1439.14 -0.104265 2.30564 0
M  V30 15223 C 1440.11 -0.855676 1.42364 0
M  V30 15224 O 1441.29 -0.840534 1.71288 0
M  V30 15225 C 1438.43 -1.09274 3.27343 0
M  V30 15226 C 1437.55 -0.341747 4.30646 0
M  V30 15227 C 1436.68 -1.32034 5.14529 0
M  V30 15228 C 1435.72 -0.557405 6.09557 0
M  V30 15229 N 1434.86 -1.4855 6.86205 0
M  V30 15230 H 1439.7 0.629396 2.91278 0
M  V30 15231 H 1437.23 0.322177 1.43528 0
M  V30 15232 H 1439.19 -1.67902 3.81923 0
M  V30 15233 H 1437.82 -1.79376 2.68373 0
M  V30 15234 H 1436.87 0.360114 3.78692 0
M  V30 15235 H 1438.19 0.253328 4.98156 0
M  V30 15236 H 1437.34 -1.97854 5.73532 0
M  V30 15237 H 1436.08 -1.94934 4.47048 0
M  V30 15238 H 1435.08 0.114401 5.49681 0
M  V30 15239 H 1436.31 0.0666137 6.79067 0
M  V30 15240 H 1434.26 -2.10207 6.21409 0
M  V30 15241 H 1434.17 -0.943972 7.50083 0
M  V30 15242 H 1435.44 -2.13314 7.49745 0
M  V30 15243 N 1439.67 -1.53632 0.351409 0
M  V30 15244 C 1440.6 -2.21598 -0.544952 0
M  V30 15245 C 1441.58 -1.20279 -1.09415 0
M  V30 15246 O 1442.76 -1.49129 -1.15295 0
M  V30 15247 C 1439.89 -2.89959 -1.75048 0
M  V30 15248 C 1438.94 -4.05232 -1.33002 0
M  V30 15249 S 1439.77 -5.34399 -0.343204 0
M  V30 15250 C 1440.93 -6.06266 -1.55538 0
M  V30 15251 H 1441.16 -2.97282 0.0323028 0
M  V30 15252 H 1438.69 -1.53804 0.13549 0
M  V30 15253 H 1440.65 -3.29961 -2.44204 0
M  V30 15254 H 1439.31 -2.14025 -2.29896 0
M  V30 15255 H 1438.5 -4.52027 -2.22907 0
M  V30 15256 H 1438.11 -3.67046 -0.717841 0
M  V30 15257 H 1440.4 -6.30137 -2.48865 0
M  V30 15258 H 1441.34 -6.9904 -1.12907 0
M  V30 15259 H 1441.75 -5.36526 -1.755 0
M  V30 15260 N 1441.15 -0.0802183 -1.57396 0
M  V30 15261 C 1442.4 0.585802 -1.93424 0
M  V30 15262 C 1442.72 1.69638 -0.961662 0
M  V30 15263 O 1441.99 1.95897 -0.011202 0
M  V30 15264 H 1440.57 0.219382 -0.714059 0
M  V30 15265 H 1443.23 -0.140055 -1.94396 0
M  V30 15266 H 1442.32 1.00566 -2.95454 0
M  V30 15267 N 1442.63 1.56409 0.193394 0
M  V30 15268 C 1443.56 1.91211 1.26377 0
M  V30 15269 C 1444.57 0.802944 1.41622 0
M  V30 15270 O 1445.76 1.08136 1.42017 0
M  V30 15271 C 1442.86 2.13039 2.63567 0
M  V30 15272 C 1442.03 3.44192 2.69909 0
M  V30 15273 C 1441.09 3.55111 3.88307 0
M  V30 15274 O 1440.12 4.2792 3.75331 0
M  V30 15275 N 1441.32 2.88325 5.03834 0
M  V30 15276 H 1444.08 2.83624 0.968383 0
M  V30 15277 H 1441.65 1.57297 0.383302 0
M  V30 15278 H 1443.64 2.1763 3.41202 0
M  V30 15279 H 1442.21 1.27116 2.85588 0
M  V30 15280 H 1441.43 3.51452 1.78535 0
M  V30 15281 H 1442.72 4.30536 2.71139 0
M  V30 15282 H 1442.11 2.29003 5.17276 0
M  V30 15283 H 1440.67 2.98542 5.7941 0
M  V30 15284 N 1444.1 -0.461169 1.50702 0
M  V30 15285 C 1445.33 -1.23375 1.65717 0
M  V30 15286 C 1445.74 -1.86047 0.343992 0
M  V30 15287 O 1445.08 -1.70447 -0.68508 0
M  V30 15288 C 1445.15 -2.3758 2.69808 0
M  V30 15289 C 1444.81 -1.95467 4.13088 0
M  V30 15290 C 1445.81 -1.47154 4.9864 0
M  V30 15291 C 1443.49 -2.03885 4.5906 0
M  V30 15292 C 1445.49 -1.07815 6.28215 0
M  V30 15293 C 1443.17 -1.64157 5.88639 0
M  V30 15294 C 1444.17 -1.16201 6.73043 0
M  V30 15295 O 1443.86 -0.770282 8.00201 0
M  V30 15296 H 1443.59 -0.378885 0.559841 0
M  V30 15297 H 1446.15 -0.555712 1.9774 0
M  V30 15298 H 1444.38 -3.08586 2.33049 0
M  V30 15299 H 1446.06 -2.99517 2.73942 0
M  V30 15300 H 1446.83 -1.40064 4.64335 0
M  V30 15301 H 1442.71 -2.40159 3.93503 0
M  V30 15302 H 1446.25 -0.703139 6.94047 0
M  V30 15303 H 1442.15 -1.70909 6.22463 0
M  V30 15304 H 1442.92 -0.898254 8.13556 0
M  V30 15305 N 1445.58 -1.40446 -0.715026 0
M  V30 15306 C 1446.53 -1.40756 -1.82911 0
M  V30 15307 C 1447.5 -0.264443 -1.63981 0
M  V30 15308 O 1448.68 -0.462589 -1.85107 0
M  V30 15309 C 1445.82 -1.27648 -3.20624 0
M  V30 15310 C 1444.94 -2.5167 -3.51121 0
M  V30 15311 C 1444.07 -2.31 -4.78344 0
M  V30 15312 C 1443.11 -3.50596 -5.01746 0
M  V30 15313 N 1442.25 -3.29117 -6.20183 0
M  V30 15314 H 1447.09 -2.35981 -1.8198 0
M  V30 15315 H 1444.62 -1.17201 -0.888951 0
M  V30 15316 H 1446.58 -1.18054 -4.00149 0
M  V30 15317 H 1445.21 -0.360419 -3.20782 0
M  V30 15318 H 1444.26 -2.7179 -2.66147 0
M  V30 15319 H 1445.58 -3.4069 -3.64324 0
M  V30 15320 H 1444.73 -2.18763 -5.65887 0
M  V30 15321 H 1443.47 -1.39406 -4.67351 0
M  V30 15322 H 1442.47 -3.63309 -4.12658 0
M  V30 15323 H 1443.7 -4.43117 -5.14611 0
M  V30 15324 H 1441.65 -2.40206 -6.1044 0
M  V30 15325 H 1441.56 -4.11702 -6.34064 0
M  V30 15326 H 1442.83 -3.20614 -7.10512 0
M  V30 15327 N 1447.06 0.947303 -1.25952 0
M  V30 15328 C 1448.01 2.06642 -1.06779 0
M  V30 15329 C 1449 1.694 0.00348362 0
M  V30 15330 O 1450.21 1.79351 -0.152715 0
M  V30 15331 H 1446.58 0.676499 -0.32841 0
M  V30 15332 H 1448.55 2.19968 -2.01635 0
M  V30 15333 C 1447.3 3.40353 -0.711015 0
M  V30 15334 H 1446.63 3.69483 -1.52718 0
M  V30 15335 H 1448.07 4.19493 -0.616606 0
M  V30 15336 C 1446.52 3.3181 0.58344 0
M  V30 15337 O 1447.05 3.67431 1.6235 0
M  V30 15338 N 1445.26 2.84919 0.571797 0
M  V30 15339 H 1444.81 2.56128 -0.274962 0
M  V30 15340 H 1444.77 2.79586 1.43803 0
M  V30 15341 N 1448.54 1.07657 1.15099 0
M  V30 15342 C 1449.49 0.694043 2.22004 0
M  V30 15343 C 1450.48 -0.296607 1.66783 0
M  V30 15344 O 1451.69 -0.159989 1.79288 0
M  V30 15345 H 1448.06 0.206374 0.723128 0
M  V30 15346 H 1450.03 1.60523 2.51545 0
M  V30 15347 C 1448.78 0.111245 3.47522 0
M  V30 15348 H 1448.1 0.864677 3.90338 0
M  V30 15349 H 1449.54 -0.118705 4.23834 0
M  V30 15350 C 1448 -1.14889 3.16705 0
M  V30 15351 O 1448.53 -2.2349 3.33789 0
M  V30 15352 N 1446.74 -1.05627 2.70724 0
M  V30 15353 H 1446.29 -0.172463 2.57022 0
M  V30 15354 H 1446.24 -1.9002 2.50479 0
M  V30 15355 N 1450.02 -1.31994 0.861122 0
M  V30 15356 C 1451.26 -1.97025 0.467678 0
M  V30 15357 C 1451.59 -1.68116 -0.978129 0
M  V30 15358 O 1450.85 -0.965342 -1.70234 0
M  V30 15359 C 1451.15 -3.51232 0.661135 0
M  V30 15360 C 1450.81 -4.00142 2.07839 0
M  V30 15361 C 1449.47 -4.1321 2.466 0
M  V30 15362 C 1451.83 -4.25986 3.00309 0
M  V30 15363 C 1449.15 -4.49467 3.7709 0
M  V30 15364 C 1451.51 -4.63704 4.30304 0
M  V30 15365 C 1450.17 -4.74978 4.68991 0
M  V30 15366 H 1449.44 -0.720967 0.171136 0
M  V30 15367 H 1452.09 -1.57285 1.09242 0
M  V30 15368 H 1450.39 -3.91772 -0.0467947 0
M  V30 15369 H 1452.09 -3.99584 0.336669 0
M  V30 15370 H 1448.68 -3.90461 1.76743 0
M  V30 15371 H 1452.86 -4.15393 2.71592 0
M  V30 15372 H 1448.12 -4.56391 4.06838 0
M  V30 15373 H 1452.29 -4.82654 5.02014 0
M  V30 15374 H 1449.92 -5.02828 5.70147 0
M  V30 15375 N 1451.49 -0.619688 -1.44906 0
M  V30 15376 C 1452.74 -0.11981 -2.02446 0
M  V30 15377 C 1453.07 1.2509 -1.48546 0
M  V30 15378 O 1452.35 1.82781 -0.664942 0
M  V30 15379 C 1452.63 -0.0940205 -3.59977 0
M  V30 15380 C 1452.48 -1.49626 -4.24184 0
M  V30 15381 C 1453.8 0.58748 -4.36161 0
M  V30 15382 H 1450.92 -0.0450119 -0.735624 0
M  V30 15383 H 1453.56 -0.793975 -1.72615 0
M  V30 15384 H 1451.71 0.480073 -3.85522 0
M  V30 15385 H 1453.39 -2.11836 -4.09784 0
M  V30 15386 H 1451.63 -2.05348 -3.82119 0
M  V30 15387 H 1452.3 -1.43035 -5.33146 0
M  V30 15388 H 1454.78 0.0993863 -4.15981 0
M  V30 15389 H 1453.65 0.574672 -5.45883 0
M  V30 15390 H 1453.91 1.65579 -4.09922 0
M  V30 15391 N 1452.97 1.53444 -0.359552 0
M  V30 15392 C 1453.94 2.24173 0.477412 0
M  V30 15393 C 1454.94 1.24747 1.01464 0
M  V30 15394 O 1456.13 1.49069 0.901343 0
M  V30 15395 C 1453.26 2.9738 1.66667 0
M  V30 15396 H 1454.45 2.99566 -0.141407 0
M  V30 15397 H 1452 1.55904 -0.111143 0
M  V30 15398 H 1452.74 2.26214 2.32374 0
M  V30 15399 H 1452.52 3.70325 1.28848 0
M  V30 15400 H 1454.01 3.51165 2.25994 0
M  V30 15401 N 1454.45 0.0885642 1.57351 0
M  V30 15402 C 1455.41 -0.858178 2.12528 0
M  V30 15403 C 1456.41 -1.21522 1.05304 0
M  V30 15404 O 1457.6 -1.14573 1.3122 0
M  V30 15405 C 1454.74 -2.15619 2.64048 0
M  V30 15406 H 1455.93 -0.37918 2.97493 0
M  V30 15407 H 1453.48 -0.160354 1.55475 0
M  V30 15408 H 1454.22 -2.68018 1.82584 0
M  V30 15409 H 1454 -1.90995 3.42437 0
M  V30 15410 H 1455.49 -2.83359 3.06753 0
M  V30 15411 N 1455.93 -1.56509 -0.185096 0
M  V30 15412 C 1457.18 -1.80848 -0.902139 0
M  V30 15413 C 1457.5 -0.663295 -1.83372 0
M  V30 15414 O 1456.77 0.317754 -1.93306 0
M  V30 15415 H 1455.35 -0.667108 -0.336119 0
M  V30 15416 H 1458.01 -1.93989 -0.188211 0
M  V30 15417 H 1457.11 -2.74383 -1.48729 0
M  V30 15418 N 1457.41 0.45317 -1.50944 0
M  V30 15419 C 1458.65 1.20389 -1.62827 0
M  V30 15420 C 1458.98 1.91559 -0.336982 0
M  V30 15421 O 1458.24 1.83574 0.678153 0
M  V30 15422 C 1458.54 2.25747 -2.7708 0
M  V30 15423 C 1458.2 1.71703 -4.16928 0
M  V30 15424 C 1456.86 1.56686 -4.54976 0
M  V30 15425 C 1459.22 1.31804 -5.04259 0
M  V30 15426 C 1456.54 1.0022 -5.78077 0
M  V30 15427 C 1458.9 0.767738 -6.27924 0
M  V30 15428 C 1457.56 0.604341 -6.64759 0
M  V30 15429 H 1456.83 0.440536 -0.595827 0
M  V30 15430 H 1459.48 0.497234 -1.84932 0
M  V30 15431 H 1457.78 3.0239 -2.49134 0
M  V30 15432 H 1459.48 2.83625 -2.83475 0
M  V30 15433 H 1456.07 1.84364 -3.86921 0
M  V30 15434 H 1460.25 1.42233 -4.75482 0
M  V30 15435 H 1455.51 0.863228 -6.05275 0
M  V30 15436 H 1459.68 0.449994 -6.94945 0
M  V30 15437 H 1457.31 0.164663 -7.60022 0
M  V30 15438 N 1458.88 1.40823 0.707568 0
M  V30 15439 C 1460.11 1.42866 1.49656 0
M  V30 15440 C 1460.53 0.0305663 1.88775 0
M  V30 15441 O 1459.88 -0.947376 1.55984 0
M  V30 15442 C 1459.94 2.32661 2.76679 0
M  V30 15443 O 1459.66 3.67028 2.39211 0
M  V30 15444 C 1461.16 2.4338 3.70514 0
M  V30 15445 H 1458.38 0.487009 0.461588 0
M  V30 15446 H 1460.92 1.84969 0.872167 0
M  V30 15447 H 1459.08 1.93898 3.35384 0
M  V30 15448 H 1459.49 4.14799 3.21002 0
M  V30 15449 H 1460.96 3.10401 4.56459 0
M  V30 15450 H 1461.44 1.46132 4.14176 0
M  V30 15451 H 1462.05 2.82728 3.17718 0
M  V30 15452 N 1460.36 -0.94061 1.26453 0
M  V30 15453 C 1461.59 -1.72123 1.1481 0
M  V30 15454 C 1462.01 -1.86456 -0.296604 0
M  V30 15455 O 1461.36 -1.37234 -1.20304 0
M  V30 15456 C 1461.41 -3.1277 1.81266 0
M  V30 15457 O 1461.13 -2.99122 3.2009 0
M  V30 15458 C 1462.64 -4.07045 1.75584 0
M  V30 15459 H 1459.86 -0.538908 0.399774 0
M  V30 15460 H 1462.4 -1.17913 1.67083 0
M  V30 15461 H 1460.55 -3.6388 1.32928 0
M  V30 15462 H 1460.97 -3.87946 3.52984 0
M  V30 15463 H 1462.44 -5.03292 2.26719 0
M  V30 15464 H 1462.92 -4.33217 0.722466 0
M  V30 15465 H 1463.53 -3.61855 2.23475 0
M  V30 15466 N 1461.84 -1.08266 -1.14527 0
M  V30 15467 C 1463.09 -0.811459 -1.85531 0
M  V30 15468 C 1463.42 0.662726 -1.82861 0
M  V30 15469 O 1462.67 1.50296 -1.25338 0
M  V30 15470 C 1462.97 -1.27675 -3.33817 0
M  V30 15471 C 1462.64 -2.7585 -3.56676 0
M  V30 15472 C 1461.3 -3.16319 -3.62623 0
M  V30 15473 C 1463.65 -3.71446 -3.65619 0
M  V30 15474 C 1460.98 -4.51183 -3.75035 0
M  V30 15475 C 1463.33 -5.06083 -3.79556 0
M  V30 15476 C 1461.99 -5.4616 -3.83752 0
M  V30 15477 H 1461.26 -0.296934 -0.678904 0
M  V30 15478 H 1463.91 -1.35533 -1.35288 0
M  V30 15479 H 1462.22 -0.65244 -3.86329 0
M  V30 15480 H 1463.91 -1.04369 -3.8718 0
M  V30 15481 H 1460.5 -2.43526 -3.52694 0
M  V30 15482 H 1464.69 -3.41301 -3.60316 0
M  V30 15483 H 1459.94 -4.81689 -3.76545 0
M  V30 15484 H 1464.12 -5.80022 -3.85418 0
M  V30 15485 H 1461.74 -6.50661 -3.93121 0
M  V30 15486 N 1463.32 1.31536 -0.86811 0
M  V30 15487 C 1464.6 1.9149 -0.398866 0
M  V30 15488 C 1464.98 1.79008 1.1189 0
M  V30 15489 O 1464.32 1.19659 1.94664 0
M  V30 15490 C 1464.53 3.37771 -0.878173 0
M  V30 15491 C 1465.88 4.14882 -0.903216 0
M  V30 15492 O 1466.91 3.46545 -0.823703 0
M  V30 15493 O 1465.77 5.36936 -1.01794 0
M  V30 15494 H 1462.86 0.818398 -0.118971 0
M  V30 15495 H 1465.41 1.40216 -0.955899 0
M  V30 15496 H 1464.18 3.40861 -1.9217 0
M  V30 15497 H 1463.8 3.96472 -0.299346 0
M  V30 15498 N 1464.8 0.627364 1.44575 0
M  V30 15499 C 1465.73 -0.066735 2.33405 0
M  V30 15500 C 1466.71 -0.838666 1.47988 0
M  V30 15501 O 1467.89 -0.805296 1.76716 0
M  V30 15502 C 1465.02 -1.05148 3.31 0
M  V30 15503 C 1463.98 -0.391433 4.26206 0
M  V30 15504 C 1463.3 -1.48581 5.13642 0
M  V30 15505 C 1464.6 0.699942 5.17589 0
M  V30 15506 H 1466.3 0.675029 2.91691 0
M  V30 15507 H 1463.84 0.326066 1.4026 0
M  V30 15508 H 1465.8 -1.54576 3.92026 0
M  V30 15509 H 1464.52 -1.82408 2.70915 0
M  V30 15510 H 1463.18 0.0821694 3.66508 0
M  V30 15511 H 1462.83 -2.2492 4.49911 0
M  V30 15512 H 1462.53 -1.04957 5.7815 0
M  V30 15513 H 1464.05 -1.98198 5.77538 0
M  V30 15514 H 1465.47 0.288911 5.72572 0
M  V30 15515 H 1463.86 1.0591 5.9068 0
M  V30 15516 H 1464.93 1.5686 4.58828 0
M  V30 15517 N 1466.28 -1.53251 0.367684 0
M  V30 15518 C 1467.52 -2.00469 -0.222481 0
M  V30 15519 C 1467.84 -1.259 -1.49695 0
M  V30 15520 O 1469.04 -1.63717 -2.16585 0
M  V30 15521 C 1467.5 -3.57113 -0.447018 0
M  V30 15522 C 1467.11 -4.40562 0.812946 0
M  V30 15523 C 1468.85 -4.12681 -0.994725 0
M  V30 15524 C 1466.76 -5.88763 0.557877 0
M  V30 15525 H 1465.69 -0.748974 -0.0869144 0
M  V30 15526 H 1468.34 -1.76927 0.48675 0
M  V30 15527 H 1466.72 -3.76818 -1.21756 0
M  V30 15528 H 1467.9 -4.3263 1.58644 0
M  V30 15529 H 1466.21 -3.96108 1.28403 0
M  V30 15530 H 1468.81 -5.2104 -1.20091 0
M  V30 15531 H 1469.15 -3.67408 -1.95748 0
M  V30 15532 H 1469.68 -3.96783 -0.284295 0
M  V30 15533 H 1466.42 -6.38317 1.49102 0
M  V30 15534 H 1465.94 -5.99539 -0.177082 0
M  V30 15535 H 1467.62 -6.46738 0.18419 0
M  V30 15536 N 1467.75 -0.0969077 -1.57302 0
M  V30 15537 C 1468.98 0.578086 -1.99181 0
M  V30 15538 C 1469.4 1.60818 -0.975667 0
M  V30 15539 O 1468.76 1.81215 0.0556054 0
M  V30 15540 C 1468.81 1.20076 -3.40021 0
M  V30 15541 O 1467.91 2.31656 -3.41188 0
M  V30 15542 H 1467.25 0.146506 -0.647636 0
M  V30 15543 H 1469.78 -0.178855 -2.03817 0
M  V30 15544 H 1469.79 1.54162 -3.77754 0
M  V30 15545 H 1468.47 0.446114 -4.135 0
M  V30 15546 H 1467.05 1.99175 -3.15252 0
M  V30 15547 N 1469.23 1.56605 0.176793 0
M  V30 15548 C 1470.65 1.50601 0.528354 0
M  V30 15549 C 1470.85 0.800205 1.8493 0
M  V30 15550 O 1469.9 0.358299 2.49945 0
M  V30 15551 C 1471.22 2.95322 0.566172 0
M  V30 15552 C 1472.76 3.06097 0.653751 0
M  V30 15553 C 1473.24 4.52265 0.722511 0
M  V30 15554 N 1474.73 4.5649 0.785548 0
M  V30 15555 C 1475.47 5.66926 0.859232 0
M  V30 15556 N 1474.96 6.87006 0.894088 0
M  V30 15557 N 1476.75 5.54883 0.897832 0
M  V30 15558 H 1468.91 2.00899 -0.689442 0
M  V30 15559 H 1471.17 0.915011 -0.24791 0
M  V30 15560 H 1470.87 3.50095 -0.33566 0
M  V30 15561 H 1470.75 3.49671 1.41456 0
M  V30 15562 H 1473.14 2.51361 1.54601 0
M  V30 15563 H 1473.22 2.54842 -0.221207 0
M  V30 15564 H 1472.86 5.0763 -0.165469 0
M  V30 15565 H 1472.79 5.01271 1.61353 0
M  V30 15566 H 1475.28 3.70032 0.767117 0
M  V30 15567 H 1475.59 7.66922 0.951333 0
M  V30 15568 H 1473.94 6.89628 0.862457 0
M  V30 15569 H 1477.13 4.5999 0.867564 0
M  V30 15570 H 1477.3 6.40972 0.951795 0
M  V30 15571 N 1470.71 -0.445159 1.51182 0
M  V30 15572 C 1471.64 -1.55943 1.66604 0
M  V30 15573 C 1472.62 -1.54272 0.513703 0
M  V30 15574 O 1473.8 -1.73514 0.736548 0
M  V30 15575 C 1470.93 -2.94528 1.67245 0
M  V30 15576 C 1469.98 -3.14255 2.88351 0
M  V30 15577 S 1470.81 -2.91385 4.49283 0
M  V30 15578 C 1471.97 -4.32265 4.52656 0
M  V30 15579 H 1472.2 -1.42627 2.60854 0
M  V30 15580 H 1469.73 -0.634314 1.40769 0
M  V30 15581 H 1471.69 -3.74414 1.68299 0
M  V30 15582 H 1470.35 -3.05214 0.741856 0
M  V30 15583 H 1469.54 -4.1556 2.85177 0
M  V30 15584 H 1469.15 -2.42182 2.84998 0
M  V30 15585 H 1471.44 -5.25338 4.27816 0
M  V30 15586 H 1472.38 -4.40474 5.54426 0
M  V30 15587 H 1472.79 -4.15555 3.82066 0
M  V30 15588 N 1472.19 -1.41197 -0.700089 0
M  V30 15589 C 1473.41 -1.43856 -1.494 0
M  V30 15590 C 1473.84 -0.0441877 -1.88048 0
M  V30 15591 O 1473.2 0.951503 -1.54325 0
M  V30 15592 C 1473.24 -2.34913 -2.73584 0
M  V30 15593 O 1472.35 -1.80305 -3.70896 0
M  V30 15594 H 1471.69 -0.488412 -0.449833 0
M  V30 15595 H 1474.22 -1.85606 -0.860911 0
M  V30 15596 H 1474.23 -2.50633 -3.21943 0
M  V30 15597 H 1472.9 -3.36229 -2.44791 0
M  V30 15598 H 1471.48 -1.74012 -3.29809 0
M  V30 15599 N 1473.67 0.933891 -1.2695 0
M  V30 15600 C 1474.91 1.67539 -1.1231 0
M  V30 15601 C 1475.23 1.92765 0.331788 0
M  V30 15602 O 1476.43 2.6481 0.598983 0
M  V30 15603 C 1474.89 3.01722 -1.96194 0
M  V30 15604 C 1474.5 2.84216 -3.46302 0
M  V30 15605 C 1476.24 3.79513 -1.90185 0
M  V30 15606 C 1474.15 4.13916 -4.22407 0
M  V30 15607 H 1473.08 0.62839 -0.416704 0
M  V30 15608 H 1475.73 1.03801 -1.5132 0
M  V30 15609 H 1474.11 3.66482 -1.50023 0
M  V30 15610 H 1475.29 2.28261 -4.00292 0
M  V30 15611 H 1473.6 2.1986 -3.53625 0
M  V30 15612 H 1476.2 4.75615 -2.44325 0
M  V30 15613 H 1476.54 4.07019 -0.874129 0
M  V30 15614 H 1477.07 3.21539 -2.34217 0
M  V30 15615 H 1473.81 3.91591 -5.25677 0
M  V30 15616 H 1473.33 4.69558 -3.73196 0
M  V30 15617 H 1475.01 4.82322 -4.31248 0
M  V30 15618 N 1475.14 1.08871 1.13951 0
M  V30 15619 C 1476.42 0.73388 1.81311 0
M  V30 15620 C 1476.8 -0.781824 1.96089 0
M  V30 15621 O 1476.15 -1.70211 1.52448 0
M  V30 15622 C 1476.36 1.46631 3.16702 0
M  V30 15623 C 1477.71 1.62843 3.92132 0
M  V30 15624 O 1478.73 1.42836 3.26307 0
M  V30 15625 O 1477.59 1.95893 5.10185 0
M  V30 15626 H 1474.68 0.262976 0.784074 0
M  V30 15627 H 1477.23 1.19057 1.20927 0
M  V30 15628 H 1476 2.49863 3.01138 0
M  V30 15629 H 1475.62 1.00141 3.84782 0
M  V30 15630 N 1476.62 -1.31073 0.875073 0
M  V30 15631 C 1477.9 -1.91276 0.409015 0
M  V30 15632 C 1478.28 -1.79599 -1.10939 0
M  V30 15633 O 1477.63 -1.2069 -1.94026 0
M  V30 15634 C 1477.84 -3.373 0.896074 0
M  V30 15635 C 1479.18 -4.14397 0.925205 0
M  V30 15636 O 1480.21 -3.46104 0.842069 0
M  V30 15637 O 1479.07 -5.36389 1.0464 0
M  V30 15638 H 1476.16 -0.817755 0.12331 0
M  V30 15639 H 1478.71 -1.39708 0.963322 0
M  V30 15640 H 1477.48 -3.39837 1.93975 0
M  V30 15641 H 1477.1 -3.96307 0.320367 0
M  V30 15642 N 1478.1 -0.635022 -1.4424 0
M  V30 15643 C 1479.35 -0.138497 -2.01224 0
M  V30 15644 C 1479.66 1.2485 -1.50571 0
M  V30 15645 O 1480.87 1.83926 -1.99709 0
M  V30 15646 C 1479.32 -0.196836 -3.59361 0
M  V30 15647 C 1478.93 -1.58539 -4.1901 0
M  V30 15648 C 1480.68 0.243025 -4.23804 0
M  V30 15649 C 1478.58 -1.59864 -5.69384 0
M  V30 15650 H 1477.51 -0.0480117 -0.75247 0
M  V30 15651 H 1480.16 -0.794391 -1.65414 0
M  V30 15652 H 1478.55 0.526231 -3.92488 0
M  V30 15653 H 1479.72 -2.33236 -3.97414 0
M  V30 15654 H 1478.04 -1.96967 -3.66869 0
M  V30 15655 H 1480.63 0.252717 -5.34102 0
M  V30 15656 H 1480.98 1.27107 -3.96421 0
M  V30 15657 H 1481.51 -0.427678 -3.95494 0
M  V30 15658 H 1478.25 -2.60518 -6.01507 0
M  V30 15659 H 1477.77 -0.894664 -5.9309 0
M  V30 15660 H 1479.45 -1.3343 -6.33092 0
M  V30 15661 N 1479.58 1.53054 -0.375806 0
M  V30 15662 C 1480.99 1.5958 -0.0251765 0
M  V30 15663 C 1481.19 1.39047 1.45836 0
M  V30 15664 O 1480.25 1.20073 2.22123 0
M  V30 15665 C 1481.56 2.96676 -0.490274 0
M  V30 15666 C 1483.11 3.09815 -0.44537 0
M  V30 15667 C 1483.59 4.4934 -0.886442 0
M  V30 15668 N 1485.08 4.55484 -0.84191 0
M  V30 15669 C 1485.81 5.61652 -1.15476 0
M  V30 15670 N 1485.31 6.75526 -1.53741 0
M  V30 15671 N 1487.1 5.51688 -1.07689 0
M  V30 15672 H 1479.25 1.64651 -1.34178 0
M  V30 15673 H 1481.52 0.77278 -0.549104 0
M  V30 15674 H 1481.22 3.16874 -1.52589 0
M  V30 15675 H 1481.1 3.77016 0.11776 0
M  V30 15676 H 1483.48 2.89321 0.581138 0
M  V30 15677 H 1483.56 2.3146 -1.08903 0
M  V30 15678 H 1483.21 4.70573 -1.91111 0
M  V30 15679 H 1483.14 5.26141 -0.219925 0
M  V30 15680 H 1485.63 3.73725 -0.56015 0
M  V30 15681 H 1485.94 7.52489 -1.76012 0
M  V30 15682 H 1484.29 6.76892 -1.57616 0
M  V30 15683 H 1487.48 4.61605 -0.777062 0
M  V30 15684 H 1487.65 6.34329 -1.32403 0
M  V30 15685 N 1481.06 0.105248 1.57248 0
M  V30 15686 C 1482.47 -0.251385 1.57608 0
M  V30 15687 C 1482.67 -1.677 1.11709 0
M  V30 15688 O 1481.73 -2.39552 0.798182 0
M  V30 15689 C 1483.04 -0.0305755 3.00684 0
M  V30 15690 C 1484.59 -0.0975409 3.12848 0
M  V30 15691 C 1485.06 0.0954024 4.57901 0
M  V30 15692 N 1486.56 0.040908 4.63182 0
M  V30 15693 C 1487.29 0.165298 5.73162 0
M  V30 15694 N 1486.79 0.345091 6.9194 0
M  V30 15695 N 1488.58 0.105847 5.62 0
M  V30 15696 H 1480.73 1.03658 1.85388 0
M  V30 15697 H 1482.99 0.407074 0.856151 0
M  V30 15698 H 1482.7 0.954461 3.38501 0
M  V30 15699 H 1482.57 -0.768477 3.69289 0
M  V30 15700 H 1484.96 -1.07309 2.74898 0
M  V30 15701 H 1485.04 0.672017 2.46815 0
M  V30 15702 H 1484.69 1.06786 4.96547 0
M  V30 15703 H 1484.62 -0.693974 5.22007 0
M  V30 15704 H 1487.11 -0.0951009 3.7778 0
M  V30 15705 H 1487.42 0.431243 7.71596 0
M  V30 15706 H 1485.76 0.38089 6.93955 0
M  V30 15707 H 1488.96 -0.0335544 4.68088 0
M  V30 15708 H 1489.13 0.206235 6.47672 0
M  V30 15709 N 1482.53 -1.56697 -0.168486 0
M  V30 15710 C 1483.78 -1.81346 -0.882973 0
M  V30 15711 C 1484.1 -0.682975 -1.83289 0
M  V30 15712 O 1485.3 -0.814479 -2.58995 0
M  V30 15713 C 1483.76 -3.21345 -1.62066 0
M  V30 15714 C 1483.37 -4.4227 -0.714241 0
M  V30 15715 C 1485.11 -3.55285 -2.32321 0
M  V30 15716 C 1483.02 -5.7329 -1.45233 0
M  V30 15717 H 1481.95 -0.676254 -0.333461 0
M  V30 15718 H 1484.6 -1.82996 -0.135871 0
M  V30 15719 H 1482.98 -3.1402 -2.41262 0
M  V30 15720 H 1484.15 -4.60782 0.0409556 0
M  V30 15721 H 1482.47 -4.16224 -0.121205 0
M  V30 15722 H 1485.07 -4.50421 -2.88141 0
M  V30 15723 H 1485.41 -2.80301 -3.07793 0
M  V30 15724 H 1485.94 -3.64176 -1.60066 0
M  V30 15725 H 1482.68 -6.51311 -0.739869 0
M  V30 15726 H 1482.2 -5.58751 -2.18077 0
M  V30 15727 H 1483.88 -6.15343 -1.99905 0
M  V30 15728 N 1484.01 0.437135 -1.51416 0
M  V30 15729 C 1485.26 1.18421 -1.63771 0
M  V30 15730 C 1485.58 1.91718 -0.356282 0
M  V30 15731 O 1484.85 1.85566 0.627863 0
M  V30 15732 H 1483.43 0.440125 -0.603572 0
M  V30 15733 H 1486.09 0.501155 -1.88347 0
M  V30 15734 H 1485.19 1.91367 -2.46546 0
M  V30 15735 N 1485.49 1.41566 0.692592 0
M  V30 15736 C 1486.74 1.41292 1.4548 0
M  V30 15737 C 1487.07 0.0229093 1.94186 0
M  V30 15738 O 1486.34 -0.949849 1.6973 0
M  V30 15739 C 1486.63 2.42225 2.66457 0
M  V30 15740 C 1486.48 3.90345 2.23496 0
M  V30 15741 C 1487.8 2.40374 3.68658 0
M  V30 15742 H 1484.92 0.51453 0.527663 0
M  V30 15743 H 1487.56 1.72862 0.788598 0
M  V30 15744 H 1485.71 2.15435 3.23296 0
M  V30 15745 H 1487.38 4.2805 1.71962 0
M  V30 15746 H 1485.63 4.05068 1.55249 0
M  V30 15747 H 1486.3 4.56518 3.10314 0
M  V30 15748 H 1488.77 2.64156 3.21498 0
M  V30 15749 H 1487.65 3.13004 4.5091 0
M  V30 15750 H 1487.91 1.42338 4.1856 0
M  V30 15751 N 1486.97 -0.927146 1.27443 0
M  V30 15752 C 1488.22 -1.66941 1.13197 0
M  V30 15753 C 1488.53 -1.92939 -0.32156 0
M  V30 15754 O 1489.74 -2.65124 -0.584931 0
M  V30 15755 C 1488.19 -3.00677 1.97791 0
M  V30 15756 C 1487.8 -2.82376 3.47805 0
M  V30 15757 C 1489.54 -3.78499 1.92195 0
M  V30 15758 C 1487.45 -4.1167 4.24596 0
M  V30 15759 H 1486.38 -0.626171 0.420031 0
M  V30 15760 H 1489.03 -1.02997 1.51868 0
M  V30 15761 H 1487.41 -3.65681 1.51965 0
M  V30 15762 H 1488.59 -2.26135 4.01497 0
M  V30 15763 H 1486.9 -2.17982 3.54786 0
M  V30 15764 H 1489.5 -4.74312 2.46844 0
M  V30 15765 H 1489.84 -4.0655 0.895702 0
M  V30 15766 H 1490.38 -3.20292 2.35919 0
M  V30 15767 H 1487.12 -3.88798 5.27747 0
M  V30 15768 H 1486.64 -4.67573 3.75681 0
M  V30 15769 H 1488.31 -4.80028 4.338 0
M  V30 15770 N 1488.45 -1.09474 -1.13372 0
M  V30 15771 C 1489.38 -0.756441 -2.20908 0
M  V30 15772 C 1490.36 0.266113 -1.68006 0
M  V30 15773 O 1491.54 0.134067 -1.93737 0
M  V30 15774 C 1488.67 -0.176733 -3.4685 0
M  V30 15775 C 1487.63 -1.12886 -4.12845 0
M  V30 15776 C 1486.95 -0.410831 -5.33119 0
M  V30 15777 C 1488.25 -2.47148 -4.60125 0
M  V30 15778 H 1489.95 -1.65555 -2.49463 0
M  V30 15779 H 1487.49 -0.797458 -1.19902 0
M  V30 15780 H 1489.45 0.0720151 -4.21338 0
M  V30 15781 H 1488.17 0.757576 -3.17692 0
M  V30 15782 H 1486.83 -1.36289 -3.40325 0
M  V30 15783 H 1486.48 0.527632 -5.00225 0
M  V30 15784 H 1486.18 -1.04567 -5.78221 0
M  V30 15785 H 1487.7 -0.170394 -6.10362 0
M  V30 15786 H 1489.11 -2.27949 -5.26034 0
M  V30 15787 H 1487.51 -3.06425 -5.15969 0
M  V30 15788 H 1488.58 -3.07874 -3.74622 0
M  V30 15789 N 1489.92 1.30607 -0.882012 0
M  V30 15790 C 1491.17 1.95531 -0.495038 0
M  V30 15791 C 1491.49 1.70418 0.96005 0
M  V30 15792 O 1492.69 2.29301 1.45373 0
M  V30 15793 C 1491.15 3.50094 -0.834382 0
M  V30 15794 C 1490.76 3.84031 -2.30704 0
M  V30 15795 C 1492.5 4.21347 -0.516463 0
M  V30 15796 C 1490.41 5.31759 -2.58817 0
M  V30 15797 H 1489.34 0.731854 -0.181399 0
M  V30 15798 H 1491.99 1.486 -1.07658 0
M  V30 15799 H 1490.37 3.95582 -0.181961 0
M  V30 15800 H 1491.54 3.49463 -3.00353 0
M  V30 15801 H 1489.86 3.25874 -2.5922 0
M  V30 15802 H 1492.46 5.30051 -0.703576 0
M  V30 15803 H 1492.8 4.12731 0.543935 0
M  V30 15804 H 1493.33 3.81533 -1.12595 0
M  V30 15805 H 1490.07 5.45422 -3.63586 0
M  V30 15806 H 1489.59 5.67637 -1.93774 0
M  V30 15807 H 1491.27 5.9916 -2.44165 0
M  V30 15808 N 1491.4 0.642663 1.43901 0
M  V30 15809 C 1492.65 0.151478 2.01532 0
M  V30 15810 C 1492.97 -1.23519 1.50891 0
M  V30 15811 O 1492.24 -1.82299 0.717197 0
M  V30 15812 H 1490.82 0.0530091 0.745117 0
M  V30 15813 H 1493.48 0.831958 1.76251 0
M  V30 15814 H 1492.58 0.127995 3.11837 0
M  V30 15815 N 1492.88 -1.52852 0.383918 0
M  V30 15816 C 1493.83 -2.23089 -0.470652 0
M  V30 15817 C 1494.82 -1.23278 -1.03399 0
M  V30 15818 O 1496.01 -1.48641 -0.960985 0
M  V30 15819 C 1493.14 -3.03721 -1.60025 0
M  V30 15820 C 1492.22 -4.10924 -1.04892 0
M  V30 15821 N 1492.61 -5.05312 -0.222083 0
M  V30 15822 C 1490.91 -4.25958 -1.32195 0
M  V30 15823 C 1491.61 -5.81642 0.0818929 0
M  V30 15824 N 1490.59 -5.41101 -0.520629 0
M  V30 15825 H 1494.39 -2.93421 0.167663 0
M  V30 15826 H 1491.9 -1.6125 0.192927 0
M  V30 15827 H 1493.9 -3.52572 -2.22482 0
M  V30 15828 H 1492.56 -2.34924 -2.24145 0
M  V30 15829 H 1493.57 -5.1771 0.140223 0
M  V30 15830 H 1490.25 -3.68389 -1.96457 0
M  V30 15831 H 1491.64 -6.67684 0.751481 0
M  V30 15832 N 1494.36 -0.113586 -1.5719 0
M  V30 15833 C 1495.29 0.868985 -2.12088 0
M  V30 15834 C 1496.3 1.23362 -1.06233 0
M  V30 15835 O 1497.49 1.18352 -1.33623 0
M  V30 15836 C 1494.59 2.17252 -2.60106 0
M  V30 15837 C 1493.77 1.9804 -3.89999 0
M  V30 15838 C 1492.83 3.12073 -4.23671 0
M  V30 15839 O 1491.85 2.85224 -4.92581 0
M  V30 15840 N 1493.05 4.38358 -3.80556 0
M  V30 15841 H 1495.82 0.399996 -2.97019 0
M  V30 15842 H 1493.38 0.0709947 -1.61744 0
M  V30 15843 H 1495.37 2.92523 -2.79665 0
M  V30 15844 H 1493.94 2.55516 -1.80084 0
M  V30 15845 H 1493.16 1.06993 -3.79402 0
M  V30 15846 H 1494.45 1.82502 -4.74943 0
M  V30 15847 H 1493.85 4.63048 -3.24966 0
M  V30 15848 H 1492.4 5.10518 -4.05234 0
M  V30 15849 N 1495.84 1.56784 0.160173 0
M  V30 15850 C 1497.25 1.51153 0.512352 0
M  V30 15851 C 1497.45 0.819774 1.84071 0
M  V30 15852 O 1496.51 0.384789 2.49551 0
M  V30 15853 C 1497.82 2.95906 0.534817 0
M  V30 15854 C 1499.37 3.06773 0.621248 0
M  V30 15855 C 1499.85 4.53006 0.674501 0
M  V30 15856 N 1501.34 4.57298 0.737087 0
M  V30 15857 C 1502.07 5.67805 0.799054 0
M  V30 15858 N 1501.57 6.87916 0.821171 0
M  V30 15859 N 1503.36 5.55804 0.838928 0
M  V30 15860 H 1495.51 2.00157 -0.710712 0
M  V30 15861 H 1497.77 0.91233 -0.257601 0
M  V30 15862 H 1497.48 3.49719 -0.372773 0
M  V30 15863 H 1497.35 3.51152 1.3774 0
M  V30 15864 H 1499.74 2.52987 1.51926 0
M  V30 15865 H 1499.82 2.54593 -0.248224 0
M  V30 15866 H 1499.47 5.07426 -0.219301 0
M  V30 15867 H 1499.4 5.02954 1.56028 0
M  V30 15868 H 1501.89 3.70825 0.727827 0
M  V30 15869 H 1502.2 7.67888 0.869938 0
M  V30 15870 H 1500.55 6.90504 0.789264 0
M  V30 15871 H 1503.74 4.60884 0.818728 0
M  V30 15872 H 1503.91 6.41945 0.883757 0
M  V30 15873 N 1497.32 -0.429099 1.51646 0
M  V30 15874 C 1498.73 -0.766217 1.40005 0
M  V30 15875 C 1498.93 -1.95481 0.488837 0
M  V30 15876 O 1497.99 -2.52445 -0.0529101 0
M  V30 15877 C 1499.3 -1.03886 2.82185 0
M  V30 15878 C 1500.85 -1.1428 2.91392 0
M  V30 15879 C 1501.32 -1.44833 4.34497 0
M  V30 15880 N 1502.81 -1.5174 4.37641 0
M  V30 15881 C 1503.55 -1.76968 5.45408 0
M  V30 15882 N 1503.05 -1.99934 6.63324 0
M  V30 15883 N 1504.84 -1.78819 5.32898 0
M  V30 15884 H 1496.99 0.35358 2.09436 0
M  V30 15885 H 1499.25 0.0958189 0.943145 0
M  V30 15886 H 1498.96 -0.238103 3.50893 0
M  V30 15887 H 1498.83 -1.96434 3.22015 0
M  V30 15888 H 1501.22 -1.93418 2.22876 0
M  V30 15889 H 1501.3 -0.19614 2.55047 0
M  V30 15890 H 1500.94 -0.662201 5.03565 0
M  V30 15891 H 1500.87 -2.40718 4.68361 0
M  V30 15892 H 1503.37 -1.35862 3.52633 0
M  V30 15893 H 1503.68 -2.18578 7.41245 0
M  V30 15894 H 1502.02 -1.97239 6.66425 0
M  V30 15895 H 1505.21 -1.60402 4.3976 0
M  V30 15896 H 1505.39 -1.98142 6.16963 0
M  V30 15897 N 1498.79 -1.41931 -0.685074 0
M  V30 15898 C 1500.04 -1.41147 -1.44085 0
M  V30 15899 C 1500.36 -0.0275793 -1.95581 0
M  V30 15900 O 1501.56 0.102873 -2.71305 0
M  V30 15901 C 1500.02 -2.4823 -2.60596 0
M  V30 15902 C 1499.63 -3.92576 -2.15842 0
M  V30 15903 C 1501.37 -2.56597 -3.38169 0
M  V30 15904 C 1499.28 -4.91189 -3.29374 0
M  V30 15905 H 1498.21 -0.52494 -0.541252 0
M  V30 15906 H 1500.86 -1.67798 -0.7427 0
M  V30 15907 H 1499.24 -2.14727 -3.32729 0
M  V30 15908 H 1500.41 -4.35381 -1.50929 0
M  V30 15909 H 1498.73 -3.87965 -1.51235 0
M  V30 15910 H 1501.33 -3.27453 -4.22704 0
M  V30 15911 H 1501.67 -1.60618 -3.84067 0
M  V30 15912 H 1502.2 -2.89244 -2.73099 0
M  V30 15913 H 1498.94 -5.88609 -2.88477 0
M  V30 15914 H 1498.46 -4.53024 -3.93102 0
M  V30 15915 H 1500.14 -5.12433 -3.94996 0
M  V30 15916 N 1500.27 0.920374 -1.27933 0
M  V30 15917 C 1501.52 1.67131 -1.1487 0
M  V30 15918 C 1501.85 1.91816 0.303343 0
M  V30 15919 O 1501.13 1.51379 1.22125 0
M  V30 15920 C 1501.41 3.03332 -1.94066 0
M  V30 15921 C 1501.26 2.85842 -3.47296 0
M  V30 15922 C 1502.58 4.03773 -1.75087 0
M  V30 15923 H 1499.7 0.606537 -0.418666 0
M  V30 15924 H 1502.34 1.06755 -1.57173 0
M  V30 15925 H 1500.49 3.54869 -1.58116 0
M  V30 15926 H 1502.16 2.41367 -3.93115 0
M  V30 15927 H 1500.41 2.21035 -3.73264 0
M  V30 15928 H 1501.08 3.82535 -3.97958 0
M  V30 15929 H 1503.55 3.61274 -2.06447 0
M  V30 15930 H 1502.43 4.97048 -2.32882 0
M  V30 15931 H 1502.69 4.36512 -0.700665 0
M  V30 15932 N 1501.75 1.10074 1.1279 0
M  V30 15933 C 1502.97 0.863106 1.88587 0
M  V30 15934 C 1503.4 -0.580595 1.78915 0
M  V30 15935 O 1502.76 -1.40859 1.14142 0
M  V30 15936 C 1502.81 1.31142 3.35908 0
M  V30 15937 O 1501.91 0.474088 4.09666 0
M  V30 15938 H 1501.25 0.312034 0.586115 0
M  V30 15939 H 1503.78 1.46659 1.42662 0
M  V30 15940 H 1503.79 1.29974 3.86744 0
M  V30 15941 H 1502.47 2.36279 3.42265 0
M  V30 15942 H 1501.04 0.550665 3.68812 0
M  V30 15943 N 1503.23 -1.30138 0.888926 0
M  V30 15944 C 1504.45 -2.00679 0.523697 0
M  V30 15945 C 1504.88 -1.66167 -0.881479 0
M  V30 15946 O 1504.24 -0.880418 -1.58488 0
M  V30 15947 C 1504.28 -3.53535 0.710284 0
M  V30 15948 O 1503.39 -4.11689 -0.242066 0
M  V30 15949 H 1502.73 -0.631273 0.205888 0
M  V30 15950 H 1505.26 -1.65891 1.19756 0
M  V30 15951 H 1505.27 -4.03402 0.610794 0
M  V30 15952 H 1503.94 -3.77992 1.73478 0
M  V30 15953 H 1502.52 -3.72777 -0.0959393 0
M  V30 15954 N 1504.71 -0.650285 -1.43559 0
M  V30 15955 C 1505.95 -0.159832 -2.01066 0
M  V30 15956 C 1506.27 1.23246 -1.51887 0
M  V30 15957 O 1507.47 1.81797 -2.01648 0
M  V30 15958 C 1505.93 -0.23494 -3.59132 0
M  V30 15959 C 1505.54 -1.62975 -4.17305 0
M  V30 15960 C 1507.28 0.198061 -4.24038 0
M  V30 15961 C 1505.19 -1.65894 -5.67656 0
M  V30 15962 H 1504.12 -0.0559899 -0.751918 0
M  V30 15963 H 1506.77 -0.811891 -1.64562 0
M  V30 15964 H 1505.15 0.484573 -3.93024 0
M  V30 15965 H 1506.33 -2.37438 -3.94918 0
M  V30 15966 H 1504.64 -2.00847 -3.64759 0
M  V30 15967 H 1507.24 0.196054 -5.3434 0
M  V30 15968 H 1507.58 1.22896 -3.97747 0
M  V30 15969 H 1508.11 -0.469602 -3.95018 0
M  V30 15970 H 1504.85 -2.66883 -5.9871 0
M  V30 15971 H 1504.37 -0.957519 -5.92108 0
M  V30 15972 H 1506.05 -1.40137 -6.31641 0
M  V30 15973 N 1506.18 1.52647 -0.392018 0
M  V30 15974 C 1507.12 2.24183 0.476934 0
M  V30 15975 C 1508.13 1.26526 1.02446 0
M  V30 15976 O 1509.32 1.52583 0.92632 0
M  V30 15977 C 1506.42 2.94672 1.67397 0
M  V30 15978 C 1505.59 4.19058 1.25335 0
M  V30 15979 C 1504.65 4.72522 2.31537 0
M  V30 15980 O 1503.68 5.35541 1.92833 0
M  V30 15981 N 1504.88 4.52613 3.63486 0
M  V30 15982 H 1507.64 2.99391 -0.135963 0
M  V30 15983 H 1505.2 1.60419 -0.218514 0
M  V30 15984 H 1507.2 3.27338 2.37975 0
M  V30 15985 H 1505.77 2.22755 2.19315 0
M  V30 15986 H 1504.99 3.92399 0.376352 0
M  V30 15987 H 1506.27 4.99871 0.94901 0
M  V30 15988 H 1505.67 4.02316 3.97692 0
M  V30 15989 H 1504.23 4.89761 4.3009 0
M  V30 15990 N 1507.66 0.121921 1.57128 0
M  V30 15991 C 1508.89 -0.543012 1.99647 0
M  V30 15992 C 1509.31 -1.60038 1.00165 0
M  V30 15993 O 1508.66 -1.82499 -0.00504688 0
M  V30 15994 C 1508.71 -1.1665 3.42162 0
M  V30 15995 O 1508.43 -0.151385 4.37838 0
M  V30 15996 C 1509.94 -1.91447 3.99829 0
M  V30 15997 H 1507.16 -0.143524 0.655471 0
M  V30 15998 H 1509.7 0.20912 2.03428 0
M  V30 15999 H 1507.85 -1.86939 3.39312 0
M  V30 16000 H 1508.27 -0.604773 5.21002 0
M  V30 16001 H 1509.74 -2.30394 5.0162 0
M  V30 16002 H 1510.22 -2.7908 3.39133 0
M  V30 16003 H 1510.83 -1.25913 4.06234 0
M  V30 16004 N 1509.14 -1.56867 -0.151857 0
M  V30 16005 C 1510.07 -2.00932 -1.18949 0
M  V30 16006 C 1511.05 -0.888062 -1.45077 0
M  V30 16007 O 1512.24 -1.15553 -1.56081 0
M  V30 16008 C 1509.37 -2.3858 -2.52383 0
M  V30 16009 C 1508.32 -3.53845 -2.40785 0
M  V30 16010 C 1507.65 -3.77292 -3.78886 0
M  V30 16011 C 1508.95 -4.8667 -1.89605 0
M  V30 16012 H 1510.64 -2.87863 -0.823107 0
M  V30 16013 H 1508.19 -1.38491 -0.394499 0
M  V30 16014 H 1510.14 -2.68006 -3.25193 0
M  V30 16015 H 1508.86 -1.48579 -2.90847 0
M  V30 16016 H 1507.52 -3.24577 -1.70427 0
M  V30 16017 H 1507.17 -2.84551 -4.14777 0
M  V30 16018 H 1506.87 -4.54861 -3.71989 0
M  V30 16019 H 1508.39 -4.09139 -4.53252 0
M  V30 16020 H 1509.81 -5.14846 -2.52204 0
M  V30 16021 H 1508.21 -5.6801 -1.93609 0
M  V30 16022 H 1509.28 -4.77366 -0.851438 0
M  V30 16023 N 1510.62 0.421051 -1.51871 0
M  V30 16024 C 1512.03 0.758781 -1.40409 0
M  V30 16025 C 1512.23 1.95219 -0.499197 0
M  V30 16026 O 1511.29 2.52469 0.0395216 0
M  V30 16027 C 1512.6 1.02388 -2.82731 0
M  V30 16028 C 1514.15 1.12733 -2.91994 0
M  V30 16029 C 1514.63 1.42527 -4.35259 0
M  V30 16030 N 1516.12 1.49417 -4.38439 0
M  V30 16031 C 1516.85 1.74074 -5.46339 0
M  V30 16032 N 1516.35 1.96414 -6.64375 0
M  V30 16033 N 1518.14 1.7599 -5.33839 0
M  V30 16034 H 1510.29 -0.364682 -2.09246 0
M  V30 16035 H 1512.56 -0.100819 -0.942624 0
M  V30 16036 H 1512.26 0.219491 -3.51014 0
M  V30 16037 H 1512.14 1.94724 -3.23052 0
M  V30 16038 H 1514.52 1.92233 -2.23899 0
M  V30 16039 H 1514.6 0.182611 -2.55147 0
M  V30 16040 H 1514.25 0.635486 -5.03909 0
M  V30 16041 H 1514.18 2.38231 -4.69631 0
M  V30 16042 H 1516.67 1.3399 -3.53348 0
M  V30 16043 H 1516.98 2.14644 -7.42393 0
M  V30 16044 H 1515.33 1.93702 -6.67461 0
M  V30 16045 H 1518.52 1.58067 -4.40605 0
M  V30 16046 H 1518.69 1.94868 -6.18005 0
M  V30 16047 N 1512.1 1.42293 0.677538 0
M  V30 16048 C 1513.03 1.48344 1.80323 0
M  V30 16049 C 1514.01 0.340276 1.66662 0
M  V30 16050 O 1515.19 0.554209 1.86124 0
M  V30 16051 C 1512.32 1.38247 3.18599 0
M  V30 16052 C 1511.28 2.50562 3.46991 0
M  V30 16053 C 1510.6 2.25524 4.84812 0
M  V30 16054 C 1511.9 3.92877 3.44158 0
M  V30 16055 H 1513.6 2.42558 1.75516 0
M  V30 16056 H 1511.14 1.16746 0.842999 0
M  V30 16057 H 1513.1 1.41089 3.97079 0
M  V30 16058 H 1511.82 0.405255 3.24076 0
M  V30 16059 H 1510.48 2.47032 2.7087 0
M  V30 16060 H 1510.13 1.26102 4.86937 0
M  V30 16061 H 1509.83 3.00797 5.04772 0
M  V30 16062 H 1511.35 2.3011 5.65581 0
M  V30 16063 H 1512.76 3.98024 4.12613 0
M  V30 16064 H 1511.16 4.6798 3.75653 0
M  V30 16065 H 1512.23 4.19743 2.42783 0
M  V30 16066 N 1513.57 -0.913576 1.28419 0
M  V30 16067 C 1514.52 -2.00257 1.09001 0
M  V30 16068 C 1515.51 -1.60894 0.0136118 0
M  V30 16069 O 1516.7 -1.75449 0.233769 0
M  V30 16070 C 1513.83 -3.34916 0.754073 0
M  V30 16071 C 1512.92 -3.8068 1.86932 0
M  V30 16072 N 1513.31 -3.98814 3.11096 0
M  V30 16073 C 1511.6 -4.09839 1.75921 0
M  V30 16074 C 1512.31 -4.37149 3.83765 0
M  V30 16075 N 1511.28 -4.45417 3.11616 0
M  V30 16076 H 1515.08 -2.12327 2.0321 0
M  V30 16077 H 1512.6 -1.10143 1.19341 0
M  V30 16078 H 1514.59 -4.12617 0.596035 0
M  V30 16079 H 1513.25 -3.24199 -0.180246 0
M  V30 16080 H 1514.27 -3.84729 3.46705 0
M  V30 16081 H 1510.94 -4.07757 0.896679 0
M  V30 16082 H 1512.33 -4.5914 4.9055 0
M  V30 16083 N 1515.05 -1.1067 -1.12204 0
M  V30 16084 C 1515.99 -0.70161 -2.17147 0
M  V30 16085 C 1516.96 0.298272 -1.59841 0
M  V30 16086 O 1518.15 0.196594 -1.87472 0
M  V30 16087 C 1515.27 -0.0356178 -3.38681 0
M  V30 16088 C 1514.32 -0.999363 -4.14626 0
M  V30 16089 S 1515.15 -2.51792 -4.72611 0
M  V30 16090 C 1516.31 -1.8647 -5.97478 0
M  V30 16091 H 1516.54 -1.59058 -2.51173 0
M  V30 16092 H 1514.08 -0.923946 -1.23704 0
M  V30 16093 H 1516.03 0.342303 -4.0907 0
M  V30 16094 H 1514.69 0.830184 -3.0293 0
M  V30 16095 H 1513.89 -0.48067 -5.01703 0
M  V30 16096 H 1513.49 -1.31931 -3.49957 0
M  V30 16097 H 1515.78 -1.19637 -6.66853 0
M  V30 16098 H 1516.72 -2.71513 -6.53977 0
M  V30 16099 H 1517.13 -1.32821 -5.48652 0
M  V30 16100 N 1516.53 1.29665 -0.895815 0
M  V30 16101 C 1517.46 2.26013 -0.315211 0
M  V30 16102 C 1518.44 1.52267 0.570404 0
M  V30 16103 O 1519.63 1.81241 0.518081 0
M  V30 16104 C 1516.75 3.34187 0.551068 0
M  V30 16105 C 1515.8 4.25665 -0.266698 0
M  V30 16106 S 1516.63 5.09056 -1.66198 0
M  V30 16107 C 1517.79 6.20734 -0.80252 0
M  V30 16108 H 1518.02 2.74911 -1.13187 0
M  V30 16109 H 1515.55 1.37827 -0.695913 0
M  V30 16110 H 1517.51 3.96973 1.04511 0
M  V30 16111 H 1516.17 2.83991 1.34193 0
M  V30 16112 H 1515.37 5.02451 0.394869 0
M  V30 16113 H 1514.97 3.6751 -0.69374 0
M  V30 16114 H 1517.26 6.77496 -0.0242039 0
M  V30 16115 H 1518.2 6.91099 -1.54233 0
M  V30 16116 H 1518.61 5.6336 -0.358625 0
M  V30 16117 N 1518.01 0.657889 1.43212 0
M  V30 16118 C 1518.96 -0.0532813 2.27938 0
M  V30 16119 C 1519.94 -0.790207 1.40159 0
M  V30 16120 O 1521.13 -0.671904 1.63751 0
M  V30 16121 C 1518.26 -1.01574 3.27929 0
M  V30 16122 C 1517.35 -0.277042 4.23194 0
M  V30 16123 N 1517.74 0.708959 5.00807 0
M  V30 16124 C 1516.04 -0.517845 4.42983 0
M  V30 16125 C 1516.74 1.14784 5.70263 0
M  V30 16126 N 1515.72 0.481156 5.41466 0
M  V30 16127 H 1519.52 0.703257 2.85362 0
M  V30 16128 H 1517.03 0.485552 1.54971 0
M  V30 16129 H 1519.03 -1.54006 3.87412 0
M  V30 16130 H 1517.69 -1.77229 2.72066 0
M  V30 16131 H 1518.7 1.08786 5.06346 0
M  V30 16132 H 1515.38 -1.2552 3.98185 0
M  V30 16133 H 1516.77 1.96395 6.42556 0
M  V30 16134 N 1519.49 -1.52437 0.400108 0
M  V30 16135 C 1520.74 -2.00896 -0.179909 0
M  V30 16136 C 1521.05 -1.29046 -1.46991 0
M  V30 16137 O 1522.25 -1.68274 -2.13063 0
M  V30 16138 C 1520.71 -3.57981 -0.371169 0
M  V30 16139 C 1520.32 -4.38739 0.906213 0
M  V30 16140 C 1522.06 -4.14698 -0.906965 0
M  V30 16141 C 1519.97 -5.87447 0.682637 0
M  V30 16142 H 1518.9 -0.750649 -0.071008 0
M  V30 16143 H 1521.55 -1.75854 0.524169 0
M  V30 16144 H 1519.93 -3.79315 -1.13736 0
M  V30 16145 H 1521.11 -4.29167 1.67785 0
M  V30 16146 H 1519.42 -3.93296 1.36776 0
M  V30 16147 H 1522.02 -5.2347 -1.09012 0
M  V30 16148 H 1522.36 -3.71477 -1.87911 0
M  V30 16149 H 1522.89 -3.97297 -0.200068 0
M  V30 16150 H 1519.63 -6.35011 1.62608 0
M  V30 16151 H 1519.15 -5.99779 -0.0498716 0
M  V30 16152 H 1520.83 -6.46202 0.321331 0
M  V30 16153 N 1520.96 -0.130252 -1.57061 0
M  V30 16154 C 1521.9 0.846442 -2.12998 0
M  V30 16155 C 1522.91 1.22229 -1.07536 0
M  V30 16156 O 1524.1 1.16928 -1.34871 0
M  V30 16157 C 1521.2 2.14481 -2.62395 0
M  V30 16158 C 1520.37 1.93892 -3.92077 0
M  V30 16159 C 1519.43 3.07562 -4.26957 0
M  V30 16160 O 1518.46 2.79983 -4.95578 0
M  V30 16161 N 1519.66 4.34297 -3.85184 0
M  V30 16162 H 1522.42 0.368471 -2.97426 0
M  V30 16163 H 1519.98 0.0538355 -1.6181 0
M  V30 16164 H 1521.98 2.8954 -2.82752 0
M  V30 16165 H 1520.55 2.53592 -1.82784 0
M  V30 16166 H 1519.77 1.02962 -3.80516 0
M  V30 16167 H 1521.05 1.77454 -4.76852 0
M  V30 16168 H 1520.45 4.59575 -3.29859 0
M  V30 16169 H 1519.01 5.06191 -4.10626 0
M  V30 16170 N 1522.44 1.56945 0.143535 0
M  V30 16171 C 1523.35 2.01795 1.1965 0
M  V30 16172 C 1524.37 0.933965 1.4681 0
M  V30 16173 O 1525.55 1.2437 1.58411 0
M  V30 16174 C 1522.61 2.39249 2.5092 0
M  V30 16175 C 1521.67 3.61613 2.31376 0
M  V30 16176 C 1520.9 3.97271 3.56386 0
M  V30 16177 O 1521.13 3.33552 4.62709 0
M  V30 16178 O 1520.06 4.90501 3.48844 0
M  V30 16179 H 1523.89 2.91687 0.845718 0
M  V30 16180 H 1521.47 1.45182 0.352518 0
M  V30 16181 H 1523.35 2.64184 3.28306 0
M  V30 16182 H 1522.03 1.52511 2.85521 0
M  V30 16183 H 1520.94 3.4186 1.51929 0
M  V30 16184 H 1522.27 4.48979 2.01689 0
M  V30 16185 N 1523.92 -0.412991 1.52093 0
M  V30 16186 C 1524.87 -1.50294 1.75158 0
M  V30 16187 C 1525.84 -1.55119 0.593902 0
M  V30 16188 O 1527.02 -1.71751 0.831032 0
M  V30 16189 C 1524.16 -2.87781 1.90463 0
M  V30 16190 C 1523.28 -2.92295 3.181 0
M  V30 16191 C 1522.41 -4.21056 3.23859 0
M  V30 16192 C 1521.45 -4.1953 4.45714 0
M  V30 16193 N 1520.59 -5.39857 4.48886 0
M  V30 16194 H 1525.43 -1.29927 2.68185 0
M  V30 16195 H 1522.96 -0.630741 1.32891 0
M  V30 16196 H 1524.92 -3.67588 1.9732 0
M  V30 16197 H 1523.55 -3.06651 1.00822 0
M  V30 16198 H 1522.6 -2.05002 3.20434 0
M  V30 16199 H 1523.92 -2.87031 4.0794 0
M  V30 16200 H 1523.07 -5.09253 3.29767 0
M  V30 16201 H 1521.81 -4.2901 2.31952 0
M  V30 16202 H 1520.81 -3.29724 4.39957 0
M  V30 16203 H 1522.04 -4.1322 5.38912 0
M  V30 16204 H 1519.99 -5.48486 3.59861 0
M  V30 16205 H 1519.9 -5.36572 5.32566 0
M  V30 16206 H 1521.17 -6.30018 4.59018 0
M  V30 16207 N 1525.4 -1.4265 -0.669982 0
M  V30 16208 C 1526.65 -1.43093 -1.42719 0
M  V30 16209 C 1526.97 -0.0501228 -1.94936 0
M  V30 16210 O 1526.24 0.912077 -1.73372 0
M  V30 16211 H 1524.82 -0.526785 -0.529628 0
M  V30 16212 H 1527.48 -1.78113 -0.791324 0
M  V30 16213 H 1526.58 -2.13357 -2.27783 0
M  V30 16214 N 1526.88 0.906753 -1.28902 0
M  V30 16215 C 1528.12 1.65658 -1.16464 0
M  V30 16216 C 1528.45 1.92396 0.285342 0
M  V30 16217 O 1527.71 1.52755 1.22329 0
M  V30 16218 C 1528.01 3.0171 -1.91588 0
M  V30 16219 C 1527.67 2.94606 -3.41347 0
M  V30 16220 C 1526.33 2.92376 -3.8219 0
M  V30 16221 C 1528.69 2.84335 -4.3681 0
M  V30 16222 C 1526.01 2.77685 -5.16825 0
M  V30 16223 C 1528.37 2.71184 -5.71526 0
M  V30 16224 C 1527.03 2.67316 -6.11636 0
M  V30 16225 H 1526.3 0.606184 -0.426171 0
M  V30 16226 H 1528.95 1.05592 -1.59758 0
M  V30 16227 H 1527.25 3.65602 -1.40863 0
M  V30 16228 H 1528.95 3.58645 -1.79374 0
M  V30 16229 H 1525.54 2.97141 -3.08878 0
M  V30 16230 H 1529.72 2.85141 -4.06212 0
M  V30 16231 H 1524.98 2.7309 -5.47021 0
M  V30 16232 H 1529.15 2.62206 -6.45152 0
M  V30 16233 H 1526.78 2.5569 -7.1591 0
M  V30 16234 N 1528.36 1.11264 1.11616 0
M  V30 16235 C 1529.31 0.738429 2.15711 0
M  V30 16236 C 1530.29 -0.25663 1.5884 0
M  V30 16237 O 1531.48 -0.0640255 1.76884 0
M  V30 16238 C 1528.61 0.181245 3.42821 0
M  V30 16239 C 1527.7 1.20386 4.06655 0
M  V30 16240 N 1528.09 2.39745 4.45372 0
M  V30 16241 C 1526.39 1.04637 4.33552 0
M  V30 16242 C 1527.09 3.04949 4.95359 0
M  V30 16243 N 1526.06 2.32435 4.91401 0
M  V30 16244 H 1529.86 1.6469 2.43423 0
M  V30 16245 H 1527.38 0.991616 1.28611 0
M  V30 16246 H 1529.38 -0.104966 4.16768 0
M  V30 16247 H 1528.04 -0.721832 3.16575 0
M  V30 16248 H 1529.05 2.77213 4.37462 0
M  V30 16249 H 1525.72 0.19957 4.17023 0
M  V30 16250 H 1527.11 4.06528 5.34962 0
M  V30 16251 N 1529.83 -1.29188 0.902679 0
M  V30 16252 C 1531.08 -1.95727 0.530909 0
M  V30 16253 C 1531.41 -1.70971 -0.921014 0
M  V30 16254 O 1530.69 -1.02436 -1.65339 0
M  V30 16255 C 1530.97 -3.50463 0.827523 0
M  V30 16256 C 1530.82 -3.84665 2.33137 0
M  V30 16257 C 1532.14 -4.38964 0.316053 0
M  V30 16258 H 1529.26 -0.71091 0.194361 0
M  V30 16259 H 1531.9 -1.52752 1.1299 0
M  V30 16260 H 1530.05 -3.87199 0.317732 0
M  V30 16261 H 1531.73 -3.57859 2.91093 0
M  V30 16262 H 1529.97 -3.32102 2.79088 0
M  V30 16263 H 1530.64 -4.92676 2.48947 0
M  V30 16264 H 1533.12 -4.09237 0.75262 0
M  V30 16265 H 1531.99 -5.4611 0.552769 0
M  V30 16266 H 1532.25 -4.35105 -0.783329 0
M  V30 16267 O 1531.35 -0.804804 -1.40018 0
M  V30 16268 H 1532.04 -0.380402 -1.89928 0
M  V30 END ATOM
M  V30 BEGIN BOND
M  V30 END BOND
M  V30 END CTAB
M  END
$$$$
