drugbank_target|P13159 Thymidine kinase (DB03312)
 OpenBabel12092121243D

  0  0  0     0  0            999 V3000
M  V30 BEGIN CTAB
M  V30 COUNTS 5463 5520 0 0 0
M  V30 BEGIN ATOM
M  V30 1 H -0.908 1.98254 -0.117106 0
M  V30 2 N 0 1.576 0 0
M  V30 3 C 0.933 2.03868 1.02534 0
M  V30 4 C 1.911 0.928543 1.3348 0
M  V30 5 O 3.095 1.19667 1.45644 0
M  V30 6 C 0.222 2.43627 2.35294 0
M  V30 7 C -0.732 3.65373 2.2001 0
M  V30 8 S 0.101 5.13292 1.52614 0
M  V30 9 C 1.257 5.56322 2.86805 0
M  V30 10 H 1.49 2.90518 0.631377 0
M  V30 11 H -0.977 1.52953 0.210867 0
M  V30 12 H 0.981 2.67203 3.11629 0
M  V30 13 H -0.358 1.57376 2.7183 0
M  V30 14 H -1.165 3.90944 3.18086 0
M  V30 15 H -1.563 3.418 1.51819 0
M  V30 16 H 0.729 5.58782 3.83104 0
M  V30 17 H 1.672 6.56266 2.65933 0
M  V30 18 H 2.08 4.83886 2.90714 0
M  V30 19 N 1.4781 -0.272755 1.55222 0
M  V30 20 C 2.4411 -1.32041 1.87344 0
M  V30 21 C 3.4411 -1.42342 0.74803 0
M  V30 22 O 4.6311 -1.41488 1.0162 0
M  V30 23 C 1.7631 -2.70173 2.07893 0
M  V30 24 H 2.9561 -1.04789 2.80997 0
M  V30 25 H 0.5091 -0.51083 1.47717 0
M  V30 26 H 1.2441 -3.02605 1.16622 0
M  V30 27 H 1.0291 -2.64082 2.89833 0
M  V30 28 H 2.5191 -3.45869 2.34017 0
M  V30 29 N 2.9562 -1.48159 -0.537278 0
M  V30 30 C 4.1812 -1.59707 -1.32319 0
M  V30 31 C 4.6062 -0.254859 -1.86365 0
M  V30 32 O 3.9642 0.772378 -1.64024 0
M  V30 33 C 4.0122 -2.6412 -2.45505 0
M  V30 34 O 3.1162 -2.20774 -3.48328 0
M  V30 35 H 2.4572 -0.535791 -0.392204 0
M  V30 36 H 4.9872 -1.94092 -0.647268 0
M  V30 37 H 4.9972 -2.85166 -2.91795 0
M  V30 38 H 3.6722 -3.61567 -2.05528 0
M  V30 39 H 2.2492 -2.09911 -3.08207 0
M  V30 40 N 4.4343 0.785586 -1.36625 0
M  V30 41 C 5.6823 1.54057 -1.30808 0
M  V30 42 C 6.0033 1.94683 0.111157 0
M  V30 43 O 5.2733 1.65241 1.05224 0
M  V30 44 H 3.8533 0.571354 -0.481211 0
M  V30 45 H 6.5153 0.935821 -1.70963 0
M  V30 46 H 5.6113 2.44637 -1.93801 0
M  V30 47 N 5.9124 1.20967 1.01018 0
M  V30 48 C 7.1404 1.04956 1.78303 0
M  V30 49 C 7.5554 -0.400915 1.84494 0
M  V30 50 O 6.9124 -1.27826 1.30257 0
M  V30 51 C 6.9634 1.63403 3.22462 0
M  V30 52 O 6.6844 3.02775 3.16637 0
M  V30 53 C 8.1854 1.52432 4.16268 0
M  V30 54 H 5.4054 0.368858 0.560522 0
M  V30 55 H 7.9494 1.60193 1.27116 0
M  V30 56 H 6.1044 1.1227 3.70775 0
M  V30 57 H 6.5184 3.30626 4.07169 0
M  V30 58 H 7.9924 1.98078 5.15237 0
M  V30 59 H 8.4694 0.477875 4.36592 0
M  V30 60 H 9.0754 2.02787 3.73841 0
M  V30 61 N 7.3905 -1.2043 1.01659 0
M  V30 62 C 8.6395 -1.89118 0.701237 0
M  V30 63 C 8.9525 -1.79705 -0.772358 0
M  V30 64 O 10.1585 -2.43528 -1.20026 0
M  V30 65 C 8.6145 -3.39168 1.20388 0
M  V30 66 C 8.2225 -3.57166 2.70438 0
M  V30 67 C 9.9665 -4.1341 0.963953 0
M  V30 68 C 7.8735 -5.01042 3.14183 0
M  V30 69 H 6.8035 -0.708267 0.2586 0
M  V30 70 H 9.4545 -1.36239 1.22927 0
M  V30 71 H 7.8365 -3.91369 0.603824 0
M  V30 72 H 9.0105 -3.15351 3.35992 0
M  V30 73 H 7.3255 -2.96294 2.92572 0
M  V30 74 H 9.9225 -5.19491 1.26621 0
M  V30 75 H 10.2655 -4.16181 -0.099578 0
M  V30 76 H 10.7985 -3.67309 1.52738 0
M  V30 77 H 7.5375 -5.03426 4.19812 0
M  V30 78 H 7.0575 -5.43668 2.53348 0
M  V30 79 H 8.7365 -5.69623 3.0682 0
M  V30 80 N 8.8686 -0.792821 -1.36206 0
M  V30 81 C 10.2796 -0.429513 -1.81692 0
M  V30 82 C 10.6306 1.04695 -1.65932 0
M  V30 83 O 9.7556 1.81256 -1.18218 0
M  V30 84 C 10.3506 -0.772831 -3.29868 0
M  V30 85 C 8.9096 -0.462307 -3.7355 0
M  V30 86 C 8.0566 -1.00569 -2.5842 0
M  V30 87 H 11.0076 -0.985672 -1.24379 0
M  V30 88 H 11.0286 -0.0651928 -3.80444 0
M  V30 89 H 10.5406 -1.84747 -3.41307 0
M  V30 90 H 8.6416 0.604158 -3.67669 0
M  V30 91 H 8.7546 -0.985299 -4.68859 0
M  V30 92 H 7.1186 -0.428734 -2.51066 0
M  V30 93 H 7.9016 -2.08616 -2.72643 0
M  V30 94 N 10.3467 1.47872 -0.545128 0
M  V30 95 C 11.5927 2.02793 -0.0166104 0
M  V30 96 C 11.9257 1.41987 1.32489 0
M  V30 97 O 11.2007 0.571045 1.85928 0
M  V30 98 C 11.4837 3.59989 0.0893294 0
M  V30 99 C 11.3367 4.3125 -1.27841 0
M  V30 100 C 12.6557 4.32606 0.808724 0
M  V30 101 H 9.7747 0.736962 -0.00751035 0
M  V30 102 H 12.4167 1.76433 -0.705085 0
M  V30 103 H 10.5667 3.82579 0.675681 0
M  V30 104 H 12.2387 4.20035 -1.90704 0
M  V30 105 H 10.4817 3.92076 -1.85632 0
M  V30 106 H 11.1527 5.39736 -1.15713 0
M  V30 107 H 13.6287 4.14936 0.310992 0
M  V30 108 H 12.5047 5.42251 0.851782 0
M  V30 109 H 12.7657 4.00963 1.86229 0
M  V30 110 N 11.8248 0.280983 1.55075 0
M  V30 111 C 12.7568 -0.637268 2.20163 0
M  V30 112 C 13.7698 -1.11298 1.18813 0
M  V30 113 O 14.9588 -1.03388 1.4551 0
M  V30 114 C 12.0588 -1.88199 2.81841 0
M  V30 115 C 11.2318 -1.55211 4.08936 0
M  V30 116 C 10.2908 -2.64991 4.54606 0
M  V30 117 O 9.3168 -2.30929 5.2025 0
M  V30 118 N 10.5188 -3.95161 4.25238 0
M  V30 119 H 13.2838 -0.0801694 2.99593 0
M  V30 120 H 10.8448 0.102329 1.61576 0
M  V30 121 H 12.8368 -2.60948 3.09335 0
M  V30 122 H 11.4068 -2.34799 2.06369 0
M  V30 123 H 10.6268 -0.658185 3.88666 0
M  V30 124 H 11.9148 -1.30681 4.91732 0
M  V30 125 H 11.3128 -4.25653 3.72607 0
M  V30 126 H 9.8698 -4.6427 4.5749 0
M  V30 127 N 13.3029 -1.57598 0.00835791 0
M  V30 128 C 14.2509 -2.10078 -0.998508 0
M  V30 129 C 15.2449 -1.02262 -1.35051 0
M  V30 130 O 16.4509 -1.20719 -1.33518 0
M  V30 131 H 12.8259 -0.670903 -0.339696 0
M  V30 132 H 14.7969 -2.93648 -0.530398 0
M  V30 133 C 13.5459 -2.62615 -2.27879 0
M  V30 134 H 12.8689 -3.45213 -2.01662 0
M  V30 135 H 14.3089 -3.03004 -2.96588 0
M  V30 136 C 12.7679 -1.54407 -2.99433 0
M  V30 137 O 13.2979 -0.931812 -3.90743 0
M  V30 138 N 11.5039 -1.2695 -2.61404 0
M  V30 139 H 11.0509 -1.76924 -1.87232 0
M  V30 140 H 11.0089 -0.547704 -3.09593 0
M  V30 141 N 14.781 0.264519 -1.55364 0
M  V30 142 C 15.691 1.34902 -1.91934 0
M  V30 143 C 16.707 1.53595 -0.817593 0
M  V30 144 O 17.883 1.67558 -1.11742 0
M  V30 145 C 14.948 2.68676 -2.19121 0
M  V30 146 C 14.009 2.58657 -3.4263 0
M  V30 147 C 13.242 3.86051 -3.68511 0
M  V30 148 O 13.465 4.87126 -2.96757 0
M  V30 149 O 12.399 3.85744 -4.62045 0
M  V30 150 H 16.225 1.06883 -2.8427 0
M  V30 151 H 13.81 0.463775 -1.42019 0
M  V30 152 H 15.692 3.47759 -2.37995 0
M  V30 153 H 14.367 2.96463 -1.29966 0
M  V30 154 H 13.274 1.7792 -3.29082 0
M  V30 155 H 14.607 2.35818 -4.32031 0
M  V30 156 N 16.2591 1.48442 0.529413 0
M  V30 157 C 17.1691 1.6569 1.66084 0
M  V30 158 C 18.1851 0.539432 1.65427 0
M  V30 159 O 19.3611 0.810572 1.84368 0
M  V30 160 C 16.4261 1.69315 3.02545 0
M  V30 161 C 15.4871 2.92694 3.14052 0
M  V30 162 C 14.7201 2.96137 4.44003 0
M  V30 163 O 14.9431 2.07973 5.31134 0
M  V30 164 O 13.8771 3.88312 4.59888 0
M  V30 165 H 17.7031 2.61483 1.54469 0
M  V30 166 H 15.2881 1.3185 0.702567 0
M  V30 167 H 17.1701 1.74217 3.83701 0
M  V30 168 H 15.8451 0.766966 3.14483 0
M  V30 169 H 14.7521 2.93324 2.32189 0
M  V30 170 H 16.0851 3.84699 3.0703 0
M  V30 171 N 17.7372 -0.778329 1.37039 0
M  V30 172 C 18.9862 -1.53189 1.3121 0
M  V30 173 C 19.2992 -1.95328 -0.103095 0
M  V30 174 O 20.5052 -2.70012 -0.283826 0
M  V30 175 C 18.9612 -2.76591 2.30272 0
M  V30 176 C 18.5692 -2.41577 3.77286 0
M  V30 177 C 20.3132 -3.5455 2.33441 0
M  V30 178 C 18.2202 -3.61441 4.68096 0
M  V30 179 H 17.1502 -0.5751 0.487622 0
M  V30 180 H 19.8012 -0.853101 1.62464 0
M  V30 181 H 18.1832 -3.46326 1.92027 0
M  V30 182 H 19.3572 -1.79668 4.2433 0
M  V30 183 H 17.6722 -1.76806 3.76999 0
M  V30 184 H 20.2692 -4.43628 2.98493 0
M  V30 185 H 20.6122 -3.93936 1.34611 0
M  V30 186 H 21.1452 -2.91805 2.7036 0
M  V30 187 H 17.8842 -3.27142 5.6803 0
M  V30 188 H 17.4042 -4.22478 4.25761 0
M  V30 189 H 19.0832 -4.28335 4.8491 0
M  V30 190 N 19.2153 -1.21501 -1.00376 0
M  V30 191 C 20.4643 -1.02718 -1.73586 0
M  V30 192 C 20.7773 0.439589 -1.90596 0
M  V30 193 O 21.9833 0.746848 -2.61026 0
M  V30 194 C 20.4393 -1.78929 -3.1227 0
M  V30 195 C 20.0473 -3.29783 -3.03228 0
M  V30 196 C 21.7913 -1.68557 -3.89601 0
M  V30 197 C 19.6983 -3.98479 -4.36999 0
M  V30 198 H 18.6283 -0.380733 -0.650814 0
M  V30 199 H 21.2793 -1.45248 -1.1214 0
M  V30 200 H 19.6613 -1.29192 -3.74333 0
M  V30 201 H 20.8353 -3.86832 -2.50395 0
M  V30 202 H 19.1503 -3.40711 -2.39385 0
M  V30 203 H 21.7473 -2.17211 -4.88593 0
M  V30 204 H 22.0903 -0.644021 -4.11288 0
M  V30 205 H 22.6233 -2.15778 -3.34193 0
M  V30 206 H 19.3623 -5.02841 -4.20513 0
M  V30 207 H 18.8823 -3.46219 -4.89788 0
M  V30 208 H 20.5613 -4.03462 -5.05794 0
M  V30 209 N 20.6934 1.19889 -1.02296 0
M  V30 210 C 21.6404 2.22901 -0.598651 0
M  V30 211 C 22.6104 1.61588 0.384521 0
M  V30 212 O 23.7954 1.88697 0.282522 0
M  V30 213 C 20.9354 3.45063 0.0504476 0
M  V30 214 C 20.0484 4.20783 -0.978053 0
M  V30 215 C 19.1834 5.30356 -0.299338 0
M  V30 216 C 18.2224 5.97826 -1.31416 0
M  V30 217 N 17.3594 6.98975 -0.661667 0
M  V30 218 H 22.1994 2.58554 -1.48169 0
M  V30 219 H 19.7364 1.27039 -0.741584 0
M  V30 220 H 21.6944 4.14831 0.443971 0
M  V30 221 H 20.3244 3.10084 0.897097 0
M  V30 222 H 19.3764 3.50018 -1.48969 0
M  V30 223 H 20.6884 4.67109 -1.74958 0
M  V30 224 H 19.8424 6.06516 0.149347 0
M  V30 225 H 18.5814 4.85084 0.504445 0
M  V30 226 H 17.5864 5.20422 -1.77317 0
M  V30 227 H 18.8114 6.45183 -2.11933 0
M  V30 228 H 16.7574 6.55886 0.122132 0
M  V30 229 H 16.6744 7.43461 -1.37117 0
M  V30 230 H 17.9424 7.7914 -0.236785 0
M  V30 231 N 22.1715 0.800033 1.35784 0
M  V30 232 C 23.3965 0.388511 2.03729 0
M  V30 233 C 23.8215 -0.990481 1.5991 0
M  V30 234 O 23.1795 -1.64013 0.772612 0
M  V30 235 C 23.2275 0.4726 3.5749 0
M  V30 236 O 22.3315 -0.51646 4.09153 0
M  V30 237 H 21.6725 0.163271 0.643614 0
M  V30 238 H 24.2025 1.0841 1.73518 0
M  V30 239 H 24.2125 0.34003 4.06581 0
M  V30 240 H 22.8875 1.47848 3.88734 0
M  V30 241 H 21.4645 -0.344673 3.71304 0
M  V30 242 N 23.6496 -1.47581 0.552962 0
M  V30 243 C 24.5816 -2.27997 -0.234533 0
M  V30 244 C 25.5946 -1.36753 -0.883321 0
M  V30 245 O 26.7836 -1.61612 -0.757889 0
M  V30 246 C 23.8836 -3.10879 -1.34935 0
M  V30 247 C 23.0566 -4.30056 -0.798158 0
M  V30 248 C 22.1156 -4.94567 -1.79694 0
M  V30 249 O 21.1416 -5.53087 -1.34474 0
M  V30 250 N 22.3436 -4.88878 -3.13015 0
M  V30 251 H 25.1086 -2.96222 0.455255 0
M  V30 252 H 22.6696 -1.57163 0.388761 0
M  V30 253 H 24.6616 -3.50903 -2.01616 0
M  V30 254 H 23.2316 -2.44924 -1.94244 0
M  V30 255 H 22.4516 -3.94174 0.0453079 0
M  V30 256 H 23.7396 -5.07152 -0.409173 0
M  V30 257 H 23.1376 -4.42526 -3.52402 0
M  V30 258 H 21.6946 -5.32934 -3.75266 0
M  V30 259 N 25.1277 -0.289203 -1.54924 0
M  V30 260 C 26.3737 0.323998 -2.00195 0
M  V30 261 C 26.7067 1.54441 -1.17735 0
M  V30 262 O 25.9817 1.92875 -0.250878 0
M  V30 263 C 26.2647 0.692276 -3.53383 0
M  V30 264 C 26.1177 -0.536457 -4.46589 0
M  V30 265 C 27.4367 1.52335 -4.12895 0
M  V30 266 H 24.5557 0.116289 -0.727768 0
M  V30 267 H 27.1977 -0.398954 -1.85764 0
M  V30 268 H 25.3477 1.30822 -3.65811 0
M  V30 269 H 27.0197 -1.17499 -4.46085 0
M  V30 270 H 25.2627 -1.17192 -4.1767 0
M  V30 271 H 25.9337 -0.234806 -5.515 0
M  V30 272 H 28.4097 1.00302 -4.0383 0
M  V30 273 H 27.2857 1.74982 -5.20262 0
M  V30 274 H 27.5467 2.50886 -3.64018 0
M  V30 275 N 26.6058 1.57591 -0.0167156 0
M  V30 276 C 27.5538 2.10604 0.987353 0
M  V30 277 C 28.5478 1.02977 1.34507 0
M  V30 278 O 29.7538 1.21425 1.32875 0
M  V30 279 H 26.1288 0.672695 0.336134 0
M  V30 280 H 28.0998 2.93925 0.514817 0
M  V30 281 C 26.8488 2.6382 2.26483 0
M  V30 282 H 26.1718 3.46278 1.99829 0
M  V30 283 H 27.6118 3.04573 2.94977 0
M  V30 284 C 26.0708 1.55992 2.9861 0
M  V30 285 O 26.6008 0.952521 3.90243 0
M  V30 286 N 24.8068 1.28335 2.60727 0
M  V30 287 H 24.3538 1.77914 1.86291 0
M  V30 288 H 24.3118 0.564115 3.09298 0
M  V30 289 N 28.0839 -0.256276 1.55502 0
M  V30 290 C 29.3119 -1.00342 1.8094 0
M  V30 291 C 29.7269 -1.79307 0.59114 0
M  V30 292 O 29.0839 -1.77114 -0.440081 0
M  V30 293 C 29.1349 -1.94875 3.04476 0
M  V30 294 O 28.8559 -1.19107 4.21598 0
M  V30 295 C 30.3569 -2.81266 3.42644 0
M  V30 296 H 27.5769 -0.295685 0.602338 0
M  V30 297 H 30.1209 -0.281998 2.02546 0
M  V30 298 H 28.2759 -2.62457 2.84947 0
M  V30 299 H 28.6899 -1.82969 4.91551 0
M  V30 300 H 30.1639 -3.43362 4.32211 0
M  V30 301 H 30.6409 -3.51897 2.62802 0
M  V30 302 H 31.2469 -2.1915 3.64491 0
M  V30 303 N 29.562 -1.4872 -0.521534 0
M  V30 304 C 30.808 -1.574 -1.27879 0
M  V30 305 C 31.141 -0.250817 -1.92573 0
M  V30 306 O 30.416 0.743934 -1.79711 0
M  V30 307 C 30.699 -2.71843 -2.36164 0
M  V30 308 C 30.552 -4.13893 -1.76105 0
M  V30 309 C 31.871 -2.82008 -3.37875 0
M  V30 310 H 28.99 -0.572941 -0.463581 0
M  V30 311 H 31.632 -1.80927 -0.580119 0
M  V30 312 H 29.782 -2.51914 -2.95756 0
M  V30 313 H 31.454 -4.45284 -1.20499 0
M  V30 314 H 29.697 -4.20498 -1.06601 0
M  V30 315 H 30.368 -4.89804 -2.5455 0
M  V30 316 H 32.844 -3.00086 -2.88249 0
M  V30 317 H 31.72 -3.63796 -4.11028 0
M  V30 318 H 31.981 -1.90511 -3.98946 0
M  V30 319 N 31.0401 0.771051 -1.3745 0
M  V30 320 C 32.4561 1.07171 -1.18265 0
M  V30 321 C 32.6561 2.01491 -0.019287 0
M  V30 322 O 31.7121 2.44244 0.640408 0
M  V30 323 C 33.0251 1.66854 -2.50161 0
M  V30 324 C 34.5731 1.79109 -2.56689 0
M  V30 325 C 35.0481 2.42205 -3.88717 0
M  V30 326 N 36.5391 2.49655 -3.90162 0
M  V30 327 C 37.2741 2.9933 -4.8907 0
M  V30 328 N 36.7701 3.49172 -5.98374 0
M  V30 329 N 38.5631 2.9821 -4.76474 0
M  V30 330 H 30.7141 0.144796 -2.11906 0
M  V30 331 H 32.9771 0.126863 -0.939473 0
M  V30 332 H 32.6831 1.05017 -3.35655 0
M  V30 333 H 32.5571 2.6614 -2.673 0
M  V30 334 H 34.9441 2.40077 -1.71601 0
M  V30 335 H 35.0251 0.785757 -2.43433 0
M  V30 336 H 34.6691 1.81875 -4.74219 0
M  V30 337 H 34.5991 3.43345 -3.99276 0
M  V30 338 H 37.0901 2.14383 -3.11205 0
M  V30 339 H 37.4031 3.8548 -6.69795 0
M  V30 340 H 35.7481 3.47275 -6.02018 0
M  V30 341 H 38.9391 2.58572 -3.90203 0
M  V30 342 H 39.1121 3.36613 -5.53711 0
M  V30 343 N 32.5182 1.22032 0.997298 0
M  V30 344 C 33.7672 1.03637 1.73038 0
M  V30 345 C 34.0802 -0.429475 1.90827 0
M  V30 346 O 35.2862 -0.732995 2.61418 0
M  V30 347 C 33.7422 1.80582 3.11317 0
M  V30 348 C 33.3502 3.31387 3.01474 0
M  V30 349 C 35.0942 1.70621 3.88701 0
M  V30 350 C 33.0012 4.00791 4.3488 0
M  V30 351 H 31.9312 0.384179 0.648785 0
M  V30 352 H 34.5822 1.4584 1.11368 0
M  V30 353 H 32.9642 1.31175 3.73643 0
M  V30 354 H 34.1382 3.88155 2.4834 0
M  V30 355 H 32.4532 3.41976 2.37575 0
M  V30 356 H 35.0502 2.19799 4.87434 0
M  V30 357 H 35.3932 0.665823 4.10941 0
M  V30 358 H 35.9262 2.17547 3.33044 0
M  V30 359 H 32.6652 5.05064 4.1784 0
M  V30 360 H 32.1852 3.48811 4.87945 0
M  V30 361 H 33.8642 4.06139 5.03647 0
M  V30 362 N 33.9963 -1.19345 1.0293 0
M  V30 363 C 35.2263 -1.92717 0.744563 0
M  V30 364 C 35.6343 -1.75751 -0.700579 0
M  V30 365 O 34.9773 -1.07703 -1.48815 0
M  V30 366 C 35.0393 -3.44828 1.01657 0
M  V30 367 C 34.7033 -3.85564 2.45335 0
M  V30 368 C 35.7003 -3.90286 3.43472 0
M  V30 369 C 33.3853 -4.1719 2.79746 0
M  V30 370 C 35.3793 -4.26065 4.74075 0
M  V30 371 C 33.0663 -4.52642 4.10559 0
M  V30 372 C 34.0643 -4.57054 5.07534 0
M  V30 373 O 33.7523 -4.91685 6.36004 0
M  V30 374 H 33.4843 -0.618977 0.271742 0
M  V30 375 H 36.0383 -1.52415 1.37691 0
M  V30 376 H 34.2683 -3.85314 0.327084 0
M  V30 377 H 35.9573 -3.99437 0.721427 0
M  V30 378 H 36.7233 -3.66002 3.18225 0
M  V30 379 H 32.6023 -4.1294 2.04943 0
M  V30 380 H 36.1463 -4.29423 5.49765 0
M  V30 381 H 32.0433 -4.76383 4.35579 0
M  V30 382 H 32.8113 -5.09631 6.40483 0
M  V30 383 N 35.4744 -0.807222 -1.35358 0
M  V30 384 C 36.7234 -0.384376 -1.98004 0
M  V30 385 C 37.0364 1.0543 -1.64754 0
M  V30 386 O 38.2424 1.58029 -2.20769 0
M  V30 387 C 36.6984 -0.636326 -3.5423 0
M  V30 388 C 36.3064 -2.08759 -3.96388 0
M  V30 389 C 38.0504 -0.278869 -4.23583 0
M  V30 390 C 35.9574 -2.28525 -5.45463 0
M  V30 391 H 34.8874 -0.139986 -0.740891 0
M  V30 392 H 37.5384 -0.991369 -1.54415 0
M  V30 393 H 35.9204 0.0406256 -3.95979 0
M  V30 394 H 37.0944 -2.8024 -3.6579 0
M  V30 395 H 35.4094 -2.40497 -3.39926 0
M  V30 396 H 38.0064 -0.404599 -5.33167 0
M  V30 397 H 38.3494 0.775012 -4.09022 0
M  V30 398 H 38.8824 -0.909764 -3.87257 0
M  V30 399 H 35.6214 -3.32361 -5.64992 0
M  V30 400 H 35.1414 -1.61569 -5.77629 0
M  V30 401 H 36.8204 -2.10109 -6.11934 0
M  V30 402 N 36.9525 1.47285 -0.560781 0
M  V30 403 C 38.2295 1.9558 0.0277798 0
M  V30 404 C 38.6095 1.5034 1.48192 0
M  V30 405 O 37.9575 0.743882 2.16052 0
M  V30 406 C 38.1675 3.48789 -0.121418 0
M  V30 407 C 39.5155 4.24594 0.0220912 0
M  V30 408 O 40.5395 3.56166 -0.0491439 0
M  V30 409 O 39.3985 5.46217 0.175958 0
M  V30 410 H 36.4925 0.824663 0.0621342 0
M  V30 411 H 39.0385 1.5767 -0.627556 0
M  V30 412 H 37.8105 3.74533 -1.13316 0
M  V30 413 H 37.4335 3.93473 0.571366 0
M  V30 414 N 38.4306 0.297415 1.54768 0
M  V30 415 C 39.6786 -0.312295 1.99673 0
M  V30 416 C 39.9996 -1.54686 1.18732 0
M  V30 417 O 39.2696 -1.93854 0.282382 0
M  V30 418 H 37.8496 -0.118381 0.73756 0
M  V30 419 H 40.5116 0.407915 1.90583 0
M  V30 420 H 39.6076 -0.586813 3.06534 0
M  V30 421 N 39.9087 -1.5758 0.0250728 0
M  V30 422 C 40.8717 -2.08896 -0.943139 0
M  V30 423 C 41.8717 -1.00321 -1.25668 0
M  V30 424 O 43.0617 -1.26495 -1.19769 0
M  V30 425 C 40.1937 -2.55143 -2.26086 0
M  V30 426 H 41.3867 -2.95723 -0.498775 0
M  V30 427 H 38.9397 -1.54703 -0.222888 0
M  V30 428 H 39.6747 -1.71633 -2.75159 0
M  V30 429 H 39.4597 -3.34461 -2.04641 0
M  V30 430 H 40.9497 -2.95083 -2.95492 0
M  V30 431 N 41.3868 0.248026 -1.55636 0
M  V30 432 C 42.6168 0.992367 -1.81206 0
M  V30 433 C 43.0248 1.7949 -0.598324 0
M  V30 434 O 42.3678 1.78292 0.442434 0
M  V30 435 C 42.4298 1.97926 -3.00109 0
M  V30 436 C 42.0938 1.36377 -4.36177 0
M  V30 437 C 43.0908 0.76682 -5.14214 0
M  V30 438 C 40.7758 1.38347 -4.82872 0
M  V30 439 C 42.7698 0.197778 -6.37093 0
M  V30 440 C 40.4568 0.810574 -6.057 0
M  V30 441 C 41.4548 0.218754 -6.8265 0
M  V30 442 O 41.1428 -0.345298 -8.03158 0
M  V30 443 H 40.8748 0.297704 -0.606917 0
M  V30 444 H 43.4288 0.276517 -2.0353 0
M  V30 445 H 41.6588 2.73339 -2.73538 0
M  V30 446 H 43.3478 2.58694 -3.12781 0
M  V30 447 H 44.1138 0.744114 -4.79258 0
M  V30 448 H 39.9928 1.8335 -4.2297 0
M  V30 449 H 43.5368 -0.264788 -6.97097 0
M  V30 450 H 39.4338 0.830604 -6.40134 0
M  V30 451 H 40.2018 -0.237055 -8.18157 0
M  V30 452 N 42.8649 1.48995 0.513639 0
M  V30 453 C 44.1129 1.57531 1.26604 0
M  V30 454 C 44.4339 0.258236 1.93283 0
M  V30 455 O 43.7039 -0.721502 1.8213 0
M  V30 456 H 42.2839 0.580387 0.470276 0
M  V30 457 H 44.9459 1.85552 0.596373 0
M  V30 458 H 44.0419 2.36486 2.03669 0
M  V30 459 N 44.343 -0.763751 1.37857 0
M  V30 460 C 45.592 -1.51789 1.32827 0
M  V30 461 C 45.905 -1.95426 -0.0823719 0
M  V30 462 O 47.111 -2.70298 -0.255172 0
M  V30 463 C 45.567 -2.74133 2.33193 0
M  V30 464 C 45.175 -2.37562 3.79827 0
M  V30 465 C 46.919 -3.52054 2.37188 0
M  V30 466 C 44.826 -3.56456 4.71904 0
M  V30 467 H 43.756 -0.569896 0.493695 0
M  V30 468 H 46.407 -0.835822 1.63359 0
M  V30 469 H 44.789 -3.4427 1.9569 0
M  V30 470 H 45.963 -1.75157 4.26212 0
M  V30 471 H 44.278 -1.72798 3.78853 0
M  V30 472 H 46.875 -4.40437 3.03182 0
M  V30 473 H 47.218 -3.92486 1.38782 0
M  V30 474 H 47.751 -2.88921 2.7344 0
M  V30 475 H 44.49 -3.21099 5.71468 0
M  V30 476 H 44.01 -4.17938 4.30218 0
M  V30 477 H 45.689 -4.23168 4.89426 0
M  V30 478 N 45.8211 -1.22559 -0.990812 0
M  V30 479 C 47.0691 -1.04933 -1.72724 0
M  V30 480 C 47.3901 0.416158 -1.90508 0
M  V30 481 O 46.6601 1.29918 -1.46622 0
M  V30 482 H 45.2401 -0.385296 -0.639965 0
M  V30 483 H 47.9021 -1.54105 -1.19322 0
M  V30 484 H 46.9981 -1.52886 -2.72089 0
M  V30 485 N 47.2992 1.18797 -1.03562 0
M  V30 486 C 48.2462 2.22253 -0.622259 0
M  V30 487 C 49.2162 1.61987 0.36736 0
M  V30 488 O 50.4012 1.88986 0.262492 0
M  V30 489 C 47.5412 3.45097 0.0138462 0
M  V30 490 C 46.6542 4.19722 -1.02263 0
M  V30 491 C 45.7892 5.30009 -0.355573 0
M  V30 492 C 44.8282 5.96399 -1.37749 0
M  V30 493 N 43.9652 6.98234 -0.735766 0
M  V30 494 H 48.8052 2.56968 -1.50903 0
M  V30 495 H 46.3422 1.26245 -0.755017 0
M  V30 496 H 48.3002 4.15279 0.399948 0
M  V30 497 H 46.9302 3.11018 0.864158 0
M  V30 498 H 45.9822 3.48418 -1.52673 0
M  V30 499 H 47.2942 4.65227 -1.79903 0
M  V30 500 H 46.4482 6.0664 0.0850095 0
M  V30 501 H 45.1872 4.85592 0.452967 0
M  V30 502 H 44.1922 5.18512 -1.82826 0
M  V30 503 H 45.4172 6.42899 -2.18764 0
M  V30 504 H 43.3632 6.55979 0.0525597 0
M  V30 505 H 43.2802 7.41965 -1.44995 0
M  V30 506 H 44.5482 7.78845 -0.31941 0
M  V30 507 N 48.7773 0.814389 1.34928 0
M  V30 508 C 50.0023 0.410097 2.03305 0
M  V30 509 C 50.4273 -0.973464 1.60951 0
M  V30 510 O 49.7853 -1.63185 0.789964 0
M  V30 511 C 49.8333 0.51049 3.56968 0
M  V30 512 O 48.9373 -0.473035 4.09678 0
M  V30 513 H 48.2783 0.170088 0.641846 0
M  V30 514 H 50.8083 1.10244 1.72358 0
M  V30 515 H 50.8183 0.383135 4.06197 0
M  V30 516 H 49.4933 1.51963 3.87144 0
M  V30 517 H 48.0703 -0.305272 3.71648 0
M  V30 518 N 50.2554 -1.46986 0.568584 0
M  V30 519 C 51.1854 -2.32946 -0.160753 0
M  V30 520 C 52.1664 -1.44487 -0.897631 0
M  V30 521 O 53.3514 -1.73327 -0.875867 0
M  V30 522 C 50.4814 -3.26494 -1.18403 0
M  V30 523 C 49.4354 -4.24282 -0.562895 0
M  V30 524 C 48.7614 -5.07236 -1.69163 0
M  V30 525 C 50.0614 -5.19989 0.490761 0
M  V30 526 H 51.7554 -2.94175 0.556916 0
M  V30 527 H 49.3014 -1.4146 0.26927 0
M  V30 528 H 51.2544 -3.85477 -1.70251 0
M  V30 529 H 49.9784 -2.63343 -1.93179 0
M  V30 530 H 48.6374 -3.66541 -0.0656164 0
M  V30 531 H 48.2854 -4.4048 -2.42871 0
M  V30 532 H 47.9854 -5.7345 -1.28174 0
M  V30 533 H 49.5094 -5.6908 -2.21314 0
M  V30 534 H 50.9234 -5.73271 0.0579047 0
M  V30 535 H 49.3204 -5.94469 0.820165 0
M  V30 536 H 50.3904 -4.64777 1.3824 0
M  V30 537 N 51.7335 -0.305618 -1.54608 0
M  V30 538 C 52.9615 0.304775 -2.04643 0
M  V30 539 C 53.3765 1.47167 -1.18268 0
M  V30 540 O 52.7335 1.81296 -0.209328 0
M  V30 541 C 52.7845 0.756564 -3.53495 0
M  V30 542 O 52.5055 -0.36389 -4.36586 0
M  V30 543 C 54.0065 1.43163 -4.19546 0
M  V30 544 H 51.2265 0.0655481 -0.667791 0
M  V30 545 H 53.7705 -0.446592 -1.99564 0
M  V30 546 H 51.9255 1.45794 -3.58919 0
M  V30 547 H 52.3395 -0.0113121 -5.24499 0
M  V30 548 H 53.8135 1.69886 -5.25207 0
M  V30 549 H 54.2905 2.37318 -3.69563 0
M  V30 550 H 54.8965 0.773307 -4.18211 0
M  V30 551 N 53.2116 1.57565 -0.0334293 0
M  V30 552 C 54.1746 2.09393 0.932048 0
M  V30 553 C 55.1746 1.00986 1.25134 0
M  V30 554 O 56.3646 1.27129 1.19096 0
M  V30 555 C 53.4966 2.56338 2.2473 0
M  V30 556 H 54.6896 2.95984 0.483085 0
M  V30 557 H 52.2426 1.54819 0.21468 0
M  V30 558 H 52.9776 1.7309 2.74245 0
M  V30 559 H 52.7626 3.35542 2.02865 0
M  V30 560 H 54.2526 2.96646 2.93923 0
M  V30 561 N 54.6897 -0.239769 1.55765 0
M  V30 562 C 55.6367 -1.29696 1.90913 0
M  V30 563 C 56.6067 -1.47478 0.764164 0
M  V30 564 O 57.7917 -1.61345 1.01845 0
M  V30 565 C 54.9317 -2.64598 2.21544 0
M  V30 566 C 54.0447 -2.54765 3.48882 0
M  V30 567 C 53.1797 -3.82069 3.69049 0
M  V30 568 C 52.2187 -3.66883 4.89963 0
M  V30 569 N 51.3557 -4.86094 5.06614 0
M  V30 570 H 56.1957 -0.990224 2.81067 0
M  V30 571 H 53.7327 -0.477684 1.39128 0
M  V30 572 H 55.6907 -3.43132 2.3731 0
M  V30 573 H 54.3207 -2.93405 1.34585 0
M  V30 574 H 53.3727 -1.67763 3.41409 0
M  V30 575 H 54.6847 -2.39457 4.37563 0
M  V30 576 H 53.8387 -4.69046 3.84812 0
M  V30 577 H 52.5777 -4.00282 2.78614 0
M  V30 578 H 51.5827 -2.78289 4.74168 0
M  V30 579 H 52.8077 -3.50157 5.81865 0
M  V30 580 H 50.7537 -5.04655 4.19117 0
M  V30 581 H 50.6707 -4.73443 5.89396 0
M  V30 582 H 51.9387 -5.74549 5.26795 0
M  V30 583 N 56.1678 -1.49265 -0.50573 0
M  V30 584 C 57.3978 -1.61979 -1.28243 0
M  V30 585 C 57.8058 -0.288576 -1.86986 0
M  V30 586 O 57.1488 0.735408 -1.68337 0
M  V30 587 C 57.2108 -2.62632 -2.45489 0
M  V30 588 C 56.8748 -4.071 -2.07651 0
M  V30 589 C 57.8718 -4.94049 -1.61901 0
M  V30 590 C 55.5568 -4.52801 -2.17431 0
M  V30 591 C 57.5508 -6.24736 -1.26428 0
M  V30 592 C 55.2378 -5.83503 -1.8157 0
M  V30 593 C 56.2358 -6.69294 -1.36142 0
M  V30 594 O 55.9238 -7.9756 -1.00764 0
M  V30 595 H 55.6558 -0.54834 -0.395347 0
M  V30 596 H 58.2098 -1.96002 -0.614204 0
M  V30 597 H 56.4398 -2.2378 -3.15372 0
M  V30 598 H 58.1288 -2.64925 -3.07522 0
M  V30 599 H 58.8948 -4.5997 -1.53795 0
M  V30 600 H 54.7738 -3.86196 -2.51742 0
M  V30 601 H 58.3178 -6.91652 -0.908992 0
M  V30 602 H 54.2148 -6.17112 -1.89324 0
M  V30 603 H 54.9828 -8.10529 -1.13952 0
M  V30 604 N 57.6459 0.756429 -1.3826 0
M  V30 605 C 58.5759 1.88374 -1.37976 0
M  V30 606 C 59.5569 1.68311 -0.246082 0
M  V30 607 O 60.7419 1.88944 -0.44874 0
M  V30 608 C 57.8719 3.25864 -1.20125 0
M  V30 609 C 56.8259 3.60523 -2.30666 0
M  V30 610 C 56.1519 4.9672 -1.97923 0
M  V30 611 C 57.4519 3.65692 -3.72916 0
M  V30 612 H 59.1459 1.88869 -2.32312 0
M  V30 613 H 56.6919 0.907272 -1.11824 0
M  V30 614 H 58.6449 4.0438 -1.18552 0
M  V30 615 H 57.3689 3.25841 -0.222498 0
M  V30 616 H 56.0279 2.84324 -2.3142 0
M  V30 617 H 55.6759 4.93253 -0.985393 0
M  V30 618 H 55.3759 5.20878 -2.71955 0
M  V30 619 H 56.8999 5.77618 -1.97964 0
M  V30 620 H 58.3139 4.34328 -3.74208 0
M  V30 621 H 56.7109 4.01358 -4.4613 0
M  V30 622 H 57.7809 2.65987 -4.05436 0
M  V30 623 N 59.124 1.23083 0.984299 0
M  V30 624 C 60.37 1.06214 1.72761 0
M  V30 625 C 60.703 -0.400584 1.90024 0
M  V30 626 O 59.978 -1.29672 1.44967 0
M  V30 627 C 60.261 1.78375 3.12817 0
M  V30 628 C 60.114 3.32296 3.03149 0
M  V30 629 C 61.433 1.54309 4.12161 0
M  V30 630 H 58.552 0.387251 0.627061 0
M  V30 631 H 61.194 1.51536 1.14616 0
M  V30 632 H 59.344 1.39848 3.62457 0
M  V30 633 H 61.016 3.8032 2.61064 0
M  V30 634 H 59.259 3.6153 2.39747 0
M  V30 635 H 59.93 3.77972 4.02295 0
M  V30 636 H 62.406 1.87791 3.71314 0
M  V30 637 H 61.282 2.07281 5.08258 0
M  V30 638 H 61.543 0.477572 4.39513 0
M  V30 639 N 60.6021 -1.18246 1.0419 0
M  V30 640 C 62.0181 -1.40269 0.761366 0
M  V30 641 C 62.2181 -1.90777 -0.648578 0
M  V30 642 O 61.2741 -2.0929 -1.41258 0
M  V30 643 C 62.5871 -2.40237 1.8085 0
M  V30 644 C 64.1351 -2.53961 1.82955 0
M  V30 645 C 64.6101 -3.57194 2.86664 0
M  V30 646 N 66.1011 -3.64702 2.85563 0
M  V30 647 C 66.8361 -4.44309 3.6246 0
M  V30 648 N 66.3321 -5.27514 4.49111 0
M  V30 649 N 68.1251 -4.39084 3.50944 0
M  V30 650 H 60.2761 -0.837882 1.95175 0
M  V30 651 H 62.5391 -0.430608 0.84456 0
M  V30 652 H 62.2451 -2.10176 2.81991 0
M  V30 653 H 62.1191 -3.39601 1.64168 0
M  V30 654 H 64.5061 -2.83338 0.824855 0
M  V30 655 H 64.5871 -1.54706 2.03715 0
M  V30 656 H 64.2311 -3.28558 3.87314 0
M  V30 657 H 64.1611 -4.5613 2.6316 0
M  V30 658 H 66.6521 -3.05289 2.22727 0
M  V30 659 H 66.9651 -5.85411 5.04493 0
M  V30 660 H 65.3101 -5.2693 4.53178 0
M  V30 661 H 68.5011 -3.7313 2.82651 0
M  V30 662 H 68.6741 -5.00883 4.11121 0
M  V30 663 N 62.0802 -0.821533 -1.34494 0
M  V30 664 C 63.0432 -0.247847 -2.27856 0
M  V30 665 C 64.0432 0.573453 -1.50227 0
M  V30 666 O 65.2332 0.389759 -1.69784 0
M  V30 667 C 62.3652 0.652698 -3.34593 0
M  V30 668 H 63.5582 -1.07146 -2.80107 0
M  V30 669 H 61.1112 -0.593291 -1.44602 0
M  V30 670 H 61.8462 1.49943 -2.87555 0
M  V30 671 H 61.6312 0.065292 -3.92046 0
M  V30 672 H 63.1212 1.04793 -4.04238 0
M  V30 673 N 63.5583 1.46682 -0.576371 0
M  V30 674 C 64.8353 1.95599 0.00703437 0
M  V30 675 C 65.2153 1.51904 1.46589 0
M  V30 676 O 64.5633 0.766755 2.15251 0
M  V30 677 C 64.7733 3.4864 -0.158404 0
M  V30 678 C 66.1213 4.24594 -0.0229439 0
M  V30 679 O 67.1453 3.56094 -0.0869173 0
M  V30 680 O 66.0043 5.46373 0.118015 0
M  V30 681 H 63.0983 0.825275 0.053384 0
M  V30 682 H 65.6443 1.56996 -0.644244 0
M  V30 683 H 64.4163 3.7331 -1.17282 0
M  V30 684 H 64.0393 3.94057 0.5296 0
M  V30 685 N 65.0364 0.313813 1.54444 0
M  V30 686 C 65.9464 -0.565714 2.27677 0
M  V30 687 C 66.9624 -1.13754 1.31666 0
M  V30 688 O 68.1384 -1.15959 1.64668 0
M  V30 689 C 65.2034 -1.71528 3.01296 0
M  V30 690 C 64.2644 -1.17624 4.12872 0
M  V30 691 C 63.4974 -2.27102 4.8297 0
M  V30 692 O 63.7204 -3.47256 4.52514 0
M  V30 693 O 62.6544 -1.9307 5.70094 0
M  V30 694 H 66.4804 0.0287296 3.03686 0
M  V30 695 H 64.0654 0.0798312 1.49187 0
M  V30 696 H 65.9474 -2.38476 3.4743 0
M  V30 697 H 64.6224 -2.29608 2.2817 0
M  V30 698 H 63.5294 -0.472124 3.71109 0
M  V30 699 H 64.8624 -0.640695 4.88012 0
M  V30 700 N 66.5145 -1.57545 0.0417849 0
M  V30 701 C 67.4625 -2.12148 -0.953723 0
M  V30 702 C 68.4565 -1.05104 -1.32852 0
M  V30 703 O 69.6625 -1.23524 -1.30927 0
M  V30 704 H 66.0375 -0.677957 -0.325389 0
M  V30 705 H 68.0085 -2.94707 -0.467991 0
M  V30 706 C 66.7575 -2.6739 -2.22257 0
M  V30 707 H 66.0805 -3.49413 -1.94295 0
M  V30 708 H 67.5205 -3.09227 -2.90094 0
M  V30 709 C 65.9795 -1.60723 -2.96091 0
M  V30 710 O 66.5095 -1.01449 -3.88679 0
M  V30 711 N 64.7155 -1.32466 -2.58652 0
M  V30 712 H 64.2625 -1.80856 -1.83437 0
M  V30 713 H 64.2205 -0.61325 -3.08361 0
M  V30 714 N 67.9926 0.231505 -1.5589 0
M  V30 715 C 69.4086 0.580748 -1.48659 0
M  V30 716 C 69.6086 1.87617 -0.73498 0
M  V30 717 O 68.6646 2.51046 -0.270586 0
M  V30 718 C 69.9776 0.669202 -2.93159 0
M  V30 719 C 71.5256 0.760499 -3.03621 0
M  V30 720 C 72.0006 0.880383 -4.49459 0
M  V30 721 N 73.4916 0.944861 -4.53461 0
M  V30 722 C 74.2266 1.05716 -5.63571 0
M  V30 723 N 73.7226 1.13403 -6.83456 0
M  V30 724 N 75.5156 1.09152 -5.514 0
M  V30 725 H 67.6666 -0.618695 -2.03189 0
M  V30 726 H 69.9296 -0.215728 -0.923128 0
M  V30 727 H 69.6356 -0.212904 -3.51055 0
M  V30 728 H 69.5096 1.5361 -3.44505 0
M  V30 729 H 71.8966 1.63305 -2.45796 0
M  V30 730 H 71.9776 -0.131864 -2.5546 0
M  V30 731 H 71.6216 0.0123284 -5.07899 0
M  V30 732 H 71.5516 1.78802 -4.95316 0
M  V30 733 H 74.0426 0.896176 -3.6712 0
M  V30 734 H 74.3556 1.21921 -7.63122 0
M  V30 735 H 72.7006 1.10333 -6.86186 0
M  V30 736 H 75.8916 1.02805 -4.56671 0
M  V30 737 H 76.0646 1.17558 -6.37247 0
M  V30 738 N 69.4707 1.49531 0.497807 0
M  V30 739 C 70.8817 1.52344 1.07927 0
M  V30 740 C 71.2327 0.311469 1.93712 0
M  V30 741 O 70.3577 -0.578405 2.08527 0
M  V30 742 C 70.9527 2.76062 1.96405 0
M  V30 743 C 69.5117 2.81643 2.49709 0
M  V30 744 C 68.6587 2.46299 1.27404 0
M  V30 745 H 71.6097 1.56182 0.281576 0
M  V30 746 H 71.6307 2.56405 2.81135 0
M  V30 747 H 71.1427 3.64254 1.33943 0
M  V30 748 H 69.2437 1.97739 3.15801 0
M  V30 749 H 69.3567 3.83891 2.86643 0
M  V30 750 H 67.7207 1.98148 1.60029 0
M  V30 751 H 68.5037 3.36769 0.66645 0
M  V30 752 N 70.9488 -0.749086 1.3866 0
M  V30 753 C 72.1968 -1.50535 1.34847 0
M  V30 754 C 72.5178 -1.94909 -0.0595016 0
M  V30 755 O 71.7878 -1.67973 -1.00806 0
M  V30 756 H 70.3678 -0.558395 0.49619 0
M  V30 757 H 73.0298 -0.890165 1.73384 0
M  V30 758 H 72.1258 -2.39413 2.00219 0
M  V30 759 N 72.4269 -1.23603 -0.977757 0
M  V30 760 C 73.6569 -1.09487 -1.75203 0
M  V30 761 C 74.0649 0.356321 -1.85814 0
M  V30 762 O 73.4079 1.25816 -1.33851 0
M  V30 763 C 73.4699 -1.64905 -3.19447 0
M  V30 764 C 73.1339 -3.13688 -3.32338 0
M  V30 765 C 74.1309 -4.10953 -3.18455 0
M  V30 766 C 71.8159 -3.53449 -3.56902 0
M  V30 767 C 73.8099 -5.45962 -3.28944 0
M  V30 768 C 71.4969 -4.88602 -3.6703 0
M  V30 769 C 72.4949 -5.84668 -3.53062 0
M  V30 770 O 72.1829 -7.17365 -3.62826 0
M  V30 771 H 71.9149 -0.38367 -0.556573 0
M  V30 772 H 74.4689 -1.6398 -1.23693 0
M  V30 773 H 72.6989 -1.04835 -3.72218 0
M  V30 774 H 74.3879 -1.46226 -3.78646 0
M  V30 775 H 75.1539 -3.81577 -2.99372 0
M  V30 776 H 71.0329 -2.79188 -3.66844 0
M  V30 777 H 74.5769 -6.20925 -3.17958 0
M  V30 778 H 70.4739 -5.17653 -3.85623 0
M  V30 779 H 71.2419 -7.2515 -3.79605 0
M  V30 780 N 73.905 1.17692 -1.04816 0
M  V30 781 C 75.133 1.91786 -0.776254 0
M  V30 782 C 75.548 1.76604 0.667577 0
M  V30 783 O 74.905 1.10067 1.45573 0
M  V30 784 C 74.956 3.42967 -1.14263 0
M  V30 785 O 74.677 3.57678 -2.52978 0
M  V30 786 C 76.178 4.34144 -0.896311 0
M  V30 787 H 73.398 0.608624 -0.282519 0
M  V30 788 H 75.942 1.49268 -1.39783 0
M  V30 789 H 74.097 3.83245 -0.565874 0
M  V30 790 H 74.511 4.51319 -2.67229 0
M  V30 791 H 75.985 5.38744 -1.20244 0
M  V30 792 H 76.462 4.38876 0.168636 0
M  V30 793 H 77.068 3.99574 -1.45672 0
M  V30 794 N 75.3831 0.828654 1.34056 0
M  V30 795 C 76.6131 0.431993 2.02033 0
M  V30 796 C 77.0211 -0.96844 1.62536 0
M  V30 797 O 76.3641 -1.6391 0.829408 0
M  V30 798 C 76.4261 0.461224 3.56529 0
M  V30 799 C 76.0901 1.81599 4.1937 0
M  V30 800 C 77.0871 2.7777 4.39477 0
M  V30 801 C 74.7721 2.10604 4.56017 0
M  V30 802 C 76.7661 4.01115 4.95364 0
M  V30 803 C 74.4531 3.34207 5.11614 0
M  V30 804 C 75.4511 4.2928 5.31232 0
M  V30 805 O 75.1391 5.50699 5.8565 0
M  V30 806 H 74.8711 0.170943 0.654029 0
M  V30 807 H 77.4251 1.11988 1.72185 0
M  V30 808 H 75.6551 -0.283388 3.8566 0
M  V30 809 H 77.3441 0.0838149 4.05813 0
M  V30 810 H 78.1101 2.56659 4.11523 0
M  V30 811 H 73.9891 1.37402 4.40047 0
M  V30 812 H 77.5331 4.75333 5.10592 0
M  V30 813 H 73.4301 3.55179 5.38997 0
M  V30 814 H 74.1981 5.52298 6.04077 0
M  V30 815 N 76.8612 -1.46375 0.584142 0
M  V30 816 C 78.0912 -2.06461 0.0758195 0
M  V30 817 C 78.4992 -1.43322 -1.23512 0
M  V30 818 O 77.8422 -0.533216 -1.75791 0
M  V30 819 C 77.9042 -3.59131 -0.162773 0
M  V30 820 C 77.5682 -4.4447 1.06279 0
M  V30 821 C 78.5652 -4.80918 1.97519 0
M  V30 822 C 76.2502 -4.85584 1.28504 0
M  V30 823 C 78.2442 -5.57309 3.09331 0
M  V30 824 C 75.9312 -5.61734 2.4062 0
M  V30 825 C 76.9292 -5.9751 3.30863 0
M  V30 826 O 76.6172 -6.72121 4.41032 0
M  V30 827 H 76.3492 -0.673745 0.0551725 0
M  V30 828 H 78.9032 -1.88969 0.804984 0
M  V30 829 H 77.1332 -3.74936 -0.946565 0
M  V30 830 H 78.8222 -4.0114 -0.619782 0
M  V30 831 H 79.5882 -4.49732 1.81565 0
M  V30 832 H 75.4672 -4.57187 0.591702 0
M  V30 833 H 79.0112 -5.85152 3.79793 0
M  V30 834 H 74.9082 -5.92334 2.56537 0
M  V30 835 H 75.6762 -6.90547 4.39417 0
M  V30 836 N 78.3393 -0.321999 -1.54275 0
M  V30 837 C 79.5863 0.281044 -2.0054 0
M  V30 838 C 79.9143 1.52265 -1.21019 0
M  V30 839 O 79.1693 1.93687 -0.279982 0
M  V30 840 C 79.4683 0.661769 -3.5122 0
M  V30 841 C 79.1343 -0.480482 -4.48333 0
M  V30 842 C 77.7963 -0.794005 -4.74604 0
M  V30 843 C 80.1483 -1.24783 -5.06042 0
M  V30 844 C 77.4763 -1.87763 -5.55844 0
M  V30 845 C 79.8283 -2.32153 -5.88462 0
M  V30 846 C 78.4923 -2.64089 -6.13036 0
M  V30 847 H 77.7623 0.102841 -0.733829 0
M  V30 848 H 80.4093 -0.445453 -1.86247 0
M  V30 849 H 78.7143 1.46867 -3.63232 0
M  V30 850 H 80.4113 1.13989 -3.84457 0
M  V30 851 H 77.0013 -0.226039 -4.28004 0
M  V30 852 H 81.1853 -1.01887 -4.85729 0
M  V30 853 H 76.4413 -2.12954 -5.73115 0
M  V30 854 H 80.6153 -2.92057 -6.32199 0
M  V30 855 H 78.2423 -3.48185 -6.75775 0
M  V30 856 N 79.8174 1.5752 -0.0501392 0
M  V30 857 C 81.2284 1.80271 0.485705 0
M  V30 858 C 81.5794 0.96228 1.70981 0
M  V30 859 O 80.7044 0.178578 2.15662 0
M  V30 860 C 81.2994 3.26957 0.887938 0
M  V30 861 C 79.8584 3.5063 1.36877 0
M  V30 862 C 79.0054 2.75165 0.343468 0
M  V30 863 H 81.9564 1.56281 -0.276028 0
M  V30 864 H 81.9774 3.37821 1.75093 0
M  V30 865 H 81.4894 3.881 -0.0031809 0
M  V30 866 H 79.5904 2.94766 2.27911 0
M  V30 867 H 79.7034 4.59343 1.36164 0
M  V30 868 H 78.0674 2.4127 0.816128 0
M  V30 869 H 78.8504 3.39034 -0.539548 0
M  V30 870 N 81.2955 -0.223234 1.56011 0
M  V30 871 C 82.2055 -1.29766 1.95443 0
M  V30 872 C 83.2215 -1.51373 0.858028 0
M  V30 873 O 84.3975 -1.64536 1.16146 0
M  V30 874 C 81.4625 -2.62772 2.26167 0
M  V30 875 C 80.5235 -2.49482 3.49367 0
M  V30 876 C 79.7565 -3.76145 3.78616 0
M  V30 877 O 79.9795 -4.79087 3.09568 0
M  V30 878 O 78.9135 -3.73358 4.72109 0
M  V30 879 H 82.7395 -0.99309 2.87004 0
M  V30 880 H 80.3245 -0.425958 1.43199 0
M  V30 881 H 82.2065 -3.41327 2.47131 0
M  V30 882 H 80.8815 -2.92913 1.37781 0
M  V30 883 H 79.7885 -1.69133 3.33684 0
M  V30 884 H 81.1215 -2.2428 4.38131 0
M  V30 885 N 82.7736 -1.49793 -0.48987 0
M  V30 886 C 84.1846 -1.52914 -1.07118 0
M  V30 887 C 84.5356 -0.321738 -1.93544 0
M  V30 888 O 83.6606 0.567338 -2.08831 0
M  V30 889 C 84.2556 -2.771 -1.94938 0
M  V30 890 C 82.8146 -2.82963 -2.48212 0
M  V30 891 C 81.9616 -2.46972 -1.26096 0
M  V30 892 H 84.9126 -1.56329 -0.273289 0
M  V30 893 H 84.9336 -2.57892 -2.79771 0
M  V30 894 H 84.4456 -3.64959 -1.32009 0
M  V30 895 H 82.5466 -1.99411 -3.14748 0
M  V30 896 H 82.6596 -3.85406 -2.84603 0
M  V30 897 H 81.0236 -1.98994 -1.58976 0
M  V30 898 H 81.8066 -3.37118 -0.648581 0
M  V30 899 N 84.2517 0.741722 -1.39055 0
M  V30 900 C 85.1847 1.86416 -1.31622 0
M  V30 901 C 86.1627 1.61473 -0.191076 0
M  V30 902 O 87.3467 1.84825 -0.370399 0
M  V30 903 C 84.4737 3.22266 -1.04221 0
M  V30 904 C 83.5197 3.66079 -2.18834 0
M  V30 905 S 84.3527 3.7623 -3.81066 0
M  V30 906 C 85.5087 5.14881 -3.55877 0
M  V30 907 H 85.7417 1.92437 -2.26617 0
M  V30 908 H 83.2747 0.905907 -1.25031 0
M  V30 909 H 85.2327 4.00714 -0.890964 0
M  V30 910 H 83.8937 3.1391 -0.109237 0
M  V30 911 H 83.0867 4.64648 -1.95238 0
M  V30 912 H 82.6887 2.94817 -2.30128 0
M  V30 913 H 84.9807 6.01006 -3.12726 0
M  V30 914 H 85.9237 5.43503 -4.53884 0
M  V30 915 H 86.3317 4.84239 -2.90126 0
M  V30 916 N 85.7298 1.2412 0.971189 0
M  V30 917 C 86.6598 1.05508 2.08304 0
M  V30 918 C 87.6408 -0.0308864 1.70072 0
M  V30 919 O 88.8258 0.135521 1.93727 0
M  V30 920 C 85.9558 0.655365 3.4106 0
M  V30 921 C 84.9098 1.68971 3.93234 0
M  V30 922 C 84.2358 1.14516 5.22293 0
M  V30 923 C 85.5358 3.08487 4.21465 0
M  V30 924 H 87.2298 1.98507 2.24132 0
M  V30 925 H 84.7758 0.955821 1.07704 0
M  V30 926 H 86.7288 0.51217 4.18276 0
M  V30 927 H 85.4528 -0.31032 3.25122 0
M  V30 928 H 84.1118 1.82106 3.18171 0
M  V30 929 H 83.7598 0.170189 5.02712 0
M  V30 930 H 83.4598 1.83635 5.58168 0
M  V30 931 H 84.9838 1.01401 6.02121 0
M  V30 932 H 86.3978 2.98601 4.89398 0
M  V30 933 H 84.7948 3.74926 4.68562 0
M  V30 934 H 85.8648 3.56787 3.28376 0
M  V30 935 N 87.2079 -1.17134 1.05439 0
M  V30 936 C 88.4379 -1.91094 0.785274 0
M  V30 937 C 88.8459 -1.77198 -0.663142 0
M  V30 938 O 88.1889 -1.10835 -1.46497 0
M  V30 939 C 88.2509 -3.42594 1.08949 0
M  V30 940 C 87.9149 -3.80274 2.53458 0
M  V30 941 C 88.9119 -3.82912 3.51673 0
M  V30 942 C 86.5969 -4.11162 2.88532 0
M  V30 943 C 88.5909 -4.15913 4.83006 0
M  V30 944 C 86.2779 -4.43831 4.20068 0
M  V30 945 C 87.2759 -4.46185 5.17115 0
M  V30 946 O 86.9639 -4.78083 6.46291 0
M  V30 947 H 86.6959 -0.613073 0.284811 0
M  V30 948 H 89.2499 -1.49461 1.40893 0
M  V30 949 H 87.4799 -3.84534 0.408741 0
M  V30 950 H 89.1689 -3.97817 0.805991 0
M  V30 951 H 89.9349 -3.5917 3.25917 0
M  V30 952 H 85.8139 -4.085 2.13656 0
M  V30 953 H 89.3579 -4.17665 5.5875 0
M  V30 954 H 85.2549 -4.67037 4.45586 0
M  V30 955 H 86.0229 -4.9593 6.51149 0
M  V30 956 N 88.686 -0.835752 -1.33615 0
M  V30 957 C 89.932 -0.439817 -1.98588 0
M  V30 958 C 90.287 0.989274 -1.65019 0
M  V30 959 O 89.58 1.68168 -0.918159 0
M  V30 960 C 89.774 -0.593925 -3.52431 0
M  V30 961 C 89.603 -2.03644 -4.00948 0
M  V30 962 C 88.373 -2.67103 -4.28934 0
M  V30 963 C 90.571 -3.00479 -4.17393 0
M  V30 964 N 88.553 -4.02462 -4.6357 0
M  V30 965 C 89.924 -4.20777 -4.55353 0
M  V30 966 C 91.979 -2.96926 -3.99674 0
M  V30 967 C 90.682 -5.37994 -4.77447 0
M  V30 968 C 92.708 -4.1337 -4.22941 0
M  V30 969 C 92.07 -5.32422 -4.61201 0
M  V30 970 H 88.169 -0.209303 -0.75347 0
M  V30 971 H 90.753 -1.08316 -1.61789 0
M  V30 972 H 88.924 0.019599 -3.88395 0
M  V30 973 H 90.656 -0.169738 -4.04344 0
M  V30 974 H 87.411 -2.18259 -4.20309 0
M  V30 975 H 87.835 -4.72232 -4.85104 0
M  V30 976 H 92.477 -2.06015 -3.69212 0
M  V30 977 H 90.195 -6.29451 -5.06771 0
M  V30 978 H 93.781 -4.12034 -4.10754 0
M  V30 979 H 92.661 -6.21027 -4.78848 0
M  V30 980 N 90.1641 1.46063 -0.591896 0
M  V30 981 C 91.5801 1.57561 -0.254288 0
M  V30 982 C 91.7801 1.58565 1.24336 0
M  V30 983 O 90.8361 1.50753 2.02558 0
M  V30 984 C 92.1491 2.86549 -0.911611 0
M  V30 985 C 93.6971 3.00197 -0.886059 0
M  V30 986 C 94.1721 4.31933 -1.5231 0
M  V30 987 N 95.6631 4.38654 -1.48786 0
M  V30 988 C 96.3981 5.39222 -1.95006 0
M  V30 989 N 95.8941 6.46414 -2.49241 0
M  V30 990 N 97.6871 5.3048 -1.85868 0
M  V30 991 H 89.8381 1.43655 -1.56451 0
M  V30 992 H 92.1011 0.68583 -0.654478 0
M  V30 993 H 91.8071 2.91651 -1.96551 0
M  V30 994 H 91.6811 3.74794 -0.425368 0
M  V30 995 H 94.0681 2.9467 0.159246 0
M  V30 996 H 94.1491 2.13403 -1.41041 0
M  V30 997 H 93.7931 4.38217 -2.56765 0
M  V30 998 H 93.7231 5.17516 -0.973891 0
M  V30 999 H 96.2141 3.61793 -1.09151 0
M  V30 1000 H 96.5271 7.19376 -2.82344 0
M  V30 1001 H 94.8721 6.47208 -2.53272 0
M  V30 1002 H 98.0631 4.45643 -1.43248 0
M  V30 1003 H 98.2361 6.08711 -2.22204 0
M  V30 1004 N 91.6422 0.330177 1.54103 0
M  V30 1005 C 92.8672 -0.274893 2.0557 0
M  V30 1006 C 93.2922 -1.44487 1.20437 0
M  V30 1007 O 92.6502 -1.80021 0.214991 0
M  V30 1008 C 92.6982 -0.68079 3.54115 0
M  V30 1009 O 91.8022 -1.7824 3.71893 0
M  V30 1010 H 91.1432 -0.0483849 0.662235 0
M  V30 1011 H 93.6732 0.480508 1.98878 0
M  V30 1012 H 93.6832 -0.961635 3.96505 0
M  V30 1013 H 92.3582 0.174903 4.15532 0
M  V30 1014 H 90.9352 -1.49985 3.41407 0
M  V30 1015 N 93.1203 -1.57491 0.0584922 0
M  V30 1016 C 94.0503 -2.14988 -0.911178 0
M  V30 1017 C 95.0313 -1.07343 -1.31952 0
M  V30 1018 O 96.2163 -1.35318 -1.39294 0
M  V30 1019 C 93.3463 -2.70078 -2.18347 0
M  V30 1020 C 92.3003 -3.82771 -1.91495 0
M  V30 1021 C 91.6263 -4.24408 -3.25241 0
M  V30 1022 C 92.9263 -5.07592 -1.23075 0
M  V30 1023 H 94.6203 -2.96263 -0.432246 0
M  V30 1024 H 92.1663 -1.42512 -0.206469 0
M  V30 1025 H 94.1193 -3.08943 -2.86587 0
M  V30 1026 H 92.8433 -1.86005 -2.68458 0
M  V30 1027 H 91.5023 -3.44389 -1.25664 0
M  V30 1028 H 91.1503 -3.37275 -3.73168 0
M  V30 1029 H 90.8503 -5.00366 -3.08071 0
M  V30 1030 H 92.3743 -4.65879 -3.94701 0
M  V30 1031 H 93.7883 -5.43857 -1.81362 0
M  V30 1032 H 92.1853 -5.88741 -1.16207 0
M  V30 1033 H 93.2553 -4.84454 -0.207847 0
M  V30 1034 N 94.5984 0.214957 -1.56127 0
M  V30 1035 C 95.8454 0.938372 -1.79446 0
M  V30 1036 C 96.1734 1.8407 -0.628378 0
M  V30 1037 O 95.4284 1.91837 0.386925 0
M  V30 1038 C 95.7274 1.80314 -3.0858 0
M  V30 1039 C 95.3934 1.05349 -4.3842 0
M  V30 1040 C 94.0554 0.846435 -4.73697 0
M  V30 1041 C 96.4074 0.524588 -5.18553 0
M  V30 1042 C 93.7354 0.098683 -5.86617 0
M  V30 1043 C 96.0874 -0.209853 -6.32252 0
M  V30 1044 C 94.7514 -0.428102 -6.66126 0
M  V30 1045 H 94.0214 0.343375 -0.656639 0
M  V30 1046 H 96.6684 0.206077 -1.90388 0
M  V30 1047 H 94.9734 2.6035 -2.92789 0
M  V30 1048 H 96.6704 2.36513 -3.23825 0
M  V30 1049 H 93.2604 1.22486 -4.10725 0
M  V30 1050 H 97.4444 0.672008 -4.91729 0
M  V30 1051 H 92.7004 -0.0805753 -6.11347 0
M  V30 1052 H 96.8744 -0.627157 -6.9357 0
M  V30 1053 H 94.5014 -1.00944 -7.53468 0
M  V30 1054 N 96.0765 1.50051 0.48192 0
M  V30 1055 C 96.9865 1.7089 1.60728 0
M  V30 1056 C 98.0025 0.591788 1.63627 0
M  V30 1057 O 99.1785 0.868817 1.81696 0
M  V30 1058 C 96.2435 1.78855 2.97005 0
M  V30 1059 C 95.3045 3.02537 3.04581 0
M  V30 1060 C 94.5375 3.10112 4.34357 0
M  V30 1061 O 94.7605 2.24765 5.24249 0
M  V30 1062 O 93.6945 4.02747 4.47301 0
M  V30 1063 H 97.5205 2.66264 1.46072 0
M  V30 1064 H 95.1055 1.34018 0.660264 0
M  V30 1065 H 96.9875 1.86336 3.77964 0
M  V30 1066 H 95.6625 0.866628 3.11883 0
M  V30 1067 H 94.5695 3.00563 2.22739 0
M  V30 1068 H 95.9025 3.94272 2.94636 0
M  V30 1069 N 97.5546 -0.734337 1.39446 0
M  V30 1070 C 98.7826 -1.52358 1.39981 0
M  V30 1071 C 99.1976 -1.88799 -0.0054975 0
M  V30 1072 O 98.5546 -1.54146 -0.976998 0
M  V30 1073 C 98.6056 -2.81072 2.27333 0
M  V30 1074 O 98.3266 -2.46178 3.62392 0
M  V30 1075 C 99.8276 -3.75096 2.36259 0
M  V30 1076 H 97.0476 -0.470806 0.478103 0
M  V30 1077 H 99.5916 -0.907339 1.83269 0
M  V30 1078 H 97.7466 -3.39026 1.87457 0
M  V30 1079 H 98.1606 -3.28866 4.08592 0
M  V30 1080 H 99.6346 -4.62305 3.01626 0
M  V30 1081 H 100.112 -4.16892 1.38194 0
M  V30 1082 H 100.718 -3.23061 2.76608 0
M  V30 1083 N 99.0327 -1.24633 -0.964593 0
M  V30 1084 C 100.31 -0.995809 -1.68354 0
M  V30 1085 C 100.69 0.480964 -2.05548 0
M  V30 1086 O 100.038 1.45599 -1.76105 0
M  V30 1087 C 100.248 -1.92177 -2.91323 0
M  V30 1088 C 101.596 -2.19446 -3.63495 0
M  V30 1089 O 102.62 -1.89855 -3.01386 0
M  V30 1090 O 101.479 -2.69714 -4.75307 0
M  V30 1091 H 98.5727 -0.376854 -0.736146 0
M  V30 1092 H 101.119 -1.35745 -1.0184 0
M  V30 1093 H 99.8907 -2.91938 -2.60553 0
M  V30 1094 H 99.5137 -1.56349 -3.65569 0
M  V30 1095 N 100.511 1.16574 -1.06058 0
M  V30 1096 C 101.757 1.87324 -0.777022 0
M  V30 1097 C 102.09 1.81351 0.694645 0
M  V30 1098 O 101.365 1.22753 1.50871 0
M  V30 1099 C 101.648 3.36991 -1.26922 0
M  V30 1100 C 101.501 3.51667 -2.80447 0
M  V30 1101 C 102.82 4.3131 -0.87521 0
M  V30 1102 H 99.9388 0.680191 -0.28374 0
M  V30 1103 H 102.581 1.37036 -1.3161 0
M  V30 1104 H 100.731 3.79949 -0.81063 0
M  V30 1105 H 102.403 3.17664 -3.34495 0
M  V30 1106 H 100.646 2.93656 -3.19294 0
M  V30 1107 H 101.317 4.56766 -3.0995 0
M  V30 1108 H 103.793 3.9624 -1.27014 0
M  V30 1109 H 102.669 5.34545 -1.2471 0
M  V30 1110 H 102.93 4.41552 0.220071 0
M  V30 1111 N 101.989 0.842826 1.3317 0
M  V30 1112 C 103.235 0.441099 1.97945 0
M  V30 1113 C 103.568 -0.998024 1.66593 0
M  V30 1114 O 102.843 -1.69839 0.947898 0
M  V30 1115 C 103.126 0.666841 3.53872 0
M  V30 1116 C 102.979 2.15352 3.94897 0
M  V30 1117 C 104.298 0.115544 4.39948 0
M  V30 1118 H 101.417 0.161739 0.719034 0
M  V30 1119 H 104.059 1.05907 1.57746 0
M  V30 1120 H 102.209 0.140828 3.88245 0
M  V30 1121 H 103.881 2.7447 3.70761 0
M  V30 1122 H 102.124 2.63653 3.44484 0
M  V30 1123 H 102.795 2.26221 5.03516 0
M  V30 1124 H 105.271 0.565213 4.12243 0
M  V30 1125 H 104.147 0.303152 5.48062 0
M  V30 1126 H 104.408 -0.980935 4.3108 0
M  V30 1127 N 103.467 -1.45747 0.599634 0
M  V30 1128 C 104.715 -2.01893 0.0915472 0
M  V30 1129 C 105.036 -1.47155 -1.27946 0
M  V30 1130 O 104.306 -0.66273 -1.84349 0
M  V30 1131 H 102.886 -0.746363 0.0308524 0
M  V30 1132 H 105.548 -1.78645 0.779237 0
M  V30 1133 H 104.644 -3.1208 0.0353086 0
M  V30 1134 N 104.945 -0.338344 -1.53925 0
M  V30 1135 C 106.193 0.259245 -2.0043 0
M  V30 1136 C 106.514 1.51484 -1.22791 0
M  V30 1137 O 105.784 1.93037 -0.33368 0
M  V30 1138 H 104.364 0.0987845 -0.740439 0
M  V30 1139 H 107.026 -0.458302 -1.89435 0
M  V30 1140 H 106.122 0.505334 -3.07982 0
M  V30 1141 N 106.423 1.57458 -0.0668435 0
M  V30 1142 C 107.672 1.92477 0.602947 0
M  V30 1143 C 107.985 0.948419 1.71068 0
M  V30 1144 O 109.191 1.19124 2.43971 0
M  V30 1145 C 107.647 3.41903 1.12383 0
M  V30 1146 C 107.255 4.47975 0.04737 0
M  V30 1147 C 108.999 3.85931 1.76797 0
M  V30 1148 C 106.906 5.88529 0.582022 0
M  V30 1149 H 105.836 0.718387 0.22899 0
M  V30 1150 H 108.487 1.82978 -0.138276 0
M  V30 1151 H 106.869 3.46459 1.91787 0
M  V30 1152 H 108.043 4.55029 -0.726978 0
M  V30 1153 H 106.358 4.13384 -0.500243 0
M  V30 1154 H 108.955 4.88322 2.17821 0
M  V30 1155 H 109.298 3.23029 2.62599 0
M  V30 1156 H 109.831 3.83958 1.04024 0
M  V30 1157 H 106.57 6.55065 -0.238721 0
M  V30 1158 H 106.09 5.85004 1.324 0
M  V30 1159 H 107.769 6.38258 1.05999 0
M  V30 1160 N 107.901 -0.206675 1.56239 0
M  V30 1161 C 109.131 -0.943975 1.83773 0
M  V30 1162 C 109.539 -1.77841 0.645703 0
M  V30 1163 O 108.882 -1.79403 -0.395008 0
M  V30 1164 C 108.944 -1.899 3.05251 0
M  V30 1165 C 108.608 -1.24764 4.39639 0
M  V30 1166 C 109.605 -0.630216 5.16066 0
M  V30 1167 C 107.29 -1.25496 4.8637 0
M  V30 1168 C 109.284 -0.0287946 6.37393 0
M  V30 1169 C 106.971 -0.649698 6.07637 0
M  V30 1170 C 107.969 -0.0376845 6.8299 0
M  V30 1171 O 107.657 0.55812 8.0196 0
M  V30 1172 H 107.389 -0.281508 0.614597 0
M  V30 1173 H 109.943 -0.222458 2.04192 0
M  V30 1174 H 108.173 -2.6599 2.80689 0
M  V30 1175 H 109.862 -2.5031 3.1953 0
M  V30 1176 H 110.628 -0.616785 4.81062 0
M  V30 1177 H 106.507 -1.72072 4.27683 0
M  V30 1178 H 110.051 0.449518 6.9615 0
M  V30 1179 H 105.948 -0.660592 6.42111 0
M  V30 1180 H 106.716 0.453891 8.17241 0
M  V30 1181 N 109.379 -1.50304 -0.473955 0
M  V30 1182 C 110.342 -1.6841 -1.55469 0
M  V30 1183 C 111.342 -0.554905 -1.50922 0
M  V30 1184 O 112.532 -0.821882 -1.53593 0
M  V30 1185 C 109.664 -1.70667 -2.95102 0
M  V30 1186 H 110.857 -2.64828 -1.40733 0
M  V30 1187 H 108.41 -1.39742 -0.700132 0
M  V30 1188 H 109.145 -0.75932 -3.15285 0
M  V30 1189 H 108.93 -2.52698 -2.9981 0
M  V30 1190 H 110.42 -1.8664 -3.73571 0
M  V30 1191 N 110.857 0.726932 -1.39834 0
M  V30 1192 C 112.103 1.48884 -1.377 0
M  V30 1193 C 112.436 1.94185 0.0244852 0
M  V30 1194 O 111.711 1.67361 0.990986 0
M  V30 1195 C 111.994 2.72288 -2.3565 0
M  V30 1196 C 111.847 2.32956 -3.84775 0
M  V30 1197 C 113.166 3.74414 -2.31306 0
M  V30 1198 H 110.285 0.540062 -0.5015 0
M  V30 1199 H 112.927 0.830547 -1.70886 0
M  V30 1200 H 111.077 3.28457 -2.07481 0
M  V30 1201 H 112.749 1.82356 -4.23726 0
M  V30 1202 H 110.992 1.65088 -4.01159 0
M  V30 1203 H 111.663 3.21362 -4.4881 0
M  V30 1204 H 114.139 3.27849 -2.56231 0
M  V30 1205 H 113.015 4.58414 -3.01907 0
M  V30 1206 H 113.276 4.21909 -1.32081 0
M  V30 1207 N 112.336 1.25143 0.95797 0
M  V30 1208 C 113.268 1.01023 2.05735 0
M  V30 1209 C 114.281 -0.0236902 1.62783 0
M  V30 1210 O 115.47 0.21448 1.77207 0
M  V30 1211 C 112.57 0.504595 3.35122 0
M  V30 1212 C 111.743 1.6039 4.06932 0
M  V30 1213 C 110.802 1.09922 5.14591 0
M  V30 1214 O 109.828 1.79293 5.40225 0
M  V30 1215 N 111.03 -0.0612545 5.80468 0
M  V30 1216 H 113.795 1.95683 2.26998 0
M  V30 1217 H 111.356 1.16303 1.12629 0
M  V30 1218 H 113.348 0.151516 4.04416 0
M  V30 1219 H 111.918 -0.347989 3.10657 0
M  V30 1220 H 111.138 2.12872 3.31782 0
M  V30 1221 H 112.426 2.34252 4.51667 0
M  V30 1222 H 111.824 -0.640985 5.62057 0
M  V30 1223 H 110.381 -0.355395 6.5083 0
M  V30 1224 N 113.814 -1.1601 1.06675 0
M  V30 1225 C 115.091 -1.82679 0.699114 0
M  V30 1226 C 115.471 -1.94559 -0.819137 0
M  V30 1227 O 114.819 -1.49169 -1.73092 0
M  V30 1228 C 115.029 -3.19445 1.40555 0
M  V30 1229 C 116.377 -3.95171 1.55323 0
M  V30 1230 O 117.401 -3.28976 1.36577 0
M  V30 1231 O 116.26 -5.13833 1.86112 0
M  V30 1232 H 113.354 -0.788954 0.247951 0
M  V30 1233 H 115.9 -1.23179 1.16726 0
M  V30 1234 H 114.672 -3.05856 2.44065 0
M  V30 1235 H 114.295 -3.86625 0.927733 0
M  V30 1236 N 115.292 -0.849877 -1.32721 0
M  V30 1237 C 116.708 -0.539102 -1.50219 0
M  V30 1238 C 116.908 0.931271 -1.78689 0
M  V30 1239 O 115.964 1.71455 -1.85363 0
M  V30 1240 C 117.277 -1.42196 -2.64954 0
M  V30 1241 C 118.825 -1.42189 -2.78839 0
M  V30 1242 C 119.3 -2.28985 -3.96648 0
M  V30 1243 N 120.791 -2.26754 -4.03902 0
M  V30 1244 C 121.526 -2.90644 -4.94281 0
M  V30 1245 N 121.022 -3.63629 -5.897 0
M  V30 1246 N 122.815 -2.80057 -4.87365 0
M  V30 1247 H 114.966 -1.80156 -1.12506 0
M  V30 1248 H 117.229 -0.769217 -0.554085 0
M  V30 1249 H 116.935 -2.46733 -2.50631 0
M  V30 1250 H 116.809 -1.10591 -3.60624 0
M  V30 1251 H 119.196 -0.38419 -2.92588 0
M  V30 1252 H 119.277 -1.77807 -1.83898 0
M  V30 1253 H 118.921 -3.32819 -3.83658 0
M  V30 1254 H 118.851 -1.90702 -4.90857 0
M  V30 1255 H 121.342 -1.73688 -3.3562 0
M  V30 1256 H 121.655 -4.09558 -6.55349 0
M  V30 1257 H 120 -3.67737 -5.89741 0
M  V30 1258 H 123.191 -2.22593 -4.11789 0
M  V30 1259 H 123.364 -3.30132 -5.57599 0
M  V30 1260 N 116.77 1.45427 -0.607355 0
M  V30 1261 C 117.717 2.3053 0.111625 0
M  V30 1262 C 118.687 1.4209 0.860216 0
M  V30 1263 O 119.872 1.71019 0.845998 0
M  V30 1264 C 117.012 3.26992 1.10319 0
M  V30 1265 C 116.125 4.30535 0.355493 0
M  V30 1266 C 115.26 5.14105 1.33676 0
M  V30 1267 C 114.299 6.09376 0.576862 0
M  V30 1268 N 113.436 6.85727 1.5074 0
M  V30 1269 H 118.276 2.91477 -0.620093 0
M  V30 1270 H 115.813 1.43631 -0.317594 0
M  V30 1271 H 117.771 3.81385 1.6912 0
M  V30 1272 H 116.401 2.67799 1.80232 0
M  V30 1273 H 115.453 3.78805 -0.348023 0
M  V30 1274 H 116.765 4.98235 -0.237423 0
M  V30 1275 H 115.919 5.72897 1.99684 0
M  V30 1276 H 114.658 4.46423 1.9636 0
M  V30 1277 H 113.663 5.49715 -0.0968519 0
M  V30 1278 H 114.888 6.79085 -0.0449341 0
M  V30 1279 H 112.834 6.20735 2.12189 0
M  V30 1280 H 112.751 7.49778 0.967913 0
M  V30 1281 H 114.019 7.4906 2.15706 0
M  V30 1282 N 118.248 0.346503 1.53744 0
M  V30 1283 C 119.664 -0.00530975 1.59599 0
M  V30 1284 C 119.864 -1.48465 1.36236 0
M  V30 1285 O 118.92 -2.24376 1.15808 0
M  V30 1286 C 120.233 0.433516 2.97559 0
M  V30 1287 C 121.781 0.386111 3.10609 0
M  V30 1288 C 122.256 0.800451 4.50951 0
M  V30 1289 N 123.747 0.754753 4.5701 0
M  V30 1290 C 124.482 1.04727 5.63755 0
M  V30 1291 N 123.978 1.4081 6.7834 0
M  V30 1292 N 125.771 0.971316 5.53644 0
M  V30 1293 H 117.922 1.31009 1.67184 0
M  V30 1294 H 120.185 0.534242 0.783128 0
M  V30 1295 H 119.891 1.46509 3.19731 0
M  V30 1296 H 119.765 -0.189753 3.76722 0
M  V30 1297 H 122.152 -0.636295 2.88158 0
M  V30 1298 H 122.233 1.04462 2.33498 0
M  V30 1299 H 121.877 1.82088 4.74137 0
M  V30 1300 H 121.807 0.119386 5.26465 0
M  V30 1301 H 124.298 0.488662 3.74727 0
M  V30 1302 H 124.611 1.61607 7.55714 0
M  V30 1303 H 122.956 1.44657 6.79779 0
M  V30 1304 H 126.147 0.688748 4.63005 0
M  V30 1305 H 126.32 1.20263 6.36742 0
M  V30 1306 N 119.726 -1.57421 0.075193 0
M  V30 1307 C 121.142 -1.57099 -0.281444 0
M  V30 1308 C 121.342 -1.08486 -1.69803 0
M  V30 1309 O 120.398 -0.752279 -2.41033 0
M  V30 1310 C 121.711 -3.00571 -0.0880041 0
M  V30 1311 C 123.259 -3.12605 -0.157281 0
M  V30 1312 C 123.734 -4.57999 0.0079207 0
M  V30 1313 N 125.225 -4.63176 -0.0475725 0
M  V30 1314 C 125.96 -5.73373 0.0557876 0
M  V30 1315 N 125.456 -6.92473 0.21286 0
M  V30 1316 N 127.249 -5.621 -0.00152098 0
M  V30 1317 H 119.4 -1.87335 1.00098 0
M  V30 1318 H 121.663 -0.86377 0.390646 0
M  V30 1319 H 121.369 -3.40262 0.889629 0
M  V30 1320 H 121.243 -3.67754 -0.838875 0
M  V30 1321 H 123.63 -2.72798 -1.1254 0
M  V30 1322 H 123.711 -2.48053 0.62475 0
M  V30 1323 H 123.355 -4.98496 0.972824 0
M  V30 1324 H 123.285 -5.20586 -0.793556 0
M  V30 1325 H 125.776 -3.7753 -0.167244 0
M  V30 1326 H 126.089 -7.72279 0.283781 0
M  V30 1327 H 124.434 -6.94556 0.248267 0
M  V30 1328 H 127.625 -4.67938 -0.122958 0
M  V30 1329 H 127.798 -6.47948 0.0824844 0
M  V30 1330 N 121.204 0.198386 -1.56346 0
M  V30 1331 C 122.452 0.91747 -1.80075 0
M  V30 1332 C 122.773 1.83929 -0.647692 0
M  V30 1333 O 122.043 1.93029 0.334166 0
M  V30 1334 H 120.623 0.341774 -0.664228 0
M  V30 1335 H 123.285 0.204684 -1.93822 0
M  V30 1336 H 122.381 1.51055 -2.7311 0
M  V30 1337 N 122.682 1.50554 0.465978 0
M  V30 1338 C 123.592 1.72585 1.58907 0
M  V30 1339 C 124.608 0.60911 1.6299 0
M  V30 1340 O 125.784 0.88804 1.80765 0
M  V30 1341 C 122.849 1.81995 2.95091 0
M  V30 1342 C 121.91 3.05751 3.01355 0
M  V30 1343 C 121.143 3.14702 4.31043 0
M  V30 1344 O 121.366 2.30313 5.21835 0
M  V30 1345 O 120.3 4.07468 4.43005 0
M  V30 1346 H 124.126 2.67799 1.43239 0
M  V30 1347 H 121.711 1.34711 0.646013 0
M  V30 1348 H 123.593 1.90335 3.75966 0
M  V30 1349 H 122.268 0.899659 3.10947 0
M  V30 1350 H 121.175 3.02908 2.19539 0
M  V30 1351 H 122.508 3.97375 2.90437 0
M  V30 1352 N 124.16 -0.719506 1.40217 0
M  V30 1353 C 125.09 -1.8465 1.42922 0
M  V30 1354 C 126.071 -1.67599 0.29062 0
M  V30 1355 O 127.256 -1.87688 0.498677 0
M  V30 1356 C 124.386 -3.22565 1.28722 0
M  V30 1357 C 123.34 -3.54281 2.40144 0
M  V30 1358 C 122.666 -4.91298 2.11023 0
M  V30 1359 C 123.966 -3.55676 3.82481 0
M  V30 1360 H 125.66 -1.82644 2.37237 0
M  V30 1361 H 123.206 -0.877305 1.1419 0
M  V30 1362 H 125.159 -4.01095 1.29232 0
M  V30 1363 H 123.883 -3.25137 0.308811 0
M  V30 1364 H 122.542 -2.78088 2.38877 0
M  V30 1365 H 122.19 -4.90468 1.11582 0
M  V30 1366 H 121.89 -5.13485 2.8567 0
M  V30 1367 H 123.414 -5.72166 2.13209 0
M  V30 1368 H 124.828 -4.24254 3.85592 0
M  V30 1369 H 123.225 -3.89388 4.56614 0
M  V30 1370 H 124.295 -2.55144 4.12346 0
M  V30 1371 N 125.638 -1.25649 -0.95132 0
M  V30 1372 C 126.863 -1.13443 -1.73624 0
M  V30 1373 C 127.288 0.307565 -1.85568 0
M  V30 1374 O 126.646 1.22282 -1.33854 0
M  V30 1375 C 126.694 -1.79723 -3.12621 0
M  V30 1376 O 125.798 -1.07912 -3.98031 0
M  V30 1377 H 125.139 -0.395872 -0.533086 0
M  V30 1378 H 127.669 -1.66276 -1.1922 0
M  V30 1379 H 127.679 -1.86141 -3.63064 0
M  V30 1380 H 126.354 -2.84633 -3.03244 0
M  V30 1381 H 124.931 -1.09398 -3.56492 0
M  V30 1382 N 127.117 1.15442 -1.07289 0
M  V30 1383 C 128.08 2.18358 -0.696591 0
M  V30 1384 C 129.08 1.58637 0.262837 0
M  V30 1385 O 130.27 1.74145 0.0438809 0
M  V30 1386 C 127.402 3.4089 -0.0266151 0
M  V30 1387 H 128.595 2.53162 -1.60776 0
M  V30 1388 H 126.148 1.29893 -0.869342 0
M  V30 1389 H 126.883 3.11653 0.896822 0
M  V30 1390 H 126.668 3.85495 -0.716657 0
M  V30 1391 H 128.158 4.17009 0.222028 0
M  V30 1392 N 128.595 0.856903 1.32268 0
M  V30 1393 C 129.505 0.306131 2.32594 0
M  V30 1394 C 130.521 -0.577209 1.64147 0
M  V30 1395 O 131.697 -0.477043 1.95669 0
M  V30 1396 C 128.762 -0.494561 3.43154 0
M  V30 1397 C 127.823 0.415186 4.27288 0
M  V30 1398 C 127.056 -0.347387 5.32568 0
M  V30 1399 O 127.279 -1.57708 5.48165 0
M  V30 1400 O 126.213 0.287982 6.01211 0
M  V30 1401 H 130.039 1.13737 2.81598 0
M  V30 1402 H 127.624 0.619902 1.35932 0
M  V30 1403 H 129.506 -0.948944 4.10576 0
M  V30 1404 H 128.181 -1.30257 2.96336 0
M  V30 1405 H 127.088 0.917793 3.62667 0
M  V30 1406 H 128.421 1.18844 4.77637 0
M  V30 1407 N 130.073 -1.45103 0.615059 0
M  V30 1408 C 131.35 -1.95549 0.0448276 0
M  V30 1409 C 131.73 -1.55737 -1.4251 0
M  V30 1410 O 131.078 -0.823556 -2.13143 0
M  V30 1411 C 131.288 -3.48098 0.250785 0
M  V30 1412 C 132.636 -4.24384 0.135509 0
M  V30 1413 O 133.66 -3.55738 0.181299 0
M  V30 1414 O 132.519 -5.46493 0.0268878 0
M  V30 1415 H 129.613 -0.8264 -0.0314845 0
M  V30 1416 H 132.159 -1.55232 0.685642 0
M  V30 1417 H 130.931 -3.7007 1.27139 0
M  V30 1418 H 130.554 -3.95323 -0.424937 0
M  V30 1419 N 131.551 -0.354651 -1.53558 0
M  V30 1420 C 132.514 0.484566 -2.24019 0
M  V30 1421 C 133.514 1.01861 -1.24422 0
M  V30 1422 O 134.704 0.906097 -1.4878 0
M  V30 1423 C 131.836 1.67615 -2.96847 0
M  V30 1424 H 133.029 -0.131843 -2.9961 0
M  V30 1425 H 130.582 -0.106165 -1.55939 0
M  V30 1426 H 131.317 2.33095 -2.25471 0
M  V30 1427 H 131.102 1.30029 -3.69912 0
M  V30 1428 H 132.592 2.27114 -3.50441 0
M  V30 1429 N 133.029 1.57378 -0.0835403 0
M  V30 1430 C 133.992 2.12252 0.864959 0
M  V30 1431 C 134.992 1.04916 1.21858 0
M  V30 1432 O 136.182 1.30853 1.14991 0
M  V30 1433 C 133.314 2.63358 2.16461 0
M  V30 1434 H 134.507 2.97371 0.388676 0
M  V30 1435 H 132.06 1.55423 0.165317 0
M  V30 1436 H 132.795 1.81727 2.686 0
M  V30 1437 H 132.58 3.41826 1.92087 0
M  V30 1438 H 134.07 3.05847 2.84337 0
M  V30 1439 N 134.507 -0.190092 1.56449 0
M  V30 1440 C 135.737 -0.92443 1.84764 0
M  V30 1441 C 136.145 -1.77146 0.664529 0
M  V30 1442 O 135.488 -1.79812 -0.375957 0
M  V30 1443 C 135.55 -1.86651 3.07248 0
M  V30 1444 C 135.214 -1.20094 4.40938 0
M  V30 1445 C 136.211 -0.575445 5.16706 0
M  V30 1446 C 133.896 -1.2033 4.87674 0
M  V30 1447 C 135.89 0.0388111 6.37388 0
M  V30 1448 C 133.577 -0.585214 6.08291 0
M  V30 1449 C 134.575 0.0347578 6.82991 0
M  V30 1450 O 134.263 0.643147 8.01323 0
M  V30 1451 H 133.995 -0.274974 0.617548 0
M  V30 1452 H 136.549 -0.200788 2.04416 0
M  V30 1453 H 134.779 -2.62998 2.83494 0
M  V30 1454 H 136.468 -2.46907 3.22167 0
M  V30 1455 H 137.234 -0.565728 4.81689 0
M  V30 1456 H 133.113 -1.67526 4.29484 0
M  V30 1457 H 136.657 0.523329 6.95634 0
M  V30 1458 H 132.554 -0.592451 6.42775 0
M  V30 1459 H 133.322 0.540545 8.16713 0
M  V30 1460 N 135.985 -1.50799 -0.457987 0
M  V30 1461 C 137.234 -1.6168 -1.20593 0
M  V30 1462 C 137.547 -0.32888 -1.92815 0
M  V30 1463 O 138.753 -0.316773 -2.69646 0
M  V30 1464 C 137.209 -2.8545 -2.19195 0
M  V30 1465 C 136.817 -4.21168 -1.52715 0
M  V30 1466 C 138.561 -3.05681 -2.94549 0
M  V30 1467 C 136.468 -5.3611 -2.4968 0
M  V30 1468 H 135.398 -0.602134 -0.453818 0
M  V30 1469 H 138.049 -1.77245 -0.475031 0
M  V30 1470 H 136.431 -2.63472 -2.95632 0
M  V30 1471 H 137.605 -4.53449 -0.819775 0
M  V30 1472 H 135.92 -4.06648 -0.895922 0
M  V30 1473 H 138.517 -3.88727 -3.67145 0
M  V30 1474 H 138.86 -2.17929 -3.54701 0
M  V30 1475 H 139.393 -3.27901 -2.25223 0
M  V30 1476 H 136.132 -6.26057 -1.94249 0
M  V30 1477 H 135.652 -5.0823 -3.18532 0
M  V30 1478 H 137.331 -5.6722 -3.11241 0
M  V30 1479 N 137.463 0.71206 -1.40597 0
M  V30 1480 C 138.691 1.50111 -1.42388 0
M  V30 1481 C 139.106 1.88784 -0.0245395 0
M  V30 1482 O 138.463 1.55681 0.952351 0
M  V30 1483 C 138.514 2.7742 -2.31776 0
M  V30 1484 O 138.235 2.40382 -3.66262 0
M  V30 1485 C 139.736 3.7129 -2.42196 0
M  V30 1486 H 136.956 0.46314 -0.485533 0
M  V30 1487 H 139.5 0.878068 -1.8469 0
M  V30 1488 H 137.655 3.36001 -1.92827 0
M  V30 1489 H 138.069 3.22324 -4.13772 0
M  V30 1490 H 139.543 4.57448 -3.08943 0
M  V30 1491 H 140.02 4.14641 -1.44809 0
M  V30 1492 H 140.626 3.18619 -2.81712 0
M  V30 1493 N 138.941 1.26152 0.944643 0
M  V30 1494 C 139.904 1.07474 2.0244 0
M  V30 1495 C 140.904 0.0242064 1.60782 0
M  V30 1496 O 142.094 0.267302 1.72137 0
M  V30 1497 C 139.226 0.633956 3.34953 0
M  V30 1498 H 140.419 2.03336 2.20442 0
M  V30 1499 H 137.972 1.087 1.12312 0
M  V30 1500 H 138.707 -0.326811 3.22649 0
M  V30 1501 H 138.492 1.39247 3.66542 0
M  V30 1502 H 139.982 0.52501 4.14287 0
M  V30 1503 N 140.419 -1.14872 1.07899 0
M  V30 1504 C 141.369 -2.17809 0.674027 0
M  V30 1505 C 142.353 -1.58008 -0.303699 0
M  V30 1506 O 143.545 -1.76616 -0.11654 0
M  V30 1507 C 140.674 -3.43208 0.0793318 0
M  V30 1508 C 139.76 -4.10051 1.08253 0
M  V30 1509 N 140.151 -4.52296 2.2641 0
M  V30 1510 C 138.449 -4.36469 0.917124 0
M  V30 1511 C 139.15 -5.04199 2.901 0
M  V30 1512 N 138.126 -4.98088 2.17736 0
M  V30 1513 H 141.928 -2.48207 1.57386 0
M  V30 1514 H 139.442 -1.315 0.952976 0
M  V30 1515 H 141.439 -4.16272 -0.228719 0
M  V30 1516 H 140.099 -3.14291 -0.815551 0
M  V30 1517 H 141.11 -4.45504 2.64096 0
M  V30 1518 H 137.787 -4.17432 0.0756078 0
M  V30 1519 H 139.177 -5.46802 3.90458 0
M  V30 1520 N 141.898 -0.863906 -1.31812 0
M  V30 1521 C 143.128 -0.485406 -2.00817 0
M  V30 1522 C 143.536 0.925007 -1.65046 0
M  V30 1523 O 142.879 1.61653 -0.872574 0
M  V30 1524 C 142.941 -0.555589 -3.55181 0
M  V30 1525 C 142.605 -1.92654 -4.14407 0
M  V30 1526 C 143.602 -2.89324 -4.31958 0
M  V30 1527 C 141.287 -2.2262 -4.50273 0
M  V30 1528 C 143.281 -4.14108 -4.84555 0
M  V30 1529 C 140.968 -3.47654 -5.02573 0
M  V30 1530 C 141.966 -4.43214 -5.19664 0
M  V30 1531 O 141.654 -5.66033 -5.70843 0
M  V30 1532 H 141.386 -0.188224 -0.649267 0
M  V30 1533 H 143.94 -1.16514 -1.69156 0
M  V30 1534 H 142.17 0.181037 -3.86276 0
M  V30 1535 H 143.859 -0.19138 -4.05449 0
M  V30 1536 H 144.625 -2.6748 -4.04573 0
M  V30 1537 H 140.504 -1.4902 -4.3625 0
M  V30 1538 H 144.048 -4.88703 -4.9781 0
M  V30 1539 H 139.945 -3.69345 -5.29391 0
M  V30 1540 H 140.713 -5.6812 -5.89222 0
M  V30 1541 N 143.376 1.44774 -0.622745 0
M  V30 1542 C 144.308 2.28856 0.125485 0
M  V30 1543 C 145.321 1.40811 0.817069 0
M  V30 1544 O 146.51 1.65044 0.679918 0
M  V30 1545 C 143.61 3.16963 1.19949 0
M  V30 1546 C 142.783 4.33374 0.592064 0
M  V30 1547 C 141.842 5.02577 1.55893 0
M  V30 1548 O 140.868 5.58873 1.07933 0
M  V30 1549 N 142.07 5.03256 2.89334 0
M  V30 1550 H 144.835 2.93713 -0.596068 0
M  V30 1551 H 142.396 1.55129 -0.463303 0
M  V30 1552 H 144.388 3.60123 1.84644 0
M  V30 1553 H 142.958 2.53913 1.82337 0
M  V30 1554 H 142.178 3.93509 -0.233322 0
M  V30 1555 H 143.466 5.08527 0.166738 0
M  V30 1556 H 142.864 4.58836 3.30887 0
M  V30 1557 H 141.421 5.50232 3.49412 0
M  V30 1558 N 144.854 0.36279 1.53368 0
M  V30 1559 C 145.817 -0.472679 2.24273 0
M  V30 1560 C 146.817 -1.012 1.24961 0
M  V30 1561 O 148.007 -0.898194 1.49259 0
M  V30 1562 C 145.139 -1.66039 2.97731 0
M  V30 1563 H 146.332 0.14773 2.99536 0
M  V30 1564 H 143.885 0.114434 1.55881 0
M  V30 1565 H 144.62 -2.31896 2.26704 0
M  V30 1566 H 144.405 -1.28066 3.70596 0
M  V30 1567 H 145.895 -2.25252 3.51641 0
M  V30 1568 N 146.332 -1.57332 0.0918853 0
M  V30 1569 C 147.748 -1.57389 -0.264766 0
M  V30 1570 C 147.948 -1.10281 -1.68643 0
M  V30 1571 O 147.004 -0.777801 -2.40222 0
M  V30 1572 C 148.317 -3.00648 -0.0561195 0
M  V30 1573 C 149.865 -3.12754 -0.124116 0
M  V30 1574 C 150.34 -4.57965 0.0564972 0
M  V30 1575 N 151.831 -4.632 0.00155611 0
M  V30 1576 C 152.566 -5.73281 0.116598 0
M  V30 1577 N 152.062 -6.92208 0.286294 0
M  V30 1578 N 153.855 -5.6207 0.0580973 0
M  V30 1579 H 146.006 -1.86262 1.02079 0
M  V30 1580 H 148.269 -0.859579 0.399786 0
M  V30 1581 H 147.975 -3.393 0.925669 0
M  V30 1582 H 147.849 -3.68623 -0.799823 0
M  V30 1583 H 150.236 -2.73976 -1.09641 0
M  V30 1584 H 150.317 -2.47377 0.651024 0
M  V30 1585 H 149.961 -4.97436 1.02564 0
M  V30 1586 H 149.891 -5.21399 -0.738297 0
M  V30 1587 H 152.382 -3.77686 -0.127192 0
M  V30 1588 H 152.695 -7.71934 0.365676 0
M  V30 1589 H 151.04 -6.94254 0.32192 0
M  V30 1590 H 154.231 -4.68043 -0.0733204 0
M  V30 1591 H 154.404 -6.47824 0.151203 0
M  V30 1592 N 147.81 0.181792 -1.56548 0
M  V30 1593 C 149.057 0.900097 -1.81396 0
M  V30 1594 C 149.385 1.82695 -0.667281 0
M  V30 1595 O 148.64 1.92614 0.346146 0
M  V30 1596 C 148.939 1.73728 -3.12335 0
M  V30 1597 C 148.605 0.960255 -4.40556 0
M  V30 1598 C 147.267 0.745766 -4.75386 0
M  V30 1599 C 149.619 0.414477 -5.19549 0
M  V30 1600 C 146.947 -0.0257694 -5.86694 0
M  V30 1601 C 149.299 -0.343916 -6.31664 0
M  V30 1602 C 147.963 -0.569301 -6.65068 0
M  V30 1603 H 147.233 0.329369 -0.663775 0
M  V30 1604 H 149.88 0.165647 -1.90782 0
M  V30 1605 H 148.185 2.54081 -2.98245 0
M  V30 1606 H 149.882 2.29591 -3.28769 0
M  V30 1607 H 146.472 1.13746 -4.13231 0
M  V30 1608 H 150.656 0.567554 -4.93044 0
M  V30 1609 H 145.912 -0.210233 -6.11038 0
M  V30 1610 H 150.086 -0.774133 -6.92084 0
M  V30 1611 H 147.713 -1.16903 -7.51158 0
M  V30 1612 N 149.288 1.51039 0.449983 0
M  V30 1613 C 150.251 1.70863 1.5277 0
M  V30 1614 C 151.251 0.578846 1.5002 0
M  V30 1615 O 152.441 0.846213 1.52266 0
M  V30 1616 C 149.573 1.75341 2.9235 0
M  V30 1617 H 150.766 2.67034 1.36502 0
M  V30 1618 H 148.319 1.40838 0.677812 0
M  V30 1619 H 149.054 0.809383 3.14037 0
M  V30 1620 H 148.839 2.57436 2.95752 0
M  V30 1621 H 150.329 1.92559 3.70555 0
M  V30 1622 N 150.766 -0.704594 1.40972 0
M  V30 1623 C 151.729 -1.80035 1.41845 0
M  V30 1624 C 152.729 -1.57774 0.310474 0
M  V30 1625 O 153.919 -1.64613 0.56992 0
M  V30 1626 C 151.051 -3.18284 1.22098 0
M  V30 1627 H 152.244 -1.80658 2.3938 0
M  V30 1628 H 149.797 -0.911329 1.26982 0
M  V30 1629 H 150.532 -3.23306 0.253672 0
M  V30 1630 H 150.317 -3.35843 2.02366 0
M  V30 1631 H 151.807 -3.98289 1.25522 0
M  V30 1632 N 152.244 -1.26651 -0.937939 0
M  V30 1633 C 153.655 -1.1125 -1.49934 0
M  V30 1634 C 154.006 0.306077 -1.93798 0
M  V30 1635 O 153.131 1.19792 -1.80219 0
M  V30 1636 C 153.726 -2.01339 -2.72485 0
M  V30 1637 C 152.285 -1.90074 -3.24883 0
M  V30 1638 C 151.432 -1.94498 -1.97651 0
M  V30 1639 H 154.383 -1.39693 -0.753091 0
M  V30 1640 H 154.404 -1.56319 -3.46907 0
M  V30 1641 H 153.916 -3.04577 -2.40529 0
M  V30 1642 H 152.017 -0.897827 -3.61621 0
M  V30 1643 H 152.13 -2.75778 -3.9177 0
M  V30 1644 H 150.494 -1.38591 -2.13693 0
M  V30 1645 H 151.277 -2.99372 -1.68022 0
M  V30 1646 N 153.722 1.14298 -1.08507 0
M  V30 1647 C 154.952 1.88945 -0.835663 0
M  V30 1648 C 155.36 1.78894 0.615928 0
M  V30 1649 O 154.703 1.1468 1.43506 0
M  V30 1650 C 154.765 3.39585 -1.17994 0
M  V30 1651 C 154.429 3.7342 -2.63451 0
M  V30 1652 C 155.426 3.73454 -3.61702 0
M  V30 1653 C 153.111 4.03368 -2.99332 0
M  V30 1654 C 155.105 4.02961 -4.93864 0
M  V30 1655 C 152.792 4.32538 -4.31687 0
M  V30 1656 C 153.79 4.32318 -5.28763 0
M  V30 1657 O 153.478 4.6078 -6.58739 0
M  V30 1658 H 153.21 0.605307 -0.300965 0
M  V30 1659 H 155.764 1.45673 -1.44806 0
M  V30 1660 H 153.994 3.83315 -0.51055 0
M  V30 1661 H 155.683 3.9554 -0.911182 0
M  V30 1662 H 156.449 3.50403 -3.35325 0
M  V30 1663 H 152.328 4.02692 -2.24411 0
M  V30 1664 H 155.872 4.02704 -5.69627 0
M  V30 1665 H 151.769 4.55059 -4.57812 0
M  V30 1666 H 152.537 4.78492 -6.64069 0
M  V30 1667 N 155.201 0.870884 1.31352 0
M  V30 1668 C 156.131 0.343096 2.30966 0
M  V30 1669 C 157.112 -0.566507 1.60389 0
M  V30 1670 O 158.297 -0.483336 1.88089 0
M  V30 1671 C 155.427 -0.455487 3.443 0
M  V30 1672 C 154.381 0.361103 4.26474 0
M  V30 1673 C 153.707 -0.563221 5.31725 0
M  V30 1674 C 155.007 1.59566 4.97329 0
M  V30 1675 H 156.701 1.17548 2.75359 0
M  V30 1676 H 154.247 0.566686 1.32381 0
M  V30 1677 H 156.2 -0.83525 4.13039 0
M  V30 1678 H 154.924 -1.32139 2.98675 0
M  V30 1679 H 153.583 0.722825 3.59403 0
M  V30 1680 H 153.231 -1.42643 4.82351 0
M  V30 1681 H 152.931 -0.0207409 5.87596 0
M  V30 1682 H 154.455 -0.939808 6.03324 0
M  V30 1683 H 155.869 1.28728 5.58661 0
M  V30 1684 H 154.266 2.07728 5.63 0
M  V30 1685 H 155.336 2.34798 4.24262 0
M  V30 1686 N 156.679 -1.44442 0.630414 0
M  V30 1687 C 157.609 -2.33418 -0.0618083 0
M  V30 1688 C 158.59 -1.48165 -0.835541 0
M  V30 1689 O 159.775 -1.76886 -0.801564 0
M  V30 1690 C 156.905 -3.31222 -1.04449 0
M  V30 1691 C 155.859 -4.26288 -0.382436 0
M  V30 1692 C 155.185 -5.13954 -1.47497 0
M  V30 1693 C 156.485 -5.1744 0.710865 0
M  V30 1694 H 158.179 -2.91548 0.681184 0
M  V30 1695 H 155.725 -1.40191 0.329026 0
M  V30 1696 H 157.678 -3.92351 -1.53748 0
M  V30 1697 H 156.402 -2.71299 -1.81836 0
M  V30 1698 H 155.061 -3.6649 0.0899054 0
M  V30 1699 H 154.709 -4.50385 -2.2397 0
M  V30 1700 H 154.409 -5.7837 -1.03737 0
M  V30 1701 H 155.933 -5.77955 -1.96979 0
M  V30 1702 H 157.347 -5.72509 0.300996 0
M  V30 1703 H 155.744 -5.90455 1.07156 0
M  V30 1704 H 156.814 -4.58496 1.57829 0
M  V30 1705 N 158.157 -0.370918 -1.53173 0
M  V30 1706 C 159.087 0.464847 -2.28826 0
M  V30 1707 C 160.068 1.07936 -1.31468 0
M  V30 1708 O 161.253 1.0956 -1.60344 0
M  V30 1709 C 158.383 1.60196 -3.08147 0
M  V30 1710 C 157.337 1.11443 -4.13237 0
M  V30 1711 C 156.663 2.3422 -4.80672 0
M  V30 1712 C 157.963 0.195384 -5.21934 0
M  V30 1713 H 159.657 -0.166329 -2.98938 0
M  V30 1714 H 157.203 -0.0814359 -1.4377 0
M  V30 1715 H 159.156 2.19332 -3.59822 0
M  V30 1716 H 157.88 2.26045 -2.35735 0
M  V30 1717 H 156.539 0.545727 -3.62515 0
M  V30 1718 H 156.187 2.98537 -4.04827 0
M  V30 1719 H 155.887 2.02269 -5.51689 0
M  V30 1720 H 157.411 2.94032 -5.35143 0
M  V30 1721 H 158.825 0.694375 -5.69079 0
M  V30 1722 H 157.222 -0.0335027 -6.00091 0
M  V30 1723 H 158.292 -0.760961 -4.78892 0
M  V30 1724 N 159.635 1.57281 -0.100228 0
M  V30 1725 C 160.585 2.10848 0.86759 0
M  V30 1726 C 161.569 1.02473 1.24049 0
M  V30 1727 O 162.761 1.28739 1.21471 0
M  V30 1728 C 159.89 2.69648 2.12474 0
M  V30 1729 C 158.976 3.85074 1.77704 0
M  V30 1730 N 159.367 4.92897 1.13518 0
M  V30 1731 C 157.665 3.94905 2.07282 0
M  V30 1732 C 158.366 5.73475 0.974735 0
M  V30 1733 N 157.342 5.22675 1.4937 0
M  V30 1734 H 161.144 2.91594 0.367471 0
M  V30 1735 H 158.658 1.62074 0.102829 0
M  V30 1736 H 160.655 3.06356 2.82757 0
M  V30 1737 H 159.315 1.90359 2.63047 0
M  V30 1738 H 160.326 5.11662 0.801381 0
M  V30 1739 H 157.003 3.26633 2.60033 0
M  V30 1740 H 158.393 6.70238 0.472364 0
M  V30 1741 N 161.113 -0.173488 1.56642 0
M  V30 1742 C 162.338 -0.910149 1.86363 0
M  V30 1743 C 162.763 -1.75132 0.686318 0
M  V30 1744 O 162.121 -1.77595 -0.364643 0
M  V30 1745 C 162.169 -1.76447 3.14482 0
M  V30 1746 O 161.273 -2.86584 2.96553 0
M  V30 1747 H 160.614 -0.255086 0.613047 0
M  V30 1748 H 163.144 -0.172283 2.03873 0
M  V30 1749 H 163.154 -2.16483 3.45831 0
M  V30 1750 H 161.829 -1.14658 3.99783 0
M  V30 1751 H 160.406 -2.50146 2.76553 0
M  V30 1752 N 162.591 -1.51276 -0.441967 0
M  V30 1753 C 164.007 -1.39349 -0.778083 0
M  V30 1754 C 164.207 -0.472212 -1.95889 0
M  V30 1755 O 163.263 0.0743551 -2.5239 0
M  V30 1756 C 164.576 -2.81292 -1.0628 0
M  V30 1757 C 166.124 -2.9041 -1.16751 0
M  V30 1758 C 166.599 -4.33251 -1.48519 0
M  V30 1759 N 168.09 -4.36336 -1.55453 0
M  V30 1760 C 168.825 -5.43885 -1.81596 0
M  V30 1761 N 168.321 -6.61601 -2.05562 0
M  V30 1762 N 170.114 -5.3136 -1.8334 0
M  V30 1763 H 162.265 -2.09729 0.335774 0
M  V30 1764 H 164.528 -0.943925 0.0878028 0
M  V30 1765 H 164.234 -3.50678 -0.267905 0
M  V30 1766 H 164.108 -3.20334 -1.99163 0
M  V30 1767 H 166.495 -2.21225 -1.95304 0
M  V30 1768 H 166.576 -2.54871 -0.217801 0
M  V30 1769 H 166.22 -5.02984 -0.704958 0
M  V30 1770 H 166.15 -4.66299 -2.44689 0
M  V30 1771 H 168.641 -3.51466 -1.38853 0
M  V30 1772 H 168.954 -7.39361 -2.24867 0
M  V30 1773 H 167.299 -6.64725 -2.02894 0
M  V30 1774 H 170.49 -4.38382 -1.64132 0
M  V30 1775 H 170.663 -6.15258 -2.03377 0
M  V30 1776 N 164.069 0.697108 -1.41344 0
M  V30 1777 C 164.999 1.82353 -1.45841 0
M  V30 1778 C 165.98 1.67115 -0.317247 0
M  V30 1779 O 167.165 1.86871 -0.528474 0
M  V30 1780 C 164.295 3.20476 -1.33838 0
M  V30 1781 C 163.249 3.50415 -2.4575 0
M  V30 1782 C 162.575 4.87878 -2.18813 0
M  V30 1783 C 163.875 3.49546 -3.88091 0
M  V30 1784 H 165.569 1.78846 -2.40113 0
M  V30 1785 H 163.115 0.859028 -1.15571 0
M  V30 1786 H 165.068 3.98988 -1.35596 0
M  V30 1787 H 163.792 3.24604 -0.360498 0
M  V30 1788 H 162.451 2.74253 -2.43271 0
M  V30 1789 H 162.099 4.8863 -1.19371 0
M  V30 1790 H 161.799 5.08875 -2.93803 0
M  V30 1791 H 163.323 5.68702 -2.22284 0
M  V30 1792 H 164.737 4.18066 -3.92293 0
M  V30 1793 H 163.134 3.82075 -4.62751 0
M  V30 1794 H 164.204 2.48552 -4.16353 0
M  V30 1795 N 165.547 1.27147 0.931209 0
M  V30 1796 C 166.772 1.16191 1.71797 0
M  V30 1797 C 167.197 -0.278004 1.86034 0
M  V30 1798 O 166.555 -1.20137 1.35782 0
M  V30 1799 C 166.603 1.84673 3.09723 0
M  V30 1800 O 165.707 1.14231 3.96264 0
M  V30 1801 H 165.048 0.404303 0.526721 0
M  V30 1802 H 167.578 1.68152 1.1656 0
M  V30 1803 H 167.588 1.91893 3.60057 0
M  V30 1804 H 166.263 2.89421 2.98677 0
M  V30 1805 H 164.84 1.15056 3.54706 0
M  V30 1806 N 167.025 -1.13721 1.09112 0
M  V30 1807 C 168.253 -1.88773 0.846899 0
M  V30 1808 C 168.668 -1.7896 -0.601572 0
M  V30 1809 O 168.025 -1.15394 -1.41388 0
M  V30 1810 C 168.076 -3.3849 1.26913 0
M  V30 1811 O 167.797 -3.48043 2.66079 0
M  V30 1812 C 169.298 -4.30518 1.05682 0
M  V30 1813 H 166.518 -0.59772 0.304914 0
M  V30 1814 H 169.062 -1.43977 1.45227 0
M  V30 1815 H 167.217 -3.80881 0.707723 0
M  V30 1816 H 167.631 -4.4109 2.83795 0
M  V30 1817 H 169.105 -5.3391 1.40156 0
M  V30 1818 H 169.582 -4.392 -0.00563416 0
M  V30 1819 H 170.188 -3.93893 1.60402 0
M  V30 1820 N 168.503 -0.877838 -1.30888 0
M  V30 1821 C 169.752 -0.488793 -1.95688 0
M  V30 1822 C 170.065 0.965485 -1.70111 0
M  V30 1823 O 171.271 1.46104 -2.28836 0
M  V30 1824 C 169.727 -0.823201 -3.50359 0
M  V30 1825 C 169.335 -2.29477 -3.84765 0
M  V30 1826 C 171.079 -0.503009 -4.21509 0
M  V30 1827 C 168.986 -2.57118 -5.32583 0
M  V30 1828 H 167.916 -0.179062 -0.732429 0
M  V30 1829 H 170.567 -1.07183 -1.48943 0
M  V30 1830 H 168.949 -0.169331 -3.95638 0
M  V30 1831 H 170.123 -2.99236 -3.5042 0
M  V30 1832 H 168.438 -2.58178 -3.267 0
M  V30 1833 H 171.035 -0.68665 -5.30273 0
M  V30 1834 H 171.378 0.557109 -4.12555 0
M  V30 1835 H 171.911 -1.11376 -3.8189 0
M  V30 1836 H 168.65 -3.61843 -5.4658 0
M  V30 1837 H 168.17 -1.91961 -5.68253 0
M  V30 1838 H 169.849 -2.42251 -5.99936 0
M  V30 1839 N 169.982 1.44106 -0.638065 0
M  V30 1840 C 171.21 2.06336 -0.152615 0
M  V30 1841 C 171.625 1.47731 1.17563 0
M  V30 1842 O 170.982 0.602806 1.72257 0
M  V30 1843 C 171.033 3.61479 -0.0391491 0
M  V30 1844 O 170.754 4.17903 -1.31487 0
M  V30 1845 C 172.255 4.40757 0.474176 0
M  V30 1846 H 169.475 0.665862 -0.0828776 0
M  V30 1847 H 172.019 1.84862 -0.87443 0
M  V30 1848 H 170.174 3.82191 0.633142 0
M  V30 1849 H 170.588 5.11416 -1.16421 0
M  V30 1850 H 172.062 5.49707 0.502562 0
M  V30 1851 H 172.539 4.12697 1.50258 0
M  V30 1852 H 173.145 4.24979 -0.165102 0
M  V30 1853 N 171.46 0.379036 1.52974 0
M  V30 1854 C 172.708 -0.206014 2.01047 0
M  V30 1855 C 173.029 -1.48175 1.26765 0
M  V30 1856 O 172.299 -1.92085 0.384743 0
M  V30 1857 H 170.879 -0.0791184 0.742798 0
M  V30 1858 H 173.541 0.508366 1.88153 0
M  V30 1859 H 172.637 -0.423501 3.09213 0
M  V30 1860 N 172.938 -1.57226 0.108567 0
M  V30 1861 C 174.168 -1.9889 -0.559142 0
M  V30 1862 C 174.576 -0.986889 -1.61422 0
M  V30 1863 O 173.919 0.0298705 -1.83676 0
M  V30 1864 C 173.981 -3.36952 -1.25315 0
M  V30 1865 C 173.645 -4.55679 -0.347248 0
M  V30 1866 C 174.642 -5.18281 0.409996 0
M  V30 1867 C 172.327 -5.0162 -0.261367 0
M  V30 1868 C 174.321 -6.25203 1.24096 0
M  V30 1869 C 172.008 -6.08405 0.573238 0
M  V30 1870 C 173.006 -6.70063 1.32304 0
M  V30 1871 O 172.694 -7.74788 2.14381 0
M  V30 1872 H 172.426 -0.658343 -0.153492 0
M  V30 1873 H 174.98 -2.04532 0.188584 0
M  V30 1874 H 173.21 -3.28032 -2.04773 0
M  V30 1875 H 174.899 -3.62974 -1.81673 0
M  V30 1876 H 175.665 -4.8371 0.353457 0
M  V30 1877 H 171.544 -4.53381 -0.834656 0
M  V30 1878 H 175.088 -6.73259 1.82669 0
M  V30 1879 H 170.985 -6.42406 0.631208 0
M  V30 1880 H 171.753 -7.91837 2.07209 0
M  V30 1881 N 174.416 0.165178 -1.56732 0
M  V30 1882 C 175.348 1.22911 -1.93457 0
M  V30 1883 C 176.361 1.40152 -0.828333 0
M  V30 1884 O 177.55 1.40046 -1.10677 0
M  V30 1885 C 174.65 2.59686 -2.17753 0
M  V30 1886 C 173.823 2.63663 -3.48999 0
M  V30 1887 C 172.882 3.81845 -3.62051 0
M  V30 1888 O 171.908 3.67559 -4.34613 0
M  V30 1889 N 173.11 4.98557 -2.97357 0
M  V30 1890 H 175.875 0.917118 -2.85323 0
M  V30 1891 H 173.436 0.354895 -1.57962 0
M  V30 1892 H 175.428 3.37225 -2.23743 0
M  V30 1893 H 173.998 2.83251 -1.32242 0
M  V30 1894 H 173.218 1.72173 -3.54612 0
M  V30 1895 H 174.506 2.63336 -4.35352 0
M  V30 1896 H 173.904 5.13065 -2.38287 0
M  V30 1897 H 172.461 5.73936 -3.08934 0
M  V30 1898 N 175.894 1.51508 0.433938 0
M  V30 1899 C 176.841 1.73068 1.52696 0
M  V30 1900 C 177.811 0.572441 1.55924 0
M  V30 1901 O 178.996 0.807253 1.72882 0
M  V30 1902 C 176.136 1.86474 2.90381 0
M  V30 1903 C 175.249 3.14037 2.96656 0
M  V30 1904 C 174.384 3.18019 4.25485 0
M  V30 1905 C 173.423 4.39882 4.2564 0
M  V30 1906 N 172.56 4.41394 5.45999 0
M  V30 1907 H 177.4 2.66366 1.33615 0
M  V30 1908 H 174.937 1.32008 0.649018 0
M  V30 1909 H 176.895 1.92229 3.70275 0
M  V30 1910 H 175.525 0.965809 3.08013 0
M  V30 1911 H 174.577 3.17575 2.09404 0
M  V30 1912 H 175.889 4.0394 2.92633 0
M  V30 1913 H 175.043 3.22708 5.13755 0
M  V30 1914 H 173.782 2.2601 4.3217 0
M  V30 1915 H 172.787 4.35366 3.35763 0
M  V30 1916 H 174.012 5.33159 4.20617 0
M  V30 1917 H 171.958 3.52258 5.53399 0
M  V30 1918 H 171.875 5.25111 5.4387 0
M  V30 1919 H 173.143 4.50281 6.36292 0
M  V30 1920 N 177.372 -0.689602 1.41712 0
M  V30 1921 C 178.618 -1.45181 1.41599 0
M  V30 1922 C 178.951 -1.94181 0.0270081 0
M  V30 1923 O 178.226 -1.6993 -0.946265 0
M  V30 1924 C 178.509 -2.65945 2.42787 0
M  V30 1925 C 178.362 -2.22672 3.90816 0
M  V30 1926 C 179.681 -3.68149 2.41151 0
M  V30 1927 H 176.8 -0.526576 0.515642 0
M  V30 1928 H 179.442 -0.784947 1.73028 0
M  V30 1929 H 177.592 -3.2284 2.16116 0
M  V30 1930 H 179.264 -1.71058 4.28412 0
M  V30 1931 H 177.507 -1.54394 4.05395 0
M  V30 1932 H 178.178 -3.0935 4.57172 0
M  V30 1933 H 180.654 -3.2094 2.64834 0
M  V30 1934 H 179.53 -4.50248 3.13955 0
M  V30 1935 H 179.791 -4.18259 1.43221 0
M  V30 1936 N 178.85 -1.27639 -0.924453 0
M  V30 1937 C 180.096 -1.14336 -1.67497 0
M  V30 1938 C 180.429 0.309465 -1.91718 0
M  V30 1939 O 179.704 1.22608 -1.50989 0
M  V30 1940 C 179.987 -1.93096 -3.0395 0
M  V30 1941 C 179.84 -3.46381 -2.8695 0
M  V30 1942 C 181.159 -1.73798 -4.0433 0
M  V30 1943 H 178.278 -0.416728 -0.607871 0
M  V30 1944 H 180.92 -1.56832 -1.07256 0
M  V30 1945 H 179.07 -1.56982 -3.55372 0
M  V30 1946 H 180.742 -3.92343 -2.42621 0
M  V30 1947 H 178.985 -3.72557 -2.22225 0
M  V30 1948 H 179.656 -3.96735 -3.83804 0
M  V30 1949 H 182.132 -2.05293 -3.61931 0
M  V30 1950 H 181.008 -2.31294 -4.97789 0
M  V30 1951 H 181.269 -0.686725 -4.36734 0
M  V30 1952 N 180.328 1.1314 -1.09713 0
M  V30 1953 C 181.568 1.8613 -0.844683 0
M  V30 1954 C 181.932 1.81765 0.618491 0
M  V30 1955 O 183.133 2.50024 0.98699 0
M  V30 1956 C 181.404 3.30151 -1.36877 0
M  V30 1957 S 182.963 4.206 -1.25064 0
M  V30 1958 H 179.781 0.642056 -0.305427 0
M  V30 1959 H 182.383 1.36343 -1.4011 0
M  V30 1960 H 181.087 3.30883 -2.42786 0
M  V30 1961 H 180.618 3.85 -0.808614 0
M  V30 1962 H 182.633 4.95783 -0.203486 0
M  V30 1963 N 181.806 0.884767 1.30421 0
M  V30 1964 C 182.716 0.355398 2.31892 0
M  V30 1965 C 183.732 -0.542261 1.65335 0
M  V30 1966 O 184.908 -0.435432 1.96637 0
M  V30 1967 C 181.973 -0.421661 3.44126 0
M  V30 1968 C 181.034 0.505727 4.26311 0
M  V30 1969 C 180.267 -0.234343 5.33185 0
M  V30 1970 O 180.49 -1.46045 5.51386 0
M  V30 1971 O 179.424 0.415443 6.00465 0
M  V30 1972 H 183.25 1.19685 2.79122 0
M  V30 1973 H 180.835 0.648596 1.34587 0
M  V30 1974 H 182.717 -0.861641 4.12497 0
M  V30 1975 H 181.392 -1.23942 2.99032 0
M  V30 1976 H 180.299 0.994513 3.60639 0
M  V30 1977 H 181.632 1.28948 4.75009 0
M  V30 1978 N 183.284 -1.43765 0.645699 0
M  V30 1979 C 184.194 -2.34544 -0.0512957 0
M  V30 1980 C 185.21 -1.53455 -0.82022 0
M  V30 1981 O 186.386 -1.86133 -0.769176 0
M  V30 1982 C 183.451 -3.31636 -1.01087 0
M  V30 1983 C 182.512 -4.2863 -0.239712 0
M  V30 1984 C 181.745 -5.21084 -1.15358 0
M  V30 1985 O 181.968 -5.1779 -2.39269 0
M  V30 1986 O 180.902 -5.98593 -0.630038 0
M  V30 1987 H 184.728 -2.95624 0.695718 0
M  V30 1988 H 182.313 -1.43781 0.405882 0
M  V30 1989 H 184.195 -3.9136 -1.56254 0
M  V30 1990 H 182.87 -2.73069 -1.73824 0
M  V30 1991 H 181.777 -3.72408 0.355356 0
M  V30 1992 H 183.11 -4.90157 0.447936 0
M  V30 1993 N 184.763 -0.387143 -1.52771 0
M  V30 1994 C 185.713 0.465942 -2.23188 0
M  V30 1995 C 186.697 1.03138 -1.23496 0
M  V30 1996 O 187.889 0.957845 -1.48843 0
M  V30 1997 C 185.018 1.59384 -3.04059 0
M  V30 1998 C 184.104 1.04024 -4.11144 0
M  V30 1999 N 184.495 0.211416 -5.05358 0
M  V30 2000 C 182.793 1.31295 -4.26237 0
M  V30 2001 C 183.494 -0.0941698 -5.81624 0
M  V30 2002 N 182.47 0.509207 -5.4121 0
M  V30 2003 H 186.272 -0.173856 -2.93385 0
M  V30 2004 H 183.786 -0.19633 -1.61209 0
M  V30 2005 H 185.783 2.21738 -3.53041 0
M  V30 2006 H 184.443 2.23648 -2.35397 0
M  V30 2007 H 185.454 -0.151151 -5.17679 0
M  V30 2008 H 182.131 1.95679 -3.68803 0
M  V30 2009 H 183.521 -0.765572 -6.67524 0
M  V30 2010 N 186.241 1.57166 -0.116904 0
M  V30 2011 C 187.652 1.82169 0.408809 0
M  V30 2012 C 188.003 1.03393 1.66746 0
M  V30 2013 O 187.128 0.269886 2.1471 0
M  V30 2014 C 187.723 3.30429 0.748466 0
M  V30 2015 C 186.282 3.5612 1.21882 0
M  V30 2016 C 185.429 2.76374 0.226452 0
M  V30 2017 H 188.38 1.5497 -0.342063 0
M  V30 2018 H 188.401 3.44943 1.60607 0
M  V30 2019 H 187.913 3.87737 -0.167784 0
M  V30 2020 H 186.014 3.04168 2.15204 0
M  V30 2021 H 186.127 4.64705 1.16559 0
M  V30 2022 H 184.491 2.44515 0.713063 0
M  V30 2023 H 185.274 3.3644 -0.682859 0
M  V30 2024 N 187.719 -0.156864 1.56817 0
M  V30 2025 C 188.996 -0.899244 1.73704 0
M  V30 2026 C 189.376 -1.99771 0.682254 0
M  V30 2027 O 188.724 -2.26515 -0.300522 0
M  V30 2028 C 188.934 -1.45075 3.17418 0
M  V30 2029 C 190.282 -1.91802 3.7881 0
M  V30 2030 O 191.306 -1.54838 3.20786 0
M  V30 2031 O 190.165 -2.5994 4.80722 0
M  V30 2032 H 187.259 -0.424267 0.709878 0
M  V30 2033 H 189.805 -0.143561 1.69092 0
M  V30 2034 H 188.577 -0.660846 3.85679 0
M  V30 2035 H 188.2 -2.27021 3.26416 0
M  V30 2036 N 189.197 -1.51736 -0.425897 0
M  V30 2037 C 190.443 -1.65214 -1.1761 0
M  V30 2038 C 190.776 -0.372778 -1.90589 0
M  V30 2039 O 190.051 0.628139 -1.84078 0
M  V30 2040 C 190.334 -2.86312 -2.18398 0
M  V30 2041 C 190.187 -4.24254 -1.49426 0
M  V30 2042 C 191.506 -3.02925 -3.19256 0
M  V30 2043 H 188.625 -0.601263 -0.426206 0
M  V30 2044 H 191.267 -1.8425 -0.463882 0
M  V30 2045 H 189.417 -2.70213 -2.79137 0
M  V30 2046 H 191.089 -4.52046 -0.919362 0
M  V30 2047 H 189.332 -4.26426 -0.796432 0
M  V30 2048 H 190.003 -5.05001 -2.22885 0
M  V30 2049 H 192.479 -3.1781 -2.68581 0
M  V30 2050 H 191.355 -3.89199 -3.8706 0
M  V30 2051 H 191.616 -2.15497 -3.86023 0
M  V30 2052 N 190.675 0.682077 -1.42076 0
M  V30 2053 C 191.903 1.47057 -1.4554 0
M  V30 2054 C 192.318 1.8869 -0.0645779 0
M  V30 2055 O 191.675 1.57666 0.919115 0
M  V30 2056 C 191.726 2.72442 -2.37609 0
M  V30 2057 O 191.447 2.32559 -3.71279 0
M  V30 2058 C 192.948 3.66069 -2.50017 0
M  V30 2059 H 190.168 0.452737 -0.495248 0
M  V30 2060 H 192.712 0.838695 -1.8651 0
M  V30 2061 H 190.867 3.31835 -1.9991 0
M  V30 2062 H 191.281 3.13475 -4.20516 0
M  V30 2063 H 192.755 4.50792 -3.18576 0
M  V30 2064 H 193.232 4.11476 -1.53572 0
M  V30 2065 H 193.838 3.12572 -2.88407 0
M  V30 2066 N 192.153 1.28127 0.917671 0
M  V30 2067 C 193.083 1.14248 2.03641 0
M  V30 2068 C 194.064 0.0412748 1.7005 0
M  V30 2069 O 195.249 0.217566 1.92977 0
M  V30 2070 C 192.379 0.799431 3.37974 0
M  V30 2071 C 191.333 1.85497 3.85713 0
M  V30 2072 C 190.659 1.36565 5.16966 0
M  V30 2073 C 191.959 3.26085 4.08002 0
M  V30 2074 H 193.653 2.07835 2.15511 0
M  V30 2075 H 191.199 1.00064 1.03553 0
M  V30 2076 H 193.152 0.689114 4.15727 0
M  V30 2077 H 191.876 -0.172145 3.26146 0
M  V30 2078 H 190.535 1.95437 3.10161 0
M  V30 2079 H 190.183 0.383253 5.01538 0
M  V30 2080 H 189.883 2.07143 5.49878 0
M  V30 2081 H 191.407 1.26848 5.97279 0
M  V30 2082 H 192.821 3.19089 4.76293 0
M  V30 2083 H 191.218 3.94462 4.52238 0
M  V30 2084 H 192.288 3.70394 3.12948 0
M  V30 2085 N 193.631 -1.12557 1.10312 0
M  V30 2086 C 194.88 -1.83395 0.839588 0
M  V30 2087 C 195.193 -1.84939 -0.636929 0
M  V30 2088 O 196.399 -2.51761 -1.01631 0
M  V30 2089 C 194.855 -3.29303 1.45215 0
M  V30 2090 C 194.463 -3.36122 2.96186 0
M  V30 2091 C 196.207 -4.05121 1.26796 0
M  V30 2092 C 194.114 -4.76357 3.50483 0
M  V30 2093 H 193.044 -0.687133 0.310425 0
M  V30 2094 H 195.695 -1.26746 1.32694 0
M  V30 2095 H 194.077 -3.85812 0.892469 0
M  V30 2096 H 195.251 -2.89559 3.58458 0
M  V30 2097 H 193.566 -2.73776 3.13745 0
M  V30 2098 H 196.163 -5.08668 1.64806 0
M  V30 2099 H 196.506 -4.15773 0.209409 0
M  V30 2100 H 197.039 -3.54967 1.79563 0
M  V30 2101 H 193.778 -4.70899 4.55998 0
M  V30 2102 H 193.298 -5.23377 2.92978 0
M  V30 2103 H 194.977 -5.45294 3.48228 0
M  V30 2104 N 195.109 -0.891671 -1.2995 0
M  V30 2105 C 196.358 -0.509521 -1.95158 0
M  V30 2106 C 196.671 0.947388 -1.71125 0
M  V30 2107 O 197.877 1.43669 -2.30372 0
M  V30 2108 C 196.333 -0.860315 -3.49466 0
M  V30 2109 C 195.941 -2.33545 -3.8231 0
M  V30 2110 C 197.685 -0.547687 -4.20952 0
M  V30 2111 C 195.592 -2.62752 -5.29826 0
M  V30 2112 H 194.522 -0.18682 -0.730489 0
M  V30 2113 H 197.173 -1.08756 -1.47798 0
M  V30 2114 H 195.555 -0.211285 -3.95436 0
M  V30 2115 H 196.729 -3.02936 -3.47227 0
M  V30 2116 H 195.044 -2.61629 -3.23944 0
M  V30 2117 H 197.641 -0.742854 -5.29515 0
M  V30 2118 H 197.984 0.51332 -4.13123 0
M  V30 2119 H 198.517 -1.1542 -3.80688 0
M  V30 2120 H 195.256 -3.6762 -5.42712 0
M  V30 2121 H 194.776 -1.97977 -5.66185 0
M  V30 2122 H 196.455 -2.48601 -5.97333 0
M  V30 2123 N 196.587 1.43421 -0.653314 0
M  V30 2124 C 197.864 1.95361 -0.0966581 0
M  V30 2125 C 198.244 1.59461 1.38331 0
M  V30 2126 O 197.592 0.879777 2.10884 0
M  V30 2127 C 197.802 3.47311 -0.342988 0
M  V30 2128 C 199.15 4.23875 -0.24798 0
M  V30 2129 O 200.174 3.55133 -0.275553 0
M  V30 2130 O 199.033 5.4623 -0.171771 0
M  V30 2131 H 196.127 0.826945 0.00956291 0
M  V30 2132 H 198.673 1.5336 -0.726558 0
M  V30 2133 H 197.445 3.66569 -1.36906 0
M  V30 2134 H 197.068 3.9631 0.319975 0
M  V30 2135 N 198.065 0.39524 1.52563 0
M  V30 2136 C 199.481 0.0454682 1.59535 0
M  V30 2137 C 199.681 -1.44056 1.4089 0
M  V30 2138 O 198.737 -2.20579 1.22888 0
M  V30 2139 C 200.05 0.527963 2.96029 0
M  V30 2140 C 201.598 0.484733 3.09224 0
M  V30 2141 C 202.073 0.943512 4.48176 0
M  V30 2142 N 203.564 0.899765 4.54377 0
M  V30 2143 C 204.299 1.22609 5.60138 0
M  V30 2144 N 203.795 1.62319 6.73516 0
M  V30 2145 N 205.588 1.14696 5.50274 0
M  V30 2146 H 197.739 1.36261 1.62931 0
M  V30 2147 H 200.002 0.558887 0.765735 0
M  V30 2148 H 199.708 1.56607 3.14908 0
M  V30 2149 H 199.582 -0.0698056 3.77135 0
M  V30 2150 H 201.969 -0.544298 2.90037 0
M  V30 2151 H 202.05 1.11838 2.30056 0
M  V30 2152 H 201.694 1.9708 4.68104 0
M  V30 2153 H 201.624 0.286817 5.25818 0
M  V30 2154 H 204.115 0.607632 3.72983 0
M  V30 2155 H 204.428 1.85567 7.5019 0
M  V30 2156 H 202.773 1.66211 6.74833 0
M  V30 2157 H 205.964 0.835701 4.6058 0
M  V30 2158 H 206.137 1.40459 6.32594 0
M  V30 2159 N 199.544 -1.57102 0.125237 0
M  V30 2160 C 200.494 -2.12202 -0.833936 0
M  V30 2161 C 201.478 -1.04433 -1.22403 0
M  V30 2162 O 202.67 -1.30655 -1.19408 0
M  V30 2163 C 199.799 -2.72994 -2.08157 0
M  V30 2164 C 198.885 -3.87852 -1.71556 0
M  V30 2165 N 199.276 -4.9464 -1.05662 0
M  V30 2166 C 197.574 -3.98153 -2.00973 0
M  V30 2167 C 198.275 -5.74953 -0.883376 0
M  V30 2168 N 197.251 -5.24985 -1.41036 0
M  V30 2169 H 201.053 -2.92141 -0.321035 0
M  V30 2170 H 198.567 -1.62217 -0.0770315 0
M  V30 2171 H 200.564 -3.10816 -2.77847 0
M  V30 2172 H 199.224 -1.9452 -2.59985 0
M  V30 2173 H 200.235 -5.12872 -0.719878 0
M  V30 2174 H 196.912 -3.30728 -2.54804 0
M  V30 2175 H 198.302 -6.70904 -0.365675 0
M  V30 2176 N 201.022 0.148545 -1.56898 0
M  V30 2177 C 202.433 0.708766 -1.72723 0
M  V30 2178 C 202.784 1.81734 -0.739395 0
M  V30 2179 O 201.909 2.16194 0.0943169 0
M  V30 2180 C 202.504 1.29245 -3.13179 0
M  V30 2181 C 201.063 1.79925 -3.30611 0
M  V30 2182 C 200.21 0.687111 -2.68652 0
M  V30 2183 H 203.161 -0.0771063 -1.58513 0
M  V30 2184 H 203.182 2.16224 -3.13093 0
M  V30 2185 H 202.694 0.485382 -3.85053 0
M  V30 2186 H 200.795 2.63203 -2.63732 0
M  V30 2187 H 200.908 1.92903 -4.38549 0
M  V30 2188 H 199.272 1.11335 -2.29078 0
M  V30 2189 H 200.055 -0.108483 -3.43129 0
M  V30 2190 N 202.5 1.5196 0.417844 0
M  V30 2191 C 203.43 1.77634 1.51554 0
M  V30 2192 C 204.411 0.626918 1.58126 0
M  V30 2193 O 205.596 0.871632 1.7354 0
M  V30 2194 C 202.726 1.91911 2.8946 0
M  V30 2195 C 201.68 3.07463 2.97743 0
M  V30 2196 C 201.006 3.06951 4.37819 0
M  V30 2197 C 202.306 4.47082 2.70027 0
M  V30 2198 H 204 2.6955 1.3032 0
M  V30 2199 H 201.546 1.29706 0.625492 0
M  V30 2200 H 203.499 2.08455 3.6623 0
M  V30 2201 H 202.223 0.966598 3.11969 0
M  V30 2202 H 200.882 2.90656 2.23416 0
M  V30 2203 H 200.53 2.09438 4.57323 0
M  V30 2204 H 200.23 3.84556 4.44286 0
M  V30 2205 H 201.754 3.25613 5.16535 0
M  V30 2206 H 203.168 4.6414 3.36522 0
M  V30 2207 H 201.565 5.2654 2.87881 0
M  V30 2208 H 202.635 4.55777 1.65514 0
M  V30 2209 N 203.978 -0.674533 1.42435 0
M  V30 2210 C 204.941 -1.76986 1.45632 0
M  V30 2211 C 205.941 -1.5708 0.343871 0
M  V30 2212 O 207.131 -1.63367 0.604709 0
M  V30 2213 C 204.263 -3.15623 1.28822 0
M  V30 2214 H 205.456 -1.75539 2.43158 0
M  V30 2215 H 203.009 -0.884189 1.28887 0
M  V30 2216 H 203.744 -3.22696 0.322193 0
M  V30 2217 H 203.529 -3.31475 2.09444 0
M  V30 2218 H 205.019 -3.95537 1.33942 0
M  V30 2219 N 205.456 -1.28612 -0.910864 0
M  V30 2220 C 206.681 -1.1891 -1.69927 0
M  V30 2221 C 207.106 0.248372 -1.86453 0
M  V30 2222 O 206.464 1.17961 -1.37676 0
M  V30 2223 C 206.512 -1.89578 -3.06745 0
M  V30 2224 O 205.616 -1.20521 -3.94396 0
M  V30 2225 H 204.957 -0.412632 -0.520222 0
M  V30 2226 H 207.487 -1.69985 -1.1387 0
M  V30 2227 H 207.497 -1.97597 -3.56958 0
M  V30 2228 H 206.172 -2.94136 -2.94035 0
M  V30 2229 H 204.749 -1.20684 -3.52831 0
M  V30 2230 N 206.934 1.1197 -1.10907 0
M  V30 2231 C 207.864 2.19928 -0.784473 0
M  V30 2232 C 208.845 1.6833 0.244726 0
M  V30 2233 O 210.03 1.93892 0.109418 0
M  V30 2234 C 207.16 3.46597 -0.220827 0
M  V30 2235 C 206.114 4.11376 -1.18127 0
M  V30 2236 C 205.44 5.32554 -0.478594 0
M  V30 2237 C 206.74 4.56945 -2.52979 0
M  V30 2238 H 208.434 2.47337 -1.68715 0
M  V30 2239 H 205.98 1.18879 -0.812642 0
M  V30 2240 H 207.933 4.21396 0.0184278 0
M  V30 2241 H 206.657 3.1863 0.717113 0
M  V30 2242 H 205.316 3.38564 -1.40606 0
M  V30 2243 H 204.964 5.00856 0.463976 0
M  V30 2244 H 204.664 5.76844 -1.11912 0
M  V30 2245 H 206.188 6.10096 -0.248 0
M  V30 2246 H 207.602 5.23093 -2.3462 0
M  V30 2247 H 205.999 5.1203 -3.12962 0
M  V30 2248 H 207.069 3.70676 -3.12614 0
M  V30 2249 N 208.412 0.89855 1.29475 0
M  V30 2250 C 209.658 0.524658 1.95896 0
M  V30 2251 C 209.991 -0.926468 1.70676 0
M  V30 2252 O 209.266 -1.65665 1.01908 0
M  V30 2253 C 209.549 0.81633 3.50725 0
M  V30 2254 C 209.402 2.31907 3.85408 0
M  V30 2255 C 210.721 0.302038 4.39062 0
M  V30 2256 H 207.84 0.19209 0.711527 0
M  V30 2257 H 210.482 1.12502 1.53112 0
M  V30 2258 H 208.632 0.305369 3.87298 0
M  V30 2259 H 210.304 2.89949 3.58786 0
M  V30 2260 H 208.547 2.78027 3.32992 0
M  V30 2261 H 209.218 2.47373 4.93468 0
M  V30 2262 H 211.694 0.739551 4.09475 0
M  V30 2263 H 210.57 0.535331 5.46283 0
M  V30 2264 H 210.831 -0.797216 4.34853 0
M  V30 2265 N 209.89 -1.43072 0.660911 0
M  V30 2266 C 211.13 -2.03596 0.181146 0
M  V30 2267 C 211.494 -1.51057 -1.18515 0
M  V30 2268 O 212.695 -2.03275 -1.75877 0
M  V30 2269 C 210.966 -3.56845 0.19911 0
M  V30 2270 S 212.525 -4.38289 -0.211684 0
M  V30 2271 H 209.343 -0.706954 0.0757479 0
M  V30 2272 H 211.945 -1.75027 0.870965 0
M  V30 2273 H 210.649 -3.92583 1.1961 0
M  V30 2274 H 210.18 -3.90067 -0.510996 0
M  V30 2275 H 212.195 -4.74583 -1.44863 0
M  V30 2276 N 211.368 -0.403325 -1.52352 0
M  V30 2277 C 212.615 0.174347 -2.01748 0
M  V30 2278 C 212.943 1.45636 -1.2892 0
M  V30 2279 O 212.198 1.9193 -0.382258 0
M  V30 2280 C 212.497 0.474665 -3.54234 0
M  V30 2281 C 212.163 -0.717458 -4.45155 0
M  V30 2282 C 210.825 -1.04447 -4.69728 0
M  V30 2283 C 213.177 -1.51432 -4.98716 0
M  V30 2284 C 210.505 -2.16963 -5.45109 0
M  V30 2285 C 212.857 -2.6302 -5.75329 0
M  V30 2286 C 211.521 -2.96213 -5.98175 0
M  V30 2287 H 210.791 0.0637981 -0.738248 0
M  V30 2288 H 213.438 -0.543553 -1.83624 0
M  V30 2289 H 211.743 1.27406 -3.70506 0
M  V30 2290 H 213.44 0.934496 -3.89959 0
M  V30 2291 H 210.03 -0.452596 -4.26204 0
M  V30 2292 H 214.214 -1.27491 -4.79645 0
M  V30 2293 H 209.47 -2.43034 -5.61021 0
M  V30 2294 H 213.644 -3.25158 -6.15829 0
M  V30 2295 H 211.271 -3.83516 -6.56368 0
M  V30 2296 N 212.846 1.57033 -0.133567 0
M  V30 2297 C 214.257 1.82593 0.389464 0
M  V30 2298 C 214.608 1.05156 1.6564 0
M  V30 2299 O 213.733 0.292644 2.14412 0
M  V30 2300 C 214.328 3.31204 0.713377 0
M  V30 2301 C 212.887 3.57393 1.18098 0
M  V30 2302 C 212.034 2.76598 0.197126 0
M  V30 2303 H 214.985 1.54598 -0.358481 0
M  V30 2304 H 215.006 3.46627 1.56939 0
M  V30 2305 H 214.518 3.87537 -0.2089 0
M  V30 2306 H 212.619 3.06433 2.11966 0
M  V30 2307 H 212.732 4.65915 1.11624 0
M  V30 2308 H 211.096 2.45257 0.687088 0
M  V30 2309 H 211.879 3.35697 -0.718504 0
M  V30 2310 N 214.325 -0.140222 1.56975 0
M  V30 2311 C 215.255 -1.17456 2.01808 0
M  V30 2312 C 216.236 -1.44415 0.898794 0
M  V30 2313 O 217.421 -1.5522 1.16707 0
M  V30 2314 C 214.551 -2.50607 2.40444 0
M  V30 2315 C 213.505 -2.38155 3.55621 0
M  V30 2316 C 212.831 -3.76078 3.80091 0
M  V30 2317 C 214.131 -1.85991 4.88062 0
M  V30 2318 H 215.825 -0.801743 2.88466 0
M  V30 2319 H 213.371 -0.38422 1.38779 0
M  V30 2320 H 215.324 -3.23197 2.7041 0
M  V30 2321 H 214.048 -2.89737 1.50732 0
M  V30 2322 H 212.707 -1.68016 3.25832 0
M  V30 2323 H 212.355 -4.12656 2.87618 0
M  V30 2324 H 212.055 -3.68606 4.57606 0
M  V30 2325 H 213.579 -4.50206 4.12488 0
M  V30 2326 H 214.993 -2.4838 5.16701 0
M  V30 2327 H 213.39 -1.89393 5.6943 0
M  V30 2328 H 214.46 -0.816023 4.77984 0
M  V30 2329 N 215.803 -1.52179 -0.40978 0
M  V30 2330 C 216.766 -1.74853 -1.48186 0
M  V30 2331 C 217.766 -0.618417 -1.48433 0
M  V30 2332 O 218.956 -0.886286 -1.49969 0
M  V30 2333 C 216.088 -1.8303 -2.87598 0
M  V30 2334 H 217.281 -2.70559 -1.29374 0
M  V30 2335 H 214.834 -1.42586 -0.640233 0
M  V30 2336 H 215.569 -0.89236 -3.11781 0
M  V30 2337 H 215.354 -2.65187 -2.88822 0
M  V30 2338 H 216.844 -2.02316 -3.65319 0
M  V30 2339 N 217.281 0.66697 -1.42791 0
M  V30 2340 C 218.697 0.981027 -1.25889 0
M  V30 2341 C 218.897 2.00793 -0.168695 0
M  V30 2342 O 217.953 2.48321 0.45747 0
M  V30 2343 C 219.266 1.47838 -2.61848 0
M  V30 2344 C 220.814 1.59575 -2.69267 0
M  V30 2345 C 221.289 2.12704 -4.05612 0
M  V30 2346 N 222.78 2.20026 -4.07606 0
M  V30 2347 C 223.515 2.62227 -5.09926 0
M  V30 2348 N 223.011 3.03824 -6.22626 0
M  V30 2349 N 224.804 2.62045 -4.97281 0
M  V30 2350 H 216.955 -0.0127891 -2.12396 0
M  V30 2351 H 219.218 0.0568258 -0.946295 0
M  V30 2352 H 218.924 0.798299 -3.4252 0
M  V30 2353 H 218.798 2.45579 -2.86305 0
M  V30 2354 H 221.185 2.26687 -1.88936 0
M  V30 2355 H 221.266 0.60302 -2.48591 0
M  V30 2356 H 220.91 1.46198 -4.86404 0
M  V30 2357 H 220.84 3.12782 -4.23645 0
M  V30 2358 H 223.331 1.90708 -3.2625 0
M  V30 2359 H 223.644 3.34734 -6.96544 0
M  V30 2360 H 221.989 3.01662 -6.26119 0
M  V30 2361 H 225.18 2.28916 -4.08308 0
M  V30 2362 H 225.353 2.94613 -5.77154 0
M  V30 2363 N 218.759 1.29093 0.90403 0
M  V30 2364 C 219.989 1.19516 1.68522 0
M  V30 2365 C 220.397 -0.24738 1.87576 0
M  V30 2366 O 219.74 -1.17798 1.40959 0
M  V30 2367 C 219.802 1.83249 3.0929 0
M  V30 2368 C 219.466 3.32531 3.13484 0
M  V30 2369 C 220.463 4.28821 2.93953 0
M  V30 2370 C 218.148 3.73656 3.35688 0
M  V30 2371 C 220.142 5.64212 2.96553 0
M  V30 2372 C 217.829 5.0917 3.37919 0
M  V30 2373 C 218.827 6.04258 3.18373 0
M  V30 2374 O 218.515 7.37298 3.20385 0
M  V30 2375 H 218.247 0.415467 0.533257 0
M  V30 2376 H 220.801 1.70912 1.13922 0
M  V30 2377 H 219.031 1.26358 3.65473 0
M  V30 2378 H 220.72 1.68054 3.69476 0
M  V30 2379 H 221.486 3.98382 2.76616 0
M  V30 2380 H 217.365 3.00101 3.49943 0
M  V30 2381 H 220.909 6.38407 2.81216 0
M  V30 2382 H 216.806 5.39256 3.54787 0
M  V30 2383 H 217.574 7.46048 3.36681 0
M  V30 2384 N 220.237 -1.11381 1.11499 0
M  V30 2385 C 221.484 -1.83132 0.864231 0
M  V30 2386 C 221.812 -1.84683 -0.610114 0
M  V30 2387 O 221.067 -1.29589 -1.46646 0
M  V30 2388 C 221.366 -3.30026 1.37177 0
M  V30 2389 C 221.032 -3.48634 2.85946 0
M  V30 2390 C 219.694 -3.53421 3.26569 0
M  V30 2391 C 222.046 -3.54837 3.81759 0
M  V30 2392 C 219.374 -3.61967 4.61733 0
M  V30 2393 C 221.726 -3.64915 5.1674 0
M  V30 2394 C 220.39 -3.67962 5.5692 0
M  V30 2395 H 219.66 -0.670127 0.316245 0
M  V30 2396 H 222.307 -1.31354 1.3935 0
M  V30 2397 H 220.612 -3.84304 0.762753 0
M  V30 2398 H 222.309 -3.84034 1.15408 0
M  V30 2399 H 218.899 -3.45579 2.53521 0
M  V30 2400 H 223.083 -3.50399 3.51474 0
M  V30 2401 H 218.339 -3.62603 4.92269 0
M  V30 2402 H 222.513 -3.68658 5.90816 0
M  V30 2403 H 220.14 -3.74336 6.61647 0
M  V30 2404 N 221.715 -0.905404 -1.28997 0
M  V30 2405 C 222.961 -0.535039 -1.95615 0
M  V30 2406 C 223.294 0.917404 -1.71165 0
M  V30 2407 O 222.569 1.65123 -1.02785 0
M  V30 2408 C 222.852 -0.834918 -3.50287 0
M  V30 2409 C 222.705 -2.33948 -3.84172 0
M  V30 2410 C 224.024 -0.325318 -4.38896 0
M  V30 2411 H 221.143 -0.195861 -0.710498 0
M  V30 2412 H 223.785 -1.13313 -1.52513 0
M  V30 2413 H 221.935 -0.325904 -3.87131 0
M  V30 2414 H 223.607 -2.91847 -3.57243 0
M  V30 2415 H 221.85 -2.79789 -3.31513 0
M  V30 2416 H 222.521 -2.49987 -4.92149 0
M  V30 2417 H 224.997 -0.761256 -4.09077 0
M  V30 2418 H 223.873 -0.564295 -5.45992 0
M  V30 2419 H 224.134 0.774144 -4.35269 0
M  V30 2420 N 223.193 1.4272 -0.668489 0
M  V30 2421 C 224.441 2.01226 -0.187769 0
M  V30 2422 C 224.762 1.53092 1.2078 0
M  V30 2423 O 224.032 0.74993 1.80977 0
M  V30 2424 H 222.612 0.744041 -0.0664272 0
M  V30 2425 H 225.274 1.74723 -0.863583 0
M  V30 2426 H 224.37 3.11556 -0.184166 0
M  V30 2427 N 224.671 0.411399 1.52136 0
M  V30 2428 C 225.948 -0.222308 1.94333 0
M  V30 2429 C 226.328 -1.6242 1.34844 0
M  V30 2430 O 225.676 -2.22384 0.525145 0
M  V30 2431 C 225.886 -0.226345 3.48265 0
M  V30 2432 C 227.234 -0.444592 4.22266 0
M  V30 2433 O 228.258 -0.305602 3.54887 0
M  V30 2434 O 227.117 -0.718749 5.41753 0
M  V30 2435 H 224.211 -0.143907 0.814383 0
M  V30 2436 H 226.757 0.467506 1.63133 0
M  V30 2437 H 225.529 0.75475 3.83952 0
M  V30 2438 H 225.152 -0.960163 3.85832 0
M  V30 2439 N 226.149 -1.5696 0.141893 0
M  V30 2440 C 227.082 -2.12271 -0.837627 0
M  V30 2441 C 228.06 -1.04495 -1.24578 0
M  V30 2442 O 229.244 -1.32293 -1.34278 0
M  V30 2443 C 226.371 -2.63822 -2.12404 0
M  V30 2444 C 225.417 -3.83698 -1.86221 0
M  V30 2445 S 226.25 -5.24948 -1.05781 0
M  V30 2446 C 227.406 -5.79884 -2.35552 0
M  V30 2447 H 227.639 -2.95023 -0.367249 0
M  V30 2448 H 225.172 -1.54231 -0.0723014 0
M  V30 2449 H 227.13 -2.94175 -2.86307 0
M  V30 2450 H 225.791 -1.8121 -2.56557 0
M  V30 2451 H 224.984 -4.17995 -2.81596 0
M  V30 2452 H 224.586 -3.5408 -1.20429 0
M  V30 2453 H 226.878 -5.91005 -3.31239 0
M  V30 2454 H 227.821 -6.77544 -2.05767 0
M  V30 2455 H 228.229 -5.08095 -2.45967 0
M  V30 2456 N 227.627 0.131896 -1.57047 0
M  V30 2457 C 228.855 0.856461 -1.88341 0
M  V30 2458 C 229.27 1.74042 -0.731757 0
M  V30 2459 O 228.627 1.80051 0.297945 0
M  V30 2460 C 228.678 1.70064 -3.18999 0
M  V30 2461 O 228.399 0.852278 -4.2973 0
M  V30 2462 C 229.9 2.53148 -3.63911 0
M  V30 2463 H 227.12 0.246885 -0.62393 0
M  V30 2464 H 229.664 0.120152 -2.04147 0
M  V30 2465 H 227.819 2.38984 -3.04902 0
M  V30 2466 H 228.233 1.43329 -5.04537 0
M  V30 2467 H 229.707 3.07931 -4.58129 0
M  V30 2468 H 230.184 3.29901 -2.89935 0
M  V30 2469 H 230.79 1.89492 -3.80753 0
M  V30 2470 N 229.106 1.52395 0.401703 0
M  V30 2471 C 230.036 1.79231 1.49661 0
M  V30 2472 C 231.017 0.643654 1.57452 0
M  V30 2473 O 232.202 0.889989 1.72606 0
M  V30 2474 C 229.332 1.94971 2.87409 0
M  V30 2475 C 228.286 3.10604 2.94465 0
M  V30 2476 C 227.612 3.11577 4.34538 0
M  V30 2477 C 228.912 4.49921 2.6527 0
M  V30 2478 H 230.606 2.70917 1.27454 0
M  V30 2479 H 228.152 1.30362 0.6117 0
M  V30 2480 H 230.105 2.12328 3.63999 0
M  V30 2481 H 228.829 0.999632 3.10926 0
M  V30 2482 H 227.488 2.93009 2.20321 0
M  V30 2483 H 227.136 2.14277 4.55076 0
M  V30 2484 H 226.836 3.89247 4.40183 0
M  V30 2485 H 228.36 3.31073 5.13053 0
M  V30 2486 H 229.774 4.67683 3.31581 0
M  V30 2487 H 228.171 5.29564 2.82281 0
M  V30 2488 H 229.241 4.57507 1.60671 0
M  V30 2489 N 230.584 -0.659388 1.43143 0
M  V30 2490 C 231.832 -1.41654 1.44147 0
M  V30 2491 C 232.153 -1.94893 0.0645739 0
M  V30 2492 O 231.423 -1.74044 -0.899198 0
M  V30 2493 H 230.003 -0.525708 0.530697 0
M  V30 2494 H 232.665 -0.778097 1.78694 0
M  V30 2495 H 231.761 -2.26195 2.1504 0
M  V30 2496 N 232.062 -1.29571 -0.897171 0
M  V30 2497 C 233.287 -1.20705 -1.68656 0
M  V30 2498 C 233.712 0.228582 -1.86706 0
M  V30 2499 O 233.07 1.16494 -1.3892 0
M  V30 2500 C 233.118 -1.9282 -3.04717 0
M  V30 2501 O 232.222 -1.24697 -3.93096 0
M  V30 2502 H 231.563 -0.418126 -0.515816 0
M  V30 2503 H 234.093 -1.71183 -1.12061 0
M  V30 2504 H 234.103 -2.01372 -3.54843 0
M  V30 2505 H 232.778 -2.97239 -2.90899 0
M  V30 2506 H 231.355 -1.2442 -3.51531 0
M  V30 2507 N 233.54 1.10788 -1.12088 0
M  V30 2508 C 234.786 1.82942 -0.875226 0
M  V30 2509 C 235.119 1.84779 0.597538 0
M  V30 2510 O 234.394 1.30578 1.44152 0
M  V30 2511 C 234.677 3.29789 -1.44606 0
M  V30 2512 C 234.53 3.36307 -2.98693 0
M  V30 2513 C 235.849 4.26064 -1.10261 0
M  V30 2514 H 232.968 0.664195 -0.319397 0
M  V30 2515 H 235.61 1.29867 -1.38689 0
M  V30 2516 H 233.76 3.75118 -1.01089 0
M  V30 2517 H 235.432 2.99487 -3.50864 0
M  V30 2518 H 233.675 2.76318 -3.34411 0
M  V30 2519 H 234.346 4.39694 -3.33726 0
M  V30 2520 H 236.822 3.88951 -1.4784 0
M  V30 2521 H 235.698 5.27183 -1.52869 0
M  V30 2522 H 235.959 4.42098 -0.0142953 0
M  V30 2523 N 235.018 0.912232 1.28515 0
M  V30 2524 C 235.948 0.416403 2.29757 0
M  V30 2525 C 236.929 -0.515194 1.6211 0
M  V30 2526 O 238.114 -0.423253 1.89532 0
M  V30 2527 C 235.244 -0.34572 3.45575 0
M  V30 2528 C 234.198 0.496599 4.25109 0
M  V30 2529 C 233.524 -0.393771 5.33248 0
M  V30 2530 C 234.824 1.75307 4.92001 0
M  V30 2531 H 236.518 1.26249 2.7148 0
M  V30 2532 H 234.064 0.608515 1.30511 0
M  V30 2533 H 236.017 -0.703422 4.15488 0
M  V30 2534 H 234.741 -1.2257 3.02728 0
M  V30 2535 H 233.4 0.8368 3.56922 0
M  V30 2536 H 233.048 -1.27225 4.86644 0
M  V30 2537 H 232.748 0.166209 5.87365 0
M  V30 2538 H 234.272 -0.747389 6.06009 0
M  V30 2539 H 235.686 1.46437 5.54283 0
M  V30 2540 H 234.083 2.25534 5.56106 0
M  V30 2541 H 235.153 2.48176 4.16577 0
M  V30 2542 N 236.496 -1.42363 0.676048 0
M  V30 2543 C 237.721 -2.06377 0.205705 0
M  V30 2544 C 238.146 -1.50463 -1.12883 0
M  V30 2545 O 237.504 -0.623619 -1.70237 0
M  V30 2546 C 237.552 -3.60277 0.152655 0
M  V30 2547 O 236.656 -4.02935 -0.87845 0
M  V30 2548 H 235.997 -0.655588 0.105359 0
M  V30 2549 H 238.527 -1.82475 0.925412 0
M  V30 2550 H 238.537 -4.07993 -0.0230675 0
M  V30 2551 H 237.212 -4.00346 1.12675 0
M  V30 2552 H 235.789 -3.66764 -0.673668 0
M  V30 2553 N 237.974 -0.419461 -1.51915 0
M  V30 2554 C 238.904 0.391813 -2.30189 0
M  V30 2555 C 239.885 1.03699 -1.34836 0
M  V30 2556 O 241.07 1.04403 -1.63748 0
M  V30 2557 C 238.2 1.50312 -3.13087 0
M  V30 2558 C 237.154 0.9824 -4.16573 0
M  V30 2559 C 236.48 2.18809 -4.8788 0
M  V30 2560 C 237.78 0.0292356 -5.22292 0
M  V30 2561 H 239.474 -0.26135 -2.98257 0
M  V30 2562 H 237.02 -0.127134 -1.43438 0
M  V30 2563 H 238.973 2.07773 -3.66617 0
M  V30 2564 H 237.697 2.18431 -2.42807 0
M  V30 2565 H 236.356 0.430119 -3.64068 0
M  V30 2566 H 236.004 2.85507 -4.14119 0
M  V30 2567 H 235.704 1.84615 -5.57845 0
M  V30 2568 H 237.228 2.76858 -5.44226 0
M  V30 2569 H 238.642 0.512976 -5.71 0
M  V30 2570 H 237.039 -0.2244 -5.9968 0
M  V30 2571 H 238.109 -0.912931 -4.76228 0
M  V30 2572 N 239.452 1.56882 -0.150215 0
M  V30 2573 C 240.385 2.12712 0.826358 0
M  V30 2574 C 241.363 1.05154 1.24022 0
M  V30 2575 O 242.547 1.33004 1.33575 0
M  V30 2576 C 239.674 2.64945 2.11002 0
M  V30 2577 C 238.72 3.8468 1.84183 0
M  V30 2578 S 239.553 5.25502 1.02995 0
M  V30 2579 C 240.709 5.81125 2.32474 0
M  V30 2580 H 240.942 2.95214 0.351598 0
M  V30 2581 H 238.475 1.54267 0.0641211 0
M  V30 2582 H 240.433 2.95689 2.84742 0
M  V30 2583 H 239.094 1.82568 2.55593 0
M  V30 2584 H 238.287 4.19482 2.79375 0
M  V30 2585 H 237.889 3.54714 1.1855 0
M  V30 2586 H 240.181 5.92753 3.281 0
M  V30 2587 H 241.124 6.78625 2.02171 0
M  V30 2588 H 241.532 5.09392 2.43269 0
M  V30 2589 N 240.93 -0.123565 1.57115 0
M  V30 2590 C 241.893 -1.13583 1.99076 0
M  V30 2591 C 242.893 -1.34564 0.880296 0
M  V30 2592 O 244.083 -1.31158 1.14644 0
M  V30 2593 C 241.215 -2.49128 2.32698 0
M  V30 2594 H 242.408 -0.775287 2.89706 0
M  V30 2595 H 239.961 -0.36771 1.51913 0
M  V30 2596 H 240.696 -2.90111 1.44934 0
M  V30 2597 H 240.481 -2.35255 3.13684 0
M  V30 2598 H 241.971 -3.2199 2.65918 0
M  V30 2599 N 242.408 -1.52605 -0.393616 0
M  V30 2600 C 243.636 -1.71294 -1.16043 0
M  V30 2601 C 244.051 -0.429259 -1.83855 0
M  V30 2602 O 243.408 0.595921 -1.72496 0
M  V30 2603 C 243.459 -2.8593 -2.21193 0
M  V30 2604 O 243.18 -4.09329 -1.56146 0
M  V30 2605 C 244.681 -3.16259 -3.10636 0
M  V30 2606 H 241.901 -0.573641 -0.348104 0
M  V30 2607 H 244.445 -1.99234 -0.461092 0
M  V30 2608 H 242.6 -2.60465 -2.86769 0
M  V30 2609 H 243.014 -4.73323 -2.25978 0
M  V30 2610 H 244.488 -3.99946 -3.80456 0
M  V30 2611 H 244.965 -2.3045 -3.73884 0
M  V30 2612 H 245.571 -3.43547 -2.50711 0
M  V30 2613 N 243.887 0.651787 -1.4349 0
M  V30 2614 C 244.817 1.77621 -1.51569 0
M  V30 2615 C 245.798 1.66022 -0.370253 0
M  V30 2616 O 246.983 1.85095 -0.587658 0
M  V30 2617 C 244.113 3.16056 -1.43966 0
M  V30 2618 C 243.067 3.4242 -2.56774 0
M  V30 2619 C 242.393 4.8067 -2.34223 0
M  V30 2620 C 243.693 3.37023 -3.99015 0
M  V30 2621 H 245.387 1.71117 -2.45681 0
M  V30 2622 H 242.933 0.821825 -1.18246 0
M  V30 2623 H 244.886 3.94472 -1.48221 0
M  V30 2624 H 243.61 3.23293 -0.463586 0
M  V30 2625 H 242.269 2.66375 -2.51873 0
M  V30 2626 H 241.917 4.84585 -1.34856 0
M  V30 2627 H 241.617 4.9927 -3.09844 0
M  V30 2628 H 243.141 5.61342 -2.40265 0
M  V30 2629 H 244.555 4.05374 -4.05395 0
M  V30 2630 H 242.952 3.67159 -4.74673 0
M  V30 2631 H 244.022 2.3518 -4.2405 0
M  V30 2632 N 245.365 1.30045 0.890287 0
M  V30 2633 C 246.776 1.16738 1.45702 0
M  V30 2634 C 247.127 -0.233939 1.948 0
M  V30 2635 O 246.252 -1.13021 1.84541 0
M  V30 2636 C 246.847 2.11313 2.64825 0
M  V30 2637 C 245.406 2.02001 3.17604 0
M  V30 2638 C 244.553 2.01699 1.90296 0
M  V30 2639 H 247.504 1.42392 0.700726 0
M  V30 2640 H 247.525 1.69086 3.40867 0
M  V30 2641 H 247.037 3.13294 2.2906 0
M  V30 2642 H 245.138 1.03142 3.5804 0
M  V30 2643 H 245.251 2.90128 3.81264 0
M  V30 2644 H 243.615 1.46427 2.08402 0
M  V30 2645 H 244.398 3.05402 1.56795 0
M  V30 2646 N 246.843 -1.10192 1.12674 0
M  V30 2647 C 248.259 -1.34235 0.863317 0
M  V30 2648 C 248.459 -1.95062 -0.505277 0
M  V30 2649 O 247.515 -2.19192 -1.25345 0
M  V30 2650 C 248.828 -2.2616 1.98172 0
M  V30 2651 C 250.376 -2.3969 2.0129 0
M  V30 2652 C 250.851 -3.34946 3.1237 0
M  V30 2653 N 252.342 -3.42515 3.11829 0
M  V30 2654 C 253.077 -4.16199 3.94419 0
M  V30 2655 N 252.573 -4.92747 4.87004 0
M  V30 2656 N 254.366 -4.11843 3.82547 0
M  V30 2657 H 246.517 -0.690798 2.00853 0
M  V30 2658 H 248.78 -0.366774 0.874174 0
M  V30 2659 H 248.486 -1.8868 2.96804 0
M  V30 2660 H 248.36 -3.26488 1.88906 0
M  V30 2661 H 250.747 -2.76438 1.03276 0
M  V30 2662 H 250.828 -1.39169 2.14629 0
M  V30 2663 H 250.472 -2.98923 4.10619 0
M  V30 2664 H 250.402 -4.35353 2.96269 0
M  V30 2665 H 252.893 -2.87926 2.44759 0
M  V30 2666 H 253.206 -5.46376 5.46528 0
M  V30 2667 H 251.551 -4.91862 4.91016 0
M  V30 2668 H 254.742 -3.51136 3.0955 0
M  V30 2669 H 254.915 -4.69007 4.47142 0
M  V30 2670 N 248.321 -0.919034 -1.28029 0
M  V30 2671 C 249.231 -0.416756 -2.30869 0
M  V30 2672 C 250.247 0.498235 -1.66714 0
M  V30 2673 O 251.423 0.383144 -1.97722 0
M  V30 2674 C 248.488 0.330274 -3.45123 0
M  V30 2675 C 247.549 -0.618578 -4.2482 0
M  V30 2676 C 246.782 0.0928959 -5.33619 0
M  V30 2677 O 247.005 1.31375 -5.55065 0
M  V30 2678 O 245.939 -0.574499 -5.99152 0
M  V30 2679 H 249.765 -1.27043 -2.75851 0
M  V30 2680 H 247.35 -0.684052 -1.3282 0
M  V30 2681 H 249.232 0.751972 -4.14636 0
M  V30 2682 H 247.907 1.1597 -3.02213 0
M  V30 2683 H 246.814 -1.08978 -3.57875 0
M  V30 2684 H 248.147 -1.41497 -4.71423 0
M  V30 2685 N 249.799 1.42003 -0.683588 0
M  V30 2686 C 251.21 1.84501 -0.285736 0
M  V30 2687 C 251.561 1.57213 1.17382 0
M  V30 2688 O 250.686 1.03642 1.89966 0
M  V30 2689 C 251.281 3.34912 -0.511821 0
M  V30 2690 C 249.84 3.76025 -0.168005 0
M  V30 2691 C 248.987 2.6551 -0.799983 0
M  V30 2692 H 251.938 1.31724 -0.885119 0
M  V30 2693 H 251.959 3.79784 0.233292 0
M  V30 2694 H 251.471 3.54741 -1.57418 0
M  V30 2695 H 249.572 3.61801 0.890567 0
M  V30 2696 H 249.685 4.75141 -0.614661 0
M  V30 2697 H 248.049 2.53654 -0.230568 0
M  V30 2698 H 248.832 2.8816 -1.86597 0
M  V30 2699 N 251.277 0.427512 1.51691 0
M  V30 2700 C 252.688 -0.0378867 1.86662 0
M  V30 2701 C 253.039 -1.42819 1.34525 0
M  V30 2702 O 252.164 -2.05037 0.692014 0
M  V30 2703 C 252.759 -0.0755266 3.38716 0
M  V30 2704 C 251.318 -0.485309 3.73258 0
M  V30 2705 C 250.465 0.328399 2.75349 0
M  V30 2706 H 253.416 0.64379 1.45055 0
M  V30 2707 H 253.437 -0.887056 3.70016 0
M  V30 2708 H 252.949 0.936487 3.76632 0
M  V30 2709 H 251.05 -1.50329 3.40928 0
M  V30 2710 H 251.163 -0.21693 4.78609 0
M  V30 2711 H 249.527 -0.211905 2.53817 0
M  V30 2712 H 250.31 1.3391 3.16106 0
M  V30 2713 N 252.755 -1.56801 0.158532 0
M  V30 2714 C 254.003 -1.96102 -0.488712 0
M  V30 2715 C 254.324 -1.04498 -1.64636 0
M  V30 2716 O 253.594 -0.108783 -1.95598 0
M  V30 2717 H 252.174 -0.724102 -0.183535 0
M  V30 2718 H 254.836 -1.93457 0.236728 0
M  V30 2719 H 253.932 -3.00097 -0.857219 0
M  V30 2720 N 254.233 0.115231 -1.57178 0
M  V30 2721 C 255.481 0.820727 -1.84685 0
M  V30 2722 C 255.802 1.80237 -0.744279 0
M  V30 2723 O 255.072 1.94529 0.231375 0
M  V30 2724 H 253.652 0.306084 -0.681411 0
M  V30 2725 H 256.314 0.101656 -1.94635 0
M  V30 2726 H 255.41 1.36366 -2.80733 0
M  V30 2727 N 255.711 1.52812 0.385517 0
M  V30 2728 C 256.659 1.78482 1.49155 0
M  V30 2729 C 257.653 0.652914 1.56312 0
M  V30 2730 O 258.859 0.835464 1.59436 0
M  V30 2731 H 255.234 0.5648 0.496493 0
M  V30 2732 H 257.205 2.71095 1.24699 0
M  V30 2733 C 255.954 1.97378 2.86247 0
M  V30 2734 H 255.277 2.83907 2.81491 0
M  V30 2735 H 256.717 2.19327 3.62866 0
M  V30 2736 C 255.176 0.74728 3.28508 0
M  V30 2737 O 255.706 -0.0736232 4.01633 0
M  V30 2738 N 253.912 0.576396 2.84826 0
M  V30 2739 H 253.459 1.24555 2.25486 0
M  V30 2740 H 253.417 -0.24288 3.1346 0
M  V30 2741 N 257.189 -0.644168 1.43834 0
M  V30 2742 C 258.119 -1.76814 1.52509 0
M  V30 2743 C 259.1 -1.65823 0.379052 0
M  V30 2744 O 260.285 -1.84781 0.597466 0
M  V30 2745 C 257.415 -3.15288 1.4564 0
M  V30 2746 C 256.369 -3.41053 2.58586 0
M  V30 2747 C 255.695 -4.79421 2.36769 0
M  V30 2748 C 256.995 -3.34902 4.00797 0
M  V30 2749 H 258.689 -1.69812 2.46586 0
M  V30 2750 H 256.235 -0.815542 1.1868 0
M  V30 2751 H 258.188 -3.93681 1.50311 0
M  V30 2752 H 256.912 -3.23043 0.480725 0
M  V30 2753 H 255.571 -2.65035 2.53282 0
M  V30 2754 H 255.219 -4.83863 1.37424 0
M  V30 2755 H 254.919 -4.9762 3.12487 0
M  V30 2756 H 256.443 -5.6006 2.43238 0
M  V30 2757 H 257.857 -4.03218 4.07539 0
M  V30 2758 H 256.254 -3.64637 4.76613 0
M  V30 2759 H 257.324 -2.32928 4.25291 0
M  V30 2760 N 258.668 -1.30515 -0.883378 0
M  V30 2761 C 259.914 -1.19607 -1.63774 0
M  V30 2762 C 260.247 0.248314 -1.92606 0
M  V30 2763 O 259.522 1.17742 -1.54813 0
M  V30 2764 C 259.805 -2.02669 -2.97653 0
M  V30 2765 C 259.658 -3.55335 -2.75784 0
M  V30 2766 C 260.977 -1.86573 -3.98596 0
M  V30 2767 H 258.096 -0.435856 -0.594305 0
M  V30 2768 H 260.738 -1.60165 -1.02212 0
M  V30 2769 H 258.888 -1.68208 -3.50197 0
M  V30 2770 H 260.56 -3.99863 -2.30016 0
M  V30 2771 H 258.803 -3.79438 -2.1026 0
M  V30 2772 H 259.474 -4.08745 -3.70988 0
M  V30 2773 H 261.95 -2.16703 -3.55217 0
M  V30 2774 H 260.826 -2.47014 -4.90179 0
M  V30 2775 H 261.087 -0.825321 -4.34328 0
M  V30 2776 N 260.146 1.09593 -1.13257 0
M  V30 2777 C 261.392 1.82003 -0.89458 0
M  V30 2778 C 261.725 1.85402 0.577906 0
M  V30 2779 O 261 1.32099 1.42759 0
M  V30 2780 C 261.283 3.28237 -1.48096 0
M  V30 2781 C 261.136 3.3312 -3.02244 0
M  V30 2782 C 262.455 4.24871 -1.14774 0
M  V30 2783 H 259.574 0.66077 -0.326424 0
M  V30 2784 H 262.216 1.28389 -1.40058 0
M  V30 2785 H 260.366 3.74024 -1.05062 0
M  V30 2786 H 262.038 2.95748 -3.54021 0
M  V30 2787 H 260.281 2.72756 -3.37323 0
M  V30 2788 H 260.952 4.3613 -3.38371 0
M  V30 2789 H 263.428 3.87361 -1.51957 0
M  V30 2790 H 262.304 5.25532 -1.58452 0
M  V30 2791 H 262.565 4.42058 -0.0611849 0
M  V30 2792 N 261.624 0.925811 1.2754 0
M  V30 2793 C 262.852 0.581509 1.9856 0
M  V30 2794 C 263.267 -0.840041 1.69082 0
M  V30 2795 O 262.624 -1.55805 0.950312 0
M  V30 2796 C 262.675 0.795589 3.52637 0
M  V30 2797 O 262.396 2.16121 3.81082 0
M  V30 2798 C 263.897 0.459744 4.4091 0
M  V30 2799 H 261.117 0.220538 0.633722 0
M  V30 2800 H 263.661 1.24232 1.6244 0
M  V30 2801 H 261.816 0.18161 3.86974 0
M  V30 2802 H 262.23 2.2098 4.75676 0
M  V30 2803 H 263.704 0.660244 5.48037 0
M  V30 2804 H 264.181 -0.604625 4.35018 0
M  V30 2805 H 264.787 1.05178 4.12089 0
M  V30 2806 N 263.102 -1.41638 0.69111 0
M  V30 2807 C 264.33 -2.05628 0.22909 0
M  V30 2808 C 264.745 -1.51992 -1.11999 0
M  V30 2809 O 264.102 -0.666322 -1.69901 0
M  V30 2810 C 264.153 -3.61084 0.173283 0
M  V30 2811 O 263.874 -4.12735 1.46907 0
M  V30 2812 C 265.375 -4.42213 -0.310266 0
M  V30 2813 H 262.595 -0.662327 0.107534 0
M  V30 2814 H 265.139 -1.81489 0.942438 0
M  V30 2815 H 263.294 -3.84278 -0.490858 0
M  V30 2816 H 263.708 -5.06743 1.35322 0
M  V30 2817 H 265.182 -5.51194 -0.298196 0
M  V30 2818 H 265.659 -4.1799 -1.34838 0
M  V30 2819 H 266.265 -4.24074 0.322716 0
M  V30 2820 N 264.58 -0.43555 -1.51462 0
M  V30 2821 C 265.51 0.367376 -2.30592 0
M  V30 2822 C 266.491 1.02263 -1.35928 0
M  V30 2823 O 267.676 1.02661 -1.64847 0
M  V30 2824 C 264.806 1.46983 -3.14664 0
M  V30 2825 C 263.76 0.938161 -4.17591 0
M  V30 2826 C 263.086 2.13622 -4.90173 0
M  V30 2827 C 264.386 -0.0261621 -5.22293 0
M  V30 2828 H 266.08 -0.292969 -2.97963 0
M  V30 2829 H 263.626 -0.14234 -1.43295 0
M  V30 2830 H 265.579 2.03873 -3.688 0
M  V30 2831 H 264.303 2.15843 -2.4511 0
M  V30 2832 H 262.962 0.391481 -3.64504 0
M  V30 2833 H 262.61 2.81098 -4.17124 0
M  V30 2834 H 262.31 1.78688 -5.59772 0
M  V30 2835 H 263.834 2.7107 -5.47132 0
M  V30 2836 H 265.248 0.452384 -5.71512 0
M  V30 2837 H 263.645 -0.287992 -5.99409 0
M  V30 2838 H 264.715 -0.963391 -4.75233 0
M  V30 2839 N 266.058 1.56714 -0.166846 0
M  V30 2840 C 267.006 2.19056 0.782123 0
M  V30 2841 C 268 1.15328 1.24079 0
M  V30 2842 O 269.206 1.33537 1.20697 0
M  V30 2843 H 265.581 0.70167 0.270486 0
M  V30 2844 H 267.552 2.97494 0.232322 0
M  V30 2845 C 266.301 2.84206 2.00306 0
M  V30 2846 H 265.624 3.63748 1.65914 0
M  V30 2847 H 267.064 3.31302 2.64604 0
M  V30 2848 C 265.523 1.83744 2.82382 0
M  V30 2849 O 266.053 1.32014 3.79388 0
M  V30 2850 N 264.259 1.52601 2.47308 0
M  V30 2851 H 263.806 1.9486 1.68485 0
M  V30 2852 H 263.764 0.856351 3.02513 0
M  V30 2853 N 267.536 -0.106894 1.57237 0
M  V30 2854 C 268.785 -0.811163 1.8467 0
M  V30 2855 C 269.098 -1.80469 0.754342 0
M  V30 2856 O 270.304 -2.55601 0.915439 0
M  V30 2857 C 268.76 -1.49337 3.27454 0
M  V30 2858 C 268.368 -0.540217 4.44731 0
M  V30 2859 C 270.112 -2.18206 3.64124 0
M  V30 2860 C 268.019 -1.22634 5.78545 0
M  V30 2861 H 266.949 -0.306679 0.688813 0
M  V30 2862 H 269.6 -0.0639887 1.83388 0
M  V30 2863 H 267.982 -2.2876 3.23241 0
M  V30 2864 H 269.156 0.221659 4.60267 0
M  V30 2865 H 267.471 0.042146 4.16379 0
M  V30 2866 H 270.068 -2.70253 4.61376 0
M  V30 2867 H 270.411 -2.96562 2.92158 0
M  V30 2868 H 270.944 -1.45658 3.70174 0
M  V30 2869 H 267.683 -0.483832 6.53712 0
M  V30 2870 H 267.203 -1.95993 5.66874 0
M  V30 2871 H 268.882 -1.75615 6.2271 0
M  V30 2872 N 269.014 -1.53014 -0.377408 0
M  V30 2873 C 269.924 -1.81557 -1.48574 0
M  V30 2874 C 270.94 -0.703102 -1.59162 0
M  V30 2875 O 272.116 -0.99192 -1.75279 0
M  V30 2876 C 269.181 -1.9889 -2.83978 0
M  V30 2877 C 268.242 -3.22801 -2.83016 0
M  V30 2878 C 267.475 -3.39298 -4.11962 0
M  V30 2879 O 267.698 -2.60345 -5.0752 0
M  V30 2880 O 266.632 -4.32604 -4.18494 0
M  V30 2881 H 270.458 -2.75695 -1.27382 0
M  V30 2882 H 268.043 -1.38248 -0.566373 0
M  V30 2883 H 269.925 -2.11931 -3.6423 0
M  V30 2884 H 268.6 -1.07942 -3.05172 0
M  V30 2885 H 267.507 -3.15193 -2.01505 0
M  V30 2886 H 268.84 -4.13632 -2.66775 0
M  V30 2887 N 270.492 0.636531 -1.44174 0
M  V30 2888 C 271.402 1.77754 -1.53103 0
M  V30 2889 C 272.418 1.68928 -0.417034 0
M  V30 2890 O 273.594 1.89801 -0.6736 0
M  V30 2891 C 270.659 3.14115 -1.46741 0
M  V30 2892 C 269.72 3.34612 -2.68948 0
M  V30 2893 C 268.953 4.64467 -2.6288 0
M  V30 2894 O 269.176 5.44919 -1.68581 0
M  V30 2895 O 268.11 4.87049 -3.53648 0
M  V30 2896 H 271.936 1.73174 -2.49489 0
M  V30 2897 H 269.521 0.79709 -1.2636 0
M  V30 2898 H 271.403 3.95412 -1.45696 0
M  V30 2899 H 270.078 3.19249 -0.534975 0
M  V30 2900 H 268.985 2.53014 -2.75562 0
M  V30 2901 H 270.318 3.34336 -3.61221 0
M  V30 2902 N 271.97 1.30982 0.876444 0
M  V30 2903 C 272.92 1.14688 1.97055 0
M  V30 2904 C 273.904 0.0596593 1.60789 0
M  V30 2905 O 275.096 0.283892 1.74708 0
M  V30 2906 C 272.225 0.849627 3.3262 0
M  V30 2907 C 271.311 1.97752 3.75173 0
M  V30 2908 N 271.702 3.22384 3.89746 0
M  V30 2909 C 270 1.8758 4.04635 0
M  V30 2910 C 270.701 3.96121 4.25985 0
M  V30 2911 N 269.677 3.24237 4.36315 0
M  V30 2912 H 273.479 2.09204 2.06424 0
M  V30 2913 H 270.993 1.22445 1.06682 0
M  V30 2914 H 272.99 0.713895 4.10742 0
M  V30 2915 H 271.65 -0.087376 3.24582 0
M  V30 2916 H 272.661 3.57575 3.74647 0
M  V30 2917 H 269.338 1.01303 4.05024 0
M  V30 2918 H 270.728 5.03491 4.44911 0
M  V30 2919 N 273.449 -1.08991 1.13837 0
M  V30 2920 C 274.379 -2.17771 0.842507 0
M  V30 2921 C 275.36 -1.6892 -0.20001 0
M  V30 2922 O 276.545 -1.94113 -0.0579731 0
M  V30 2923 C 273.675 -3.4589 0.312644 0
M  V30 2924 C 272.629 -4.08099 1.28992 0
M  V30 2925 C 271.955 -5.31098 0.619623 0
M  V30 2926 C 273.255 -4.50077 2.65005 0
M  V30 2927 H 274.949 -2.42777 1.75213 0
M  V30 2928 H 272.495 -1.16682 0.843875 0
M  V30 2929 H 274.448 -4.21297 0.0933043 0
M  V30 2930 H 273.172 -3.20419 -0.632382 0
M  V30 2931 H 271.831 -3.34717 1.49533 0
M  V30 2932 H 271.479 -5.0191 -0.33102 0
M  V30 2933 H 271.179 -5.73674 1.27167 0
M  V30 2934 H 272.703 -6.09224 0.409669 0
M  V30 2935 H 274.117 -5.16688 2.48407 0
M  V30 2936 H 272.514 -5.03553 3.26427 0
M  V30 2937 H 273.584 -3.62257 3.22332 0
M  V30 2938 N 274.927 -0.932562 -1.27047 0
M  V30 2939 C 275.874 -0.434072 -2.26681 0
M  V30 2940 C 276.844 0.501639 -1.58344 0
M  V30 2941 O 278.029 0.419734 -1.86126 0
M  V30 2942 C 275.169 0.30261 -3.43771 0
M  V30 2943 C 274.282 -0.667774 -4.26808 0
M  V30 2944 C 273.417 0.0892393 -5.31125 0
M  V30 2945 C 272.456 -0.873532 -6.05835 0
M  V30 2946 N 271.593 -0.148832 -7.01942 0
M  V30 2947 H 276.433 -1.28868 -2.68695 0
M  V30 2948 H 273.97 -0.646713 -1.32121 0
M  V30 2949 H 275.928 0.746092 -4.10474 0
M  V30 2950 H 274.558 1.12142 -3.02695 0
M  V30 2951 H 273.61 -1.22978 -3.59973 0
M  V30 2952 H 274.922 -1.40337 -4.78651 0
M  V30 2953 H 274.076 0.592409 -6.03801 0
M  V30 2954 H 272.815 0.85777 -4.80097 0
M  V30 2955 H 271.82 -1.38791 -5.31994 0
M  V30 2956 H 273.045 -1.64193 -6.58952 0
M  V30 2957 H 270.991 0.601365 -6.53238 0
M  V30 2958 H 270.908 -0.82391 -7.51497 0
M  V30 2959 H 272.176 0.333527 -7.78786 0
M  V30 2960 N 276.405 1.4127 -0.698611 0
M  V30 2961 C 277.821 1.55241 -0.370462 0
M  V30 2962 C 278.021 1.67351 1.12231 0
M  V30 2963 O 277.077 1.65363 1.90818 0
M  V30 2964 C 278.39 2.78997 -1.12165 0
M  V30 2965 C 279.938 2.92797 -1.1063 0
M  V30 2966 C 280.413 4.19445 -1.8393 0
M  V30 2967 N 281.904 4.26409 -1.80914 0
M  V30 2968 C 282.639 5.23271 -2.34467 0
M  V30 2969 N 282.135 6.26145 -2.96504 0
M  V30 2970 N 283.928 5.15232 -2.24706 0
M  V30 2971 H 276.079 1.31654 -1.66676 0
M  V30 2972 H 278.342 0.635393 -0.703548 0
M  V30 2973 H 278.048 2.76268 -2.17644 0
M  V30 2974 H 277.922 3.70606 -0.702209 0
M  V30 2975 H 280.309 2.95039 -0.0597713 0
M  V30 2976 H 280.39 2.02353 -1.56483 0
M  V30 2977 H 280.034 4.17964 -2.88563 0
M  V30 2978 H 279.964 5.08866 -1.35509 0
M  V30 2979 H 282.455 3.527 -1.35687 0
M  V30 2980 H 282.768 6.96451 -3.34927 0
M  V30 2981 H 281.113 6.26638 -3.00583 0
M  V30 2982 H 284.304 4.33789 -1.7591 0
M  V30 2983 H 284.477 5.90552 -2.66745 0
M  V30 2984 N 277.883 0.443576 1.51229 0
M  V30 2985 C 278.813 -0.355142 2.30783 0
M  V30 2986 C 279.794 -1.0154 1.36468 0
M  V30 2987 O 280.979 -1.01785 1.65389 0
M  V30 2988 C 278.109 -1.45312 3.15439 0
M  V30 2989 C 277.063 -0.916002 4.18083 0
M  V30 2990 C 276.389 -2.1102 4.91299 0
M  V30 2991 C 277.689 0.0538602 5.22272 0
M  V30 2992 H 279.383 0.308767 2.97804 0
M  V30 2993 H 276.929 0.149937 1.43217 0
M  V30 2994 H 278.882 -2.01914 3.69876 0
M  V30 2995 H 277.606 -2.14541 2.46252 0
M  V30 2996 H 276.265 -0.372145 3.64706 0
M  V30 2997 H 275.913 -2.78882 4.18609 0
M  V30 2998 H 275.613 -1.75717 5.60712 0
M  V30 2999 H 277.137 -2.68164 5.48562 0
M  V30 3000 H 278.551 -0.422069 5.71744 0
M  V30 3001 H 276.948 0.319776 5.99247 0
M  V30 3002 H 278.018 0.98858 4.74716 0
M  V30 3003 N 279.361 -1.56624 0.175154 0
M  V30 3004 C 280.777 -1.58571 -0.180966 0
M  V30 3005 C 280.977 -1.19065 -1.6256 0
M  V30 3006 O 280.033 -0.904044 -2.35761 0
M  V30 3007 C 281.346 -3.00522 0.103326 0
M  V30 3008 C 282.894 -3.12972 0.0418426 0
M  V30 3009 C 283.369 -4.57022 0.299175 0
M  V30 3010 N 284.86 -4.62541 0.247086 0
M  V30 3011 C 285.595 -5.71857 0.420318 0
M  V30 3012 N 285.091 -6.89717 0.652816 0
M  V30 3013 N 286.884 -5.60972 0.355957 0
M  V30 3014 H 279.035 -1.80589 1.11809 0
M  V30 3015 H 281.298 -0.837178 0.444788 0
M  V30 3016 H 281.004 -3.33916 1.10422 0
M  V30 3017 H 280.878 -3.72344 -0.603299 0
M  V30 3018 H 283.265 -2.79403 -0.949636 0
M  V30 3019 H 283.346 -2.43578 0.781238 0
M  V30 3020 H 282.99 -4.913 1.28788 0
M  V30 3021 H 282.92 -5.24579 -0.460876 0
M  V30 3022 H 285.411 -3.77829 0.0731895 0
M  V30 3023 H 285.724 -7.68911 0.774347 0
M  V30 3024 H 284.069 -6.91572 0.689476 0
M  V30 3025 H 287.26 -4.67773 0.174882 0
M  V30 3026 H 287.433 -6.46111 0.494388 0
M  V30 3027 N 280.839 0.0985539 -1.57292 0
M  V30 3028 C 282.087 0.801092 -1.85545 0
M  V30 3029 C 282.408 1.79438 -0.763353 0
M  V30 3030 O 281.678 1.94763 0.21073 0
M  V30 3031 H 280.258 0.29884 -0.684619 0
M  V30 3032 H 282.92 0.0810064 -1.94732 0
M  V30 3033 H 282.016 1.3338 -2.82163 0
M  V30 3034 N 282.317 1.53212 0.369288 0
M  V30 3035 C 283.733 1.42902 0.710712 0
M  V30 3036 C 283.933 0.565135 1.93413 0
M  V30 3037 O 282.989 0.0461484 2.52458 0
M  V30 3038 C 284.302 2.86042 0.927382 0
M  V30 3039 C 285.85 2.9565 1.02762 0
M  V30 3040 C 286.325 4.39843 1.27679 0
M  V30 3041 N 287.816 4.43256 1.34457 0
M  V30 3042 C 288.551 5.51929 1.55439 0
M  V30 3043 N 288.047 6.70655 1.73762 0
M  V30 3044 N 289.84 5.39502 1.57779 0
M  V30 3045 H 281.991 2.07888 -0.435457 0
M  V30 3046 H 284.254 0.938661 -0.132739 0
M  V30 3047 H 283.96 3.51557 0.100287 0
M  V30 3048 H 283.834 3.29472 1.83653 0
M  V30 3049 H 286.221 2.30291 1.84527 0
M  V30 3050 H 286.302 2.5562 0.0959504 0
M  V30 3051 H 285.946 5.05774 0.464175 0
M  V30 3052 H 285.876 4.77443 2.22162 0
M  V30 3053 H 288.367 3.5769 1.21926 0
M  V30 3054 H 288.68 7.49248 1.89335 0
M  V30 3055 H 287.025 6.73648 1.70948 0
M  V30 3056 H 290.216 4.45713 1.43029 0
M  V30 3057 H 290.389 6.2426 1.7379 0
M  V30 3058 N 283.795 -0.628877 1.44509 0
M  V30 3059 C 285.02 -1.42048 1.5112 0
M  V30 3060 C 285.445 -1.87594 0.137818 0
M  V30 3061 O 284.803 -1.58873 -0.873437 0
M  V30 3062 C 284.851 -2.61541 2.48251 0
M  V30 3063 O 283.955 -3.61453 1.98559 0
M  V30 3064 H 283.296 -0.424942 0.510216 0
M  V30 3065 H 285.826 -0.767374 1.89664 0
M  V30 3066 H 285.836 -3.09057 2.66361 0
M  V30 3067 H 284.511 -2.27736 3.48007 0
M  V30 3068 H 283.088 -3.20731 1.90227 0
M  V30 3069 N 285.273 -1.31445 -0.869486 0
M  V30 3070 C 286.689 -1.10113 -1.15531 0
M  V30 3071 C 286.889 0.128087 -2.01092 0
M  V30 3072 O 285.945 0.817276 -2.38908 0
M  V30 3073 C 287.258 -2.37291 -1.84698 0
M  V30 3074 C 288.806 -2.42906 -1.97397 0
M  V30 3075 C 289.281 -3.69967 -2.69979 0
M  V30 3076 N 290.772 -3.70864 -2.77514 0
M  V30 3077 C 291.507 -4.65875 -3.34287 0
M  V30 3078 N 291.003 -5.71242 -3.91988 0
M  V30 3079 N 292.796 -4.53394 -3.3225 0
M  V30 3080 H 284.947 -2.1028 -0.299347 0
M  V30 3081 H 287.21 -0.927683 -0.195214 0
M  V30 3082 H 286.916 -3.27078 -1.29278 0
M  V30 3083 H 286.79 -2.47125 -2.84972 0
M  V30 3084 H 289.177 -1.53588 -2.51982 0
M  V30 3085 H 289.258 -2.37036 -0.961643 0
M  V30 3086 H 288.902 -4.59652 -2.16062 0
M  V30 3087 H 288.832 -3.73103 -3.7162 0
M  V30 3088 H 291.323 -2.94697 -2.36563 0
M  V30 3089 H 291.636 -6.39817 -4.33421 0
M  V30 3090 H 289.981 -5.75015 -3.90362 0
M  V30 3091 H 293.172 -3.70252 -2.8641 0
M  V30 3092 H 293.345 -5.27617 -3.76197 0
M  V30 3093 N 286.751 1.08385 -1.14413 0
M  V30 3094 C 287.979 1.84517 -0.936001 0
M  V30 3095 C 288.394 1.81626 0.515503 0
M  V30 3096 O 287.751 1.22008 1.35721 0
M  V30 3097 C 287.802 3.32049 -1.42918 0
M  V30 3098 O 287.523 3.34951 -2.82381 0
M  V30 3099 C 289.024 4.24986 -1.26103 0
M  V30 3100 H 286.244 0.582491 -0.333084 0
M  V30 3101 H 288.788 1.36885 -1.5193 0
M  V30 3102 H 286.943 3.7707 -0.888641 0
M  V30 3103 H 287.357 4.27048 -3.04517 0
M  V30 3104 H 288.831 5.26615 -1.6547 0
M  V30 3105 H 289.308 4.38726 -0.20392 0
M  V30 3106 H 289.914 3.85791 -1.79012 0
M  V30 3107 N 288.23 0.939286 1.26551 0
M  V30 3108 C 289.478 0.58469 1.93457 0
M  V30 3109 C 289.799 -0.878774 1.74076 0
M  V30 3110 O 289.069 -1.62421 1.09528 0
M  V30 3111 H 287.649 0.21325 0.715914 0
M  V30 3112 H 290.311 1.1942 1.54029 0
M  V30 3113 H 289.407 0.800849 3.0165 0
M  V30 3114 N 289.708 -1.40897 0.706093 0
M  V30 3115 C 290.618 -2.3455 0.0482286 0
M  V30 3116 C 291.634 -1.56796 -0.754396 0
M  V30 3117 O 292.81 -1.89228 -0.689538 0
M  V30 3118 C 289.875 -3.35625 -0.869303 0
M  V30 3119 C 288.936 -4.29261 -0.0576994 0
M  V30 3120 C 288.169 -5.25508 -0.931531 0
M  V30 3121 O 288.392 -5.27472 -2.17092 0
M  V30 3122 O 287.326 -6.00727 -0.375587 0
M  V30 3123 H 291.152 -2.92407 0.820476 0
M  V30 3124 H 288.737 -1.4193 0.4665 0
M  V30 3125 H 290.619 -3.97635 -1.39514 0
M  V30 3126 H 289.294 -2.80196 -1.62086 0
M  V30 3127 H 288.201 -3.70566 0.512988 0
M  V30 3128 H 289.534 -4.87817 0.655426 0
M  V30 3129 N 291.186 -0.45159 -1.50991 0
M  V30 3130 C 292.118 0.388634 -2.25881 0
M  V30 3131 C 293.131 0.974041 -1.30446 0
M  V30 3132 O 294.32 0.865758 -1.56099 0
M  V30 3133 C 291.42 1.5571 -3.01011 0
M  V30 3134 C 290.593 1.08801 -4.23652 0
M  V30 3135 C 289.652 2.12825 -4.8124 0
M  V30 3136 O 288.678 1.71678 -5.42693 0
M  V30 3137 N 289.88 3.45453 -4.66522 0
M  V30 3138 H 292.645 -0.25329 -2.98628 0
M  V30 3139 H 290.206 -0.281268 -1.59438 0
M  V30 3140 H 292.198 2.24952 -3.3642 0
M  V30 3141 H 290.768 2.10409 -2.31186 0
M  V30 3142 H 289.988 0.22215 -3.93574 0
M  V30 3143 H 291.276 0.752213 -5.03209 0
M  V30 3144 H 290.674 3.81605 -4.17605 0
M  V30 3145 H 289.231 4.10549 -5.06254 0
M  V30 3146 N 292.664 1.56529 -0.183458 0
M  V30 3147 C 293.913 1.96419 0.458511 0
M  V30 3148 C 294.226 1.0727 1.63562 0
M  V30 3149 O 295.432 1.36893 2.34462 0
M  V30 3150 C 293.888 3.49298 0.867122 0
M  V30 3151 C 293.496 4.47092 -0.285057 0
M  V30 3152 C 295.24 3.97983 1.47683 0
M  V30 3153 C 293.147 5.91225 0.143862 0
M  V30 3154 H 292.077 0.733394 0.175071 0
M  V30 3155 H 294.728 1.81448 -0.273624 0
M  V30 3156 H 293.11 3.59731 1.65559 0
M  V30 3157 H 294.284 4.48383 -1.0625 0
M  V30 3158 H 292.599 4.08535 -0.805503 0
M  V30 3159 H 295.196 5.03134 1.80999 0
M  V30 3160 H 295.539 3.41618 2.37914 0
M  V30 3161 H 296.072 3.90617 0.752562 0
M  V30 3162 H 292.811 6.5149 -0.723974 0
M  V30 3163 H 292.331 5.93214 0.886413 0
M  V30 3164 H 294.01 6.44362 0.583628 0
M  V30 3165 N 294.142 -0.090211 1.57342 0
M  V30 3166 C 295.419 -0.824761 1.77361 0
M  V30 3167 C 295.799 -1.96698 0.76637 0
M  V30 3168 O 295.147 -2.27586 -0.204179 0
M  V30 3169 C 295.357 -1.31481 3.23286 0
M  V30 3170 C 296.705 -1.75563 3.86604 0
M  V30 3171 O 297.729 -1.41093 3.27065 0
M  V30 3172 O 296.588 -2.39317 4.91314 0
M  V30 3173 H 293.682 -0.393776 0.727234 0
M  V30 3174 H 296.228 -0.0717138 1.69548 0
M  V30 3175 H 295 -0.496671 3.88135 0
M  V30 3176 H 294.623 -2.12973 3.35751 0
M  V30 3177 N 295.62 -1.53406 -0.361157 0
M  V30 3178 C 296.553 -1.74946 -1.46524 0
M  V30 3179 C 297.531 -0.59795 -1.51206 0
M  V30 3180 O 298.715 -0.831062 -1.69191 0
M  V30 3181 C 295.842 -1.83224 -2.84863 0
M  V30 3182 C 294.888 -3.05233 -2.97885 0
M  V30 3183 S 295.721 -4.6466 -2.66179 0
M  V30 3184 C 296.877 -4.75793 -4.06659 0
M  V30 3185 H 297.11 -2.68319 -1.28033 0
M  V30 3186 H 294.643 -1.44051 -0.555764 0
M  V30 3187 H 296.601 -1.88679 -3.64569 0
M  V30 3188 H 295.262 -0.908948 -3.00661 0
M  V30 3189 H 294.455 -3.07648 -3.9921 0
M  V30 3190 H 294.057 -2.97913 -2.26106 0
M  V30 3191 H 296.349 -4.5612 -5.0096 0
M  V30 3192 H 297.292 -5.7786 -4.09247 0
M  V30 3193 H 297.7 -4.04389 -3.93865 0
M  V30 3194 N 297.098 0.621204 -1.44841 0
M  V30 3195 C 298.045 1.73267 -1.5247 0
M  V30 3196 C 299.015 1.6189 -0.371611 0
M  V30 3197 O 300.2 1.81668 -0.58321 0
M  V30 3198 C 297.34 3.11545 -1.48438 0
M  V30 3199 C 296.453 3.33827 -2.74196 0
M  V30 3200 C 295.588 4.62133 -2.61929 0
M  V30 3201 C 294.627 4.77627 -3.82804 0
M  V30 3202 N 293.764 5.97219 -3.69153 0
M  V30 3203 H 298.604 1.66082 -2.47428 0
M  V30 3204 H 296.141 0.810026 -1.22788 0
M  V30 3205 H 298.099 3.91528 -1.4409 0
M  V30 3206 H 296.729 3.1772 -0.570402 0
M  V30 3207 H 295.781 2.47715 -2.88689 0
M  V30 3208 H 297.093 3.41153 -3.6389 0
M  V30 3209 H 296.247 5.50291 -2.5547 0
M  V30 3210 H 294.986 4.57182 -1.69811 0
M  V30 3211 H 293.991 3.87896 -3.89637 0
M  V30 3212 H 295.216 4.84385 -4.75971 0
M  V30 3213 H 293.162 5.93339 -2.79794 0
M  V30 3214 H 293.079 6.05644 -4.52472 0
M  V30 3215 H 294.347 6.87912 -3.66603 0
M  V30 3216 N 298.576 1.31904 0.862503 0
M  V30 3217 C 299.506 1.22782 1.98612 0
M  V30 3218 C 300.487 0.113362 1.69722 0
M  V30 3219 O 301.672 0.299218 1.91881 0
M  V30 3220 C 298.802 0.942058 3.34279 0
M  V30 3221 C 297.756 2.0169 3.77499 0
M  V30 3222 C 297.082 1.58369 5.10709 0
M  V30 3223 C 298.382 3.43096 3.93805 0
M  V30 3224 H 300.076 2.16788 2.06502 0
M  V30 3225 H 297.622 1.04366 0.992154 0
M  V30 3226 H 299.575 0.864818 4.1243 0
M  V30 3227 H 298.299 -0.0336603 3.26583 0
M  V30 3228 H 296.958 2.08416 3.01593 0
M  V30 3229 H 296.606 0.595628 4.99461 0
M  V30 3230 H 296.306 2.30279 5.40597 0
M  V30 3231 H 297.83 1.52067 5.91361 0
M  V30 3232 H 299.244 3.39003 4.62331 0
M  V30 3233 H 297.641 4.13288 4.35101 0
M  V30 3234 H 298.711 3.83334 2.96957 0
M  V30 3235 N 300.054 -1.07777 1.14986 0
M  V30 3236 C 301.303 -1.79669 0.916617 0
M  V30 3237 C 301.616 -1.87474 -0.557917 0
M  V30 3238 O 302.822 -2.55845 -0.908617 0
M  V30 3239 C 301.278 -3.22848 1.59051 0
M  V30 3240 C 300.886 -3.23257 3.10176 0
M  V30 3241 C 302.63 -3.99379 1.43864 0
M  V30 3242 C 300.537 -4.61063 3.70372 0
M  V30 3243 H 299.467 -0.673349 0.33929 0
M  V30 3244 H 302.118 -1.21003 1.37951 0
M  V30 3245 H 300.5 -3.8168 1.0553 0
M  V30 3246 H 301.674 -2.74095 3.70417 0
M  V30 3247 H 299.989 -2.60222 3.25074 0
M  V30 3248 H 302.586 -5.0122 1.86232 0
M  V30 3249 H 302.929 -4.14511 0.385564 0
M  V30 3250 H 303.462 -3.47032 1.94457 0
M  V30 3251 H 300.201 -4.51135 4.7556 0
M  V30 3252 H 299.721 -5.1048 3.14913 0
M  V30 3253 H 301.4 -5.30034 3.71043 0
M  V30 3254 N 301.532 -0.945985 -1.26051 0
M  V30 3255 C 302.482 -0.430164 -2.23905 0
M  V30 3256 C 303.466 0.47579 -1.53704 0
M  V30 3257 O 304.658 0.310252 -1.7426 0
M  V30 3258 C 301.787 0.298957 -3.41996 0
M  V30 3259 C 300.873 -0.624566 -4.19476 0
M  V30 3260 N 301.264 -1.75245 -4.74471 0
M  V30 3261 C 299.562 -0.431082 -4.43912 0
M  V30 3262 C 300.263 -2.32834 -5.3307 0
M  V30 3263 N 299.239 -1.61583 -5.1903 0
M  V30 3264 H 303.041 -1.29107 -2.64024 0
M  V30 3265 H 300.555 -0.802428 -1.41191 0
M  V30 3266 H 302.552 0.685565 -4.11225 0
M  V30 3267 H 301.212 1.15657 -3.03403 0
M  V30 3268 H 302.223 -2.13449 -4.71868 0
M  V30 3269 H 298.9 0.384364 -4.15727 0
M  V30 3270 H 300.29 -3.27893 -5.86461 0
M  V30 3271 N 303.011 1.40521 -0.713556 0
M  V30 3272 C 303.974 2.29098 -0.0684347 0
M  V30 3273 C 304.974 1.45268 0.689472 0
M  V30 3274 O 306.164 1.66205 0.521677 0
M  V30 3275 C 303.296 3.28446 0.913024 0
M  V30 3276 H 304.489 2.87645 -0.84855 0
M  V30 3277 H 302.042 1.48809 -0.47809 0
M  V30 3278 H 302.777 2.74913 1.72027 0
M  V30 3279 H 302.562 3.90327 0.372472 0
M  V30 3280 H 304.052 3.94777 1.36165 0
M  V30 3281 N 304.489 0.459591 1.5075 0
M  V30 3282 C 305.419 -0.330644 2.31147 0
M  V30 3283 C 306.4 -1.00087 1.37538 0
M  V30 3284 O 307.585 -1.00025 1.66459 0
M  V30 3285 C 304.715 -1.41958 3.16962 0
M  V30 3286 C 303.669 -0.871608 4.19031 0
M  V30 3287 C 302.995 -2.05797 4.9351 0
M  V30 3288 C 304.295 0.109251 5.22186 0
M  V30 3289 H 305.989 0.340336 2.97459 0
M  V30 3290 H 303.535 0.165119 1.4305 0
M  V30 3291 H 305.488 -1.9798 3.71997 0
M  V30 3292 H 304.212 -2.11917 2.48513 0
M  V30 3293 H 302.871 -0.333442 3.6508 0
M  V30 3294 H 302.519 -2.74427 4.21544 0
M  V30 3295 H 302.219 -1.6976 5.62544 0
M  V30 3296 H 303.743 -2.62331 5.51375 0
M  V30 3297 H 305.157 -0.361405 5.7216 0
M  V30 3298 H 303.554 0.383316 5.98875 0
M  V30 3299 H 304.624 1.03887 4.73641 0
M  V30 3300 N 305.967 -1.56429 0.191757 0
M  V30 3301 C 307.383 -1.58754 -0.164137 0
M  V30 3302 C 307.583 -1.20782 -1.61288 0
M  V30 3303 O 306.639 -0.928999 -2.34789 0
M  V30 3304 C 307.952 -3.00396 0.135195 0
M  V30 3305 C 309.5 -3.1291 0.0750351 0
M  V30 3306 C 309.975 -4.56679 0.347632 0
M  V30 3307 N 311.466 -4.62252 0.296131 0
M  V30 3308 C 312.201 -5.71379 0.480948 0
M  V30 3309 N 311.697 -6.88986 0.725933 0
M  V30 3310 N 313.49 -5.60563 0.415435 0
M  V30 3311 H 305.641 -1.79393 1.13718 0
M  V30 3312 H 307.904 -0.832414 0.453643 0
M  V30 3313 H 307.61 -3.32726 1.13958 0
M  V30 3314 H 307.484 -3.72963 -0.563773 0
M  V30 3315 H 309.871 -2.80394 -0.919948 0
M  V30 3316 H 309.952 -2.42736 0.807029 0
M  V30 3317 H 309.596 -4.89907 1.33992 0
M  V30 3318 H 309.526 -5.25039 -0.405212 0
M  V30 3319 H 312.017 -3.7773 0.113259 0
M  V30 3320 H 312.33 -7.68046 0.855857 0
M  V30 3321 H 310.675 -6.90801 0.762788 0
M  V30 3322 H 313.866 -4.67561 0.224486 0
M  V30 3323 H 314.039 -6.45551 0.562889 0
M  V30 3324 N 307.445 0.0818655 -1.57387 0
M  V30 3325 C 308.393 1.11712 -2.04018 0
M  V30 3326 C 309.387 1.40683 -0.94364 0
M  V30 3327 O 310.593 1.40209 -1.12878 0
M  V30 3328 H 306.968 0.377542 -0.650358 0
M  V30 3329 H 308.939 0.697614 -2.90131 0
M  V30 3330 C 307.688 2.42537 -2.49141 0
M  V30 3331 H 307.011 2.21092 -3.33104 0
M  V30 3332 H 308.451 3.13446 -2.85531 0
M  V30 3333 C 306.91 3.0778 -1.37014 0
M  V30 3334 O 307.44 3.95436 -0.706621 0
M  V30 3335 N 305.646 2.68242 -1.11779 0
M  V30 3336 H 305.193 1.97052 -1.65917 0
M  V30 3337 H 305.151 3.1222 -0.369594 0
M  V30 3338 N 308.923 1.53595 0.353017 0
M  V30 3339 C 310.169 1.70638 1.09593 0
M  V30 3340 C 310.502 0.463286 1.88593 0
M  V30 3341 O 309.777 -0.539597 1.86865 0
M  V30 3342 C 310.06 2.96406 2.04489 0
M  V30 3343 C 309.913 4.30901 1.29014 0
M  V30 3344 C 311.232 3.17812 3.0444 0
M  V30 3345 H 308.351 0.620913 0.397034 0
M  V30 3346 H 310.993 1.86254 0.375446 0
M  V30 3347 H 309.143 2.83223 2.65927 0
M  V30 3348 H 310.815 4.55917 0.702638 0
M  V30 3349 H 309.058 4.29741 0.592071 0
M  V30 3350 H 309.729 5.1506 1.98537 0
M  V30 3351 H 312.205 3.30263 2.53112 0
M  V30 3352 H 311.081 4.07223 3.6805 0
M  V30 3353 H 311.342 2.33669 3.75301 0
M  V30 3354 N 310.401 -0.613514 1.45168 0
M  V30 3355 C 311.631 -1.39743 1.52169 0
M  V30 3356 C 312.039 -1.88596 0.151086 0
M  V30 3357 O 311.382 -1.6251 -0.856521 0
M  V30 3358 C 311.444 -2.64035 2.43979 0
M  V30 3359 C 311.108 -2.36861 3.90827 0
M  V30 3360 C 312.105 -1.97591 4.80889 0
M  V30 3361 C 309.79 -2.49956 4.35692 0
M  V30 3362 C 311.784 -1.71768 6.1382 0
M  V30 3363 C 309.471 -2.23747 5.68665 0
M  V30 3364 C 310.469 -1.84714 6.57548 0
M  V30 3365 O 310.157 -1.58809 7.88058 0
M  V30 3366 H 309.889 -0.434382 0.517966 0
M  V30 3367 H 312.443 -0.75587 1.90986 0
M  V30 3368 H 310.673 -3.3089 2.00122 0
M  V30 3369 H 312.362 -3.26069 2.41731 0
M  V30 3370 H 313.128 -1.87015 4.47493 0
M  V30 3371 H 309.007 -2.79305 3.66756 0
M  V30 3372 H 312.551 -1.41227 6.83155 0
M  V30 3373 H 308.448 -2.33938 6.01617 0
M  V30 3374 H 309.216 -1.7291 8.00028 0
M  V30 3375 N 311.879 -1.3236 -0.855495 0
M  V30 3376 C 312.812 -1.15559 -1.96777 0
M  V30 3377 C 313.79 -0.0552681 -1.62506 0
M  V30 3378 O 314.974 -0.214419 -1.87277 0
M  V30 3379 C 312.101 -0.768851 -3.29858 0
M  V30 3380 C 311.147 -1.87429 -3.83109 0
M  V30 3381 S 311.98 -3.48243 -4.06801 0
M  V30 3382 C 313.136 -3.11539 -5.42858 0
M  V30 3383 H 313.369 -2.09717 -2.10727 0
M  V30 3384 H 310.902 -1.17011 -1.00737 0
M  V30 3385 H 312.86 -0.55248 -4.06765 0
M  V30 3386 H 311.521 0.153857 -3.13723 0
M  V30 3387 H 310.714 -1.55667 -4.79358 0
M  V30 3388 H 310.316 -2.04647 -3.13042 0
M  V30 3389 H 312.608 -2.61331 -6.2507 0
M  V30 3390 H 313.551 -4.06806 -5.79582 0
M  V30 3391 H 313.959 -2.48582 -5.06821 0
M  V30 3392 N 313.357 1.07166 -1.15556 0
M  V30 3393 C 314.29 2.13808 -0.797593 0
M  V30 3394 C 315.268 1.6101 0.226812 0
M  V30 3395 O 316.452 1.88161 0.112932 0
M  V30 3396 C 313.579 3.38187 -0.186371 0
M  V30 3397 C 312.625 4.09766 -1.18297 0
M  V30 3398 S 313.458 4.60932 -2.72584 0
M  V30 3399 C 314.614 5.88583 -2.12886 0
M  V30 3400 H 314.847 2.43843 -1.70083 0
M  V30 3401 H 312.38 1.19467 -0.978106 0
M  V30 3402 H 314.338 4.10189 0.159837 0
M  V30 3403 H 312.999 3.06326 0.694489 0
M  V30 3404 H 312.192 4.99065 -0.703562 0
M  V30 3405 H 311.794 3.43736 -1.47381 0
M  V30 3406 H 314.086 6.60866 -1.49208 0
M  V30 3407 H 315.029 6.41241 -3.0036 0
M  V30 3408 H 315.437 5.42194 -1.57116 0
M  V30 3409 N 314.835 0.952656 1.25548 0
M  V30 3410 C 315.765 0.489287 2.28316 0
M  V30 3411 C 316.746 -0.463359 1.63667 0
M  V30 3412 O 317.931 -0.36274 1.90782 0
M  V30 3413 C 315.061 -0.235603 3.465 0
M  V30 3414 C 314.015 0.631593 4.23314 0
M  V30 3415 C 313.341 -0.223923 5.34231 0
M  V30 3416 C 314.641 1.90871 4.86174 0
M  V30 3417 H 316.335 1.34822 2.67326 0
M  V30 3418 H 313.881 0.649728 1.28509 0
M  V30 3419 H 315.834 -0.570882 4.17515 0
M  V30 3420 H 314.558 -1.12877 3.06474 0
M  V30 3421 H 313.217 0.949929 3.54079 0
M  V30 3422 H 312.865 -1.11678 4.90446 0
M  V30 3423 H 312.565 0.35299 5.86539 0
M  V30 3424 H 314.089 -0.554214 6.0808 0
M  V30 3425 H 315.503 1.63997 5.49343 0
M  V30 3426 H 313.9 2.43112 5.4865 0
M  V30 3427 H 314.97 2.61304 4.08471 0
M  V30 3428 N 316.313 -1.40141 0.720998 0
M  V30 3429 C 317.559 -2.01084 0.263231 0
M  V30 3430 C 317.892 -1.57052 -1.14229 0
M  V30 3431 O 317.167 -0.793027 -1.77599 0
M  V30 3432 C 317.45 -3.58401 0.349344 0
M  V30 3433 C 317.303 -4.12491 1.79363 0
M  V30 3434 C 318.622 -4.39231 -0.276351 0
M  V30 3435 H 315.741 -0.730572 0.0971228 0
M  V30 3436 H 318.383 -1.66543 0.914518 0
M  V30 3437 H 316.533 -3.87958 -0.205165 0
M  V30 3438 H 318.205 -3.93711 2.40394 0
M  V30 3439 H 316.448 -3.66576 2.31958 0
M  V30 3440 H 317.119 -5.21646 1.80524 0
M  V30 3441 H 319.595 -4.15637 0.196184 0
M  V30 3442 H 318.471 -5.48586 -0.185681 0
M  V30 3443 H 318.732 -4.20643 -1.36059 0
M  V30 3444 N 317.792 -0.46758 -1.50504 0
M  V30 3445 C 318.742 0.34698 -2.25344 0
M  V30 3446 C 319.726 0.964469 -1.2879 0
M  V30 3447 O 320.918 0.8776 -1.53711 0
M  V30 3448 C 318.047 1.43042 -3.1208 0
M  V30 3449 C 317.133 0.82084 -4.16081 0
M  V30 3450 N 317.524 -0.0567602 -5.05768 0
M  V30 3451 C 315.822 1.08517 -4.32597 0
M  V30 3452 C 316.523 -0.402343 -5.80307 0
M  V30 3453 N 315.499 0.221607 -5.43148 0
M  V30 3454 H 319.301 -0.329129 -2.92051 0
M  V30 3455 H 316.815 -0.281508 -1.59942 0
M  V30 3456 H 318.812 2.02712 -3.64299 0
M  V30 3457 H 317.472 2.10856 -2.46921 0
M  V30 3458 H 318.483 -0.425349 -5.1615 0
M  V30 3459 H 315.16 1.75855 -3.78657 0
M  V30 3460 H 316.55 -1.11834 -6.62528 0
M  V30 3461 N 319.27 1.56325 -0.20005 0
M  V30 3462 C 320.498 2.02105 0.442874 0
M  V30 3463 C 320.913 1.08014 1.5485 0
M  V30 3464 O 320.27 0.0858797 1.82298 0
M  V30 3465 C 320.321 3.47549 0.994583 0
M  V30 3466 O 320.042 4.38049 -0.0669322 0
M  V30 3467 C 321.543 4.0887 1.7129 0
M  V30 3468 H 318.763 0.661807 0.110691 0
M  V30 3469 H 321.307 2.02134 -0.310207 0
M  V30 3470 H 319.462 3.48204 1.69803 0
M  V30 3471 H 319.876 5.23368 0.344462 0
M  V30 3472 H 321.35 5.12475 2.05118 0
M  V30 3473 H 321.827 3.52615 2.61838 0
M  V30 3474 H 322.433 4.12002 1.05518 0
M  V30 3475 N 320.748 -0.0735177 1.57428 0
M  V30 3476 C 321.695 -1.08756 2.0357 0
M  V30 3477 C 322.665 -1.38559 0.916 0
M  V30 3478 O 323.85 -1.49656 1.18354 0
M  V30 3479 C 320.99 -2.39657 2.48311 0
M  V30 3480 C 320.103 -2.16399 3.73892 0
M  V30 3481 C 319.238 -3.40852 4.07423 0
M  V30 3482 C 318.277 -3.1295 5.2605 0
M  V30 3483 N 317.414 -4.29729 5.55228 0
M  V30 3484 H 322.254 -0.687104 2.8997 0
M  V30 3485 H 319.791 -0.327709 1.43403 0
M  V30 3486 H 321.749 -3.16081 2.72303 0
M  V30 3487 H 320.379 -2.77508 1.64891 0
M  V30 3488 H 319.431 -1.30676 3.57251 0
M  V30 3489 H 320.743 -1.91788 4.60455 0
M  V30 3490 H 319.897 -4.25671 4.32306 0
M  V30 3491 H 318.636 -3.68537 3.19425 0
M  V30 3492 H 317.641 -2.26526 5.00965 0
M  V30 3493 H 318.866 -2.86589 6.15665 0
M  V30 3494 H 316.812 -4.57448 4.70188 0
M  V30 3495 H 316.729 -4.08385 6.36206 0
M  V30 3496 H 317.997 -5.1555 5.84661 0
M  V30 3497 N 322.226 -1.5378 -0.344866 0
M  V30 3498 C 323.173 -1.81676 -1.42346 0
M  V30 3499 C 324.143 -0.662376 -1.52321 0
M  V30 3500 O 325.328 -0.906675 -1.67881 0
M  V30 3501 C 322.468 -2.03087 -2.79015 0
M  V30 3502 C 321.581 -3.30799 -2.77842 0
M  V30 3503 C 320.716 -3.42285 -4.0622 0
M  V30 3504 C 319.755 -4.6395 -3.9927 0
M  V30 3505 N 318.892 -4.72477 -5.19336 0
M  V30 3506 H 323.732 -2.73703 -1.17858 0
M  V30 3507 H 321.269 -1.35568 -0.570949 0
M  V30 3508 H 323.227 -2.1349 -3.58438 0
M  V30 3509 H 321.857 -1.14375 -3.01858 0
M  V30 3510 H 320.909 -3.29244 -1.90533 0
M  V30 3511 H 322.221 -4.20314 -2.68584 0
M  V30 3512 H 321.375 -3.52113 -4.94066 0
M  V30 3513 H 320.114 -2.50823 -4.18258 0
M  V30 3514 H 319.119 -4.54201 -3.09809 0
M  V30 3515 H 320.344 -5.56775 -3.88817 0
M  V30 3516 H 318.29 -3.83924 -5.3192 0
M  V30 3517 H 318.207 -5.55927 -5.12329 0
M  V30 3518 H 319.475 -4.86613 -6.08957 0
M  V30 3519 N 323.704 0.605807 -1.45491 0
M  V30 3520 C 324.951 1.36476 -1.49601 0
M  V30 3521 C 325.279 1.94007 -0.138452 0
M  V30 3522 O 324.534 1.75638 0.863114 0
M  V30 3523 C 324.833 2.53012 -2.52428 0
M  V30 3524 C 324.499 2.13617 -3.97087 0
M  V30 3525 C 323.161 2.02587 -4.36477 0
M  V30 3526 C 325.513 1.82899 -4.88055 0
M  V30 3527 C 322.841 1.59064 -5.64726 0
M  V30 3528 C 325.193 1.40861 -6.16718 0
M  V30 3529 C 323.857 1.28391 -6.55036 0
M  V30 3530 H 323.127 0.499402 -0.547429 0
M  V30 3531 H 325.774 0.684546 -1.78847 0
M  V30 3532 H 324.079 3.26379 -2.16758 0
M  V30 3533 H 325.776 3.1124 -2.52845 0
M  V30 3534 H 322.366 2.23129 -3.65939 0
M  V30 3535 H 326.55 1.90317 -4.58359 0
M  V30 3536 H 321.806 1.48034 -5.93208 0
M  V30 3537 H 325.98 1.16138 -6.86648 0
M  V30 3538 H 323.607 0.944403 -7.54311 0
M  V30 3539 N 325.182 1.32811 0.848464 0
M  V30 3540 C 326.112 1.24882 1.97299 0
M  V30 3541 C 327.093 0.131357 1.69592 0
M  V30 3542 O 328.278 0.319553 1.91553 0
M  V30 3543 C 325.408 0.97746 3.33261 0
M  V30 3544 C 324.362 2.05682 3.75338 0
M  V30 3545 C 323.688 1.63777 5.09 0
M  V30 3546 C 324.988 3.47254 3.90144 0
M  V30 3547 H 326.682 2.18966 2.04191 0
M  V30 3548 H 324.228 1.05413 0.981029 0
M  V30 3549 H 326.181 0.908513 4.1149 0
M  V30 3550 H 324.905 0.000980011 3.266 0
M  V30 3551 H 323.564 2.11603 2.99366 0
M  V30 3552 H 323.212 0.648569 4.98801 0
M  V30 3553 H 322.912 2.36 5.38124 0
M  V30 3554 H 324.436 1.5833 5.89715 0
M  V30 3555 H 325.85 3.43888 4.58709 0
M  V30 3556 H 324.247 4.1788 4.30693 0
M  V30 3557 H 325.317 3.86462 2.92874 0
M  V30 3558 N 326.66 -1.06551 1.16123 0
M  V30 3559 C 327.888 -1.83005 0.965237 0
M  V30 3560 C 328.303 -1.82423 -0.486542 0
M  V30 3561 O 327.66 -1.24152 -1.33763 0
M  V30 3562 C 327.711 -3.29733 1.48183 0
M  V30 3563 O 327.432 -3.30416 2.87674 0
M  V30 3564 C 328.933 -4.22926 1.32848 0
M  V30 3565 H 326.153 -0.577118 0.342309 0
M  V30 3566 H 328.697 -1.3445 1.54089 0
M  V30 3567 H 326.852 -3.75609 0.948517 0
M  V30 3568 H 327.266 -4.22149 3.11272 0
M  V30 3569 H 328.74 -5.23916 1.73827 0
M  V30 3570 H 329.217 -4.38346 0.273692 0
M  V30 3571 H 329.823 -3.82894 1.85127 0
M  V30 3572 N 328.138 -0.959301 -1.25041 0
M  V30 3573 C 329.085 -0.482057 -2.2571 0
M  V30 3574 C 330.055 0.467939 -1.59372 0
M  V30 3575 O 331.24 0.380159 -1.86974 0
M  V30 3576 C 328.38 0.229623 -3.44335 0
M  V30 3577 C 327.493 -0.758156 -4.25295 0
M  V30 3578 C 326.628 -0.0234403 -5.31195 0
M  V30 3579 C 325.667 -1.00184 -6.03846 0
M  V30 3580 N 324.804 -0.29769 -7.01469 0
M  V30 3581 H 329.644 -1.34538 -2.65901 0
M  V30 3582 H 327.181 -0.674592 -1.3072 0
M  V30 3583 H 329.139 0.658856 -4.11965 0
M  V30 3584 H 327.769 1.05696 -3.05005 0
M  V30 3585 H 326.821 -1.30586 -3.57284 0
M  V30 3586 H 328.133 -1.50458 -4.75567 0
M  V30 3587 H 327.287 0.464201 -6.04922 0
M  V30 3588 H 326.026 0.755741 -4.81809 0
M  V30 3589 H 325.031 -1.50044 -5.2893 0
M  V30 3590 H 326.256 -1.78133 -6.55321 0
M  V30 3591 H 324.202 0.462668 -6.54366 0
M  V30 3592 H 324.119 -0.983128 -7.4958 0
M  V30 3593 H 325.387 0.16826 -7.79318 0
M  V30 3594 N 329.616 1.39756 -0.72842 0
M  V30 3595 C 330.564 2.32485 -0.0731849 0
M  V30 3596 C 331.558 1.52717 0.733063 0
M  V30 3597 O 332.764 1.68428 0.634988 0
M  V30 3598 H 329.139 0.751984 -0.00486469 0
M  V30 3599 H 331.11 2.85382 -0.871761 0
M  V30 3600 C 329.859 3.37773 0.824908 0
M  V30 3601 H 329.182 3.99227 0.213915 0
M  V30 3602 H 330.622 4.05121 1.25111 0
M  V30 3603 C 329.081 2.74287 1.95622 0
M  V30 3604 O 329.611 2.61618 3.04826 0
M  V30 3605 N 327.817 2.32475 1.74367 0
M  V30 3606 H 327.364 2.4298 0.855494 0
M  V30 3607 H 327.322 1.90337 2.50238 0
M  V30 3608 N 331.094 0.475555 1.50254 0
M  V30 3609 C 332.322 -0.0754493 2.06762 0
M  V30 3610 C 332.737 -1.33111 1.33891 0
M  V30 3611 O 332.094 -1.77846 0.40952 0
M  V30 3612 C 332.145 -0.359008 3.59713 0
M  V30 3613 O 331.866 0.846851 4.29837 0
M  V30 3614 C 333.367 -0.956484 4.32858 0
M  V30 3615 H 330.587 0.00907525 0.670939 0
M  V30 3616 H 333.131 0.665618 1.93364 0
M  V30 3617 H 331.286 -1.05001 3.72899 0
M  V30 3618 H 331.7 0.594162 5.21124 0
M  V30 3619 H 333.174 -1.10463 5.40834 0
M  V30 3620 H 333.651 -1.94775 3.93649 0
M  V30 3621 H 334.257 -0.303723 4.24214 0
M  V30 3622 N 332.573 -1.56217 0.208337 0
M  V30 3623 C 333.798 -2.02782 -0.435222 0
M  V30 3624 C 334.223 -1.08738 -1.53485 0
M  V30 3625 O 333.581 -0.0731855 -1.81152 0
M  V30 3626 C 333.629 -3.47687 -0.956335 0
M  V30 3627 O 332.733 -3.56773 -2.06849 0
M  V30 3628 H 332.074 -0.656403 -0.100158 0
M  V30 3629 H 334.604 -2.02033 0.3231 0
M  V30 3630 H 334.614 -3.87745 -1.26955 0
M  V30 3631 H 333.289 -4.15624 -0.15143 0
M  V30 3632 H 331.866 -3.28597 -1.76292 0
M  V30 3633 N 334.051 0.0651679 -1.57465 0
M  V30 3634 C 335.297 0.758912 -1.88712 0
M  V30 3635 C 335.652 1.7485 -0.802819 0
M  V30 3636 O 334.945 1.90632 0.192359 0
M  V30 3637 C 335.139 1.50081 -3.24362 0
M  V30 3638 C 334.968 0.584579 -4.45884 0
M  V30 3639 C 333.738 0.219039 -5.04825 0
M  V30 3640 C 335.936 -0.121559 -5.14156 0
M  V30 3641 N 333.918 -0.702222 -6.09871 0
M  V30 3642 C 335.289 -0.899767 -6.13436 0
M  V30 3643 C 337.344 -0.192331 -4.97528 0
M  V30 3644 C 336.047 -1.74218 -6.97883 0
M  V30 3645 C 338.073 -1.02174 -5.82507 0
M  V30 3646 C 337.435 -1.78798 -6.8133 0
M  V30 3647 H 333.534 0.25293 -0.739967 0
M  V30 3648 H 336.118 0.0201744 -1.9469 0
M  V30 3649 H 334.289 2.21023 -3.1938 0
M  V30 3650 H 336.021 2.14409 -3.43236 0
M  V30 3651 H 332.776 0.57336 -4.70117 0
M  V30 3652 H 333.2 -1.15629 -6.67052 0
M  V30 3653 H 337.842 0.385741 -4.21037 0
M  V30 3654 H 335.56 -2.3312 -7.73745 0
M  V30 3655 H 339.146 -1.07957 -5.71696 0
M  V30 3656 H 338.026 -2.41942 -7.45945 0
M  V30 3657 N 335.529 1.53961 0.336706 0
M  V30 3658 C 336.945 1.44378 0.680241 0
M  V30 3659 C 337.145 0.606034 1.9217 0
M  V30 3660 O 336.201 0.099688 2.52303 0
M  V30 3661 C 337.514 2.87945 0.8665 0
M  V30 3662 C 339.062 2.97763 0.964682 0
M  V30 3663 C 339.537 4.42453 1.18321 0
M  V30 3664 N 341.028 4.46008 1.25025 0
M  V30 3665 C 341.763 5.55102 1.43697 0
M  V30 3666 N 341.259 6.7419 1.59498 0
M  V30 3667 N 343.052 5.42727 1.463 0
M  V30 3668 H 335.203 2.06918 -0.479455 0
M  V30 3669 H 337.466 0.935634 -0.152619 0
M  V30 3670 H 337.172 3.51691 0.0256937 0
M  V30 3671 H 337.046 3.33293 1.76623 0
M  V30 3672 H 339.433 2.34153 1.796 0
M  V30 3673 H 339.514 2.55766 0.041708 0
M  V30 3674 H 339.158 5.06645 0.356788 0
M  V30 3675 H 339.088 4.82048 2.11985 0
M  V30 3676 H 341.579 3.60196 1.14312 0
M  V30 3677 H 341.892 7.53095 1.734 0
M  V30 3678 H 340.237 6.77123 1.56621 0
M  V30 3679 H 343.428 4.48647 1.33543 0
M  V30 3680 H 343.601 6.27806 1.6051 0
M  V30 3681 N 337.007 -0.598083 1.45811 0
M  V30 3682 C 338.284 -1.35777 1.40797 0
M  V30 3683 C 338.664 -2.10935 0.083462 0
M  V30 3684 O 338.012 -2.08505 -0.934763 0
M  V30 3685 C 338.222 -2.29666 2.62783 0
M  V30 3686 C 339.57 -2.91977 3.08277 0
M  V30 3687 O 340.594 -2.39984 2.63223 0
M  V30 3688 O 339.453 -3.86376 3.86491 0
M  V30 3689 H 336.547 -0.609291 0.55919 0
M  V30 3690 H 339.093 -0.620379 1.57954 0
M  V30 3691 H 337.865 -1.73454 3.50756 0
M  V30 3692 H 337.488 -3.1077 2.48008 0
M  V30 3693 N 338.485 -1.33259 -0.841409 0
M  V30 3694 C 339.733 -1.24326 -1.59334 0
M  V30 3695 C 340.054 0.191564 -1.94057 0
M  V30 3696 O 339.324 1.11967 -1.60749 0
M  V30 3697 H 337.904 -0.457174 -0.590763 0
M  V30 3698 H 340.566 -1.66947 -1.00571 0
M  V30 3699 H 339.662 -1.8352 -2.52442 0
M  V30 3700 N 339.963 1.05934 -1.16686 0
M  V30 3701 C 341.209 1.79211 -0.962023 0
M  V30 3702 C 341.564 1.85667 0.504545 0
M  V30 3703 O 340.857 1.33991 1.36956 0
M  V30 3704 C 341.051 3.23105 -1.52767 0
M  V30 3705 C 340.88 3.30673 -3.04771 0
M  V30 3706 C 339.65 3.40395 -3.73442 0
M  V30 3707 C 341.848 3.20234 -4.02436 0
M  V30 3708 N 339.83 3.37015 -5.13122 0
M  V30 3709 C 341.201 3.24138 -5.28521 0
M  V30 3710 C 343.256 3.04143 -3.9421 0
M  V30 3711 C 341.959 3.13607 -6.47336 0
M  V30 3712 C 343.985 2.94951 -5.12599 0
M  V30 3713 C 343.347 2.99481 -6.37566 0
M  V30 3714 H 339.446 0.668442 -0.405844 0
M  V30 3715 H 342.03 1.26341 -1.48142 0
M  V30 3716 H 340.201 3.74364 -1.03471 0
M  V30 3717 H 341.933 3.84579 -1.26021 0
M  V30 3718 H 338.688 3.45344 -3.2409 0
M  V30 3719 H 339.112 3.38815 -5.86117 0
M  V30 3720 H 343.754 2.99484 -2.98445 0
M  V30 3721 H 341.472 3.17022 -7.43319 0
M  V30 3722 H 345.058 2.83583 -5.08008 0
M  V30 3723 H 343.938 2.92431 -7.27636 0
M  V30 3724 N 341.441 0.965919 1.2453 0
M  V30 3725 C 342.689 0.625593 1.92174 0
M  V30 3726 C 343.01 -0.841652 1.75901 0
M  V30 3727 O 342.28 -1.60061 1.12948 0
M  V30 3728 H 340.86 0.228388 0.71123 0
M  V30 3729 H 343.522 1.2266 1.51461 0
M  V30 3730 H 342.618 0.864653 2.99884 0
M  V30 3731 N 342.919 -1.39368 0.735821 0
M  V30 3732 C 343.866 -2.30599 0.0963825 0
M  V30 3733 C 344.836 -1.49257 -0.728794 0
M  V30 3734 O 346.021 -1.77941 -0.688588 0
M  V30 3735 C 343.161 -3.35596 -0.804305 0
M  V30 3736 C 342.274 -4.31987 0.0335761 0
M  V30 3737 C 341.409 -5.24053 -0.868461 0
M  V30 3738 C 340.448 -6.12095 -0.0258776 0
M  V30 3739 N 339.585 -6.96514 -0.883893 0
M  V30 3740 H 344.425 -2.8471 0.880002 0
M  V30 3741 H 341.962 -1.40188 0.445619 0
M  V30 3742 H 343.92 -3.95062 -1.34096 0
M  V30 3743 H 342.55 -2.82938 -1.55389 0
M  V30 3744 H 341.602 -3.74133 0.68766 0
M  V30 3745 H 342.914 -4.94074 0.685036 0
M  V30 3746 H 342.068 -5.88549 -1.47293 0
M  V30 3747 H 340.807 -4.62289 -1.5537 0
M  V30 3748 H 339.812 -5.4661 0.591386 0
M  V30 3749 H 341.037 -6.75923 0.656156 0
M  V30 3750 H 338.983 -6.37318 -1.55441 0
M  V30 3751 H 338.9 -7.55448 -0.288931 0
M  V30 3752 H 340.168 -7.65439 -1.4739 0
M  V30 3753 N 344.397 -0.483516 -1.5 0
M  V30 3754 C 345.327 0.293829 -2.31644 0
M  V30 3755 C 346.308 0.978864 -1.39112 0
M  V30 3756 O 347.493 0.973644 -1.68029 0
M  V30 3757 C 344.623 1.36897 -3.19181 0
M  V30 3758 C 343.577 0.804833 -4.20365 0
M  V30 3759 C 342.903 1.9792 -4.96721 0
M  V30 3760 C 344.203 -0.192313 -5.21946 0
M  V30 3761 H 345.897 -0.387616 -2.9688 0
M  V30 3762 H 343.443 -0.187856 -1.42769 0
M  V30 3763 H 345.396 1.92037 -3.751 0
M  V30 3764 H 344.12 2.07936 -2.51853 0
M  V30 3765 H 342.779 0.275319 -3.65565 0
M  V30 3766 H 342.427 2.67686 -4.25856 0
M  V30 3767 H 342.127 1.60789 -5.65173 0
M  V30 3768 H 343.651 2.53526 -5.55479 0
M  V30 3769 H 345.065 0.270333 -5.72662 0
M  V30 3770 H 343.462 -0.478543 -5.98189 0
M  V30 3771 H 344.532 -1.11409 -4.71928 0
M  V30 3772 N 345.875 1.56104 -0.216619 0
M  V30 3773 C 346.822 2.2007 0.695531 0
M  V30 3774 C 347.792 1.15471 1.19397 0
M  V30 3775 O 348.977 1.43807 1.25396 0
M  V30 3776 C 346.117 2.88073 1.90021 0
M  V30 3777 C 345.23 4.07253 1.44113 0
M  V30 3778 C 344.365 4.63052 2.603 0
M  V30 3779 C 343.404 5.74545 2.11103 0
M  V30 3780 N 342.541 6.24656 3.20545 0
M  V30 3781 H 347.381 2.97655 0.143327 0
M  V30 3782 H 344.918 1.46982 0.0589934 0
M  V30 3783 H 346.876 3.25681 2.60745 0
M  V30 3784 H 345.506 2.13015 2.42538 0
M  V30 3785 H 344.558 3.75164 0.628999 0
M  V30 3786 H 345.87 4.8783 1.04036 0
M  V30 3787 H 345.024 5.03078 3.39113 0
M  V30 3788 H 343.763 3.81628 3.03663 0
M  V30 3789 H 342.768 5.34027 1.3075 0
M  V30 3790 H 343.993 6.57801 1.68746 0
M  V30 3791 H 341.939 5.46148 3.63399 0
M  V30 3792 H 341.856 7.00343 2.84704 0
M  V30 3793 H 343.124 6.69338 3.99508 0
M  V30 3794 N 347.353 -0.0568162 1.57498 0
M  V30 3795 C 348.602 -0.752001 1.87157 0
M  V30 3796 C 348.915 -1.77978 0.811375 0
M  V30 3797 O 350.121 -2.52559 0.996293 0
M  V30 3798 C 348.577 -1.38844 3.3204 0
M  V30 3799 C 348.185 -0.398456 4.46225 0
M  V30 3800 C 349.929 -2.06512 3.70882 0
M  V30 3801 C 347.836 -1.04166 5.82154 0
M  V30 3802 H 346.766 -0.28461 0.698222 0
M  V30 3803 H 349.417 -0.00561272 1.83499 0
M  V30 3804 H 347.799 -2.1836 3.30356 0
M  V30 3805 H 348.973 0.367977 4.59328 0
M  V30 3806 H 347.288 0.174592 4.16034 0
M  V30 3807 H 349.885 -2.55437 4.6974 0
M  V30 3808 H 350.228 -2.87117 3.01445 0
M  V30 3809 H 350.761 -1.33808 3.7462 0
M  V30 3810 H 347.5 -0.275614 6.5492 0
M  V30 3811 H 347.02 -1.7786 5.72823 0
M  V30 3812 H 348.699 -1.55715 6.27982 0
M  V30 3813 N 348.832 -1.54138 -0.328536 0
M  V30 3814 C 350.079 -1.72105 -1.06706 0
M  V30 3815 C 350.407 -0.492111 -1.88171 0
M  V30 3816 O 349.662 0.526153 -1.88494 0
M  V30 3817 C 349.961 -2.9457 -2.02393 0
M  V30 3818 C 349.627 -4.29544 -1.37122 0
M  V30 3819 C 348.289 -4.6624 -1.19052 0
M  V30 3820 C 350.641 -5.1333 -0.902331 0
M  V30 3821 C 347.969 -5.84325 -0.527331 0
M  V30 3822 C 350.321 -6.32094 -0.252988 0
M  V30 3823 C 348.985 -6.67473 -0.0600901 0
M  V30 3824 H 348.255 -0.629775 -0.390466 0
M  V30 3825 H 350.902 -1.88372 -0.34473 0
M  V30 3826 H 349.207 -2.72969 -2.81061 0
M  V30 3827 H 350.904 -3.05665 -2.59557 0
M  V30 3828 H 347.494 -4.0067 -1.52188 0
M  V30 3829 H 351.678 -4.855 -1.02974 0
M  V30 3830 H 346.934 -6.103 -0.366634 0
M  V30 3831 H 351.108 -6.96299 0.118366 0
M  V30 3832 H 348.735 -7.58832 0.455828 0
M  V30 3833 N 350.31 0.590341 -1.46126 0
M  V30 3834 C 351.535 1.37991 -1.54833 0
M  V30 3835 C 351.96 1.87163 -0.187506 0
M  V30 3836 O 351.318 1.61133 0.831008 0
M  V30 3837 C 351.366 2.54867 -2.55098 0
M  V30 3838 O 350.47 3.56061 -2.08073 0
M  V30 3839 H 349.811 0.411265 -0.521303 0
M  V30 3840 H 352.341 0.716819 -1.91632 0
M  V30 3841 H 352.351 3.01886 -2.74461 0
M  V30 3842 H 351.026 2.18429 -3.53923 0
M  V30 3843 H 349.603 3.15574 -1.98664 0
M  V30 3844 N 351.788 1.33704 0.83433 0
M  V30 3845 C 352.738 1.20899 1.93306 0
M  V30 3846 C 353.722 0.110783 1.60518 0
M  V30 3847 O 354.914 0.339331 1.73717 0
M  V30 3848 C 352.043 0.955018 3.29749 0
M  V30 3849 C 351.129 2.09587 3.68692 0
M  V30 3850 N 351.52 3.34621 3.79292 0
M  V30 3851 C 349.818 2.00358 3.98463 0
M  V30 3852 C 350.519 4.09472 4.13167 0
M  V30 3853 N 349.495 3.37954 4.25779 0
M  V30 3854 H 353.297 2.15665 1.99664 0
M  V30 3855 H 350.811 1.25777 1.02732 0
M  V30 3856 H 352.808 0.844208 4.08263 0
M  V30 3857 H 351.468 0.0159317 3.24696 0
M  V30 3858 H 352.479 3.69313 3.63082 0
M  V30 3859 H 349.156 1.14137 4.01596 0
M  V30 3860 H 350.546 5.17391 4.28668 0
M  V30 3861 N 353.266 -1.05314 1.17247 0
M  V30 3862 C 354.496 -1.81707 0.983166 0
M  V30 3863 C 354.904 -1.83222 -0.471822 0
M  V30 3864 O 354.247 -1.25721 -1.3394 0
M  V30 3865 C 354.309 -3.29134 1.44606 0
M  V30 3866 C 353.973 -3.51304 2.92292 0
M  V30 3867 C 354.97 -3.4353 3.90235 0
M  V30 3868 C 352.655 -3.78306 3.30439 0
M  V30 3869 C 354.649 -3.62442 5.24323 0
M  V30 3870 C 352.336 -3.96866 4.64694 0
M  V30 3871 C 353.334 -3.88933 5.61445 0
M  V30 3872 O 353.022 -4.06976 6.93272 0
M  V30 3873 H 352.754 -0.579476 0.348114 0
M  V30 3874 H 355.308 -1.33705 1.55924 0
M  V30 3875 H 353.538 -3.78046 0.813537 0
M  V30 3876 H 355.227 -3.87049 1.22262 0
M  V30 3877 H 355.993 -3.22648 3.62109 0
M  V30 3878 H 351.872 -3.83585 2.55702 0
M  V30 3879 H 355.416 -3.56165 5.99827 0
M  V30 3880 H 351.313 -4.1724 4.92525 0
M  V30 3881 H 352.081 -4.24209 6.99992 0
M  V30 3882 N 354.744 -0.972509 -1.24016 0
M  V30 3883 C 355.654 -0.5143 -2.28893 0
M  V30 3884 C 356.67 0.427078 -1.68677 0
M  V30 3885 O 357.846 0.298939 -1.99169 0
M  V30 3886 C 354.911 0.183598 -3.46214 0
M  V30 3887 C 353.972 -0.798202 -4.21814 0
M  V30 3888 C 353.205 -0.133514 -5.33533 0
M  V30 3889 O 353.428 1.07714 -5.60137 0
M  V30 3890 O 352.362 -0.828103 -5.96176 0
M  V30 3891 H 356.188 -1.38629 -2.70214 0
M  V30 3892 H 353.773 -0.739769 -1.29799 0
M  V30 3893 H 355.655 0.575433 -4.17453 0
M  V30 3894 H 354.33 1.03048 -3.0686 0
M  V30 3895 H 353.237 -1.24059 -3.52931 0
M  V30 3896 H 354.57 -1.61364 -4.64997 0
M  V30 3897 N 356.222 1.38976 -0.743202 0
M  V30 3898 C 357.638 1.53984 -0.419664 0
M  V30 3899 C 357.838 1.70837 1.0685 0
M  V30 3900 O 356.894 1.7135 1.8546 0
M  V30 3901 C 358.207 2.75287 -1.20985 0
M  V30 3902 C 359.755 2.89129 -1.19889 0
M  V30 3903 C 360.23 4.13381 -1.97181 0
M  V30 3904 N 361.721 4.20437 -1.94389 0
M  V30 3905 C 362.456 5.15547 -2.50996 0
M  V30 3906 N 361.952 6.16395 -3.16274 0
M  V30 3907 N 363.745 5.07822 -2.40984 0
M  V30 3908 H 355.896 1.26285 -1.7078 0
M  V30 3909 H 358.159 0.612689 -0.723406 0
M  V30 3910 H 357.865 2.69204 -2.26323 0
M  V30 3911 H 357.739 3.68184 -0.819759 0
M  V30 3912 H 360.126 2.947 -0.153606 0
M  V30 3913 H 360.207 1.97272 -1.62841 0
M  V30 3914 H 359.851 4.08572 -3.01714 0
M  V30 3915 H 359.781 5.04298 -1.51629 0
M  V30 3916 H 362.272 3.48205 -1.46839 0
M  V30 3917 H 362.585 6.85443 -3.56915 0
M  V30 3918 H 360.93 6.16758 -3.20367 0
M  V30 3919 H 364.121 4.27973 -1.89622 0
M  V30 3920 H 364.294 5.81767 -2.85397 0
M  V30 3921 N 357.7 0.491464 1.49741 0
M  V30 3922 C 358.648 -0.305837 2.30581 0
M  V30 3923 C 359.642 -0.971642 1.38764 0
M  V30 3924 O 360.848 -0.90042 1.5586 0
M  V30 3925 H 357.223 -0.117482 0.742767 0
M  V30 3926 H 359.194 0.396093 2.95759 0
M  V30 3927 C 357.943 -1.36319 3.19863 0
M  V30 3928 H 357.266 -0.860258 3.90435 0
M  V30 3929 H 358.706 -1.89323 3.79385 0
M  V30 3930 C 357.165 -2.37621 2.38826 0
M  V30 3931 O 357.695 -3.43311 2.08567 0
M  V30 3932 N 355.901 -2.09849 2.01026 0
M  V30 3933 H 355.448 -1.23922 2.25834 0
M  V30 3934 H 355.406 -2.77859 1.47112 0
M  V30 3935 N 359.178 -1.55987 0.224894 0
M  V30 3936 C 360.594 -1.59066 -0.130426 0
M  V30 3937 C 360.794 -1.24176 -1.5869 0
M  V30 3938 O 359.85 -0.978592 -2.32766 0
M  V30 3939 C 361.163 -3.00042 0.198883 0
M  V30 3940 C 362.711 -3.1268 0.141391 0
M  V30 3941 C 363.186 -4.55839 0.444422 0
M  V30 3942 N 364.677 -4.6152 0.394115 0
M  V30 3943 C 365.412 -5.70231 0.602038 0
M  V30 3944 N 364.908 -6.87291 0.871914 0
M  V30 3945 N 366.701 -5.59555 0.534245 0
M  V30 3946 H 358.852 -1.76941 1.17497 0
M  V30 3947 H 361.115 -0.822604 0.471197 0
M  V30 3948 H 360.821 -3.30234 1.2099 0
M  V30 3949 H 360.695 -3.74075 -0.484535 0
M  V30 3950 H 363.082 -2.82283 -0.860265 0
M  V30 3951 H 363.163 -2.40969 0.858335 0
M  V30 3952 H 362.807 -4.86954 1.44353 0
M  V30 3953 H 362.737 -5.2578 -0.293752 0
M  V30 3954 H 365.228 -3.77405 0.193356 0
M  V30 3955 H 365.541 -7.66058 1.01858 0
M  V30 3956 H 363.886 -6.89028 0.909145 0
M  V30 3957 H 367.077 -4.6698 0.323612 0
M  V30 3958 H 367.25 -6.44211 0.699693 0
M  V30 3959 N 360.656 0.0484629 -1.57525 0
M  V30 3960 C 361.586 1.0549 -2.08313 0
M  V30 3961 C 362.567 1.38929 -0.981463 0
M  V30 3962 O 363.752 1.48151 -1.25558 0
M  V30 3963 C 360.882 2.36162 -2.54646 0
M  V30 3964 C 359.836 2.17016 -3.68901 0
M  V30 3965 C 359.162 3.53278 -4.01371 0
M  V30 3966 C 360.462 1.57219 -4.98076 0
M  V30 3967 H 362.156 0.632195 -2.92649 0
M  V30 3968 H 359.702 0.302654 -1.40784 0
M  V30 3969 H 361.655 3.06882 -2.88793 0
M  V30 3970 H 360.379 2.80456 -1.67368 0
M  V30 3971 H 359.038 1.48733 -3.35073 0
M  V30 3972 H 358.686 3.95185 -3.11188 0
M  V30 3973 H 358.386 3.41299 -4.78318 0
M  V30 3974 H 359.91 4.25391 -4.38035 0
M  V30 3975 H 361.324 2.17832 -5.30304 0
M  V30 3976 H 359.721 1.55871 -5.79503 0
M  V30 3977 H 360.791 0.535956 -4.81929 0
M  V30 3978 N 362.134 1.5431 0.320358 0
M  V30 3979 C 363.38 1.72924 1.05949 0
M  V30 3980 C 363.713 0.503185 1.87568 0
M  V30 3981 O 362.988 -0.499839 1.87968 0
M  V30 3982 C 363.271 3.00676 1.98156 0
M  V30 3983 C 363.124 4.3354 1.19845 0
M  V30 3984 C 364.443 3.24198 2.9763 0
M  V30 3985 H 361.562 0.629195 0.383774 0
M  V30 3986 H 364.204 1.87008 0.335854 0
M  V30 3987 H 362.354 2.888 2.59859 0
M  V30 3988 H 364.026 4.57305 0.605773 0
M  V30 3989 H 362.269 4.309 0.500784 0
M  V30 3990 H 362.94 5.19156 1.87567 0
M  V30 3991 H 365.416 3.35557 2.4605 0
M  V30 3992 H 364.292 4.14938 3.59329 0
M  V30 3993 H 364.553 2.41577 3.7026 0
M  V30 3994 N 363.613 -0.582584 1.46437 0
M  V30 3995 C 364.523 -1.71949 1.59595 0
M  V30 3996 C 365.539 -1.67264 0.479443 0
M  V30 3997 O 366.715 -1.87171 0.743579 0
M  V30 3998 C 363.78 -3.08452 1.58298 0
M  V30 3999 C 362.841 -3.244 2.81182 0
M  V30 4000 C 362.074 -4.54391 2.79937 0
M  V30 4001 O 362.297 -5.38287 1.8869 0
M  V30 4002 O 361.231 -4.73588 3.71481 0
M  V30 4003 H 365.057 -1.63795 2.55744 0
M  V30 4004 H 362.642 -0.749643 1.29231 0
M  V30 4005 H 364.524 -3.89732 1.60271 0
M  V30 4006 H 363.199 -3.17043 0.653094 0
M  V30 4007 H 362.106 -2.42613 2.84763 0
M  V30 4008 H 363.439 -3.20699 3.7338 0
M  V30 4009 N 365.091 -1.34144 -0.827227 0
M  V30 4010 C 366.319 -1.29325 -1.61501 0
M  V30 4011 C 366.734 0.13354 -1.88327 0
M  V30 4012 O 366.091 1.0793 -1.47164 0
M  V30 4013 C 366.142 -2.07746 -2.95844 0
M  V30 4014 O 365.863 -3.4486 -2.70191 0
M  V30 4015 C 367.364 -2.10273 -3.90256 0
M  V30 4016 H 364.584 -0.445069 -0.50215 0
M  V30 4017 H 367.128 -1.76693 -1.02955 0
M  V30 4018 H 365.283 -1.6403 -3.5096 0
M  V30 4019 H 365.697 -3.85345 -3.55822 0
M  V30 4020 H 367.171 -2.69575 -4.81698 0
M  V30 4021 H 367.648 -1.096 -4.25305 0
M  V30 4022 H 368.254 -2.54059 -3.41078 0
M  V30 4023 N 366.569 1.04691 -1.17803 0
M  V30 4024 C 367.797 1.81446 -0.99423 0
M  V30 4025 C 368.212 1.83174 0.457459 0
M  V30 4026 O 367.569 1.26265 1.31771 0
M  V30 4027 C 367.62 3.27334 -1.5341 0
M  V30 4028 O 367.341 3.25798 -2.92895 0
M  V30 4029 C 368.842 4.20759 -1.39559 0
M  V30 4030 H 366.062 0.571599 -0.351447 0
M  V30 4031 H 368.606 1.31982 -1.56208 0
M  V30 4032 H 366.761 3.74052 -1.00815 0
M  V30 4033 H 367.175 4.17144 -3.17949 0
M  V30 4034 H 368.649 5.21084 -1.82141 0
M  V30 4035 H 369.126 4.37856 -0.343394 0
M  V30 4036 H 369.732 3.79901 -1.91195 0
M  V30 4037 N 368.047 0.979072 1.23499 0
M  V30 4038 C 369.296 0.642751 1.91185 0
M  V30 4039 C 369.609 -0.827253 1.77245 0
M  V30 4040 O 370.815 -1.27458 2.39722 0
M  V30 4041 C 369.271 1.09901 3.42709 0
M  V30 4042 C 368.879 2.59327 3.65313 0
M  V30 4043 C 370.623 0.836371 4.16179 0
M  V30 4044 C 368.53 2.98627 5.10467 0
M  V30 4045 H 367.46 0.236698 0.715884 0
M  V30 4046 H 370.111 1.1868 1.39955 0
M  V30 4047 H 368.493 0.48319 3.93041 0
M  V30 4048 H 369.667 3.26136 3.25533 0
M  V30 4049 H 367.982 2.83323 3.05151 0
M  V30 4050 H 370.579 1.10586 5.23139 0
M  V30 4051 H 370.922 -0.227509 4.15678 0
M  V30 4052 H 371.455 1.41371 3.71832 0
M  V30 4053 H 368.194 4.04133 5.16098 0
M  V30 4054 H 367.714 2.3651 5.51201 0
M  V30 4055 H 369.393 2.89159 5.78788 0
M  V30 4056 N 369.525 -1.3858 0.750561 0
M  V30 4057 C 370.771 -2.00481 0.305825 0
M  V30 4058 C 371.104 -1.5944 -1.10872 0
M  V30 4059 O 370.379 -0.83052 -1.75877 0
M  V30 4060 C 370.662 -3.5758 0.425287 0
M  V30 4061 C 370.515 -4.08594 1.88072 0
M  V30 4062 C 371.834 -4.39719 -0.183122 0
M  V30 4063 H 368.953 -0.728348 0.112598 0
M  V30 4064 H 371.595 -1.64566 0.949638 0
M  V30 4065 H 369.745 -3.88306 -0.122828 0
M  V30 4066 H 371.417 -3.88523 2.48691 0
M  V30 4067 H 369.66 -3.61574 2.39681 0
M  V30 4068 H 370.331 -5.177 1.91548 0
M  V30 4069 H 372.807 -4.15128 0.284303 0
M  V30 4070 H 371.683 -5.48856 -0.0692757 0
M  V30 4071 H 371.944 -4.23434 -1.27106 0
M  V30 4072 N 371.003 -0.499398 -1.49478 0
M  V30 4073 C 372.228 0.044722 -2.07352 0
M  V30 4074 C 372.653 1.30207 -1.35749 0
M  V30 4075 O 372.011 1.76516 -0.413732 0
M  V30 4076 C 372.059 0.283013 -3.59488 0
M  V30 4077 O 371.163 1.35804 -3.89398 0
M  V30 4078 H 370.504 -0.0255147 -0.66351 0
M  V30 4079 H 373.034 -0.698561 -1.92305 0
M  V30 4080 H 373.044 0.515007 -4.04737 0
M  V30 4081 H 371.719 -0.635636 -4.11014 0
M  V30 4082 H 370.296 1.11113 -3.55961 0
M  V30 4083 N 372.481 1.55866 -0.233164 0
M  V30 4084 C 373.758 1.90471 0.444988 0
M  V30 4085 C 374.138 1.15209 1.7689 0
M  V30 4086 O 373.486 0.265119 2.26957 0
M  V30 4087 C 373.696 3.4333 0.626559 0
M  V30 4088 C 375.044 4.14319 0.92871 0
M  V30 4089 O 376.068 3.48993 0.712926 0
M  V30 4090 O 374.927 5.29846 1.33887 0
M  V30 4091 H 372.021 0.792347 0.236885 0
M  V30 4092 H 374.567 1.67437 -0.276211 0
M  V30 4093 H 373.339 3.90095 -0.306822 0
M  V30 4094 H 372.962 3.72181 1.39881 0
M  V30 4095 N 373.959 -0.0401083 1.57549 0
M  V30 4096 C 375.184 -0.748931 1.93406 0
M  V30 4097 C 375.609 -1.68686 0.832274 0
M  V30 4098 O 374.967 -1.80047 -0.212818 0
M  V30 4099 C 375.015 -1.4916 3.28304 0
M  V30 4100 O 374.119 -2.6042 3.19774 0
M  V30 4101 H 373.46 -0.202212 0.63246 0
M  V30 4102 H 375.99 0.00112086 2.046 0
M  V30 4103 H 376 -1.86395 3.62934 0
M  V30 4104 H 374.675 -0.80364 4.08062 0
M  V30 4105 H 373.252 -2.25808 2.96758 0
M  V30 4106 N 375.437 -1.54477 -0.31217 0
M  V30 4107 C 376.665 -1.77205 -1.068 0
M  V30 4108 C 377.08 -0.526114 -1.81321 0
M  V30 4109 O 376.437 0.503647 -1.75413 0
M  V30 4110 C 376.488 -2.97253 -2.05725 0
M  V30 4111 O 376.209 -4.1703 -1.34228 0
M  V30 4112 C 377.71 -3.32281 -2.93435 0
M  V30 4113 H 374.93 -0.591287 -0.317208 0
M  V30 4114 H 377.474 -2.01398 -0.354834 0
M  V30 4115 H 375.629 -2.753 -2.72559 0
M  V30 4116 H 376.043 -4.84636 -2.00571 0
M  V30 4117 H 377.517 -4.19551 -3.58721 0
M  V30 4118 H 377.994 -2.49945 -3.61143 0
M  V30 4119 H 378.6 -3.56353 -2.32147 0
M  V30 4120 N 376.915 0.57481 -1.46744 0
M  V30 4121 C 377.825 1.711 -1.60505 0
M  V30 4122 C 378.841 1.67008 -0.488307 0
M  V30 4123 O 380.017 1.86774 -0.753495 0
M  V30 4124 C 377.082 3.07608 -1.59932 0
M  V30 4125 C 376.143 3.22904 -2.82898 0
M  V30 4126 C 375.376 4.529 -2.82343 0
M  V30 4127 O 375.599 5.37278 -1.91542 0
M  V30 4128 O 374.533 4.71611 -3.73987 0
M  V30 4129 H 378.359 1.62436 -2.56609 0
M  V30 4130 H 375.944 0.742779 -1.29627 0
M  V30 4131 H 377.826 3.88877 -1.62336 0
M  V30 4132 H 376.501 3.16692 -0.669898 0
M  V30 4133 H 375.408 2.41099 -2.86046 0
M  V30 4134 H 376.741 3.18715 -3.75076 0
M  V30 4135 N 378.394 1.34581 0.820102 0
M  V30 4136 C 379.619 1.30333 1.61332 0
M  V30 4137 C 380.044 -0.119339 1.87721 0
M  V30 4138 O 379.402 -1.08197 1.45475 0
M  V30 4139 C 379.45 2.10258 2.92957 0
M  V30 4140 O 378.554 1.47404 3.85157 0
M  V30 4141 H 377.895 0.447488 0.490561 0
M  V30 4142 H 380.425 1.77425 1.01889 0
M  V30 4143 H 380.435 2.21718 3.42498 0
M  V30 4144 H 379.11 3.13693 2.73074 0
M  V30 4145 H 377.687 1.44703 3.43679 0
M  V30 4146 N 379.872 -1.04064 1.18357 0
M  V30 4147 C 381.149 -1.74252 0.888581 0
M  V30 4148 C 381.529 -2.02138 -0.60856 0
M  V30 4149 O 380.877 -1.66656 -1.56327 0
M  V30 4150 C 381.087 -3.0277 1.73584 0
M  V30 4151 C 382.435 -3.76506 1.96286 0
M  V30 4152 O 383.459 -3.12668 1.70637 0
M  V30 4153 O 382.318 -4.91243 2.39464 0
M  V30 4154 H 379.412 -0.758271 0.330082 0
M  V30 4155 H 381.958 -1.1013 1.2911 0
M  V30 4156 H 380.73 -2.78299 2.75073 0
M  V30 4157 H 380.353 -3.74631 1.33183 0
M  V30 4158 N 381.35 -0.985608 -1.22978 0
M  V30 4159 C 382.28 -0.549649 -2.26939 0
M  V30 4160 C 383.261 0.419803 -1.64838 0
M  V30 4161 O 384.446 0.31203 -1.91677 0
M  V30 4162 C 381.576 0.143652 -3.47003 0
M  V30 4163 C 380.53 -0.743606 -4.21491 0
M  V30 4164 C 379.856 0.0822027 -5.34637 0
M  V30 4165 C 381.156 -2.03694 -4.80943 0
M  V30 4166 H 382.85 -1.41862 -2.63658 0
M  V30 4167 H 380.396 -0.683571 -1.26741 0
M  V30 4168 H 382.349 0.459985 -4.18882 0
M  V30 4169 H 381.073 1.04711 -3.09359 0
M  V30 4170 H 379.732 -1.04347 -3.51436 0
M  V30 4171 H 379.38 0.986359 -4.93234 0
M  V30 4172 H 379.08 -0.508377 -5.85397 0
M  V30 4173 H 380.604 0.392797 -6.09335 0
M  V30 4174 H 382.018 -1.78504 -5.44802 0
M  V30 4175 H 380.415 -2.57573 -5.42011 0
M  V30 4176 H 381.485 -2.72042 -4.01399 0
M  V30 4177 N 382.828 1.3818 -0.7579 0
M  V30 4178 C 384.068 2.01864 -0.320968 0
M  V30 4179 C 384.432 1.58863 1.07827 0
M  V30 4180 O 385.633 2.14908 1.61456 0
M  V30 4181 C 383.904 3.54626 -0.44446 0
M  V30 4182 S 385.463 4.38706 -0.0907467 0
M  V30 4183 H 382.281 0.700056 -0.124268 0
M  V30 4184 H 384.883 1.68611 -0.989468 0
M  V30 4185 H 383.587 3.83411 -1.4637 0
M  V30 4186 H 383.118 3.92661 0.241073 0
M  V30 4187 H 385.133 4.83435 1.11826 0
M  V30 4188 N 384.306 0.507319 1.49211 0
M  V30 4189 C 385.583 -0.0982702 1.95353 0
M  V30 4190 C 385.963 -1.53516 1.449 0
M  V30 4191 O 385.311 -2.18594 0.66551 0
M  V30 4192 C 385.521 -0.00440283 3.49 0
M  V30 4193 C 386.869 -0.175147 4.24239 0
M  V30 4194 O 387.893 -0.0792891 3.56112 0
M  V30 4195 O 386.752 -0.37276 5.45227 0
M  V30 4196 H 383.846 -0.0918236 0.821887 0
M  V30 4197 H 386.392 0.570307 1.5983 0
M  V30 4198 H 385.164 0.997402 3.78375 0
M  V30 4199 H 384.787 -0.712845 3.91158 0
M  V30 4200 N 385.784 -1.5574 0.241426 0
M  V30 4201 C 387.012 -2.03208 -0.389134 0
M  V30 4202 C 387.427 -1.12082 -1.51931 0
M  V30 4203 O 386.784 -0.134183 -1.82006 0
M  V30 4204 C 386.835 -3.50064 -0.902087 0
M  V30 4205 O 386.556 -4.37717 0.18305 0
M  V30 4206 C 388.057 -4.13268 -1.60389 0
M  V30 4207 H 385.277 -0.664509 -0.0931053 0
M  V30 4208 H 387.821 -2.0124 0.36369 0
M  V30 4209 H 385.976 -3.52583 -1.60511 0
M  V30 4210 H 386.39 -5.24097 -0.205579 0
M  V30 4211 H 387.864 -5.17733 -1.91458 0
M  V30 4212 H 388.341 -3.59434 -2.52397 0
M  V30 4213 H 388.947 -4.14655 -0.945576 0
M  V30 4214 N 387.262 0.0317525 -1.57568 0
M  V30 4215 C 388.192 1.03274 -2.0942 0
M  V30 4216 C 389.173 1.3788 -0.996143 0
M  V30 4217 O 390.358 1.46811 -1.27122 0
M  V30 4218 C 387.488 2.33448 -2.57137 0
M  V30 4219 C 386.442 2.13091 -3.71182 0
M  V30 4220 C 385.768 3.49001 -4.05095 0
M  V30 4221 C 387.068 1.51928 -4.99715 0
M  V30 4222 H 388.762 0.60112 -2.93303 0
M  V30 4223 H 386.308 0.287705 -1.41097 0
M  V30 4224 H 388.261 3.03802 -2.92032 0
M  V30 4225 H 386.985 2.78665 -1.70333 0
M  V30 4226 H 385.644 1.45171 -3.36632 0
M  V30 4227 H 385.292 3.91862 -3.15362 0
M  V30 4228 H 384.992 3.36207 -4.81911 0
M  V30 4229 H 386.516 4.20721 -4.42522 0
M  V30 4230 H 387.93 2.12196 -5.32584 0
M  V30 4231 H 386.327 1.49716 -5.81124 0
M  V30 4232 H 387.397 0.484811 -4.8247 0
M  V30 4233 N 388.74 1.54641 0.303973 0
M  V30 4234 C 389.987 1.7378 1.03955 0
M  V30 4235 C 390.315 0.521986 1.87365 0
M  V30 4236 O 389.57 -0.496099 1.89308 0
M  V30 4237 C 389.869 2.97753 1.97681 0
M  V30 4238 C 389.535 4.31671 1.30271 0
M  V30 4239 C 388.197 4.68075 1.11619 0
M  V30 4240 C 390.549 5.147 0.82055 0
M  V30 4241 C 387.877 5.8509 0.434304 0
M  V30 4242 C 390.229 6.32416 0.152395 0
M  V30 4243 C 388.893 6.67484 -0.0461067 0
M  V30 4244 H 388.163 0.635908 0.380398 0
M  V30 4245 H 390.81 1.88896 0.314718 0
M  V30 4246 H 389.115 2.77406 2.76682 0
M  V30 4247 H 390.812 3.09756 2.54661 0
M  V30 4248 H 387.402 4.03041 1.45795 0
M  V30 4249 H 391.586 4.87077 0.952374 0
M  V30 4250 H 386.842 6.10806 0.269495 0
M  V30 4251 H 391.016 6.96023 -0.229126 0
M  V30 4252 H 388.643 7.58011 -0.576494 0
M  V30 4253 N 390.218 -0.567019 1.47046 0
M  V30 4254 C 391.443 -1.3551 1.57009 0
M  V30 4255 C 391.868 -1.86841 0.217259 0
M  V30 4256 O 391.226 -1.62435 -0.805268 0
M  V30 4257 C 391.274 -2.50777 2.5912 0
M  V30 4258 O 390.378 -3.52706 2.13711 0
M  V30 4259 H 389.719 -0.402919 0.52778 0
M  V30 4260 H 392.249 -0.686241 1.92748 0
M  V30 4261 H 392.259 -2.97481 2.79229 0
M  V30 4262 H 390.934 -2.12771 3.57353 0
M  V30 4263 H 389.511 -3.12374 2.03659 0
M  V30 4264 N 391.696 -1.35014 -0.812953 0
M  V30 4265 C 392.942 -1.2812 -1.57204 0
M  V30 4266 C 393.275 0.145869 -1.93651 0
M  V30 4267 O 392.55 1.0937 -1.60836 0
M  V30 4268 C 392.833 -2.18162 -2.86492 0
M  V30 4269 C 392.686 -3.69454 -2.56561 0
M  V30 4270 C 394.005 -2.07439 -3.88145 0
M  V30 4271 H 391.124 -0.466746 -0.570366 0
M  V30 4272 H 393.766 -1.65357 -0.935783 0
M  V30 4273 H 391.916 -1.86535 -3.40789 0
M  V30 4274 H 393.588 -4.11493 -2.08497 0
M  V30 4275 H 391.831 -3.9005 -1.89851 0
M  V30 4276 H 392.502 -4.27835 -3.48799 0
M  V30 4277 H 394.978 -2.35228 -3.4323 0
M  V30 4278 H 393.854 -2.7265 -4.76396 0
M  V30 4279 H 394.115 -1.05439 -4.29343 0
M  V30 4280 N 393.175 1.03435 -1.18907 0
M  V30 4281 C 394.422 1.76743 -0.988334 0
M  V30 4282 C 394.75 1.88447 0.481441 0
M  V30 4283 O 394.005 1.39383 1.37371 0
M  V30 4284 C 394.304 3.19792 -1.59586 0
M  V30 4285 C 393.97 3.28108 -3.09283 0
M  V30 4286 C 392.632 3.30084 -3.5014 0
M  V30 4287 C 394.984 3.27696 -4.05296 0
M  V30 4288 C 392.312 3.29299 -4.85571 0
M  V30 4289 C 394.664 3.28451 -5.4065 0
M  V30 4290 C 393.328 3.28723 -5.80946 0
M  V30 4291 H 392.598 0.64675 -0.361657 0
M  V30 4292 H 395.245 1.21442 -1.48068 0
M  V30 4293 H 393.55 3.78136 -1.02568 0
M  V30 4294 H 395.247 3.75171 -1.41589 0
M  V30 4295 H 391.837 3.27294 -2.76725 0
M  V30 4296 H 396.021 3.25354 -3.74778 0
M  V30 4297 H 391.277 3.2783 -5.16079 0
M  V30 4298 H 395.451 3.27082 -6.14809 0
M  V30 4299 H 393.078 3.27868 -6.85862 0
M  V30 4300 N 394.653 0.992116 1.22453 0
M  V30 4301 C 395.6 0.541731 2.24352 0
M  V30 4302 C 396.57 -0.425519 1.60557 0
M  V30 4303 O 397.755 -0.330453 1.87917 0
M  V30 4304 C 394.895 -0.138248 3.44823 0
M  V30 4305 C 394.008 0.870649 4.23136 0
M  V30 4306 C 393.143 0.164269 5.30946 0
M  V30 4307 C 392.182 1.16159 6.00977 0
M  V30 4308 N 391.319 0.483568 7.00433 0
M  V30 4309 H 396.159 1.41541 2.62241 0
M  V30 4310 H 393.696 0.709013 1.28885 0
M  V30 4311 H 395.654 -0.5494 4.13567 0
M  V30 4312 H 394.284 -0.975721 3.077 0
M  V30 4313 H 393.336 1.40013 3.53696 0
M  V30 4314 H 394.648 1.63014 4.7141 0
M  V30 4315 H 393.802 -0.303653 6.0594 0
M  V30 4316 H 392.541 -0.627733 4.83643 0
M  V30 4317 H 391.546 1.64015 5.24766 0
M  V30 4318 H 392.771 1.95445 6.50368 0
M  V30 4319 H 390.717 -0.289012 6.55363 0
M  V30 4320 H 390.634 1.18152 7.4671 0
M  V30 4321 H 391.902 0.0384219 7.79491 0
M  V30 4322 N 396.131 -1.37776 0.765217 0
M  V30 4323 C 397.094 -2.28686 0.153416 0
M  V30 4324 C 398.094 -1.47727 -0.635081 0
M  V30 4325 O 399.284 -1.68027 -0.459632 0
M  V30 4326 C 396.416 -3.31608 -0.790495 0
M  V30 4327 H 397.609 -2.84297 0.954723 0
M  V30 4328 H 395.162 -1.46932 0.53299 0
M  V30 4329 H 395.897 -2.81109 -1.61705 0
M  V30 4330 H 395.682 -3.9144 -0.227348 0
M  V30 4331 H 397.172 -3.99559 -1.21419 0
M  V30 4332 N 397.609 -0.515225 -1.4894 0
M  V30 4333 C 399.025 -0.172099 -1.58669 0
M  V30 4334 C 399.225 1.32405 -1.51892 0
M  V30 4335 O 398.281 2.10116 -1.40027 0
M  V30 4336 C 399.594 -0.761533 -2.90897 0
M  V30 4337 C 401.142 -0.728926 -3.04394 0
M  V30 4338 C 401.617 -1.29667 -4.39261 0
M  V30 4339 N 403.108 -1.25799 -4.4579 0
M  V30 4340 C 403.843 -1.66733 -5.48623 0
M  V30 4341 N 403.339 -2.15327 -6.58488 0
M  V30 4342 N 405.132 -1.58061 -5.39419 0
M  V30 4343 H 397.283 -1.48778 -1.51588 0
M  V30 4344 H 399.546 -0.617968 -0.718901 0
M  V30 4345 H 399.252 -1.81136 -3.01468 0
M  V30 4346 H 399.126 -0.230106 -3.76497 0
M  V30 4347 H 401.513 0.312098 -2.93445 0
M  V30 4348 H 401.594 -1.29766 -2.20442 0
M  V30 4349 H 401.238 -2.33655 -4.50963 0
M  V30 4350 H 401.168 -0.703752 -5.21876 0
M  V30 4351 H 403.659 -0.902102 -3.66975 0
M  V30 4352 H 403.972 -2.44594 -7.33071 0
M  V30 4353 H 402.317 -2.19311 -6.59491 0
M  V30 4354 H 405.508 -1.19906 -4.52482 0
M  V30 4355 H 405.681 -1.90284 -6.19432 0
M  V30 4356 N 399.087 1.5561 -0.249682 0
M  V30 4357 C 399.997 2.25143 0.659375 0
M  V30 4358 C 401.013 1.2685 1.19101 0
M  V30 4359 O 402.189 1.59732 1.22669 0
M  V30 4360 C 399.254 2.93945 1.8384 0
M  V30 4361 C 398.315 4.07655 1.34596 0
M  V30 4362 C 397.548 4.73167 2.46878 0
M  V30 4363 O 397.771 4.37768 3.65671 0
M  V30 4364 O 396.705 5.61623 2.16478 0
M  V30 4365 H 400.531 3.03545 0.0968698 0
M  V30 4366 H 398.116 1.49389 -0.018074 0
M  V30 4367 H 399.998 3.37271 2.52638 0
M  V30 4368 H 398.673 2.18481 2.38847 0
M  V30 4369 H 397.58 3.68839 0.625174 0
M  V30 4370 H 398.913 4.84946 0.841941 0
M  V30 4371 N 400.565 -0.0233959 1.57583 0
M  V30 4372 C 401.495 -1.02162 2.09965 0
M  V30 4373 C 402.476 -1.3735 1.00344 0
M  V30 4374 O 403.661 -1.46135 1.27899 0
M  V30 4375 C 400.791 -2.32081 2.58371 0
M  V30 4376 C 399.745 -2.1112 3.72307 0
M  V30 4377 C 399.071 -3.46848 4.06941 0
M  V30 4378 C 400.371 -1.49276 5.00514 0
M  V30 4379 H 402.065 -0.585557 2.93618 0
M  V30 4380 H 399.611 -0.280218 1.41247 0
M  V30 4381 H 401.564 -3.02249 2.93639 0
M  V30 4382 H 400.288 -2.77758 1.71808 0
M  V30 4383 H 398.947 -1.43384 3.37397 0
M  V30 4384 H 398.595 -3.90184 3.17436 0
M  V30 4385 H 398.295 -3.33646 4.83688 0
M  V30 4386 H 399.819 -4.18369 4.44747 0
M  V30 4387 H 401.233 -2.09368 5.33702 0
M  V30 4388 H 399.63 -1.46632 5.8191 0
M  V30 4389 H 400.7 -0.459217 4.82721 0
M  V30 4390 N 402.043 -1.548 -0.295768 0
M  V30 4391 C 403.268 -1.78653 -1.05346 0
M  V30 4392 C 403.693 -0.546894 -1.79974 0
M  V30 4393 O 403.051 0.502763 -1.7419 0
M  V30 4394 C 403.099 -2.99679 -2.00561 0
M  V30 4395 O 402.203 -2.7317 -3.08953 0
M  V30 4396 H 401.544 -0.59116 -0.302367 0
M  V30 4397 H 404.074 -2.01895 -0.331598 0
M  V30 4398 H 404.084 -3.27793 -2.42932 0
M  V30 4399 H 402.759 -3.89562 -1.4565 0
M  V30 4400 H 401.336 -2.56089 -2.71059 0
M  V30 4401 N 403.521 0.559213 -1.47345 0
M  V30 4402 C 404.798 1.31997 -1.44348 0
M  V30 4403 C 405.178 2.1064 -0.139358 0
M  V30 4404 O 404.526 2.1091 0.879153 0
M  V30 4405 C 404.736 2.22618 -2.68779 0
M  V30 4406 C 406.084 2.83701 -3.1591 0
M  V30 4407 O 407.108 2.32921 -2.69493 0
M  V30 4408 O 405.967 3.75993 -3.966 0
M  V30 4409 H 403.061 0.594251 -0.575147 0
M  V30 4410 H 405.607 0.578282 -1.59543 0
M  V30 4411 H 404.379 1.64093 -3.55231 0
M  V30 4412 H 404.002 3.04085 -2.5616 0
M  V30 4413 N 404.999 1.35443 0.805782 0
M  V30 4414 C 405.931 1.24285 1.92577 0
M  V30 4415 C 406.944 0.165962 1.61952 0
M  V30 4416 O 408.133 0.419303 1.73505 0
M  V30 4417 C 405.233 0.891272 3.2697 0
M  V30 4418 C 404.406 2.06669 3.85495 0
M  V30 4419 C 403.465 1.69077 4.98297 0
M  V30 4420 O 402.491 2.4096 5.15681 0
M  V30 4421 N 403.693 0.614869 5.77234 0
M  V30 4422 H 406.458 2.20777 2.02676 0
M  V30 4423 H 404.019 1.28623 0.983243 0
M  V30 4424 H 406.011 0.621256 3.99903 0
M  V30 4425 H 404.581 0.016004 3.12596 0
M  V30 4426 H 403.801 2.50046 3.04747 0
M  V30 4427 H 405.089 2.85237 4.21328 0
M  V30 4428 H 404.487 0.017648 5.65697 0
M  V30 4429 H 403.044 0.404636 6.50543 0
M  V30 4430 N 406.477 -1.02803 1.19454 0
M  V30 4431 C 407.425 -2.13213 0.929673 0
M  V30 4432 C 408.419 -1.69011 -0.114806 0
M  V30 4433 O 409.625 -1.79967 0.0345147 0
M  V30 4434 H 406 -0.69662 0.28324 0
M  V30 4435 H 407.971 -2.32744 1.86743 0
M  V30 4436 C 406.72 -3.4429 0.485797 0
M  V30 4437 H 406.043 -3.7872 1.28105 0
M  V30 4438 H 407.483 -4.22638 0.339582 0
M  V30 4439 C 405.942 -3.27258 -0.800244 0
M  V30 4440 O 406.472 -3.55967 -1.86146 0
M  V30 4441 N 404.678 -2.80545 -0.75781 0
M  V30 4442 H 404.225 -2.57382 0.106039 0
M  V30 4443 H 404.183 -2.6953 -1.61867 0
M  V30 4444 N 407.956 -0.998596 -1.21925 0
M  V30 4445 C 409.204 -0.676325 -1.90448 0
M  V30 4446 C 409.525 0.794719 -1.78071 0
M  V30 4447 O 408.795 1.5701 -1.17152 0
M  V30 4448 H 407.375 -0.247165 -0.704925 0
M  V30 4449 H 410.037 -1.26633 -1.48156 0
M  V30 4450 H 409.133 -0.943858 -2.97486 0
M  V30 4451 N 409.434 1.37368 -0.772513 0
M  V30 4452 C 410.711 1.93839 -0.26188 0
M  V30 4453 C 411.091 1.7061 1.24319 0
M  V30 4454 O 410.439 1.05534 2.02669 0
M  V30 4455 C 410.649 3.43154 -0.636102 0
M  V30 4456 C 411.997 4.20249 -0.606324 0
M  V30 4457 O 413.021 3.5152 -0.575538 0
M  V30 4458 O 411.88 5.42809 -0.634086 0
M  V30 4459 H 408.974 0.82478 -0.0605555 0
M  V30 4460 H 411.52 1.4665 -0.853917 0
M  V30 4461 H 410.292 3.53647 -1.6748 0
M  V30 4462 H 409.915 3.97596 -0.0170516 0
M  V30 4463 N 410.912 0.523116 1.48665 0
M  V30 4464 C 411.842 -0.23231 2.32342 0
M  V30 4465 C 412.823 -0.941637 1.41659 0
M  V30 4466 O 414.008 -0.928751 1.70552 0
M  V30 4467 C 411.138 -1.28387 3.22698 0
M  V30 4468 C 410.092 -0.693098 4.22351 0
M  V30 4469 C 409.418 -1.8468 5.01794 0
M  V30 4470 C 410.718 0.33063 5.21252 0
M  V30 4471 H 412.412 0.466192 2.95748 0
M  V30 4472 H 409.958 0.225643 1.42221 0
M  V30 4473 H 411.911 -1.82024 3.80059 0
M  V30 4474 H 410.635 -2.01186 2.57278 0
M  V30 4475 H 409.294 -0.178299 3.66166 0
M  V30 4476 H 408.942 -2.56301 4.32804 0
M  V30 4477 H 408.642 -1.45747 5.69238 0
M  V30 4478 H 410.166 -2.38709 5.62006 0
M  V30 4479 H 411.58 -0.118407 5.73178 0
M  V30 4480 H 409.977 0.636974 5.9671 0
M  V30 4481 H 411.047 1.23883 4.68808 0
M  V30 4482 N 412.39 -1.55475 0.257931 0
M  V30 4483 C 413.32 -2.24815 -0.630912 0
M  V30 4484 C 414.301 -1.23224 -1.17259 0
M  V30 4485 O 415.486 -1.51904 -1.20991 0
M  V30 4486 C 412.616 -2.95609 -1.82298 0
M  V30 4487 C 411.57 -4.03982 -1.41359 0
M  V30 4488 C 410.896 -4.6226 -2.68738 0
M  V30 4489 C 412.196 -5.19109 -0.57648 0
M  V30 4490 H 413.89 -2.99354 -0.0526878 0
M  V30 4491 H 411.436 -1.4398 -0.023901 0
M  V30 4492 H 413.389 -3.42822 -2.45054 0
M  V30 4493 H 412.113 -2.18577 -2.42676 0
M  V30 4494 H 410.772 -3.57555 -0.809324 0
M  V30 4495 H 410.42 -3.81915 -3.27338 0
M  V30 4496 H 410.12 -5.35424 -2.42065 0
M  V30 4497 H 411.644 -5.12212 -3.32372 0
M  V30 4498 H 413.058 -5.62479 -1.10861 0
M  V30 4499 H 411.455 -5.98729 -0.405351 0
M  V30 4500 H 412.525 -4.83174 0.408776 0
M  V30 4501 N 413.868 0.0150385 -1.57593 0
M  V30 4502 C 415.145 0.7392 -1.81094 0
M  V30 4503 C 415.525 1.92817 -0.859344 0
M  V30 4504 O 414.873 2.28301 0.095362 0
M  V30 4505 C 415.083 1.15907 -3.29191 0
M  V30 4506 C 416.431 1.56918 -3.9454 0
M  V30 4507 O 417.455 1.25328 -3.33424 0
M  V30 4508 O 416.314 2.15604 -5.02173 0
M  V30 4509 H 413.408 0.358631 -0.745193 0
M  V30 4510 H 415.954 -0.00926156 -1.69697 0
M  V30 4511 H 414.726 0.310921 -3.90063 0
M  V30 4512 H 414.349 1.96711 -3.45529 0
M  V30 4513 N 415.346 1.54954 0.287554 0
M  V30 4514 C 416.279 1.81737 1.3801 0
M  V30 4515 C 417.257 0.669412 1.48181 0
M  V30 4516 O 418.441 0.910839 1.65033 0
M  V30 4517 C 415.568 1.96606 2.75796 0
M  V30 4518 C 414.614 3.19098 2.82982 0
M  V30 4519 S 415.447 4.7683 2.43707 0
M  V30 4520 C 416.603 4.94653 3.83496 0
M  V30 4521 H 416.836 2.74122 1.15085 0
M  V30 4522 H 414.369 1.46538 0.486403 0
M  V30 4523 H 416.327 2.05858 3.55152 0
M  V30 4524 H 414.988 1.05136 2.95982 0
M  V30 4525 H 414.181 3.26344 3.84077 0
M  V30 4526 H 413.783 3.08361 2.11635 0
M  V30 4527 H 416.075 4.79502 4.78628 0
M  V30 4528 H 417.018 5.96728 3.8121 0
M  V30 4529 H 417.426 4.2272 3.74123 0
M  V30 4530 N 416.824 -0.551391 1.4764 0
M  V30 4531 C 417.774 -1.65362 1.56969 0
M  V30 4532 C 418.758 -1.55098 0.428189 0
M  V30 4533 O 419.95 -1.63481 0.678441 0
M  V30 4534 C 417.079 -3.04129 1.59249 0
M  V30 4535 C 416.165 -3.19576 2.78804 0
M  V30 4536 N 416.556 -3.05067 4.03445 0
M  V30 4537 C 414.854 -3.50588 2.75688 0
M  V30 4538 C 415.555 -3.2336 4.83543 0
M  V30 4539 N 414.531 -3.4996 4.15968 0
M  V30 4540 H 418.333 -1.52722 2.51104 0
M  V30 4541 H 415.847 -0.756303 1.43714 0
M  V30 4542 H 417.844 -3.83278 1.64024 0
M  V30 4543 H 416.504 -3.17877 0.662148 0
M  V30 4544 H 417.515 -2.82273 4.34215 0
M  V30 4545 H 414.192 -3.70827 1.91817 0
M  V30 4546 H 415.582 -3.17061 5.92387 0
M  V30 4547 N 418.302 -1.35869 -0.798587 0
M  V30 4548 C 419.265 -1.29307 -1.89242 0
M  V30 4549 C 420.265 -0.202747 -1.59517 0
M  V30 4550 O 421.455 -0.456957 -1.681 0
M  V30 4551 C 418.587 -1.00229 -3.25833 0
M  V30 4552 H 419.78 -2.26576 -1.96478 0
M  V30 4553 H 417.333 -1.20509 -0.995358 0
M  V30 4554 H 418.068 -0.033801 -3.24282 0
M  V30 4555 H 417.853 -1.79121 -3.48795 0
M  V30 4556 H 419.343 -0.98219 -4.05885 0
M  V30 4557 N 419.78 1.02168 -1.19998 0
M  V30 4558 C 421.026 1.7606 -1.01855 0
M  V30 4559 C 421.381 1.87178 0.445222 0
M  V30 4560 O 420.674 1.3828 1.32624 0
M  V30 4561 C 420.868 3.18081 -1.62969 0
M  V30 4562 C 420.697 3.20809 -3.15137 0
M  V30 4563 C 419.467 3.28342 -3.84083 0
M  V30 4564 C 421.665 3.07268 -4.1242 0
M  V30 4565 N 419.647 3.2052 -5.23584 0
M  V30 4566 C 421.018 3.0716 -5.38566 0
M  V30 4567 C 423.073 2.91448 -4.03686 0
M  V30 4568 C 421.776 2.92853 -6.56985 0
M  V30 4569 C 423.802 2.78494 -5.21723 0
M  V30 4570 C 423.164 2.79046 -6.46771 0
M  V30 4571 H 419.263 0.655192 -0.426905 0
M  V30 4572 H 421.847 1.21564 -1.52087 0
M  V30 4573 H 420.018 3.70882 -1.15329 0
M  V30 4574 H 421.75 3.80375 -1.38192 0
M  V30 4575 H 418.505 3.34859 -3.34913 0
M  V30 4576 H 418.929 3.19997 -5.96599 0
M  V30 4577 H 423.571 2.89838 -3.07821 0
M  V30 4578 H 421.289 2.93213 -7.53028 0
M  V30 4579 H 424.875 2.67278 -5.16773 0
M  V30 4580 H 423.755 2.69134 -7.36571 0
M  V30 4581 N 421.258 1.00505 1.21394 0
M  V30 4582 C 422.504 0.688793 1.90745 0
M  V30 4583 C 422.837 -0.778486 1.77914 0
M  V30 4584 O 422.112 -1.56433 1.15581 0
M  V30 4585 C 422.395 1.11063 3.42545 0
M  V30 4586 C 422.248 2.63737 3.64367 0
M  V30 4587 C 423.567 0.673059 4.34923 0
M  V30 4588 H 420.686 0.251702 0.692687 0
M  V30 4589 H 423.328 1.25074 1.43026 0
M  V30 4590 H 421.478 0.632508 3.83317 0
M  V30 4591 H 423.15 3.19313 3.32922 0
M  V30 4592 H 421.393 3.05248 3.08231 0
M  V30 4593 H 422.064 2.88305 4.70727 0
M  V30 4594 H 424.54 1.08392 4.01734 0
M  V30 4595 H 423.416 0.996383 5.39781 0
M  V30 4596 H 423.677 -0.425808 4.40045 0
M  V30 4597 N 422.737 -1.36956 0.779787 0
M  V30 4598 C 423.667 -2.32761 0.185651 0
M  V30 4599 C 424.648 -1.56177 -0.673989 0
M  V30 4600 O 425.833 -1.84378 -0.609797 0
M  V30 4601 C 422.963 -3.40418 -0.687964 0
M  V30 4602 C 421.917 -4.27941 0.0710102 0
M  V30 4603 C 421.243 -5.26681 -0.922573 0
M  V30 4604 C 422.543 -5.07006 1.25467 0
M  V30 4605 H 424.237 -2.82698 0.986008 0
M  V30 4606 H 421.783 -1.3592 0.475592 0
M  V30 4607 H 423.736 -4.06423 -1.11348 0
M  V30 4608 H 422.46 -2.89025 -1.52093 0
M  V30 4609 H 421.119 -3.63478 0.47739 0
M  V30 4610 H 420.767 -4.71565 -1.7503 0
M  V30 4611 H 420.467 -5.86103 -0.419237 0
M  V30 4612 H 421.991 -5.9556 -1.34686 0
M  V30 4613 H 423.405 -5.66105 0.905401 0
M  V30 4614 H 421.802 -5.75793 1.69063 0
M  V30 4615 H 422.872 -4.3921 2.05481 0
M  V30 4616 N 424.215 -0.530993 -1.48385 0
M  V30 4617 C 425.492 0.0671788 -1.95485 0
M  V30 4618 C 425.872 1.51191 -1.47324 0
M  V30 4619 O 425.22 2.17507 -0.700202 0
M  V30 4620 C 425.43 -0.0511206 -3.48963 0
M  V30 4621 C 426.778 0.107632 -4.24464 0
M  V30 4622 O 427.802 0.0226248 -3.56193 0
M  V30 4623 O 426.661 0.285972 -5.45751 0
M  V30 4624 H 423.755 0.0787365 -0.823243 0
M  V30 4625 H 426.301 -0.595662 -1.58902 0
M  V30 4626 H 425.073 -1.05747 -3.7674 0
M  V30 4627 H 424.696 0.650525 -3.92242 0
M  V30 4628 N 425.693 1.55336 -0.266172 0
M  V30 4629 C 426.941 1.99003 0.35246 0
M  V30 4630 C 427.262 1.15591 1.57047 0
M  V30 4631 O 426.532 0.243268 1.94384 0
M  V30 4632 H 425.112 0.735025 0.133217 0
M  V30 4633 H 427.774 1.91367 -0.369434 0
M  V30 4634 H 426.87 3.05289 0.648453 0
M  V30 4635 N 427.171 -0.0066808 1.57599 0
M  V30 4636 C 428.101 -0.999296 2.11036 0
M  V30 4637 C 429.082 -1.36278 1.01795 0
M  V30 4638 O 430.267 -1.4477 1.29442 0
M  V30 4639 C 427.397 -2.29328 2.60818 0
M  V30 4640 C 426.351 -2.07159 3.74525 0
M  V30 4641 C 425.677 -3.42512 4.10596 0
M  V30 4642 C 426.977 -1.43959 5.02069 0
M  V30 4643 H 428.671 -0.554382 2.94223 0
M  V30 4644 H 426.217 -0.265221 1.41536 0
M  V30 4645 H 428.17 -2.99117 2.96828 0
M  V30 4646 H 426.894 -2.7592 1.74745 0
M  V30 4647 H 425.553 -1.39797 3.38899 0
M  V30 4648 H 425.201 -3.86795 3.21556 0
M  V30 4649 H 424.901 -3.28498 4.87199 0
M  V30 4650 H 426.425 -4.13628 4.4916 0
M  V30 4651 H 427.839 -2.03696 5.35893 0
M  V30 4652 H 426.236 -1.40452 5.83432 0
M  V30 4653 H 427.306 -0.407992 4.83181 0
M  V30 4654 N 428.649 -1.55105 -0.279332 0
M  V30 4655 C 429.582 -1.82467 -1.37044 0
M  V30 4656 C 430.56 -0.677261 -1.47824 0
M  V30 4657 O 431.744 -0.919578 -1.64548 0
M  V30 4658 C 428.871 -1.98066 -2.7475 0
M  V30 4659 C 427.917 -3.20594 -2.81286 0
M  V30 4660 S 428.75 -4.78116 -2.41175 0
M  V30 4661 C 429.906 -4.9668 -3.80867 0
M  V30 4662 H 430.139 -2.74728 -1.1363 0
M  V30 4663 H 427.672 -1.46794 -0.478625 0
M  V30 4664 H 429.63 -2.07739 -3.54055 0
M  V30 4665 H 428.291 -1.06704 -2.9542 0
M  V30 4666 H 427.484 -3.28376 -3.82341 0
M  V30 4667 H 427.086 -3.09479 -2.09996 0
M  V30 4668 H 429.378 -4.82033 -4.76078 0
M  V30 4669 H 430.321 -5.98741 -3.78041 0
M  V30 4670 H 430.729 -4.24698 -3.71876 0
M  V30 4671 N 430.127 0.543554 -1.4793 0
M  V30 4672 C 431.037 1.67657 -1.64098 0
M  V30 4673 C 432.053 1.65934 -0.523622 0
M  V30 4674 O 433.229 1.85133 -0.792943 0
M  V30 4675 C 430.294 3.04146 -1.66421 0
M  V30 4676 C 429.355 3.16831 -2.89684 0
M  V30 4677 C 428.588 4.46809 -2.91886 0
M  V30 4678 O 428.811 5.33095 -2.02895 0
M  V30 4679 O 427.745 4.63573 -3.83906 0
M  V30 4680 H 431.571 1.56957 -2.59997 0
M  V30 4681 H 429.156 0.715116 -1.31173 0
M  V30 4682 H 431.038 3.85346 -1.70548 0
M  V30 4683 H 429.713 3.152 -0.736923 0
M  V30 4684 H 428.62 2.34977 -2.91095 0
M  V30 4685 H 429.953 3.10687 -3.81752 0
M  V30 4686 N 431.605 1.3629 0.791371 0
M  V30 4687 C 432.833 1.33562 1.58016 0
M  V30 4688 C 433.248 -0.0835616 1.88615 0
M  V30 4689 O 432.605 -1.0399 1.49974 0
M  V30 4690 C 432.656 2.15517 2.90232 0
M  V30 4691 O 432.377 3.51902 2.60953 0
M  V30 4692 C 433.878 2.20546 3.84544 0
M  V30 4693 H 431.098 0.458226 0.490173 0
M  V30 4694 H 433.642 1.79361 0.982345 0
M  V30 4695 H 431.797 1.73278 3.46487 0
M  V30 4696 H 432.211 3.94644 3.4548 0
M  V30 4697 H 433.685 2.82252 4.74382 0
M  V30 4698 H 434.162 1.20838 4.2225 0
M  V30 4699 H 434.768 2.63013 3.34222 0
M  V30 4700 N 433.083 -1.0153 1.20538 0
M  V30 4701 C 434.013 -2.11972 0.979295 0
M  V30 4702 C 434.994 -1.6985 -0.0921787 0
M  V30 4703 O 436.179 -1.94089 0.0655932 0
M  V30 4704 C 433.309 -3.43201 0.531984 0
M  V30 4705 C 432.263 -3.9907 1.54685 0
M  V30 4706 C 431.589 -5.26082 0.956127 0
M  V30 4707 C 432.889 -4.32313 2.93092 0
M  V30 4708 H 434.583 -2.31143 1.90298 0
M  V30 4709 H 432.129 -1.11079 0.916372 0
M  V30 4710 H 434.082 -4.1985 0.361044 0
M  V30 4711 H 432.806 -3.23792 -0.427327 0
M  V30 4712 H 431.465 -3.2453 1.70517 0
M  V30 4713 H 431.113 -5.02999 -0.0111538 0
M  V30 4714 H 430.813 -5.64426 1.63393 0
M  V30 4715 H 432.337 -6.05386 0.796284 0
M  V30 4716 H 433.751 -4.99845 2.80763 0
M  V30 4717 H 432.148 -4.81774 3.57791 0
M  V30 4718 H 433.218 -3.41025 3.44717 0
M  V30 4719 N 434.561 -1.01147 -1.20859 0
M  V30 4720 C 435.493 -0.535546 -2.22855 0
M  V30 4721 C 436.506 0.379323 -1.58319 0
M  V30 4722 O 437.695 0.178489 -1.77605 0
M  V30 4723 C 434.795 0.240962 -3.38042 0
M  V30 4724 C 433.968 -0.674562 -4.32167 0
M  V30 4725 C 433.027 0.053467 -5.26173 0
M  V30 4726 O 432.053 -0.567339 -5.66366 0
M  V30 4727 N 433.255 1.32997 -5.65059 0
M  V30 4728 H 436.02 -1.41268 -2.64317 0
M  V30 4729 H 433.581 -0.888386 -1.35349 0
M  V30 4730 H 435.573 0.737115 -3.97931 0
M  V30 4731 H 434.143 1.01935 -2.95513 0
M  V30 4732 H 433.363 -1.35111 -3.70322 0
M  V30 4733 H 434.651 -1.2974 -4.91981 0
M  V30 4734 H 434.049 1.85536 -5.34409 0
M  V30 4735 H 432.606 1.77095 -6.2728 0
M  V30 4736 N 436.039 1.36541 -0.78704 0
M  V30 4737 C 436.987 2.31965 -0.171724 0
M  V30 4738 C 437.981 1.55689 0.667631 0
M  V30 4739 O 439.187 1.70969 0.562981 0
M  V30 4740 H 435.562 0.751101 -0.0367545 0
M  V30 4741 H 437.533 2.81428 -0.992017 0
M  V30 4742 C 436.282 3.40968 0.680904 0
M  V30 4743 H 435.605 3.99775 0.0443961 0
M  V30 4744 H 437.045 4.10063 1.07815 0
M  V30 4745 C 435.504 2.82338 1.83813 0
M  V30 4746 O 436.034 2.74311 2.93456 0
M  V30 4747 N 434.24 2.39661 1.6435 0
M  V30 4748 H 433.787 2.46389 0.751668 0
M  V30 4749 H 433.745 2.00779 2.4194 0
M  V30 4750 N 437.518 0.538854 1.48102 0
M  V30 4751 C 438.448 -0.207654 2.32575 0
M  V30 4752 C 439.429 -0.926559 1.4265 0
M  V30 4753 O 440.614 -0.91061 1.71527 0
M  V30 4754 C 437.744 -1.24957 3.24042 0
M  V30 4755 C 436.698 -0.648263 4.23062 0
M  V30 4756 C 436.024 -1.79348 5.03725 0
M  V30 4757 C 437.324 0.385897 5.20872 0
M  V30 4758 H 439.018 0.497534 2.95237 0
M  V30 4759 H 436.564 0.240715 1.41974 0
M  V30 4760 H 438.517 -1.77983 3.81969 0
M  V30 4761 H 437.241 -1.98446 2.59397 0
M  V30 4762 H 435.9 -0.139452 3.66335 0
M  V30 4763 H 435.548 -2.51696 4.35498 0
M  V30 4764 H 435.248 -1.39702 5.70751 0
M  V30 4765 H 436.772 -2.32735 5.64506 0
M  V30 4766 H 438.186 -0.057607 5.73271 0
M  V30 4767 H 436.583 0.700227 5.96001 0
M  V30 4768 H 437.653 1.28848 4.67468 0
M  V30 4769 N 438.996 -1.55193 0.274407 0
M  V30 4770 C 439.928 -2.1989 -0.646595 0
M  V30 4771 C 440.941 -1.1834 -1.11801 0
M  V30 4772 O 442.13 -1.4507 -1.04004 0
M  V30 4773 C 439.23 -2.8104 -1.89393 0
M  V30 4774 C 438.403 -4.08274 -1.56943 0
M  V30 4775 C 437.462 -4.53478 -2.66916 0
M  V30 4776 O 436.488 -5.19267 -2.33132 0
M  V30 4777 N 437.69 -4.2356 -3.9696 0
M  V30 4778 H 440.455 -2.99556 -0.0928686 0
M  V30 4779 H 438.016 -1.61618 0.0954783 0
M  V30 4780 H 440.008 -3.08226 -2.62257 0
M  V30 4781 H 438.578 -2.05372 -2.35672 0
M  V30 4782 H 437.798 -3.88384 -0.674655 0
M  V30 4783 H 439.086 -4.91173 -1.32764 0
M  V30 4784 H 438.484 -3.70799 -4.27229 0
M  V30 4785 H 437.041 -4.55518 -4.66205 0
M  V30 4786 N 440.474 -0.00167713 -1.576 0
M  V30 4787 C 441.723 0.682021 -1.89819 0
M  V30 4788 C 442.036 1.74844 -0.876871 0
M  V30 4789 O 443.242 2.48688 -1.08934 0
M  V30 4790 C 441.698 1.26425 -3.36964 0
M  V30 4791 C 441.306 0.232568 -4.47396 0
M  V30 4792 C 443.05 1.92604 -3.78291 0
M  V30 4793 C 440.957 0.824882 -5.85619 0
M  V30 4794 H 439.887 0.258499 -0.708304 0
M  V30 4795 H 442.538 -0.0624957 -1.83394 0
M  V30 4796 H 440.92 2.05949 -3.38232 0
M  V30 4797 H 442.094 -0.5382 -4.57646 0
M  V30 4798 H 440.409 -0.32888 -4.15099 0
M  V30 4799 H 443.006 2.37827 -4.78897 0
M  V30 4800 H 443.349 2.75732 -3.11894 0
M  V30 4801 H 443.882 1.19812 -3.79328 0
M  V30 4802 H 440.621 0.0323542 -6.55492 0
M  V30 4803 H 440.141 1.56477 -5.79029 0
M  V30 4804 H 441.82 1.32301 -6.33329 0
M  V30 4805 N 441.952 1.55251 0.271103 0
M  V30 4806 C 443.199 1.75946 1.00245 0
M  V30 4807 C 443.527 0.561611 1.86215 0
M  V30 4808 O 442.782 -0.455832 1.90317 0
M  V30 4809 C 443.081 3.01879 1.91321 0
M  V30 4810 C 442.747 4.34337 1.21086 0
M  V30 4811 C 441.409 4.70338 1.01666 0
M  V30 4812 C 443.761 5.16325 0.71119 0
M  V30 4813 C 441.089 5.8588 0.310099 0
M  V30 4814 C 443.441 6.32597 0.0182157 0
M  V30 4815 C 442.105 6.67236 -0.18768 0
M  V30 4816 H 441.375 0.643833 0.366824 0
M  V30 4817 H 444.022 1.89521 0.27458 0
M  V30 4818 H 442.327 2.83212 2.70736 0
M  V30 4819 H 444.024 3.15088 2.48033 0
M  V30 4820 H 440.614 4.06043 1.37213 0
M  V30 4821 H 444.798 4.88987 0.848844 0
M  V30 4822 H 440.054 6.1124 0.139873 0
M  V30 4823 H 444.228 6.9538 -0.376711 0
M  V30 4824 H 441.855 7.56618 -0.73715 0
M  V30 4825 N 443.43 -0.535701 1.48216 0
M  V30 4826 C 444.658 -1.31671 1.59594 0
M  V30 4827 C 445.073 -1.87083 0.254056 0
M  V30 4828 O 444.43 -1.66112 -0.755854 0
M  V30 4829 C 444.481 -2.47158 2.63809 0
M  V30 4830 O 444.202 -1.94032 3.92789 0
M  V30 4831 C 445.703 -3.39062 2.85573 0
M  V30 4832 H 442.923 -0.400623 0.538277 0
M  V30 4833 H 445.467 -0.646827 1.94001 0
M  V30 4834 H 443.622 -3.10043 2.32276 0
M  V30 4835 H 444.036 -2.69585 4.49916 0
M  V30 4836 H 445.51 -4.16459 3.62306 0
M  V30 4837 H 445.987 -3.93941 1.94184 0
M  V30 4838 H 446.593 -2.81975 3.18387 0
M  V30 4839 N 444.908 -1.36708 -0.784132 0
M  V30 4840 C 445.838 -1.34153 -1.91116 0
M  V30 4841 C 446.819 -0.212121 -1.68772 0
M  V30 4842 O 448.004 -0.410581 -1.8981 0
M  V30 4843 C 445.134 -1.13535 -3.28218 0
M  V30 4844 C 444.088 -2.23356 -3.65097 0
M  V30 4845 C 443.414 -1.87875 -5.00607 0
M  V30 4846 C 444.714 -3.65473 -3.73131 0
M  V30 4847 H 446.408 -2.28459 -1.93512 0
M  V30 4848 H 443.954 -1.09973 -0.929618 0
M  V30 4849 H 445.907 -1.10381 -4.06687 0
M  V30 4850 H 444.631 -0.156804 -3.26223 0
M  V30 4851 H 443.29 -2.25645 -2.88929 0
M  V30 4852 H 442.938 -0.885814 -4.95139 0
M  V30 4853 H 442.638 -2.61406 -5.26252 0
M  V30 4854 H 444.162 -1.86286 -5.81489 0
M  V30 4855 H 445.576 -3.65382 -4.41779 0
M  V30 4856 H 443.973 -4.37953 -4.10265 0
M  V30 4857 H 445.043 -3.99995 -2.74102 0
M  V30 4858 N 446.386 1.0089 -1.21074 0
M  V30 4859 C 447.334 2.11707 -0.963476 0
M  V30 4860 C 448.328 1.69172 0.0879032 0
M  V30 4861 O 449.534 1.79889 -0.0631415 0
M  V30 4862 H 445.909 0.692026 -0.294287 0
M  V30 4863 H 447.88 2.29743 -1.90422 0
M  V30 4864 C 446.629 3.43473 -0.540509 0
M  V30 4865 H 445.952 3.76634 -1.34114 0
M  V30 4866 H 447.392 4.22044 -0.406777 0
M  V30 4867 C 445.851 3.2849 0.748079 0
M  V30 4868 O 446.381 3.58883 1.8046 0
M  V30 4869 N 444.587 2.81715 0.713081 0
M  V30 4870 H 444.134 2.5718 -0.146973 0
M  V30 4871 H 444.092 2.72071 1.57558 0
M  V30 4872 N 447.864 1.01787 1.20321 0
M  V30 4873 C 448.794 0.609625 2.25401 0
M  V30 4874 C 449.775 -0.375951 1.65893 0
M  V30 4875 O 450.96 -0.261101 1.92437 0
M  V30 4876 C 448.09 -0.0515995 3.47262 0
M  V30 4877 C 447.044 0.855095 4.19371 0
M  V30 4878 C 446.37 0.0595757 5.34667 0
M  V30 4879 C 447.67 2.16374 4.75373 0
M  V30 4880 H 449.364 1.48803 2.59804 0
M  V30 4881 H 446.91 0.716934 1.24884 0
M  V30 4882 H 448.863 -0.348764 4.19954 0
M  V30 4883 H 447.587 -0.964726 3.12027 0
M  V30 4884 H 446.246 1.13628 3.48546 0
M  V30 4885 H 445.894 -0.85524 4.95676 0
M  V30 4886 H 445.594 0.663406 5.83843 0
M  V30 4887 H 447.118 -0.231105 6.10162 0
M  V30 4888 H 448.532 1.92885 5.39878 0
M  V30 4889 H 446.929 2.71853 5.34991 0
M  V30 4890 H 447.999 2.82589 3.94045 0
M  V30 4891 N 449.342 -1.36122 0.79427 0
M  V30 4892 C 450.252 -2.33769 0.197296 0
M  V30 4893 C 451.268 -1.61276 -0.653153 0
M  V30 4894 O 452.444 -1.9323 -0.5678 0
M  V30 4895 C 449.509 -3.40474 -0.654098 0
M  V30 4896 C 448.57 -4.28759 0.215411 0
M  V30 4897 C 447.803 -5.30368 -0.595443 0
M  V30 4898 O 448.026 -5.40211 -1.83107 0
M  V30 4899 O 446.96 -6.019 0.00721351 0
M  V30 4900 H 450.786 -2.86597 1.00478 0
M  V30 4901 H 448.371 -1.38676 0.555818 0
M  V30 4902 H 450.253 -4.05703 -1.13944 0
M  V30 4903 H 448.928 -2.89937 -1.43938 0
M  V30 4904 H 447.835 -3.66554 0.747615 0
M  V30 4905 H 449.168 -4.82661 0.964332 0
M  V30 4906 N 450.82 -0.546701 -1.47814 0
M  V30 4907 C 452.068 -0.0187037 -2.02091 0
M  V30 4908 C 452.389 1.33168 -1.42447 0
M  V30 4909 O 451.659 1.86619 -0.595839 0
M  V30 4910 H 450.239 -0.00392531 -0.74699 0
M  V30 4911 H 452.901 -0.714327 -1.81338 0
M  V30 4912 H 451.997 0.0772219 -3.12004 0
M  V30 4913 N 452.299 1.55045 -0.282633 0
M  V30 4914 C 453.527 2.04168 0.33512 0
M  V30 4915 C 453.942 1.16071 1.48906 0
M  V30 4916 O 453.299 0.182391 1.81586 0
M  V30 4917 C 453.35 3.52332 0.808957 0
M  V30 4918 O 453.071 4.37078 -0.299038 0
M  V30 4919 C 454.572 4.17375 1.49375 0
M  V30 4920 H 451.792 0.666744 0.0754543 0
M  V30 4921 H 454.336 2.00205 -0.416918 0
M  V30 4922 H 452.491 3.56715 1.51106 0
M  V30 4923 H 452.905 5.24458 0.0665514 0
M  V30 4924 H 454.379 5.22627 1.77664 0
M  V30 4925 H 454.856 3.65999 2.42778 0
M  V30 4926 H 455.462 4.17016 0.835305 0
M  V30 4927 N 453.777 0.010035 1.57597 0
M  V30 4928 C 455.188 -0.531426 1.78977 0
M  V30 4929 C 455.539 -1.73375 0.918454 0
M  V30 4930 O 454.664 -2.16047 0.123635 0
M  V30 4931 C 455.259 -0.97086 3.24592 0
M  V30 4932 C 453.818 -1.45756 3.47033 0
M  V30 4933 C 452.965 -0.413384 2.74201 0
M  V30 4934 H 455.916 0.236166 1.56933 0
M  V30 4935 H 455.937 -1.83633 3.33255 0
M  V30 4936 H 455.449 -0.0955893 3.87982 0
M  V30 4937 H 453.55 -2.35339 2.88871 0
M  V30 4938 H 453.663 -1.4781 4.55729 0
M  V30 4939 H 452.027 -0.877266 2.39115 0
M  V30 4940 H 452.81 0.453092 3.40297 0
M  V30 4941 N 455.255 -1.55392 -0.262866 0
M  V30 4942 C 456.532 -1.67204 -1.01499 0
M  V30 4943 C 456.912 -0.545186 -2.03939 0
M  V30 4944 O 456.26 0.453467 -2.23955 0
M  V30 4945 C 456.47 -3.06847 -1.6627 0
M  V30 4946 C 457.818 -3.64928 -2.17054 0
M  V30 4947 O 458.842 -3.09545 -1.76239 0
M  V30 4948 O 457.701 -4.61984 -2.91947 0
M  V30 4949 H 454.795 -0.679467 -0.471438 0
M  V30 4950 H 457.341 -1.67729 -0.257918 0
M  V30 4951 H 456.113 -3.80309 -0.920915 0
M  V30 4952 H 455.736 -3.10266 -2.48638 0
M  V30 4953 N 456.733 0.527833 -1.48498 0
M  V30 4954 C 457.643 1.65907 -1.65867 0
M  V30 4955 C 458.659 1.6537 -0.541192 0
M  V30 4956 O 459.835 1.84282 -0.812534 0
M  V30 4957 C 456.9 3.02364 -1.69637 0
M  V30 4958 C 455.961 3.1374 -2.93028 0
M  V30 4959 C 455.194 4.43688 -2.96609 0
M  V30 4960 O 455.417 5.30913 -2.08538 0
M  V30 4961 O 454.351 4.59475 -3.88802 0
M  V30 4962 H 458.177 1.5419 -2.61647 0
M  V30 4963 H 455.762 0.701163 -1.31924 0
M  V30 4964 H 457.644 3.83515 -1.74625 0
M  V30 4965 H 456.319 3.14401 -0.770312 0
M  V30 4966 H 455.226 2.31877 -2.93571 0
M  V30 4967 H 456.559 3.06621 -3.85026 0
M  V30 4968 N 458.211 1.37122 0.776871 0
M  V30 4969 C 459.451 1.33441 1.54831 0
M  V30 4970 C 459.815 -0.0818963 1.91825 0
M  V30 4971 O 461.016 -0.24338 2.67696 0
M  V30 4972 C 459.287 2.24267 2.78279 0
M  V30 4973 S 460.846 2.38389 3.68397 0
M  V30 4974 H 457.664 0.473791 0.530135 0
M  V30 4975 H 460.266 1.7282 0.913968 0
M  V30 4976 H 458.97 3.261 2.49173 0
M  V30 4977 H 458.501 1.85953 3.46677 0
M  V30 4978 H 460.516 1.59068 4.70013 0
M  V30 4979 N 459.689 -1.00246 1.21608 0
M  V30 4980 C 460.652 -2.07233 0.979133 0
M  V30 4981 C 461.652 -1.6072 -0.0508219 0
M  V30 4982 O 462.842 -1.73196 0.186712 0
M  V30 4983 C 459.974 -3.37546 0.477016 0
M  V30 4984 H 461.167 -2.29687 1.92831 0
M  V30 4985 H 458.72 -1.17261 1.03342 0
M  V30 4986 H 459.455 -3.20773 -0.476966 0
M  V30 4987 H 459.24 -3.72638 1.21997 0
M  V30 4988 H 460.73 -4.16285 0.331181 0
M  V30 4989 N 461.167 -1.02423 -1.1978 0
M  V30 4990 C 462.13 -0.605703 -2.21052 0
M  V30 4991 C 463.13 0.328209 -1.57415 0
M  V30 4992 O 464.32 0.115853 -1.73814 0
M  V30 4993 C 461.452 0.114366 -3.40708 0
M  V30 4994 H 462.645 -1.5017 -2.59594 0
M  V30 4995 H 460.198 -0.814888 -1.33376 0
M  V30 4996 H 460.933 1.02492 -3.07678 0
M  V30 4997 H 460.718 -0.556641 -3.88129 0
M  V30 4998 H 462.208 0.394272 -4.15735 0
M  V30 4999 N 462.645 1.35699 -0.801477 0
M  V30 5000 C 463.608 2.28199 -0.213994 0
M  V30 5001 C 464.608 1.49359 0.595691 0
M  V30 5002 O 465.798 1.69186 0.414921 0
M  V30 5003 C 462.93 3.33587 0.702297 0
M  V30 5004 H 464.123 2.81666 -1.02976 0
M  V30 5005 H 461.676 1.45467 -0.571759 0
M  V30 5006 H 462.411 2.85297 1.54195 0
M  V30 5007 H 462.196 3.91906 0.123484 0
M  V30 5008 H 463.686 4.02638 1.10783 0
M  V30 5009 N 464.123 0.554532 1.47522 0
M  V30 5010 C 465.053 -0.182974 2.32782 0
M  V30 5011 C 466.034 -0.911377 1.43624 0
M  V30 5012 O 467.219 -0.892366 1.72483 0
M  V30 5013 C 464.349 -1.21513 3.25349 0
M  V30 5014 C 463.303 -0.603355 4.23726 0
M  V30 5015 C 462.629 -1.73995 5.05598 0
M  V30 5016 C 463.929 0.441121 5.20434 0
M  V30 5017 H 465.623 0.52882 2.94693 0
M  V30 5018 H 463.169 0.255759 1.41711 0
M  V30 5019 H 465.122 -1.73922 3.83835 0
M  V30 5020 H 463.846 -1.95683 2.61487 0
M  V30 5021 H 462.505 -0.10059 3.66462 0
M  V30 5022 H 462.153 -2.47063 4.38143 0
M  V30 5023 H 461.853 -1.3364 5.72201 0
M  V30 5024 H 463.377 -2.26735 5.66942 0
M  V30 5025 H 464.791 0.00319931 5.733 0
M  V30 5026 H 463.188 0.763402 5.95224 0
M  V30 5027 H 464.258 1.33799 4.66075 0
M  V30 5028 N 465.601 -1.54893 0.290851 0
M  V30 5029 C 466.849 -1.99538 -0.320756 0
M  V30 5030 C 467.17 -1.18075 -1.55188 0
M  V30 5031 O 466.44 -0.274162 -1.93972 0
M  V30 5032 H 465.02 -0.737052 -0.121507 0
M  V30 5033 H 467.682 -1.90755 0.399832 0
M  V30 5034 H 466.778 -3.06282 -0.599802 0
M  V30 5035 N 467.08 -0.0183926 -1.57589 0
M  V30 5036 C 468.043 0.951986 -2.08494 0
M  V30 5037 C 469.043 1.26092 -0.997874 0
M  V30 5038 O 470.233 1.20304 -1.25987 0
M  V30 5039 C 467.365 2.27165 -2.54182 0
M  V30 5040 H 468.558 0.511307 -2.95509 0
M  V30 5041 H 466.111 0.229444 -1.54607 0
M  V30 5042 H 466.846 2.75884 -1.70465 0
M  V30 5043 H 466.631 2.06057 -3.33591 0
M  V30 5044 H 468.121 2.9674 -2.93828 0
M  V30 5045 N 468.558 1.5553 0.254621 0
M  V30 5046 C 469.488 1.9268 1.31897 0
M  V30 5047 C 470.469 0.790797 1.506 0
M  V30 5048 O 471.654 1.05045 1.63337 0
M  V30 5049 C 468.784 2.21477 2.67517 0
M  V30 5050 C 467.738 3.37256 2.63519 0
M  V30 5051 C 467.064 3.51576 4.02862 0
M  V30 5052 C 468.364 4.73157 2.21179 0
M  V30 5053 H 470.058 2.81832 1.01051 0
M  V30 5054 H 467.604 1.35599 0.484662 0
M  V30 5055 H 469.557 2.46055 3.42104 0
M  V30 5056 H 468.281 1.29144 2.99982 0
M  V30 5057 H 466.94 3.12675 1.9139 0
M  V30 5058 H 466.588 2.56676 4.32581 0
M  V30 5059 H 466.288 4.2943 4.01078 0
M  V30 5060 H 467.812 3.78467 4.79161 0
M  V30 5061 H 469.226 4.97158 2.85494 0
M  V30 5062 H 467.623 5.54058 2.30521 0
M  V30 5063 H 468.693 4.70739 1.16332 0
M  V30 5064 N 470.036 -0.519951 1.48776 0
M  V30 5065 C 471.452 -0.849418 1.35119 0
M  V30 5066 C 471.652 -1.98077 0.36982 0
M  V30 5067 O 470.708 -2.51664 -0.205359 0
M  V30 5068 C 472.021 -1.20748 2.75391 0
M  V30 5069 C 473.569 -1.31679 2.83954 0
M  V30 5070 C 474.044 -1.70824 4.24951 0
M  V30 5071 N 475.535 -1.77908 4.27672 0
M  V30 5072 C 476.27 -2.09603 5.33717 0
M  V30 5073 N 475.766 -2.39652 6.5003 0
M  V30 5074 N 477.559 -2.10694 5.21119 0
M  V30 5075 H 469.71 0.226377 2.1119 0
M  V30 5076 H 471.973 0.0386519 0.947212 0
M  V30 5077 H 471.679 -0.449703 3.48813 0
M  V30 5078 H 471.553 -2.15534 3.09556 0
M  V30 5079 H 473.94 -2.06532 2.10781 0
M  V30 5080 H 474.021 -0.3499 2.53396 0
M  V30 5081 H 473.665 -0.965282 4.98643 0
M  V30 5082 H 473.595 -2.6858 4.52959 0
M  V30 5083 H 476.086 -1.56923 3.43779 0
M  V30 5084 H 476.399 -2.6297 7.26682 0
M  V30 5085 H 474.744 -2.37149 6.53288 0
M  V30 5086 H 477.935 -1.86682 4.29264 0
M  V30 5087 H 478.108 -2.35062 6.03863 0
M  V30 5088 N 471.514 -1.37532 -0.769588 0
M  V30 5089 C 472.446 -1.29347 -1.89214 0
M  V30 5090 C 473.459 -0.208842 -1.61455 0
M  V30 5091 O 474.648 -0.465158 -1.72333 0
M  V30 5092 C 471.748 -0.977649 -3.24492 0
M  V30 5093 C 470.921 -2.16817 -3.7988 0
M  V30 5094 C 469.98 -1.82229 -4.93639 0
M  V30 5095 O 469.006 -2.54548 -5.09111 0
M  V30 5096 N 470.208 -0.767696 -5.75401 0
M  V30 5097 H 472.973 -2.26073 -1.96751 0
M  V30 5098 H 470.534 -1.31185 -0.948795 0
M  V30 5099 H 472.526 -0.727065 -3.98115 0
M  V30 5100 H 471.096 -0.0988777 -3.12444 0
M  V30 5101 H 470.316 -2.58038 -2.9801 0
M  V30 5102 H 471.604 -2.96308 -4.13617 0
M  V30 5103 H 471.002 -0.167626 -5.65452 0
M  V30 5104 H 469.559 -0.576973 -6.49241 0
M  V30 5105 N 472.992 0.995999 -1.22138 0
M  V30 5106 C 474.269 1.70834 -0.952642 0
M  V30 5107 C 474.649 2.04257 0.533119 0
M  V30 5108 O 473.997 1.72343 1.50034 0
M  V30 5109 C 474.207 2.96119 -1.84701 0
M  V30 5110 C 475.555 3.68962 -2.10124 0
M  V30 5111 O 476.579 3.0612 -1.82124 0
M  V30 5112 O 475.438 4.82017 -2.57531 0
M  V30 5113 H 472.532 0.745498 -0.357997 0
M  V30 5114 H 475.078 1.05262 -1.33109 0
M  V30 5115 H 473.85 2.67898 -2.85213 0
M  V30 5116 H 473.473 3.6943 -1.46995 0
M  V30 5117 N 474.47 1.03057 1.19235 0
M  V30 5118 C 475.403 0.557384 2.21288 0
M  V30 5119 C 476.381 -0.402675 1.57535 0
M  V30 5120 O 477.565 -0.319376 1.85775 0
M  V30 5121 C 474.692 -0.187041 3.38183 0
M  V30 5122 C 473.738 0.72471 4.20298 0
M  V30 5123 S 474.571 2.20187 4.88137 0
M  V30 5124 C 475.727 1.46801 6.08441 0
M  V30 5125 H 475.96 1.42207 2.61083 0
M  V30 5126 H 473.493 0.840651 1.29508 0
M  V30 5127 H 475.451 -0.610405 4.05936 0
M  V30 5128 H 474.112 -1.02748 2.96819 0
M  V30 5129 H 473.305 0.149911 5.03777 0
M  V30 5130 H 472.907 1.08647 3.57871 0
M  V30 5131 H 475.199 0.755522 6.73274 0
M  V30 5132 H 476.142 2.27946 6.70407 0
M  V30 5133 H 476.55 0.964762 5.56195 0
M  V30 5134 N 475.948 -1.35272 0.808662 0
M  V30 5135 C 477.225 -1.93077 0.313181 0
M  V30 5136 C 477.605 -1.73847 -1.19752 0
M  V30 5137 O 476.953 -1.1087 -1.998 0
M  V30 5138 C 477.163 -3.41347 0.726859 0
M  V30 5139 C 478.511 -4.18493 0.717532 0
M  V30 5140 O 479.535 -3.4987 0.668535 0
M  V30 5141 O 478.394 -5.40937 0.777779 0
M  V30 5142 H 475.488 -0.822885 0.0824018 0
M  V30 5143 H 478.034 -1.44335 0.892499 0
M  V30 5144 H 476.806 -3.49082 1.76797 0
M  V30 5145 H 476.429 -3.97411 0.122461 0
M  V30 5146 N 477.426 -0.562348 -1.47226 0
M  V30 5147 C 478.359 0.230405 -2.27034 0
M  V30 5148 C 479.337 0.915609 -1.3437 0
M  V30 5149 O 480.521 0.933573 -1.63758 0
M  V30 5150 C 477.648 1.32874 -3.11548 0
M  V30 5151 C 476.694 0.751552 -4.19826 0
M  V30 5152 S 477.527 -0.405848 -5.3396 0
M  V30 5153 C 478.683 0.694186 -6.22038 0
M  V30 5154 H 478.916 -0.446811 -2.93923 0
M  V30 5155 H 476.449 -0.348781 -1.50409 0
M  V30 5156 H 478.407 1.95773 -3.60809 0
M  V30 5157 H 477.068 1.97782 -2.44011 0
M  V30 5158 H 476.261 1.57651 -4.78709 0
M  V30 5159 H 475.863 0.198645 -3.73472 0
M  V30 5160 H 478.155 1.58501 -6.58698 0
M  V30 5161 H 479.098 0.142592 -7.07956 0
M  V30 5162 H 479.506 0.989169 -5.55766 0
M  V30 5163 N 478.904 1.54736 -0.299062 0
M  V30 5164 C 480.132 2.04512 0.313447 0
M  V30 5165 C 480.547 1.17643 1.47667 0
M  V30 5166 O 479.904 0.20164 1.81383 0
M  V30 5167 C 479.955 3.53171 0.771542 0
M  V30 5168 O 479.676 4.36736 -0.345379 0
M  V30 5169 C 481.177 4.18936 1.4494 0
M  V30 5170 H 478.397 0.667507 0.0683784 0
M  V30 5171 H 480.941 1.99752 -0.438129 0
M  V30 5172 H 479.096 3.58298 1.47314 0
M  V30 5173 H 479.51 5.24499 0.0109219 0
M  V30 5174 H 480.984 5.24482 1.72111 0
M  V30 5175 H 481.461 3.68554 2.38883 0
M  V30 5176 H 482.067 4.17879 0.791028 0
M  V30 5177 N 480.382 0.0267497 1.57577 0
M  V30 5178 C 481.629 -0.652404 1.91703 0
M  V30 5179 C 481.957 -1.72271 0.902936 0
M  V30 5180 O 481.212 -1.955 -0.0884843 0
M  V30 5181 C 481.511 -1.30914 3.3256 0
M  V30 5182 C 481.177 -0.369441 4.49384 0
M  V30 5183 C 479.839 -0.110791 4.81072 0
M  V30 5184 C 482.191 0.275971 5.20469 0
M  V30 5185 C 479.519 0.801116 5.81205 0
M  V30 5186 C 481.871 1.17592 6.21575 0
M  V30 5187 C 480.535 1.44348 6.51705 0
M  V30 5188 H 479.805 -0.238732 0.70149 0
M  V30 5189 H 482.452 0.0880091 1.91298 0
M  V30 5190 H 480.757 -2.12425 3.29216 0
M  V30 5191 H 482.454 -1.84115 3.56234 0
M  V30 5192 H 479.044 -0.581211 4.24641 0
M  V30 5193 H 483.228 0.0892 4.9622 0
M  V30 5194 H 478.484 1.01614 6.02897 0
M  V30 5195 H 482.658 1.68223 6.75777 0
M  V30 5196 H 480.285 2.15176 7.29111 0
M  V30 5197 N 481.861 -1.55662 -0.24637 0
M  V30 5198 C 483.11 -1.7672 -0.972254 0
M  V30 5199 C 483.423 -0.59078 -1.86465 0
M  V30 5200 O 484.629 -0.684391 -2.62732 0
M  V30 5201 C 483.085 -3.12869 -1.7788 0
M  V30 5202 C 482.693 -4.38161 -0.933768 0
M  V30 5203 C 484.437 -3.43265 -2.49738 0
M  V30 5204 C 482.344 -5.6534 -1.73623 0
M  V30 5205 H 481.274 -0.658795 -0.366749 0
M  V30 5206 H 483.925 -1.82092 -0.226902 0
M  V30 5207 H 482.307 -3.01606 -2.56612 0
M  V30 5208 H 483.481 -4.60413 -0.188736 0
M  V30 5209 H 481.796 -4.15102 -0.328488 0
M  V30 5210 H 484.393 -4.35501 -3.10231 0
M  V30 5211 H 484.736 -2.64614 -3.2138 0
M  V30 5212 H 485.269 -3.55746 -1.78016 0
M  V30 5213 H 482.008 -6.46814 -1.06354 0
M  V30 5214 H 481.528 -5.47188 -2.45653 0
M  V30 5215 H 483.207 -6.04616 -2.30323 0
M  V30 5216 N 483.339 0.512053 -1.4905 0
M  V30 5217 C 484.302 1.59704 -1.64399 0
M  V30 5218 C 485.302 1.52285 -0.516317 0
M  V30 5219 O 486.492 1.55635 -0.782527 0
M  V30 5220 C 483.624 2.9935 -1.63102 0
M  V30 5221 H 484.817 1.47428 -2.61161 0
M  V30 5222 H 482.37 0.735469 -1.37915 0
M  V30 5223 H 483.105 3.17116 -0.678836 0
M  V30 5224 H 482.89 3.06144 -2.44986 0
M  V30 5225 H 484.38 3.782 -1.77072 0
M  V30 5226 N 484.817 1.37938 0.762283 0
M  V30 5227 C 485.78 1.34279 1.85747 0
M  V30 5228 C 486.78 0.244969 1.58923 0
M  V30 5229 O 487.97 0.501365 1.66829 0
M  V30 5230 C 485.102 1.08833 3.23061 0
M  V30 5231 H 486.295 2.31705 1.90401 0
M  V30 5232 H 483.848 1.23105 0.963057 0
M  V30 5233 H 484.583 0.119767 3.24079 0
M  V30 5234 H 484.368 1.88306 3.43923 0
M  V30 5235 H 485.858 1.08946 4.03138 0
M  V30 5236 N 486.295 -0.989507 1.22664 0
M  V30 5237 C 487.535 -1.7447 1.06488 0
M  V30 5238 C 487.899 -1.8794 -0.392737 0
M  V30 5239 O 489.1 -2.60175 -0.675446 0
M  V30 5240 C 487.371 -3.11043 1.76031 0
M  V30 5241 S 488.93 -4.02258 1.7531 0
M  V30 5242 H 485.748 -0.600123 0.381278 0
M  V30 5243 H 488.35 -1.18283 1.55658 0
M  V30 5244 H 487.054 -2.98884 2.81241 0
M  V30 5245 H 486.585 -3.72301 1.27105 0
M  V30 5246 H 488.6 -4.89623 0.805208 0
M  V30 5247 N 487.773 -1.03688 -1.18687 0
M  V30 5248 C 489.05 -0.652397 -1.84399 0
M  V30 5249 C 489.43 0.868386 -1.92412 0
M  V30 5250 O 488.778 1.76832 -1.44716 0
M  V30 5251 C 488.988 -1.3238 -3.22919 0
M  V30 5252 C 490.336 -1.45216 -3.98996 0
M  V30 5253 O 491.36 -1.2816 -3.32345 0
M  V30 5254 O 490.219 -1.72975 -5.18403 0
M  V30 5255 H 487.313 -0.227793 -0.795009 0
M  V30 5256 H 489.859 -1.13553 -1.2611 0
M  V30 5257 H 488.631 -2.36202 -3.11968 0
M  V30 5258 H 488.254 -0.829039 -3.88861 0
M  V30 5259 N 489.251 1.34841 -0.815825 0
M  V30 5260 C 490.184 2.27504 -0.178062 0
M  V30 5261 C 491.162 1.48542 0.661373 0
M  V30 5262 O 492.346 1.77779 0.626653 0
M  V30 5263 C 489.473 3.30246 0.752002 0
M  V30 5264 C 488.519 4.26499 -0.00899172 0
M  V30 5265 S 489.352 5.18169 -1.35134 0
M  V30 5266 C 490.508 6.24449 -0.42596 0
M  V30 5267 H 490.741 2.81248 -0.963684 0
M  V30 5268 H 488.274 1.41781 -0.611355 0
M  V30 5269 H 490.232 3.89933 1.28308 0
M  V30 5270 H 488.893 2.75363 1.51109 0
M  V30 5271 H 488.086 4.99146 0.697766 0
M  V30 5272 H 487.688 3.7103 -0.470396 0
M  V30 5273 H 489.98 6.76404 0.385234 0
M  V30 5274 H 490.923 6.99156 -1.1219 0
M  V30 5275 H 491.331 5.64497 -0.0175461 0
M  V30 5276 N 490.729 0.570148 1.46925 0
M  V30 5277 C 491.679 -0.190921 2.27199 0
M  V30 5278 C 492.663 -0.873457 1.35128 0
M  V30 5279 O 493.855 -0.769627 1.59392 0
M  V30 5280 C 490.984 -1.21204 3.21192 0
M  V30 5281 C 490.07 -0.532261 4.20747 0
M  V30 5282 N 490.461 0.405038 5.04176 0
M  V30 5283 C 488.759 -0.784582 4.39045 0
M  V30 5284 C 489.46 0.801149 5.76157 0
M  V30 5285 N 488.436 0.153082 5.43384 0
M  V30 5286 H 492.238 0.529535 2.8909 0
M  V30 5287 H 489.752 0.391019 1.57622 0
M  V30 5288 H 491.749 -1.77135 3.77398 0
M  V30 5289 H 490.409 -1.93345 2.6086 0
M  V30 5290 H 491.42 0.779903 5.11994 0
M  V30 5291 H 488.097 -1.49352 3.89872 0
M  V30 5292 H 489.487 1.57208 6.5325 0
M  V30 5293 N 492.207 -1.54576 0.307264 0
M  V30 5294 C 493.623 -1.59534 -0.0459251 0
M  V30 5295 C 493.823 -1.32414 -1.51884 0
M  V30 5296 O 492.879 -1.1006 -2.27251 0
M  V30 5297 C 494.192 -2.98566 0.357649 0
M  V30 5298 C 495.74 -3.11491 0.306937 0
M  V30 5299 C 496.215 -4.52842 0.685427 0
M  V30 5300 N 497.706 -4.58782 0.638203 0
M  V30 5301 C 498.441 -5.66238 0.903458 0
M  V30 5302 N 497.937 -6.81703 1.23501 0
M  V30 5303 N 499.73 -5.55937 0.830102 0
M  V30 5304 H 491.881 -1.70464 1.26712 0
M  V30 5305 H 494.144 -0.79647 0.514139 0
M  V30 5306 H 493.85 -3.23356 1.38325 0
M  V30 5307 H 493.724 -3.76117 -0.285565 0
M  V30 5308 H 496.111 -2.86446 -0.709424 0
M  V30 5309 H 496.192 -2.36081 0.984861 0
M  V30 5310 H 495.836 -4.78618 1.69963 0
M  V30 5311 H 495.766 -5.26598 -0.0146346 0
M  V30 5312 H 498.257 -3.75849 0.393138 0
M  V30 5313 H 498.57 -7.59582 1.42322 0
M  V30 5314 H 496.915 -6.8324 1.27311 0
M  V30 5315 H 500.106 -4.64608 0.570693 0
M  V30 5316 H 500.279 -6.39597 1.04019 0
M  V30 5317 N 493.685 -0.035106 -1.57561 0
M  V30 5318 C 494.934 0.641604 -1.91223 0
M  V30 5319 C 495.247 1.72944 -0.913761 0
M  V30 5320 O 496.453 2.46321 -1.14185 0
M  V30 5321 C 494.909 1.19249 -3.3957 0
M  V30 5322 C 494.517 0.137616 -4.47789 0
M  V30 5323 C 496.261 1.84537 -3.82291 0
M  V30 5324 C 494.168 0.700478 -5.87237 0
M  V30 5325 H 493.098 0.243417 -0.713627 0
M  V30 5326 H 495.749 -0.101382 -1.8322 0
M  V30 5327 H 494.131 1.98728 -3.42525 0
M  V30 5328 H 495.305 -0.635153 -4.56402 0
M  V30 5329 H 493.62 -0.416855 -4.14308 0
M  V30 5330 H 496.217 2.27616 -4.83834 0
M  V30 5331 H 496.56 2.69054 -3.17672 0
M  V30 5332 H 497.093 1.11739 -3.81784 0
M  V30 5333 H 493.832 -0.106693 -6.55413 0
M  V30 5334 H 493.352 1.4416 -5.82218 0
M  V30 5335 H 495.031 1.18837 -6.35993 0
M  V30 5336 N 495.163 1.55791 0.238111 0
M  V30 5337 C 496.388 1.8244 0.986432 0
M  V30 5338 C 496.813 0.613314 1.7782 0
M  V30 5339 O 496.171 -0.437767 1.75935 0
M  V30 5340 C 496.219 3.06917 1.893 0
M  V30 5341 O 495.323 2.84449 2.98601 0
M  V30 5342 H 494.664 0.601975 0.280218 0
M  V30 5343 H 497.194 2.02987 0.256437 0
M  V30 5344 H 497.204 3.36583 2.30598 0
M  V30 5345 H 495.879 3.947 1.31091 0
M  V30 5346 H 494.456 2.65972 2.61368 0
M  V30 5347 N 496.642 -0.504142 1.49319 0
M  V30 5348 C 497.552 -1.63248 1.68486 0
M  V30 5349 C 498.568 -1.64488 0.567432 0
M  V30 5350 O 499.744 -1.82966 0.841749 0
M  V30 5351 C 496.809 -2.99627 1.74426 0
M  V30 5352 C 495.87 -3.09039 2.97982 0
M  V30 5353 C 495.103 -4.38913 3.0363 0
M  V30 5354 O 495.326 -5.27528 2.16958 0
M  V30 5355 O 494.26 -4.53231 3.96062 0
M  V30 5356 H 498.086 -1.50008 2.64067 0
M  V30 5357 H 495.671 -0.680086 1.33023 0
M  V30 5358 H 497.553 -3.80689 1.80705 0
M  V30 5359 H 496.228 -3.13136 0.820233 0
M  V30 5360 H 495.135 -2.27177 2.97223 0
M  V30 5361 H 496.468 -3.00456 3.89855 0
M  V30 5362 N 498.12 -1.38341 -0.754957 0
M  V30 5363 C 499.083 -1.35262 -1.85032 0
M  V30 5364 C 500.083 -0.253393 -1.58791 0
M  V30 5365 O 501.273 -0.510205 -1.66561 0
M  V30 5366 C 498.405 -1.10544 -3.22479 0
M  V30 5367 H 499.598 -2.32712 -1.8917 0
M  V30 5368 H 497.151 -1.23614 -0.956515 0
M  V30 5369 H 497.886 -0.136952 -3.24011 0
M  V30 5370 H 497.671 -1.90127 -3.4292 0
M  V30 5371 H 499.161 -1.11082 -4.02555 0
M  V30 5372 N 499.598 0.982988 -1.23187 0
M  V30 5373 C 500.528 2.09301 -1.03515 0
M  V30 5374 C 501.509 1.70035 0.0471136 0
M  V30 5375 O 502.694 1.93847 -0.117029 0
M  V30 5376 C 499.824 3.4167 -0.622791 0
M  V30 5377 C 498.778 3.94828 -1.65211 0
M  V30 5378 C 498.104 5.23362 -1.09527 0
M  V30 5379 C 499.404 4.2439 -3.04451 0
M  V30 5380 H 501.098 2.26016 -1.96359 0
M  V30 5381 H 498.644 1.08611 -0.945501 0
M  V30 5382 H 500.597 4.18746 -0.472233 0
M  V30 5383 H 499.321 3.24811 0.341329 0
M  V30 5384 H 497.98 3.19895 -1.79061 0
M  V30 5385 H 497.628 5.02852 -0.122211 0
M  V30 5386 H 497.328 5.59895 -1.783 0
M  V30 5387 H 498.852 6.03062 -0.956511 0
M  V30 5388 H 500.266 4.92225 -2.93917 0
M  V30 5389 H 498.663 4.72118 -3.70438 0
M  V30 5390 H 499.733 3.31765 -3.53638 0
M  V30 5391 N 501.076 1.04316 1.18135 0
M  V30 5392 C 502.304 0.768117 1.92113 0
M  V30 5393 C 502.719 -0.675057 1.76319 0
M  V30 5394 O 502.076 -1.46038 1.09449 0
M  V30 5395 C 502.127 1.12808 3.43448 0
M  V30 5396 O 501.848 2.5146 3.58747 0
M  V30 5397 C 503.349 0.8779 4.3452 0
M  V30 5398 H 500.569 0.279937 0.609817 0
M  V30 5399 H 503.113 1.39149 1.49859 0
M  V30 5400 H 501.268 0.549623 3.83481 0
M  V30 5401 H 501.682 2.65313 4.52448 0
M  V30 5402 H 503.156 1.17959 5.39249 0
M  V30 5403 H 503.633 -0.187239 4.38801 0
M  V30 5404 H 504.239 1.43977 4.00188 0
M  V30 5405 N 502.554 -1.34406 0.822964 0
M  V30 5406 C 503.803 -1.97542 0.407458 0
M  V30 5407 C 504.116 -1.65973 -1.035 0
M  V30 5408 O 505.322 -2.22598 -1.55442 0
M  V30 5409 C 503.778 -3.53463 0.677623 0
M  V30 5410 C 503.386 -3.93925 2.1337 0
M  V30 5411 C 505.13 -4.23229 0.328284 0
M  V30 5412 C 503.037 -5.42759 2.34876 0
M  V30 5413 H 501.967 -0.739207 0.148623 0
M  V30 5414 H 504.618 -1.53248 1.00932 0
M  V30 5415 H 503 -3.96 0.00558965 0
M  V30 5416 H 504.174 -3.62494 2.8449 0
M  V30 5417 H 502.489 -3.37097 2.44448 0
M  V30 5418 H 505.086 -5.32659 0.466794 0
M  V30 5419 H 505.429 -4.09899 -0.727224 0
M  V30 5420 H 505.962 -3.86169 0.954896 0
M  V30 5421 H 502.701 -5.61075 3.38932 0
M  V30 5422 H 502.221 -5.75704 1.68299 0
M  V30 5423 H 503.9 -6.0944 2.17236 0
M  V30 5424 N 504.032 -0.577932 -1.46621 0
M  V30 5425 C 505.262 -0.0670668 -2.06491 0
M  V30 5426 C 505.67 1.24119 -1.42798 0
M  V30 5427 O 505.013 1.76016 -0.525759 0
M  V30 5428 C 505.075 0.177995 -3.59059 0
M  V30 5429 C 504.739 -1.04394 -4.44917 0
M  V30 5430 C 505.736 -1.95479 -4.81751 0
M  V30 5431 C 503.421 -1.26444 -4.86125 0
M  V30 5432 C 505.415 -3.06965 -5.58615 0
M  V30 5433 C 503.102 -2.38237 -5.62749 0
M  V30 5434 C 504.1 -3.28327 -5.98908 0
M  V30 5435 O 503.788 -4.38179 -6.73984 0
M  V30 5436 H 503.52 -0.0523159 -0.673973 0
M  V30 5437 H 506.074 -0.796966 -1.89308 0
M  V30 5438 H 504.304 0.962451 -3.74531 0
M  V30 5439 H 505.993 0.636782 -4.00874 0
M  V30 5440 H 506.759 -1.79657 -4.50498 0
M  V30 5441 H 502.638 -0.572316 -4.57434 0
M  V30 5442 H 506.182 -3.77309 -5.86757 0
M  V30 5443 H 502.079 -2.54023 -5.93416 0
M  V30 5444 H 502.847 -4.36486 -6.92403 0
M  V30 5445 N 505.51 1.54411 -0.315457 0
M  V30 5446 C 506.46 2.20772 0.569549 0
M  V30 5447 C 507.444 1.18551 1.08787 0
M  V30 5448 O 508.636 1.44213 1.02624 0
M  V30 5449 C 505.765 2.96293 1.73394 0
M  V30 5450 C 504.851 4.05844 1.2309 0
M  V30 5451 N 505.242 5.03822 0.446927 0
M  V30 5452 C 503.54 4.19648 1.51035 0
M  V30 5453 C 504.241 5.8143 0.17725 0
M  V30 5454 N 503.217 5.38245 0.761118 0
M  V30 5455 H 507.019 2.93877 -0.0368076 0
M  V30 5456 H 504.533 1.61949 -0.120915 0
M  V30 5457 H 506.53 3.42313 2.37965 0
M  V30 5458 H 505.19 2.24708 2.34386 0
M  V30 5459 H 506.201 5.17821 0.0905027 0
M  V30 5460 H 502.878 3.59274 2.1267 0
M  V30 5461 H 504.268 6.70369 -0.45335 0
M  V30 5462 O 507.027 0.182621 1.60464 0
M  V30 5463 H 507.718 -0.405074 1.89417 0
M  V30 END ATOM
M  V30 BEGIN BOND
M  V30 END BOND
M  V30 END CTAB
M  END
$$$$
