drugbank_target|P07204 Thrombomodulin (DB00055; DB01050; DB09213)
 OpenBabel12092119483D

  0  0  0     0  0            999 V3000
M  V30 BEGIN CTAB
M  V30 COUNTS 8207 8314 0 0 0
M  V30 BEGIN ATOM
M  V30 1 H -0.908 1.98254 -0.117106 0
M  V30 2 N 0 1.576 0 0
M  V30 3 C 0.933 2.03868 1.02534 0
M  V30 4 C 1.911 0.928543 1.3348 0
M  V30 5 O 3.095 1.19667 1.45644 0
M  V30 6 C 0.222 2.43627 2.35294 0
M  V30 7 C -0.732 3.65373 2.2001 0
M  V30 8 S 0.101 5.13292 1.52614 0
M  V30 9 C 1.257 5.56322 2.86805 0
M  V30 10 H 1.49 2.90518 0.631377 0
M  V30 11 H -0.977 1.52953 0.210867 0
M  V30 12 H 0.981 2.67203 3.11629 0
M  V30 13 H -0.358 1.57376 2.7183 0
M  V30 14 H -1.165 3.90944 3.18086 0
M  V30 15 H -1.563 3.418 1.51819 0
M  V30 16 H 0.729 5.58782 3.83104 0
M  V30 17 H 1.672 6.56266 2.65933 0
M  V30 18 H 2.08 4.83886 2.90714 0
M  V30 19 N 1.4781 -0.272755 1.55222 0
M  V30 20 C 2.4081 -1.34136 1.91127 0
M  V30 21 C 3.3891 -1.51513 0.773168 0
M  V30 22 O 4.5741 -1.64552 1.03132 0
M  V30 23 C 1.7041 -2.70083 2.1834 0
M  V30 24 C 0.6581 -2.67437 3.34158 0
M  V30 25 C -0.0159 -4.06938 3.46851 0
M  V30 26 C 1.2841 -2.26686 4.70543 0
M  V30 27 H 2.9781 -1.04333 2.80633 0
M  V30 28 H 0.5241 -0.500454 1.35024 0
M  V30 29 H 2.4771 -3.44952 2.42046 0
M  V30 30 H 1.2011 -3.01469 1.25634 0
M  V30 31 H -0.1399 -1.95026 3.1042 0
M  V30 32 H -0.4919 -4.35547 2.51611 0
M  V30 33 H -0.7919 -4.06062 4.2472 0
M  V30 34 H 0.7321 -4.83545 3.72849 0
M  V30 35 H 2.1461 -2.91277 4.93792 0
M  V30 36 H 0.5431 -2.36971 5.5133 0
M  V30 37 H 1.6131 -1.21818 4.69349 0
M  V30 38 N 2.9562 -1.48159 -0.537278 0
M  V30 39 C 4.2042 -1.55497 -1.29094 0
M  V30 40 C 4.5252 -0.227454 -1.93669 0
M  V30 41 O 3.7952 0.750386 -1.80959 0
M  V30 42 H 2.3752 -0.572832 -0.47945 0
M  V30 43 H 5.0372 -1.84579 -0.625818 0
M  V30 44 H 4.1332 -2.33216 -2.07405 0
M  V30 45 N 4.4343 0.785586 -1.36625 0
M  V30 46 C 5.6803 1.54591 -1.31261 0
M  V30 47 C 6.0133 1.93906 0.106823 0
M  V30 48 O 5.2883 1.63007 1.06108 0
M  V30 49 C 5.5713 2.82038 -2.23889 0
M  V30 50 C 5.4243 2.49066 -3.74548 0
M  V30 51 C 6.7433 3.83887 -2.15217 0
M  V30 52 H 3.8623 0.560846 -0.478143 0
M  V30 53 H 6.5043 0.902278 -1.67209 0
M  V30 54 H 4.6543 3.36961 -1.93363 0
M  V30 55 H 6.3263 2.00164 -4.15611 0
M  V30 56 H 4.5693 1.81954 -3.93796 0
M  V30 57 H 5.2403 3.40109 -4.34776 0
M  V30 58 H 7.7163 3.38421 -2.42096 0
M  V30 59 H 6.5923 4.70806 -2.82193 0
M  V30 60 H 6.8533 4.27131 -1.14068 0
M  V30 61 N 5.9124 1.20967 1.01018 0
M  V30 62 C 6.8424 0.988272 2.11555 0
M  V30 63 C 7.8234 -0.0849778 1.69888 0
M  V30 64 O 9.0084 0.0738202 1.9406 0
M  V30 65 C 6.1384 0.546528 3.42973 0
M  V30 66 C 5.0924 1.56375 3.9841 0
M  V30 67 C 4.4184 0.97842 5.25672 0
M  V30 68 C 5.7184 2.94922 4.31066 0
M  V30 69 H 7.4124 1.91276 2.30334 0
M  V30 70 H 4.9584 0.921073 1.1069 0
M  V30 71 H 6.9114 0.378839 4.19694 0
M  V30 72 H 5.6354 -0.413598 3.23971 0
M  V30 73 H 4.2944 1.71891 3.23804 0
M  V30 74 H 3.9424 0.0101688 5.02999 0
M  V30 75 H 3.6424 1.65784 5.63728 0
M  V30 76 H 5.1664 0.821939 6.05043 0
M  V30 77 H 6.5804 2.8288 4.9865 0
M  V30 78 H 4.9774 3.5983 4.80253 0
M  V30 79 H 6.0474 3.4616 3.39561 0
M  V30 80 N 7.3905 -1.2043 1.01659 0
M  V30 81 C 8.6365 -1.90079 0.706963 0
M  V30 82 C 8.9695 -1.78648 -0.761474 0
M  V30 83 O 8.2445 -1.17069 -1.55323 0
M  V30 84 C 8.5275 -3.41469 1.14327 0
M  V30 85 C 8.3805 -3.61833 2.67201 0
M  V30 86 C 9.6995 -4.34261 0.714529 0
M  V30 87 H 6.8185 -0.690254 0.2583 0
M  V30 88 H 9.4605 -1.41826 1.26433 0
M  V30 89 H 7.6105 -3.82696 0.669056 0
M  V30 90 H 9.2825 -3.2986 3.22475 0
M  V30 91 H 7.5255 -3.05304 3.08175 0
M  V30 92 H 8.1965 -4.67955 2.92783 0
M  V30 93 H 10.6725 -4.00682 1.12221 0
M  V30 94 H 9.5485 -5.38806 1.04784 0
M  V30 95 H 9.8095 -4.40431 -0.383799 0
M  V30 96 N 8.8686 -0.792821 -1.36206 0
M  V30 97 C 9.7986 -0.207853 -2.32573 0
M  V30 98 C 10.7796 0.659055 -1.56813 0
M  V30 99 O 11.9646 0.592176 -1.84951 0
M  V30 100 C 9.0946 0.655449 -3.41059 0
M  V30 101 C 8.0486 -0.111842 -4.27854 0
M  V30 102 C 7.3746 0.872274 -5.27537 0
M  V30 103 C 8.6746 -1.30299 -5.05786 0
M  V30 104 H 10.3686 -1.01294 -2.81744 0
M  V30 105 H 7.9146 -0.48854 -1.3546 0
M  V30 106 H 9.8676 1.07464 -4.07467 0
M  V30 107 H 8.5916 1.49328 -2.90463 0
M  V30 108 H 7.2506 -0.512053 -3.63006 0
M  V30 109 H 6.8986 1.70523 -4.73214 0
M  V30 110 H 6.5986 0.363291 -5.86476 0
M  V30 111 H 8.1226 1.28996 -5.96818 0
M  V30 112 H 9.5366 -0.959379 -5.65216 0
M  V30 113 H 7.9336 -1.7455 -5.74154 0
M  V30 114 H 9.0036 -2.09663 -4.37229 0
M  V30 115 N 10.3467 1.47872 -0.545128 0
M  V30 116 C 11.5947 2.02093 -0.016553 0
M  V30 117 C 11.9157 1.42305 1.3332 0
M  V30 118 O 11.1857 0.593853 1.86682 0
M  V30 119 H 9.7657 0.746993 -0.00313038 0
M  V30 120 H 12.4277 1.81414 -0.712397 0
M  V30 121 H 11.5237 3.11996 0.0805422 0
M  V30 122 N 11.8248 0.280983 1.55075 0
M  V30 123 C 12.7878 -0.590896 2.21452 0
M  V30 124 C 13.7878 -1.07682 1.19421 0
M  V30 125 O 14.9778 -0.97605 1.44288 0
M  V30 126 C 12.1098 -1.81587 2.88511 0
M  V30 127 H 13.3028 -0.0112554 2.99898 0
M  V30 128 H 10.8558 0.0316438 1.56268 0
M  V30 129 H 11.5908 -2.43587 2.14093 0
M  V30 130 H 11.3758 -1.4753 3.63287 0
M  V30 131 H 12.8658 -2.43575 3.39206 0
M  V30 132 N 13.3029 -1.57598 0.00835791 0
M  V30 133 C 14.2329 -2.1198 -0.979113 0
M  V30 134 C 15.2139 -1.03091 -1.35301 0
M  V30 135 O 16.3989 -1.30818 -1.43528 0
M  V30 136 C 13.5289 -2.62995 -2.26828 0
M  V30 137 C 12.4829 -3.76485 -2.03576 0
M  V30 138 C 11.8089 -4.13846 -3.38579 0
M  V30 139 C 13.1089 -5.0342 -1.39161 0
M  V30 140 H 14.8029 -2.94738 -0.526281 0
M  V30 141 H 12.3489 -1.41783 -0.251704 0
M  V30 142 H 14.3019 -2.99669 -2.96271 0
M  V30 143 H 13.0259 -1.7737 -2.7424 0
M  V30 144 H 11.6849 -3.40217 -1.36557 0
M  V30 145 H 11.3329 -3.25232 -3.83709 0
M  V30 146 H 11.0329 -4.90312 -3.23834 0
M  V30 147 H 12.5569 -4.53086 -4.09323 0
M  V30 148 H 13.9709 -5.37812 -1.98573 0
M  V30 149 H 12.3679 -5.84746 -1.34878 0
M  V30 150 H 13.4379 -4.83548 -0.361868 0
M  V30 151 N 14.781 0.264519 -1.55364 0
M  V30 152 C 15.744 1.31046 -1.88042 0
M  V30 153 C 16.744 1.41943 -0.755569 0
M  V30 154 O 17.934 1.40947 -1.02369 0
M  V30 155 C 15.066 2.69067 -2.09323 0
M  V30 156 H 16.259 1.03297 -2.81549 0
M  V30 157 H 13.812 0.502989 -1.47986 0
M  V30 158 H 14.547 3.01982 -1.18226 0
M  V30 159 H 14.332 2.62542 -2.91229 0
M  V30 160 H 15.822 3.44623 -2.35848 0
M  V30 161 N 16.2591 1.48442 0.529413 0
M  V30 162 C 17.1891 1.65902 1.64313 0
M  V30 163 C 18.1701 0.507897 1.6234 0
M  V30 164 O 19.3551 0.740503 1.79528 0
M  V30 165 C 16.4851 1.69911 3.02898 0
M  V30 166 C 15.4391 2.8453 3.19729 0
M  V30 167 C 14.7651 2.73629 4.59381 0
M  V30 168 C 16.0651 4.25821 3.02447 0
M  V30 169 H 17.7591 2.5914 1.49955 0
M  V30 170 H 15.3051 1.24709 0.719982 0
M  V30 171 H 17.2581 1.80715 3.80684 0
M  V30 172 H 15.9821 0.732524 3.18279 0
M  V30 173 H 14.6411 2.73283 2.44361 0
M  V30 174 H 14.2891 1.74938 4.71599 0
M  V30 175 H 13.9891 3.50541 4.71588 0
M  V30 176 H 15.5131 2.86401 5.39265 0
M  V30 177 H 16.9271 4.37898 3.70024 0
M  V30 178 H 15.3241 5.03735 3.26146 0
M  V30 179 H 16.3941 4.42244 1.98867 0
M  V30 180 N 17.7372 -0.778329 1.37039 0
M  V30 181 C 18.7002 -1.87301 1.32102 0
M  V30 182 C 19.7002 -1.59198 0.226405 0
M  V30 183 O 20.8902 -1.67403 0.481861 0
M  V30 184 C 18.0222 -3.24309 1.05055 0
M  V30 185 H 19.2152 -1.93093 2.29467 0
M  V30 186 H 16.7682 -0.977358 1.21973 0
M  V30 187 H 17.5032 -3.24196 0.0819373 0
M  V30 188 H 17.2882 -3.46098 1.84279 0
M  V30 189 H 18.7782 -4.04382 1.04234 0
M  V30 190 N 19.2153 -1.21501 -1.00376 0
M  V30 191 C 20.4633 -1.03095 -1.73827 0
M  V30 192 C 20.7843 0.436341 -1.90055 0
M  V30 193 O 20.0543 1.31466 -1.45236 0
M  V30 194 H 18.6343 -0.378487 -0.644016 0
M  V30 195 H 21.2963 -1.52831 -1.20949 0
M  V30 196 H 20.3923 -1.49991 -2.73695 0
M  V30 197 N 20.6934 1.19889 -1.02296 0
M  V30 198 C 21.6234 2.25141 -0.619174 0
M  V30 199 C 22.6044 1.66051 0.368915 0
M  V30 200 O 23.7894 1.92546 0.252941 0
M  V30 201 C 20.9194 3.4728 0.0368783 0
M  V30 202 C 19.8734 4.19005 -0.872865 0
M  V30 203 C 19.1994 5.34637 -0.0822402 0
M  V30 204 C 20.4994 4.74452 -2.18387 0
M  V30 205 H 22.1934 2.59171 -1.49903 0
M  V30 206 H 19.7394 1.24579 -0.722222 0
M  V30 207 H 21.6924 4.20098 0.330958 0
M  V30 208 H 20.4164 3.12433 0.95149 0
M  V30 209 H 19.0754 3.48061 -1.15105 0
M  V30 210 H 18.7234 4.96034 0.83422 0
M  V30 211 H 18.4234 5.83557 -0.688149 0
M  V30 212 H 19.9474 6.10255 0.205238 0
M  V30 213 H 21.3614 5.39055 -1.95172 0
M  V30 214 H 19.7584 5.33834 -2.74119 0
M  V30 215 H 20.8284 3.92844 -2.84257 0
M  V30 216 N 22.1715 0.800033 1.35784 0
M  V30 217 C 23.4195 0.376597 1.9856 0
M  V30 218 C 23.7405 -1.05812 1.63795 0
M  V30 219 O 23.0105 -1.73103 0.917171 0
M  V30 220 H 21.5905 0.136261 0.734467 0
M  V30 221 H 24.2525 1.02442 1.65806 0
M  V30 222 H 23.3485 0.477002 3.08433 0
M  V30 223 N 23.6496 -1.47581 0.552962 0
M  V30 224 C 24.8966 -2.02482 0.0273243 0
M  V30 225 C 25.2246 -1.42776 -1.32081 0
M  V30 226 O 24.4796 -0.571393 -1.87173 0
M  V30 227 C 24.7786 -3.57199 -0.119728 0
M  V30 228 C 24.4446 -4.35804 1.15697 0
M  V30 229 C 23.1066 -4.57 1.50681 0
M  V30 230 C 25.4586 -4.81167 2.00319 0
M  V30 231 C 22.7866 -5.20807 2.70142 0
M  V30 232 C 25.1386 -5.46293 3.18978 0
M  V30 233 C 23.8026 -5.65722 3.54281 0
M  V30 234 H 23.0726 -0.740933 0.00999866 0
M  V30 235 H 25.7196 -1.77302 0.72362 0
M  V30 236 H 24.0246 -3.81348 -0.89896 0
M  V30 237 H 25.7216 -3.97324 -0.541718 0
M  V30 238 H 22.3116 -4.19582 0.874561 0
M  V30 239 H 26.4956 -4.64574 1.74599 0
M  V30 240 H 21.7516 -5.34045 2.97668 0
M  V30 241 H 25.9256 -5.80407 3.84838 0
M  V30 242 H 23.5526 -6.14936 4.46942 0
M  V30 243 N 25.1277 -0.289203 -1.54924 0
M  V30 244 C 26.5387 0.205791 -1.85562 0
M  V30 245 C 26.8897 1.54351 -1.2112 0
M  V30 246 O 26.0147 2.10435 -0.504601 0
M  V30 247 C 26.6097 0.380177 -3.3666 0
M  V30 248 C 25.1687 0.819395 -3.67373 0
M  V30 249 C 24.3157 -0.079159 -2.77187 0
M  V30 250 H 27.2667 -0.510577 -1.50262 0
M  V30 251 H 27.2877 1.21659 -3.60526 0
M  V30 252 H 26.7997 -0.593589 -3.83534 0
M  V30 253 H 24.9007 1.80413 -3.26009 0
M  V30 254 H 25.0137 0.646957 -4.74712 0
M  V30 255 H 23.3777 0.439565 -2.50878 0
M  V30 256 H 24.1607 -1.04906 -3.26878 0
M  V30 257 N 26.6058 1.57591 -0.0167156 0
M  V30 258 C 27.5688 2.08393 0.954204 0
M  V30 259 C 28.5688 0.996531 1.26198 0
M  V30 260 O 29.7588 1.25858 1.20438 0
M  V30 261 C 26.8908 2.5394 2.27436 0
M  V30 262 H 28.0838 2.95455 0.514451 0
M  V30 263 H 25.6368 1.54582 0.231089 0
M  V30 264 H 26.3718 1.70171 2.76066 0
M  V30 265 H 26.1568 3.33371 2.06412 0
M  V30 266 H 27.6468 2.93512 2.97053 0
M  V30 267 N 28.0839 -0.256276 1.55502 0
M  V30 268 C 29.4949 -0.826068 1.67431 0
M  V30 269 C 29.8459 -1.86396 0.612446 0
M  V30 270 O 28.9709 -2.15031 -0.243025 0
M  V30 271 C 29.5659 -1.50512 3.03532 0
M  V30 272 C 28.1249 -2.02273 3.17431 0
M  V30 273 C 27.2719 -0.870548 2.63281 0
M  V30 274 H 30.2229 -0.0322728 1.58667 0
M  V30 275 H 30.2439 -2.37279 2.97454 0
M  V30 276 H 29.7559 -0.749484 3.80794 0
M  V30 277 H 27.8569 -2.80746 2.44974 0
M  V30 278 H 27.9699 -2.22655 4.24219 0
M  V30 279 H 26.3339 -1.26851 2.20864 0
M  V30 280 H 27.1169 -0.128149 3.43061 0
M  V30 281 N 29.562 -1.4872 -0.521534 0
M  V30 282 C 30.525 -1.63379 -1.60748 0
M  V30 283 C 31.525 -0.50661 -1.52611 0
M  V30 284 O 32.715 -0.772601 -1.5613 0
M  V30 285 C 29.847 -1.61192 -3.00383 0
M  V30 286 H 31.04 -2.60217 -1.49087 0
M  V30 287 H 28.593 -1.37444 -0.744235 0
M  V30 288 H 29.328 -0.65863 -3.17541 0
M  V30 289 H 29.113 -2.43032 -3.07698 0
M  V30 290 H 30.603 -1.7466 -3.7932 0
M  V30 291 N 31.0401 0.771051 -1.3745 0
M  V30 292 C 31.9501 1.91538 -1.35464 0
M  V30 293 C 32.9661 1.72134 -0.254123 0
M  V30 294 O 34.1421 1.95358 -0.489626 0
M  V30 295 C 31.2071 3.26671 -1.16134 0
M  V30 296 C 30.2681 3.58723 -2.35831 0
M  V30 297 C 29.5011 4.87409 -2.17413 0
M  V30 298 O 29.7241 5.58506 -1.15876 0
M  V30 299 O 28.6581 5.18539 -3.05615 0
M  V30 300 H 32.4841 1.96165 -2.31847 0
M  V30 301 H 30.0691 0.9139 -1.18187 0
M  V30 302 H 31.9511 4.07499 -1.07345 0
M  V30 303 H 30.6261 3.22894 -0.228251 0
M  V30 304 H 29.5331 2.78127 -2.50192 0
M  V30 305 H 30.8661 3.67243 -3.27709 0
M  V30 306 N 32.5182 1.22032 0.997298 0
M  V30 307 C 33.9292 1.0397 1.55071 0
M  V30 308 C 34.2802 -0.398192 1.92117 0
M  V30 309 O 33.4052 -1.28254 1.74298 0
M  V30 310 C 34.0002 1.88109 2.81781 0
M  V30 311 C 32.5592 1.74357 3.33581 0
M  V30 312 C 31.7062 1.84846 2.06706 0
M  V30 313 H 34.6572 1.35941 0.818883 0
M  V30 314 H 34.6782 1.39589 3.53971 0
M  V30 315 H 34.1902 2.92754 2.54787 0
M  V30 316 H 32.2912 0.72427 3.65493 0
M  V30 317 H 32.4042 2.56772 4.04481 0
M  V30 318 H 30.7682 1.28238 2.20062 0
M  V30 319 H 31.5512 2.91014 1.82114 0
M  V30 320 N 33.9963 -1.19345 1.0293 0
M  V30 321 C 34.9283 -2.22036 0.56857 0
M  V30 322 C 35.9413 -1.58865 -0.355779 0
M  V30 323 O 37.1303 -1.77851 -0.152103 0
M  V30 324 C 34.2303 -3.38363 -0.190752 0
M  V30 325 C 33.4033 -4.31118 0.738643 0
M  V30 326 C 32.4623 -5.26194 0.0246497 0
M  V30 327 O 31.4883 -5.65461 0.651354 0
M  V30 328 N 32.6903 -5.66971 -1.24594 0
M  V30 329 H 35.4553 -2.6219 1.45177 0
M  V30 330 H 33.0163 -1.34015 0.908381 0
M  V30 331 H 35.0083 -3.98981 -0.677961 0
M  V30 332 H 33.5783 -2.96994 -0.975366 0
M  V30 333 H 32.7983 -3.68276 1.40593 0
M  V30 334 H 34.0863 -4.90001 1.37029 0
M  V30 335 H 33.4843 -5.37104 -1.77583 0
M  V30 336 H 32.0413 -6.2984 -1.67764 0
M  V30 337 N 35.4744 -0.807222 -1.35358 0
M  V30 338 C 36.8854 -0.44876 -1.81226 0
M  V30 339 C 37.2364 1.02929 -1.67033 0
M  V30 340 O 36.3614 1.79991 -1.20133 0
M  V30 341 C 36.9564 -0.807774 -3.2903 0
M  V30 342 C 35.5154 -0.501901 -3.73039 0
M  V30 343 C 34.6624 -1.03304 -2.57339 0
M  V30 344 H 37.6134 -0.998808 -1.23327 0
M  V30 345 H 37.6344 -0.10554 -3.80354 0
M  V30 346 H 37.1464 -1.88357 -3.39328 0
M  V30 347 H 35.2474 0.565128 -3.68289 0
M  V30 348 H 35.3604 -1.03497 -4.67787 0
M  V30 349 H 33.7244 -0.455339 -2.50597 0
M  V30 350 H 34.5074 -2.11496 -2.70415 0
M  V30 351 N 36.9525 1.47285 -0.560781 0
M  V30 352 C 38.2005 2.02064 -0.0379868 0
M  V30 353 C 38.5215 1.43711 1.31803 0
M  V30 354 O 37.7915 0.61362 1.86042 0
M  V30 355 H 36.3715 0.746918 -0.0110531 0
M  V30 356 H 39.0335 1.80648 -0.731598 0
M  V30 357 H 38.1295 3.12064 0.0474463 0
M  V30 358 N 38.4306 0.297415 1.54768 0
M  V30 359 C 39.6786 -0.312295 1.99673 0
M  V30 360 C 39.9996 -1.54686 1.18732 0
M  V30 361 O 39.2696 -1.93854 0.282382 0
M  V30 362 H 37.8496 -0.118381 0.73756 0
M  V30 363 H 40.5116 0.407915 1.90583 0
M  V30 364 H 39.6076 -0.586813 3.06534 0
M  V30 365 N 39.9087 -1.5758 0.0250728 0
M  V30 366 C 41.1337 -1.96337 -0.668317 0
M  V30 367 C 41.5587 -0.901314 -1.651 0
M  V30 368 O 40.9167 0.138187 -1.80773 0
M  V30 369 C 40.9647 -3.34191 -1.35457 0
M  V30 370 O 40.0687 -3.30269 -2.46974 0
M  V30 371 H 39.4097 -0.640281 -0.175887 0
M  V30 372 H 41.9397 -2.0442 0.0857224 0
M  V30 373 H 41.9497 -3.70331 -1.71228 0
M  V30 374 H 40.6247 -4.11036 -0.634218 0
M  V30 375 H 39.2017 -3.05841 -2.13344 0
M  V30 376 N 41.3868 0.248026 -1.55636 0
M  V30 377 C 42.3188 1.32993 -1.8667 0
M  V30 378 C 43.3318 1.44345 -0.752877 0
M  V30 379 O 44.5208 1.45715 -1.03098 0
M  V30 380 C 41.6208 2.70863 -2.03682 0
M  V30 381 C 40.7938 2.81792 -3.34532 0
M  V30 382 C 39.8528 4.005 -3.41301 0
M  V30 383 O 38.8788 3.9008 -4.14519 0
M  V30 384 N 40.0808 5.13618 -2.70512 0
M  V30 385 H 42.8458 1.06707 -2.8006 0
M  V30 386 H 40.4068 0.438129 -1.55859 0
M  V30 387 H 42.3988 3.48612 -2.05553 0
M  V30 388 H 40.9688 2.89862 -1.17041 0
M  V30 389 H 40.1888 1.90729 -3.44987 0
M  V30 390 H 41.4768 2.86043 -4.20781 0
M  V30 391 H 40.8748 5.24975 -2.10755 0
M  V30 392 H 39.4318 5.89505 -2.78077 0
M  V30 393 N 42.8649 1.48995 0.513639 0
M  V30 394 C 44.1049 1.59452 1.27885 0
M  V30 395 C 44.4689 0.269479 1.90099 0
M  V30 396 O 45.6699 0.249139 2.67643 0
M  V30 397 C 43.9409 2.71277 2.32688 0
M  V30 398 S 45.4999 3.01604 3.18717 0
M  V30 399 H 42.3179 0.562565 0.434789 0
M  V30 400 H 44.9199 1.86595 0.583301 0
M  V30 401 H 43.6239 3.66089 1.8549 0
M  V30 402 H 43.1549 2.46086 3.06929 0
M  V30 403 H 45.1699 2.42155 4.331 0
M  V30 404 N 44.343 -0.763751 1.37857 0
M  V30 405 C 45.589 -1.52483 1.33704 0
M  V30 406 C 45.922 -1.94051 -0.0759612 0
M  V30 407 O 45.197 -1.64675 -1.03501 0
M  V30 408 C 45.48 -2.78441 2.28348 0
M  V30 409 C 45.333 -2.43075 3.78463 0
M  V30 410 C 46.652 -3.80415 2.21298 0
M  V30 411 H 43.771 -0.553169 0.487005 0
M  V30 412 H 46.413 -0.875562 1.68624 0
M  V30 413 H 44.563 -3.33842 1.987 0
M  V30 414 H 46.235 -1.93527 4.18742 0
M  V30 415 H 44.478 -1.75666 3.96641 0
M  V30 416 H 45.149 -3.33149 4.40132 0
M  V30 417 H 47.625 -3.34527 2.47449 0
M  V30 418 H 46.501 -4.66257 2.89647 0
M  V30 419 H 46.762 -4.25262 1.20849 0
M  V30 420 N 45.8211 -1.22559 -0.990812 0
M  V30 421 C 46.7311 -1.01394 -2.11557 0
M  V30 422 C 47.7471 0.0383962 -1.73958 0
M  V30 423 O 48.9231 -0.154787 -2.00804 0
M  V30 424 C 45.9881 -0.596569 -3.41529 0
M  V30 425 C 45.0491 -1.72276 -3.93217 0
M  V30 426 C 44.2821 -1.32521 -5.16985 0
M  V30 427 O 44.5051 -0.204909 -5.70032 0
M  V30 428 O 43.4391 -2.14247 -5.62478 0
M  V30 429 H 47.2651 -1.95633 -2.32296 0
M  V30 430 H 44.8501 -1.01172 -1.0993 0
M  V30 431 H 46.7321 -0.374263 -4.19735 0
M  V30 432 H 45.4071 0.316939 -3.22145 0
M  V30 433 H 44.3141 -1.99961 -3.16174 0
M  V30 434 H 45.6471 -2.61421 -4.17037 0
M  V30 435 N 47.2992 1.18797 -1.03562 0
M  V30 436 C 48.2492 2.20161 -0.592724 0
M  V30 437 C 49.2332 1.56772 0.362133 0
M  V30 438 O 50.4252 1.76062 0.182009 0
M  V30 439 C 47.5542 3.43266 0.0481024 0
M  V30 440 C 46.6402 4.13786 -0.9296 0
M  V30 441 N 47.0312 4.60388 -2.09467 0
M  V30 442 C 45.3292 4.39572 -0.754499 0
M  V30 443 C 46.0302 5.14619 -2.71187 0
M  V30 444 N 45.0062 5.05826 -1.991 0
M  V30 445 H 48.8082 2.53877 -1.48066 0
M  V30 446 H 46.3222 1.34946 -0.903514 0
M  V30 447 H 48.3192 4.15136 0.383058 0
M  V30 448 H 46.9792 3.11048 0.931636 0
M  V30 449 H 47.9902 4.54999 -2.47379 0
M  V30 450 H 44.6672 4.17425 0.0793713 0
M  V30 451 H 46.0572 5.60917 -3.69895 0
M  V30 452 N 48.7773 0.814389 1.34928 0
M  V30 453 C 50.0543 0.321363 1.92942 0
M  V30 454 C 50.4343 -1.19014 1.74353 0
M  V30 455 O 49.7823 -1.99328 1.11716 0
M  V30 456 C 49.9923 0.741323 3.41036 0
M  V30 457 C 51.3403 0.735266 4.18185 0
M  V30 458 O 52.3643 0.68336 3.49584 0
M  V30 459 O 51.2233 0.800703 5.40602 0
M  V30 460 H 48.3173 0.0858893 0.822528 0
M  V30 461 H 50.8633 0.898609 1.43955 0
M  V30 462 H 49.6353 1.78276 3.4833 0
M  V30 463 H 49.2583 0.139307 3.97356 0
M  V30 464 N 50.2554 -1.46986 0.568584 0
M  V30 465 C 51.4954 -2.04336 0.0512999 0
M  V30 466 C 51.8594 -1.43214 -1.27881 0
M  V30 467 O 53.0604 -1.91679 -1.88448 0
M  V30 468 C 51.3314 -3.57389 -0.0282328 0
M  V30 469 S 52.8904 -4.36056 -0.489991 0
M  V30 470 H 49.7084 -0.71034 0.0306349 0
M  V30 471 H 52.3104 -1.80212 0.757891 0
M  V30 472 H 51.0144 -3.99395 0.944011 0
M  V30 473 H 50.5454 -3.86028 -0.75803 0
M  V30 474 H 52.5604 -4.6441 -1.74752 0
M  V30 475 N 51.7335 -0.305618 -1.54608 0
M  V30 476 C 52.9805 0.302298 -2.00231 0
M  V30 477 C 53.3085 1.5354 -1.19398 0
M  V30 478 O 52.5635 1.93973 -0.259423 0
M  V30 479 C 52.8625 0.698983 -3.50498 0
M  V30 480 C 52.5285 -0.432903 -4.48817 0
M  V30 481 C 51.1905 -0.743622 -4.75419 0
M  V30 482 C 53.5425 -1.19409 -5.07337 0
M  V30 483 C 50.8705 -1.81857 -5.57804 0
M  V30 484 C 53.2225 -2.25899 -5.90891 0
M  V30 485 C 51.8865 -2.57572 -6.15803 0
M  V30 486 H 51.1565 0.110619 -0.732697 0
M  V30 487 H 53.8035 -0.425674 -1.86709 0
M  V30 488 H 52.1085 1.50711 -3.61654 0
M  V30 489 H 53.8055 1.1806 -3.83227 0
M  V30 490 H 50.3955 -0.18063 -4.28219 0
M  V30 491 H 54.5795 -0.967295 -4.86782 0
M  V30 492 H 49.8355 -2.06864 -5.75341 0
M  V30 493 H 54.0095 -2.85335 -6.35261 0
M  V30 494 H 51.6365 -3.40998 -6.7943 0
M  V30 495 N 53.2116 1.57565 -0.0334293 0
M  V30 496 C 54.1746 2.09393 0.932048 0
M  V30 497 C 55.1746 1.00986 1.25134 0
M  V30 498 O 56.3646 1.27129 1.19096 0
M  V30 499 C 53.4966 2.56338 2.2473 0
M  V30 500 H 54.6896 2.95984 0.483085 0
M  V30 501 H 52.2426 1.54819 0.21468 0
M  V30 502 H 52.9776 1.7309 2.74245 0
M  V30 503 H 52.7626 3.35542 2.02865 0
M  V30 504 H 54.2526 2.96646 2.93923 0
M  V30 505 N 54.6897 -0.239769 1.55765 0
M  V30 506 C 55.6197 -1.30052 1.9393 0
M  V30 507 C 56.6007 -1.49839 0.805132 0
M  V30 508 O 57.7857 -1.62328 1.06599 0
M  V30 509 C 54.9157 -2.65391 2.2402 0
M  V30 510 C 53.8697 -2.60289 3.39755 0
M  V30 511 C 53.1957 -3.99489 3.55405 0
M  V30 512 C 54.4957 -2.16654 4.75246 0
M  V30 513 H 56.1897 -0.983573 2.82783 0
M  V30 514 H 53.7357 -0.471701 1.36055 0
M  V30 515 H 55.6887 -3.3974 2.49308 0
M  V30 516 H 54.4127 -2.98736 1.32 0
M  V30 517 H 53.0717 -1.88398 3.14487 0
M  V30 518 H 52.7197 -4.30112 2.60793 0
M  V30 519 H 52.4197 -3.96962 4.33238 0
M  V30 520 H 53.9437 -4.75528 3.83022 0
M  V30 521 H 55.3577 -2.80737 4.99859 0
M  V30 522 H 53.7547 -2.25223 5.56232 0
M  V30 523 H 54.8247 -1.11835 4.71827 0
M  V30 524 N 56.1678 -1.49265 -0.50573 0
M  V30 525 C 57.3978 -1.61979 -1.28243 0
M  V30 526 C 57.8058 -0.288576 -1.86986 0
M  V30 527 O 57.1488 0.735408 -1.68337 0
M  V30 528 C 57.2108 -2.62632 -2.45489 0
M  V30 529 C 56.8748 -4.071 -2.07651 0
M  V30 530 C 57.8718 -4.94049 -1.61901 0
M  V30 531 C 55.5568 -4.52801 -2.17431 0
M  V30 532 C 57.5508 -6.24736 -1.26428 0
M  V30 533 C 55.2378 -5.83503 -1.8157 0
M  V30 534 C 56.2358 -6.69294 -1.36142 0
M  V30 535 O 55.9238 -7.9756 -1.00764 0
M  V30 536 H 55.6558 -0.54834 -0.395347 0
M  V30 537 H 58.2098 -1.96002 -0.614204 0
M  V30 538 H 56.4398 -2.2378 -3.15372 0
M  V30 539 H 58.1288 -2.64925 -3.07522 0
M  V30 540 H 58.8948 -4.5997 -1.53795 0
M  V30 541 H 54.7738 -3.86196 -2.51742 0
M  V30 542 H 58.3178 -6.91652 -0.908992 0
M  V30 543 H 54.2148 -6.17112 -1.89324 0
M  V30 544 H 54.9828 -8.10529 -1.13952 0
M  V30 545 N 57.6459 0.756429 -1.3826 0
M  V30 546 C 59.0569 1.33359 -1.30661 0
M  V30 547 C 59.4079 1.96161 0.0388875 0
M  V30 548 O 58.5329 1.94874 0.940918 0
M  V30 549 C 59.1279 2.42477 -2.36622 0
M  V30 550 C 57.6869 2.95922 -2.3261 0
M  V30 551 C 56.8339 1.69275 -2.19639 0
M  V30 552 H 59.7849 0.55552 -1.4866 0
M  V30 553 H 59.8059 3.22345 -2.02174 0
M  V30 554 H 59.3179 1.96739 -3.34538 0
M  V30 555 H 57.4189 3.45996 -1.38267 0
M  V30 556 H 57.5319 3.50494 -3.26636 0
M  V30 557 H 55.8959 1.92793 -1.66442 0
M  V30 558 H 56.6789 1.25619 -3.19491 0
M  V30 559 N 59.124 1.23083 0.984299 0
M  V30 560 C 60.372 1.05848 1.72165 0
M  V30 561 C 60.693 -0.406049 1.90726 0
M  V30 562 O 59.963 -1.29139 1.47309 0
M  V30 563 H 58.543 0.388685 0.637913 0
M  V30 564 H 61.205 1.54736 1.18503 0
M  V30 565 H 60.301 1.54327 2.71274 0
M  V30 566 N 60.6021 -1.18246 1.0419 0
M  V30 567 C 62.0131 -1.69914 0.773698 0
M  V30 568 C 62.3641 -1.83085 -0.705297 0
M  V30 569 O 61.4891 -1.51123 -1.5489 0
M  V30 570 C 62.0841 -3.08619 1.39784 0
M  V30 571 C 60.6431 -3.57494 1.17792 0
M  V30 572 C 59.7901 -2.34013 1.48773 0
M  V30 573 H 62.7411 -1.02904 1.20816 0
M  V30 574 H 62.7621 -3.71958 0.801714 0
M  V30 575 H 62.2741 -2.99001 2.47426 0
M  V30 576 H 60.3751 -3.72406 0.120295 0
M  V30 577 H 60.4881 -4.40852 1.87581 0
M  V30 578 H 58.8521 -2.37986 0.907463 0
M  V30 579 H 59.6351 -2.27013 2.57527 0
M  V30 580 N 62.0802 -0.821533 -1.34494 0
M  V30 581 C 63.0432 -0.247847 -2.27856 0
M  V30 582 C 64.0432 0.573453 -1.50227 0
M  V30 583 O 65.2332 0.389759 -1.69784 0
M  V30 584 C 62.3652 0.652698 -3.34593 0
M  V30 585 H 63.5582 -1.07146 -2.80107 0
M  V30 586 H 61.1112 -0.593291 -1.44602 0
M  V30 587 H 61.8462 1.49943 -2.87555 0
M  V30 588 H 61.6312 0.065292 -3.92046 0
M  V30 589 H 63.1212 1.04793 -4.04238 0
M  V30 590 N 63.5583 1.46682 -0.576371 0
M  V30 591 C 64.7863 2.06798 -0.0649635 0
M  V30 592 C 65.2013 1.42612 1.23723 0
M  V30 593 O 64.5583 0.529203 1.74659 0
M  V30 594 C 64.6093 3.6132 0.114202 0
M  V30 595 O 64.3303 4.23104 -1.13644 0
M  V30 596 C 65.8313 4.38349 0.66069 0
M  V30 597 H 63.0513 0.668778 -0.0545616 0
M  V30 598 H 65.5953 1.88404 -0.795237 0
M  V30 599 H 63.7503 3.79162 0.794673 0
M  V30 600 H 64.1643 5.15894 -0.946253 0
M  V30 601 H 65.6383 5.47081 0.73526 0
M  V30 602 H 66.1153 4.05953 1.67627 0
M  V30 603 H 66.7213 4.25297 0.0152951 0
M  V30 604 N 65.0364 0.313813 1.54444 0
M  V30 605 C 66.2834 -0.291675 2.00388 0
M  V30 606 C 66.6114 -1.52904 1.2021 0
M  V30 607 O 65.8664 -1.93833 0.269707 0
M  V30 608 C 66.1654 -0.680386 3.50864 0
M  V30 609 C 65.8314 0.456699 4.48581 0
M  V30 610 C 64.4934 0.768824 4.75018 0
M  V30 611 C 66.8454 1.22098 5.06697 0
M  V30 612 C 64.1734 1.84812 5.56831 0
M  V30 613 C 66.5254 2.29029 5.89685 0
M  V30 614 C 65.1894 2.60834 6.14428 0
M  V30 615 H 64.4594 -0.106732 0.733273 0
M  V30 616 H 67.1064 0.43557 1.86481 0
M  V30 617 H 65.4114 -1.48791 3.62448 0
M  V30 618 H 67.1084 -1.16026 3.83847 0
M  V30 619 H 63.6984 0.203337 4.28117 0
M  V30 620 H 67.8824 0.993096 4.86263 0
M  V30 621 H 63.1384 2.09912 5.74236 0
M  V30 622 H 67.3124 2.887 6.33739 0
M  V30 623 H 64.9394 3.44596 6.77612 0
M  V30 624 N 66.5145 -1.57545 0.0417849 0
M  V30 625 C 67.4445 -2.14009 -0.933929 0
M  V30 626 C 68.4255 -1.05938 -1.33083 0
M  V30 627 O 69.6105 -1.33833 -1.40721 0
M  V30 628 C 66.7405 -2.67747 -2.21199 0
M  V30 629 C 65.6945 -3.80718 -1.95544 0
M  V30 630 C 65.0205 -4.20935 -3.29724 0
M  V30 631 C 66.3205 -5.06258 -1.28452 0
M  V30 632 H 68.0145 -2.95788 -0.463645 0
M  V30 633 H 65.5605 -1.42285 -0.221573 0
M  V30 634 H 67.5135 -3.05886 -2.89848 0
M  V30 635 H 66.2375 -1.83147 -2.70416 0
M  V30 636 H 64.8965 -3.43037 -1.2931 0
M  V30 637 H 64.5445 -3.33298 -3.76724 0
M  V30 638 H 64.2445 -4.9707 -3.13361 0
M  V30 639 H 65.7685 -4.61666 -3.9962 0
M  V30 640 H 67.1825 -5.41903 -1.8712 0
M  V30 641 H 65.5795 -5.87475 -1.22445 0
M  V30 642 H 66.6495 -4.84207 -0.259219 0
M  V30 643 N 67.9926 0.231505 -1.5589 0
M  V30 644 C 68.9406 1.30649 -1.92441 0
M  V30 645 C 69.9346 1.49037 -0.805254 0
M  V30 646 O 71.1406 1.50329 -0.990007 0
M  V30 647 H 67.5156 0.437812 -0.611412 0
M  V30 648 H 69.4866 0.970973 -2.82161 0
M  V30 649 C 68.2356 2.65179 -2.24889 0
M  V30 650 H 67.5586 2.51835 -3.10514 0
M  V30 651 H 68.9986 3.39234 -2.54355 0
M  V30 652 C 67.4576 3.19439 -1.07054 0
M  V30 653 O 67.9876 4.00371 -0.326499 0
M  V30 654 N 66.1936 2.77675 -0.85703 0
M  V30 655 H 65.7406 2.11969 -1.46379 0
M  V30 656 H 65.6986 3.14321 -0.0703223 0
M  V30 657 N 69.4707 1.49531 0.497807 0
M  V30 658 C 70.4337 1.65916 1.58128 0
M  V30 659 C 71.4337 0.530825 1.51786 0
M  V30 660 O 72.6237 0.797342 1.54881 0
M  V30 661 C 69.7557 1.65951 2.9778 0
M  V30 662 H 70.9487 2.62556 1.44929 0
M  V30 663 H 68.5017 1.38611 0.722275 0
M  V30 664 H 69.2367 0.709065 3.16453 0
M  V30 665 H 69.0217 2.47897 3.03792 0
M  V30 666 H 70.5117 1.80673 3.76493 0
M  V30 667 N 70.9488 -0.749086 1.3866 0
M  V30 668 C 72.1738 -1.54344 1.38538 0
M  V30 669 C 72.5988 -1.88088 -0.0216655 0
M  V30 670 O 71.9568 -1.50899 -1.00494 0
M  V30 671 C 72.0048 -2.8164 2.25192 0
M  V30 672 O 71.1088 -3.7698 1.67212 0
M  V30 673 H 70.4498 -0.466654 0.472367 0
M  V30 674 H 72.9798 -0.925355 1.82478 0
M  V30 675 H 72.9898 -3.30519 2.3921 0
M  V30 676 H 71.6648 -2.56411 3.27454 0
M  V30 677 H 70.2418 -3.35699 1.6236 0
M  V30 678 N 72.4269 -1.23603 -0.977757 0
M  V30 679 C 73.3589 -0.977369 -2.07317 0
M  V30 680 C 74.3719 0.0495845 -1.62724 0
M  V30 681 O 75.5609 -0.186261 -1.77526 0
M  V30 682 C 72.6609 -0.451216 -3.35883 0
M  V30 683 C 71.8339 -1.53896 -4.09432 0
M  V30 684 C 70.8929 -1.01721 -5.16274 0
M  V30 685 O 69.9189 -1.70676 -5.43009 0
M  V30 686 N 71.1209 0.153594 -5.80297 0
M  V30 687 H 73.8859 -1.92047 -2.30082 0
M  V30 688 H 71.4469 -1.14497 -1.14465 0
M  V30 689 H 73.4389 -0.0871574 -4.04606 0
M  V30 690 H 72.0089 0.397368 -3.10064 0
M  V30 691 H 71.2289 -2.07566 -3.35127 0
M  V30 692 H 72.5169 -2.27037 -4.55337 0
M  V30 693 H 71.9149 0.730323 -5.60966 0
M  V30 694 H 70.4719 0.458892 -6.50183 0
M  V30 695 N 73.905 1.17692 -1.04816 0
M  V30 696 C 75.154 1.87192 -0.751132 0
M  V30 697 C 75.467 1.8169 0.724441 0
M  V30 698 O 76.673 2.46625 1.13527 0
M  V30 699 C 75.129 3.35857 -1.29338 0
M  V30 700 C 74.737 3.4987 -2.79812 0
M  V30 701 C 76.481 4.10709 -1.07322 0
M  V30 702 C 74.388 4.92536 -3.27356 0
M  V30 703 H 73.318 0.701162 -0.277288 0
M  V30 704 H 75.969 1.32932 -1.26496 0
M  V30 705 H 74.351 3.89631 -0.707376 0
M  V30 706 H 75.525 3.06332 -3.44235 0
M  V30 707 H 73.84 2.88433 -3.00325 0
M  V30 708 H 76.437 5.15952 -1.4035 0
M  V30 709 H 76.78 4.16299 -0.0108001 0
M  V30 710 H 77.313 3.6313 -1.62423 0
M  V30 711 H 74.052 4.92119 -4.33012 0
M  V30 712 H 73.572 5.3676 -2.67673 0
M  V30 713 H 75.251 5.61288 -3.21815 0
M  V30 714 N 75.3831 0.828654 1.34056 0
M  V30 715 C 76.6231 0.425394 1.99924 0
M  V30 716 C 76.9871 -0.994294 1.64249 0
M  V30 717 O 78.1881 -1.50074 2.23005 0
M  V30 718 C 76.4591 0.628071 3.51838 0
M  V30 719 S 78.0181 0.318511 4.37642 0
M  V30 720 H 74.8361 0.160465 0.692656 0
M  V30 721 H 77.4381 1.07572 1.63244 0
M  V30 722 H 76.1421 1.66089 3.7529 0
M  V30 723 H 75.6731 -0.0367799 3.93383 0
M  V30 724 H 77.6881 -0.865632 4.88591 0
M  V30 725 N 76.8612 -1.46375 0.584142 0
M  V30 726 C 78.1382 -1.956 0.0033388 0
M  V30 727 C 78.5182 -1.52679 -1.45782 0
M  V30 728 O 77.8662 -0.77816 -2.14842 0
M  V30 729 C 78.0762 -3.48551 0.176891 0
M  V30 730 C 79.4242 -4.24576 0.0454609 0
M  V30 731 O 80.4482 -3.56043 0.105801 0
M  V30 732 O 79.3072 -5.46427 -0.0890376 0
M  V30 733 H 76.4012 -0.825547 -0.0490066 0
M  V30 734 H 78.9472 -1.56652 0.65256 0
M  V30 735 H 77.7192 -3.72683 1.1926 0
M  V30 736 H 77.3422 -3.94332 -0.508695 0
M  V30 737 N 78.3393 -0.321999 -1.54275 0
M  V30 738 C 79.5873 0.280489 -2.00144 0
M  V30 739 C 79.9083 1.52777 -1.21178 0
M  V30 740 O 79.1783 1.9338 -0.313187 0
M  V30 741 H 77.7583 0.106632 -0.73935 0
M  V30 742 H 80.4203 -0.438184 -1.8991 0
M  V30 743 H 79.5163 0.537972 -3.07428 0
M  V30 744 N 79.8174 1.5752 -0.0501392 0
M  V30 745 C 80.7474 2.14502 0.922566 0
M  V30 746 C 81.7284 1.06642 1.3252 0
M  V30 747 O 82.9134 1.34577 1.4001 0
M  V30 748 C 80.0434 2.68916 2.19776 0
M  V30 749 C 78.9974 3.8175 1.93523 0
M  V30 750 C 78.3234 4.22677 3.27487 0
M  V30 751 C 79.6234 5.06932 1.25765 0
M  V30 752 H 81.3174 2.9603 0.447952 0
M  V30 753 H 78.8634 1.42401 0.214024 0
M  V30 754 H 80.8164 3.07419 2.88222 0
M  V30 755 H 79.5404 1.84578 2.69441 0
M  V30 756 H 78.1994 3.43718 1.27489 0
M  V30 757 H 77.8474 3.35291 3.74952 0
M  V30 758 H 77.5474 4.98725 3.1072 0
M  V30 759 H 79.0714 4.63779 3.97166 0
M  V30 760 H 80.4854 5.42888 1.84244 0
M  V30 761 H 78.8824 5.88116 1.19328 0
M  V30 762 H 79.9524 4.84337 0.233536 0
M  V30 763 N 81.2955 -0.223234 1.56011 0
M  V30 764 C 82.7115 -0.572856 1.48965 0
M  V30 765 C 82.9115 -1.87225 0.74492 0
M  V30 766 O 81.9675 -2.50899 0.283896 0
M  V30 767 C 83.2805 -0.653646 2.9351 0
M  V30 768 C 84.8285 -0.744386 3.0402 0
M  V30 769 C 85.3035 -0.856535 4.49919 0
M  V30 770 N 86.7945 -0.9208 4.53955 0
M  V30 771 C 87.5295 -1.02726 5.64123 0
M  V30 772 N 87.0255 -1.09777 6.84047 0
M  V30 773 N 88.8185 -1.06226 5.51971 0
M  V30 774 H 80.9695 0.629462 2.02858 0
M  V30 775 H 83.2325 0.220621 0.921971 0
M  V30 776 H 82.9385 0.231518 3.50937 0
M  V30 777 H 82.8125 -1.51781 3.45315 0
M  V30 778 H 85.1995 -1.61999 2.46658 0
M  V30 779 H 85.2805 0.14541 2.55386 0
M  V30 780 H 84.9245 0.0146069 5.07898 0
M  V30 781 H 84.8545 -1.76172 4.96257 0
M  V30 782 H 87.3455 -0.876694 3.6759 0
M  V30 783 H 87.6585 -1.17872 7.63758 0
M  V30 784 H 86.0035 -1.06693 6.86762 0
M  V30 785 H 89.1945 -1.00382 4.5721 0
M  V30 786 H 89.3675 -1.14177 6.37862 0
M  V30 787 N 82.7736 -1.49793 -0.48987 0
M  V30 788 C 84.0216 -1.59525 -1.24081 0
M  V30 789 C 84.3426 -0.288953 -1.92847 0
M  V30 790 O 83.6126 0.692436 -1.83254 0
M  V30 791 H 82.1926 -0.587796 -0.460983 0
M  V30 792 H 84.8546 -1.86477 -0.566778 0
M  V30 793 H 83.9506 -2.39696 -1.99881 0
M  V30 794 N 84.2517 0.741722 -1.39055 0
M  V30 795 C 85.2017 1.84661 -1.33732 0
M  V30 796 C 86.1857 1.59397 -0.219401 0
M  V30 797 O 87.3777 1.71015 -0.456375 0
M  V30 798 C 84.5067 3.22512 -1.17647 0
M  V30 799 C 83.5927 3.53628 -2.34112 0
M  V30 800 N 83.9837 3.55723 -3.59576 0
M  V30 801 C 82.2817 3.83956 -2.26923 0
M  V30 802 C 82.9827 3.84443 -4.36553 0
M  V30 803 N 81.9587 4.01877 -3.66055 0
M  V30 804 H 85.7607 1.84576 -2.28711 0
M  V30 805 H 83.2747 0.939647 -1.32455 0
M  V30 806 H 85.2717 4.01597 -1.11917 0
M  V30 807 H 83.9317 3.2384 -0.236124 0
M  V30 808 H 84.9427 3.37196 -3.93089 0
M  V30 809 H 81.6197 3.92929 -1.41113 0
M  V30 810 H 83.0097 3.92588 -5.45274 0
M  V30 811 N 85.7298 1.2412 0.971189 0
M  V30 812 C 86.6598 1.05508 2.08304 0
M  V30 813 C 87.6408 -0.0308864 1.70072 0
M  V30 814 O 88.8258 0.135521 1.93727 0
M  V30 815 C 85.9558 0.655365 3.4106 0
M  V30 816 C 84.9098 1.68971 3.93234 0
M  V30 817 C 84.2358 1.14516 5.22293 0
M  V30 818 C 85.5358 3.08487 4.21465 0
M  V30 819 H 87.2298 1.98507 2.24132 0
M  V30 820 H 84.7758 0.955821 1.07704 0
M  V30 821 H 86.7288 0.51217 4.18276 0
M  V30 822 H 85.4528 -0.31032 3.25122 0
M  V30 823 H 84.1118 1.82106 3.18171 0
M  V30 824 H 83.7598 0.170189 5.02712 0
M  V30 825 H 83.4598 1.83635 5.58168 0
M  V30 826 H 84.9838 1.01401 6.02121 0
M  V30 827 H 86.3978 2.98601 4.89398 0
M  V30 828 H 84.7948 3.74926 4.68562 0
M  V30 829 H 85.8648 3.56787 3.28376 0
M  V30 830 N 87.2079 -1.17134 1.05439 0
M  V30 831 C 88.1409 -2.2012 0.601855 0
M  V30 832 C 89.1189 -1.58314 -0.370854 0
M  V30 833 O 90.3029 -1.8638 -0.281882 0
M  V30 834 C 87.4299 -3.38491 -0.118868 0
M  V30 835 C 86.4759 -4.18752 0.809242 0
M  V30 836 S 87.3089 -4.83602 2.29977 0
M  V30 837 C 88.4649 -6.0536 1.59029 0
M  V30 838 H 88.6979 -2.58165 1.47438 0
M  V30 839 H 86.2309 -1.27788 0.866573 0
M  V30 840 H 88.1889 -4.07084 -0.528495 0
M  V30 841 H 86.8499 -2.98829 -0.967465 0
M  V30 842 H 86.0429 -5.03373 0.251379 0
M  V30 843 H 85.6449 -3.5561 1.15835 0
M  V30 844 H 87.9369 -6.71615 0.891017 0
M  V30 845 H 88.8799 -6.65679 2.41407 0
M  V30 846 H 89.2879 -5.54138 1.07663 0
M  V30 847 N 88.686 -0.835752 -1.33615 0
M  V30 848 C 89.914 -0.443344 -2.02094 0
M  V30 849 C 90.329 0.954522 -1.62894 0
M  V30 850 O 89.686 1.61982 -0.840723 0
M  V30 851 C 89.737 -0.550775 -3.5728 0
M  V30 852 O 89.458 -1.89356 -3.95065 0
M  V30 853 C 90.959 -0.154919 -4.43029 0
M  V30 854 H 88.179 -0.176359 -0.647409 0
M  V30 855 H 90.723 -1.12746 -1.70612 0
M  V30 856 H 88.878 0.0853997 -3.87306 0
M  V30 857 H 89.292 -1.87687 -4.89769 0
M  V30 858 H 90.766 -0.281144 -5.51284 0
M  V30 859 H 91.243 0.902863 -4.2982 0
M  V30 860 H 91.849 -0.765404 -4.18356 0
M  V30 861 N 90.1641 1.46063 -0.591896 0
M  V30 862 C 91.4101 2.02638 -0.0811191 0
M  V30 863 C 91.7431 1.4613 1.27905 0
M  V30 864 O 91.0181 0.629908 1.84017 0
M  V30 865 C 91.3011 3.60091 -0.0252436 0
M  V30 866 C 91.1541 4.26965 -1.41496 0
M  V30 867 C 92.4731 4.3496 0.670685 0
M  V30 868 H 89.5921 0.73635 -0.0309524 0
M  V30 869 H 92.2341 1.741 -0.760859 0
M  V30 870 H 90.3841 3.84535 0.553624 0
M  V30 871 H 92.0561 4.13756 -2.0397 0
M  V30 872 H 90.2991 3.85971 -1.98011 0
M  V30 873 H 90.9701 5.35781 -1.32825 0
M  V30 874 H 93.4461 4.15716 0.178825 0
M  V30 875 H 92.3221 5.44686 0.678837 0
M  V30 876 H 92.5831 4.06685 1.73379 0
M  V30 877 N 91.6422 0.330177 1.54103 0
M  V30 878 C 93.0582 -0.0222371 1.59585 0
M  V30 879 C 93.2582 -1.49902 1.34654 0
M  V30 880 O 92.3142 -2.25592 1.13421 0
M  V30 881 C 93.6272 0.401932 2.98002 0
M  V30 882 C 95.1752 0.353145 3.11001 0
M  V30 883 C 95.6502 0.752576 4.51775 0
M  V30 884 N 97.1412 0.706239 4.57784 0
M  V30 885 C 97.8762 0.987417 5.64834 0
M  V30 886 N 97.3722 1.33607 6.79795 0
M  V30 887 N 99.1652 0.91254 5.54643 0
M  V30 888 H 91.3162 1.29228 1.68564 0
M  V30 889 H 93.5792 0.525906 0.78875 0
M  V30 890 H 93.2852 1.4311 3.21267 0
M  V30 891 H 93.1592 -0.229699 3.765 0
M  V30 892 H 95.5462 -0.666822 2.87467 0
M  V30 893 H 95.6272 1.0198 2.34593 0
M  V30 894 H 95.2712 1.77049 4.76042 0
M  V30 895 H 95.2012 0.0635409 5.26562 0
M  V30 896 H 97.6922 0.44889 3.75224 0
M  V30 897 H 98.0052 1.53582 7.57385 0
M  V30 898 H 96.3502 1.37439 6.81275 0
M  V30 899 H 99.5412 0.639601 4.6371 0
M  V30 900 H 99.7142 1.13503 6.37982 0
M  V30 901 N 93.1203 -1.57491 0.0584922 0
M  V30 902 C 94.3453 -1.97711 -0.62652 0
M  V30 903 C 94.7703 -0.936132 -1.63151 0
M  V30 904 O 94.1283 0.099811 -1.81025 0
M  V30 905 C 94.1763 -3.36989 -1.28338 0
M  V30 906 O 93.2803 -3.35433 -2.39913 0
M  V30 907 H 92.6213 -0.643868 -0.162266 0
M  V30 908 H 95.1513 -2.04193 0.129064 0
M  V30 909 H 95.1613 -3.73879 -1.63335 0
M  V30 910 H 93.8363 -4.12289 -0.546889 0
M  V30 911 H 92.4133 -3.10298 -2.06809 0
M  V30 912 N 94.5984 0.214957 -1.56127 0
M  V30 913 C 95.8234 0.95924 -1.83884 0
M  V30 914 C 96.2484 1.7689 -0.639644 0
M  V30 915 O 95.6064 1.76566 0.411601 0
M  V30 916 C 95.6544 1.84723 -3.09693 0
M  V30 917 O 94.7584 2.94346 -2.8885 0
M  V30 918 H 94.0994 0.27125 -0.606069 0
M  V30 919 H 96.6294 0.226276 -2.03345 0
M  V30 920 H 96.6394 2.25576 -3.39969 0
M  V30 921 H 95.3144 1.25218 -3.96602 0
M  V30 922 H 93.8914 2.57391 -2.69823 0
M  V30 923 N 96.0765 1.50051 0.48192 0
M  V30 924 C 97.3225 1.60736 1.2366 0
M  V30 925 C 97.6555 0.301786 1.91841 0
M  V30 926 O 96.9305 -0.696025 1.8162 0
M  V30 927 C 97.2135 2.78009 2.28874 0
M  V30 928 C 97.0665 4.18416 1.65069 0
M  V30 929 C 98.3855 2.90867 3.30279 0
M  V30 930 H 95.5045 0.585031 0.448228 0
M  V30 931 H 98.1465 1.82402 0.531946 0
M  V30 932 H 96.2965 2.59667 2.88973 0
M  V30 933 H 97.9685 4.48322 1.0865 0
M  V30 934 H 96.2115 4.23177 0.954148 0
M  V30 935 H 96.8825 4.96381 2.41474 0
M  V30 936 H 99.3585 3.07623 2.80191 0
M  V30 937 H 98.2345 3.74566 4.01238 0
M  V30 938 H 98.4955 2.01021 3.93755 0
M  V30 939 N 97.5546 -0.734337 1.39446 0
M  V30 940 C 98.5176 -1.83004 1.37994 0
M  V30 941 C 99.5176 -1.58397 0.276938 0
M  V30 942 O 100.708 -1.65785 0.534875 0
M  V30 943 C 97.8396 -3.20802 1.1532 0
M  V30 944 H 99.0326 -1.85694 2.35494 0
M  V30 945 H 96.5856 -0.938059 1.25021 0
M  V30 946 H 97.3206 -3.23772 0.185036 0
M  V30 947 H 97.1056 -3.4006 1.95197 0
M  V30 948 H 98.5956 -4.00862 1.17046 0
M  V30 949 N 99.0327 -1.24633 -0.964593 0
M  V30 950 C 99.9957 -1.0424 -2.04124 0
M  V30 951 C 100.996 0.00137563 -1.608 0
M  V30 952 O 102.186 -0.239883 -1.7254 0
M  V30 953 C 99.3177 -0.580588 -3.3592 0
M  V30 954 H 100.511 -1.99803 -2.23649 0
M  V30 955 H 98.0637 -1.06899 -1.14027 0
M  V30 956 H 98.7987 0.3781 -3.22088 0
M  V30 957 H 98.5837 -1.33398 -3.6871 0
M  V30 958 H 100.074 -0.459034 -4.15069 0
M  V30 959 N 100.511 1.16574 -1.06058 0
M  V30 960 C 101.788 1.83048 -0.689416 0
M  V30 961 C 102.168 1.94122 0.829443 0
M  V30 962 O 101.516 1.48249 1.7388 0
M  V30 963 C 101.726 3.20186 -1.38859 0
M  V30 964 C 103.074 3.95989 -1.53226 0
M  V30 965 O 104.098 3.29696 -1.3483 0
M  V30 966 O 102.957 5.14813 -1.83384 0
M  V30 967 H 100.051 0.790258 -0.243764 0
M  V30 968 H 102.597 1.23797 -1.16071 0
M  V30 969 H 101.369 3.07146 -2.4244 0
M  V30 970 H 100.992 3.87112 -0.907216 0
M  V30 971 N 101.989 0.842826 1.3317 0
M  V30 972 C 103.235 0.441099 1.97945 0
M  V30 973 C 103.568 -0.998024 1.66593 0
M  V30 974 O 102.843 -1.69839 0.947898 0
M  V30 975 C 103.126 0.666841 3.53872 0
M  V30 976 C 102.979 2.15352 3.94897 0
M  V30 977 C 104.298 0.115544 4.39948 0
M  V30 978 H 101.417 0.161739 0.719034 0
M  V30 979 H 104.059 1.05907 1.57746 0
M  V30 980 H 102.209 0.140828 3.88245 0
M  V30 981 H 103.881 2.7447 3.70761 0
M  V30 982 H 102.124 2.63653 3.44484 0
M  V30 983 H 102.795 2.26221 5.03516 0
M  V30 984 H 105.271 0.565213 4.12243 0
M  V30 985 H 104.147 0.303152 5.48062 0
M  V30 986 H 104.408 -0.980935 4.3108 0
M  V30 987 N 103.467 -1.45747 0.599634 0
M  V30 988 C 104.716 -2.01502 0.0893511 0
M  V30 989 C 105.029 -1.4748 -1.28488 0
M  V30 990 O 106.235 -1.95161 -1.88745 0
M  V30 991 C 104.691 -3.59735 0.109082 0
M  V30 992 C 104.299 -4.22754 1.48267 0
M  V30 993 C 106.043 -4.23085 -0.346374 0
M  V30 994 C 103.95 -5.73115 1.45921 0
M  V30 995 H 102.88 -0.753417 0.0296347 0
M  V30 996 H 105.531 -1.67303 0.753788 0
M  V30 997 H 103.913 -3.91087 -0.621854 0
M  V30 998 H 105.087 -4.02987 2.23468 0
M  V30 999 H 103.402 -3.71567 1.87955 0
M  V30 1000 H 105.999 -5.33327 -0.38298 0
M  V30 1001 H 106.342 -3.93201 -1.36743 0
M  V30 1002 H 106.875 -3.9642 0.331038 0
M  V30 1003 H 103.614 -6.07685 2.45762 0
M  V30 1004 H 103.134 -5.95097 0.749665 0
M  V30 1005 H 104.813 -6.3616 1.17941 0
M  V30 1006 N 104.945 -0.338344 -1.53925 0
M  V30 1007 C 106.17 0.263987 -2.05713 0
M  V30 1008 C 106.595 1.43847 -1.21201 0
M  V30 1009 O 105.953 1.79904 -0.224535 0
M  V30 1010 C 106.001 0.662 -3.54471 0
M  V30 1011 O 105.105 1.76265 -3.72833 0
M  V30 1012 H 104.446 0.0448722 -0.662482 0
M  V30 1013 H 106.976 -0.491048 -1.9862 0
M  V30 1014 H 106.986 0.940594 -3.9701 0
M  V30 1015 H 105.661 -0.196937 -4.15433 0
M  V30 1016 H 104.238 1.48173 -3.42198 0
M  V30 1017 N 106.423 1.57458 -0.0668435 0
M  V30 1018 C 107.353 2.15468 0.899764 0
M  V30 1019 C 108.334 1.08042 1.31381 0
M  V30 1020 O 109.519 1.36054 1.38574 0
M  V30 1021 C 106.649 2.71232 2.16911 0
M  V30 1022 C 105.603 3.83781 1.89463 0
M  V30 1023 C 104.929 4.26127 3.22986 0
M  V30 1024 C 106.229 5.08238 1.20381 0
M  V30 1025 H 107.923 2.96488 0.416529 0
M  V30 1026 H 105.469 1.4262 0.198908 0
M  V30 1027 H 107.422 3.10458 2.84945 0
M  V30 1028 H 106.146 1.87426 2.67468 0
M  V30 1029 H 104.805 3.45051 1.23836 0
M  V30 1030 H 104.453 3.39249 3.71374 0
M  V30 1031 H 104.153 5.01993 3.05413 0
M  V30 1032 H 105.677 4.67966 3.92225 0
M  V30 1033 H 107.091 5.44811 1.78475 0
M  V30 1034 H 105.488 5.89349 1.13083 0
M  V30 1035 H 106.558 4.84558 0.182153 0
M  V30 1036 N 107.901 -0.206675 1.56239 0
M  V30 1037 C 108.831 -1.25909 1.96645 0
M  V30 1038 C 109.812 -1.48097 0.836734 0
M  V30 1039 O 110.997 -1.6003 1.10019 0
M  V30 1040 C 108.127 -2.6058 2.29599 0
M  V30 1041 C 107.081 -2.53024 3.452 0
M  V30 1042 C 106.407 -3.91861 3.63798 0
M  V30 1043 C 107.707 -2.06524 4.79734 0
M  V30 1044 H 109.401 -0.923369 2.84806 0
M  V30 1045 H 106.947 -0.442735 1.37025 0
M  V30 1046 H 108.9 -3.34375 2.56459 0
M  V30 1047 H 107.624 -2.95869 1.38307 0
M  V30 1048 H 106.283 -1.81684 3.18412 0
M  V30 1049 H 105.931 -4.24483 2.69857 0
M  V30 1050 H 105.631 -3.87683 4.4156 0
M  V30 1051 H 107.155 -4.67296 3.93022 0
M  V30 1052 H 108.569 -2.70072 5.05702 0
M  V30 1053 H 106.966 -2.13374 5.60885 0
M  V30 1054 H 108.036 -1.01802 4.74093 0
M  V30 1055 N 109.379 -1.50304 -0.473955 0
M  V30 1056 C 110.309 -1.71886 -1.58042 0
M  V30 1057 C 111.29 -0.567799 -1.60344 0
M  V30 1058 O 112.475 -0.806623 -1.76656 0
M  V30 1059 C 109.605 -1.81036 -2.96384 0
M  V30 1060 C 108.559 -2.962 -3.08949 0
M  V30 1061 C 107.885 -2.9049 -4.48909 0
M  V30 1062 C 109.185 -4.36752 -2.86434 0
M  V30 1063 H 110.879 -2.64527 -1.40234 0
M  V30 1064 H 108.425 -1.27295 -0.673201 0
M  V30 1065 H 110.378 -1.94719 -3.73714 0
M  V30 1066 H 109.102 -0.850147 -3.15341 0
M  V30 1067 H 107.761 -2.82164 -2.3405 0
M  V30 1068 H 107.409 -1.92321 -4.64781 0
M  V30 1069 H 107.109 -3.67802 -4.58253 0
M  V30 1070 H 108.633 -3.06218 -5.28264 0
M  V30 1071 H 110.047 -4.5133 -3.53517 0
M  V30 1072 H 108.444 -5.15493 -3.07225 0
M  V30 1073 H 109.514 -4.49321 -1.82316 0
M  V30 1074 N 110.857 0.726932 -1.39834 0
M  V30 1075 C 111.805 1.86235 -1.39353 0
M  V30 1076 C 112.799 1.67144 -0.275555 0
M  V30 1077 O 114.005 1.74387 -0.44601 0
M  V30 1078 H 110.38 0.613174 -0.43534 0
M  V30 1079 H 112.351 1.83756 -2.35109 0
M  V30 1080 C 111.1 3.23995 -1.26185 0
M  V30 1081 H 110.423 3.39285 -2.11484 0
M  V30 1082 H 111.863 4.03609 -1.29907 0
M  V30 1083 C 110.322 3.36888 0.0290018 0
M  V30 1084 O 110.852 3.89152 0.99619 0
M  V30 1085 N 109.058 2.90446 0.0947437 0
M  V30 1086 H 108.605 2.48102 -0.693035 0
M  V30 1087 H 108.563 2.99451 0.957932 0
M  V30 1088 N 112.336 1.25143 0.95797 0
M  V30 1089 C 113.584 1.09476 1.69881 0
M  V30 1090 C 113.905 -0.365502 1.91544 0
M  V30 1091 O 113.175 -1.25985 1.50015 0
M  V30 1092 H 111.755 0.402128 0.629525 0
M  V30 1093 H 114.417 1.57214 1.15194 0
M  V30 1094 H 113.513 1.60046 2.6794 0
M  V30 1095 N 113.814 -1.1601 1.06675 0
M  V30 1096 C 115.091 -1.82679 0.699114 0
M  V30 1097 C 115.471 -1.94559 -0.819137 0
M  V30 1098 O 114.819 -1.49169 -1.73092 0
M  V30 1099 C 115.029 -3.19445 1.40555 0
M  V30 1100 C 116.377 -3.95171 1.55323 0
M  V30 1101 O 117.401 -3.28976 1.36577 0
M  V30 1102 O 116.26 -5.13833 1.86112 0
M  V30 1103 H 113.354 -0.788954 0.247951 0
M  V30 1104 H 115.9 -1.23179 1.16726 0
M  V30 1105 H 114.672 -3.05856 2.44065 0
M  V30 1106 H 114.295 -3.86625 0.927733 0
M  V30 1107 N 115.292 -0.849877 -1.32721 0
M  V30 1108 C 116.54 -0.450032 -1.97026 0
M  V30 1109 C 116.861 0.996604 -1.67609 0
M  V30 1110 O 116.131 1.6958 -0.980786 0
M  V30 1111 H 114.711 -0.163426 -0.728904 0
M  V30 1112 H 117.373 -1.08526 -1.6189 0
M  V30 1113 H 116.469 -0.591146 -3.0645 0
M  V30 1114 N 116.77 1.45427 -0.607355 0
M  V30 1115 C 118.018 2.01841 -0.102253 0
M  V30 1116 C 118.339 1.47832 1.27164 0
M  V30 1117 O 117.609 0.672497 1.83995 0
M  V30 1118 H 116.189 0.746188 -0.0348101 0
M  V30 1119 H 118.851 1.78229 -0.7887 0
M  V30 1120 H 117.947 3.12057 -0.0518585 0
M  V30 1121 N 118.248 0.346503 1.53744 0
M  V30 1122 C 119.494 -0.249473 2.0126 0
M  V30 1123 C 119.827 -1.49965 1.23386 0
M  V30 1124 O 119.102 -1.91811 0.32229 0
M  V30 1125 C 119.385 -0.560643 3.55709 0
M  V30 1126 C 119.238 0.701836 4.44291 0
M  V30 1127 C 120.557 -1.36905 4.18264 0
M  V30 1128 H 117.676 -0.0891987 0.731582 0
M  V30 1129 H 120.318 0.467624 1.84156 0
M  V30 1130 H 118.468 -1.17156 3.70414 0
M  V30 1131 H 120.14 1.33974 4.41417 0
M  V30 1132 H 118.383 1.32612 4.13033 0
M  V30 1133 H 119.054 0.43933 5.50249 0
M  V30 1134 H 121.53 -0.852448 4.07275 0
M  V30 1135 H 120.406 -1.55553 5.26398 0
M  V30 1136 H 120.667 -2.37203 3.73078 0
M  V30 1137 N 119.726 -1.57421 0.075193 0
M  V30 1138 C 120.974 -1.93236 -0.591974 0
M  V30 1139 C 121.295 -0.956241 -1.69944 0
M  V30 1140 O 120.565 -0.00494792 -1.95899 0
M  V30 1141 H 119.145 -0.713355 -0.22166 0
M  V30 1142 H 121.807 -1.9444 0.133848 0
M  V30 1143 H 120.903 -2.95131 -1.01509 0
M  V30 1144 N 121.204 0.198386 -1.56346 0
M  V30 1145 C 122.62 0.549085 -1.49857 0
M  V30 1146 C 122.82 1.86016 -0.774611 0
M  V30 1147 O 121.876 2.50416 -0.323776 0
M  V30 1148 C 123.189 0.606868 -2.94512 0
M  V30 1149 C 124.737 0.695925 -3.05165 0
M  V30 1150 C 125.212 0.784848 -4.51225 0
M  V30 1151 N 126.703 0.848463 -4.55363 0
M  V30 1152 C 127.438 0.937378 -5.65686 0
M  V30 1153 N 126.934 0.9888 -6.85707 0
M  V30 1154 N 128.727 0.974312 -5.53592 0
M  V30 1155 H 120.878 -0.661655 -2.01831 0
M  V30 1156 H 123.141 -0.235261 -0.918344 0
M  V30 1157 H 122.847 -0.28732 -3.50524 0
M  V30 1158 H 122.721 1.46268 -3.47686 0
M  V30 1159 H 125.108 1.58055 -2.49204 0
M  V30 1160 H 125.189 -0.186022 -2.55123 0
M  V30 1161 H 124.833 -0.0954072 -5.0781 0
M  V30 1162 H 124.763 1.68255 -4.98997 0
M  V30 1163 H 127.254 0.818103 -3.68938 0
M  V30 1164 H 127.567 1.05707 -7.65536 0
M  V30 1165 H 125.912 0.957534 -6.88372 0
M  V30 1166 H 129.103 0.930954 -4.58749 0
M  V30 1167 H 129.276 1.04015 -6.39597 0
M  V30 1168 N 122.682 1.50554 0.465978 0
M  V30 1169 C 124.098 1.38093 0.800154 0
M  V30 1170 C 124.298 0.440988 1.96615 0
M  V30 1171 O 123.354 -0.114499 2.5224 0
M  V30 1172 C 124.667 2.79565 1.10742 0
M  V30 1173 C 126.215 2.88516 1.21357 0
M  V30 1174 C 126.69 4.30833 1.55393 0
M  V30 1175 N 128.181 4.33807 1.62375 0
M  V30 1176 C 128.916 5.40927 1.90225 0
M  V30 1177 N 128.412 6.58247 2.16062 0
M  V30 1178 N 130.205 5.28376 1.9177 0
M  V30 1179 H 122.356 2.10237 -0.302366 0
M  V30 1180 H 124.619 0.945203 -0.0727746 0
M  V30 1181 H 124.325 3.50208 0.323661 0
M  V30 1182 H 124.199 3.17125 2.04234 0
M  V30 1183 H 126.586 2.1809 1.98799 0
M  V30 1184 H 126.667 2.54492 0.258321 0
M  V30 1185 H 126.311 5.01799 0.784889 0
M  V30 1186 H 126.241 4.62347 2.52076 0
M  V30 1187 H 128.732 3.49212 1.44427 0
M  V30 1188 H 129.045 7.3569 2.36601 0
M  V30 1189 H 127.39 6.61413 2.13444 0
M  V30 1190 H 130.581 4.35715 1.71085 0
M  V30 1191 H 130.754 6.11944 2.13139 0
M  V30 1192 N 124.16 -0.719506 1.40217 0
M  V30 1193 C 125.576 -1.02707 1.22161 0
M  V30 1194 C 125.776 -2.0128 0.0940557 0
M  V30 1195 O 124.832 -2.46452 -0.549318 0
M  V30 1196 C 126.145 -1.57454 2.56181 0
M  V30 1197 C 127.693 -1.69458 2.63159 0
M  V30 1198 C 128.168 -2.27611 3.97438 0
M  V30 1199 N 129.659 -2.35002 3.99159 0
M  V30 1200 C 130.394 -2.80972 4.99842 0
M  V30 1201 N 129.89 -3.26723 6.10921 0
M  V30 1202 N 131.683 -2.80321 4.87213 0
M  V30 1203 H 123.834 -0.0660492 2.12297 0
M  V30 1204 H 126.097 -0.0919077 0.943534 0
M  V30 1205 H 125.803 -0.924873 3.39321 0
M  V30 1206 H 125.677 -2.56036 2.76993 0
M  V30 1207 H 128.064 -2.33543 1.80393 0
M  V30 1208 H 128.145 -0.694867 2.46181 0
M  V30 1209 H 127.789 -1.6415 4.80643 0
M  V30 1210 H 127.719 -3.2829 4.11744 0
M  V30 1211 H 130.21 -2.02685 3.18947 0
M  V30 1212 H 130.523 -3.60355 6.8364 0
M  V30 1213 H 128.868 -3.24692 6.14492 0
M  V30 1214 H 132.059 -2.43912 3.9953 0
M  V30 1215 H 132.232 -3.15831 5.65822 0
M  V30 1216 N 125.638 -1.25649 -0.95132 0
M  V30 1217 C 126.568 -1.08808 -2.06599 0
M  V30 1218 C 127.549 0.00382547 -1.701 0
M  V30 1219 O 128.734 -0.166325 -1.93486 0
M  V30 1220 C 125.864 -0.709542 -3.39975 0
M  V30 1221 C 124.818 -1.75206 -3.90496 0
M  V30 1222 C 124.144 -1.22811 -5.20405 0
M  V30 1223 C 125.444 -3.15153 -4.16504 0
M  V30 1224 H 127.138 -2.02048 -2.20946 0
M  V30 1225 H 124.684 -0.972835 -1.06169 0
M  V30 1226 H 126.637 -0.578649 -4.17408 0
M  V30 1227 H 125.361 0.258556 -3.25575 0
M  V30 1228 H 124.02 -1.87145 -3.15234 0
M  V30 1229 H 123.668 -0.250145 -5.02378 0
M  V30 1230 H 123.368 -1.92492 -5.55176 0
M  V30 1231 H 124.892 -1.10968 -6.00432 0
M  V30 1232 H 126.306 -3.06349 -4.84586 0
M  V30 1233 H 124.703 -3.82333 -4.62538 0
M  V30 1234 H 125.773 -3.61966 -3.22658 0
M  V30 1235 N 127.117 1.15442 -1.07289 0
M  V30 1236 C 128.363 1.8672 -0.806679 0
M  V30 1237 C 128.718 1.80723 0.660084 0
M  V30 1238 O 128.011 1.21902 1.47819 0
M  V30 1239 C 128.205 3.3489 -1.24834 0
M  V30 1240 C 128.034 3.55313 -2.7565 0
M  V30 1241 C 126.804 3.7082 -3.4325 0
M  V30 1242 C 129.002 3.53188 -3.73848 0
M  V30 1243 N 126.984 3.7929 -4.82713 0
M  V30 1244 C 128.355 3.67765 -4.99149 0
M  V30 1245 C 130.41 3.36459 -3.67015 0
M  V30 1246 C 129.113 3.6734 -6.18428 0
M  V30 1247 C 131.139 3.37333 -4.85758 0
M  V30 1248 C 130.501 3.52438 -6.09891 0
M  V30 1249 H 126.6 0.700433 -0.347733 0
M  V30 1250 H 129.184 1.38441 -1.36902 0
M  V30 1251 H 127.355 3.81786 -0.713713 0
M  V30 1252 H 129.087 3.93875 -0.929745 0
M  V30 1253 H 125.842 3.71568 -2.93656 0
M  V30 1254 H 126.266 3.8727 -5.55294 0
M  V30 1255 H 130.908 3.237 -2.71989 0
M  V30 1256 H 128.626 3.78878 -7.13777 0
M  V30 1257 H 132.212 3.25617 -4.82146 0
M  V30 1258 H 131.092 3.53047 -7.00234 0
M  V30 1259 N 128.595 0.856903 1.32268 0
M  V30 1260 C 129.844 0.457599 1.96441 0
M  V30 1261 C 130.157 -0.992426 1.68553 0
M  V30 1262 O 131.363 -1.49727 2.26482 0
M  V30 1263 C 129.819 0.767358 3.51624 0
M  V30 1264 C 129.427 2.23326 3.88367 0
M  V30 1265 C 131.171 0.435887 4.22256 0
M  V30 1266 C 129.078 2.48613 5.36606 0
M  V30 1267 H 128.008 0.167387 0.735185 0
M  V30 1268 H 130.659 1.048 1.5063 0
M  V30 1269 H 129.041 0.106367 3.95857 0
M  V30 1270 H 130.215 2.93623 3.55137 0
M  V30 1271 H 128.53 2.52948 3.30766 0
M  V30 1272 H 131.127 0.602202 5.31298 0
M  V30 1273 H 131.47 -0.622672 4.11617 0
M  V30 1274 H 132.003 1.05286 3.83614 0
M  V30 1275 H 128.742 3.53101 5.52268 0
M  V30 1276 H 128.262 1.82896 5.71235 0
M  V30 1277 H 129.941 2.32676 6.03714 0
M  V30 1278 N 130.073 -1.45103 0.615059 0
M  V30 1279 C 131.321 -2.01784 0.112955 0
M  V30 1280 C 131.642 -1.48504 -1.26378 0
M  V30 1281 O 130.912 -0.682245 -1.83636 0
M  V30 1282 H 129.492 -0.745993 0.0387668 0
M  V30 1283 H 132.154 -1.77808 0.798141 0
M  V30 1284 H 131.25 -3.12025 0.0684069 0
M  V30 1285 N 131.551 -0.354651 -1.53558 0
M  V30 1286 C 132.481 0.489091 -2.2832 0
M  V30 1287 C 133.462 1.09324 -1.30316 0
M  V30 1288 O 134.647 1.11255 -1.59173 0
M  V30 1289 C 131.777 1.63456 -3.0643 0
M  V30 1290 C 130.731 1.1582 -4.12031 0
M  V30 1291 C 130.057 2.39305 -4.7816 0
M  V30 1292 C 131.357 0.250731 -5.21698 0
M  V30 1293 H 133.051 -0.134614 -2.99097 0
M  V30 1294 H 130.597 -0.0661826 -1.43848 0
M  V30 1295 H 132.55 2.23136 -3.57475 0
M  V30 1296 H 131.274 2.28533 -2.33325 0
M  V30 1297 H 129.933 0.584146 -3.61916 0
M  V30 1298 H 129.581 3.02814 -4.01637 0
M  V30 1299 H 129.281 2.08109 -5.49513 0
M  V30 1300 H 130.805 2.99691 -5.31994 0
M  V30 1301 H 132.219 0.754695 -5.68311 0
M  V30 1302 H 130.616 0.0301468 -6.00092 0
M  V30 1303 H 131.686 -0.710125 -4.79672 0
M  V30 1304 N 133.029 1.57378 -0.0835403 0
M  V30 1305 C 133.961 2.10389 0.909338 0
M  V30 1306 C 134.974 1.03858 1.25369 0
M  V30 1307 O 136.163 1.31338 1.20882 0
M  V30 1308 C 133.263 2.55908 2.2218 0
M  V30 1309 C 132.436 3.86145 2.05453 0
M  V30 1310 C 131.495 4.17633 3.20108 0
M  V30 1311 O 130.521 4.87043 2.94581 0
M  V30 1312 N 131.723 3.72113 4.45547 0
M  V30 1313 H 134.488 2.962 0.456657 0
M  V30 1314 H 132.049 1.61579 0.101877 0
M  V30 1315 H 134.041 2.74027 2.97811 0
M  V30 1316 H 132.611 1.75171 2.58909 0
M  V30 1317 H 131.831 3.7729 1.1422 0
M  V30 1318 H 133.119 4.7137 1.91541 0
M  V30 1319 H 132.517 3.16062 4.69171 0
M  V30 1320 H 131.074 3.95409 5.18165 0
M  V30 1321 N 134.507 -0.190092 1.56449 0
M  V30 1322 C 135.437 -1.23816 1.97969 0
M  V30 1323 C 136.418 -1.47201 0.852395 0
M  V30 1324 O 137.603 -1.58854 1.1171 0
M  V30 1325 C 134.733 -2.5813 2.3235 0
M  V30 1326 C 133.687 -2.49348 3.47864 0
M  V30 1327 C 133.013 -3.8798 3.67934 0
M  V30 1328 C 134.313 -2.01424 4.81898 0
M  V30 1329 H 136.007 -0.89311 2.85769 0
M  V30 1330 H 133.553 -0.428177 1.37487 0
M  V30 1331 H 135.506 -3.31637 2.59991 0
M  V30 1332 H 134.23 -2.94386 1.41438 0
M  V30 1333 H 132.889 -1.78297 3.20321 0
M  V30 1334 H 132.537 -4.21597 2.74344 0
M  V30 1335 H 132.237 -3.82978 4.45648 0
M  V30 1336 H 133.761 -4.63101 3.97957 0
M  V30 1337 H 135.175 -2.64693 5.08538 0
M  V30 1338 H 133.572 -2.07413 5.63116 0
M  V30 1339 H 134.642 -0.967677 4.75146 0
M  V30 1340 N 135.985 -1.50799 -0.457987 0
M  V30 1341 C 137.396 -1.55152 -1.0385 0
M  V30 1342 C 137.747 -0.362719 -1.92818 0
M  V30 1343 O 136.872 0.522915 -2.09987 0
M  V30 1344 C 137.467 -2.81173 -1.89017 0
M  V30 1345 C 136.026 -2.88164 -2.42154 0
M  V30 1346 C 135.173 -2.49591 -1.20829 0
M  V30 1347 H 138.124 -1.56874 -0.240068 0
M  V30 1348 H 138.145 -2.63769 -2.74238 0
M  V30 1349 H 137.657 -3.67677 -1.24238 0
M  V30 1350 H 135.758 -2.06042 -3.10447 0
M  V30 1351 H 135.871 -3.91356 -2.76364 0
M  V30 1352 H 134.235 -2.02322 -1.54719 0
M  V30 1353 H 135.018 -3.38418 -0.576927 0
M  V30 1354 N 137.463 0.71206 -1.40597 0
M  V30 1355 C 138.874 1.29135 -1.34837 0
M  V30 1356 C 139.225 1.96186 -0.0235395 0
M  V30 1357 O 138.35 1.97768 0.878444 0
M  V30 1358 C 138.945 2.34827 -2.44217 0
M  V30 1359 C 137.504 2.88371 -2.41907 0
M  V30 1360 C 136.651 1.62202 -2.24913 0
M  V30 1361 H 139.602 0.507944 -1.50352 0
M  V30 1362 H 139.623 3.15749 -2.12327 0
M  V30 1363 H 139.135 1.85996 -3.40627 0
M  V30 1364 H 137.236 3.41422 -1.49204 0
M  V30 1365 H 137.349 3.39925 -3.37621 0
M  V30 1366 H 135.713 1.874 -1.72492 0
M  V30 1367 H 136.496 1.15391 -3.23326 0
M  V30 1368 N 138.941 1.26152 0.944643 0
M  V30 1369 C 140.189 1.11271 1.6871 0
M  V30 1370 C 140.51 -0.345166 1.91921 0
M  V30 1371 O 139.78 -1.24387 1.51343 0
M  V30 1372 H 138.36 0.408783 0.625224 0
M  V30 1373 H 141.022 1.58427 1.1352 0
M  V30 1374 H 140.118 1.62879 2.66227 0
M  V30 1375 N 140.419 -1.14872 1.07899 0
M  V30 1376 C 141.659 -1.8745 0.814965 0
M  V30 1377 C 142.023 -1.80758 -0.64733 0
M  V30 1378 O 143.224 -2.48422 -1.02664 0
M  V30 1379 C 141.495 -3.32286 1.31607 0
M  V30 1380 S 143.054 -4.22537 1.18357 0
M  V30 1381 H 139.872 -0.646833 0.295174 0
M  V30 1382 H 142.474 -1.38555 1.37923 0
M  V30 1383 H 141.178 -3.34703 2.37491 0
M  V30 1384 H 140.709 -3.86238 0.747261 0
M  V30 1385 H 142.724 -4.96044 0.124586 0
M  V30 1386 N 141.898 -0.863906 -1.31812 0
M  V30 1387 C 143.146 -0.470904 -1.96537 0
M  V30 1388 C 143.467 0.978771 -1.68657 0
M  V30 1389 O 142.737 1.6853 -0.998717 0
M  V30 1390 H 141.317 -0.171148 -0.72713 0
M  V30 1391 H 143.979 -1.10236 -1.60729 0
M  V30 1392 H 143.075 -0.623616 -3.05806 0
M  V30 1393 N 143.376 1.44774 -0.622745 0
M  V30 1394 C 144.653 1.95522 -0.0551974 0
M  V30 1395 C 145.033 1.5649 1.41683 0
M  V30 1396 O 144.381 0.834848 2.12703 0
M  V30 1397 C 144.591 3.4796 -0.269242 0
M  V30 1398 C 145.939 4.24306 -0.158014 0
M  V30 1399 O 146.963 3.55637 -0.200162 0
M  V30 1400 O 145.822 5.46471 -0.0558693 0
M  V30 1401 H 142.916 0.826556 0.0271015 0
M  V30 1402 H 145.462 1.54866 -0.693864 0
M  V30 1403 H 144.234 3.6939 -1.29099 0
M  V30 1404 H 143.857 3.95543 0.403966 0
M  V30 1405 N 144.854 0.36279 1.53368 0
M  V30 1406 C 146.265 -0.117022 1.86333 0
M  V30 1407 C 146.616 -1.48397 1.28347 0
M  V30 1408 O 145.741 -2.07787 0.604428 0
M  V30 1409 C 146.336 -0.21912 3.38091 0
M  V30 1410 C 144.895 -0.643184 3.70864 0
M  V30 1411 C 144.042 0.211318 2.76494 0
M  V30 1412 H 146.993 0.581687 1.47655 0
M  V30 1413 H 147.014 -1.04319 3.6592 0
M  V30 1414 H 146.526 0.775902 3.80265 0
M  V30 1415 H 144.627 -1.64654 3.34245 0
M  V30 1416 H 144.74 -0.41973 4.77258 0
M  V30 1417 H 143.104 -0.319367 2.5269 0
M  V30 1418 H 143.887 1.20383 3.21501 0
M  V30 1419 N 146.332 -1.57332 0.0918853 0
M  V30 1420 C 147.279 -2.13847 -0.868211 0
M  V30 1421 C 148.249 -1.05618 -1.28196 0
M  V30 1422 O 149.434 -1.33387 -1.36427 0
M  V30 1423 C 146.574 -2.72062 -2.12312 0
M  V30 1424 C 145.687 -3.94514 -1.7602 0
M  V30 1425 C 144.822 -4.40903 -2.96273 0
M  V30 1426 C 143.861 -5.55953 -2.56092 0
M  V30 1427 N 142.998 -5.97209 -3.69169 0
M  V30 1428 H 147.838 -2.95575 -0.379406 0
M  V30 1429 H 145.375 -1.46048 -0.175606 0
M  V30 1430 H 147.333 -3.03931 -2.858 0
M  V30 1431 H 145.963 -1.93068 -2.58698 0
M  V30 1432 H 145.015 -3.68979 -0.925135 0
M  V30 1433 H 146.327 -4.7802 -1.42472 0
M  V30 1434 H 145.481 -4.74539 -3.78018 0
M  V30 1435 H 144.22 -3.56291 -3.33029 0
M  V30 1436 H 143.225 -5.21948 -1.72773 0
M  V30 1437 H 144.45 -6.42311 -2.20484 0
M  V30 1438 H 142.396 -5.15543 -4.05649 0
M  V30 1439 H 142.313 -6.75504 -3.39456 0
M  V30 1440 H 143.581 -6.35475 -4.51434 0
M  V30 1441 N 147.81 0.181792 -1.56548 0
M  V30 1442 C 149.226 0.53316 -1.50431 0
M  V30 1443 C 149.426 1.85184 -0.794297 0
M  V30 1444 O 148.482 2.50058 -0.350318 0
M  V30 1445 C 149.795 0.575597 -2.9514 0
M  V30 1446 C 151.343 0.663519 -3.05886 0
M  V30 1447 C 151.818 0.736946 -4.52032 0
M  V30 1448 N 153.309 0.800118 -4.56237 0
M  V30 1449 C 154.044 0.877327 -5.66649 0
M  V30 1450 N 153.54 0.916016 -6.86718 0
M  V30 1451 N 155.333 0.915542 -5.54594 0
M  V30 1452 H 147.484 -0.683025 -2.01118 0
M  V30 1453 H 149.747 -0.244988 -0.915797 0
M  V30 1454 H 149.453 -0.324482 -3.502 0
M  V30 1455 H 149.327 1.42572 -3.49218 0
M  V30 1456 H 151.714 1.55403 -2.50867 0
M  V30 1457 H 151.795 -0.21307 -2.54911 0
M  V30 1458 H 151.439 -0.149262 -5.07681 0
M  V30 1459 H 151.369 1.62953 -5.00753 0
M  V30 1460 H 153.86 0.778926 -3.69785 0
M  V30 1461 H 154.173 0.975813 -7.66614 0
M  V30 1462 H 152.518 0.884469 -6.89349 0
M  V30 1463 H 155.709 0.882245 -4.59711 0
M  V30 1464 H 155.882 0.972253 -6.40665 0
M  V30 1465 N 149.288 1.51039 0.449983 0
M  V30 1466 C 150.218 1.74379 1.55288 0
M  V30 1467 C 151.199 0.593236 1.5942 0
M  V30 1468 O 152.384 0.834625 1.7535 0
M  V30 1469 C 149.514 1.85728 2.93466 0
M  V30 1470 C 148.468 3.01078 3.04197 0
M  V30 1471 C 147.794 2.97595 4.44231 0
M  V30 1472 C 149.094 4.41254 2.7945 0
M  V30 1473 H 150.788 2.66725 1.36008 0
M  V30 1474 H 148.334 1.2835 0.652864 0
M  V30 1475 H 150.287 2.0064 3.70569 0
M  V30 1476 H 149.011 0.900207 3.13949 0
M  V30 1477 H 147.67 2.85851 2.29531 0
M  V30 1478 H 147.318 1.99691 4.61663 0
M  V30 1479 H 147.018 3.75046 4.52343 0
M  V30 1480 H 148.542 3.14583 5.23326 0
M  V30 1481 H 149.956 4.56897 3.46292 0
M  V30 1482 H 148.353 5.20315 2.98985 0
M  V30 1483 H 149.423 4.52164 1.75144 0
M  V30 1484 N 150.766 -0.704594 1.40972 0
M  V30 1485 C 152.014 -1.46169 1.39568 0
M  V30 1486 C 152.335 -1.95 0.00253745 0
M  V30 1487 O 151.605 -1.71095 -0.954114 0
M  V30 1488 H 150.185 -0.542326 0.513704 0
M  V30 1489 H 152.847 -0.834553 1.76128 0
M  V30 1490 H 151.943 -2.32922 2.07735 0
M  V30 1491 N 152.244 -1.26651 -0.937939 0
M  V30 1492 C 153.655 -1.1125 -1.49934 0
M  V30 1493 C 154.006 0.306077 -1.93798 0
M  V30 1494 O 153.131 1.19792 -1.80219 0
M  V30 1495 C 153.726 -2.01339 -2.72485 0
M  V30 1496 C 152.285 -1.90074 -3.24883 0
M  V30 1497 C 151.432 -1.94498 -1.97651 0
M  V30 1498 H 154.383 -1.39693 -0.753091 0
M  V30 1499 H 154.404 -1.56319 -3.46907 0
M  V30 1500 H 153.916 -3.04577 -2.40529 0
M  V30 1501 H 152.017 -0.897827 -3.61621 0
M  V30 1502 H 152.13 -2.75778 -3.9177 0
M  V30 1503 H 150.494 -1.38591 -2.13693 0
M  V30 1504 H 151.277 -2.99372 -1.68022 0
M  V30 1505 N 153.722 1.14298 -1.08507 0
M  V30 1506 C 154.652 2.21542 -0.737646 0
M  V30 1507 C 155.633 1.67773 0.280377 0
M  V30 1508 O 156.818 1.93616 0.150521 0
M  V30 1509 C 153.948 3.46988 -0.147259 0
M  V30 1510 C 152.902 4.13789 -1.09374 0
M  V30 1511 C 152.228 5.33449 -0.365524 0
M  V30 1512 C 153.528 4.62208 -2.4323 0
M  V30 1513 H 155.222 2.5086 -1.6343 0
M  V30 1514 H 152.768 1.20576 -0.787243 0
M  V30 1515 H 154.721 4.21262 0.107808 0
M  V30 1516 H 153.445 3.17037 0.784538 0
M  V30 1517 H 152.104 3.4147 -1.33393 0
M  V30 1518 H 151.752 4.99759 0.57011 0
M  V30 1519 H 151.452 5.79088 -0.996512 0
M  V30 1520 H 152.976 6.10485 -0.118534 0
M  V30 1521 H 154.39 5.27952 -2.23472 0
M  V30 1522 H 152.787 5.18553 -3.02031 0
M  V30 1523 H 153.857 3.77224 -3.04681 0
M  V30 1524 N 155.201 0.870884 1.31352 0
M  V30 1525 C 156.617 0.562932 1.49343 0
M  V30 1526 C 156.817 -0.902725 1.80148 0
M  V30 1527 O 155.873 -1.68484 1.88067 0
M  V30 1528 C 157.186 1.46393 2.62659 0
M  V30 1529 C 158.734 1.46607 2.76542 0
M  V30 1530 C 159.209 2.35266 3.92955 0
M  V30 1531 N 160.7 2.33151 4.00243 0
M  V30 1532 C 161.435 2.98471 4.89594 0
M  V30 1533 N 160.931 3.72964 5.8384 0
M  V30 1534 N 162.724 2.87775 4.82848 0
M  V30 1535 H 154.875 1.81923 1.09626 0
M  V30 1536 H 157.138 0.777934 0.541777 0
M  V30 1537 H 156.844 2.50689 2.46674 0
M  V30 1538 H 156.718 1.16314 3.58819 0
M  V30 1539 H 159.105 0.43069 2.9194 0
M  V30 1540 H 159.186 1.8071 1.81046 0
M  V30 1541 H 158.83 3.38881 3.78315 0
M  V30 1542 H 158.76 1.98487 4.87761 0
M  V30 1543 H 161.251 1.79006 3.32814 0
M  V30 1544 H 161.564 4.19932 6.4875 0
M  V30 1545 H 159.909 3.77073 5.83816 0
M  V30 1546 H 163.1 2.29116 4.08195 0
M  V30 1547 H 163.273 3.38961 5.52277 0
M  V30 1548 N 156.679 -1.44442 0.630414 0
M  V30 1549 C 157.927 -2.01653 0.134351 0
M  V30 1550 C 158.248 -1.49836 -1.24796 0
M  V30 1551 O 157.518 -0.701684 -1.82902 0
M  V30 1552 H 156.098 -0.74554 0.0466769 0
M  V30 1553 H 158.76 -1.76952 0.816955 0
M  V30 1554 H 157.856 -3.11935 0.101498 0
M  V30 1555 N 158.157 -0.370918 -1.53173 0
M  V30 1556 C 159.404 0.217102 -2.01333 0
M  V30 1557 C 159.732 1.48338 -1.25802 0
M  V30 1558 O 158.987 1.92698 -0.34146 0
M  V30 1559 C 159.286 0.549696 -3.53147 0
M  V30 1560 C 158.952 -0.622872 -4.46577 0
M  V30 1561 C 157.614 -0.944595 -4.71838 0
M  V30 1562 C 159.966 -1.40819 -5.01816 0
M  V30 1563 C 157.294 -2.05351 -5.49589 0
M  V30 1564 C 159.646 -2.50757 -5.80778 0
M  V30 1565 C 158.31 -2.83458 -6.04324 0
M  V30 1566 H 157.58 0.0794431 -0.736729 0
M  V30 1567 H 160.227 -0.504481 -1.84736 0
M  V30 1568 H 158.532 1.35237 -3.6772 0
M  V30 1569 H 160.229 1.017 -3.87889 0
M  V30 1570 H 156.819 -0.36209 -4.27068 0
M  V30 1571 H 161.003 -1.17289 -4.82242 0
M  V30 1572 H 156.259 -2.3108 -5.6605 0
M  V30 1573 H 160.433 -3.12022 -6.22588 0
M  V30 1574 H 158.06 -3.69508 -6.64355 0
M  V30 1575 N 159.635 1.57281 -0.100228 0
M  V30 1576 C 160.567 2.11342 0.886972 0
M  V30 1577 C 161.58 1.05182 1.24261 0
M  V30 1578 O 162.769 1.32613 1.19483 0
M  V30 1579 C 159.869 2.5825 2.19454 0
M  V30 1580 C 159.042 3.88302 2.01346 0
M  V30 1581 C 158.101 4.21004 3.15661 0
M  V30 1582 O 157.127 4.9014 2.89398 0
M  V30 1583 N 158.329 3.76818 4.41575 0
M  V30 1584 H 161.094 2.96668 0.425216 0
M  V30 1585 H 158.655 1.61678 0.0847334 0
M  V30 1586 H 160.647 2.7717 2.94888 0
M  V30 1587 H 159.217 1.77907 2.57037 0
M  V30 1588 H 158.437 3.7848 1.10212 0
M  V30 1589 H 159.725 4.73375 1.8653 0
M  V30 1590 H 159.123 3.2102 4.65792 0
M  V30 1591 H 157.68 4.00882 5.13942 0
M  V30 1592 N 161.113 -0.173488 1.56642 0
M  V30 1593 C 162.359 -0.887108 1.83035 0
M  V30 1594 C 162.714 -1.79965 0.680461 0
M  V30 1595 O 162.007 -1.88854 -0.323225 0
M  V30 1596 C 162.201 -1.72069 3.13252 0
M  V30 1597 C 162.03 -0.89035 4.40798 0
M  V30 1598 C 160.8 -0.566282 5.02117 0
M  V30 1599 C 162.998 -0.232921 5.13772 0
M  V30 1600 N 160.98 0.280427 6.13259 0
M  V30 1601 C 162.351 0.475046 6.18177 0
M  V30 1602 C 164.406 -0.150863 4.97671 0
M  V30 1603 C 163.109 1.25729 7.08227 0
M  V30 1604 C 165.135 0.618039 5.88162 0
M  V30 1605 C 164.497 1.31438 6.92029 0
M  V30 1606 H 160.596 -0.303303 0.720785 0
M  V30 1607 H 163.18 -0.154244 1.94088 0
M  V30 1608 H 161.351 -2.42499 3.03395 0
M  V30 1609 H 163.083 -2.37545 3.2765 0
M  V30 1610 H 159.838 -0.895852 4.6505 0
M  V30 1611 H 160.262 0.694027 6.73433 0
M  V30 1612 H 164.904 -0.674868 4.17379 0
M  V30 1613 H 162.622 1.79265 7.87966 0
M  V30 1614 H 166.208 0.683173 5.77775 0
M  V30 1615 H 165.088 1.89981 7.6084 0
M  V30 1616 N 162.591 -1.51276 -0.441967 0
M  V30 1617 C 163.837 -1.63958 -1.19355 0
M  V30 1618 C 164.17 -0.352543 -1.90973 0
M  V30 1619 O 163.445 0.647627 -1.83401 0
M  V30 1620 C 163.728 -2.83979 -2.21422 0
M  V30 1621 C 163.581 -4.22646 -1.53918 0
M  V30 1622 C 164.9 -2.99521 -3.22451 0
M  V30 1623 H 162.019 -0.596709 -0.432559 0
M  V30 1624 H 164.661 -1.83748 -0.483398 0
M  V30 1625 H 162.811 -2.67237 -2.81987 0
M  V30 1626 H 164.483 -4.51045 -0.967256 0
M  V30 1627 H 162.726 -4.25558 -0.841615 0
M  V30 1628 H 163.397 -5.02609 -2.28229 0
M  V30 1629 H 165.873 -3.14944 -2.71937 0
M  V30 1630 H 164.749 -3.85072 -3.91166 0
M  V30 1631 H 165.01 -2.11391 -3.88287 0
M  V30 1632 N 164.069 0.697108 -1.41344 0
M  V30 1633 C 165.297 1.48593 -1.43972 0
M  V30 1634 C 165.712 1.88747 -0.0445612 0
M  V30 1635 O 165.069 1.56682 0.935785 0
M  V30 1636 C 165.12 2.74946 -2.34706 0
M  V30 1637 O 164.841 2.36484 -3.68791 0
M  V30 1638 C 166.342 3.687 -2.46121 0
M  V30 1639 H 163.562 0.457964 -0.490418 0
M  V30 1640 H 166.106 0.858429 -1.8561 0
M  V30 1641 H 164.261 3.33937 -1.9638 0
M  V30 1642 H 164.675 3.17918 -4.17167 0
M  V30 1643 H 166.149 4.54145 -3.13777 0
M  V30 1644 H 166.626 4.13081 -1.49199 0
M  V30 1645 H 167.232 3.15613 -2.85076 0
M  V30 1646 N 165.547 1.27147 0.931209 0
M  V30 1647 C 166.795 1.13055 1.6752 0
M  V30 1648 C 167.116 -0.324791 1.92276 0
M  V30 1649 O 166.386 -1.22775 1.52654 0
M  V30 1650 H 164.966 0.415391 0.620854 0
M  V30 1651 H 167.628 1.59623 1.11833 0
M  V30 1652 H 166.724 1.65694 2.64485 0
M  V30 1653 N 167.025 -1.13721 1.09112 0
M  V30 1654 C 168.302 -1.81155 0.737706 0
M  V30 1655 C 168.682 -1.96253 -0.777683 0
M  V30 1656 O 168.03 -1.52807 -1.69889 0
M  V30 1657 C 168.24 -3.16392 1.47299 0
M  V30 1658 C 169.588 -3.91787 1.63671 0
M  V30 1659 O 170.612 -3.26005 1.43524 0
M  V30 1660 O 169.471 -5.0977 1.96969 0
M  V30 1661 H 166.565 -0.783518 0.26463 0
M  V30 1662 H 169.111 -1.20676 1.19312 0
M  V30 1663 H 167.883 -3.0061 2.50498 0
M  V30 1664 H 167.506 -3.8457 1.00953 0
M  V30 1665 N 168.503 -0.877838 -1.30888 0
M  V30 1666 C 169.451 -0.328662 -2.30266 0
M  V30 1667 C 170.445 0.560496 -1.59859 0
M  V30 1668 O 171.651 0.445722 -1.74394 0
M  V30 1669 H 168.026 -0.0876142 -0.746879 0
M  V30 1670 H 169.997 -1.18061 -2.74051 0
M  V30 1671 C 168.746 0.448071 -3.44801 0
M  V30 1672 H 168.069 -0.226859 -3.99156 0
M  V30 1673 H 169.509 0.797541 -4.16432 0
M  V30 1674 C 167.968 1.64239 -2.94155 0
M  V30 1675 O 168.498 2.74175 -2.93583 0
M  V30 1676 N 166.704 1.47716 -2.50256 0
M  V30 1677 H 166.251 0.582821 -2.5092 0
M  V30 1678 H 166.209 2.27765 -2.16727 0
M  V30 1679 N 169.982 1.44106 -0.638065 0
M  V30 1680 C 170.93 2.3248 0.0748149 0
M  V30 1681 C 171.924 1.47746 0.828702 0
M  V30 1682 O 173.13 1.64049 0.740816 0
M  V30 1683 H 169.505 0.750771 0.0429686 0
M  V30 1684 H 171.476 2.90348 -0.688504 0
M  V30 1685 C 170.225 3.31843 1.03805 0
M  V30 1686 H 169.548 3.97059 0.467375 0
M  V30 1687 H 170.988 3.96345 1.50622 0
M  V30 1688 C 169.447 2.61291 2.1267 0
M  V30 1689 O 169.977 2.41702 3.20847 0
M  V30 1690 N 168.183 2.20915 1.88798 0
M  V30 1691 H 167.73 2.37047 1.00829 0
M  V30 1692 H 167.688 1.74038 2.61836 0
M  V30 1693 N 171.46 0.379036 1.52974 0
M  V30 1694 C 172.688 -0.20679 2.05864 0
M  V30 1695 C 173.103 -1.41356 1.25155 0
M  V30 1696 O 172.46 -1.8009 0.295588 0
M  V30 1697 C 172.511 -0.587045 3.56702 0
M  V30 1698 O 172.232 0.571776 4.34353 0
M  V30 1699 C 173.733 -1.22983 4.25899 0
M  V30 1700 H 170.953 -0.0336123 0.670158 0
M  V30 1701 H 173.497 0.541298 1.97206 0
M  V30 1702 H 171.652 -1.28504 3.65466 0
M  V30 1703 H 172.066 0.261544 5.23847 0
M  V30 1704 H 173.54 -1.44635 5.32715 0
M  V30 1705 H 174.017 -2.19416 3.80465 0
M  V30 1706 H 174.623 -0.572892 4.21424 0
M  V30 1707 N 172.938 -1.57226 0.108567 0
M  V30 1708 C 174.163 -1.99604 -0.563303 0
M  V30 1709 C 174.588 -0.987563 -1.6009 0
M  V30 1710 O 173.946 0.0421687 -1.81251 0
M  V30 1711 C 173.994 -3.40902 -1.17552 0
M  V30 1712 O 173.098 -3.42896 -2.2912 0
M  V30 1713 H 172.439 -0.648704 -0.1417 0
M  V30 1714 H 174.969 -2.03679 0.193961 0
M  V30 1715 H 174.979 -3.78886 -1.51357 0
M  V30 1716 H 173.654 -4.1382 -0.415445 0
M  V30 1717 H 172.231 -3.1672 -1.96832 0
M  V30 1718 N 174.416 0.165178 -1.56732 0
M  V30 1719 C 175.646 0.894919 -1.86212 0
M  V30 1720 C 176.054 1.76066 -0.692627 0
M  V30 1721 O 175.397 1.80387 0.347303 0
M  V30 1722 C 175.459 1.8174 -3.10179 0
M  V30 1723 C 175.123 1.13064 -4.42793 0
M  V30 1724 C 176.12 0.493169 -5.17556 0
M  V30 1725 C 173.805 1.12556 -4.89527 0
M  V30 1726 C 175.799 -0.140209 -6.37246 0
M  V30 1727 C 173.486 0.488366 -6.09145 0
M  V30 1728 C 174.484 -0.143411 -6.82849 0
M  V30 1729 O 174.172 -0.77055 -8.00199 0
M  V30 1730 H 173.904 0.265114 -0.621844 0
M  V30 1731 H 176.458 0.168242 -2.0471 0
M  V30 1732 H 174.688 2.58455 -2.87642 0
M  V30 1733 H 176.377 2.4175 -3.26055 0
M  V30 1734 H 177.143 0.489023 -4.82528 0
M  V30 1735 H 173.022 1.60672 -4.32094 0
M  V30 1736 H 176.566 -0.633932 -6.94714 0
M  V30 1737 H 172.463 0.490116 -6.43637 0
M  V30 1738 H 173.231 -0.670408 -8.1575 0
M  V30 1739 N 175.894 1.51508 0.433938 0
M  V30 1740 C 177.119 1.68443 1.21003 0
M  V30 1741 C 177.544 0.382636 1.84167 0
M  V30 1742 O 176.902 -0.65755 1.68956 0
M  V30 1743 C 176.95 2.80405 2.26727 0
M  V30 1744 O 176.054 2.44245 3.32292 0
M  V30 1745 H 175.395 0.561536 0.354363 0
M  V30 1746 H 177.925 1.9809 0.512024 0
M  V30 1747 H 177.935 3.0459 2.71457 0
M  V30 1748 H 176.61 3.74867 1.80132 0
M  V30 1749 H 175.187 2.30644 2.93015 0
M  V30 1750 N 177.372 -0.689602 1.41712 0
M  V30 1751 C 178.788 -1.00093 1.24312 0
M  V30 1752 C 178.988 -2.01036 0.136729 0
M  V30 1753 O 178.044 -2.47562 -0.496918 0
M  V30 1754 C 179.357 -1.51985 2.59463 0
M  V30 1755 C 180.905 -1.63838 2.66695 0
M  V30 1756 C 181.38 -2.1913 4.02177 0
M  V30 1757 N 182.871 -2.26483 4.04054 0
M  V30 1758 C 183.606 -2.70306 5.0569 0
M  V30 1759 N 183.102 -3.13691 6.17713 0
M  V30 1760 N 184.895 -2.69923 4.9305 0
M  V30 1761 H 177.046 -0.0210029 2.1239 0
M  V30 1762 H 179.309 -0.0718733 0.945272 0
M  V30 1763 H 179.015 -0.85269 3.41207 0
M  V30 1764 H 178.889 -2.50103 2.82362 0
M  V30 1765 H 181.276 -2.29664 1.85306 0
M  V30 1766 H 181.357 -0.642492 2.476 0
M  V30 1767 H 181.001 -1.53918 4.84016 0
M  V30 1768 H 180.931 -3.19482 4.18615 0
M  V30 1769 H 183.422 -1.95874 3.23174 0
M  V30 1770 H 183.735 -3.45773 6.9113 0
M  V30 1771 H 182.08 -3.11585 6.21241 0
M  V30 1772 H 185.271 -2.35382 4.04614 0
M  V30 1773 H 185.444 -3.03758 5.72394 0
M  V30 1774 N 178.85 -1.27639 -0.924453 0
M  V30 1775 C 180.096 -1.15345 -1.67532 0
M  V30 1776 C 180.451 0.297096 -1.90092 0
M  V30 1777 O 179.744 1.21374 -1.48253 0
M  V30 1778 C 179.938 -1.87407 -3.04325 0
M  V30 1779 C 179.767 -3.3932 -2.95114 0
M  V30 1780 C 178.537 -4.08644 -2.97218 0
M  V30 1781 C 180.735 -4.35242 -2.73987 0
M  V30 1782 N 178.717 -5.47102 -2.78482 0
M  V30 1783 C 180.088 -5.6099 -2.63988 0
M  V30 1784 C 182.143 -4.25294 -2.589 0
M  V30 1785 C 180.846 -6.77924 -2.40442 0
M  V30 1786 C 182.872 -5.41952 -2.36731 0
M  V30 1787 C 182.234 -6.66658 -2.27478 0
M  V30 1788 H 178.333 -0.47696 -0.619704 0
M  V30 1789 H 180.917 -1.6115 -1.09265 0
M  V30 1790 H 179.088 -1.44053 -3.60699 0
M  V30 1791 H 180.82 -1.6759 -3.68369 0
M  V30 1792 H 177.575 -3.60136 -3.07569 0
M  V30 1793 H 177.999 -6.19852 -2.72236 0
M  V30 1794 H 182.641 -3.29598 -2.64811 0
M  V30 1795 H 180.359 -7.73699 -2.3327 0
M  V30 1796 H 183.945 -5.36137 -2.25938 0
M  V30 1797 H 182.825 -7.55405 -2.10555 0
M  V30 1798 N 180.328 1.1314 -1.09713 0
M  V30 1799 C 181.291 2.16831 -0.742751 0
M  V30 1800 C 182.291 1.59159 0.229129 0
M  V30 1801 O 183.481 1.74199 0.00693237 0
M  V30 1802 C 180.613 3.40756 -0.0989168 0
M  V30 1803 H 181.806 2.49695 -1.66109 0
M  V30 1804 H 179.359 1.2802 -0.896699 0
M  V30 1805 H 180.094 3.13485 0.830514 0
M  V30 1806 H 179.879 3.83888 -0.798265 0
M  V30 1807 H 181.369 4.17386 0.133524 0
M  V30 1808 N 181.806 0.884767 1.30421 0
M  V30 1809 C 183.222 0.57874 1.48737 0
M  V30 1810 C 183.422 -0.883567 1.81095 0
M  V30 1811 O 182.478 -1.6648 1.89844 0
M  V30 1812 C 183.791 1.49171 2.61091 0
M  V30 1813 C 185.339 1.49532 2.74971 0
M  V30 1814 C 185.814 2.39421 3.90438 0
M  V30 1815 N 187.305 2.37383 3.97748 0
M  V30 1816 C 188.04 3.03647 4.86401 0
M  V30 1817 N 187.536 3.79136 5.79852 0
M  V30 1818 N 189.329 2.9288 4.79768 0
M  V30 1819 H 181.48 1.83075 1.0769 0
M  V30 1820 H 183.743 0.783637 0.533495 0
M  V30 1821 H 183.449 2.53291 2.44001 0
M  V30 1822 H 183.323 1.20113 3.57565 0
M  V30 1823 H 185.71 0.46163 2.91467 0
M  V30 1824 H 185.791 1.8262 1.79119 0
M  V30 1825 H 185.435 3.42874 3.74699 0
M  V30 1826 H 185.365 2.03649 4.85628 0
M  V30 1827 H 187.856 1.82525 3.30897 0
M  V30 1828 H 188.169 4.26789 6.4426 0
M  V30 1829 H 186.514 3.83243 5.79784 0
M  V30 1830 H 189.705 2.33433 4.05742 0
M  V30 1831 H 189.878 3.448 5.4865 0
M  V30 1832 N 183.284 -1.43765 0.645699 0
M  V30 1833 C 184.214 -2.33471 -0.0370477 0
M  V30 1834 C 185.195 -1.49042 -0.819779 0
M  V30 1835 O 186.38 -1.77726 -0.782758 0
M  V30 1836 C 183.51 -3.32311 -1.0093 0
M  V30 1837 C 182.464 -4.2667 -0.337201 0
M  V30 1838 C 181.79 -5.1549 -1.42037 0
M  V30 1839 C 183.09 -5.16657 0.765706 0
M  V30 1840 H 184.784 -2.90809 0.712069 0
M  V30 1841 H 182.33 -1.39834 0.343876 0
M  V30 1842 H 184.283 -3.9396 -1.49578 0
M  V30 1843 H 183.007 -2.73213 -1.78948 0
M  V30 1844 H 181.666 -3.66374 0.128771 0
M  V30 1845 H 181.314 -4.52735 -2.1918 0
M  V30 1846 H 181.014 -5.79438 -0.975966 0
M  V30 1847 H 182.538 -5.80012 -1.90838 0
M  V30 1848 H 183.952 -5.72158 0.361702 0
M  V30 1849 H 182.349 -5.89286 1.13413 0
M  V30 1850 H 183.419 -4.56796 1.62683 0
M  V30 1851 N 184.763 -0.387143 -1.52771 0
M  V30 1852 C 186.04 0.253197 -1.93954 0
M  V30 1853 C 186.42 1.64545 -1.32243 0
M  V30 1854 O 185.768 2.23191 -0.489699 0
M  V30 1855 C 185.978 0.281722 -3.47861 0
M  V30 1856 C 187.326 0.511715 -4.21505 0
M  V30 1857 O 188.35 0.362023 -3.54356 0
M  V30 1858 O 187.209 0.804847 -5.40541 0
M  V30 1859 H 184.303 0.156845 -0.811991 0
M  V30 1860 H 186.849 -0.441494 -1.63856 0
M  V30 1861 H 185.621 -0.693571 -3.85104 0
M  V30 1862 H 185.244 1.02142 -3.84256 0
M  V30 1863 N 186.241 1.57166 -0.116904 0
M  V30 1864 C 187.171 2.18222 0.830759 0
M  V30 1865 C 188.152 1.12167 1.27877 0
M  V30 1866 O 189.337 1.40394 1.34176 0
M  V30 1867 C 186.467 2.77996 2.08172 0
M  V30 1868 C 185.421 3.89614 1.77157 0
M  V30 1869 C 184.747 4.36187 3.09265 0
M  V30 1870 C 186.047 5.1181 1.04151 0
M  V30 1871 H 187.741 2.97664 0.321992 0
M  V30 1872 H 185.287 1.4318 0.153434 0
M  V30 1873 H 187.24 3.19366 2.74924 0
M  V30 1874 H 185.964 1.9584 2.6137 0
M  V30 1875 H 184.623 3.48816 1.12796 0
M  V30 1876 H 184.271 3.50893 3.60393 0
M  V30 1877 H 183.971 5.11455 2.89288 0
M  V30 1878 H 185.495 4.80207 3.77139 0
M  V30 1879 H 186.909 5.50214 1.61052 0
M  V30 1880 H 185.306 5.92648 0.942762 0
M  V30 1881 H 186.376 4.84892 0.0279022 0
M  V30 1882 N 187.719 -0.156864 1.56817 0
M  V30 1883 C 188.667 -1.21319 1.98455 0
M  V30 1884 C 189.661 -1.45025 0.875444 0
M  V30 1885 O 190.867 -1.45435 1.0606 0
M  V30 1886 H 187.242 -0.408142 0.631605 0
M  V30 1887 H 189.213 -0.835244 2.86472 0
M  V30 1888 C 187.962 -2.54148 2.37285 0
M  V30 1889 H 187.285 -2.36733 3.22176 0
M  V30 1890 H 188.725 -3.26712 2.70251 0
M  V30 1891 C 187.184 -3.13967 1.22173 0
M  V30 1892 O 187.714 -3.98357 0.517149 0
M  V30 1893 N 185.92 -2.7327 0.988536 0
M  V30 1894 H 185.467 -2.04744 1.56326 0
M  V30 1895 H 185.425 -3.13628 0.220209 0
M  V30 1896 N 189.197 -1.51736 -0.425897 0
M  V30 1897 C 190.445 -1.64644 -1.17204 0
M  V30 1898 C 190.766 -0.370486 -1.91448 0
M  V30 1899 O 190.036 0.614088 -1.86026 0
M  V30 1900 H 188.616 -0.606819 -0.435638 0
M  V30 1901 H 191.278 -1.88713 -0.487177 0
M  V30 1902 H 190.374 -2.47958 -1.89534 0
M  V30 1903 N 190.675 0.682077 -1.42076 0
M  V30 1904 C 191.638 1.77756 -1.44691 0
M  V30 1905 C 192.638 1.5726 -0.335535 0
M  V30 1906 O 193.828 1.63686 -0.596037 0
M  V30 1907 C 190.96 3.16301 -1.27146 0
M  V30 1908 H 192.153 1.76826 -2.42224 0
M  V30 1909 H 189.706 0.891012 -1.28416 0
M  V30 1910 H 190.441 3.22862 -0.305075 0
M  V30 1911 H 190.226 3.32581 -2.07683 0
M  V30 1912 H 191.716 3.96241 -1.31843 0
M  V30 1913 N 192.153 1.28127 0.917671 0
M  V30 1914 C 193.564 1.13622 1.48145 0
M  V30 1915 C 193.915 -0.275207 1.9426 0
M  V30 1916 O 193.04 -1.1691 1.82102 0
M  V30 1917 C 193.635 2.05648 2.69248 0
M  V30 1918 C 192.194 1.95219 3.21818 0
M  V30 1919 C 191.341 1.97618 1.94532 0
M  V30 1920 H 194.292 1.40874 0.730772 0
M  V30 1921 H 194.313 1.61818 3.44377 0
M  V30 1922 H 193.825 3.08365 2.35653 0
M  V30 1923 H 191.926 0.955244 3.60147 0
M  V30 1924 H 192.039 2.81976 3.87333 0
M  V30 1925 H 190.403 1.41973 2.11461 0
M  V30 1926 H 191.186 3.02007 1.63238 0
M  V30 1927 N 193.631 -1.12557 1.10312 0
M  V30 1928 C 194.561 -2.20341 0.772798 0
M  V30 1929 C 195.542 -1.68198 -0.25365 0
M  V30 1930 O 196.727 -1.93831 -0.119699 0
M  V30 1931 C 193.857 -3.46709 0.202443 0
M  V30 1932 C 192.811 -4.11996 1.15943 0
M  V30 1933 C 192.137 -5.328 0.450345 0
M  V30 1934 C 193.437 -4.5828 2.50552 0
M  V30 1935 H 195.131 -2.48229 1.674 0
M  V30 1936 H 192.677 -1.19308 0.806326 0
M  V30 1937 H 194.63 -4.2138 -0.0407752 0
M  V30 1938 H 193.354 -3.18245 -0.734001 0
M  V30 1939 H 192.013 -3.39305 1.38808 0
M  V30 1940 H 191.661 -5.00602 -0.490531 0
M  V30 1941 H 191.361 -5.7743 1.08851 0
M  V30 1942 H 192.885 -6.10219 0.215642 0
M  V30 1943 H 194.299 -5.2433 2.31843 0
M  V30 1944 H 192.696 -5.13683 3.10242 0
M  V30 1945 H 193.766 -3.72329 3.10643 0
M  V30 1946 N 195.109 -0.891671 -1.2995 0
M  V30 1947 C 196.349 -0.520296 -1.97667 0
M  V30 1948 C 196.713 0.914797 -1.68806 0
M  V30 1949 O 197.914 1.39263 -2.29911 0
M  V30 1950 C 196.185 -0.795222 -3.48441 0
M  V30 1951 S 197.744 -0.526953 -4.35624 0
M  V30 1952 H 194.562 -0.19333 -0.684211 0
M  V30 1953 H 197.164 -1.15238 -1.57926 0
M  V30 1954 H 195.868 -1.83805 -3.66938 0
M  V30 1955 H 195.399 -0.15095 -3.9311 0
M  V30 1956 H 197.414 0.631533 -4.92165 0
M  V30 1957 N 196.587 1.43421 -0.653314 0
M  V30 1958 C 197.835 2.01414 -0.166415 0
M  V30 1959 C 198.156 1.51803 1.22397 0
M  V30 1960 O 197.426 0.730693 1.81763 0
M  V30 1961 H 196.006 0.744703 -0.0585319 0
M  V30 1962 H 198.668 1.75629 -0.845003 0
M  V30 1963 H 197.764 3.11734 -0.151111 0
M  V30 1964 N 198.065 0.39524 1.52563 0
M  V30 1965 C 199.476 -0.0774719 1.86539 0
M  V30 1966 C 199.827 -1.45641 1.31466 0
M  V30 1967 O 198.952 -2.06459 0.648367 0
M  V30 1968 C 199.547 -0.147356 3.38479 0
M  V30 1969 C 198.106 -0.564373 3.72145 0
M  V30 1970 C 197.253 0.269919 2.75983 0
M  V30 1971 H 200.204 0.612876 1.46388 0
M  V30 1972 H 200.225 -0.965343 3.68051 0
M  V30 1973 H 199.737 0.856387 3.78534 0
M  V30 1974 H 197.838 -1.57527 3.37663 0
M  V30 1975 H 197.951 -0.318402 4.78041 0
M  V30 1976 H 196.315 -0.265696 2.5331 0
M  V30 1977 H 197.098 1.27175 3.18875 0
M  V30 1978 N 199.544 -1.57102 0.125237 0
M  V30 1979 C 200.474 -2.18659 -0.819174 0
M  V30 1980 C 201.455 -1.12843 -1.27281 0
M  V30 1981 O 202.64 -1.41104 -1.33429 0
M  V30 1982 C 199.77 -2.79096 -2.06695 0
M  V30 1983 C 198.724 -3.90548 -1.75088 0
M  V30 1984 C 198.05 -4.37821 -3.06948 0
M  V30 1985 C 199.35 -5.12356 -1.01435 0
M  V30 1986 H 201.044 -2.9783 -0.306202 0
M  V30 1987 H 198.59 -1.4326 -0.145839 0
M  V30 1988 H 200.543 -3.2082 -2.73226 0
M  V30 1989 H 199.267 -1.97223 -2.60328 0
M  V30 1990 H 197.926 -3.49409 -1.10944 0
M  V30 1991 H 197.574 -3.52799 -3.58527 0
M  V30 1992 H 197.274 -5.12982 -2.86571 0
M  V30 1993 H 198.798 -4.822 -3.74587 0
M  V30 1994 H 200.212 -5.5106 -1.58132 0
M  V30 1995 H 198.609 -5.9314 -0.911319 0
M  V30 1996 H 199.679 -4.849 -0.00218681 0
M  V30 1997 N 201.022 0.148545 -1.56898 0
M  V30 1998 C 202.262 0.86765 -1.85071 0
M  V30 1999 C 202.626 1.78417 -0.709317 0
M  V30 2000 O 203.827 2.54261 -0.872049 0
M  V30 2001 C 202.098 1.62306 -3.1842 0
M  V30 2002 S 203.657 2.3878 -3.68143 0
M  V30 2003 H 200.475 0.290174 -0.649092 0
M  V30 2004 H 203.077 0.127755 -1.95082 0
M  V30 2005 H 201.781 0.941192 -3.99462 0
M  V30 2006 H 201.312 2.4039 -3.1141 0
M  V30 2007 H 203.327 3.63942 -3.37285 0
M  V30 2008 N 202.5 1.5196 0.417844 0
M  V30 2009 C 203.746 1.65836 1.16732 0
M  V30 2010 C 204.079 0.382881 1.90388 0
M  V30 2011 O 203.354 -0.618368 1.84408 0
M  V30 2012 C 203.637 2.87466 2.16876 0
M  V30 2013 C 203.49 4.25041 1.47174 0
M  V30 2014 C 204.809 3.04613 3.17646 0
M  V30 2015 H 201.928 0.603515 0.423011 0
M  V30 2016 H 204.57 1.84494 0.454105 0
M  V30 2017 H 202.72 2.71689 2.777 0
M  V30 2018 H 204.392 4.52527 0.895376 0
M  V30 2019 H 202.635 4.26843 0.773806 0
M  V30 2020 H 203.306 5.06176 2.20204 0
M  V30 2021 H 205.782 3.1923 2.66892 0
M  V30 2022 H 204.658 3.91247 3.8499 0
M  V30 2023 H 204.919 2.17541 3.84874 0
M  V30 2024 N 203.978 -0.674533 1.42435 0
M  V30 2025 C 204.941 -1.76986 1.45632 0
M  V30 2026 C 205.941 -1.5708 0.343871 0
M  V30 2027 O 207.131 -1.63367 0.604709 0
M  V30 2028 C 204.263 -3.15623 1.28822 0
M  V30 2029 H 205.456 -1.75539 2.43158 0
M  V30 2030 H 203.009 -0.884189 1.28887 0
M  V30 2031 H 203.744 -3.22696 0.322193 0
M  V30 2032 H 203.529 -3.31475 2.09444 0
M  V30 2033 H 205.019 -3.95537 1.33942 0
M  V30 2034 N 205.456 -1.28612 -0.910864 0
M  V30 2035 C 206.702 -1.16106 -1.66274 0
M  V30 2036 C 207.035 0.289113 -1.92036 0
M  V30 2037 O 206.31 1.21 -1.52281 0
M  V30 2038 C 206.593 -1.96309 -3.01885 0
M  V30 2039 C 206.446 -3.49405 -2.8326 0
M  V30 2040 C 207.765 -1.78076 -4.02463 0
M  V30 2041 H 204.884 -0.423152 -0.603417 0
M  V30 2042 H 207.526 -1.57961 -1.05586 0
M  V30 2043 H 205.676 -1.60742 -3.53687 0
M  V30 2044 H 207.348 -3.94894 -2.38446 0
M  V30 2045 H 205.591 -3.74893 -2.18261 0
M  V30 2046 H 206.262 -4.00784 -3.79574 0
M  V30 2047 H 208.738 -2.0912 -3.59733 0
M  V30 2048 H 207.614 -2.36561 -4.95308 0
M  V30 2049 H 207.875 -0.733008 -4.35981 0
M  V30 2050 N 206.934 1.1197 -1.10907 0
M  V30 2051 C 208.159 1.87942 -0.877064 0
M  V30 2052 C 208.584 1.79341 0.567314 0
M  V30 2053 O 207.942 1.15184 1.40009 0
M  V30 2054 C 207.99 3.34926 -1.33629 0
M  V30 2055 O 207.094 4.09303 -0.504447 0
M  V30 2056 H 206.435 0.583785 -0.316371 0
M  V30 2057 H 208.965 1.4157 -1.47712 0
M  V30 2058 H 208.975 3.8577 -1.32837 0
M  V30 2059 H 207.65 3.40504 -2.3881 0
M  V30 2060 H 206.227 3.68393 -0.577993 0
M  V30 2061 N 208.412 0.89855 1.29475 0
M  V30 2062 C 209.375 0.380272 2.26023 0
M  V30 2063 C 210.375 -0.484891 1.53315 0
M  V30 2064 O 211.565 -0.290108 1.71767 0
M  V30 2065 C 208.697 -0.45651 3.3783 0
M  V30 2066 H 209.89 1.23295 2.73383 0
M  V30 2067 H 207.443 0.676589 1.40897 0
M  V30 2068 H 208.178 -1.32922 2.95808 0
M  V30 2069 H 207.963 0.163393 3.91759 0
M  V30 2070 H 209.453 -0.810466 4.0966 0
M  V30 2071 N 209.89 -1.43072 0.660911 0
M  V30 2072 C 210.853 -2.29194 -0.0166406 0
M  V30 2073 C 211.853 -1.42609 -0.742912 0
M  V30 2074 O 213.043 -1.64155 -0.583004 0
M  V30 2075 C 210.175 -3.24831 -1.0343 0
M  V30 2076 H 211.368 -2.90596 0.741208 0
M  V30 2077 H 208.921 -1.5048 0.422532 0
M  V30 2078 H 209.656 -2.68339 -1.82111 0
M  V30 2079 H 209.441 -3.88676 -0.517082 0
M  V30 2080 H 210.931 -3.89451 -1.50723 0
M  V30 2081 N 211.368 -0.403325 -1.52352 0
M  V30 2082 C 212.278 0.432009 -2.30588 0
M  V30 2083 C 213.294 1.05884 -1.38075 0
M  V30 2084 O 214.47 1.06161 -1.71148 0
M  V30 2085 C 211.535 1.53669 -3.10784 0
M  V30 2086 C 210.596 0.933525 -4.19027 0
M  V30 2087 C 209.829 1.98557 -4.9539 0
M  V30 2088 O 210.052 3.20283 -4.71991 0
M  V30 2089 O 208.986 1.59504 -5.80381 0
M  V30 2090 H 212.812 -0.205739 -3.03002 0
M  V30 2091 H 210.397 -0.166675 -1.48467 0
M  V30 2092 H 212.279 2.17814 -3.60742 0
M  V30 2093 H 210.954 2.15915 -2.41169 0
M  V30 2094 H 209.861 0.254954 -3.7323 0
M  V30 2095 H 211.194 0.35508 -4.90918 0
M  V30 2096 N 212.846 1.57033 -0.133567 0
M  V30 2097 C 213.809 2.14897 0.796995 0
M  V30 2098 C 214.809 1.0874 1.18458 0
M  V30 2099 O 215.999 1.34446 1.1077 0
M  V30 2100 C 213.131 2.70112 2.07973 0
M  V30 2101 H 214.324 2.98457 0.293873 0
M  V30 2102 H 211.877 1.55871 0.115787 0
M  V30 2103 H 212.612 1.9018 2.62682 0
M  V30 2104 H 212.397 3.47764 1.81115 0
M  V30 2105 H 213.887 3.14738 2.74462 0
M  V30 2106 N 214.325 -0.140222 1.56975 0
M  V30 2107 C 215.553 -0.866437 1.87884 0
M  V30 2108 C 215.968 -1.74428 0.722517 0
M  V30 2109 O 215.325 -1.79891 -0.30749 0
M  V30 2110 C 215.376 -1.71753 3.18093 0
M  V30 2111 O 215.097 -0.875056 4.29272 0
M  V30 2112 C 216.598 -2.55074 3.62563 0
M  V30 2113 H 213.818 -0.25019 0.622612 0
M  V30 2114 H 216.362 -0.130977 2.0408 0
M  V30 2115 H 214.517 -2.40598 3.03631 0
M  V30 2116 H 214.931 -1.46002 5.03769 0
M  V30 2117 H 216.405 -3.10356 4.5649 0
M  V30 2118 H 216.882 -3.31434 2.88181 0
M  V30 2119 H 217.488 -1.91509 3.79743 0
M  V30 2120 N 215.803 -1.52179 -0.40978 0
M  V30 2121 C 217.049 -1.66453 -1.15851 0
M  V30 2122 C 217.382 -0.392972 -1.90182 0
M  V30 2123 O 216.657 0.608579 -1.84734 0
M  V30 2124 C 216.94 -2.88612 -2.15349 0
M  V30 2125 C 216.793 -4.25815 -1.44918 0
M  V30 2126 C 218.112 -3.06294 -3.16026 0
M  V30 2127 H 215.231 -0.60575 -0.419805 0
M  V30 2128 H 217.873 -1.84732 -0.444314 0
M  V30 2129 H 216.023 -2.73158 -2.76255 0
M  V30 2130 H 217.695 -4.52995 -0.871365 0
M  V30 2131 H 215.938 -4.27247 -0.751159 0
M  V30 2132 H 216.609 -5.07337 -2.17516 0
M  V30 2133 H 219.085 -3.20641 -2.65195 0
M  V30 2134 H 217.961 -3.93283 -3.8291 0
M  V30 2135 H 218.222 -2.19579 -3.83715 0
M  V30 2136 N 217.281 0.66697 -1.42791 0
M  V30 2137 C 218.692 1.2478 -1.38877 0
M  V30 2138 C 219.043 1.96012 -0.0859426 0
M  V30 2139 O 218.168 2.00463 0.815081 0
M  V30 2140 C 218.763 2.26938 -2.51564 0
M  V30 2141 C 217.322 2.80529 -2.50959 0
M  V30 2142 C 216.469 1.54965 -2.29959 0
M  V30 2143 H 219.42 0.459853 -1.51892 0
M  V30 2144 H 219.441 3.08834 -2.22265 0
M  V30 2145 H 218.953 1.75065 -3.46372 0
M  V30 2146 H 217.054 3.36502 -1.59991 0
M  V30 2147 H 217.167 3.29012 -3.48265 0
M  V30 2148 H 215.531 1.81817 -1.78366 0
M  V30 2149 H 216.314 1.05047 -3.26833 0
M  V30 2150 N 218.759 1.29093 0.90403 0
M  V30 2151 C 219.984 1.19809 1.69294 0
M  V30 2152 C 220.409 -0.238481 1.86582 0
M  V30 2153 O 219.767 -1.1723 1.383 0
M  V30 2154 C 219.815 1.91202 3.05736 0
M  V30 2155 O 218.919 1.22611 3.93752 0
M  V30 2156 H 218.26 0.415385 0.518027 0
M  V30 2157 H 220.79 1.70586 1.12967 0
M  V30 2158 H 220.8 1.99487 3.55906 0
M  V30 2159 H 219.475 2.95692 2.92471 0
M  V30 2160 H 218.052 1.22554 3.52186 0
M  V30 2161 N 220.237 -1.11381 1.11499 0
M  V30 2162 C 221.147 -2.21019 0.786628 0
M  V30 2163 C 222.163 -1.72597 -0.220507 0
M  V30 2164 O 223.339 -2.01321 -0.0565251 0
M  V30 2165 C 220.404 -3.459 0.235333 0
M  V30 2166 C 219.465 -4.09107 1.30115 0
M  V30 2167 C 218.698 -5.28027 0.776068 0
M  V30 2168 O 218.921 -5.6904 -0.393661 0
M  V30 2169 O 217.855 -5.81835 1.54114 0
M  V30 2170 H 221.681 -2.51521 1.70209 0
M  V30 2171 H 219.266 -1.19928 0.890928 0
M  V30 2172 H 221.148 -4.21346 -0.067715 0
M  V30 2173 H 219.823 -3.17049 -0.652828 0
M  V30 2174 H 218.73 -3.35391 1.65722 0
M  V30 2175 H 220.063 -4.42139 2.16273 0
M  V30 2176 N 221.715 -0.905404 -1.28997 0
M  V30 2177 C 223.126 -0.581953 -1.77398 0
M  V30 2178 C 223.477 0.902552 -1.74208 0
M  V30 2179 O 222.602 1.70584 -1.33154 0
M  V30 2180 C 223.197 -1.04961 -3.22131 0
M  V30 2181 C 221.756 -0.777229 -3.68288 0
M  V30 2182 C 220.903 -1.22109 -2.48967 0
M  V30 2183 H 223.854 -1.08754 -1.15578 0
M  V30 2184 H 223.875 -0.387387 -3.78523 0
M  V30 2185 H 223.387 -2.13008 -3.24421 0
M  V30 2186 H 221.488 0.290383 -3.71467 0
M  V30 2187 H 221.601 -1.37911 -4.58822 0
M  V30 2188 H 219.965 -0.639971 -2.46529 0
M  V30 2189 H 220.748 -2.30972 -2.53982 0
M  V30 2190 N 223.193 1.4272 -0.668489 0
M  V30 2191 C 224.442 2.00846 -0.185389 0
M  V30 2192 C 224.755 1.53442 1.21305 0
M  V30 2193 O 225.961 2.03944 1.79218 0
M  V30 2194 C 224.417 3.58805 -0.280591 0
M  V30 2195 C 224.025 4.15198 -1.68268 0
M  V30 2196 C 225.769 4.24255 0.14412 0
M  V30 2197 C 223.676 5.655 -1.73099 0
M  V30 2198 H 222.606 0.751145 -0.0655475 0
M  V30 2199 H 225.257 1.63516 -0.832752 0
M  V30 2200 H 223.639 3.93608 0.434553 0
M  V30 2201 H 224.813 3.91866 -2.42441 0
M  V30 2202 H 223.128 3.62176 -2.05469 0
M  V30 2203 H 225.725 5.34547 0.128086 0
M  V30 2204 H 226.068 3.99277 1.17827 0
M  V30 2205 H 226.601 3.94389 -0.519798 0
M  V30 2206 H 223.34 5.95268 -2.74475 0
M  V30 2207 H 222.86 5.90842 -1.03274 0
M  V30 2208 H 224.539 6.29808 -1.48158 0
M  V30 2209 N 224.671 0.411399 1.52136 0
M  V30 2210 C 225.917 -0.156262 2.02799 0
M  V30 2211 C 226.272 -1.42613 1.29149 0
M  V30 2212 O 225.565 -1.87592 0.389839 0
M  V30 2213 C 225.759 -0.455872 3.54481 0
M  V30 2214 C 225.588 0.783404 4.42824 0
M  V30 2215 C 224.358 1.30928 4.88043 0
M  V30 2216 C 226.556 1.66217 4.86699 0
M  V30 2217 N 224.538 2.5038 5.6052 0
M  V30 2218 C 225.909 2.70292 5.5798 0
M  V30 2219 C 227.964 1.67966 4.68713 0
M  V30 2220 C 226.667 3.7603 6.13184 0
M  V30 2221 C 228.693 2.72624 5.24815 0
M  V30 2222 C 228.055 3.7542 5.9602 0
M  V30 2223 H 224.154 -0.0186886 0.781777 0
M  V30 2224 H 226.738 0.566255 1.86284 0
M  V30 2225 H 224.909 -1.14743 3.71064 0
M  V30 2226 H 226.641 -1.01261 3.91827 0
M  V30 2227 H 223.396 0.866977 4.65597 0
M  V30 2228 H 223.82 3.10881 6.014 0
M  V30 2229 H 228.462 0.898312 4.13147 0
M  V30 2230 H 226.18 4.55019 6.6782 0
M  V30 2231 H 229.766 2.74887 5.12765 0
M  V30 2232 H 228.646 4.55073 6.38654 0
M  V30 2233 N 226.149 -1.5696 0.141893 0
M  V30 2234 C 227.059 -2.20066 -0.812905 0
M  V30 2235 C 228.075 -1.18344 -1.27557 0
M  V30 2236 O 229.251 -1.50902 -1.33381 0
M  V30 2237 C 226.316 -2.80583 -2.03652 0
M  V30 2238 C 225.377 -3.97414 -1.62359 0
M  V30 2239 C 224.61 -4.55036 -2.78887 0
M  V30 2240 O 224.833 -4.11538 -3.94959 0
M  V30 2241 O 223.767 -5.45376 -2.54653 0
M  V30 2242 H 227.593 -3.02157 -0.305746 0
M  V30 2243 H 225.178 -1.49159 -0.0848799 0
M  V30 2244 H 227.06 -3.19067 -2.75272 0
M  V30 2245 H 225.735 -2.01508 -2.5333 0
M  V30 2246 H 224.642 -3.63656 -0.877775 0
M  V30 2247 H 225.975 -4.77994 -1.17401 0
M  V30 2248 N 227.627 0.131896 -1.57047 0
M  V30 2249 C 228.537 1.1815 -2.02676 0
M  V30 2250 C 229.553 1.46113 -0.944824 0
M  V30 2251 O 230.729 1.57485 -1.25541 0
M  V30 2252 C 227.794 2.49139 -2.41103 0
M  V30 2253 C 226.855 2.28688 -3.63318 0
M  V30 2254 C 226.088 3.53431 -3.99903 0
M  V30 2255 O 226.311 4.60223 -3.36973 0
M  V30 2256 O 225.245 3.45198 -4.93074 0
M  V30 2257 H 229.071 0.824069 -2.92306 0
M  V30 2258 H 226.656 0.341745 -1.45439 0
M  V30 2259 H 228.538 3.26338 -2.66611 0
M  V30 2260 H 227.213 2.84382 -1.54624 0
M  V30 2261 H 226.12 1.4939 -3.42977 0
M  V30 2262 H 227.453 1.98355 -4.50462 0
M  V30 2263 N 229.106 1.52395 0.401703 0
M  V30 2264 C 230.038 1.72505 1.50912 0
M  V30 2265 C 231.051 0.605468 1.51122 0
M  V30 2266 O 232.24 0.880828 1.55254 0
M  V30 2267 C 229.34 1.75711 2.89791 0
M  V30 2268 C 228.513 3.04824 3.1369 0
M  V30 2269 C 227.572 2.99743 4.32482 0
M  V30 2270 O 226.598 3.73635 4.29402 0
M  V30 2271 N 227.8 2.18047 5.37992 0
M  V30 2272 H 230.565 2.68049 1.34052 0
M  V30 2273 H 228.126 1.50724 0.591084 0
M  V30 2274 H 230.118 1.69834 3.6734 0
M  V30 2275 H 228.688 0.876092 3.00072 0
M  V30 2276 H 227.908 3.2429 2.24119 0
M  V30 2277 H 229.196 3.90221 3.26504 0
M  V30 2278 H 228.594 1.57456 5.43345 0
M  V30 2279 H 227.151 2.18021 6.14256 0
M  V30 2280 N 230.584 -0.659388 1.43143 0
M  V30 2281 C 231.516 -1.7849 1.43784 0
M  V30 2282 C 232.529 -1.5932 0.334787 0
M  V30 2283 O 233.718 -1.68155 0.598842 0
M  V30 2284 C 230.818 -3.15828 1.22906 0
M  V30 2285 C 229.991 -3.61711 2.45934 0
M  V30 2286 C 229.05 -4.77831 2.20371 0
M  V30 2287 O 228.076 -4.87586 2.93681 0
M  V30 2288 N 229.278 -5.67611 1.21647 0
M  V30 2289 H 232.043 -1.7842 2.40803 0
M  V30 2290 H 229.604 -0.84302 1.3822 0
M  V30 2291 H 231.596 -3.91189 1.03697 0
M  V30 2292 H 230.166 -3.10707 0.343542 0
M  V30 2293 H 229.386 -2.76861 2.80609 0
M  V30 2294 H 230.674 -3.89112 3.27825 0
M  V30 2295 H 230.072 -5.62397 0.610449 0
M  V30 2296 H 228.629 -6.42719 1.08423 0
M  V30 2297 N 232.062 -1.29571 -0.897171 0
M  V30 2298 C 233.302 -1.18959 -1.66217 0
M  V30 2299 C 233.666 0.254271 -1.90309 0
M  V30 2300 O 234.867 0.483407 -2.64417 0
M  V30 2301 C 233.138 -1.98302 -2.9734 0
M  V30 2302 S 234.697 -2.04253 -3.88364 0
M  V30 2303 H 231.515 -0.424137 -0.570639 0
M  V30 2304 H 234.117 -1.6389 -1.06585 0
M  V30 2305 H 232.821 -3.02342 -2.77521 0
M  V30 2306 H 232.352 -1.53986 -3.62011 0
M  V30 2307 H 234.367 -1.16105 -4.82425 0
M  V30 2308 N 233.54 1.10788 -1.12088 0
M  V30 2309 C 234.45 2.20599 -0.798338 0
M  V30 2310 C 235.466 1.72712 0.21135 0
M  V30 2311 O 236.642 2.01348 0.0458477 0
M  V30 2312 C 233.707 3.45771 -0.253674 0
M  V30 2313 C 232.768 4.08411 -1.32283 0
M  V30 2314 C 232.001 5.27608 -0.80406 0
M  V30 2315 O 232.224 5.69241 0.363478 0
M  V30 2316 O 231.158 5.8101 -1.57198 0
M  V30 2317 H 234.984 2.50614 -1.7154 0
M  V30 2318 H 232.569 1.19454 -0.897275 0
M  V30 2319 H 234.451 4.21376 0.0453691 0
M  V30 2320 H 233.126 3.1739 0.636005 0
M  V30 2321 H 232.033 3.34507 -1.67499 0
M  V30 2322 H 233.366 4.40986 -2.18614 0
M  V30 2323 N 235.018 0.912232 1.28515 0
M  V30 2324 C 236.264 0.545405 1.95328 0
M  V30 2325 C 236.597 -0.908313 1.71649 0
M  V30 2326 O 235.872 -1.64575 1.03659 0
M  V30 2327 C 236.155 0.853483 3.4984 0
M  V30 2328 C 236.008 2.35982 3.82926 0
M  V30 2329 C 237.327 0.348589 4.38717 0
M  V30 2330 H 234.446 0.199626 0.709449 0
M  V30 2331 H 237.088 1.1412 1.5191 0
M  V30 2332 H 235.238 0.34643 3.86952 0
M  V30 2333 H 236.91 2.93738 3.55691 0
M  V30 2334 H 235.153 2.81543 3.30024 0
M  V30 2335 H 235.824 2.52593 4.90816 0
M  V30 2336 H 238.3 0.78294 4.08668 0
M  V30 2337 H 237.176 0.593242 5.45685 0
M  V30 2338 H 237.437 -0.751049 4.35674 0
M  V30 2339 N 236.496 -1.42363 0.676048 0
M  V30 2340 C 237.443 -2.308 -0.00150904 0
M  V30 2341 C 238.413 -1.46032 -0.791444 0
M  V30 2342 O 239.598 -1.74861 -0.76344 0
M  V30 2343 C 236.738 -3.31883 -0.945919 0
M  V30 2344 C 235.851 -4.31741 -0.149675 0
M  V30 2345 C 234.986 -5.19898 -1.08995 0
M  V30 2346 C 234.025 -6.11434 -0.285465 0
M  V30 2347 N 233.162 -6.92138 -1.17851 0
M  V30 2348 H 238.002 -2.88187 0.758455 0
M  V30 2349 H 235.539 -1.41952 0.38576 0
M  V30 2350 H 237.497 -3.89019 -1.50731 0
M  V30 2351 H 236.127 -2.76093 -1.6725 0
M  V30 2352 H 235.179 -3.76713 0.528359 0
M  V30 2353 H 236.491 -4.96534 0.474866 0
M  V30 2354 H 235.645 -5.81772 -1.72123 0
M  V30 2355 H 234.384 -4.55284 -1.74837 0
M  V30 2356 H 233.389 -5.48627 0.359018 0
M  V30 2357 H 234.614 -6.78097 0.368883 0
M  V30 2358 H 232.56 -6.30152 -1.82332 0
M  V30 2359 H 232.477 -7.53542 -0.609082 0
M  V30 2360 H 233.745 -7.58499 -1.79722 0
M  V30 2361 N 237.974 -0.419461 -1.51915 0
M  V30 2362 C 238.937 0.389116 -2.25873 0
M  V30 2363 C 239.937 0.964924 -1.28631 0
M  V30 2364 O 241.127 0.842179 -1.52489 0
M  V30 2365 C 238.259 1.54874 -3.03689 0
M  V30 2366 H 239.452 -0.258799 -2.98781 0
M  V30 2367 H 237.005 -0.172209 -1.55348 0
M  V30 2368 H 237.74 2.23323 -2.35154 0
M  V30 2369 H 237.525 1.14223 -3.75094 0
M  V30 2370 H 239.015 2.12046 -3.59759 0
M  V30 2371 N 239.452 1.56882 -0.150215 0
M  V30 2372 C 240.729 1.87844 0.545327 0
M  V30 2373 C 241.109 1.0567 1.82749 0
M  V30 2374 O 240.457 0.144442 2.28043 0
M  V30 2375 C 240.667 3.39526 0.80767 0
M  V30 2376 C 242.015 4.08814 1.14703 0
M  V30 2377 O 243.039 3.44723 0.896917 0
M  V30 2378 O 241.898 5.22004 1.61784 0
M  V30 2379 H 238.992 0.778677 0.278553 0
M  V30 2380 H 241.538 1.68666 -0.187068 0
M  V30 2381 H 240.31 3.91173 -0.0996096 0
M  V30 2382 H 239.933 3.64243 1.59413 0
M  V30 2383 N 240.93 -0.123565 1.57115 0
M  V30 2384 C 242.178 -0.83051 1.84247 0
M  V30 2385 C 242.499 -1.80629 0.73471 0
M  V30 2386 O 241.769 -1.94403 -0.241688 0
M  V30 2387 H 240.349 -0.309694 0.679778 0
M  V30 2388 H 243.011 -0.111976 1.94578 0
M  V30 2389 H 242.107 -1.37852 2.80006 0
M  V30 2390 N 242.408 -1.52605 -0.393616 0
M  V30 2391 C 243.655 -1.67424 -1.1391 0
M  V30 2392 C 243.983 -0.411859 -1.90089 0
M  V30 2393 O 243.238 0.605626 -1.86093 0
M  V30 2394 C 243.537 -2.85721 -2.14705 0
M  V30 2395 C 243.203 -4.23342 -1.55218 0
M  V30 2396 C 241.865 -4.60771 -1.3872 0
M  V30 2397 C 244.217 -5.09041 -1.11924 0
M  V30 2398 C 241.545 -5.81563 -0.774689 0
M  V30 2399 C 243.897 -6.30452 -0.520853 0
M  V30 2400 C 242.561 -6.66617 -0.343134 0
M  V30 2401 H 241.831 -0.612648 -0.416826 0
M  V30 2402 H 244.478 -1.8674 -0.424315 0
M  V30 2403 H 242.783 -2.60803 -2.92385 0
M  V30 2404 H 244.48 -2.94382 -2.72288 0
M  V30 2405 H 241.07 -3.93855 -1.69045 0
M  V30 2406 H 245.254 -4.80695 -1.23473 0
M  V30 2407 H 240.51 -6.08196 -0.625154 0
M  V30 2408 H 244.684 -6.96175 -0.177065 0
M  V30 2409 H 242.311 -7.60083 0.133571 0
M  V30 2410 N 243.887 0.651787 -1.4349 0
M  V30 2411 C 244.817 1.77621 -1.51569 0
M  V30 2412 C 245.798 1.66022 -0.370253 0
M  V30 2413 O 246.983 1.85095 -0.587658 0
M  V30 2414 C 244.113 3.16056 -1.43966 0
M  V30 2415 C 243.067 3.4242 -2.56774 0
M  V30 2416 C 242.393 4.8067 -2.34223 0
M  V30 2417 C 243.693 3.37023 -3.99015 0
M  V30 2418 H 245.387 1.71117 -2.45681 0
M  V30 2419 H 242.933 0.821825 -1.18246 0
M  V30 2420 H 244.886 3.94472 -1.48221 0
M  V30 2421 H 243.61 3.23293 -0.463586 0
M  V30 2422 H 242.269 2.66375 -2.51873 0
M  V30 2423 H 241.917 4.84585 -1.34856 0
M  V30 2424 H 241.617 4.9927 -3.09844 0
M  V30 2425 H 243.141 5.61342 -2.40265 0
M  V30 2426 H 244.555 4.05374 -4.05395 0
M  V30 2427 H 242.952 3.67159 -4.74673 0
M  V30 2428 H 244.022 2.3518 -4.2405 0
M  V30 2429 N 245.365 1.30045 0.890287 0
M  V30 2430 C 246.605 1.19839 1.65584 0
M  V30 2431 C 246.969 -0.244175 1.90441 0
M  V30 2432 O 248.17 -0.469378 2.6467 0
M  V30 2433 C 246.441 1.99876 2.96284 0
M  V30 2434 S 248 2.06309 3.87275 0
M  V30 2435 H 244.818 0.427157 0.568382 0
M  V30 2436 H 247.42 1.64453 1.05715 0
M  V30 2437 H 246.124 3.03809 2.75913 0
M  V30 2438 H 245.655 1.55903 3.61189 0
M  V30 2439 H 247.67 1.18661 4.81803 0
M  V30 2440 N 246.843 -1.10192 1.12674 0
M  V30 2441 C 247.753 -2.20172 0.810026 0
M  V30 2442 C 248.769 -1.72821 -0.202188 0
M  V30 2443 O 249.945 -2.01369 -0.0351691 0
M  V30 2444 C 247.01 -3.45631 0.272007 0
M  V30 2445 C 246.071 -4.07704 1.34447 0
M  V30 2446 C 245.304 -5.27175 0.832029 0
M  V30 2447 O 245.527 -5.69425 -0.333284 0
M  V30 2448 O 244.461 -5.80168 1.60277 0
M  V30 2449 H 248.287 -2.49701 1.72867 0
M  V30 2450 H 245.872 -1.18977 0.903597 0
M  V30 2451 H 247.754 -4.21394 -0.0230219 0
M  V30 2452 H 246.429 -3.17723 -0.619164 0
M  V30 2453 H 245.336 -3.33614 1.6927 0
M  V30 2454 H 246.669 -4.3982 2.2095 0
M  V30 2455 N 248.321 -0.919034 -1.28029 0
M  V30 2456 C 249.568 -0.554934 -1.94748 0
M  V30 2457 C 249.896 0.90231 -1.72304 0
M  V30 2458 O 249.151 1.65767 -1.04018 0
M  V30 2459 C 249.45 -0.816855 -3.4794 0
M  V30 2460 C 249.116 -2.25448 -3.90492 0
M  V30 2461 C 247.778 -2.64752 -4.01821 0
M  V30 2462 C 250.13 -3.18977 -4.12193 0
M  V30 2463 C 247.458 -3.96727 -4.32232 0
M  V30 2464 C 249.81 -4.50523 -4.44086 0
M  V30 2465 C 248.474 -4.89673 -4.53626 0
M  V30 2466 H 247.744 -0.203065 -0.712633 0
M  V30 2467 H 250.391 -1.16136 -1.52265 0
M  V30 2468 H 248.696 -0.127677 -3.91592 0
M  V30 2469 H 250.393 -0.514238 -3.97689 0
M  V30 2470 H 246.983 -1.93952 -3.82205 0
M  V30 2471 H 251.167 -2.89817 -4.02889 0
M  V30 2472 H 246.423 -4.26754 -4.37825 0
M  V30 2473 H 250.597 -5.23005 -4.59825 0
M  V30 2474 H 248.224 -5.91969 -4.76946 0
M  V30 2475 N 249.799 1.42003 -0.683588 0
M  V30 2476 C 250.749 2.27997 0.0121992 0
M  V30 2477 C 251.733 1.4156 0.764822 0
M  V30 2478 O 252.925 1.64935 0.642287 0
M  V30 2479 C 250.054 3.29706 0.956482 0
M  V30 2480 C 249.14 4.23625 0.200739 0
M  V30 2481 N 249.531 4.99448 -0.799087 0
M  V30 2482 C 247.829 4.43845 0.437937 0
M  V30 2483 C 248.53 5.68102 -1.25041 0
M  V30 2484 N 247.506 5.40511 -0.578648 0
M  V30 2485 H 251.308 2.84048 -0.754564 0
M  V30 2486 H 248.822 1.54071 -0.513398 0
M  V30 2487 H 250.819 3.90124 1.47 0
M  V30 2488 H 249.479 2.75216 1.72297 0
M  V30 2489 H 250.49 5.04303 -1.17893 0
M  V30 2490 H 247.167 4.00382 1.18325 0
M  V30 2491 H 248.557 6.38913 -2.07942 0
M  V30 2492 N 251.277 0.427512 1.51691 0
M  V30 2493 C 252.524 -0.142229 2.02 0
M  V30 2494 C 252.852 -1.43566 1.31221 0
M  V30 2495 O 252.107 -1.91298 0.412744 0
M  V30 2496 C 252.406 -0.418249 3.54944 0
M  V30 2497 C 252.072 0.788187 4.43958 0
M  V30 2498 C 250.734 1.11906 4.68007 0
M  V30 2499 C 253.086 1.59347 4.96244 0
M  V30 2500 C 250.414 2.25608 5.41588 0
M  V30 2501 C 252.766 2.7214 5.71072 0
M  V30 2502 C 251.43 3.05692 5.93387 0
M  V30 2503 H 250.7 -0.0520451 0.73917 0
M  V30 2504 H 253.347 0.572697 1.82736 0
M  V30 2505 H 251.652 -1.21496 3.72486 0
M  V30 2506 H 253.349 -0.872339 3.91397 0
M  V30 2507 H 249.939 0.520344 4.2543 0
M  V30 2508 H 254.123 1.35106 4.77556 0
M  V30 2509 H 249.379 2.51929 5.57083 0
M  V30 2510 H 253.553 3.34914 6.10578 0
M  V30 2511 H 251.18 3.9391 6.50184 0
M  V30 2512 N 252.755 -1.56801 0.158532 0
M  V30 2513 C 254.166 -1.83189 -0.360366 0
M  V30 2514 C 254.517 -1.07778 -1.63946 0
M  V30 2515 O 253.642 -0.326718 -2.13919 0
M  V30 2516 C 254.237 -3.32297 -0.660595 0
M  V30 2517 C 252.796 -3.59227 -1.12398 0
M  V30 2518 C 251.943 -2.76877 -0.153097 0
M  V30 2519 H 254.894 -1.54008 0.383031 0
M  V30 2520 H 254.915 -3.4908 -1.51405 0
M  V30 2521 H 254.427 -3.87156 0.270527 0
M  V30 2522 H 252.528 -3.09766 -2.07064 0
M  V30 2523 H 252.641 -4.67632 -1.04197 0
M  V30 2524 H 251.005 -2.46319 -0.647983 0
M  V30 2525 H 251.788 -3.34511 0.77182 0
M  V30 2526 N 254.233 0.115231 -1.57178 0
M  V30 2527 C 255.196 1.12526 -1.99676 0
M  V30 2528 C 256.196 1.34095 -0.88742 0
M  V30 2529 O 257.386 1.30548 -1.15337 0
M  V30 2530 C 254.518 2.4789 -2.34015 0
M  V30 2531 H 255.711 0.759912 -2.90113 0
M  V30 2532 H 253.264 0.359648 -1.52106 0
M  V30 2533 H 253.999 2.89339 -1.4647 0
M  V30 2534 H 253.784 2.33588 -3.14927 0
M  V30 2535 H 255.274 3.20575 -2.67622 0
M  V30 2536 N 255.711 1.52812 0.385517 0
M  V30 2537 C 256.939 1.71907 1.15133 0
M  V30 2538 C 257.354 0.439004 1.83625 0
M  V30 2539 O 256.711 -0.586765 1.7281 0
M  V30 2540 C 256.762 2.87099 2.19673 0
M  V30 2541 O 256.483 4.10151 1.53973 0
M  V30 2542 C 257.984 3.17902 3.08955 0
M  V30 2543 H 255.204 0.575479 0.345057 0
M  V30 2544 H 257.748 1.99476 0.45052 0
M  V30 2545 H 255.903 2.61982 2.85384 0
M  V30 2546 H 256.317 4.74514 2.23465 0
M  V30 2547 H 257.791 4.01959 3.7833 0
M  V30 2548 H 258.268 2.3243 3.72657 0
M  V30 2549 H 258.874 3.44871 2.48885 0
M  V30 2550 N 257.189 -0.644168 1.43834 0
M  V30 2551 C 258.429 -1.41565 1.47441 0
M  V30 2552 C 258.793 -1.91743 0.0992723 0
M  V30 2553 O 259.994 -2.68798 0.0100192 0
M  V30 2554 C 258.265 -2.55902 2.49498 0
M  V30 2555 S 259.824 -3.44287 2.72051 0
M  V30 2556 H 256.642 -0.483118 0.521649 0
M  V30 2557 H 259.244 -0.747008 1.80666 0
M  V30 2558 H 257.948 -2.17327 3.48134 0
M  V30 2559 H 257.479 -3.27607 2.17801 0
M  V30 2560 H 259.494 -4.52927 2.0266 0
M  V30 2561 N 258.668 -1.30515 -0.883378 0
M  V30 2562 C 260.084 -1.08881 -1.16692 0
M  V30 2563 C 260.284 0.149409 -2.00945 0
M  V30 2564 O 259.34 0.84257 -2.38027 0
M  V30 2565 C 260.653 -2.35319 -1.87204 0
M  V30 2566 C 262.201 -2.40799 -1.99962 0
M  V30 2567 C 262.676 -3.67083 -2.73887 0
M  V30 2568 N 264.167 -3.679 -2.81432 0
M  V30 2569 C 264.902 -4.62303 -3.3921 0
M  V30 2570 N 264.398 -5.67052 -3.98025 0
M  V30 2571 N 266.191 -4.49845 -3.3704 0
M  V30 2572 H 258.342 -2.09951 -0.321633 0
M  V30 2573 H 260.605 -0.92556 -0.205043 0
M  V30 2574 H 260.311 -3.25689 -1.3274 0
M  V30 2575 H 260.185 -2.44089 -2.87577 0
M  V30 2576 H 262.572 -1.50907 -2.53597 0
M  V30 2577 H 262.653 -2.36003 -0.98673 0
M  V30 2578 H 262.297 -4.57334 -2.20925 0
M  V30 2579 H 262.227 -3.69141 -3.75556 0
M  V30 2580 H 264.718 -2.92171 -2.39676 0
M  V30 2581 H 265.031 -6.35184 -4.40183 0
M  V30 2582 H 263.376 -5.70842 -3.96439 0
M  V30 2583 H 266.567 -3.67194 -2.90321 0
M  V30 2584 H 266.74 -5.23597 -3.81772 0
M  V30 2585 N 260.146 1.09593 -1.13257 0
M  V30 2586 C 261.557 1.63229 -0.906274 0
M  V30 2587 C 261.908 1.8811 0.557578 0
M  V30 2588 O 261.033 1.62953 1.42391 0
M  V30 2589 C 261.628 2.96535 -1.63867 0
M  V30 2590 C 260.187 3.47003 -1.45828 0
M  V30 2591 C 259.334 2.2145 -1.66898 0
M  V30 2592 H 262.285 0.92978 -1.28611 0
M  V30 2593 H 262.306 3.64411 -1.09476 0
M  V30 2594 H 261.818 2.78394 -2.70404 0
M  V30 2595 H 259.919 3.70272 -0.415848 0
M  V30 2596 H 260.032 4.24551 -2.2202 0
M  V30 2597 H 258.396 2.30022 -1.09371 0
M  V30 2598 H 259.179 2.0583 -2.74752 0
M  V30 2599 N 261.624 0.925811 1.2754 0
M  V30 2600 C 262.554 0.440748 2.29303 0
M  V30 2601 C 263.535 -0.497971 1.62648 0
M  V30 2602 O 264.72 -0.403126 1.8997 0
M  V30 2603 C 261.85 -0.309048 3.45922 0
M  V30 2604 C 260.804 0.54166 4.24559 0
M  V30 2605 C 260.13 -0.337191 5.33636 0
M  V30 2606 C 261.43 1.80516 4.90114 0
M  V30 2607 H 263.124 1.29121 2.70126 0
M  V30 2608 H 260.67 0.622323 1.29858 0
M  V30 2609 H 262.623 -0.659315 4.1621 0
M  V30 2610 H 261.347 -1.19352 3.04011 0
M  V30 2611 H 260.006 0.874609 3.56014 0
M  V30 2612 H 259.654 -1.22056 4.87966 0
M  V30 2613 H 259.354 0.228497 5.87156 0
M  V30 2614 H 260.878 -0.683072 6.06767 0
M  V30 2615 H 262.292 1.52307 5.52698 0
M  V30 2616 H 260.689 2.3142 5.53683 0
M  V30 2617 H 261.759 2.52581 4.13921 0
M  V30 2618 N 263.102 -1.41638 0.69111 0
M  V30 2619 C 264.065 -2.29178 0.0319786 0
M  V30 2620 C 265.065 -1.44153 -0.712496 0
M  V30 2621 O 266.255 -1.65354 -0.548053 0
M  V30 2622 C 263.387 -3.26952 -0.965161 0
M  V30 2623 H 264.58 -2.88959 0.802681 0
M  V30 2624 H 262.133 -1.4955 0.454356 0
M  V30 2625 H 262.868 -2.72142 -1.76378 0
M  V30 2626 H 262.653 -3.89685 -0.434522 0
M  V30 2627 H 264.143 -3.92561 -1.42428 0
M  V30 2628 N 264.58 -0.43555 -1.51462 0
M  V30 2629 C 265.826 0.131709 -2.02372 0
M  V30 2630 C 266.159 1.42516 -1.3192 0
M  V30 2631 O 265.434 1.89606 -0.433573 0
M  V30 2632 C 265.717 0.352301 -3.58373 0
M  V30 2633 C 265.57 -0.959676 -4.39443 0
M  V30 2634 C 266.889 1.12286 -4.25535 0
M  V30 2635 H 264.008 0.0463936 -0.735538 0
M  V30 2636 H 266.65 -0.574197 -1.81116 0
M  V30 2637 H 264.8 0.9536 -3.76615 0
M  V30 2638 H 266.472 -1.59482 -4.32855 0
M  V30 2639 H 264.715 -1.56468 -4.04599 0
M  V30 2640 H 265.386 -0.759394 -5.46752 0
M  V30 2641 H 267.862 0.613545 -4.11552 0
M  V30 2642 H 266.738 1.24598 -5.34571 0
M  V30 2643 H 266.999 2.15048 -3.86273 0
M  V30 2644 N 266.058 1.56714 -0.166846 0
M  V30 2645 C 266.968 2.21331 0.777791 0
M  V30 2646 C 267.984 1.20358 1.25658 0
M  V30 2647 O 269.16 1.53005 1.30964 0
M  V30 2648 C 266.225 2.83787 1.99163 0
M  V30 2649 C 265.286 3.99947 1.56016 0
M  V30 2650 C 264.519 4.59415 2.71613 0
M  V30 2651 O 264.742 4.17769 3.88362 0
M  V30 2652 O 263.676 5.49359 2.45945 0
M  V30 2653 H 267.502 3.02605 0.257636 0
M  V30 2654 H 265.087 1.49275 0.0611393 0
M  V30 2655 H 266.969 3.23405 2.70161 0
M  V30 2656 H 265.644 2.05513 2.50092 0
M  V30 2657 H 264.551 3.65007 0.819809 0
M  V30 2658 H 265.884 4.79801 1.09782 0
M  V30 2659 N 267.536 -0.106894 1.57237 0
M  V30 2660 C 268.947 -0.662723 1.74542 0
M  V30 2661 C 269.298 -1.7971 0.787319 0
M  V30 2662 O 268.423 -2.16368 -0.0369636 0
M  V30 2663 C 269.018 -1.20896 3.16496 0
M  V30 2664 C 267.577 -1.71096 3.35266 0
M  V30 2665 C 266.724 -0.615642 2.7038 0
M  V30 2666 H 269.675 0.119106 1.58252 0
M  V30 2667 H 269.696 -2.07847 3.18716 0
M  V30 2668 H 269.208 -0.383122 3.86204 0
M  V30 2669 H 267.309 -2.56119 2.70618 0
M  V30 2670 H 267.422 -1.81208 4.43509 0
M  V30 2671 H 265.786 -1.05222 2.31949 0
M  V30 2672 H 266.569 0.199419 3.4272 0
M  V30 2673 N 269.014 -1.53014 -0.377408 0
M  V30 2674 C 270.262 -1.6829 -1.11906 0
M  V30 2675 C 270.583 -0.431206 -1.90173 0
M  V30 2676 O 269.853 0.554595 -1.87886 0
M  V30 2677 H 268.433 -0.620371 -0.416112 0
M  V30 2678 H 271.095 -1.90167 -0.426893 0
M  V30 2679 H 270.191 -2.53862 -1.8155 0
M  V30 2680 N 270.492 0.636531 -1.44174 0
M  V30 2681 C 271.455 1.73063 -1.50273 0
M  V30 2682 C 272.455 1.56113 -0.385397 0
M  V30 2683 O 273.645 1.61707 -0.64781 0
M  V30 2684 C 270.777 3.12096 -1.37145 0
M  V30 2685 H 271.97 1.69031 -2.47727 0
M  V30 2686 H 269.523 0.849706 -1.31186 0
M  V30 2687 H 270.258 3.21728 -0.407636 0
M  V30 2688 H 270.043 3.25805 -2.18159 0
M  V30 2689 H 271.533 3.91846 -1.44382 0
M  V30 2690 N 271.97 1.30982 0.876444 0
M  V30 2691 C 272.933 1.18054 1.96459 0
M  V30 2692 C 273.933 0.109399 1.60427 0
M  V30 2693 O 275.123 0.358173 1.70478 0
M  V30 2694 C 272.255 0.810616 3.31122 0
M  V30 2695 H 273.448 2.14735 2.09354 0
M  V30 2696 H 271.001 1.145 1.06392 0
M  V30 2697 H 271.736 -0.155322 3.23928 0
M  V30 2698 H 271.521 1.58481 3.58645 0
M  V30 2699 H 273.011 0.743876 4.10921 0
M  V30 2700 N 273.449 -1.08991 1.13837 0
M  V30 2701 C 274.412 -2.13925 0.822715 0
M  V30 2702 C 275.412 -1.599 -0.1699 0
M  V30 2703 O 276.602 -1.74104 0.0577251 0
M  V30 2704 C 273.734 -3.40155 0.225318 0
M  V30 2705 H 274.927 -2.43358 1.75262 0
M  V30 2706 H 272.48 -1.24603 0.943594 0
M  V30 2707 H 273.215 -3.16352 -0.713594 0
M  V30 2708 H 273 -3.80661 0.940193 0
M  V30 2709 H 274.49 -4.17594 0.0214784 0
M  V30 2710 N 274.927 -0.932562 -1.27047 0
M  V30 2711 C 275.89 -0.440064 -2.24936 0
M  V30 2712 C 276.89 0.444071 -1.54547 0
M  V30 2713 O 278.08 0.244465 -1.72476 0
M  V30 2714 C 275.212 0.36678 -3.38921 0
M  V30 2715 H 276.405 -1.305 -2.70018 0
M  V30 2716 H 273.958 -0.713707 -1.39054 0
M  V30 2717 H 274.693 1.25033 -2.99228 0
M  V30 2718 H 274.478 -0.267204 -3.91188 0
M  V30 2719 H 275.968 0.701567 -4.11665 0
M  V30 2720 N 276.405 1.4127 -0.698611 0
M  V30 2721 C 277.368 2.29158 -0.044132 0
M  V30 2722 C 278.368 1.44529 0.704841 0
M  V30 2723 O 279.558 1.65643 0.539276 0
M  V30 2724 C 276.69 3.27459 0.947809 0
M  V30 2725 H 277.883 2.88529 -0.817994 0
M  V30 2726 H 275.436 1.49307 -0.46228 0
M  V30 2727 H 276.171 2.73073 1.74933 0
M  V30 2728 H 275.956 3.8991 0.41385 0
M  V30 2729 H 277.446 3.93311 1.40344 0
M  V30 2730 N 277.883 0.443576 1.51229 0
M  V30 2731 C 279.129 -0.120975 2.02439 0
M  V30 2732 C 279.462 -1.41815 1.32674 0
M  V30 2733 O 278.737 -1.89373 0.443622 0
M  V30 2734 C 279.02 -0.333291 3.58554 0
M  V30 2735 C 278.873 0.982968 4.38928 0
M  V30 2736 C 280.192 -1.10028 4.26124 0
M  V30 2737 H 277.311 -0.0424923 0.735774 0
M  V30 2738 H 279.953 0.583794 1.80809 0
M  V30 2739 H 278.103 -0.933614 3.77115 0
M  V30 2740 H 279.775 1.61775 4.32003 0
M  V30 2741 H 278.018 1.58611 4.03763 0
M  V30 2742 H 278.689 0.788379 5.46341 0
M  V30 2743 H 281.165 -0.591711 4.11871 0
M  V30 2744 H 280.041 -1.21761 5.35225 0
M  V30 2745 H 280.302 -2.12996 3.87408 0
M  V30 2746 N 279.361 -1.56624 0.175154 0
M  V30 2747 C 280.586 -2.01813 -0.478137 0
M  V30 2748 C 281.011 -1.05457 -1.55757 0
M  V30 2749 O 280.369 -0.0347439 -1.81267 0
M  V30 2750 C 280.417 -3.45581 -1.02987 0
M  V30 2751 O 279.521 -3.52305 -2.14371 0
M  V30 2752 H 278.862 -0.65413 -0.114059 0
M  V30 2753 H 281.392 -2.02673 0.280173 0
M  V30 2754 H 281.402 -3.84965 -1.35151 0
M  V30 2755 H 280.077 -4.1521 -0.239556 0
M  V30 2756 H 278.654 -3.24783 -1.83222 0
M  V30 2757 N 280.839 0.0985539 -1.57292 0
M  V30 2758 C 282.088 0.801358 -1.85098 0
M  V30 2759 C 282.401 1.80066 -0.763902 0
M  V30 2760 O 283.607 2.55112 -0.928981 0
M  V30 2761 C 282.063 1.47599 -3.28242 0
M  V30 2762 C 281.671 0.516624 -4.45011 0
M  V30 2763 C 283.415 2.16272 -3.65276 0
M  V30 2764 C 281.322 1.19564 -5.79188 0
M  V30 2765 H 280.252 0.303022 -0.69043 0
M  V30 2766 H 282.903 0.0542623 -1.8342 0
M  V30 2767 H 281.285 2.27042 -3.2445 0
M  V30 2768 H 282.459 -0.246065 -4.60143 0
M  V30 2769 H 280.774 -0.064227 -4.1635 0
M  V30 2770 H 283.371 2.67802 -4.62803 0
M  V30 2771 H 283.714 2.95009 -2.93727 0
M  V30 2772 H 284.247 1.43693 -3.70941 0
M  V30 2773 H 280.986 0.449157 -6.53959 0
M  V30 2774 H 280.506 1.92984 -5.67906 0
M  V30 2775 H 282.185 1.7231 -6.23633 0
M  V30 2776 N 282.317 1.53212 0.369288 0
M  V30 2777 C 283.545 1.73119 1.13303 0
M  V30 2778 C 283.96 0.458455 1.83149 0
M  V30 2779 O 283.317 -0.568403 1.73423 0
M  V30 2780 C 283.368 2.89413 2.16616 0
M  V30 2781 O 283.089 4.11761 1.49614 0
M  V30 2782 C 284.59 3.21161 3.05566 0
M  V30 2783 H 281.81 0.579107 0.338934 0
M  V30 2784 H 284.354 1.99942 0.429338 0
M  V30 2785 H 282.509 2.64994 2.82589 0
M  V30 2786 H 282.923 4.76858 2.18419 0
M  V30 2787 H 284.397 4.05949 3.74045 0
M  V30 2788 H 284.874 2.36369 3.70171 0
M  V30 2789 H 285.48 3.47492 2.45213 0
M  V30 2790 N 283.795 -0.628877 1.44509 0
M  V30 2791 C 285.025 -1.41349 1.50678 0
M  V30 2792 C 285.433 -1.88745 0.131075 0
M  V30 2793 O 284.776 -1.61592 -0.87371 0
M  V30 2794 C 284.838 -2.66608 2.41165 0
M  V30 2795 C 284.502 -2.40993 3.88293 0
M  V30 2796 C 285.499 -2.0268 4.78766 0
M  V30 2797 C 283.184 -2.54563 4.33016 0
M  V30 2798 C 285.178 -1.78269 6.11963 0
M  V30 2799 C 282.865 -2.29766 5.6626 0
M  V30 2800 C 283.863 -1.91678 6.55552 0
M  V30 2801 O 283.551 -1.67158 7.86329 0
M  V30 2802 H 283.283 -0.439851 0.51333 0
M  V30 2803 H 285.837 -0.776084 1.90174 0
M  V30 2804 H 284.067 -3.32994 1.96601 0
M  V30 2805 H 285.756 -3.28615 2.38259 0
M  V30 2806 H 286.522 -1.91751 4.45485 0
M  V30 2807 H 282.401 -2.83179 3.63773 0
M  V30 2808 H 285.945 -1.48465 6.81619 0
M  V30 2809 H 281.842 -2.40306 5.99102 0
M  V30 2810 H 282.61 -1.81386 7.98149 0
M  V30 2811 N 285.273 -1.31445 -0.869486 0
M  V30 2812 C 286.521 -1.20918 -1.61936 0
M  V30 2813 C 286.842 0.232683 -1.93607 0
M  V30 2814 O 286.112 1.15352 -1.58338 0
M  V30 2815 H 284.692 -0.44454 -0.600328 0
M  V30 2816 H 287.354 -1.64776 -1.0409 0
M  V30 2817 H 286.45 -1.78124 -2.56278 0
M  V30 2818 N 286.751 1.08385 -1.14413 0
M  V30 2819 C 287.979 1.84517 -0.936001 0
M  V30 2820 C 288.394 1.81626 0.515503 0
M  V30 2821 O 287.751 1.22008 1.35721 0
M  V30 2822 C 287.802 3.32049 -1.42918 0
M  V30 2823 O 287.523 3.34951 -2.82381 0
M  V30 2824 C 289.024 4.24986 -1.26103 0
M  V30 2825 H 286.244 0.582491 -0.333084 0
M  V30 2826 H 288.788 1.36885 -1.5193 0
M  V30 2827 H 286.943 3.7707 -0.888641 0
M  V30 2828 H 287.357 4.27048 -3.04517 0
M  V30 2829 H 288.831 5.26615 -1.6547 0
M  V30 2830 H 289.308 4.38726 -0.20392 0
M  V30 2831 H 289.914 3.85791 -1.79012 0
M  V30 2832 N 288.23 0.939286 1.26551 0
M  V30 2833 C 289.641 0.628782 1.75793 0
M  V30 2834 C 289.992 -0.856046 1.7654 0
M  V30 2835 O 289.117 -1.66994 1.3763 0
M  V30 2836 C 289.712 1.13465 3.19235 0
M  V30 2837 C 288.271 0.874601 3.66098 0
M  V30 2838 C 287.418 1.28667 2.45642 0
M  V30 2839 H 290.369 1.1178 1.12654 0
M  V30 2840 H 290.39 0.487609 3.77363 0
M  V30 2841 H 289.902 2.21535 3.1866 0
M  V30 2842 H 288.003 -0.191793 3.72106 0
M  V30 2843 H 288.116 1.50028 4.55004 0
M  V30 2844 H 286.48 0.705109 2.44745 0
M  V30 2845 H 287.263 2.37625 2.47769 0
M  V30 2846 N 289.708 -1.40897 0.706093 0
M  V30 2847 C 290.955 -2.01054 0.241531 0
M  V30 2848 C 291.283 -1.55956 -1.16223 0
M  V30 2849 O 290.538 -0.766336 -1.80072 0
M  V30 2850 C 290.837 -3.5646 0.259099 0
M  V30 2851 C 290.503 -4.21106 1.61184 0
M  V30 2852 C 289.165 -4.38479 1.98216 0
M  V30 2853 C 291.517 -4.57256 2.50132 0
M  V30 2854 C 288.845 -4.89282 3.2376 0
M  V30 2855 C 291.197 -5.09454 3.7502 0
M  V30 2856 C 289.861 -5.25037 4.12181 0
M  V30 2857 H 289.131 -0.73571 0.0883825 0
M  V30 2858 H 291.778 -1.68645 0.907257 0
M  V30 2859 H 290.083 -3.88721 -0.490189 0
M  V30 2860 H 291.78 -4.00826 -0.11804 0
M  V30 2861 H 288.37 -4.07966 1.31384 0
M  V30 2862 H 292.554 -4.43479 2.228 0
M  V30 2863 H 287.81 -4.99531 3.52532 0
M  V30 2864 H 291.984 -5.36404 4.44121 0
M  V30 2865 H 289.611 -5.64164 5.09532 0
M  V30 2866 N 291.186 -0.45159 -1.50991 0
M  V30 2867 C 292.149 0.341117 -2.26647 0
M  V30 2868 C 293.149 0.937422 -1.30649 0
M  V30 2869 O 294.339 0.809644 -1.54241 0
M  V30 2870 C 291.471 1.48398 -3.06905 0
M  V30 2871 H 292.664 -0.322117 -2.98165 0
M  V30 2872 H 290.217 -0.205122 -1.54948 0
M  V30 2873 H 290.952 2.18284 -2.39838 0
M  V30 2874 H 290.737 1.06241 -3.77432 0
M  V30 2875 H 292.227 2.04367 -3.64176 0
M  V30 2876 N 292.664 1.56529 -0.183458 0
M  V30 2877 C 293.627 2.17324 0.728223 0
M  V30 2878 C 294.627 1.12453 1.14939 0
M  V30 2879 O 295.817 1.37902 1.06437 0
M  V30 2880 C 292.949 2.76591 1.99274 0
M  V30 2881 H 294.142 2.99241 0.198772 0
M  V30 2882 H 291.695 1.5616 0.0661391 0
M  V30 2883 H 292.43 1.98441 2.56499 0
M  V30 2884 H 292.215 3.5335 1.69959 0
M  V30 2885 H 293.705 3.23311 2.6431 0
M  V30 2886 N 294.142 -0.090211 1.57342 0
M  V30 2887 C 295.558 -0.444547 1.53284 0
M  V30 2888 C 295.758 -1.80238 0.900914 0
M  V30 2889 O 294.814 -2.4759 0.495513 0
M  V30 2890 C 296.127 -0.402543 2.97993 0
M  V30 2891 C 297.675 -0.48405 3.09234 0
M  V30 2892 C 298.15 -0.472144 4.5556 0
M  V30 2893 N 299.641 -0.532757 4.60126 0
M  V30 2894 C 300.376 -0.545462 5.708 0
M  V30 2895 N 299.872 -0.514082 6.9089 0
M  V30 2896 N 301.665 -0.59064 5.58988 0
M  V30 2897 H 293.816 0.799121 1.96794 0
M  V30 2898 H 296.079 0.297965 0.899956 0
M  V30 2899 H 295.785 0.528106 3.47712 0
M  V30 2900 H 295.659 -1.21969 3.56936 0
M  V30 2901 H 298.046 -1.40512 2.595 0
M  V30 2902 H 298.127 0.361328 2.53235 0
M  V30 2903 H 297.771 0.445 5.05947 0
M  V30 2904 H 297.701 -1.3348 5.09402 0
M  V30 2905 H 300.192 -0.562006 3.73698 0
M  V30 2906 H 300.505 -0.527195 7.71 0
M  V30 2907 H 298.85 -0.481054 6.93333 0
M  V30 2908 H 302.041 -0.61272 4.64073 0
M  V30 2909 H 302.214 -0.597073 6.45243 0
M  V30 2910 N 295.62 -1.53406 -0.361157 0
M  V30 2911 C 296.868 -1.69467 -1.10115 0
M  V30 2912 C 297.189 -0.451352 -1.89705 0
M  V30 2913 O 296.459 0.534636 -1.88463 0
M  V30 2914 H 295.039 -0.624749 -0.409508 0
M  V30 2915 H 297.701 -1.90609 -0.406699 0
M  V30 2916 H 296.797 -2.55774 -1.78847 0
M  V30 2917 N 297.098 0.621204 -1.44841 0
M  V30 2918 C 298.061 1.71459 -1.521 0
M  V30 2919 C 299.061 1.55696 -0.401933 0
M  V30 2920 O 300.251 1.61011 -0.664925 0
M  V30 2921 C 297.383 3.10624 -1.40447 0
M  V30 2922 H 298.576 1.66394 -2.49506 0
M  V30 2923 H 296.129 0.835745 -1.3208 0
M  V30 2924 H 296.864 3.21277 -0.441737 0
M  V30 2925 H 296.649 3.23473 -2.21602 0
M  V30 2926 H 298.139 3.90293 -1.4853 0
M  V30 2927 N 298.576 1.31904 0.862503 0
M  V30 2928 C 299.853 1.12644 1.59908 0
M  V30 2929 C 300.233 -0.316104 2.0872 0
M  V30 2930 O 299.581 -1.31145 1.87118 0
M  V30 2931 C 299.791 2.1472 2.7513 0
M  V30 2932 C 301.139 2.47637 3.44907 0
M  V30 2933 O 302.163 2.13205 2.85346 0
M  V30 2934 O 301.022 3.06632 4.52371 0
M  V30 2935 H 298.116 0.43416 0.703871 0
M  V30 2936 H 300.662 1.43408 0.907314 0
M  V30 2937 H 299.434 3.1172 2.3653 0
M  V30 2938 H 299.057 1.84905 3.51989 0
M  V30 2939 N 300.054 -1.07777 1.14986 0
M  V30 2940 C 301.301 -1.8029 0.922056 0
M  V30 2941 C 301.629 -1.86531 -0.55105 0
M  V30 2942 O 300.884 -1.34189 -1.42449 0
M  V30 2943 C 301.183 -3.25495 1.47608 0
M  V30 2944 C 300.849 -3.39361 2.96893 0
M  V30 2945 C 299.511 -3.42852 3.37647 0
M  V30 2946 C 301.863 -3.42512 3.92854 0
M  V30 2947 C 299.191 -3.47094 4.73015 0
M  V30 2948 C 301.543 -3.4829 5.28088 0
M  V30 2949 C 300.207 -3.50058 5.68345 0
M  V30 2950 H 299.477 -0.659727 0.337404 0
M  V30 2951 H 302.124 -1.26854 1.43459 0
M  V30 2952 H 300.429 -3.81683 0.88463 0
M  V30 2953 H 302.126 -3.80168 1.27568 0
M  V30 2954 H 298.716 -3.37339 2.64387 0
M  V30 2955 H 302.9 -3.3904 3.62444 0
M  V30 2956 H 298.156 -3.46758 5.03556 0
M  V30 2957 H 302.33 -3.49675 6.02246 0
M  V30 2958 H 299.957 -3.53097 6.73221 0
M  V30 2959 N 301.532 -0.945985 -1.26051 0
M  V30 2960 C 302.464 -0.416662 -2.25381 0
M  V30 2961 C 303.477 0.462712 -1.56086 0
M  V30 2962 O 304.666 0.272383 -1.7641 0
M  V30 2963 C 301.766 0.419812 -3.3629 0
M  V30 2964 C 300.939 -0.444531 -4.35135 0
M  V30 2965 C 299.998 0.332305 -5.2515 0
M  V30 2966 O 299.024 -0.266324 -5.68577 0
M  V30 2967 N 300.226 1.62763 -5.57215 0
M  V30 2968 H 302.991 -1.27059 -2.71433 0
M  V30 2969 H 300.552 -0.815392 -1.39868 0
M  V30 2970 H 302.544 0.947013 -3.93464 0
M  V30 2971 H 301.114 1.17456 -2.89694 0
M  V30 2972 H 300.334 -1.15291 -3.76964 0
M  V30 2973 H 301.622 -1.03478 -4.98166 0
M  V30 2974 H 301.02 2.13603 -5.23823 0
M  V30 2975 H 299.577 2.10097 -6.17011 0
M  V30 2976 N 303.011 1.40521 -0.713556 0
M  V30 2977 C 303.974 2.29098 -0.0684347 0
M  V30 2978 C 304.974 1.45268 0.689472 0
M  V30 2979 O 306.164 1.66205 0.521677 0
M  V30 2980 C 303.296 3.28446 0.913024 0
M  V30 2981 H 304.489 2.87645 -0.84855 0
M  V30 2982 H 302.042 1.48809 -0.47809 0
M  V30 2983 H 302.777 2.74913 1.72027 0
M  V30 2984 H 302.562 3.90327 0.372472 0
M  V30 2985 H 304.052 3.94777 1.36165 0
M  V30 2986 N 304.489 0.459591 1.5075 0
M  V30 2987 C 305.419 -0.330644 2.31147 0
M  V30 2988 C 306.4 -1.00087 1.37538 0
M  V30 2989 O 307.585 -1.00025 1.66459 0
M  V30 2990 C 304.715 -1.41958 3.16962 0
M  V30 2991 C 303.669 -0.871608 4.19031 0
M  V30 2992 C 302.995 -2.05797 4.9351 0
M  V30 2993 C 304.295 0.109251 5.22186 0
M  V30 2994 H 305.989 0.340336 2.97459 0
M  V30 2995 H 303.535 0.165119 1.4305 0
M  V30 2996 H 305.488 -1.9798 3.71997 0
M  V30 2997 H 304.212 -2.11917 2.48513 0
M  V30 2998 H 302.871 -0.333442 3.6508 0
M  V30 2999 H 302.519 -2.74427 4.21544 0
M  V30 3000 H 302.219 -1.6976 5.62544 0
M  V30 3001 H 303.743 -2.62331 5.51375 0
M  V30 3002 H 305.157 -0.361405 5.7216 0
M  V30 3003 H 303.554 0.383316 5.98875 0
M  V30 3004 H 304.624 1.03887 4.73641 0
M  V30 3005 N 305.967 -1.56429 0.191757 0
M  V30 3006 C 307.378 -1.83912 -0.321428 0
M  V30 3007 C 307.729 -1.11231 -1.61623 0
M  V30 3008 O 306.854 -0.37202 -2.13178 0
M  V30 3009 C 307.449 -3.33624 -0.589961 0
M  V30 3010 C 306.008 -3.6153 -1.04753 0
M  V30 3011 C 305.155 -2.7714 -0.0943327 0
M  V30 3012 H 308.106 -1.53161 0.415612 0
M  V30 3013 H 308.127 -3.52213 -1.43966 0
M  V30 3014 H 307.639 -3.86495 0.352588 0
M  V30 3015 H 305.74 -3.14089 -2.00447 0
M  V30 3016 H 305.853 -4.69737 -0.942549 0
M  V30 3017 H 304.217 -2.47638 -0.595589 0
M  V30 3018 H 305 -3.32799 0.842601 0
M  V30 3019 N 307.445 0.0818655 -1.57387 0
M  V30 3020 C 308.691 0.784074 -1.8703 0
M  V30 3021 C 309.024 1.77729 -0.782689 0
M  V30 3022 O 308.299 1.93384 0.208051 0
M  V30 3023 C 308.582 1.50105 -3.27323 0
M  V30 3024 C 308.435 0.524925 -4.46727 0
M  V30 3025 C 309.754 2.44843 -3.65705 0
M  V30 3026 H 306.873 0.283582 -0.680257 0
M  V30 3027 H 309.515 0.0474352 -1.89941 0
M  V30 3028 H 307.665 2.12897 -3.24972 0
M  V30 3029 H 309.337 -0.0970111 -4.61198 0
M  V30 3030 H 307.58 -0.160606 -4.33503 0
M  V30 3031 H 308.251 1.064 -5.41648 0
M  V30 3032 H 310.727 1.92135 -3.69085 0
M  V30 3033 H 309.603 2.92018 -4.64776 0
M  V30 3034 H 309.864 3.29197 -2.95096 0
M  V30 3035 N 308.923 1.53595 0.353017 0
M  V30 3036 C 310.171 1.70049 1.09215 0
M  V30 3037 C 310.492 0.461406 1.89463 0
M  V30 3038 O 309.762 -0.524633 1.88744 0
M  V30 3039 H 308.342 0.626912 0.40619 0
M  V30 3040 H 311.004 1.90822 0.396585 0
M  V30 3041 H 310.1 2.56718 1.77488 0
M  V30 3042 N 310.401 -0.613514 1.45168 0
M  V30 3043 C 311.626 -1.40437 1.52618 0
M  V30 3044 C 312.051 -1.87438 0.157707 0
M  V30 3045 O 311.409 -1.59791 -0.856537 0
M  V30 3046 C 311.457 -2.58894 2.51011 0
M  V30 3047 O 310.561 -3.59326 2.02382 0
M  V30 3048 H 309.902 -0.419506 0.514695 0
M  V30 3049 H 312.432 -0.747215 1.90467 0
M  V30 3050 H 312.442 -3.06214 2.69624 0
M  V30 3051 H 311.117 -2.24032 3.50403 0
M  V30 3052 H 309.694 -3.18695 1.93618 0
M  V30 3053 N 311.879 -1.3236 -0.855495 0
M  V30 3054 C 313.104 -1.2601 -1.64731 0
M  V30 3055 C 313.529 0.169068 -1.87339 0
M  V30 3056 O 312.887 1.12016 -1.42556 0
M  V30 3057 C 312.935 -2.02417 -2.98429 0
M  V30 3058 O 312.039 -1.3714 -3.8893 0
M  V30 3059 H 311.38 -0.434325 -0.502253 0
M  V30 3060 H 313.91 -1.74661 -1.06558 0
M  V30 3061 H 313.92 -2.12559 -3.48257 0
M  V30 3062 H 312.595 -3.06343 -2.81295 0
M  V30 3063 H 311.172 -1.3554 -3.47395 0
M  V30 3064 N 313.357 1.07166 -1.15556 0
M  V30 3065 C 314.32 2.12589 -0.856644 0
M  V30 3066 C 315.32 1.6015 0.14444 0
M  V30 3067 O 316.51 1.7399 -0.0854163 0
M  V30 3068 C 313.642 3.39753 -0.279405 0
M  V30 3069 H 314.835 2.40539 -1.79112 0
M  V30 3070 H 312.388 1.23086 -0.963298 0
M  V30 3071 H 313.123 3.17447 0.663174 0
M  V30 3072 H 312.908 3.79117 -1.00063 0
M  V30 3073 H 314.398 4.17507 -0.0879113 0
M  V30 3074 N 314.835 0.952656 1.25548 0
M  V30 3075 C 315.798 0.475794 2.24207 0
M  V30 3076 C 316.798 -0.419428 1.55234 0
M  V30 3077 O 317.988 -0.216994 1.72843 0
M  V30 3078 C 315.12 -0.312814 3.39462 0
M  V30 3079 H 316.313 1.34779 2.67908 0
M  V30 3080 H 313.866 0.735739 1.37901 0
M  V30 3081 H 314.601 -1.20257 3.01179 0
M  V30 3082 H 314.386 0.329404 3.90714 0
M  V30 3083 H 315.876 -0.635986 4.12729 0
M  V30 3084 N 316.313 -1.40141 0.720998 0
M  V30 3085 C 317.559 -2.01084 0.263231 0
M  V30 3086 C 317.892 -1.57052 -1.14229 0
M  V30 3087 O 317.167 -0.793027 -1.77599 0
M  V30 3088 C 317.45 -3.58401 0.349344 0
M  V30 3089 C 317.303 -4.12491 1.79363 0
M  V30 3090 C 318.622 -4.39231 -0.276351 0
M  V30 3091 H 315.741 -0.730572 0.0971228 0
M  V30 3092 H 318.383 -1.66543 0.914518 0
M  V30 3093 H 316.533 -3.87958 -0.205165 0
M  V30 3094 H 318.205 -3.93711 2.40394 0
M  V30 3095 H 316.448 -3.66576 2.31958 0
M  V30 3096 H 317.119 -5.21646 1.80524 0
M  V30 3097 H 319.595 -4.15637 0.196184 0
M  V30 3098 H 318.471 -5.48586 -0.185681 0
M  V30 3099 H 318.732 -4.20643 -1.36059 0
M  V30 3100 N 317.792 -0.46758 -1.50504 0
M  V30 3101 C 318.755 0.317059 -2.26996 0
M  V30 3102 C 319.755 0.923513 -1.31635 0
M  V30 3103 O 320.945 0.793239 -1.55091 0
M  V30 3104 C 318.077 1.45134 -3.08462 0
M  V30 3105 H 319.27 -0.353723 -2.97807 0
M  V30 3106 H 316.823 -0.221545 -1.54722 0
M  V30 3107 H 317.558 2.15728 -2.4214 0
M  V30 3108 H 317.343 1.02232 -3.78538 0
M  V30 3109 H 318.833 2.00493 -3.66323 0
M  V30 3110 N 319.27 1.56325 -0.20005 0
M  V30 3111 C 320.681 1.8408 0.31167 0
M  V30 3112 C 321.032 1.12087 1.61031 0
M  V30 3113 O 320.157 0.38332 2.12978 0
M  V30 3114 C 320.752 3.33932 0.57226 0
M  V30 3115 C 319.311 3.6208 1.02834 0
M  V30 3116 C 318.458 2.77186 0.079634 0
M  V30 3117 H 321.409 1.52939 -0.423729 0
M  V30 3118 H 321.43 3.52971 1.42096 0
M  V30 3119 H 320.942 3.86303 -0.37308 0
M  V30 3120 H 319.043 3.15147 1.98778 0
M  V30 3121 H 319.156 4.7023 0.917624 0
M  V30 3122 H 317.52 2.47951 0.582448 0
M  V30 3123 H 318.303 3.32347 -0.860238 0
M  V30 3124 N 320.748 -0.0735177 1.57428 0
M  V30 3125 C 321.678 -1.0879 2.06608 0
M  V30 3126 C 322.659 -1.40473 0.959237 0
M  V30 3127 O 323.844 -1.5013 1.23185 0
M  V30 3128 C 320.974 -2.40183 2.50857 0
M  V30 3129 C 319.928 -2.22858 3.65402 0
M  V30 3130 C 319.254 -3.59619 3.957 0
M  V30 3131 C 320.554 -1.65123 4.95511 0
M  V30 3132 H 322.248 -0.678673 2.91607 0
M  V30 3133 H 319.794 -0.325013 1.40284 0
M  V30 3134 H 321.747 -3.11437 2.83874 0
M  V30 3135 H 320.471 -2.83083 1.62885 0
M  V30 3136 H 319.13 -1.54045 3.32664 0
M  V30 3137 H 318.778 -4.00086 3.04861 0
M  V30 3138 H 318.478 -3.48866 4.72828 0
M  V30 3139 H 320.002 -4.32306 4.31212 0
M  V30 3140 H 321.416 -2.26241 5.26771 0
M  V30 3141 H 319.813 -1.65071 5.7695 0
M  V30 3142 H 320.883 -0.612559 4.81015 0
M  V30 3143 N 322.226 -1.5378 -0.344866 0
M  V30 3144 C 323.474 -1.70625 -1.08311 0
M  V30 3145 C 323.795 -0.471447 -1.89215 0
M  V30 3146 O 323.065 0.514616 -1.8902 0
M  V30 3147 H 321.645 -0.629058 -0.402859 0
M  V30 3148 H 324.307 -1.9103 -0.386459 0
M  V30 3149 H 323.403 -2.57656 -1.76124 0
M  V30 3150 N 323.704 0.605807 -1.45491 0
M  V30 3151 C 324.634 1.72709 -1.57143 0
M  V30 3152 C 325.615 1.6476 -0.422884 0
M  V30 3153 O 326.8 1.83132 -0.646247 0
M  V30 3154 C 323.93 3.11316 -1.53948 0
M  V30 3155 C 322.884 3.34077 -2.67537 0
M  V30 3156 C 322.21 4.72975 -2.49397 0
M  V30 3157 C 323.51 3.24158 -4.09535 0
M  V30 3158 H 325.204 1.63214 -2.51001 0
M  V30 3159 H 322.75 0.78379 -1.208 0
M  V30 3160 H 324.703 3.89557 -1.60696 0
M  V30 3161 H 323.427 3.21655 -0.566205 0
M  V30 3162 H 322.086 2.58227 -2.6022 0
M  V30 3163 H 321.734 4.8005 -1.50205 0
M  V30 3164 H 321.434 4.8916 -3.25571 0
M  V30 3165 H 322.958 5.53414 -2.58002 0
M  V30 3166 H 324.372 3.92271 -4.18086 0
M  V30 3167 H 322.769 3.51872 -4.86113 0
M  V30 3168 H 323.839 2.2157 -4.31317 0
M  V30 3169 N 325.182 1.32811 0.848464 0
M  V30 3170 C 326.114 1.18095 1.96433 0
M  V30 3171 C 327.127 0.114354 1.62398 0
M  V30 3172 O 328.316 0.363892 1.74751 0
M  V30 3173 C 325.416 0.786798 3.2964 0
M  V30 3174 C 324.589 1.943 3.91875 0
M  V30 3175 C 323.648 1.53138 5.03423 0
M  V30 3176 O 322.674 2.24432 5.23086 0
M  V30 3177 N 323.876 0.430915 5.78898 0
M  V30 3178 H 326.641 2.14218 2.09597 0
M  V30 3179 H 324.202 1.2543 1.02367 0
M  V30 3180 H 326.194 0.493715 4.01677 0
M  V30 3181 H 324.764 -0.0834541 3.12489 0
M  V30 3182 H 323.984 2.40224 3.12547 0
M  V30 3183 H 325.272 2.71689 4.30189 0
M  V30 3184 H 324.67 -0.162333 5.65467 0
M  V30 3185 H 323.227 0.197466 6.51501 0
M  V30 3186 N 326.66 -1.06551 1.16123 0
M  V30 3187 C 327.59 -2.15935 0.88851 0
M  V30 3188 C 328.571 -1.69306 -0.164135 0
M  V30 3189 O 329.756 -1.94193 -0.0167857 0
M  V30 3190 C 326.886 -3.45149 0.385942 0
M  V30 3191 C 325.84 -4.05271 1.3762 0
M  V30 3192 C 325.166 -5.29664 0.732137 0
M  V30 3193 C 326.466 -4.44355 2.74493 0
M  V30 3194 H 328.16 -2.39006 1.80323 0
M  V30 3195 H 325.706 -1.14866 0.868435 0
M  V30 3196 H 327.659 -4.21004 0.182647 0
M  V30 3197 H 326.383 -3.21689 -0.564274 0
M  V30 3198 H 325.042 -3.3147 1.56599 0
M  V30 3199 H 324.69 -5.02499 -0.224483 0
M  V30 3200 H 324.39 -5.70848 1.39307 0
M  V30 3201 H 325.914 -6.08218 0.538802 0
M  V30 3202 H 327.328 -5.11303 2.59311 0
M  V30 3203 H 325.725 -4.96515 3.37035 0
M  V30 3204 H 326.795 -3.55339 3.29943 0
M  V30 3205 N 328.138 -0.959301 -1.25041 0
M  V30 3206 C 329.071 -0.427418 -2.24161 0
M  V30 3207 C 330.049 0.493837 -1.54919 0
M  V30 3208 O 331.233 0.427144 -1.83597 0
M  V30 3209 C 328.36 0.383893 -3.36517 0
M  V30 3210 C 327.406 -0.478431 -4.23808 0
M  V30 3211 S 328.239 -1.91353 -5.00144 0
M  V30 3212 C 329.395 -1.11077 -6.15965 0
M  V30 3213 H 329.628 -1.26743 -2.6893 0
M  V30 3214 H 327.161 -0.763714 -1.34189 0
M  V30 3215 H 329.119 0.846039 -4.01687 0
M  V30 3216 H 327.78 1.19878 -2.90324 0
M  V30 3217 H 326.973 0.14406 -5.03794 0
M  V30 3218 H 326.575 -0.87597 -3.63597 0
M  V30 3219 H 328.867 -0.361699 -6.76534 0
M  V30 3220 H 329.81 -1.88472 -6.82557 0
M  V30 3221 H 330.218 -0.638843 -5.60873 0
M  V30 3222 N 329.616 1.39756 -0.72842 0
M  V30 3223 C 330.856 2.025 -0.278078 0
M  V30 3224 C 331.22 1.5654 1.11173 0
M  V30 3225 O 332.421 2.11435 1.65978 0
M  V30 3226 C 330.692 3.55489 -0.369139 0
M  V30 3227 S 332.251 4.388 0.00232983 0
M  V30 3228 H 329.069 0.702534 -0.109391 0
M  V30 3229 H 331.671 1.70672 -0.95348 0
M  V30 3230 H 330.375 3.86429 -1.38204 0
M  V30 3231 H 329.906 3.92061 0.324308 0
M  V30 3232 H 331.921 4.80954 1.22055 0
M  V30 3233 N 331.094 0.475555 1.50254 0
M  V30 3234 C 332.322 -0.0754493 2.06762 0
M  V30 3235 C 332.737 -1.33111 1.33891 0
M  V30 3236 O 332.094 -1.77846 0.40952 0
M  V30 3237 C 332.145 -0.359008 3.59713 0
M  V30 3238 O 331.866 0.846851 4.29837 0
M  V30 3239 C 333.367 -0.956484 4.32858 0
M  V30 3240 H 330.587 0.00907525 0.670939 0
M  V30 3241 H 333.131 0.665618 1.93364 0
M  V30 3242 H 331.286 -1.05001 3.72899 0
M  V30 3243 H 331.7 0.594162 5.21124 0
M  V30 3244 H 333.174 -1.10463 5.40834 0
M  V30 3245 H 333.651 -1.94775 3.93649 0
M  V30 3246 H 334.257 -0.303723 4.24214 0
M  V30 3247 N 332.573 -1.56217 0.208337 0
M  V30 3248 C 333.536 -2.18455 -0.693557 0
M  V30 3249 C 334.536 -1.14268 -1.13135 0
M  V30 3250 O 335.726 -1.39577 -1.0423 0
M  V30 3251 C 332.858 -2.79727 -1.94848 0
M  V30 3252 H 334.051 -2.99519 -0.15114 0
M  V30 3253 H 331.604 -1.56245 -0.041287 0
M  V30 3254 H 332.339 -2.02497 -2.53309 0
M  V30 3255 H 332.124 -3.56009 -1.64316 0
M  V30 3256 H 333.614 -3.27475 -2.59133 0
M  V30 3257 N 334.051 0.0651679 -1.57465 0
M  V30 3258 C 335.462 0.616213 -1.76238 0
M  V30 3259 C 335.813 1.7756 -0.834689 0
M  V30 3260 O 334.938 2.1639 -0.0204156 0
M  V30 3261 C 335.533 1.12462 -3.1959 0
M  V30 3262 C 334.092 1.62147 -3.39684 0
M  V30 3263 C 333.239 0.543739 -2.71917 0
M  V30 3264 H 336.19 -0.161022 -1.57881 0
M  V30 3265 H 336.211 1.99324 -3.24114 0
M  V30 3266 H 335.723 0.280592 -3.87084 0
M  V30 3267 H 333.824 2.48854 -2.77313 0
M  V30 3268 H 333.937 1.69385 -4.48158 0
M  V30 3269 H 332.301 0.990352 -2.34657 0
M  V30 3270 H 333.084 -0.290216 -3.42071 0
M  V30 3271 N 335.529 1.53961 0.336706 0
M  V30 3272 C 336.94 1.62914 0.911925 0
M  V30 3273 C 337.291 0.514795 1.89326 0
M  V30 3274 O 336.416 -0.354395 2.13478 0
M  V30 3275 C 337.011 2.95304 1.66076 0
M  V30 3276 C 335.57 3.06496 2.18489 0
M  V30 3277 C 334.717 2.58403 1.00613 0
M  V30 3278 H 337.668 1.58285 0.114649 0
M  V30 3279 H 337.689 2.84727 2.5241 0
M  V30 3280 H 337.201 3.76387 0.946276 0
M  V30 3281 H 335.302 2.3006 2.93092 0
M  V30 3282 H 335.415 4.1208 2.44391 0
M  V30 3283 H 333.779 2.13977 1.38152 0
M  V30 3284 H 334.562 3.41932 0.306179 0
M  V30 3285 N 337.007 -0.598083 1.45811 0
M  V30 3286 C 338.255 -1.35413 1.50026 0
M  V30 3287 C 338.576 -1.94444 0.147177 0
M  V30 3288 O 337.846 -1.77701 -0.824571 0
M  V30 3289 H 336.426 -0.502727 0.552517 0
M  V30 3290 H 339.088 -0.701606 1.81834 0
M  V30 3291 H 338.184 -2.16871 2.2444 0
M  V30 3292 N 338.485 -1.33259 -0.841409 0
M  V30 3293 C 339.448 -1.23221 -1.9326 0
M  V30 3294 C 340.448 -0.151895 -1.60081 0
M  V30 3295 O 341.638 -0.403246 -1.69468 0
M  V30 3296 C 338.77 -0.898123 -3.28856 0
M  V30 3297 H 339.963 -2.2021 -2.03587 0
M  V30 3298 H 337.516 -1.17281 -1.03319 0
M  V30 3299 H 338.251 0.0693841 -3.24226 0
M  V30 3300 H 338.036 -1.67934 -3.54317 0
M  V30 3301 H 339.526 -0.852563 -4.08805 0
M  V30 3302 N 339.963 1.05934 -1.16686 0
M  V30 3303 C 341.209 1.79065 -0.95203 0
M  V30 3304 C 341.542 1.87147 0.518629 0
M  V30 3305 O 340.817 1.36574 1.38484 0
M  V30 3306 C 341.1 3.23359 -1.58464 0
M  V30 3307 C 340.953 3.23336 -3.12689 0
M  V30 3308 C 342.272 4.21004 -1.28232 0
M  V30 3309 H 339.391 0.65005 -0.34728 0
M  V30 3310 H 342.033 1.23868 -1.44072 0
M  V30 3311 H 340.183 3.70493 -1.16908 0
M  V30 3312 H 341.855 2.84336 -3.6325 0
M  V30 3313 H 340.098 2.61886 -3.4583 0
M  V30 3314 H 340.769 4.25144 -3.52075 0
M  V30 3315 H 343.245 3.8233 -1.64203 0
M  V30 3316 H 342.121 5.20225 -1.75092 0
M  V30 3317 H 342.382 4.41639 -0.201791 0
M  V30 3318 N 341.441 0.965919 1.2453 0
M  V30 3319 C 342.373 0.452465 2.2469 0
M  V30 3320 C 343.386 -0.437821 1.56802 0
M  V30 3321 O 344.575 -0.244283 1.76821 0
M  V30 3322 C 341.675 -0.366258 3.36915 0
M  V30 3323 C 340.848 0.513701 4.34373 0
M  V30 3324 C 339.907 -0.248716 5.25612 0
M  V30 3325 O 338.933 0.356745 5.68081 0
M  V30 3326 N 340.135 -1.53877 5.59734 0
M  V30 3327 H 342.9 1.31361 2.69378 0
M  V30 3328 H 340.461 0.837541 1.38553 0
M  V30 3329 H 342.453 -0.884297 3.94921 0
M  V30 3330 H 341.023 -1.12832 2.91526 0
M  V30 3331 H 340.243 1.21273 3.75082 0
M  V30 3332 H 341.531 1.11391 4.96457 0
M  V30 3333 H 340.929 -2.05243 5.27154 0
M  V30 3334 H 339.486 -2.00254 6.20275 0
M  V30 3335 N 342.919 -1.39368 0.735821 0
M  V30 3336 C 344.167 -2.00101 0.283562 0
M  V30 3337 C 344.488 -1.5868 -1.13338 0
M  V30 3338 O 343.758 -0.835423 -1.77193 0
M  V30 3339 H 342.338 -0.740024 0.101851 0
M  V30 3340 H 345 -1.70404 0.945962 0
M  V30 3341 H 344.096 -3.10323 0.332604 0
M  V30 3342 N 344.397 -0.483516 -1.5 0
M  V30 3343 C 345.347 0.32306 -2.257 0
M  V30 3344 C 346.331 0.950755 -1.29805 0
M  V30 3345 O 347.523 0.861247 -1.54634 0
M  V30 3346 C 344.652 1.39724 -3.13579 0
M  V30 3347 C 343.738 0.776663 -4.16928 0
M  V30 3348 N 344.129 -0.1104 -5.0568 0
M  V30 3349 C 342.427 1.03922 -4.33724 0
M  V30 3350 C 343.128 -0.46387 -5.79848 0
M  V30 3351 N 342.104 0.163987 -5.43353 0
M  V30 3352 H 345.906 -0.360086 -2.91686 0
M  V30 3353 H 343.42 -0.298456 -1.59634 0
M  V30 3354 H 345.417 1.98837 -3.66428 0
M  V30 3355 H 344.077 2.08225 -2.49143 0
M  V30 3356 H 345.088 -0.480069 -5.1567 0
M  V30 3357 H 341.765 1.71829 -3.80501 0
M  V30 3358 H 343.155 -1.18854 -6.61304 0
M  V30 3359 N 345.875 1.56104 -0.216619 0
M  V30 3360 C 347.121 1.99219 0.410301 0
M  V30 3361 C 347.476 1.10169 1.57735 0
M  V30 3362 O 346.769 0.150598 1.91007 0
M  V30 3363 C 346.963 3.45923 0.898464 0
M  V30 3364 C 346.792 4.49163 -0.219748 0
M  V30 3365 C 345.562 5.00642 -0.684516 0
M  V30 3366 C 347.76 5.03751 -1.03629 0
M  V30 3367 N 345.742 5.87579 -1.7783 0
M  V30 3368 C 347.113 5.87566 -1.97904 0
M  V30 3369 C 349.168 4.86128 -1.07629 0
M  V30 3370 C 347.871 6.5564 -2.95851 0
M  V30 3371 C 349.897 5.54958 -2.04392 0
M  V30 3372 C 349.259 6.38536 -2.97407 0
M  V30 3373 H 345.358 0.773206 0.11695 0
M  V30 3374 H 347.942 1.9193 -0.327258 0
M  V30 3375 H 346.113 3.53669 1.6054 0
M  V30 3376 H 347.845 3.75963 1.49779 0
M  V30 3377 H 344.6 4.72807 -0.27399 0
M  V30 3378 H 345.024 6.3575 -2.32705 0
M  V30 3379 H 349.666 4.21168 -0.371099 0
M  V30 3380 H 347.384 7.19785 -3.67335 0
M  V30 3381 H 350.97 5.43289 -2.08154 0
M  V30 3382 H 349.85 6.90858 -3.71059 0
M  V30 3383 N 347.353 -0.0568162 1.57498 0
M  V30 3384 C 348.316 -1.05038 2.03715 0
M  V30 3385 C 349.316 -1.30709 0.936577 0
M  V30 3386 O 350.506 -1.26178 1.20103 0
M  V30 3387 C 347.638 -2.39034 2.43055 0
M  V30 3388 H 348.831 -0.651715 2.92733 0
M  V30 3389 H 346.384 -0.302947 1.53336 0
M  V30 3390 H 347.119 -2.83703 1.57108 0
M  V30 3391 H 346.904 -2.21739 3.2338 0
M  V30 3392 H 348.394 -3.10421 2.79336 0
M  V30 3393 N 348.832 -1.54138 -0.328536 0
M  V30 3394 C 350.248 -1.44736 -0.672574 0
M  V30 3395 C 350.448 -0.616217 -1.91846 0
M  V30 3396 O 349.504 -0.113067 -2.52247 0
M  V30 3397 C 350.817 -2.884 -0.851217 0
M  V30 3398 C 352.365 -2.98271 -0.948877 0
M  V30 3399 C 352.84 -4.43074 -1.15973 0
M  V30 3400 N 354.331 -4.46665 -1.22658 0
M  V30 3401 C 355.066 -5.55857 -1.40751 0
M  V30 3402 N 354.562 -6.75026 -1.5592 0
M  V30 3403 N 356.355 -5.43495 -1.4342 0
M  V30 3404 H 348.506 -2.06661 0.490421 0
M  V30 3405 H 350.769 -0.934812 0.157579 0
M  V30 3406 H 350.475 -3.51699 -0.00704236 0
M  V30 3407 H 350.349 -3.34225 -1.74853 0
M  V30 3408 H 352.736 -2.35102 -1.78356 0
M  V30 3409 H 352.817 -2.55785 -0.0281435 0
M  V30 3410 H 352.461 -5.06827 -0.329915 0
M  V30 3411 H 352.391 -4.83165 -2.09426 0
M  V30 3412 H 354.882 -3.60797 -1.124 0
M  V30 3413 H 355.195 -7.54004 -1.69404 0
M  V30 3414 H 353.54 -6.77944 -1.53027 0
M  V30 3415 H 356.731 -4.49349 -1.31162 0
M  V30 3416 H 356.904 -6.28649 -1.57178 0
M  V30 3417 N 350.31 0.590341 -1.46126 0
M  V30 3418 C 351.22 1.72793 -1.58681 0
M  V30 3419 C 352.236 1.67516 -0.470566 0
M  V30 3420 O 353.412 1.87562 -0.733642 0
M  V30 3421 C 350.477 3.09287 -1.5666 0
M  V30 3422 C 349.538 3.25886 -2.79458 0
M  V30 3423 C 348.771 4.55869 -2.77524 0
M  V30 3424 O 348.994 5.3928 -1.85832 0
M  V30 3425 O 347.928 4.75552 -3.68964 0
M  V30 3426 H 351.754 1.65149 -2.54872 0
M  V30 3427 H 349.339 0.756486 -1.28832 0
M  V30 3428 H 351.221 3.90577 -1.58202 0
M  V30 3429 H 349.896 3.17385 -0.636271 0
M  V30 3430 H 348.803 2.44119 -2.83472 0
M  V30 3431 H 350.136 3.22675 -3.71674 0
M  V30 3432 N 351.788 1.33704 0.83433 0
M  V30 3433 C 352.751 1.24244 1.92603 0
M  V30 3434 C 353.751 0.160383 1.59998 0
M  V30 3435 O 354.941 0.412228 1.69252 0
M  V30 3436 C 352.073 0.91555 3.28376 0
M  V30 3437 H 353.266 2.21287 2.02416 0
M  V30 3438 H 350.819 1.17827 1.02696 0
M  V30 3439 H 351.554 -0.0521886 3.24258 0
M  V30 3440 H 351.339 1.69811 3.53422 0
M  V30 3441 H 352.829 0.874231 4.08347 0
M  V30 3442 N 353.266 -1.05314 1.17247 0
M  V30 3443 C 354.677 -1.59753 0.96623 0
M  V30 3444 C 355.028 -1.9005 -0.487378 0
M  V30 3445 O 354.153 -1.68126 -1.36245 0
M  V30 3446 C 354.748 -2.90249 1.74759 0
M  V30 3447 C 353.307 -3.41352 1.58606 0
M  V30 3448 C 352.454 -2.15103 1.75002 0
M  V30 3449 H 355.405 -0.881406 1.31973 0
M  V30 3450 H 355.426 -3.60097 1.22925 0
M  V30 3451 H 354.938 -2.68166 2.8055 0
M  V30 3452 H 353.039 -3.68474 0.552985 0
M  V30 3453 H 353.152 -4.16019 2.37624 0
M  V30 3454 H 351.516 -2.25804 1.17833 0
M  V30 3455 H 352.299 -1.95491 2.82202 0
M  V30 3456 N 354.744 -0.972509 -1.24016 0
M  V30 3457 C 355.992 -0.635776 -1.91839 0
M  V30 3458 C 356.313 0.832312 -1.76345 0
M  V30 3459 O 355.583 1.5946 -1.13795 0
M  V30 3460 H 354.163 -0.232157 -0.710009 0
M  V30 3461 H 356.825 -1.23462 -1.50809 0
M  V30 3462 H 355.921 -0.880545 -2.99421 0
M  V30 3463 N 356.222 1.38976 -0.743202 0
M  V30 3464 C 357.185 2.28901 -0.117014 0
M  V30 3465 C 358.185 1.46698 0.658503 0
M  V30 3466 O 359.375 1.67274 0.486305 0
M  V30 3467 C 356.507 3.30309 0.84315 0
M  V30 3468 H 357.7 2.8578 -0.909373 0
M  V30 3469 H 355.253 1.47761 -0.509547 0
M  V30 3470 H 355.988 2.785 1.66157 0
M  V30 3471 H 355.773 3.91029 0.289594 0
M  V30 3472 H 357.263 3.97577 1.2776 0
M  V30 3473 N 357.7 0.491464 1.49741 0
M  V30 3474 C 358.946 -0.0485431 2.03342 0
M  V30 3475 C 359.301 -1.35566 1.36527 0
M  V30 3476 O 358.594 -1.85262 0.488729 0
M  V30 3477 C 358.788 -0.267329 3.56399 0
M  V30 3478 C 358.617 1.01703 4.38049 0
M  V30 3479 C 357.387 1.56614 4.80417 0
M  V30 3480 C 359.585 1.91782 4.77204 0
M  V30 3481 N 357.567 2.7974 5.4646 0
M  V30 3482 C 358.938 2.99489 5.42868 0
M  V30 3483 C 360.993 1.92575 4.5915 0
M  V30 3484 C 359.696 4.08005 5.92389 0
M  V30 3485 C 361.722 3.0006 5.09626 0
M  V30 3486 C 361.084 4.06485 5.75282 0
M  V30 3487 H 357.183 0.0227779 0.781668 0
M  V30 3488 H 359.767 0.664204 1.8302 0
M  V30 3489 H 357.938 -0.949126 3.76625 0
M  V30 3490 H 359.67 -0.803492 3.96644 0
M  V30 3491 H 356.425 1.11256 4.60347 0
M  V30 3492 H 356.849 3.42323 5.84075 0
M  V30 3493 H 361.491 1.11605 4.07804 0
M  V30 3494 H 359.209 4.89779 6.42761 0
M  V30 3495 H 362.795 3.01681 4.97473 0
M  V30 3496 H 361.675 4.88287 6.13633 0
M  V30 3497 N 359.178 -1.55987 0.224894 0
M  V30 3498 C 360.455 -1.90232 -0.455083 0
M  V30 3499 C 360.835 -1.14269 -1.77499 0
M  V30 3500 O 360.183 -0.253079 -2.27094 0
M  V30 3501 C 360.393 -3.42993 -0.644758 0
M  V30 3502 C 361.741 -4.13821 -0.950669 0
M  V30 3503 O 362.765 -3.4861 -0.731423 0
M  V30 3504 O 361.624 -5.29128 -1.36695 0
M  V30 3505 H 358.718 -0.79108 -0.241084 0
M  V30 3506 H 361.264 -1.67581 0.267327 0
M  V30 3507 H 360.036 -3.90252 0.28613 0
M  V30 3508 H 359.659 -3.71434 -1.41853 0
M  V30 3509 N 360.656 0.0484629 -1.57525 0
M  V30 3510 C 361.896 0.748196 -1.90214 0
M  V30 3511 C 362.26 1.73545 -0.821347 0
M  V30 3512 O 363.461 2.48201 -1.03198 0
M  V30 3513 C 361.732 1.41727 -3.28098 0
M  V30 3514 S 363.291 2.14884 -3.82584 0
M  V30 3515 H 360.109 0.248307 -0.666232 0
M  V30 3516 H 362.711 0.00343188 -1.955 0
M  V30 3517 H 361.415 0.685244 -4.04639 0
M  V30 3518 H 360.946 2.20099 -3.26068 0
M  V30 3519 H 362.961 3.41755 -3.59747 0
M  V30 3520 N 362.134 1.5431 0.320358 0
M  V30 3521 C 363.359 1.76954 1.08175 0
M  V30 3522 C 363.784 0.518193 1.80821 0
M  V30 3523 O 363.142 -0.530411 1.73368 0
M  V30 3524 C 363.19 2.96451 2.05303 0
M  V30 3525 O 362.294 2.68221 3.13259 0
M  V30 3526 H 361.635 0.586275 0.311733 0
M  V30 3527 H 364.165 2.01342 0.363676 0
M  V30 3528 H 364.175 3.23887 2.48116 0
M  V30 3529 H 362.85 3.87196 1.51829 0
M  V30 3530 H 361.427 2.51744 2.75099 0
M  V30 3531 N 363.613 -0.582584 1.46437 0
M  V30 3532 C 364.859 -1.34278 1.51978 0
M  V30 3533 C 365.192 -1.93446 0.170973 0
M  V30 3534 O 364.467 -1.76481 -0.817608 0
M  V30 3535 C 364.75 -2.47203 2.61845 0
M  V30 3536 C 364.603 -1.93069 4.06257 0
M  V30 3537 C 365.922 -3.49247 2.67795 0
M  V30 3538 H 363.041 -0.486876 0.553282 0
M  V30 3539 H 365.683 -0.654437 1.78374 0
M  V30 3540 H 363.833 -3.0592 2.39469 0
M  V30 3541 H 365.505 -1.38808 4.3992 0
M  V30 3542 H 363.748 -1.23898 4.1573 0
M  V30 3543 H 364.419 -2.74586 4.7886 0
M  V30 3544 H 366.895 -3.00411 2.8791 0
M  V30 3545 H 365.771 -4.25719 3.46489 0
M  V30 3546 H 366.032 -4.06482 1.73852 0
M  V30 3547 N 365.091 -1.34144 -0.827227 0
M  V30 3548 C 366.001 -1.27428 -1.96975 0
M  V30 3549 C 367.017 -0.182728 -1.73038 0
M  V30 3550 O 368.193 -0.408426 -1.97215 0
M  V30 3551 C 365.258 -1.02526 -3.31194 0
M  V30 3552 C 364.319 -2.20796 -3.68168 0
M  V30 3553 C 363.552 -1.97073 -4.95982 0
M  V30 3554 O 363.775 -0.926822 -5.6282 0
M  V30 3555 O 362.709 -2.83912 -5.30733 0
M  V30 3556 H 366.535 -2.23537 -2.05584 0
M  V30 3557 H 364.12 -1.14307 -0.961989 0
M  V30 3558 H 366.002 -0.904026 -4.11589 0
M  V30 3559 H 364.677 -0.0945389 -3.23562 0
M  V30 3560 H 363.584 -2.38477 -2.88235 0
M  V30 3561 H 364.917 -3.12243 -3.8048 0
M  V30 3562 N 366.569 1.04691 -1.17803 0
M  V30 3563 C 367.517 2.14665 -0.895635 0
M  V30 3564 C 368.511 1.68806 0.141679 0
M  V30 3565 O 369.717 1.79999 -0.00587914 0
M  V30 3566 H 366.092 0.701038 -0.272121 0
M  V30 3567 H 368.063 2.35685 -1.83017 0
M  V30 3568 C 366.812 3.45019 -0.430962 0
M  V30 3569 H 366.135 3.8071 -1.22064 0
M  V30 3570 H 367.575 4.23125 -0.272301 0
M  V30 3571 C 366.034 3.25943 0.852207 0
M  V30 3572 O 366.564 3.5296 1.91786 0
M  V30 3573 N 364.77 2.79304 0.802346 0
M  V30 3574 H 364.317 2.57518 -0.0650788 0
M  V30 3575 H 364.275 2.66921 1.66134 0
M  V30 3576 N 368.047 0.979072 1.23499 0
M  V30 3577 C 369.295 0.645941 1.91499 0
M  V30 3578 C 369.616 -0.822948 1.76784 0
M  V30 3579 O 368.886 -1.58854 1.14639 0
M  V30 3580 H 367.466 0.235919 0.708767 0
M  V30 3581 H 370.128 1.2426 1.50152 0
M  V30 3582 H 369.224 0.896411 2.9895 0
M  V30 3583 N 369.525 -1.3858 0.750561 0
M  V30 3584 C 370.773 -1.99789 0.30477 0
M  V30 3585 C 371.094 -1.59874 -1.11649 0
M  V30 3586 O 370.364 -0.85417 -1.76297 0
M  V30 3587 H 368.944 -0.738902 0.109694 0
M  V30 3588 H 371.606 -1.69391 0.963983 0
M  V30 3589 H 370.702 -3.09952 0.365499 0
M  V30 3590 N 371.003 -0.499398 -1.49478 0
M  V30 3591 C 372.243 0.0440751 -2.04352 0
M  V30 3592 C 372.607 1.34423 -1.37093 0
M  V30 3593 O 373.808 1.97184 -1.82679 0
M  V30 3594 C 372.079 0.194918 -3.56868 0
M  V30 3595 S 373.638 0.69287 -4.33295 0
M  V30 3596 H 370.456 0.00253458 -0.710995 0
M  V30 3597 H 373.058 -0.673 -1.83551 0
M  V30 3598 H 371.762 -0.756672 -4.03364 0
M  V30 3599 H 371.293 0.93728 -3.82071 0
M  V30 3600 H 373.308 1.96226 -4.55752 0
M  V30 3601 N 372.481 1.55866 -0.233164 0
M  V30 3602 C 373.391 2.24431 0.683217 0
M  V30 3603 C 374.407 1.2558 1.2044 0
M  V30 3604 O 375.583 1.58422 1.24356 0
M  V30 3605 C 372.648 2.91979 1.86947 0
M  V30 3606 C 371.709 4.06204 1.38912 0
M  V30 3607 C 370.942 4.70522 2.51883 0
M  V30 3608 O 371.165 4.33865 3.70293 0
M  V30 3609 O 370.099 5.59296 2.22423 0
M  V30 3610 H 373.925 3.03426 0.129059 0
M  V30 3611 H 371.51 1.494 -0.0022283 0
M  V30 3612 H 373.392 3.34573 2.56201 0
M  V30 3613 H 372.067 2.15935 2.41151 0
M  V30 3614 H 370.974 3.68155 0.664259 0
M  V30 3615 H 372.307 4.84025 0.893328 0
M  V30 3616 N 373.959 -0.0401083 1.57549 0
M  V30 3617 C 374.909 -1.05175 2.02292 0
M  V30 3618 C 375.893 -1.32674 0.910294 0
M  V30 3619 O 377.085 -1.32444 1.17421 0
M  V30 3620 C 374.214 -2.35622 2.49674 0
M  V30 3621 C 373.3 -2.11261 3.67736 0
M  V30 3622 N 373.691 -1.56923 4.80842 0
M  V30 3623 C 371.989 -2.41596 3.74897 0
M  V30 3624 C 372.69 -1.48111 5.62528 0
M  V30 3625 N 371.666 -1.95282 5.07312 0
M  V30 3626 H 375.468 -0.625455 2.87168 0
M  V30 3627 H 372.982 -0.246624 1.60516 0
M  V30 3628 H 374.979 -3.08893 2.79983 0
M  V30 3629 H 373.639 -2.7894 1.662 0
M  V30 3630 H 374.65 -1.25345 5.02503 0
M  V30 3631 H 371.327 -2.88064 3.02201 0
M  V30 3632 H 372.717 -1.06683 6.63377 0
M  V30 3633 N 375.437 -1.54477 -0.31217 0
M  V30 3634 C 376.4 -1.83923 -1.36766 0
M  V30 3635 C 377.4 -0.711563 -1.44199 0
M  V30 3636 O 378.59 -0.979866 -1.44029 0
M  V30 3637 C 375.722 -2.0095 -2.75376 0
M  V30 3638 H 376.915 -2.78239 -1.11906 0
M  V30 3639 H 374.468 -1.46369 -0.548257 0
M  V30 3640 H 375.203 -1.08883 -3.05475 0
M  V30 3641 H 374.988 -2.83018 -2.71373 0
M  V30 3642 H 376.478 -2.2514 -3.51713 0
M  V30 3643 N 376.915 0.57481 -1.46744 0
M  V30 3644 C 378.155 1.34369 -1.54027 0
M  V30 3645 C 378.519 1.91051 -0.190642 0
M  V30 3646 O 379.72 2.68444 -0.138255 0
M  V30 3647 C 377.991 2.43706 -2.61423 0
M  V30 3648 S 379.55 3.30915 -2.88167 0
M  V30 3649 H 376.368 0.45768 -0.544105 0
M  V30 3650 H 378.97 0.659959 -1.84024 0
M  V30 3651 H 377.674 2.0047 -3.58106 0
M  V30 3652 H 377.205 3.16842 -2.33184 0
M  V30 3653 H 379.22 4.42742 -2.24039 0
M  V30 3654 N 378.394 1.34581 0.820102 0
M  V30 3655 C 379.342 1.26401 1.95258 0
M  V30 3656 C 380.336 0.161553 1.68628 0
M  V30 3657 O 381.542 0.326703 1.7701 0
M  V30 3658 H 377.917 0.392749 0.64129 0
M  V30 3659 H 379.888 2.22105 1.99279 0
M  V30 3660 C 378.637 1.03919 3.31807 0
M  V30 3661 H 377.96 1.87984 3.52848 0
M  V30 3662 H 379.4 1.02232 4.11491 0
M  V30 3663 C 377.859 -0.257433 3.35915 0
M  V30 3664 O 378.389 -1.25784 3.81499 0
M  V30 3665 N 376.595 -0.291524 2.89134 0
M  V30 3666 H 376.142 0.523161 2.52232 0
M  V30 3667 H 376.1 -1.15883 2.92264 0
M  V30 3668 N 379.872 -1.04064 1.18357 0
M  V30 3669 C 380.835 -2.10243 0.912707 0
M  V30 3670 C 381.835 -1.60477 -0.101928 0
M  V30 3671 O 383.025 -1.73703 0.131517 0
M  V30 3672 C 380.157 -3.38893 0.369387 0
M  V30 3673 H 381.35 -2.35706 1.85426 0
M  V30 3674 H 378.903 -1.20489 0.995594 0
M  V30 3675 H 379.638 -3.19094 -0.578776 0
M  V30 3676 H 379.423 -3.76331 1.1008 0
M  V30 3677 H 380.913 -4.17128 0.198575 0
M  V30 3678 N 381.35 -0.985608 -1.22978 0
M  V30 3679 C 382.599 -0.652881 -1.90841 0
M  V30 3680 C 382.912 0.817842 -1.77681 0
M  V30 3681 O 384.118 1.26185 -2.40395 0
M  V30 3682 C 382.574 -1.11717 -3.42122 0
M  V30 3683 C 382.182 -2.6126 -3.63933 0
M  V30 3684 C 383.926 -0.85843 -4.1573 0
M  V30 3685 C 381.833 -3.0133 -5.08876 0
M  V30 3686 H 380.763 -0.240491 -0.714619 0
M  V30 3687 H 383.414 -1.1942 -1.39324 0
M  V30 3688 H 381.796 -0.504027 -3.92779 0
M  V30 3689 H 382.97 -3.27858 -3.23799 0
M  V30 3690 H 381.285 -2.84937 -3.03644 0
M  V30 3691 H 383.882 -1.13359 -5.22546 0
M  V30 3692 H 384.225 0.205461 -4.15793 0
M  V30 3693 H 384.758 -1.43341 -3.71077 0
M  V30 3694 H 381.497 -4.06864 -5.13947 0
M  V30 3695 H 381.017 -2.3943 -5.49939 0
M  V30 3696 H 382.696 -2.92224 -5.77247 0
M  V30 3697 N 382.828 1.3818 -0.7579 0
M  V30 3698 C 384.239 1.82726 -0.383134 0
M  V30 3699 C 384.59 1.63214 1.08884 0
M  V30 3700 O 383.715 1.13566 1.84205 0
M  V30 3701 C 384.31 3.31728 -0.688631 0
M  V30 3702 C 382.869 3.74606 -0.367091 0
M  V30 3703 C 382.016 2.60896 -0.939599 0
M  V30 3704 H 384.967 1.26847 -0.953699 0
M  V30 3705 H 384.988 3.80487 0.0316492 0
M  V30 3706 H 384.5 3.45898 -1.76001 0
M  V30 3707 H 382.601 3.66013 0.697532 0
M  V30 3708 H 382.714 4.71215 -0.865658 0
M  V30 3709 H 381.078 2.52075 -0.3647 0
M  V30 3710 H 381.861 2.77864 -2.0161 0
M  V30 3711 N 384.306 0.507319 1.49211 0
M  V30 3712 C 385.554 -0.0348839 2.0207 0
M  V30 3713 C 385.875 -1.36898 1.38866 0
M  V30 3714 O 385.145 -1.88133 0.546151 0
M  V30 3715 H 383.725 -0.0158812 0.746831 0
M  V30 3716 H 386.387 0.665998 1.83168 0
M  V30 3717 H 385.483 -0.159917 3.1169 0
M  V30 3718 N 385.784 -1.5574 0.241426 0
M  V30 3719 C 386.747 -2.19877 -0.647063 0
M  V30 3720 C 387.747 -1.16642 -1.10686 0
M  V30 3721 O 388.937 -1.41757 -1.01245 0
M  V30 3722 C 386.069 -2.83797 -1.88871 0
M  V30 3723 H 387.262 -2.99772 -0.087574 0
M  V30 3724 H 384.815 -1.56298 -0.00813574 0
M  V30 3725 H 385.55 -2.07824 -2.48957 0
M  V30 3726 H 385.335 -3.59414 -1.56728 0
M  V30 3727 H 386.825 -3.32898 -2.52129 0
M  V30 3728 N 387.262 0.0317525 -1.57568 0
M  V30 3729 C 388.673 0.578692 -1.77505 0
M  V30 3730 C 389.024 1.75749 -0.872164 0
M  V30 3731 O 388.149 2.16298 -0.0663106 0
M  V30 3732 C 388.744 1.05658 -3.21904 0
M  V30 3733 C 387.303 1.54906 -3.43047 0
M  V30 3734 C 386.45 0.485939 -2.73009 0
M  V30 3735 H 389.401 -0.194475 -1.57504 0
M  V30 3736 H 389.422 1.92404 -3.28269 0
M  V30 3737 H 388.934 0.198422 -3.87592 0
M  V30 3738 H 387.035 2.42915 -2.82529 0
M  V30 3739 H 387.148 1.59841 -4.5165 0
M  V30 3740 H 385.512 0.940354 -2.36705 0
M  V30 3741 H 386.295 -0.362709 -3.41379 0
M  V30 3742 N 388.74 1.54641 0.303973 0
M  V30 3743 C 390.156 1.45788 0.649463 0
M  V30 3744 C 390.356 0.64666 1.90842 0
M  V30 3745 O 389.412 0.153183 2.52035 0
M  V30 3746 C 390.725 2.89718 0.805227 0
M  V30 3747 C 392.273 2.99742 0.901305 0
M  V30 3748 C 392.748 4.44863 1.08909 0
M  V30 3749 N 394.239 4.48559 1.15536 0
M  V30 3750 C 394.974 5.58026 1.3189 0
M  V30 3751 N 394.47 6.77422 1.45161 0
M  V30 3752 N 396.263 5.45708 1.34755 0
M  V30 3753 H 388.414 2.05854 -0.523237 0
M  V30 3754 H 390.677 0.932186 -0.172431 0
M  V30 3755 H 390.383 3.51666 -0.0489108 0
M  V30 3756 H 390.257 3.36964 1.69513 0
M  V30 3757 H 392.644 2.3791 1.74593 0
M  V30 3758 H 392.725 2.55797 -0.0125531 0
M  V30 3759 H 392.369 5.07288 0.249241 0
M  V30 3760 H 392.299 4.86436 2.01713 0
M  V30 3761 H 394.79 3.6254 1.06646 0
M  V30 3762 H 395.103 7.56604 1.57387 0
M  V30 3763 H 393.448 6.80292 1.42223 0
M  V30 3764 H 396.639 4.51378 1.23996 0
M  V30 3765 H 396.812 6.3107 1.47157 0
M  V30 3766 N 390.218 -0.567019 1.47046 0
M  V30 3767 C 391.458 -1.3355 1.54738 0
M  V30 3768 C 391.822 -1.90947 0.200772 0
M  V30 3769 O 393.023 -2.68367 0.152489 0
M  V30 3770 C 391.294 -2.42317 2.62712 0
M  V30 3771 S 392.853 -3.29383 2.89918 0
M  V30 3772 H 389.671 -0.454788 0.546525 0
M  V30 3773 H 392.273 -0.650191 1.84371 0
M  V30 3774 H 390.977 -1.98568 3.59164 0
M  V30 3775 H 390.508 -3.15601 2.34861 0
M  V30 3776 H 392.523 -4.41548 2.26384 0
M  V30 3777 N 391.696 -1.35014 -0.812953 0
M  V30 3778 C 392.628 -1.23262 -1.93233 0
M  V30 3779 C 393.641 -0.157371 -1.62038 0
M  V30 3780 O 394.83 -0.410096 -1.73725 0
M  V30 3781 C 391.93 -0.87392 -3.27438 0
M  V30 3782 C 391.103 -2.04622 -3.86586 0
M  V30 3783 C 390.162 -1.66432 -4.99186 0
M  V30 3784 O 389.188 -2.38222 -5.16951 0
M  V30 3785 N 390.39 -0.584248 -5.77552 0
M  V30 3786 H 393.155 -2.19699 -2.03844 0
M  V30 3787 H 390.716 -1.281 -0.99005 0
M  V30 3788 H 392.708 -0.600039 -4.00227 0
M  V30 3789 H 391.278 0.00057392 -3.126 0
M  V30 3790 H 390.498 -2.48427 -3.06068 0
M  V30 3791 H 391.786 -2.82999 -4.22835 0
M  V30 3792 H 391.184 0.0123526 -5.65699 0
M  V30 3793 H 389.741 -0.37013 -6.50748 0
M  V30 3794 N 393.175 1.03435 -1.18907 0
M  V30 3795 C 394.415 1.78302 -0.999391 0
M  V30 3796 C 394.779 1.86353 0.462219 0
M  V30 3797 O 395.98 2.57489 0.771543 0
M  V30 3798 C 394.251 3.17362 -1.64365 0
M  V30 3799 S 395.81 4.08488 -1.6026 0
M  V30 3800 H 392.628 0.613861 -0.358742 0
M  V30 3801 H 395.23 1.23979 -1.51161 0
M  V30 3802 H 393.934 3.09116 -2.69955 0
M  V30 3803 H 393.465 3.76762 -1.13199 0
M  V30 3804 H 395.48 4.92274 -0.622932 0
M  V30 3805 N 394.653 0.992116 1.22453 0
M  V30 3806 C 396.064 0.702776 1.72968 0
M  V30 3807 C 396.415 -0.780399 1.80012 0
M  V30 3808 O 395.54 -1.61007 1.44589 0
M  V30 3809 C 396.135 1.26903 3.14135 0
M  V30 3810 C 394.694 1.02909 3.62059 0
M  V30 3811 C 393.841 1.38969 2.39964 0
M  V30 3812 H 396.792 1.16457 1.07812 0
M  V30 3813 H 396.813 0.647223 3.74955 0
M  V30 3814 H 396.325 2.34851 3.08977 0
M  V30 3815 H 394.426 -0.0337979 3.72585 0
M  V30 3816 H 394.539 1.69191 4.48231 0
M  V30 3817 H 392.903 0.808279 2.41535 0
M  V30 3818 H 393.686 2.4792 2.37467 0
M  V30 3819 N 396.131 -1.37776 0.765217 0
M  V30 3820 C 397.094 -2.28686 0.153416 0
M  V30 3821 C 398.094 -1.47727 -0.635081 0
M  V30 3822 O 399.284 -1.68027 -0.459632 0
M  V30 3823 C 396.416 -3.31608 -0.790495 0
M  V30 3824 H 397.609 -2.84297 0.954723 0
M  V30 3825 H 395.162 -1.46932 0.53299 0
M  V30 3826 H 395.897 -2.81109 -1.61705 0
M  V30 3827 H 395.682 -3.9144 -0.227348 0
M  V30 3828 H 397.172 -3.99559 -1.21419 0
M  V30 3829 N 397.609 -0.515225 -1.4894 0
M  V30 3830 C 398.857 0.0241671 -2.02086 0
M  V30 3831 C 399.178 1.3616 -1.3959 0
M  V30 3832 O 398.448 1.87841 -0.556121 0
M  V30 3833 H 397.028 0.0119203 -0.746905 0
M  V30 3834 H 399.69 -0.675702 -1.82812 0
M  V30 3835 H 398.786 0.143385 -3.1177 0
M  V30 3836 N 399.087 1.5561 -0.249682 0
M  V30 3837 C 400.05 2.20217 0.635394 0
M  V30 3838 C 401.05 1.17227 1.10066 0
M  V30 3839 O 402.24 1.42292 1.00492 0
M  V30 3840 C 399.372 2.84794 1.87363 0
M  V30 3841 H 400.565 2.99814 0.0716752 0
M  V30 3842 H 398.118 1.563 -0.000153234 0
M  V30 3843 H 398.853 2.09142 2.47851 0
M  V30 3844 H 398.638 3.60241 1.5482 0
M  V30 3845 H 400.128 3.3423 2.5036 0
M  V30 3846 N 400.565 -0.0233959 1.57583 0
M  V30 3847 C 401.528 -1.00693 2.05897 0
M  V30 3848 C 402.528 -1.28693 0.964092 0
M  V30 3849 O 403.718 -1.23602 1.22753 0
M  V30 3850 C 400.85 -2.33825 2.4807 0
M  V30 3851 H 402.043 -0.589476 2.9405 0
M  V30 3852 H 399.596 -0.270354 1.53944 0
M  V30 3853 H 400.331 -2.80307 1.6309 0
M  V30 3854 H 400.116 -2.1483 3.2801 0
M  V30 3855 H 401.606 -3.04426 2.85857 0
M  V30 3856 N 402.043 -1.548 -0.295768 0
M  V30 3857 C 402.973 -1.89115 -1.36959 0
M  V30 3858 C 403.954 -0.75059 -1.52644 0
M  V30 3859 O 405.139 -1.00678 -1.66065 0
M  V30 3860 C 402.269 -2.14307 -2.73295 0
M  V30 3861 C 401.223 -3.30151 -2.72368 0
M  V30 3862 C 400.549 -3.40772 -4.12042 0
M  V30 3863 C 401.849 -4.67126 -2.33646 0
M  V30 3864 H 403.543 -2.79053 -1.08488 0
M  V30 3865 H 401.089 -1.34266 -0.520443 0
M  V30 3866 H 403.042 -2.36898 -3.48507 0
M  V30 3867 H 401.766 -1.21145 -3.03301 0
M  V30 3868 H 400.425 -3.0749 -1.99613 0
M  V30 3869 H 400.073 -2.45117 -4.39234 0
M  V30 3870 H 399.773 -4.18645 -4.12322 0
M  V30 3871 H 401.297 -3.6563 -4.89027 0
M  V30 3872 H 402.711 -4.89414 -2.98575 0
M  V30 3873 H 401.108 -5.47751 -2.45129 0
M  V30 3874 H 402.178 -4.67489 -1.28772 0
M  V30 3875 N 403.521 0.559213 -1.47345 0
M  V30 3876 C 404.453 1.68161 -1.55738 0
M  V30 3877 C 405.466 1.56636 -0.443744 0
M  V30 3878 O 406.655 1.6363 -0.713258 0
M  V30 3879 C 403.755 3.06611 -1.4437 0
M  V30 3880 C 402.928 3.4391 -2.70268 0
M  V30 3881 C 401.987 4.61515 -2.52765 0
M  V30 3882 O 401.013 4.66197 -3.26572 0
M  V30 3883 N 402.215 5.57883 -1.6046 0
M  V30 3884 H 404.98 1.61408 -2.52522 0
M  V30 3885 H 402.541 0.7458 -1.43699 0
M  V30 3886 H 404.533 3.83117 -1.30398 0
M  V30 3887 H 403.103 3.07602 -0.556766 0
M  V30 3888 H 402.323 2.56873 -2.99015 0
M  V30 3889 H 403.611 3.65605 -3.53851 0
M  V30 3890 H 403.009 5.56855 -0.996422 0
M  V30 3891 H 401.566 6.33723 -1.52441 0
M  V30 3892 N 404.999 1.35443 0.805782 0
M  V30 3893 C 405.962 1.28301 1.89925 0
M  V30 3894 C 406.962 0.194285 1.59622 0
M  V30 3895 O 408.152 0.448036 1.6834 0
M  V30 3896 C 405.284 0.984997 3.2636 0
M  V30 3897 H 406.477 2.2553 1.97677 0
M  V30 3898 H 404.03 1.19979 1.00173 0
M  V30 3899 H 404.765 0.016603 3.24296 0
M  V30 3900 H 404.55 1.77269 3.4974 0
M  V30 3901 H 406.04 0.960651 4.064 0
M  V30 3902 N 406.477 -1.02803 1.19454 0
M  V30 3903 C 407.754 -1.73299 0.907013 0
M  V30 3904 C 408.134 -2.02772 -0.587086 0
M  V30 3905 O 407.482 -1.68304 -1.54551 0
M  V30 3906 C 407.692 -3.00912 1.76785 0
M  V30 3907 C 409.04 -3.74403 2.00268 0
M  V30 3908 O 410.064 -3.10841 1.73943 0
M  V30 3909 O 408.923 -4.88675 2.4466 0
M  V30 3910 H 406.017 -0.754727 0.338106 0
M  V30 3911 H 408.563 -1.08754 1.30271 0
M  V30 3912 H 407.335 -2.75366 2.7801 0
M  V30 3913 H 406.958 -3.73197 1.37149 0
M  V30 3914 N 407.956 -0.998596 -1.21925 0
M  V30 3915 C 409.204 -0.676325 -1.90448 0
M  V30 3916 C 409.525 0.794719 -1.78071 0
M  V30 3917 O 408.795 1.5701 -1.17152 0
M  V30 3918 H 407.375 -0.247165 -0.704925 0
M  V30 3919 H 410.037 -1.26633 -1.48156 0
M  V30 3920 H 409.133 -0.943858 -2.97486 0
M  V30 3921 N 409.434 1.37368 -0.772513 0
M  V30 3922 C 410.85 1.53059 -0.452231 0
M  V30 3923 C 411.05 1.73065 1.03203 0
M  V30 3924 O 410.106 1.75245 1.81784 0
M  V30 3925 C 411.419 2.72659 -1.26797 0
M  V30 3926 C 412.967 2.86521 -1.25995 0
M  V30 3927 C 413.442 4.09105 -2.05905 0
M  V30 3928 N 414.933 4.16219 -2.03263 0
M  V30 3929 C 415.668 5.10107 -2.61875 0
M  V30 3930 N 415.164 6.09547 -3.29278 0
M  V30 3931 N 416.957 5.02596 -2.51701 0
M  V30 3932 H 409.108 1.22634 -1.7342 0
M  V30 3933 H 411.371 0.597206 -0.736239 0
M  V30 3934 H 411.077 2.64343 -2.31982 0
M  V30 3935 H 410.951 3.66363 -0.897672 0
M  V30 3936 H 413.338 2.94308 -0.216081 0
M  V30 3937 H 413.419 1.93774 -1.66989 0
M  V30 3938 H 413.063 4.0208 -3.10313 0
M  V30 3939 H 412.993 5.00968 -1.62292 0
M  V30 3940 H 415.484 3.45012 -1.54192 0
M  V30 3941 H 415.797 6.77718 -3.71374 0
M  V30 3942 H 414.142 6.09824 -3.33377 0
M  V30 3943 H 417.333 4.23855 -1.98657 0
M  V30 3944 H 417.506 5.75582 -2.97673 0
M  V30 3945 N 410.912 0.523116 1.48665 0
M  V30 3946 C 412.137 -0.0117284 2.07397 0
M  V30 3947 C 412.562 -1.28031 1.37803 0
M  V30 3948 O 411.92 -1.75836 0.441762 0
M  V30 3949 C 411.968 -0.225786 3.59892 0
M  V30 3950 O 411.072 -1.29592 3.91509 0
M  V30 3951 H 410.413 0.0360673 0.66302 0
M  V30 3952 H 412.943 0.729066 1.9117 0
M  V30 3953 H 412.953 -0.450552 4.05505 0
M  V30 3954 H 411.628 0.700944 4.09951 0
M  V30 3955 H 410.205 -1.05436 3.57684 0
M  V30 3956 N 412.39 -1.55475 0.257931 0
M  V30 3957 C 413.63 -2.01112 -0.365129 0
M  V30 3958 C 413.994 -1.1423 -1.54323 0
M  V30 3959 O 415.195 -1.49371 -2.23477 0
M  V30 3960 C 413.466 -3.49353 -0.754117 0
M  V30 3961 S 415.025 -4.16992 -1.36614 0
M  V30 3962 H 411.843 -0.701737 -0.114397 0
M  V30 3963 H 414.445 -1.91855 0.375747 0
M  V30 3964 H 413.149 -4.10246 0.112441 0
M  V30 3965 H 412.68 -3.6256 -1.52689 0
M  V30 3966 H 414.695 -4.19191 -2.65505 0
M  V30 3967 N 413.868 0.0150385 -1.57593 0
M  V30 3968 C 415.096 0.714395 -1.94175 0
M  V30 3969 C 415.511 1.68135 -0.858841 0
M  V30 3970 O 414.868 1.81766 0.163567 0
M  V30 3971 C 414.919 1.45933 -3.30735 0
M  V30 3972 O 414.64 0.531167 -4.34868 0
M  V30 3973 C 416.141 2.25456 -3.81686 0
M  V30 3974 H 413.361 0.199923 -0.640525 0
M  V30 3975 H 415.905 -0.0316096 -2.04476 0
M  V30 3976 H 414.06 2.15709 -3.21789 0
M  V30 3977 H 414.474 1.05509 -5.13778 0
M  V30 3978 H 415.948 2.731 -4.79709 0
M  V30 3979 H 416.425 3.07485 -3.13607 0
M  V30 3980 H 417.031 1.60727 -3.9376 0
M  V30 3981 N 415.346 1.54954 0.287554 0
M  V30 3982 C 416.309 1.86076 1.33823 0
M  V30 3983 C 417.309 0.734414 1.43049 0
M  V30 3984 O 418.499 1.00266 1.42452 0
M  V30 3985 C 415.631 2.05305 2.72144 0
M  V30 3986 H 416.824 2.79984 1.07465 0
M  V30 3987 H 414.377 1.47223 0.524902 0
M  V30 3988 H 415.112 1.1373 3.03704 0
M  V30 3989 H 414.897 2.873 2.66836 0
M  V30 3990 H 416.387 2.30706 3.48087 0
M  V30 3991 N 416.824 -0.551391 1.4764 0
M  V30 3992 C 418.049 -1.33837 1.58437 0
M  V30 3993 C 418.474 -1.866 0.237063 0
M  V30 3994 O 417.832 -1.6328 -0.787994 0
M  V30 3995 C 417.88 -2.48014 2.61766 0
M  V30 3996 O 416.984 -3.50419 2.1744 0
M  V30 3997 H 416.325 -0.397299 0.532024 0
M  V30 3998 H 418.855 -0.665759 1.93465 0
M  V30 3999 H 418.865 -2.94503 2.82369 0
M  V30 4000 H 417.54 -2.08969 3.5959 0
M  V30 4001 H 416.117 -3.10196 2.06961 0
M  V30 4002 N 418.302 -1.35869 -0.798587 0
M  V30 4003 C 419.265 -1.29307 -1.89242 0
M  V30 4004 C 420.265 -0.202747 -1.59517 0
M  V30 4005 O 421.455 -0.456957 -1.681 0
M  V30 4006 C 418.587 -1.00229 -3.25833 0
M  V30 4007 H 419.78 -2.26576 -1.96478 0
M  V30 4008 H 417.333 -1.20509 -0.995358 0
M  V30 4009 H 418.068 -0.033801 -3.24282 0
M  V30 4010 H 417.853 -1.79121 -3.48795 0
M  V30 4011 H 419.343 -0.98219 -4.05885 0
M  V30 4012 N 419.78 1.02168 -1.19998 0
M  V30 4013 C 421.008 1.79296 -1.03249 0
M  V30 4014 C 421.423 1.84103 0.418502 0
M  V30 4015 O 420.78 1.29031 1.29063 0
M  V30 4016 C 420.831 3.24007 -1.60319 0
M  V30 4017 O 420.552 3.19512 -2.99739 0
M  V30 4018 C 422.053 4.17704 -1.48453 0
M  V30 4019 H 419.273 0.564016 -0.363493 0
M  V30 4020 H 421.817 1.28639 -1.58973 0
M  V30 4021 H 419.972 3.7183 -1.08727 0
M  V30 4022 H 420.386 4.10306 -3.26725 0
M  V30 4023 H 421.86 5.17104 -1.93153 0
M  V30 4024 H 422.337 4.37029 -0.436193 0
M  V30 4025 H 422.943 3.7576 -1.99211 0
M  V30 4026 N 421.258 1.00505 1.21394 0
M  V30 4027 C 422.19 0.52372 2.23136 0
M  V30 4028 C 423.203 -0.387714 1.58116 0
M  V30 4029 O 424.392 -0.187905 1.77508 0
M  V30 4030 C 421.492 -0.258885 3.3791 0
M  V30 4031 C 420.665 0.651634 4.32519 0
M  V30 4032 C 419.724 -0.0813705 5.26137 0
M  V30 4033 O 418.75 0.537295 5.66658 0
M  V30 4034 N 419.952 -1.35992 5.64346 0
M  V30 4035 H 422.717 1.39865 2.65062 0
M  V30 4036 H 420.278 0.881196 1.35818 0
M  V30 4037 H 422.27 -0.758208 3.97534 0
M  V30 4038 H 420.84 -1.035 2.94968 0
M  V30 4039 H 420.06 1.33145 3.71034 0
M  V30 4040 H 421.348 1.27129 4.92662 0
M  V30 4041 H 420.746 -1.88368 5.33417 0
M  V30 4042 H 419.303 -1.8042 6.26332 0
M  V30 4043 N 422.737 -1.36956 0.779787 0
M  V30 4044 C 423.962 -2.04283 0.358224 0
M  V30 4045 C 424.387 -1.58422 -1.01411 0
M  V30 4046 O 423.745 -0.748179 -1.65142 0
M  V30 4047 C 423.793 -3.58152 0.419479 0
M  V30 4048 O 422.897 -4.08342 -0.577142 0
M  V30 4049 H 422.238 -0.645967 0.153698 0
M  V30 4050 H 424.768 -1.75108 1.05822 0
M  V30 4051 H 424.778 -4.07041 0.279636 0
M  V30 4052 H 423.453 -3.90886 1.42061 0
M  V30 4053 H 422.03 -3.70751 -0.399755 0
M  V30 4054 N 424.215 -0.530993 -1.48385 0
M  V30 4055 C 425.455 0.000718982 -2.044 0
M  V30 4056 C 425.819 1.31485 -1.39913 0
M  V30 4057 O 427.02 1.93265 -1.86821 0
M  V30 4058 C 425.291 0.119177 -3.57201 0
M  V30 4059 S 426.85 0.600806 -4.34667 0
M  V30 4060 H 423.668 -0.0125473 -0.710889 0
M  V30 4061 H 426.27 -0.711783 -1.82082 0
M  V30 4062 H 424.974 -0.842061 -4.01668 0
M  V30 4063 H 424.505 0.856026 -3.83974 0
M  V30 4064 H 426.52 1.86514 -4.59812 0
M  V30 4065 N 425.693 1.55336 -0.266172 0
M  V30 4066 C 426.641 2.23587 0.641228 0
M  V30 4067 C 427.635 1.22986 1.16494 0
M  V30 4068 O 428.841 1.40943 1.1196 0
M  V30 4069 H 425.216 0.717452 0.225315 0
M  V30 4070 H 427.187 2.9837 0.0426561 0
M  V30 4071 C 425.936 2.96369 1.81826 0
M  V30 4072 H 425.259 3.73563 1.42445 0
M  V30 4073 H 426.699 3.47459 2.42998 0
M  V30 4074 C 425.158 2.0133 2.70125 0
M  V30 4075 O 425.688 1.55875 3.70224 0
M  V30 4076 N 423.894 1.6802 2.37102 0
M  V30 4077 H 423.441 2.05181 1.55751 0
M  V30 4078 H 423.399 1.047 2.96454 0
M  V30 4079 N 427.171 -0.0066808 1.57599 0
M  V30 4080 C 428.448 -0.729586 1.81484 0
M  V30 4081 C 428.828 -1.92359 0.869558 0
M  V30 4082 O 428.176 -2.28348 -0.0832533 0
M  V30 4083 C 428.386 -1.1416 3.29801 0
M  V30 4084 C 429.734 -1.54823 3.95367 0
M  V30 4085 O 430.758 -1.23558 3.34084 0
M  V30 4086 O 429.617 -2.12937 5.03309 0
M  V30 4087 H 426.711 -0.354674 0.747085 0
M  V30 4088 H 429.257 0.0182609 1.6969 0
M  V30 4089 H 428.029 -0.290231 3.90222 0
M  V30 4090 H 427.652 -1.94876 3.46568 0
M  V30 4091 N 428.649 -1.55105 -0.279332 0
M  V30 4092 C 429.579 -1.90557 -1.34945 0
M  V30 4093 C 430.56 -0.766738 -1.51839 0
M  V30 4094 O 431.745 -1.02434 -1.64988 0
M  V30 4095 C 428.875 -2.17193 -2.71006 0
M  V30 4096 C 427.829 -3.33021 -2.68851 0
M  V30 4097 C 427.155 -3.45123 -4.08405 0
M  V30 4098 C 428.455 -4.69578 -2.28678 0
M  V30 4099 H 430.149 -2.80188 -1.05522 0
M  V30 4100 H 427.695 -1.34811 -0.506173 0
M  V30 4101 H 429.648 -2.40581 -3.45975 0
M  V30 4102 H 428.372 -1.24355 -3.01999 0
M  V30 4103 H 427.031 -3.0959 -1.9634 0
M  V30 4104 H 426.679 -2.49762 -4.3661 0
M  V30 4105 H 426.379 -4.22995 -4.07859 0
M  V30 4106 H 427.903 -3.70796 -4.85121 0
M  V30 4107 H 429.317 -4.92553 -2.93368 0
M  V30 4108 H 427.714 -5.5032 -2.39306 0
M  V30 4109 H 428.784 -4.68828 -1.23807 0
M  V30 4110 N 430.127 0.543554 -1.4793 0
M  V30 4111 C 431.367 1.31072 -1.56843 0
M  V30 4112 C 431.731 1.90604 -0.231124 0
M  V30 4113 O 432.932 2.68091 -0.195165 0
M  V30 4114 C 431.203 2.38106 -2.66533 0
M  V30 4115 S 432.762 3.24729 -2.95122 0
M  V30 4116 H 429.58 0.446035 -0.553691 0
M  V30 4117 H 432.182 0.620777 -1.85382 0
M  V30 4118 H 430.886 1.92828 -3.62278 0
M  V30 4119 H 430.417 3.11824 -2.39852 0
M  V30 4120 H 432.432 4.37891 -2.3338 0
M  V30 4121 N 431.605 1.3629 0.791371 0
M  V30 4122 C 432.515 1.32606 1.93527 0
M  V30 4123 C 433.531 0.228541 1.72493 0
M  V30 4124 O 434.707 0.460571 1.96063 0
M  V30 4125 C 431.772 1.11271 3.28359 0
M  V30 4126 C 430.833 2.3048 3.62185 0
M  V30 4127 C 430.066 2.10154 4.90583 0
M  V30 4128 O 430.289 1.07572 5.60165 0
M  V30 4129 O 429.223 2.97884 5.23019 0
M  V30 4130 H 433.049 2.28909 1.99585 0
M  V30 4131 H 430.634 1.16818 0.931344 0
M  V30 4132 H 432.516 1.01283 4.09047 0
M  V30 4133 H 431.191 0.180292 3.23198 0
M  V30 4134 H 430.098 2.46036 2.81811 0
M  V30 4135 H 431.431 3.22221 3.72068 0
M  V30 4136 N 433.083 -1.0153 1.20538 0
M  V30 4137 C 434.033 -2.08482 0.922991 0
M  V30 4138 C 435.017 -1.60469 -0.117702 0
M  V30 4139 O 436.209 -1.76772 0.0898465 0
M  V30 4140 C 433.338 -3.39952 0.478312 0
M  V30 4141 C 432.424 -3.94662 1.5525 0
M  V30 4142 N 432.815 -4.22866 2.77521 0
M  V30 4143 C 431.113 -4.22825 1.41897 0
M  V30 4144 C 431.814 -4.67002 3.4682 0
M  V30 4145 N 430.79 -4.69356 2.74237 0
M  V30 4146 H 434.592 -2.28199 1.85209 0
M  V30 4147 H 432.106 -1.19512 1.09957 0
M  V30 4148 H 434.103 -4.16105 0.257408 0
M  V30 4149 H 432.763 -3.21648 -0.444148 0
M  V30 4150 H 433.774 -4.11732 3.1416 0
M  V30 4151 H 430.451 -4.13714 0.561015 0
M  V30 4152 H 431.841 -4.97632 4.51455 0
M  V30 4153 N 434.561 -1.01147 -1.20859 0
M  V30 4154 C 435.808 -0.697865 -1.90095 0
M  V30 4155 C 436.136 0.772014 -1.78522 0
M  V30 4156 O 435.391 1.57595 -1.16027 0
M  V30 4157 C 435.69 -1.0727 -3.40922 0
M  V30 4158 C 435.356 -2.53792 -3.72693 0
M  V30 4159 C 434.018 -2.93829 -3.81075 0
M  V30 4160 C 436.37 -3.48674 -3.87397 0
M  V30 4161 C 433.698 -4.27696 -4.01613 0
M  V30 4162 C 436.05 -4.82223 -4.09444 0
M  V30 4163 C 434.714 -5.21973 -4.16054 0
M  V30 4164 H 433.984 -0.255367 -0.695607 0
M  V30 4165 H 436.631 -1.27111 -1.43231 0
M  V30 4166 H 434.936 -0.417799 -3.89566 0
M  V30 4167 H 436.633 -0.807818 -3.92779 0
M  V30 4168 H 433.223 -2.21768 -3.66765 0
M  V30 4169 H 437.407 -3.18904 -3.80281 0
M  V30 4170 H 432.663 -4.58055 -4.04964 0
M  V30 4171 H 436.837 -5.55672 -4.19763 0
M  V30 4172 H 434.464 -6.25717 -4.31721 0
M  V30 4173 N 436.039 1.36541 -0.78704 0
M  V30 4174 C 437.279 2.01138 -0.363714 0
M  V30 4175 C 437.643 1.61114 1.04433 0
M  V30 4176 O 438.844 2.18285 1.56861 0
M  V30 4177 C 437.115 3.53603 -0.519582 0
M  V30 4178 S 438.674 4.38415 -0.183782 0
M  V30 4179 H 435.492 0.697263 -0.13909 0
M  V30 4180 H 438.094 1.66475 -1.02501 0
M  V30 4181 H 436.798 3.8022 -1.5447 0
M  V30 4182 H 436.329 3.93084 0.15773 0
M  V30 4183 H 438.344 4.85698 1.01547 0
M  V30 4184 N 437.518 0.538854 1.48102 0
M  V30 4185 C 438.764 0.00801365 2.02798 0
M  V30 4186 C 439.097 -1.3309 1.41424 0
M  V30 4187 O 438.372 -1.86169 0.563158 0
M  V30 4188 C 438.655 -0.104589 3.59948 0
M  V30 4189 C 438.508 1.26012 4.31788 0
M  V30 4190 C 439.827 -0.827055 4.32259 0
M  V30 4191 H 436.946 0.00438624 0.736987 0
M  V30 4192 H 439.588 0.6976 1.7673 0
M  V30 4193 H 437.738 -0.691893 3.82289 0
M  V30 4194 H 439.41 1.88922 4.2084 0
M  V30 4195 H 437.653 1.83968 3.92859 0
M  V30 4196 H 438.324 1.13424 5.40221 0
M  V30 4197 H 440.8 -0.328578 4.14801 0
M  V30 4198 H 439.676 -0.87476 5.41885 0
M  V30 4199 H 439.937 -1.87927 4.0017 0
M  V30 4200 N 438.996 -1.55193 0.274407 0
M  V30 4201 C 440.407 -1.85358 -0.223488 0
M  V30 4202 C 440.758 -1.19642 -1.555 0
M  V30 4203 O 439.883 -0.484498 -2.10907 0
M  V30 4204 C 440.478 -3.36282 -0.412285 0
M  V30 4205 C 439.037 -3.66574 -0.854413 0
M  V30 4206 C 438.184 -2.7725 0.0527056 0
M  V30 4207 H 441.135 -1.50743 0.496215 0
M  V30 4208 H 441.156 -3.59349 -1.25094 0
M  V30 4209 H 440.668 -3.84083 0.556965 0
M  V30 4210 H 438.769 -3.24273 -1.83516 0
M  V30 4211 H 438.882 -4.74073 -0.692226 0
M  V30 4212 H 437.246 -2.50447 -0.463484 0
M  V30 4213 H 438.029 -3.27865 1.01783 0
M  V30 4214 N 440.474 -0.00167713 -1.576 0
M  V30 4215 C 441.422 1.0074 -2.09652 0
M  V30 4216 C 442.416 1.35483 -1.01689 0
M  V30 4217 O 443.622 1.34028 -1.20152 0
M  V30 4218 H 439.997 0.342537 -0.669457 0
M  V30 4219 H 441.968 0.542841 -2.93421 0
M  V30 4220 C 440.717 2.2899 -2.61647 0
M  V30 4221 H 440.04 2.03124 -3.44355 0
M  V30 4222 H 441.48 2.9787 -3.01744 0
M  V30 4223 C 439.939 3.00085 -1.53136 0
M  V30 4224 O 440.469 3.91135 -0.91524 0
M  V30 4225 N 438.675 2.6194 -1.25841 0
M  V30 4226 H 438.222 1.8798 -1.76129 0
M  V30 4227 H 438.18 3.09822 -0.534576 0
M  V30 4228 N 441.952 1.55251 0.271103 0
M  V30 4229 C 443.363 1.66635 0.842007 0
M  V30 4230 C 443.714 0.594631 1.86972 0
M  V30 4231 O 442.839 -0.263532 2.14789 0
M  V30 4232 C 443.434 3.02082 1.53401 0
M  V30 4233 C 441.993 3.15487 2.05293 0
M  V30 4234 C 441.14 2.62438 0.895631 0
M  V30 4235 H 444.091 1.58629 0.0474117 0
M  V30 4236 H 444.112 2.95176 2.40107 0
M  V30 4237 H 443.624 3.80062 0.785786 0
M  V30 4238 H 441.725 2.42284 2.83071 0
M  V30 4239 H 441.838 4.22075 2.26693 0
M  V30 4240 H 440.202 2.19644 1.28953 0
M  V30 4241 H 440.985 3.42923 0.160878 0
M  V30 4242 N 443.43 -0.535701 1.48216 0
M  V30 4243 C 444.707 -1.29683 1.46429 0
M  V30 4244 C 445.087 -2.10391 0.172852 0
M  V30 4245 O 444.435 -2.12282 -0.845488 0
M  V30 4246 C 444.645 -2.18313 2.72287 0
M  V30 4247 C 445.993 -2.78639 3.20383 0
M  V30 4248 O 447.017 -2.28604 2.73164 0
M  V30 4249 O 445.876 -3.69636 4.02531 0
M  V30 4250 H 442.97 -0.585026 0.584529 0
M  V30 4251 H 445.516 -0.552827 1.60443 0
M  V30 4252 H 444.288 -1.58421 3.57797 0
M  V30 4253 H 443.911 -2.99971 2.60966 0
M  V30 4254 N 444.908 -1.36708 -0.784132 0
M  V30 4255 C 445.84 -1.27333 -1.90575 0
M  V30 4256 C 446.853 -0.191706 -1.61667 0
M  V30 4257 O 448.042 -0.446854 -1.72816 0
M  V30 4258 C 445.142 -0.943177 -3.25511 0
M  V30 4259 C 444.315 -2.12776 -3.82158 0
M  V30 4260 C 443.374 -1.76983 -4.95544 0
M  V30 4261 O 442.4 -2.49134 -5.11782 0
M  V30 4262 N 443.602 -0.706624 -5.76183 0
M  V30 4263 H 446.367 -2.23974 -1.99138 0
M  V30 4264 H 443.928 -1.30171 -0.962656 0
M  V30 4265 H 445.92 -0.684799 -3.98864 0
M  V30 4266 H 444.49 -0.0657333 -3.12531 0
M  V30 4267 H 443.71 -2.54863 -3.0073 0
M  V30 4268 H 444.998 -2.91904 -4.16737 0
M  V30 4269 H 444.396 -0.107643 -5.65598 0
M  V30 4270 H 442.953 -0.50808 -6.49817 0
M  V30 4271 N 446.386 1.0089 -1.21074 0
M  V30 4272 C 447.797 1.56056 -1.02486 0
M  V30 4273 C 448.148 1.91728 0.416506 0
M  V30 4274 O 447.273 1.73066 1.29912 0
M  V30 4275 C 447.868 2.83563 -1.85411 0
M  V30 4276 C 446.427 3.3523 -1.71166 0
M  V30 4277 C 445.574 2.0846 -1.82865 0
M  V30 4278 H 448.525 0.831818 -1.35154 0
M  V30 4279 H 448.546 3.55286 -1.36205 0
M  V30 4280 H 448.058 2.57569 -2.9031 0
M  V30 4281 H 446.159 3.66167 -0.689361 0
M  V30 4282 H 446.272 4.06913 -2.52901 0
M  V30 4283 H 444.636 2.21275 -1.26132 0
M  V30 4284 H 445.419 1.84883 -2.89263 0
M  V30 4285 N 447.864 1.01787 1.20321 0
M  V30 4286 C 449.112 0.706538 1.89347 0
M  V30 4287 C 449.433 -0.766289 1.79313 0
M  V30 4288 O 448.703 -1.55126 1.19635 0
M  V30 4289 H 447.283 0.258348 0.700903 0
M  V30 4290 H 449.945 1.28974 1.46122 0
M  V30 4291 H 449.041 0.991066 2.95946 0
M  V30 4292 N 449.342 -1.36122 0.79427 0
M  V30 4293 C 450.567 -2.03891 0.379871 0
M  V30 4294 C 450.992 -1.59488 -0.997251 0
M  V30 4295 O 450.35 -0.765652 -1.64339 0
M  V30 4296 C 450.398 -3.57687 0.457442 0
M  V30 4297 O 449.502 -4.08931 -0.5338 0
M  V30 4298 H 448.843 -0.6443 0.160541 0
M  V30 4299 H 451.373 -1.73976 1.07673 0
M  V30 4300 H 451.383 -4.06721 0.322792 0
M  V30 4301 H 450.058 -3.89357 1.46199 0
M  V30 4302 H 448.635 -3.71154 -0.360409 0
M  V30 4303 N 450.82 -0.546701 -1.47814 0
M  V30 4304 C 452.05 -0.0232519 -2.06587 0
M  V30 4305 C 452.458 1.2712 -1.40133 0
M  V30 4306 O 451.801 1.77091 -0.488305 0
M  V30 4307 C 451.863 0.254117 -3.58601 0
M  V30 4308 C 451.527 -0.949331 -4.47031 0
M  V30 4309 C 452.524 -1.85216 -4.85789 0
M  V30 4310 C 450.209 -1.16104 -4.88697 0
M  V30 4311 C 452.203 -2.95047 -5.65001 0
M  V30 4312 C 449.89 -2.26247 -5.67676 0
M  V30 4313 C 450.888 -3.1555 -6.05737 0
M  V30 4314 O 450.576 -4.23784 -6.83127 0
M  V30 4315 H 450.308 -0.0380082 -0.674931 0
M  V30 4316 H 452.862 -0.756631 -1.90956 0
M  V30 4317 H 451.092 1.04168 -3.72406 0
M  V30 4318 H 452.781 0.72167 -3.99433 0
M  V30 4319 H 453.547 -1.70061 -4.54207 0
M  V30 4320 H 449.426 -0.475159 -4.58545 0
M  V30 4321 H 452.97 -3.64778 -5.94628 0
M  V30 4322 H 448.867 -2.41379 -5.98671 0
M  V30 4323 H 449.635 -4.21701 -7.01506 0
M  V30 4324 N 452.299 1.55045 -0.282633 0
M  V30 4325 C 453.524 2.04628 0.337977 0
M  V30 4326 C 453.949 1.15937 1.48123 0
M  V30 4327 O 453.307 0.159532 1.80597 0
M  V30 4328 C 453.355 3.51854 0.78936 0
M  V30 4329 O 452.459 3.66236 1.89592 0
M  V30 4330 H 451.8 0.660434 0.0687261 0
M  V30 4331 H 454.33 2.00261 -0.419124 0
M  V30 4332 H 454.34 3.93361 1.08311 0
M  V30 4333 H 453.015 4.15873 -0.0470419 0
M  V30 4334 H 451.592 3.36633 1.60413 0
M  V30 4335 N 453.777 0.010035 1.57597 0
M  V30 4336 C 455.017 -0.677084 1.9286 0
M  V30 4337 C 455.381 -1.70377 0.885192 0
M  V30 4338 O 456.582 -2.44199 1.12339 0
M  V30 4339 C 454.853 -1.29452 3.33132 0
M  V30 4340 S 456.412 -2.00537 3.90295 0
M  V30 4341 H 453.23 -0.223409 0.674989 0
M  V30 4342 H 455.832 0.0691289 1.95378 0
M  V30 4343 H 454.536 -0.534593 4.06903 0
M  V30 4344 H 454.067 -2.07845 3.34012 0
M  V30 4345 H 456.082 -3.28168 3.72183 0
M  V30 4346 N 455.255 -1.55392 -0.262866 0
M  V30 4347 C 456.188 -1.8391 -1.35101 0
M  V30 4348 C 457.166 -0.692901 -1.47097 0
M  V30 4349 O 458.35 -0.936979 -1.63563 0
M  V30 4350 C 455.477 -2.00969 -2.72634 0
M  V30 4351 C 454.523 -3.23559 -2.7787 0
M  V30 4352 S 455.356 -4.80647 -2.3609 0
M  V30 4353 C 456.512 -5.00692 -3.75578 0
M  V30 4354 H 456.745 -2.75918 -1.1071 0
M  V30 4355 H 454.278 -1.47294 -0.463029 0
M  V30 4356 H 456.236 -2.11482 -3.51832 0
M  V30 4357 H 454.897 -1.09832 -2.94272 0
M  V30 4358 H 454.09 -3.32413 -3.78837 0
M  V30 4359 H 453.692 -3.11689 -2.06702 0
M  V30 4360 H 455.984 -4.87055 -4.70939 0
M  V30 4361 H 456.927 -6.02717 -3.71669 0
M  V30 4362 H 457.335 -4.28619 -3.6735 0
M  V30 4363 N 456.733 0.527833 -1.48498 0
M  V30 4364 C 457.973 1.29401 -1.58224 0
M  V30 4365 C 458.337 1.90348 -0.251327 0
M  V30 4366 O 459.538 2.67868 -0.223588 0
M  V30 4367 C 457.809 2.35266 -2.69044 0
M  V30 4368 S 459.368 3.2158 -2.98549 0
M  V30 4369 H 456.186 0.440138 -0.558391 0
M  V30 4370 H 458.788 0.601079 -1.8603 0
M  V30 4371 H 457.492 1.88975 -3.64303 0
M  V30 4372 H 457.023 3.09263 -2.43146 0
M  V30 4373 H 459.038 4.35391 -2.38011 0
M  V30 4374 N 458.211 1.37122 0.776871 0
M  V30 4375 C 459.121 1.34651 1.9211 0
M  V30 4376 C 460.137 0.246824 1.7224 0
M  V30 4377 O 461.313 0.48134 1.95563 0
M  V30 4378 C 458.378 1.14748 3.2716 0
M  V30 4379 C 457.439 2.34308 3.5972 0
M  V30 4380 C 456.672 2.15345 4.88326 0
M  V30 4381 O 456.895 1.13507 5.58992 0
M  V30 4382 O 455.829 3.03414 5.1983 0
M  V30 4383 H 459.655 2.31013 1.97146 0
M  V30 4384 H 457.24 1.17799 0.918901 0
M  V30 4385 H 459.122 1.05616 4.0795 0
M  V30 4386 H 457.797 0.214562 3.22988 0
M  V30 4387 H 456.704 2.49011 2.79185 0
M  V30 4388 H 458.037 3.26149 3.68629 0
M  V30 4389 N 459.689 -1.00246 1.21608 0
M  V30 4390 C 460.917 -1.77631 1.06089 0
M  V30 4391 C 461.332 -1.84746 -0.38916 0
M  V30 4392 O 460.689 -1.31068 -1.26994 0
M  V30 4393 C 460.74 -3.21415 1.65453 0
M  V30 4394 O 460.461 -3.14703 3.04785 0
M  V30 4395 C 461.962 -4.15289 1.55079 0
M  V30 4396 H 459.182 -0.558162 0.37242 0
M  V30 4397 H 461.726 -1.26093 1.60999 0
M  V30 4398 H 459.881 -3.70053 1.14629 0
M  V30 4399 H 460.295 -4.05056 3.33212 0
M  V30 4400 H 461.769 -5.13965 2.01355 0
M  V30 4401 H 462.246 -4.36279 0.505665 0
M  V30 4402 H 462.852 -3.72543 2.05163 0
M  V30 4403 N 461.167 -1.02423 -1.1978 0
M  V30 4404 C 462.415 -0.716569 -1.8897 0
M  V30 4405 C 462.736 0.756769 -1.79716 0
M  V30 4406 O 462.006 1.5449 -1.20456 0
M  V30 4407 H 460.586 -0.262062 -0.699523 0
M  V30 4408 H 463.248 -1.29747 -1.45436 0
M  V30 4409 H 462.344 -1.00675 -2.95417 0
M  V30 4410 N 462.645 1.35699 -0.801477 0
M  V30 4411 C 463.875 2.02862 -0.3912 0
M  V30 4412 C 464.283 1.60552 1.00099 0
M  V30 4413 O 463.626 0.796215 1.65548 0
M  V30 4414 C 463.688 3.57386 -0.389299 0
M  V30 4415 C 463.352 4.22943 -1.73113 0
M  V30 4416 C 464.349 4.44984 -2.68859 0
M  V30 4417 C 462.034 4.60167 -2.01373 0
M  V30 4418 C 464.028 5.03345 -3.91053 0
M  V30 4419 C 461.715 5.18243 -3.23832 0
M  V30 4420 C 462.713 5.39773 -4.1849 0
M  V30 4421 O 462.401 5.96626 -5.38788 0
M  V30 4422 H 462.133 0.657341 -0.157732 0
M  V30 4423 H 464.687 1.74407 -1.08496 0
M  V30 4424 H 462.917 3.85011 0.361031 0
M  V30 4425 H 464.606 4.059 -0.0020365 0
M  V30 4426 H 465.372 4.1661 -2.48316 0
M  V30 4427 H 461.251 4.42726 -1.28508 0
M  V30 4428 H 464.795 5.20065 -4.64949 0
M  V30 4429 H 460.692 5.46044 -3.44248 0
M  V30 4430 H 461.46 6.15082 -5.40015 0
M  V30 4431 N 464.123 0.554532 1.47522 0
M  V30 4432 C 465.539 0.214107 1.58157 0
M  V30 4433 C 465.739 -1.28331 1.55349 0
M  V30 4434 O 464.795 -2.06329 1.45549 0
M  V30 4435 C 466.108 0.838391 2.88776 0
M  V30 4436 C 467.656 0.809374 3.02354 0
M  V30 4437 C 468.131 1.41268 4.35669 0
M  V30 4438 N 469.622 1.37574 4.42298 0
M  V30 4439 C 470.357 1.8122 5.4401 0
M  V30 4440 N 469.853 2.3271 6.52547 0
M  V30 4441 N 471.646 1.72307 5.35039 0
M  V30 4442 H 463.797 1.52744 1.4759 0
M  V30 4443 H 466.06 0.636812 0.702264 0
M  V30 4444 H 465.766 1.89065 2.96559 0
M  V30 4445 H 465.64 0.329847 3.75755 0
M  V30 4446 H 468.027 -0.234187 2.94169 0
M  V30 4447 H 468.108 1.35565 2.16924 0
M  V30 4448 H 467.752 2.45529 4.4461 0
M  V30 4449 H 467.682 0.841871 5.19827 0
M  V30 4450 H 470.173 0.999081 3.64454 0
M  V30 4451 H 470.486 2.63944 7.26329 0
M  V30 4452 H 468.831 2.36719 6.53444 0
M  V30 4453 H 472.022 1.3186 4.49144 0
M  V30 4454 H 472.195 2.06641 6.14169 0
M  V30 4455 N 465.601 -1.54893 0.290851 0
M  V30 4456 C 466.531 -2.26103 -0.583084 0
M  V30 4457 C 467.512 -1.25684 -1.14619 0
M  V30 4458 O 468.697 -1.54436 -1.17741 0
M  V30 4459 C 465.827 -2.99409 -1.75987 0
M  V30 4460 C 464.781 -4.0689 -1.32758 0
M  V30 4461 C 464.107 -4.67856 -2.58872 0
M  V30 4462 C 465.407 -5.20215 -0.46624 0
M  V30 4463 H 467.101 -2.99398 0.0108214 0
M  V30 4464 H 464.647 -1.43998 0.00664468 0
M  V30 4465 H 466.6 -3.47943 -2.37727 0
M  V30 4466 H 465.324 -2.23675 -2.37985 0
M  V30 4467 H 463.983 -3.59191 -0.733299 0
M  V30 4468 H 463.631 -3.88772 -3.19163 0
M  V30 4469 H 463.331 -5.40438 -2.30653 0
M  V30 4470 H 464.855 -5.19147 -3.21433 0
M  V30 4471 H 466.269 -5.64704 -0.989047 0
M  V30 4472 H 464.666 -5.99455 -0.27826 0
M  V30 4473 H 465.736 -4.82198 0.511173 0
M  V30 4474 N 467.08 -0.0183926 -1.57589 0
M  V30 4475 C 468.043 0.951986 -2.08494 0
M  V30 4476 C 469.043 1.26092 -0.997874 0
M  V30 4477 O 470.233 1.20304 -1.25987 0
M  V30 4478 C 467.365 2.27165 -2.54182 0
M  V30 4479 H 468.558 0.511307 -2.95509 0
M  V30 4480 H 466.111 0.229444 -1.54607 0
M  V30 4481 H 466.846 2.75884 -1.70465 0
M  V30 4482 H 466.631 2.06057 -3.33591 0
M  V30 4483 H 468.121 2.9674 -2.93828 0
M  V30 4484 N 468.558 1.5553 0.254621 0
M  V30 4485 C 469.521 1.88872 1.29846 0
M  V30 4486 C 470.521 0.764591 1.41459 0
M  V30 4487 O 471.711 1.03265 1.40293 0
M  V30 4488 C 468.843 2.11032 2.67728 0
M  V30 4489 H 470.036 2.82201 1.01502 0
M  V30 4490 H 467.589 1.48303 0.493556 0
M  V30 4491 H 468.324 1.20146 3.01223 0
M  V30 4492 H 468.109 2.92895 2.60682 0
M  V30 4493 H 469.599 2.38038 3.43115 0
M  V30 4494 N 470.036 -0.519951 1.48776 0
M  V30 4495 C 471.313 -1.28123 1.47797 0
M  V30 4496 C 471.693 -2.10196 0.195157 0
M  V30 4497 O 471.041 -2.13167 -0.822925 0
M  V30 4498 C 471.251 -2.15413 2.74587 0
M  V30 4499 C 472.599 -2.75225 3.23321 0
M  V30 4500 O 473.623 -2.25694 2.75574 0
M  V30 4501 O 472.482 -3.65346 4.06429 0
M  V30 4502 H 469.576 -0.578793 0.590701 0
M  V30 4503 H 472.122 -0.535779 1.6102 0
M  V30 4504 H 470.894 -1.54617 3.59457 0
M  V30 4505 H 470.517 -2.97186 2.64132 0
M  V30 4506 N 471.514 -1.37532 -0.769588 0
M  V30 4507 C 472.446 -1.29347 -1.89214 0
M  V30 4508 C 473.459 -0.208842 -1.61455 0
M  V30 4509 O 474.648 -0.465158 -1.72333 0
M  V30 4510 C 471.748 -0.977649 -3.24492 0
M  V30 4511 C 470.921 -2.16817 -3.7988 0
M  V30 4512 C 469.98 -1.82229 -4.93639 0
M  V30 4513 O 469.006 -2.54548 -5.09111 0
M  V30 4514 N 470.208 -0.767696 -5.75401 0
M  V30 4515 H 472.973 -2.26073 -1.96751 0
M  V30 4516 H 470.534 -1.31185 -0.948795 0
M  V30 4517 H 472.526 -0.727065 -3.98115 0
M  V30 4518 H 471.096 -0.0988777 -3.12444 0
M  V30 4519 H 470.316 -2.58038 -2.9801 0
M  V30 4520 H 471.604 -2.96308 -4.13617 0
M  V30 4521 H 471.002 -0.167626 -5.65452 0
M  V30 4522 H 469.559 -0.576973 -6.49241 0
M  V30 4523 N 472.992 0.995999 -1.22138 0
M  V30 4524 C 473.942 2.06988 -0.956042 0
M  V30 4525 C 474.926 1.60636 0.0921576 0
M  V30 4526 O 476.118 1.76607 -0.117958 0
M  V30 4527 C 473.247 3.39148 -0.532335 0
M  V30 4528 C 472.333 3.92142 -1.61509 0
M  V30 4529 N 472.724 4.18397 -2.84214 0
M  V30 4530 C 471.022 4.20514 -1.48606 0
M  V30 4531 C 471.723 4.61425 -3.54206 0
M  V30 4532 N 470.699 4.64934 -2.81669 0
M  V30 4533 H 474.501 2.25223 -1.88816 0
M  V30 4534 H 472.015 1.17748 -1.11845 0
M  V30 4535 H 474.012 4.15642 -0.323574 0
M  V30 4536 H 472.672 3.22314 0.392921 0
M  V30 4537 H 473.683 4.06682 -3.20671 0
M  V30 4538 H 470.36 4.12769 -0.626762 0
M  V30 4539 H 471.75 4.90387 -4.59315 0
M  V30 4540 N 474.47 1.03057 1.19235 0
M  V30 4541 C 475.886 0.747947 1.40989 0
M  V30 4542 C 476.086 -0.666752 1.90149 0
M  V30 4543 O 475.142 -1.43249 2.07933 0
M  V30 4544 C 476.455 1.7855 2.41951 0
M  V30 4545 C 478.003 1.80524 2.55695 0
M  V30 4546 C 478.478 2.83243 3.59913 0
M  V30 4547 N 479.969 2.8207 3.67411 0
M  V30 4548 C 480.704 3.58204 4.47747 0
M  V30 4549 N 480.2 4.44057 5.31775 0
M  V30 4550 N 481.993 3.46738 4.42413 0
M  V30 4551 H 474.144 1.94367 0.856468 0
M  V30 4552 H 476.407 0.840412 0.438647 0
M  V30 4553 H 476.113 2.79973 2.12857 0
M  V30 4554 H 475.987 1.6092 3.41152 0
M  V30 4555 H 478.374 0.79778 2.84112 0
M  V30 4556 H 478.455 2.02229 1.56643 0
M  V30 4557 H 478.099 3.84161 3.32239 0
M  V30 4558 H 478.029 2.58795 4.5862 0
M  V30 4559 H 480.52 2.19803 3.074 0
M  V30 4560 H 480.833 4.98884 5.90199 0
M  V30 4561 H 479.178 4.48129 5.3123 0
M  V30 4562 H 482.369 2.79077 3.75811 0
M  V30 4563 H 482.542 4.06322 5.04783 0
M  V30 4564 N 475.948 -1.35272 0.808662 0
M  V30 4565 C 477.188 -2.00534 0.395668 0
M  V30 4566 C 477.552 -1.62755 -1.01857 0
M  V30 4567 O 478.753 -2.20752 -1.53368 0
M  V30 4568 C 477.024 -3.52732 0.575771 0
M  V30 4569 S 478.583 -4.38067 0.253507 0
M  V30 4570 H 475.401 -0.694962 0.150165 0
M  V30 4571 H 478.003 -1.64823 1.05137 0
M  V30 4572 H 476.707 -3.77714 1.60499 0
M  V30 4573 H 476.238 -3.93285 -0.0951739 0
M  V30 4574 H 478.253 -4.87252 -0.938068 0
M  V30 4575 N 477.426 -0.562348 -1.47226 0
M  V30 4576 C 478.336 0.185466 -2.33866 0
M  V30 4577 C 479.352 0.906713 -1.48508 0
M  V30 4578 O 480.528 0.874458 -1.81425 0
M  V30 4579 C 477.593 1.19904 -3.25306 0
M  V30 4580 C 476.654 0.484669 -4.26555 0
M  V30 4581 C 475.887 1.44996 -5.13626 0
M  V30 4582 O 476.11 2.68515 -5.03245 0
M  V30 4583 O 475.044 0.971642 -5.94006 0
M  V30 4584 H 478.87 -0.525361 -2.99121 0
M  V30 4585 H 476.455 -0.322916 -1.45868 0
M  V30 4586 H 478.337 1.78399 -3.81774 0
M  V30 4587 H 477.012 1.8917 -2.62672 0
M  V30 4588 H 475.919 -0.141605 -3.73832 0
M  V30 4589 H 477.252 -0.166634 -4.91918 0
M  V30 4590 N 478.904 1.54736 -0.299062 0
M  V30 4591 C 480.181 1.92187 0.363802 0
M  V30 4592 C 480.561 1.22607 1.71845 0
M  V30 4593 O 479.909 0.361141 2.25628 0
M  V30 4594 C 480.119 3.45678 0.480377 0
M  V30 4595 C 481.467 4.17885 0.752147 0
M  V30 4596 O 482.491 3.51702 0.564264 0
M  V30 4597 O 481.35 5.35048 1.11294 0
M  V30 4598 H 478.444 0.801681 0.203066 0
M  V30 4599 H 480.99 1.66115 -0.346978 0
M  V30 4600 H 479.762 3.88443 -0.471999 0
M  V30 4601 H 479.385 3.77779 1.2397 0
M  V30 4602 N 480.382 0.0267497 1.57577 0
M  V30 4603 C 481.628 -0.653371 1.91987 0
M  V30 4604 C 481.961 -1.71915 0.903263 0
M  V30 4605 O 481.236 -1.94358 -0.0743387 0
M  V30 4606 C 481.519 -1.272 3.36886 0
M  V30 4607 C 481.372 -0.215938 4.49281 0
M  V30 4608 C 482.691 -2.19069 3.81703 0
M  V30 4609 H 479.81 -0.236047 0.698177 0
M  V30 4610 H 482.452 0.0835236 1.89816 0
M  V30 4611 H 480.602 -1.90005 3.38866 0
M  V30 4612 H 482.274 0.41449 4.59434 0
M  V30 4613 H 480.517 0.458855 4.31366 0
M  V30 4614 H 481.188 -0.688347 5.47691 0
M  V30 4615 H 483.664 -1.66253 3.81444 0
M  V30 4616 H 482.54 -2.59307 4.83788 0
M  V30 4617 H 482.801 -3.08087 3.17072 0
M  V30 4618 N 481.861 -1.55662 -0.24637 0
M  V30 4619 C 483.138 -1.68272 -0.997198 0
M  V30 4620 C 483.518 -0.566785 -2.03349 0
M  V30 4621 O 482.866 0.429688 -2.24424 0
M  V30 4622 C 483.076 -3.08594 -1.63006 0
M  V30 4623 C 484.424 -3.6721 -2.13171 0
M  V30 4624 O 485.448 -3.11397 -1.72946 0
M  V30 4625 O 484.307 -4.65054 -2.87031 0
M  V30 4626 H 481.401 -0.684429 -0.464205 0
M  V30 4627 H 483.947 -1.67993 -0.240114 0
M  V30 4628 H 482.719 -3.81264 -0.880527 0
M  V30 4629 H 482.342 -3.12886 -2.45333 0
M  V30 4630 N 483.339 0.512053 -1.4905 0
M  V30 4631 C 484.616 1.27337 -1.48474 0
M  V30 4632 C 484.996 2.1009 -0.206301 0
M  V30 4633 O 484.344 2.136 0.811609 0
M  V30 4634 C 484.554 2.13954 -2.75726 0
M  V30 4635 C 485.902 2.73507 -3.24776 0
M  V30 4636 O 486.926 2.24229 -2.76767 0
M  V30 4637 O 485.785 3.63186 -4.08361 0
M  V30 4638 H 482.879 0.575652 -0.593762 0
M  V30 4639 H 485.425 0.527232 -1.61302 0
M  V30 4640 H 484.197 1.52709 -3.60272 0
M  V30 4641 H 483.82 2.95782 -2.65705 0
M  V30 4642 N 484.817 1.37938 0.762283 0
M  V30 4643 C 486.057 1.35076 1.53407 0
M  V30 4644 C 486.421 -0.061546 1.91901 0
M  V30 4645 O 487.622 -0.214973 2.67939 0
M  V30 4646 C 485.893 2.27206 2.75884 0
M  V30 4647 S 487.452 2.42283 3.65848 0
M  V30 4648 H 484.27 0.479387 0.52508 0
M  V30 4649 H 486.872 1.7378 0.895586 0
M  V30 4650 H 485.576 3.28724 2.457 0
M  V30 4651 H 485.107 1.8962 3.44685 0
M  V30 4652 H 487.122 1.64044 4.68299 0
M  V30 4653 N 486.295 -0.989507 1.22664 0
M  V30 4654 C 487.544 -1.72375 1.04737 0
M  V30 4655 C 487.857 -1.91096 -0.417316 0
M  V30 4656 O 489.063 -2.6188 -0.716334 0
M  V30 4657 C 487.519 -3.10161 1.82561 0
M  V30 4658 C 487.127 -2.99358 3.333 0
M  V30 4659 C 488.871 -3.87607 1.73093 0
M  V30 4660 C 486.778 -4.32319 4.03552 0
M  V30 4661 H 485.708 -0.646326 0.388302 0
M  V30 4662 H 488.359 -1.10437 1.46546 0
M  V30 4663 H 486.741 -3.728 1.33552 0
M  V30 4664 H 487.915 -2.45863 3.89728 0
M  V30 4665 H 486.23 -2.35392 3.43481 0
M  V30 4666 H 488.827 -4.86025 2.22899 0
M  V30 4667 H 489.17 -4.10509 0.691976 0
M  V30 4668 H 489.703 -3.31652 2.19663 0
M  V30 4669 H 486.442 -4.14616 5.07714 0
M  V30 4670 H 485.962 -4.85714 3.51911 0
M  V30 4671 H 487.641 -5.01051 4.09337 0
M  V30 4672 N 487.773 -1.03688 -1.18687 0
M  V30 4673 C 488.703 -0.645407 -2.24403 0
M  V30 4674 C 489.684 0.349511 -1.66471 0
M  V30 4675 O 490.869 0.230453 -1.92828 0
M  V30 4676 C 487.999 -0.00365337 -3.473 0
M  V30 4677 C 486.953 -0.921705 -4.17958 0
M  V30 4678 C 486.279 -0.144629 -5.34504 0
M  V30 4679 C 487.579 -2.23909 -4.71871 0
M  V30 4680 H 489.273 -1.52917 -2.57404 0
M  V30 4681 H 486.819 -0.736711 -1.23728 0
M  V30 4682 H 488.772 0.281908 -4.20456 0
M  V30 4683 H 487.496 0.914963 -3.13522 0
M  V30 4684 H 486.155 -1.19159 -3.46694 0
M  V30 4685 H 485.803 0.776274 -4.96974 0
M  V30 4686 H 485.503 -0.756206 -5.82714 0
M  V30 4687 H 487.027 0.134004 -6.10453 0
M  V30 4688 H 488.441 -2.0145 -5.36741 0
M  V30 4689 H 486.838 -2.8033 -5.30599 0
M  V30 4690 H 487.908 -2.88822 -3.895 0
M  V30 4691 N 489.251 1.34841 -0.815825 0
M  V30 4692 C 490.161 2.33425 -0.234462 0
M  V30 4693 C 491.177 1.62295 0.627413 0
M  V30 4694 O 492.353 1.94109 0.536987 0
M  V30 4695 C 489.418 3.41471 0.599849 0
M  V30 4696 C 488.479 4.28362 -0.283596 0
M  V30 4697 C 487.712 5.31248 0.51099 0
M  V30 4698 O 487.935 5.43056 1.7449 0
M  V30 4699 O 486.869 6.01812 -0.10297 0
M  V30 4700 H 490.695 2.84962 -1.05024 0
M  V30 4701 H 488.28 1.37774 -0.577809 0
M  V30 4702 H 490.162 4.07464 1.07475 0
M  V30 4703 H 488.837 2.9219 1.39308 0
M  V30 4704 H 487.744 3.65318 -0.805836 0
M  V30 4705 H 489.077 4.81066 -1.041 0
M  V30 4706 N 490.729 0.570148 1.46925 0
M  V30 4707 C 492.14 0.1402 1.86173 0
M  V30 4708 C 492.491 -1.29347 1.47526 0
M  V30 4709 O 491.616 -1.97508 0.884292 0
M  V30 4710 C 492.211 0.247661 3.37894 0
M  V30 4711 C 490.77 -0.127332 3.76185 0
M  V30 4712 C 489.917 0.589349 2.70965 0
M  V30 4713 H 492.868 0.779117 1.38259 0
M  V30 4714 H 492.889 -0.530341 3.76786 0
M  V30 4715 H 492.401 1.29121 3.65991 0
M  V30 4716 H 490.502 -1.17149 3.53704 0
M  V30 4717 H 490.615 0.240238 4.78497 0
M  V30 4718 H 488.979 0.0309824 2.54681 0
M  V30 4719 H 489.762 1.6343 3.01903 0
M  V30 4720 N 492.207 -1.54576 0.307264 0
M  V30 4721 C 493.432 -2.05139 -0.305379 0
M  V30 4722 C 493.857 -1.18278 -1.46259 0
M  V30 4723 O 493.215 -0.188243 -1.8032 0
M  V30 4724 C 493.263 -3.53066 -0.733283 0
M  V30 4725 O 492.367 -3.69206 -1.83741 0
M  V30 4726 H 491.708 -0.661444 -0.0582105 0
M  V30 4727 H 494.238 -1.99569 0.450931 0
M  V30 4728 H 494.248 -3.95034 -1.02039 0
M  V30 4729 H 492.923 -4.15746 0.113198 0
M  V30 4730 H 491.5 -3.39143 -1.55037 0
M  V30 4731 N 493.685 -0.035106 -1.57561 0
M  V30 4732 C 495.096 0.502885 -1.798 0
M  V30 4733 C 495.447 1.71892 -0.945921 0
M  V30 4734 O 494.572 2.15822 -0.157991 0
M  V30 4735 C 495.167 0.919097 -3.26095 0
M  V30 4736 C 493.726 1.40216 -3.49308 0
M  V30 4737 C 492.873 0.369709 -2.74824 0
M  V30 4738 H 495.824 -0.261102 -1.56537 0
M  V30 4739 H 495.845 1.78308 -3.36135 0
M  V30 4740 H 495.357 0.0338526 -3.88085 0
M  V30 4741 H 493.458 2.30714 -2.92578 0
M  V30 4742 H 493.571 1.40541 -4.58023 0
M  V30 4743 H 491.935 0.839113 -2.40481 0
M  V30 4744 H 492.718 -0.507173 -3.39533 0
M  V30 4745 N 495.163 1.55791 0.238111 0
M  V30 4746 C 496.403 1.79801 0.972163 0
M  V30 4747 C 496.767 0.606027 1.82185 0
M  V30 4748 O 497.968 0.725079 2.58836 0
M  V30 4749 C 496.239 3.08608 1.80266 0
M  V30 4750 S 497.798 3.53872 2.59461 0
M  V30 4751 H 494.616 0.631418 0.326852 0
M  V30 4752 H 497.218 1.94031 0.239212 0
M  V30 4753 H 495.922 3.93419 1.1683 0
M  V30 4754 H 495.453 2.9714 2.57821 0
M  V30 4755 H 497.468 3.15899 3.82651 0
M  V30 4756 N 496.642 -0.504142 1.49319 0
M  V30 4757 C 498.053 -1.08572 1.51885 0
M  V30 4758 C 498.404 -1.93842 0.303255 0
M  V30 4759 O 497.529 -2.0828 -0.58724 0
M  V30 4760 C 498.124 -1.97574 2.75227 0
M  V30 4761 C 496.683 -2.509 2.80581 0
M  V30 4762 C 495.83 -1.28447 2.45757 0
M  V30 4763 H 498.781 -0.288194 1.56061 0
M  V30 4764 H 498.802 -2.82219 2.55211 0
M  V30 4765 H 498.314 -1.35486 3.63683 0
M  V30 4766 H 496.415 -3.16636 1.96398 0
M  V30 4767 H 496.528 -2.88268 3.82673 0
M  V30 4768 H 494.892 -1.60868 1.97468 0
M  V30 4769 H 495.675 -0.68072 3.36483 0
M  V30 4770 N 498.12 -1.38341 -0.754957 0
M  V30 4771 C 499.052 -1.31347 -1.87831 0
M  V30 4772 C 500.065 -0.225955 -1.61224 0
M  V30 4773 O 501.254 -0.48341 -1.7183 0
M  V30 4774 C 498.354 -1.01201 -3.23437 0
M  V30 4775 C 497.527 -2.20834 -3.77559 0
M  V30 4776 C 496.586 -1.87454 -4.91678 0
M  V30 4777 O 495.612 -2.59934 -5.06382 0
M  V30 4778 N 496.814 -0.828682 -5.74555 0
M  V30 4779 H 499.579 -2.28147 -1.94342 0
M  V30 4780 H 497.14 -1.32184 -0.934828 0
M  V30 4781 H 499.132 -0.769249 -3.97322 0
M  V30 4782 H 497.702 -0.132011 -3.12321 0
M  V30 4783 H 496.922 -2.61184 -2.95256 0
M  V30 4784 H 498.21 -3.00678 -4.10451 0
M  V30 4785 H 497.608 -0.227591 -5.65242 0
M  V30 4786 H 496.165 -0.645802 -6.48593 0
M  V30 4787 N 499.598 0.982988 -1.23187 0
M  V30 4788 C 501.014 1.2487 -0.993967 0
M  V30 4789 C 501.214 1.99155 0.306498 0
M  V30 4790 O 500.27 2.30688 1.0266 0
M  V30 4791 C 501.583 2.05078 -2.19917 0
M  V30 4792 C 503.131 2.18227 -2.2438 0
M  V30 4793 C 503.606 3.01825 -3.44479 0
M  V30 4794 N 505.097 3.09411 -3.44702 0
M  V30 4795 C 505.832 3.74412 -4.34285 0
M  V30 4796 N 505.328 4.41259 -5.341 0
M  V30 4797 N 507.121 3.71273 -4.22035 0
M  V30 4798 H 499.272 0.485253 -2.06783 0
M  V30 4799 H 501.535 0.276979 -0.906635 0
M  V30 4800 H 501.241 1.57867 -3.14279 0
M  V30 4801 H 501.115 3.05829 -2.2079 0
M  V30 4802 H 503.502 2.64648 -1.30559 0
M  V30 4803 H 503.583 1.16873 -2.2754 0
M  V30 4804 H 503.227 2.56102 -4.38605 0
M  V30 4805 H 503.157 4.03342 -3.38559 0
M  V30 4806 H 505.648 2.61845 -2.7248 0
M  V30 4807 H 505.961 4.88629 -5.98717 0
M  V30 4808 H 504.306 4.39975 -5.38002 0
M  V30 4809 H 507.497 3.18217 -3.43301 0
M  V30 4810 H 507.67 4.21649 -4.92053 0
M  V30 4811 N 501.076 1.04316 1.18135 0
M  V30 4812 C 502.316 0.756937 1.89868 0
M  V30 4813 C 502.68 -0.702609 1.78682 0
M  V30 4814 O 503.881 -1.10255 2.45148 0
M  V30 4815 C 502.152 1.21327 3.36176 0
M  V30 4816 S 503.711 1.05307 4.25976 0
M  V30 4817 H 500.529 0.275143 0.655604 0
M  V30 4818 H 503.131 1.33597 1.42731 0
M  V30 4819 H 501.835 2.27086 3.41848 0
M  V30 4820 H 501.366 0.628137 3.88353 0
M  V30 4821 H 503.381 -0.0280093 4.96192 0
M  V30 4822 N 502.554 -1.34406 0.822964 0
M  V30 4823 C 503.8 -1.98578 0.411666 0
M  V30 4824 C 504.133 -1.65093 -1.02264 0
M  V30 4825 O 503.408 -0.92258 -1.71227 0
M  V30 4826 C 503.691 -3.54823 0.614235 0
M  V30 4827 C 503.544 -3.9805 2.09466 0
M  V30 4828 C 504.863 -4.40071 0.050221 0
M  V30 4829 H 501.982 -0.721355 0.151047 0
M  V30 4830 H 504.624 -1.59301 1.03554 0
M  V30 4831 H 502.774 -3.88411 0.0831774 0
M  V30 4832 H 504.446 -3.74795 2.68936 0
M  V30 4833 H 502.689 -3.4836 2.5851 0
M  V30 4834 H 503.36 -5.06819 2.18721 0
M  V30 4835 H 505.836 -4.13037 0.503953 0
M  V30 4836 H 504.712 -5.48452 0.221759 0
M  V30 4837 H 504.973 -4.29576 -1.04482 0
M  V30 4838 N 504.032 -0.577932 -1.46621 0
M  V30 4839 C 504.98 0.170882 -2.31971 0
M  V30 4840 C 505.974 0.889086 -1.44193 0
M  V30 4841 O 507.18 0.808017 -1.60845 0
M  V30 4842 H 503.555 0.0739763 -0.748353 0
M  V30 4843 H 505.526 -0.567856 -2.92947 0
M  V30 4844 C 504.275 1.17438 -3.27267 0
M  V30 4845 H 503.598 0.63116 -3.94787 0
M  V30 4846 H 505.038 1.66882 -3.89778 0
M  V30 4847 C 503.497 2.23292 -2.52274 0
M  V30 4848 O 504.027 3.30567 -2.28229 0
M  V30 4849 N 502.233 1.97772 -2.12919 0
M  V30 4850 H 501.78 1.10545 -2.32675 0
M  V30 4851 H 501.738 2.68809 -1.63062 0
M  V30 4852 N 505.51 1.54411 -0.315457 0
M  V30 4853 C 506.738 2.04833 0.291738 0
M  V30 4854 C 507.153 1.19203 1.46411 0
M  V30 4855 O 506.51 0.220867 1.81159 0
M  V30 4856 C 506.561 3.53969 0.73404 0
M  V30 4857 O 506.282 4.36346 -0.391682 0
M  V30 4858 C 507.783 4.2045 1.40489 0
M  V30 4859 H 505.003 0.668195 0.0612947 0
M  V30 4860 H 507.547 1.99276 -0.45929 0
M  V30 4861 H 505.702 3.5984 1.43506 0
M  V30 4862 H 506.116 5.24481 -0.0447088 0
M  V30 4863 H 507.59 5.26278 1.66539 0
M  V30 4864 H 508.067 3.71067 2.3496 0
M  V30 4865 H 508.673 4.18694 0.746662 0
M  V30 4866 N 506.988 0.0434614 1.5754 0
M  V30 4867 C 507.92 -0.962586 2.08007 0
M  V30 4868 C 508.933 -1.27972 1.00634 0
M  V30 4869 O 510.122 -1.24186 1.28219 0
M  V30 4870 C 507.222 -2.28621 2.50171 0
M  V30 4871 C 506.395 -2.15214 3.80791 0
M  V30 4872 C 505.454 -3.30633 4.09351 0
M  V30 4873 O 504.48 -3.0688 4.79388 0
M  V30 4874 N 505.682 -4.54873 3.60654 0
M  V30 4875 H 508.447 -0.531891 2.94942 0
M  V30 4876 H 506.008 -0.142965 1.61268 0
M  V30 4877 H 508 -3.04689 2.66359 0
M  V30 4878 H 506.57 -2.63283 1.68525 0
M  V30 4879 H 505.79 -1.23785 3.74261 0
M  V30 4880 H 507.078 -2.03475 4.66343 0
M  V30 4881 H 506.476 -4.77063 3.04019 0
M  V30 4882 H 505.033 -5.2806 3.82094 0
M  V30 4883 N 508.466 -1.55915 -0.229846 0
M  V30 4884 C 509.714 -1.7819 -0.953565 0
M  V30 4885 C 510.035 -0.610504 -1.85197 0
M  V30 4886 O 509.305 0.372988 -1.92316 0
M  V30 4887 H 507.885 -0.657208 -0.355087 0
M  V30 4888 H 510.547 -1.9337 -0.243693 0
M  V30 4889 H 509.643 -2.70011 -1.56527 0
M  V30 4890 N 509.944 0.496216 -1.49584 0
M  V30 4891 C 511.192 1.24756 -1.58998 0
M  V30 4892 C 511.513 1.92968 -0.280775 0
M  V30 4893 O 510.783 1.82959 0.700198 0
M  V30 4894 H 509.363 0.463471 -0.585836 0
M  V30 4895 H 512.025 0.574678 -1.86235 0
M  V30 4896 H 511.121 2.00895 -2.38847 0
M  V30 4897 N 511.423 1.38739 0.74761 0
M  V30 4898 C 512.67 1.35274 1.50689 0
M  V30 4899 C 512.998 -0.0553359 1.94421 0
M  V30 4900 O 512.253 -1.03365 1.66175 0
M  V30 4901 C 512.552 2.25992 2.7688 0
M  V30 4902 C 512.218 3.73854 2.5208 0
M  V30 4903 C 510.88 4.14145 2.45025 0
M  V30 4904 C 513.232 4.67427 2.30568 0
M  V30 4905 C 510.56 5.4609 2.14483 0
M  V30 4906 C 512.912 5.99635 2.01545 0
M  V30 4907 C 511.576 6.39004 1.92951 0
M  V30 4908 H 510.846 0.495003 0.55141 0
M  V30 4909 H 513.493 1.71145 0.859158 0
M  V30 4910 H 511.798 1.83196 3.46333 0
M  V30 4911 H 513.495 2.20611 3.34861 0
M  V30 4912 H 510.085 3.41913 2.58444 0
M  V30 4913 H 514.269 4.3714 2.34994 0
M  V30 4914 H 509.525 5.75528 2.06342 0
M  V30 4915 H 513.699 6.71678 1.83906 0
M  V30 4916 H 511.326 7.41165 1.6905 0
M  V30 4917 N 512.901 -0.976442 1.23707 0
M  V30 4918 C 513.811 -2.10359 1.03856 0
M  V30 4919 C 514.827 -1.73991 -0.0180919 0
M  V30 4920 O 516.003 -2.0061 0.178211 0
M  V30 4921 C 513.068 -3.40809 0.636387 0
M  V30 4922 C 512.129 -3.91179 1.76854 0
M  V30 4923 C 511.362 -5.15404 1.38546 0
M  V30 4924 O 511.585 -5.69754 0.27142 0
M  V30 4925 O 510.519 -5.5994 2.20797 0
M  V30 4926 H 514.345 -2.29997 1.98331 0
M  V30 4927 H 511.93 -1.08742 1.02448 0
M  V30 4928 H 513.812 -4.19269 0.423223 0
M  V30 4929 H 512.487 -3.22493 -0.279322 0
M  V30 4930 H 511.394 -3.13819 2.03638 0
M  V30 4931 H 512.727 -4.13958 2.6627 0
M  V30 4932 N 514.379 -1.04941 -1.1758 0
M  V30 4933 C 515.619 -0.766996 -1.89464 0
M  V30 4934 C 515.983 0.693123 -1.79053 0
M  V30 4935 O 517.184 1.08953 -2.45729 0
M  V30 4936 C 515.455 -1.23108 -3.35528 0
M  V30 4937 S 517.014 -1.07565 -4.25412 0
M  V30 4938 H 513.832 -0.278616 -0.654136 0
M  V30 4939 H 516.434 -1.34352 -1.4202 0
M  V30 4940 H 515.138 -2.28896 -3.40639 0
M  V30 4941 H 514.669 -0.648724 -3.88014 0
M  V30 4942 H 516.684 0.00169467 -4.962 0
M  V30 4943 N 515.857 1.33968 -0.830081 0
M  V30 4944 C 516.807 2.26845 -0.229242 0
M  V30 4945 C 517.791 1.48862 0.610659 0
M  V30 4946 O 518.983 1.70808 0.464067 0
M  V30 4947 C 516.112 3.3798 0.602057 0
M  V30 4948 C 515.198 4.23369 -0.248866 0
M  V30 4949 N 515.589 4.88182 -1.32334 0
M  V30 4950 C 513.887 4.45987 -0.0344077 0
M  V30 4951 C 514.588 5.51671 -1.84482 0
M  V30 4952 N 513.564 5.31348 -1.14762 0
M  V30 4953 H 517.366 2.74464 -1.05104 0
M  V30 4954 H 514.88 1.4777 -0.673623 0
M  V30 4955 H 516.877 4.03494 1.04873 0
M  V30 4956 H 515.537 2.9191 1.42193 0
M  V30 4957 H 516.548 4.88988 -1.70619 0
M  V30 4958 H 513.225 4.10658 0.752727 0
M  V30 4959 H 514.615 6.13308 -2.74413 0
M  V30 4960 N 517.335 0.585699 1.46312 0
M  V30 4961 C 518.575 0.0751432 2.04262 0
M  V30 4962 C 518.939 -1.26201 1.44697 0
M  V30 4963 O 520.14 -1.86198 1.93865 0
M  V30 4964 C 518.411 0.013478 3.57397 0
M  V30 4965 S 519.97 -0.439068 4.36598 0
M  V30 4966 H 516.788 0.0389228 0.709934 0
M  V30 4967 H 519.39 0.778871 1.79315 0
M  V30 4968 H 518.094 0.990558 3.98266 0
M  V30 4969 H 517.625 -0.712927 3.86886 0
M  V30 4970 H 519.64 -1.6932 4.66417 0
M  V30 4971 N 518.813 -1.54241 0.323641 0
M  V30 4972 C 520.043 -2.04687 -0.280464 0
M  V30 4973 C 520.451 -1.19939 -1.46326 0
M  V30 4974 O 519.794 -0.222872 -1.82343 0
M  V30 4975 C 519.856 -3.50978 -0.778123 0
M  V30 4976 C 519.52 -4.56127 0.282371 0
M  V30 4977 C 520.517 -5.07726 1.11847 0
M  V30 4978 C 518.202 -5.00451 0.430582 0
M  V30 4979 C 520.196 -6.02212 2.08851 0
M  V30 4980 C 517.883 -5.94752 1.40404 0
M  V30 4981 C 518.881 -6.45519 2.23147 0
M  V30 4982 O 518.569 -7.37968 3.1884 0
M  V30 4983 H 518.301 -0.673192 -0.0615473 0
M  V30 4984 H 520.855 -1.99999 0.467921 0
M  V30 4985 H 519.085 -3.53064 -1.57742 0
M  V30 4986 H 520.774 -3.84499 -1.30058 0
M  V30 4987 H 521.54 -4.74261 1.01496 0
M  V30 4988 H 517.419 -4.6055 -0.203569 0
M  V30 4989 H 520.963 -6.41761 2.73474 0
M  V30 4990 H 516.86 -6.27633 1.5082 0
M  V30 4991 H 517.628 -7.55841 3.14079 0
M  V30 4992 N 520.291 -0.0518155 -1.57515 0
M  V30 4993 C 521.702 0.483787 -1.80323 0
M  V30 4994 C 522.053 1.70879 -0.964099 0
M  V30 4995 O 521.178 2.15643 -0.180872 0
M  V30 4996 C 521.773 0.884459 -3.27052 0
M  V30 4997 C 520.332 1.36504 -3.50776 0
M  V30 4998 C 519.479 0.340539 -2.75201 0
M  V30 4999 H 522.43 -0.277691 -1.56252 0
M  V30 5000 H 522.451 1.74733 -3.38007 0
M  V30 5001 H 521.963 -0.00731093 -3.88099 0
M  V30 5002 H 520.064 2.27598 -2.95009 0
M  V30 5003 H 520.177 1.35675 -4.59488 0
M  V30 5004 H 518.541 0.81356 -2.41357 0
M  V30 5005 H 519.324 -0.543156 -3.38976 0
M  V30 5006 N 521.769 1.56035 0.221574 0
M  V30 5007 C 522.717 1.93269 1.29421 0
M  V30 5008 C 523.711 0.814727 1.48521 0
M  V30 5009 O 524.917 0.999559 1.49696 0
M  V30 5010 H 521.292 0.614188 0.43391 0
M  V30 5011 H 523.263 2.82773 0.952987 0
M  V30 5012 C 522.012 2.26573 2.63742 0
M  V30 5013 H 521.335 3.12112 2.49853 0
M  V30 5014 H 522.775 2.5651 3.37607 0
M  V30 5015 C 521.234 1.09086 3.1875 0
M  V30 5016 O 521.764 0.351985 4.00155 0
M  V30 5017 N 519.97 0.874693 2.77124 0
M  V30 5018 H 519.517 1.47726 2.11033 0
M  V30 5019 H 519.475 0.0903349 3.1427 0
M  V30 5020 N 523.247 -0.488276 1.49845 0
M  V30 5021 C 524.477 -1.26344 1.63465 0
M  V30 5022 C 524.885 -1.86637 0.310379 0
M  V30 5023 O 524.228 -1.69184 -0.715712 0
M  V30 5024 C 524.29 -2.42407 2.65479 0
M  V30 5025 C 523.954 -2.02886 4.09495 0
M  V30 5026 C 524.951 -1.56124 4.95904 0
M  V30 5027 C 522.636 -2.12131 4.55308 0
M  V30 5028 C 524.63 -1.19129 6.26169 0
M  V30 5029 C 522.317 -1.74747 5.85582 0
M  V30 5030 C 523.315 -1.28322 6.70837 0
M  V30 5031 O 523.003 -0.914491 7.98682 0
M  V30 5032 H 522.735 -0.388921 0.552916 0
M  V30 5033 H 525.289 -0.591288 1.96705 0
M  V30 5034 H 523.519 -3.12739 2.27445 0
M  V30 5035 H 525.208 -3.04409 2.68495 0
M  V30 5036 H 525.974 -1.48417 4.61733 0
M  V30 5037 H 521.853 -2.47217 3.89107 0
M  V30 5038 H 525.397 -0.828211 6.92666 0
M  V30 5039 H 521.294 -1.82109 6.19279 0
M  V30 5040 H 522.062 -1.04485 8.11804 0
M  V30 5041 N 524.725 -1.39134 -0.740242 0
M  V30 5042 C 526.002 -1.26584 -1.49117 0
M  V30 5043 C 526.382 0.126902 -2.10718 0
M  V30 5044 O 525.73 1.13765 -1.98166 0
M  V30 5045 C 525.94 -2.38619 -2.54681 0
M  V30 5046 C 527.288 -2.77685 -3.21211 0
M  V30 5047 O 528.312 -2.38029 -2.64991 0
M  V30 5048 O 527.171 -3.46115 -4.22926 0
M  V30 5049 H 524.265 -0.495769 -0.661923 0
M  V30 5050 H 526.811 -1.50995 -0.774514 0
M  V30 5051 H 525.583 -3.3175 -2.07504 0
M  V30 5052 H 525.206 -2.15845 -3.33911 0
M  V30 5053 N 526.204 0.969867 -1.24223 0
M  V30 5054 C 527.134 2.08191 -1.05729 0
M  V30 5055 C 528.115 1.70075 0.0290765 0
M  V30 5056 O 529.3 1.93712 -0.137583 0
M  V30 5057 C 526.43 3.40991 -0.658995 0
M  V30 5058 C 525.384 3.93054 -1.69389 0
M  V30 5059 C 524.71 5.22171 -1.15072 0
M  V30 5060 C 526.01 4.21137 -3.08935 0
M  V30 5061 H 527.704 2.23921 -1.98746 0
M  V30 5062 H 525.25 1.07602 -0.956967 0
M  V30 5063 H 527.203 4.18221 -0.51662 0
M  V30 5064 H 525.927 3.25155 0.30686 0
M  V30 5065 H 524.586 3.17977 -1.82444 0
M  V30 5066 H 524.234 5.02694 -0.175539 0
M  V30 5067 H 523.934 5.57973 -1.84229 0
M  V30 5068 H 525.458 6.02013 -1.02042 0
M  V30 5069 H 526.872 4.8908 -2.99121 0
M  V30 5070 H 525.269 4.68163 -3.75425 0
M  V30 5071 H 526.339 3.27996 -3.57137 0
M  V30 5072 N 527.682 1.05563 1.17022 0
M  V30 5073 C 528.928 0.769074 1.87652 0
M  V30 5074 C 529.261 -0.702326 1.81055 0
M  V30 5075 O 528.536 -1.5139 1.22112 0
M  V30 5076 C 528.819 1.25492 3.37526 0
M  V30 5077 C 528.672 2.78953 3.52853 0
M  V30 5078 C 529.991 0.856919 4.31677 0
M  V30 5079 H 527.11 0.280854 0.681388 0
M  V30 5080 H 529.752 1.31027 1.37593 0
M  V30 5081 H 527.902 0.794516 3.80289 0
M  V30 5082 H 529.574 3.33146 3.19079 0
M  V30 5083 H 527.817 3.18046 2.95007 0
M  V30 5084 H 528.488 3.08011 4.58076 0
M  V30 5085 H 530.964 1.25334 3.96775 0
M  V30 5086 H 529.84 1.22443 5.35069 0
M  V30 5087 H 530.101 -0.238787 4.41455 0
M  V30 5088 N 529.16 -1.33526 0.837174 0
M  V30 5089 C 530.437 -1.92369 0.354065 0
M  V30 5090 C 530.817 -1.76348 -1.16038 0
M  V30 5091 O 530.165 -1.15083 -1.97403 0
M  V30 5092 C 530.375 -3.39728 0.799101 0
M  V30 5093 C 531.723 -4.16877 0.806139 0
M  V30 5094 O 532.747 -3.48373 0.742597 0
M  V30 5095 O 531.606 -5.39166 0.892345 0
M  V30 5096 H 528.7 -0.820952 0.0998378 0
M  V30 5097 H 531.246 -1.42409 0.922913 0
M  V30 5098 H 530.018 -3.45254 1.84162 0
M  V30 5099 H 529.641 -3.97062 0.206731 0
M  V30 5100 N 530.638 -0.59345 -1.46 0
M  V30 5101 C 531.886 -0.082988 -2.0193 0
M  V30 5102 C 532.207 1.28569 -1.46612 0
M  V30 5103 O 531.477 1.84629 -0.654909 0
M  V30 5104 H 530.057 -0.0276882 -0.746487 0
M  V30 5105 H 532.719 -0.771657 -1.78973 0
M  V30 5106 H 531.815 -0.022079 -3.12092 0
M  V30 5107 N 532.116 1.54067 -0.331816 0
M  V30 5108 C 533.026 2.28322 0.539104 0
M  V30 5109 C 534.042 1.32985 1.1221 0
M  V30 5110 O 535.218 1.6601 1.1403 0
M  V30 5111 C 532.283 3.03277 1.68 0
M  V30 5112 C 531.344 4.14216 1.12798 0
M  V30 5113 C 530.577 4.85588 2.2145 0
M  V30 5114 O 530.8 4.56536 3.41952 0
M  V30 5115 O 529.734 5.72309 1.86404 0
M  V30 5116 H 533.56 3.03632 -0.0641692 0
M  V30 5117 H 531.145 1.49083 -0.0972365 0
M  V30 5118 H 533.027 3.50189 2.34405 0
M  V30 5119 H 531.702 2.30834 2.2693 0
M  V30 5120 H 530.609 3.71635 0.428782 0
M  V30 5121 H 531.942 4.88727 0.583698 0
M  V30 5122 N 533.594 0.0601682 1.57485 0
M  V30 5123 C 534.834 -0.615384 1.94916 0
M  V30 5124 C 535.198 -1.67475 0.938948 0
M  V30 5125 O 536.399 -2.40502 1.20051 0
M  V30 5126 C 534.67 -1.18788 3.37082 0
M  V30 5127 S 536.229 -1.88018 3.96478 0
M  V30 5128 H 533.047 -0.201821 0.681754 0
M  V30 5129 H 535.649 0.131252 1.95059 0
M  V30 5130 H 534.353 -0.404869 4.08398 0
M  V30 5131 H 533.884 -1.97114 3.40455 0
M  V30 5132 H 535.899 -3.16161 3.82435 0
M  V30 5133 N 535.072 -1.5615 -0.213296 0
M  V30 5134 C 536.318 -1.79812 -0.937849 0
M  V30 5135 C 536.651 -0.631201 -1.83656 0
M  V30 5136 O 535.926 0.369165 -1.90964 0
M  V30 5137 C 536.209 -3.13613 -1.76972 0
M  V30 5138 C 536.062 -4.40766 -0.89695 0
M  V30 5139 C 537.381 -3.43931 -2.7459 0
M  V30 5140 H 534.5 -0.654138 -0.339518 0
M  V30 5141 H 537.142 -1.88877 -0.20623 0
M  V30 5142 H 535.292 -3.06015 -2.39347 0
M  V30 5143 H 536.964 -4.60392 -0.289306 0
M  V30 5144 H 535.207 -4.33326 -0.202756 0
M  V30 5145 H 535.878 -5.30843 -1.51358 0
M  V30 5146 H 538.354 -3.5171 -2.22349 0
M  V30 5147 H 537.23 -4.38706 -3.29891 0
M  V30 5148 H 537.491 -2.6651 -3.52739 0
M  V30 5149 N 536.55 0.480323 -1.50102 0
M  V30 5150 C 537.46 1.60547 -1.71061 0
M  V30 5151 C 538.476 1.63564 -0.593529 0
M  V30 5152 O 539.652 1.81604 -0.870751 0
M  V30 5153 C 536.717 2.96814 -1.79171 0
M  V30 5154 C 535.778 3.04259 -3.02861 0
M  V30 5155 C 535.011 4.34027 -3.10574 0
M  V30 5156 O 535.234 5.24009 -2.25323 0
M  V30 5157 O 534.168 4.46873 -4.03223 0
M  V30 5158 H 537.994 1.45788 -2.6642 0
M  V30 5159 H 535.579 0.658838 -1.34088 0
M  V30 5160 H 537.461 3.77765 -1.86738 0
M  V30 5161 H 536.136 3.11791 -0.869947 0
M  V30 5162 H 535.043 2.22419 -3.008 0
M  V30 5163 H 536.376 2.94216 -3.94586 0
M  V30 5164 N 538.028 1.39524 0.732853 0
M  V30 5165 C 539.439 1.32905 1.31122 0
M  V30 5166 C 539.79 -0.00558708 1.96199 0
M  V30 5167 O 538.915 -0.907706 1.96443 0
M  V30 5168 C 539.51 2.40704 2.38426 0
M  V30 5169 C 538.069 2.37599 2.91931 0
M  V30 5170 C 537.216 2.2248 1.65523 0
M  V30 5171 H 540.167 1.49581 0.530207 0
M  V30 5172 H 540.188 2.07616 3.18867 0
M  V30 5173 H 539.7 3.37829 1.91033 0
M  V30 5174 H 537.801 1.44119 3.43599 0
M  V30 5175 H 537.914 3.32538 3.44899 0
M  V30 5176 H 536.278 1.69691 1.8994 0
M  V30 5177 H 537.061 3.21577 1.20178 0
M  V30 5178 N 539.506 -0.963266 1.24736 0
M  V30 5179 C 540.752 -1.70933 1.09131 0
M  V30 5180 C 541.085 -1.90676 -0.368273 0
M  V30 5181 O 540.36 -1.47147 -1.27193 0
M  V30 5182 C 540.643 -3.09744 1.83658 0
M  V30 5183 C 540.496 -2.97465 3.37394 0
M  V30 5184 C 541.815 -4.09483 1.61282 0
M  V30 5185 H 538.934 -0.620398 0.397838 0
M  V30 5186 H 541.576 -1.12028 1.53459 0
M  V30 5187 H 539.726 -3.60031 1.4598 0
M  V30 5188 H 541.398 -2.54571 3.84696 0
M  V30 5189 H 539.641 -2.33576 3.65547 0
M  V30 5190 H 540.312 -3.95822 3.84745 0
M  V30 5191 H 542.788 -3.68073 1.94066 0
M  V30 5192 H 541.664 -5.04666 2.15878 0
M  V30 5193 H 541.925 -4.38639 0.552102 0
M  V30 5194 N 540.985 -1.06182 -1.16461 0
M  V30 5195 C 542.262 -0.691364 -1.82974 0
M  V30 5196 C 542.642 0.827377 -1.9421 0
M  V30 5197 O 541.99 1.73723 -1.48434 0
M  V30 5198 C 542.2 -1.39199 -3.20038 0
M  V30 5199 C 543.548 -1.53647 -3.95825 0
M  V30 5200 O 544.572 -1.35181 -3.29552 0
M  V30 5201 O 543.431 -1.83932 -5.14618 0
M  V30 5202 H 540.525 -0.244605 -0.789998 0
M  V30 5203 H 543.071 -1.16203 -1.23673 0
M  V30 5204 H 541.843 -2.42766 -3.06888 0
M  V30 5205 H 541.466 -0.911335 -3.87015 0
M  V30 5206 N 542.463 1.3308 -0.844243 0
M  V30 5207 C 543.874 1.7992 -0.498566 0
M  V30 5208 C 544.225 1.69808 0.982834 0
M  V30 5209 O 543.35 1.25051 1.7661 0
M  V30 5210 C 543.945 3.26677 -0.898204 0
M  V30 5211 C 542.504 3.71513 -0.604583 0
M  V30 5212 C 541.651 2.54393 -1.10362 0
M  V30 5213 H 544.602 1.20526 -1.03244 0
M  V30 5214 H 544.623 3.79918 -0.21039 0
M  V30 5215 H 544.135 3.34004 -1.97643 0
M  V30 5216 H 542.236 3.69708 0.46335 0
M  V30 5217 H 542.349 4.64755 -1.16358 0
M  V30 5218 H 540.713 2.49246 -0.524273 0
M  V30 5219 H 541.496 2.6448 -2.18873 0
M  V30 5220 N 543.941 0.601185 1.45683 0
M  V30 5221 C 545.181 0.0968037 2.04171 0
M  V30 5222 C 545.545 -1.2466 1.46027 0
M  V30 5223 O 546.746 -1.84132 1.95829 0
M  V30 5224 C 545.017 0.051384 3.57363 0
M  V30 5225 S 546.576 -0.392737 4.37039 0
M  V30 5226 H 543.394 0.0464504 0.709481 0
M  V30 5227 H 545.996 0.797846 1.78479 0
M  V30 5228 H 544.7 1.03274 3.97193 0
M  V30 5229 H 544.231 -0.671853 3.87621 0
M  V30 5230 H 546.246 -1.64364 4.68187 0
M  V30 5231 N 545.419 -1.53889 0.339982 0
M  V30 5232 C 546.666 -2.00855 -0.257621 0
M  V30 5233 C 546.994 -1.22788 -1.50842 0
M  V30 5234 O 546.249 -0.302567 -1.93347 0
M  V30 5235 C 546.548 -3.51968 -0.620735 0
M  V30 5236 C 546.214 -4.47741 0.532771 0
M  V30 5237 C 544.876 -4.73645 0.849339 0
M  V30 5238 C 547.228 -5.04551 1.3068 0
M  V30 5239 C 544.556 -5.53614 1.94237 0
M  V30 5240 C 546.908 -5.85713 2.39005 0
M  V30 5241 C 545.572 -6.09912 2.71225 0
M  V30 5242 H 544.842 -0.734979 -0.0942703 0
M  V30 5243 H 547.489 -1.85714 0.467159 0
M  V30 5244 H 545.794 -3.64921 -1.42618 0
M  V30 5245 H 547.491 -3.85762 -1.09495 0
M  V30 5246 H 544.081 -4.27711 0.275973 0
M  V30 5247 H 548.265 -4.84507 1.07549 0
M  V30 5248 H 543.521 -5.7059 2.19628 0
M  V30 5249 H 547.695 -6.28748 2.99415 0
M  V30 5250 H 545.322 -6.71665 3.56047 0
M  V30 5251 N 546.897 -0.0685191 -1.57451 0
M  V30 5252 C 548.313 0.288101 -1.56978 0
M  V30 5253 C 548.513 1.70262 -1.07765 0
M  V30 5254 O 547.569 2.4135 -0.742054 0
M  V30 5255 C 548.882 0.100745 -3.00531 0
M  V30 5256 C 550.43 0.170531 -3.12535 0
M  V30 5257 C 550.905 0.0114944 -4.57999 0
M  V30 5258 N 552.396 0.0672065 -4.63151 0
M  V30 5259 C 553.131 -0.0314813 -5.73391 0
M  V30 5260 N 552.627 -0.183503 -6.92557 0
M  V30 5261 N 554.42 0.0253489 -5.62094 0
M  V30 5262 H 546.571 -0.993026 -1.87757 0
M  V30 5263 H 548.834 -0.386981 -0.865419 0
M  V30 5264 H 548.54 -0.875197 -3.40636 0
M  V30 5265 H 548.414 0.854457 -3.67395 0
M  V30 5266 H 550.801 1.13696 -2.72318 0
M  V30 5267 H 550.882 -0.614229 -2.48316 0
M  V30 5268 H 550.526 -0.951684 -4.98904 0
M  V30 5269 H 550.456 0.815617 -5.20245 0
M  V30 5270 H 552.947 0.183246 -3.77455 0
M  V30 5271 H 553.26 -0.251041 -7.72392 0
M  V30 5272 H 551.605 -0.218822 -6.94655 0
M  V30 5273 H 554.796 0.142794 -4.67882 0
M  V30 5274 H 554.969 -0.0550166 -6.47977 0
M  V30 5275 N 548.375 1.56261 0.205012 0
M  V30 5276 C 549.338 1.92908 1.23771 0
M  V30 5277 C 550.338 0.809208 1.38955 0
M  V30 5278 O 551.528 1.07676 1.36936 0
M  V30 5279 C 548.66 2.19442 2.60879 0
M  V30 5280 H 549.853 2.85287 0.924728 0
M  V30 5281 H 547.406 1.49798 0.446125 0
M  V30 5282 H 548.141 1.29668 2.97248 0
M  V30 5283 H 547.926 3.0104 2.51232 0
M  V30 5284 H 549.416 2.48833 3.35368 0
M  V30 5285 N 549.853 -0.472356 1.50355 0
M  V30 5286 C 550.801 -1.59126 1.69651 0
M  V30 5287 C 551.795 -1.59793 0.56237 0
M  V30 5288 O 553.001 -1.63957 0.742832 0
M  V30 5289 H 549.376 -0.528008 0.535454 0
M  V30 5290 H 551.347 -1.40013 2.63513 0
M  V30 5291 C 550.096 -2.97075 1.8067 0
M  V30 5292 H 549.419 -2.9728 2.67329 0
M  V30 5293 H 550.859 -3.74825 1.98197 0
M  V30 5294 C 549.318 -3.32247 0.558016 0
M  V30 5295 O 549.848 -4.00553 -0.303399 0
M  V30 5296 N 548.054 -2.87659 0.412415 0
M  V30 5297 H 547.601 -2.32246 1.11443 0
M  V30 5298 H 547.559 -3.11556 -0.421908 0
M  V30 5299 N 551.331 -1.39911 -0.725443 0
M  V30 5300 C 552.571 -1.39096 -1.49772 0
M  V30 5301 C 552.935 0.0106452 -1.91997 0
M  V30 5302 O 554.136 0.143859 -2.68415 0
M  V30 5303 C 552.407 -2.34441 -2.69764 0
M  V30 5304 S 553.966 -2.51898 -3.59295 0
M  V30 5305 H 550.784 -0.49314 -0.512186 0
M  V30 5306 H 553.386 -1.76093 -0.849197 0
M  V30 5307 H 552.09 -3.35123 -2.36898 0
M  V30 5308 H 551.621 -1.98692 -3.39537 0
M  V30 5309 H 553.636 -1.76402 -4.63785 0
M  V30 5310 N 552.809 0.956637 -1.25245 0
M  V30 5311 C 553.719 2.0868 -1.0719 0
M  V30 5312 C 554.735 1.73997 -0.00959074 0
M  V30 5313 O 555.911 2.00301 -0.210104 0
M  V30 5314 C 552.976 3.39754 -0.690526 0
M  V30 5315 C 552.037 3.88316 -1.83055 0
M  V30 5316 C 551.27 5.13134 -1.46728 0
M  V30 5317 O 551.493 5.6925 -0.362029 0
M  V30 5318 O 550.427 5.56356 -2.29677 0
M  V30 5319 H 554.253 2.26813 -2.01965 0
M  V30 5320 H 551.838 1.07098 -1.04165 0
M  V30 5321 H 553.72 4.18543 -0.489871 0
M  V30 5322 H 552.395 3.22896 0.227981 0
M  V30 5323 H 551.302 3.1054 -2.08604 0
M  V30 5324 H 552.635 4.09669 -2.72822 0
M  V30 5325 N 554.287 1.06798 1.15896 0
M  V30 5326 C 555.517 0.807522 1.90165 0
M  V30 5327 C 555.925 -0.642417 1.7796 0
M  V30 5328 O 555.268 -1.45193 1.12537 0
M  V30 5329 C 555.33 1.12939 3.41299 0
M  V30 5330 C 554.994 2.57879 3.7729 0
M  V30 5331 C 555.991 3.56118 3.78782 0
M  V30 5332 C 553.676 2.93311 4.07767 0
M  V30 5333 C 555.67 4.87827 4.10248 0
M  V30 5334 C 553.357 4.25219 4.38899 0
M  V30 5335 C 554.355 5.22287 4.4012 0
M  V30 5336 O 554.043 6.51826 4.70508 0
M  V30 5337 H 553.775 0.291946 0.609708 0
M  V30 5338 H 556.329 1.42627 1.47806 0
M  V30 5339 H 554.559 0.45359 3.84031 0
M  V30 5340 H 556.248 0.852363 3.9685 0
M  V30 5341 H 557.014 3.30086 3.55342 0
M  V30 5342 H 552.893 2.18409 4.05979 0
M  V30 5343 H 556.437 5.63586 4.11116 0
M  V30 5344 H 552.334 4.51006 4.61805 0
M  V30 5345 H 553.102 6.56893 4.88298 0
M  V30 5346 N 555.766 -1.3263 0.851289 0
M  V30 5347 C 556.698 -2.27824 0.250757 0
M  V30 5348 C 557.711 -1.52285 -0.575598 0
M  V30 5349 O 558.9 -1.73946 -0.400638 0
M  V30 5350 C 556 -3.3232 -0.664571 0
M  V30 5351 C 555.173 -4.37221 0.125187 0
M  V30 5352 C 554.232 -5.21314 -0.715385 0
M  V30 5353 O 553.258 -5.69002 -0.150111 0
M  V30 5354 N 554.46 -5.43823 -2.03069 0
M  V30 5355 H 557.225 -2.79997 1.06873 0
M  V30 5356 H 554.786 -1.45455 0.710943 0
M  V30 5357 H 556.778 -3.85486 -1.23216 0
M  V30 5358 H 555.348 -2.80331 -1.38323 0
M  V30 5359 H 554.568 -3.84384 0.874199 0
M  V30 5360 H 555.856 -5.04399 0.667774 0
M  V30 5361 H 555.254 -5.06803 -2.51332 0
M  V30 5362 H 553.811 -5.99998 -2.54648 0
M  V30 5363 N 557.244 -0.608902 -1.45362 0
M  V30 5364 C 558.484 -0.10763 -2.04116 0
M  V30 5365 C 558.848 1.23883 -1.46686 0
M  V30 5366 O 560.049 1.83091 -1.96803 0
M  V30 5367 C 558.32 -0.0703351 -3.57331 0
M  V30 5368 S 559.879 0.369554 -4.37241 0
M  V30 5369 H 556.697 -0.0502123 -0.709225 0
M  V30 5370 H 559.299 -0.8073 -1.78053 0
M  V30 5371 H 558.003 -1.05379 -3.9664 0
M  V30 5372 H 557.534 0.651287 -3.87971 0
M  V30 5373 H 559.549 1.61878 -4.69052 0
M  V30 5374 N 558.722 1.53707 -0.348139 0
M  V30 5375 C 559.654 2.22725 0.540946 0
M  V30 5376 C 560.667 1.2354 1.06027 0
M  V30 5377 O 561.856 1.49867 0.96964 0
M  V30 5378 C 558.956 2.89756 1.75768 0
M  V30 5379 C 558.129 4.15297 1.37285 0
M  V30 5380 C 557.188 4.65697 2.44976 0
M  V30 5381 O 556.214 5.29798 2.08092 0
M  V30 5382 N 557.416 4.42017 3.763 0
M  V30 5383 H 560.181 2.99658 -0.0501592 0
M  V30 5384 H 557.742 1.60979 -0.17248 0
M  V30 5385 H 559.734 3.20388 2.47252 0
M  V30 5386 H 558.304 2.16382 2.25605 0
M  V30 5387 H 557.524 3.9116 0.488584 0
M  V30 5388 H 558.812 4.96948 1.09179 0
M  V30 5389 H 558.21 3.9076 4.09051 0
M  V30 5390 H 556.767 4.77242 4.4394 0
M  V30 5391 N 560.2 0.0768682 1.57412 0
M  V30 5392 C 561.611 -0.455037 1.8107 0
M  V30 5393 C 561.962 -1.69323 0.991162 0
M  V30 5394 O 561.087 -2.15328 0.215156 0
M  V30 5395 C 561.682 -0.832316 3.28417 0
M  V30 5396 C 560.241 -1.30906 3.52903 0
M  V30 5397 C 559.388 -0.296714 2.75708 0
M  V30 5398 H 562.339 0.302514 1.5579 0
M  V30 5399 H 562.36 -1.69333 3.40744 0
M  V30 5400 H 561.872 0.0690532 3.88039 0
M  V30 5401 H 559.973 -2.22875 2.98592 0
M  V30 5402 H 560.086 -1.28348 4.61588 0
M  V30 5403 H 558.45 -0.775059 2.42621 0
M  V30 5404 H 559.233 0.597015 3.38069 0
M  V30 5405 N 561.678 -1.56367 -0.196722 0
M  V30 5406 C 562.608 -1.97442 -1.24655 0
M  V30 5407 C 563.589 -0.846147 -1.47561 0
M  V30 5408 O 564.774 -1.11035 -1.59326 0
M  V30 5409 C 561.904 -2.31253 -2.59112 0
M  V30 5410 C 560.858 -3.46804 -2.50821 0
M  V30 5411 C 560.184 -3.66286 -3.89536 0
M  V30 5412 C 561.484 -4.8104 -2.03465 0
M  V30 5413 H 563.178 -2.85388 -0.905216 0
M  V30 5414 H 560.724 -1.37304 -0.434002 0
M  V30 5415 H 562.677 -2.58583 -3.32736 0
M  V30 5416 H 561.401 -1.40188 -2.94983 0
M  V30 5417 H 560.06 -3.19563 -1.79653 0
M  V30 5418 H 559.708 -2.72555 -4.22756 0
M  V30 5419 H 559.408 -4.4402 -3.84864 0
M  V30 5420 H 560.932 -3.9599 -4.64784 0
M  V30 5421 H 562.346 -5.07411 -2.66846 0
M  V30 5422 H 560.743 -5.62232 -2.09798 0
M  V30 5423 H 561.813 -4.74732 -0.98781 0
M  V30 5424 N 563.156 0.464375 -1.50603 0
M  V30 5425 C 564.104 1.58224 -1.70493 0
M  V30 5426 C 565.098 1.59492 -0.570836 0
M  V30 5427 O 566.304 1.63561 -0.751517 0
M  V30 5428 H 562.679 0.525161 -0.538247 0
M  V30 5429 H 564.65 1.38613 -2.64252 0
M  V30 5430 C 563.399 2.96113 -1.82243 0
M  V30 5431 H 562.722 2.95858 -2.68901 0
M  V30 5432 H 564.162 3.73769 -2.00182 0
M  V30 5433 C 562.621 3.31946 -0.575628 0
M  V30 5434 O 563.151 4.00708 0.282152 0
M  V30 5435 N 561.357 2.87436 -0.427665 0
M  V30 5436 H 560.904 2.31652 -1.12674 0
M  V30 5437 H 560.862 3.11776 0.405379 0
M  V30 5438 N 564.634 1.40294 0.718013 0
M  V30 5439 C 565.566 1.36281 1.84283 0
M  V30 5440 C 566.579 0.268621 1.60569 0
M  V30 5441 O 567.768 0.528798 1.70487 0
M  V30 5442 C 564.868 1.09741 3.2064 0
M  V30 5443 C 564.041 2.30767 3.71571 0
M  V30 5444 C 563.1 2.00424 4.86535 0
M  V30 5445 O 562.126 2.73268 4.99313 0
M  V30 5446 N 563.328 0.980724 5.72156 0
M  V30 5447 H 566.093 2.3322 1.88225 0
M  V30 5448 H 563.654 1.34616 0.899453 0
M  V30 5449 H 565.646 0.874322 3.95143 0
M  V30 5450 H 564.216 0.214771 3.11861 0
M  V30 5451 H 563.436 2.68921 2.88228 0
M  V30 5452 H 564.724 3.11455 4.02335 0
M  V30 5453 H 564.122 0.377375 5.6444 0
M  V30 5454 H 562.679 0.817538 6.46653 0
M  V30 5455 N 566.112 -0.949982 1.2575 0
M  V30 5456 C 567.34 -1.72972 1.13527 0
M  V30 5457 C 567.755 -1.8623 -0.310453 0
M  V30 5458 O 567.112 -1.36336 -1.2132 0
M  V30 5459 C 567.163 -3.14108 1.78936 0
M  V30 5460 O 566.884 -3.01493 3.17858 0
M  V30 5461 C 568.385 -4.08338 1.72554 0
M  V30 5462 H 565.605 -0.541864 0.395758 0
M  V30 5463 H 568.149 -1.19151 1.66202 0
M  V30 5464 H 566.304 -3.64858 1.30221 0
M  V30 5465 H 566.718 -3.90559 3.50092 0
M  V30 5466 H 568.192 -5.04963 2.22973 0
M  V30 5467 H 568.669 -4.33742 0.690251 0
M  V30 5468 H 569.275 -3.63506 2.2078 0
M  V30 5469 N 567.59 -1.07411 -1.15328 0
M  V30 5470 C 568.815 -0.818856 -1.90551 0
M  V30 5471 C 569.24 0.622194 -1.77512 0
M  V30 5472 O 568.598 1.43484 -1.10824 0
M  V30 5473 C 568.646 -1.23267 -3.38877 0
M  V30 5474 O 567.75 -0.378345 -4.10661 0
M  V30 5475 H 567.091 -0.29827 -0.593238 0
M  V30 5476 H 569.621 -1.43289 -1.46046 0
M  V30 5477 H 569.631 -1.20912 -3.89672 0
M  V30 5478 H 568.306 -2.28226 -3.47686 0
M  V30 5479 H 566.883 -0.464437 -3.69996 0
M  V30 5480 N 569.068 1.32177 -0.85831 0
M  V30 5481 C 570.298 2.01021 -0.476889 0
M  V30 5482 C 570.706 1.64653 0.931995 0
M  V30 5483 O 570.049 0.865713 1.62022 0
M  V30 5484 C 570.111 3.55413 -0.540528 0
M  V30 5485 C 569.775 4.1522 -1.90895 0
M  V30 5486 C 570.772 4.3318 -2.87491 0
M  V30 5487 C 568.457 4.51212 -2.20709 0
M  V30 5488 C 570.451 4.86306 -4.1205 0
M  V30 5489 C 568.138 5.04042 -3.45521 0
M  V30 5490 C 569.136 5.21538 -4.41007 0
M  V30 5491 O 568.824 5.73238 -5.63608 0
M  V30 5492 H 568.556 0.650059 -0.18547 0
M  V30 5493 H 571.11 1.69648 -1.15796 0
M  V30 5494 H 569.34 3.86196 0.19741 0
M  V30 5495 H 571.029 4.05526 -0.174191 0
M  V30 5496 H 571.795 4.05704 -2.65762 0
M  V30 5497 H 567.674 4.36878 -1.4717 0
M  V30 5498 H 571.218 4.99877 -4.86589 0
M  V30 5499 H 567.115 5.30952 -3.67098 0
M  V30 5500 H 567.883 5.91625 -5.65617 0
M  V30 5501 N 570.547 0.616602 1.45037 0
M  V30 5502 C 571.477 -0.0840787 2.33349 0
M  V30 5503 C 572.458 -0.849641 1.4736 0
M  V30 5504 O 573.643 -0.818407 1.76113 0
M  V30 5505 C 570.773 -1.07604 3.3021 0
M  V30 5506 C 569.727 -0.423096 4.25904 0
M  V30 5507 C 569.053 -1.52394 5.12523 0
M  V30 5508 C 570.353 0.661457 5.18095 0
M  V30 5509 H 572.047 0.653333 2.92185 0
M  V30 5510 H 569.593 0.315634 1.40498 0
M  V30 5511 H 571.546 -1.57485 3.90866 0
M  V30 5512 H 570.27 -1.84416 2.69552 0
M  V30 5513 H 568.929 0.05493 3.66559 0
M  V30 5514 H 568.577 -2.28257 4.48227 0
M  V30 5515 H 568.277 -1.09251 5.77354 0
M  V30 5516 H 569.801 -2.02485 5.76049 0
M  V30 5517 H 571.215 0.246353 5.7277 0
M  V30 5518 H 569.612 1.01517 5.91451 0
M  V30 5519 H 570.682 1.53446 4.59981 0
M  V30 5520 N 572.025 -1.5352 0.356285 0
M  V30 5521 C 573.265 -2.03027 -0.23649 0
M  V30 5522 C 573.629 -1.23813 -1.46746 0
M  V30 5523 O 574.83 -1.63281 -2.13525 0
M  V30 5524 C 573.101 -3.53442 -0.530415 0
M  V30 5525 S 574.66 -4.24836 -1.09819 0
M  V30 5526 H 571.478 -0.707591 -0.0695378 0
M  V30 5527 H 574.08 -1.89077 0.496999 0
M  V30 5528 H 572.784 -4.087 0.373114 0
M  V30 5529 H 572.315 -3.71536 -1.29323 0
M  V30 5530 H 574.33 -4.35228 -2.38309 0
M  V30 5531 N 573.503 -0.0852151 -1.57369 0
M  V30 5532 C 574.749 0.581666 -1.94279 0
M  V30 5533 C 575.082 1.68444 -0.966446 0
M  V30 5534 O 574.357 1.945 0.00215277 0
M  V30 5535 C 574.64 1.14609 -3.41375 0
M  V30 5536 C 574.493 0.0490414 -4.49773 0
M  V30 5537 C 575.812 2.04751 -3.8957 0
M  V30 5538 H 572.931 0.209972 -0.706456 0
M  V30 5539 H 575.573 -0.153915 -1.89376 0
M  V30 5540 H 573.723 1.77297 -3.45685 0
M  V30 5541 H 575.395 -0.584721 -4.57579 0
M  V30 5542 H 573.638 -0.618638 -4.29366 0
M  V30 5543 H 574.309 0.484601 -5.49869 0
M  V30 5544 H 576.785 1.51981 -3.87351 0
M  V30 5545 H 575.661 2.41173 -4.93079 0
M  V30 5546 H 575.922 2.96107 -3.28288 0
M  V30 5547 N 574.981 1.5647 0.188427 0
M  V30 5548 C 576.221 1.82803 0.914469 0
M  V30 5549 C 576.585 0.663681 1.80165 0
M  V30 5550 O 577.786 0.807059 2.56398 0
M  V30 5551 C 576.057 3.14187 1.70357 0
M  V30 5552 S 577.616 3.61947 2.48072 0
M  V30 5553 H 574.434 0.641497 0.306599 0
M  V30 5554 H 577.036 1.94694 0.177361 0
M  V30 5555 H 575.74 3.96937 1.04255 0
M  V30 5556 H 575.271 3.05192 2.48237 0
M  V30 5557 H 577.286 3.27913 3.72407 0
M  V30 5558 N 576.459 -0.456382 1.50847 0
M  V30 5559 C 577.422 -1.53493 1.70213 0
M  V30 5560 C 578.422 -1.50264 0.572481 0
M  V30 5561 O 579.612 -1.52623 0.839751 0
M  V30 5562 C 576.744 -2.93091 1.741 0
M  V30 5563 H 577.937 -1.37633 2.66453 0
M  V30 5564 H 575.49 -0.683776 1.4055 0
M  V30 5565 H 576.225 -3.14378 0.796063 0
M  V30 5566 H 576.01 -2.9684 2.5618 0
M  V30 5567 H 577.5 -3.71368 1.90987 0
M  V30 5568 N 577.937 -1.40673 -0.710563 0
M  V30 5569 C 578.847 -1.43663 -1.85467 0
M  V30 5570 C 579.863 -0.328721 -1.70867 0
M  V30 5571 O 581.039 -0.574098 -1.93044 0
M  V30 5572 C 578.104 -1.30226 -3.21313 0
M  V30 5573 C 577.165 -2.51204 -3.48131 0
M  V30 5574 C 576.398 -2.38398 -4.77495 0
M  V30 5575 O 576.621 -1.40048 -5.5294 0
M  V30 5576 O 575.555 -3.2787 -5.04762 0
M  V30 5577 H 579.381 -2.40156 -1.859 0
M  V30 5578 H 576.966 -1.22049 -0.861652 0
M  V30 5579 H 578.848 -1.2496 -4.02446 0
M  V30 5580 H 577.523 -0.368419 -3.21597 0
M  V30 5581 H 576.43 -2.62048 -2.66987 0
M  V30 5582 H 577.763 -3.43366 -3.52648 0
M  V30 5583 N 579.415 0.9433 -1.26252 0
M  V30 5584 C 580.663 1.68592 -1.11451 0
M  V30 5585 C 580.984 1.91957 0.343123 0
M  V30 5586 O 580.254 1.51475 1.24226 0
M  V30 5587 H 578.834 0.624789 -0.409448 0
M  V30 5588 H 581.496 1.13351 -1.58548 0
M  V30 5589 H 580.592 2.66054 -1.63162 0
M  V30 5590 N 580.893 1.08022 1.14757 0
M  V30 5591 C 582.14 0.807509 1.85703 0
M  V30 5592 C 582.468 -0.666617 1.8272 0
M  V30 5593 O 581.723 -1.50562 1.25018 0
M  V30 5594 C 582.022 1.26964 3.34088 0
M  V30 5595 C 581.688 2.7509 3.57262 0
M  V30 5596 C 580.35 3.15547 3.63296 0
M  V30 5597 C 582.702 3.70667 3.66409 0
M  V30 5598 C 580.03 4.50384 3.75994 0
M  V30 5599 C 582.382 5.05274 3.80632 0
M  V30 5600 C 581.046 5.45342 3.84913 0
M  V30 5601 H 580.316 0.295488 0.679535 0
M  V30 5602 H 582.963 1.35245 1.35577 0
M  V30 5603 H 581.268 0.644216 3.86467 0
M  V30 5604 H 582.965 1.03544 3.87401 0
M  V30 5605 H 579.555 2.42775 3.53212 0
M  V30 5606 H 583.739 3.40533 3.61041 0
M  V30 5607 H 578.995 4.80886 3.77569 0
M  V30 5608 H 583.169 5.79201 3.86652 0
M  V30 5609 H 580.796 6.49823 3.94505 0
M  V30 5610 N 582.371 -1.3172 0.865308 0
M  V30 5611 C 583.334 -2.26918 0.322627 0
M  V30 5612 C 584.334 -1.52031 -0.523751 0
M  V30 5613 O 585.524 -1.70973 -0.333727 0
M  V30 5614 C 582.656 -3.36558 -0.542338 0
M  V30 5615 H 583.849 -2.76432 1.16298 0
M  V30 5616 H 581.402 -1.42573 0.640512 0
M  V30 5617 H 582.137 -2.92329 -1.40407 0
M  V30 5618 H 581.922 -3.92048 0.0636395 0
M  V30 5619 H 583.412 -4.07465 -0.91446 0
M  V30 5620 N 583.85 -0.624285 -1.44708 0
M  V30 5621 C 585.26 -0.2092 -1.85524 0
M  V30 5622 C 585.611 1.23783 -1.52225 0
M  V30 5623 O 584.736 1.94089 -0.956986 0
M  V30 5624 C 585.332 -0.372897 -3.36742 0
M  V30 5625 C 583.891 -0.012374 -3.76398 0
M  V30 5626 C 583.038 -0.68951 -2.68591 0
M  V30 5627 H 585.989 -0.829894 -1.35272 0
M  V30 5628 H 586.01 0.390134 -3.78495 0
M  V30 5629 H 585.522 -1.42615 -3.60947 0
M  V30 5630 H 583.623 1.03941 -3.57809 0
M  V30 5631 H 583.736 -0.417663 -4.77276 0
M  V30 5632 H 582.1 -0.125484 -2.54391 0
M  V30 5633 H 582.883 -1.74522 -2.9563 0
M  V30 5634 N 585.328 1.53329 -0.364422 0
M  V30 5635 C 586.577 2.00421 0.226747 0
M  V30 5636 C 586.89 1.25581 1.49963 0
M  V30 5637 O 588.096 1.63256 2.16933 0
M  V30 5638 C 586.552 3.57017 0.454618 0
M  V30 5639 C 586.16 4.40734 -0.803568 0
M  V30 5640 C 587.904 4.12468 1.00351 0
M  V30 5641 C 585.811 5.8888 -0.545345 0
M  V30 5642 H 584.741 0.748787 0.0885082 0
M  V30 5643 H 587.392 1.7703 -0.482983 0
M  V30 5644 H 585.774 3.76558 1.22558 0
M  V30 5645 H 586.948 4.32967 -1.57723 0
M  V30 5646 H 585.263 3.96381 -1.27559 0
M  V30 5647 H 587.86 5.20783 1.212 0
M  V30 5648 H 588.203 3.6699 1.9653 0
M  V30 5649 H 588.736 3.96721 0.29274 0
M  V30 5650 H 585.475 6.38633 -1.47743 0
M  V30 5651 H 584.995 5.99499 0.189842 0
M  V30 5652 H 586.674 6.46776 -0.170425 0
M  V30 5653 N 586.806 0.0935595 1.57322 0
M  V30 5654 C 588.217 -0.435807 1.81542 0
M  V30 5655 C 588.568 -1.68263 1.00907 0
M  V30 5656 O 587.693 -2.15087 0.237983 0
M  V30 5657 C 588.288 -0.797436 3.29282 0
M  V30 5658 C 586.847 -1.27155 3.54272 0
M  V30 5659 C 585.994 -0.267455 2.76007 0
M  V30 5660 H 588.945 0.31902 1.5546 0
M  V30 5661 H 588.966 -1.6571 3.42521 0
M  V30 5662 H 588.478 0.110206 3.87943 0
M  V30 5663 H 586.579 -2.19696 3.00939 0
M  V30 5664 H 586.692 -1.23445 4.62923 0
M  V30 5665 H 585.056 -0.749282 2.43429 0
M  V30 5666 H 585.839 0.632839 3.37417 0
M  V30 5667 N 588.284 -1.56567 -0.180126 0
M  V30 5668 C 589.234 -1.92132 -1.22756 0
M  V30 5669 C 590.218 -0.788639 -1.40247 0
M  V30 5670 O 591.41 -1.05171 -1.42366 0
M  V30 5671 C 588.539 -2.27719 -2.56902 0
M  V30 5672 C 587.625 -3.47481 -2.43142 0
M  V30 5673 N 588.016 -4.64973 -1.99082 0
M  V30 5674 C 586.314 -3.51914 -2.73994 0
M  V30 5675 C 587.015 -5.47119 -1.97574 0
M  V30 5676 N 585.991 -4.87925 -2.39645 0
M  V30 5677 H 589.793 -2.80464 -0.878478 0
M  V30 5678 H 587.307 -1.57686 -0.388463 0
M  V30 5679 H 589.304 -2.51389 -3.32579 0
M  V30 5680 H 587.964 -1.40722 -2.92621 0
M  V30 5681 H 588.975 -4.89358 -1.69557 0
M  V30 5682 H 585.652 -2.75372 -3.13809 0
M  V30 5683 H 587.042 -6.51254 -1.65282 0
M  V30 5684 N 589.762 0.448376 -1.51087 0
M  V30 5685 C 590.672 1.56882 -1.74428 0
M  V30 5686 C 591.688 1.62268 -0.62809 0
M  V30 5687 O 592.864 1.79716 -0.909075 0
M  V30 5688 C 589.929 2.92947 -1.85426 0
M  V30 5689 C 588.99 2.97766 -3.09247 0
M  V30 5690 C 588.223 4.27341 -3.19711 0
M  V30 5691 O 588.446 5.19112 -2.36387 0
M  V30 5692 O 587.38 4.38219 -4.12611 0
M  V30 5693 H 591.206 1.40104 -2.69452 0
M  V30 5694 H 588.791 0.630247 -1.35456 0
M  V30 5695 H 590.673 3.73719 -1.94709 0
M  V30 5696 H 589.348 3.09876 -0.935887 0
M  V30 5697 H 588.255 2.15989 -3.0545 0
M  V30 5698 H 589.588 2.8578 -4.00738 0
M  V30 5699 N 591.24 1.41047 0.703093 0
M  V30 5700 C 592.651 1.35657 1.28274 0
M  V30 5701 C 593.002 0.0360309 1.96167 0
M  V30 5702 O 592.127 -0.865833 1.98324 0
M  V30 5703 C 592.722 2.45707 2.33267 0
M  V30 5704 C 591.281 2.43738 2.86825 0
M  V30 5705 C 590.428 2.25941 1.60767 0
M  V30 5706 H 593.379 1.50672 0.49836 0
M  V30 5707 H 593.4 2.14333 3.14391 0
M  V30 5708 H 592.912 3.41805 1.83824 0
M  V30 5709 H 591.013 1.51375 3.40465 0
M  V30 5710 H 591.126 3.39779 3.37768 0
M  V30 5711 H 589.49 1.73681 1.86298 0
M  V30 5712 H 590.273 3.24054 1.1333 0
M  V30 5713 N 592.718 -0.936591 1.26751 0
M  V30 5714 C 593.668 -2.0219 1.05371 0
M  V30 5715 C 594.652 -1.60893 -0.0154112 0
M  V30 5716 O 595.844 -1.75843 0.202085 0
M  V30 5717 C 592.973 -3.36222 0.693541 0
M  V30 5718 C 592.059 -3.8399 1.80035 0
M  V30 5719 N 592.45 -4.0436 3.03852 0
M  V30 5720 C 590.748 -4.12945 1.685 0
M  V30 5721 C 591.449 -4.44 3.75818 0
M  V30 5722 N 590.425 -4.50966 3.03531 0
M  V30 5723 H 594.227 -2.15958 1.99347 0
M  V30 5724 H 591.741 -1.12277 1.17335 0
M  V30 5725 H 593.738 -4.13625 0.521513 0
M  V30 5726 H 592.398 -3.23821 -0.238693 0
M  V30 5727 H 593.409 -3.9092 3.39709 0
M  V30 5728 H 590.086 -4.09308 0.822986 0
M  V30 5729 H 591.476 -4.67914 4.82189 0
M  V30 5730 N 594.196 -1.08629 -1.14182 0
M  V30 5731 C 595.612 -0.814363 -1.3726 0
M  V30 5732 C 595.812 0.575271 -1.93114 0
M  V30 5733 O 594.868 1.33165 -2.1453 0
M  V30 5734 C 596.181 -1.8989 -2.33157 0
M  V30 5735 C 597.729 -1.92518 -2.46791 0
M  V30 5736 C 598.204 -3.00092 -3.45989 0
M  V30 5737 N 599.695 -2.99279 -3.53534 0
M  V30 5738 C 600.43 -3.79158 -4.30147 0
M  V30 5739 N 599.926 -4.68923 -5.09983 0
M  V30 5740 N 601.719 -3.67451 -4.25366 0
M  V30 5741 H 593.87 -1.98232 -0.762758 0
M  V30 5742 H 596.133 -0.860383 -0.398051 0
M  V30 5743 H 595.839 -2.89809 -1.99257 0
M  V30 5744 H 595.713 -1.77013 -3.33086 0
M  V30 5745 H 598.1 -0.932425 -2.79982 0
M  V30 5746 H 598.181 -2.09473 -1.46816 0
M  V30 5747 H 597.825 -3.99575 -3.13532 0
M  V30 5748 H 597.755 -2.80382 -4.45751 0
M  V30 5749 H 600.246 -2.3422 -2.96563 0
M  V30 5750 H 600.559 -5.26475 -5.65724 0
M  V30 5751 H 598.904 -4.72964 -5.09244 0
M  V30 5752 H 602.095 -2.9669 -3.62067 0
M  V30 5753 H 602.268 -4.29944 -4.84822 0
M  V30 5754 N 595.674 1.31259 -0.872281 0
M  V30 5755 C 596.914 1.98418 -0.490894 0
M  V30 5756 C 597.278 1.67429 0.939755 0
M  V30 5757 O 598.479 2.27818 1.42661 0
M  V30 5758 C 596.75 3.49583 -0.743408 0
M  V30 5759 S 598.309 4.36359 -0.462226 0
M  V30 5760 H 595.127 0.687005 -0.183151 0
M  V30 5761 H 597.729 1.59619 -1.12881 0
M  V30 5762 H 596.433 3.69627 -1.78338 0
M  V30 5763 H 595.964 3.93291 -0.0925758 0
M  V30 5764 H 597.979 4.91173 0.704525 0
M  V30 5765 N 597.152 0.631951 1.44375 0
M  V30 5766 C 598.084 -0.110911 2.28931 0
M  V30 5767 C 599.097 -0.808086 1.41329 0
M  V30 5768 O 600.286 -0.669396 1.65473 0
M  V30 5769 C 597.386 -1.17928 3.1772 0
M  V30 5770 C 596.559 -0.564458 4.33743 0
M  V30 5771 C 595.618 -1.5269 5.0356 0
M  V30 5772 O 594.644 -1.04372 5.59549 0
M  V30 5773 N 595.846 -2.86123 5.05088 0
M  V30 5774 H 598.611 0.614758 2.93327 0
M  V30 5775 H 596.172 0.473171 1.54831 0
M  V30 5776 H 598.164 -1.82348 3.61291 0
M  V30 5777 H 596.734 -1.80717 2.55069 0
M  V30 5778 H 595.954 0.258373 3.93352 0
M  V30 5779 H 597.242 -0.134355 5.08623 0
M  V30 5780 H 596.64 -3.27959 4.60933 0
M  V30 5781 H 595.197 -3.45901 5.52445 0
M  V30 5782 N 598.631 -1.53133 0.372548 0
M  V30 5783 C 599.564 -2.22328 -0.514361 0
M  V30 5784 C 600.542 -1.21776 -1.07747 0
M  V30 5785 O 601.726 -1.50704 -1.13228 0
M  V30 5786 C 598.853 -2.92343 -1.71035 0
M  V30 5787 C 597.899 -4.07026 -1.27405 0
M  V30 5788 S 598.732 -5.34821 -0.269526 0
M  V30 5789 C 599.888 -6.08352 -1.47168 0
M  V30 5790 H 600.121 -2.9721 0.0732683 0
M  V30 5791 H 597.654 -1.53603 0.156673 0
M  V30 5792 H 599.612 -3.33296 -2.39634 0
M  V30 5793 H 598.273 -2.17173 -2.26925 0
M  V30 5794 H 597.466 -4.55056 -2.16656 0
M  V30 5795 H 597.068 -3.68001 -0.66719 0
M  V30 5796 H 599.36 -6.33507 -2.40157 0
M  V30 5797 H 600.303 -7.0053 -1.03263 0
M  V30 5798 H 600.711 -5.38893 -1.6809 0
M  V30 5799 N 600.109 -0.101901 -1.5727 0
M  V30 5800 C 601.356 0.560197 -1.94597 0
M  V30 5801 C 601.684 1.67767 -0.984101 0
M  V30 5802 O 600.939 1.95699 -0.00489193 0
M  V30 5803 C 601.238 1.14898 -3.38427 0
M  V30 5804 C 600.904 0.154613 -4.50635 0
M  V30 5805 C 599.566 -0.118861 -4.81053 0
M  V30 5806 C 601.918 -0.523979 -5.18559 0
M  V30 5807 C 599.246 -1.0775 -5.76721 0
M  V30 5808 C 601.598 -1.47114 -6.15256 0
M  V30 5809 C 600.262 -1.75278 -6.44076 0
M  V30 5810 H 599.532 0.204991 -0.712081 0
M  V30 5811 H 602.179 -0.17918 -1.9066 0
M  V30 5812 H 600.484 1.96476 -3.38976 0
M  V30 5813 H 602.181 1.66909 -3.64613 0
M  V30 5814 H 598.771 0.377948 -4.2693 0
M  V30 5815 H 602.955 -0.325851 -4.95229 0
M  V30 5816 H 598.211 -1.30263 -5.97362 0
M  V30 5817 H 602.385 -2.00274 -6.66981 0
M  V30 5818 H 600.012 -2.49717 -7.18015 0
M  V30 5819 N 601.587 1.56661 0.17182 0
M  V30 5820 C 602.827 1.83762 0.895029 0
M  V30 5821 C 603.191 0.682752 1.79451 0
M  V30 5822 O 604.392 0.834208 2.55528 0
M  V30 5823 C 602.663 3.15976 1.67015 0
M  V30 5824 S 604.222 3.64558 2.44219 0
M  V30 5825 H 601.04 0.644713 0.299778 0
M  V30 5826 H 603.642 1.94871 0.156701 0
M  V30 5827 H 602.346 3.98021 1.00039 0
M  V30 5828 H 601.877 3.07807 2.44986 0
M  V30 5829 H 603.892 3.31845 3.68909 0
M  V30 5830 N 603.065 -0.440357 1.51323 0
M  V30 5831 C 604.013 -1.55492 1.72988 0
M  V30 5832 C 605.007 -1.58564 0.596138 0
M  V30 5833 O 606.213 -1.62345 0.777443 0
M  V30 5834 H 602.588 -0.516532 0.546533 0
M  V30 5835 H 604.559 -1.34392 2.66423 0
M  V30 5836 C 603.308 -2.93176 1.86931 0
M  V30 5837 H 602.631 -2.91543 2.73574 0
M  V30 5838 H 604.071 -3.70537 2.06103 0
M  V30 5839 C 602.53 -3.30988 0.628365 0
M  V30 5840 O 603.06 -4.01106 -0.218367 0
M  V30 5841 N 601.266 -2.86719 0.473339 0
M  V30 5842 H 600.813 -2.2983 1.16345 0
M  V30 5843 H 600.771 -3.12381 -0.355727 0
M  V30 5844 N 604.543 -1.41418 -0.695603 0
M  V30 5845 C 605.475 -1.39195 -1.82092 0
M  V30 5846 C 606.488 -0.294132 -1.60121 0
M  V30 5847 O 607.677 -0.555854 -1.69625 0
M  V30 5848 C 604.777 -1.14828 -3.18854 0
M  V30 5849 C 603.95 -2.36649 -3.67853 0
M  V30 5850 C 603.009 -2.08139 -4.83285 0
M  V30 5851 O 602.035 -2.81177 -4.94902 0
M  V30 5852 N 603.237 -1.07162 -5.70523 0
M  V30 5853 H 606.002 -2.36185 -1.84491 0
M  V30 5854 H 603.563 -1.3603 -0.877923 0
M  V30 5855 H 605.555 -0.937075 -3.93702 0
M  V30 5856 H 604.125 -0.264358 -3.1148 0
M  V30 5857 H 603.345 -2.73472 -2.83913 0
M  V30 5858 H 604.633 -3.17816 -3.97329 0
M  V30 5859 H 604.031 -0.467124 -5.63768 0
M  V30 5860 H 602.588 -0.920311 -6.4527 0
M  V30 5861 N 606.021 0.929856 -1.27246 0
M  V30 5862 C 607.249 1.71144 -1.16265 0
M  V30 5863 C 607.664 1.867 0.280786 0
M  V30 5864 O 607.021 1.38249 1.19136 0
M  V30 5865 C 607.072 3.11222 -1.83911 0
M  V30 5866 O 606.793 2.96398 -3.22614 0
M  V30 5867 C 608.294 4.05541 -1.79028 0
M  V30 5868 H 605.514 0.535499 -0.404328 0
M  V30 5869 H 608.058 1.16492 -1.68077 0
M  V30 5870 H 606.213 3.6274 -1.36009 0
M  V30 5871 H 606.627 3.8494 -3.56261 0
M  V30 5872 H 608.101 5.01351 -2.30978 0
M  V30 5873 H 608.578 4.32589 -0.759168 0
M  V30 5874 H 609.184 3.59947 -2.26535 0
M  V30 5875 N 607.499 1.09233 1.13605 0
M  V30 5876 C 608.462 0.733553 2.17144 0
M  V30 5877 C 609.462 -0.235873 1.59061 0
M  V30 5878 O 610.652 -0.0143167 1.74194 0
M  V30 5879 C 607.784 0.084471 3.40795 0
M  V30 5880 H 608.977 1.65049 2.50397 0
M  V30 5881 H 606.53 0.891264 1.28399 0
M  V30 5882 H 607.265 -0.843795 3.1313 0
M  V30 5883 H 607.05 0.781985 3.84223 0
M  V30 5884 H 608.54 -0.151216 4.17326 0
M  V30 5885 N 608.977 -1.30795 0.87923 0
M  V30 5886 C 610.217 -1.98155 0.50141 0
M  V30 5887 C 610.581 -1.67925 -0.930863 0
M  V30 5888 O 611.782 -2.28572 -1.41451 0
M  V30 5889 C 610.053 -3.49184 0.761937 0
M  V30 5890 S 611.612 -4.36107 0.485361 0
M  V30 5891 H 608.43 -0.686025 0.186792 0
M  V30 5892 H 611.032 -1.59018 1.13726 0
M  V30 5893 H 609.736 -3.68676 1.80295 0
M  V30 5894 H 609.267 -3.93236 0.113432 0
M  V30 5895 H 611.282 -4.9154 -0.678467 0
M  V30 5896 N 610.455 -0.639598 -1.44038 0
M  V30 5897 C 611.866 -0.228866 -1.85292 0
M  V30 5898 C 612.217 1.22161 -1.53529 0
M  V30 5899 O 611.342 1.93064 -0.977518 0
M  V30 5900 C 611.937 -0.408592 -3.36327 0
M  V30 5901 C 610.496 -0.0522953 -3.76364 0
M  V30 5902 C 609.643 -0.717959 -2.67844 0
M  V30 5903 H 612.594 -0.844194 -1.34384 0
M  V30 5904 H 612.615 0.349968 -3.78887 0
M  V30 5905 H 612.127 -1.46435 -3.59414 0
M  V30 5906 H 610.228 1.0014 -3.58891 0
M  V30 5907 H 610.341 -0.468261 -4.76806 0
M  V30 5908 H 608.705 -0.152459 -2.54243 0
M  V30 5909 H 609.488 -1.77648 -2.93762 0
M  V30 5910 N 611.933 1.52934 -0.380664 0
M  V30 5911 C 612.896 2.24809 0.446473 0
M  V30 5912 C 613.896 1.26133 0.997347 0
M  V30 5913 O 615.086 1.50297 0.880714 0
M  V30 5914 C 612.218 2.99649 1.62553 0
M  V30 5915 H 613.411 2.99343 -0.182677 0
M  V30 5916 H 610.964 1.55736 -0.132618 0
M  V30 5917 H 611.699 2.29395 2.29235 0
M  V30 5918 H 611.484 3.72066 1.23732 0
M  V30 5919 H 612.974 3.54246 2.21133 0
M  V30 5920 N 613.412 0.11024 1.57214 0
M  V30 5921 C 614.689 -0.592956 1.86396 0
M  V30 5922 C 615.069 -1.85379 1.00985 0
M  V30 5923 O 614.417 -2.28337 0.0863592 0
M  V30 5924 C 614.627 -0.893816 3.3736 0
M  V30 5925 C 615.975 -1.25069 4.05762 0
M  V30 5926 O 616.999 -0.984356 3.42329 0
M  V30 5927 O 615.858 -1.75017 5.17718 0
M  V30 5928 H 612.952 -0.29828 0.771335 0
M  V30 5929 H 615.498 0.144083 1.69087 0
M  V30 5930 H 614.27 2.6031e-05 3.913 0
M  V30 5931 H 613.893 -1.68631 3.60068 0
M  V30 5932 N 614.89 -1.56749 -0.16351 0
M  V30 5933 C 616.13 -1.84234 -0.885271 0
M  V30 5934 C 616.494 -0.692259 -1.79086 0
M  V30 5935 O 617.695 -0.847747 -2.55082 0
M  V30 5936 C 615.966 -3.16857 -1.65337 0
M  V30 5937 S 617.525 -3.65848 -2.42282 0
M  V30 5938 H 614.343 -0.646293 -0.296354 0
M  V30 5939 H 616.945 -1.94951 -0.146365 0
M  V30 5940 H 615.649 -3.98546 -0.979266 0
M  V30 5941 H 615.18 -3.09102 -2.4335 0
M  V30 5942 H 617.195 -3.33796 -3.67143 0
M  V30 5943 N 616.368 0.432326 -1.51554 0
M  V30 5944 C 617.645 1.19288 -1.55015 0
M  V30 5945 C 618.025 2.08701 -0.317375 0
M  V30 5946 O 617.373 2.17602 0.697243 0
M  V30 5947 C 617.583 1.99037 -2.86679 0
M  V30 5948 C 618.931 2.55907 -3.38817 0
M  V30 5949 O 619.955 2.09243 -2.88263 0
M  V30 5950 O 618.814 3.41029 -4.27038 0
M  V30 5951 H 615.908 0.543369 -0.623441 0
M  V30 5952 H 618.454 0.440988 -1.6387 0
M  V30 5953 H 617.226 1.33397 -3.6786 0
M  V30 5954 H 616.849 2.81281 -2.8101 0
M  V30 5955 N 617.846 1.41785 0.688094 0
M  V30 5956 C 619.257 1.3701 1.26828 0
M  V30 5957 C 619.608 0.056835 1.96118 0
M  V30 5958 O 618.733 -0.84475 1.99231 0
M  V30 5959 C 619.328 2.48168 2.30648 0
M  V30 5960 C 617.887 2.46766 2.84224 0
M  V30 5961 C 617.034 2.27633 1.58361 0
M  V30 5962 H 619.985 1.51192 0.482351 0
M  V30 5963 H 620.006 2.17655 3.121 0
M  V30 5964 H 619.518 3.43735 1.80188 0
M  V30 5965 H 617.619 1.54978 3.3884 0
M  V30 5966 H 617.732 3.43342 3.34145 0
M  V30 5967 H 616.096 1.75648 1.84445 0
M  V30 5968 H 616.879 3.25238 1.09887 0
M  V30 5969 N 619.324 -0.923095 1.27737 0
M  V30 5970 C 620.272 -2.04567 1.10703 0
M  V30 5971 C 621.266 -1.69375 0.0288445 0
M  V30 5972 O 622.472 -1.79027 0.186913 0
M  V30 5973 H 618.847 -0.670109 0.34126 0
M  V30 5974 H 620.818 -2.1608 2.05796 0
M  V30 5975 C 619.567 -3.38934 0.775837 0
M  V30 5976 H 618.89 -3.66501 1.59741 0
M  V30 5977 H 620.33 -4.18239 0.696548 0
M  V30 5978 C 618.789 -3.32863 -0.520012 0
M  V30 5979 O 619.319 -3.70462 -1.55308 0
M  V30 5980 N 617.525 -2.85958 -0.51732 0
M  V30 5981 H 617.072 -2.55557 0.32379 0
M  V30 5982 H 617.03 -2.82279 -1.38441 0
M  V30 5983 N 620.802 -1.09834 -1.13024 0
M  V30 5984 C 622.03 -0.858902 -1.8823 0
M  V30 5985 C 622.445 0.590164 -1.79339 0
M  V30 5986 O 621.802 1.4065 -1.16292 0
M  V30 5987 C 621.853 -1.29066 -3.37675 0
M  V30 5988 O 621.574 -2.6829 -3.46341 0
M  V30 5989 C 623.075 -1.08421 -4.29837 0
M  V30 5990 H 620.295 -0.308713 -0.595766 0
M  V30 5991 H 622.839 -1.4614 -1.4305 0
M  V30 5992 H 620.994 -0.731961 -3.80422 0
M  V30 5993 H 621.408 -2.86598 -4.39274 0
M  V30 5994 H 622.882 -1.43553 -5.33007 0
M  V30 5995 H 623.359 -0.0223315 -4.39194 0
M  V30 5996 H 623.965 -1.62907 -3.92863 0
M  V30 5997 N 622.28 1.30327 -0.886154 0
M  V30 5998 C 623.212 2.27079 -0.311072 0
M  V30 5999 C 624.225 1.53758 0.53502 0
M  V30 6000 O 625.414 1.74947 0.354378 0
M  V30 6001 C 622.514 3.33965 0.576228 0
M  V30 6002 C 621.687 4.36735 -0.241064 0
M  V30 6003 C 620.746 5.23028 0.576916 0
M  V30 6004 O 619.772 5.692 -0.000802231 0
M  V30 6005 N 620.974 5.49016 1.88579 0
M  V30 6006 H 623.739 2.77065 -1.14259 0
M  V30 6007 H 621.3 1.43519 -0.749258 0
M  V30 6008 H 623.292 3.88618 1.12953 0
M  V30 6009 H 621.862 2.839 1.30842 0
M  V30 6010 H 621.082 3.81932 -0.975805 0
M  V30 6011 H 622.37 5.02451 -0.801272 0
M  V30 6012 H 621.768 5.13288 2.37806 0
M  V30 6013 H 620.325 6.06539 2.38651 0
M  V30 6014 N 623.758 0.647228 1.43697 0
M  V30 6015 C 624.721 -0.0385101 2.29168 0
M  V30 6016 C 625.721 -0.756487 1.41894 0
M  V30 6017 O 626.911 -0.598641 1.63591 0
M  V30 6018 C 624.043 -1.06524 3.23829 0
M  V30 6019 H 625.236 0.713445 2.9129 0
M  V30 6020 H 622.789 0.408153 1.50877 0
M  V30 6021 H 623.524 -1.84664 2.66589 0
M  V30 6022 H 623.309 -0.554147 3.88164 0
M  V30 6023 H 624.799 -1.54432 3.87996 0
M  V30 6024 N 625.236 -1.5273 0.388769 0
M  V30 6025 C 626.461 -2.0647 -0.19621 0
M  V30 6026 C 626.886 -1.25865 -1.39784 0
M  V30 6027 O 626.244 -0.283562 -1.79069 0
M  V30 6028 C 626.292 -3.56456 -0.5451 0
M  V30 6029 O 625.396 -3.78426 -1.63912 0
M  V30 6030 H 624.737 -0.663599 -0.023067 0
M  V30 6031 H 627.267 -1.96898 0.556084 0
M  V30 6032 H 627.277 -3.99888 -0.809557 0
M  V30 6033 H 625.952 -4.14561 0.333417 0
M  V30 6034 H 624.529 -3.46884 -1.36842 0
M  V30 6035 N 626.714 -0.118576 -1.57153 0
M  V30 6036 C 627.954 0.542618 -1.97066 0
M  V30 6037 C 628.318 1.63874 -1.00046 0
M  V30 6038 O 629.519 2.3588 -1.28895 0
M  V30 6039 C 627.79 1.06196 -3.41258 0
M  V30 6040 S 629.349 1.73174 -4.03183 0
M  V30 6041 H 626.167 0.17638 -0.688775 0
M  V30 6042 H 628.769 -0.203556 -1.94437 0
M  V30 6043 H 627.473 0.253016 -4.09619 0
M  V30 6044 H 627.004 1.84342 -3.47536 0
M  V30 6045 H 629.019 3.01749 -3.93906 0
M  V30 6046 N 628.193 1.56834 0.155195 0
M  V30 6047 C 629.103 2.009 1.21146 0
M  V30 6048 C 630.119 0.923029 1.475 0
M  V30 6049 O 631.295 1.23189 1.59331 0
M  V30 6050 C 628.36 2.37378 2.52691 0
M  V30 6051 C 627.421 3.59883 2.34057 0
M  V30 6052 C 626.654 3.94612 3.59329 0
M  V30 6053 O 626.877 3.30104 4.65175 0
M  V30 6054 O 625.811 4.87895 3.52479 0
M  V30 6055 H 629.637 2.9105 0.867371 0
M  V30 6056 H 627.222 1.44916 0.363298 0
M  V30 6057 H 629.104 2.61737 3.3026 0
M  V30 6058 H 627.779 1.50385 2.86646 0
M  V30 6059 H 626.686 3.40722 1.54465 0
M  V30 6060 H 628.019 4.47468 2.0502 0
M  V30 6061 N 629.671 -0.424282 1.51781 0
M  V30 6062 C 630.911 -1.18194 1.66762 0
M  V30 6063 C 631.275 -1.88164 0.381857 0
M  V30 6064 O 632.476 -2.65692 0.407586 0
M  V30 6065 C 630.747 -2.16173 2.84612 0
M  V30 6066 S 632.306 -3.0025 3.19993 0
M  V30 6067 H 629.124 -0.400626 0.587384 0
M  V30 6068 H 631.726 -0.471499 1.89729 0
M  V30 6069 H 630.43 -1.6343 3.76455 0
M  V30 6070 H 629.961 -2.91778 2.63873 0
M  V30 6071 H 631.976 -4.1796 2.67439 0
M  V30 6072 N 631.149 -1.42148 -0.680565 0
M  V30 6073 C 632.56 -1.3768 -1.26099 0
M  V30 6074 C 632.911 -0.0672348 -1.96085 0
M  V30 6075 O 632.036 0.834172 -1.99676 0
M  V30 6076 C 632.631 -2.49387 -2.29328 0
M  V30 6077 C 631.19 -2.4827 -2.82911 0
M  V30 6078 C 630.337 -2.2847 -1.57152 0
M  V30 6079 H 633.288 -1.51446 -0.474326 0
M  V30 6080 H 633.309 -2.19307 -3.10941 0
M  V30 6081 H 632.821 -3.44686 -1.78363 0
M  V30 6082 H 630.922 -1.56773 -3.38013 0
M  V30 6083 H 631.035 -3.45109 -3.3232 0
M  V30 6084 H 629.399 -1.76623 -1.83511 0
M  V30 6085 H 630.182 -3.25816 -1.0816 0
M  V30 6086 N 632.627 0.916307 -1.28225 0
M  V30 6087 C 633.537 2.05165 -1.13775 0
M  V30 6088 C 634.553 1.73879 -0.0649418 0
M  V30 6089 O 635.729 1.99531 -0.273722 0
M  V30 6090 C 632.794 3.37385 -0.798267 0
M  V30 6091 C 631.855 3.82296 -1.95316 0
M  V30 6092 C 631.088 5.08206 -1.62978 0
M  V30 6093 O 631.311 5.6781 -0.542948 0
M  V30 6094 O 630.245 5.48768 -2.47261 0
M  V30 6095 H 634.071 2.20273 -2.09078 0
M  V30 6096 H 631.656 1.0373 -1.07519 0
M  V30 6097 H 633.538 4.16773 -0.62278 0
M  V30 6098 H 632.213 3.23458 0.125139 0
M  V30 6099 H 631.12 3.03746 -2.18378 0
M  V30 6100 H 632.453 4.00782 -2.85718 0
M  V30 6101 N 634.105 1.10431 1.1244 0
M  V30 6102 C 635.353 0.845045 1.83585 0
M  V30 6103 C 635.674 -0.631168 1.84503 0
M  V30 6104 O 634.944 -1.45825 1.30813 0
M  V30 6105 H 633.524 0.309628 0.679809 0
M  V30 6106 H 636.186 1.39458 1.36153 0
M  V30 6107 H 635.282 1.20786 2.8778 0
M  V30 6108 N 635.583 -1.29855 0.893053 0
M  V30 6109 C 636.813 -1.99686 0.530019 0
M  V30 6110 C 637.221 -1.67066 -0.888012 0
M  V30 6111 O 636.564 -0.908366 -1.5967 0
M  V30 6112 C 636.626 -3.53855 0.63457 0
M  V30 6113 C 636.29 -4.10013 2.01837 0
M  V30 6114 C 637.287 -4.25406 2.98874 0
M  V30 6115 C 634.972 -4.45202 2.32595 0
M  V30 6116 C 636.966 -4.7521 4.24799 0
M  V30 6117 C 634.653 -4.94704 3.58763 0
M  V30 6118 C 635.651 -5.09662 4.5468 0
M  V30 6119 O 635.339 -5.58093 5.78608 0
M  V30 6120 H 635.071 -0.644913 0.20264 0
M  V30 6121 H 637.625 -1.66518 1.20253 0
M  V30 6122 H 635.855 -3.86583 -0.0949477 0
M  V30 6123 H 637.544 -4.04922 0.281648 0
M  V30 6124 H 638.31 -3.98515 2.76425 0
M  V30 6125 H 634.189 -4.32822 1.58701 0
M  V30 6126 H 637.733 -4.86801 4.99671 0
M  V30 6127 H 633.63 -5.21032 3.81046 0
M  V30 6128 H 634.398 -5.7642 5.81104 0
M  V30 6129 N 637.061 -0.65484 -1.43351 0
M  V30 6130 C 638.31 -0.166215 -2.01014 0
M  V30 6131 C 638.623 1.22764 -1.52278 0
M  V30 6132 O 639.829 1.81156 -2.02224 0
M  V30 6133 C 638.285 -0.246341 -3.59056 0
M  V30 6134 C 637.893 -1.64299 -4.16785 0
M  V30 6135 C 639.637 0.184597 -4.24098 0
M  V30 6136 C 637.544 -1.67695 -5.67126 0
M  V30 6137 H 636.474 -0.0583769 -0.751737 0
M  V30 6138 H 639.125 -0.817111 -1.64303 0
M  V30 6139 H 637.507 0.472092 -3.93176 0
M  V30 6140 H 638.681 -2.3869 -3.94162 0
M  V30 6141 H 636.996 -2.02004 -3.6412 0
M  V30 6142 H 639.593 0.179088 -5.344 0
M  V30 6143 H 639.936 1.21632 -3.98135 0
M  V30 6144 H 640.469 -0.482141 -3.94867 0
M  V30 6145 H 637.208 -2.68783 -5.9786 0
M  V30 6146 H 636.728 -0.976313 -5.91801 0
M  V30 6147 H 638.407 -1.42142 -6.31193 0
M  V30 6148 N 638.539 1.52521 -0.396863 0
M  V30 6149 C 639.469 2.29582 0.425941 0
M  V30 6150 C 640.45 1.33281 1.05689 0
M  V30 6151 O 641.635 1.62181 1.06823 0
M  V30 6152 C 638.765 3.10821 1.54943 0
M  V30 6153 C 637.719 4.15069 1.04413 0
M  V30 6154 C 637.045 4.84578 2.26028 0
M  V30 6155 C 638.345 5.22191 0.106767 0
M  V30 6156 H 640.039 2.98612 -0.217045 0
M  V30 6157 H 637.585 1.43611 -0.105826 0
M  V30 6158 H 639.538 3.63492 2.13193 0
M  V30 6159 H 638.262 2.39538 2.22011 0
M  V30 6160 H 636.921 3.63389 0.484118 0
M  V30 6161 H 636.569 4.09835 2.91623 0
M  V30 6162 H 636.269 5.55043 1.92876 0
M  V30 6163 H 637.793 5.40056 2.84906 0
M  V30 6164 H 639.207 5.70176 0.597685 0
M  V30 6165 H 637.604 5.99947 -0.135352 0
M  V30 6166 H 638.674 4.77531 -0.842134 0
M  V30 6167 N 640.017 0.126909 1.57088 0
M  V30 6168 C 641.294 -0.573152 1.87014 0
M  V30 6169 C 641.674 -1.84297 1.02945 0
M  V30 6170 O 641.022 -2.28232 0.110573 0
M  V30 6171 C 641.232 -0.857984 3.38289 0
M  V30 6172 C 642.58 -1.20759 4.07066 0
M  V30 6173 O 643.604 -0.947992 3.43353 0
M  V30 6174 O 642.463 -1.69516 5.19545 0
M  V30 6175 H 639.557 -0.290082 0.774456 0
M  V30 6176 H 642.103 0.162008 1.68925 0
M  V30 6177 H 640.875 0.0415286 3.91278 0
M  V30 6178 H 640.498 -1.64803 3.61837 0
M  V30 6179 N 641.495 -1.56914 -0.146875 0
M  V30 6180 C 642.772 -1.74273 -0.888165 0
M  V30 6181 C 643.152 -0.69496 -1.99333 0
M  V30 6182 O 642.5 0.286093 -2.26702 0
M  V30 6183 C 642.71 -3.18336 -1.43051 0
M  V30 6184 C 644.058 -3.80024 -1.89387 0
M  V30 6185 O 645.082 -3.21765 -1.52792 0
M  V30 6186 O 643.941 -4.82367 -2.56874 0
M  V30 6187 H 641.035 -0.712565 -0.419738 0
M  V30 6188 H 643.581 -1.6918 -0.132791 0
M  V30 6189 H 642.353 -3.86092 -0.636274 0
M  V30 6190 H 641.976 -3.27854 -2.24938 0
M  V30 6191 N 642.974 0.416227 -1.52004 0
M  V30 6192 C 644.222 1.16153 -1.65387 0
M  V30 6193 C 644.543 1.91208 -0.382669 0
M  V30 6194 O 643.813 1.86413 0.602231 0
M  V30 6195 H 642.393 0.431765 -0.60958 0
M  V30 6196 H 645.055 0.475151 -1.89019 0
M  V30 6197 H 644.151 1.87952 -2.4916 0
M  V30 6198 N 644.452 1.42507 0.673017 0
M  V30 6199 C 645.699 1.43072 1.43306 0
M  V30 6200 C 646.027 0.0478004 1.94441 0
M  V30 6201 O 645.282 -0.944106 1.71421 0
M  V30 6202 C 645.581 2.40351 2.64511 0
M  V30 6203 C 645.247 3.8669 2.31908 0
M  V30 6204 C 643.909 4.26551 2.22728 0
M  V30 6205 C 646.261 4.78991 2.05467 0
M  V30 6206 C 643.589 5.56691 1.85234 0
M  V30 6207 C 645.941 6.09476 1.69477 0
M  V30 6208 C 644.605 6.48334 1.58808 0
M  V30 6209 H 643.875 0.523536 0.524395 0
M  V30 6210 H 646.522 1.75459 0.76723 0
M  V30 6211 H 644.827 2.01297 3.36135 0
M  V30 6212 H 646.524 2.38051 3.22696 0
M  V30 6213 H 643.114 3.55132 2.39956 0
M  V30 6214 H 647.298 4.48982 2.11492 0
M  V30 6215 H 642.554 5.85657 1.75545 0
M  V30 6216 H 646.728 6.80482 1.48043 0
M  V30 6217 H 644.355 7.49084 1.29525 0
M  V30 6218 N 645.93 -0.909495 1.28709 0
M  V30 6219 C 647.179 -1.65365 1.15487 0
M  V30 6220 C 647.492 -1.93364 -0.294941 0
M  V30 6221 O 648.698 -2.65905 -0.548338 0
M  V30 6222 C 647.154 -2.97923 2.01916 0
M  V30 6223 C 646.762 -2.77556 3.51663 0
M  V30 6224 C 648.506 -3.75814 1.97393 0
M  V30 6225 C 646.413 -4.0578 4.30229 0
M  V30 6226 H 645.343 -0.620323 0.42862 0
M  V30 6227 H 647.994 -1.00894 1.53273 0
M  V30 6228 H 646.376 -3.63552 1.5699 0
M  V30 6229 H 647.55 -2.2058 4.04575 0
M  V30 6230 H 645.865 -2.13072 3.57756 0
M  V30 6231 H 648.462 -4.70866 2.53357 0
M  V30 6232 H 648.805 -4.05277 0.951643 0
M  V30 6233 H 649.338 -3.1701 2.40311 0
M  V30 6234 H 646.077 -3.81488 5.33055 0
M  V30 6235 H 645.597 -4.62351 3.82089 0
M  V30 6236 H 647.276 -4.74004 4.40374 0
M  V30 6237 N 647.408 -1.11026 -1.11852 0
M  V30 6238 C 648.648 -0.866348 -1.85132 0
M  V30 6239 C 649.012 0.597236 -1.82475 0
M  V30 6240 O 650.213 0.957744 -2.51159 0
M  V30 6241 C 648.484 -1.40721 -3.28531 0
M  V30 6242 S 650.043 -1.29964 -4.19112 0
M  V30 6243 H 646.861 -0.312899 -0.638447 0
M  V30 6244 H 649.463 -1.41691 -1.34699 0
M  V30 6245 H 648.167 -2.46631 -3.28027 0
M  V30 6246 H 647.698 -0.85349 -3.8403 0
M  V30 6247 H 649.713 -0.261333 -4.95511 0
M  V30 6248 N 648.886 1.2938 -0.899927 0
M  V30 6249 C 650.114 1.99691 -0.541386 0
M  V30 6250 C 650.529 1.67355 0.873936 0
M  V30 6251 O 649.886 0.918728 1.57688 0
M  V30 6252 C 649.937 3.54168 -0.72438 0
M  V30 6253 O 649.658 3.85359 -2.08399 0
M  V30 6254 C 651.159 4.41746 -0.370819 0
M  V30 6255 H 648.379 0.638037 -0.207726 0
M  V30 6256 H 650.923 1.6491 -1.20934 0
M  V30 6257 H 649.078 3.87261 -0.103607 0
M  V30 6258 H 649.492 4.80032 -2.11352 0
M  V30 6259 H 650.966 5.49256 -0.549693 0
M  V30 6260 H 651.443 4.33712 0.692148 0
M  V30 6261 H 652.049 4.14125 -0.968543 0
M  V30 6262 N 650.364 0.662433 1.43002 0
M  V30 6263 C 651.641 0.109096 1.95296 0
M  V30 6264 C 652.021 -1.37313 1.60338 0
M  V30 6265 O 651.369 -2.1032 0.893187 0
M  V30 6266 C 651.579 0.365096 3.47085 0
M  V30 6267 C 652.927 0.274964 4.23709 0
M  V30 6268 O 653.951 0.29816 3.5495 0
M  V30 6269 O 652.81 0.206549 5.4611 0
M  V30 6270 H 649.904 -0.00429724 0.826989 0
M  V30 6271 H 652.45 0.736308 1.52894 0
M  V30 6272 H 651.222 1.39237 3.65689 0
M  V30 6273 H 650.845 -0.294733 3.96506 0
M  V30 6274 N 651.842 -1.52309 0.404946 0
M  V30 6275 C 653.091 -2.00952 -0.173529 0
M  V30 6276 C 653.404 -1.29512 -1.46581 0
M  V30 6277 O 654.61 -1.6895 -2.12528 0
M  V30 6278 C 653.066 -3.58097 -0.359801 0
M  V30 6279 C 652.674 -4.38449 0.920138 0
M  V30 6280 C 654.418 -4.14984 -0.893794 0
M  V30 6281 C 652.325 -5.87227 0.701285 0
M  V30 6282 H 651.255 -0.750871 -0.0686244 0
M  V30 6283 H 653.906 -1.75687 0.529749 0
M  V30 6284 H 652.288 -3.79675 -1.12531 0
M  V30 6285 H 653.462 -4.28633 1.69147 0
M  V30 6286 H 651.777 -3.92859 1.38024 0
M  V30 6287 H 654.374 -5.23813 -1.0735 0
M  V30 6288 H 654.717 -3.72072 -1.8673 0
M  V30 6289 H 655.25 -3.97358 -0.187453 0
M  V30 6290 H 651.989 -6.34491 1.64624 0
M  V30 6291 H 651.509 -5.99792 -0.0308288 0
M  V30 6292 H 653.188 -6.46096 0.341846 0
M  V30 6293 N 653.32 -0.135238 -1.57019 0
M  V30 6294 C 654.597 0.563227 -1.87316 0
M  V30 6295 C 654.977 1.83749 -1.03921 0
M  V30 6296 O 654.325 2.2817 -0.122675 0
M  V30 6297 C 654.535 0.840031 -3.3874 0
M  V30 6298 C 655.883 1.18598 -4.077 0
M  V30 6299 O 656.907 0.92977 -3.43851 0
M  V30 6300 O 655.766 1.66758 -5.20436 0
M  V30 6301 H 652.86 0.285971 -0.775983 0
M  V30 6302 H 655.406 -0.170965 -1.68837 0
M  V30 6303 H 654.178 -0.0622785 -3.9125 0
M  V30 6304 H 653.801 1.62882 -3.62706 0
M  V30 6305 N 654.798 1.5699 0.138552 0
M  V30 6306 C 655.708 2.02174 1.19008 0
M  V30 6307 C 656.724 0.938622 1.46512 0
M  V30 6308 O 657.9 1.24872 1.58016 0
M  V30 6309 C 654.965 2.40045 2.50159 0
M  V30 6310 C 654.026 3.62346 2.30226 0
M  V30 6311 C 653.259 3.98401 3.55123 0
M  V30 6312 O 653.482 3.35019 4.61647 0
M  V30 6313 O 652.416 4.91606 3.47285 0
M  V30 6314 H 656.242 2.91954 0.836452 0
M  V30 6315 H 653.827 1.45293 0.347907 0
M  V30 6316 H 655.709 2.65225 3.27465 0
M  V30 6317 H 654.384 1.53417 2.85035 0
M  V30 6318 H 653.291 3.42341 1.50843 0
M  V30 6319 H 654.624 4.49617 2.00262 0
M  V30 6320 N 656.276 -0.40816 1.52223 0
M  V30 6321 C 657.516 -1.16418 1.68006 0
M  V30 6322 C 657.88 -1.87749 0.401793 0
M  V30 6323 O 659.081 -2.65245 0.435743 0
M  V30 6324 C 657.352 -2.13143 2.86889 0
M  V30 6325 S 658.911 -2.96839 3.2316 0
M  V30 6326 H 655.729 -0.394373 0.5916 0
M  V30 6327 H 658.331 -0.451349 1.90219 0
M  V30 6328 H 657.035 -1.59428 3.78168 0
M  V30 6329 H 656.566 -2.88963 2.66953 0
M  V30 6330 H 658.581 -4.151 2.71857 0
M  V30 6331 N 657.755 -1.42862 -0.66545 0
M  V30 6332 C 658.665 -1.49491 -1.80803 0
M  V30 6333 C 659.681 -0.382914 -1.69734 0
M  V30 6334 O 660.857 -0.635223 -1.9112 0
M  V30 6335 C 657.922 -1.40383 -3.17007 0
M  V30 6336 C 656.983 -2.62152 -3.39963 0
M  V30 6337 C 656.216 -2.53469 -4.69669 0
M  V30 6338 O 656.439 -1.57568 -5.48205 0
M  V30 6339 O 655.373 -3.43763 -4.94075 0
M  V30 6340 H 659.199 -2.45949 -1.78165 0
M  V30 6341 H 656.784 -1.24728 -0.822387 0
M  V30 6342 H 658.666 -1.377 -3.98267 0
M  V30 6343 H 657.341 -0.470546 -3.20262 0
M  V30 6344 H 656.248 -2.70409 -2.58515 0
M  V30 6345 H 657.581 -3.54411 -3.41546 0
M  V30 6346 N 659.233 0.902656 -1.29189 0
M  V30 6347 C 660.181 2.0278 -1.13943 0
M  V30 6348 C 661.175 1.69308 -0.055787 0
M  V30 6349 O 662.381 1.78707 -0.215371 0
M  V30 6350 H 658.756 0.664595 -0.351877 0
M  V30 6351 H 660.727 2.12778 -2.09208 0
M  V30 6352 C 659.476 3.37657 -0.82966 0
M  V30 6353 H 658.799 3.63913 -1.65551 0
M  V30 6354 H 660.239 4.17078 -0.762998 0
M  V30 6355 C 658.698 3.33648 0.466991 0
M  V30 6356 O 659.228 3.72886 1.49395 0
M  V30 6357 N 657.434 2.86745 0.471761 0
M  V30 6358 H 656.981 2.55009 -0.364406 0
M  V30 6359 H 656.939 2.84446 1.33933 0
M  V30 6360 N 660.711 1.11618 1.11262 0
M  V30 6361 C 661.959 0.864469 1.82678 0
M  V30 6362 C 662.28 -0.611564 1.85162 0
M  V30 6363 O 661.55 -1.44429 1.32352 0
M  V30 6364 H 660.13 0.316821 0.676486 0
M  V30 6365 H 662.792 1.40894 1.34666 0
M  V30 6366 H 661.888 1.23832 2.86482 0
M  V30 6367 N 662.189 -1.289 0.906776 0
M  V30 6368 C 663.437 -1.94883 0.535266 0
M  V30 6369 C 663.758 -1.71784 -0.922791 0
M  V30 6370 O 663.028 -1.05359 -1.65156 0
M  V30 6371 H 661.608 -0.721109 0.194962 0
M  V30 6372 H 664.27 -1.57018 1.15461 0
M  V30 6373 H 663.366 -3.03591 0.723821 0
M  V30 6374 N 663.667 -0.670007 -1.42649 0
M  V30 6375 C 664.914 -0.190286 -2.01604 0
M  V30 6376 C 665.242 1.20155 -1.52948 0
M  V30 6377 O 664.497 1.81964 -0.72026 0
M  V30 6378 C 664.796 -0.168298 -3.57004 0
M  V30 6379 C 664.462 -1.50415 -4.25072 0
M  V30 6380 C 663.124 -1.86992 -4.43382 0
M  V30 6381 C 665.476 -2.38414 -4.63474 0
M  V30 6382 C 662.804 -3.11203 -4.97363 0
M  V30 6383 C 665.156 -3.61933 -5.18833 0
M  V30 6384 C 663.82 -3.98685 -5.35356 0
M  V30 6385 H 663.09 -0.0696305 -0.737721 0
M  V30 6386 H 665.737 -0.864044 -1.70899 0
M  V30 6387 H 664.042 0.588958 -3.87348 0
M  V30 6388 H 665.739 0.22001 -4.00396 0
M  V30 6389 H 662.329 -1.20959 -4.11177 0
M  V30 6390 H 666.513 -2.11442 -4.49006 0
M  V30 6391 H 661.769 -3.39705 -5.08341 0
M  V30 6392 H 665.943 -4.30326 -5.47533 0
M  V30 6393 H 663.57 -4.95009 -5.76949 0
M  V30 6394 N 665.145 1.52092 -0.413018 0
M  V30 6395 C 666.385 2.03765 0.160975 0
M  V30 6396 C 666.749 1.29174 1.4205 0
M  V30 6397 O 667.95 1.71093 2.07318 0
M  V30 6398 C 666.221 3.55167 0.398871 0
M  V30 6399 S 667.78 4.28619 0.939755 0
M  V30 6400 H 664.598 0.709685 0.0432281 0
M  V30 6401 H 667.2 1.87102 -0.566831 0
M  V30 6402 H 665.904 4.07034 -0.524544 0
M  V30 6403 H 665.435 3.7608 1.15444 0
M  V30 6404 H 667.45 4.43773 2.21991 0
M  V30 6405 N 666.623 0.143563 1.56945 0
M  V30 6406 C 667.848 -0.518701 2.00809 0
M  V30 6407 C 668.273 -1.5785 1.02298 0
M  V30 6408 O 667.631 -1.813 -0.0017839 0
M  V30 6409 C 667.679 -1.09929 3.43436 0
M  V30 6410 O 666.783 -2.21425 3.47915 0
M  V30 6411 H 666.124 -0.127215 0.6517 0
M  V30 6412 H 668.654 0.239283 2.03196 0
M  V30 6413 H 668.664 -1.4288 3.82164 0
M  V30 6414 H 667.339 -0.323162 4.14643 0
M  V30 6415 H 665.916 -1.89728 3.21026 0
M  V30 6416 N 668.101 -1.57061 -0.130224 0
M  V30 6417 C 669.349 -1.83893 -0.838313 0
M  V30 6418 C 669.67 -0.727046 -1.80939 0
M  V30 6419 O 668.94 0.249927 -1.94299 0
M  V30 6420 H 667.52 -0.67846 -0.312573 0
M  V30 6421 H 670.182 -1.94529 -0.120224 0
M  V30 6422 H 669.278 -2.79419 -1.39038 0
M  V30 6423 N 669.579 0.400081 -1.52437 0
M  V30 6424 C 670.825 1.14788 -1.67187 0
M  V30 6425 C 671.158 1.89928 -0.405074 0
M  V30 6426 O 670.433 1.85118 0.596804 0
M  V30 6427 C 670.716 2.13507 -2.89977 0
M  V30 6428 C 670.569 1.42204 -4.2673 0
M  V30 6429 C 671.888 3.14069 -3.083 0
M  V30 6430 H 669.007 0.415939 -0.608411 0
M  V30 6431 H 671.649 0.432542 -1.85011 0
M  V30 6432 H 669.799 2.7451 -2.74912 0
M  V30 6433 H 671.471 0.842503 -4.53541 0
M  V30 6434 H 669.714 0.723939 -4.27717 0
M  V30 6435 H 670.385 2.14281 -5.08712 0
M  V30 6436 H 672.861 2.63148 -3.22323 0
M  V30 6437 H 671.737 3.80398 -3.95713 0
M  V30 6438 H 671.998 3.82309 -2.22018 0
M  V30 6439 N 671.057 1.43213 0.657864 0
M  V30 6440 C 672.297 1.46083 1.42965 0
M  V30 6441 C 672.661 0.0809712 1.91829 0
M  V30 6442 O 673.862 -0.0156305 2.68795 0
M  V30 6443 C 672.133 2.47044 2.58271 0
M  V30 6444 S 673.692 2.68753 3.46868 0
M  V30 6445 H 670.51 0.517015 0.488074 0
M  V30 6446 H 673.112 1.79945 0.764213 0
M  V30 6447 H 671.816 3.46044 2.20639 0
M  V30 6448 H 671.347 2.14665 3.2967 0
M  V30 6449 H 673.362 1.98329 4.54841 0
M  V30 6450 N 672.536 -0.895792 1.29666 0
M  V30 6451 C 673.486 -1.98736 1.1175 0
M  V30 6452 C 674.47 -1.6086 0.0357834 0
M  V30 6453 O 675.662 -1.75111 0.257926 0
M  V30 6454 C 672.791 -3.33845 0.800156 0
M  V30 6455 C 671.877 -3.78068 1.9216 0
M  V30 6456 N 672.268 -3.94489 3.16563 0
M  V30 6457 C 670.566 -4.07376 1.81552 0
M  V30 6458 C 671.267 -4.31819 3.89753 0
M  V30 6459 N 670.243 -4.41081 3.17724 0
M  V30 6460 H 674.045 -2.09507 2.06117 0
M  V30 6461 H 671.559 -1.08488 1.20848 0
M  V30 6462 H 673.556 -4.11757 0.652841 0
M  V30 6463 H 672.216 -3.24417 -0.135551 0
M  V30 6464 H 673.227 -3.79914 3.51974 0
M  V30 6465 H 669.904 -4.06483 0.952787 0
M  V30 6466 H 671.294 -4.52337 4.96831 0
M  V30 6467 N 674.014 -1.12206 -1.10668 0
M  V30 6468 C 674.962 -0.782918 -2.19028 0
M  V30 6469 C 675.956 0.229175 -1.67843 0
M  V30 6470 O 677.162 0.0876295 -1.79787 0
M  V30 6471 H 673.537 -0.235339 -0.714227 0
M  V30 6472 H 675.508 -1.70527 -2.44874 0
M  V30 6473 C 674.257 -0.25116 -3.46792 0
M  V30 6474 H 673.58 -1.02123 -3.86537 0
M  V30 6475 H 675.02 -0.0521409 -4.23968 0
M  V30 6476 C 673.479 1.02037 -3.21076 0
M  V30 6477 O 674.009 2.09862 -3.42522 0
M  V30 6478 N 672.215 0.946348 -2.74759 0
M  V30 6479 H 671.762 0.068777 -2.57508 0
M  V30 6480 H 671.72 1.79775 -2.57931 0
M  V30 6481 N 675.492 1.28418 -0.913599 0
M  V30 6482 C 676.422 2.29713 -0.418847 0
M  V30 6483 C 677.403 1.62165 0.513469 0
M  V30 6484 O 678.588 1.89576 0.421235 0
M  V30 6485 C 675.718 3.45612 0.342042 0
M  V30 6486 C 674.672 4.25056 -0.501123 0
M  V30 6487 C 673.998 5.3329 0.388097 0
M  V30 6488 C 675.298 4.91814 -1.75831 0
M  V30 6489 H 676.992 2.71346 -1.26538 0
M  V30 6490 H 674.538 1.30446 -0.609903 0
M  V30 6491 H 676.491 4.15562 0.699 0
M  V30 6492 H 675.215 3.02858 1.22248 0
M  V30 6493 H 673.874 3.56833 -0.840598 0
M  V30 6494 H 673.522 4.8678 1.26707 0
M  V30 6495 H 673.222 5.87347 -0.172459 0
M  V30 6496 H 674.746 6.06088 0.74094 0
M  V30 6497 H 676.16 5.54126 -1.47026 0
M  V30 6498 H 674.557 5.55866 -2.26126 0
M  V30 6499 H 675.627 4.16313 -2.4862 0
M  V30 6500 N 676.97 0.677563 1.42291 0
M  V30 6501 C 678.381 0.277912 1.8462 0
M  V30 6502 C 678.732 -1.18048 1.56714 0
M  V30 6503 O 677.857 -1.90404 1.02836 0
M  V30 6504 C 678.452 0.497619 3.35126 0
M  V30 6505 C 677.011 0.152063 3.76093 0
M  V30 6506 C 676.158 0.78872 2.65847 0
M  V30 6507 H 679.109 0.879527 1.32098 0
M  V30 6508 H 679.13 -0.24939 3.79682 0
M  V30 6509 H 678.642 1.55913 3.55405 0
M  V30 6510 H 676.743 -0.905896 3.6142 0
M  V30 6511 H 676.856 0.594514 4.75397 0
M  V30 6512 H 675.22 0.219813 2.5375 0
M  V30 6513 H 676.003 1.85374 2.88949 0
M  V30 6514 N 678.448 -1.51871 0.421078 0
M  V30 6515 C 679.696 -2.01539 -0.150492 0
M  V30 6516 C 680.017 -1.30803 -1.44623 0
M  V30 6517 O 679.287 -0.437568 -1.90951 0
M  V30 6518 H 677.867 -0.744698 -0.0586041 0
M  V30 6519 H 680.529 -1.8668 0.560059 0
M  V30 6520 H 679.625 -3.10264 -0.338068 0
M  V30 6521 N 679.926 -0.151884 -1.56866 0
M  V30 6522 C 681.154 0.504813 -2.00647 0
M  V30 6523 C 681.569 1.58098 -1.03201 0
M  V30 6524 O 680.926 1.82476 -0.0297814 0
M  V30 6525 C 680.977 1.10099 -3.44326 0
M  V30 6526 O 680.698 0.0678021 -4.38048 0
M  V30 6527 C 682.199 1.83782 -4.03409 0
M  V30 6528 H 679.419 0.130989 -0.65809 0
M  V30 6529 H 681.963 -0.247903 -2.02992 0
M  V30 6530 H 680.118 1.8043 -3.42817 0
M  V30 6531 H 680.532 0.505237 -5.22061 0
M  V30 6532 H 682.006 2.2078 -5.05925 0
M  V30 6533 H 682.483 2.72557 -3.44397 0
M  V30 6534 H 683.089 1.18138 -4.08563 0
M  V30 6535 N 681.404 1.57128 0.121893 0
M  V30 6536 C 682.651 1.847 0.830188 0
M  V30 6537 C 682.979 0.736543 1.80015 0
M  V30 6538 O 682.234 -0.272358 1.93796 0
M  V30 6539 C 682.533 3.1874 1.61677 0
M  V30 6540 C 682.199 4.43901 0.791361 0
M  V30 6541 C 680.861 4.77887 0.563731 0
M  V30 6542 C 683.213 5.20753 0.215823 0
M  V30 6543 C 680.541 5.86168 -0.249737 0
M  V30 6544 C 682.893 6.29891 -0.584821 0
M  V30 6545 C 681.557 6.6241 -0.822794 0
M  V30 6546 H 680.827 0.675866 0.303787 0
M  V30 6547 H 683.474 1.91276 0.0926894 0
M  V30 6548 H 681.779 3.07728 2.42509 0
M  V30 6549 H 683.476 3.37295 2.16872 0
M  V30 6550 H 680.066 4.17272 0.978867 0
M  V30 6551 H 684.25 4.94851 0.378907 0
M  V30 6552 H 679.506 6.0979 -0.44336 0
M  V30 6553 H 683.68 6.88624 -1.03779 0
M  V30 6554 H 681.307 7.46147 -1.45496 0
M  V30 6555 N 682.882 -0.391992 1.52647 0
M  V30 6556 C 683.792 -1.503 1.80131 0
M  V30 6557 C 684.808 -1.59825 0.687882 0
M  V30 6558 O 685.984 -1.76218 0.975149 0
M  V30 6559 C 683.049 -2.85863 1.96171 0
M  V30 6560 C 682.11 -2.86084 3.20085 0
M  V30 6561 C 681.343 -4.15181 3.35351 0
M  V30 6562 O 681.566 -5.09981 2.55491 0
M  V30 6563 O 680.5 -4.22603 4.28591 0
M  V30 6564 H 684.326 -1.30007 2.74466 0
M  V30 6565 H 681.911 -0.579539 1.37701 0
M  V30 6566 H 683.793 -3.66236 2.08445 0
M  V30 6567 H 682.468 -3.06189 1.05025 0
M  V30 6568 H 681.375 -2.04504 3.13256 0
M  V30 6569 H 682.708 -2.7071 4.11068 0
M  V30 6570 N 684.36 -1.4356 -0.65026 0
M  V30 6571 C 685.6 -1.46839 -1.42188 0
M  V30 6572 C 685.964 -0.0911433 -1.91784 0
M  V30 6573 O 687.165 0.00137545 -2.688 0
M  V30 6574 C 685.436 -2.48411 -2.56957 0
M  V30 6575 S 686.995 -2.70589 -3.45438 0
M  V30 6576 H 683.813 -0.519596 -0.485325 0
M  V30 6577 H 686.415 -1.80347 -0.75466 0
M  V30 6578 H 685.119 -3.47209 -2.18801 0
M  V30 6579 H 684.65 -2.16411 -3.28527 0
M  V30 6580 H 686.665 -2.00738 -4.53782 0
M  V30 6581 N 685.838 0.888903 -1.30139 0
M  V30 6582 C 687.087 1.63507 -1.18103 0
M  V30 6583 C 687.4 1.93808 0.264141 0
M  V30 6584 O 688.606 2.66744 0.505966 0
M  V30 6585 C 687.062 2.94673 -2.0663 0
M  V30 6586 C 686.67 2.71926 -3.56034 0
M  V30 6587 C 688.414 3.72626 -2.03346 0
M  V30 6588 C 686.321 3.98884 -4.3663 0
M  V30 6589 H 685.251 0.613426 -0.438435 0
M  V30 6590 H 687.902 0.984427 -1.54859 0
M  V30 6591 H 686.284 3.61009 -1.62754 0
M  V30 6592 H 687.458 2.14116 -4.08033 0
M  V30 6593 H 685.773 2.07353 -3.61101 0
M  V30 6594 H 688.37 4.66775 -2.60816 0
M  V30 6595 H 688.713 4.03712 -1.016 0
M  V30 6596 H 689.246 3.13147 -2.45324 0
M  V30 6597 H 685.985 3.72959 -5.39056 0
M  V30 6598 H 685.505 4.56214 -3.89396 0
M  V30 6599 H 687.184 4.66938 -4.47859 0
M  V30 6600 N 687.317 1.12792 1.10072 0
M  V30 6601 C 688.557 0.895691 1.8373 0
M  V30 6602 C 688.921 -0.568131 1.83402 0
M  V30 6603 O 690.122 -0.917666 2.52651 0
M  V30 6604 C 688.393 1.4593 3.2625 0
M  V30 6605 S 689.952 1.36615 4.16991 0
M  V30 6606 H 686.77 0.323017 0.633389 0
M  V30 6607 H 689.372 1.43816 1.32428 0
M  V30 6608 H 688.076 2.51818 3.24062 0
M  V30 6609 H 687.607 0.914478 3.82624 0
M  V30 6610 H 689.622 0.340131 4.95033 0
M  V30 6611 N 688.795 -1.27931 0.920396 0
M  V30 6612 C 690.043 -1.94304 0.555906 0
M  V30 6613 C 690.364 -1.72753 -0.904519 0
M  V30 6614 O 689.634 -1.07104 -1.64029 0
M  V30 6615 H 688.214 -0.719001 0.202599 0
M  V30 6616 H 690.876 -1.55785 1.1712 0
M  V30 6617 H 689.972 -3.02806 0.755981 0
M  V30 6618 N 690.273 -0.685099 -1.4193 0
M  V30 6619 C 691.684 -0.287699 -1.8447 0
M  V30 6620 C 692.035 1.17215 -1.57338 0
M  V30 6621 O 691.16 1.89856 -1.03845 0
M  V30 6622 C 691.755 -0.515385 -3.34857 0
M  V30 6623 C 690.314 -0.172006 -3.76007 0
M  V30 6624 C 689.461 -0.802808 -2.65425 0
M  V30 6625 H 692.412 -0.88652 -1.3163 0
M  V30 6626 H 692.433 0.229251 -3.79809 0
M  V30 6627 H 691.945 -1.57796 -3.54573 0
M  V30 6628 H 690.046 0.886716 -3.61895 0
M  V30 6629 H 690.159 -0.619717 -4.75075 0
M  V30 6630 H 688.523 -0.233267 -2.5363 0
M  V30 6631 H 689.306 -1.86904 -2.87961 0
M  V30 6632 N 691.751 1.51645 -0.429126 0
M  V30 6633 C 693.028 1.94579 0.199614 0
M  V30 6634 C 693.408 1.3673 1.60836 0
M  V30 6635 O 692.756 0.551062 2.21756 0
M  V30 6636 C 692.966 3.48506 0.185685 0
M  V30 6637 C 694.314 4.22756 0.395282 0
M  V30 6638 O 695.338 3.55219 0.264165 0
M  V30 6639 O 694.197 5.42555 0.655475 0
M  V30 6640 H 691.291 0.816007 0.134393 0
M  V30 6641 H 693.837 1.62577 -0.486513 0
M  V30 6642 H 692.609 3.83045 -0.799508 0
M  V30 6643 H 692.232 3.86927 0.91507 0
M  V30 6644 N 693.229 0.160201 1.56784 0
M  V30 6645 C 694.454 -0.497373 2.01348 0
M  V30 6646 C 694.879 -1.56757 1.03966 0
M  V30 6647 O 694.237 -1.81292 0.0174455 0
M  V30 6648 C 694.285 -1.0628 3.44582 0
M  V30 6649 O 693.389 -2.17723 3.50244 0
M  V30 6650 H 692.73 -0.120295 0.653012 0
M  V30 6651 H 695.26 0.260821 2.02931 0
M  V30 6652 H 695.27 -1.38819 3.83658 0
M  V30 6653 H 693.945 -0.279166 4.14962 0
M  V30 6654 H 692.522 -1.86313 3.2302 0
M  V30 6655 N 694.707 -1.5719 -0.113559 0
M  V30 6656 C 695.67 -1.99796 -1.12314 0
M  V30 6657 C 696.67 -0.888847 -1.34001 0
M  V30 6658 O 697.86 -1.15476 -1.30426 0
M  V30 6659 C 694.992 -2.34279 -2.47641 0
M  V30 6660 H 696.185 -2.90193 -0.756825 0
M  V30 6661 H 693.738 -1.52144 -0.358029 0
M  V30 6662 H 694.473 -1.46778 -2.89183 0
M  V30 6663 H 694.258 -3.15175 -2.33253 0
M  V30 6664 H 695.748 -2.67963 -3.2029 0
M  V30 6665 N 696.185 0.383891 -1.52853 0
M  V30 6666 C 697.115 1.47559 -1.80965 0
M  V30 6667 C 698.096 1.5669 -0.661986 0
M  V30 6668 O 699.281 1.71556 -0.910072 0
M  V30 6669 C 696.411 2.85114 -1.98312 0
M  V30 6670 C 695.365 2.9082 -3.14019 0
M  V30 6671 C 694.691 4.30873 -3.16627 0
M  V30 6672 C 695.991 2.60001 -4.52986 0
M  V30 6673 H 697.685 1.24283 -2.72386 0
M  V30 6674 H 695.231 0.596445 -1.31067 0
M  V30 6675 H 697.184 3.61496 -2.16561 0
M  V30 6676 H 695.908 3.09738 -1.03585 0
M  V30 6677 H 694.567 2.16886 -2.9556 0
M  V30 6678 H 694.215 4.52545 -2.19573 0
M  V30 6679 H 693.915 4.3561 -3.94357 0
M  V30 6680 H 695.439 5.09154 -3.37038 0
M  V30 6681 H 696.853 3.261 -4.71521 0
M  V30 6682 H 695.25 2.76081 -5.32822 0
M  V30 6683 H 696.32 1.5532 -4.59351 0
M  V30 6684 N 697.663 1.43903 0.642637 0
M  V30 6685 C 698.626 1.49538 1.73698 0
M  V30 6686 C 699.626 0.378776 1.56275 0
M  V30 6687 O 700.816 0.64095 1.6198 0
M  V30 6688 C 697.948 1.35821 3.12675 0
M  V30 6689 H 699.141 2.47008 1.70079 0
M  V30 6690 H 696.694 1.30824 0.85526 0
M  V30 6691 H 697.429 0.393994 3.21898 0
M  V30 6692 H 697.214 2.16776 3.26727 0
M  V30 6693 H 698.704 1.4272 3.92455 0
M  V30 6694 N 699.141 -0.881989 1.30609 0
M  V30 6695 C 700.557 -1.16576 1.09005 0
M  V30 6696 C 700.757 -2.00961 -0.14727 0
M  V30 6697 O 699.813 -2.38117 -0.840036 0
M  V30 6698 C 701.126 -1.86954 2.35518 0
M  V30 6699 C 702.674 -1.99706 2.41011 0
M  V30 6700 C 703.149 -2.73497 3.67374 0
M  V30 6701 N 704.64 -2.8104 3.68199 0
M  V30 6702 C 705.375 -3.38718 4.62664 0
M  V30 6703 N 704.871 -3.97421 5.67475 0
M  V30 6704 N 706.664 -3.36561 4.50203 0
M  V30 6705 H 698.815 -0.319398 2.09985 0
M  V30 6706 H 701.078 -0.204058 0.925778 0
M  V30 6707 H 700.784 -1.32393 3.2583 0
M  V30 6708 H 700.658 -2.87317 2.44395 0
M  V30 6709 H 703.045 -2.53436 1.51176 0
M  V30 6710 H 703.126 -0.984218 2.36108 0
M  V30 6711 H 702.77 -2.20438 4.57569 0
M  V30 6712 H 702.7 -3.75163 3.6954 0
M  V30 6713 H 705.191 -2.39365 2.92426 0
M  V30 6714 H 705.504 -4.39507 6.35652 0
M  V30 6715 H 703.849 -3.95832 5.71264 0
M  V30 6716 H 707.04 -2.8993 3.67503 0
M  V30 6717 H 707.213 -3.81215 5.24003 0
M  V30 6718 N 700.619 -1.13374 -1.09472 0
M  V30 6719 C 701.569 -0.77946 -2.14263 0
M  V30 6720 C 702.553 0.226271 -1.59301 0
M  V30 6721 O 703.745 0.0302581 -1.76974 0
M  V30 6722 C 700.874 -0.246635 -3.42413 0
M  V30 6723 C 699.96 -1.28124 -4.04283 0
M  V30 6724 N 700.351 -2.48201 -4.40715 0
M  V30 6725 C 698.649 -1.12892 -4.31476 0
M  V30 6726 C 699.35 -3.14347 -4.8945 0
M  V30 6727 N 698.326 -2.41771 -4.86876 0
M  V30 6728 H 702.128 -1.69305 -2.40235 0
M  V30 6729 H 699.642 -1.01598 -1.26695 0
M  V30 6730 H 701.639 0.0254131 -4.16892 0
M  V30 6731 H 700.299 0.661287 -3.17895 0
M  V30 6732 H 701.31 -2.85511 -4.32093 0
M  V30 6733 H 697.987 -0.279117 -4.16566 0
M  V30 6734 H 699.377 -4.16663 -5.27107 0
M  V30 6735 N 702.098 1.27442 -0.927168 0
M  V30 6736 C 703.347 1.93679 -0.563146 0
M  V30 6737 C 703.66 1.73673 0.899837 0
M  V30 6738 O 704.866 2.34247 1.37262 0
M  V30 6739 C 703.322 3.46961 -0.95636 0
M  V30 6740 C 702.93 3.75724 -2.43999 0
M  V30 6741 C 704.674 4.19282 -0.663565 0
M  V30 6742 C 702.581 5.22378 -2.77263 0
M  V30 6743 H 701.511 0.725059 -0.206894 0
M  V30 6744 H 704.162 1.44743 -1.12791 0
M  V30 6745 H 702.544 3.94703 -0.320254 0
M  V30 6746 H 703.718 3.38741 -3.12396 0
M  V30 6747 H 702.033 3.16605 -2.70463 0
M  V30 6748 H 704.63 5.27265 -0.888596 0
M  V30 6749 H 704.973 4.14382 0.399198 0
M  V30 6750 H 705.506 3.7736 -1.25875 0
M  V30 6751 H 702.245 5.32367 -3.82446 0
M  V30 6752 H 701.765 5.6051 -2.13516 0
M  V30 6753 H 703.444 5.9025 -2.64979 0
M  V30 6754 N 703.576 0.692616 1.41565 0
M  V30 6755 C 704.824 0.221896 2.00878 0
M  V30 6756 C 705.145 -1.18164 1.5512 0
M  V30 6757 O 704.415 -1.79679 0.78054 0
M  V30 6758 H 702.995 0.0790463 0.742806 0
M  V30 6759 H 705.657 0.893115 1.73232 0
M  V30 6760 H 704.753 0.23702 3.11199 0
M  V30 6761 N 705.054 -1.51416 0.437162 0
M  V30 6762 C 706.282 -2.06503 -0.128045 0
M  V30 6763 C 706.697 -1.30461 -1.36475 0
M  V30 6764 O 706.054 -0.364127 -1.78831 0
M  V30 6765 C 706.105 -3.58683 -0.450437 0
M  V30 6766 O 705.826 -4.31853 0.737186 0
M  V30 6767 C 707.327 -4.30284 -1.06633 0
M  V30 6768 H 704.547 -0.670952 -0.00800269 0
M  V30 6769 H 707.091 -1.94996 0.616193 0
M  V30 6770 H 705.246 -3.70106 -1.14457 0
M  V30 6771 H 705.66 -5.22467 0.461347 0
M  V30 6772 H 707.134 -5.37848 -1.24191 0
M  V30 6773 H 707.611 -3.88564 -2.0473 0
M  V30 6774 H 708.217 -4.23304 -0.411585 0
M  V30 6775 N 706.532 -0.168513 -1.56696 0
M  V30 6776 C 707.809 0.523367 -1.88468 0
M  V30 6777 C 708.189 1.81503 -1.07796 0
M  V30 6778 O 707.537 2.27859 -0.171045 0
M  V30 6779 C 707.747 0.767991 -3.40445 0
M  V30 6780 C 709.095 1.09924 -4.10124 0
M  V30 6781 O 710.119 0.856625 -3.45746 0
M  V30 6782 O 708.978 1.55681 -5.23856 0
M  V30 6783 H 706.072 0.269447 -0.781874 0
M  V30 6784 H 708.618 -0.206739 -1.68436 0
M  V30 6785 H 707.39 -0.145254 -3.9103 0
M  V30 6786 H 707.013 1.55151 -3.66079 0
M  V30 6787 N 708.01 1.57248 0.105221 0
M  V30 6788 C 709.25 1.87393 0.816283 0
M  V30 6789 C 709.614 0.758249 1.76393 0
M  V30 6790 O 710.815 0.941835 2.5176 0
M  V30 6791 C 709.086 3.22775 1.53463 0
M  V30 6792 S 710.645 3.74588 2.28537 0
M  V30 6793 H 707.463 0.656847 0.272164 0
M  V30 6794 H 710.065 1.9536 0.073909 0
M  V30 6795 H 708.769 4.01905 0.830674 0
M  V30 6796 H 708.3 3.17921 2.3171 0
M  V30 6797 H 710.315 3.47193 3.54502 0
M  V30 6798 N 709.488 -0.375779 1.53054 0
M  V30 6799 C 710.765 -1.13453 1.59336 0
M  V30 6800 C 711.145 -2.07379 0.394614 0
M  V30 6801 O 710.493 -2.2004 -0.616 0
M  V30 6802 C 710.703 -1.8826 2.93869 0
M  V30 6803 C 712.051 -2.43155 3.48081 0
M  V30 6804 O 713.075 -1.984 2.95831 0
M  V30 6805 O 711.934 -3.24944 4.39401 0
M  V30 6806 H 709.028 -0.519856 0.643179 0
M  V30 6807 H 711.574 -0.379865 1.65394 0
M  V30 6808 H 710.346 -1.19652 3.72558 0
M  V30 6809 H 709.969 -2.70658 2.91256 0
M  V30 6810 N 710.966 -1.44241 -0.634997 0
M  V30 6811 C 712.191 -1.50516 -1.42687 0
M  V30 6812 C 712.616 -0.129864 -1.87651 0
M  V30 6813 O 711.974 0.880164 -1.58502 0
M  V30 6814 C 712.022 -2.4714 -2.62591 0
M  V30 6815 O 711.126 -1.97025 -3.62291 0
M  V30 6816 H 710.467 -0.50841 -0.427101 0
M  V30 6817 H 712.997 -1.89337 -0.775408 0
M  V30 6818 H 713.007 -2.65048 -3.10183 0
M  V30 6819 H 711.682 -3.47039 -2.29209 0
M  V30 6820 H 710.259 -1.88866 -3.21534 0
M  V30 6821 N 712.444 0.87505 -1.31075 0
M  V30 6822 C 713.692 1.62447 -1.20231 0
M  V30 6823 C 714.013 1.93506 0.240888 0
M  V30 6824 O 713.283 1.57847 1.16022 0
M  V30 6825 H 711.863 0.602207 -0.441991 0
M  V30 6826 H 714.525 1.04788 -1.64334 0
M  V30 6827 H 713.621 2.57031 -1.77036 0
M  V30 6828 N 713.922 1.13953 1.08869 0
M  V30 6829 C 714.869 0.82213 2.15661 0
M  V30 6830 C 715.839 -0.218274 1.6466 0
M  V30 6831 O 717.024 -0.0892475 1.90591 0
M  V30 6832 C 714.164 0.300572 3.43789 0
M  V30 6833 C 713.277 1.40071 4.08661 0
M  V30 6834 C 712.412 0.836897 5.24566 0
M  V30 6835 C 711.451 1.91504 5.81371 0
M  V30 6836 N 710.588 1.36875 6.88629 0
M  V30 6837 H 715.428 1.73683 2.42153 0
M  V30 6838 H 712.965 0.866879 1.18843 0
M  V30 6839 H 714.923 -0.0199943 4.17195 0
M  V30 6840 H 713.553 -0.577248 3.17597 0
M  V30 6841 H 712.605 1.83776 3.33062 0
M  V30 6842 H 713.917 2.21534 4.46905 0
M  V30 6843 H 713.071 0.467953 6.04893 0
M  V30 6844 H 711.81 -0.00874207 4.87699 0
M  V30 6845 H 710.815 2.29299 4.99702 0
M  V30 6846 H 712.04 2.76419 6.20298 0
M  V30 6847 H 709.986 0.545211 6.5373 0
M  V30 6848 H 709.903 2.1198 7.25672 0
M  V30 6849 H 711.171 1.02756 7.72698 0
M  V30 6850 N 715.4 -1.26948 0.933913 0
M  V30 6851 C 716.646 -1.94374 0.57848 0
M  V30 6852 C 716.979 -1.73166 -0.879048 0
M  V30 6853 O 716.254 -1.06438 -1.62792 0
M  V30 6854 C 716.537 -3.4834 0.912739 0
M  V30 6855 C 716.39 -3.78866 2.42448 0
M  V30 6856 C 717.709 -4.38062 0.423003 0
M  V30 6857 H 714.828 -0.705959 0.211639 0
M  V30 6858 H 717.47 -1.49951 1.16682 0
M  V30 6859 H 715.62 -3.86309 0.412058 0
M  V30 6860 H 717.292 -3.50654 2.99733 0
M  V30 6861 H 715.535 -3.25198 2.87104 0
M  V30 6862 H 716.206 -4.86458 2.60887 0
M  V30 6863 H 718.682 -4.0728 0.852191 0
M  V30 6864 H 717.558 -5.44599 0.685776 0
M  V30 6865 H 717.819 -4.36886 -0.676994 0
M  V30 6866 N 716.879 -0.700114 -1.41195 0
M  V30 6867 C 718.156 -0.160836 -1.94938 0
M  V30 6868 C 718.536 1.33014 -1.63922 0
M  V30 6869 O 717.884 2.07878 -0.948636 0
M  V30 6870 C 718.094 -0.456991 -3.45995 0
M  V30 6871 C 719.442 -0.387207 -4.22831 0
M  V30 6872 O 720.466 -0.392164 -3.54035 0
M  V30 6873 O 719.325 -0.351267 -5.4537 0
M  V30 6874 H 716.419 -0.0176304 -0.826812 0
M  V30 6875 H 718.965 -0.776586 -1.50888 0
M  V30 6876 H 717.737 -1.48884 -3.61869 0
M  V30 6877 H 717.36 0.189503 -3.97148 0
M  V30 6878 N 718.357 1.51182 -0.445186 0
M  V30 6879 C 719.605 2.01753 0.11841 0
M  V30 6880 C 719.926 1.33087 1.42523 0
M  V30 6881 O 719.196 0.467891 1.9023 0
M  V30 6882 H 717.776 0.745536 0.0467492 0
M  V30 6883 H 720.438 1.85765 -0.589688 0
M  V30 6884 H 719.534 3.10762 0.288665 0
M  V30 6885 N 719.835 0.176821 1.56605 0
M  V30 6886 C 721.083 -0.465793 1.96659 0
M  V30 6887 C 721.404 -1.63406 1.06412 0
M  V30 6888 O 720.674 -1.95457 0.131603 0
M  V30 6889 H 719.254 -0.175072 0.726195 0
M  V30 6890 H 721.916 0.25929 1.93168 0
M  V30 6891 H 721.012 -0.822138 3.01077 0
M  V30 6892 N 721.313 -1.57302 -0.09688 0
M  V30 6893 C 722.59 -1.7701 -0.832272 0
M  V30 6894 C 722.97 -0.758025 -1.97021 0
M  V30 6895 O 722.318 0.213824 -2.27497 0
M  V30 6896 C 722.528 -3.22725 -1.32851 0
M  V30 6897 C 723.876 -3.85856 -1.772 0
M  V30 6898 O 724.9 -3.26464 -1.42478 0
M  V30 6899 O 723.759 -4.90295 -2.41398 0
M  V30 6900 H 720.853 -0.725558 -0.396856 0
M  V30 6901 H 723.399 -1.69516 -0.0789005 0
M  V30 6902 H 722.171 -3.87921 -0.51312 0
M  V30 6903 H 721.794 -3.34845 -2.14394 0
M  V30 6904 N 722.791 0.367657 -1.53252 0
M  V30 6905 C 724.016 1.13566 -1.73544 0
M  V30 6906 C 724.441 1.82329 -0.462344 0
M  V30 6907 O 723.799 1.71655 0.583472 0
M  V30 6908 C 723.847 2.14322 -2.89997 0
M  V30 6909 O 722.951 3.21359 -2.58461 0
M  V30 6910 H 722.292 0.329614 -0.576412 0
M  V30 6911 H 724.822 0.425417 -2.00128 0
M  V30 6912 H 724.832 2.57958 -3.16104 0
M  V30 6913 H 723.507 1.63664 -3.82344 0
M  V30 6914 H 722.084 2.8271 -2.43165 0
M  V30 6915 N 724.269 1.44576 0.627338 0
M  V30 6916 C 725.517 1.47267 1.38408 0
M  V30 6917 C 725.838 0.107971 1.94701 0
M  V30 6918 O 725.108 -0.860206 1.76004 0
M  V30 6919 H 723.688 0.542276 0.513756 0
M  V30 6920 H 726.35 1.80383 0.738099 0
M  V30 6921 H 725.446 2.20025 2.21349 0
M  V30 6922 N 725.747 -0.868086 1.31537 0
M  V30 6923 C 726.972 -1.65926 1.24432 0
M  V30 6924 C 727.397 -1.87169 -0.186936 0
M  V30 6925 O 726.755 -1.4148 -1.13371 0
M  V30 6926 C 726.803 -3.00347 1.9956 0
M  V30 6927 O 725.907 -3.90221 1.33422 0
M  V30 6928 H 725.248 -0.506375 0.429512 0
M  V30 6929 H 727.778 -1.0822 1.73637 0
M  V30 6930 H 727.788 -3.50269 2.09226 0
M  V30 6931 H 726.463 -2.84205 3.03645 0
M  V30 6932 H 725.04 -3.48672 1.32219 0
M  V30 6933 N 727.225 -1.14528 -1.08264 0
M  V30 6934 C 728.473 -0.912599 -1.80322 0
M  V30 6935 C 728.794 0.562256 -1.86718 0
M  V30 6936 O 728.064 1.40869 -1.36135 0
M  V30 6937 H 726.644 -0.334645 -0.667849 0
M  V30 6938 H 729.306 -1.44415 -1.30883 0
M  V30 6939 H 728.402 -1.31384 -2.83098 0
M  V30 6940 N 728.703 1.26451 -0.940633 0
M  V30 6941 C 729.613 2.30128 -0.455881 0
M  V30 6942 C 730.629 1.67536 0.469867 0
M  V30 6943 O 731.805 1.98344 0.349529 0
M  V30 6944 C 728.87 3.45634 0.271648 0
M  V30 6945 C 727.931 4.23709 -0.690594 0
M  V30 6946 C 727.164 5.337 0.00231047 0
M  V30 6947 O 727.387 5.57215 1.21935 0
M  V30 6948 O 726.321 5.98091 -0.676111 0
M  V30 6949 H 730.147 2.73655 -1.31707 0
M  V30 6950 H 727.732 1.3164 -0.706497 0
M  V30 6951 H 729.614 4.15853 0.681486 0
M  V30 6952 H 728.289 3.04138 1.10824 0
M  V30 6953 H 727.196 3.55974 -1.15037 0
M  V30 6954 H 728.529 4.68953 -1.49478 0
M  V30 6955 N 730.181 0.707592 1.40822 0
M  V30 6956 C 731.592 0.317011 1.83989 0
M  V30 6957 C 731.943 -1.14697 1.59182 0
M  V30 6958 O 731.068 -1.8818 1.06852 0
M  V30 6959 C 731.663 0.568593 3.33995 0
M  V30 6960 C 730.222 0.231804 3.75686 0
M  V30 6961 C 729.369 0.844933 2.64114 0
M  V30 6962 H 732.32 0.907349 1.30203 0
M  V30 6963 H 732.341 -0.168798 3.80125 0
M  V30 6964 H 731.853 1.63417 3.52018 0
M  V30 6965 H 729.954 -0.82903 3.6326 0
M  V30 6966 H 730.067 0.695219 4.74029 0
M  V30 6967 H 728.431 0.273588 2.53226 0
M  V30 6968 H 729.214 1.91462 2.84951 0
M  V30 6969 N 731.66 -1.50943 0.453197 0
M  V30 6970 C 733.071 -1.86699 -0.00619892 0
M  V30 6971 C 733.422 -1.3693 -1.40515 0
M  V30 6972 O 732.547 -0.726715 -2.03833 0
M  V30 6973 C 733.142 -3.38795 -0.018025 0
M  V30 6974 C 731.701 -3.74028 -0.421885 0
M  V30 6975 C 730.848 -2.74752 0.375087 0
M  V30 6976 H 733.799 -1.43942 0.668317 0
M  V30 6977 H 733.82 -3.71468 -0.824125 0
M  V30 6978 H 733.332 -3.74988 1.00028 0
M  V30 6979 H 731.433 -3.43431 -1.44521 0
M  V30 6980 H 731.546 -4.78908 -0.135664 0
M  V30 6981 H 729.91 -2.5414 -0.168794 0
M  V30 6982 H 730.693 -3.13787 1.39256 0
M  V30 6983 N 733.138 -0.185124 -1.56509 0
M  V30 6984 C 734.549 0.329221 -1.83774 0
M  V30 6985 C 734.9 1.62093 -1.10545 0
M  V30 6986 O 734.025 2.13334 -0.36298 0
M  V30 6987 C 734.62 0.604099 -3.33371 0
M  V30 6988 C 733.179 1.06284 -3.61083 0
M  V30 6989 C 732.326 0.10608 -2.77097 0
M  V30 6990 H 735.277 -0.409116 -1.53336 0
M  V30 6991 H 735.298 1.45458 -3.51599 0
M  V30 6992 H 734.81 -0.336201 -3.86641 0
M  V30 6993 H 732.911 2.01777 -3.13236 0
M  V30 6994 H 733.024 0.962453 -4.69333 0
M  V30 6995 H 731.388 0.606082 -2.47384 0
M  V30 6996 H 732.171 -0.828486 -3.33153 0
M  V30 6997 N 734.616 1.57351 0.0885366 0
M  V30 6998 C 735.841 1.91011 0.80805 0
M  V30 6999 C 736.266 0.780009 1.71165 0
M  V30 7000 O 735.624 -0.268083 1.79307 0
M  V30 7001 C 735.672 3.23562 1.59185 0
M  V30 7002 O 734.776 3.11615 2.7013 0
M  V30 7003 H 734.117 0.625943 0.221565 0
M  V30 7004 H 736.647 2.04507 0.0617954 0
M  V30 7005 H 736.657 3.5703 1.97468 0
M  V30 7006 H 735.332 4.05398 0.928741 0
M  V30 7007 H 733.909 2.89673 2.34827 0
M  V30 7008 N 736.094 -0.359525 1.53444 0
M  V30 7009 C 737.505 -0.936009 1.61542 0
M  V30 7010 C 737.856 -1.90069 0.486633 0
M  V30 7011 O 736.981 -2.12929 -0.386047 0
M  V30 7012 C 737.576 -1.70441 2.92806 0
M  V30 7013 C 736.135 -2.23015 3.03218 0
M  V30 7014 C 735.282 -1.04438 2.56881 0
M  V30 7015 H 738.233 -0.138134 1.58098 0
M  V30 7016 H 738.254 -2.56609 2.80948 0
M  V30 7017 H 737.766 -1.00205 3.74941 0
M  V30 7018 H 735.867 -2.96475 2.25684 0
M  V30 7019 H 735.98 -2.50481 4.08407 0
M  V30 7020 H 734.344 -1.41314 2.11902 0
M  V30 7021 H 735.127 -0.356905 3.4144 0
M  V30 7022 N 737.572 -1.44907 -0.619662 0
M  V30 7023 C 738.8 -1.51795 -1.40591 0
M  V30 7024 C 739.215 -0.146553 -1.8823 0
M  V30 7025 O 738.572 0.849698 -1.61513 0
M  V30 7026 C 738.623 -2.49229 -2.61853 0
M  V30 7027 O 738.344 -3.81039 -2.16197 0
M  V30 7028 C 739.845 -2.65696 -3.54853 0
M  V30 7029 H 737.065 -0.514463 -0.430777 0
M  V30 7030 H 739.609 -1.8998 -0.756813 0
M  V30 7031 H 737.764 -2.14149 -3.2283 0
M  V30 7032 H 738.178 -4.33747 -2.94896 0
M  V30 7033 H 739.652 -3.37874 -4.36515 0
M  V30 7034 H 740.129 -1.71316 -4.0441 0
M  V30 7035 H 740.735 -3.01724 -2.99737 0
M  V30 7036 N 739.05 0.861098 -1.31996 0
M  V30 7037 C 740.461 1.43065 -1.19955 0
M  V30 7038 C 740.812 1.95273 0.190489 0
M  V30 7039 O 739.937 1.87012 1.08882 0
M  V30 7040 C 740.532 2.60052 -2.1716 0
M  V30 7041 C 739.091 3.13026 -2.09026 0
M  V30 7042 C 738.238 1.85756 -2.05888 0
M  V30 7043 H 741.189 0.668834 -1.43918 0
M  V30 7044 H 741.21 3.37016 -1.76637 0
M  V30 7045 H 740.722 2.22024 -3.18319 0
M  V30 7046 H 738.823 3.55653 -1.11092 0
M  V30 7047 H 738.936 3.74707 -2.98549 0
M  V30 7048 H 737.3 2.05088 -1.51033 0
M  V30 7049 H 738.083 1.49954 -3.08818 0
M  V30 7050 N 740.528 1.15101 1.07655 0
M  V30 7051 C 741.776 0.922149 1.79836 0
M  V30 7052 C 742.097 -0.552346 1.87014 0
M  V30 7053 O 741.367 -1.40145 1.3688 0
M  V30 7054 H 739.947 0.338182 0.666064 0
M  V30 7055 H 742.609 1.45107 1.30115 0
M  V30 7056 H 741.705 1.32883 2.82398 0
M  V30 7057 N 742.006 -1.2595 0.947325 0
M  V30 7058 C 743.231 -1.98083 0.614633 0
M  V30 7059 C 743.656 -1.70013 -0.804815 0
M  V30 7060 O 743.014 -0.95175 -1.54309 0
M  V30 7061 C 743.062 -3.4993 0.870706 0
M  V30 7062 O 742.166 -4.12364 -0.0541451 0
M  V30 7063 H 741.507 -0.621232 0.234451 0
M  V30 7064 H 744.037 -1.60259 1.27193 0
M  V30 7065 H 744.047 -4.00198 0.794051 0
M  V30 7066 H 742.722 -3.69691 1.90529 0
M  V30 7067 H 741.299 -3.72826 0.0740917 0
M  V30 7068 N 743.484 -0.715051 -1.40445 0
M  V30 7069 C 744.712 -0.263959 -2.05209 0
M  V30 7070 C 745.127 1.09403 -1.53871 0
M  V30 7071 O 744.484 1.68746 -0.695064 0
M  V30 7072 C 744.535 -0.234545 -3.60738 0
M  V30 7073 O 744.256 -1.53891 -4.10182 0
M  V30 7074 C 745.757 0.235164 -4.42676 0
M  V30 7075 H 742.977 -0.11876 -0.660407 0
M  V30 7076 H 745.521 -0.973107 -1.79864 0
M  V30 7077 H 743.676 0.425563 -3.85055 0
M  V30 7078 H 744.09 -1.43903 -5.04373 0
M  V30 7079 H 745.564 0.204598 -5.51621 0
M  V30 7080 H 746.041 1.27724 -4.20218 0
M  V30 7081 H 746.647 -0.394649 -4.23465 0
M  V30 7082 N 744.962 1.50701 -0.461195 0
M  V30 7083 C 745.892 2.31182 0.328184 0
M  V30 7084 C 746.873 1.37644 0.999408 0
M  V30 7085 O 748.058 1.66565 0.99848 0
M  V30 7086 C 745.188 3.17113 1.41621 0
M  V30 7087 C 744.142 4.19124 0.867148 0
M  V30 7088 C 743.468 4.93728 2.05272 0
M  V30 7089 C 744.768 5.22174 -0.114808 0
M  V30 7090 H 746.462 2.97423 -0.343501 0
M  V30 7091 H 744.008 1.43033 -0.166641 0
M  V30 7092 H 745.961 3.72208 1.97584 0
M  V30 7093 H 744.685 2.48739 2.11652 0
M  V30 7094 H 743.344 3.65116 0.329557 0
M  V30 7095 H 742.992 4.21835 2.73978 0
M  V30 7096 H 742.692 5.62724 1.69161 0
M  V30 7097 H 744.216 5.51654 2.61744 0
M  V30 7098 H 745.63 5.72198 0.355316 0
M  V30 7099 H 744.027 5.98833 -0.389689 0
M  V30 7100 H 745.097 4.7353 -1.04391 0
M  V30 7101 N 746.441 0.193421 1.56409 0
M  V30 7102 C 747.669 -0.451438 2.01915 0
M  V30 7103 C 748.084 -1.55306 1.07357 0
M  V30 7104 O 747.441 -1.82333 0.0781512 0
M  V30 7105 C 747.492 -1.00931 3.47124 0
M  V30 7106 O 747.213 0.0483623 4.38073 0
M  V30 7107 C 748.714 -1.73021 4.0814 0
M  V30 7108 H 745.934 -0.113495 0.661332 0
M  V30 7109 H 748.478 0.301636 2.02263 0
M  V30 7110 H 746.633 -1.71277 3.47481 0
M  V30 7111 H 747.047 -0.366644 5.23217 0
M  V30 7112 H 748.521 -2.07289 5.11601 0
M  V30 7113 H 748.998 -2.6333 3.51502 0
M  V30 7114 H 749.604 -1.07264 4.11551 0
M  V30 7115 N 747.919 -1.57396 -0.0801906 0
M  V30 7116 C 749.33 -1.75642 -0.633002 0
M  V30 7117 C 749.681 -0.817708 -1.78348 0
M  V30 7118 O 748.806 0.000233743 -2.164 0
M  V30 7119 C 749.401 -3.18502 -1.15507 0
M  V30 7120 C 747.96 -3.38121 -1.65381 0
M  V30 7121 C 747.107 -2.71386 -0.569661 0
M  V30 7122 H 750.058 -1.58027 0.145949 0
M  V30 7123 H 750.079 -3.22198 -2.02408 0
M  V30 7124 H 749.591 -3.86799 -0.317515 0
M  V30 7125 H 747.692 -2.74926 -2.51488 0
M  V30 7126 H 747.805 -4.46521 -1.73654 0
M  V30 7127 H 746.169 -2.33702 -1.0127 0
M  V30 7128 H 746.952 -3.42332 0.257561 0
M  V30 7129 N 749.397 0.351382 -1.53633 0
M  V30 7130 C 750.808 0.927429 -1.62036 0
M  V30 7131 C 751.159 1.89809 -0.496706 0
M  V30 7132 O 750.284 2.1313 0.374749 0
M  V30 7133 C 750.879 1.68886 -2.93706 0
M  V30 7134 C 749.438 2.21404 -3.04397 0
M  V30 7135 C 748.585 1.03075 -2.57431 0
M  V30 7136 H 751.536 0.129748 -1.58169 0
M  V30 7137 H 751.557 2.55116 -2.82305 0
M  V30 7138 H 751.069 0.982149 -3.75467 0
M  V30 7139 H 749.17 2.95274 -2.27253 0
M  V30 7140 H 749.283 2.48312 -4.09729 0
M  V30 7141 H 747.647 1.40188 -2.12649 0
M  V30 7142 H 748.43 0.338793 -3.41624 0
M  V30 7143 N 750.875 1.45233 0.611969 0
M  V30 7144 C 751.838 1.53189 1.70487 0
M  V30 7145 C 752.838 0.411839 1.55437 0
M  V30 7146 O 754.028 0.675164 1.60584 0
M  V30 7147 C 751.16 1.42422 3.09723 0
M  V30 7148 H 752.353 2.5056 1.64802 0
M  V30 7149 H 749.906 1.32609 0.827318 0
M  V30 7150 H 750.641 0.462185 3.2099 0
M  V30 7151 H 750.426 2.23658 3.22055 0
M  V30 7152 H 751.916 1.51012 3.89339 0
M  V30 7153 N 752.353 -0.854086 1.3245 0
M  V30 7154 C 753.599 -1.61069 1.23225 0
M  V30 7155 C 753.932 -1.93111 -0.205349 0
M  V30 7156 O 753.207 -1.57397 -1.14265 0
M  V30 7157 C 753.49 -2.93065 2.09249 0
M  V30 7158 C 753.343 -2.67801 3.6139 0
M  V30 7159 C 754.662 -3.94341 1.95406 0
M  V30 7160 H 751.781 -0.584449 0.448986 0
M  V30 7161 H 754.423 -0.986189 1.62402 0
M  V30 7162 H 752.573 -3.46364 1.75967 0
M  V30 7163 H 754.245 -2.21052 4.04887 0
M  V30 7164 H 752.488 -2.01756 3.84027 0
M  V30 7165 H 753.159 -3.6179 4.16907 0
M  V30 7166 H 755.635 -3.50301 2.24562 0
M  V30 7167 H 754.511 -4.84555 2.57872 0
M  V30 7168 H 754.772 -4.32382 0.921865 0
M  V30 7169 N 753.831 -1.1567 -1.07043 0
M  V30 7170 C 755.079 -0.931673 -1.79344 0
M  V30 7171 C 755.4 0.542421 -1.87304 0
M  V30 7172 O 754.67 1.39418 -1.37621 0
M  V30 7173 H 753.25 -0.34171 -0.664262 0
M  V30 7174 H 755.912 -1.45795 -1.29344 0
M  V30 7175 H 755.008 -1.34379 -2.81689 0
M  V30 7176 N 755.309 1.25446 -0.953992 0
M  V30 7177 C 756.239 2.28264 -0.491717 0
M  V30 7178 C 757.22 1.63717 0.461617 0
M  V30 7179 O 758.405 1.90821 0.36071 0
M  V30 7180 C 755.535 3.46525 0.231915 0
M  V30 7181 C 754.489 4.23247 -0.636098 0
M  V30 7182 C 753.815 5.34254 0.218238 0
M  V30 7183 C 755.115 4.85971 -1.91389 0
M  V30 7184 H 756.809 2.67183 -1.35106 0
M  V30 7185 H 754.355 1.2844 -0.651095 0
M  V30 7186 H 756.308 4.17576 0.566439 0
M  V30 7187 H 755.032 3.06594 1.12551 0
M  V30 7188 H 753.691 3.53978 -0.953696 0
M  V30 7189 H 753.339 4.90564 1.11156 0
M  V30 7190 H 753.039 5.86501 -0.359232 0
M  V30 7191 H 754.563 6.08138 0.547743 0
M  V30 7192 H 755.977 5.49168 -1.64581 0
M  V30 7193 H 754.374 5.48391 -2.43696 0
M  V30 7194 H 755.444 4.08192 -2.61738 0
M  V30 7195 N 756.787 0.722489 1.40064 0
M  V30 7196 C 758.033 0.265371 2.01056 0
M  V30 7197 C 758.366 -1.14062 1.57174 0
M  V30 7198 O 757.641 -1.77514 0.794916 0
M  V30 7199 C 757.924 0.353157 3.58364 0
M  V30 7200 C 757.777 1.79802 4.123 0
M  V30 7201 C 759.096 -0.271677 4.39261 0
M  V30 7202 H 756.215 0.0979002 0.730469 0
M  V30 7203 H 758.857 0.916289 1.66446 0
M  V30 7204 H 757.007 -0.201037 3.87979 0
M  V30 7205 H 758.679 2.40813 3.93455 0
M  V30 7206 H 756.922 2.32348 3.66329 0
M  V30 7207 H 757.593 1.81079 5.21454 0
M  V30 7208 H 760.069 0.200607 4.15616 0
M  V30 7209 H 758.945 -0.179843 5.48605 0
M  V30 7210 H 759.206 -1.35611 4.20787 0
M  V30 7211 N 758.265 -1.50454 0.469181 0
M  V30 7212 C 759.215 -2.25381 -0.344582 0
M  V30 7213 C 760.199 -1.28892 -0.963098 0
M  V30 7214 O 761.391 -1.53805 -0.875964 0
M  V30 7215 C 758.52 -3.12232 -1.4271 0
M  V30 7216 C 757.606 -4.16168 -0.816411 0
M  V30 7217 N 757.997 -5.05762 0.0621424 0
M  V30 7218 C 756.295 -4.32712 -1.08056 0
M  V30 7219 C 756.996 -5.80264 0.408519 0
M  V30 7220 N 755.972 -5.43171 -0.215827 0
M  V30 7221 H 759.774 -2.92016 0.332237 0
M  V30 7222 H 757.288 -1.59911 0.283209 0
M  V30 7223 H 759.285 -3.64514 -2.02324 0
M  V30 7224 H 757.945 -2.47145 -2.10593 0
M  V30 7225 H 758.956 -5.16105 0.430841 0
M  V30 7226 H 755.633 -3.78844 -1.75452 0
M  V30 7227 H 757.023 -6.62408 1.12539 0
M  V30 7228 N 759.743 -0.201713 -1.56304 0
M  V30 7229 C 760.968 0.443815 -2.02596 0
M  V30 7230 C 761.393 1.53945 -1.08086 0
M  V30 7231 O 760.751 1.81182 -0.0655056 0
M  V30 7232 C 760.799 0.971066 -3.47279 0
M  V30 7233 O 759.903 2.0836 -3.55893 0
M  V30 7234 H 759.244 0.10294 -0.655972 0
M  V30 7235 H 761.774 -0.314533 -2.02168 0
M  V30 7236 H 761.784 1.28598 -3.87204 0
M  V30 7237 H 760.459 0.169048 -4.15556 0
M  V30 7238 H 759.036 1.77683 -3.27846 0
M  V30 7239 N 761.222 1.57436 0.0718424 0
M  V30 7240 C 762.47 1.86878 0.769484 0
M  V30 7241 C 762.791 0.7937 1.78116 0
M  V30 7242 O 762.061 -0.177642 1.95093 0
M  V30 7243 H 760.641 0.689593 0.287177 0
M  V30 7244 H 763.303 1.94841 0.0479427 0
M  V30 7245 H 762.399 2.84387 1.28572 0
M  V30 7246 N 762.7 -0.34323 1.53817 0
M  V30 7247 C 763.63 -1.42709 1.84814 0
M  V30 7248 C 764.611 -1.5488 0.703297 0
M  V30 7249 O 765.796 -1.69082 0.955237 0
M  V30 7250 C 762.926 -2.79756 2.05801 0
M  V30 7251 C 761.88 -2.82392 3.21619 0
M  V30 7252 C 761.206 -4.22326 3.2794 0
M  V30 7253 C 762.506 -2.479 4.59721 0
M  V30 7254 H 764.2 -1.17018 2.75585 0
M  V30 7255 H 761.746 -0.561485 1.32602 0
M  V30 7256 H 763.699 -3.55627 2.26069 0
M  V30 7257 H 762.423 -3.06883 1.11761 0
M  V30 7258 H 761.082 -2.08974 3.01207 0
M  V30 7259 H 760.73 -4.46564 2.31494 0
M  V30 7260 H 760.43 -4.25001 4.05768 0
M  V30 7261 H 761.954 -5.00039 3.50419 0
M  V30 7262 H 763.368 -3.13484 4.80001 0
M  V30 7263 H 761.765 -2.61857 5.39954 0
M  V30 7264 H 762.835 -1.43087 4.63308 0
M  V30 7265 N 764.178 -1.45556 -0.604258 0
M  V30 7266 C 765.108 -1.57327 -1.72541 0
M  V30 7267 C 766.089 -0.424637 -1.64714 0
M  V30 7268 O 767.274 -0.648196 -1.83063 0
M  V30 7269 C 764.404 -1.54279 -3.11152 0
M  V30 7270 C 763.358 -2.67893 -3.33792 0
M  V30 7271 C 762.684 -2.499 -4.72709 0
M  V30 7272 C 763.984 -4.0988 -3.23722 0
M  V30 7273 H 765.678 -2.51175 -1.62947 0
M  V30 7274 H 763.224 -1.20884 -0.782504 0
M  V30 7275 H 765.177 -1.6111 -3.89386 0
M  V30 7276 H 763.901 -0.569627 -3.21594 0
M  V30 7277 H 762.56 -2.60495 -2.57949 0
M  V30 7278 H 762.208 -1.50715 -4.79889 0
M  V30 7279 H 761.908 -3.26091 -4.88813 0
M  V30 7280 H 763.432 -2.5859 -5.5314 0
M  V30 7281 H 764.846 -4.18503 -3.91826 0
M  V30 7282 H 763.243 -4.86487 -3.51355 0
M  V30 7283 H 764.313 -4.31553 -2.21111 0
M  V30 7284 N 765.656 0.84705 -1.32902 0
M  V30 7285 C 766.905 1.59667 -1.23245 0
M  V30 7286 C 767.218 1.94551 0.202349 0
M  V30 7287 O 768.424 2.68218 0.420847 0
M  V30 7288 C 766.88 2.8795 -2.15901 0
M  V30 7289 C 766.488 2.60461 -3.64505 0
M  V30 7290 C 768.232 3.65968 -2.15098 0
M  V30 7291 C 766.139 3.84791 -4.49099 0
M  V30 7292 H 765.069 0.599167 -0.457728 0
M  V30 7293 H 767.72 0.934662 -1.57912 0
M  V30 7294 H 766.102 3.55648 -1.74157 0
M  V30 7295 H 767.276 2.01026 -4.14639 0
M  V30 7296 H 765.591 1.9576 -3.67515 0
M  V30 7297 H 768.188 4.58241 -2.75534 0
M  V30 7298 H 768.531 4.00275 -1.14392 0
M  V30 7299 H 769.064 3.05184 -2.55162 0
M  V30 7300 H 765.803 3.55621 -5.50649 0
M  V30 7301 H 765.323 4.43594 -4.03713 0
M  V30 7302 H 767.002 4.52454 -4.62487 0
M  V30 7303 N 767.134 1.16236 1.06428 0
M  V30 7304 C 768.382 0.941171 1.78847 0
M  V30 7305 C 768.703 -0.53248 1.87589 0
M  V30 7306 O 767.973 -1.38686 1.38358 0
M  V30 7307 H 766.553 0.345228 0.66244 0
M  V30 7308 H 769.215 1.46479 1.28569 0
M  V30 7309 H 768.311 1.35871 2.80972 0
M  V30 7310 N 768.612 -1.24939 0.960631 0
M  V30 7311 C 769.861 -1.92118 0.614298 0
M  V30 7312 C 770.174 -1.75998 -0.853474 0
M  V30 7313 O 771.38 -2.37804 -1.31003 0
M  V30 7314 C 769.836 -3.44303 1.04801 0
M  V30 7315 C 769.444 -3.69123 2.53875 0
M  V30 7316 C 771.188 -4.17375 0.774497 0
M  V30 7317 C 769.095 -5.14843 2.91016 0
M  V30 7318 H 768.025 -0.719319 0.226045 0
M  V30 7319 H 770.676 -1.41701 1.16589 0
M  V30 7320 H 769.058 -3.93715 0.42479 0
M  V30 7321 H 770.232 -3.30339 3.21267 0
M  V30 7322 H 768.547 -3.09323 2.78762 0
M  V30 7323 H 771.144 -5.24723 1.02808 0
M  V30 7324 H 771.487 -4.15294 -0.289192 0
M  V30 7325 H 772.02 -3.7389 1.35835 0
M  V30 7326 H 768.759 -5.2204 3.96427 0
M  V30 7327 H 768.279 -5.54652 2.28302 0
M  V30 7328 H 769.958 -5.83017 2.80535 0
M  V30 7329 N 770.09 -0.729906 -1.39679 0
M  V30 7330 C 771.315 -0.284345 -2.05442 0
M  V30 7331 C 771.74 1.07056 -1.54663 0
M  V30 7332 O 771.098 1.67732 -0.688157 0
M  V30 7333 C 771.146 -0.290089 -3.59431 0
M  V30 7334 O 770.25 0.723978 -4.05995 0
M  V30 7335 H 769.591 -0.130311 -0.651088 0
M  V30 7336 H 772.121 -0.994403 -1.78809 0
M  V30 7337 H 772.131 -0.132712 -4.07784 0
M  V30 7338 H 770.806 -1.27877 -3.95753 0
M  V30 7339 H 769.383 0.533154 -3.69069 0
M  V30 7340 N 771.568 1.50203 -0.477153 0
M  V30 7341 C 772.817 2.01551 0.0774548 0
M  V30 7342 C 773.13 1.36359 1.40234 0
M  V30 7343 O 774.336 1.78898 2.04225 0
M  V30 7344 C 772.792 3.59406 0.188539 0
M  V30 7345 C 772.4 4.3356 -1.12828 0
M  V30 7346 C 774.144 4.18776 0.694782 0
M  V30 7347 C 772.051 5.83213 -0.98066 0
M  V30 7348 H 770.981 0.75329 0.0327212 0
M  V30 7349 H 773.632 1.72959 -0.612969 0
M  V30 7350 H 772.014 3.84611 0.942881 0
M  V30 7351 H 773.188 4.20074 -1.89405 0
M  V30 7352 H 771.503 3.85827 -1.5661 0
M  V30 7353 H 774.1 5.28338 0.822356 0
M  V30 7354 H 774.443 3.80557 1.68766 0
M  V30 7355 H 774.976 3.978 -0.00234519 0
M  V30 7356 H 771.715 6.25914 -1.94709 0
M  V30 7357 H 771.235 5.99256 -0.255375 0
M  V30 7358 H 772.914 6.4373 -0.649717 0
M  V30 7359 N 773.046 0.209999 1.56195 0
M  V30 7360 C 774.009 -0.691232 2.18528 0
M  V30 7361 C 775.009 -1.13013 1.14388 0
M  V30 7362 O 776.199 -1.04081 1.39688 0
M  V30 7363 C 773.331 -1.94551 2.79934 0
M  V30 7364 H 774.524 -0.147953 2.99535 0
M  V30 7365 H 772.077 -0.0396243 1.5625 0
M  V30 7366 H 772.812 -2.53094 2.02766 0
M  V30 7367 H 772.597 -1.63938 3.56184 0
M  V30 7368 H 774.087 -2.58785 3.2775 0
M  V30 7369 N 774.524 -1.57472 -0.0634922 0
M  V30 7370 C 775.749 -1.92273 -0.77756 0
M  V30 7371 C 776.174 -0.807141 -1.69902 0
M  V30 7372 O 775.532 0.239523 -1.79711 0
M  V30 7373 C 775.58 -3.26054 -1.54017 0
M  V30 7374 O 774.684 -3.15873 -2.65138 0
M  V30 7375 H 774.025 -0.629389 -0.211579 0
M  V30 7376 H 776.555 -2.04579 -0.0292523 0
M  V30 7377 H 776.565 -3.60127 -1.91763 0
M  V30 7378 H 775.24 -4.06824 -0.864128 0
M  V30 7379 H 773.817 -2.93373 -2.30189 0
M  V30 7380 N 776.003 0.335068 -1.53997 0
M  V30 7381 C 776.933 1.41727 -1.85568 0
M  V30 7382 C 777.914 1.54505 -0.7115 0
M  V30 7383 O 779.099 1.68573 -0.964191 0
M  V30 7384 C 776.229 2.7866 -2.07282 0
M  V30 7385 C 775.183 2.80682 -3.23112 0
M  V30 7386 C 774.509 4.20581 -3.30175 0
M  V30 7387 C 775.809 2.45458 -4.61029 0
M  V30 7388 H 777.503 1.15555 -2.76202 0
M  V30 7389 H 775.049 0.554445 -1.32898 0
M  V30 7390 H 777.002 3.54423 -2.27952 0
M  V30 7391 H 775.726 3.06286 -1.13387 0
M  V30 7392 H 774.385 2.07373 -3.02311 0
M  V30 7393 H 774.033 4.4533 -2.33859 0
M  V30 7394 H 773.733 4.22843 -4.08016 0
M  V30 7395 H 775.257 4.98174 -3.53066 0
M  V30 7396 H 776.671 3.10934 -4.81656 0
M  V30 7397 H 775.068 2.5899 -5.41336 0
M  V30 7398 H 776.138 1.40628 -4.6406 0
M  V30 7399 N 777.481 1.45874 0.596531 0
M  V30 7400 C 778.721 1.52015 1.36641 0
M  V30 7401 C 779.085 0.16226 1.91313 0
M  V30 7402 O 780.286 0.0983889 2.6862 0
M  V30 7403 C 778.557 2.57776 2.4756 0
M  V30 7404 S 780.116 2.83223 3.35157 0
M  V30 7405 H 776.934 0.537251 0.465706 0
M  V30 7406 H 779.536 1.83024 0.687205 0
M  V30 7407 H 778.24 3.55091 2.05764 0
M  V30 7408 H 777.771 2.28455 3.20269 0
M  V30 7409 H 779.786 2.17442 4.4602 0
M  V30 7410 N 778.959 -0.83999 1.33349 0
M  V30 7411 C 779.889 -1.965 1.26135 0
M  V30 7412 C 780.87 -1.69505 0.142152 0
M  V30 7413 O 782.055 -1.91346 0.331743 0
M  V30 7414 C 779.185 -3.32632 0.99866 0
M  V30 7415 C 778.139 -3.74021 2.08068 0
M  V30 7416 C 777.465 -5.07947 1.67014 0
M  V30 7417 C 778.765 -3.87925 3.49731 0
M  V30 7418 H 780.459 -2.02793 2.20262 0
M  V30 7419 H 778.005 -0.974297 1.06035 0
M  V30 7420 H 779.958 -4.10903 0.934696 0
M  V30 7421 H 778.682 -3.26593 0.0217759 0
M  V30 7422 H 777.341 -2.98012 2.13505 0
M  V30 7423 H 776.989 -4.98378 0.680316 0
M  V30 7424 H 776.689 -5.36611 2.39422 0
M  V30 7425 H 778.213 -5.88695 1.62082 0
M  V30 7426 H 779.627 -4.5651 3.46802 0
M  V30 7427 H 778.024 -4.28023 4.20614 0
M  V30 7428 H 779.094 -2.90407 3.88319 0
M  V30 7429 N 780.437 -1.16799 -1.0581 0
M  V30 7430 C 781.683 -0.953935 -1.78963 0
M  V30 7431 C 782.016 0.516638 -1.87202 0
M  V30 7432 O 781.291 1.38338 -1.36721 0
M  V30 7433 C 781.574 -1.58808 -3.23191 0
M  V30 7434 C 781.427 -3.13032 -3.23003 0
M  V30 7435 C 782.746 -1.2868 -4.20867 0
M  V30 7436 H 779.865 -0.347972 -0.64968 0
M  V30 7437 H 782.507 -1.44204 -1.23715 0
M  V30 7438 H 780.657 -1.17303 -3.70368 0
M  V30 7439 H 782.329 -3.63553 -2.83949 0
M  V30 7440 H 780.572 -3.46108 -2.61518 0
M  V30 7441 H 781.243 -3.52527 -4.24769 0
M  V30 7442 H 783.719 -1.6461 -3.82155 0
M  V30 7443 H 782.595 -1.75645 -5.20038 0
M  V30 7444 H 782.856 -0.206491 -4.41618 0
M  V30 7445 N 781.915 1.24427 -0.967243 0
M  V30 7446 C 783.161 1.92772 -0.629812 0
M  V30 7447 C 783.494 1.75436 0.832827 0
M  V30 7448 O 782.769 1.10716 1.59913 0
M  V30 7449 C 783.052 3.45798 -1.00477 0
M  V30 7450 C 782.905 3.72304 -2.52407 0
M  V30 7451 C 784.224 4.36787 -0.538999 0
M  V30 7452 H 781.343 0.700099 -0.230282 0
M  V30 7453 H 783.985 1.46805 -1.20616 0
M  V30 7454 H 782.135 3.8508 -0.514336 0
M  V30 7455 H 783.807 3.42584 -3.08924 0
M  V30 7456 H 782.05 3.17472 -2.95625 0
M  V30 7457 H 782.721 4.7937 -2.73693 0
M  V30 7458 H 785.197 4.04877 -0.959874 0
M  V30 7459 H 784.073 5.4259 -0.829926 0
M  V30 7460 H 784.334 4.38527 0.560923 0
M  V30 7461 N 783.393 0.737304 1.3929 0
M  V30 7462 C 784.356 0.10731 2.28949 0
M  V30 7463 C 785.356 -0.664716 1.46418 0
M  V30 7464 O 786.546 -0.493392 1.67067 0
M  V30 7465 C 783.678 -0.857145 3.29948 0
M  V30 7466 H 784.871 0.89725 2.86163 0
M  V30 7467 H 782.424 0.503279 1.47976 0
M  V30 7468 H 783.159 -1.67336 2.77794 0
M  V30 7469 H 782.944 -0.306167 3.90903 0
M  V30 7470 H 784.434 -1.29444 3.97031 0
M  V30 7471 N 784.871 -1.49948 0.485112 0
M  V30 7472 C 785.801 -2.31675 -0.291364 0
M  V30 7473 C 786.782 -1.39216 -0.977383 0
M  V30 7474 O 787.967 -1.68133 -0.971855 0
M  V30 7475 C 785.097 -3.19326 -1.36558 0
M  V30 7476 C 784.051 -4.2045 -0.800359 0
M  V30 7477 C 783.377 -4.96931 -1.97391 0
M  V30 7478 C 784.677 -5.21925 0.197867 0
M  V30 7479 H 786.371 -2.96839 0.390775 0
M  V30 7480 H 783.917 -1.42749 0.189375 0
M  V30 7481 H 785.87 -3.75304 -1.91638 0
M  V30 7482 H 784.594 -2.52074 -2.07668 0
M  V30 7483 H 783.253 -3.65594 -0.271428 0
M  V30 7484 H 782.901 -4.26141 -2.67232 0
M  V30 7485 H 782.601 -5.65344 -1.60187 0
M  V30 7486 H 784.125 -5.55749 -2.52935 0
M  V30 7487 H 785.539 -5.72691 -0.264239 0
M  V30 7488 H 783.936 -5.98138 0.484908 0
M  V30 7489 H 785.006 -4.71809 1.11912 0
M  V30 7490 N 786.349 -0.21828 -1.56081 0
M  V30 7491 C 787.279 0.687922 -2.23136 0
M  V30 7492 C 788.26 1.20357 -1.202 0
M  V30 7493 O 789.445 1.24817 -1.48776 0
M  V30 7494 C 786.575 1.89762 -2.90874 0
M  V30 7495 C 785.529 1.51595 -4.00254 0
M  V30 7496 C 784.855 2.80415 -4.55271 0
M  V30 7497 C 786.155 0.708404 -5.17474 0
M  V30 7498 H 787.849 0.128854 -2.99123 0
M  V30 7499 H 785.395 0.0605354 -1.43873 0
M  V30 7500 H 787.348 2.53699 -3.36474 0
M  V30 7501 H 786.072 2.4816 -2.1233 0
M  V30 7502 H 784.731 0.900058 -3.55379 0
M  V30 7503 H 784.379 3.36951 -3.73461 0
M  V30 7504 H 784.079 2.55613 -5.2909 0
M  V30 7505 H 785.603 3.453 -5.03587 0
M  V30 7506 H 787.017 1.2514 -5.59476 0
M  V30 7507 H 785.414 0.557593 -5.97504 0
M  V30 7508 H 786.484 -0.285679 -4.84058 0
M  V30 7509 N 787.827 1.57504 0.0551401 0
M  V30 7510 C 788.79 2.03826 1.04821 0
M  V30 7511 C 789.79 0.937968 1.30609 0
M  V30 7512 O 790.98 1.20237 1.2605 0
M  V30 7513 C 788.112 2.43309 2.38775 0
M  V30 7514 H 789.305 2.92802 0.6486 0
M  V30 7515 H 786.858 1.53368 0.301315 0
M  V30 7516 H 787.593 1.5741 2.83536 0
M  V30 7517 H 787.378 3.23615 2.21395 0
M  V30 7518 H 788.868 2.79666 3.10124 0
M  V30 7519 N 789.305 -0.326896 1.54172 0
M  V30 7520 C 790.235 -1.40741 1.86317 0
M  V30 7521 C 791.216 -1.54125 0.719684 0
M  V30 7522 O 792.401 -1.6806 0.973117 0
M  V30 7523 C 789.531 -2.77557 2.08757 0
M  V30 7524 C 788.485 -2.78965 3.24596 0
M  V30 7525 C 787.811 -4.18824 3.32401 0
M  V30 7526 C 789.111 -2.4301 4.62324 0
M  V30 7527 H 790.805 -1.14088 2.76811 0
M  V30 7528 H 788.351 -0.547389 1.3319 0
M  V30 7529 H 790.304 -3.53209 2.29829 0
M  V30 7530 H 789.028 -3.0568 1.15009 0
M  V30 7531 H 787.687 -2.05767 3.03406 0
M  V30 7532 H 787.335 -4.44083 2.36218 0
M  V30 7533 H 787.035 -4.20673 4.10253 0
M  V30 7534 H 788.559 -4.96294 3.55703 0
M  V30 7535 H 789.973 -3.08375 4.83299 0
M  V30 7536 H 788.37 -2.56116 5.42701 0
M  V30 7537 H 789.44 -1.38165 4.64799 0
M  V30 7538 N 790.784 -1.46188 -0.588786 0
M  V30 7539 C 791.714 -1.59148 -1.70863 0
M  V30 7540 C 792.695 -0.442083 -1.64255 0
M  V30 7541 O 793.88 -0.667575 -1.82365 0
M  V30 7542 C 791.01 -1.5757 -3.09498 0
M  V30 7543 C 789.964 -2.71418 -3.30932 0
M  V30 7544 C 789.29 -2.549 -4.70032 0
M  V30 7545 C 790.59 -4.1329 -3.19356 0
M  V30 7546 H 792.284 -2.52889 -1.60274 0
M  V30 7547 H 789.83 -1.21707 -0.769638 0
M  V30 7548 H 791.783 -1.65231 -3.87655 0
M  V30 7549 H 790.507 -0.603705 -3.20972 0
M  V30 7550 H 789.166 -2.63216 -2.55172 0
M  V30 7551 H 788.814 -1.55797 -4.78264 0
M  V30 7552 H 788.514 -3.31257 -4.85327 0
M  V30 7553 H 790.038 -2.64443 -5.50366 0
M  V30 7554 H 791.452 -4.22636 -3.87365 0
M  V30 7555 H 789.849 -4.90187 -3.46175 0
M  V30 7556 H 790.919 -4.33874 -2.16522 0
M  V30 7557 N 792.262 0.832906 -1.33792 0
M  V30 7558 C 793.502 1.60217 -1.26925 0
M  V30 7559 C 793.866 1.91323 0.161146 0
M  V30 7560 O 795.067 2.66461 0.353864 0
M  V30 7561 C 793.338 2.87314 -2.12568 0
M  V30 7562 S 794.897 3.77939 -2.22952 0
M  V30 7563 H 791.715 0.549273 -0.451464 0
M  V30 7564 H 794.317 0.984648 -1.68893 0
M  V30 7565 H 793.021 2.62444 -3.15518 0
M  V30 7566 H 792.552 3.5407 -1.71459 0
M  V30 7567 H 794.567 4.76188 -1.39496 0
M  V30 7568 N 793.74 1.17359 1.05189 0
M  V30 7569 C 794.69 0.858445 2.11222 0
M  V30 7570 C 795.674 -0.166991 1.60031 0
M  V30 7571 O 796.866 0.0354456 1.76965 0
M  V30 7572 C 793.995 0.373549 3.41262 0
M  V30 7573 C 793.081 1.43041 3.99249 0
M  V30 7574 N 793.472 2.64387 4.312 0
M  V30 7575 C 791.77 1.28828 4.26989 0
M  V30 7576 C 792.471 3.32296 4.77446 0
M  V30 7577 N 791.447 2.59674 4.77567 0
M  V30 7578 H 795.249 1.78104 2.33786 0
M  V30 7579 H 792.763 1.0623 1.22837 0
M  V30 7580 H 794.76 0.129331 4.16699 0
M  V30 7581 H 793.42 -0.542847 3.2013 0
M  V30 7582 H 794.431 3.01351 4.21198 0
M  V30 7583 H 791.108 0.43353 4.15243 0
M  V30 7584 H 792.498 4.35939 5.11279 0
M  V30 7585 N 795.218 -1.23913 0.973828 0
M  V30 7586 C 796.148 -2.27453 0.527969 0
M  V30 7587 C 797.129 -1.6443 -0.435513 0
M  V30 7588 O 798.314 -1.9137 -0.330306 0
M  V30 7589 C 795.444 -3.4685 -0.176757 0
M  V30 7590 C 794.398 -4.22181 0.703352 0
M  V30 7591 C 793.724 -5.34534 -0.133215 0
M  V30 7592 C 795.024 -4.82865 1.99096 0
M  V30 7593 H 796.718 -2.65 1.3934 0
M  V30 7594 H 794.264 -1.27388 0.671446 0
M  V30 7595 H 796.217 -4.18424 -0.499934 0
M  V30 7596 H 794.941 -3.08346 -1.07659 0
M  V30 7597 H 793.6 -3.52416 1.00989 0
M  V30 7598 H 793.248 -4.92271 -1.03338 0
M  V30 7599 H 792.948 -5.85855 0.452494 0
M  V30 7600 H 794.472 -6.08933 -0.450924 0
M  V30 7601 H 795.886 -5.46481 1.73297 0
M  V30 7602 H 794.283 -5.44444 2.52389 0
M  V30 7603 H 795.353 -4.03977 2.68199 0
M  V30 7604 N 796.696 -0.74468 -1.38897 0
M  V30 7605 C 798.112 -0.421302 -1.53939 0
M  V30 7606 C 798.312 1.06668 -1.70951 0
M  V30 7607 O 797.368 1.85278 -1.71547 0
M  V30 7608 C 798.681 -1.21278 -2.75159 0
M  V30 7609 C 800.229 -1.20196 -2.89001 0
M  V30 7610 C 800.704 -1.97621 -4.13171 0
M  V30 7611 N 802.195 -1.94836 -4.2023 0
M  V30 7612 C 802.93 -2.51545 -5.15279 0
M  V30 7613 N 802.426 -3.1693 -6.16058 0
M  V30 7614 N 804.219 -2.41524 -5.07565 0
M  V30 7615 H 796.37 -1.70914 -1.26103 0
M  V30 7616 H 798.633 -0.724058 -0.611919 0
M  V30 7617 H 798.339 -2.26609 -2.68963 0
M  V30 7618 H 798.213 -0.823677 -3.68097 0
M  V30 7619 H 800.6 -0.156742 -2.94683 0
M  V30 7620 H 800.681 -1.63051 -1.97099 0
M  V30 7621 H 800.325 -3.02149 -4.0825 0
M  V30 7622 H 800.255 -1.52166 -5.04136 0
M  V30 7623 H 802.746 -1.4721 -3.48048 0
M  V30 7624 H 803.059 -3.57644 -6.85062 0
M  V30 7625 H 801.404 -3.21023 -6.16417 0
M  V30 7626 H 804.595 -1.90077 -4.27771 0
M  V30 7627 H 804.768 -2.86016 -5.81462 0
M  V30 7628 N 798.174 1.49689 -0.493057 0
M  V30 7629 C 799.121 2.28976 0.28959 0
M  V30 7630 C 800.091 1.35011 0.967536 0
M  V30 7631 O 801.276 1.63964 0.975736 0
M  V30 7632 C 798.416 3.1748 1.35279 0
M  V30 7633 C 797.529 4.26496 0.687418 0
M  V30 7634 C 796.664 5.02226 1.73038 0
M  V30 7635 C 795.703 6.03089 1.04645 0
M  V30 7636 N 794.84 6.72014 2.03325 0
M  V30 7637 H 799.68 2.954 -0.392798 0
M  V30 7638 H 797.217 1.45657 -0.205554 0
M  V30 7639 H 799.175 3.67162 1.98111 0
M  V30 7640 H 797.805 2.53057 2.00405 0
M  V30 7641 H 796.857 3.80362 -0.0540001 0
M  V30 7642 H 798.169 4.98578 0.14864 0
M  V30 7643 H 797.323 5.55737 2.43395 0
M  V30 7644 H 796.062 4.29899 2.303 0
M  V30 7645 H 795.067 5.48817 0.328606 0
M  V30 7646 H 796.292 6.77398 0.480428 0
M  V30 7647 H 794.238 6.02464 2.59564 0
M  V30 7648 H 794.155 7.40046 1.54492 0
M  V30 7649 H 795.423 7.30133 2.72995 0
M  V30 7650 N 799.652 0.226554 1.55963 0
M  V30 7651 C 800.599 -0.681504 2.20509 0
M  V30 7652 C 801.569 -1.1866 1.16229 0
M  V30 7653 O 802.754 -1.24478 1.44602 0
M  V30 7654 C 799.894 -1.88183 2.89277 0
M  V30 7655 C 799.007 -1.41517 4.08163 0
M  V30 7656 C 798.142 -2.57346 4.647 0
M  V30 7657 C 797.181 -2.07441 5.75877 0
M  V30 7658 N 796.318 -3.16561 6.26685 0
M  V30 7659 H 801.158 -0.124372 2.9774 0
M  V30 7660 H 798.695 -0.0496333 1.47016 0
M  V30 7661 H 800.653 -2.58666 3.27335 0
M  V30 7662 H 799.283 -2.41177 2.14555 0
M  V30 7663 H 798.335 -0.605099 3.75557 0
M  V30 7664 H 799.647 -1.00928 4.88482 0
M  V30 7665 H 798.801 -3.35903 5.05227 0
M  V30 7666 H 797.54 -3.01227 3.83554 0
M  V30 7667 H 796.545 -1.27347 5.34848 0
M  V30 7668 H 797.77 -1.64554 6.58862 0
M  V30 7669 H 795.716 -3.59914 5.48451 0
M  V30 7670 H 795.633 -2.80239 7.02141 0
M  V30 7671 H 796.901 -3.95238 6.71868 0
M  V30 7672 N 801.13 -1.57531 -0.0467866 0
M  V30 7673 C 802.062 -2.02156 -1.08007 0
M  V30 7674 C 803.075 -0.931434 -1.33522 0
M  V30 7675 O 804.264 -1.209 -1.31321 0
M  V30 7676 C 801.364 -2.36675 -2.42566 0
M  V30 7677 C 800.537 -3.67848 -2.36658 0
M  V30 7678 C 799.596 -3.89754 -3.53523 0
M  V30 7679 O 798.622 -4.61036 -3.33818 0
M  V30 7680 N 799.824 -3.34025 -4.74771 0
M  V30 7681 H 802.589 -2.91414 -0.699845 0
M  V30 7682 H 800.15 -1.60185 -0.235041 0
M  V30 7683 H 802.142 -2.48482 -3.19435 0
M  V30 7684 H 800.712 -1.53178 -2.72498 0
M  V30 7685 H 799.932 -3.66561 -1.45005 0
M  V30 7686 H 801.22 -4.53931 -2.29835 0
M  V30 7687 H 800.618 -2.76214 -4.93683 0
M  V30 7688 H 799.175 -3.51241 -5.49066 0
M  V30 7689 N 802.608 0.318715 -1.54344 0
M  V30 7690 C 803.856 1.054 -1.72439 0
M  V30 7691 C 804.177 1.88388 -0.503495 0
M  V30 7692 O 803.447 1.89866 0.48246 0
M  V30 7693 H 802.027 0.392124 -0.635805 0
M  V30 7694 H 804.689 0.35398 -1.91659 0
M  V30 7695 H 803.785 1.71726 -2.60608 0
M  V30 7696 N 804.086 1.46499 0.581025 0
M  V30 7697 C 805.049 1.5677 1.672 0
M  V30 7698 C 806.049 0.444716 1.54528 0
M  V30 7699 O 807.239 0.709074 1.59116 0
M  V30 7700 C 804.371 1.4896 3.06633 0
M  V30 7701 H 805.564 2.54 1.5945 0
M  V30 7702 H 803.117 1.34334 0.799003 0
M  V30 7703 H 803.852 0.530168 3.19937 0
M  V30 7704 H 803.637 2.30439 3.17239 0
M  V30 7705 H 805.127 1.59237 3.86048 0
M  V30 7706 N 805.565 -0.825799 1.34232 0
M  V30 7707 C 806.528 -1.91808 1.25468 0
M  V30 7708 C 807.528 -1.59893 0.170567 0
M  V30 7709 O 808.718 -1.68986 0.422996 0
M  V30 7710 C 805.85 -3.27786 0.93644 0
M  V30 7711 H 807.043 -2.01003 2.22571 0
M  V30 7712 H 804.596 -1.01944 1.18479 0
M  V30 7713 H 805.331 -3.24285 -0.0315408 0
M  V30 7714 H 805.116 -3.52333 1.72057 0
M  V30 7715 H 806.606 -4.07782 0.900214 0
M  V30 7716 N 807.043 -1.17915 -1.04565 0
M  V30 7717 C 808.459 -0.927761 -1.29864 0
M  V30 7718 C 808.659 0.409536 -1.97294 0
M  V30 7719 O 807.715 1.14505 -2.25044 0
M  V30 7720 C 809.028 -2.08967 -2.16225 0
M  V30 7721 C 810.576 -2.12741 -2.29587 0
M  V30 7722 C 811.051 -3.28335 -3.19312 0
M  V30 7723 N 812.542 -3.28164 -3.26898 0
M  V30 7724 C 813.277 -4.14249 -3.96466 0
M  V30 7725 N 812.773 -5.10457 -4.68407 0
M  V30 7726 N 814.566 -4.02179 -3.92694 0
M  V30 7727 H 806.717 -2.03983 -0.592011 0
M  V30 7728 H 808.98 -0.891023 -0.323701 0
M  V30 7729 H 808.686 -3.05654 -1.73979 0
M  V30 7730 H 808.56 -2.04606 -3.16885 0
M  V30 7731 H 810.947 -1.16636 -2.71072 0
M  V30 7732 H 811.028 -2.21162 -1.28535 0
M  V30 7733 H 810.672 -4.2471 -2.78539 0
M  V30 7734 H 810.602 -3.17151 -4.20384 0
M  V30 7735 H 813.093 -2.58511 -2.75646 0
M  V30 7736 H 813.406 -5.72526 -5.1907 0
M  V30 7737 H 811.751 -5.14422 -4.67328 0
M  V30 7738 H 814.942 -3.26308 -3.3562 0
M  V30 7739 H 815.115 -4.69486 -4.4664 0
M  V30 7740 N 808.521 1.23394 -0.980386 0
M  V30 7741 C 809.484 2.23092 -0.525619 0
M  V30 7742 C 810.484 1.56129 0.384745 0
M  V30 7743 O 811.674 1.73284 0.178439 0
M  V30 7744 C 808.806 3.40074 0.23712 0
M  V30 7745 H 809.999 2.64839 -1.40714 0
M  V30 7746 H 807.552 1.36227 -0.766275 0
M  V30 7747 H 808.287 3.03783 1.13518 0
M  V30 7748 H 808.072 3.89883 -0.416356 0
M  V30 7749 H 809.562 4.14043 0.543892 0
M  V30 7750 N 809.999 0.752036 1.385 0
M  V30 7751 C 810.946 0.123288 2.3047 0
M  V30 7752 C 811.916 -0.711326 1.50098 0
M  V30 7753 O 813.101 -0.667775 1.78733 0
M  V30 7754 C 810.241 -0.765085 3.36512 0
M  V30 7755 C 809.354 0.0839885 4.31918 0
M  V30 7756 C 808.489 -0.807243 5.25031 0
M  V30 7757 C 807.528 0.0455583 6.12083 0
M  V30 7758 N 806.665 -0.802547 6.97498 0
M  V30 7759 H 811.505 0.913169 2.83664 0
M  V30 7760 H 809.042 0.46195 1.39658 0
M  V30 7761 H 811 -1.29476 3.966 0
M  V30 7762 H 809.63 -1.52077 2.84732 0
M  V30 7763 H 808.682 0.731276 3.73305 0
M  V30 7764 H 809.994 0.74265 4.9324 0
M  V30 7765 H 809.148 -1.40414 5.90228 0
M  V30 7766 H 807.887 -1.49964 4.64071 0
M  V30 7767 H 806.892 0.655137 5.45883 0
M  V30 7768 H 808.117 0.734994 6.75111 0
M  V30 7769 H 806.063 -1.47992 6.39089 0
M  V30 7770 H 805.98 -0.200747 7.55733 0
M  V30 7771 H 807.248 -1.38447 7.67107 0
M  V30 7772 N 811.477 -1.49425 0.500989 0
M  V30 7773 C 812.41 -2.25887 -0.324087 0
M  V30 7774 C 813.388 -1.30469 -0.970388 0
M  V30 7775 O 814.572 -1.59758 -1.00049 0
M  V30 7776 C 811.699 -3.05787 -1.45643 0
M  V30 7777 C 810.745 -4.16359 -0.924508 0
M  V30 7778 S 811.578 -5.35181 0.184707 0
M  V30 7779 C 812.734 -6.18636 -0.950806 0
M  V30 7780 H 812.967 -2.95519 0.324891 0
M  V30 7781 H 810.5 -1.51723 0.286289 0
M  V30 7782 H 812.458 -3.52405 -2.10525 0
M  V30 7783 H 811.119 -2.35624 -2.07703 0
M  V30 7784 H 810.312 -4.71781 -1.77311 0
M  V30 7785 H 809.914 -3.72331 -0.352907 0
M  V30 7786 H 812.206 -6.51581 -1.85603 0
M  V30 7787 H 813.149 -7.06761 -0.435212 0
M  V30 7788 H 813.557 -5.512 -1.21813 0
M  V30 7789 N 812.955 -0.234822 -1.55841 0
M  V30 7790 C 813.865 0.680828 -2.24504 0
M  V30 7791 C 814.881 1.20306 -1.25708 0
M  V30 7792 O 816.057 1.24188 -1.58554 0
M  V30 7793 C 813.122 1.86636 -2.92178 0
M  V30 7794 C 812.183 1.3848 -4.06352 0
M  V30 7795 C 811.416 2.51382 -4.70789 0
M  V30 7796 O 811.639 3.69831 -4.34259 0
M  V30 7797 O 810.573 2.21828 -5.59532 0
M  V30 7798 H 814.399 0.12583 -3.03439 0
M  V30 7799 H 811.984 -0.00381817 -1.494 0
M  V30 7800 H 813.866 2.55845 -3.34845 0
M  V30 7801 H 812.541 2.40921 -2.16192 0
M  V30 7802 H 811.448 0.660341 -3.68226 0
M  V30 7803 H 812.781 0.888177 -4.8412 0
M  V30 7804 N 814.433 1.57553 0.0384317 0
M  V30 7805 C 815.663 1.92813 0.742064 0
M  V30 7806 C 816.071 0.832157 1.69917 0
M  V30 7807 O 815.414 -0.200917 1.82598 0
M  V30 7808 C 815.476 3.23806 1.56172 0
M  V30 7809 C 815.14 4.50459 0.770407 0
M  V30 7810 C 816.137 5.19846 0.0748006 0
M  V30 7811 C 813.822 4.97001 0.727714 0
M  V30 7812 C 815.816 6.34047 -0.652902 0
M  V30 7813 C 813.503 6.111 -0.00373992 0
M  V30 7814 C 814.501 6.79477 -0.692816 0
M  V30 7815 O 814.189 7.91395 -1.41241 0
M  V30 7816 H 813.921 0.641174 0.214179 0
M  V30 7817 H 816.475 2.054 0.00285095 0
M  V30 7818 H 814.705 3.0752 2.34453 0
M  V30 7819 H 816.394 3.44463 2.14709 0
M  V30 7820 H 817.16 4.84899 0.098875 0
M  V30 7821 H 813.039 4.43629 1.25355 0
M  V30 7822 H 816.583 6.87353 -1.1913 0
M  V30 7823 H 812.48 6.45493 -0.0297703 0
M  V30 7824 H 813.248 8.07702 -1.32512 0
M  V30 7825 N 815.911 -0.310526 1.54511 0
M  V30 7826 C 816.858 -1.38264 1.84802 0
M  V30 7827 C 817.828 -1.50808 0.696141 0
M  V30 7828 O 819.013 -1.6582 0.943846 0
M  V30 7829 C 816.153 -2.74422 2.09252 0
M  V30 7830 C 815.266 -2.70405 3.36906 0
M  V30 7831 C 814.401 -3.98495 3.51248 0
M  V30 7832 C 813.44 -3.88836 4.72729 0
M  V30 7833 N 812.577 -5.08683 4.83928 0
M  V30 7834 H 817.417 -1.11732 2.76261 0
M  V30 7835 H 814.954 -0.540609 1.36806 0
M  V30 7836 H 816.912 -3.53593 2.21422 0
M  V30 7837 H 815.542 -2.99235 1.2107 0
M  V30 7838 H 814.594 -1.83151 3.33406 0
M  V30 7839 H 815.906 -2.59155 4.26193 0
M  V30 7840 H 815.06 -4.861 3.63031 0
M  V30 7841 H 813.799 -4.12567 2.60077 0
M  V30 7842 H 812.804 -2.99615 4.60989 0
M  V30 7843 H 814.029 -3.76318 5.65298 0
M  V30 7844 H 811.975 -5.23236 3.95677 0
M  V30 7845 H 811.892 -4.99819 5.67201 0
M  V30 7846 H 813.16 -5.97966 5.00057 0
M  V30 7847 N 817.389 -1.46805 -0.573248 0
M  V30 7848 C 818.629 -1.5417 -1.34205 0
M  V30 7849 C 818.993 -0.192675 -1.91031 0
M  V30 7850 O 820.194 -0.141111 -2.68429 0
M  V30 7851 C 818.465 -2.61682 -2.43428 0
M  V30 7852 S 820.024 -2.88519 -3.30609 0
M  V30 7853 H 816.842 -0.544592 -0.4571 0
M  V30 7854 H 819.444 -1.84094 -0.658001 0
M  V30 7855 H 818.148 -3.58319 -2.00088 0
M  V30 7856 H 817.679 -2.33521 -3.16594 0
M  V30 7857 H 819.694 -2.2451 -4.42504 0
M  V30 7858 N 818.867 0.818669 -1.34668 0
M  V30 7859 C 819.83 1.9114 -1.26483 0
M  V30 7860 C 820.83 1.598 -0.179044 0
M  V30 7861 O 822.02 1.6876 -0.431952 0
M  V30 7862 C 819.152 3.27285 -0.95381 0
M  V30 7863 H 820.345 1.9982 -2.23634 0
M  V30 7864 H 817.898 1.01314 -1.19018 0
M  V30 7865 H 818.633 3.24297 0.0143428 0
M  V30 7866 H 818.418 3.51416 -1.73924 0
M  V30 7867 H 819.908 4.07299 -0.921827 0
M  V30 7868 N 820.346 1.18468 1.03938 0
M  V30 7869 C 821.309 0.914944 2.10146 0
M  V30 7870 C 822.309 -0.10022 1.60487 0
M  V30 7871 O 823.499 0.133365 1.73689 0
M  V30 7872 C 820.631 0.372993 3.38853 0
M  V30 7873 H 821.824 1.85677 2.35508 0
M  V30 7874 H 819.377 0.996876 1.20383 0
M  V30 7875 H 820.112 -0.57538 3.19155 0
M  V30 7876 H 819.897 1.1048 3.76213 0
M  V30 7877 H 821.387 0.203014 4.17106 0
M  V30 7878 N 821.824 -1.22873 0.986916 0
M  V30 7879 C 823.235 -1.73264 0.695438 0
M  V30 7880 C 823.586 -1.79679 -0.788023 0
M  V30 7881 O 822.711 -1.43905 -1.61618 0
M  V30 7882 C 823.306 -3.14671 1.2557 0
M  V30 7883 C 821.865 -3.62492 1.01373 0
M  V30 7884 C 821.012 -2.40551 1.37951 0
M  V30 7885 H 823.963 -1.08304 1.15999 0
M  V30 7886 H 823.984 -3.75226 0.631322 0
M  V30 7887 H 823.496 -3.0997 2.33539 0
M  V30 7888 H 821.597 -3.72567 -0.0495917 0
M  V30 7889 H 821.71 -4.48944 1.67289 0
M  V30 7890 H 820.074 -2.41875 0.798033 0
M  V30 7891 H 820.857 -2.38516 2.46911 0
M  V30 7892 N 823.302 -0.75937 -1.38099 0
M  V30 7893 C 824.527 -0.327859 -2.04792 0
M  V30 7894 C 824.952 1.03752 -1.56899 0
M  V30 7895 O 824.31 1.66235 -0.723581 0
M  V30 7896 C 824.358 -0.366264 -3.58735 0
M  V30 7897 O 823.462 0.637697 -4.0744 0
M  V30 7898 H 822.803 -0.144092 -0.648177 0
M  V30 7899 H 825.333 -1.03211 -1.7666 0
M  V30 7900 H 825.343 -0.219179 -4.07411 0
M  V30 7901 H 824.018 -1.36243 -3.92951 0
M  V30 7902 H 822.595 0.454749 -3.70117 0
M  V30 7903 N 824.78 1.49157 -0.508906 0
M  V30 7904 C 825.727 2.2927 0.265288 0
M  V30 7905 C 826.697 1.3603 0.953162 0
M  V30 7906 O 827.882 1.64989 0.958291 0
M  V30 7907 C 825.022 3.18897 1.31904 0
M  V30 7908 C 824.135 4.27201 0.642144 0
M  V30 7909 C 823.27 5.04033 1.67701 0
M  V30 7910 C 822.309 6.04165 0.982422 0
M  V30 7911 N 821.446 6.74133 1.96186 0
M  V30 7912 H 826.286 2.94967 -0.424107 0
M  V30 7913 H 823.823 1.45431 -0.220991 0
M  V30 7914 H 825.781 3.69242 1.94206 0
M  V30 7915 H 824.411 2.55168 1.97709 0
M  V30 7916 H 823.463 3.80283 -0.0943395 0
M  V30 7917 H 824.775 4.98708 0.0957507 0
M  V30 7918 H 823.929 5.58287 2.37487 0
M  V30 7919 H 822.668 4.32317 2.25728 0
M  V30 7920 H 821.673 5.49135 0.270378 0
M  V30 7921 H 822.898 6.7787 0.408554 0
M  V30 7922 H 820.844 6.05183 2.53159 0
M  V30 7923 H 820.761 7.41643 1.46634 0
M  V30 7924 H 822.029 7.32987 2.65236 0
M  V30 7925 N 826.258 0.243083 1.55714 0
M  V30 7926 C 827.168 -0.668913 2.24862 0
M  V30 7927 C 828.184 -1.19638 1.26344 0
M  V30 7928 O 829.36 -1.23345 1.5921 0
M  V30 7929 C 826.425 -1.85084 2.93163 0
M  V30 7930 C 825.486 -1.36323 4.07081 0
M  V30 7931 C 824.719 -2.48882 4.72116 0
M  V30 7932 O 824.942 -3.67523 4.36214 0
M  V30 7933 O 823.876 -2.18857 5.60701 0
M  V30 7934 H 827.702 -0.109737 3.03502 0
M  V30 7935 H 825.287 0.0117411 1.49395 0
M  V30 7936 H 827.169 -2.54065 3.36197 0
M  V30 7937 H 825.844 -2.39771 2.17466 0
M  V30 7938 H 824.751 -0.640804 3.68571 0
M  V30 7939 H 826.084 -0.86249 4.84584 0
M  V30 7940 N 827.736 -1.57571 -0.0300757 0
M  V30 7941 C 828.982 -1.89506 -0.722159 0
M  V30 7942 C 829.315 -0.840699 -1.7506 0
M  V30 7943 O 828.59 0.144358 -1.93964 0
M  V30 7944 C 828.873 -3.32081 -1.39262 0
M  V30 7945 C 828.726 -4.48211 -0.377768 0
M  V30 7946 C 830.045 -3.73557 -2.32687 0
M  V30 7947 H 827.164 -0.689213 -0.261064 0
M  V30 7948 H 829.806 -1.89994 0.0150388 0
M  V30 7949 H 827.956 -3.31796 -2.02098 0
M  V30 7950 H 829.628 -4.6063 0.248591 0
M  V30 7951 H 827.871 -4.3274 0.303045 0
M  V30 7952 H 828.542 -5.44854 -0.885347 0
M  V30 7953 H 831.018 -3.75202 -1.79896 0
M  V30 7954 H 829.894 -4.74125 -2.7658 0
M  V30 7955 H 830.155 -3.05759 -3.19317 0
M  V30 7956 N 829.214 0.302327 -1.54673 0
M  V30 7957 C 830.46 1.03924 -1.74149 0
M  V30 7958 C 830.793 1.86968 -0.525041 0
M  V30 7959 O 830.068 1.88538 0.477868 0
M  V30 7960 C 830.351 1.94633 -3.02969 0
M  V30 7961 C 830.204 1.14778 -4.34909 0
M  V30 7962 C 831.523 2.93826 -3.27649 0
M  V30 7963 H 828.642 0.376405 -0.633631 0
M  V30 7964 H 831.284 0.314007 -1.87387 0
M  V30 7965 H 829.434 2.56471 -2.91813 0
M  V30 7966 H 831.106 0.552363 -4.57981 0
M  V30 7967 H 829.349 0.450462 -4.31455 0
M  V30 7968 H 830.02 1.81495 -5.21309 0
M  V30 7969 H 832.496 2.42117 -3.38406 0
M  V30 7970 H 831.372 3.54462 -4.19104 0
M  V30 7971 H 831.633 3.67416 -2.45882 0
M  V30 7972 N 830.692 1.47107 0.565454 0
M  V30 7973 C 831.622 1.61846 1.68309 0
M  V30 7974 C 832.603 0.468159 1.63531 0
M  V30 7975 O 833.788 0.696504 1.8128 0
M  V30 7976 C 830.918 1.62474 3.06952 0
M  V30 7977 C 829.872 2.76649 3.26572 0
M  V30 7978 C 829.198 2.62345 4.65917 0
M  V30 7979 C 830.498 4.18319 3.12741 0
M  V30 7980 H 832.192 2.55407 1.5623 0
M  V30 7981 H 829.738 1.22916 0.750179 0
M  V30 7982 H 831.691 1.71378 3.84977 0
M  V30 7983 H 830.415 0.654692 3.19971 0
M  V30 7984 H 829.074 2.67242 2.50952 0
M  V30 7985 H 828.722 1.63386 4.75725 0
M  V30 7986 H 828.422 3.38936 4.79996 0
M  V30 7987 H 829.946 2.73165 5.46089 0
M  V30 7988 H 831.36 4.28745 3.80593 0
M  V30 7989 H 829.757 4.95632 3.38333 0
M  V30 7990 H 830.827 4.37263 2.09592 0
M  V30 7991 N 832.17 -0.811516 1.35101 0
M  V30 7992 C 833.102 -1.93102 1.23468 0
M  V30 7993 C 834.115 -1.62021 0.159095 0
M  V30 7994 O 835.304 -1.73682 0.411945 0
M  V30 7995 C 832.404 -3.27345 0.877404 0
M  V30 7996 C 831.577 -3.86368 2.05033 0
M  V30 7997 C 830.636 -4.99009 1.66963 0
M  V30 7998 O 829.662 -5.16698 2.38772 0
M  V30 7999 N 830.864 -5.7749 0.590394 0
M  V30 8000 H 833.629 -2.0361 2.19916 0
M  V30 8001 H 831.19 -0.988687 1.28205 0
M  V30 8002 H 833.182 -4.00163 0.604298 0
M  V30 8003 H 831.752 -3.126 0.00275267 0
M  V30 8004 H 830.972 -3.05804 2.48752 0
M  V30 8005 H 832.26 -4.22533 2.83449 0
M  V30 8006 H 831.658 -5.657 -0.00633259 0
M  V30 8007 H 830.215 -6.50708 0.377055 0
M  V30 8008 N 833.648 -1.19017 -1.03309 0
M  V30 8009 C 834.598 -0.89194 -2.0983 0
M  V30 8010 C 835.582 0.14151 -1.60277 0
M  V30 8011 O 836.774 -0.0635946 -1.76886 0
M  V30 8012 C 833.903 -0.427793 -3.40624 0
M  V30 8013 C 832.989 -1.49374 -3.96923 0
M  V30 8014 N 833.38 -2.71213 -4.26939 0
M  V30 8015 C 831.678 -1.35605 -4.24885 0
M  V30 8016 C 832.379 -3.39849 -4.72099 0
M  V30 8017 N 831.355 -2.67239 -4.73375 0
M  V30 8018 H 835.157 -1.81801 -2.30923 0
M  V30 8019 H 832.671 -1.08171 -1.21131 0
M  V30 8020 H 834.668 -0.195608 -4.16441 0
M  V30 8021 H 833.328 0.491848 -3.20953 0
M  V30 8022 H 834.339 -3.08014 -4.16351 0
M  V30 8023 H 831.016 -0.499537 -4.14501 0
M  V30 8024 H 832.406 -4.44018 -5.04279 0
M  V30 8025 N 835.127 1.22348 -0.993418 0
M  V30 8026 C 836.373 1.91393 -0.67056 0
M  V30 8027 C 836.706 1.77163 0.795428 0
M  V30 8028 O 835.981 1.14084 1.57528 0
M  V30 8029 C 836.264 3.43589 -1.0779 0
M  V30 8030 C 836.117 3.66867 -2.60248 0
M  V30 8031 C 837.436 4.35545 -0.631527 0
M  V30 8032 H 834.555 0.695057 -0.24508 0
M  V30 8033 H 837.197 1.44213 -1.23703 0
M  V30 8034 H 835.347 3.83903 -0.595902 0
M  V30 8035 H 837.019 3.35954 -3.16121 0
M  V30 8036 H 835.262 3.1113 -3.02293 0
M  V30 8037 H 835.933 4.73457 -2.838 0
M  V30 8038 H 838.409 4.0275 -1.04554 0
M  V30 8039 H 837.285 5.40707 -0.944831 0
M  V30 8040 H 837.546 4.39618 0.467779 0
M  V30 8041 N 836.605 0.766683 1.37694 0
M  V30 8042 C 838.021 0.445739 1.53249 0
M  V30 8043 C 838.221 -1.03935 1.72626 0
M  V30 8044 O 837.277 -1.82525 1.74473 0
M  V30 8045 C 838.59 1.2564 2.73194 0
M  V30 8046 C 840.138 1.24779 2.87053 0
M  V30 8047 C 840.613 2.04169 4.09974 0
M  V30 8048 N 842.104 2.01497 4.17077 0
M  V30 8049 C 842.839 2.5971 5.11212 0
M  V30 8050 N 842.335 3.26691 6.10938 0
M  V30 8051 N 844.128 2.49568 5.03659 0
M  V30 8052 H 836.279 1.72899 1.23368 0
M  V30 8053 H 838.542 0.733701 0.600322 0
M  V30 8054 H 838.248 2.30859 2.65324 0
M  V30 8055 H 838.122 0.882133 3.6674 0
M  V30 8056 H 840.509 0.203603 2.94397 0
M  V30 8057 H 840.59 1.66166 1.9448 0
M  V30 8058 H 840.234 3.08606 4.03392 0
M  V30 8059 H 840.164 1.60167 5.01651 0
M  V30 8060 H 842.655 1.52728 3.45662 0
M  V30 8061 H 842.968 3.68497 6.79286 0
M  V30 8062 H 841.313 3.30789 6.11231 0
M  V30 8063 H 844.504 1.96859 4.24693 0
M  V30 8064 H 844.677 2.95231 5.76839 0
M  V30 8065 N 838.083 -1.48885 0.516809 0
M  V30 8066 C 839.311 -2.06892 -0.0184017 0
M  V30 8067 C 839.726 -1.37511 -1.29368 0
M  V30 8068 O 839.083 -0.458409 -1.76649 0
M  V30 8069 C 839.134 -3.60566 -0.259673 0
M  V30 8070 O 838.855 -4.27338 0.965065 0
M  V30 8071 C 840.356 -4.35331 -0.836751 0
M  V30 8072 H 837.576 -0.670433 0.0275743 0
M  V30 8073 H 840.12 -1.91455 0.718689 0
M  V30 8074 H 838.275 -3.75653 -0.94678 0
M  V30 8075 H 838.689 -5.19287 0.737647 0
M  V30 8076 H 840.163 -5.43675 -0.955065 0
M  V30 8077 H 840.64 -3.9887 -1.83845 0
M  V30 8078 H 841.246 -4.2489 -0.186622 0
M  V30 8079 N 839.561 -0.251338 -1.55583 0
M  V30 8080 C 840.471 0.656978 -2.25213 0
M  V30 8081 C 841.487 1.18966 -1.26977 0
M  V30 8082 O 842.663 1.22499 -1.59862 0
M  V30 8083 C 839.728 1.83527 -2.94141 0
M  V30 8084 C 838.789 1.34162 -4.07798 0
M  V30 8085 C 838.022 2.46375 -4.73429 0
M  V30 8086 O 838.245 3.65205 -4.38157 0
M  V30 8087 O 837.179 2.15881 -5.61853 0
M  V30 8088 H 841.005 0.0936395 -3.03556 0
M  V30 8089 H 838.59 -0.0196638 -1.49387 0
M  V30 8090 H 840.472 2.52279 -3.3754 0
M  V30 8091 H 839.147 2.38614 -2.18735 0
M  V30 8092 H 838.054 0.621249 -3.68906 0
M  V30 8093 H 839.387 0.836779 -4.85035 0
M  V30 8094 N 841.039 1.57585 0.0217189 0
M  V30 8095 C 842.455 1.55072 0.377484 0
M  V30 8096 C 842.655 0.978423 1.76151 0
M  V30 8097 O 841.711 0.602688 2.45202 0
M  V30 8098 C 843.024 2.99462 0.272605 0
M  V30 8099 C 844.572 3.11047 0.349148 0
M  V30 8100 C 845.047 4.57182 0.273636 0
M  V30 8101 N 846.538 4.62007 0.332206 0
M  V30 8102 C 847.273 5.72631 0.296782 0
M  V30 8103 N 846.769 6.92472 0.21322 0
M  V30 8104 N 848.562 5.61028 0.347053 0
M  V30 8105 H 840.713 1.93133 -0.883925 0
M  V30 8106 H 842.976 0.886151 -0.33681 0
M  V30 8107 H 842.682 3.45088 -0.67878 0
M  V30 8108 H 842.556 3.61901 1.06335 0
M  V30 8109 H 844.943 2.65364 1.29097 0
M  V30 8110 H 845.024 2.51425 -0.471085 0
M  V30 8111 H 844.668 5.03534 -0.664548 0
M  V30 8112 H 844.598 5.14724 1.11207 0
M  V30 8113 H 847.089 3.75788 0.399003 0
M  V30 8114 H 847.402 7.72563 0.191492 0
M  V30 8115 H 845.747 6.94769 0.179161 0
M  V30 8116 H 848.938 4.66298 0.410378 0
M  V30 8117 H 849.111 6.47229 0.315979 0
M  V30 8118 N 842.517 -0.29412 1.54831 0
M  V30 8119 C 843.745 -1.04724 1.78439 0
M  V30 8120 C 844.16 -1.80695 0.547239 0
M  V30 8121 O 843.517 -1.75989 -0.483141 0
M  V30 8122 C 843.568 -2.02242 2.99634 0
M  V30 8123 O 843.289 -1.29352 4.18568 0
M  V30 8124 C 844.79 -2.89537 3.35683 0
M  V30 8125 H 842.01 -0.310285 0.594949 0
M  V30 8126 H 844.554 -0.331306 2.01798 0
M  V30 8127 H 842.709 -2.69328 2.78462 0
M  V30 8128 H 843.123 -1.94901 4.86943 0
M  V30 8129 H 844.597 -3.538 4.23709 0
M  V30 8130 H 845.074 -3.58201 2.54143 0
M  V30 8131 H 845.68 -2.27973 3.59038 0
M  V30 8132 N 843.995 -1.47404 -0.557645 0
M  V30 8133 C 845.406 -1.47872 -1.13977 0
M  V30 8134 C 845.757 -0.233176 -1.94809 0
M  V30 8135 O 844.882 0.661945 -2.06027 0
M  V30 8136 C 845.477 -2.67926 -2.07368 0
M  V30 8137 C 844.036 -2.71354 -2.60852 0
M  V30 8138 C 843.183 -2.40967 -1.37223 0
M  V30 8139 H 846.134 -1.54921 -0.344268 0
M  V30 8140 H 846.155 -2.44871 -2.91236 0
M  V30 8141 H 845.667 -3.58562 -1.48509 0
M  V30 8142 H 843.768 -1.84855 -3.23511 0
M  V30 8143 H 843.881 -3.72032 -3.01876 0
M  V30 8144 H 842.245 -1.91541 -1.67882 0
M  V30 8145 H 843.028 -3.33811 -0.801583 0
M  V30 8146 N 845.473 0.80434 -1.35529 0
M  V30 8147 C 846.405 1.92445 -1.2449 0
M  V30 8148 C 847.418 1.61934 -0.167685 0
M  V30 8149 O 848.607 1.73461 -0.42115 0
M  V30 8150 C 845.707 3.26875 -0.894751 0
M  V30 8151 C 844.88 3.85275 -2.07079 0
M  V30 8152 C 843.939 4.98116 -1.69607 0
M  V30 8153 O 842.965 5.15424 -2.41509 0
M  V30 8154 N 844.167 5.77169 -0.621012 0
M  V30 8155 H 846.932 2.02441 -2.20993 0
M  V30 8156 H 844.493 0.981874 -1.28728 0
M  V30 8157 H 846.485 3.99837 -0.625511 0
M  V30 8158 H 845.055 3.12594 -0.0193306 0
M  V30 8159 H 844.275 3.0448 -2.5037 0
M  V30 8160 H 845.563 4.21024 -2.85685 0
M  V30 8161 H 844.961 5.65695 -0.0236679 0
M  V30 8162 H 843.518 6.50499 -0.411558 0
M  V30 8163 N 846.951 1.19563 1.02676 0
M  V30 8164 C 848.367 0.948304 1.28372 0
M  V30 8165 C 848.567 -0.378096 1.97921 0
M  V30 8166 O 847.623 -1.1091 2.26838 0
M  V30 8167 C 848.936 2.12381 2.12873 0
M  V30 8168 C 850.484 2.16366 2.26174 0
M  V30 8169 C 850.959 3.33374 3.14048 0
M  V30 8170 N 852.45 3.33323 3.21636 0
M  V30 8171 C 853.185 4.20504 3.89825 0
M  V30 8172 N 852.681 5.17845 4.60227 0
M  V30 8173 N 854.474 4.08375 3.86246 0
M  V30 8174 H 846.625 2.04899 0.559485 0
M  V30 8175 H 848.888 0.89606 0.309484 0
M  V30 8176 H 848.594 3.08383 1.69094 0
M  V30 8177 H 848.468 2.09621 3.1359 0
M  V30 8178 H 850.855 1.20933 2.69182 0
M  V30 8179 H 850.936 2.23179 1.25 0
M  V30 8180 H 850.58 4.29087 2.71747 0
M  V30 8181 H 850.51 3.23798 4.15286 0
M  V30 8182 H 853.001 2.62863 2.71498 0
M  V30 8183 H 853.314 5.80712 5.09896 0
M  V30 8184 H 851.659 5.21791 4.59085 0
M  V30 8185 H 854.85 3.31606 3.30386 0
M  V30 8186 H 855.023 4.76532 4.39114 0
M  V30 8187 N 848.429 -1.21819 0.999893 0
M  V30 8188 C 849.359 -2.26282 0.576096 0
M  V30 8189 C 850.34 -1.65317 -0.400537 0
M  V30 8190 O 851.525 -1.92028 -0.28964 0
M  V30 8191 C 848.655 -3.47147 -0.103145 0
M  V30 8192 C 847.609 -4.20594 0.792745 0
M  V30 8193 C 846.935 -5.34696 -0.0198026 0
M  V30 8194 C 848.235 -4.78533 2.09293 0
M  V30 8195 H 849.929 -2.61984 1.4493 0
M  V30 8196 H 847.475 -1.25935 0.698316 0
M  V30 8197 H 849.428 -4.1939 -0.411068 0
M  V30 8198 H 848.152 -3.1056 -1.01094 0
M  V30 8199 H 846.811 -3.50194 1.08442 0
M  V30 8200 H 846.459 -4.94352 -0.928729 0
M  V30 8201 H 846.159 -5.84764 0.576661 0
M  V30 8202 H 847.683 -6.09752 -0.321659 0
M  V30 8203 H 849.097 -5.42682 1.8485 0
M  V30 8204 H 847.494 -5.38968 2.63881 0
M  V30 8205 H 848.564 -3.98197 2.76708 0
M  V30 8206 O 849.946 -0.910688 -1.33374 0
M  V30 8207 H 850.637 -0.526159 -1.86417 0
M  V30 END ATOM
M  V30 BEGIN BOND
M  V30 END BOND
M  V30 END CTAB
M  END
$$$$
