drugbank_target|P9WKE1 Thymidylate kinase (DB01643; DB02452; DB03280; DB03666; DB03846; DB04485)
 OpenBabel12092119503D

  0  0  0     0  0            999 V3000
M  V30 BEGIN CTAB
M  V30 COUNTS 3181 3211 0 0 0
M  V30 BEGIN ATOM
M  V30 1 H -0.908 1.98254 -0.117106 0
M  V30 2 N 0 1.576 0 0
M  V30 3 C 0.933 2.03868 1.02534 0
M  V30 4 C 1.911 0.928543 1.3348 0
M  V30 5 O 3.095 1.19667 1.45644 0
M  V30 6 C 0.222 2.43627 2.35294 0
M  V30 7 C -0.732 3.65373 2.2001 0
M  V30 8 S 0.101 5.13292 1.52614 0
M  V30 9 C 1.257 5.56322 2.86805 0
M  V30 10 H 1.49 2.90518 0.631377 0
M  V30 11 H -0.977 1.52953 0.210867 0
M  V30 12 H 0.981 2.67203 3.11629 0
M  V30 13 H -0.358 1.57376 2.7183 0
M  V30 14 H -1.165 3.90944 3.18086 0
M  V30 15 H -1.563 3.418 1.51819 0
M  V30 16 H 0.729 5.58782 3.83104 0
M  V30 17 H 1.672 6.56266 2.65933 0
M  V30 18 H 2.08 4.83886 2.90714 0
M  V30 19 N 1.4781 -0.272755 1.55222 0
M  V30 20 C 2.4081 -1.34136 1.91127 0
M  V30 21 C 3.3891 -1.51513 0.773168 0
M  V30 22 O 4.5741 -1.64552 1.03132 0
M  V30 23 C 1.7041 -2.70083 2.1834 0
M  V30 24 C 0.6581 -2.67437 3.34158 0
M  V30 25 C -0.0159 -4.06938 3.46851 0
M  V30 26 C 1.2841 -2.26686 4.70543 0
M  V30 27 H 2.9781 -1.04333 2.80633 0
M  V30 28 H 0.5241 -0.500454 1.35024 0
M  V30 29 H 2.4771 -3.44952 2.42046 0
M  V30 30 H 1.2011 -3.01469 1.25634 0
M  V30 31 H -0.1399 -1.95026 3.1042 0
M  V30 32 H -0.4919 -4.35547 2.51611 0
M  V30 33 H -0.7919 -4.06062 4.2472 0
M  V30 34 H 0.7321 -4.83545 3.72849 0
M  V30 35 H 2.1461 -2.91277 4.93792 0
M  V30 36 H 0.5431 -2.36971 5.5133 0
M  V30 37 H 1.6131 -1.21818 4.69349 0
M  V30 38 N 2.9562 -1.48159 -0.537278 0
M  V30 39 C 4.2052 -1.5506 -1.28993 0
M  V30 40 C 4.5182 -0.226211 -1.94288 0
M  V30 41 O 5.7242 -0.173395 -2.70946 0
M  V30 42 C 4.1802 -2.73429 -2.34018 0
M  V30 43 C 3.7882 -4.1248 -1.74825 0
M  V30 44 C 5.5322 -2.89638 -3.10339 0
M  V30 45 C 3.4392 -5.22121 -2.77747 0
M  V30 46 H 2.3692 -0.577231 -0.485098 0
M  V30 47 H 5.0202 -1.74478 -0.568317 0
M  V30 48 H 3.4022 -2.47431 -3.09182 0
M  V30 49 H 4.5762 -4.48466 -1.05899 0
M  V30 50 H 2.8912 -4.01327 -1.11022 0
M  V30 51 H 5.4882 -3.68718 -3.87235 0
M  V30 52 H 5.8312 -1.9882 -3.65754 0
M  V30 53 H 6.3642 -3.15502 -2.42288 0
M  V30 54 H 3.1032 -6.1488 -2.27161 0
M  V30 55 H 2.6232 -4.90631 -3.45024 0
M  V30 56 H 4.3022 -5.49924 -3.4087 0
M  V30 57 N 4.4343 0.785586 -1.36625 0
M  V30 58 C 5.3973 1.87999 -1.31107 0
M  V30 59 C 6.3973 1.59316 -0.217959 0
M  V30 60 O 7.5873 1.67656 -0.472977 0
M  V30 61 C 4.7193 3.24861 -1.03334 0
M  V30 62 H 5.9123 1.94307 -2.2844 0
M  V30 63 H 3.4653 0.983813 -1.21453 0
M  V30 64 H 4.2003 3.24235 -0.0647432 0
M  V30 65 H 3.9853 3.4707 -1.82441 0
M  V30 66 H 5.4753 4.04929 -1.02088 0
M  V30 67 N 5.9124 1.20967 1.01018 0
M  V30 68 C 7.1614 1.01796 1.74128 0
M  V30 69 C 7.4744 -0.449691 1.90361 0
M  V30 70 O 8.6804 -0.76068 2.60626 0
M  V30 71 C 7.1364 1.7727 3.13215 0
M  V30 72 C 6.7444 3.28171 3.04972 0
M  V30 73 C 8.4884 1.66489 3.90489 0
M  V30 74 C 6.3954 3.96156 4.39107 0
M  V30 75 H 5.3254 0.377276 0.652824 0
M  V30 76 H 7.9764 1.44651 1.12909 0
M  V30 77 H 6.3584 1.27205 3.75013 0
M  V30 78 H 7.5324 3.85499 2.52443 0
M  V30 79 H 5.8474 3.39437 2.41188 0
M  V30 80 H 8.4444 2.14617 4.89738 0
M  V30 81 H 8.7874 0.6222 4.11624 0
M  V30 82 H 9.3204 2.14003 3.35332 0
M  V30 83 H 6.0594 5.00604 4.23174 0
M  V30 84 H 5.5794 3.43617 4.91617 0
M  V30 85 H 7.2584 4.00774 5.07926 0
M  V30 86 N 7.3905 -1.2043 1.01659 0
M  V30 87 C 8.3005 -2.2689 0.596484 0
M  V30 88 C 9.3165 -1.70107 -0.36599 0
M  V30 89 O 10.4925 -2.00117 -0.226942 0
M  V30 90 C 7.5575 -3.4665 -0.0586659 0
M  V30 91 C 6.6185 -4.18662 0.949751 0
M  V30 92 C 5.8515 -5.32705 0.32577 0
M  V30 93 O 6.0745 -5.63656 -0.874509 0
M  V30 94 O 5.0085 -5.92803 1.04249 0
M  V30 95 H 8.8345 -2.65041 1.4828 0
M  V30 96 H 6.4195 -1.27048 0.786082 0
M  V30 97 H 8.3015 -4.19256 -0.424564 0
M  V30 98 H 6.9765 -3.10375 -0.91918 0
M  V30 99 H 5.8835 -3.48229 1.36702 0
M  V30 100 H 7.2165 -4.58878 1.78023 0
M  V30 101 N 8.8686 -0.792821 -1.36206 0
M  V30 102 C 10.1166 -0.366062 -1.98757 0
M  V30 103 C 10.4376 1.0668 -1.63231 0
M  V30 104 O 9.7076 1.73587 -0.907978 0
M  V30 105 H 8.2876 -0.132364 -0.735179 0
M  V30 106 H 10.9496 -1.01562 -1.66347 0
M  V30 107 H 10.0456 -0.460638 -3.08682 0
M  V30 108 N 10.3467 1.47872 -0.545128 0
M  V30 109 C 11.5927 2.02793 -0.0166104 0
M  V30 110 C 11.9257 1.41987 1.32489 0
M  V30 111 O 11.2007 0.571045 1.85928 0
M  V30 112 C 11.4837 3.59989 0.0893294 0
M  V30 113 C 11.3367 4.3125 -1.27841 0
M  V30 114 C 12.6557 4.32606 0.808724 0
M  V30 115 H 9.7747 0.736962 -0.00751035 0
M  V30 116 H 12.4167 1.76433 -0.705085 0
M  V30 117 H 10.5667 3.82579 0.675681 0
M  V30 118 H 12.2387 4.20035 -1.90704 0
M  V30 119 H 10.4817 3.92076 -1.85632 0
M  V30 120 H 11.1527 5.39736 -1.15713 0
M  V30 121 H 13.6287 4.14936 0.310992 0
M  V30 122 H 12.5047 5.42251 0.851782 0
M  V30 123 H 12.7657 4.00963 1.86229 0
M  V30 124 N 11.8248 0.280983 1.55075 0
M  V30 125 C 13.1018 -0.386207 1.91749 0
M  V30 126 C 13.4818 -1.73264 1.20594 0
M  V30 127 O 12.8298 -2.26034 0.334784 0
M  V30 128 C 13.0398 -0.520687 3.45094 0
M  V30 129 C 14.3878 -0.800865 4.16979 0
M  V30 130 O 15.4118 -0.605271 3.5102 0
M  V30 131 O 14.2708 -1.1753 5.33712 0
M  V30 132 H 11.3648 -0.212408 0.799257 0
M  V30 133 H 13.9108 0.327568 1.66509 0
M  V30 134 H 12.6828 0.426633 3.88967 0
M  V30 135 H 12.3058 -1.2837 3.76307 0
M  V30 136 N 13.3029 -1.57598 0.00835791 0
M  V30 137 C 14.5509 -1.90551 -0.6734 0
M  V30 138 C 14.8719 -0.883301 -1.73847 0
M  V30 139 O 14.1419 0.0781442 -1.95744 0
M  V30 140 H 12.7219 -0.703312 -0.251717 0
M  V30 141 H 15.3839 -1.94833 0.0512592 0
M  V30 142 H 14.4799 -2.9056 -1.13935 0
M  V30 143 N 14.781 0.264519 -1.55364 0
M  V30 144 C 15.744 1.31046 -1.88042 0
M  V30 145 C 16.744 1.41943 -0.755569 0
M  V30 146 O 17.934 1.40947 -1.02369 0
M  V30 147 C 15.066 2.69067 -2.09323 0
M  V30 148 H 16.259 1.03297 -2.81549 0
M  V30 149 H 13.812 0.502989 -1.47986 0
M  V30 150 H 14.547 3.01982 -1.18226 0
M  V30 151 H 14.332 2.62542 -2.91229 0
M  V30 152 H 15.822 3.44623 -2.35848 0
M  V30 153 N 16.2591 1.48442 0.529413 0
M  V30 154 C 17.5071 1.56179 1.28267 0
M  V30 155 C 17.8281 0.237721 1.93546 0
M  V30 156 O 17.0981 -0.740779 1.81354 0
M  V30 157 H 15.6781 0.575367 0.476405 0
M  V30 158 H 18.3401 1.84909 0.61602 0
M  V30 159 H 17.4361 2.34312 2.06165 0
M  V30 160 N 17.7372 -0.778329 1.37039 0
M  V30 161 C 18.6842 -1.89139 1.32269 0
M  V30 162 C 19.6542 -1.65017 0.189387 0
M  V30 163 O 20.8392 -1.87024 0.377693 0
M  V30 164 C 17.9792 -3.26112 1.12894 0
M  V30 165 C 17.0922 -3.62233 2.35396 0
M  V30 166 C 16.2272 -4.8838 2.08946 0
M  V30 167 C 15.2662 -5.17212 3.2735 0
M  V30 168 N 14.4032 -6.34546 3.00492 0
M  V30 169 H 19.2432 -1.92552 2.27437 0
M  V30 170 H 16.7802 -0.941473 1.13025 0
M  V30 171 H 18.7382 -4.05116 0.996835 0
M  V30 172 H 17.3682 -3.22091 0.213758 0
M  V30 173 H 16.4202 -2.78265 2.5937 0
M  V30 174 H 17.7322 -3.79481 3.23721 0
M  V30 175 H 16.8862 -5.75274 1.92729 0
M  V30 176 H 15.6252 -4.73222 1.17949 0
M  V30 177 H 14.6302 -4.28796 3.44113 0
M  V30 178 H 15.8552 -5.34283 4.19188 0
M  V30 179 H 13.8012 -6.20759 2.12118 0
M  V30 180 H 13.7182 -6.52179 3.82358 0
M  V30 181 H 14.9862 -7.24394 2.87879 0
M  V30 182 N 19.2153 -1.21501 -1.00376 0
M  V30 183 C 20.6313 -0.972629 -1.26539 0
M  V30 184 C 20.8313 0.340257 -1.98606 0
M  V30 185 O 19.8873 1.06561 -2.28913 0
M  V30 186 C 21.2003 -2.16404 -2.08781 0
M  V30 187 C 22.7483 -2.20643 -2.22004 0
M  V30 188 C 23.2233 -3.39306 -3.07629 0
M  V30 189 N 24.7143 -3.39401 -3.15217 0
M  V30 190 C 25.4493 -4.27867 -3.81729 0
M  V30 191 N 24.9453 -5.26533 -4.5026 0
M  V30 192 N 26.7383 -4.15672 -3.78382 0
M  V30 193 H 18.8893 -2.05929 -0.520281 0
M  V30 194 H 21.1523 -0.901803 -0.292328 0
M  V30 195 H 20.8583 -3.11554 -1.63178 0
M  V30 196 H 20.7323 -2.15567 -3.09533 0
M  V30 197 H 23.1193 -1.26048 -2.66825 0
M  V30 198 H 23.2003 -2.25523 -1.20718 0
M  V30 199 H 22.8443 -4.34195 -2.63509 0
M  V30 200 H 22.7743 -3.31665 -4.09031 0
M  V30 201 H 25.2653 -2.67997 -2.66432 0
M  V30 202 H 25.5783 -5.90337 -4.98721 0
M  V30 203 H 23.9233 -5.30457 -4.49044 0
M  V30 204 H 27.1143 -3.3785 -3.23998 0
M  V30 205 H 27.2873 -4.84825 -4.2994 0
M  V30 206 N 20.6934 1.19889 -1.02296 0
M  V30 207 C 21.9214 1.9339 -0.735399 0
M  V30 208 C 22.3364 1.75148 0.704887 0
M  V30 209 O 21.6934 1.06954 1.47875 0
M  V30 210 C 21.7444 3.45313 -1.06962 0
M  V30 211 O 21.4654 3.62964 -2.45334 0
M  V30 212 C 22.9664 4.35948 -0.804021 0
M  V30 213 H 20.1864 0.61448 -0.269546 0
M  V30 214 H 22.7304 1.522 -1.36585 0
M  V30 215 H 20.8854 3.84359 -0.484455 0
M  V30 216 H 21.2994 4.56886 -2.57595 0
M  V30 217 H 22.7734 5.41174 -1.0879 0
M  V30 218 H 23.2504 4.3842 0.261691 0
M  V30 219 H 23.8564 4.02574 -1.37164 0
M  V30 220 N 22.1715 0.800033 1.35784 0
M  V30 221 C 23.1015 0.220184 2.3246 0
M  V30 222 C 24.0825 -0.65073 1.57161 0
M  V30 223 O 25.2675 -0.582359 1.85263 0
M  V30 224 C 22.3975 -0.637353 3.41402 0
M  V30 225 C 21.3515 0.134531 4.27789 0
M  V30 226 C 20.6775 -0.844285 5.27992 0
M  V30 227 C 21.9775 1.32979 5.05088 0
M  V30 228 H 23.6715 1.02787 2.81203 0
M  V30 229 H 21.2175 0.495717 1.35199 0
M  V30 230 H 23.1705 -1.05302 4.08031 0
M  V30 231 H 21.8945 -1.47785 2.91251 0
M  V30 232 H 20.5535 0.531296 3.6273 0
M  V30 233 H 20.2015 -1.68011 4.74111 0
M  V30 234 H 19.9015 -0.332184 5.8666 0
M  V30 235 H 21.4255 -1.2583 5.97494 0
M  V30 236 H 22.8395 0.98934 5.64699 0
M  V30 237 H 21.2365 1.77593 5.7322 0
M  V30 238 H 22.3065 2.11978 4.36111 0
M  V30 239 N 23.6496 -1.47581 0.552962 0
M  V30 240 C 24.8956 -2.02782 0.0273648 0
M  V30 241 C 25.2286 -1.42687 -1.31734 0
M  V30 242 O 24.5036 -0.580897 -1.85623 0
M  V30 243 C 24.7866 -3.60031 -0.0702371 0
M  V30 244 C 24.6396 -4.30566 1.30126 0
M  V30 245 C 25.9586 -4.33028 -0.785771 0
M  V30 246 H 23.0776 -0.736912 0.0114185 0
M  V30 247 H 25.7196 -1.76056 0.714432 0
M  V30 248 H 23.8696 -3.82932 -0.655382 0
M  V30 249 H 25.5416 -4.19018 1.92929 0
M  V30 250 H 23.7846 -3.91086 1.87709 0
M  V30 251 H 24.4556 -5.39114 1.18573 0
M  V30 252 H 26.9316 -4.15095 -0.288982 0
M  V30 253 H 25.8076 -5.42695 -0.823013 0
M  V30 254 H 26.0686 -4.01945 -1.841 0
M  V30 255 N 25.1277 -0.289203 -1.54924 0
M  V30 256 C 26.0377 0.601863 -2.26748 0
M  V30 257 C 27.0537 1.15834 -1.2984 0
M  V30 258 O 28.2297 1.18564 -1.62802 0
M  V30 259 C 25.2947 1.76299 -2.98529 0
M  V30 260 C 24.3557 1.24178 -4.10948 0
M  V30 261 C 23.5887 2.34757 -4.79296 0
M  V30 262 O 23.8117 3.54411 -4.46933 0
M  V30 263 O 22.7457 2.02115 -5.66951 0
M  V30 264 H 26.5717 0.0195879 -3.03694 0
M  V30 265 H 24.1567 -0.0560868 -1.49295 0
M  V30 266 H 26.0387 2.43973 -3.43592 0
M  V30 267 H 24.7137 2.33209 -2.24488 0
M  V30 268 H 23.6207 0.531104 -3.70311 0
M  V30 269 H 24.9537 0.718252 -4.86931 0
M  V30 270 N 26.6058 1.57591 -0.0167156 0
M  V30 271 C 27.5528 2.09462 0.969251 0
M  V30 272 C 28.5228 0.99381 1.33089 0
M  V30 273 O 29.7078 1.26726 1.42636 0
M  V30 274 C 26.8478 2.61622 2.25051 0
M  V30 275 C 25.9608 3.85666 1.94642 0
M  V30 276 C 25.0958 4.26266 3.16972 0
M  V30 277 C 24.1348 5.43101 2.82326 0
M  V30 278 N 23.2718 5.78915 3.97243 0
M  V30 279 H 28.1118 2.93428 0.519997 0
M  V30 280 H 25.6488 1.45044 0.245087 0
M  V30 281 H 27.6068 2.89949 2.99976 0
M  V30 282 H 26.2368 1.80505 2.67615 0
M  V30 283 H 25.2888 3.64145 1.10013 0
M  V30 284 H 26.6008 4.70678 1.65117 0
M  V30 285 H 25.7548 4.55963 4.00228 0
M  V30 286 H 24.4938 3.39996 3.49648 0
M  V30 287 H 23.4988 5.1311 1.97479 0
M  V30 288 H 24.7238 6.3106 2.50879 0
M  V30 289 H 22.6698 4.95602 4.29785 0
M  V30 290 H 22.5868 6.58539 3.71299 0
M  V30 291 H 23.8548 6.13212 4.81239 0
M  V30 292 N 28.0839 -0.256276 1.55502 0
M  V30 293 C 29.0139 -1.32102 1.92539 0
M  V30 294 C 29.9949 -1.50684 0.789194 0
M  V30 295 O 31.1799 -1.63449 1.04872 0
M  V30 296 C 28.3099 -2.67752 2.21192 0
M  V30 297 C 27.2639 -2.63878 3.36975 0
M  V30 298 C 26.5899 -4.03236 3.51147 0
M  V30 299 C 27.8899 -2.21682 4.72921 0
M  V30 300 H 29.5839 -1.01351 2.81724 0
M  V30 301 H 27.1299 -0.486105 1.35547 0
M  V30 302 H 29.0829 -3.42365 2.45691 0
M  V30 303 H 27.8069 -3.0012 1.28824 0
M  V30 304 H 26.4659 -1.91722 3.12471 0
M  V30 305 H 26.1139 -4.32854 2.56216 0
M  V30 306 H 25.8139 -4.01535 4.29003 0
M  V30 307 H 27.3379 -4.79563 3.77957 0
M  V30 308 H 28.7519 -2.86023 4.96854 0
M  V30 309 H 27.1489 -2.3111 5.53812 0
M  V30 310 H 28.2189 -1.16833 4.70615 0
M  V30 311 N 29.562 -1.4872 -0.521534 0
M  V30 312 C 30.787 -1.61101 -1.30618 0
M  V30 313 C 31.212 -0.274611 -1.86085 0
M  V30 314 O 30.57 0.754937 -1.64834 0
M  V30 315 C 30.618 -2.66709 -2.4269 0
M  V30 316 O 29.722 -2.24456 -3.45967 0
M  V30 317 H 29.063 -0.539921 -0.386499 0
M  V30 318 H 31.593 -1.94767 -0.626645 0
M  V30 319 H 31.603 -2.88245 -2.88754 0
M  V30 320 H 30.278 -3.63727 -2.01682 0
M  V30 321 H 28.855 -2.13168 -3.05964 0
M  V30 322 N 31.0401 0.771051 -1.3745 0
M  V30 323 C 32.2881 1.52661 -1.32435 0
M  V30 324 C 32.6091 1.9479 0.0905024 0
M  V30 325 O 31.8791 1.66348 1.03466 0
M  V30 326 H 30.4591 0.566218 -0.487244 0
M  V30 327 H 33.1211 0.917636 -1.71946 0
M  V30 328 H 32.2171 2.42568 -1.96385 0
M  V30 329 N 32.5182 1.22032 0.997298 0
M  V30 330 C 33.4812 0.987909 2.06816 0
M  V30 331 C 34.4812 -0.0440084 1.6074 0
M  V30 332 O 35.6712 0.194053 1.73116 0
M  V30 333 C 32.8032 0.49132 3.37341 0
M  V30 334 H 33.9962 1.93803 2.28868 0
M  V30 335 H 31.5492 1.03838 1.16822 0
M  V30 336 H 32.2842 -0.463364 3.20973 0
M  V30 337 H 32.0692 1.23575 3.72118 0
M  V30 338 H 33.5592 0.348824 4.16141 0
M  V30 339 N 33.9963 -1.19345 1.0293 0
M  V30 340 C 35.2433 -1.89038 0.726008 0
M  V30 341 C 35.5713 -1.79649 -0.745427 0
M  V30 342 O 34.8263 -1.18354 -1.55855 0
M  V30 343 C 35.1253 -3.39292 1.12319 0
M  V30 344 C 34.7913 -3.68885 2.59297 0
M  V30 345 C 33.4533 -3.76671 2.99453 0
M  V30 346 C 35.8053 -3.82178 3.54386 0
M  V30 347 C 33.1333 -3.9522 4.33611 0
M  V30 348 C 35.4853 -4.0224 4.88248 0
M  V30 349 C 34.1493 -4.08259 5.28092 0
M  V30 350 H 33.4193 -0.691739 0.265665 0
M  V30 351 H 36.0663 -1.41328 1.29223 0
M  V30 352 H 34.3713 -3.88903 0.475584 0
M  V30 353 H 36.0683 -3.91536 0.866037 0
M  V30 354 H 32.6583 -3.63433 2.27189 0
M  V30 355 H 36.8423 -3.75505 3.24514 0
M  V30 356 H 32.0983 -3.98119 4.64016 0
M  V30 357 H 36.2723 -4.11468 5.61843 0
M  V30 358 H 33.8993 -4.22384 6.32057 0
M  V30 359 N 35.4744 -0.807222 -1.35358 0
M  V30 360 C 36.8904 -0.491038 -1.51858 0
M  V30 361 C 37.0904 0.987648 -1.75635 0
M  V30 362 O 36.1464 1.77265 -1.79815 0
M  V30 363 C 37.4594 -1.33695 -2.69344 0
M  V30 364 C 39.0074 -1.33246 -2.83222 0
M  V30 365 C 39.4824 -2.1625 -4.03733 0
M  V30 366 N 40.9734 -2.1379 -4.10911 0
M  V30 367 C 41.7084 -2.74772 -5.03277 0
M  V30 368 N 41.2044 -3.44684 -6.0097 0
M  V30 369 N 42.9974 -2.6441 -4.96028 0
M  V30 370 H 35.1484 -1.76485 -1.18181 0
M  V30 371 H 37.4114 -0.751199 -0.578276 0
M  V30 372 H 37.1174 -2.38634 -2.58354 0
M  V30 373 H 36.9914 -0.990618 -3.6396 0
M  V30 374 H 39.3784 -0.290911 -2.93663 0
M  V30 375 H 39.4594 -1.71866 -1.89461 0
M  V30 376 H 39.1034 -3.20445 -3.94052 0
M  V30 377 H 39.0334 -1.74989 -4.96675 0
M  V30 378 H 41.5244 -1.62923 -3.40976 0
M  V30 379 H 41.8374 -3.88501 -6.68047 0
M  V30 380 H 40.1824 -3.48788 -6.01142 0
M  V30 381 H 43.3734 -2.0938 -4.18662 0
M  V30 382 H 43.5464 -3.12225 -5.6782 0
M  V30 383 N 36.9525 1.47285 -0.560781 0
M  V30 384 C 37.9155 2.28535 0.174488 0
M  V30 385 C 38.9155 1.37153 0.839388 0
M  V30 386 O 40.1055 1.59748 0.694702 0
M  V30 387 C 37.2375 3.16934 1.25561 0
M  V30 388 H 38.4305 2.95012 -0.539262 0
M  V30 389 H 35.9835 1.53034 -0.317865 0
M  V30 390 H 36.7185 2.55157 2.00164 0
M  V30 391 H 36.5035 3.8419 0.783604 0
M  V30 392 H 37.9935 3.78143 1.77193 0
M  V30 393 N 38.4306 0.297415 1.54768 0
M  V30 394 C 39.3936 -0.567375 2.22066 0
M  V30 395 C 40.3936 -1.06409 1.20556 0
M  V30 396 O 41.5836 -0.960691 1.45315 0
M  V30 397 C 38.7156 -1.78517 2.90421 0
M  V30 398 H 39.9086 0.0205534 2.99893 0
M  V30 399 H 37.4616 0.0482163 1.56226 0
M  V30 400 H 38.1966 -2.41303 2.16664 0
M  V30 401 H 37.9816 -1.43669 3.64831 0
M  V30 402 H 39.4716 -2.39964 3.41771 0
M  V30 403 N 39.9087 -1.5758 0.0250728 0
M  V30 404 C 41.1567 -1.91255 -0.653151 0
M  V30 405 C 41.4777 -0.901691 -1.729 0
M  V30 406 O 40.7477 0.0573785 -1.95816 0
M  V30 407 H 39.3277 -0.705942 -0.244243 0
M  V30 408 H 41.9897 -1.94767 0.0719209 0
M  V30 409 H 41.0857 -2.91752 -1.10847 0
M  V30 410 N 41.3868 0.248026 -1.55636 0
M  V30 411 C 42.8028 0.596483 -1.48035 0
M  V30 412 C 43.0028 1.88386 -0.715039 0
M  V30 413 O 42.0588 2.51319 -0.243944 0
M  V30 414 C 43.3718 0.700258 -2.92433 0
M  V30 415 C 44.9198 0.792659 -3.02797 0
M  V30 416 C 45.3948 0.928005 -4.485 0
M  V30 417 N 46.8858 0.992903 -4.52433 0
M  V30 418 C 47.6208 1.11687 -5.62418 0
M  V30 419 N 47.1168 1.20645 -6.82214 0
M  V30 420 N 48.9098 1.14994 -5.50212 0
M  V30 421 H 41.0608 -0.597109 -2.03834 0
M  V30 422 H 43.3238 -0.205925 -0.925364 0
M  V30 423 H 43.0298 -0.175658 -3.51261 0
M  V30 424 H 42.9038 1.57255 -3.42857 0
M  V30 425 H 45.2908 1.65903 -2.4405 0
M  V30 426 H 45.3718 -0.104762 -2.55585 0
M  V30 427 H 45.0158 0.0661971 -5.07857 0
M  V30 428 H 44.9458 1.84045 -4.93391 0
M  V30 429 H 47.4368 0.935064 -3.66149 0
M  V30 430 H 47.7498 1.30008 -7.61786 0
M  V30 431 H 46.0948 1.17605 -6.84977 0
M  V30 432 H 49.2858 1.07643 -4.55555 0
M  V30 433 H 49.4588 1.24311 -6.35965 0
M  V30 434 N 42.8649 1.48995 0.513639 0
M  V30 435 C 44.0899 1.61792 1.29762 0
M  V30 436 C 44.5149 0.284475 1.85936 0
M  V30 437 O 43.8729 -0.746185 1.65232 0
M  V30 438 C 43.9209 2.67993 2.41272 0
M  V30 439 O 43.0249 2.26287 3.44772 0
M  V30 440 H 42.3659 0.541963 0.38363 0
M  V30 441 H 44.8959 1.95097 0.616307 0
M  V30 442 H 44.9059 2.89772 2.87221 0
M  V30 443 H 43.5809 3.64791 1.9975 0
M  V30 444 H 42.1579 2.14788 3.04829 0
M  V30 445 N 44.343 -0.763751 1.37857 0
M  V30 446 C 45.589 -1.52483 1.33704 0
M  V30 447 C 45.922 -1.94051 -0.0759612 0
M  V30 448 O 45.197 -1.64675 -1.03501 0
M  V30 449 C 45.48 -2.78441 2.28348 0
M  V30 450 C 45.333 -2.43075 3.78463 0
M  V30 451 C 46.652 -3.80415 2.21298 0
M  V30 452 H 43.771 -0.553169 0.487005 0
M  V30 453 H 46.413 -0.875562 1.68624 0
M  V30 454 H 44.563 -3.33842 1.987 0
M  V30 455 H 46.235 -1.93527 4.18742 0
M  V30 456 H 44.478 -1.75666 3.96641 0
M  V30 457 H 45.149 -3.33149 4.40132 0
M  V30 458 H 47.625 -3.34527 2.47449 0
M  V30 459 H 46.501 -4.66257 2.89647 0
M  V30 460 H 46.762 -4.25262 1.20849 0
M  V30 461 N 45.8211 -1.22559 -0.990812 0
M  V30 462 C 46.7841 -0.998863 -2.0629 0
M  V30 463 C 47.7841 0.0354834 -1.60761 0
M  V30 464 O 48.9741 -0.203231 -1.7301 0
M  V30 465 C 46.1061 -0.509203 -3.37076 0
M  V30 466 H 47.2991 -1.95014 -2.27837 0
M  V30 467 H 44.8521 -1.04456 -1.16269 0
M  V30 468 H 45.5871 0.446335 -3.21214 0
M  V30 469 H 45.3721 -1.25547 -3.71457 0
M  V30 470 H 46.8621 -0.370888 -4.1595 0
M  V30 471 N 47.2992 1.18797 -1.03562 0
M  V30 472 C 48.5272 1.92599 -0.755869 0
M  V30 473 C 48.9422 1.75886 0.686271 0
M  V30 474 O 48.2992 1.08517 1.46732 0
M  V30 475 C 48.3502 3.44159 -1.10619 0
M  V30 476 O 48.0712 3.60341 -2.4917 0
M  V30 477 C 49.5722 4.3507 -0.850214 0
M  V30 478 H 46.7922 0.611587 -0.276048 0
M  V30 479 H 49.3362 1.50742 -1.38192 0
M  V30 480 H 47.4912 3.83823 -0.525194 0
M  V30 481 H 47.9052 4.54128 -2.62427 0
M  V30 482 H 49.3792 5.39989 -1.14523 0
M  V30 483 H 49.8562 4.38673 0.215176 0
M  V30 484 H 50.4622 4.01097 -1.41426 0
M  V30 485 N 48.7773 0.814389 1.34928 0
M  V30 486 C 49.7073 0.244827 2.32213 0
M  V30 487 C 50.6883 -0.634024 1.57842 0
M  V30 488 O 51.8733 -0.562676 1.8587 0
M  V30 489 C 49.0033 -0.601106 3.42058 0
M  V30 490 C 47.9573 0.179896 4.27622 0
M  V30 491 C 47.2833 -0.788237 5.28858 0
M  V30 492 C 48.5833 1.38329 5.03649 0
M  V30 493 H 50.2773 1.05763 2.80097 0
M  V30 494 H 47.8233 0.510029 1.34665 0
M  V30 495 H 49.7763 -1.00968 4.09125 0
M  V30 496 H 48.5003 -1.44688 2.92802 0
M  V30 497 H 47.1593 0.569739 3.62146 0
M  V30 498 H 46.8073 -1.62973 4.75866 0
M  V30 499 H 46.5073 -0.269942 5.8698 0
M  V30 500 H 48.0313 -1.19485 5.98795 0
M  V30 501 H 49.4453 1.04918 5.63618 0
M  V30 502 H 47.8423 1.83662 5.71304 0
M  V30 503 H 48.9123 2.16592 4.33839 0
M  V30 504 N 50.2554 -1.46986 0.568584 0
M  V30 505 C 51.2184 -2.28624 -0.162366 0
M  V30 506 C 52.2184 -1.37596 -0.832103 0
M  V30 507 O 53.4084 -1.60115 -0.68622 0
M  V30 508 C 50.5404 -3.17596 -1.23878 0
M  V30 509 H 51.7334 -2.94722 0.554899 0
M  V30 510 H 49.2864 -1.52863 0.325976 0
M  V30 511 H 50.0214 -2.56214 -1.98808 0
M  V30 512 H 49.8064 -3.846 -0.763219 0
M  V30 513 H 51.2964 -3.79078 -1.75185 0
M  V30 514 N 51.7335 -0.305618 -1.54608 0
M  V30 515 C 52.9805 0.302298 -2.00231 0
M  V30 516 C 53.3085 1.5354 -1.19398 0
M  V30 517 O 52.5635 1.93973 -0.259423 0
M  V30 518 C 52.8625 0.698983 -3.50498 0
M  V30 519 C 52.5285 -0.432903 -4.48817 0
M  V30 520 C 51.1905 -0.743622 -4.75419 0
M  V30 521 C 53.5425 -1.19409 -5.07337 0
M  V30 522 C 50.8705 -1.81857 -5.57804 0
M  V30 523 C 53.2225 -2.25899 -5.90891 0
M  V30 524 C 51.8865 -2.57572 -6.15803 0
M  V30 525 H 51.1565 0.110619 -0.732697 0
M  V30 526 H 53.8035 -0.425674 -1.86709 0
M  V30 527 H 52.1085 1.50711 -3.61654 0
M  V30 528 H 53.8055 1.1806 -3.83227 0
M  V30 529 H 50.3955 -0.18063 -4.28219 0
M  V30 530 H 54.5795 -0.967295 -4.86782 0
M  V30 531 H 49.8355 -2.06864 -5.75341 0
M  V30 532 H 54.0095 -2.85335 -6.35261 0
M  V30 533 H 51.6365 -3.40998 -6.7943 0
M  V30 534 N 53.2116 1.57565 -0.0334293 0
M  V30 535 C 54.6226 1.79746 0.504798 0
M  V30 536 C 54.9736 0.944091 1.71992 0
M  V30 537 O 54.0986 0.155694 2.15839 0
M  V30 538 C 54.6936 3.25997 0.922567 0
M  V30 539 C 53.2526 3.49159 1.40588 0
M  V30 540 C 52.3996 2.74785 0.372633 0
M  V30 541 H 55.3506 1.56565 -0.259436 0
M  V30 542 H 55.3716 3.35945 1.78666 0
M  V30 543 H 54.8836 3.88081 0.0379825 0
M  V30 544 H 52.9846 2.92332 2.31025 0
M  V30 545 H 53.0976 4.57873 1.41028 0
M  V30 546 H 51.4616 2.40391 0.841672 0
M  V30 547 H 52.2446 3.39587 -0.503559 0
M  V30 548 N 54.6897 -0.239769 1.55765 0
M  V30 549 C 56.1057 -0.588624 1.48349 0
M  V30 550 C 56.3057 -1.88005 0.72502 0
M  V30 551 O 55.3617 -2.51186 0.257269 0
M  V30 552 C 56.6747 -0.68474 2.928 0
M  V30 553 C 58.2227 -0.77659 3.03213 0
M  V30 554 C 58.6977 -0.904207 4.48986 0
M  V30 555 N 60.1887 -0.968896 4.52953 0
M  V30 556 C 60.9237 -1.08703 5.63002 0
M  V30 557 N 60.4197 -1.17026 6.82845 0
M  V30 558 N 62.2127 -1.12074 5.50814 0
M  V30 559 H 54.3637 0.607911 2.03515 0
M  V30 560 H 56.6267 0.21083 0.924259 0
M  V30 561 H 56.3327 0.194284 3.51163 0
M  V30 562 H 56.2067 -1.55435 3.43686 0
M  V30 563 H 58.5937 -1.64606 2.44926 0
M  V30 564 H 58.6747 0.118315 2.55526 0
M  V30 565 H 58.3187 -0.0392633 5.07885 0
M  V30 566 H 58.2487 -1.81426 4.9436 0
M  V30 567 H 60.7397 -0.915633 3.6664 0
M  V30 568 H 61.0527 -1.25966 7.62465 0
M  V30 569 H 59.3977 -1.13971 6.85591 0
M  V30 570 H 62.5887 -1.05226 4.5612 0
M  V30 571 H 62.7617 -1.20936 6.36615 0
M  V30 572 N 56.1678 -1.49265 -0.50573 0
M  V30 573 C 57.3978 -1.61979 -1.28243 0
M  V30 574 C 57.8058 -0.288576 -1.86986 0
M  V30 575 O 57.1488 0.735408 -1.68337 0
M  V30 576 C 57.2108 -2.62632 -2.45489 0
M  V30 577 C 56.8748 -4.071 -2.07651 0
M  V30 578 C 57.8718 -4.94049 -1.61901 0
M  V30 579 C 55.5568 -4.52801 -2.17431 0
M  V30 580 C 57.5508 -6.24736 -1.26428 0
M  V30 581 C 55.2378 -5.83503 -1.8157 0
M  V30 582 C 56.2358 -6.69294 -1.36142 0
M  V30 583 O 55.9238 -7.9756 -1.00764 0
M  V30 584 H 55.6558 -0.54834 -0.395347 0
M  V30 585 H 58.2098 -1.96002 -0.614204 0
M  V30 586 H 56.4398 -2.2378 -3.15372 0
M  V30 587 H 58.1288 -2.64925 -3.07522 0
M  V30 588 H 58.8948 -4.5997 -1.53795 0
M  V30 589 H 54.7738 -3.86196 -2.51742 0
M  V30 590 H 58.3178 -6.91652 -0.908992 0
M  V30 591 H 54.2148 -6.17112 -1.89324 0
M  V30 592 H 54.9828 -8.10529 -1.13952 0
M  V30 593 N 57.6459 0.756429 -1.3826 0
M  V30 594 C 58.8939 1.51248 -1.34047 0
M  V30 595 C 59.2149 1.94875 0.0698372 0
M  V30 596 O 58.4849 1.67436 1.01696 0
M  V30 597 H 57.0649 0.561018 -0.493222 0
M  V30 598 H 59.7269 0.899347 -1.7291 0
M  V30 599 H 58.8229 2.40472 -1.98947 0
M  V30 600 N 59.124 1.23083 0.984299 0
M  V30 601 C 60.056 0.96636 2.07832 0
M  V30 602 C 61.069 -0.0582135 1.62696 0
M  V30 603 O 62.258 0.176843 1.77622 0
M  V30 604 C 59.358 0.433397 3.36117 0
M  V30 605 C 58.531 1.51722 4.10243 0
M  V30 606 C 57.59 0.989821 5.16807 0
M  V30 607 O 56.616 1.67794 5.43906 0
M  V30 608 N 57.818 -0.184367 5.80207 0
M  V30 609 H 60.583 1.90824 2.31098 0
M  V30 610 H 58.144 1.13888 1.1507 0
M  V30 611 H 60.136 0.065699 4.04647 0
M  V30 612 H 58.706 -0.413806 3.09849 0
M  V30 613 H 57.926 2.05786 3.36223 0
M  V30 614 H 59.214 2.24619 4.56534 0
M  V30 615 H 58.612 -0.760062 5.60571 0
M  V30 616 H 57.169 -0.493366 6.4993 0
M  V30 617 N 60.6021 -1.18246 1.0419 0
M  V30 618 C 61.8271 -1.92736 0.765996 0
M  V30 619 C 62.2521 -1.75728 -0.67091 0
M  V30 620 O 61.6101 -1.06825 -1.46486 0
M  V30 621 C 61.6581 -3.42148 1.13875 0
M  V30 622 O 60.7621 -4.11548 0.264954 0
M  V30 623 H 60.1031 -0.601238 0.281797 0
M  V30 624 H 62.6331 -1.49942 1.39207 0
M  V30 625 H 62.6431 -3.92858 1.1012 0
M  V30 626 H 61.3181 -3.53848 2.18551 0
M  V30 627 H 59.8951 -3.71137 0.362226 0
M  V30 628 N 62.0802 -0.821533 -1.34494 0
M  V30 629 C 63.3262 -0.409552 -1.98622 0
M  V30 630 C 63.6592 1.0244 -1.64984 0
M  V30 631 O 62.9342 1.71325 -0.920758 0
M  V30 632 C 63.2172 -0.610458 -3.54888 0
M  V30 633 C 63.0702 -2.09043 -3.98273 0
M  V30 634 C 64.3892 -0.0455379 -4.40076 0
M  V30 635 H 61.5082 -0.15028 -0.721516 0
M  V30 636 H 64.1502 -1.03384 -1.59411 0
M  V30 637 H 62.3002 -0.079044 -3.8842 0
M  V30 638 H 63.9722 -2.68537 -3.75081 0
M  V30 639 H 62.2152 -2.58139 -3.48635 0
M  V30 640 H 62.8862 -2.18182 -5.07051 0
M  V30 641 H 65.3622 -0.499557 -4.1309 0
M  V30 642 H 64.2382 -0.215922 -5.48475 0
M  V30 643 H 64.4992 1.04939 -4.29465 0
M  V30 644 N 63.5583 1.46682 -0.576371 0
M  V30 645 C 64.5213 2.28707 0.150239 0
M  V30 646 C 65.5213 1.38035 0.824794 0
M  V30 647 O 66.7113 1.60476 0.677719 0
M  V30 648 C 63.8433 3.18248 1.22192 0
M  V30 649 H 65.0363 2.94423 -0.570521 0
M  V30 650 H 62.5893 1.52688 -0.334078 0
M  V30 651 H 63.3243 2.57265 1.97447 0
M  V30 652 H 63.1093 3.85 0.742812 0
M  V30 653 H 64.5993 3.80001 1.73172 0
M  V30 654 N 65.0364 0.313813 1.54444 0
M  V30 655 C 65.9994 -0.54379 2.22656 0
M  V30 656 C 66.9994 -1.05124 1.21678 0
M  V30 657 O 68.1894 -0.945225 1.46325 0
M  V30 658 C 65.3214 -1.75427 2.92298 0
M  V30 659 H 66.5144 0.0523599 2.99854 0
M  V30 660 H 64.0674 0.0647834 1.56166 0
M  V30 661 H 64.8024 -2.38991 2.19211 0
M  V30 662 H 64.5874 -1.39791 3.66334 0
M  V30 663 H 66.0774 -2.36325 3.44297 0
M  V30 664 N 66.5145 -1.57545 0.0417849 0
M  V30 665 C 67.7915 -1.83642 -0.673433 0
M  V30 666 C 68.1715 -0.928298 -1.89594 0
M  V30 667 O 67.5195 0.0129955 -2.28496 0
M  V30 668 C 67.7295 -3.33155 -1.03964 0
M  V30 669 C 69.0775 -3.99941 -1.42592 0
M  V30 670 O 70.1015 -3.37725 -1.13226 0
M  V30 671 O 68.9605 -5.09619 -1.9736 0
M  V30 672 H 66.0545 -0.757638 -0.331533 0
M  V30 673 H 68.6005 -1.69554 0.070433 0
M  V30 674 H 67.3725 -3.9093 -0.170098 0
M  V30 675 H 66.9955 -3.52396 -1.84126 0
M  V30 676 N 67.9926 0.231505 -1.5589 0
M  V30 677 C 69.2416 0.955346 -1.7764 0
M  V30 678 C 69.5546 1.85893 -0.608546 0
M  V30 679 O 70.7606 2.62067 -0.70943 0
M  V30 680 C 69.2166 1.74886 -3.14552 0
M  V30 681 C 68.8246 0.891915 -4.39032 0
M  V30 682 C 70.5686 2.46452 -3.45633 0
M  V30 683 C 68.4756 1.68221 -5.66971 0
M  V30 684 H 67.4056 0.360446 -0.662265 0
M  V30 685 H 70.0566 0.209516 -1.823 0
M  V30 686 H 68.4386 2.53723 -3.04041 0
M  V30 687 H 69.6126 0.144793 -4.60572 0
M  V30 688 H 67.9276 0.288863 -4.15397 0
M  V30 689 H 70.5246 3.06061 -4.38441 0
M  V30 690 H 70.8676 3.18841 -2.67668 0
M  V30 691 H 71.4006 1.74613 -3.57428 0
M  V30 692 H 68.1396 1.00178 -6.478 0
M  V30 693 H 67.6596 2.4042 -5.49507 0
M  V30 694 H 69.3386 2.24544 -6.06786 0
M  V30 695 N 69.4707 1.49531 0.497807 0
M  V30 696 C 70.4337 1.65916 1.58128 0
M  V30 697 C 71.4337 0.530825 1.51786 0
M  V30 698 O 72.6237 0.797342 1.54881 0
M  V30 699 C 69.7557 1.65951 2.9778 0
M  V30 700 H 70.9487 2.62556 1.44929 0
M  V30 701 H 68.5017 1.38611 0.722275 0
M  V30 702 H 69.2367 0.709065 3.16453 0
M  V30 703 H 69.0217 2.47897 3.03792 0
M  V30 704 H 70.5117 1.80673 3.76493 0
M  V30 705 N 70.9488 -0.749086 1.3866 0
M  V30 706 C 71.9118 -1.84457 1.36045 0
M  V30 707 C 72.9118 -1.58682 0.260122 0
M  V30 708 O 74.1018 -1.66343 0.517261 0
M  V30 709 C 71.2338 -3.22008 1.11911 0
M  V30 710 H 72.4268 -1.88182 2.33512 0
M  V30 711 H 69.9798 -0.951266 1.24019 0
M  V30 712 H 70.7148 -3.2395 0.150686 0
M  V30 713 H 70.4998 -3.42111 1.91579 0
M  V30 714 H 71.9898 -4.0208 1.12788 0
M  V30 715 N 72.4269 -1.23603 -0.977757 0
M  V30 716 C 73.3369 -1.03632 -2.1047 0
M  V30 717 C 74.3529 0.0199435 -1.73989 0
M  V30 718 O 75.5289 -0.176076 -2.00629 0
M  V30 719 C 72.5939 -0.63276 -3.40877 0
M  V30 720 C 71.6549 -1.76437 -3.91367 0
M  V30 721 C 70.8879 -1.37997 -5.15551 0
M  V30 722 O 71.1109 -0.265357 -5.69782 0
M  V30 723 O 70.0449 -2.20201 -5.60174 0
M  V30 724 H 73.8709 -1.98086 -2.30208 0
M  V30 725 H 71.4559 -1.02332 -1.08851 0
M  V30 726 H 73.3379 -0.418761 -4.19314 0
M  V30 727 H 72.0129 0.282754 -3.22463 0
M  V30 728 H 70.9199 -2.03304 -3.14036 0
M  V30 729 H 72.2529 -2.6583 -4.14241 0
M  V30 730 N 73.905 1.17692 -1.04816 0
M  V30 731 C 74.868 2.19787 -0.650117 0
M  V30 732 C 75.868 1.58044 0.296427 0
M  V30 733 O 77.058 1.74012 0.0808097 0
M  V30 734 C 74.19 3.40869 0.0456987 0
M  V30 735 H 75.383 2.56516 -1.5537 0
M  V30 736 H 72.936 1.31708 -0.841594 0
M  V30 737 H 73.671 3.09681 0.962726 0
M  V30 738 H 73.456 3.86928 -0.634727 0
M  V30 739 H 74.946 4.16445 0.310432 0
M  V30 740 N 75.3831 0.828654 1.34056 0
M  V30 741 C 76.3131 0.269443 2.3194 0
M  V30 742 C 77.2941 -0.617247 1.58506 0
M  V30 743 O 78.4791 -0.542931 1.86456 0
M  V30 744 C 75.6091 -0.564793 3.42677 0
M  V30 745 C 74.5631 0.225241 4.27407 0
M  V30 746 C 73.8891 -0.7321 5.29664 0
M  V30 747 C 75.1891 1.43663 5.02154 0
M  V30 748 H 76.8831 1.08728 2.7896 0
M  V30 749 H 74.4291 0.524283 1.34117 0
M  V30 750 H 76.3821 -0.966233 4.10173 0
M  V30 751 H 75.1061 -1.41574 2.9432 0
M  V30 752 H 73.7651 0.608117 3.61521 0
M  V30 753 H 73.4131 -1.57916 4.77568 0
M  V30 754 H 73.1131 -0.20767 5.87233 0
M  V30 755 H 74.6371 -1.13128 6.00029 0
M  V30 756 H 76.0511 1.1089 5.62473 0
M  V30 757 H 74.4481 1.89711 5.69324 0
M  V30 758 H 75.5181 2.21181 4.31517 0
M  V30 759 N 76.8612 -1.46375 0.584142 0
M  V30 760 C 77.8112 -2.27371 -0.169232 0
M  V30 761 C 78.7952 -1.35955 -0.860523 0
M  V30 762 O 79.9872 -1.60119 -0.754382 0
M  V30 763 C 77.1162 -3.22334 -1.18134 0
M  V30 764 C 76.2022 -4.21235 -0.492088 0
M  V30 765 N 76.5932 -5.03766 0.453129 0
M  V30 766 C 74.8912 -4.39773 -0.742652 0
M  V30 767 C 75.5922 -5.75366 0.85609 0
M  V30 768 N 74.5682 -5.43214 0.204926 0
M  V30 769 H 78.3702 -2.88572 0.557097 0
M  V30 770 H 75.8842 -1.57242 0.406042 0
M  V30 771 H 77.8812 -3.79071 -1.73525 0
M  V30 772 H 76.5412 -2.62693 -1.90847 0
M  V30 773 H 77.5522 -5.11227 0.828723 0
M  V30 774 H 74.2292 -3.91279 -1.45625 0
M  V30 775 H 75.6192 -6.5172 1.63434 0
M  V30 776 N 78.3393 -0.321999 -1.54275 0
M  V30 777 C 79.5873 0.280489 -2.00144 0
M  V30 778 C 79.9083 1.52777 -1.21178 0
M  V30 779 O 79.1783 1.9338 -0.313187 0
M  V30 780 H 77.7583 0.106632 -0.73935 0
M  V30 781 H 80.4203 -0.438184 -1.8991 0
M  V30 782 H 79.5163 0.537972 -3.07428 0
M  V30 783 N 79.8174 1.5752 -0.0501392 0
M  V30 784 C 80.7274 2.14952 0.939827 0
M  V30 785 C 81.7434 1.10706 1.34239 0
M  V30 786 O 82.9194 1.42869 1.41952 0
M  V30 787 C 79.9844 2.68232 2.19665 0
M  V30 788 C 79.0454 3.87272 1.85253 0
M  V30 789 C 78.2784 4.38002 3.04943 0
M  V30 790 O 78.5014 3.87811 4.18281 0
M  V30 791 O 77.4354 5.29602 2.86017 0
M  V30 792 H 81.2614 2.9986 0.481392 0
M  V30 793 H 78.8464 1.4841 0.171699 0
M  V30 794 H 80.7284 3.02475 2.93406 0
M  V30 795 H 79.4034 1.86395 2.64648 0
M  V30 796 H 78.3104 3.5792 1.0883 0
M  V30 797 H 79.6434 4.70336 1.4507 0
M  V30 798 N 81.2955 -0.223234 1.56011 0
M  V30 799 C 82.2455 -1.28008 1.88674 0
M  V30 800 C 83.2295 -1.42369 0.749663 0
M  V30 801 O 84.4215 -1.45212 1.01205 0
M  V30 802 C 81.5505 -2.63084 2.20548 0
M  V30 803 C 80.6365 -2.52632 3.40643 0
M  V30 804 N 81.0275 -2.11829 4.59306 0
M  V30 805 C 79.3255 -2.83594 3.44224 0
M  V30 806 C 80.0265 -2.12587 5.41463 0
M  V30 807 N 79.0025 -2.5301 4.81131 0
M  V30 808 H 82.8045 -0.955487 2.77935 0
M  V30 809 H 80.3185 -0.431801 1.56554 0
M  V30 810 H 82.3155 -3.39385 2.42122 0
M  V30 811 H 80.9755 -2.96391 1.32599 0
M  V30 812 H 81.9865 -1.82988 4.84496 0
M  V30 813 H 78.6635 -3.21284 2.66614 0
M  V30 814 H 80.0535 -1.83179 6.46448 0
M  V30 815 N 82.7736 -1.49793 -0.48987 0
M  V30 816 C 84.0216 -1.59525 -1.24081 0
M  V30 817 C 84.3426 -0.288953 -1.92847 0
M  V30 818 O 83.6126 0.692436 -1.83254 0
M  V30 819 H 82.1926 -0.587796 -0.460983 0
M  V30 820 H 84.8546 -1.86477 -0.566778 0
M  V30 821 H 83.9506 -2.39696 -1.99881 0
M  V30 822 N 84.2517 0.741722 -1.39055 0
M  V30 823 C 85.5287 1.49252 -1.26425 0
M  V30 824 C 85.9087 2.10705 0.129144 0
M  V30 825 O 85.2567 1.98045 1.13976 0
M  V30 826 C 85.4667 2.54934 -2.38347 0
M  V30 827 C 86.8147 3.21506 -2.77343 0
M  V30 828 O 87.8387 2.65245 -2.37747 0
M  V30 829 O 86.6977 4.23294 -3.45665 0
M  V30 830 H 83.7917 0.662451 -0.495064 0
M  V30 831 H 86.3377 0.776121 -1.50912 0
M  V30 832 H 85.1097 2.07857 -3.31529 0
M  V30 833 H 84.7327 3.34141 -2.15489 0
M  V30 834 N 85.7298 1.2412 0.971189 0
M  V30 835 C 86.6598 1.05508 2.08304 0
M  V30 836 C 87.6408 -0.0308864 1.70072 0
M  V30 837 O 88.8258 0.135521 1.93727 0
M  V30 838 C 85.9558 0.655365 3.4106 0
M  V30 839 C 84.9098 1.68971 3.93234 0
M  V30 840 C 84.2358 1.14516 5.22293 0
M  V30 841 C 85.5358 3.08487 4.21465 0
M  V30 842 H 87.2298 1.98507 2.24132 0
M  V30 843 H 84.7758 0.955821 1.07704 0
M  V30 844 H 86.7288 0.51217 4.18276 0
M  V30 845 H 85.4528 -0.31032 3.25122 0
M  V30 846 H 84.1118 1.82106 3.18171 0
M  V30 847 H 83.7598 0.170189 5.02712 0
M  V30 848 H 83.4598 1.83635 5.58168 0
M  V30 849 H 84.9838 1.01401 6.02121 0
M  V30 850 H 86.3978 2.98601 4.89398 0
M  V30 851 H 84.7948 3.74926 4.68562 0
M  V30 852 H 85.8648 3.56787 3.28376 0
M  V30 853 N 87.2079 -1.17134 1.05439 0
M  V30 854 C 88.1709 -2.19439 0.661764 0
M  V30 855 C 89.1709 -1.58199 -0.288042 0
M  V30 856 O 90.3609 -1.74053 -0.0715803 0
M  V30 857 C 87.4929 -3.40889 -0.0276209 0
M  V30 858 H 88.6859 -2.55688 1.56728 0
M  V30 859 H 86.2389 -1.31259 0.848567 0
M  V30 860 H 86.9739 -3.10187 -0.94629 0
M  V30 861 H 86.7589 -3.86586 0.655238 0
M  V30 862 H 88.2489 -4.16603 -0.288342 0
M  V30 863 N 88.686 -0.835752 -1.33615 0
M  V30 864 C 89.911 -0.442389 -2.02627 0
M  V30 865 C 90.336 0.947735 -1.62479 0
M  V30 866 O 89.694 1.61907 -0.815826 0
M  V30 867 C 89.742 -0.567216 -3.56111 0
M  V30 868 O 88.846 0.407799 -4.10379 0
M  V30 869 H 88.187 -0.180278 -0.639059 0
M  V30 870 H 90.717 -1.12972 -1.70583 0
M  V30 871 H 90.727 -0.447708 -4.05536 0
M  V30 872 H 89.402 -1.58103 -3.84677 0
M  V30 873 H 87.979 0.246107 -3.72087 0
M  V30 874 N 90.1641 1.46063 -0.591896 0
M  V30 875 C 91.3891 2.07226 -0.0850314 0
M  V30 876 C 91.8141 1.43625 1.21463 0
M  V30 877 O 91.1721 0.523305 1.73583 0
M  V30 878 C 91.2201 3.60554 0.0576567 0
M  V30 879 O 90.3241 3.97128 1.11188 0
M  V30 880 H 89.6651 0.660615 -0.0669568 0
M  V30 881 H 92.1951 1.8756 -0.81745 0
M  V30 882 H 92.2051 4.07165 0.2609 0
M  V30 883 H 90.8801 4.06235 -0.891416 0
M  V30 884 H 89.4571 3.62213 0.886356 0
M  V30 885 N 91.6422 0.330177 1.54103 0
M  V30 886 C 92.8882 -0.270806 2.00984 0
M  V30 887 C 93.2212 -1.51265 1.21789 0
M  V30 888 O 92.4962 -1.92142 0.301927 0
M  V30 889 C 92.7792 -0.598339 3.55094 0
M  V30 890 C 92.6322 0.654674 4.4501 0
M  V30 891 C 93.9512 -1.41334 4.16789 0
M  V30 892 H 91.0702 -0.0969531 0.730595 0
M  V30 893 H 93.7122 0.448066 1.84641 0
M  V30 894 H 91.8622 -1.21078 3.69151 0
M  V30 895 H 93.5342 1.29285 4.42813 0
M  V30 896 H 91.7772 1.28224 4.14416 0
M  V30 897 H 92.4482 0.380944 5.50684 0
M  V30 898 H 94.9242 -0.895597 4.06347 0
M  V30 899 H 93.8002 -1.61127 5.24718 0
M  V30 900 H 94.0612 -2.41146 3.70541 0
M  V30 901 N 93.1203 -1.57491 0.0584922 0
M  V30 902 C 94.3503 -1.9701 -0.622134 0
M  V30 903 C 94.7583 -0.935034 -1.6448 0
M  V30 904 O 94.1013 0.0882904 -1.83488 0
M  V30 905 C 94.1633 -3.32794 -1.35972 0
M  V30 906 C 93.8273 -4.54343 -0.492043 0
M  V30 907 C 94.8243 -5.19323 0.244901 0
M  V30 908 C 92.5093 -5.00534 -0.420821 0
M  V30 909 C 94.5033 -6.28835 1.04143 0
M  V30 910 C 92.1903 -6.09921 0.379389 0
M  V30 911 C 93.1883 -6.73933 1.10919 0
M  V30 912 O 92.8763 -7.81216 1.89623 0
M  V30 913 H 92.6083 -0.653127 -0.174359 0
M  V30 914 H 95.1623 -2.05029 0.123418 0
M  V30 915 H 93.3923 -3.21351 -2.15105 0
M  V30 916 H 95.0813 -3.5701 -1.93129 0
M  V30 917 H 95.8473 -4.8459 0.19939 0
M  V30 918 H 91.7263 -4.50496 -0.978474 0
M  V30 919 H 95.2703 -6.7873 1.61157 0
M  V30 920 H 91.1673 -6.44089 0.426512 0
M  V30 921 H 91.9353 -7.98029 1.81913 0
M  V30 922 N 94.5984 0.214957 -1.56127 0
M  V30 923 C 95.5614 1.24997 -1.92116 0
M  V30 924 C 96.5614 1.39467 -0.800344 0
M  V30 925 O 97.7514 1.37619 -1.06802 0
M  V30 926 C 94.8834 2.62271 -2.17777 0
M  V30 927 H 96.0764 0.942875 -2.84693 0
M  V30 928 H 93.6294 0.455654 -1.49511 0
M  V30 929 H 94.3644 2.98068 -1.27773 0
M  V30 930 H 94.1494 2.53143 -2.99434 0
M  V30 931 H 95.6394 3.36946 -2.46693 0
M  V30 932 N 96.0765 1.50051 0.48192 0
M  V30 933 C 97.0095 1.62749 1.59963 0
M  V30 934 C 97.9875 0.475903 1.5548 0
M  V30 935 O 99.1715 0.693986 1.7526 0
M  V30 936 C 96.2985 1.60008 2.98522 0
M  V30 937 C 95.3445 2.80596 3.21198 0
M  V30 938 S 96.1775 4.42038 3.02262 0
M  V30 939 C 97.3335 4.41973 4.43182 0
M  V30 940 H 97.5665 2.57296 1.4895 0
M  V30 941 H 95.0995 1.39179 0.668477 0
M  V30 942 H 97.0575 1.59112 3.78409 0
M  V30 943 H 95.7185 0.667153 3.06933 0
M  V30 944 H 94.9115 2.74952 4.22395 0
M  V30 945 H 94.5135 2.79003 2.49065 0
M  V30 946 H 96.8055 4.14868 5.35622 0
M  V30 947 H 97.7485 5.43512 4.53873 0
M  V30 948 H 98.1565 3.71812 4.24755 0
M  V30 949 N 97.5546 -0.734337 1.39446 0
M  V30 950 C 98.5176 -1.83004 1.37994 0
M  V30 951 C 99.5176 -1.58397 0.276938 0
M  V30 952 O 100.708 -1.65785 0.534875 0
M  V30 953 C 97.8396 -3.20802 1.1532 0
M  V30 954 H 99.0326 -1.85694 2.35494 0
M  V30 955 H 96.5856 -0.938059 1.25021 0
M  V30 956 H 97.3206 -3.23772 0.185036 0
M  V30 957 H 97.1056 -3.4006 1.95197 0
M  V30 958 H 98.5956 -4.00862 1.17046 0
M  V30 959 N 99.0327 -1.24633 -0.964593 0
M  V30 960 C 100.261 -1.11501 -1.74285 0
M  V30 961 C 100.676 0.332165 -1.85855 0
M  V30 962 O 100.033 1.22903 -1.34911 0
M  V30 963 C 100.084 -1.75258 -3.16175 0
M  V30 964 O 99.8047 -3.14318 -3.05182 0
M  V30 965 C 101.306 -1.67776 -4.10324 0
M  V30 966 H 98.5257 -0.389407 -0.546446 0
M  V30 967 H 101.07 -1.64801 -1.21083 0
M  V30 968 H 99.2247 -1.25954 -3.66353 0
M  V30 969 H 99.6387 -3.4551 -3.94618 0
M  V30 970 H 101.113 -2.17064 -5.0753 0
M  V30 971 H 101.59 -0.639584 -4.34518 0
M  V30 972 H 102.196 -2.16522 -3.66058 0
M  V30 973 N 100.511 1.16574 -1.06058 0
M  V30 974 C 101.441 2.23057 -0.690488 0
M  V30 975 C 102.422 1.67141 0.315901 0
M  V30 976 O 103.607 1.93253 0.191556 0
M  V30 977 C 100.737 3.47222 -0.073625 0
M  V30 978 C 99.6908 4.16016 -1.00573 0
M  V30 979 C 99.0168 5.34104 -0.252289 0
M  V30 980 C 100.317 4.67264 -2.33371 0
M  V30 981 H 102.011 2.54271 -1.58072 0
M  V30 982 H 99.5568 1.22218 -0.76149 0
M  V30 983 H 101.51 4.20939 0.19714 0
M  V30 984 H 100.234 3.15302 0.85161 0
M  V30 985 H 98.8928 3.44223 -1.2612 0
M  V30 986 H 98.5408 4.98437 0.675988 0
M  V30 987 H 98.2408 5.81072 -0.873455 0
M  V30 988 H 99.7648 6.10599 0.0109857 0
M  V30 989 H 101.179 5.32573 -2.12223 0
M  V30 990 H 99.5758 5.24843 -2.90963 0
M  V30 991 H 100.646 3.83602 -2.96611 0
M  V30 992 N 101.989 0.842826 1.3317 0
M  V30 993 C 103.236 0.440447 1.97652 0
M  V30 994 C 103.564 -1.00123 1.6675 0
M  V30 995 O 102.819 -1.7155 0.941761 0
M  V30 996 C 103.118 0.612607 3.52111 0
M  V30 997 C 102.784 2.02297 4.02972 0
M  V30 998 C 101.446 2.40874 4.16573 0
M  V30 999 C 103.798 2.94402 4.30089 0
M  V30 1000 C 101.126 3.70852 4.54627 0
M  V30 1001 C 103.478 4.23865 4.69597 0
M  V30 1002 C 102.142 4.62392 4.81404 0
M  V30 1003 H 101.412 0.161171 0.72326 0
M  V30 1004 H 104.059 1.07061 1.58777 0
M  V30 1005 H 102.364 -0.100849 3.9167 0
M  V30 1006 H 104.061 0.2815 4.00011 0
M  V30 1007 H 100.651 1.71338 3.92863 0
M  V30 1008 H 104.835 2.65835 4.19101 0
M  V30 1009 H 100.091 4.00501 4.61962 0
M  V30 1010 H 104.265 4.95306 4.89536 0
M  V30 1011 H 101.892 5.63154 5.10648 0
M  V30 1012 N 103.467 -1.45747 0.599634 0
M  V30 1013 C 104.43 -2.28917 -0.113835 0
M  V30 1014 C 105.43 -1.3933 -0.802729 0
M  V30 1015 O 106.62 -1.61534 -0.652103 0
M  V30 1016 C 103.752 -3.20152 -1.17114 0
M  V30 1017 H 104.945 -2.93478 0.617289 0
M  V30 1018 H 102.498 -1.52137 0.358327 0
M  V30 1019 H 103.233 -2.60374 -1.93329 0
M  V30 1020 H 103.018 -3.86133 -0.681468 0
M  V30 1021 H 104.508 -3.82708 -1.67105 0
M  V30 1022 N 104.945 -0.338344 -1.53925 0
M  V30 1023 C 105.875 0.51328 -2.27789 0
M  V30 1024 C 106.856 1.107 -1.29149 0
M  V30 1025 O 108.041 1.12937 -1.57984 0
M  V30 1026 C 105.171 1.66697 -3.04679 0
M  V30 1027 C 104.125 1.20183 -4.1078 0
M  V30 1028 C 103.451 2.44363 -4.75595 0
M  V30 1029 C 104.751 0.30605 -5.21403 0
M  V30 1030 H 106.445 -0.102883 -2.99223 0
M  V30 1031 H 103.991 -0.0509219 -1.4391 0
M  V30 1032 H 105.944 2.26915 -3.55088 0
M  V30 1033 H 104.668 2.30995 -2.30887 0
M  V30 1034 H 103.327 0.622499 -3.61276 0
M  V30 1035 H 102.975 3.07057 -3.98403 0
M  V30 1036 H 102.675 2.13925 -5.47275 0
M  V30 1037 H 104.199 3.05317 -5.28786 0
M  V30 1038 H 105.613 0.814929 -5.67478 0
M  V30 1039 H 104.01 0.0937929 -6.00027 0
M  V30 1040 H 105.08 -0.65921 -4.80398 0
M  V30 1041 N 106.423 1.57458 -0.0668435 0
M  V30 1042 C 107.7 1.8469 0.644132 0
M  V30 1043 C 108.08 0.958343 1.88093 0
M  V30 1044 O 107.428 0.0233579 2.28488 0
M  V30 1045 C 107.638 3.34767 0.986509 0
M  V30 1046 C 108.986 4.02159 1.36212 0
M  V30 1047 O 110.01 3.39484 1.07839 0
M  V30 1048 O 108.869 5.12694 1.89227 0
M  V30 1049 H 105.963 0.762816 0.319437 0
M  V30 1050 H 108.509 1.6942 -0.0973986 0
M  V30 1051 H 107.281 3.91151 0.107883 0
M  V30 1052 H 106.904 3.55281 1.78497 0
M  V30 1053 N 107.901 -0.206675 1.56239 0
M  V30 1054 C 109.317 -0.557025 1.49564 0
M  V30 1055 C 109.517 -1.86424 0.764735 0
M  V30 1056 O 108.573 -2.50584 0.310491 0
M  V30 1057 C 109.886 -0.622478 2.94186 0
M  V30 1058 C 111.434 -0.712099 3.04792 0
M  V30 1059 C 111.909 -0.808767 4.50803 0
M  V30 1060 N 113.4 -0.8726 4.54907 0
M  V30 1061 C 114.135 -0.967365 5.65181 0
M  V30 1062 N 113.631 -1.02515 6.85173 0
M  V30 1063 N 115.424 -1.00366 5.53067 0
M  V30 1064 H 107.575 0.650943 2.02179 0
M  V30 1065 H 109.838 0.230387 0.919579 0
M  V30 1066 H 109.544 0.268727 3.50672 0
M  V30 1067 H 109.418 -1.4811 3.46905 0
M  V30 1068 H 111.805 -1.59374 2.48363 0
M  V30 1069 H 111.886 0.172489 2.55218 0
M  V30 1070 H 111.53 0.0684754 5.07854 0
M  V30 1071 H 111.46 -1.70899 4.98098 0
M  V30 1072 H 113.951 -0.837657 3.68499 0
M  V30 1073 H 114.264 -1.09765 7.64965 0
M  V30 1074 H 112.609 -0.994026 6.87855 0
M  V30 1075 H 115.8 -0.95527 4.58249 0
M  V30 1076 H 115.973 -1.07405 6.39037 0
M  V30 1077 N 109.379 -1.50304 -0.473955 0
M  V30 1078 C 110.342 -1.6841 -1.55469 0
M  V30 1079 C 111.342 -0.554905 -1.50922 0
M  V30 1080 O 112.532 -0.821882 -1.53593 0
M  V30 1081 C 109.664 -1.70667 -2.95102 0
M  V30 1082 H 110.857 -2.64828 -1.40733 0
M  V30 1083 H 108.41 -1.39742 -0.700132 0
M  V30 1084 H 109.145 -0.75932 -3.15285 0
M  V30 1085 H 108.93 -2.52698 -2.9981 0
M  V30 1086 H 110.42 -1.8664 -3.73571 0
M  V30 1087 N 110.857 0.726932 -1.39834 0
M  V30 1088 C 112.105 1.4837 -1.37225 0
M  V30 1089 C 112.426 1.94979 0.0284857 0
M  V30 1090 O 111.696 1.69555 0.981213 0
M  V30 1091 H 110.276 0.55043 -0.505011 0
M  V30 1092 H 112.938 0.862468 -1.74778 0
M  V30 1093 H 112.034 2.36198 -2.04003 0
M  V30 1094 N 112.336 1.25143 0.95797 0
M  V30 1095 C 113.299 1.05321 2.03569 0
M  V30 1096 C 114.299 0.007152 1.60798 0
M  V30 1097 O 115.489 0.24903 1.72411 0
M  V30 1098 C 112.621 0.598394 3.35607 0
M  V30 1099 H 113.814 2.00986 2.22586 0
M  V30 1100 H 111.367 1.07502 1.13459 0
M  V30 1101 H 112.102 -0.361014 3.22284 0
M  V30 1102 H 111.887 1.35351 3.67998 0
M  V30 1103 H 113.377 0.48104 4.1482 0
M  V30 1104 N 113.814 -1.1601 1.06675 0
M  V30 1105 C 115.06 -1.86909 0.786945 0
M  V30 1106 C 115.393 -1.81717 -0.685018 0
M  V30 1107 O 114.668 -1.23551 -1.50218 0
M  V30 1108 C 114.951 -3.36313 1.28707 0
M  V30 1109 C 114.804 -3.50175 2.82308 0
M  V30 1110 C 116.123 -4.3084 0.898071 0
M  V30 1111 H 113.242 -0.678677 0.287343 0
M  V30 1112 H 115.884 -1.36336 1.32334 0
M  V30 1113 H 114.034 -3.79513 0.830768 0
M  V30 1114 H 115.706 -3.15886 3.36175 0
M  V30 1115 H 113.949 -2.91959 3.20847 0
M  V30 1116 H 114.62 -4.55116 3.12368 0
M  V30 1117 H 117.096 -3.95561 1.29114 0
M  V30 1118 H 115.972 -5.33876 1.27543 0
M  V30 1119 H 116.233 -4.41662 -0.196651 0
M  V30 1120 N 115.292 -0.849877 -1.32721 0
M  V30 1121 C 116.242 -0.262892 -2.26479 0
M  V30 1122 C 117.226 0.588493 -1.49752 0
M  V30 1123 O 118.418 0.438659 -1.71478 0
M  V30 1124 C 115.547 0.551818 -3.38836 0
M  V30 1125 C 114.633 -0.311689 -4.22953 0
M  V30 1126 N 115.024 -1.39567 -4.86163 0
M  V30 1127 C 113.322 -0.100611 -4.45887 0
M  V30 1128 C 114.023 -1.92651 -5.48872 0
M  V30 1129 N 112.999 -1.22637 -5.29586 0
M  V30 1130 H 116.801 -1.09166 -2.72873 0
M  V30 1131 H 114.315 -0.695486 -1.46754 0
M  V30 1132 H 116.312 0.988713 -4.05006 0
M  V30 1133 H 114.972 1.37844 -2.93988 0
M  V30 1134 H 115.983 -1.77859 -4.86402 0
M  V30 1135 H 112.66 0.691681 -4.11731 0
M  V30 1136 H 114.05 -2.83487 -6.09167 0
M  V30 1137 N 116.77 1.45427 -0.607355 0
M  V30 1138 C 117.998 2.06614 -0.108814 0
M  V30 1139 C 118.413 1.45204 1.2067 0
M  V30 1140 O 117.77 0.566132 1.73497 0
M  V30 1141 C 117.821 3.61481 0.0375347 0
M  V30 1142 O 117.542 4.20598 -1.22593 0
M  V30 1143 C 119.043 4.39652 0.567561 0
M  V30 1144 H 116.263 0.66747 -0.0687351 0
M  V30 1145 H 118.807 1.86675 -0.835022 0
M  V30 1146 H 116.962 3.80762 0.714068 0
M  V30 1147 H 117.376 5.1377 -1.05547 0
M  V30 1148 H 118.85 5.48518 0.61905 0
M  V30 1149 H 119.327 4.09417 1.58978 0
M  V30 1150 H 119.933 4.25234 -0.0749202 0
M  V30 1151 N 118.248 0.346503 1.53744 0
M  V30 1152 C 119.497 -0.250122 2.00143 0
M  V30 1153 C 119.81 -1.51418 1.23822 0
M  V30 1154 O 121.016 -2.18823 1.60713 0
M  V30 1155 C 119.472 -0.496252 3.56462 0
M  V30 1156 C 119.08 0.752077 4.41642 0
M  V30 1157 C 120.824 -1.05157 4.11269 0
M  V30 1158 C 118.731 0.476583 5.89477 0
M  V30 1159 H 117.661 -0.0972409 0.747703 0
M  V30 1160 H 120.312 0.46229 1.77581 0
M  V30 1161 H 118.694 -1.26944 3.75102 0
M  V30 1162 H 119.868 1.5266 4.34778 0
M  V30 1163 H 118.183 1.22925 3.97842 0
M  V30 1164 H 120.78 -1.27269 5.19333 0
M  V30 1165 H 121.123 -2.00799 3.64672 0
M  V30 1166 H 121.656 -0.339019 3.96353 0
M  V30 1167 H 118.395 1.4028 6.40314 0
M  V30 1168 H 117.915 -0.259794 5.99237 0
M  V30 1169 H 119.594 0.0949315 6.4693 0
M  V30 1170 N 119.726 -1.57421 0.075193 0
M  V30 1171 C 120.658 -2.09904 -0.920483 0
M  V30 1172 C 121.671 -1.03191 -1.25918 0
M  V30 1173 O 122.86 -1.30695 -1.21577 0
M  V30 1174 C 119.96 -2.54726 -2.23534 0
M  V30 1175 C 119.133 -3.8505 -2.07498 0
M  V30 1176 C 118.192 -4.15929 -3.22319 0
M  V30 1177 O 117.218 -4.85474 -2.9716 0
M  V30 1178 N 118.42 -3.69745 -4.47514 0
M  V30 1179 H 121.185 -2.95954 -0.472359 0
M  V30 1180 H 118.746 -1.61523 -0.110444 0
M  V30 1181 H 120.738 -2.72443 -2.9926 0
M  V30 1182 H 119.308 -1.73795 -2.59835 0
M  V30 1183 H 118.528 -3.76679 -1.16219 0
M  V30 1184 H 119.816 -4.70348 -1.94038 0
M  V30 1185 H 119.214 -3.13569 -4.7084 0
M  V30 1186 H 117.771 -3.92655 -5.20255 0
M  V30 1187 N 121.204 0.198386 -1.56346 0
M  V30 1188 C 122.452 0.91747 -1.80075 0
M  V30 1189 C 122.773 1.83929 -0.647692 0
M  V30 1190 O 122.043 1.93029 0.334166 0
M  V30 1191 H 120.623 0.341774 -0.664228 0
M  V30 1192 H 123.285 0.204684 -1.93822 0
M  V30 1193 H 122.381 1.51055 -2.7311 0
M  V30 1194 N 122.682 1.50554 0.465978 0
M  V30 1195 C 123.612 1.72722 1.57128 0
M  V30 1196 C 124.593 0.576294 1.6004 0
M  V30 1197 O 125.778 0.81598 1.76225 0
M  V30 1198 C 122.908 1.82605 2.95419 0
M  V30 1199 C 121.862 2.97835 3.07373 0
M  V30 1200 C 121.188 2.92867 4.47363 0
M  V30 1201 C 122.488 4.38265 2.84114 0
M  V30 1202 H 124.182 2.65267 1.38829 0
M  V30 1203 H 121.728 1.2765 0.666441 0
M  V30 1204 H 123.681 1.96698 3.72677 0
M  V30 1205 H 122.405 0.866858 3.14886 0
M  V30 1206 H 121.064 2.83401 2.3255 0
M  V30 1207 H 120.712 1.94783 4.63755 0
M  V30 1208 H 120.412 3.70227 4.56296 0
M  V30 1209 H 121.936 3.09015 5.26633 0
M  V30 1210 H 123.35 4.53198 3.51118 0
M  V30 1211 H 121.747 5.17115 3.04487 0
M  V30 1212 H 122.817 4.50281 1.7993 0
M  V30 1213 N 124.16 -0.719506 1.40217 0
M  V30 1214 C 125.4 -1.49181 1.39729 0
M  V30 1215 C 125.764 -1.92 -0.00250614 0
M  V30 1216 O 126.965 -2.68473 -0.132479 0
M  V30 1217 C 125.236 -2.68767 2.35582 0
M  V30 1218 S 126.795 -3.58224 2.53418 0
M  V30 1219 H 123.613 -0.510091 0.495307 0
M  V30 1220 H 126.215 -0.841724 1.76452 0
M  V30 1221 H 124.919 -2.35475 3.36124 0
M  V30 1222 H 124.45 -3.38691 2.0013 0
M  V30 1223 H 126.465 -4.63033 1.78367 0
M  V30 1224 N 125.638 -1.25649 -0.95132 0
M  V30 1225 C 127.054 -1.02542 -1.223 0
M  V30 1226 C 127.254 0.255715 -1.99871 0
M  V30 1227 O 126.31 0.967558 -2.33226 0
M  V30 1228 C 127.623 -2.25065 -1.99415 0
M  V30 1229 C 129.171 -2.29861 -2.12446 0
M  V30 1230 C 129.646 -3.52048 -2.92961 0
M  V30 1231 N 131.137 -3.52465 -3.00538 0
M  V30 1232 C 131.872 -4.43672 -3.63239 0
M  V30 1233 N 131.368 -5.45157 -4.27523 0
M  V30 1234 N 133.161 -4.31346 -3.60412 0
M  V30 1235 H 125.312 -2.07951 -0.432471 0
M  V30 1236 H 127.575 -0.91339 -0.253816 0
M  V30 1237 H 127.281 -3.18194 -1.49817 0
M  V30 1238 H 127.155 -2.28502 -3.00111 0
M  V30 1239 H 129.542 -1.37252 -2.61239 0
M  V30 1240 H 129.623 -2.3044 -1.11044 0
M  V30 1241 H 129.267 -4.44981 -2.44856 0
M  V30 1242 H 129.197 -3.48715 -3.94596 0
M  V30 1243 H 131.688 -2.79056 -2.54826 0
M  V30 1244 H 132.001 -6.10958 -4.73234 0
M  V30 1245 H 130.346 -5.49025 -4.26141 0
M  V30 1246 H 133.537 -3.51288 -3.09377 0
M  V30 1247 H 133.71 -5.02624 -4.0899 0
M  V30 1248 N 127.117 1.15442 -1.07289 0
M  V30 1249 C 128.365 1.85845 -0.794096 0
M  V30 1250 C 128.686 1.82692 0.681809 0
M  V30 1251 O 127.956 1.26741 1.49377 0
M  V30 1252 H 126.536 0.688089 -0.290763 0
M  V30 1253 H 129.198 1.39947 -1.3565 0
M  V30 1254 H 128.294 2.91001 -1.12804 0
M  V30 1255 N 128.595 0.856903 1.32268 0
M  V30 1256 C 129.825 0.47475 2.01071 0
M  V30 1257 C 130.233 -0.933746 1.64553 0
M  V30 1258 O 129.576 -1.62114 0.863989 0
M  V30 1259 C 129.638 0.536746 3.55471 0
M  V30 1260 C 129.302 1.90453 4.15423 0
M  V30 1261 C 130.299 2.87029 4.33486 0
M  V30 1262 C 127.984 2.20229 4.51447 0
M  V30 1263 C 129.978 4.11532 4.86744 0
M  V30 1264 C 127.665 3.44984 5.0441 0
M  V30 1265 C 128.663 4.40452 5.22007 0
M  V30 1266 O 128.351 5.62998 5.73837 0
M  V30 1267 H 128.083 0.184778 0.650256 0
M  V30 1268 H 130.637 1.15615 1.69771 0
M  V30 1269 H 128.867 -0.20152 3.86175 0
M  V30 1270 H 130.556 0.169875 4.05544 0
M  V30 1271 H 131.322 2.6533 4.05986 0
M  V30 1272 H 127.201 1.46705 4.37034 0
M  V30 1273 H 130.745 4.86056 5.00395 0
M  V30 1274 H 126.642 3.66532 5.31342 0
M  V30 1275 H 127.41 5.64987 5.92226 0
M  V30 1276 N 130.073 -1.45103 0.615059 0
M  V30 1277 C 131.35 -1.95549 0.0448276 0
M  V30 1278 C 131.73 -1.55737 -1.4251 0
M  V30 1279 O 131.078 -0.823556 -2.13143 0
M  V30 1280 C 131.288 -3.48098 0.250785 0
M  V30 1281 C 132.636 -4.24384 0.135509 0
M  V30 1282 O 133.66 -3.55738 0.181299 0
M  V30 1283 O 132.519 -5.46493 0.0268878 0
M  V30 1284 H 129.613 -0.8264 -0.0314845 0
M  V30 1285 H 132.159 -1.55232 0.685642 0
M  V30 1286 H 130.931 -3.7007 1.27139 0
M  V30 1287 H 130.554 -3.95323 -0.424937 0
M  V30 1288 N 131.551 -0.354651 -1.53558 0
M  V30 1289 C 132.797 0.238797 -2.01389 0
M  V30 1290 C 133.13 1.49309 -1.2418 0
M  V30 1291 O 132.405 1.91638 -0.332457 0
M  V30 1292 C 132.688 0.541771 -3.56001 0
M  V30 1293 C 132.541 -0.725388 -4.43912 0
M  V30 1294 C 133.86 1.34685 -4.18984 0
M  V30 1295 H 130.979 0.0853177 -0.732045 0
M  V30 1296 H 133.621 -0.477384 -1.83905 0
M  V30 1297 H 131.771 1.15189 -3.71031 0
M  V30 1298 H 133.443 -1.36313 -4.407 0
M  V30 1299 H 131.686 -1.34801 -4.12324 0
M  V30 1300 H 132.357 -0.468505 -5.50008 0
M  V30 1301 H 134.833 0.830837 -4.07721 0
M  V30 1302 H 133.709 1.52759 -5.27215 0
M  V30 1303 H 133.97 2.35221 -3.74331 0
M  V30 1304 N 133.029 1.57378 -0.0835403 0
M  V30 1305 C 134.275 1.94217 0.583733 0
M  V30 1306 C 134.608 0.964653 1.68547 0
M  V30 1307 O 133.883 -0.00422258 1.945 0
M  V30 1308 C 134.166 3.41253 1.14972 0
M  V30 1309 C 134.019 4.49768 0.0538277 0
M  V30 1310 C 135.338 3.89352 2.05166 0
M  V30 1311 H 132.457 0.706233 0.210724 0
M  V30 1312 H 135.099 1.89392 -0.1519 0
M  V30 1313 H 133.249 3.45496 1.77665 0
M  V30 1314 H 134.921 4.57641 -0.579851 0
M  V30 1315 H 133.164 4.29432 -0.614068 0
M  V30 1316 H 133.835 5.49817 0.490452 0
M  V30 1317 H 136.311 3.87189 1.52393 0
M  V30 1318 H 135.187 4.92822 2.41698 0
M  V30 1319 H 135.448 3.27973 2.96456 0
M  V30 1320 N 134.507 -0.190092 1.56449 0
M  V30 1321 C 135.756 -0.907912 1.80111 0
M  V30 1322 C 136.069 -1.84214 0.657619 0
M  V30 1323 O 137.275 -2.60094 0.778663 0
M  V30 1324 C 135.731 -1.66485 3.19078 0
M  V30 1325 C 135.339 -0.7752 4.41242 0
M  V30 1326 C 137.083 -2.37201 3.52045 0
M  V30 1327 C 134.99 -1.53129 5.71231 0
M  V30 1328 H 133.92 -0.34276 0.671589 0
M  V30 1329 H 136.571 -0.161109 1.82791 0
M  V30 1330 H 134.953 -2.45572 3.10661 0
M  V30 1331 H 136.127 -0.0226298 4.60794 0
M  V30 1332 H 134.442 -0.178627 4.16017 0
M  V30 1333 H 137.039 -2.94329 4.46402 0
M  V30 1334 H 137.382 -3.11632 2.76028 0
M  V30 1335 H 137.915 -1.65075 3.61932 0
M  V30 1336 H 134.654 -0.82967 6.50228 0
M  V30 1337 H 134.174 -2.25767 5.55688 0
M  V30 1338 H 135.853 -2.08377 6.12526 0
M  V30 1339 N 135.985 -1.50799 -0.457987 0
M  V30 1340 C 136.915 -1.73553 -1.5621 0
M  V30 1341 C 137.896 -0.584774 -1.59732 0
M  V30 1342 O 139.081 -0.825314 -1.7579 0
M  V30 1343 C 136.211 -1.84169 -2.94447 0
M  V30 1344 C 135.165 -2.99461 -3.0579 0
M  V30 1345 C 134.491 -2.95235 -4.45803 0
M  V30 1346 C 135.791 -4.39766 -2.81786 0
M  V30 1347 H 137.485 -2.66 -1.37421 0
M  V30 1348 H 135.031 -1.28002 -0.659662 0
M  V30 1349 H 136.984 -1.98672 -3.71628 0
M  V30 1350 H 135.708 -0.883545 -3.14422 0
M  V30 1351 H 134.367 -2.8463 -2.31044 0
M  V30 1352 H 134.015 -1.97239 -4.62715 0
M  V30 1353 H 133.715 -3.72642 -4.54326 0
M  V30 1354 H 135.239 -3.11803 -5.24987 0
M  V30 1355 H 136.653 -4.55054 -3.4871 0
M  V30 1356 H 135.05 -5.18722 -3.0174 0
M  V30 1357 H 136.12 -4.51229 -1.7754 0
M  V30 1358 N 137.463 0.71206 -1.40597 0
M  V30 1359 C 138.74 1.46536 -1.29563 0
M  V30 1360 C 139.12 2.10931 0.0844217 0
M  V30 1361 O 138.468 2.00418 1.0975 0
M  V30 1362 C 138.678 2.49821 -2.43701 0
M  V30 1363 C 140.026 3.15551 -2.841 0
M  V30 1364 O 141.05 2.60142 -2.4332 0
M  V30 1365 O 139.909 4.15867 -3.54566 0
M  V30 1366 H 137.003 0.651801 -0.509004 0
M  V30 1367 H 139.549 0.743935 -1.52524 0
M  V30 1368 H 138.321 2.00778 -3.35863 0
M  V30 1369 H 137.944 3.29495 -2.22528 0
M  V30 1370 N 138.941 1.26152 0.944643 0
M  V30 1371 C 140.357 1.03189 1.21754 0
M  V30 1372 C 140.557 -0.245112 2.00004 0
M  V30 1373 O 139.613 -0.955176 2.33736 0
M  V30 1374 C 140.926 2.26119 1.98219 0
M  V30 1375 C 142.474 2.30984 2.11224 0
M  V30 1376 C 142.949 3.53597 2.91089 0
M  V30 1377 N 144.44 3.54053 2.98664 0
M  V30 1378 C 145.175 4.45593 3.60881 0
M  V30 1379 N 144.671 5.47416 4.24626 0
M  V30 1380 N 146.464 4.33252 3.58119 0
M  V30 1381 H 138.615 2.08177 0.421437 0
M  V30 1382 H 140.878 0.914723 0.248969 0
M  V30 1383 H 140.584 3.18984 1.48128 0
M  V30 1384 H 140.458 2.3009 2.98895 0
M  V30 1385 H 142.845 1.38635 2.60508 0
M  V30 1386 H 142.926 2.31026 1.09821 0
M  V30 1387 H 142.57 4.46273 2.42493 0
M  V30 1388 H 142.5 3.50802 3.92741 0
M  V30 1389 H 144.991 2.80403 2.53343 0
M  V30 1390 H 145.304 6.13459 4.69987 0
M  V30 1391 H 143.649 5.51278 4.23223 0
M  V30 1392 H 146.84 3.52924 3.0751 0
M  V30 1393 H 147.013 5.04786 4.06319 0
M  V30 1394 N 140.419 -1.14872 1.07899 0
M  V30 1395 C 141.649 -1.89386 0.825631 0
M  V30 1396 C 142.057 -1.78565 -0.625406 0
M  V30 1397 O 141.4 -1.13918 -1.44113 0
M  V30 1398 C 141.462 -3.40206 1.16191 0
M  V30 1399 C 141.126 -3.74812 2.61467 0
M  V30 1400 C 142.123 -3.75367 3.59716 0
M  V30 1401 C 139.808 -4.0495 2.97189 0
M  V30 1402 C 141.802 -4.05574 4.9172 0
M  V30 1403 C 139.489 -4.34821 4.29388 0
M  V30 1404 C 140.487 -4.35116 5.26463 0
M  V30 1405 O 140.175 -4.64267 6.56286 0
M  V30 1406 H 139.907 -0.606894 0.297751 0
M  V30 1407 H 142.461 -1.46438 1.44031 0
M  V30 1408 H 140.691 -3.8358 0.490214 0
M  V30 1409 H 142.38 -3.96018 0.890193 0
M  V30 1410 H 143.146 -3.52176 3.33462 0
M  V30 1411 H 139.025 -4.03876 2.22273 0
M  V30 1412 H 142.569 -4.05719 5.67484 0
M  V30 1413 H 138.466 -4.5748 4.55392 0
M  V30 1414 H 139.234 -4.82007 6.61522 0
M  V30 1415 N 141.898 -0.863906 -1.31812 0
M  V30 1416 C 143.144 -0.472535 -1.97218 0
M  V30 1417 C 143.477 0.971394 -1.68159 0
M  V30 1418 O 142.752 1.68309 -0.974798 0
M  V30 1419 C 143.035 -0.723054 -3.52766 0
M  V30 1420 C 142.888 -2.21608 -3.91421 0
M  V30 1421 C 144.207 -0.185522 -4.39709 0
M  V30 1422 H 141.326 -0.173158 -0.71637 0
M  V30 1423 H 143.968 -1.08403 -1.56041 0
M  V30 1424 H 142.118 -0.202577 -3.87971 0
M  V30 1425 H 143.79 -2.80334 -3.66347 0
M  V30 1426 H 142.033 -2.691 -3.40246 0
M  V30 1427 H 142.704 -2.34203 -4.99853 0
M  V30 1428 H 145.18 -0.630726 -4.11292 0
M  V30 1429 H 144.056 -0.390306 -5.47511 0
M  V30 1430 H 144.317 0.912229 -4.32586 0
M  V30 1431 N 143.376 1.44774 -0.622745 0
M  V30 1432 C 144.339 2.29069 0.0774015 0
M  V30 1433 C 145.339 1.4059 0.780461 0
M  V30 1434 O 146.529 1.62551 0.626322 0
M  V30 1435 C 143.661 3.21974 1.12006 0
M  V30 1436 H 144.854 2.92459 -0.663901 0
M  V30 1437 H 142.407 1.51548 -0.382486 0
M  V30 1438 H 143.142 2.63417 1.89162 0
M  V30 1439 H 142.927 3.87168 0.619951 0
M  V30 1440 H 144.417 3.85318 1.60995 0
M  V30 1441 N 144.854 0.36279 1.53368 0
M  V30 1442 C 146.079 -0.231226 2.06107 0
M  V30 1443 C 146.504 -1.419 1.23474 0
M  V30 1444 O 145.862 -1.79524 0.253128 0
M  V30 1445 C 145.91 -0.605523 3.5548 0
M  V30 1446 O 145.014 -1.70312 3.7559 0
M  V30 1447 H 144.355 -0.034327 0.663112 0
M  V30 1448 H 146.885 0.522584 1.97814 0
M  V30 1449 H 146.895 -0.877314 3.98456 0
M  V30 1450 H 145.57 0.263004 4.15068 0
M  V30 1451 H 144.147 -1.4271 3.44512 0
M  V30 1452 N 146.332 -1.57332 0.0918853 0
M  V30 1453 C 147.28 -2.15075 -0.885747 0
M  V30 1454 C 148.274 -1.09277 -1.29441 0
M  V30 1455 O 149.48 -1.27627 -1.26931 0
M  V30 1456 H 145.855 -0.687966 -0.303656 0
M  V30 1457 H 147.826 -2.96047 -0.373995 0
M  V30 1458 C 146.575 -2.74325 -2.13638 0
M  V30 1459 H 145.898 -3.55418 -1.8308 0
M  V30 1460 H 147.338 -3.183 -2.80109 0
M  V30 1461 C 145.797 -1.70062 -2.90827 0
M  V30 1462 O 146.327 -1.13763 -3.85254 0
M  V30 1463 N 144.533 -1.40628 -2.54307 0
M  V30 1464 H 144.08 -1.866 -1.7759 0
M  V30 1465 H 144.038 -0.711043 -3.06254 0
M  V30 1466 N 147.81 0.181792 -1.56548 0
M  V30 1467 C 148.773 1.20894 -1.94724 0
M  V30 1468 C 149.773 1.37738 -0.829747 0
M  V30 1469 O 150.963 1.35323 -1.09697 0
M  V30 1470 C 148.095 2.57593 -2.23291 0
M  V30 1471 H 149.288 0.882275 -2.86629 0
M  V30 1472 H 146.841 0.423838 -1.50444 0
M  V30 1473 H 147.576 2.95291 -1.34067 0
M  V30 1474 H 147.361 2.46735 -3.04736 0
M  V30 1475 H 148.851 3.31637 -2.53785 0
M  V30 1476 N 149.288 1.51039 0.449983 0
M  V30 1477 C 150.251 1.70863 1.5277 0
M  V30 1478 C 151.251 0.578846 1.5002 0
M  V30 1479 O 152.441 0.846213 1.52266 0
M  V30 1480 C 149.573 1.75341 2.9235 0
M  V30 1481 H 150.766 2.67034 1.36502 0
M  V30 1482 H 148.319 1.40838 0.677812 0
M  V30 1483 H 149.054 0.809383 3.14037 0
M  V30 1484 H 148.839 2.57436 2.95752 0
M  V30 1485 H 150.329 1.92559 3.70555 0
M  V30 1486 N 150.766 -0.704594 1.40972 0
M  V30 1487 C 151.996 -1.49138 1.42974 0
M  V30 1488 C 152.404 -1.89175 0.0308406 0
M  V30 1489 O 151.747 -1.56734 -0.958138 0
M  V30 1490 C 151.809 -2.79016 2.26694 0
M  V30 1491 C 151.473 -2.61236 3.74973 0
M  V30 1492 C 152.47 -2.27773 4.67349 0
M  V30 1493 C 150.155 -2.77158 4.18914 0
M  V30 1494 C 152.149 -2.10457 6.01653 0
M  V30 1495 C 149.836 -2.59459 5.53285 0
M  V30 1496 C 150.834 -2.26158 6.4447 0
M  V30 1497 O 150.522 -2.08605 7.76363 0
M  V30 1498 H 150.254 -0.466443 0.489292 0
M  V30 1499 H 152.808 -0.8758 1.85793 0
M  V30 1500 H 151.038 -3.42947 1.78673 0
M  V30 1501 H 152.727 -3.40782 2.20504 0
M  V30 1502 H 153.493 -2.15095 4.34694 0
M  V30 1503 H 149.372 -3.02064 3.48251 0
M  V30 1504 H 152.916 -1.84387 6.72791 0
M  V30 1505 H 148.813 -2.71725 5.85522 0
M  V30 1506 H 149.581 -2.23439 7.87412 0
M  V30 1507 N 152.244 -1.26651 -0.937939 0
M  V30 1508 C 153.469 -1.15279 -1.72411 0
M  V30 1509 C 153.894 0.287866 -1.85884 0
M  V30 1510 O 153.252 1.20855 -1.35143 0
M  V30 1511 C 153.3 -1.83028 -3.10698 0
M  V30 1512 O 152.404 -1.12128 -3.96864 0
M  V30 1513 H 151.745 -0.401504 -0.528858 0
M  V30 1514 H 154.275 -1.67531 -1.1745 0
M  V30 1515 H 154.285 -1.89981 -3.6107 0
M  V30 1516 H 152.96 -2.87833 -3.00208 0
M  V30 1517 H 151.537 -1.13173 -3.55312 0
M  V30 1518 N 153.722 1.14298 -1.08507 0
M  V30 1519 C 154.685 2.17607 -0.719711 0
M  V30 1520 C 155.685 1.58907 0.245997 0
M  V30 1521 O 156.875 1.74181 0.0254081 0
M  V30 1522 C 154.007 3.40842 -0.0627695 0
M  V30 1523 H 155.2 2.51443 -1.63452 0
M  V30 1524 H 152.753 1.28963 -0.88307 0
M  V30 1525 H 153.488 3.12587 0.863716 0
M  V30 1526 H 153.273 3.84713 -0.757504 0
M  V30 1527 H 154.763 4.17221 0.177786 0
M  V30 1528 N 155.201 0.870884 1.31352 0
M  V30 1529 C 156.164 0.332243 2.26779 0
M  V30 1530 C 157.164 -0.517302 1.52252 0
M  V30 1531 O 158.354 -0.326477 1.71113 0
M  V30 1532 C 155.486 -0.528066 3.36785 0
M  V30 1533 H 156.679 1.17469 2.75937 0
M  V30 1534 H 154.232 0.64655 1.423 0
M  V30 1535 H 154.967 -1.39167 2.92922 0
M  V30 1536 H 154.752 0.0802582 3.92018 0
M  V30 1537 H 156.242 -0.897179 4.07849 0
M  V30 1538 N 156.679 -1.44442 0.630414 0
M  V30 1539 C 158.095 -1.56832 0.295973 0
M  V30 1540 C 158.295 -1.61806 -1.20088 0
M  V30 1541 O 157.351 -1.5607 -1.9849 0
M  V30 1542 C 158.664 -2.84031 0.987264 0
M  V30 1543 C 160.212 -2.97742 0.96534 0
M  V30 1544 C 160.687 -4.27743 1.63708 0
M  V30 1545 N 162.178 -4.34555 1.60364 0
M  V30 1546 C 162.913 -5.33862 2.09234 0
M  V30 1547 N 162.409 -6.39578 2.66292 0
M  V30 1548 N 164.202 -5.25366 1.99867 0
M  V30 1549 H 156.353 -1.39457 1.60205 0
M  V30 1550 H 158.616 -0.668237 0.672431 0
M  V30 1551 H 158.322 -2.86338 2.04215 0
M  V30 1552 H 158.196 -3.73534 0.524588 0
M  V30 1553 H 160.583 -2.94989 -0.0810639 0
M  V30 1554 H 160.664 -2.09589 1.4665 0
M  V30 1555 H 160.308 -4.31255 2.68293 0
M  V30 1556 H 160.238 -5.14752 1.11076 0
M  V30 1557 H 162.729 -3.58772 1.18705 0
M  V30 1558 H 163.042 -7.11637 3.01317 0
M  V30 1559 H 161.387 -6.40265 2.70343 0
M  V30 1560 H 164.578 -4.41688 1.55013 0
M  V30 1561 H 164.751 -6.02606 2.38265 0
M  V30 1562 N 158.157 -0.370918 -1.53173 0
M  V30 1563 C 159.087 0.464847 -2.28826 0
M  V30 1564 C 160.068 1.07936 -1.31468 0
M  V30 1565 O 161.253 1.0956 -1.60344 0
M  V30 1566 C 158.383 1.60196 -3.08147 0
M  V30 1567 C 157.337 1.11443 -4.13237 0
M  V30 1568 C 156.663 2.3422 -4.80672 0
M  V30 1569 C 157.963 0.195384 -5.21934 0
M  V30 1570 H 159.657 -0.166329 -2.98938 0
M  V30 1571 H 157.203 -0.0814359 -1.4377 0
M  V30 1572 H 159.156 2.19332 -3.59822 0
M  V30 1573 H 157.88 2.26045 -2.35735 0
M  V30 1574 H 156.539 0.545727 -3.62515 0
M  V30 1575 H 156.187 2.98537 -4.04827 0
M  V30 1576 H 155.887 2.02269 -5.51689 0
M  V30 1577 H 157.411 2.94032 -5.35143 0
M  V30 1578 H 158.825 0.694375 -5.69079 0
M  V30 1579 H 157.222 -0.0335027 -6.00091 0
M  V30 1580 H 158.292 -0.760961 -4.78892 0
M  V30 1581 N 159.635 1.57281 -0.100228 0
M  V30 1582 C 160.585 2.10848 0.86759 0
M  V30 1583 C 161.569 1.02473 1.24049 0
M  V30 1584 O 162.761 1.28739 1.21471 0
M  V30 1585 C 159.89 2.69648 2.12474 0
M  V30 1586 C 158.976 3.85074 1.77704 0
M  V30 1587 N 159.367 4.92897 1.13518 0
M  V30 1588 C 157.665 3.94905 2.07282 0
M  V30 1589 C 158.366 5.73475 0.974735 0
M  V30 1590 N 157.342 5.22675 1.4937 0
M  V30 1591 H 161.144 2.91594 0.367471 0
M  V30 1592 H 158.658 1.62074 0.102829 0
M  V30 1593 H 160.655 3.06356 2.82757 0
M  V30 1594 H 159.315 1.90359 2.63047 0
M  V30 1595 H 160.326 5.11662 0.801381 0
M  V30 1596 H 157.003 3.26633 2.60033 0
M  V30 1597 H 158.393 6.70238 0.472364 0
M  V30 1598 N 161.113 -0.173488 1.56642 0
M  V30 1599 C 162.023 -1.23482 1.99473 0
M  V30 1600 C 163.039 -1.48567 0.905752 0
M  V30 1601 O 164.215 -1.60758 1.21321 0
M  V30 1602 C 161.28 -2.55444 2.34413 0
M  V30 1603 C 160.341 -2.38241 3.57127 0
M  V30 1604 C 159.574 -3.63909 3.90392 0
M  V30 1605 O 159.797 -4.68996 3.24653 0
M  V30 1606 O 158.731 -3.58149 4.83749 0
M  V30 1607 H 162.557 -0.901279 2.90018 0
M  V30 1608 H 160.142 -0.380185 1.44482 0
M  V30 1609 H 162.024 -3.33292 2.57865 0
M  V30 1610 H 160.699 -2.88382 1.4703 0
M  V30 1611 H 159.606 -1.58431 3.38896 0
M  V30 1612 H 160.939 -2.10228 4.45045 0
M  V30 1613 N 162.591 -1.51276 -0.441967 0
M  V30 1614 C 163.539 -1.72823 -1.55676 0
M  V30 1615 C 164.533 -0.59445 -1.58627 0
M  V30 1616 O 165.739 -0.775715 -1.62427 0
M  V30 1617 H 162.114 -0.545983 -0.517113 0
M  V30 1618 H 164.085 -2.6628 -1.34675 0
M  V30 1619 C 162.834 -1.86619 -2.93375 0
M  V30 1620 H 162.157 -2.73264 -2.91834 0
M  V30 1621 H 163.597 -2.05709 -3.70756 0
M  V30 1622 C 162.056 -0.624842 -3.31055 0
M  V30 1623 O 162.586 0.222636 -4.01083 0
M  V30 1624 N 160.792 -0.470288 -2.86769 0
M  V30 1625 H 160.339 -1.161 -2.29953 0
M  V30 1626 H 160.297 0.359051 -3.12343 0
M  V30 1627 N 164.069 0.697108 -1.41344 0
M  V30 1628 C 165.032 1.79281 -1.42797 0
M  V30 1629 C 166.032 1.57607 -0.318837 0
M  V30 1630 O 167.222 1.64309 -0.578642 0
M  V30 1631 C 164.354 3.17632 -1.23785 0
M  V30 1632 H 165.547 1.79385 -2.40335 0
M  V30 1633 H 163.1 0.904582 -1.27464 0
M  V30 1634 H 163.835 3.23167 -0.270814 0
M  V30 1635 H 163.62 3.34765 -2.04144 0
M  V30 1636 H 165.11 3.97617 -1.27633 0
M  V30 1637 N 165.547 1.27147 0.931209 0
M  V30 1638 C 166.51 1.09615 2.01289 0
M  V30 1639 C 167.51 0.0412581 1.60747 0
M  V30 1640 O 168.7 0.285545 1.71844 0
M  V30 1641 C 165.832 0.669447 3.34262 0
M  V30 1642 H 167.025 2.05662 2.18273 0
M  V30 1643 H 164.578 1.09885 1.11153 0
M  V30 1644 H 165.313 -0.292572 3.22978 0
M  V30 1645 H 165.098 1.43127 3.65044 0
M  V30 1646 H 166.588 0.568921 4.13706 0
M  V30 1647 N 167.025 -1.13721 1.09112 0
M  V30 1648 C 168.273 -1.84559 0.823562 0
M  V30 1649 C 168.594 -1.83754 -0.652658 0
M  V30 1650 O 167.864 -1.29102 -1.47342 0
M  V30 1651 H 166.444 -0.683376 0.301673 0
M  V30 1652 H 169.106 -1.37771 1.37859 0
M  V30 1653 H 168.202 -2.8917 1.17419 0
M  V30 1654 N 168.503 -0.877838 -1.30888 0
M  V30 1655 C 169.45 -0.337538 -2.28318 0
M  V30 1656 C 170.42 0.568346 -1.56074 0
M  V30 1657 O 171.605 0.498298 -1.84178 0
M  V30 1658 C 168.745 0.448142 -3.42178 0
M  V30 1659 C 167.858 -0.48615 -4.29256 0
M  V30 1660 C 166.993 0.314427 -5.30269 0
M  V30 1661 C 166.032 -0.615791 -6.08995 0
M  V30 1662 N 165.169 0.14902 -7.01942 0
M  V30 1663 H 170.009 -1.17356 -2.73919 0
M  V30 1664 H 167.546 -0.590094 -1.34745 0
M  V30 1665 H 169.504 0.919517 -4.06941 0
M  V30 1666 H 168.134 1.24879 -2.97666 0
M  V30 1667 H 167.186 -1.076 -3.64865 0
M  V30 1668 H 168.498 -1.19909 -4.84173 0
M  V30 1669 H 167.652 0.847969 -6.00745 0
M  V30 1670 H 166.391 1.06062 -4.76027 0
M  V30 1671 H 165.396 -1.16102 -5.37401 0
M  V30 1672 H 166.621 -1.36097 -6.65323 0
M  V30 1673 H 164.567 0.877884 -6.50099 0
M  V30 1674 H 164.484 -0.504433 -7.54315 0
M  V30 1675 H 165.752 0.663537 -7.76671 0
M  V30 1676 N 169.982 1.44106 -0.638065 0
M  V30 1677 C 170.945 2.29138 0.0531013 0
M  V30 1678 C 171.945 1.41409 0.765506 0
M  V30 1679 O 173.135 1.63206 0.609046 0
M  V30 1680 C 170.267 3.23144 1.08584 0
M  V30 1681 H 171.46 2.91739 -0.694883 0
M  V30 1682 H 169.013 1.51134 -0.398538 0
M  V30 1683 H 169.748 2.65408 1.86357 0
M  V30 1684 H 169.533 3.87804 0.578852 0
M  V30 1685 H 171.023 3.87004 1.56899 0
M  V30 1686 N 171.46 0.379036 1.52974 0
M  V30 1687 C 172.423 -0.448865 2.24762 0
M  V30 1688 C 173.423 -0.998689 1.26027 0
M  V30 1689 O 174.613 -0.882313 1.50203 0
M  V30 1690 C 171.745 -1.62872 2.99476 0
M  V30 1691 H 172.938 0.179491 2.99362 0
M  V30 1692 H 170.491 0.13096 1.5575 0
M  V30 1693 H 171.226 -2.29479 2.29151 0
M  V30 1694 H 171.011 -1.24128 3.71934 0
M  V30 1695 H 172.501 -2.2151 3.5401 0
M  V30 1696 N 172.938 -1.57226 0.108567 0
M  V30 1697 C 173.901 -2.13602 -0.831082 0
M  V30 1698 C 174.901 -1.06841 -1.20173 0
M  V30 1699 O 176.091 -1.32666 -1.12895 0
M  V30 1700 C 173.223 -2.66769 -2.12243 0
M  V30 1701 H 174.416 -2.97951 -0.341317 0
M  V30 1702 H 171.969 -1.55667 -0.14057 0
M  V30 1703 H 172.704 -1.85977 -2.65675 0
M  V30 1704 H 172.489 -3.44839 -1.86625 0
M  V30 1705 H 173.979 -3.10332 -2.79435 0
M  V30 1706 N 174.416 0.165178 -1.56732 0
M  V30 1707 C 175.662 0.877389 -1.83503 0
M  V30 1708 C 176.017 1.79602 -0.689996 0
M  V30 1709 O 175.31 1.89023 0.313205 0
M  V30 1710 C 175.504 1.70405 -3.1416 0
M  V30 1711 C 175.333 0.866961 -4.41264 0
M  V30 1712 C 174.103 0.539646 -5.0241 0
M  V30 1713 C 176.301 0.205671 -5.13889 0
M  V30 1714 N 174.283 -0.312946 -6.13102 0
M  V30 1715 C 175.654 -0.507823 -6.17917 0
M  V30 1716 C 177.709 0.124468 -4.97744 0
M  V30 1717 C 176.412 -1.29483 -7.0755 0
M  V30 1718 C 178.438 -0.649222 -5.87826 0
M  V30 1719 C 177.8 -1.35106 -6.91322 0
M  V30 1720 H 173.899 0.299477 -0.722383 0
M  V30 1721 H 176.483 0.143949 -1.94167 0
M  V30 1722 H 174.654 2.40887 -3.04677 0
M  V30 1723 H 176.386 2.35804 -3.28905 0
M  V30 1724 H 173.141 0.871176 -4.65519 0
M  V30 1725 H 173.565 -0.729731 -6.73056 0
M  V30 1726 H 178.207 0.652724 -4.17731 0
M  V30 1727 H 175.925 -1.83441 -7.87004 0
M  V30 1728 H 179.511 -0.713804 -5.77405 0
M  V30 1729 H 178.391 -1.94013 -7.59821 0
M  V30 1730 N 175.894 1.51508 0.433938 0
M  V30 1731 C 177.14 1.64588 1.18484 0
M  V30 1732 C 177.473 0.362666 1.90784 0
M  V30 1733 O 176.748 -0.637892 1.83742 0
M  V30 1734 C 177.031 2.85149 2.19913 0
M  V30 1735 C 176.884 4.23456 1.51674 0
M  V30 1736 C 178.203 3.01227 3.20858 0
M  V30 1737 H 175.322 0.598994 0.429389 0
M  V30 1738 H 177.964 1.84002 0.473647 0
M  V30 1739 H 176.114 2.68729 2.80566 0
M  V30 1740 H 177.786 4.51552 0.943322 0
M  V30 1741 H 176.029 4.25998 0.819035 0
M  V30 1742 H 176.7 5.03812 2.2556 0
M  V30 1743 H 179.176 3.16382 2.70263 0
M  V30 1744 H 178.052 3.87141 3.89118 0
M  V30 1745 H 178.313 2.13447 3.8716 0
M  V30 1746 N 177.372 -0.689602 1.41712 0
M  V30 1747 C 178.304 -1.815 1.39966 0
M  V30 1748 C 179.317 -1.59995 0.300917 0
M  V30 1749 O 180.506 -1.69387 0.563039 0
M  V30 1750 C 177.606 -3.18364 1.16179 0
M  V30 1751 C 176.779 -3.66847 2.38206 0
M  V30 1752 C 175.838 -4.82398 2.10186 0
M  V30 1753 O 174.864 -4.93706 2.83272 0
M  V30 1754 N 176.066 -5.70064 1.0958 0
M  V30 1755 H 178.831 -1.83488 2.36965 0
M  V30 1756 H 176.392 -0.872149 1.36401 0
M  V30 1757 H 178.384 -3.93301 0.953756 0
M  V30 1758 H 176.954 -3.11365 0.27756 0
M  V30 1759 H 176.174 -2.82751 2.74673 0
M  V30 1760 H 177.462 -3.95978 3.19498 0
M  V30 1761 H 176.86 -5.63565 0.491019 0
M  V30 1762 H 175.417 -6.44874 0.947656 0
M  V30 1763 N 178.85 -1.27639 -0.924453 0
M  V30 1764 C 180.266 -1.05113 -1.20097 0
M  V30 1765 C 180.466 0.213262 -2.00368 0
M  V30 1766 O 179.522 0.91787 -2.35226 0
M  V30 1767 C 180.835 -2.29244 -1.94596 0
M  V30 1768 C 182.383 -2.34315 -2.07522 0
M  V30 1769 C 182.858 -3.58183 -2.85427 0
M  V30 1770 N 184.349 -3.5876 -2.92994 0
M  V30 1771 C 185.084 -4.51277 -3.53746 0
M  V30 1772 N 184.58 -5.54102 -4.15863 0
M  V30 1773 N 186.373 -4.38894 -3.51181 0
M  V30 1774 H 178.524 -2.08821 -0.388264 0
M  V30 1775 H 180.787 -0.918568 -0.234385 0
M  V30 1776 H 180.493 -3.21301 -1.43034 0
M  V30 1777 H 180.367 -2.34816 -2.95197 0
M  V30 1778 H 182.754 -1.42762 -2.58269 0
M  V30 1779 H 182.835 -2.32744 -1.06131 0
M  V30 1780 H 182.479 -4.50074 -2.35363 0
M  V30 1781 H 182.409 -3.57006 -3.8711 0
M  V30 1782 H 184.9 -2.84398 -2.4885 0
M  V30 1783 H 185.213 -6.20859 -4.60168 0
M  V30 1784 H 183.558 -5.57941 -4.144 0
M  V30 1785 H 186.749 -3.57772 -3.01856 0
M  V30 1786 H 186.922 -5.11186 -3.98237 0
M  V30 1787 N 180.328 1.1314 -1.09713 0
M  V30 1788 C 181.577 1.83838 -0.829851 0
M  V30 1789 C 181.89 1.84599 0.646728 0
M  V30 1790 O 183.096 2.51218 1.02965 0
M  V30 1791 C 181.552 3.30069 -1.43466 0
M  V30 1792 C 181.16 3.37688 -2.94399 0
M  V30 1793 C 182.904 4.05788 -1.24645 0
M  V30 1794 C 180.811 4.78209 -3.47952 0
M  V30 1795 H 179.741 0.68877 -0.306777 0
M  V30 1796 H 182.392 1.27448 -1.3202 0
M  V30 1797 H 180.774 3.8628 -0.871996 0
M  V30 1798 H 181.948 2.91456 -3.56918 0
M  V30 1799 H 180.263 2.75436 -3.12289 0
M  V30 1800 H 182.86 5.09535 -1.62107 0
M  V30 1801 H 183.203 4.15878 -0.187357 0
M  V30 1802 H 183.736 3.55915 -1.77678 0
M  V30 1803 H 180.475 4.73311 -4.53495 0
M  V30 1804 H 179.995 5.24924 -2.90198 0
M  V30 1805 H 181.674 5.47133 -3.45332 0
M  V30 1806 N 181.806 0.884767 1.30421 0
M  V30 1807 C 182.716 0.355398 2.31892 0
M  V30 1808 C 183.732 -0.542261 1.65335 0
M  V30 1809 O 184.908 -0.435432 1.96637 0
M  V30 1810 C 181.973 -0.421661 3.44126 0
M  V30 1811 C 181.034 0.505727 4.26311 0
M  V30 1812 C 180.267 -0.234343 5.33185 0
M  V30 1813 O 180.49 -1.46045 5.51386 0
M  V30 1814 O 179.424 0.415443 6.00465 0
M  V30 1815 H 183.25 1.19685 2.79122 0
M  V30 1816 H 180.835 0.648596 1.34587 0
M  V30 1817 H 182.717 -0.861641 4.12497 0
M  V30 1818 H 181.392 -1.23942 2.99032 0
M  V30 1819 H 180.299 0.994513 3.60639 0
M  V30 1820 H 181.632 1.28948 4.75009 0
M  V30 1821 N 183.284 -1.43765 0.645699 0
M  V30 1822 C 184.531 -2.01898 0.15604 0
M  V30 1823 C 184.859 -1.50887 -1.22733 0
M  V30 1824 O 184.114 -0.689271 -1.8316 0
M  V30 1825 C 184.413 -3.57238 0.107679 0
M  V30 1826 C 184.079 -4.27564 1.43178 0
M  V30 1827 C 182.741 -4.46492 1.7944 0
M  V30 1828 C 185.093 -4.67454 2.30513 0
M  V30 1829 C 182.421 -5.02573 3.02716 0
M  V30 1830 C 184.773 -5.24901 3.53074 0
M  V30 1831 C 183.437 -5.42046 3.89541 0
M  V30 1832 H 182.707 -0.738797 0.057099 0
M  V30 1833 H 185.354 -1.72341 0.834912 0
M  V30 1834 H 183.659 -3.86293 -0.654618 0
M  V30 1835 H 185.356 -3.99965 -0.287938 0
M  V30 1836 H 181.946 -4.13171 1.13963 0
M  V30 1837 H 186.13 -4.5253 2.0379 0
M  V30 1838 H 181.386 -5.14033 3.31028 0
M  V30 1839 H 185.56 -5.54758 4.20971 0
M  V30 1840 H 183.187 -5.85268 4.85145 0
M  V30 1841 N 184.763 -0.387143 -1.52771 0
M  V30 1842 C 185.726 0.436939 -2.24997 0
M  V30 1843 C 186.726 0.991991 -1.26555 0
M  V30 1844 O 187.916 0.874335 -1.50669 0
M  V30 1845 C 185.048 1.61281 -3.00335 0
M  V30 1846 H 186.241 -0.195365 -2.99263 0
M  V30 1847 H 183.794 -0.139218 -1.55679 0
M  V30 1848 H 184.529 2.2826 -2.30364 0
M  V30 1849 H 184.314 1.22154 -3.72587 0
M  V30 1850 H 185.804 2.19629 -3.5518 0
M  V30 1851 N 186.241 1.57166 -0.116904 0
M  V30 1852 C 187.657 1.5779 0.239693 0
M  V30 1853 C 187.857 1.1295 1.66867 0
M  V30 1854 O 186.913 0.81592 2.38954 0
M  V30 1855 C 188.226 3.00699 0.00828202 0
M  V30 1856 C 189.774 3.12912 0.0743438 0
M  V30 1857 C 190.249 4.57817 -0.129348 0
M  V30 1858 N 191.74 4.63139 -0.075247 0
M  V30 1859 C 192.475 5.73023 -0.207788 0
M  V30 1860 N 191.971 6.91665 -0.396382 0
M  V30 1861 N 193.764 5.61906 -0.14751 0
M  V30 1862 H 185.915 1.84615 -1.05029 0
M  V30 1863 H 188.178 0.85311 -0.41341 0
M  V30 1864 H 187.884 3.37784 -0.979531 0
M  V30 1865 H 187.758 3.69848 0.741077 0
M  V30 1866 H 190.145 2.75686 1.05268 0
M  V30 1867 H 190.226 2.4631 -0.690297 0
M  V30 1868 H 189.87 4.95742 -1.10465 0
M  V30 1869 H 189.8 5.22507 0.655253 0
M  V30 1870 H 192.291 3.7784 0.0670898 0
M  V30 1871 H 192.604 7.71255 -0.488437 0
M  V30 1872 H 190.949 6.93654 -0.432329 0
M  V30 1873 H 194.14 4.681 -0.00115036 0
M  V30 1874 H 194.313 6.47501 -0.254247 0
M  V30 1875 N 187.719 -0.156864 1.56817 0
M  V30 1876 C 188.649 -1.19589 2.00551 0
M  V30 1877 C 189.63 -1.4536 0.883426 0
M  V30 1878 O 190.815 -1.56449 1.15054 0
M  V30 1879 C 187.945 -2.53143 2.37773 0
M  V30 1880 C 186.899 -2.41913 3.53075 0
M  V30 1881 C 186.225 -3.80088 3.76081 0
M  V30 1882 C 187.525 -1.91157 4.86062 0
M  V30 1883 H 189.219 -0.832293 2.87599 0
M  V30 1884 H 186.765 -0.398918 1.38364 0
M  V30 1885 H 188.718 -3.26047 2.66967 0
M  V30 1886 H 187.442 -2.91319 1.4765 0
M  V30 1887 H 186.101 -1.71462 3.24031 0
M  V30 1888 H 185.749 -4.15683 2.83225 0
M  V30 1889 H 185.449 -3.73439 4.53671 0
M  V30 1890 H 186.973 -4.54556 4.0769 0
M  V30 1891 H 188.387 -2.53846 5.14038 0
M  V30 1892 H 186.784 -1.95422 5.67389 0
M  V30 1893 H 187.854 -0.866673 4.77092 0
M  V30 1894 N 189.197 -1.51736 -0.425897 0
M  V30 1895 C 190.445 -1.64644 -1.17204 0
M  V30 1896 C 190.766 -0.370486 -1.91448 0
M  V30 1897 O 190.036 0.614088 -1.86026 0
M  V30 1898 H 188.616 -0.606819 -0.435638 0
M  V30 1899 H 191.278 -1.88713 -0.487177 0
M  V30 1900 H 190.374 -2.47958 -1.89534 0
M  V30 1901 N 190.675 0.682077 -1.42076 0
M  V30 1902 C 191.605 1.80796 -1.47767 0
M  V30 1903 C 192.586 1.6677 -0.334954 0
M  V30 1904 O 193.771 1.863 -0.548264 0
M  V30 1905 C 190.901 3.19038 -1.37229 0
M  V30 1906 C 189.855 3.47789 -2.49453 0
M  V30 1907 C 189.181 4.8553 -2.23975 0
M  V30 1908 C 190.481 3.45411 -3.91776 0
M  V30 1909 H 192.175 1.7629 -2.41997 0
M  V30 1910 H 189.721 0.846721 -1.16476 0
M  V30 1911 H 191.674 3.97528 -1.39821 0
M  V30 1912 H 190.398 3.24204 -0.394907 0
M  V30 1913 H 189.057 2.71657 -2.46166 0
M  V30 1914 H 188.705 4.87337 -1.24547 0
M  V30 1915 H 188.405 5.0573 -2.99184 0
M  V30 1916 H 189.929 5.66312 -2.28304 0
M  V30 1917 H 191.343 4.13882 -3.96705 0
M  V30 1918 H 189.74 3.77145 -4.66778 0
M  V30 1919 H 190.81 2.44122 -4.18966 0
M  V30 1920 N 192.153 1.28127 0.917671 0
M  V30 1921 C 193.564 1.13622 1.48145 0
M  V30 1922 C 193.915 -0.275207 1.9426 0
M  V30 1923 O 193.04 -1.1691 1.82102 0
M  V30 1924 C 193.635 2.05648 2.69248 0
M  V30 1925 C 192.194 1.95219 3.21818 0
M  V30 1926 C 191.341 1.97618 1.94532 0
M  V30 1927 H 194.292 1.40874 0.730772 0
M  V30 1928 H 194.313 1.61818 3.44377 0
M  V30 1929 H 193.825 3.08365 2.35653 0
M  V30 1930 H 191.926 0.955244 3.60147 0
M  V30 1931 H 192.039 2.81976 3.87333 0
M  V30 1932 H 190.403 1.41973 2.11461 0
M  V30 1933 H 191.186 3.02007 1.63238 0
M  V30 1934 N 193.631 -1.12557 1.10312 0
M  V30 1935 C 194.578 -2.18247 0.750781 0
M  V30 1936 C 195.548 -1.63853 -0.272293 0
M  V30 1937 O 196.733 -1.90195 -0.151862 0
M  V30 1938 C 193.873 -3.44591 0.187379 0
M  V30 1939 C 192.986 -4.13046 1.2656 0
M  V30 1940 C 192.121 -5.27034 0.663978 0
M  V30 1941 C 191.16 -5.87353 1.72287 0
M  V30 1942 N 190.297 -6.92757 1.1416 0
M  V30 1943 H 195.137 -2.47732 1.65628 0
M  V30 1944 H 192.674 -1.21629 0.827337 0
M  V30 1945 H 194.632 -4.16904 -0.157148 0
M  V30 1946 H 193.262 -3.15527 -0.681355 0
M  V30 1947 H 192.314 -3.38924 1.72727 0
M  V30 1948 H 193.626 -4.53947 2.06721 0
M  V30 1949 H 192.78 -6.06104 0.268824 0
M  V30 1950 H 191.519 -4.87407 -0.169082 0
M  V30 1951 H 190.524 -5.06971 2.12746 0
M  V30 1952 H 191.749 -6.29051 2.55875 0
M  V30 1953 H 189.695 -6.5517 0.329984 0
M  V30 1954 H 189.612 -7.3225 1.88007 0
M  V30 1955 H 190.88 -7.75658 0.772956 0
M  V30 1956 N 195.109 -0.891671 -1.2995 0
M  V30 1957 C 196.52 -0.563104 -1.78006 0
M  V30 1958 C 196.871 0.920978 -1.73241 0
M  V30 1959 O 195.996 1.71987 -1.31337 0
M  V30 1960 C 196.591 -1.01539 -3.23226 0
M  V30 1961 C 195.15 -0.738124 -3.69092 0
M  V30 1962 C 194.297 -1.19461 -2.50249 0
M  V30 1963 H 197.248 -1.07522 -1.16725 0
M  V30 1964 H 197.269 -0.347217 -3.78912 0
M  V30 1965 H 196.781 -2.09555 -3.26662 0
M  V30 1966 H 194.882 0.329766 -3.71138 0
M  V30 1967 H 194.995 -1.33037 -4.60259 0
M  V30 1968 H 193.359 -0.613787 -2.47194 0
M  V30 1969 H 194.142 -2.28265 -2.56417 0
M  V30 1970 N 196.587 1.43421 -0.653314 0
M  V30 1971 C 197.864 1.95361 -0.0966581 0
M  V30 1972 C 198.244 1.59461 1.38331 0
M  V30 1973 O 197.592 0.879777 2.10884 0
M  V30 1974 C 197.802 3.47311 -0.342988 0
M  V30 1975 C 199.15 4.23875 -0.24798 0
M  V30 1976 O 200.174 3.55133 -0.275553 0
M  V30 1977 O 199.033 5.4623 -0.171771 0
M  V30 1978 H 196.127 0.826945 0.00956291 0
M  V30 1979 H 198.673 1.5336 -0.726558 0
M  V30 1980 H 197.445 3.66569 -1.36906 0
M  V30 1981 H 197.068 3.9631 0.319975 0
M  V30 1982 N 198.065 0.39524 1.52563 0
M  V30 1983 C 199.311 -0.177763 2.02622 0
M  V30 1984 C 199.666 -1.43974 1.27629 0
M  V30 1985 O 198.959 -1.87995 0.36992 0
M  V30 1986 C 199.153 -0.493444 3.53977 0
M  V30 1987 C 198.982 0.736392 4.4363 0
M  V30 1988 C 197.752 1.25744 4.89404 0
M  V30 1989 C 199.95 1.61046 4.88435 0
M  V30 1990 N 197.932 2.44421 5.63145 0
M  V30 1991 C 199.303 2.64359 5.60816 0
M  V30 1992 C 201.358 1.62985 4.70468 0
M  V30 1993 C 200.061 3.69505 6.17137 0
M  V30 1994 C 202.087 2.67042 5.27677 0
M  V30 1995 C 201.449 3.69077 5.99968 0
M  V30 1996 H 197.548 -0.0269794 0.781534 0
M  V30 1997 H 200.132 0.546466 1.86874 0
M  V30 1998 H 198.303 -1.18672 3.69826 0
M  V30 1999 H 200.035 -1.05412 3.90731 0
M  V30 2000 H 196.79 0.817546 4.6649 0
M  V30 2001 H 197.214 3.04485 6.04663 0
M  V30 2002 H 201.856 0.854442 4.14076 0
M  V30 2003 H 199.574 4.4791 6.72608 0
M  V30 2004 H 203.16 2.69433 5.15652 0
M  V30 2005 H 202.04 4.48273 6.43444 0
M  V30 2006 N 199.544 -1.57102 0.125237 0
M  V30 2007 C 200.476 -2.12726 -0.853237 0
M  V30 2008 C 201.489 -1.07145 -1.22571 0
M  V30 2009 O 202.678 -1.34497 -1.17358 0
M  V30 2010 C 199.778 -2.61709 -2.15317 0
M  V30 2011 C 198.951 -3.91456 -1.95143 0
M  V30 2012 C 198.01 -4.25973 -3.08923 0
M  V30 2013 O 197.036 -4.94682 -2.81564 0
M  V30 2014 N 198.238 -3.83795 -4.35524 0
M  V30 2015 H 201.003 -2.97307 -0.377964 0
M  V30 2016 H 198.564 -1.61792 -0.0590011 0
M  V30 2017 H 200.556 -2.81826 -2.90441 0
M  V30 2018 H 199.126 -1.81974 -2.54174 0
M  V30 2019 H 198.346 -3.80185 -1.04177 0
M  V30 2020 H 199.634 -4.76283 -1.78976 0
M  V30 2021 H 199.032 -3.2839 -4.60626 0
M  V30 2022 H 197.589 -4.09008 -5.07499 0
M  V30 2023 N 201.022 0.148545 -1.56898 0
M  V30 2024 C 202.268 0.862694 -1.83536 0
M  V30 2025 C 202.601 1.80889 -0.706604 0
M  V30 2026 O 201.876 1.92328 0.289885 0
M  V30 2027 C 202.159 1.63853 -3.20662 0
M  V30 2028 C 202.012 0.713925 -4.44098 0
M  V30 2029 C 203.331 2.60133 -3.54991 0
M  V30 2030 H 200.45 0.312179 -0.667618 0
M  V30 2031 H 203.092 0.127953 -1.89569 0
M  V30 2032 H 201.242 2.26489 -3.1565 0
M  V30 2033 H 202.914 0.098686 -4.61194 0
M  V30 2034 H 201.157 0.0234019 -4.33794 0
M  V30 2035 H 201.828 1.29278 -5.36648 0
M  V30 2036 H 204.304 2.07616 -3.60603 0
M  V30 2037 H 203.18 3.11468 -4.51972 0
M  V30 2038 H 203.441 3.41417 -2.80868 0
M  V30 2039 N 202.5 1.5196 0.417844 0
M  V30 2040 C 203.43 1.77634 1.51554 0
M  V30 2041 C 204.411 0.626918 1.58126 0
M  V30 2042 O 205.596 0.871632 1.7354 0
M  V30 2043 C 202.726 1.91911 2.8946 0
M  V30 2044 C 201.68 3.07463 2.97743 0
M  V30 2045 C 201.006 3.06951 4.37819 0
M  V30 2046 C 202.306 4.47082 2.70027 0
M  V30 2047 H 204 2.6955 1.3032 0
M  V30 2048 H 201.546 1.29706 0.625492 0
M  V30 2049 H 203.499 2.08455 3.6623 0
M  V30 2050 H 202.223 0.966598 3.11969 0
M  V30 2051 H 200.882 2.90656 2.23416 0
M  V30 2052 H 200.53 2.09438 4.57323 0
M  V30 2053 H 200.23 3.84556 4.44286 0
M  V30 2054 H 201.754 3.25613 5.16535 0
M  V30 2055 H 203.168 4.6414 3.36522 0
M  V30 2056 H 201.565 5.2654 2.87881 0
M  V30 2057 H 202.635 4.55777 1.65514 0
M  V30 2058 N 203.978 -0.674533 1.42435 0
M  V30 2059 C 204.908 -1.80009 1.48724 0
M  V30 2060 C 205.889 -1.6659 0.343793 0
M  V30 2061 O 207.074 -1.86007 0.558137 0
M  V30 2062 C 204.204 -3.18306 1.38919 0
M  V30 2063 C 203.158 -3.46461 2.51294 0
M  V30 2064 C 202.484 -4.84335 2.26547 0
M  V30 2065 C 203.784 -3.43328 3.93603 0
M  V30 2066 H 205.478 -1.75004 2.42928 0
M  V30 2067 H 203.024 -0.840533 1.16923 0
M  V30 2068 H 204.977 -3.9678 1.41927 0
M  V30 2069 H 203.701 -3.2399 0.412094 0
M  V30 2070 H 202.36 -2.70348 2.47604 0
M  V30 2071 H 202.008 -4.86669 1.2713 0
M  V30 2072 H 201.708 -5.04136 3.01861 0
M  V30 2073 H 203.232 -5.65094 2.31304 0
M  V30 2074 H 204.646 -4.11772 3.98894 0
M  V30 2075 H 203.043 -3.74664 4.68771 0
M  V30 2076 H 204.113 -2.41897 4.20255 0
M  V30 2077 N 205.456 -1.28612 -0.910864 0
M  V30 2078 C 206.419 -1.12803 -1.9952 0
M  V30 2079 C 207.419 -0.0668264 -1.60661 0
M  V30 2080 O 208.609 -0.312847 -1.71368 0
M  V30 2081 C 205.741 -0.72254 -3.33155 0
M  V30 2082 H 206.934 -2.09109 -2.14973 0
M  V30 2083 H 204.487 -1.11639 -1.09391 0
M  V30 2084 H 205.222 0.241152 -3.23402 0
M  V30 2085 H 205.007 -1.48916 -3.62721 0
M  V30 2086 H 206.497 -0.634666 -4.12749 0
M  V30 2087 N 206.934 1.1197 -1.10907 0
M  V30 2088 C 208.18 1.8386 -0.855773 0
M  V30 2089 C 208.513 1.84134 0.617103 0
M  V30 2090 O 207.788 1.29041 1.45529 0
M  V30 2091 C 208.071 3.31305 -1.411 0
M  V30 2092 C 207.924 3.39456 -2.9511 0
M  V30 2093 C 209.243 4.2721 -1.05736 0
M  V30 2094 H 206.362 0.667545 -0.312334 0
M  V30 2095 H 209.004 1.31331 -1.37303 0
M  V30 2096 H 207.154 3.76169 -0.97105 0
M  V30 2097 H 208.826 3.03191 -3.47668 0
M  V30 2098 H 207.069 2.79849 -3.31462 0
M  V30 2099 H 207.74 4.43209 -3.29044 0
M  V30 2100 H 210.216 3.90497 -1.43706 0
M  V30 2101 H 209.092 5.28775 -1.47269 0
M  V30 2102 H 209.353 4.42088 0.0325958 0
M  V30 2103 N 208.412 0.89855 1.29475 0
M  V30 2104 C 209.637 0.538561 2.00285 0
M  V30 2105 C 210.062 -0.869135 1.66816 0
M  V30 2106 O 209.42 -1.57831 0.892145 0
M  V30 2107 C 209.468 0.736475 3.52999 0
M  V30 2108 O 208.572 -0.211537 4.11857 0
M  V30 2109 H 207.913 0.210563 0.62973 0
M  V30 2110 H 210.443 1.20982 1.64998 0
M  V30 2111 H 210.453 0.640685 4.02938 0
M  V30 2112 H 209.128 1.76276 3.76696 0
M  V30 2113 H 207.705 -0.0682991 3.72837 0
M  V30 2114 N 209.89 -1.43072 0.660911 0
M  V30 2115 C 210.853 -2.29194 -0.0166406 0
M  V30 2116 C 211.853 -1.42609 -0.742912 0
M  V30 2117 O 213.043 -1.64155 -0.583004 0
M  V30 2118 C 210.175 -3.24831 -1.0343 0
M  V30 2119 H 211.368 -2.90596 0.741208 0
M  V30 2120 H 208.921 -1.5048 0.422532 0
M  V30 2121 H 209.656 -2.68339 -1.82111 0
M  V30 2122 H 209.441 -3.88676 -0.517082 0
M  V30 2123 H 210.931 -3.89451 -1.50723 0
M  V30 2124 N 211.368 -0.403325 -1.52352 0
M  V30 2125 C 212.278 0.432009 -2.30588 0
M  V30 2126 C 213.294 1.05884 -1.38075 0
M  V30 2127 O 214.47 1.06161 -1.71148 0
M  V30 2128 C 211.535 1.53669 -3.10784 0
M  V30 2129 C 210.596 0.933525 -4.19027 0
M  V30 2130 C 209.829 1.98557 -4.9539 0
M  V30 2131 O 210.052 3.20283 -4.71991 0
M  V30 2132 O 208.986 1.59504 -5.80381 0
M  V30 2133 H 212.812 -0.205739 -3.03002 0
M  V30 2134 H 210.397 -0.166675 -1.48467 0
M  V30 2135 H 212.279 2.17814 -3.60742 0
M  V30 2136 H 210.954 2.15915 -2.41169 0
M  V30 2137 H 209.861 0.254954 -3.7323 0
M  V30 2138 H 211.194 0.35508 -4.90918 0
M  V30 2139 N 212.846 1.57033 -0.133567 0
M  V30 2140 C 213.776 2.1909 0.807567 0
M  V30 2141 C 214.757 1.13517 1.26681 0
M  V30 2142 O 215.942 1.41809 1.32679 0
M  V30 2143 C 213.072 2.80188 2.05212 0
M  V30 2144 C 212.026 3.91471 1.73015 0
M  V30 2145 C 211.352 4.39443 3.04622 0
M  V30 2146 C 212.652 5.12886 0.987168 0
M  V30 2147 H 214.346 2.97988 0.290403 0
M  V30 2148 H 211.892 1.43335 0.138239 0
M  V30 2149 H 213.845 3.22264 2.71521 0
M  V30 2150 H 212.569 1.98601 2.59278 0
M  V30 2151 H 211.228 3.49993 1.0909 0
M  V30 2152 H 210.876 3.54695 3.56651 0
M  V30 2153 H 210.576 5.14495 2.83847 0
M  V30 2154 H 212.1 4.8418 3.72024 0
M  V30 2155 H 213.514 5.51891 1.55208 0
M  V30 2156 H 211.911 5.93615 0.87985 0
M  V30 2157 H 212.981 4.84894 -0.0235286 0
M  V30 2158 N 214.325 -0.140222 1.56975 0
M  V30 2159 C 215.288 -1.15689 1.97861 0
M  V30 2160 C 216.288 -1.3549 0.865974 0
M  V30 2161 O 217.478 -1.32367 1.13246 0
M  V30 2162 C 214.61 -2.51582 2.30042 0
M  V30 2163 H 215.803 -0.805971 2.88867 0
M  V30 2164 H 213.356 -0.383801 1.51515 0
M  V30 2165 H 214.091 -2.91632 1.41849 0
M  V30 2166 H 213.876 -2.38569 3.11171 0
M  V30 2167 H 215.366 -3.24792 2.62488 0
M  V30 2168 N 215.803 -1.52179 -0.40978 0
M  V30 2169 C 217.051 -1.65878 -1.15451 0
M  V30 2170 C 217.372 -0.390771 -1.91044 0
M  V30 2171 O 216.642 0.594323 -1.86667 0
M  V30 2172 H 215.222 -0.611405 -0.429177 0
M  V30 2173 H 217.884 -1.89219 -0.467134 0
M  V30 2174 H 216.98 -2.49954 -1.86894 0
M  V30 2175 N 217.281 0.66697 -1.42791 0
M  V30 2176 C 218.191 1.80962 -1.49299 0
M  V30 2177 C 219.207 1.69775 -0.381108 0
M  V30 2178 O 220.383 1.91188 -0.633188 0
M  V30 2179 C 217.448 3.17156 -1.40045 0
M  V30 2180 C 216.509 3.40242 -2.6179 0
M  V30 2181 C 215.742 4.69939 -2.52969 0
M  V30 2182 O 215.965 5.48372 -1.56985 0
M  V30 2183 O 214.899 4.94441 -3.43237 0
M  V30 2184 H 218.725 1.78427 -2.45759 0
M  V30 2185 H 216.31 0.823713 -1.24641 0
M  V30 2186 H 218.192 3.98413 -1.37276 0
M  V30 2187 H 216.867 3.20312 -0.467138 0
M  V30 2188 H 215.774 2.58802 -2.70134 0
M  V30 2189 H 217.107 3.41923 -3.54047 0
M  V30 2190 N 218.759 1.29093 0.90403 0
M  V30 2191 C 220.175 1.07011 1.1841 0
M  V30 2192 C 220.375 -0.181358 2.00682 0
M  V30 2193 O 219.431 -0.880331 2.36657 0
M  V30 2194 C 220.744 2.32311 1.90924 0
M  V30 2195 C 222.292 2.37587 2.03768 0
M  V30 2196 C 222.767 3.62679 2.79693 0
M  V30 2197 N 224.258 3.63376 2.87249 0
M  V30 2198 C 224.993 4.56848 3.46522 0
M  V30 2199 N 224.489 5.60648 4.06996 0
M  V30 2200 N 226.282 4.44426 3.44154 0
M  V30 2201 H 218.433 2.09412 0.354993 0
M  V30 2202 H 220.696 0.922181 0.219742 0
M  V30 2203 H 220.402 3.23536 1.37905 0
M  V30 2204 H 220.276 2.39483 2.91424 0
M  V30 2205 H 222.663 1.46853 2.55965 0
M  V30 2206 H 222.744 2.34403 1.02415 0
M  V30 2207 H 222.388 4.53762 2.28173 0
M  V30 2208 H 222.318 3.63119 3.81381 0
M  V30 2209 H 224.809 2.88321 2.44293 0
M  V30 2210 H 225.122 6.28101 4.50232 0
M  V30 2211 H 223.467 5.64463 4.05471 0
M  V30 2212 H 226.658 3.62529 2.96126 0
M  V30 2213 H 226.831 5.17457 3.90054 0
M  V30 2214 N 220.237 -1.11381 1.11499 0
M  V30 2215 C 221.462 -1.87475 0.887019 0
M  V30 2216 C 221.887 -1.79639 -0.557796 0
M  V30 2217 O 221.245 -1.15924 -1.39396 0
M  V30 2218 C 221.293 -3.34213 1.35403 0
M  V30 2219 O 220.397 -4.0903 0.526146 0
M  V30 2220 H 219.738 -0.582099 0.319463 0
M  V30 2221 H 222.268 -1.40785 1.48461 0
M  V30 2222 H 222.278 -3.8506 1.34881 0
M  V30 2223 H 220.953 -3.39232 2.40612 0
M  V30 2224 H 219.53 -3.68082 0.597522 0
M  V30 2225 N 221.715 -0.905404 -1.28997 0
M  V30 2226 C 223.131 -0.60233 -1.47798 0
M  V30 2227 C 223.331 0.854645 -1.82478 0
M  V30 2228 O 222.387 1.63439 -1.92468 0
M  V30 2229 C 223.7 -1.53306 -2.58685 0
M  V30 2230 C 225.248 -1.53887 -2.72558 0
M  V30 2231 C 225.723 -2.45602 -3.86579 0
M  V30 2232 N 227.214 -2.43681 -3.93921 0
M  V30 2233 C 227.949 -3.11347 -4.81509 0
M  V30 2234 N 227.445 -3.88313 -5.73746 0
M  V30 2235 N 229.238 -3.00476 -4.75048 0
M  V30 2236 H 221.389 -1.84765 -1.04764 0
M  V30 2237 H 223.652 -0.792025 -0.520961 0
M  V30 2238 H 223.358 -2.57141 -2.39941 0
M  V30 2239 H 223.232 -1.25787 -3.55609 0
M  V30 2240 H 225.619 -0.507941 -2.90696 0
M  V30 2241 H 225.7 -1.85447 -1.76191 0
M  V30 2242 H 225.344 -3.48792 -3.69197 0
M  V30 2243 H 225.274 -2.11349 -4.82327 0
M  V30 2244 H 227.765 -1.87767 -3.27951 0
M  V30 2245 H 228.078 -4.36985 -6.37389 0
M  V30 2246 H 226.423 -3.92419 -5.73614 0
M  V30 2247 H 229.614 -2.39858 -4.01977 0
M  V30 2248 H 229.787 -3.53485 -5.43095 0
M  V30 2249 N 223.193 1.4272 -0.668489 0
M  V30 2250 C 224.441 2.01226 -0.187769 0
M  V30 2251 C 224.762 1.53092 1.2078 0
M  V30 2252 O 224.032 0.74993 1.80977 0
M  V30 2253 H 222.612 0.744041 -0.0664272 0
M  V30 2254 H 225.274 1.74723 -0.863583 0
M  V30 2255 H 224.37 3.11556 -0.184166 0
M  V30 2256 N 224.671 0.411399 1.52136 0
M  V30 2257 C 226.087 0.0623865 1.59478 0
M  V30 2258 C 226.287 -1.42554 1.4241 0
M  V30 2259 O 225.343 -2.19263 1.2522 0
M  V30 2260 C 226.656 0.559331 2.95452 0
M  V30 2261 C 228.204 0.517503 3.08692 0
M  V30 2262 C 228.679 0.990994 4.4715 0
M  V30 2263 N 230.17 0.947908 4.53397 0
M  V30 2264 C 230.905 1.28544 5.58806 0
M  V30 2265 N 230.401 1.69454 6.71757 0
M  V30 2266 N 232.194 1.20526 5.49026 0
M  V30 2267 H 224.345 1.37982 1.61477 0
M  V30 2268 H 226.608 0.566977 0.759764 0
M  V30 2269 H 226.314 1.59938 3.1323 0
M  V30 2270 H 226.188 -0.0298014 3.77188 0
M  V30 2271 H 228.575 -0.513505 2.90598 0
M  V30 2272 H 228.656 1.14272 2.28857 0
M  V30 2273 H 228.3 2.02034 4.65988 0
M  V30 2274 H 228.23 0.34257 5.25485 0
M  V30 2275 H 230.721 0.647157 3.72317 0
M  V30 2276 H 231.034 1.93513 7.48179 0
M  V30 2277 H 229.379 1.73359 6.73032 0
M  V30 2278 H 232.57 0.884505 4.59667 0
M  V30 2279 H 232.743 1.47161 6.31069 0
M  V30 2280 N 226.149 -1.5696 0.141893 0
M  V30 2281 C 227.112 -2.15316 -0.785587 0
M  V30 2282 C 228.112 -1.09366 -1.1788 0
M  V30 2283 O 229.302 -1.35031 -1.10056 0
M  V30 2284 C 226.434 -2.71211 -2.06537 0
M  V30 2285 H 227.627 -2.98608 -0.278041 0
M  V30 2286 H 225.18 -1.5593 -0.107519 0
M  V30 2287 H 225.915 -1.91571 -2.6167 0
M  V30 2288 H 225.7 -3.4872 -1.79268 0
M  V30 2289 H 227.19 -3.16189 -2.72789 0
M  V30 2290 N 227.627 0.131896 -1.57047 0
M  V30 2291 C 228.559 1.1878 -1.9602 0
M  V30 2292 C 229.572 1.38363 -0.857875 0
M  V30 2293 O 230.761 1.37666 -1.13623 0
M  V30 2294 C 227.861 2.55008 -2.23213 0
M  V30 2295 C 227.034 2.56201 -3.54513 0
M  V30 2296 C 226.093 3.7408 -3.70069 0
M  V30 2297 O 225.119 3.58258 -4.42312 0
M  V30 2298 N 226.321 4.92137 -3.07866 0
M  V30 2299 H 229.086 0.85639 -2.87204 0
M  V30 2300 H 226.647 0.321309 -1.5868 0
M  V30 2301 H 228.639 3.32404 -2.30846 0
M  V30 2302 H 227.209 2.80382 -1.3822 0
M  V30 2303 H 226.429 1.64613 -3.58185 0
M  V30 2304 H 227.717 2.54043 -4.4084 0
M  V30 2305 H 227.115 5.07895 -2.49116 0
M  V30 2306 H 225.672 5.67254 -3.21039 0
M  V30 2307 N 229.106 1.52395 0.401703 0
M  V30 2308 C 230.522 1.41363 0.740864 0
M  V30 2309 C 230.722 0.523982 1.94568 0
M  V30 2310 O 229.778 -0.00741204 2.52499 0
M  V30 2311 C 231.091 2.84011 0.987847 0
M  V30 2312 C 232.639 2.93404 1.09011 0
M  V30 2313 C 233.114 4.37036 1.3698 0
M  V30 2314 N 234.605 4.40304 1.43829 0
M  V30 2315 C 235.34 5.48508 1.67112 0
M  V30 2316 N 234.836 6.66819 1.87949 0
M  V30 2317 N 236.629 5.36034 1.69187 0
M  V30 2318 H 228.78 2.08765 -0.391262 0
M  V30 2319 H 231.043 0.941265 -0.112798 0
M  V30 2320 H 230.749 3.51265 0.174835 0
M  V30 2321 H 230.623 3.25502 1.906 0
M  V30 2322 H 233.01 2.26325 1.8937 0
M  V30 2323 H 233.091 2.55359 0.15015 0
M  V30 2324 H 232.735 5.04676 0.571353 0
M  V30 2325 H 232.665 4.72623 2.3224 0
M  V30 2326 H 235.156 3.55024 1.29486 0
M  V30 2327 H 235.469 7.45063 2.05185 0
M  V30 2328 H 233.814 6.6987 1.85199 0
M  V30 2329 H 237.005 4.42579 1.52451 0
M  V30 2330 H 237.178 6.20434 1.86993 0
M  V30 2331 N 230.584 -0.659388 1.43143 0
M  V30 2332 C 231.861 -1.41627 1.34912 0
M  V30 2333 C 232.241 -2.11099 -0.00607785 0
M  V30 2334 O 231.589 -2.04353 -1.02236 0
M  V30 2335 C 231.799 -2.40604 2.52805 0
M  V30 2336 C 233.147 -3.04789 2.95616 0
M  V30 2337 O 234.171 -2.50932 2.52807 0
M  V30 2338 O 233.03 -4.02421 3.69756 0
M  V30 2339 H 230.124 -0.63246 0.532844 0
M  V30 2340 H 232.67 -0.686814 1.5518 0
M  V30 2341 H 231.442 -1.88174 3.43083 0
M  V30 2342 H 231.065 -3.21009 2.34604 0
M  V30 2343 N 232.062 -1.29571 -0.897171 0
M  V30 2344 C 233.473 -1.15964 -1.46319 0
M  V30 2345 C 233.824 0.244267 -1.94674 0
M  V30 2346 O 232.949 1.13998 -1.83939 0
M  V30 2347 C 233.544 -2.09906 -2.65942 0
M  V30 2348 C 232.103 -2.00314 -3.18671 0
M  V30 2349 C 231.25 -2.00687 -1.91363 0
M  V30 2350 H 234.201 -1.42019 -0.708268 0
M  V30 2351 H 234.222 -1.67276 -3.41759 0
M  V30 2352 H 233.734 -3.12075 -2.30718 0
M  V30 2353 H 231.835 -1.01242 -3.58582 0
M  V30 2354 H 231.948 -2.88102 -3.82798 0
M  V30 2355 H 230.312 -1.45319 -2.09175 0
M  V30 2356 H 231.095 -3.04566 -1.58413 0
M  V30 2357 N 233.54 1.10788 -1.12088 0
M  V30 2358 C 234.788 1.8231 -0.872205 0
M  V30 2359 C 235.109 1.85419 0.603709 0
M  V30 2360 O 234.379 1.32963 1.43867 0
M  V30 2361 H 232.959 0.675137 -0.319686 0
M  V30 2362 H 235.621 1.34068 -1.41463 0
M  V30 2363 H 234.717 2.85955 -1.25045 0
M  V30 2364 N 235.018 0.912232 1.28515 0
M  V30 2365 C 236.434 0.610159 1.47476 0
M  V30 2366 C 236.634 -0.844955 1.82928 0
M  V30 2367 O 235.69 -1.62416 1.93332 0
M  V30 2368 C 237.003 1.54675 2.57868 0
M  V30 2369 C 238.551 1.55331 2.71738 0
M  V30 2370 C 239.026 2.47649 3.85272 0
M  V30 2371 N 240.517 2.45767 3.92623 0
M  V30 2372 C 241.252 3.13896 4.79851 0
M  V30 2373 N 240.748 3.9135 5.71679 0
M  V30 2374 N 242.541 3.02991 4.73448 0
M  V30 2375 H 234.692 1.85318 1.03783 0
M  V30 2376 H 236.955 0.794777 0.516753 0
M  V30 2377 H 236.661 2.5841 2.38574 0
M  V30 2378 H 236.535 1.27671 3.54937 0
M  V30 2379 H 238.922 0.52335 2.90422 0
M  V30 2380 H 239.003 1.86378 1.75205 0
M  V30 2381 H 238.647 3.50745 3.67342 0
M  V30 2382 H 238.577 2.13904 4.81199 0
M  V30 2383 H 241.068 1.89503 3.26951 0
M  V30 2384 H 241.381 4.40359 6.35062 0
M  V30 2385 H 239.726 3.95455 5.71524 0
M  V30 2386 H 242.917 2.41987 4.007 0
M  V30 2387 H 243.09 3.5636 5.41213 0
M  V30 2388 N 236.496 -1.42363 0.676048 0
M  V30 2389 C 237.459 -2.29199 0.00766941 0
M  V30 2390 C 238.459 -1.43389 -0.727745 0
M  V30 2391 O 239.649 -1.64764 -0.56556 0
M  V30 2392 C 236.781 -3.2591 -0.999785 0
M  V30 2393 H 237.974 -2.89794 0.771988 0
M  V30 2394 H 235.527 -1.50024 0.438468 0
M  V30 2395 H 236.262 -2.70256 -1.79255 0
M  V30 2396 H 236.047 -3.89202 -0.475829 0
M  V30 2397 H 237.537 -3.91028 -1.46583 0
M  V30 2398 N 237.974 -0.419461 -1.51915 0
M  V30 2399 C 239.39 -0.0708431 -1.59443 0
M  V30 2400 C 239.59 1.41796 -1.43164 0
M  V30 2401 O 238.646 2.18596 -1.26381 0
M  V30 2402 C 239.959 -0.574991 -2.95151 0
M  V30 2403 C 241.507 -0.533867 -3.08413 0
M  V30 2404 C 241.982 -1.01469 -4.46618 0
M  V30 2405 N 243.473 -0.971939 -4.52888 0
M  V30 2406 C 244.208 -1.31505 -5.58116 0
M  V30 2407 N 243.704 -1.73014 -6.70849 0
M  V30 2408 N 245.497 -1.23436 -5.48379 0
M  V30 2409 H 237.648 -1.38836 -1.60743 0
M  V30 2410 H 239.911 -0.570998 -0.756747 0
M  V30 2411 H 239.617 -1.61597 -3.12377 0
M  V30 2412 H 239.491 0.00979777 -3.77199 0
M  V30 2413 H 241.878 0.498086 -2.90866 0
M  V30 2414 H 241.959 -1.15484 -2.28248 0
M  V30 2415 H 241.603 -2.04502 -4.6491 0
M  V30 2416 H 241.533 -0.370433 -5.25295 0
M  V30 2417 H 244.024 -0.666893 -3.71969 0
M  V30 2418 H 244.337 -1.97479 -7.47143 0
M  V30 2419 H 242.682 -1.76926 -6.72103 0
M  V30 2420 H 245.873 -0.908869 -4.59192 0
M  V30 2421 H 246.046 -1.50506 -6.30279 0
M  V30 2422 N 239.452 1.56882 -0.150215 0
M  V30 2423 C 240.729 1.87844 0.545327 0
M  V30 2424 C 241.109 1.0567 1.82749 0
M  V30 2425 O 240.457 0.144442 2.28043 0
M  V30 2426 C 240.667 3.39526 0.80767 0
M  V30 2427 C 242.015 4.08814 1.14703 0
M  V30 2428 O 243.039 3.44723 0.896917 0
M  V30 2429 O 241.898 5.22004 1.61784 0
M  V30 2430 H 238.992 0.778677 0.278553 0
M  V30 2431 H 241.538 1.68666 -0.187068 0
M  V30 2432 H 240.31 3.91173 -0.0996096 0
M  V30 2433 H 239.933 3.64243 1.59413 0
M  V30 2434 N 240.93 -0.123565 1.57115 0
M  V30 2435 C 241.878 -1.17082 2.00984 0
M  V30 2436 C 242.872 -1.43136 0.906009 0
M  V30 2437 O 244.078 -1.43152 1.09121 0
M  V30 2438 H 240.453 -0.394653 0.64012 0
M  V30 2439 H 242.424 -0.774292 2.88179 0
M  V30 2440 C 241.173 -2.49057 2.42623 0
M  V30 2441 H 240.496 -2.29846 3.27125 0
M  V30 2442 H 241.936 -3.20906 2.7712 0
M  V30 2443 C 240.395 -3.11305 1.28805 0
M  V30 2444 O 240.925 -3.97171 0.60153 0
M  V30 2445 N 239.131 -2.71111 1.04628 0
M  V30 2446 H 238.678 -2.01382 1.60634 0
M  V30 2447 H 238.636 -3.1309 0.286685 0
M  V30 2448 N 242.408 -1.52605 -0.393616 0
M  V30 2449 C 243.638 -1.71046 -1.15874 0
M  V30 2450 C 244.046 -0.426483 -1.84331 0
M  V30 2451 O 243.389 0.608513 -1.73329 0
M  V30 2452 C 243.451 -2.80118 -2.25332 0
M  V30 2453 C 243.115 -4.21381 -1.76881 0
M  V30 2454 C 244.112 -5.04697 -1.24808 0
M  V30 2455 C 241.797 -4.67683 -1.83244 0
M  V30 2456 C 243.791 -6.32393 -0.797387 0
M  V30 2457 C 241.478 -5.95364 -1.37787 0
M  V30 2458 C 242.476 -6.77549 -0.861208 0
M  V30 2459 O 242.164 -8.02837 -0.413252 0
M  V30 2460 H 241.896 -0.576155 -0.353583 0
M  V30 2461 H 244.45 -2.00018 -0.467123 0
M  V30 2462 H 242.68 -2.46557 -2.97904 0
M  V30 2463 H 244.369 -2.87006 -2.87023 0
M  V30 2464 H 245.135 -4.70111 -1.19252 0
M  V30 2465 H 241.014 -4.03805 -2.22401 0
M  V30 2466 H 244.558 -6.9649 -0.393437 0
M  V30 2467 H 240.455 -6.29455 -1.43026 0
M  V30 2468 H 241.223 -8.16749 -0.53515 0
M  V30 2469 N 243.887 0.651787 -1.4349 0
M  V30 2470 C 244.797 1.79368 -1.5121 0
M  V30 2471 C 245.813 1.69361 -0.399093 0
M  V30 2472 O 246.989 1.90505 -0.653431 0
M  V30 2473 C 244.054 3.15653 -1.43401 0
M  V30 2474 C 243.115 3.37446 -2.65384 0
M  V30 2475 C 242.348 4.67229 -2.57939 0
M  V30 2476 O 242.571 5.46676 -1.62792 0
M  V30 2477 O 241.505 4.90773 -3.48462 0
M  V30 2478 H 245.331 1.7581 -2.47638 0
M  V30 2479 H 242.916 0.810447 -1.25507 0
M  V30 2480 H 244.798 3.96935 -1.41494 0
M  V30 2481 H 243.473 3.19798 -0.501085 0
M  V30 2482 H 242.38 2.55923 -2.72863 0
M  V30 2483 H 243.713 3.38148 -3.57654 0
M  V30 2484 N 245.365 1.30045 0.890287 0
M  V30 2485 C 246.781 1.08261 1.17268 0
M  V30 2486 C 246.981 -0.160063 2.00863 0
M  V30 2487 O 246.037 -0.855181 2.37577 0
M  V30 2488 C 247.35 2.34323 1.8845 0
M  V30 2489 C 248.898 2.39735 2.01237 0
M  V30 2490 C 249.373 3.65625 2.7583 0
M  V30 2491 N 250.864 3.66402 2.83379 0
M  V30 2492 C 251.599 4.60498 3.41657 0
M  V30 2493 N 251.095 5.64933 4.01026 0
M  V30 2494 N 252.888 4.48051 3.39421 0
M  V30 2495 H 245.039 2.09777 0.332762 0
M  V30 2496 H 247.302 0.92446 0.209948 0
M  V30 2497 H 247.008 3.2498 1.34465 0
M  V30 2498 H 246.882 2.4256 2.88867 0
M  V30 2499 H 249.269 1.4956 2.54393 0
M  V30 2500 H 249.35 2.35476 0.999232 0
M  V30 2501 H 248.994 4.56156 2.23347 0
M  V30 2502 H 248.924 3.67144 3.77509 0
M  V30 2503 H 251.415 2.90896 2.41222 0
M  V30 2504 H 251.728 6.32841 4.43545 0
M  V30 2505 H 250.073 5.68732 3.99461 0
M  V30 2506 H 253.264 3.65649 2.92264 0
M  V30 2507 H 253.437 5.21565 3.84544 0
M  V30 2508 N 246.843 -1.10192 1.12674 0
M  V30 2509 C 248.12 -1.78717 0.794965 0
M  V30 2510 C 248.5 -1.98628 -0.714853 0
M  V30 2511 O 247.848 -1.58135 -1.64941 0
M  V30 2512 C 248.058 -3.11546 1.5729 0
M  V30 2513 C 249.406 -3.86382 1.76052 0
M  V30 2514 O 250.43 -3.21274 1.53823 0
M  V30 2515 O 249.289 -5.03246 2.13087 0
M  V30 2516 H 246.383 -0.774702 0.289423 0
M  V30 2517 H 248.929 -1.16819 1.23091 0
M  V30 2518 H 247.701 -2.92489 2.59935 0
M  V30 2519 H 247.324 -3.81164 1.13137 0
M  V30 2520 N 248.321 -0.919034 -1.28029 0
M  V30 2521 C 249.284 -0.416182 -2.2539 0
M  V30 2522 C 250.284 0.460438 -1.54067 0
M  V30 2523 O 251.474 0.262744 -1.72207 0
M  V30 2524 C 248.606 0.402707 -3.38513 0
M  V30 2525 H 249.799 -1.27629 -2.71387 0
M  V30 2526 H 247.352 -0.698919 -1.39803 0
M  V30 2527 H 248.087 1.282 -2.97885 0
M  V30 2528 H 247.872 -0.225698 -3.9145 0
M  V30 2529 H 249.362 0.745191 -4.10897 0
M  V30 2530 N 249.799 1.42003 -0.683588 0
M  V30 2531 C 250.709 2.34597 -0.0109075 0
M  V30 2532 C 251.725 1.55576 0.779245 0
M  V30 2533 O 252.901 1.88107 0.719555 0
M  V30 2534 C 249.966 3.34199 0.922588 0
M  V30 2535 C 249.027 4.29115 0.125984 0
M  V30 2536 C 248.26 5.23959 1.01502 0
M  V30 2537 O 248.483 5.23952 2.25456 0
M  V30 2538 O 247.417 6.00053 0.47111 0
M  V30 2539 H 251.243 2.93675 -0.773853 0
M  V30 2540 H 248.828 1.42654 -0.443861 0
M  V30 2541 H 250.71 3.95365 1.45823 0
M  V30 2542 H 249.385 2.77582 1.66523 0
M  V30 2543 H 248.292 3.71335 -0.453969 0
M  V30 2544 H 249.625 4.88798 -0.577736 0
M  V30 2545 N 251.277 0.427512 1.51691 0
M  V30 2546 C 252.207 -0.3796 2.30394 0
M  V30 2547 C 253.188 -1.02982 1.35384 0
M  V30 2548 O 254.373 -1.03534 1.643 0
M  V30 2549 C 251.503 -1.48649 3.1388 0
M  V30 2550 C 250.457 -0.960294 4.17088 0
M  V30 2551 C 249.783 -2.16219 4.89033 0
M  V30 2552 C 251.083 -0.00153679 5.223 0
M  V30 2553 H 252.777 0.277164 2.98114 0
M  V30 2554 H 250.323 0.134739 1.43368 0
M  V30 2555 H 252.276 -2.05826 3.67714 0
M  V30 2556 H 251 -2.1714 2.43962 0
M  V30 2557 H 249.659 -0.410806 3.64291 0
M  V30 2558 H 249.307 -2.83307 4.15628 0
M  V30 2559 H 249.007 -1.81654 5.58816 0
M  V30 2560 H 250.531 -2.73968 5.45687 0
M  V30 2561 H 251.945 -0.482687 5.71264 0
M  V30 2562 H 250.342 0.256199 5.99553 0
M  V30 2563 H 251.412 0.938174 4.75738 0
M  V30 2564 N 252.755 -1.56801 0.158532 0
M  V30 2565 C 253.687 -2.14488 -0.807923 0
M  V30 2566 C 254.7 -1.09721 -1.20271 0
M  V30 2567 O 255.889 -1.36956 -1.14478 0
M  V30 2568 C 252.989 -2.66217 -2.09718 0
M  V30 2569 C 252.162 -3.95507 -1.86796 0
M  V30 2570 C 251.221 -4.3243 -2.99818 0
M  V30 2571 O 250.247 -5.00543 -2.71008 0
M  V30 2572 N 251.449 -3.92947 -4.27285 0
M  V30 2573 H 254.214 -2.98042 -0.314816 0
M  V30 2574 H 251.775 -1.61881 -0.0246692 0
M  V30 2575 H 253.767 -2.87924 -2.84398 0
M  V30 2576 H 252.337 -1.87324 -2.50257 0
M  V30 2577 H 251.557 -3.82309 -0.96089 0
M  V30 2578 H 252.845 -4.79972 -1.68833 0
M  V30 2579 H 252.243 -3.38087 -4.53557 0
M  V30 2580 H 250.8 -4.19681 -4.9871 0
M  V30 2581 N 254.233 0.115231 -1.57178 0
M  V30 2582 C 255.165 1.16694 -1.97269 0
M  V30 2583 C 256.178 1.37445 -0.872502 0
M  V30 2584 O 257.367 1.36454 -1.15077 0
M  V30 2585 C 254.467 2.52627 -2.25905 0
M  V30 2586 C 253.64 2.52427 -3.57211 0
M  V30 2587 C 252.699 3.70134 -3.74016 0
M  V30 2588 O 251.725 3.53546 -4.46087 0
M  V30 2589 N 252.927 4.88844 -3.13068 0
M  V30 2590 H 255.692 0.82588 -2.88096 0
M  V30 2591 H 253.253 0.304461 -1.59011 0
M  V30 2592 H 255.245 3.29937 -2.34359 0
M  V30 2593 H 253.815 2.789 -1.41186 0
M  V30 2594 H 253.035 1.60805 -3.5991 0
M  V30 2595 H 254.323 2.49353 -4.43509 0
M  V30 2596 H 253.721 5.05225 -2.54489 0
M  V30 2597 H 252.278 5.63817 -3.27037 0
M  V30 2598 N 255.711 1.52812 0.385517 0
M  V30 2599 C 257.127 1.4214 0.725829 0
M  V30 2600 C 257.327 0.544589 1.94001 0
M  V30 2601 O 256.383 0.0193693 2.52493 0
M  V30 2602 C 257.696 2.85042 0.957668 0
M  V30 2603 C 259.244 2.94543 1.05892 0
M  V30 2604 C 259.719 4.38464 1.32337 0
M  V30 2605 N 261.21 4.41804 1.39151 0
M  V30 2606 C 261.945 5.5025 1.61285 0
M  V30 2607 N 261.441 6.68775 1.80866 0
M  V30 2608 N 263.234 5.37798 1.63492 0
M  V30 2609 H 255.385 2.08338 -0.413383 0
M  V30 2610 H 257.648 0.940016 -0.122775 0
M  V30 2611 H 257.354 3.51431 0.137568 0
M  V30 2612 H 257.228 3.27505 1.87137 0
M  V30 2613 H 259.615 2.28321 1.86959 0
M  V30 2614 H 259.696 2.55504 0.123057 0
M  V30 2615 H 259.34 5.05254 0.517793 0
M  V30 2616 H 259.27 4.75059 2.27214 0
M  V30 2617 H 261.761 3.56377 1.25713 0
M  V30 2618 H 262.074 7.47197 1.97271 0
M  V30 2619 H 260.419 6.71797 1.78083 0
M  V30 2620 H 263.61 4.44171 1.47749 0
M  V30 2621 H 263.783 6.22382 1.80402 0
M  V30 2622 N 257.189 -0.644168 1.43834 0
M  V30 2623 C 258.417 -1.43147 1.49387 0
M  V30 2624 C 258.832 -1.88452 0.114583 0
M  V30 2625 O 258.189 -1.60047 -0.876989 0
M  V30 2626 C 258.24 -2.66046 2.44748 0
M  V30 2627 O 257.961 -2.22633 3.77314 0
M  V30 2628 C 259.462 -3.59311 2.59635 0
M  V30 2629 H 256.682 -0.439447 0.507077 0
M  V30 2630 H 259.226 -0.78895 1.88669 0
M  V30 2631 H 257.381 -3.26418 2.08638 0
M  V30 2632 H 257.795 -3.02216 4.28679 0
M  V30 2633 H 259.269 -4.42187 3.30416 0
M  V30 2634 H 259.746 -4.07259 1.64427 0
M  V30 2635 H 260.352 -3.04816 2.96593 0
M  V30 2636 N 258.668 -1.30515 -0.883378 0
M  V30 2637 C 259.916 -1.19194 -1.63209 0
M  V30 2638 C 260.237 0.253205 -1.93349 0
M  V30 2639 O 259.507 1.17025 -1.57105 0
M  V30 2640 H 258.087 -0.438148 -0.605009 0
M  V30 2641 H 260.749 -1.63663 -1.05832 0
M  V30 2642 H 259.845 -1.75396 -2.58153 0
M  V30 2643 N 260.146 1.09593 -1.13257 0
M  V30 2644 C 261.109 2.14359 -0.811358 0
M  V30 2645 C 262.109 1.59808 0.178377 0
M  V30 2646 O 263.299 1.74132 -0.0484911 0
M  V30 2647 C 260.431 3.40269 -0.207276 0
M  V30 2648 H 261.624 2.44284 -1.73969 0
M  V30 2649 H 259.177 1.25102 -0.936973 0
M  V30 2650 H 259.912 3.15969 0.73036 0
M  V30 2651 H 259.697 3.81154 -0.919992 0
M  V30 2652 H 261.187 4.176 0.000667944 0
M  V30 2653 N 261.624 0.925811 1.2754 0
M  V30 2654 C 262.87 0.566092 1.94739 0
M  V30 2655 C 263.203 -0.890057 1.72603 0
M  V30 2656 O 262.478 -1.63467 1.05399 0
M  V30 2657 C 262.761 0.89054 3.48915 0
M  V30 2658 C 262.614 2.4003 3.80402 0
M  V30 2659 C 263.933 0.395101 4.38323 0
M  V30 2660 H 261.052 0.20714 0.707292 0
M  V30 2661 H 263.694 1.15725 1.50691 0
M  V30 2662 H 261.844 0.387452 3.86563 0
M  V30 2663 H 263.516 2.97494 3.52555 0
M  V30 2664 H 261.759 2.85028 3.2702 0
M  V30 2665 H 262.43 2.57785 4.8811 0
M  V30 2666 H 264.906 0.826241 4.07814 0
M  V30 2667 H 263.782 0.651086 5.45025 0
M  V30 2668 H 264.043 -0.704798 4.36446 0
M  V30 2669 N 263.102 -1.41638 0.69111 0
M  V30 2670 C 264.332 -2.0533 0.228758 0
M  V30 2671 C 264.74 -1.52089 -1.12541 0
M  V30 2672 O 264.083 -0.662145 -1.71351 0
M  V30 2673 C 264.145 -3.59349 0.10407 0
M  V30 2674 C 263.809 -4.35362 1.38956 0
M  V30 2675 C 264.806 -4.64942 2.32648 0
M  V30 2676 C 262.491 -4.74714 1.64169 0
M  V30 2677 C 264.485 -5.32828 3.49818 0
M  V30 2678 C 262.172 -5.42338 2.81625 0
M  V30 2679 C 263.17 -5.71322 3.74273 0
M  V30 2680 O 262.858 -6.37554 4.89673 0
M  V30 2681 H 262.59 -0.667796 0.104997 0
M  V30 2682 H 265.144 -1.82477 0.942938 0
M  V30 2683 H 263.374 -3.80924 -0.665839 0
M  V30 2684 H 265.063 -4.04633 -0.320519 0
M  V30 2685 H 265.829 -4.35025 2.14425 0
M  V30 2686 H 261.708 -4.51538 0.929202 0
M  V30 2687 H 265.252 -5.55368 4.22152 0
M  V30 2688 H 261.149 -5.71673 2.99768 0
M  V30 2689 H 261.917 -6.56049 4.8943 0
M  V30 2690 N 264.58 -0.43555 -1.51462 0
M  V30 2691 C 265.543 0.365137 -2.26273 0
M  V30 2692 C 266.543 0.951227 -1.29647 0
M  V30 2693 O 267.733 0.825958 -1.53374 0
M  V30 2694 C 264.865 1.51645 -3.05314 0
M  V30 2695 H 266.058 -0.290474 -2.9849 0
M  V30 2696 H 263.611 -0.188676 -1.55157 0
M  V30 2697 H 264.346 2.20816 -2.3751 0
M  V30 2698 H 264.131 1.10238 -3.76284 0
M  V30 2699 H 265.621 2.08218 -3.61987 0
M  V30 2700 N 266.058 1.56714 -0.166846 0
M  V30 2701 C 266.968 2.21331 0.777791 0
M  V30 2702 C 267.984 1.20358 1.25658 0
M  V30 2703 O 269.16 1.53005 1.30964 0
M  V30 2704 C 266.225 2.83787 1.99163 0
M  V30 2705 C 265.286 3.99947 1.56016 0
M  V30 2706 C 264.519 4.59415 2.71613 0
M  V30 2707 O 264.742 4.17769 3.88362 0
M  V30 2708 O 263.676 5.49359 2.45945 0
M  V30 2709 H 267.502 3.02605 0.257636 0
M  V30 2710 H 265.087 1.49275 0.0611393 0
M  V30 2711 H 266.969 3.23405 2.70161 0
M  V30 2712 H 265.644 2.05513 2.50092 0
M  V30 2713 H 264.551 3.65007 0.819809 0
M  V30 2714 H 265.884 4.79801 1.09782 0
M  V30 2715 N 267.536 -0.106894 1.57237 0
M  V30 2716 C 268.466 -1.13148 2.04254 0
M  V30 2717 C 269.447 -1.42476 0.929224 0
M  V30 2718 O 270.632 -1.52709 1.19973 0
M  V30 2719 C 267.762 -2.4545 2.45706 0
M  V30 2720 C 266.716 -2.30558 3.60592 0
M  V30 2721 C 266.042 -3.67931 3.87983 0
M  V30 2722 C 267.342 -1.75597 4.91897 0
M  V30 2723 H 269.036 -0.740374 2.90101 0
M  V30 2724 H 266.582 -0.354696 1.39563 0
M  V30 2725 H 268.535 -3.17389 2.77205 0
M  V30 2726 H 267.259 -2.86475 1.56843 0
M  V30 2727 H 265.918 -1.61067 3.29322 0
M  V30 2728 H 265.566 -4.06462 2.96306 0
M  V30 2729 H 265.266 -3.58817 4.65322 0
M  V30 2730 H 266.79 -4.41356 4.21945 0
M  V30 2731 H 268.204 -2.37364 5.21854 0
M  V30 2732 H 266.601 -1.77272 5.73319 0
M  V30 2733 H 267.671 -0.714451 4.79608 0
M  V30 2734 N 269.014 -1.53014 -0.377408 0
M  V30 2735 C 269.977 -1.77957 -1.44444 0
M  V30 2736 C 270.977 -0.649763 -1.47087 0
M  V30 2737 O 272.167 -0.917897 -1.48055 0
M  V30 2738 C 269.299 -1.89089 -2.83651 0
M  V30 2739 H 270.492 -2.73243 -1.23606 0
M  V30 2740 H 268.045 -1.43912 -0.609844 0
M  V30 2741 H 268.78 -0.958293 -3.09818 0
M  V30 2742 H 268.565 -2.71254 -2.83132 0
M  V30 2743 H 270.055 -2.1002 -3.60945 0
M  V30 2744 N 270.492 0.636531 -1.44174 0
M  V30 2745 C 271.455 1.73063 -1.50273 0
M  V30 2746 C 272.455 1.56113 -0.385397 0
M  V30 2747 O 273.645 1.61707 -0.64781 0
M  V30 2748 C 270.777 3.12096 -1.37145 0
M  V30 2749 H 271.97 1.69031 -2.47727 0
M  V30 2750 H 269.523 0.849706 -1.31186 0
M  V30 2751 H 270.258 3.21728 -0.407636 0
M  V30 2752 H 270.043 3.25805 -2.18159 0
M  V30 2753 H 271.533 3.91846 -1.44382 0
M  V30 2754 N 271.97 1.30982 0.876444 0
M  V30 2755 C 272.902 1.13902 1.98894 0
M  V30 2756 C 273.915 0.0798815 1.62604 0
M  V30 2757 O 275.104 0.326743 1.75484 0
M  V30 2758 C 272.204 0.716699 3.31235 0
M  V30 2759 C 271.377 1.85945 3.95908 0
M  V30 2760 C 270.436 1.42426 5.06558 0
M  V30 2761 O 269.462 2.13287 5.27729 0
M  V30 2762 N 270.664 0.308025 5.79682 0
M  V30 2763 H 273.429 2.09724 2.14094 0
M  V30 2764 H 270.99 1.2323 1.05004 0
M  V30 2765 H 272.982 0.408403 4.02634 0
M  V30 2766 H 271.552 -0.149719 3.12241 0
M  V30 2767 H 270.772 2.33541 3.17573 0
M  V30 2768 H 272.06 2.62503 4.35855 0
M  V30 2769 H 271.458 -0.282241 5.64995 0
M  V30 2770 H 270.015 0.0592282 6.51773 0
M  V30 2771 N 273.449 -1.08991 1.13837 0
M  V30 2772 C 274.697 -1.80899 0.901098 0
M  V30 2773 C 275.018 -1.86356 -0.574134 0
M  V30 2774 O 274.288 -1.35235 -1.41733 0
M  V30 2775 H 272.868 -0.669966 0.330386 0
M  V30 2776 H 275.53 -1.318 1.43578 0
M  V30 2777 H 274.626 -2.83929 1.29578 0
M  V30 2778 N 274.927 -0.932562 -1.27047 0
M  V30 2779 C 276.173 -0.585913 -1.94778 0
M  V30 2780 C 276.528 0.864142 -1.71902 0
M  V30 2781 O 275.821 1.60894 -1.04037 0
M  V30 2782 C 276.015 -0.853713 -3.47054 0
M  V30 2783 C 275.844 -2.32825 -3.84737 0
M  V30 2784 C 274.614 -2.98184 -4.07939 0
M  V30 2785 C 276.812 -3.30612 -3.93954 0
M  V30 2786 N 274.794 -4.3574 -4.3244 0
M  V30 2787 C 276.165 -4.53395 -4.22887 0
M  V30 2788 C 278.22 -3.25755 -3.76548 0
M  V30 2789 C 276.923 -5.71927 -4.36224 0
M  V30 2790 C 278.949 -4.43604 -3.91113 0
M  V30 2791 C 278.311 -5.65166 -4.20437 0
M  V30 2792 H 274.41 -0.264617 -0.735868 0
M  V30 2793 H 276.994 -1.20019 -1.53309 0
M  V30 2794 H 275.165 -0.268557 -3.8747 0
M  V30 2795 H 276.897 -0.469202 -4.01971 0
M  V30 2796 H 273.652 -2.48835 -4.02961 0
M  V30 2797 H 274.076 -5.06915 -4.48738 0
M  V30 2798 H 278.718 -2.32835 -3.52913 0
M  V30 2799 H 276.436 -6.65308 -4.58683 0
M  V30 2800 H 280.022 -4.41368 -3.79059 0
M  V30 2801 H 278.902 -6.54836 -4.31462 0
M  V30 2802 N 276.405 1.4127 -0.698611 0
M  V30 2803 C 277.653 2.00782 -0.230409 0
M  V30 2804 C 277.974 1.5562 1.17505 0
M  V30 2805 O 277.244 0.78815 1.79346 0
M  V30 2806 H 275.824 0.742464 -0.0821944 0
M  V30 2807 H 278.486 1.72852 -0.90045 0
M  V30 2808 H 277.582 3.11095 -0.25021 0
M  V30 2809 N 277.883 0.443576 1.51229 0
M  V30 2810 C 279.131 -0.120557 2.0174 0
M  V30 2811 C 279.452 -1.42665 1.32935 0
M  V30 2812 O 278.722 -1.9028 0.465866 0
M  V30 2813 H 277.302 -0.0475426 0.745486 0
M  V30 2814 H 279.964 0.587711 1.85828 0
M  V30 2815 H 279.06 -0.291972 3.10731 0
M  V30 2816 N 279.361 -1.56624 0.175154 0
M  V30 2817 C 280.777 -1.58571 -0.180966 0
M  V30 2818 C 280.977 -1.19065 -1.6256 0
M  V30 2819 O 280.033 -0.904044 -2.35761 0
M  V30 2820 C 281.346 -3.00522 0.103326 0
M  V30 2821 C 282.894 -3.12972 0.0418426 0
M  V30 2822 C 283.369 -4.57022 0.299175 0
M  V30 2823 N 284.86 -4.62541 0.247086 0
M  V30 2824 C 285.595 -5.71857 0.420318 0
M  V30 2825 N 285.091 -6.89717 0.652816 0
M  V30 2826 N 286.884 -5.60972 0.355957 0
M  V30 2827 H 279.035 -1.80589 1.11809 0
M  V30 2828 H 281.298 -0.837178 0.444788 0
M  V30 2829 H 281.004 -3.33916 1.10422 0
M  V30 2830 H 280.878 -3.72344 -0.603299 0
M  V30 2831 H 283.265 -2.79403 -0.949636 0
M  V30 2832 H 283.346 -2.43578 0.781238 0
M  V30 2833 H 282.99 -4.913 1.28788 0
M  V30 2834 H 282.92 -5.24579 -0.460876 0
M  V30 2835 H 285.411 -3.77829 0.0731895 0
M  V30 2836 H 285.724 -7.68911 0.774347 0
M  V30 2837 H 284.069 -6.91572 0.689476 0
M  V30 2838 H 287.26 -4.67773 0.174882 0
M  V30 2839 H 287.433 -6.46111 0.494388 0
M  V30 2840 N 280.839 0.0985539 -1.57292 0
M  V30 2841 C 282.085 0.798769 -1.87059 0
M  V30 2842 C 282.44 1.76514 -0.76555 0
M  V30 2843 O 281.733 1.90181 0.232752 0
M  V30 2844 C 281.927 1.56927 -3.21105 0
M  V30 2845 C 281.756 0.679026 -4.44544 0
M  V30 2846 C 280.526 0.326071 -5.04247 0
M  V30 2847 C 282.724 -0.0124715 -5.14298 0
M  V30 2848 N 280.706 -0.572702 -6.11223 0
M  V30 2849 C 282.077 -0.769446 -6.15207 0
M  V30 2850 C 284.132 -0.0867545 -4.97824 0
M  V30 2851 C 282.835 -1.59376 -7.01421 0
M  V30 2852 C 284.861 -0.897955 -5.84543 0
M  V30 2853 C 284.223 -1.64306 -6.84969 0
M  V30 2854 H 280.322 0.268568 -0.734435 0
M  V30 2855 H 282.906 0.0614664 -1.94603 0
M  V30 2856 H 281.077 2.27748 -3.1462 0
M  V30 2857 H 282.809 2.21641 -3.38611 0
M  V30 2858 H 279.564 0.67295 -4.68795 0
M  V30 2859 H 279.988 -1.01454 -6.69355 0
M  V30 2860 H 284.63 0.474963 -4.20124 0
M  V30 2861 H 282.348 -2.16655 -7.78515 0
M  V30 2862 H 285.934 -0.958059 -5.73858 0
M  V30 2863 H 284.814 -2.26065 -7.50909 0
M  V30 2864 N 282.317 1.53212 0.369288 0
M  V30 2865 C 283.247 1.82365 1.45826 0
M  V30 2866 C 284.228 0.676907 1.56051 0
M  V30 2867 O 285.413 0.926401 1.70679 0
M  V30 2868 C 282.543 2.01023 2.83208 0
M  V30 2869 C 281.497 3.1678 2.8781 0
M  V30 2870 C 280.823 3.20724 4.27832 0
M  V30 2871 C 282.123 4.55447 2.55667 0
M  V30 2872 H 283.817 2.73559 1.21678 0
M  V30 2873 H 281.363 1.3163 0.583911 0
M  V30 2874 H 283.316 2.20001 3.59413 0
M  V30 2875 H 282.04 1.06536 3.08736 0
M  V30 2876 H 280.699 2.97616 2.14056 0
M  V30 2877 H 280.347 2.23882 4.50429 0
M  V30 2878 H 280.047 3.98496 4.31827 0
M  V30 2879 H 281.571 3.41881 5.05915 0
M  V30 2880 H 282.985 4.74611 3.21586 0
M  V30 2881 H 281.382 5.35432 2.70984 0
M  V30 2882 H 282.452 4.60812 1.5093 0
M  V30 2883 N 283.795 -0.628877 1.44509 0
M  V30 2884 C 285.041 -1.39045 1.47629 0
M  V30 2885 C 285.374 -1.93892 0.109343 0
M  V30 2886 O 284.649 -1.7379 -0.87334 0
M  V30 2887 C 284.932 -2.55408 2.53848 0
M  V30 2888 C 284.785 -2.05896 3.99909 0
M  V30 2889 C 286.104 -3.5759 2.56549 0
M  V30 2890 H 283.223 -0.504232 0.537512 0
M  V30 2891 H 285.865 -0.710854 1.76201 0
M  V30 2892 H 284.015 -3.13384 2.29615 0
M  V30 2893 H 285.687 -1.52734 4.35282 0
M  V30 2894 H 283.93 -1.37061 4.11578 0
M  V30 2895 H 284.601 -2.89681 4.69882 0
M  V30 2896 H 287.077 -3.09419 2.78207 0
M  V30 2897 H 285.953 -4.36527 3.32769 0
M  V30 2898 H 286.214 -4.11808 1.60832 0
M  V30 2899 N 285.273 -1.31445 -0.869486 0
M  V30 2900 C 286.519 -1.21337 -1.62496 0
M  V30 2901 C 286.852 0.227872 -1.92858 0
M  V30 2902 O 286.127 1.16094 -1.56053 0
M  V30 2903 C 286.41 -2.05814 -2.95487 0
M  V30 2904 C 286.263 -3.5824 -2.72 0
M  V30 2905 C 287.582 -1.9079 -3.96594 0
M  V30 2906 H 284.701 -0.442135 -0.589649 0
M  V30 2907 H 287.343 -1.6124 -1.00507 0
M  V30 2908 H 285.493 -1.71913 -3.48394 0
M  V30 2909 H 287.165 -4.0228 -2.25762 0
M  V30 2910 H 285.408 -3.81647 -2.06224 0
M  V30 2911 H 286.079 -4.12657 -3.66631 0
M  V30 2912 H 288.555 -2.20459 -3.52898 0
M  V30 2913 H 287.431 -2.52199 -4.87531 0
M  V30 2914 H 287.692 -0.871341 -4.33428 0
M  V30 2915 N 286.751 1.08385 -1.14413 0
M  V30 2916 C 287.999 1.80419 -0.910679 0
M  V30 2917 C 288.32 1.86658 0.564243 0
M  V30 2918 O 287.59 1.35985 1.41014 0
M  V30 2919 H 286.17 0.668204 -0.333934 0
M  V30 2920 H 288.832 1.31037 -1.44275 0
M  V30 2921 H 287.928 2.83238 -1.31082 0
M  V30 2922 N 288.23 0.939286 1.26551 0
M  V30 2923 C 289.193 0.451987 2.24699 0
M  V30 2924 C 290.193 -0.435869 1.5478 0
M  V30 2925 O 291.383 -0.235314 1.72603 0
M  V30 2926 C 288.515 -0.348801 3.39111 0
M  V30 2927 H 289.708 1.3193 2.69322 0
M  V30 2928 H 287.261 0.721072 1.38673 0
M  V30 2929 H 287.996 -1.23444 2.99887 0
M  V30 2930 H 287.781 0.287945 3.91041 0
M  V30 2931 H 289.271 -0.679726 4.12031 0
M  V30 2932 N 289.708 -1.40897 0.706093 0
M  V30 2933 C 290.985 -1.94868 0.169099 0
M  V30 2934 C 291.365 -1.64485 -1.32318 0
M  V30 2935 O 290.713 -0.95744 -2.07474 0
M  V30 2936 C 290.923 -3.45798 0.471654 0
M  V30 2937 C 292.271 -4.22663 0.405127 0
M  V30 2938 O 293.295 -3.53865 0.407168 0
M  V30 2939 O 292.154 -5.45216 0.374383 0
M  V30 2940 H 289.248 -0.82673 0.0211352 0
M  V30 2941 H 291.794 -1.50558 0.782976 0
M  V30 2942 H 290.566 -3.61235 1.50416 0
M  V30 2943 H 290.189 -3.97225 -0.172666 0
M  V30 2944 N 291.186 -0.45159 -1.50991 0
M  V30 2945 C 292.432 0.110237 -2.025 0
M  V30 2946 C 292.765 1.41109 -1.33424 0
M  V30 2947 O 292.04 1.89135 -0.453659 0
M  V30 2948 C 292.323 0.314271 -3.58726 0
M  V30 2949 C 292.176 -1.00623 -4.38401 0
M  V30 2950 C 293.495 1.07767 -4.26702 0
M  V30 2951 H 290.614 0.0385897 -0.735989 0
M  V30 2952 H 293.256 -0.593374 -1.80497 0
M  V30 2953 H 291.406 0.913601 -3.77605 0
M  V30 2954 H 293.078 -1.64064 -4.31139 0
M  V30 2955 H 291.321 -1.6075 -4.02917 0
M  V30 2956 H 291.992 -0.817341 -5.45915 0
M  V30 2957 H 294.468 0.56986 -4.12179 0
M  V30 2958 H 293.344 1.18921 -5.35863 0
M  V30 2959 H 293.605 2.10939 -3.88532 0
M  V30 2960 N 292.664 1.56529 -0.183458 0
M  V30 2961 C 293.941 1.88959 0.50536 0
M  V30 2962 C 294.321 1.09523 1.80466 0
M  V30 2963 O 293.669 0.19278 2.27685 0
M  V30 2964 C 293.879 3.41162 0.73547 0
M  V30 2965 C 295.227 4.11155 1.06005 0
M  V30 2966 O 296.251 3.46548 0.823594 0
M  V30 2967 O 295.11 5.25318 1.50675 0
M  V30 2968 H 292.204 0.78441 0.261973 0
M  V30 2969 H 294.75 1.68231 -0.222802 0
M  V30 2970 H 293.522 3.90874 -0.182561 0
M  V30 2971 H 293.145 3.67543 1.51651 0
M  V30 2972 N 294.142 -0.090211 1.57342 0
M  V30 2973 C 295.553 -0.644173 1.75235 0
M  V30 2974 C 295.904 -1.78865 0.806335 0
M  V30 2975 O 295.029 -2.16395 -0.0140128 0
M  V30 2976 C 295.624 -1.17532 3.1776 0
M  V30 2977 C 294.183 -1.67531 3.37061 0
M  V30 2978 C 293.33 -0.58693 2.71017 0
M  V30 2979 H 296.281 0.135884 1.58117 0
M  V30 2980 H 296.302 -2.04455 3.20902 0
M  V30 2981 H 295.814 -0.342138 3.86589 0
M  V30 2982 H 293.915 -2.53234 2.73319 0
M  V30 2983 H 294.028 -1.76493 4.45406 0
M  V30 2984 H 292.392 -1.02756 2.33052 0
M  V30 2985 H 293.175 0.235758 3.4249 0
M  V30 2986 N 295.62 -1.53406 -0.361157 0
M  V30 2987 C 296.868 -1.69467 -1.10115 0
M  V30 2988 C 297.189 -0.451352 -1.89705 0
M  V30 2989 O 296.459 0.534636 -1.88463 0
M  V30 2990 H 295.039 -0.624749 -0.409508 0
M  V30 2991 H 297.701 -1.90609 -0.406699 0
M  V30 2992 H 296.797 -2.55774 -1.78847 0
M  V30 2993 N 297.098 0.621204 -1.44841 0
M  V30 2994 C 298.514 0.94048 -1.28946 0
M  V30 2995 C 298.714 2.00154 -0.23249 0
M  V30 2996 O 297.77 2.49651 0.378237 0
M  V30 2997 C 299.083 1.39433 -2.66419 0
M  V30 2998 C 300.631 1.50927 -2.74208 0
M  V30 2999 C 301.106 1.99692 -4.12174 0
M  V30 3000 N 302.597 2.06947 -4.144 0
M  V30 3001 C 303.332 2.45871 -5.1801 0
M  V30 3002 N 302.828 2.83862 -6.31977 0
M  V30 3003 N 304.621 2.46092 -5.05366 0
M  V30 3004 H 296.772 -0.0803548 -2.12248 0
M  V30 3005 H 299.035 0.0266913 -0.947624 0
M  V30 3006 H 298.741 0.688925 -3.44887 0
M  V30 3007 H 298.615 2.36347 -2.93973 0
M  V30 3008 H 301.002 2.20561 -1.96053 0
M  V30 3009 H 301.083 0.523627 -2.50383 0
M  V30 3010 H 300.727 1.30649 -4.90809 0
M  V30 3011 H 300.657 2.99146 -4.33381 0
M  V30 3012 H 303.148 1.80232 -3.32152 0
M  V30 3013 H 303.461 3.12405 -7.0684 0
M  V30 3014 H 301.806 2.8159 -6.35399 0
M  V30 3015 H 304.997 2.1581 -4.15384 0
M  V30 3016 H 305.17 2.76102 -5.86235 0
M  V30 3017 N 298.576 1.31904 0.862503 0
M  V30 3018 C 299.506 1.22782 1.98612 0
M  V30 3019 C 300.487 0.113362 1.69722 0
M  V30 3020 O 301.672 0.299218 1.91881 0
M  V30 3021 C 298.802 0.942058 3.34279 0
M  V30 3022 C 297.756 2.0169 3.77499 0
M  V30 3023 C 297.082 1.58369 5.10709 0
M  V30 3024 C 298.382 3.43096 3.93805 0
M  V30 3025 H 300.076 2.16788 2.06502 0
M  V30 3026 H 297.622 1.04366 0.992154 0
M  V30 3027 H 299.575 0.864818 4.1243 0
M  V30 3028 H 298.299 -0.0336603 3.26583 0
M  V30 3029 H 296.958 2.08416 3.01593 0
M  V30 3030 H 296.606 0.595628 4.99461 0
M  V30 3031 H 296.306 2.30279 5.40597 0
M  V30 3032 H 297.83 1.52067 5.91361 0
M  V30 3033 H 299.244 3.39003 4.62331 0
M  V30 3034 H 297.641 4.13288 4.35101 0
M  V30 3035 H 298.711 3.83334 2.96957 0
M  V30 3036 N 300.054 -1.07777 1.14986 0
M  V30 3037 C 301.017 -2.13041 0.845358 0
M  V30 3038 C 302.017 -1.60071 -0.152931 0
M  V30 3039 O 303.207 -1.74033 0.0761879 0
M  V30 3040 C 300.339 -3.39896 0.261383 0
M  V30 3041 H 301.532 -2.41485 1.77834 0
M  V30 3042 H 299.085 -1.23595 0.956757 0
M  V30 3043 H 299.82 -3.17091 -0.68 0
M  V30 3044 H 299.605 -3.79642 0.980514 0
M  V30 3045 H 301.095 -4.17548 0.0657687 0
M  V30 3046 N 301.532 -0.945985 -1.26051 0
M  V30 3047 C 302.495 -0.463897 -2.24456 0
M  V30 3048 C 303.495 0.427655 -1.55009 0
M  V30 3049 O 304.685 0.226157 -1.72726 0
M  V30 3050 C 301.817 0.330812 -3.39291 0
M  V30 3051 H 303.01 -1.33357 -2.68619 0
M  V30 3052 H 300.563 -0.728416 -1.38289 0
M  V30 3053 H 301.298 1.21852 -3.00537 0
M  V30 3054 H 301.083 -0.308679 -3.90883 0
M  V30 3055 H 302.573 0.657865 -4.12386 0
M  V30 3056 N 303.011 1.40521 -0.713556 0
M  V30 3057 C 304.239 2.05237 -0.261775 0
M  V30 3058 C 304.654 1.53755 1.09567 0
M  V30 3059 O 304.011 0.693268 1.6882 0
M  V30 3060 C 304.062 3.60763 -0.230706 0
M  V30 3061 O 303.783 4.10345 -1.53455 0
M  V30 3062 C 305.284 4.42651 0.239874 0
M  V30 3063 H 302.504 0.660533 -0.118057 0
M  V30 3064 H 305.048 1.79967 -0.971192 0
M  V30 3065 H 303.203 3.8501 0.429661 0
M  V30 3066 H 303.617 5.04526 -1.43366 0
M  V30 3067 H 305.091 5.51599 0.210468 0
M  V30 3068 H 305.568 4.20082 1.28171 0
M  V30 3069 H 306.174 4.23507 -0.390142 0
M  V30 3070 N 304.489 0.459591 1.5075 0
M  V30 3071 C 305.419 -0.330644 2.31147 0
M  V30 3072 C 306.4 -1.00087 1.37538 0
M  V30 3073 O 307.585 -1.00025 1.66459 0
M  V30 3074 C 304.715 -1.41958 3.16962 0
M  V30 3075 C 303.669 -0.871608 4.19031 0
M  V30 3076 C 302.995 -2.05797 4.9351 0
M  V30 3077 C 304.295 0.109251 5.22186 0
M  V30 3078 H 305.989 0.340336 2.97459 0
M  V30 3079 H 303.535 0.165119 1.4305 0
M  V30 3080 H 305.488 -1.9798 3.71997 0
M  V30 3081 H 304.212 -2.11917 2.48513 0
M  V30 3082 H 302.871 -0.333442 3.6508 0
M  V30 3083 H 302.519 -2.74427 4.21544 0
M  V30 3084 H 302.219 -1.6976 5.62544 0
M  V30 3085 H 303.743 -2.62331 5.51375 0
M  V30 3086 H 305.157 -0.361405 5.7216 0
M  V30 3087 H 303.554 0.383316 5.98875 0
M  V30 3088 H 304.624 1.03887 4.73641 0
M  V30 3089 N 305.967 -1.56429 0.191757 0
M  V30 3090 C 306.93 -2.17707 -0.716688 0
M  V30 3091 C 307.93 -1.13061 -1.14341 0
M  V30 3092 O 309.12 -1.38464 -1.05704 0
M  V30 3093 C 306.252 -2.77644 -1.97804 0
M  V30 3094 H 307.445 -2.99342 -0.1829 0
M  V30 3095 H 304.998 -1.56193 -0.0578566 0
M  V30 3096 H 305.733 -1.99799 -2.55443 0
M  V30 3097 H 305.518 -3.54246 -1.68083 0
M  V30 3098 H 307.008 -3.24708 -2.62592 0
M  V30 3099 N 307.445 0.0818655 -1.57387 0
M  V30 3100 C 308.856 0.634871 -1.75574 0
M  V30 3101 C 309.207 1.78435 -0.815809 0
M  V30 3102 O 308.332 2.164 0.0025366 0
M  V30 3103 C 308.927 1.15845 -3.18379 0
M  V30 3104 C 307.486 1.65741 -3.37945 0
M  V30 3105 C 306.633 0.572549 -2.71325 0
M  V30 3106 H 309.584 -0.144268 -1.58043 0
M  V30 3107 H 309.605 2.02751 -3.21982 0
M  V30 3108 H 309.117 0.321631 -3.86765 0
M  V30 3109 H 307.218 2.51781 -2.74658 0
M  V30 3110 H 307.331 1.74129 -4.46336 0
M  V30 3111 H 305.695 1.01518 -2.33594 0
M  V30 3112 H 306.478 -0.253918 -3.4236 0
M  V30 3113 N 308.923 1.53595 0.353017 0
M  V30 3114 C 310.334 1.61937 0.929153 0
M  V30 3115 C 310.685 0.494686 1.89861 0
M  V30 3116 O 309.81 -0.377017 2.1309 0
M  V30 3117 C 310.405 2.93526 1.69199 0
M  V30 3118 C 308.964 3.04161 2.21727 0
M  V30 3119 C 308.111 2.57322 1.03348 0
M  V30 3120 H 311.062 1.58155 0.131431 0
M  V30 3121 H 311.083 2.82034 2.55416 0
M  V30 3122 H 310.595 3.75362 0.986144 0
M  V30 3123 H 308.696 2.26938 2.95516 0
M  V30 3124 H 308.809 4.09465 2.48748 0
M  V30 3125 H 307.173 2.12499 1.40414 0
M  V30 3126 H 307.956 3.41588 0.342428 0
M  V30 3127 N 310.401 -0.613514 1.45168 0
M  V30 3128 C 311.678 -1.37263 1.39349 0
M  V30 3129 C 312.058 -2.11012 0.0610848 0
M  V30 3130 O 311.406 -2.07502 -0.956825 0
M  V30 3131 C 311.616 -2.3244 2.60332 0
M  V30 3132 C 312.964 -2.9523 3.05163 0
M  V30 3133 O 313.988 -2.42762 2.60663 0
M  V30 3134 O 312.847 -3.90454 3.82372 0
M  V30 3135 H 309.941 -0.615188 0.552696 0
M  V30 3136 H 312.487 -0.637097 1.57287 0
M  V30 3137 H 311.259 -1.77164 3.48896 0
M  V30 3138 H 310.882 -3.13383 2.44698 0
M  V30 3139 N 311.879 -1.3236 -0.855495 0
M  V30 3140 C 313.125 -1.23054 -1.612 0
M  V30 3141 C 313.458 0.207404 -1.93089 0
M  V30 3142 O 312.733 1.14432 -1.57275 0
M  V30 3143 C 313.016 -2.08937 -2.93287 0
M  V30 3144 C 312.869 -3.61105 -2.68185 0
M  V30 3145 C 314.188 -1.94986 -3.94549 0
M  V30 3146 H 311.307 -0.448364 -0.584926 0
M  V30 3147 H 313.949 -1.62297 -0.987917 0
M  V30 3148 H 312.099 -1.75599 -3.46551 0
M  V30 3149 H 313.771 -4.04652 -2.21483 0
M  V30 3150 H 312.014 -3.83813 -2.02164 0
M  V30 3151 H 312.685 -4.16522 -3.62234 0
M  V30 3152 H 315.161 -2.24189 -3.5054 0
M  V30 3153 H 314.037 -2.57356 -4.84829 0
M  V30 3154 H 314.298 -0.917263 -4.3248 0
M  V30 3155 N 313.357 1.07166 -1.15556 0
M  V30 3156 C 314.768 1.6127 -0.940693 0
M  V30 3157 C 315.119 1.89251 0.517551 0
M  V30 3158 O 314.244 1.65937 1.38903 0
M  V30 3159 C 314.839 2.92993 -1.7012 0
M  V30 3160 C 313.398 3.43832 -1.53156 0
M  V30 3161 C 312.545 2.1786 -1.71558 0
M  V30 3162 H 315.496 0.90229 -1.30554 0
M  V30 3163 H 315.517 3.62007 -1.17181 0
M  V30 3164 H 315.029 2.72596 -2.76248 0
M  V30 3165 H 313.13 3.69307 -0.494294 0
M  V30 3166 H 313.243 4.19747 -2.30975 0
M  V30 3167 H 311.607 2.2765 -1.14225 0
M  V30 3168 H 312.39 1.99956 -2.79056 0
M  V30 3169 N 314.835 0.952656 1.25548 0
M  V30 3170 C 316.06 0.623025 1.97821 0
M  V30 3171 C 316.485 -0.7976 1.70352 0
M  V30 3172 O 315.843 -1.53905 0.958283 0
M  V30 3173 C 315.891 0.885532 3.49558 0
M  V30 3174 O 314.995 -0.0366641 4.12384 0
M  V30 3175 H 314.336 0.237082 0.620232 0
M  V30 3176 H 316.866 1.27871 1.59719 0
M  V30 3177 H 316.876 0.811009 3.99858 0
M  V30 3178 H 315.551 1.92094 3.6888 0
M  V30 3179 H 314.128 0.0898954 3.72792 0
M  V30 3180 O 316.352 -1.36754 0.859105 0
M  V30 3181 H 317.043 -1.8829 0.454606 0
M  V30 END ATOM
M  V30 BEGIN BOND
M  V30 END BOND
M  V30 END CTAB
M  END
$$$$
