drugbank_target|P84141 Chondroitinase (Chondroitin lyase) (DB01872; DB02227; DB03284)
 OpenBabel12092120233D

  0  0  0     0  0            999 V3000
M  V30 BEGIN CTAB
M  V30 COUNTS 11173 11295 0 0 0
M  V30 BEGIN ATOM
M  V30 1 H -0.908 1.98254 -0.117106 0
M  V30 2 N 0 1.576 0 0
M  V30 3 C 0.91 2.11853 1.00774 0
M  V30 4 C 1.926 1.06379 1.37693 0
M  V30 5 O 3.102 1.3828 1.46426 0
M  V30 6 C 0.167 2.61108 2.28087 0
M  V30 7 C -0.772 3.81183 1.9748 0
M  V30 8 C -1.539 4.28079 3.18723 0
M  V30 9 O -1.316 3.74307 4.30407 0
M  V30 10 O -2.382 5.20234 3.02721 0
M  V30 11 H 1.444 2.98177 0.576547 0
M  V30 12 H -0.971 1.47789 0.218828 0
M  V30 13 H 0.911 2.92987 3.0288 0
M  V30 14 H -0.414 1.77881 2.70444 0
M  V30 15 H -1.507 3.54277 1.20162 0
M  V30 16 H -0.174 4.65482 1.5996 0
M  V30 17 N 1.4781 -0.272755 1.55222 0
M  V30 18 C 2.4411 -1.32041 1.87344 0
M  V30 19 C 3.4411 -1.42342 0.74803 0
M  V30 20 O 4.6311 -1.41488 1.0162 0
M  V30 21 C 1.7631 -2.70173 2.07893 0
M  V30 22 H 2.9561 -1.04789 2.80997 0
M  V30 23 H 0.5091 -0.51083 1.47717 0
M  V30 24 H 1.2441 -3.02605 1.16622 0
M  V30 25 H 1.0291 -2.64082 2.89833 0
M  V30 26 H 2.5191 -3.45869 2.34017 0
M  V30 27 N 2.9562 -1.48159 -0.537278 0
M  V30 28 C 3.8662 -1.64807 -1.6696 0
M  V30 29 C 4.8822 -0.530651 -1.65711 0
M  V30 30 O 6.0582 -0.800784 -1.84796 0
M  V30 31 C 3.1232 -1.67708 -3.03438 0
M  V30 32 C 2.1842 -2.91025 -3.156 0
M  V30 33 C 1.4172 -2.93778 -4.45567 0
M  V30 34 O 1.6402 -2.05153 -5.3223 0
M  V30 35 O 0.5742 -3.85868 -4.61941 0
M  V30 36 H 4.4002 -2.6066 -1.55853 0
M  V30 37 H 1.9852 -1.31475 -0.709549 0
M  V30 38 H 3.8672 -1.7218 -3.84619 0
M  V30 39 H 2.5422 -0.750278 -3.14885 0
M  V30 40 H 1.4492 -2.92089 -2.33741 0
M  V30 41 H 2.7822 -3.83065 -3.09066 0
M  V30 42 N 4.4343 0.785586 -1.36625 0
M  V30 43 C 5.8453 1.36101 -1.27803 0
M  V30 44 C 6.1963 1.96035 0.0804875 0
M  V30 45 O 5.3213 1.92834 0.982042 0
M  V30 46 C 5.9163 2.47442 -2.31426 0
M  V30 47 C 4.4753 3.00789 -2.26281 0
M  V30 48 C 3.6223 1.73896 -2.15999 0
M  V30 49 H 6.5733 0.586928 -1.47448 0
M  V30 50 H 6.5943 3.2656 -1.95291 0
M  V30 51 H 6.1063 2.03791 -3.30289 0
M  V30 52 H 4.2073 3.48851 -1.30896 0
M  V30 53 H 4.3203 3.57343 -3.19128 0
M  V30 54 H 2.6843 1.9628 -1.62316 0
M  V30 55 H 3.4673 1.32368 -3.16755 0
M  V30 56 N 5.9124 1.20967 1.01018 0
M  V30 57 C 7.1604 1.02172 1.74371 0
M  V30 58 C 7.4814 -0.446414 1.89821 0
M  V30 59 O 6.7514 -1.32234 1.44537 0
M  V30 60 H 5.3314 0.375066 0.646014 0
M  V30 61 H 7.9934 1.52187 1.21758 0
M  V30 62 H 7.0894 1.48538 2.74487 0
M  V30 63 N 7.3905 -1.2043 1.01659 0
M  V30 64 C 8.3535 -2.21433 0.591616 0
M  V30 65 C 9.3535 -1.57203 -0.338226 0
M  V30 66 O 10.5435 -1.73737 -0.126918 0
M  V30 67 C 7.6755 -3.40628 -0.136058 0
M  V30 68 H 8.8685 -2.60545 1.48514 0
M  V30 69 H 6.4215 -1.33893 0.806379 0
M  V30 70 H 7.1565 -3.07019 -1.04449 0
M  V30 71 H 6.9415 -3.88475 0.531917 0
M  V30 72 H 8.4315 -4.15475 -0.420735 0
M  V30 73 N 8.8686 -0.792821 -1.36206 0
M  V30 74 C 9.8316 -0.199459 -2.2833 0
M  V30 75 C 10.8316 0.605189 -1.48977 0
M  V30 76 O 12.0216 0.425685 -1.68919 0
M  V30 77 C 9.1536 0.723523 -3.33134 0
M  V30 78 H 10.3466 -1.01181 -2.82316 0
M  V30 79 H 7.8996 -0.562485 -1.45828 0
M  V30 80 H 8.6346 1.56008 -2.84309 0
M  V30 81 H 8.4196 0.148436 -3.91819 0
M  V30 82 H 9.9096 1.13344 -4.01924 0
M  V30 83 N 10.3467 1.47872 -0.545128 0
M  V30 84 C 11.2567 2.33633 0.212746 0
M  V30 85 C 12.2727 1.4744 0.923983 0
M  V30 86 O 13.4487 1.80393 0.895572 0
M  V30 87 C 10.5137 3.23884 1.23693 0
M  V30 88 C 9.5747 4.25961 0.534417 0
M  V30 89 C 8.8077 5.11899 1.5098 0
M  V30 90 O 9.0307 5.00077 2.7437 0
M  V30 91 O 7.9647 5.92831 1.0409 0
M  V30 92 H 11.7907 2.99714 -0.490416 0
M  V30 93 H 9.3757 1.46235 -0.305871 0
M  V30 94 H 11.2577 3.79666 1.82843 0
M  V30 95 H 9.9327 2.60446 1.92222 0
M  V30 96 H 8.8397 3.73972 -0.0979679 0
M  V30 97 H 10.1727 4.92079 -0.109213 0
M  V30 98 N 11.8248 0.280983 1.55075 0
M  V30 99 C 13.0718 -0.334115 1.99725 0
M  V30 100 C 13.3998 -1.5542 1.1694 0
M  V30 101 O 12.6548 -1.94361 0.228531 0
M  V30 102 C 12.9538 -0.754656 3.49342 0
M  V30 103 C 12.6198 0.361445 4.49449 0
M  V30 104 C 11.2818 0.667893 4.76542 0
M  V30 105 C 13.6338 1.11322 5.09173 0
M  V30 106 C 10.9618 1.7296 5.60626 0
M  V30 107 C 13.3138 2.1647 5.9441 0
M  V30 108 C 11.9778 2.47742 6.19822 0
M  V30 109 H 11.2478 -0.122261 0.730844 0
M  V30 110 H 13.8948 0.395917 1.87363 0
M  V30 111 H 12.1998 -1.56446 3.5921 0
M  V30 112 H 13.8968 -1.24142 3.813 0
M  V30 113 H 10.4868 0.112481 4.28452 0
M  V30 114 H 14.6708 0.88973 4.8826 0
M  V30 115 H 9.9268 1.97684 5.78559 0
M  V30 116 H 14.1008 2.75193 6.3972 0
M  V30 117 H 11.7278 3.30145 6.84769 0
M  V30 118 N 13.3029 -1.57598 0.00835791 0
M  V30 119 C 14.2659 -2.07884 -0.965242 0
M  V30 120 C 15.2659 -0.989825 -1.26725 0
M  V30 121 O 16.4559 -1.25218 -1.21104 0
M  V30 122 C 13.5879 -2.52731 -2.28779 0
M  V30 123 H 14.7809 -2.95178 -0.530112 0
M  V30 124 H 12.3339 -1.54458 -0.239283 0
M  V30 125 H 13.0689 -1.68705 -2.76964 0
M  V30 126 H 12.8539 -3.32272 -2.08177 0
M  V30 127 H 14.3439 -2.91933 -2.98605 0
M  V30 128 N 14.781 0.264519 -1.55364 0
M  V30 129 C 15.744 1.31046 -1.88042 0
M  V30 130 C 16.744 1.41943 -0.755569 0
M  V30 131 O 17.934 1.40947 -1.02369 0
M  V30 132 C 15.066 2.69067 -2.09323 0
M  V30 133 H 16.259 1.03297 -2.81549 0
M  V30 134 H 13.812 0.502989 -1.47986 0
M  V30 135 H 14.547 3.01982 -1.18226 0
M  V30 136 H 14.332 2.62542 -2.91229 0
M  V30 137 H 15.822 3.44623 -2.35848 0
M  V30 138 N 16.2591 1.48442 0.529413 0
M  V30 139 C 17.1891 1.65902 1.64313 0
M  V30 140 C 18.1701 0.507897 1.6234 0
M  V30 141 O 19.3551 0.740503 1.79528 0
M  V30 142 C 16.4851 1.69911 3.02898 0
M  V30 143 C 15.4391 2.8453 3.19729 0
M  V30 144 C 14.7651 2.73629 4.59381 0
M  V30 145 C 16.0651 4.25821 3.02447 0
M  V30 146 H 17.7591 2.5914 1.49955 0
M  V30 147 H 15.3051 1.24709 0.719982 0
M  V30 148 H 17.2581 1.80715 3.80684 0
M  V30 149 H 15.9821 0.732524 3.18279 0
M  V30 150 H 14.6411 2.73283 2.44361 0
M  V30 151 H 14.2891 1.74938 4.71599 0
M  V30 152 H 13.9891 3.50541 4.71588 0
M  V30 153 H 15.5131 2.86401 5.39265 0
M  V30 154 H 16.9271 4.37898 3.70024 0
M  V30 155 H 15.3241 5.03735 3.26146 0
M  V30 156 H 16.3941 4.42244 1.98867 0
M  V30 157 N 17.7372 -0.778329 1.37039 0
M  V30 158 C 19.1532 -1.07796 1.17695 0
M  V30 159 C 19.3532 -2.01498 0.00860115 0
M  V30 160 O 18.4092 -2.43901 -0.653352 0
M  V30 161 C 19.7222 -1.68178 2.49272 0
M  V30 162 C 21.2702 -1.80467 2.55735 0
M  V30 163 C 21.7452 -2.44263 3.87427 0
M  V30 164 N 23.2362 -2.51721 3.88833 0
M  V30 165 C 23.9712 -3.01919 4.87476 0
M  V30 166 N 23.4672 -3.5234 5.96513 0
M  V30 167 N 25.2602 -3.00733 4.74885 0
M  V30 168 H 17.4112 -0.156032 2.11826 0
M  V30 169 H 19.6742 -0.131844 0.938787 0
M  V30 170 H 19.3802 -1.06796 3.35093 0
M  V30 171 H 19.2542 -2.67554 2.65885 0
M  V30 172 H 21.6412 -2.40984 1.70325 0
M  V30 173 H 21.7222 -0.798656 2.43013 0
M  V30 174 H 21.3662 -1.84388 4.73248 0
M  V30 175 H 21.2962 -3.45458 3.9745 0
M  V30 176 H 23.7872 -2.1603 3.10063 0
M  V30 177 H 24.1002 -3.89027 6.67741 0
M  V30 178 H 22.4452 -3.50462 6.00168 0
M  V30 179 H 25.6362 -2.60638 3.88826 0
M  V30 180 H 25.8092 -3.39545 5.51918 0
M  V30 181 N 19.2153 -1.21501 -1.00376 0
M  V30 182 C 20.1633 -0.972442 -2.11297 0
M  V30 183 C 21.1573 0.080731 -1.69208 0
M  V30 184 O 22.3633 -0.0707666 -1.79861 0
M  V30 185 H 18.7383 -0.297218 -0.690772 0
M  V30 186 H 20.7093 -1.91394 -2.28934 0
M  V30 187 C 19.4583 -0.555065 -3.43241 0
M  V30 188 H 18.7813 -1.35709 -3.76062 0
M  V30 189 H 20.2213 -0.424664 -4.21868 0
M  V30 190 C 18.6803 0.734147 -3.28804 0
M  V30 191 O 19.2103 1.78937 -3.59645 0
M  V30 192 N 17.4163 0.701133 -2.82015 0
M  V30 193 H 16.9633 -0.157874 -2.57116 0
M  V30 194 H 16.9213 1.56403 -2.72737 0
M  V30 195 N 20.6934 1.19889 -1.02296 0
M  V30 196 C 22.1094 1.41462 -0.738954 0
M  V30 197 C 22.3094 1.89721 0.678846 0
M  V30 198 O 21.3654 2.07016 1.4457 0
M  V30 199 C 22.6784 2.43083 -1.77005 0
M  V30 200 C 24.2264 2.5684 -1.78892 0
M  V30 201 C 24.7014 3.61709 -2.80945 0
M  V30 202 N 26.1924 3.69199 -2.79725 0
M  V30 203 C 26.9274 4.50019 -3.55345 0
M  V30 204 N 26.4234 5.34592 -4.40662 0
M  V30 205 N 28.2164 4.44612 -3.43914 0
M  V30 206 H 20.3674 0.868827 -1.93817 0
M  V30 207 H 22.6304 0.44399 -0.837602 0
M  V30 208 H 22.3364 2.14636 -2.78612 0
M  V30 209 H 22.2104 3.4217 -1.58744 0
M  V30 210 H 24.5974 2.84614 -0.779674 0
M  V30 211 H 24.6784 1.57927 -2.01228 0
M  V30 212 H 24.3224 3.34678 -3.82038 0
M  V30 213 H 24.2524 4.60259 -2.5587 0
M  V30 214 H 26.7434 3.08794 -2.17842 0
M  V30 215 H 27.0564 5.93363 -4.95116 0
M  V30 216 H 25.4014 5.34073 -4.44737 0
M  V30 217 H 28.5924 3.7758 -2.76679 0
M  V30 218 H 28.7654 5.0736 -4.031 0
M  V30 219 N 22.1715 0.800033 1.35784 0
M  V30 220 C 23.4175 0.38701 1.99684 0
M  V30 221 C 23.7725 -1.03268 1.62338 0
M  V30 222 O 23.0655 -1.70543 0.87325 0
M  V30 223 C 23.2595 0.500276 3.53881 0
M  V30 224 C 23.0885 1.92942 4.06206 0
M  V30 225 C 21.8585 2.55637 4.35865 0
M  V30 226 C 24.0565 2.89307 4.25213 0
M  V30 227 N 22.0385 3.9003 4.74078 0
M  V30 228 C 23.4095 4.08556 4.66349 0
M  V30 229 C 25.4645 2.86225 4.07406 0
M  V30 230 C 24.1675 5.25146 4.91543 0
M  V30 231 C 26.1935 4.02011 4.33752 0
M  V30 232 C 25.5555 5.20007 4.75155 0
M  V30 233 H 21.6545 0.189252 0.758754 0
M  V30 234 H 24.2385 1.03988 1.64604 0
M  V30 235 H 22.4095 -0.122568 3.88207 0
M  V30 236 H 24.1415 0.0624733 4.04652 0
M  V30 237 H 20.8965 2.07039 4.25948 0
M  V30 238 H 21.3205 4.59205 4.97454 0
M  V30 239 H 25.9625 1.96154 3.74544 0
M  V30 240 H 23.6805 6.15794 5.23281 0
M  V30 241 H 27.2665 4.00999 4.21534 0
M  V30 242 H 26.1465 6.08113 4.95145 0
M  V30 243 N 23.6496 -1.47581 0.552962 0
M  V30 244 C 24.8956 -2.02782 0.0273648 0
M  V30 245 C 25.2286 -1.42687 -1.31734 0
M  V30 246 O 24.5036 -0.580897 -1.85623 0
M  V30 247 C 24.7866 -3.60031 -0.0702371 0
M  V30 248 C 24.6396 -4.30566 1.30126 0
M  V30 249 C 25.9586 -4.33028 -0.785771 0
M  V30 250 H 23.0776 -0.736912 0.0114185 0
M  V30 251 H 25.7196 -1.76056 0.714432 0
M  V30 252 H 23.8696 -3.82932 -0.655382 0
M  V30 253 H 25.5416 -4.19018 1.92929 0
M  V30 254 H 23.7846 -3.91086 1.87709 0
M  V30 255 H 24.4556 -5.39114 1.18573 0
M  V30 256 H 26.9316 -4.15095 -0.288982 0
M  V30 257 H 25.8076 -5.42695 -0.823013 0
M  V30 258 H 26.0686 -4.01945 -1.841 0
M  V30 259 N 25.1277 -0.289203 -1.54924 0
M  V30 260 C 26.4047 0.376032 -1.91951 0
M  V30 261 C 26.7847 1.72622 -1.21511 0
M  V30 262 O 26.1327 2.25853 -0.346767 0
M  V30 263 C 26.3427 0.502378 -3.45365 0
M  V30 264 C 27.6907 0.778741 -4.17398 0
M  V30 265 O 28.7147 0.586647 -3.51336 0
M  V30 266 O 27.5737 1.14698 -5.34328 0
M  V30 267 H 24.6677 0.208167 -0.800372 0
M  V30 268 H 27.2137 -0.336394 -1.66332 0
M  V30 269 H 25.9857 -0.447255 -3.88736 0
M  V30 270 H 25.6087 1.26373 -3.76982 0
M  V30 271 N 26.6058 1.57591 -0.0167156 0
M  V30 272 C 27.5378 2.06343 0.997753 0
M  V30 273 C 28.5508 0.984469 1.29661 0
M  V30 274 O 29.7398 1.26093 1.26344 0
M  V30 275 C 26.8398 2.46255 2.32834 0
M  V30 276 C 26.0128 3.77083 2.21646 0
M  V30 277 C 25.0718 4.0368 3.37534 0
M  V30 278 O 24.0978 4.7411 3.14973 0
M  V30 279 N 25.2998 3.52881 4.60929 0
M  V30 280 H 28.0648 2.93997 0.581875 0
M  V30 281 H 25.6258 1.61002 0.170316 0
M  V30 282 H 27.6178 2.61149 3.09166 0
M  V30 283 H 26.1878 1.64032 2.66106 0
M  V30 284 H 25.4078 3.72106 1.30119 0
M  V30 285 H 26.6958 4.62822 2.11361 0
M  V30 286 H 26.0938 2.95878 4.82154 0
M  V30 287 H 24.6508 3.73076 5.34469 0
M  V30 288 N 28.0839 -0.256276 1.55502 0
M  V30 289 C 29.3329 -0.983486 1.76098 0
M  V30 290 C 29.6459 -1.86837 0.578896 0
M  V30 291 O 30.8519 -2.63163 0.667648 0
M  V30 292 C 29.3079 -1.79868 3.1173 0
M  V30 293 C 28.9159 -0.961648 4.37557 0
M  V30 294 C 30.6599 -2.51919 3.41668 0
M  V30 295 C 28.5669 -1.77219 5.64223 0
M  V30 296 H 27.4969 -0.370936 0.656447 0
M  V30 297 H 30.1479 -0.238492 1.81944 0
M  V30 298 H 28.5299 -2.58527 2.99966 0
M  V30 299 H 29.7039 -0.218048 4.60284 0
M  V30 300 H 28.0189 -0.354913 4.14885 0
M  V30 301 H 30.6159 -3.12998 4.33516 0
M  V30 302 H 30.9589 -3.23059 2.62562 0
M  V30 303 H 31.4919 -1.80278 3.54605 0
M  V30 304 H 28.2309 -1.10471 6.46124 0
M  V30 305 H 27.7509 -2.49132 5.45613 0
M  V30 306 H 29.4299 -2.34169 6.03137 0
M  V30 307 N 29.562 -1.4872 -0.521534 0
M  V30 308 C 30.79 -1.60843 -1.30142 0
M  V30 309 C 31.205 -0.271897 -1.86832 0
M  V30 310 O 30.562 0.739969 -1.66825 0
M  V30 311 C 30.613 -2.66155 -2.4463 0
M  V30 312 O 30.334 -3.94623 -1.90275 0
M  V30 313 C 31.835 -2.88795 -3.36322 0
M  V30 314 H 29.055 -0.542075 -0.395468 0
M  V30 315 H 31.599 -1.94609 -0.628285 0
M  V30 316 H 29.754 -2.35224 -3.07812 0
M  V30 317 H 30.168 -4.52468 -2.65279 0
M  V30 318 H 31.642 -3.66264 -4.12983 0
M  V30 319 H 32.119 -1.97934 -3.9207 0
M  V30 320 H 32.725 -3.21063 -2.78924 0
M  V30 321 N 31.0401 0.771051 -1.3745 0
M  V30 322 C 32.2881 1.52661 -1.32435 0
M  V30 323 C 32.6091 1.9479 0.0905024 0
M  V30 324 O 31.8791 1.66348 1.03466 0
M  V30 325 H 30.4591 0.566218 -0.487244 0
M  V30 326 H 33.1211 0.917636 -1.71946 0
M  V30 327 H 32.2171 2.42568 -1.96385 0
M  V30 328 N 32.5182 1.22032 0.997298 0
M  V30 329 C 33.9342 0.979326 1.26021 0
M  V30 330 C 34.1342 -0.32972 1.98784 0
M  V30 331 O 33.1902 -1.05345 2.29475 0
M  V30 332 C 34.5032 2.17509 2.07631 0
M  V30 333 C 36.0512 2.21817 2.2083 0
M  V30 334 C 36.5262 3.40933 3.05825 0
M  V30 335 N 38.0172 3.41067 3.13412 0
M  V30 336 C 38.7522 4.29885 3.79455 0
M  V30 337 N 38.2482 5.28914 4.47462 0
M  V30 338 N 40.0412 4.17673 3.76173 0
M  V30 339 H 32.1922 2.06202 0.509352 0
M  V30 340 H 34.4552 0.90334 0.287541 0
M  V30 341 H 34.1612 3.12415 1.61524 0
M  V30 342 H 34.0352 2.17206 3.08385 0
M  V30 343 H 36.4222 1.27462 2.66153 0
M  V30 344 H 36.5032 2.2616 1.1952 0
M  V30 345 H 36.1472 4.35586 2.61203 0
M  V30 346 H 36.0772 3.33829 4.07266 0
M  V30 347 H 38.5682 2.69406 2.65007 0
M  V30 348 H 38.8812 5.92973 4.95583 0
M  V30 349 H 37.2262 5.32831 4.46224 0
M  V30 350 H 40.4172 3.39564 3.22202 0
M  V30 351 H 40.5902 4.87098 4.27363 0
M  V30 352 N 33.9963 -1.19345 1.0293 0
M  V30 353 C 34.9443 -2.24621 0.604001 0
M  V30 354 C 35.9383 -1.65452 -0.363587 0
M  V30 355 O 37.1443 -1.78497 -0.23212 0
M  V30 356 H 33.5193 -0.730858 0.177061 0
M  V30 357 H 35.4903 -2.5781 1.50255 0
M  V30 358 C 34.2393 -3.47688 -0.0289127 0
M  V30 359 H 33.5623 -3.93505 0.706651 0
M  V30 360 H 35.0023 -4.23011 -0.289432 0
M  V30 361 C 33.4613 -3.11817 -1.2756 0
M  V30 362 O 33.9913 -3.2451 -2.36762 0
M  V30 363 N 32.1973 -2.66246 -1.16453 0
M  V30 364 H 31.7443 -2.56118 -0.275914 0
M  V30 365 H 31.7023 -2.42617 -1.99961 0
M  V30 366 N 35.4744 -0.807222 -1.35358 0
M  V30 367 C 36.7204 -0.388463 -1.99045 0
M  V30 368 C 37.0534 1.04184 -1.63888 0
M  V30 369 O 36.3284 1.72292 -0.902535 0
M  V30 370 C 36.6114 -0.572783 -3.55515 0
M  V30 371 C 36.4644 -2.04807 -4.00468 0
M  V30 372 C 37.7834 0.00114064 -4.401 0
M  V30 373 H 34.9024 -0.142619 -0.723069 0
M  V30 374 H 37.5444 -1.01687 -1.60498 0
M  V30 375 H 35.6944 -0.0378425 -3.88482 0
M  V30 376 H 37.3664 -2.64544 -3.77908 0
M  V30 377 H 35.6094 -2.54427 -3.51353 0
M  V30 378 H 36.2804 -2.12792 -5.09337 0
M  V30 379 H 38.7564 -0.455716 -4.13597 0
M  V30 380 H 37.6324 -0.157737 -5.48673 0
M  V30 381 H 37.8934 1.09488 -4.28328 0
M  V30 382 N 36.9525 1.47285 -0.560781 0
M  V30 383 C 38.2015 2.01668 -0.035895 0
M  V30 384 C 38.5145 1.44021 1.32353 0
M  V30 385 O 39.7205 1.90088 1.93853 0
M  V30 386 C 38.1765 3.59897 -0.0136659 0
M  V30 387 C 37.7845 4.26536 -1.37006 0
M  V30 388 C 39.5285 4.22017 0.458425 0
M  V30 389 C 37.4355 5.76782 -1.30675 0
M  V30 390 H 36.3655 0.753938 -0.00964879 0
M  V30 391 H 39.0165 1.69243 -0.709166 0
M  V30 392 H 37.3985 3.89301 0.725325 0
M  V30 393 H 38.5725 4.0877 -2.12705 0
M  V30 394 H 36.8875 3.76419 -1.78038 0
M  V30 395 H 39.4845 5.32124 0.524247 0
M  V30 396 H 39.8275 3.89437 1.4712 0
M  V30 397 H 40.3605 3.97159 -0.225818 0
M  V30 398 H 37.0995 6.13988 -2.29564 0
M  V30 399 H 36.6195 5.96875 -0.591622 0
M  V30 400 H 38.2985 6.39063 -1.01033 0
M  V30 401 N 38.4306 0.297415 1.54768 0
M  V30 402 C 39.3626 -0.613881 2.20826 0
M  V30 403 C 40.3756 -1.10032 1.19987 0
M  V30 404 O 41.5646 -1.01839 1.46598 0
M  V30 405 C 38.6646 -1.852 2.83821 0
M  V30 406 C 37.8376 -1.50865 4.10559 0
M  V30 407 C 36.8966 -2.60154 4.57391 0
M  V30 408 O 35.9226 -2.25398 5.2267 0
M  V30 409 N 37.1246 -3.90629 4.29406 0
M  V30 410 H 39.8896 -0.048389 2.99661 0
M  V30 411 H 37.4506 0.11946 1.61459 0
M  V30 412 H 39.4426 -2.57652 3.12086 0
M  V30 413 H 38.0126 -2.32597 2.08847 0
M  V30 414 H 37.2326 -0.616925 3.89343 0
M  V30 415 H 38.5206 -1.25458 4.9309 0
M  V30 416 H 37.9186 -4.21677 3.77101 0
M  V30 417 H 36.4756 -4.59391 4.62388 0
M  V30 418 N 39.9087 -1.5758 0.0250728 0
M  V30 419 C 40.8717 -2.08896 -0.943139 0
M  V30 420 C 41.8717 -1.00321 -1.25668 0
M  V30 421 O 43.0617 -1.26495 -1.19769 0
M  V30 422 C 40.1937 -2.55143 -2.26086 0
M  V30 423 H 41.3867 -2.95723 -0.498775 0
M  V30 424 H 38.9397 -1.54703 -0.222888 0
M  V30 425 H 39.6747 -1.71633 -2.75159 0
M  V30 426 H 39.4597 -3.34461 -2.04641 0
M  V30 427 H 40.9497 -2.95083 -2.95492 0
M  V30 428 N 41.3868 0.248026 -1.55636 0
M  V30 429 C 42.6348 0.974295 -1.77065 0
M  V30 430 C 42.9558 1.85897 -0.588849 0
M  V30 431 O 42.2258 1.91868 0.395407 0
M  V30 432 H 40.8058 0.362733 -0.653019 0
M  V30 433 H 43.4678 0.266244 -1.93073 0
M  V30 434 H 42.5638 1.59667 -2.68166 0
M  V30 435 N 42.8649 1.48995 0.513639 0
M  V30 436 C 44.1419 1.48338 1.27495 0
M  V30 437 C 44.5219 0.204065 2.10111 0
M  V30 438 O 43.8699 -0.813881 2.13514 0
M  V30 439 C 44.0799 2.75498 2.14247 0
M  V30 440 C 45.4279 3.24484 2.73852 0
M  V30 441 O 46.4519 2.76528 2.24523 0
M  V30 442 O 45.3109 4.07974 3.6362 0
M  V30 443 H 42.4049 0.593149 0.576284 0
M  V30 444 H 44.9509 1.61246 0.528948 0
M  V30 445 H 43.7229 3.60109 1.53092 0
M  V30 446 H 43.3459 2.6539 2.96064 0
M  V30 447 N 44.343 -0.763751 1.37857 0
M  V30 448 C 45.754 -1.3405 1.29952 0
M  V30 449 C 46.105 -1.96138 -0.0492898 0
M  V30 450 O 45.23 -1.94372 -0.951239 0
M  V30 451 C 45.825 -2.43729 2.35333 0
M  V30 452 C 44.384 -2.97151 2.31037 0
M  V30 453 C 43.531 -1.70438 2.18738 0
M  V30 454 H 46.482 -0.563396 1.48363 0
M  V30 455 H 46.503 -3.23412 2.00462 0
M  V30 456 H 46.015 -1.9851 3.33489 0
M  V30 457 H 44.116 -3.46724 1.3643 0
M  V30 458 H 44.229 -3.52221 3.24772 0
M  V30 459 H 42.593 -1.93673 1.65418 0
M  V30 460 H 43.376 -1.27312 3.18821 0
M  V30 461 N 45.8211 -1.22559 -0.990812 0
M  V30 462 C 47.0981 -0.959875 -1.70428 0
M  V30 463 C 47.4781 0.524455 -2.04481 0
M  V30 464 O 46.8261 1.49302 -1.72977 0
M  V30 465 C 47.0361 -1.85955 -2.95333 0
M  V30 466 C 48.3841 -2.11687 -3.68068 0
M  V30 467 O 49.4081 -1.8342 -3.05345 0
M  V30 468 O 48.2671 -2.59572 -4.80921 0
M  V30 469 H 45.3611 -0.361154 -0.743974 0
M  V30 470 H 47.9071 -1.33554 -1.04697 0
M  V30 471 H 46.6791 -2.86346 -2.66687 0
M  V30 472 H 46.3021 -1.4856 -3.68803 0
M  V30 473 N 47.2992 1.18797 -1.03562 0
M  V30 474 C 48.5462 1.8865 -0.736023 0
M  V30 475 C 48.8742 1.80041 0.735889 0
M  V30 476 O 48.1292 1.19179 1.55225 0
M  V30 477 C 48.4282 3.38692 -1.14117 0
M  V30 478 C 48.0942 3.67504 -2.6125 0
M  V30 479 C 46.7562 3.75078 -3.01447 0
M  V30 480 C 49.1082 3.80293 -3.56408 0
M  V30 481 C 46.4362 3.92915 -4.35701 0
M  V30 482 C 48.7882 3.99645 -4.90374 0
M  V30 483 C 47.4522 4.05453 -5.30249 0
M  V30 484 H 46.7222 0.690321 -0.26933 0
M  V30 485 H 49.3692 1.40641 -1.29971 0
M  V30 486 H 47.6742 3.88645 -0.496202 0
M  V30 487 H 49.3712 3.91072 -0.886789 0
M  V30 488 H 45.9612 3.62223 -2.29113 0
M  V30 489 H 50.1452 3.73779 -3.26501 0
M  V30 490 H 45.4012 3.95653 -4.66121 0
M  V30 491 H 49.5752 4.08482 -5.64017 0
M  V30 492 H 47.2022 4.19027 -6.34288 0
M  V30 493 N 48.7773 0.814389 1.34928 0
M  V30 494 C 49.7403 0.235759 2.27984 0
M  V30 495 C 50.7403 -0.581412 1.49921 0
M  V30 496 O 51.9303 -0.398758 1.69575 0
M  V30 497 C 49.0623 -0.670433 3.34242 0
M  V30 498 H 50.2553 1.05659 2.80671 0
M  V30 499 H 47.8083 0.585614 1.44915 0
M  V30 500 H 48.5433 -1.51466 2.86755 0
M  V30 501 H 48.3283 -0.0860822 3.92005 0
M  V30 502 H 49.8183 -1.06935 4.03676 0
M  V30 503 N 50.2554 -1.46986 0.568584 0
M  V30 504 C 51.2024 -2.30153 -0.172707 0
M  V30 505 C 52.1724 -1.39759 -0.897586 0
M  V30 506 O 53.3574 -1.68716 -0.891044 0
M  V30 507 C 50.4974 -3.23952 -1.1895 0
M  V30 508 C 49.6104 -4.29441 -0.469517 0
M  V30 509 C 48.7454 -5.1038 -1.47259 0
M  V30 510 C 47.7844 -6.07632 -0.738225 0
M  V30 511 N 46.9214 -6.8149 -1.68868 0
M  V30 512 H 51.7614 -2.93019 0.542596 0
M  V30 513 H 49.2984 -1.44422 0.279401 0
M  V30 514 H 51.2564 -3.76767 -1.79173 0
M  V30 515 H 49.8864 -2.62926 -1.87269 0
M  V30 516 H 48.9384 -3.79594 0.247467 0
M  V30 517 H 50.2504 -4.98689 0.105241 0
M  V30 518 H 49.4044 -5.67402 -2.14803 0
M  V30 519 H 48.1434 -4.4106 -2.08128 0
M  V30 520 H 47.1484 -5.49778 -0.0489293 0
M  V30 521 H 48.3734 -6.78966 -0.135129 0
M  V30 522 H 46.3194 -6.14891 -2.28573 0
M  V30 523 H 46.2364 -7.46948 -1.16636 0
M  V30 524 H 47.5044 -7.43078 -2.3549 0
M  V30 525 N 51.7335 -0.305618 -1.54608 0
M  V30 526 C 52.6965 0.555591 -2.22364 0
M  V30 527 C 53.6965 1.05768 -1.21119 0
M  V30 528 O 54.8865 0.952972 -1.45822 0
M  V30 529 C 52.0185 1.76974 -2.91364 0
M  V30 530 H 53.2115 -0.0364572 -2.99878 0
M  V30 531 H 50.7645 -0.0565007 -1.56198 0
M  V30 532 H 51.4995 2.40151 -2.17941 0
M  V30 533 H 51.2845 1.41732 -3.65588 0
M  V30 534 H 52.7745 2.38148 -3.43038 0
M  V30 535 N 53.2116 1.57565 -0.0334293 0
M  V30 536 C 54.4606 1.91155 0.643639 0
M  V30 537 C 54.7736 0.91192 1.73042 0
M  V30 538 O 55.9796 1.13923 2.46442 0
M  V30 539 C 54.4356 3.39443 1.1961 0
M  V30 540 C 54.0436 4.47774 0.142381 0
M  V30 541 C 55.7876 3.82094 1.84944 0
M  V30 542 C 53.6946 5.87162 0.706727 0
M  V30 543 H 52.6246 0.713368 0.244176 0
M  V30 544 H 55.2756 1.8323 -0.0994323 0
M  V30 545 H 53.6576 3.42313 1.99092 0
M  V30 546 H 54.8316 4.56469 -0.630296 0
M  V30 547 H 53.1466 4.14352 -0.412446 0
M  V30 548 H 55.7436 4.83591 2.2813 0
M  V30 549 H 56.0866 3.17386 2.69392 0
M  V30 550 H 56.6196 3.81665 1.12145 0
M  V30 551 H 53.3586 6.55424 -0.0997178 0
M  V30 552 H 52.8786 5.82064 1.44779 0
M  V30 553 H 54.5576 6.35866 1.19514 0
M  V30 554 N 54.6897 -0.239769 1.55765 0
M  V30 555 C 55.9177 -0.98417 1.81994 0
M  V30 556 C 56.3327 -1.7867 0.610124 0
M  V30 557 O 55.6897 -1.77571 -0.421271 0
M  V30 558 C 55.7407 -1.91635 3.06526 0
M  V30 559 O 55.4617 -1.14629 4.22838 0
M  V30 560 C 56.9627 -2.77616 3.45607 0
M  V30 561 H 54.1827 -0.28928 0.605441 0
M  V30 562 H 56.7267 -0.260499 2.02834 0
M  V30 563 H 54.8817 -2.5942 2.87715 0
M  V30 564 H 55.2957 -1.77745 4.93464 0
M  V30 565 H 56.7697 -3.38759 4.35828 0
M  V30 566 H 57.2467 -3.4909 2.6652 0
M  V30 567 H 57.8527 -2.15271 3.66795 0
M  V30 568 N 56.1678 -1.49265 -0.50573 0
M  V30 569 C 57.1308 -1.65075 -1.59006 0
M  V30 570 C 58.1308 -0.522768 -1.52065 0
M  V30 571 O 59.3208 -0.789117 -1.55302 0
M  V30 572 C 56.4528 -1.64369 -2.98656 0
M  V30 573 H 57.6458 -2.61784 -1.46319 0
M  V30 574 H 55.1988 -1.38226 -0.729616 0
M  V30 575 H 55.9338 -0.692272 -3.16825 0
M  V30 576 H 55.7188 -2.46282 -3.05103 0
M  V30 577 H 57.2088 -1.78674 -3.77446 0
M  V30 578 N 57.6459 0.756429 -1.3826 0
M  V30 579 C 58.5759 1.88374 -1.37976 0
M  V30 580 C 59.5569 1.68311 -0.246082 0
M  V30 581 O 60.7419 1.88944 -0.44874 0
M  V30 582 C 57.8719 3.25864 -1.20125 0
M  V30 583 C 56.8259 3.60523 -2.30666 0
M  V30 584 C 56.1519 4.9672 -1.97923 0
M  V30 585 C 57.4519 3.65692 -3.72916 0
M  V30 586 H 59.1459 1.88869 -2.32312 0
M  V30 587 H 56.6919 0.907272 -1.11824 0
M  V30 588 H 58.6449 4.0438 -1.18552 0
M  V30 589 H 57.3689 3.25841 -0.222498 0
M  V30 590 H 56.0279 2.84324 -2.3142 0
M  V30 591 H 55.6759 4.93253 -0.985393 0
M  V30 592 H 55.3759 5.20878 -2.71955 0
M  V30 593 H 56.8999 5.77618 -1.97964 0
M  V30 594 H 58.3139 4.34328 -3.74208 0
M  V30 595 H 56.7109 4.01358 -4.4613 0
M  V30 596 H 57.7809 2.65987 -4.05436 0
M  V30 597 N 59.124 1.23083 0.984299 0
M  V30 598 C 60.072 1.00593 2.09723 0
M  V30 599 C 61.066 -0.0538014 1.69315 0
M  V30 600 O 62.272 0.0993719 1.79725 0
M  V30 601 H 58.647 0.30817 0.685956 0
M  V30 602 H 60.618 1.95012 2.2586 0
M  V30 603 C 59.367 0.609601 3.42314 0
M  V30 604 H 58.69 1.41675 3.73856 0
M  V30 605 H 60.13 0.491726 4.21139 0
M  V30 606 C 58.589 -0.681745 3.2993 0
M  V30 607 O 59.119 -1.73192 3.62446 0
M  V30 608 N 57.325 -0.656178 2.83095 0
M  V30 609 H 56.872 0.198759 2.56832 0
M  V30 610 H 56.83 -1.52044 2.75191 0
M  V30 611 N 60.6021 -1.18246 1.0419 0
M  V30 612 C 61.5501 -2.23968 0.627792 0
M  V30 613 C 62.5441 -1.65828 -0.346019 0
M  V30 614 O 63.7501 -1.78733 -0.213175 0
M  V30 615 H 60.1251 -0.728939 0.184802 0
M  V30 616 H 62.0961 -2.56202 1.52981 0
M  V30 617 C 60.8451 -3.47699 0.00796591 0
M  V30 618 H 60.1681 -3.92734 0.748347 0
M  V30 619 H 61.6081 -4.23294 -0.24455 0
M  V30 620 C 60.0671 -3.13153 -1.24246 0
M  V30 621 O 60.5971 -3.27003 -2.33307 0
M  V30 622 N 58.8031 -2.67467 -1.13622 0
M  V30 623 H 58.3501 -2.56396 -0.248734 0
M  V30 624 H 58.3081 -2.44724 -1.97377 0
M  V30 625 N 62.0802 -0.821533 -1.34494 0
M  V30 626 C 63.0272 -0.240397 -2.29545 0
M  V30 627 C 63.9972 0.634031 -1.53523 0
M  V30 628 O 65.1822 0.575966 -1.81899 0
M  V30 629 C 62.3222 0.592869 -3.39969 0
M  V30 630 C 61.4352 -0.30365 -4.30932 0
M  V30 631 C 60.5702 0.539049 -5.28458 0
M  V30 632 C 59.6092 -0.356942 -6.11058 0
M  V30 633 N 58.7462 0.446603 -7.00678 0
M  V30 634 H 63.5862 -1.05632 -2.7865 0
M  V30 635 H 61.1232 -0.532413 -1.37127 0
M  V30 636 H 63.0812 1.09129 -4.02675 0
M  V30 637 H 61.7112 1.37392 -2.92102 0
M  V30 638 H 60.7632 -0.920276 -3.691 0
M  V30 639 H 62.0752 -0.992661 -4.88823 0
M  V30 640 H 61.2292 1.102 -5.96608 0
M  V30 641 H 59.9682 1.26157 -4.71101 0
M  V30 642 H 58.9732 -0.932047 -5.41842 0
M  V30 643 H 60.1982 -1.07755 -6.70497 0
M  V30 644 H 58.1442 1.15282 -6.45791 0
M  V30 645 H 58.0612 -0.184048 -7.55776 0
M  V30 646 H 59.3292 0.992352 -7.73158 0
M  V30 647 N 63.5583 1.46682 -0.576371 0
M  V30 648 C 64.5213 2.28707 0.150239 0
M  V30 649 C 65.5213 1.38035 0.824794 0
M  V30 650 O 66.7113 1.60476 0.677719 0
M  V30 651 C 63.8433 3.18248 1.22192 0
M  V30 652 H 65.0363 2.94423 -0.570521 0
M  V30 653 H 62.5893 1.52688 -0.334078 0
M  V30 654 H 63.3243 2.57265 1.97447 0
M  V30 655 H 63.1093 3.85 0.742812 0
M  V30 656 H 64.5993 3.80001 1.73172 0
M  V30 657 N 65.0364 0.313813 1.54444 0
M  V30 658 C 65.9994 -0.54379 2.22656 0
M  V30 659 C 66.9994 -1.05124 1.21678 0
M  V30 660 O 68.1894 -0.945225 1.46325 0
M  V30 661 C 65.3214 -1.75427 2.92298 0
M  V30 662 H 66.5144 0.0523599 2.99854 0
M  V30 663 H 64.0674 0.0647834 1.56166 0
M  V30 664 H 64.8024 -2.38991 2.19211 0
M  V30 665 H 64.5874 -1.39791 3.66334 0
M  V30 666 H 66.0774 -2.36325 3.44297 0
M  V30 667 N 66.5145 -1.57545 0.0417849 0
M  V30 668 C 67.7915 -1.83642 -0.673433 0
M  V30 669 C 68.1715 -0.928298 -1.89594 0
M  V30 670 O 67.5195 0.0129955 -2.28496 0
M  V30 671 C 67.7295 -3.33155 -1.03964 0
M  V30 672 C 69.0775 -3.99941 -1.42592 0
M  V30 673 O 70.1015 -3.37725 -1.13226 0
M  V30 674 O 68.9605 -5.09619 -1.9736 0
M  V30 675 H 66.0545 -0.757638 -0.331533 0
M  V30 676 H 68.6005 -1.69554 0.070433 0
M  V30 677 H 67.3725 -3.9093 -0.170098 0
M  V30 678 H 66.9955 -3.52396 -1.84126 0
M  V30 679 N 67.9926 0.231505 -1.5589 0
M  V30 680 C 69.2176 0.978689 -1.82856 0
M  V30 681 C 69.6426 1.77559 -0.620846 0
M  V30 682 O 69.0006 1.76119 0.430305 0
M  V30 683 C 69.0486 1.87997 -3.07716 0
M  V30 684 O 68.1526 2.97393 -2.85712 0
M  V30 685 H 67.4936 0.277663 -0.603158 0
M  V30 686 H 70.0236 0.24783 -2.03093 0
M  V30 687 H 70.0336 2.2917 -3.37558 0
M  V30 688 H 68.7086 1.29417 -3.95252 0
M  V30 689 H 67.2856 2.60238 -2.67078 0
M  V30 690 N 69.4707 1.49531 0.497807 0
M  V30 691 C 70.4007 1.6935 1.60757 0
M  V30 692 C 71.3817 0.542218 1.61227 0
M  V30 693 O 72.5667 0.778417 1.77917 0
M  V30 694 C 69.6967 1.76298 2.99226 0
M  V30 695 C 68.6507 2.91248 3.13622 0
M  V30 696 C 67.9767 2.83312 4.53474 0
M  V30 697 C 69.2767 4.3214 2.93346 0
M  V30 698 H 70.9707 2.62263 1.44425 0
M  V30 699 H 68.5167 1.26208 0.693367 0
M  V30 700 H 70.4697 1.88749 3.76765 0
M  V30 701 H 69.1937 0.799871 3.16654 0
M  V30 702 H 67.8527 2.78404 2.38509 0
M  V30 703 H 67.5007 1.84902 4.67782 0
M  V30 704 H 67.2007 3.60465 4.64046 0
M  V30 705 H 68.7247 2.97775 5.33069 0
M  V30 706 H 70.1387 4.45649 3.60652 0
M  V30 707 H 68.5357 5.1054 3.15387 0
M  V30 708 H 69.6057 4.46363 1.89441 0
M  V30 709 N 70.9488 -0.749086 1.3866 0
M  V30 710 C 71.9118 -1.84457 1.36045 0
M  V30 711 C 72.9118 -1.58682 0.260122 0
M  V30 712 O 74.1018 -1.66343 0.517261 0
M  V30 713 C 71.2338 -3.22008 1.11911 0
M  V30 714 H 72.4268 -1.88182 2.33512 0
M  V30 715 H 69.9798 -0.951266 1.24019 0
M  V30 716 H 70.7148 -3.2395 0.150686 0
M  V30 717 H 70.4998 -3.42111 1.91579 0
M  V30 718 H 71.9898 -4.0208 1.12788 0
M  V30 719 N 72.4269 -1.23603 -0.977757 0
M  V30 720 C 73.3739 -1.01954 -2.07061 0
M  V30 721 C 74.3439 0.0638697 -1.65977 0
M  V30 722 O 75.5289 -0.0887624 -1.90593 0
M  V30 723 C 72.6689 -0.619658 -3.39491 0
M  V30 724 C 71.7819 -1.77547 -3.93829 0
M  V30 725 C 70.9169 -1.32212 -5.14484 0
M  V30 726 C 69.9559 -2.44852 -5.60994 0
M  V30 727 N 69.0929 -2.00456 -6.72876 0
M  V30 728 H 73.9329 -1.95495 -2.24913 0
M  V30 729 H 71.4699 -0.973861 -1.10247 0
M  V30 730 H 73.4279 -0.368898 -4.15566 0
M  V30 731 H 72.0579 0.278752 -3.21594 0
M  V30 732 H 71.1099 -2.14016 -3.14486 0
M  V30 733 H 72.4219 -2.62219 -4.24314 0
M  V30 734 H 71.5759 -1.02965 -5.97899 0
M  V30 735 H 70.3149 -0.445808 -4.85658 0
M  V30 736 H 69.3199 -2.74871 -4.76157 0
M  V30 737 H 70.5449 -3.33024 -5.91837 0
M  V30 738 H 68.4909 -1.15208 -6.45804 0
M  V30 739 H 68.4079 -2.78687 -7.02759 0
M  V30 740 H 69.6759 -1.7432 -7.59758 0
M  V30 741 N 73.905 1.17692 -1.04816 0
M  V30 742 C 74.835 2.23777 -0.666791 0
M  V30 743 C 75.816 1.66796 0.33361 0
M  V30 744 O 77.001 1.93039 0.212042 0
M  V30 745 C 74.131 3.47281 -0.0367933 0
M  V30 746 C 73.085 4.17059 -0.961546 0
M  V30 747 C 72.411 5.34342 -0.195626 0
M  V30 748 C 73.711 4.69713 -2.28402 0
M  V30 749 H 75.405 2.55933 -1.55367 0
M  V30 750 H 72.951 1.23019 -0.748484 0
M  V30 751 H 74.904 4.20706 0.241775 0
M  V30 752 H 73.628 3.14381 0.885004 0
M  V30 753 H 72.287 3.45541 -1.22462 0
M  V30 754 H 71.935 4.97692 0.728816 0
M  V30 755 H 71.635 5.81966 -0.811775 0
M  V30 756 H 73.159 6.10553 0.0757473 0
M  V30 757 H 74.573 5.34794 -2.06563 0
M  V30 758 H 72.97 5.279 -2.8538 0
M  V30 759 H 74.04 3.86726 -2.92525 0
M  V30 760 N 75.3831 0.828654 1.34056 0
M  V30 761 C 76.6601 0.341809 1.9259 0
M  V30 762 C 77.0401 -1.17158 1.75605 0
M  V30 763 O 76.3881 -1.98132 1.13824 0
M  V30 764 C 76.5981 0.777453 3.4023 0
M  V30 765 C 77.9461 0.779579 4.17382 0
M  V30 766 O 78.9701 0.7204 3.48839 0
M  V30 767 O 77.8291 0.857996 5.39723 0
M  V30 768 H 74.9231 0.0946085 0.821571 0
M  V30 769 H 77.4691 0.913827 1.42994 0
M  V30 770 H 76.2411 1.8196 3.46419 0
M  V30 771 H 75.8641 0.181444 3.97186 0
M  V30 772 N 76.8612 -1.46375 0.584142 0
M  V30 773 C 78.1072 -2.02678 0.0703716 0
M  V30 774 C 78.4402 -1.4545 -1.28678 0
M  V30 775 O 77.7152 -0.62014 -1.84349 0
M  V30 776 C 77.9982 -3.60099 0.00614674 0
M  V30 777 C 77.8512 -4.27709 1.3923 0
M  V30 778 C 79.1702 -4.34598 -0.693742 0
M  V30 779 H 76.2892 -0.736504 0.027047 0
M  V30 780 H 78.9312 -1.74501 0.751615 0
M  V30 781 H 77.0812 -3.84236 -0.574009 0
M  V30 782 H 78.7532 -4.14832 2.01773 0
M  V30 783 H 76.9962 -3.87016 1.95962 0
M  V30 784 H 77.6672 -5.36478 1.29982 0
M  V30 785 H 80.1432 -4.15615 -0.200869 0
M  V30 786 H 79.0192 -5.44318 -0.707714 0
M  V30 787 H 79.2802 -4.05759 -1.75533 0
M  V30 788 N 78.3393 -0.321999 -1.54275 0
M  V30 789 C 79.2863 0.544664 -2.24281 0
M  V30 790 C 80.2563 1.1129 -1.23303 0
M  V30 791 O 81.4413 1.15354 -1.51981 0
M  V30 792 C 78.5813 1.70045 -3.00298 0
M  V30 793 C 77.6943 1.16159 -4.1609 0
M  V30 794 C 76.8293 2.28293 -4.79641 0
M  V30 795 C 75.8683 1.71648 -5.8754 0
M  V30 796 N 75.0053 2.77438 -6.44959 0
M  V30 797 H 79.8453 -0.0588907 -2.97942 0
M  V30 798 H 77.3823 -0.0408345 -1.47043 0
M  V30 799 H 79.3403 2.38054 -3.42616 0
M  V30 800 H 77.9703 2.27531 -2.28975 0
M  V30 801 H 77.0223 0.373092 -3.78566 0
M  V30 802 H 78.3343 0.707087 -4.93763 0
M  V30 803 H 77.4883 3.0421 -5.2492 0
M  V30 804 H 76.2273 2.77079 -4.01346 0
M  V30 805 H 75.2323 0.942282 -5.41665 0
M  V30 806 H 76.4573 1.23741 -6.67731 0
M  V30 807 H 74.4033 3.25519 -5.69538 0
M  V30 808 H 74.3203 2.36547 -7.1804 0
M  V30 809 H 75.5883 3.53189 -6.94894 0
M  V30 810 N 79.8174 1.5752 -0.0501392 0
M  V30 811 C 80.7644 2.1147 0.924603 0
M  V30 812 C 81.7344 1.02182 1.30951 0
M  V30 813 O 82.9194 1.29723 1.39916 0
M  V30 814 C 80.0594 2.66337 2.19451 0
M  V30 815 C 79.1724 3.89708 1.86418 0
M  V30 816 C 78.3074 4.32893 3.07859 0
M  V30 817 C 77.3464 5.48967 2.70742 0
M  V30 818 N 76.4834 5.87211 3.84874 0
M  V30 819 H 81.3234 2.94465 0.457639 0
M  V30 820 H 78.8604 1.45531 0.214266 0
M  V30 821 H 80.8184 2.96247 2.93758 0
M  V30 822 H 79.4484 1.86141 2.63726 0
M  V30 823 H 78.5004 3.66396 1.02264 0
M  V30 824 H 79.8124 4.74074 1.55096 0
M  V30 825 H 78.9664 4.6435 3.90466 0
M  V30 826 H 77.7054 3.47336 3.42358 0
M  V30 827 H 76.7104 5.17183 1.86551 0
M  V30 828 H 77.9354 6.3624 2.37436 0
M  V30 829 H 75.8814 5.04607 4.19175 0
M  V30 830 H 75.7984 6.66266 3.57247 0
M  V30 831 H 77.0664 6.23282 4.68123 0
M  V30 832 N 81.2955 -0.223234 1.56011 0
M  V30 833 C 82.5435 -0.946003 1.78592 0
M  V30 834 C 82.8645 -1.84936 0.618349 0
M  V30 835 O 82.1345 -1.92473 -0.364833 0
M  V30 836 H 80.7145 -0.352298 0.658707 0
M  V30 837 H 83.3765 -0.235494 1.93472 0
M  V30 838 H 82.4725 -1.55381 2.70672 0
M  V30 839 N 82.7736 -1.49793 -0.48987 0
M  V30 840 C 84.1896 -1.36803 -0.822022 0
M  V30 841 C 84.3896 -0.409652 -1.97292 0
M  V30 842 O 83.4456 0.154614 -2.52026 0
M  V30 843 C 84.7586 -2.77768 -1.15175 0
M  V30 844 C 86.3066 -2.86549 -1.25931 0
M  V30 845 C 86.7816 -4.28306 -1.62228 0
M  V30 846 N 88.2726 -4.31169 -1.69256 0
M  V30 847 C 89.0076 -5.37832 -1.98807 0
M  V30 848 N 88.5036 -6.54726 -2.26507 0
M  V30 849 N 90.2966 -5.25258 -2.00152 0
M  V30 850 H 82.4476 -2.10691 0.268881 0
M  V30 851 H 84.7106 -0.946241 0.057728 0
M  V30 852 H 84.4166 -3.49648 -0.379335 0
M  V30 853 H 84.2906 -3.13836 -2.09253 0
M  V30 854 H 86.6776 -2.14899 -2.02243 0
M  V30 855 H 86.7586 -2.54049 -0.298776 0
M  V30 856 H 86.4026 -5.00486 -0.864622 0
M  V30 857 H 86.3326 -4.58279 -2.594 0
M  V30 858 H 88.8236 -3.4687 -1.49965 0
M  V30 859 H 89.1366 -7.31833 -2.48276 0
M  V30 860 H 87.4816 -6.57933 -2.23939 0
M  V30 861 H 90.6726 -4.32938 -1.77996 0
M  V30 862 H 90.8456 -6.08476 -2.22848 0
M  V30 863 N 84.2517 0.741722 -1.39055 0
M  V30 864 C 85.4797 1.53098 -1.39171 0
M  V30 865 C 85.8947 1.88794 0.0155099 0
M  V30 866 O 85.2517 1.53626 0.985159 0
M  V30 867 C 85.3027 2.82274 -2.2584 0
M  V30 868 O 85.0237 2.48097 -3.61081 0
M  V30 869 C 86.5247 3.76343 -2.34266 0
M  V30 870 H 83.7447 0.473335 -0.4756 0
M  V30 871 H 86.2887 0.917045 -1.82785 0
M  V30 872 H 84.4437 3.40015 -1.85656 0
M  V30 873 H 84.8577 3.31029 -4.06842 0
M  V30 874 H 86.3317 4.63898 -2.9917 0
M  V30 875 H 86.8087 4.17619 -1.35982 0
M  V30 876 H 87.4147 3.24523 -2.74891 0
M  V30 877 N 85.7298 1.2412 0.971189 0
M  V30 878 C 86.9548 1.10667 1.75407 0
M  V30 879 C 87.3798 -0.337048 1.85056 0
M  V30 880 O 86.7378 -1.24396 1.31892 0
M  V30 881 C 86.7858 1.74726 3.15441 0
M  V30 882 O 85.8898 1.01566 3.99697 0
M  V30 883 H 85.2308 0.387341 0.539317 0
M  V30 884 H 87.7608 1.64358 1.2185 0
M  V30 885 H 87.7708 1.80341 3.6598 0
M  V30 886 H 86.4458 2.79773 3.07734 0
M  V30 887 H 85.0228 1.03713 3.58187 0
M  V30 888 N 87.2079 -1.17134 1.05439 0
M  V30 889 C 88.4539 -1.87733 0.767077 0
M  V30 890 C 88.7869 -1.8098 -0.704253 0
M  V30 891 O 88.0619 -1.21951 -1.5152 0
M  V30 892 C 88.3449 -3.37659 1.25133 0
M  V30 893 C 88.1979 -3.53149 2.78578 0
M  V30 894 C 89.5169 -4.31768 0.852324 0
M  V30 895 H 86.6359 -0.681687 0.280129 0
M  V30 896 H 89.2779 -1.37732 1.30881 0
M  V30 897 H 87.4279 -3.80373 0.790469 0
M  V30 898 H 89.0999 -3.19434 3.32806 0
M  V30 899 H 87.3429 -2.95345 3.17732 0
M  V30 900 H 88.0139 -4.58403 3.07523 0
M  V30 901 H 90.4899 -3.96909 1.24911 0
M  V30 902 H 89.3659 -5.35199 1.21873 0
M  V30 903 H 89.6269 -4.41429 -0.243485 0
M  V30 904 N 88.686 -0.835752 -1.33615 0
M  V30 905 C 89.933 -0.429959 -1.97883 0
M  V30 906 C 90.261 1.01006 -1.66217 0
M  V30 907 O 89.516 1.72047 -0.93265 0
M  V30 908 C 89.815 -0.593925 -3.52431 0
M  V30 909 C 89.481 -2.00158 -4.04039 0
M  V30 910 C 88.143 -2.38662 -4.17844 0
M  V30 911 C 90.495 -2.92117 -4.31644 0
M  V30 912 C 87.823 -3.68435 -4.56588 0
M  V30 913 C 90.175 -4.21368 -4.71838 0
M  V30 914 C 88.839 -4.59833 -4.83849 0
M  V30 915 H 88.109 -0.157333 -0.724104 0
M  V30 916 H 90.756 -1.06217 -1.59343 0
M  V30 917 H 89.061 0.121619 -3.91611 0
M  V30 918 H 90.758 -0.260282 -4.00154 0
M  V30 919 H 87.348 -1.69252 -3.93766 0
M  V30 920 H 91.532 -2.63608 -4.20505 0
M  V30 921 H 86.788 -3.98046 -4.64079 0
M  V30 922 H 90.962 -4.92703 -4.92155 0
M  V30 923 H 88.589 -5.60438 -5.13627 0
M  V30 924 N 90.1641 1.46063 -0.591896 0
M  V30 925 C 91.3921 2.06717 -0.0868936 0
M  V30 926 C 91.8071 1.43916 1.22203 0
M  V30 927 O 91.1641 0.547698 1.74088 0
M  V30 928 C 91.2151 3.6142 0.0758725 0
M  V30 929 O 90.9361 4.21874 -1.18126 0
M  V30 930 C 92.4371 4.39025 0.61416 0
M  V30 931 H 89.6571 0.668162 -0.0616518 0
M  V30 932 H 92.2011 1.8755 -0.815175 0
M  V30 933 H 90.3561 3.79983 0.754413 0
M  V30 934 H 90.7701 5.14861 -1.00092 0
M  V30 935 H 92.2441 5.4783 0.677193 0
M  V30 936 H 92.7211 4.07708 1.63312 0
M  V30 937 H 93.3271 4.2529 -0.0298142 0
M  V30 938 N 91.6422 0.330177 1.54103 0
M  V30 939 C 92.9192 -0.325007 1.92881 0
M  V30 940 C 93.2992 -1.6934 1.26045 0
M  V30 941 O 92.6472 -2.24855 0.406526 0
M  V30 942 C 92.8572 -0.410634 3.46576 0
M  V30 943 C 94.2052 -0.667801 4.19316 0
M  V30 944 O 95.2292 -0.49329 3.52768 0
M  V30 945 O 94.0882 -1.00491 5.37181 0
M  V30 946 H 91.1822 -0.186873 0.80561 0
M  V30 947 H 93.7282 0.380376 1.65382 0
M  V30 948 H 92.5002 0.550164 3.87413 0
M  V30 949 H 92.1232 -1.16333 3.802 0
M  V30 950 N 93.1203 -1.57491 0.0584922 0
M  V30 951 C 94.0503 -2.14988 -0.911178 0
M  V30 952 C 95.0313 -1.07343 -1.31952 0
M  V30 953 O 96.2163 -1.35318 -1.39294 0
M  V30 954 C 93.3463 -2.70078 -2.18347 0
M  V30 955 C 92.3003 -3.82771 -1.91495 0
M  V30 956 C 91.6263 -4.24408 -3.25241 0
M  V30 957 C 92.9263 -5.07592 -1.23075 0
M  V30 958 H 94.6203 -2.96263 -0.432246 0
M  V30 959 H 92.1663 -1.42512 -0.206469 0
M  V30 960 H 94.1193 -3.08943 -2.86587 0
M  V30 961 H 92.8433 -1.86005 -2.68458 0
M  V30 962 H 91.5023 -3.44389 -1.25664 0
M  V30 963 H 91.1503 -3.37275 -3.73168 0
M  V30 964 H 90.8503 -5.00366 -3.08071 0
M  V30 965 H 92.3743 -4.65879 -3.94701 0
M  V30 966 H 93.7883 -5.43857 -1.81362 0
M  V30 967 H 92.1853 -5.88741 -1.16207 0
M  V30 968 H 93.2553 -4.84454 -0.207847 0
M  V30 969 N 94.5984 0.214957 -1.56127 0
M  V30 970 C 95.8234 0.95924 -1.83884 0
M  V30 971 C 96.2484 1.7689 -0.639644 0
M  V30 972 O 95.6064 1.76566 0.411601 0
M  V30 973 C 95.6544 1.84723 -3.09693 0
M  V30 974 O 94.7584 2.94346 -2.8885 0
M  V30 975 H 94.0994 0.27125 -0.606069 0
M  V30 976 H 96.6294 0.226276 -2.03345 0
M  V30 977 H 96.6394 2.25576 -3.39969 0
M  V30 978 H 95.3144 1.25218 -3.96602 0
M  V30 979 H 93.8914 2.57391 -2.69823 0
M  V30 980 N 96.0765 1.50051 0.48192 0
M  V30 981 C 97.0065 1.71046 1.58951 0
M  V30 982 C 97.9875 0.559288 1.60642 0
M  V30 983 O 99.1725 0.797243 1.77081 0
M  V30 984 C 96.3025 1.79462 2.97339 0
M  V30 985 C 95.2565 2.94558 3.10515 0
M  V30 986 C 94.5825 2.88105 4.50444 0
M  V30 987 C 95.8825 4.35227 2.88747 0
M  V30 988 H 97.5765 2.6378 1.41635 0
M  V30 989 H 95.1225 1.26936 0.679942 0
M  V30 990 H 97.0755 1.92734 3.74742 0
M  V30 991 H 95.7995 0.833412 3.15788 0
M  V30 992 H 94.4585 2.80918 2.35543 0
M  V30 993 H 94.1065 1.89853 4.65795 0
M  V30 994 H 93.8065 3.65366 4.60197 0
M  V30 995 H 95.3305 3.03412 5.29881 0
M  V30 996 H 96.7445 4.49449 3.55905 0
M  V30 997 H 95.1415 5.13856 3.09955 0
M  V30 998 H 96.2115 4.48347 1.84696 0
M  V30 999 N 97.5546 -0.734337 1.39446 0
M  V30 1000 C 98.5176 -1.83004 1.37994 0
M  V30 1001 C 99.5176 -1.58397 0.276938 0
M  V30 1002 O 100.708 -1.65785 0.534875 0
M  V30 1003 C 97.8396 -3.20802 1.1532 0
M  V30 1004 H 99.0326 -1.85694 2.35494 0
M  V30 1005 H 96.5856 -0.938059 1.25021 0
M  V30 1006 H 97.3206 -3.23772 0.185036 0
M  V30 1007 H 97.1056 -3.4006 1.95197 0
M  V30 1008 H 98.5956 -4.00862 1.17046 0
M  V30 1009 N 99.0327 -1.24633 -0.964593 0
M  V30 1010 C 99.9797 -1.04144 -2.05968 0
M  V30 1011 C 100.95 0.046262 -1.66036 0
M  V30 1012 O 102.135 -0.108972 -1.90489 0
M  V30 1013 C 99.2747 -0.65563 -3.38815 0
M  V30 1014 C 98.3877 -1.81714 -3.91923 0
M  V30 1015 C 97.5227 -1.37662 -5.13052 0
M  V30 1016 C 96.5617 -2.50788 -5.58365 0
M  V30 1017 N 95.6987 -2.07582 -6.70712 0
M  V30 1018 H 100.539 -1.9787 -2.22827 0
M  V30 1019 H 98.0757 -0.9855 -1.09208 0
M  V30 1020 H 100.034 -0.412954 -4.15151 0
M  V30 1021 H 98.6637 0.244627 -3.21872 0
M  V30 1022 H 97.7157 -2.1734 -3.12198 0
M  V30 1023 H 99.0277 -2.66705 -4.21509 0
M  V30 1024 H 98.1817 -1.093 -5.96773 0
M  V30 1025 H 96.9207 -0.497293 -4.85158 0
M  V30 1026 H 95.9257 -2.79906 -4.73215 0
M  V30 1027 H 97.1507 -3.39283 -5.88272 0
M  V30 1028 H 95.0967 -1.22051 -6.44546 0
M  V30 1029 H 95.0137 -2.86125 -6.99763 0
M  V30 1030 H 96.2817 -1.82369 -7.57867 0
M  V30 1031 N 100.511 1.16574 -1.06058 0
M  V30 1032 C 101.788 1.83048 -0.689416 0
M  V30 1033 C 102.168 1.94122 0.829443 0
M  V30 1034 O 101.516 1.48249 1.7388 0
M  V30 1035 C 101.726 3.20186 -1.38859 0
M  V30 1036 C 103.074 3.95989 -1.53226 0
M  V30 1037 O 104.098 3.29696 -1.3483 0
M  V30 1038 O 102.957 5.14813 -1.83384 0
M  V30 1039 H 100.051 0.790258 -0.243764 0
M  V30 1040 H 102.597 1.23797 -1.16071 0
M  V30 1041 H 101.369 3.07146 -2.4244 0
M  V30 1042 H 100.992 3.87112 -0.907216 0
M  V30 1043 N 101.989 0.842826 1.3317 0
M  V30 1044 C 102.952 0.284065 2.27433 0
M  V30 1045 C 103.952 -0.54948 1.5112 0
M  V30 1046 O 105.142 -0.362699 1.70382 0
M  V30 1047 C 102.274 -0.599384 3.35589 0
M  V30 1048 H 103.467 1.11589 2.78366 0
M  V30 1049 H 101.02 0.616221 1.4364 0
M  V30 1050 H 101.755 -1.45349 2.89904 0
M  V30 1051 H 101.54 -0.00291266 3.921 0
M  V30 1052 H 103.03 -0.983488 4.05854 0
M  V30 1053 N 103.467 -1.45747 0.599634 0
M  V30 1054 C 104.377 -2.34262 -0.125888 0
M  V30 1055 C 105.393 -1.50768 -0.868625 0
M  V30 1056 O 106.569 -1.83592 -0.828003 0
M  V30 1057 C 103.634 -3.28252 -1.11587 0
M  V30 1058 C 102.695 -4.27651 -0.375956 0
M  V30 1059 C 101.928 -5.1715 -1.31877 0
M  V30 1060 O 102.151 -5.09916 -2.55621 0
M  V30 1061 O 101.085 -5.96286 -0.820157 0
M  V30 1062 H 104.911 -2.97688 0.601315 0
M  V30 1063 H 102.496 -1.44999 0.359934 0
M  V30 1064 H 104.378 -3.86191 -1.68626 0
M  V30 1065 H 103.053 -2.67401 -1.82424 0
M  V30 1066 H 101.96 -3.7335 0.236698 0
M  V30 1067 H 103.293 -4.91334 0.29177 0
M  V30 1068 N 104.945 -0.338344 -1.53925 0
M  V30 1069 C 105.878 0.563758 -2.21127 0
M  V30 1070 C 106.856 1.10433 -1.19345 0
M  V30 1071 O 108.04 1.16557 -1.48144 0
M  V30 1072 C 105.167 1.77505 -2.88461 0
M  V30 1073 C 104.213 1.3644 -4.04087 0
M  V30 1074 S 105.046 0.388593 -5.34088 0
M  V30 1075 C 106.202 1.60683 -6.04923 0
M  V30 1076 H 106.435 -0.00704546 -2.97299 0
M  V30 1077 H 103.968 -0.122418 -1.53914 0
M  V30 1078 H 105.926 2.46999 -3.27875 0
M  V30 1079 H 104.587 2.31706 -2.12064 0
M  V30 1080 H 103.78 2.26739 -4.50117 0
M  V30 1081 H 103.382 0.748998 -3.66423 0
M  V30 1082 H 105.674 2.54209 -6.28 0
M  V30 1083 H 106.617 1.18842 -6.98056 0
M  V30 1084 H 107.025 1.80052 -5.35015 0
M  V30 1085 N 106.423 1.57458 -0.0668435 0
M  V30 1086 C 107.669 1.93587 0.6043 0
M  V30 1087 C 108.002 0.946722 1.69561 0
M  V30 1088 O 107.277 -0.0248516 1.94484 0
M  V30 1089 C 107.56 3.40014 1.18585 0
M  V30 1090 C 107.413 4.49685 0.101529 0
M  V30 1091 C 108.732 3.87154 2.09284 0
M  V30 1092 H 105.851 0.703958 0.218202 0
M  V30 1093 H 108.493 1.89542 -0.131804 0
M  V30 1094 H 106.643 3.43592 1.81319 0
M  V30 1095 H 108.315 4.5823 -0.531279 0
M  V30 1096 H 106.558 4.30059 -0.568487 0
M  V30 1097 H 107.229 5.49266 0.54874 0
M  V30 1098 H 109.705 3.85551 1.56491 0
M  V30 1099 H 108.581 4.90231 2.46911 0
M  V30 1100 H 108.842 3.2481 2.99918 0
M  V30 1101 N 107.901 -0.206675 1.56239 0
M  V30 1102 C 109.129 -0.945345 1.8404 0
M  V30 1103 C 109.544 -1.77336 0.647885 0
M  V30 1104 O 108.901 -1.78425 -0.383511 0
M  V30 1105 C 108.952 -1.8509 3.10522 0
M  V30 1106 O 108.673 -1.05634 4.25174 0
M  V30 1107 C 110.174 -2.70222 3.51418 0
M  V30 1108 H 107.394 -0.276372 0.61144 0
M  V30 1109 H 109.938 -0.217417 2.03341 0
M  V30 1110 H 108.093 -2.53259 2.93153 0
M  V30 1111 H 108.507 -1.67238 4.97124 0
M  V30 1112 H 109.981 -3.29438 4.42916 0
M  V30 1113 H 110.458 -3.43358 2.73864 0
M  V30 1114 H 111.064 -2.07443 3.71278 0
M  V30 1115 N 109.379 -1.50304 -0.473955 0
M  V30 1116 C 110.607 -1.64902 -1.24959 0
M  V30 1117 C 111.022 -0.331198 -1.85872 0
M  V30 1118 O 110.379 0.68652 -1.69095 0
M  V30 1119 C 110.43 -2.73803 -2.36038 0
M  V30 1120 O 110.151 -4.00477 -1.77624 0
M  V30 1121 C 111.652 -2.99349 -3.26964 0
M  V30 1122 H 108.872 -0.554383 -0.378022 0
M  V30 1123 H 111.416 -1.9651 -0.566054 0
M  V30 1124 H 109.571 -2.44898 -3.00173 0
M  V30 1125 H 109.985 -4.60678 -2.5075 0
M  V30 1126 H 111.459 -3.79217 -4.01121 0
M  V30 1127 H 111.936 -2.10307 -3.85574 0
M  V30 1128 H 112.542 -3.29774 -2.68569 0
M  V30 1129 N 110.857 0.726932 -1.39834 0
M  V30 1130 C 112.087 1.51393 -1.40583 0
M  V30 1131 C 112.495 1.892 -0.000740625 0
M  V30 1132 O 111.838 1.55189 0.982951 0
M  V30 1133 C 111.9 2.82588 -2.22226 0
M  V30 1134 C 111.564 2.67169 -3.70769 0
M  V30 1135 C 112.561 2.3518 -4.63666 0
M  V30 1136 C 110.246 2.83788 -4.14451 0
M  V30 1137 C 112.24 2.20002 -5.98229 0
M  V30 1138 C 109.927 2.68229 -5.49087 0
M  V30 1139 C 110.925 2.36382 -6.4079 0
M  V30 1140 O 110.613 2.2093 -7.72946 0
M  V30 1141 H 110.345 0.474168 -0.48181 0
M  V30 1142 H 112.899 0.905247 -1.84376 0
M  V30 1143 H 111.129 3.45746 -1.73195 0
M  V30 1144 H 112.818 3.44247 -2.15055 0
M  V30 1145 H 113.584 2.21984 -4.31217 0
M  V30 1146 H 109.463 3.07566 -3.43401 0
M  V30 1147 H 113.007 1.95067 -6.69772 0
M  V30 1148 H 108.904 2.81006 -5.81125 0
M  V30 1149 H 109.672 2.35937 -7.83757 0
M  V30 1150 N 112.336 1.25143 0.95797 0
M  V30 1151 C 113.564 1.12424 1.73691 0
M  V30 1152 C 113.979 -0.322304 1.86029 0
M  V30 1153 O 113.336 -1.22186 1.35561 0
M  V30 1154 C 113.387 1.76933 3.15241 0
M  V30 1155 O 113.108 3.15932 3.03511 0
M  V30 1156 C 114.609 1.6995 4.09429 0
M  V30 1157 H 111.829 0.3923 0.544373 0
M  V30 1158 H 114.373 1.6544 1.20207 0
M  V30 1159 H 112.528 1.27895 3.6568 0
M  V30 1160 H 112.942 3.47598 3.9278 0
M  V30 1161 H 114.416 2.19753 5.06372 0
M  V30 1162 H 114.893 0.662619 4.34173 0
M  V30 1163 H 115.499 2.18461 3.64904 0
M  V30 1164 N 113.814 -1.1601 1.06675 0
M  V30 1165 C 115.23 -1.38622 0.790948 0
M  V30 1166 C 115.43 -1.92109 -0.607965 0
M  V30 1167 O 114.486 -2.12239 -1.36787 0
M  V30 1168 C 115.799 -2.36347 1.85905 0
M  V30 1169 C 117.347 -2.50023 1.88301 0
M  V30 1170 C 117.822 -3.51033 2.94176 0
M  V30 1171 N 119.313 -3.58563 2.93235 0
M  V30 1172 C 120.048 -4.36521 3.71803 0
M  V30 1173 N 119.544 -5.17869 4.602 0
M  V30 1174 N 121.337 -4.31541 3.60178 0
M  V30 1175 H 113.488 -0.796294 1.96908 0
M  V30 1176 H 115.751 -0.412597 0.853503 0
M  V30 1177 H 115.457 -2.04147 2.86386 0
M  V30 1178 H 115.331 -3.36042 1.71334 0
M  V30 1179 H 117.718 -2.81524 0.884769 0
M  V30 1180 H 117.799 -1.5035 2.06951 0
M  V30 1181 H 117.443 -3.20268 3.94196 0
M  V30 1182 H 117.373 -4.50445 2.72776 0
M  V30 1183 H 119.864 -3.00496 2.29152 0
M  V30 1184 H 120.177 -5.74578 5.16797 0
M  V30 1185 H 118.522 -5.17199 4.64253 0
M  V30 1186 H 121.713 -3.67051 2.90502 0
M  V30 1187 H 121.886 -4.9205 4.21653 0
M  V30 1188 N 115.292 -0.849877 -1.32721 0
M  V30 1189 C 116.222 -0.306308 -2.31482 0
M  V30 1190 C 117.203 0.591952 -1.59468 0
M  V30 1191 O 118.388 0.513199 -1.87296 0
M  V30 1192 C 115.518 0.510204 -3.43532 0
M  V30 1193 C 114.472 -0.293209 -4.26994 0
M  V30 1194 C 113.798 0.647743 -5.30762 0
M  V30 1195 C 115.098 -1.51634 -4.99804 0
M  V30 1196 H 116.792 -1.13153 -2.77195 0
M  V30 1197 H 114.338 -0.545553 -1.33266 0
M  V30 1198 H 116.291 0.900856 -4.11658 0
M  V30 1199 H 115.015 1.36874 -2.96535 0
M  V30 1200 H 113.674 -0.665555 -3.60508 0
M  V30 1201 H 113.322 1.50299 -4.8002 0
M  V30 1202 H 113.022 0.11422 -5.87489 0
M  V30 1203 H 114.546 1.03567 -6.01753 0
M  V30 1204 H 115.96 -1.19824 -5.60638 0
M  V30 1205 H 114.357 -1.98745 -5.66234 0
M  V30 1206 H 115.427 -2.28018 -4.27943 0
M  V30 1207 N 116.77 1.45427 -0.607355 0
M  V30 1208 C 117.995 2.07124 -0.107006 0
M  V30 1209 C 118.42 1.44906 1.19933 0
M  V30 1210 O 117.778 0.541687 1.73019 0
M  V30 1211 C 117.826 3.60595 0.0194119 0
M  V30 1212 O 116.93 3.98285 1.0697 0
M  V30 1213 H 116.271 0.659868 -0.0739597 0
M  V30 1214 H 118.801 1.86683 -0.837297 0
M  V30 1215 H 118.811 4.07419 0.2177 0
M  V30 1216 H 117.486 4.05266 -0.934453 0
M  V30 1217 H 116.063 3.63133 0.847889 0
M  V30 1218 N 118.248 0.346503 1.53744 0
M  V30 1219 C 119.18 -0.543316 2.22667 0
M  V30 1220 C 120.193 -1.06159 1.23427 0
M  V30 1221 O 121.382 -0.971235 1.49764 0
M  V30 1222 C 118.482 -1.76076 2.89569 0
M  V30 1223 C 117.655 -1.37727 4.15151 0
M  V30 1224 C 116.714 -2.45471 4.65436 0
M  V30 1225 O 115.74 -2.08655 5.29577 0
M  V30 1226 N 116.942 -3.7677 4.41616 0
M  V30 1227 H 119.707 0.0469703 2.99663 0
M  V30 1228 H 117.268 0.170766 1.60997 0
M  V30 1229 H 119.26 -2.47593 3.20125 0
M  V30 1230 H 117.83 -2.25835 2.16142 0
M  V30 1231 H 117.05 -0.492746 3.91108 0
M  V30 1232 H 118.338 -1.09708 4.96832 0
M  V30 1233 H 117.736 -4.09467 3.90325 0
M  V30 1234 H 116.293 -4.44448 4.7677 0
M  V30 1235 N 119.726 -1.57421 0.075193 0
M  V30 1236 C 120.656 -2.15942 -0.888324 0
M  V30 1237 C 121.637 -1.08737 -1.30806 0
M  V30 1238 O 122.822 -1.36787 -1.37851 0
M  V30 1239 C 119.952 -2.72379 -2.1547 0
M  V30 1240 C 118.906 -3.8478 -1.87425 0
M  V30 1241 C 118.232 -4.27834 -3.20721 0
M  V30 1242 C 119.532 -5.08869 -1.17684 0
M  V30 1243 H 121.226 -2.96705 -0.400799 0
M  V30 1244 H 118.772 -1.42723 -0.191342 0
M  V30 1245 H 120.725 -3.11965 -2.83295 0
M  V30 1246 H 119.449 -1.88841 -2.6647 0
M  V30 1247 H 118.108 -3.45703 -1.22004 0
M  V30 1248 H 117.756 -3.41214 -3.6957 0
M  V30 1249 H 117.456 -5.03605 -3.02746 0
M  V30 1250 H 118.98 -4.70039 -3.89738 0
M  V30 1251 H 120.394 -5.4575 -1.75584 0
M  V30 1252 H 118.791 -5.8994 -1.09956 0
M  V30 1253 H 119.861 -4.84648 -0.156453 0
M  V30 1254 N 121.204 0.198386 -1.56346 0
M  V30 1255 C 122.167 1.22952 -1.93431 0
M  V30 1256 C 123.167 1.38611 -0.815092 0
M  V30 1257 O 124.357 1.36479 -1.08255 0
M  V30 1258 C 121.489 2.59946 -2.20546 0
M  V30 1259 H 122.682 0.912626 -2.85677 0
M  V30 1260 H 120.235 0.43977 -1.49986 0
M  V30 1261 H 120.97 2.96696 -1.30927 0
M  V30 1262 H 120.755 2.49953 -3.02102 0
M  V30 1263 H 122.245 3.3431 -2.50253 0
M  V30 1264 N 122.682 1.50554 0.465978 0
M  V30 1265 C 123.91 1.65563 1.24083 0
M  V30 1266 C 124.325 0.341051 1.85694 0
M  V30 1267 O 123.682 -0.677543 1.69457 0
M  V30 1268 C 123.733 2.75051 2.34583 0
M  V30 1269 O 123.454 4.01413 1.75497 0
M  V30 1270 C 124.955 3.01078 3.25372 0
M  V30 1271 H 122.175 0.55638 0.375077 0
M  V30 1272 H 124.719 1.96807 0.555624 0
M  V30 1273 H 122.874 2.46486 2.9887 0
M  V30 1274 H 123.288 4.62002 2.48303 0
M  V30 1275 H 124.762 3.81339 3.99105 0
M  V30 1276 H 125.239 2.12349 3.84453 0
M  V30 1277 H 125.845 3.31194 2.66816 0
M  V30 1278 N 124.16 -0.719506 1.40217 0
M  V30 1279 C 125.123 -1.8153 1.39927 0
M  V30 1280 C 126.123 -1.58095 0.293723 0
M  V30 1281 O 127.313 -1.65209 0.552429 0
M  V30 1282 C 124.445 -3.19561 1.18716 0
M  V30 1283 H 125.638 -1.83186 2.37451 0
M  V30 1284 H 123.191 -0.924746 1.26008 0
M  V30 1285 H 123.926 -3.23557 0.219366 0
M  V30 1286 H 123.711 -3.3797 1.98793 0
M  V30 1287 H 125.201 -3.99598 1.21291 0
M  V30 1288 N 125.638 -1.25649 -0.95132 0
M  V30 1289 C 126.884 -1.11766 -1.69941 0
M  V30 1290 C 127.239 0.33735 -1.89419 0
M  V30 1291 O 126.532 1.24491 -1.45645 0
M  V30 1292 C 126.726 -1.80909 -3.08231 0
M  V30 1293 C 126.555 -3.32984 -3.02245 0
M  V30 1294 C 125.325 -4.02247 -3.05819 0
M  V30 1295 C 127.523 -4.29332 -2.83157 0
M  V30 1296 N 125.505 -5.41072 -2.90024 0
M  V30 1297 C 126.876 -5.55265 -2.75828 0
M  V30 1298 C 128.931 -4.19707 -2.67863 0
M  V30 1299 C 127.634 -6.72671 -2.54767 0
M  V30 1300 C 129.66 -5.36809 -2.48173 0
M  V30 1301 C 129.022 -6.61683 -2.41567 0
M  V30 1302 H 125.121 -0.463708 -0.629682 0
M  V30 1303 H 127.705 -1.58796 -1.12659 0
M  V30 1304 H 125.876 -1.36369 -3.63673 0
M  V30 1305 H 127.608 -1.59739 -3.71841 0
M  V30 1306 H 124.363 -3.53531 -3.15139 0
M  V30 1307 H 124.787 -6.13938 -2.85323 0
M  V30 1308 H 129.429 -3.23907 -2.71743 0
M  V30 1309 H 127.147 -7.68577 -2.49629 0
M  V30 1310 H 130.733 -5.31224 -2.37259 0
M  V30 1311 H 129.613 -7.50768 -2.26531 0
M  V30 1312 N 127.117 1.15442 -1.07289 0
M  V30 1313 C 128.08 2.18358 -0.696591 0
M  V30 1314 C 129.08 1.58637 0.262837 0
M  V30 1315 O 130.27 1.74145 0.0438809 0
M  V30 1316 C 127.402 3.4089 -0.0266151 0
M  V30 1317 H 128.595 2.53162 -1.60776 0
M  V30 1318 H 126.148 1.29893 -0.869342 0
M  V30 1319 H 126.883 3.11653 0.896822 0
M  V30 1320 H 126.668 3.85495 -0.716657 0
M  V30 1321 H 128.158 4.17009 0.222028 0
M  V30 1322 N 128.595 0.856903 1.32268 0
M  V30 1323 C 129.823 0.475439 2.01363 0
M  V30 1324 C 130.238 -0.928486 1.64392 0
M  V30 1325 O 129.595 -1.60624 0.866387 0
M  V30 1326 C 129.646 0.607545 3.56358 0
M  V30 1327 O 129.367 1.95617 3.92002 0
M  V30 1328 C 130.868 0.225382 4.42727 0
M  V30 1329 H 128.088 0.186636 0.644521 0
M  V30 1330 H 130.632 1.15446 1.68797 0
M  V30 1331 H 128.787 -0.0237719 3.87393 0
M  V30 1332 H 129.201 1.95455 4.86721 0
M  V30 1333 H 130.675 0.368813 5.50767 0
M  V30 1334 H 131.152 -0.834369 4.31202 0
M  V30 1335 H 131.758 0.831864 4.17085 0
M  V30 1336 N 130.073 -1.45103 0.615059 0
M  V30 1337 C 131.484 -1.85654 0.197383 0
M  V30 1338 C 131.835 -1.51433 -1.24749 0
M  V30 1339 O 130.96 -0.944608 -1.94695 0
M  V30 1340 C 131.555 -3.36972 0.351448 0
M  V30 1341 C 130.114 -3.76398 -0.011593 0
M  V30 1342 C 129.261 -2.69024 0.672394 0
M  V30 1343 H 132.212 -1.35797 0.821263 0
M  V30 1344 H 132.233 -3.78239 -0.414227 0
M  V30 1345 H 131.745 -3.61847 1.40314 0
M  V30 1346 H 129.846 -3.5714 -1.06217 0
M  V30 1347 H 129.959 -4.77532 0.387265 0
M  V30 1348 H 128.323 -2.54465 0.109284 0
M  V30 1349 H 129.106 -2.96735 1.72636 0
M  V30 1350 N 131.551 -0.354651 -1.53558 0
M  V30 1351 C 132.779 0.239515 -2.05509 0
M  V30 1352 C 133.194 1.4333 -1.2289 0
M  V30 1353 O 132.551 1.80538 -0.266899 0
M  V30 1354 C 132.602 0.643719 -3.55723 0
M  V30 1355 O 132.323 -0.502602 -4.35207 0
M  V30 1356 C 133.824 1.29743 -4.23889 0
M  V30 1357 H 131.044 0.0442697 -0.669538 0
M  V30 1358 H 133.588 -0.509856 -1.98042 0
M  V30 1359 H 131.743 1.34302 -3.63376 0
M  V30 1360 H 132.157 -0.178172 -5.24197 0
M  V30 1361 H 133.631 1.53091 -5.30346 0
M  V30 1362 H 134.108 2.25441 -3.76926 0
M  V30 1363 H 134.714 0.639865 -4.20459 0
M  V30 1364 N 133.029 1.57378 -0.0835403 0
M  V30 1365 C 133.992 2.12252 0.864959 0
M  V30 1366 C 134.992 1.04916 1.21858 0
M  V30 1367 O 136.182 1.30853 1.14991 0
M  V30 1368 C 133.314 2.63358 2.16461 0
M  V30 1369 H 134.507 2.97371 0.388676 0
M  V30 1370 H 132.06 1.55423 0.165317 0
M  V30 1371 H 132.795 1.81727 2.686 0
M  V30 1372 H 132.58 3.41826 1.92087 0
M  V30 1373 H 134.07 3.05847 2.84337 0
M  V30 1374 N 134.507 -0.190092 1.56449 0
M  V30 1375 C 135.47 -1.21925 1.9408 0
M  V30 1376 C 136.47 -1.38176 0.822431 0
M  V30 1377 O 137.66 -1.35903 1.08977 0
M  V30 1378 C 134.792 -2.58773 2.21922 0
M  V30 1379 H 135.985 -0.897464 2.86157 0
M  V30 1380 H 133.538 -0.43181 1.50217 0
M  V30 1381 H 134.273 -2.95998 1.32499 0
M  V30 1382 H 134.058 -2.48348 3.03424 0
M  V30 1383 H 135.548 -3.32978 2.52022 0
M  V30 1384 N 135.985 -1.50799 -0.457987 0
M  V30 1385 C 137.231 -1.62683 -1.21088 0
M  V30 1386 C 137.564 -0.332268 -1.91336 0
M  V30 1387 O 136.839 0.667043 -1.82704 0
M  V30 1388 C 137.122 -2.81615 -2.24422 0
M  V30 1389 C 136.975 -4.20989 -1.58392 0
M  V30 1390 C 138.294 -2.96085 -3.2561 0
M  V30 1391 H 135.413 -0.592087 -0.438864 0
M  V30 1392 H 138.055 -1.83225 -0.50286 0
M  V30 1393 H 136.205 -2.64231 -2.84806 0
M  V30 1394 H 137.877 -4.49994 -1.01504 0
M  V30 1395 H 136.12 -4.24641 -0.886704 0
M  V30 1396 H 136.791 -5.0016 -2.33547 0
M  V30 1397 H 139.267 -3.12042 -2.75262 0
M  V30 1398 H 138.143 -3.80902 -3.95228 0
M  V30 1399 H 138.404 -2.0726 -3.90507 0
M  V30 1400 N 137.463 0.71206 -1.40597 0
M  V30 1401 C 138.71 1.47197 -1.39065 0
M  V30 1402 C 139.038 1.94499 0.00583891 0
M  V30 1403 O 138.293 1.68752 0.99102 0
M  V30 1404 C 138.592 2.71039 -2.32965 0
M  V30 1405 C 138.258 2.42484 -3.80148 0
M  V30 1406 C 136.92 2.34406 -4.20247 0
M  V30 1407 C 139.272 2.18598 -4.73143 0
M  V30 1408 C 136.6 2.00516 -5.51371 0
M  V30 1409 C 138.952 1.8622 -6.0457 0
M  V30 1410 C 137.616 1.76626 -6.43708 0
M  V30 1411 H 136.886 0.538634 -0.508876 0
M  V30 1412 H 139.533 0.815325 -1.73276 0
M  V30 1413 H 137.838 3.41558 -1.91951 0
M  V30 1414 H 139.535 3.29138 -2.29061 0
M  V30 1415 H 136.125 2.49659 -3.4838 0
M  V30 1416 H 140.309 2.23793 -4.42979 0
M  V30 1417 H 135.565 1.91628 -5.80593 0
M  V30 1418 H 139.739 1.66752 -6.76141 0
M  V30 1419 H 137.366 1.50133 -7.45228 0
M  V30 1420 N 138.941 1.26152 0.944643 0
M  V30 1421 C 140.189 1.11271 1.6871 0
M  V30 1422 C 140.51 -0.345166 1.91921 0
M  V30 1423 O 139.78 -1.24387 1.51343 0
M  V30 1424 H 138.36 0.408783 0.625224 0
M  V30 1425 H 141.022 1.58427 1.1352 0
M  V30 1426 H 140.118 1.62879 2.66227 0
M  V30 1427 N 140.419 -1.14872 1.07899 0
M  V30 1428 C 141.696 -1.81928 0.71845 0
M  V30 1429 C 142.076 -1.95417 -0.798455 0
M  V30 1430 O 141.424 -1.50997 -1.715 0
M  V30 1431 C 141.634 -3.17937 1.43935 0
M  V30 1432 C 142.982 -3.93501 1.59506 0
M  V30 1433 O 144.006 -3.27509 1.40058 0
M  V30 1434 O 142.865 -5.1183 1.91551 0
M  V30 1435 H 139.959 -0.78628 0.256305 0
M  V30 1436 H 142.505 -1.21934 1.18026 0
M  V30 1437 H 141.277 -3.0325 2.47295 0
M  V30 1438 H 140.9 -3.85619 0.968687 0
M  V30 1439 N 141.898 -0.863906 -1.31812 0
M  V30 1440 C 142.861 -0.320212 -2.26952 0
M  V30 1441 C 143.861 0.525369 -1.51975 0
M  V30 1442 O 145.051 0.335547 -1.70938 0
M  V30 1443 C 142.183 0.545919 -3.365 0
M  V30 1444 H 143.376 -1.16004 -2.76556 0
M  V30 1445 H 140.929 -0.638995 -1.42641 0
M  V30 1446 H 141.664 1.40718 -2.92179 0
M  V30 1447 H 141.449 -0.0594674 -3.92055 0
M  V30 1448 H 142.939 0.918796 -4.07367 0
M  V30 1449 N 143.376 1.44774 -0.622745 0
M  V30 1450 C 144.339 2.29069 0.0774015 0
M  V30 1451 C 145.339 1.4059 0.780461 0
M  V30 1452 O 146.529 1.62551 0.626322 0
M  V30 1453 C 143.661 3.21974 1.12006 0
M  V30 1454 H 144.854 2.92459 -0.663901 0
M  V30 1455 H 142.407 1.51548 -0.382486 0
M  V30 1456 H 143.142 2.63417 1.89162 0
M  V30 1457 H 142.927 3.87168 0.619951 0
M  V30 1458 H 144.417 3.85318 1.60995 0
M  V30 1459 N 144.854 0.36279 1.53368 0
M  V30 1460 C 146.1 -0.228113 2.01513 0
M  V30 1461 C 146.433 -1.48648 1.2497 0
M  V30 1462 O 145.708 -1.91459 0.342616 0
M  V30 1463 C 145.991 -0.522884 3.56284 0
M  V30 1464 C 145.844 0.74892 4.43521 0
M  V30 1465 C 147.163 -1.32461 4.19693 0
M  V30 1466 H 144.282 -0.0814343 0.732487 0
M  V30 1467 H 146.924 0.48713 1.83649 0
M  V30 1468 H 145.074 -1.1322 3.71636 0
M  V30 1469 H 146.746 1.38648 4.39971 0
M  V30 1470 H 144.989 1.36986 4.11603 0
M  V30 1471 H 145.66 0.497667 5.49752 0
M  V30 1472 H 148.136 -0.809203 4.08156 0
M  V30 1473 H 147.012 -1.49961 5.28018 0
M  V30 1474 H 147.273 -2.33232 3.75573 0
M  V30 1475 N 146.332 -1.57332 0.0918853 0
M  V30 1476 C 147.262 -2.16872 -0.865371 0
M  V30 1477 C 148.243 -1.10118 -1.29646 0
M  V30 1478 O 149.428 -1.38242 -1.36392 0
M  V30 1479 C 146.558 -2.74649 -2.12569 0
M  V30 1480 C 145.512 -3.86747 -1.83333 0
M  V30 1481 C 144.838 -4.31212 -3.16166 0
M  V30 1482 C 146.138 -5.10089 -1.1228 0
M  V30 1483 H 147.832 -2.97114 -0.369307 0
M  V30 1484 H 145.378 -1.42918 -0.176194 0
M  V30 1485 H 147.331 -3.14952 -2.7997 0
M  V30 1486 H 146.055 -1.91657 -2.64452 0
M  V30 1487 H 144.714 -3.46978 -1.18331 0
M  V30 1488 H 144.362 -3.45115 -3.6593 0
M  V30 1489 H 144.062 -5.06788 -2.97388 0
M  V30 1490 H 145.586 -4.74146 -3.84731 0
M  V30 1491 H 147 -5.47582 -1.69785 0
M  V30 1492 H 145.397 -5.91073 -1.03693 0
M  V30 1493 H 146.467 -4.84786 -0.105041 0
M  V30 1494 N 147.81 0.181792 -1.56548 0
M  V30 1495 C 148.773 1.20894 -1.94724 0
M  V30 1496 C 149.773 1.37738 -0.829747 0
M  V30 1497 O 150.963 1.35323 -1.09697 0
M  V30 1498 C 148.095 2.57593 -2.23291 0
M  V30 1499 H 149.288 0.882275 -2.86629 0
M  V30 1500 H 146.841 0.423838 -1.50444 0
M  V30 1501 H 147.576 2.95291 -1.34067 0
M  V30 1502 H 147.361 2.46735 -3.04736 0
M  V30 1503 H 148.851 3.31637 -2.53785 0
M  V30 1504 N 149.288 1.51039 0.449983 0
M  V30 1505 C 150.251 1.70863 1.5277 0
M  V30 1506 C 151.251 0.578846 1.5002 0
M  V30 1507 O 152.441 0.846213 1.52266 0
M  V30 1508 C 149.573 1.75341 2.9235 0
M  V30 1509 H 150.766 2.67034 1.36502 0
M  V30 1510 H 148.319 1.40838 0.677812 0
M  V30 1511 H 149.054 0.809383 3.14037 0
M  V30 1512 H 148.839 2.57436 2.95752 0
M  V30 1513 H 150.329 1.92559 3.70555 0
M  V30 1514 N 150.766 -0.704594 1.40972 0
M  V30 1515 C 152.015 -1.46018 1.39146 0
M  V30 1516 C 152.328 -1.956 0.000589254 0
M  V30 1517 O 153.534 -2.71137 -0.1403 0
M  V30 1518 C 151.99 -2.63996 2.4461 0
M  V30 1519 C 151.598 -2.21238 3.89561 0
M  V30 1520 C 153.342 -3.41677 2.51907 0
M  V30 1521 C 151.249 -3.3612 4.86598 0
M  V30 1522 H 150.179 -0.548444 0.517422 0
M  V30 1523 H 152.83 -0.765784 1.66757 0
M  V30 1524 H 151.212 -3.3566 2.10115 0
M  V30 1525 H 152.386 -1.56923 4.33257 0
M  V30 1526 H 150.701 -1.56574 3.85841 0
M  V30 1527 H 153.298 -4.27182 3.2159 0
M  V30 1528 H 153.641 -3.86247 1.55303 0
M  V30 1529 H 154.174 -2.77064 2.85448 0
M  V30 1530 H 150.913 -2.96572 5.84573 0
M  V30 1531 H 150.433 -3.99315 4.47557 0
M  V30 1532 H 152.112 -4.02029 5.06934 0
M  V30 1533 N 152.244 -1.26651 -0.937939 0
M  V30 1534 C 153.191 -1.0849 -2.03712 0
M  V30 1535 C 154.161 0.011033 -1.66096 0
M  V30 1536 O 155.346 -0.149353 -1.90215 0
M  V30 1537 C 152.486 -0.72735 -3.37348 0
M  V30 1538 C 151.599 -1.89986 -3.87981 0
M  V30 1539 C 150.734 -1.48513 -5.10017 0
M  V30 1540 C 149.773 -2.62575 -5.5292 0
M  V30 1541 N 148.91 -2.21762 -6.66158 0
M  V30 1542 H 153.75 -2.02551 -2.18579 0
M  V30 1543 H 151.287 -1.00844 -1.07093 0
M  V30 1544 H 153.245 -0.50092 -4.14182 0
M  V30 1545 H 151.875 0.176298 -3.22318 0
M  V30 1546 H 150.927 -2.23913 -3.07518 0
M  V30 1547 H 152.239 -2.75586 -4.15757 0
M  V30 1548 H 151.393 -1.21934 -5.94321 0
M  V30 1549 H 150.132 -0.60009 -4.83994 0
M  V30 1550 H 149.137 -2.8988 -4.67172 0
M  V30 1551 H 150.362 -3.51685 -5.80943 0
M  V30 1552 H 148.308 -1.35696 -6.41812 0
M  V30 1553 H 148.225 -3.00903 -6.93537 0
M  V30 1554 H 149.493 -1.98403 -7.53828 0
M  V30 1555 N 153.722 1.14298 -1.08507 0
M  V30 1556 C 154.685 2.17607 -0.719711 0
M  V30 1557 C 155.685 1.58907 0.245997 0
M  V30 1558 O 156.875 1.74181 0.0254081 0
M  V30 1559 C 154.007 3.40842 -0.0627695 0
M  V30 1560 H 155.2 2.51443 -1.63452 0
M  V30 1561 H 152.753 1.28963 -0.88307 0
M  V30 1562 H 153.488 3.12587 0.863716 0
M  V30 1563 H 153.273 3.84713 -0.757504 0
M  V30 1564 H 154.763 4.17221 0.177786 0
M  V30 1565 N 155.201 0.870884 1.31352 0
M  V30 1566 C 156.449 0.48132 1.96285 0
M  V30 1567 C 156.77 -0.969813 1.69173 0
M  V30 1568 O 156.04 -1.67998 1.00764 0
M  V30 1569 H 154.62 0.175002 0.726212 0
M  V30 1570 H 157.282 1.11087 1.60143 0
M  V30 1571 H 156.378 0.639825 3.05471 0
M  V30 1572 N 156.679 -1.44442 0.630414 0
M  V30 1573 C 157.609 -2.33418 -0.0618083 0
M  V30 1574 C 158.59 -1.48165 -0.835541 0
M  V30 1575 O 159.775 -1.76886 -0.801564 0
M  V30 1576 C 156.905 -3.31222 -1.04449 0
M  V30 1577 C 155.859 -4.26288 -0.382436 0
M  V30 1578 C 155.185 -5.13954 -1.47497 0
M  V30 1579 C 156.485 -5.1744 0.710865 0
M  V30 1580 H 158.179 -2.91548 0.681184 0
M  V30 1581 H 155.725 -1.40191 0.329026 0
M  V30 1582 H 157.678 -3.92351 -1.53748 0
M  V30 1583 H 156.402 -2.71299 -1.81836 0
M  V30 1584 H 155.061 -3.6649 0.0899054 0
M  V30 1585 H 154.709 -4.50385 -2.2397 0
M  V30 1586 H 154.409 -5.7837 -1.03737 0
M  V30 1587 H 155.933 -5.77955 -1.96979 0
M  V30 1588 H 157.347 -5.72509 0.300996 0
M  V30 1589 H 155.744 -5.90455 1.07156 0
M  V30 1590 H 156.814 -4.58496 1.57829 0
M  V30 1591 N 158.157 -0.370918 -1.53173 0
M  V30 1592 C 159.12 0.460778 -2.24521 0
M  V30 1593 C 160.12 1.00536 -1.25496 0
M  V30 1594 O 161.31 0.890266 -1.49733 0
M  V30 1595 C 158.442 1.64457 -2.98608 0
M  V30 1596 H 159.635 -0.163613 -2.99453 0
M  V30 1597 H 157.188 -0.122699 -1.55818 0
M  V30 1598 H 157.923 2.30691 -2.2793 0
M  V30 1599 H 157.708 1.26099 -3.7127 0
M  V30 1600 H 159.198 2.23384 -3.5283 0
M  V30 1601 N 159.635 1.57281 -0.100228 0
M  V30 1602 C 160.912 1.86014 0.604812 0
M  V30 1603 C 161.292 0.998025 1.86018 0
M  V30 1604 O 160.64 0.0718184 2.28387 0
M  V30 1605 C 160.85 3.36784 0.915278 0
M  V30 1606 C 162.198 4.04957 1.27651 0
M  V30 1607 O 163.222 3.41695 1.00613 0
M  V30 1608 O 162.081 5.16593 1.7831 0
M  V30 1609 H 159.175 0.76942 0.303185 0
M  V30 1610 H 161.721 1.69176 -0.133313 0
M  V30 1611 H 160.493 3.91292 0.0248896 0
M  V30 1612 H 160.116 3.58987 1.70921 0
M  V30 1613 N 161.113 -0.173488 1.56642 0
M  V30 1614 C 162.076 -1.19859 1.95362 0
M  V30 1615 C 163.076 -1.37296 0.83704 0
M  V30 1616 O 164.266 -1.34739 1.10413 0
M  V30 1617 C 161.398 -2.56405 2.24654 0
M  V30 1618 H 162.591 -0.867062 2.87092 0
M  V30 1619 H 160.144 -0.415853 1.50666 0
M  V30 1620 H 160.879 -2.94576 1.35631 0
M  V30 1621 H 160.664 -2.45115 3.06041 0
M  V30 1622 H 162.154 -3.30287 2.5554 0
M  V30 1623 N 162.591 -1.51276 -0.441967 0
M  V30 1624 C 163.539 -1.72823 -1.55676 0
M  V30 1625 C 164.533 -0.59445 -1.58627 0
M  V30 1626 O 165.739 -0.775715 -1.62427 0
M  V30 1627 H 162.114 -0.545983 -0.517113 0
M  V30 1628 H 164.085 -2.6628 -1.34675 0
M  V30 1629 C 162.834 -1.86619 -2.93375 0
M  V30 1630 H 162.157 -2.73264 -2.91834 0
M  V30 1631 H 163.597 -2.05709 -3.70756 0
M  V30 1632 C 162.056 -0.624842 -3.31055 0
M  V30 1633 O 162.586 0.222636 -4.01083 0
M  V30 1634 N 160.792 -0.470288 -2.86769 0
M  V30 1635 H 160.339 -1.161 -2.29953 0
M  V30 1636 H 160.297 0.359051 -3.12343 0
M  V30 1637 N 164.069 0.697108 -1.41344 0
M  V30 1638 C 165.297 1.48593 -1.43972 0
M  V30 1639 C 165.712 1.88747 -0.0445612 0
M  V30 1640 O 165.069 1.56682 0.935785 0
M  V30 1641 C 165.12 2.74946 -2.34706 0
M  V30 1642 O 164.841 2.36484 -3.68791 0
M  V30 1643 C 166.342 3.687 -2.46121 0
M  V30 1644 H 163.562 0.457964 -0.490418 0
M  V30 1645 H 166.106 0.858429 -1.8561 0
M  V30 1646 H 164.261 3.33937 -1.9638 0
M  V30 1647 H 164.675 3.17918 -4.17167 0
M  V30 1648 H 166.149 4.54145 -3.13777 0
M  V30 1649 H 166.626 4.13081 -1.49199 0
M  V30 1650 H 167.232 3.15613 -2.85076 0
M  V30 1651 N 165.547 1.27147 0.931209 0
M  V30 1652 C 166.477 1.12081 2.04842 0
M  V30 1653 C 167.458 0.0232364 1.70084 0
M  V30 1654 O 168.643 0.197085 1.93197 0
M  V30 1655 C 165.773 0.76354 3.38803 0
M  V30 1656 C 164.727 1.81396 3.87659 0
M  V30 1657 C 164.053 1.31075 5.18385 0
M  V30 1658 C 165.353 3.21739 4.11438 0
M  V30 1659 H 167.047 2.05537 2.17703 0
M  V30 1660 H 164.593 0.989603 1.04608 0
M  V30 1661 H 166.546 0.644982 4.16435 0
M  V30 1662 H 165.27 -0.206727 3.25945 0
M  V30 1663 H 163.929 1.92136 3.12217 0
M  V30 1664 H 163.577 0.330037 5.01916 0
M  V30 1665 H 163.277 2.013 5.52044 0
M  V30 1666 H 164.801 1.20506 5.98591 0
M  V30 1667 H 166.215 3.14019 4.79651 0
M  V30 1668 H 164.612 3.89644 4.56397 0
M  V30 1669 H 165.682 3.67054 3.16859 0
M  V30 1670 N 167.025 -1.13721 1.09112 0
M  V30 1671 C 168.265 -1.86576 0.834801 0
M  V30 1672 C 168.629 -1.81435 -0.628122 0
M  V30 1673 O 169.83 -2.49497 -1.00024 0
M  V30 1674 C 168.101 -3.30872 1.35124 0
M  V30 1675 S 169.66 -4.21257 1.22832 0
M  V30 1676 H 166.478 -0.643666 0.302017 0
M  V30 1677 H 169.08 -1.37085 1.39385 0
M  V30 1678 H 167.784 -3.32166 2.41027 0
M  V30 1679 H 167.315 -3.85423 0.788185 0
M  V30 1680 H 169.33 -4.95884 0.177191 0
M  V30 1681 N 168.503 -0.877838 -1.30888 0
M  V30 1682 C 169.733 -0.506678 -2.00291 0
M  V30 1683 C 170.141 0.907449 -1.66018 0
M  V30 1684 O 169.484 1.60719 -0.88967 0
M  V30 1685 C 169.546 -0.59323 -3.54572 0
M  V30 1686 C 169.21 -1.97038 -4.12341 0
M  V30 1687 C 170.207 -2.93889 -4.28865 0
M  V30 1688 C 167.892 -2.27383 -4.47886 0
M  V30 1689 C 169.886 -4.19224 -4.80136 0
M  V30 1690 C 167.573 -3.52965 -4.98857 0
M  V30 1691 C 168.571 -4.48701 -5.14934 0
M  V30 1692 O 168.259 -5.72056 -5.64808 0
M  V30 1693 H 167.991 -0.1951 -0.647234 0
M  V30 1694 H 170.545 -1.18301 -1.6791 0
M  V30 1695 H 168.775 0.140057 -3.86446 0
M  V30 1696 H 170.464 -0.234372 -4.05223 0
M  V30 1697 H 171.23 -2.71756 -4.01714 0
M  V30 1698 H 167.109 -1.53639 -4.34645 0
M  V30 1699 H 170.653 -4.93956 -4.92599 0
M  V30 1700 H 166.55 -3.74939 -5.25443 0
M  V30 1701 H 167.318 -5.74337 -5.83163 0
M  V30 1702 N 169.982 1.44106 -0.638065 0
M  V30 1703 C 170.93 2.3248 0.0748149 0
M  V30 1704 C 171.924 1.47746 0.828702 0
M  V30 1705 O 173.13 1.64049 0.740816 0
M  V30 1706 H 169.505 0.750771 0.0429686 0
M  V30 1707 H 171.476 2.90348 -0.688504 0
M  V30 1708 C 170.225 3.31843 1.03805 0
M  V30 1709 H 169.548 3.97059 0.467375 0
M  V30 1710 H 170.988 3.96345 1.50622 0
M  V30 1711 C 169.447 2.61291 2.1267 0
M  V30 1712 O 169.977 2.41702 3.20847 0
M  V30 1713 N 168.183 2.20915 1.88798 0
M  V30 1714 H 167.73 2.37047 1.00829 0
M  V30 1715 H 167.688 1.74038 2.61836 0
M  V30 1716 N 171.46 0.379036 1.52974 0
M  V30 1717 C 172.737 -0.263479 1.93817 0
M  V30 1718 C 173.117 -1.65244 1.31368 0
M  V30 1719 O 172.465 -2.23448 0.477856 0
M  V30 1720 C 172.675 -0.300166 3.47707 0
M  V30 1721 C 174.023 -0.534061 4.21228 0
M  V30 1722 O 175.047 -0.38081 3.54159 0
M  V30 1723 O 173.906 -0.833501 5.40106 0
M  V30 1724 H 171 -0.161149 0.811147 0
M  V30 1725 H 173.546 0.432798 1.64088 0
M  V30 1726 H 172.318 0.673138 3.85467 0
M  V30 1727 H 171.941 -1.04179 3.83709 0
M  V30 1728 N 172.938 -1.57226 0.108567 0
M  V30 1729 C 174.354 -1.5766 -0.248058 0
M  V30 1730 C 174.554 -1.12063 -1.67464 0
M  V30 1731 O 173.61 -0.803236 -2.39383 0
M  V30 1732 C 174.923 -3.0069 -0.0242287 0
M  V30 1733 C 176.471 -3.12868 -0.0909372 0
M  V30 1734 C 176.946 -4.57879 0.105067 0
M  V30 1735 N 178.437 -4.63172 0.0506846 0
M  V30 1736 C 179.172 -5.73126 0.177396 0
M  V30 1737 N 178.668 -6.91866 0.359696 0
M  V30 1738 N 180.461 -5.61977 0.117709 0
M  V30 1739 H 172.612 -1.85169 1.04049 0
M  V30 1740 H 174.875 -0.85529 0.40888 0
M  V30 1741 H 174.581 -3.38299 0.961604 0
M  V30 1742 H 174.455 -3.6945 -0.76068 0
M  V30 1743 H 176.842 -2.75124 -1.06729 0
M  V30 1744 H 176.923 -2.46672 0.677225 0
M  V30 1745 H 176.567 -4.96321 1.07834 0
M  V30 1746 H 176.497 -5.22153 -0.682954 0
M  V30 1747 H 178.988 -3.778 -0.0871266 0
M  V30 1748 H 179.301 -7.71503 0.447529 0
M  V30 1749 H 177.646 -6.93874 0.395536 0
M  V30 1750 H 180.837 -4.68094 -0.0236741 0
M  V30 1751 H 181.01 -6.47627 0.219905 0
M  V30 1752 N 174.416 0.165178 -1.56732 0
M  V30 1753 C 175.363 1.2044 -1.96883 0
M  V30 1754 C 176.333 1.43664 -0.833657 0
M  V30 1755 O 177.518 1.56302 -1.09427 0
M  V30 1756 C 174.658 2.53727 -2.33916 0
M  V30 1757 C 173.771 2.3783 -3.6064 0
M  V30 1758 C 172.906 3.64026 -3.86857 0
M  V30 1759 C 171.945 3.43088 -5.06909 0
M  V30 1760 N 171.082 4.61369 -5.29229 0
M  V30 1761 H 175.922 0.854996 -2.85471 0
M  V30 1762 H 173.459 0.41076 -1.41249 0
M  V30 1763 H 175.417 3.31419 -2.53411 0
M  V30 1764 H 174.047 2.8665 -1.48431 0
M  V30 1765 H 173.099 1.51282 -3.49024 0
M  V30 1766 H 174.411 2.18308 -4.4849 0
M  V30 1767 H 173.565 4.50152 -4.06753 0
M  V30 1768 H 172.304 3.86533 -2.97394 0
M  V30 1769 H 171.309 2.55349 -4.86906 0
M  V30 1770 H 172.534 3.21997 -5.97909 0
M  V30 1771 H 170.48 4.84084 -4.42718 0
M  V30 1772 H 170.397 4.44783 -6.11313 0
M  V30 1773 H 171.665 5.48761 -5.53608 0
M  V30 1774 N 175.894 1.51508 0.433938 0
M  V30 1775 C 176.804 1.75917 1.5521 0
M  V30 1776 C 177.82 0.643545 1.61662 0
M  V30 1777 O 178.996 0.926183 1.7884 0
M  V30 1778 C 176.061 1.88213 2.91164 0
M  V30 1779 C 175.122 3.12074 2.94802 0
M  V30 1780 C 174.355 3.23774 4.24271 0
M  V30 1781 O 174.578 2.4133 5.16833 0
M  V30 1782 O 173.512 4.16774 4.34262 0
M  V30 1783 H 177.338 2.70777 1.37527 0
M  V30 1784 H 174.923 1.36051 0.617293 0
M  V30 1785 H 176.805 1.98267 3.71845 0
M  V30 1786 H 175.48 0.965413 3.08968 0
M  V30 1787 H 174.387 3.07497 2.13065 0
M  V30 1788 H 175.72 4.03446 2.81943 0
M  V30 1789 N 177.372 -0.689602 1.41712 0
M  V30 1790 C 178.282 -1.83314 1.46401 0
M  V30 1791 C 179.298 -1.7036 0.35405 0
M  V30 1792 O 180.474 -1.92171 0.602692 0
M  V30 1793 C 177.539 -3.19344 1.34982 0
M  V30 1794 C 176.6 -3.44363 2.56344 0
M  V30 1795 C 175.833 -4.73904 2.45461 0
M  V30 1796 O 176.056 -5.508 1.48241 0
M  V30 1797 O 174.99 -4.99839 3.35328 0
M  V30 1798 H 178.816 -1.82314 2.42889 0
M  V30 1799 H 176.401 -0.843438 1.23315 0
M  V30 1800 H 178.283 -4.00547 1.3092 0
M  V30 1801 H 176.958 -3.21014 0.41612 0
M  V30 1802 H 175.865 -2.63067 2.65982 0
M  V30 1803 H 177.198 -3.47512 3.48563 0
M  V30 1804 N 178.85 -1.27639 -0.924453 0
M  V30 1805 C 180.096 -1.14336 -1.67497 0
M  V30 1806 C 180.429 0.309465 -1.91718 0
M  V30 1807 O 179.704 1.22608 -1.50989 0
M  V30 1808 C 179.987 -1.93096 -3.0395 0
M  V30 1809 C 179.84 -3.46381 -2.8695 0
M  V30 1810 C 181.159 -1.73798 -4.0433 0
M  V30 1811 H 178.278 -0.416728 -0.607871 0
M  V30 1812 H 180.92 -1.56832 -1.07256 0
M  V30 1813 H 179.07 -1.56982 -3.55372 0
M  V30 1814 H 180.742 -3.92343 -2.42621 0
M  V30 1815 H 178.985 -3.72557 -2.22225 0
M  V30 1816 H 179.656 -3.96735 -3.83804 0
M  V30 1817 H 182.132 -2.05293 -3.61931 0
M  V30 1818 H 181.008 -2.31294 -4.97789 0
M  V30 1819 H 181.269 -0.686725 -4.36734 0
M  V30 1820 N 180.328 1.1314 -1.09713 0
M  V30 1821 C 181.576 1.84119 -0.833338 0
M  V30 1822 C 181.897 1.84097 0.642904 0
M  V30 1823 O 181.167 1.29881 1.46655 0
M  V30 1824 H 179.747 0.681766 -0.305293 0
M  V30 1825 H 182.409 1.37038 -1.38588 0
M  V30 1826 H 181.505 2.88543 -1.18951 0
M  V30 1827 N 181.806 0.884767 1.30421 0
M  V30 1828 C 182.754 0.340869 2.30089 0
M  V30 1829 C 183.748 -0.55201 1.60154 0
M  V30 1830 O 184.954 -0.436467 1.74628 0
M  V30 1831 H 181.329 0.0915739 0.746404 0
M  V30 1832 H 183.3 1.19513 2.73421 0
M  V30 1833 C 182.049 -0.429779 3.45034 0
M  V30 1834 H 181.372 0.248024 3.9903 0
M  V30 1835 H 182.812 -0.775445 4.16849 0
M  V30 1836 C 181.271 -1.62677 2.95022 0
M  V30 1837 O 181.801 -2.72614 2.95033 0
M  V30 1838 N 180.007 -1.46387 2.51036 0
M  V30 1839 H 179.554 -0.569506 2.51226 0
M  V30 1840 H 179.512 -2.26612 2.17932 0
M  V30 1841 N 183.284 -1.43765 0.645699 0
M  V30 1842 C 184.53 -2.02731 0.164844 0
M  V30 1843 C 184.885 -1.49983 -1.2051 0
M  V30 1844 O 184.178 -0.680208 -1.79119 0
M  V30 1845 C 184.372 -3.57238 0.107679 0
M  V30 1846 C 184.201 -4.24977 1.47054 0
M  V30 1847 C 182.971 -4.61356 2.06103 0
M  V30 1848 C 185.169 -4.54476 2.40741 0
M  V30 1849 N 183.151 -5.14132 3.35473 0
M  V30 1850 C 184.522 -5.08489 3.54737 0
M  V30 1851 C 186.577 -4.36438 2.39637 0
M  V30 1852 C 185.28 -5.46364 4.67845 0
M  V30 1853 C 187.306 -4.7537 3.5182 0
M  V30 1854 C 186.668 -5.2951 4.64541 0
M  V30 1855 H 182.767 -0.774976 0.104578 0
M  V30 1856 H 185.351 -1.75051 0.852367 0
M  V30 1857 H 183.522 -3.84498 -0.549165 0
M  V30 1858 H 185.254 -4.0288 -0.383351 0
M  V30 1859 H 182.009 -4.46151 1.58892 0
M  V30 1860 H 182.433 -5.4498 4.01654 0
M  V30 1861 H 187.075 -3.93861 1.53731 0
M  V30 1862 H 184.793 -5.87888 5.54448 0
M  V30 1863 H 188.379 -4.63115 3.52159 0
M  V30 1864 H 187.259 -5.59077 5.49911 0
M  V30 1865 N 184.763 -0.387143 -1.52771 0
M  V30 1866 C 186.009 0.188506 -2.02525 0
M  V30 1867 C 186.364 1.44649 -1.26864 0
M  V30 1868 O 185.657 1.88189 -0.359945 0
M  V30 1869 C 185.851 0.512209 -3.53711 0
M  V30 1870 C 185.68 -0.712855 -4.44014 0
M  V30 1871 C 184.45 -1.23147 -4.90064 0
M  V30 1872 C 186.648 -1.58453 -4.89282 0
M  V30 1873 N 184.63 -2.41431 -5.64433 0
M  V30 1874 C 186.001 -2.61381 -5.6221 0
M  V30 1875 C 188.056 -1.60488 -4.71326 0
M  V30 1876 C 186.759 -3.66227 -6.19088 0
M  V30 1877 C 188.785 -2.6424 -5.29085 0
M  V30 1878 C 188.147 -3.6589 -6.01917 0
M  V30 1879 H 184.246 0.0311236 -0.78138 0
M  V30 1880 H 186.83 -0.536548 -1.87161 0
M  V30 1881 H 185.001 1.20632 -3.69192 0
M  V30 1882 H 186.733 1.07482 -3.90166 0
M  V30 1883 H 183.488 -0.792795 -4.66917 0
M  V30 1884 H 183.912 -3.01274 -6.0627 0
M  V30 1885 H 188.554 -0.83247 -4.14524 0
M  V30 1886 H 186.272 -4.44337 -6.74974 0
M  V30 1887 H 189.858 -2.66695 -5.17074 0
M  V30 1888 H 188.738 -4.44855 -6.45813 0
M  V30 1889 N 186.241 1.57166 -0.116904 0
M  V30 1890 C 187.466 1.999 0.55271 0
M  V30 1891 C 187.891 0.996039 1.59564 0
M  V30 1892 O 187.249 -0.032556 1.81271 0
M  V30 1893 C 187.297 3.4152 1.15742 0
M  V30 1894 O 186.401 3.44106 2.27299 0
M  V30 1895 H 185.742 0.649447 0.138258 0
M  V30 1896 H 188.272 2.03573 -0.204759 0
M  V30 1897 H 188.282 3.79684 1.49346 0
M  V30 1898 H 186.957 4.14034 0.393493 0
M  V30 1899 H 185.534 3.17759 1.9515 0
M  V30 1900 N 187.719 -0.156864 1.56817 0
M  V30 1901 C 188.965 -0.867645 1.83966 0
M  V30 1902 C 189.32 -1.79233 0.699511 0
M  V30 1903 O 188.613 -1.89186 -0.303176 0
M  V30 1904 C 188.807 -1.68737 3.1506 0
M  V30 1905 C 188.636 -0.843548 4.41718 0
M  V30 1906 C 187.406 -0.512994 5.02689 0
M  V30 1907 C 189.604 -0.178416 5.1399 0
M  V30 1908 N 187.586 0.345456 6.12927 0
M  V30 1909 C 188.957 0.540586 6.17639 0
M  V30 1910 C 191.012 -0.0980696 4.97803 0
M  V30 1911 C 189.715 1.33233 7.06853 0
M  V30 1912 C 191.741 0.680387 5.87473 0
M  V30 1913 C 191.103 1.3877 6.90596 0
M  V30 1914 H 187.202 -0.295642 0.723961 0
M  V30 1915 H 189.786 -0.13365 1.94241 0
M  V30 1916 H 187.957 -2.39268 3.0595 0
M  V30 1917 H 189.689 -2.34056 3.30151 0
M  V30 1918 H 186.444 -0.846476 4.65974 0
M  V30 1919 H 186.868 0.765415 6.72659 0
M  V30 1920 H 191.51 -0.630562 4.18071 0
M  V30 1921 H 189.228 1.87612 7.8602 0
M  V30 1922 H 192.814 0.744415 5.77018 0
M  V30 1923 H 191.694 1.9804 7.58782 0
M  V30 1924 N 189.197 -1.51736 -0.425897 0
M  V30 1925 C 190.107 -1.76738 -1.54275 0
M  V30 1926 C 191.123 -0.65211 -1.61318 0
M  V30 1927 O 192.299 -0.935654 -1.78346 0
M  V30 1928 C 189.364 -1.89755 -2.90162 0
M  V30 1929 C 188.425 -3.13633 -2.93143 0
M  V30 1930 C 187.658 -3.2602 -4.22548 0
M  V30 1931 O 187.881 -2.44067 -5.15546 0
M  V30 1932 O 186.815 -4.19071 -4.32046 0
M  V30 1933 H 190.641 -2.71502 -1.36089 0
M  V30 1934 H 188.226 -1.36376 -0.610069 0
M  V30 1935 H 190.108 -2.00236 -3.70788 0
M  V30 1936 H 188.783 -0.981785 -3.08452 0
M  V30 1937 H 187.69 -3.08622 -2.11431 0
M  V30 1938 H 189.023 -4.04936 -2.798 0
M  V30 1939 N 190.675 0.682077 -1.42076 0
M  V30 1940 C 191.924 1.43786 -1.41451 0
M  V30 1941 C 192.237 1.95574 -0.0317074 0
M  V30 1942 O 193.443 2.71326 0.0971462 0
M  V30 1943 C 191.899 2.60071 -2.48779 0
M  V30 1944 C 191.507 2.15013 -3.93031 0
M  V30 1945 C 193.251 3.37626 -2.57311 0
M  V30 1946 C 191.158 3.28336 -4.91883 0
M  V30 1947 H 190.088 0.540143 -0.526082 0
M  V30 1948 H 192.739 0.739157 -1.67955 0
M  V30 1949 H 191.121 3.32275 -2.15429 0
M  V30 1950 H 192.295 1.5001 -4.35699 0
M  V30 1951 H 190.61 1.50416 -3.88284 0
M  V30 1952 H 193.207 4.22012 -3.28345 0
M  V30 1953 H 193.55 3.83727 -1.61429 0
M  V30 1954 H 194.083 2.72488 -2.89819 0
M  V30 1955 H 190.822 2.87234 -5.89217 0
M  V30 1956 H 190.342 3.92145 -4.53853 0
M  V30 1957 H 192.021 3.93913 -5.13265 0
M  V30 1958 N 192.153 1.28127 0.917671 0
M  V30 1959 C 193.401 1.14825 1.66312 0
M  V30 1960 C 193.722 -0.304379 1.9261 0
M  V30 1961 O 192.992 -1.21149 1.53947 0
M  V30 1962 H 191.572 0.421953 0.616413 0
M  V30 1963 H 194.234 1.608 1.10134 0
M  V30 1964 H 193.33 1.68489 2.62712 0
M  V30 1965 N 193.631 -1.12557 1.10312 0
M  V30 1966 C 194.877 -1.84311 0.846011 0
M  V30 1967 C 195.21 -1.83805 -0.626859 0
M  V30 1968 O 194.485 -1.28268 -1.46211 0
M  V30 1969 C 194.768 -3.32048 1.39341 0
M  V30 1970 C 194.621 -3.41016 2.93305 0
M  V30 1971 C 195.94 -4.27764 1.03468 0
M  V30 1972 H 193.059 -0.669192 0.30879 0
M  V30 1973 H 195.701 -1.32057 1.36605 0
M  V30 1974 H 193.851 -3.76678 0.951087 0
M  V30 1975 H 195.523 -3.05031 3.46055 0
M  V30 1976 H 193.766 -2.81603 3.29973 0
M  V30 1977 H 194.437 -4.44948 3.26689 0
M  V30 1978 H 196.913 -3.91253 1.41633 0
M  V30 1979 H 195.789 -5.29549 1.44463 0
M  V30 1980 H 196.05 -4.42064 -0.0560404 0
M  V30 1981 N 195.109 -0.891671 -1.2995 0
M  V30 1982 C 196.52 -0.563104 -1.78006 0
M  V30 1983 C 196.871 0.920978 -1.73241 0
M  V30 1984 O 195.996 1.71987 -1.31337 0
M  V30 1985 C 196.591 -1.01539 -3.23226 0
M  V30 1986 C 195.15 -0.738124 -3.69092 0
M  V30 1987 C 194.297 -1.19461 -2.50249 0
M  V30 1988 H 197.248 -1.07522 -1.16725 0
M  V30 1989 H 197.269 -0.347217 -3.78912 0
M  V30 1990 H 196.781 -2.09555 -3.26662 0
M  V30 1991 H 194.882 0.329766 -3.71138 0
M  V30 1992 H 194.995 -1.33037 -4.60259 0
M  V30 1993 H 193.359 -0.613787 -2.47194 0
M  V30 1994 H 194.142 -2.28265 -2.56417 0
M  V30 1995 N 196.587 1.43421 -0.653314 0
M  V30 1996 C 198.003 1.56341 -0.320886 0
M  V30 1997 C 198.203 1.63696 1.17499 0
M  V30 1998 O 197.259 1.59208 1.95982 0
M  V30 1999 C 198.572 2.82424 -1.03233 0
M  V30 2000 C 200.12 2.96168 -1.01259 0
M  V30 2001 C 200.595 4.25084 -1.70492 0
M  V30 2002 N 202.086 4.31948 -1.67257 0
M  V30 2003 C 202.821 5.30466 -2.17701 0
M  V30 2004 N 202.317 6.35261 -2.76434 0
M  V30 2005 N 204.11 5.2212 -2.082 0
M  V30 2006 H 196.261 1.3689 -1.62403 0
M  V30 2007 H 198.524 0.657455 -0.682977 0
M  V30 2008 H 198.23 2.83053 -2.08744 0
M  V30 2009 H 198.104 3.72653 -0.583948 0
M  V30 2010 H 200.491 2.9508 0.0341235 0
M  V30 2011 H 200.572 2.07229 -1.49966 0
M  V30 2012 H 200.216 4.26932 -2.7512 0
M  V30 2013 H 200.146 5.1292 -1.19251 0
M  V30 2014 H 202.637 3.56838 -1.24398 0
M  V30 2015 H 202.95 7.06754 -3.12601 0
M  V30 2016 H 201.295 6.35884 -2.80495 0
M  V30 2017 H 204.486 4.39166 -1.62021 0
M  V30 2018 H 204.659 5.98739 -2.47822 0
M  V30 2019 N 198.065 0.39524 1.52563 0
M  V30 2020 C 199.028 -0.425001 2.25225 0
M  V30 2021 C 200.028 -0.985266 1.27079 0
M  V30 2022 O 201.218 -0.866332 1.5113 0
M  V30 2023 C 198.35 -1.59686 3.01186 0
M  V30 2024 H 199.543 0.211233 2.99155 0
M  V30 2025 H 197.096 0.147472 1.55603 0
M  V30 2026 H 197.831 -2.27035 2.31572 0
M  V30 2027 H 197.616 -1.20176 3.73229 0
M  V30 2028 H 199.106 -2.17743 3.5634 0
M  V30 2029 N 199.544 -1.57102 0.125237 0
M  V30 2030 C 200.474 -2.18659 -0.819174 0
M  V30 2031 C 201.455 -1.12843 -1.27281 0
M  V30 2032 O 202.64 -1.41104 -1.33429 0
M  V30 2033 C 199.77 -2.79096 -2.06695 0
M  V30 2034 C 198.724 -3.90548 -1.75088 0
M  V30 2035 C 198.05 -4.37821 -3.06948 0
M  V30 2036 C 199.35 -5.12356 -1.01435 0
M  V30 2037 H 201.044 -2.9783 -0.306202 0
M  V30 2038 H 198.59 -1.4326 -0.145839 0
M  V30 2039 H 200.543 -3.2082 -2.73226 0
M  V30 2040 H 199.267 -1.97223 -2.60328 0
M  V30 2041 H 197.926 -3.49409 -1.10944 0
M  V30 2042 H 197.574 -3.52799 -3.58527 0
M  V30 2043 H 197.274 -5.12982 -2.86571 0
M  V30 2044 H 198.798 -4.822 -3.74587 0
M  V30 2045 H 200.212 -5.5106 -1.58132 0
M  V30 2046 H 198.609 -5.9314 -0.911319 0
M  V30 2047 H 199.679 -4.849 -0.00218681 0
M  V30 2048 N 201.022 0.148545 -1.56898 0
M  V30 2049 C 201.985 1.16736 -1.97244 0
M  V30 2050 C 202.985 1.35947 -0.858777 0
M  V30 2051 O 204.175 1.32966 -1.12542 0
M  V30 2052 C 201.307 2.52798 -2.28705 0
M  V30 2053 H 202.5 0.821279 -2.88435 0
M  V30 2054 H 200.053 0.391831 -1.51309 0
M  V30 2055 H 200.788 2.92381 -1.403 0
M  V30 2056 H 200.573 2.40216 -3.09901 0
M  V30 2057 H 202.063 3.26179 -2.60762 0
M  V30 2058 N 202.5 1.5196 0.417844 0
M  V30 2059 C 203.777 1.56146 1.17803 0
M  V30 2060 C 204.157 0.337275 2.08388 0
M  V30 2061 O 203.505 -0.676447 2.18258 0
M  V30 2062 C 203.715 2.88566 1.96293 0
M  V30 2063 C 205.063 3.41244 2.52662 0
M  V30 2064 O 206.087 2.90247 2.06483 0
M  V30 2065 O 204.946 4.30273 3.36938 0
M  V30 2066 H 202.04 0.628598 0.537395 0
M  V30 2067 H 204.586 1.64283 0.425331 0
M  V30 2068 H 203.358 3.69116 1.2988 0
M  V30 2069 H 202.981 2.83681 2.78587 0
M  V30 2070 N 203.978 -0.674533 1.42435 0
M  V30 2071 C 204.941 -1.76986 1.45632 0
M  V30 2072 C 205.941 -1.5708 0.343871 0
M  V30 2073 O 207.131 -1.63367 0.604709 0
M  V30 2074 C 204.263 -3.15623 1.28822 0
M  V30 2075 H 205.456 -1.75539 2.43158 0
M  V30 2076 H 203.009 -0.884189 1.28887 0
M  V30 2077 H 203.744 -3.22696 0.322193 0
M  V30 2078 H 203.529 -3.31475 2.09444 0
M  V30 2079 H 205.019 -3.95537 1.33942 0
M  V30 2080 N 205.456 -1.28612 -0.910864 0
M  V30 2081 C 206.389 -1.07109 -2.01502 0
M  V30 2082 C 207.367 0.013706 -1.62594 0
M  V30 2083 O 208.551 -0.134796 -1.88017 0
M  V30 2084 C 205.678 -0.628255 -3.32822 0
M  V30 2085 C 204.724 -1.71012 -3.90714 0
M  V30 2086 S 205.557 -3.30676 -4.21205 0
M  V30 2087 C 206.713 -2.88234 -5.55583 0
M  V30 2088 H 206.946 -2.00591 -2.19432 0
M  V30 2089 H 204.479 -1.12633 -1.05609 0
M  V30 2090 H 206.437 -0.37946 -4.08742 0
M  V30 2091 H 205.098 0.28678 -3.12788 0
M  V30 2092 H 204.291 -1.35195 -4.85529 0
M  V30 2093 H 203.893 -1.91186 -3.21441 0
M  V30 2094 H 206.185 -2.34584 -6.35591 0
M  V30 2095 H 207.128 -3.81857 -5.96314 0
M  V30 2096 H 207.536 -2.26862 -5.16908 0
M  V30 2097 N 206.934 1.1197 -1.10907 0
M  V30 2098 C 208.18 1.8386 -0.855773 0
M  V30 2099 C 208.513 1.84134 0.617103 0
M  V30 2100 O 207.788 1.29041 1.45529 0
M  V30 2101 C 208.071 3.31305 -1.411 0
M  V30 2102 C 207.924 3.39456 -2.9511 0
M  V30 2103 C 209.243 4.2721 -1.05736 0
M  V30 2104 H 206.362 0.667545 -0.312334 0
M  V30 2105 H 209.004 1.31331 -1.37303 0
M  V30 2106 H 207.154 3.76169 -0.97105 0
M  V30 2107 H 208.826 3.03191 -3.47668 0
M  V30 2108 H 207.069 2.79849 -3.31462 0
M  V30 2109 H 207.74 4.43209 -3.29044 0
M  V30 2110 H 210.216 3.90497 -1.43706 0
M  V30 2111 H 209.092 5.28775 -1.47269 0
M  V30 2112 H 209.353 4.42088 0.0325958 0
M  V30 2113 N 208.412 0.89855 1.29475 0
M  V30 2114 C 209.342 0.39201 2.30186 0
M  V30 2115 C 210.323 -0.532359 1.61555 0
M  V30 2116 O 211.508 -0.443331 1.89072 0
M  V30 2117 C 208.638 -0.382353 3.45189 0
M  V30 2118 C 207.592 0.451483 4.25612 0
M  V30 2119 C 206.918 -0.450307 5.328 0
M  V30 2120 C 208.218 1.70079 4.93832 0
M  V30 2121 H 209.912 1.23362 2.72804 0
M  V30 2122 H 207.458 0.594638 1.31149 0
M  V30 2123 H 209.411 -0.747451 4.14718 0
M  V30 2124 H 208.135 -1.25774 3.01411 0
M  V30 2125 H 206.794 0.798897 3.57789 0
M  V30 2126 H 206.442 -1.32379 4.85268 0
M  V30 2127 H 206.142 0.103902 5.87508 0
M  V30 2128 H 207.666 -0.811623 6.05182 0
M  V30 2129 H 209.08 1.40549 5.55805 0
M  V30 2130 H 207.477 2.19623 5.58467 0
M  V30 2131 H 208.547 2.43744 4.19186 0
M  V30 2132 N 209.89 -1.43072 0.660911 0
M  V30 2133 C 210.82 -2.33497 -0.0122829 0
M  V30 2134 C 211.801 -1.49903 -0.803925 0
M  V30 2135 O 212.986 -1.78546 -0.763864 0
M  V30 2136 C 210.116 -3.33363 -0.973994 0
M  V30 2137 C 209.07 -4.27003 -0.291928 0
M  V30 2138 C 208.396 -5.16967 -1.36562 0
M  V30 2139 C 209.696 -5.15816 0.820462 0
M  V30 2140 H 211.39 -2.90038 0.742873 0
M  V30 2141 H 208.936 -1.39461 0.358688 0
M  V30 2142 H 210.889 -3.95524 -1.45392 0
M  V30 2143 H 209.613 -2.75095 -1.7604 0
M  V30 2144 H 208.272 -3.66217 0.167623 0
M  V30 2145 H 207.92 -4.55034 -2.14366 0
M  V30 2146 H 207.62 -5.80441 -0.914454 0
M  V30 2147 H 209.144 -5.82003 -1.84675 0
M  V30 2148 H 210.558 -5.71742 0.422366 0
M  V30 2149 H 208.955 -5.8805 1.19656 0
M  V30 2150 H 210.025 -4.55045 1.67518 0
M  V30 2151 N 211.368 -0.403325 -1.52352 0
M  V30 2152 C 212.318 0.442244 -2.2367 0
M  V30 2153 C 213.302 1.01823 -1.24583 0
M  V30 2154 O 214.494 0.942005 -1.49851 0
M  V30 2155 C 211.623 1.5615 -3.05732 0
M  V30 2156 C 210.709 0.996575 -4.12225 0
M  V30 2157 N 211.1 0.157804 -5.05554 0
M  V30 2158 C 209.398 1.26767 -4.27605 0
M  V30 2159 C 210.099 -0.155853 -5.81491 0
M  V30 2160 N 209.075 0.451775 -5.41719 0
M  V30 2161 H 212.877 -0.204964 -2.93184 0
M  V30 2162 H 210.391 -0.213418 -1.60992 0
M  V30 2163 H 212.388 2.17981 -3.55373 0
M  V30 2164 H 211.048 2.21139 -2.37755 0
M  V30 2165 H 212.059 -0.206049 -5.1749 0
M  V30 2166 H 208.736 1.91757 -3.70858 0
M  V30 2167 H 210.126 -0.836329 -6.66675 0
M  V30 2168 N 212.846 1.57033 -0.133567 0
M  V30 2169 C 213.809 2.14897 0.796995 0
M  V30 2170 C 214.809 1.0874 1.18458 0
M  V30 2171 O 215.999 1.34446 1.1077 0
M  V30 2172 C 213.131 2.70112 2.07973 0
M  V30 2173 H 214.324 2.98457 0.293873 0
M  V30 2174 H 211.877 1.55871 0.115787 0
M  V30 2175 H 212.612 1.9018 2.62682 0
M  V30 2176 H 212.397 3.47764 1.81115 0
M  V30 2177 H 213.887 3.14738 2.74462 0
M  V30 2178 N 214.325 -0.140222 1.56975 0
M  V30 2179 C 215.235 -1.19223 2.02047 0
M  V30 2180 C 216.251 -1.46612 0.937062 0
M  V30 2181 O 217.427 -1.58148 1.24704 0
M  V30 2182 C 214.492 -2.50414 2.39778 0
M  V30 2183 C 213.553 -2.30612 3.621 0
M  V30 2184 C 212.786 -3.55547 3.98023 0
M  V30 2185 O 213.009 -4.62004 3.34528 0
M  V30 2186 O 211.943 -3.47808 4.91237 0
M  V30 2187 H 215.769 -0.839559 2.91865 0
M  V30 2188 H 213.354 -0.349453 1.45256 0
M  V30 2189 H 215.236 -3.27747 2.64877 0
M  V30 2190 H 213.911 -2.85198 1.53114 0
M  V30 2191 H 212.818 -1.51207 3.4218 0
M  V30 2192 H 214.151 -2.00741 4.49404 0
M  V30 2193 N 215.803 -1.52179 -0.40978 0
M  V30 2194 C 216.733 -1.78435 -1.5061 0
M  V30 2195 C 217.714 -0.635295 -1.57791 0
M  V30 2196 O 218.899 -0.880823 -1.73076 0
M  V30 2197 C 216.029 -1.93444 -2.88439 0
M  V30 2198 C 214.983 -3.09038 -2.96108 0
M  V30 2199 C 214.309 -3.09268 -4.36185 0
M  V30 2200 C 215.609 -4.48508 -2.67652 0
M  V30 2201 H 217.303 -2.70237 -1.28889 0
M  V30 2202 H 214.849 -1.30036 -0.618605 0
M  V30 2203 H 216.802 -2.10394 -3.65119 0
M  V30 2204 H 215.526 -0.983129 -3.11452 0
M  V30 2205 H 214.185 -2.91837 -2.21872 0
M  V30 2206 H 213.833 -2.11861 -4.56206 0
M  V30 2207 H 213.533 -3.86907 -4.42241 0
M  V30 2208 H 215.057 -3.28348 -5.14801 0
M  V30 2209 H 216.471 -4.65918 -3.34056 0
M  V30 2210 H 214.868 -5.28059 -2.85085 0
M  V30 2211 H 215.938 -4.56649 -1.63095 0
M  V30 2212 N 217.281 0.66697 -1.42791 0
M  V30 2213 C 218.506 1.46004 -1.47301 0
M  V30 2214 C 218.931 1.87894 -0.0880317 0
M  V30 2215 O 218.289 1.56502 0.915253 0
M  V30 2216 C 218.337 2.68031 -2.41229 0
M  V30 2217 O 217.441 3.6659 -1.88906 0
M  V30 2218 H 216.782 0.43832 -0.49877 0
M  V30 2219 H 219.312 0.817391 -1.87563 0
M  V30 2220 H 219.322 3.1601 -2.58073 0
M  V30 2221 H 217.997 2.36883 -3.41847 0
M  V30 2222 H 216.574 3.25661 -1.81656 0
M  V30 2223 N 218.759 1.29093 0.90403 0
M  V30 2224 C 219.722 1.1386 1.98919 0
M  V30 2225 C 220.722 0.0753457 1.60623 0
M  V30 2226 O 221.912 0.321931 1.71199 0
M  V30 2227 C 219.044 0.740198 3.32767 0
M  V30 2228 H 220.237 2.10246 2.13861 0
M  V30 2229 H 217.79 1.12218 1.08797 0
M  V30 2230 H 218.525 -0.223997 3.23525 0
M  V30 2231 H 218.31 1.50838 3.61926 0
M  V30 2232 H 219.8 0.656546 4.12407 0
M  V30 2233 N 220.237 -1.11381 1.11499 0
M  V30 2234 C 221.2 -2.15622 0.777153 0
M  V30 2235 C 222.2 -1.59504 -0.203779 0
M  V30 2236 O 223.39 -1.74188 0.020782 0
M  V30 2237 C 220.522 -3.40556 0.153116 0
M  V30 2238 H 221.715 -2.47021 1.70061 0
M  V30 2239 H 219.268 -1.26577 0.916952 0
M  V30 2240 H 220.003 -3.14767 -0.780536 0
M  V30 2241 H 219.788 -3.8257 0.859238 0
M  V30 2242 H 221.278 -4.17546 -0.0671044 0
M  V30 2243 N 221.715 -0.905404 -1.28997 0
M  V30 2244 C 222.625 -0.392246 -2.31298 0
M  V30 2245 C 223.641 0.515889 -1.66176 0
M  V30 2246 O 224.817 0.404093 -1.97304 0
M  V30 2247 C 221.882 0.36686 -3.44754 0
M  V30 2248 C 220.943 -0.573485 -4.25452 0
M  V30 2249 C 220.176 0.149488 -5.33491 0
M  V30 2250 O 220.399 1.37255 -5.5364 0
M  V30 2251 O 219.333 -0.510919 -5.99728 0
M  V30 2252 H 223.159 -1.2411 -2.77183 0
M  V30 2253 H 220.744 -0.669926 -1.33538 0
M  V30 2254 H 222.626 0.795907 -4.13816 0
M  V30 2255 H 221.301 1.19169 -3.00966 0
M  V30 2256 H 220.208 -1.05176 -3.59011 0
M  V30 2257 H 221.541 -1.36489 -4.72897 0
M  V30 2258 N 223.193 1.4272 -0.668489 0
M  V30 2259 C 224.609 1.55992 -0.33745 0
M  V30 2260 C 224.809 1.64933 1.15756 0
M  V30 2261 O 223.865 1.61278 1.94282 0
M  V30 2262 C 225.178 2.81314 -1.06222 0
M  V30 2263 C 226.726 2.95078 -1.04394 0
M  V30 2264 C 227.201 4.23252 -1.74991 0
M  V30 2265 N 228.692 4.3015 -1.71829 0
M  V30 2266 C 229.427 5.28127 -2.23315 0
M  V30 2267 N 228.923 6.32293 -2.83156 0
M  V30 2268 N 230.716 5.19882 -2.13726 0
M  V30 2269 H 222.867 1.3516 -1.63846 0
M  V30 2270 H 225.13 0.650174 -0.689912 0
M  V30 2271 H 224.836 2.80823 -2.11734 0
M  V30 2272 H 224.71 3.72012 -0.62344 0
M  V30 2273 H 227.097 2.951 0.0028244 0
M  V30 2274 H 227.178 2.05627 -1.52155 0
M  V30 2275 H 226.822 4.2399 -2.79633 0
M  V30 2276 H 226.752 5.11626 -1.24685 0
M  V30 2277 H 229.243 3.55499 -1.28175 0
M  V30 2278 H 229.556 7.03398 -3.20079 0
M  V30 2279 H 227.901 6.32873 -2.87223 0
M  V30 2280 H 231.092 4.37423 -1.66669 0
M  V30 2281 H 231.265 5.96077 -2.54158 0
M  V30 2282 N 224.671 0.411399 1.52136 0
M  V30 2283 C 225.899 -0.163076 2.06256 0
M  V30 2284 C 226.314 -1.3867 1.28125 0
M  V30 2285 O 225.671 -1.79423 0.333721 0
M  V30 2286 C 225.722 -0.511252 3.57867 0
M  V30 2287 O 225.443 0.66378 4.33042 0
M  V30 2288 C 226.944 -1.13921 4.28412 0
M  V30 2289 H 224.164 -0.0193897 0.67072 0
M  V30 2290 H 226.708 0.583007 1.96013 0
M  V30 2291 H 224.863 -1.20723 3.6811 0
M  V30 2292 H 225.277 0.372601 5.23175 0
M  V30 2293 H 226.751 -1.33302 5.35663 0
M  V30 2294 H 227.228 -2.11296 3.85033 0
M  V30 2295 H 227.834 -0.483373 4.22544 0
M  V30 2296 N 226.149 -1.5696 0.141893 0
M  V30 2297 C 227.112 -2.15316 -0.785587 0
M  V30 2298 C 228.112 -1.09366 -1.1788 0
M  V30 2299 O 229.302 -1.35031 -1.10056 0
M  V30 2300 C 226.434 -2.71211 -2.06537 0
M  V30 2301 H 227.627 -2.98608 -0.278041 0
M  V30 2302 H 225.18 -1.5593 -0.107519 0
M  V30 2303 H 225.915 -1.91571 -2.6167 0
M  V30 2304 H 225.7 -3.4872 -1.79268 0
M  V30 2305 H 227.19 -3.16189 -2.72789 0
M  V30 2306 N 227.627 0.131896 -1.57047 0
M  V30 2307 C 228.857 0.855219 -1.88068 0
M  V30 2308 C 229.265 1.74557 -0.729817 0
M  V30 2309 O 228.608 1.81083 0.308962 0
M  V30 2310 C 228.67 1.75119 -3.13964 0
M  V30 2311 C 228.334 1.03646 -4.45091 0
M  V30 2312 C 229.331 0.383276 -5.18485 0
M  V30 2313 C 227.016 1.02148 -4.91804 0
M  V30 2314 C 229.01 -0.275347 -6.36805 0
M  V30 2315 C 226.697 0.359047 -6.10044 0
M  V30 2316 C 227.695 -0.288222 -6.82392 0
M  V30 2317 O 227.383 -0.94011 -7.98384 0
M  V30 2318 H 227.115 0.251864 -0.627328 0
M  V30 2319 H 229.669 0.124782 -2.05021 0
M  V30 2320 H 227.899 2.52295 -2.9306 0
M  V30 2321 H 229.588 2.3478 -3.31109 0
M  V30 2322 H 230.354 0.386562 -4.83457 0
M  V30 2323 H 226.233 1.5147 -4.35405 0
M  V30 2324 H 229.777 -0.781148 -6.93213 0
M  V30 2325 H 225.674 0.35348 -6.44531 0
M  V30 2326 H 226.442 -0.84329 -8.14144 0
M  V30 2327 N 229.106 1.52395 0.401703 0
M  V30 2328 C 230.346 1.68498 1.15705 0
M  V30 2329 C 230.71 0.409748 1.87577 0
M  V30 2330 O 231.911 0.446983 2.65058 0
M  V30 2331 C 230.182 2.87789 2.11924 0
M  V30 2332 S 231.741 3.24415 2.95466 0
M  V30 2333 H 228.559 0.593267 0.391862 0
M  V30 2334 H 231.161 1.90408 0.443282 0
M  V30 2335 H 229.865 3.7884 1.57824 0
M  V30 2336 H 229.396 2.68175 2.87829 0
M  V30 2337 H 231.411 2.73614 4.13944 0
M  V30 2338 N 230.584 -0.659388 1.43143 0
M  V30 2339 C 231.547 -1.75432 1.47501 0
M  V30 2340 C 232.547 -1.56707 0.360512 0
M  V30 2341 O 233.737 -1.62717 0.622002 0
M  V30 2342 C 230.869 -3.14239 1.32162 0
M  V30 2343 H 232.062 -1.7295 2.45006 0
M  V30 2344 H 229.615 -0.870469 1.29817 0
M  V30 2345 H 230.35 -3.22336 0.356401 0
M  V30 2346 H 230.135 -3.29235 2.12948 0
M  V30 2347 H 231.625 -3.94094 1.3813 0
M  V30 2348 N 232.062 -1.29571 -0.897171 0
M  V30 2349 C 233.025 -1.14913 -1.98312 0
M  V30 2350 C 234.025 -0.0838629 -1.60581 0
M  V30 2351 O 235.215 -0.331006 -1.71026 0
M  V30 2352 C 232.347 -0.757835 -3.3237 0
M  V30 2353 H 233.54 -2.11377 -2.12743 0
M  V30 2354 H 231.093 -1.12793 -1.08201 0
M  V30 2355 H 231.828 0.206837 -3.2364 0
M  V30 2356 H 231.613 -1.52755 -3.61121 0
M  V30 2357 H 233.103 -0.678408 -4.12053 0
M  V30 2358 N 233.54 1.10788 -1.12088 0
M  V30 2359 C 234.789 1.82036 -0.868659 0
M  V30 2360 C 235.102 1.85929 0.607426 0
M  V30 2361 O 236.308 2.53346 0.97613 0
M  V30 2362 C 234.764 3.26951 -1.50435 0
M  V30 2363 C 234.372 3.31367 -3.01496 0
M  V30 2364 C 236.116 4.03053 -1.33225 0
M  V30 2365 C 234.023 4.7072 -3.58017 0
M  V30 2366 H 232.953 0.682108 -0.321318 0
M  V30 2367 H 235.604 1.24618 -1.34694 0
M  V30 2368 H 233.986 3.84343 -0.953735 0
M  V30 2369 H 235.16 2.83819 -3.6302 0
M  V30 2370 H 233.475 2.6875 -3.18061 0
M  V30 2371 H 236.072 5.05981 -1.72878 0
M  V30 2372 H 236.415 4.15387 -0.275529 0
M  V30 2373 H 236.948 3.52066 -1.85188 0
M  V30 2374 H 233.687 4.63585 -4.63432 0
M  V30 2375 H 233.207 5.1865 -3.01268 0
M  V30 2376 H 234.886 5.39685 -3.56859 0
M  V30 2377 N 235.018 0.912232 1.28515 0
M  V30 2378 C 236.295 0.463597 1.90027 0
M  V30 2379 C 236.675 -1.05753 1.82701 0
M  V30 2380 O 236.023 -1.90492 1.26194 0
M  V30 2381 C 236.233 0.992253 3.34597 0
M  V30 2382 C 237.581 1.04344 4.11579 0
M  V30 2383 O 238.605 0.94079 3.43551 0
M  V30 2384 O 237.464 1.1995 5.33174 0
M  V30 2385 H 234.558 0.146666 0.813891 0
M  V30 2386 H 237.104 1.00292 1.36893 0
M  V30 2387 H 235.876 2.03623 3.34146 0
M  V30 2388 H 235.499 0.433672 3.95228 0
M  V30 2389 N 236.496 -1.42363 0.676048 0
M  V30 2390 C 237.446 -2.27987 -0.0242903 0
M  V30 2391 C 238.43 -1.41153 -0.772319 0
M  V30 2392 O 239.622 -1.64592 -0.651025 0
M  V30 2393 C 236.751 -3.29195 -0.973953 0
M  V30 2394 C 235.837 -4.23512 -0.223202 0
M  V30 2395 N 236.228 -4.99865 0.772589 0
M  V30 2396 C 234.526 -4.43606 -0.461469 0
M  V30 2397 C 235.227 -5.68757 1.22027 0
M  V30 2398 N 234.203 -5.40811 0.549975 0
M  V30 2399 H 238.005 -2.84445 0.73949 0
M  V30 2400 H 235.519 -1.54341 0.50522 0
M  V30 2401 H 237.516 -3.89339 -1.49067 0
M  V30 2402 H 236.176 -2.74298 -1.73755 0
M  V30 2403 H 237.187 -5.04921 1.15217 0
M  V30 2404 H 233.864 -3.99749 -1.20446 0
M  V30 2405 H 235.254 -6.40007 2.0455 0
M  V30 2406 N 237.974 -0.419461 -1.51915 0
M  V30 2407 C 239.221 0.152939 -2.01922 0
M  V30 2408 C 239.549 1.4426 -1.30458 0
M  V30 2409 O 238.804 1.91514 -0.402593 0
M  V30 2410 C 239.103 0.437067 -3.54717 0
M  V30 2411 C 238.769 -0.764632 -4.44369 0
M  V30 2412 C 237.431 -1.09423 -4.68594 0
M  V30 2413 C 239.783 -1.56713 -4.97082 0
M  V30 2414 C 237.111 -2.22732 -5.42777 0
M  V30 2415 C 239.463 -2.69107 -5.72507 0
M  V30 2416 C 238.127 -3.02541 -5.95 0
M  V30 2417 H 237.397 0.0559644 -0.738884 0
M  V30 2418 H 240.044 -0.562998 -1.83037 0
M  V30 2419 H 238.349 1.23469 -3.71837 0
M  V30 2420 H 240.046 0.893083 -3.90928 0
M  V30 2421 H 236.636 -0.497775 -4.257 0
M  V30 2422 H 240.82 -1.32571 -4.78266 0
M  V30 2423 H 236.076 -2.48971 -5.58411 0
M  V30 2424 H 240.25 -3.31671 -6.12346 0
M  V30 2425 H 237.877 -3.90457 -6.52264 0
M  V30 2426 N 239.452 1.56882 -0.150215 0
M  V30 2427 C 240.698 1.96518 0.500834 0
M  V30 2428 C 241.031 1.03527 1.64304 0
M  V30 2429 O 240.306 0.0782751 1.94342 0
M  V30 2430 C 240.589 3.45822 1.00395 0
M  V30 2431 C 240.442 4.49591 -0.136983 0
M  V30 2432 C 241.761 3.97704 1.88467 0
M  V30 2433 H 238.88 0.714535 0.18058 0
M  V30 2434 H 241.522 1.88577 -0.232091 0
M  V30 2435 H 239.672 3.5272 1.62851 0
M  V30 2436 H 241.344 4.5477 -0.77343 0
M  V30 2437 H 239.587 4.26441 -0.795652 0
M  V30 2438 H 240.258 5.51402 0.256815 0
M  V30 2439 H 242.734 3.93304 1.35834 0
M  V30 2440 H 241.61 5.0263 2.20578 0
M  V30 2441 H 241.871 3.40252 2.82279 0
M  V30 2442 N 240.93 -0.123565 1.57115 0
M  V30 2443 C 242.341 -0.681198 1.73829 0
M  V30 2444 C 242.692 -1.80535 0.768214 0
M  V30 2445 O 241.817 -2.16317 -0.0599103 0
M  V30 2446 C 242.412 -1.24246 3.15196 0
M  V30 2447 C 240.971 -1.74643 3.33432 0
M  V30 2448 C 240.118 -0.644284 2.69711 0
M  V30 2449 H 243.069 0.102315 1.5837 0
M  V30 2450 H 243.09 -2.11216 3.16493 0
M  V30 2451 H 242.602 -0.424062 3.85776 0
M  V30 2452 H 240.703 -2.58974 2.67886 0
M  V30 2453 H 240.816 -1.85902 4.41562 0
M  V30 2454 H 239.18 -1.07676 2.3082 0
M  V30 2455 H 239.963 0.163058 3.42913 0
M  V30 2456 N 242.408 -1.52605 -0.393616 0
M  V30 2457 C 243.685 -1.58001 -1.15304 0
M  V30 2458 C 244.065 -0.370385 -2.07825 0
M  V30 2459 O 243.413 0.641638 -2.19306 0
M  V30 2460 C 243.623 -2.91652 -1.91677 0
M  V30 2461 C 244.971 -3.4522 -2.47201 0
M  V30 2462 O 245.995 -2.93495 -2.01839 0
M  V30 2463 O 244.854 -4.35579 -3.3005 0
M  V30 2464 H 241.948 -0.637068 -0.527327 0
M  V30 2465 H 244.494 -1.64939 -0.399141 0
M  V30 2466 H 243.266 -3.71136 -1.23992 0
M  V30 2467 H 242.889 -2.88077 -2.74039 0
M  V30 2468 N 243.887 0.651787 -1.4349 0
M  V30 2469 C 245.298 1.233 -1.40193 0
M  V30 2470 C 245.649 1.9591 -0.106727 0
M  V30 2471 O 244.774 2.01316 0.793773 0
M  V30 2472 C 245.369 2.24257 -2.53957 0
M  V30 2473 C 243.928 2.77852 -2.5392 0
M  V30 2474 C 243.075 1.52517 -2.3159 0
M  V30 2475 H 246.026 0.443717 -1.52371 0
M  V30 2476 H 246.047 3.0646 -2.25528 0
M  V30 2477 H 245.559 1.71382 -3.4821 0
M  V30 2478 H 243.66 3.34786 -1.63551 0
M  V30 2479 H 243.773 3.25299 -3.51735 0
M  V30 2480 H 242.137 1.79915 -1.80285 0
M  V30 2481 H 242.92 1.01574 -3.27929 0
M  V30 2482 N 245.365 1.30045 0.890287 0
M  V30 2483 C 246.611 1.19747 1.64415 0
M  V30 2484 C 246.966 -0.246591 1.90813 0
M  V30 2485 O 246.259 -1.174 1.51419 0
M  V30 2486 C 246.453 1.95409 2.99249 0
M  V30 2487 C 246.282 3.47025 2.86013 0
M  V30 2488 C 245.052 4.1638 2.86279 0
M  V30 2489 C 247.25 4.42353 2.62351 0
M  V30 2490 N 245.232 5.54293 2.63879 0
M  V30 2491 C 246.603 5.67792 2.49022 0
M  V30 2492 C 248.658 4.32009 2.47533 0
M  V30 2493 C 247.361 6.8406 2.22383 0
M  V30 2494 C 249.387 5.48038 2.22279 0
M  V30 2495 C 248.749 6.72455 2.09722 0
M  V30 2496 H 244.848 0.493223 0.60684 0
M  V30 2497 H 247.432 1.6399 1.04954 0
M  V30 2498 H 245.603 1.53565 3.56752 0
M  V30 2499 H 247.335 1.77298 3.63796 0
M  V30 2500 H 244.09 3.68164 2.97913 0
M  V30 2501 H 244.514 6.26852 2.55706 0
M  V30 2502 H 249.156 3.36503 2.55979 0
M  V30 2503 H 246.874 7.79612 2.12675 0
M  V30 2504 H 250.46 5.41939 2.11643 0
M  V30 2505 H 249.34 7.60722 1.90453 0
M  V30 2506 N 246.843 -1.10192 1.12674 0
M  V30 2507 C 247.773 -2.18652 0.819362 0
M  V30 2508 C 248.754 -1.68698 -0.217915 0
M  V30 2509 O 249.939 -1.94041 -0.0785581 0
M  V30 2510 C 247.069 -3.46202 0.27594 0
M  V30 2511 C 246.023 -4.09444 1.24656 0
M  V30 2512 C 245.349 -5.31725 0.563258 0
M  V30 2513 C 246.649 -4.52863 2.60217 0
M  V30 2514 H 248.343 -2.44622 1.72628 0
M  V30 2515 H 245.889 -1.17571 0.831451 0
M  V30 2516 H 247.842 -4.21372 0.0486149 0
M  V30 2517 H 246.566 -3.1973 -0.666331 0
M  V30 2518 H 245.225 -3.36284 1.45974 0
M  V30 2519 H 244.873 -5.0153 -0.384235 0
M  V30 2520 H 244.573 -5.74991 1.21075 0
M  V30 2521 H 246.097 -6.09624 0.34503 0
M  V30 2522 H 247.511 -5.19294 2.42913 0
M  V30 2523 H 245.908 -5.06986 3.21068 0
M  V30 2524 H 246.978 -3.65656 3.18471 0
M  V30 2525 N 248.321 -0.919034 -1.28029 0
M  V30 2526 C 249.253 -0.368762 -2.26214 0
M  V30 2527 C 250.266 0.495716 -1.55069 0
M  V30 2528 O 251.455 0.30974 -1.75792 0
M  V30 2529 C 248.555 0.491049 -3.35324 0
M  V30 2530 C 247.728 -0.352133 -4.3598 0
M  V30 2531 C 246.787 0.443622 -5.24327 0
M  V30 2532 O 245.813 -0.14566 -5.69014 0
M  V30 2533 N 247.015 1.74545 -5.53637 0
M  V30 2534 H 249.78 -1.21273 -2.74068 0
M  V30 2535 H 247.341 -0.785541 -1.41566 0
M  V30 2536 H 249.333 1.03026 -3.91366 0
M  V30 2537 H 247.903 1.23574 -2.87138 0
M  V30 2538 H 247.123 -1.07269 -3.79324 0
M  V30 2539 H 248.411 -0.928883 -5.00249 0
M  V30 2540 H 247.809 2.24666 -5.19174 0
M  V30 2541 H 246.366 2.23138 -6.12416 0
M  V30 2542 N 249.799 1.42003 -0.683588 0
M  V30 2543 C 251.046 2.01413 -0.209514 0
M  V30 2544 C 251.374 1.54088 1.1869 0
M  V30 2545 O 250.629 0.737591 1.81268 0
M  V30 2546 C 250.928 3.56827 -0.202357 0
M  V30 2547 C 250.594 4.23617 -1.54464 0
M  V30 2548 C 249.256 4.41577 -1.91215 0
M  V30 2549 C 251.608 4.61178 -2.42826 0
M  V30 2550 C 248.936 4.9437 -3.15935 0
M  V30 2551 C 251.288 5.15355 -3.66867 0
M  V30 2552 C 249.952 5.31528 -4.03776 0
M  V30 2553 H 249.222 0.737023 -0.0766668 0
M  V30 2554 H 251.869 1.70067 -0.880312 0
M  V30 2555 H 250.174 3.87892 0.551969 0
M  V30 2556 H 251.871 4.00588 0.181793 0
M  V30 2557 H 248.461 4.10004 -1.24877 0
M  V30 2558 H 252.645 4.46968 -2.15717 0
M  V30 2559 H 247.901 5.05076 -3.44541 0
M  V30 2560 H 252.075 5.43402 -4.35531 0
M  V30 2561 H 249.702 5.72199 -5.00492 0
M  V30 2562 N 251.277 0.427512 1.51691 0
M  V30 2563 C 252.688 -0.0378867 1.86662 0
M  V30 2564 C 253.039 -1.42819 1.34525 0
M  V30 2565 O 252.164 -2.05037 0.692014 0
M  V30 2566 C 252.759 -0.0755266 3.38716 0
M  V30 2567 C 251.318 -0.485309 3.73258 0
M  V30 2568 C 250.465 0.328399 2.75349 0
M  V30 2569 H 253.416 0.64379 1.45055 0
M  V30 2570 H 253.437 -0.887056 3.70016 0
M  V30 2571 H 252.949 0.936487 3.76632 0
M  V30 2572 H 251.05 -1.50329 3.40928 0
M  V30 2573 H 251.163 -0.21693 4.78609 0
M  V30 2574 H 249.527 -0.211905 2.53817 0
M  V30 2575 H 250.31 1.3391 3.16106 0
M  V30 2576 N 252.755 -1.56801 0.158532 0
M  V30 2577 C 254.166 -1.83189 -0.360366 0
M  V30 2578 C 254.517 -1.07778 -1.63946 0
M  V30 2579 O 253.642 -0.326718 -2.13919 0
M  V30 2580 C 254.237 -3.32297 -0.660595 0
M  V30 2581 C 252.796 -3.59227 -1.12398 0
M  V30 2582 C 251.943 -2.76877 -0.153097 0
M  V30 2583 H 254.894 -1.54008 0.383031 0
M  V30 2584 H 254.915 -3.4908 -1.51405 0
M  V30 2585 H 254.427 -3.87156 0.270527 0
M  V30 2586 H 252.528 -3.09766 -2.07064 0
M  V30 2587 H 252.641 -4.67632 -1.04197 0
M  V30 2588 H 251.005 -2.46319 -0.647983 0
M  V30 2589 H 251.788 -3.34511 0.77182 0
M  V30 2590 N 254.233 0.115231 -1.57178 0
M  V30 2591 C 255.18 1.14115 -2.00615 0
M  V30 2592 C 256.15 1.40939 -0.878941 0
M  V30 2593 O 257.335 1.52741 -1.14345 0
M  V30 2594 C 254.475 2.46156 -2.4187 0
M  V30 2595 C 253.588 2.26236 -3.68024 0
M  V30 2596 C 252.723 3.51534 -3.98243 0
M  V30 2597 C 251.762 3.26787 -5.17568 0
M  V30 2598 N 250.899 4.44298 -5.43639 0
M  V30 2599 H 255.739 0.763743 -2.88047 0
M  V30 2600 H 253.276 0.365615 -1.42484 0
M  V30 2601 H 255.234 3.23189 -2.63827 0
M  V30 2602 H 253.864 2.81783 -1.57475 0
M  V30 2603 H 252.916 1.40102 -3.5366 0
M  V30 2604 H 254.228 2.03929 -4.55208 0
M  V30 2605 H 253.382 4.36984 -4.20868 0
M  V30 2606 H 252.121 3.76876 -3.09541 0
M  V30 2607 H 251.126 2.39729 -4.94783 0
M  V30 2608 H 252.351 3.02812 -6.0785 0
M  V30 2609 H 250.297 4.69754 -4.57895 0
M  V30 2610 H 250.214 4.25109 -6.25154 0
M  V30 2611 H 251.482 5.3087 -5.70786 0
M  V30 2612 N 255.711 1.52812 0.385517 0
M  V30 2613 C 257.127 1.4214 0.725829 0
M  V30 2614 C 257.327 0.544589 1.94001 0
M  V30 2615 O 256.383 0.0193693 2.52493 0
M  V30 2616 C 257.696 2.85042 0.957668 0
M  V30 2617 C 259.244 2.94543 1.05892 0
M  V30 2618 C 259.719 4.38464 1.32337 0
M  V30 2619 N 261.21 4.41804 1.39151 0
M  V30 2620 C 261.945 5.5025 1.61285 0
M  V30 2621 N 261.441 6.68775 1.80866 0
M  V30 2622 N 263.234 5.37798 1.63492 0
M  V30 2623 H 255.385 2.08338 -0.413383 0
M  V30 2624 H 257.648 0.940016 -0.122775 0
M  V30 2625 H 257.354 3.51431 0.137568 0
M  V30 2626 H 257.228 3.27505 1.87137 0
M  V30 2627 H 259.615 2.28321 1.86959 0
M  V30 2628 H 259.696 2.55504 0.123057 0
M  V30 2629 H 259.34 5.05254 0.517793 0
M  V30 2630 H 259.27 4.75059 2.27214 0
M  V30 2631 H 261.761 3.56377 1.25713 0
M  V30 2632 H 262.074 7.47197 1.97271 0
M  V30 2633 H 260.419 6.71797 1.78083 0
M  V30 2634 H 263.61 4.44171 1.47749 0
M  V30 2635 H 263.783 6.22382 1.80402 0
M  V30 2636 N 257.189 -0.644168 1.43834 0
M  V30 2637 C 258.437 -1.40117 1.45642 0
M  V30 2638 C 258.758 -1.94814 0.0852413 0
M  V30 2639 O 258.028 -1.74988 -0.880688 0
M  V30 2640 H 256.608 -0.52005 0.536243 0
M  V30 2641 H 259.27 -0.7591 1.7951 0
M  V30 2642 H 258.366 -2.23902 2.17427 0
M  V30 2643 N 258.668 -1.30515 -0.883378 0
M  V30 2644 C 259.615 -1.17032 -1.98927 0
M  V30 2645 C 260.585 -0.0594241 -1.65994 0
M  V30 2646 O 261.77 -0.229895 -1.8941 0
M  V30 2647 C 258.91 -0.869777 -3.33959 0
M  V30 2648 C 258.023 -2.06271 -3.79574 0
M  V30 2649 C 257.158 -1.70011 -5.03259 0
M  V30 2650 C 256.197 -2.8579 -5.41286 0
M  V30 2651 N 255.334 -2.49816 -6.56153 0
M  V30 2652 H 260.174 -2.1164 -2.09792 0
M  V30 2653 H 257.711 -1.05296 -1.02719 0
M  V30 2654 H 259.669 -0.676138 -4.11685 0
M  V30 2655 H 258.299 0.0394332 -3.22776 0
M  V30 2656 H 257.351 -2.36755 -2.97744 0
M  V30 2657 H 258.663 -2.92971 -4.03694 0
M  V30 2658 H 257.817 -1.47032 -5.88614 0
M  V30 2659 H 256.556 -0.804829 -4.81013 0
M  V30 2660 H 255.561 -3.09434 -4.54456 0
M  V30 2661 H 256.786 -3.76008 -5.65504 0
M  V30 2662 H 254.732 -1.62795 -6.35479 0
M  V30 2663 H 254.649 -3.30048 -6.8015 0
M  V30 2664 H 255.917 -2.30197 -7.44735 0
M  V30 2665 N 260.146 1.09593 -1.13257 0
M  V30 2666 C 261.395 1.81105 -0.887917 0
M  V30 2667 C 261.708 1.86563 0.587672 0
M  V30 2668 O 262.914 2.54367 0.949204 0
M  V30 2669 C 261.37 3.25338 -1.53895 0
M  V30 2670 C 260.978 3.28151 -3.04994 0
M  V30 2671 C 262.722 4.01617 -1.37492 0
M  V30 2672 C 260.629 4.66897 -3.6299 0
M  V30 2673 H 259.559 0.678661 -0.328534 0
M  V30 2674 H 262.21 1.23183 -1.36008 0
M  V30 2675 H 260.592 3.8331 -0.994446 0
M  V30 2676 H 261.766 2.79953 -3.66009 0
M  V30 2677 H 260.081 2.65361 -3.20893 0
M  V30 2678 H 262.678 5.04119 -1.78235 0
M  V30 2679 H 263.021 4.15072 -0.31957 0
M  V30 2680 H 263.554 3.50082 -1.88912 0
M  V30 2681 H 260.293 4.58643 -4.68323 0
M  V30 2682 H 259.813 5.15426 -3.06752 0
M  V30 2683 H 261.492 5.3587 -3.62563 0
M  V30 2684 N 261.624 0.925811 1.2754 0
M  V30 2685 C 262.852 0.581509 1.9856 0
M  V30 2686 C 263.267 -0.840041 1.69082 0
M  V30 2687 O 262.624 -1.55805 0.950312 0
M  V30 2688 C 262.675 0.795589 3.52637 0
M  V30 2689 O 262.396 2.16121 3.81082 0
M  V30 2690 C 263.897 0.459744 4.4091 0
M  V30 2691 H 261.117 0.220538 0.633722 0
M  V30 2692 H 263.661 1.24232 1.6244 0
M  V30 2693 H 261.816 0.18161 3.86974 0
M  V30 2694 H 262.23 2.2098 4.75676 0
M  V30 2695 H 263.704 0.660244 5.48037 0
M  V30 2696 H 264.181 -0.604625 4.35018 0
M  V30 2697 H 264.787 1.05178 4.12089 0
M  V30 2698 N 263.102 -1.41638 0.69111 0
M  V30 2699 C 264.327 -2.06148 0.227583 0
M  V30 2700 C 264.752 -1.51652 -1.11281 0
M  V30 2701 O 264.11 -0.64164 -1.69566 0
M  V30 2702 C 264.158 -3.60095 0.190858 0
M  V30 2703 O 263.262 -4.03845 -0.835664 0
M  V30 2704 H 262.603 -0.654434 0.112306 0
M  V30 2705 H 265.133 -1.81484 0.944714 0
M  V30 2706 H 265.143 -4.07995 0.020207 0
M  V30 2707 H 263.818 -3.99129 1.16915 0
M  V30 2708 H 262.395 -3.67458 -0.63473 0
M  V30 2709 N 264.58 -0.43555 -1.51462 0
M  V30 2710 C 265.826 0.131709 -2.02372 0
M  V30 2711 C 266.159 1.42516 -1.3192 0
M  V30 2712 O 265.434 1.89606 -0.433573 0
M  V30 2713 C 265.717 0.352301 -3.58373 0
M  V30 2714 C 265.57 -0.959676 -4.39443 0
M  V30 2715 C 266.889 1.12286 -4.25535 0
M  V30 2716 H 264.008 0.0463936 -0.735538 0
M  V30 2717 H 266.65 -0.574197 -1.81116 0
M  V30 2718 H 264.8 0.9536 -3.76615 0
M  V30 2719 H 266.472 -1.59482 -4.32855 0
M  V30 2720 H 264.715 -1.56468 -4.04599 0
M  V30 2721 H 265.386 -0.759394 -5.46752 0
M  V30 2722 H 267.862 0.613545 -4.11552 0
M  V30 2723 H 266.738 1.24598 -5.34571 0
M  V30 2724 H 266.999 2.15048 -3.86273 0
M  V30 2725 N 266.058 1.56714 -0.166846 0
M  V30 2726 C 267.306 1.96358 0.478305 0
M  V30 2727 C 267.627 1.0537 1.6408 0
M  V30 2728 O 266.897 0.119154 1.95537 0
M  V30 2729 H 265.477 0.725065 0.179692 0
M  V30 2730 H 268.139 1.93329 -0.246985 0
M  V30 2731 H 267.235 3.00547 0.841292 0
M  V30 2732 N 267.536 -0.106894 1.57237 0
M  V30 2733 C 268.499 -1.11466 2.0027 0
M  V30 2734 C 269.499 -1.33623 0.894519 0
M  V30 2735 O 270.689 -1.29935 1.16028 0
M  V30 2736 C 267.821 -2.46646 2.35327 0
M  V30 2737 H 269.014 -0.744516 2.90512 0
M  V30 2738 H 266.567 -0.351576 1.52295 0
M  V30 2739 H 267.302 -2.88558 1.48003 0
M  V30 2740 H 267.087 -2.31915 3.16161 0
M  V30 2741 H 268.577 -3.19151 2.69318 0
M  V30 2742 N 269.014 -1.53014 -0.377408 0
M  V30 2743 C 269.962 -1.7927 -1.48206 0
M  V30 2744 C 270.956 -0.661195 -1.55963 0
M  V30 2745 O 272.162 -0.843908 -1.58991 0
M  V30 2746 H 268.537 -0.567425 -0.493491 0
M  V30 2747 H 270.508 -2.71753 -1.2326 0
M  V30 2748 C 269.257 -1.98894 -2.85196 0
M  V30 2749 H 268.58 -2.85395 -2.79981 0
M  V30 2750 H 270.02 -2.21249 -3.61698 0
M  V30 2751 C 268.479 -0.764691 -3.28107 0
M  V30 2752 O 269.009 0.0523226 -4.01666 0
M  V30 2753 N 267.215 -0.591493 -2.84517 0
M  V30 2754 H 266.762 -1.25749 -2.24822 0
M  V30 2755 H 266.72 0.226253 -3.13585 0
M  V30 2756 N 270.492 0.636531 -1.44174 0
M  V30 2757 C 271.908 0.954104 -1.27941 0
M  V30 2758 C 272.108 2.0039 -0.211248 0
M  V30 2759 O 271.164 2.49236 0.404695 0
M  V30 2760 C 272.477 1.4225 -2.64925 0
M  V30 2761 C 274.025 1.53827 -2.72592 0
M  V30 2762 C 274.5 2.04053 -4.10032 0
M  V30 2763 N 275.991 2.11331 -4.12182 0
M  V30 2764 C 276.726 2.51352 -5.15374 0
M  V30 2765 N 276.222 2.90549 -6.2893 0
M  V30 2766 N 278.015 2.51438 -5.02728 0
M  V30 2767 H 270.166 -0.0578386 -2.12321 0
M  V30 2768 H 272.429 0.0367406 -0.947288 0
M  V30 2769 H 272.135 0.725466 -3.44136 0
M  V30 2770 H 272.009 2.39451 -2.9145 0
M  V30 2771 H 274.396 2.22628 -1.93702 0
M  V30 2772 H 274.477 0.550154 -2.49814 0
M  V30 2773 H 274.121 1.35848 -4.89395 0
M  V30 2774 H 274.051 3.03726 -4.30184 0
M  V30 2775 H 276.542 1.83745 -3.30222 0
M  V30 2776 H 276.855 3.19884 -7.03487 0
M  V30 2777 H 275.2 2.88313 -6.32377 0
M  V30 2778 H 278.391 2.20203 -4.13072 0
M  V30 2779 H 278.564 2.82304 -5.83274 0
M  V30 2780 N 271.97 1.30982 0.876444 0
M  V30 2781 C 273.216 1.20474 1.63138 0
M  V30 2782 C 273.549 -0.238096 1.92735 0
M  V30 2783 O 272.824 -1.1692 1.55435 0
M  V30 2784 C 273.107 2.04244 2.96574 0
M  V30 2785 C 272.96 3.56793 2.73896 0
M  V30 2786 C 274.279 1.88684 3.97601 0
M  V30 2787 H 271.398 0.439001 0.591985 0
M  V30 2788 H 274.04 1.60704 1.01361 0
M  V30 2789 H 272.19 1.70063 3.493 0
M  V30 2790 H 273.862 4.01077 2.27892 0
M  V30 2791 H 272.105 3.80548 2.08245 0
M  V30 2792 H 272.776 4.10706 3.68815 0
M  V30 2793 H 275.252 2.18584 3.54062 0
M  V30 2794 H 274.128 2.4961 4.88862 0
M  V30 2795 H 274.389 0.848343 4.33884 0
M  V30 2796 N 273.449 -1.08991 1.13837 0
M  V30 2797 C 274.726 -1.77863 0.813876 0
M  V30 2798 C 275.106 -1.99375 -0.693746 0
M  V30 2799 O 274.454 -1.59875 -1.63255 0
M  V30 2800 C 274.664 -3.0986 1.60586 0
M  V30 2801 C 276.012 -3.84493 1.8014 0
M  V30 2802 O 277.036 -3.19624 1.57222 0
M  V30 2803 O 275.895 -5.00957 2.18413 0
M  V30 2804 H 272.989 -0.771589 0.297624 0
M  V30 2805 H 275.535 -1.15507 1.24323 0
M  V30 2806 H 274.307 -2.89715 2.63022 0
M  V30 2807 H 273.93 -3.79942 1.17173 0
M  V30 2808 N 274.927 -0.932562 -1.27047 0
M  V30 2809 C 275.857 -0.452902 -2.29066 0
M  V30 2810 C 276.838 0.489338 -1.62909 0
M  V30 2811 O 278.023 0.393046 -1.90181 0
M  V30 2812 C 275.153 0.290698 -3.46081 0
M  V30 2813 C 274.107 -0.564168 -4.24265 0
M  V30 2814 C 273.433 0.308886 -5.33807 0
M  V30 2815 C 274.733 -1.83112 -4.89149 0
M  V30 2816 H 276.427 -1.30552 -2.69437 0
M  V30 2817 H 273.973 -0.629201 -1.29526 0
M  V30 2818 H 275.926 0.637233 -4.16554 0
M  V30 2819 H 274.65 1.17738 -3.0464 0
M  V30 2820 H 273.309 -0.893477 -3.55545 0
M  V30 2821 H 272.957 1.19467 -4.88607 0
M  V30 2822 H 272.657 -0.259633 -5.87026 0
M  V30 2823 H 274.181 0.650884 -6.07121 0
M  V30 2824 H 275.595 -1.55236 -5.51883 0
M  V30 2825 H 273.992 -2.34353 -5.52448 0
M  V30 2826 H 275.062 -2.54772 -4.12576 0
M  V30 2827 N 276.405 1.4127 -0.698611 0
M  V30 2828 C 277.645 2.03044 -0.235062 0
M  V30 2829 C 278.009 1.54146 1.14468 0
M  V30 2830 O 279.21 2.07867 1.70425 0
M  V30 2831 C 277.481 3.56192 -0.293651 0
M  V30 2832 S 279.04 4.38696 0.0954053 0
M  V30 2833 H 275.858 0.704697 -0.0944648 0
M  V30 2834 H 278.46 1.72656 -0.917064 0
M  V30 2835 H 277.164 3.89274 -1.29977 0
M  V30 2836 H 276.695 3.91285 0.407397 0
M  V30 2837 H 278.71 4.78257 1.3223 0
M  V30 2838 N 277.883 0.443576 1.51229 0
M  V30 2839 C 278.815 -0.400608 2.25672 0
M  V30 2840 C 279.828 -0.980945 1.29928 0
M  V30 2841 O 281.017 -0.874024 1.55638 0
M  V30 2842 C 278.117 -1.57304 3.00181 0
M  V30 2843 C 277.29 -1.11046 4.23069 0
M  V30 2844 C 276.349 -2.15374 4.80105 0
M  V30 2845 O 275.375 -1.74554 5.41774 0
M  V30 2846 N 276.577 -3.47922 4.64683 0
M  V30 2847 H 279.342 0.23745 2.98758 0
M  V30 2848 H 276.903 0.272809 1.59585 0
M  V30 2849 H 278.895 -2.26733 3.35223 0
M  V30 2850 H 277.465 -2.11632 2.30066 0
M  V30 2851 H 276.685 -0.243019 3.9345 0
M  V30 2852 H 277.973 -0.778888 5.02803 0
M  V30 2853 H 277.371 -3.83815 4.15575 0
M  V30 2854 H 275.928 -4.13228 5.0407 0
M  V30 2855 N 279.361 -1.56624 0.175154 0
M  V30 2856 C 280.609 -1.96609 -0.467885 0
M  V30 2857 C 280.93 -1.06238 -1.63519 0
M  V30 2858 O 280.2 -0.129523 -1.95471 0
M  V30 2859 H 278.78 -0.726008 -0.175845 0
M  V30 2860 H 281.442 -1.93195 0.257234 0
M  V30 2861 H 280.538 -3.00989 -0.825342 0
M  V30 2862 N 280.839 0.0985539 -1.57292 0
M  V30 2863 C 282.088 0.801358 -1.85098 0
M  V30 2864 C 282.401 1.80066 -0.763902 0
M  V30 2865 O 283.607 2.55112 -0.928981 0
M  V30 2866 C 282.063 1.47599 -3.28242 0
M  V30 2867 C 281.671 0.516624 -4.45011 0
M  V30 2868 C 283.415 2.16272 -3.65276 0
M  V30 2869 C 281.322 1.19564 -5.79188 0
M  V30 2870 H 280.252 0.303022 -0.69043 0
M  V30 2871 H 282.903 0.0542623 -1.8342 0
M  V30 2872 H 281.285 2.27042 -3.2445 0
M  V30 2873 H 282.459 -0.246065 -4.60143 0
M  V30 2874 H 280.774 -0.064227 -4.1635 0
M  V30 2875 H 283.371 2.67802 -4.62803 0
M  V30 2876 H 283.714 2.95009 -2.93727 0
M  V30 2877 H 284.247 1.43693 -3.70941 0
M  V30 2878 H 280.986 0.449157 -6.53959 0
M  V30 2879 H 280.506 1.92984 -5.67906 0
M  V30 2880 H 282.185 1.7231 -6.23633 0
M  V30 2881 N 282.317 1.53212 0.369288 0
M  V30 2882 C 283.566 1.68436 1.10961 0
M  V30 2883 C 283.879 0.440738 1.9057 0
M  V30 2884 O 285.085 0.473446 2.6734 0
M  V30 2885 C 283.541 2.97744 2.0218 0
M  V30 2886 C 283.149 4.29355 1.279 0
M  V30 2887 C 284.893 3.22334 2.76226 0
M  V30 2888 C 282.8 5.49755 2.17999 0
M  V30 2889 H 281.73 0.627568 0.41794 0
M  V30 2890 H 284.381 1.79713 0.370884 0
M  V30 2891 H 282.763 2.8026 2.79768 0
M  V30 2892 H 283.937 4.57458 0.554007 0
M  V30 2893 H 282.252 4.11179 0.657311 0
M  V30 2894 H 284.849 4.09471 3.43857 0
M  V30 2895 H 285.192 2.38238 3.41392 0
M  V30 2896 H 285.725 3.40475 2.05723 0
M  V30 2897 H 282.464 6.36318 1.57417 0
M  V30 2898 H 281.984 5.25937 2.88359 0
M  V30 2899 H 283.663 5.84401 2.77641 0
M  V30 2900 N 283.795 -0.628877 1.44509 0
M  V30 2901 C 285.044 -1.38437 1.4669 0
M  V30 2902 C 285.357 -1.95322 0.104272 0
M  V30 2903 O 286.563 -2.715 0.00362163 0
M  V30 2904 C 285.019 -2.50659 2.5826 0
M  V30 2905 C 284.627 -2.00277 4.0074 0
M  V30 2906 C 286.371 -3.27844 2.69664 0
M  V30 2907 C 284.278 -3.09854 5.0373 0
M  V30 2908 H 283.208 -0.520245 0.545766 0
M  V30 2909 H 285.859 -0.676313 1.70582 0
M  V30 2910 H 284.241 -3.2405 2.27612 0
M  V30 2911 H 285.415 -1.33736 4.40966 0
M  V30 2912 H 283.73 -1.35901 3.93599 0
M  V30 2913 H 286.327 -4.09534 3.43781 0
M  V30 2914 H 286.67 -3.77471 1.75559 0
M  V30 2915 H 287.203 -2.61543 2.99733 0
M  V30 2916 H 283.942 -2.65168 5.99472 0
M  V30 2917 H 283.462 -3.7503 4.68095 0
M  V30 2918 H 285.141 -3.74592 5.27532 0
M  V30 2919 N 285.273 -1.31445 -0.869486 0
M  V30 2920 C 286.689 -1.10113 -1.15531 0
M  V30 2921 C 286.889 0.128087 -2.01092 0
M  V30 2922 O 285.945 0.817276 -2.38908 0
M  V30 2923 C 287.258 -2.37291 -1.84698 0
M  V30 2924 C 288.806 -2.42906 -1.97397 0
M  V30 2925 C 289.281 -3.69967 -2.69979 0
M  V30 2926 N 290.772 -3.70864 -2.77514 0
M  V30 2927 C 291.507 -4.65875 -3.34287 0
M  V30 2928 N 291.003 -5.71242 -3.91988 0
M  V30 2929 N 292.796 -4.53394 -3.3225 0
M  V30 2930 H 284.947 -2.1028 -0.299347 0
M  V30 2931 H 287.21 -0.927683 -0.195214 0
M  V30 2932 H 286.916 -3.27078 -1.29278 0
M  V30 2933 H 286.79 -2.47125 -2.84972 0
M  V30 2934 H 289.177 -1.53588 -2.51982 0
M  V30 2935 H 289.258 -2.37036 -0.961643 0
M  V30 2936 H 288.902 -4.59652 -2.16062 0
M  V30 2937 H 288.832 -3.73103 -3.7162 0
M  V30 2938 H 291.323 -2.94697 -2.36563 0
M  V30 2939 H 291.636 -6.39817 -4.33421 0
M  V30 2940 H 289.981 -5.75015 -3.90362 0
M  V30 2941 H 293.172 -3.70252 -2.8641 0
M  V30 2942 H 293.345 -5.27617 -3.76197 0
M  V30 2943 N 286.751 1.08385 -1.14413 0
M  V30 2944 C 287.976 1.85057 -0.936413 0
M  V30 2945 C 288.401 1.81055 0.509971 0
M  V30 2946 O 287.759 1.1958 1.36273 0
M  V30 2947 C 287.807 3.30505 -1.44217 0
M  V30 2948 O 286.911 4.07491 -0.634409 0
M  V30 2949 H 286.252 0.573425 -0.334784 0
M  V30 2950 H 288.782 1.36799 -1.52142 0
M  V30 2951 H 288.792 3.81348 -1.45043 0
M  V30 2952 H 287.467 3.32734 -2.49522 0
M  V30 2953 H 286.044 3.66368 -0.694902 0
M  V30 2954 N 288.23 0.939286 1.26551 0
M  V30 2955 C 289.16 0.465044 2.28822 0
M  V30 2956 C 290.141 -0.480692 1.63167 0
M  V30 2957 O 291.326 -0.382955 1.90387 0
M  V30 2958 C 288.456 -0.27234 3.46231 0
M  V30 2959 C 287.41 0.58666 4.2396 0
M  V30 2960 C 286.736 -0.280573 5.33963 0
M  V30 2961 C 288.036 1.85704 4.88171 0
M  V30 2962 H 289.73 1.31979 2.68741 0
M  V30 2963 H 287.276 0.636061 1.29191 0
M  V30 2964 H 289.229 -0.615133 4.16886 0
M  V30 2965 H 287.953 -1.16121 3.0526 0
M  V30 2966 H 286.612 0.91232 3.55067 0
M  V30 2967 H 286.26 -1.16874 4.89234 0
M  V30 2968 H 285.96 0.29076 5.8688 0
M  V30 2969 H 287.484 -0.618678 6.07458 0
M  V30 2970 H 288.898 1.58161 5.51052 0
M  V30 2971 H 287.295 2.37279 5.51197 0
M  V30 2972 H 288.365 2.56957 4.11219 0
M  V30 2973 N 289.708 -1.40897 0.706093 0
M  V30 2974 C 290.671 -2.29131 0.0562841 0
M  V30 2975 C 291.671 -1.44901 -0.697166 0
M  V30 2976 O 292.861 -1.65926 -0.530484 0
M  V30 2977 C 289.993 -3.27957 -0.93043 0
M  V30 2978 H 291.186 -2.88091 0.833284 0
M  V30 2979 H 288.739 -1.4906 0.470192 0
M  V30 2980 H 289.474 -2.73997 -1.73482 0
M  V30 2981 H 289.259 -3.90124 -0.393166 0
M  V30 2982 H 290.749 -3.94049 -1.38256 0
M  V30 2983 N 291.186 -0.45159 -1.50991 0
M  V30 2984 C 292.434 0.109857 -2.01801 0
M  V30 2985 C 292.755 1.41958 -1.3369 0
M  V30 2986 O 292.025 1.9003 -0.475951 0
M  V30 2987 H 290.605 0.0435884 -0.745727 0
M  V30 2988 H 293.267 -0.597557 -1.85514 0
M  V30 2989 H 292.363 0.275489 -3.10882 0
M  V30 2990 N 292.664 1.56529 -0.183458 0
M  V30 2991 C 293.574 2.22144 0.754272 0
M  V30 2992 C 294.59 1.21684 1.24374 0
M  V30 2993 O 295.766 1.54385 1.29333 0
M  V30 2994 C 292.831 2.85884 1.96141 0
M  V30 2995 C 291.892 4.01579 1.51765 0
M  V30 2996 C 291.125 4.6227 2.66725 0
M  V30 2997 O 291.348 4.21865 3.83909 0
M  V30 2998 O 290.282 5.51936 2.40104 0
M  V30 2999 H 294.108 3.02861 0.225527 0
M  V30 3000 H 291.693 1.49331 0.0453032 0
M  V30 3001 H 293.575 3.26253 2.66715 0
M  V30 3002 H 292.25 2.08154 2.47899 0
M  V30 3003 H 291.157 3.65856 0.781049 0
M  V30 3004 H 292.49 4.80938 1.04686 0
M  V30 3005 N 294.142 -0.090211 1.57342 0
M  V30 3006 C 295.419 -0.824761 1.77361 0
M  V30 3007 C 295.799 -1.96698 0.76637 0
M  V30 3008 O 295.147 -2.27586 -0.204179 0
M  V30 3009 C 295.357 -1.31481 3.23286 0
M  V30 3010 C 296.705 -1.75563 3.86604 0
M  V30 3011 O 297.729 -1.41093 3.27065 0
M  V30 3012 O 296.588 -2.39317 4.91314 0
M  V30 3013 H 293.682 -0.393776 0.727234 0
M  V30 3014 H 296.228 -0.0717138 1.69548 0
M  V30 3015 H 295 -0.496671 3.88135 0
M  V30 3016 H 294.623 -2.12973 3.35751 0
M  V30 3017 N 295.62 -1.53406 -0.361157 0
M  V30 3018 C 297.031 -1.61442 -0.937728 0
M  V30 3019 C 297.382 -0.48461 -1.90121 0
M  V30 3020 O 296.507 0.388312 -2.12888 0
M  V30 3021 C 297.102 -2.92624 -1.70753 0
M  V30 3022 C 295.661 -3.02981 -2.23337 0
M  V30 3023 C 294.808 -2.5677 -1.04712 0
M  V30 3024 H 297.759 -1.58083 -0.139816 0
M  V30 3025 H 297.78 -2.80675 -2.56908 0
M  V30 3026 H 297.292 -3.74834 -1.00604 0
M  V30 3027 H 295.393 -2.25368 -2.96715 0
M  V30 3028 H 295.506 -4.0814 -2.50916 0
M  V30 3029 H 293.87 -2.11752 -1.41539 0
M  V30 3030 H 294.653 -3.41402 -0.360539 0
M  V30 3031 N 297.098 0.621204 -1.44841 0
M  V30 3032 C 298.326 1.40752 -1.51646 0
M  V30 3033 C 298.741 1.88246 -0.144549 0
M  V30 3034 O 298.098 1.61422 0.851416 0
M  V30 3035 C 298.149 2.62119 -2.4895 0
M  V30 3036 O 297.87 2.16602 -3.80808 0
M  V30 3037 C 299.371 3.55135 -2.65319 0
M  V30 3038 H 296.591 0.431325 -0.514004 0
M  V30 3039 H 299.135 0.758835 -1.899 0
M  V30 3040 H 297.29 3.23058 -2.13805 0
M  V30 3041 H 297.704 2.95358 -4.33433 0
M  V30 3042 H 299.178 4.36874 -3.37409 0
M  V30 3043 H 299.655 4.04592 -1.70886 0
M  V30 3044 H 300.261 3.00058 -3.01405 0
M  V30 3045 N 298.576 1.31904 0.862503 0
M  V30 3046 C 299.523 1.20182 1.9704 0
M  V30 3047 C 300.493 0.0858247 1.65878 0
M  V30 3048 O 301.678 0.26 1.8902 0
M  V30 3049 C 298.818 0.922797 3.32533 0
M  V30 3050 C 297.931 2.12284 3.76244 0
M  V30 3051 C 297.066 1.77996 5.00491 0
M  V30 3052 C 296.105 2.94366 5.36671 0
M  V30 3053 N 295.242 2.60223 6.52095 0
M  V30 3054 H 300.082 2.14951 2.06398 0
M  V30 3055 H 297.619 1.06917 1.01031 0
M  V30 3056 H 299.577 0.741548 4.10557 0
M  V30 3057 H 298.207 0.0119227 3.22798 0
M  V30 3058 H 297.259 2.41461 2.9394 0
M  V30 3059 H 298.571 2.99357 3.98982 0
M  V30 3060 H 297.725 1.56377 5.862 0
M  V30 3061 H 296.464 0.881252 4.79672 0
M  V30 3062 H 295.469 3.16625 4.49476 0
M  V30 3063 H 296.694 3.84957 5.59451 0
M  V30 3064 H 294.64 1.72884 6.32809 0
M  V30 3065 H 294.557 3.40827 6.74814 0
M  V30 3066 H 295.825 2.42016 7.40978 0
M  V30 3067 N 300.054 -1.07777 1.14986 0
M  V30 3068 C 300.984 -2.16865 0.865557 0
M  V30 3069 C 301.965 -1.69123 -0.182083 0
M  V30 3070 O 303.15 -1.94164 -0.0373815 0
M  V30 3071 C 300.28 -3.45539 0.349313 0
M  V30 3072 C 299.234 -4.06708 1.33313 0
M  V30 3073 C 298.56 -5.30411 0.675918 0
M  V30 3074 C 299.86 -4.47241 2.69764 0
M  V30 3075 H 301.554 -2.40905 1.77778 0
M  V30 3076 H 299.1 -1.15781 0.856203 0
M  V30 3077 H 301.053 -4.21174 0.137983 0
M  V30 3078 H 299.777 -3.21072 -0.598362 0
M  V30 3079 H 298.436 -3.33112 1.53075 0
M  V30 3080 H 298.084 -5.02232 -0.277767 0
M  V30 3081 H 297.784 -5.72293 1.33244 0
M  V30 3082 H 299.308 -6.08755 0.474262 0
M  V30 3083 H 300.722 -5.14025 2.53873 0
M  V30 3084 H 299.119 -5.00062 3.3175 0
M  V30 3085 H 300.189 -3.58818 3.26156 0
M  V30 3086 N 301.532 -0.945985 -1.26051 0
M  V30 3087 C 302.48 -0.450259 -2.282 0
M  V30 3088 C 303.474 0.47497 -1.62605 0
M  V30 3089 O 304.68 0.352653 -1.76512 0
M  V30 3090 H 301.055 -0.127081 -0.741184 0
M  V30 3091 H 303.026 -1.32422 -2.67408 0
M  V30 3092 C 301.775 0.26467 -3.46691 0
M  V30 3093 H 301.098 -0.438123 -3.97392 0
M  V30 3094 H 302.538 0.575678 -4.20074 0
M  V30 3095 C 300.997 1.48416 -3.02447 0
M  V30 3096 O 301.527 2.58227 -3.07704 0
M  V30 3097 N 299.733 1.34243 -2.57735 0
M  V30 3098 H 299.28 0.448994 -2.53657 0
M  V30 3099 H 299.238 2.15957 -2.28495 0
M  V30 3100 N 303.011 1.40521 -0.713556 0
M  V30 3101 C 303.961 2.27971 -0.036165 0
M  V30 3102 C 304.945 1.43151 0.734623 0
M  V30 3103 O 306.137 1.66261 0.607158 0
M  V30 3104 C 303.266 3.31661 0.886331 0
M  V30 3105 C 302.352 4.23955 0.110836 0
M  V30 3106 N 302.743 4.97641 -0.904847 0
M  V30 3107 C 301.041 4.44674 0.343692 0
M  V30 3108 C 301.742 5.65322 -1.37064 0
M  V30 3109 N 300.718 5.39162 -0.693168 0
M  V30 3110 H 304.52 2.82384 -0.814645 0
M  V30 3111 H 302.034 1.52948 -0.545963 0
M  V30 3112 H 304.031 3.93154 1.38692 0
M  V30 3113 H 302.691 2.78808 1.66421 0
M  V30 3114 H 303.702 5.01689 -1.28563 0
M  V30 3115 H 300.379 4.02801 1.09805 0
M  V30 3116 H 301.769 6.34359 -2.21447 0
M  V30 3117 N 304.489 0.459591 1.5075 0
M  V30 3118 C 305.452 -0.329093 2.26825 0
M  V30 3119 C 306.452 -0.930481 1.31144 0
M  V30 3120 O 307.642 -0.801453 1.54669 0
M  V30 3121 C 304.774 -1.46768 3.07688 0
M  V30 3122 H 305.967 0.337924 2.9799 0
M  V30 3123 H 303.52 0.213336 1.54837 0
M  V30 3124 H 304.255 -2.17009 2.40993 0
M  V30 3125 H 304.04 -1.04238 3.77991 0
M  V30 3126 H 305.53 -2.02433 3.65254 0
M  V30 3127 N 305.967 -1.56429 0.191757 0
M  V30 3128 C 307.213 -1.97777 -0.448554 0
M  V30 3129 C 307.546 -1.07847 -1.61501 0
M  V30 3130 O 306.821 -0.129774 -1.94067 0
M  V30 3131 C 307.104 -3.48362 -0.911906 0
M  V30 3132 C 306.957 -4.4907 0.256136 0
M  V30 3133 C 308.276 -4.02561 -1.77857 0
M  V30 3134 H 305.395 -0.719071 -0.161572 0
M  V30 3135 H 308.037 -1.87896 0.282007 0
M  V30 3136 H 306.187 -3.56914 -1.53442 0
M  V30 3137 H 307.859 -4.5256 0.893733 0
M  V30 3138 H 306.102 -4.24181 0.908436 0
M  V30 3139 H 306.773 -5.51889 -0.11053 0
M  V30 3140 H 309.249 -3.96767 -1.25359 0
M  V30 3141 H 308.125 -5.08301 -2.07174 0
M  V30 3142 H 308.386 -3.47616 -2.73158 0
M  V30 3143 N 307.445 0.0818655 -1.57387 0
M  V30 3144 C 308.408 1.08265 -2.02018 0
M  V30 3145 C 309.408 1.32183 -0.915664 0
M  V30 3146 O 310.598 1.28073 -1.18081 0
M  V30 3147 C 307.73 2.42871 -2.39221 0
M  V30 3148 H 308.923 0.698204 -2.91659 0
M  V30 3149 H 306.476 0.327303 -1.52835 0
M  V30 3150 H 307.211 2.86167 -1.52575 0
M  V30 3151 H 306.996 2.26855 -3.19811 0
M  V30 3152 H 308.486 3.14826 -2.74362 0
M  V30 3153 N 308.923 1.53595 0.353017 0
M  V30 3154 C 310.171 1.70049 1.09215 0
M  V30 3155 C 310.492 0.461406 1.89463 0
M  V30 3156 O 309.762 -0.524633 1.88744 0
M  V30 3157 H 308.342 0.626912 0.40619 0
M  V30 3158 H 311.004 1.90822 0.396585 0
M  V30 3159 H 310.1 2.56718 1.77488 0
M  V30 3160 N 310.401 -0.613514 1.45168 0
M  V30 3161 C 311.331 -1.7354 1.56225 0
M  V30 3162 C 312.312 -1.64981 0.41414 0
M  V30 3163 O 313.497 -1.83472 0.636526 0
M  V30 3164 C 310.627 -3.12128 1.52295 0
M  V30 3165 C 309.581 -3.35491 2.65762 0
M  V30 3166 C 308.907 -4.74291 2.46885 0
M  V30 3167 C 310.207 -3.26325 4.0781 0
M  V30 3168 H 311.901 -1.64543 2.50132 0
M  V30 3169 H 309.447 -0.790185 1.20383 0
M  V30 3170 H 311.4 -3.90404 1.58628 0
M  V30 3171 H 310.124 -3.2195 0.549139 0
M  V30 3172 H 308.783 -2.59603 2.58847 0
M  V30 3173 H 308.431 -4.80839 1.47657 0
M  V30 3174 H 308.131 -4.9088 3.22972 0
M  V30 3175 H 309.655 -5.54775 2.55063 0
M  V30 3176 H 311.069 -3.94483 4.16 0
M  V30 3177 H 309.466 -3.54445 4.8424 0
M  V30 3178 H 310.536 -2.23855 4.30136 0
M  V30 3179 N 311.879 -1.3236 -0.855495 0
M  V30 3180 C 313.104 -1.2601 -1.64731 0
M  V30 3181 C 313.529 0.169068 -1.87339 0
M  V30 3182 O 312.887 1.12016 -1.42556 0
M  V30 3183 C 312.935 -2.02417 -2.98429 0
M  V30 3184 O 312.039 -1.3714 -3.8893 0
M  V30 3185 H 311.38 -0.434325 -0.502253 0
M  V30 3186 H 313.91 -1.74661 -1.06558 0
M  V30 3187 H 313.92 -2.12559 -3.48257 0
M  V30 3188 H 312.595 -3.06343 -2.81295 0
M  V30 3189 H 311.172 -1.3554 -3.47395 0
M  V30 3190 N 313.357 1.07166 -1.15556 0
M  V30 3191 C 314.289 2.14341 -0.811815 0
M  V30 3192 C 315.302 1.61835 0.177015 0
M  V30 3193 O 316.491 1.78439 -0.0464996 0
M  V30 3194 C 313.591 3.38387 -0.186481 0
M  V30 3195 C 312.764 4.20238 -1.21321 0
M  V30 3196 C 311.823 5.2266 -0.609302 0
M  V30 3197 O 310.849 5.54719 -1.27576 0
M  V30 3198 N 312.051 5.77306 0.608099 0
M  V30 3199 H 314.816 2.44431 -1.73417 0
M  V30 3200 H 312.377 1.23089 -1.0517 0
M  V30 3201 H 314.369 4.04044 0.230339 0
M  V30 3202 H 312.939 3.05994 0.639249 0
M  V30 3203 H 312.159 3.50369 -1.80652 0
M  V30 3204 H 313.447 4.71736 -1.90638 0
M  V30 3205 H 312.845 5.53513 1.1679 0
M  V30 3206 H 311.402 6.44583 0.96725 0
M  V30 3207 N 314.835 0.952656 1.25548 0
M  V30 3208 C 316.081 0.607272 1.93494 0
M  V30 3209 C 316.414 -0.853245 1.74452 0
M  V30 3210 O 315.689 -1.61194 1.08843 0
M  V30 3211 C 315.972 0.96435 3.46947 0
M  V30 3212 C 315.825 2.48045 3.75225 0
M  V30 3213 C 317.144 0.487987 4.37386 0
M  V30 3214 H 314.263 0.222096 0.702739 0
M  V30 3215 H 316.905 1.18895 1.48203 0
M  V30 3216 H 315.055 0.469361 3.85654 0
M  V30 3217 H 316.727 3.04905 3.46166 0
M  V30 3218 H 314.97 2.919 3.209 0
M  V30 3219 H 315.641 2.6808 4.82532 0
M  V30 3220 H 318.117 0.912558 4.0597 0
M  V30 3221 H 316.993 0.766547 5.43521 0
M  V30 3222 H 317.254 -0.612063 4.37843 0
M  V30 3223 N 316.313 -1.40141 0.720998 0
M  V30 3224 C 317.559 -2.01572 0.272075 0
M  V30 3225 C 317.914 -1.5616 -1.12391 0
M  V30 3226 O 317.207 -0.774198 -1.75262 0
M  V30 3227 C 317.401 -3.56165 0.296892 0
M  V30 3228 C 317.23 -4.16584 1.69375 0
M  V30 3229 C 316 -4.49783 2.30269 0
M  V30 3230 C 318.198 -4.41076 2.64493 0
M  V30 3231 N 316.18 -4.95626 3.62254 0
M  V30 3232 C 317.551 -4.88971 3.81192 0
M  V30 3233 C 319.606 -4.23122 2.62435 0
M  V30 3234 C 318.309 -5.20796 4.96149 0
M  V30 3235 C 320.335 -4.56052 3.76524 0
M  V30 3236 C 319.697 -5.04141 4.91956 0
M  V30 3237 H 315.796 -0.768343 0.145511 0
M  V30 3238 H 318.38 -1.70287 0.943959 0
M  V30 3239 H 316.551 -3.86868 -0.344578 0
M  V30 3240 H 318.283 -4.04346 -0.169254 0
M  V30 3241 H 315.038 -4.37101 1.82318 0
M  V30 3242 H 315.462 -5.22923 4.29977 0
M  V30 3243 H 320.104 -3.85158 1.74393 0
M  V30 3244 H 317.822 -5.57672 5.84831 0
M  V30 3245 H 321.408 -4.43796 3.76213 0
M  V30 3246 H 320.288 -5.29142 5.78774 0
M  V30 3247 N 317.792 -0.46758 -1.50504 0
M  V30 3248 C 318.724 0.364655 -2.26281 0
M  V30 3249 C 319.737 0.960151 -1.31472 0
M  V30 3250 O 320.926 0.849153 -1.57008 0
M  V30 3251 C 318.026 1.52509 -3.02645 0
M  V30 3252 C 317.199 1.04302 -4.24782 0
M  V30 3253 C 316.258 2.07709 -4.8347 0
M  V30 3254 O 315.284 1.65913 -5.44483 0
M  V30 3255 N 316.486 3.40485 -4.70159 0
M  V30 3256 H 319.251 -0.28495 -2.98342 0
M  V30 3257 H 316.812 -0.298163 -1.59131 0
M  V30 3258 H 318.804 2.21371 -3.38787 0
M  V30 3259 H 317.374 2.07945 -2.33404 0
M  V30 3260 H 316.594 0.180393 -3.93787 0
M  V30 3261 H 317.882 0.698798 -5.03978 0
M  V30 3262 H 317.28 3.77155 -4.21629 0
M  V30 3263 H 315.837 4.05156 -5.1058 0
M  V30 3264 N 319.27 1.56325 -0.20005 0
M  V30 3265 C 320.5 2.01811 0.442232 0
M  V30 3266 C 320.908 1.07932 1.55394 0
M  V30 3267 O 320.251 0.0772685 1.83537 0
M  V30 3268 C 320.313 3.43685 1.05457 0
M  V30 3269 C 319.977 4.56928 0.0809833 0
M  V30 3270 C 320.974 5.15009 -0.711471 0
M  V30 3271 C 318.659 5.0229 -0.0315364 0
M  V30 3272 C 320.653 6.16904 -1.60336 0
M  V30 3273 C 318.34 6.04028 -0.926981 0
M  V30 3274 C 319.338 6.6121 -1.71146 0
M  V30 3275 O 319.026 7.60971 -2.59189 0
M  V30 3276 H 318.758 0.666173 0.114848 0
M  V30 3277 H 321.312 2.03085 -0.307511 0
M  V30 3278 H 319.542 3.39413 1.85299 0
M  V30 3279 H 321.231 3.72948 1.60201 0
M  V30 3280 H 321.997 4.80827 -0.634873 0
M  V30 3281 H 317.876 4.57476 0.568902 0
M  V30 3282 H 321.42 6.61464 -2.21611 0
M  V30 3283 H 317.317 6.37634 -1.00468 0
M  V30 3284 H 318.085 7.7841 -2.53023 0
M  V30 3285 N 320.748 -0.0735177 1.57428 0
M  V30 3286 C 321.994 -0.774145 1.87443 0
M  V30 3287 C 322.327 -1.77311 0.792103 0
M  V30 3288 O 321.602 -1.93492 -0.197793 0
M  V30 3289 C 321.885 -1.48367 3.28115 0
M  V30 3290 C 321.738 -0.501227 4.46999 0
M  V30 3291 C 323.057 -2.429 3.66998 0
M  V30 3292 H 320.176 -0.279971 0.681752 0
M  V30 3293 H 322.818 -0.0373616 1.89963 0
M  V30 3294 H 320.968 -2.11171 3.26097 0
M  V30 3295 H 322.64 0.121468 4.6114 0
M  V30 3296 H 320.883 0.183593 4.33411 0
M  V30 3297 H 321.554 -1.03526 5.42205 0
M  V30 3298 H 324.03 -1.90175 3.70098 0
M  V30 3299 H 322.906 -2.89549 4.66318 0
M  V30 3300 H 323.167 -3.27628 2.96837 0
M  V30 3301 N 322.226 -1.5378 -0.344866 0
M  V30 3302 C 323.454 -1.74899 -1.10534 0
M  V30 3303 C 323.869 -0.487534 -1.82397 0
M  V30 3304 O 323.226 0.540741 -1.74305 0
M  V30 3305 C 323.277 -2.92822 -2.11984 0
M  V30 3306 O 322.998 -4.14089 -1.43044 0
M  V30 3307 C 324.499 -3.25982 -3.00417 0
M  V30 3308 H 321.719 -0.584426 -0.329678 0
M  V30 3309 H 324.263 -2.006 -0.397474 0
M  V30 3310 H 322.418 -2.69457 -2.78338 0
M  V30 3311 H 322.832 -4.80272 -2.10805 0
M  V30 3312 H 324.306 -4.11848 -3.67539 0
M  V30 3313 H 324.783 -2.42228 -3.66363 0
M  V30 3314 H 325.389 -3.51349 -2.39654 0
M  V30 3315 N 323.704 0.605807 -1.45491 0
M  V30 3316 C 324.929 1.39625 -1.53361 0
M  V30 3317 C 325.354 1.87351 -0.167645 0
M  V30 3318 O 324.712 1.60243 0.848051 0
M  V30 3319 C 324.76 2.57559 -2.5238 0
M  V30 3320 O 323.864 3.58248 -2.04285 0
M  V30 3321 H 323.205 0.416771 -0.516912 0
M  V30 3322 H 325.735 0.737103 -1.90861 0
M  V30 3323 H 325.745 3.0478 -2.71244 0
M  V30 3324 H 324.42 2.22171 -3.51586 0
M  V30 3325 H 322.997 3.17664 -1.95305 0
M  V30 3326 N 325.182 1.32811 0.848464 0
M  V30 3327 C 326.43 1.23479 1.59991 0
M  V30 3328 C 326.751 -0.201853 1.93952 0
M  V30 3329 O 326.021 -1.12818 1.60153 0
M  V30 3330 H 324.601 0.454034 0.593179 0
M  V30 3331 H 327.263 1.66412 1.01455 0
M  V30 3332 H 326.359 1.82178 2.53412 0
M  V30 3333 N 326.66 -1.06551 1.16123 0
M  V30 3334 C 327.937 -1.76097 0.85142 0
M  V30 3335 C 328.317 -2.00802 -0.6513 0
M  V30 3336 O 327.665 -1.63302 -1.59827 0
M  V30 3337 C 327.875 -3.06384 1.67122 0
M  V30 3338 C 329.223 -3.80585 1.88255 0
M  V30 3339 O 330.247 -3.16218 1.63966 0
M  V30 3340 O 329.106 -4.96212 2.2899 0
M  V30 3341 H 326.2 -0.765102 0.313923 0
M  V30 3342 H 328.746 -1.12844 1.26745 0
M  V30 3343 H 327.518 -2.84071 2.69108 0
M  V30 3344 H 327.141 -3.77371 1.25206 0
M  V30 3345 N 328.138 -0.959301 -1.25041 0
M  V30 3346 C 329.386 -0.615393 -1.92503 0
M  V30 3347 C 329.707 0.850969 -1.75452 0
M  V30 3348 O 328.977 1.60658 -1.12098 0
M  V30 3349 H 327.557 -0.224613 -0.712431 0
M  V30 3350 H 330.219 -1.21855 -1.5211 0
M  V30 3351 H 329.315 -0.848738 -3.00338 0
M  V30 3352 N 329.616 1.39756 -0.72842 0
M  V30 3353 C 330.865 1.99879 -0.270407 0
M  V30 3354 C 331.178 1.58449 1.14688 0
M  V30 3355 O 332.384 2.11362 1.70407 0
M  V30 3356 C 330.84 3.57292 -0.43252 0
M  V30 3357 C 330.448 4.07688 -1.85727 0
M  V30 3358 C 332.192 4.24485 -0.0359507 0
M  V30 3359 C 330.099 5.5765 -1.96928 0
M  V30 3360 H 329.029 0.747689 -0.0973472 0
M  V30 3361 H 331.68 1.59837 -0.901355 0
M  V30 3362 H 330.062 3.95097 0.267219 0
M  V30 3363 H 331.236 3.81231 -2.58843 0
M  V30 3364 H 329.551 3.53135 -2.20646 0
M  V30 3365 H 332.148 5.34609 -0.0987484 0
M  V30 3366 H 332.491 4.03915 1.00787 0
M  V30 3367 H 333.024 3.9183 -0.686604 0
M  V30 3368 H 329.763 5.8309 -2.99476 0
M  V30 3369 H 329.283 5.8593 -1.28241 0
M  V30 3370 H 330.962 6.22957 -1.74737 0
M  V30 3371 N 331.094 0.475555 1.50254 0
M  V30 3372 C 332.341 -0.0778919 2.0235 0
M  V30 3373 C 332.669 -1.39319 1.35722 0
M  V30 3374 O 331.924 -1.89888 0.473395 0
M  V30 3375 C 332.223 -0.305114 3.56095 0
M  V30 3376 C 331.889 0.92903 4.41225 0
M  V30 3377 C 330.551 1.26739 4.6421 0
M  V30 3378 C 332.903 1.75054 4.90923 0
M  V30 3379 C 330.231 2.42724 5.34137 0
M  V30 3380 C 332.583 2.9017 5.62125 0
M  V30 3381 C 331.247 3.24416 5.83362 0
M  V30 3382 H 330.517 -0.0285027 0.740452 0
M  V30 3383 H 333.164 0.630543 1.80821 0
M  V30 3384 H 331.469 -1.09584 3.76163 0
M  V30 3385 H 333.166 -0.747377 3.93974 0
M  V30 3386 H 329.756 0.655428 4.23559 0
M  V30 3387 H 333.94 1.50231 4.73016 0
M  V30 3388 H 329.196 2.69525 5.48786 0
M  V30 3389 H 333.37 3.54169 5.99614 0
M  V30 3390 H 330.997 4.14396 6.37323 0
M  V30 3391 N 332.573 -1.56217 0.208337 0
M  V30 3392 C 333.989 -1.58919 -0.14729 0
M  V30 3393 C 334.189 -1.22486 -1.59998 0
M  V30 3394 O 333.245 -0.953849 -2.3379 0
M  V30 3395 C 334.558 -3.00236 0.167048 0
M  V30 3396 C 336.106 -3.12813 0.108219 0
M  V30 3397 C 336.581 -4.56284 0.396049 0
M  V30 3398 N 338.072 -4.61912 0.345142 0
M  V30 3399 C 338.807 -5.70837 0.541523 0
M  V30 3400 N 338.303 -6.88178 0.798968 0
M  V30 3401 N 340.096 -5.60091 0.474867 0
M  V30 3402 H 332.247 -1.78177 1.15614 0
M  V30 3403 H 334.51 -0.827555 0.462446 0
M  V30 3404 H 334.216 -3.31499 1.1748 0
M  V30 3405 H 334.09 -3.7354 -0.524184 0
M  V30 3406 H 336.477 -2.81354 -0.890157 0
M  V30 3407 H 336.558 -2.41866 0.832729 0
M  V30 3408 H 336.202 -4.88458 1.3918 0
M  V30 3409 H 336.132 -5.25439 -0.349502 0
M  V30 3410 H 338.623 -3.77589 0.153316 0
M  V30 3411 H 338.936 -7.67095 0.93727 0
M  V30 3412 H 337.281 -6.89953 0.836013 0
M  V30 3413 H 340.472 -4.67297 0.274064 0
M  V30 3414 H 340.645 -6.44917 0.631326 0
M  V30 3415 N 334.051 0.0651679 -1.57465 0
M  V30 3416 C 335.328 0.79644 -1.78651 0
M  V30 3417 C 335.708 1.95454 -0.797566 0
M  V30 3418 O 335.056 2.27882 0.167946 0
M  V30 3419 C 335.266 1.26322 -3.25337 0
M  V30 3420 C 336.614 1.6939 -3.89348 0
M  V30 3421 O 337.638 1.35872 -3.29268 0
M  V30 3422 O 336.497 2.31471 -4.95059 0
M  V30 3423 H 333.591 0.382157 -0.733407 0
M  V30 3424 H 336.137 0.0447311 -1.69641 0
M  V30 3425 H 334.909 0.434859 -3.88876 0
M  V30 3426 H 334.532 2.07604 -3.39096 0
M  V30 3427 N 335.529 1.53961 0.336706 0
M  V30 3428 C 336.777 1.71197 1.07405 0
M  V30 3429 C 337.098 0.481475 1.88962 0
M  V30 3430 O 336.368 -0.504585 1.8929 0
M  V30 3431 H 334.948 0.631185 0.399517 0
M  V30 3432 H 337.61 1.91232 0.376323 0
M  V30 3433 H 336.706 2.58587 1.74755 0
M  V30 3434 N 337.007 -0.598083 1.45811 0
M  V30 3435 C 338.232 -1.3881 1.54099 0
M  V30 3436 C 338.657 -1.8726 0.177578 0
M  V30 3437 O 338.015 -1.6069 -0.839541 0
M  V30 3438 C 338.063 -2.56217 2.53743 0
M  V30 3439 O 337.167 -3.5716 2.06182 0
M  V30 3440 H 336.508 -0.414024 0.519115 0
M  V30 3441 H 339.038 -0.726971 1.91249 0
M  V30 3442 H 339.048 -3.03337 2.72856 0
M  V30 3443 H 337.723 -2.20303 3.5276 0
M  V30 3444 H 336.3 -3.16624 1.96987 0
M  V30 3445 N 338.485 -1.33259 -0.841409 0
M  V30 3446 C 339.732 -1.24572 -1.5965 0
M  V30 3447 C 340.06 0.189137 -1.93578 0
M  V30 3448 O 339.315 1.14566 -1.5866 0
M  V30 3449 C 339.614 -2.06381 -2.9179 0
M  V30 3450 C 339.28 -3.556 -2.77235 0
M  V30 3451 C 337.942 -3.96282 -2.72973 0
M  V30 3452 C 340.294 -4.50433 -2.62221 0
M  V30 3453 C 337.622 -5.30017 -2.51592 0
M  V30 3454 C 339.974 -5.84327 -2.42374 0
M  V30 3455 C 338.638 -6.24194 -2.36512 0
M  V30 3456 H 337.908 -0.455842 -0.5842 0
M  V30 3457 H 340.555 -1.6482 -0.975016 0
M  V30 3458 H 338.86 -1.58903 -3.5813 0
M  V30 3459 H 340.557 -1.97019 -3.49263 0
M  V30 3460 H 337.147 -3.23298 -2.81384 0
M  V30 3461 H 341.331 -4.19914 -2.64549 0
M  V30 3462 H 336.587 -5.59947 -2.45499 0
M  V30 3463 H 340.761 -6.57414 -2.29739 0
M  V30 3464 H 338.388 -7.27759 -2.19706 0
M  V30 3465 N 339.963 1.05934 -1.16686 0
M  V30 3466 C 341.212 1.78188 -0.945085 0
M  V30 3467 C 341.525 1.88338 0.528021 0
M  V30 3468 O 342.731 2.57258 0.867799 0
M  V30 3469 C 341.187 3.20277 -1.64167 0
M  V30 3470 C 340.795 3.18281 -3.15279 0
M  V30 3471 C 342.539 3.97039 -1.502 0
M  V30 3472 C 340.446 4.55112 -3.7766 0
M  V30 3473 H 339.376 0.667866 -0.349959 0
M  V30 3474 H 342.027 1.18794 -1.39858 0
M  V30 3475 H 340.409 3.79952 -1.11589 0
M  V30 3476 H 341.583 2.68167 -3.74731 0
M  V30 3477 H 339.898 2.55018 -3.29173 0
M  V30 3478 H 342.495 4.98194 -1.94183 0
M  V30 3479 H 342.838 4.13845 -0.451461 0
M  V30 3480 H 343.371 3.43894 -1.99954 0
M  V30 3481 H 340.11 4.43512 -4.82677 0
M  V30 3482 H 339.63 5.05406 -3.22994 0
M  V30 3483 H 341.309 5.24064 -3.79428 0
M  V30 3484 N 341.441 0.965919 1.2453 0
M  V30 3485 C 342.373 0.452465 2.2469 0
M  V30 3486 C 343.386 -0.437821 1.56802 0
M  V30 3487 O 344.575 -0.244283 1.76821 0
M  V30 3488 C 341.675 -0.366258 3.36915 0
M  V30 3489 C 340.848 0.513701 4.34373 0
M  V30 3490 C 339.907 -0.248716 5.25612 0
M  V30 3491 O 338.933 0.356745 5.68081 0
M  V30 3492 N 340.135 -1.53877 5.59734 0
M  V30 3493 H 342.9 1.31361 2.69378 0
M  V30 3494 H 340.461 0.837541 1.38553 0
M  V30 3495 H 342.453 -0.884297 3.94921 0
M  V30 3496 H 341.023 -1.12832 2.91526 0
M  V30 3497 H 340.243 1.21273 3.75082 0
M  V30 3498 H 341.531 1.11391 4.96457 0
M  V30 3499 H 340.929 -2.05243 5.27154 0
M  V30 3500 H 339.486 -2.00254 6.20275 0
M  V30 3501 N 342.919 -1.39368 0.735821 0
M  V30 3502 C 343.869 -2.27885 0.0724287 0
M  V30 3503 C 344.853 -1.44301 -0.711756 0
M  V30 3504 O 346.045 -1.67206 -0.58063 0
M  V30 3505 C 343.174 -3.33029 -0.833454 0
M  V30 3506 C 342.26 -4.24078 -0.0433749 0
M  V30 3507 N 342.651 -4.96138 0.983903 0
M  V30 3508 C 340.949 -4.45164 -0.272905 0
M  V30 3509 C 341.65 -5.63069 1.4604 0
M  V30 3510 N 340.626 -5.37991 0.778857 0
M  V30 3511 H 344.428 -2.81052 0.859467 0
M  V30 3512 H 341.942 -1.5206 0.570227 0
M  V30 3513 H 343.939 -3.95311 -1.32419 0
M  V30 3514 H 342.599 -2.81421 -1.61964 0
M  V30 3515 H 343.61 -4.9958 1.36528 0
M  V30 3516 H 340.287 -4.04497 -1.03383 0
M  V30 3517 H 341.677 -6.30755 2.31511 0
M  V30 3518 N 344.397 -0.483516 -1.5 0
M  V30 3519 C 345.622 0.0667119 -2.07293 0
M  V30 3520 C 346.047 1.3164 -1.3436 0
M  V30 3521 O 345.405 1.76945 -0.394987 0
M  V30 3522 C 345.453 0.321126 -3.59167 0
M  V30 3523 O 344.557 1.39927 -3.87936 0
M  V30 3524 H 343.898 -0.0184758 -0.663743 0
M  V30 3525 H 346.428 -0.678125 -1.93035 0
M  V30 3526 H 346.438 0.557906 -4.04168 0
M  V30 3527 H 345.113 -0.592007 -4.11665 0
M  V30 3528 H 343.69 1.14882 -3.54763 0
M  V30 3529 N 345.875 1.56104 -0.216619 0
M  V30 3530 C 347.103 2.02563 0.421413 0
M  V30 3531 C 347.518 1.0965 1.53695 0
M  V30 3532 O 346.875 0.10521 1.82196 0
M  V30 3533 C 346.926 3.48584 0.957665 0
M  V30 3534 O 346.647 4.37953 -0.113389 0
M  V30 3535 C 348.148 4.10664 1.66943 0
M  V30 3536 H 345.368 0.662944 0.103665 0
M  V30 3537 H 347.912 2.01793 -0.331629 0
M  V30 3538 H 346.067 3.49985 1.661 0
M  V30 3539 H 346.481 5.23704 0.288932 0
M  V30 3540 H 347.955 5.14622 1.99671 0
M  V30 3541 H 348.432 3.55373 2.58083 0
M  V30 3542 H 349.038 4.13098 1.01142 0
M  V30 3543 N 347.353 -0.0568162 1.57498 0
M  V30 3544 C 348.581 -0.765626 1.92213 0
M  V30 3545 C 348.996 -1.70353 0.813961 0
M  V30 3546 O 348.353 -1.81268 -0.211701 0
M  V30 3547 C 348.404 -1.5465 3.2675 0
M  V30 3548 O 348.125 -0.646278 4.33307 0
M  V30 3549 C 349.626 -2.35497 3.75574 0
M  V30 3550 H 346.846 -0.216835 0.634999 0
M  V30 3551 H 349.39 -0.0226146 2.04487 0
M  V30 3552 H 347.545 -2.24165 3.15957 0
M  V30 3553 H 347.959 -1.19093 5.108 0
M  V30 3554 H 349.433 -2.85722 4.72299 0
M  V30 3555 H 349.91 -3.15692 3.05344 0
M  V30 3556 H 350.516 -1.7111 3.8936 0
M  V30 3557 N 348.832 -1.54138 -0.328536 0
M  V30 3558 C 350.243 -1.63395 -0.903272 0
M  V30 3559 C 350.594 -0.524828 -1.8905 0
M  V30 3560 O 349.719 0.343068 -2.13663 0
M  V30 3561 C 350.314 -2.9618 -1.64507 0
M  V30 3562 C 348.873 -3.0765 -2.1686 0
M  V30 3563 C 348.02 -2.58933 -0.992416 0
M  V30 3564 H 350.971 -1.58344 -0.106253 0
M  V30 3565 H 350.992 -2.86061 -2.50897 0
M  V30 3566 H 350.504 -3.76884 -0.926302 0
M  V30 3567 H 348.605 -2.31611 -2.91868 0
M  V30 3568 H 348.718 -4.1337 -2.42202 0
M  V30 3569 H 347.082 -2.14706 -1.37016 0
M  V30 3570 H 347.865 -3.42089 -0.288041 0
M  V30 3571 N 350.31 0.590341 -1.46126 0
M  V30 3572 C 351.54 1.37304 -1.54373 0
M  V30 3573 C 351.948 1.88332 -0.181071 0
M  V30 3574 O 351.291 1.63852 0.830559 0
M  V30 3575 C 351.353 2.6012 -2.48149 0
M  V30 3576 C 351.017 2.30613 -3.94546 0
M  V30 3577 C 352.014 1.89915 -4.83971 0
M  V30 3578 C 349.699 2.42993 -4.39613 0
M  V30 3579 C 351.693 1.61981 -6.16475 0
M  V30 3580 C 349.38 2.14672 -5.72153 0
M  V30 3581 C 350.378 1.7423 -6.60404 0
M  V30 3582 O 350.066 1.46251 -7.90485 0
M  V30 3583 H 349.798 0.426086 -0.524811 0
M  V30 3584 H 352.352 0.72539 -1.92165 0
M  V30 3585 H 350.582 3.27664 -2.05361 0
M  V30 3586 H 352.271 3.22182 -2.46887 0
M  V30 3587 H 353.037 1.79872 -4.50412 0
M  V30 3588 H 348.916 2.73435 -3.71153 0
M  V30 3589 H 352.46 1.30341 -6.85315 0
M  V30 3590 H 348.357 2.24337 -6.05263 0
M  V30 3591 H 349.125 1.6016 -8.02677 0
M  V30 3592 N 351.788 1.33704 0.83433 0
M  V30 3593 C 353.016 1.28467 1.62185 0
M  V30 3594 C 353.431 -0.143526 1.88254 0
M  V30 3595 O 352.788 -1.08709 1.4659 0
M  V30 3596 C 352.839 2.06174 2.96942 0
M  V30 3597 O 352.56 3.43422 2.72016 0
M  V30 3598 C 354.061 2.08201 3.91366 0
M  V30 3599 H 351.281 0.4424 0.504503 0
M  V30 3600 H 353.825 1.76145 1.03891 0
M  V30 3601 H 351.98 1.62167 3.51825 0
M  V30 3602 H 352.394 3.83453 3.57861 0
M  V30 3603 H 353.868 2.67017 4.83121 0
M  V30 3604 H 354.345 1.07343 4.2588 0
M  V30 3605 H 354.951 2.52246 3.42421 0
M  V30 3606 N 353.266 -1.05314 1.17247 0
M  V30 3607 C 354.514 -1.77941 0.958194 0
M  V30 3608 C 354.835 -1.88089 -0.514556 0
M  V30 3609 O 354.105 -1.39676 -1.37359 0
M  V30 3610 H 352.685 -0.659116 0.351533 0
M  V30 3611 H 355.347 -1.27166 1.47699 0
M  V30 3612 H 354.443 -2.79663 1.38546 0
M  V30 3613 N 354.744 -0.972509 -1.24016 0
M  V30 3614 C 355.969 -0.654417 -1.96805 0
M  V30 3615 C 356.394 0.770398 -1.716 0
M  V30 3616 O 355.752 1.52361 -0.982647 0
M  V30 3617 C 355.8 -0.941031 -3.48105 0
M  V30 3618 O 354.904 -0.0289472 -4.1239 0
M  V30 3619 H 354.245 -0.24692 -0.616382 0
M  V30 3620 H 356.775 -1.30396 -1.57664 0
M  V30 3621 H 356.785 -0.87452 -3.98517 0
M  V30 3622 H 355.46 -1.97939 -3.65777 0
M  V30 3623 H 354.037 -0.149192 -3.72601 0
M  V30 3624 N 356.222 1.38976 -0.743202 0
M  V30 3625 C 357.452 2.04339 -0.304807 0
M  V30 3626 C 357.86 1.56162 1.06819 0
M  V30 3627 O 357.203 0.725284 1.68776 0
M  V30 3628 C 357.265 3.58716 -0.237369 0
M  V30 3629 C 356.929 4.29905 -1.55018 0
M  V30 3630 C 357.926 4.55987 -2.49744 0
M  V30 3631 C 355.611 4.68294 -1.81675 0
M  V30 3632 C 357.605 5.19478 -3.69353 0
M  V30 3633 C 355.292 5.31512 -3.0156 0
M  V30 3634 C 356.29 5.57037 -3.9522 0
M  V30 3635 O 355.978 6.18941 -5.12998 0
M  V30 3636 H 355.71 0.663439 -0.12971 0
M  V30 3637 H 358.264 1.78852 -1.01001 0
M  V30 3638 H 356.494 3.83133 0.524003 0
M  V30 3639 H 358.183 4.05543 0.170121 0
M  V30 3640 H 358.949 4.26767 -2.30423 0
M  V30 3641 H 354.828 4.47779 -1.09615 0
M  V30 3642 H 358.372 5.39318 -4.42473 0
M  V30 3643 H 354.269 5.60153 -3.20778 0
M  V30 3644 H 355.037 6.37433 -5.13441 0
M  V30 3645 N 357.7 0.491464 1.49741 0
M  V30 3646 C 358.948 -0.0563141 2.02022 0
M  V30 3647 C 359.269 -1.38363 1.37407 0
M  V30 3648 O 358.539 -1.88702 0.526166 0
M  V30 3649 H 357.119 -0.0238014 0.746621 0
M  V30 3650 H 359.781 0.646533 1.83864 0
M  V30 3651 H 358.877 -0.192967 3.11503 0
M  V30 3652 N 359.178 -1.55987 0.224894 0
M  V30 3653 C 360.424 -1.98684 -0.406502 0
M  V30 3654 C 360.757 -1.11248 -1.59177 0
M  V30 3655 O 360.032 -0.170909 -1.93748 0
M  V30 3656 C 360.315 -3.50218 -0.837808 0
M  V30 3657 C 360.168 -4.48426 0.351332 0
M  V30 3658 C 361.487 -4.06243 -1.69278 0
M  V30 3659 H 358.606 -0.722337 -0.146283 0
M  V30 3660 H 361.248 -1.87255 0.321799 0
M  V30 3661 H 359.398 -3.60089 -1.45837 0
M  V30 3662 H 361.07 -4.50562 0.989526 0
M  V30 3663 H 359.313 -4.22159 0.998207 0
M  V30 3664 H 359.984 -5.52 0.00655905 0
M  V30 3665 H 362.46 -3.99337 -1.16914 0
M  V30 3666 H 361.336 -5.12581 -1.96346 0
M  V30 3667 H 361.597 -3.53332 -2.65723 0
M  V30 3668 N 360.656 0.0484629 -1.57525 0
M  V30 3669 C 361.902 0.744226 -1.88651 0
M  V30 3670 C 362.235 1.76029 -0.820212 0
M  V30 3671 O 361.51 1.93782 0.166985 0
M  V30 3672 C 361.793 1.43128 -3.30434 0
M  V30 3673 C 361.646 0.43005 -4.47739 0
M  V30 3674 C 362.965 2.37031 -3.70816 0
M  V30 3675 H 360.084 0.269089 -0.68612 0
M  V30 3676 H 362.726 0.00713532 -1.89999 0
M  V30 3677 H 360.876 2.05956 -3.29415 0
M  V30 3678 H 362.548 -0.194816 -4.60888 0
M  V30 3679 H 360.791 -0.252522 -4.33064 0
M  V30 3680 H 361.462 0.948874 -5.43783 0
M  V30 3681 H 363.938 1.84263 -3.73077 0
M  V30 3682 H 362.814 2.82094 -4.70865 0
M  V30 3683 H 363.075 3.22864 -3.02012 0
M  V30 3684 N 362.134 1.5431 0.320358 0
M  V30 3685 C 363.064 1.86912 1.3995 0
M  V30 3686 C 364.045 0.726211 1.53819 0
M  V30 3687 O 365.23 0.980233 1.67646 0
M  V30 3688 C 362.36 2.09932 2.7667 0
M  V30 3689 C 361.314 3.25776 2.77586 0
M  V30 3690 C 360.64 3.34173 4.17412 0
M  V30 3691 C 361.94 4.6335 2.41048 0
M  V30 3692 H 363.634 2.77292 1.12914 0
M  V30 3693 H 361.18 1.33421 0.541738 0
M  V30 3694 H 363.133 2.31324 3.52232 0
M  V30 3695 H 361.857 1.16304 3.0519 0
M  V30 3696 H 360.516 3.04276 2.04479 0
M  V30 3697 H 360.164 2.38098 4.43078 0
M  V30 3698 H 359.864 4.12033 4.18931 0
M  V30 3699 H 361.388 3.57803 4.94782 0
M  V30 3700 H 362.802 4.84602 3.06324 0
M  V30 3701 H 361.199 5.43782 2.53813 0
M  V30 3702 H 362.269 4.65381 1.36193 0
M  V30 3703 N 363.613 -0.582584 1.46437 0
M  V30 3704 C 364.543 -1.70187 1.59871 0
M  V30 3705 C 365.524 -1.64066 0.449042 0
M  V30 3706 O 366.709 -1.82081 0.6753 0
M  V30 3707 C 363.839 -3.08827 1.58881 0
M  V30 3708 C 362.793 -3.29779 2.72819 0
M  V30 3709 C 362.119 -4.68947 2.5689 0
M  V30 3710 C 363.419 -3.17601 4.1464 0
M  V30 3711 H 365.113 -1.592 2.53566 0
M  V30 3712 H 362.659 -0.764472 1.22032 0
M  V30 3713 H 364.612 -3.86951 1.66873 0
M  V30 3714 H 363.336 -3.20713 0.617306 0
M  V30 3715 H 361.995 -2.54054 2.64296 0
M  V30 3716 H 361.643 -4.77599 1.57823 0
M  V30 3717 H 361.343 -4.83919 3.33312 0
M  V30 3718 H 362.867 -5.4924 2.66773 0
M  V30 3719 H 364.281 -3.8557 4.24274 0
M  V30 3720 H 362.678 -3.44094 4.9165 0
M  V30 3721 H 363.748 -2.14681 4.34788 0
M  V30 3722 N 365.091 -1.34144 -0.827227 0
M  V30 3723 C 366.319 -1.29325 -1.61501 0
M  V30 3724 C 366.734 0.13354 -1.88327 0
M  V30 3725 O 366.091 1.0793 -1.47164 0
M  V30 3726 C 366.142 -2.07746 -2.95844 0
M  V30 3727 O 365.863 -3.4486 -2.70191 0
M  V30 3728 C 367.364 -2.10273 -3.90256 0
M  V30 3729 H 364.584 -0.445069 -0.50215 0
M  V30 3730 H 367.128 -1.76693 -1.02955 0
M  V30 3731 H 365.283 -1.6403 -3.5096 0
M  V30 3732 H 365.697 -3.85345 -3.55822 0
M  V30 3733 H 367.171 -2.69575 -4.81698 0
M  V30 3734 H 367.648 -1.096 -4.25305 0
M  V30 3735 H 368.254 -2.54059 -3.41078 0
M  V30 3736 N 366.569 1.04691 -1.17803 0
M  V30 3737 C 367.817 1.7743 -0.967617 0
M  V30 3738 C 368.138 1.88359 0.504574 0
M  V30 3739 O 367.408 1.40402 1.36617 0
M  V30 3740 H 365.988 0.657242 -0.355024 0
M  V30 3741 H 368.65 1.2638 -1.48371 0
M  V30 3742 H 367.746 2.78924 -1.40027 0
M  V30 3743 N 368.047 0.979072 1.23499 0
M  V30 3744 C 368.977 0.537606 2.27227 0
M  V30 3745 C 369.958 -0.428539 1.64613 0
M  V30 3746 O 371.143 -0.322191 1.91509 0
M  V30 3747 C 368.273 -0.162052 3.46922 0
M  V30 3748 C 367.227 0.721242 4.21879 0
M  V30 3749 C 366.553 -0.110555 5.34586 0
M  V30 3750 C 367.853 2.01141 4.82016 0
M  V30 3751 H 369.547 1.40462 2.64406 0
M  V30 3752 H 367.093 0.67684 1.27102 0
M  V30 3753 H 369.046 -0.482192 4.18632 0
M  V30 3754 H 367.77 -1.06351 3.08799 0
M  V30 3755 H 366.429 1.02482 3.51984 0
M  V30 3756 H 366.077 -1.0125 4.92704 0
M  V30 3757 H 365.777 0.477325 5.85658 0
M  V30 3758 H 367.301 -0.425107 6.09118 0
M  V30 3759 H 368.715 1.75612 5.45741 0
M  V30 3760 H 367.112 2.54695 5.43369 0
M  V30 3761 H 368.182 2.69909 4.02836 0
M  V30 3762 N 369.525 -1.3858 0.750561 0
M  V30 3763 C 370.75 -2.04997 0.314812 0
M  V30 3764 C 371.175 -1.56235 -1.04749 0
M  V30 3765 O 370.533 -0.712981 -1.66692 0
M  V30 3766 C 370.581 -3.58961 0.343415 0
M  V30 3767 O 369.685 -4.07025 -0.663628 0
M  V30 3768 H 369.026 -0.649081 0.139962 0
M  V30 3769 H 371.556 -1.77313 1.02084 0
M  V30 3770 H 371.566 -4.07542 0.193233 0
M  V30 3771 H 370.241 -3.93811 1.33738 0
M  V30 3772 H 368.818 -3.6982 -0.478307 0
M  V30 3773 N 371.003 -0.499398 -1.49478 0
M  V30 3774 C 371.95 0.279881 -2.29097 0
M  V30 3775 C 372.92 0.961805 -1.3542 0
M  V30 3776 O 374.105 0.968777 -1.64376 0
M  V30 3777 C 371.245 1.33932 -3.18051 0
M  V30 3778 C 370.358 0.669333 -4.26783 0
M  V30 3779 C 369.493 1.70907 -5.02955 0
M  V30 3780 C 368.532 1.02087 -6.03527 0
M  V30 3781 N 367.669 2.00474 -6.7287 0
M  V30 3782 H 372.509 -0.405317 -2.95231 0
M  V30 3783 H 370.046 -0.211726 -1.45568 0
M  V30 3784 H 372.004 1.96553 -3.67998 0
M  V30 3785 H 370.634 1.9933 -2.53904 0
M  V30 3786 H 369.686 -0.0701234 -3.80335 0
M  V30 3787 H 370.998 0.127503 -4.98637 0
M  V30 3788 H 370.152 2.41037 -5.56764 0
M  V30 3789 H 368.891 2.28476 -4.30871 0
M  V30 3790 H 367.896 0.305338 -5.48951 0
M  V30 3791 H 369.121 0.451708 -6.77596 0
M  V30 3792 H 367.067 2.57007 -6.03559 0
M  V30 3793 H 366.984 1.51353 -7.40694 0
M  V30 3794 H 368.252 2.69897 -7.31284 0
M  V30 3795 N 372.481 1.55866 -0.233164 0
M  V30 3796 C 373.411 2.23783 0.666599 0
M  V30 3797 C 374.392 1.21343 1.19205 0
M  V30 3798 O 375.577 1.4996 1.23392 0
M  V30 3799 C 372.707 2.92671 1.86978 0
M  V30 3800 C 371.661 4.01682 1.47768 0
M  V30 3801 C 370.987 4.57926 2.76058 0
M  V30 3802 C 372.287 5.18126 0.658993 0
M  V30 3803 H 373.981 2.99232 0.100306 0
M  V30 3804 H 371.527 1.43924 0.046804 0
M  V30 3805 H 373.48 3.3888 2.50476 0
M  V30 3806 H 372.204 2.14688 2.46123 0
M  V30 3807 H 370.863 3.56222 0.866106 0
M  V30 3808 H 370.511 3.76659 3.33372 0
M  V30 3809 H 370.211 5.31505 2.50552 0
M  V30 3810 H 371.735 5.06859 3.40479 0
M  V30 3811 H 373.149 5.60644 1.19795 0
M  V30 3812 H 371.546 5.98009 0.500552 0
M  V30 3813 H 372.616 4.83763 -0.331856 0
M  V30 3814 N 373.959 -0.0401083 1.57549 0
M  V30 3815 C 375.206 -0.733125 1.88763 0
M  V30 3816 C 375.534 -1.75946 0.829058 0
M  V30 3817 O 374.789 -1.94949 -0.171323 0
M  V30 3818 C 375.088 -1.44902 3.26708 0
M  V30 3819 C 374.754 -0.559707 4.47413 0
M  V30 3820 C 373.416 -0.314731 4.8017 0
M  V30 3821 C 375.768 0.0549743 5.21171 0
M  V30 3822 C 373.096 0.553886 5.8408 0
M  V30 3823 C 375.448 0.911229 6.26003 0
M  V30 3824 C 374.112 1.16577 6.57241 0
M  V30 3825 H 373.382 -0.268269 0.690733 0
M  V30 3826 H 376.029 0.00679408 1.91499 0
M  V30 3827 H 374.334 -2.26197 3.1991 0
M  V30 3828 H 376.031 -1.99058 3.48105 0
M  V30 3829 H 372.621 -0.760793 4.21794 0
M  V30 3830 H 376.805 -0.121344 4.96152 0
M  V30 3831 H 372.061 0.759518 6.06664 0
M  V30 3832 H 376.235 1.3941 6.82303 0
M  V30 3833 H 373.862 1.84058 7.37582 0
M  V30 3834 N 375.437 -1.54477 -0.31217 0
M  V30 3835 C 376.662 -1.77526 -1.07235 0
M  V30 3836 C 377.087 -0.527775 -1.80544 0
M  V30 3837 O 376.445 0.52121 -1.73646 0
M  V30 3838 C 376.493 -2.97535 -2.03728 0
M  V30 3839 O 375.597 -2.69878 -3.11833 0
M  V30 3840 H 374.938 -0.58792 -0.30862 0
M  V30 3841 H 377.468 -2.01532 -0.352993 0
M  V30 3842 H 377.478 -3.25198 -2.46395 0
M  V30 3843 H 376.153 -3.87996 -1.49774 0
M  V30 3844 H 374.73 -2.53199 -2.7376 0
M  V30 3845 N 376.915 0.57481 -1.46744 0
M  V30 3846 C 377.845 1.69337 -1.60771 0
M  V30 3847 C 378.826 1.63825 -0.457736 0
M  V30 3848 O 380.011 1.8172 -0.684947 0
M  V30 3849 C 377.141 3.0798 -1.60517 0
M  V30 3850 C 376.095 3.28327 -2.74564 0
M  V30 3851 C 375.421 4.67578 -2.59373 0
M  V30 3852 C 376.721 3.15398 -4.16319 0
M  V30 3853 H 378.415 1.57853 -2.54407 0
M  V30 3854 H 375.961 0.75799 -1.22436 0
M  V30 3855 H 377.914 3.86061 -1.68923 0
M  V30 3856 H 376.638 3.20381 -0.634305 0
M  V30 3857 H 375.297 2.52649 -2.65639 0
M  V30 3858 H 374.945 4.76755 -1.60353 0
M  V30 3859 H 374.645 4.82144 -3.35873 0
M  V30 3860 H 376.169 5.47817 -2.69682 0
M  V30 3861 H 377.583 3.83315 -4.26313 0
M  V30 3862 H 375.98 3.41482 -4.93468 0
M  V30 3863 H 377.05 2.12372 -4.3592 0
M  V30 3864 N 378.394 1.34581 0.820102 0
M  V30 3865 C 379.324 1.29038 1.94606 0
M  V30 3866 C 380.305 0.1673 1.69275 0
M  V30 3867 O 381.49 0.360112 1.90832 0
M  V30 3868 C 378.62 1.04793 3.31113 0
M  V30 3869 C 377.574 2.13597 3.70891 0
M  V30 3870 C 376.9 1.74537 5.05412 0
M  V30 3871 C 378.2 3.55451 3.8269 0
M  V30 3872 H 379.894 2.23248 1.99501 0
M  V30 3873 H 377.44 1.0747 0.958449 0
M  V30 3874 H 379.393 0.995592 4.0947 0
M  V30 3875 H 378.117 0.0702565 3.26524 0
M  V30 3876 H 376.776 2.17905 2.9481 0
M  V30 3877 H 376.424 0.754226 4.97313 0
M  V30 3878 H 376.124 2.47361 5.32997 0
M  V30 3879 H 377.648 1.70803 5.86224 0
M  V30 3880 H 379.062 3.5354 4.51312 0
M  V30 3881 H 377.459 4.26922 4.21732 0
M  V30 3882 H 378.529 3.92587 2.84611 0
M  V30 3883 N 379.872 -1.04064 1.18357 0
M  V30 3884 C 381.12 -1.76915 0.977013 0
M  V30 3885 C 381.441 -1.88624 -0.494577 0
M  V30 3886 O 380.711 -1.41125 -1.3587 0
M  V30 3887 H 379.291 -0.65535 0.358504 0
M  V30 3888 H 381.953 -1.25592 1.49039 0
M  V30 3889 H 381.049 -2.78178 1.41504 0
M  V30 3890 N 381.35 -0.985608 -1.22978 0
M  V30 3891 C 382.598 -0.656087 -1.91154 0
M  V30 3892 C 382.919 0.813561 -1.77218 0
M  V30 3893 O 382.189 1.58244 -1.1548 0
M  V30 3894 H 380.769 -0.239674 -0.707506 0
M  V30 3895 H 383.431 -1.25054 -1.49491 0
M  V30 3896 H 382.527 -0.912253 -2.9847 0
M  V30 3897 N 382.828 1.3818 -0.7579 0
M  V30 3898 C 384.056 2.04301 -0.326937 0
M  V30 3899 C 384.471 1.57163 1.0462 0
M  V30 3900 O 383.828 0.746626 1.66529 0
M  V30 3901 C 383.879 3.59846 -0.345363 0
M  V30 3902 O 383.6 4.05256 -1.66432 0
M  V30 3903 C 385.101 4.4319 0.098927 0
M  V30 3904 H 382.321 0.656443 -0.139012 0
M  V30 3905 H 384.865 1.76786 -1.02796 0
M  V30 3906 H 383.02 3.86182 0.306955 0
M  V30 3907 H 383.434 4.99709 -1.59345 0
M  V30 3908 H 384.908 5.51989 0.0348745 0
M  V30 3909 H 385.385 4.23947 1.14741 0
M  V30 3910 H 385.991 4.22051 -0.52468 0
M  V30 3911 N 384.306 0.507319 1.49211 0
M  V30 3912 C 385.269 -0.256763 2.27757 0
M  V30 3913 C 386.269 -0.888287 1.34038 0
M  V30 3914 O 387.459 -0.751841 1.5714 0
M  V30 3915 C 384.591 -1.36905 3.12202 0
M  V30 3916 H 385.784 0.432557 2.96764 0
M  V30 3917 H 383.337 0.262488 1.5408 0
M  V30 3918 H 384.072 -2.09233 2.47775 0
M  V30 3919 H 383.857 -0.921599 3.81115 0
M  V30 3920 H 385.347 -1.9071 3.7151 0
M  V30 3921 N 385.784 -1.5574 0.241426 0
M  V30 3922 C 387.031 -1.9881 -0.384836 0
M  V30 3923 C 387.359 -1.12947 -1.58346 0
M  V30 3924 O 386.614 -0.178993 -1.9488 0
M  V30 3925 C 386.913 -3.47308 -0.843317 0
M  V30 3926 C 386.579 -4.50223 0.246946 0
M  V30 3927 C 385.241 -4.78088 0.546399 0
M  V30 3928 C 387.593 -5.11841 0.983282 0
M  V30 3929 C 384.921 -5.64846 1.58636 0
M  V30 3930 C 387.273 -5.99727 2.01272 0
M  V30 3931 C 385.937 -6.25927 2.31888 0
M  V30 3932 H 385.207 -0.727496 -0.140821 0
M  V30 3933 H 387.854 -1.8831 0.348106 0
M  V30 3934 H 386.159 -3.55112 -1.65537 0
M  V30 3935 H 387.856 -3.78017 -1.33806 0
M  V30 3936 H 384.446 -4.286 0.00340639 0
M  V30 3937 H 388.63 -4.90366 0.765182 0
M  V30 3938 H 383.886 -5.83403 1.82896 0
M  V30 3939 H 388.06 -6.46517 2.58823 0
M  V30 3940 H 385.687 -6.92949 3.12611 0
M  V30 3941 N 387.262 0.0317525 -1.57568 0
M  V30 3942 C 388.172 1.05021 -2.0978 0
M  V30 3943 C 389.188 1.39809 -1.03583 0
M  V30 3944 O 390.364 1.49182 -1.35302 0
M  V30 3945 C 387.429 2.33301 -2.56459 0
M  V30 3946 C 386.49 2.0512 -3.77127 0
M  V30 3947 C 385.723 3.27283 -4.2157 0
M  V30 3948 O 385.946 4.37861 -3.65559 0
M  V30 3949 O 384.88 3.13141 -5.14029 0
M  V30 3950 H 388.706 0.636505 -2.96955 0
M  V30 3951 H 386.291 0.248559 -1.47318 0
M  V30 3952 H 388.173 3.08722 -2.86825 0
M  V30 3953 H 386.848 2.73973 -1.72397 0
M  V30 3954 H 385.755 1.27276 -3.51784 0
M  V30 3955 H 387.088 1.69305 -4.62165 0
M  V30 3956 N 388.74 1.54641 0.303973 0
M  V30 3957 C 389.986 1.74038 1.04109 0
M  V30 3958 C 390.319 0.523051 1.87024 0
M  V30 3959 O 389.594 -0.479874 1.88487 0
M  V30 3960 C 389.877 3.02761 1.94955 0
M  V30 3961 C 389.73 4.34787 1.1524 0
M  V30 3962 C 391.049 3.27336 2.94175 0
M  V30 3963 H 388.168 0.63323 0.377079 0
M  V30 3964 H 390.81 1.87354 0.316001 0
M  V30 3965 H 388.96 2.9154 2.56782 0
M  V30 3966 H 390.632 4.57922 0.557236 0
M  V30 3967 H 388.875 4.31407 0.455053 0
M  V30 3968 H 389.546 5.21116 1.8205 0
M  V30 3969 H 392.022 3.38148 2.42477 0
M  V30 3970 H 390.898 4.18726 3.54908 0
M  V30 3971 H 391.159 2.45491 3.67677 0
M  V30 3972 N 390.218 -0.567019 1.47046 0
M  V30 3973 C 391.443 -1.3551 1.57009 0
M  V30 3974 C 391.868 -1.86841 0.217259 0
M  V30 3975 O 391.226 -1.62435 -0.805268 0
M  V30 3976 C 391.274 -2.50777 2.5912 0
M  V30 3977 O 390.378 -3.52706 2.13711 0
M  V30 3978 H 389.719 -0.402919 0.52778 0
M  V30 3979 H 392.249 -0.686241 1.92748 0
M  V30 3980 H 392.259 -2.97481 2.79229 0
M  V30 3981 H 390.934 -2.12771 3.57353 0
M  V30 3982 H 389.511 -3.12374 2.03659 0
M  V30 3983 N 391.696 -1.35014 -0.812953 0
M  V30 3984 C 392.973 -1.18502 -1.55617 0
M  V30 3985 C 393.353 0.238421 -2.09749 0
M  V30 3986 O 392.701 1.2411 -1.91857 0
M  V30 3987 C 392.911 -2.24783 -2.66971 0
M  V30 3988 C 394.259 -2.60268 -3.35478 0
M  V30 3989 O 395.283 -2.23648 -2.77236 0
M  V30 3990 O 394.142 -3.2321 -4.40678 0
M  V30 3991 H 391.236 -0.459984 -0.687272 0
M  V30 3992 H 393.782 -1.46677 -0.853464 0
M  V30 3993 H 392.554 -3.20284 -2.24798 0
M  V30 3994 H 392.177 -1.97841 -3.44884 0
M  V30 3995 N 393.175 1.03435 -1.18907 0
M  V30 3996 C 394.586 1.58195 -0.991523 0
M  V30 3997 C 394.937 1.90801 0.457081 0
M  V30 3998 O 394.062 1.70272 1.33553 0
M  V30 3999 C 394.657 2.87432 -1.79355 0
M  V30 4000 C 393.216 3.38785 -1.64017 0
M  V30 4001 C 392.363 2.12292 -1.78402 0
M  V30 4002 H 395.314 0.860299 -1.33359 0
M  V30 4003 H 395.335 3.58096 -1.28638 0
M  V30 4004 H 394.847 2.63669 -2.84781 0
M  V30 4005 H 392.948 3.67547 -0.611536 0
M  V30 4006 H 393.061 4.12186 -2.44212 0
M  V30 4007 H 391.425 2.23901 -1.2141 0
M  V30 4008 H 392.208 1.90977 -2.85277 0
M  V30 4009 N 394.653 0.992116 1.22453 0
M  V30 4010 C 395.881 0.685944 1.95198 0
M  V30 4011 C 396.296 -0.749233 1.73297 0
M  V30 4012 O 395.653 -1.50549 1.03156 0
M  V30 4013 C 395.704 0.981395 3.47924 0
M  V30 4014 O 395.425 2.36018 3.6909 0
M  V30 4015 C 396.926 0.692815 4.37853 0
M  V30 4016 H 394.146 0.253821 0.621141 0
M  V30 4017 H 396.69 1.32668 1.55626 0
M  V30 4018 H 394.845 0.386481 3.85467 0
M  V30 4019 H 395.259 2.45884 4.63294 0
M  V30 4020 H 396.733 0.949818 5.43767 0
M  V30 4021 H 397.21 -0.373181 4.37612 0
M  V30 4022 H 397.816 1.26874 4.05935 0
M  V30 4023 N 396.131 -1.37776 0.765217 0
M  V30 4024 C 397.547 -1.53297 0.444108 0
M  V30 4025 C 397.747 -1.72515 -1.04119 0
M  V30 4026 O 396.803 -1.74278 -1.82711 0
M  V30 4027 C 398.116 -2.73328 1.25349 0
M  V30 4028 C 399.664 -2.87185 1.24473 0
M  V30 4029 C 400.139 -4.10191 2.03733 0
M  V30 4030 N 401.63 -4.17291 2.01053 0
M  V30 4031 C 402.365 -5.11488 2.59166 0
M  V30 4032 N 401.861 -6.11285 3.26041 0
M  V30 4033 N 403.654 -5.03924 2.49032 0
M  V30 4034 H 395.805 -1.23552 1.72768 0
M  V30 4035 H 398.068 -0.601103 0.733062 0
M  V30 4036 H 397.774 -2.6557 2.30577 0
M  V30 4037 H 397.648 -3.66834 0.87823 0
M  V30 4038 H 400.035 -2.94418 0.20047 0
M  V30 4039 H 400.116 -1.94657 1.65959 0
M  V30 4040 H 399.76 -4.0372 3.08176 0
M  V30 4041 H 399.69 -5.01821 1.59633 0
M  V30 4042 H 402.181 -3.45825 1.5236 0
M  V30 4043 H 402.494 -6.79678 3.67774 0
M  V30 4044 H 400.839 -6.11583 3.30138 0
M  V30 4045 H 404.03 -4.24902 1.96407 0
M  V30 4046 H 404.203 -5.77152 2.94617 0
M  V30 4047 N 397.609 -0.515225 -1.4894 0
M  V30 4048 C 398.834 0.022727 -2.07388 0
M  V30 4049 C 399.259 1.2876 -1.37122 0
M  V30 4050 O 398.617 1.76067 -0.432431 0
M  V30 4051 C 398.665 0.244869 -3.59768 0
M  V30 4052 O 397.769 1.31667 -3.90817 0
M  V30 4053 H 397.11 -0.0325506 -0.663202 0
M  V30 4054 H 399.64 -0.718918 -1.91553 0
M  V30 4055 H 399.65 0.47205 -4.0526 0
M  V30 4056 H 398.325 -0.679194 -4.10317 0
M  V30 4057 H 396.902 1.07331 -3.5712 0
M  V30 4058 N 399.087 1.5561 -0.249682 0
M  V30 4059 C 400.336 1.98187 0.37479 0
M  V30 4060 C 400.649 1.14111 1.58865 0
M  V30 4061 O 401.855 1.46714 2.28445 0
M  V30 4062 C 400.311 3.52661 0.718192 0
M  V30 4063 C 399.919 4.45481 -0.474428 0
M  V30 4064 C 401.663 4.03888 1.3067 0
M  V30 4065 C 399.57 5.91303 -0.107026 0
M  V30 4066 H 398.5 0.740159 0.143808 0
M  V30 4067 H 401.151 1.80125 -0.350336 0
M  V30 4068 H 399.533 3.66429 1.50152 0
M  V30 4069 H 400.707 4.43473 -1.25172 0
M  V30 4070 H 399.022 4.04751 -0.978052 0
M  V30 4071 H 401.619 5.10358 1.59496 0
M  V30 4072 H 401.962 3.51401 2.23211 0
M  V30 4073 H 402.495 3.93457 0.586211 0
M  V30 4074 H 399.234 6.47833 -0.999642 0
M  V30 4075 H 398.754 5.9644 0.634013 0
M  V30 4076 H 400.433 6.46258 0.309807 0
M  V30 4077 N 400.565 -0.0233959 1.57583 0
M  V30 4078 C 401.812 -0.713063 1.8953 0
M  V30 4079 C 402.14 -1.75056 0.847673 0
M  V30 4080 O 401.395 -1.95119 -0.150636 0
M  V30 4081 C 401.694 -1.41428 3.28227 0
M  V30 4082 C 401.36 -0.512222 4.47981 0
M  V30 4083 C 400.022 -0.263785 4.80476 0
M  V30 4084 C 402.374 0.110248 5.21083 0
M  V30 4085 C 399.702 0.615804 5.83459 0
M  V30 4086 C 402.054 0.977573 6.25001 0
M  V30 4087 C 400.718 1.23542 6.55968 0
M  V30 4088 H 399.988 -0.260928 0.69354 0
M  V30 4089 H 402.635 0.0271047 1.91481 0
M  V30 4090 H 400.94 -2.22791 3.22291 0
M  V30 4091 H 402.637 -1.95355 3.50196 0
M  V30 4092 H 399.227 -0.716013 4.22577 0
M  V30 4093 H 403.411 -0.0687137 4.96252 0
M  V30 4094 H 398.667 0.82382 6.05824 0
M  V30 4095 H 402.841 1.46638 6.80786 0
M  V30 4096 H 400.468 1.91871 7.35588 0
M  V30 4097 N 402.043 -1.548 -0.295768 0
M  V30 4098 C 403.29 -1.74329 -1.03032 0
M  V30 4099 C 403.618 -0.531915 -1.87085 0
M  V30 4100 O 402.873 0.486052 -1.89568 0
M  V30 4101 C 403.172 -2.98797 -1.961 0
M  V30 4102 C 402.838 -4.32356 -1.2798 0
M  V30 4103 C 401.5 -4.68661 -1.09135 0
M  V30 4104 C 403.852 -5.15128 -0.793243 0
M  V30 4105 C 401.18 -5.85312 -0.403269 0
M  V30 4106 C 403.532 -6.32488 -0.118854 0
M  V30 4107 C 402.196 -6.6745 0.0815043 0
M  V30 4108 H 401.466 -0.637916 -0.37702 0
M  V30 4109 H 404.113 -1.8906 -0.304696 0
M  V30 4110 H 402.418 -2.78869 -2.75207 0
M  V30 4111 H 404.115 -3.11102 -2.53015 0
M  V30 4112 H 400.705 -4.03808 -1.43655 0
M  V30 4113 H 404.889 -4.87575 -0.92653 0
M  V30 4114 H 400.145 -6.1094 -0.237098 0
M  V30 4115 H 404.319 -6.95892 0.266035 0
M  V30 4116 H 401.946 -7.57695 0.616685 0
M  V30 4117 N 403.521 0.559213 -1.47345 0
M  V30 4118 C 404.798 1.31997 -1.44348 0
M  V30 4119 C 405.178 2.1064 -0.139358 0
M  V30 4120 O 404.526 2.1091 0.879153 0
M  V30 4121 C 404.736 2.22618 -2.68779 0
M  V30 4122 C 406.084 2.83701 -3.1591 0
M  V30 4123 O 407.108 2.32921 -2.69493 0
M  V30 4124 O 405.967 3.75993 -3.966 0
M  V30 4125 H 403.061 0.594251 -0.575147 0
M  V30 4126 H 405.607 0.578282 -1.59543 0
M  V30 4127 H 404.379 1.64093 -3.55231 0
M  V30 4128 H 404.002 3.04085 -2.5616 0
M  V30 4129 N 404.999 1.35443 0.805782 0
M  V30 4130 C 405.962 1.28301 1.89925 0
M  V30 4131 C 406.962 0.194285 1.59622 0
M  V30 4132 O 408.152 0.448036 1.6834 0
M  V30 4133 C 405.284 0.984997 3.2636 0
M  V30 4134 H 406.477 2.2553 1.97677 0
M  V30 4135 H 404.03 1.19979 1.00173 0
M  V30 4136 H 404.765 0.016603 3.24296 0
M  V30 4137 H 404.55 1.77269 3.4974 0
M  V30 4138 H 406.04 0.960651 4.064 0
M  V30 4139 N 406.477 -1.02803 1.19454 0
M  V30 4140 C 407.723 -1.76478 0.999171 0
M  V30 4141 C 408.056 -1.88456 -0.468828 0
M  V30 4142 O 407.331 -1.40198 -1.34814 0
M  V30 4143 C 407.614 -3.19044 1.66981 0
M  V30 4144 C 407.467 -3.14932 3.21151 0
M  V30 4145 C 408.786 -4.17456 1.39349 0
M  V30 4146 H 405.905 -0.640614 0.364393 0
M  V30 4147 H 408.547 -1.20005 1.47305 0
M  V30 4148 H 406.697 -3.67263 1.2669 0
M  V30 4149 H 408.369 -2.74605 3.70661 0
M  V30 4150 H 406.612 -2.52625 3.52652 0
M  V30 4151 H 407.283 -4.1566 3.63223 0
M  V30 4152 H 409.759 -3.77842 1.74283 0
M  V30 4153 H 408.635 -5.154 1.88823 0
M  V30 4154 H 408.896 -4.40949 0.318813 0
M  V30 4155 N 407.956 -0.998596 -1.21925 0
M  V30 4156 C 408.866 -0.562736 -2.27751 0
M  V30 4157 C 409.882 0.391203 -1.69545 0
M  V30 4158 O 411.058 0.256625 -1.99758 0
M  V30 4159 C 408.123 0.11012 -3.46525 0
M  V30 4160 C 407.184 -0.887495 -4.20026 0
M  V30 4161 C 406.417 -0.246654 -5.3313 0
M  V30 4162 O 406.64 0.958088 -5.62296 0
M  V30 4163 O 405.574 -0.954374 -5.94286 0
M  V30 4164 H 409.4 -1.44329 -2.67213 0
M  V30 4165 H 406.985 -0.767135 -1.28201 0
M  V30 4166 H 408.867 0.486756 -4.18579 0
M  V30 4167 H 407.542 0.965154 -3.08976 0
M  V30 4168 H 406.449 -1.31517 -3.5022 0
M  V30 4169 H 407.782 -1.71191 -4.6147 0
M  V30 4170 N 409.434 1.37368 -0.772513 0
M  V30 4171 C 410.682 1.99279 -0.336516 0
M  V30 4172 C 411.003 1.6163 1.09091 0
M  V30 4173 O 410.273 0.882109 1.74916 0
M  V30 4174 H 408.853 0.737063 -0.121435 0
M  V30 4175 H 411.515 1.67836 -0.990809 0
M  V30 4176 H 410.611 3.09332 -0.414763 0
M  V30 4177 N 410.912 0.523116 1.48665 0
M  V30 4178 C 412.137 -0.0117284 2.07397 0
M  V30 4179 C 412.562 -1.28031 1.37803 0
M  V30 4180 O 411.92 -1.75836 0.441762 0
M  V30 4181 C 411.968 -0.225786 3.59892 0
M  V30 4182 O 411.072 -1.29592 3.91509 0
M  V30 4183 H 410.413 0.0360673 0.66302 0
M  V30 4184 H 412.943 0.729066 1.9117 0
M  V30 4185 H 412.953 -0.450552 4.05505 0
M  V30 4186 H 411.628 0.700944 4.09951 0
M  V30 4187 H 410.205 -1.05436 3.57684 0
M  V30 4188 N 412.39 -1.55475 0.257931 0
M  V30 4189 C 413.637 -1.99207 -0.363728 0
M  V30 4190 C 413.965 -1.1462 -1.57139 0
M  V30 4191 O 413.22 -0.199653 -1.94679 0
M  V30 4192 C 413.519 -3.48183 -0.806433 0
M  V30 4193 C 413.185 -4.49936 0.294684 0
M  V30 4194 C 411.847 -4.77481 0.597076 0
M  V30 4195 C 414.199 -5.10769 1.03751 0
M  V30 4196 C 411.527 -5.63132 1.64618 0
M  V30 4197 C 413.879 -5.97558 2.07622 0
M  V30 4198 C 412.543 -6.23432 2.38514 0
M  V30 4199 H 411.813 -0.728949 -0.133097 0
M  V30 4200 H 414.46 -1.8793 0.368059 0
M  V30 4201 H 412.765 -3.56848 -1.61761 0
M  V30 4202 H 414.462 -3.79415 -1.29789 0
M  V30 4203 H 411.052 -4.28572 0.0488649 0
M  V30 4204 H 415.236 -4.89527 0.817149 0
M  V30 4205 H 410.492 -5.8143 1.89074 0
M  V30 4206 H 414.666 -6.43735 2.65666 0
M  V30 4207 H 412.293 -6.89594 3.19943 0
M  V30 4208 N 413.868 0.0150385 -1.57593 0
M  V30 4209 C 414.831 0.995996 -2.06428 0
M  V30 4210 C 415.831 1.2818 -0.970903 0
M  V30 4211 O 417.021 1.22949 -1.23406 0
M  V30 4212 C 414.153 2.32506 -2.49307 0
M  V30 4213 H 415.346 0.573873 -2.94358 0
M  V30 4214 H 412.899 0.262186 -1.54085 0
M  V30 4215 H 413.634 2.79438 -1.64575 0
M  V30 4216 H 413.419 2.13087 -3.29145 0
M  V30 4217 H 414.909 3.02906 -2.87468 0
M  V30 4218 N 415.346 1.54954 0.287554 0
M  V30 4219 C 416.757 1.65732 0.859634 0
M  V30 4220 C 417.108 0.574767 1.87592 0
M  V30 4221 O 416.233 -0.286299 2.14498 0
M  V30 4222 C 416.828 3.00438 1.56597 0
M  V30 4223 C 415.387 3.13292 2.08627 0
M  V30 4224 C 414.534 2.61473 0.923416 0
M  V30 4225 H 417.485 1.5857 0.0642338 0
M  V30 4226 H 417.506 2.92613 2.43224 0
M  V30 4227 H 417.018 3.79207 0.826053 0
M  V30 4228 H 415.119 2.39268 2.85625 0
M  V30 4229 H 415.232 4.19647 2.31157 0
M  V30 4230 H 413.596 2.18264 1.31275 0
M  V30 4231 H 414.379 3.42733 0.197241 0
M  V30 4232 N 416.824 -0.551391 1.4764 0
M  V30 4233 C 418.07 -1.31024 1.54792 0
M  V30 4234 C 418.403 -1.9304 0.211967 0
M  V30 4235 O 417.678 -1.78175 -0.77999 0
M  V30 4236 C 417.961 -2.41593 2.67029 0
M  V30 4237 C 417.814 -1.84408 4.10261 0
M  V30 4238 C 419.133 -3.43488 2.75143 0
M  V30 4239 H 416.252 -0.475031 0.563485 0
M  V30 4240 H 418.894 -0.616454 1.79722 0
M  V30 4241 H 417.044 -3.00772 2.45904 0
M  V30 4242 H 418.716 -1.29445 4.42766 0
M  V30 4243 H 416.959 -1.15051 4.18265 0
M  V30 4244 H 417.63 -2.64367 4.84576 0
M  V30 4245 H 420.106 -2.94236 2.94218 0
M  V30 4246 H 418.982 -4.18274 3.55441 0
M  V30 4247 H 419.243 -4.02703 1.82435 0
M  V30 4248 N 418.302 -1.35869 -0.798587 0
M  V30 4249 C 419.235 -1.23801 -1.91699 0
M  V30 4250 C 420.213 -0.124143 -1.62125 0
M  V30 4251 O 421.397 -0.293656 -1.86199 0
M  V30 4252 C 418.524 -0.908063 -3.263 0
M  V30 4253 C 417.57 -2.0351 -3.74815 0
M  V30 4254 S 418.403 -3.65183 -3.91665 0
M  V30 4255 C 419.559 -3.34283 -5.29156 0
M  V30 4256 H 419.792 -2.18466 -2.01643 0
M  V30 4257 H 417.325 -1.21178 -0.956833 0
M  V30 4258 H 419.283 -0.724506 -4.04056 0
M  V30 4259 H 417.944 0.0206584 -3.14093 0
M  V30 4260 H 417.137 -1.75858 -4.72324 0
M  V30 4261 H 416.739 -2.1774 -3.04081 0
M  V30 4262 H 419.031 -2.87607 -6.13424 0
M  V30 4263 H 419.974 -4.31022 -5.61806 0
M  V30 4264 H 420.382 -2.69854 -4.95822 0
M  V30 4265 N 419.78 1.02168 -1.19998 0
M  V30 4266 C 421.029 1.75091 -1.0013 0
M  V30 4267 C 421.342 1.89923 0.467835 0
M  V30 4268 O 422.548 2.59888 0.785515 0
M  V30 4269 C 421.004 3.14892 -1.74273 0
M  V30 4270 C 420.612 3.0809 -3.25245 0
M  V30 4271 C 422.356 3.9206 -1.62755 0
M  V30 4272 C 420.263 4.42867 -3.91948 0
M  V30 4273 H 419.193 0.656394 -0.37103 0
M  V30 4274 H 421.844 1.14284 -1.43567 0
M  V30 4275 H 420.226 3.7621 -1.2362 0
M  V30 4276 H 421.4 2.5611 -3.83072 0
M  V30 4277 H 419.715 2.44416 -3.3712 0
M  V30 4278 H 422.312 4.91764 -2.09934 0
M  V30 4279 H 422.655 4.12199 -0.582894 0
M  V30 4280 H 423.188 3.37359 -2.10793 0
M  V30 4281 H 419.927 4.27931 -4.96543 0
M  V30 4282 H 419.447 4.94874 -3.3891 0
M  V30 4283 H 421.126 5.11728 -3.95909 0
M  V30 4284 N 421.258 1.00505 1.21394 0
M  V30 4285 C 422.206 0.558623 2.25792 0
M  V30 4286 C 423.2 -0.396848 1.64686 0
M  V30 4287 O 424.406 -0.268035 1.77993 0
M  V30 4288 H 420.781 0.1623 0.734277 0
M  V30 4289 H 422.752 1.4503 2.60785 0
M  V30 4290 C 421.501 -0.0989574 3.47559 0
M  V30 4291 H 420.824 0.627225 3.94849 0
M  V30 4292 H 422.264 -0.3746 4.22342 0
M  V30 4293 C 420.723 -1.33817 3.09184 0
M  V30 4294 O 421.253 -2.43252 3.19674 0
M  V30 4295 N 419.459 -1.21793 2.63846 0
M  V30 4296 H 419.006 -0.32746 2.5551 0
M  V30 4297 H 418.964 -2.04809 2.38539 0
M  V30 4298 N 422.737 -1.36956 0.779787 0
M  V30 4299 C 423.985 -1.99097 0.347079 0
M  V30 4300 C 424.306 -1.62206 -1.08232 0
M  V30 4301 O 423.576 -0.891373 -1.74446 0
M  V30 4302 H 422.156 -0.736409 0.125342 0
M  V30 4303 H 424.818 -1.67308 0.999696 0
M  V30 4304 H 423.914 -3.09107 0.431162 0
M  V30 4305 N 424.215 -0.530993 -1.48385 0
M  V30 4306 C 425.178 0.220497 -2.28137 0
M  V30 4307 C 426.178 0.866851 -1.35434 0
M  V30 4308 O 427.368 0.726746 -1.58316 0
M  V30 4309 C 424.5 1.31921 -3.1434 0
M  V30 4310 H 425.693 -0.479714 -2.96038 0
M  V30 4311 H 423.246 -0.286968 -1.53643 0
M  V30 4312 H 423.981 2.05264 -2.51072 0
M  V30 4313 H 423.766 0.86085 -3.82533 0
M  V30 4314 H 425.256 1.84776 -3.74497 0
M  V30 4315 N 425.693 1.55336 -0.266172 0
M  V30 4316 C 426.626 2.18256 0.666296 0
M  V30 4317 C 427.604 1.14064 1.1588 0
M  V30 4318 O 428.788 1.42546 1.23341 0
M  V30 4319 C 425.915 2.79867 1.90768 0
M  V30 4320 C 424.961 3.97283 1.55141 0
M  V30 4321 S 425.794 5.31694 0.637313 0
M  V30 4322 C 426.95 5.96769 1.88727 0
M  V30 4323 H 427.183 2.97008 0.131647 0
M  V30 4324 H 424.716 1.54317 -0.0504869 0
M  V30 4325 H 426.674 3.15996 2.62025 0
M  V30 4326 H 425.335 2.01025 2.41346 0
M  V30 4327 H 424.528 4.3905 2.4749 0
M  V30 4328 H 424.13 3.6253 0.919113 0
M  V30 4329 H 426.422 6.15458 2.83227 0
M  V30 4330 H 427.365 6.91752 1.51276 0
M  V30 4331 H 427.773 5.26034 2.04814 0
M  V30 4332 N 427.171 -0.0066808 1.57599 0
M  V30 4333 C 428.134 -0.985035 2.06953 0
M  V30 4334 C 429.134 -1.27663 0.977687 0
M  V30 4335 O 430.324 -1.22293 1.24057 0
M  V30 4336 C 427.456 -2.3118 2.50536 0
M  V30 4337 H 428.649 -0.558255 2.94658 0
M  V30 4338 H 426.202 -0.254011 1.54222 0
M  V30 4339 H 426.937 -2.78561 1.66054 0
M  V30 4340 H 426.722 -2.11338 3.3027 0
M  V30 4341 H 428.212 -3.01377 2.8907 0
M  V30 4342 N 428.649 -1.55105 -0.279332 0
M  V30 4343 C 429.926 -1.66119 -1.03267 0
M  V30 4344 C 430.306 -0.523525 -2.04505 0
M  V30 4345 O 429.654 0.477194 -2.23462 0
M  V30 4346 C 429.864 -3.05067 -1.69515 0
M  V30 4347 C 431.212 -3.62606 -2.20912 0
M  V30 4348 O 432.236 -3.07659 -1.79512 0
M  V30 4349 O 431.095 -4.58861 -2.96831 0
M  V30 4350 H 428.189 -0.674429 -0.478618 0
M  V30 4351 H 430.735 -1.67446 -0.275694 0
M  V30 4352 H 429.507 -3.79311 -0.9612 0
M  V30 4353 H 429.13 -3.07611 -2.51915 0
M  V30 4354 N 430.127 0.543554 -1.4793 0
M  V30 4355 C 431.09 1.63156 -1.60975 0
M  V30 4356 C 432.09 1.53346 -0.483899 0
M  V30 4357 O 433.28 1.5726 -0.749339 0
M  V30 4358 C 430.412 3.02743 -1.56716 0
M  V30 4359 H 431.605 1.52934 -2.57975 0
M  V30 4360 H 429.158 0.764557 -1.36324 0
M  V30 4361 H 429.893 3.18484 -0.611418 0
M  V30 4362 H 429.678 3.11272 -2.38438 0
M  V30 4363 H 431.168 3.81871 -1.6901 0
M  V30 4364 N 431.605 1.3629 0.791371 0
M  V30 4365 C 432.851 1.30605 1.55146 0
M  V30 4366 C 433.184 -0.115042 1.93859 0
M  V30 4367 O 432.459 -1.06798 1.62556 0
M  V30 4368 C 432.742 2.22692 2.82985 0
M  V30 4369 C 432.595 3.73489 2.50651 0
M  V30 4370 C 433.914 2.13588 3.84796 0
M  V30 4371 H 431.033 0.475761 0.562868 0
M  V30 4372 H 433.675 1.66825 0.909358 0
M  V30 4373 H 431.825 1.91933 3.37778 0
M  V30 4374 H 433.497 4.14758 2.01924 0
M  V30 4375 H 431.74 3.93021 1.83622 0
M  V30 4376 H 432.411 4.3333 3.41949 0
M  V30 4377 H 434.887 2.40659 3.39445 0
M  V30 4378 H 433.763 2.80195 4.71998 0
M  V30 4379 H 434.024 1.12256 4.27611 0
M  V30 4380 N 433.083 -1.0153 1.20538 0
M  V30 4381 C 434.499 -1.27461 0.96051 0
M  V30 4382 C 434.699 -1.98273 -0.359193 0
M  V30 4383 O 433.755 -2.27886 -1.0874 0
M  V30 4384 C 435.068 -2.10837 2.14402 0
M  V30 4385 C 436.616 -2.24099 2.18515 0
M  V30 4386 C 437.091 -3.10852 3.36355 0
M  V30 4387 N 438.582 -3.18441 3.36377 0
M  V30 4388 C 439.317 -3.85795 4.24205 0
M  V30 4389 N 438.813 -4.55264 5.22213 0
M  V30 4390 N 440.606 -3.82331 4.12043 0
M  V30 4391 H 432.757 -0.539907 2.05423 0
M  V30 4392 H 435.02 -0.30092 0.898972 0
M  V30 4393 H 434.726 -1.66144 3.09983 0
M  V30 4394 H 434.6 -3.11576 2.12604 0
M  V30 4395 H 436.987 -2.68016 1.23497 0
M  V30 4396 H 437.068 -1.22865 2.24361 0
M  V30 4397 H 436.712 -2.6764 4.31661 0
M  V30 4398 H 436.642 -4.12177 3.27746 0
M  V30 4399 H 439.133 -2.68978 2.65442 0
M  V30 4400 H 439.446 -5.04331 5.85551 0
M  V30 4401 H 437.791 -4.54085 5.26148 0
M  V30 4402 H 440.982 -3.27207 3.34743 0
M  V30 4403 H 441.155 -4.34547 4.807 0
M  V30 4404 N 434.561 -1.01147 -1.20859 0
M  V30 4405 C 435.809 -0.696486 -1.89719 0
M  V30 4406 C 436.13 0.775788 -1.78904 0
M  V30 4407 O 435.4 1.55759 -1.18811 0
M  V30 4408 H 433.98 -0.254628 -0.702263 0
M  V30 4409 H 436.642 -1.28197 -1.46804 0
M  V30 4410 H 435.738 -0.975357 -2.96468 0
M  V30 4411 N 436.039 1.36541 -0.78704 0
M  V30 4412 C 437.455 1.52571 -0.46844 0
M  V30 4413 C 437.655 1.7415 1.01361 0
M  V30 4414 O 436.711 1.77163 1.79915 0
M  V30 4415 C 438.024 2.71299 -1.29682 0
M  V30 4416 C 439.572 2.85169 -1.29027 0
M  V30 4417 C 440.047 4.06898 -2.10233 0
M  V30 4418 N 441.538 4.1404 -2.07666 0
M  V30 4419 C 442.273 5.07301 -2.67271 0
M  V30 4420 N 441.769 6.06021 -3.35724 0
M  V30 4421 N 443.562 4.99898 -2.57018 0
M  V30 4422 H 435.713 1.20788 -1.74711 0
M  V30 4423 H 437.976 0.589364 -0.742532 0
M  V30 4424 H 437.682 2.61868 -2.34773 0
M  V30 4425 H 437.556 3.6539 -0.936479 0
M  V30 4426 H 439.943 2.94062 -0.247284 0
M  V30 4427 H 440.024 1.91992 -1.69035 0
M  V30 4428 H 439.668 3.98766 -3.1456 0
M  V30 4429 H 439.598 4.99218 -1.67597 0
M  V30 4430 H 442.089 3.43357 -1.57843 0
M  V30 4431 H 442.402 6.73741 -3.78541 0
M  V30 4432 H 440.747 6.06253 -3.39826 0
M  V30 4433 H 443.938 4.21724 -2.03142 0
M  V30 4434 H 444.111 5.72392 -3.03761 0
M  V30 4435 N 437.518 0.538854 1.48102 0
M  V30 4436 C 438.743 0.0102694 2.07397 0
M  V30 4437 C 439.168 -1.26562 1.39153 0
M  V30 4438 O 438.526 -1.75357 0.460387 0
M  V30 4439 C 438.574 -0.187602 3.60112 0
M  V30 4440 O 437.678 -1.25432 3.92862 0
M  V30 4441 H 437.019 0.0430975 0.6626 0
M  V30 4442 H 439.549 0.749301 1.90385 0
M  V30 4443 H 439.559 -0.407517 4.0596 0
M  V30 4444 H 438.234 0.744386 4.09184 0
M  V30 4445 H 436.811 -1.01636 3.58782 0
M  V30 4446 N 438.996 -1.55193 0.274407 0
M  V30 4447 C 440.245 -1.98758 -0.343213 0
M  V30 4448 C 440.558 -1.16624 -1.5703 0
M  V30 4449 O 441.764 -1.5033 -2.26082 0
M  V30 4450 C 440.22 -3.53759 -0.661996 0
M  V30 4451 C 439.828 -4.4467 0.54524 0
M  V30 4452 C 441.572 -4.05916 -1.24228 0
M  V30 4453 C 439.479 -5.91058 0.201084 0
M  V30 4454 H 438.409 -0.742353 -0.132014 0
M  V30 4455 H 441.06 -1.79545 0.378948 0
M  V30 4456 H 439.442 -3.68772 -1.44304 0
M  V30 4457 H 440.616 -4.41426 1.32212 0
M  V30 4458 H 438.931 -4.03143 1.04232 0
M  V30 4459 H 441.528 -5.12831 -1.51357 0
M  V30 4460 H 441.871 -3.54908 -2.17592 0
M  V30 4461 H 442.404 -3.9434 -0.523542 0
M  V30 4462 H 439.143 -6.46161 1.10258 0
M  V30 4463 H 438.663 -5.97373 -0.539045 0
M  V30 4464 H 440.342 -6.46669 -0.206954 0
M  V30 4465 N 440.474 -0.00167713 -1.576 0
M  V30 4466 C 441.699 0.69739 -1.95323 0
M  V30 4467 C 442.124 1.6642 -0.876706 0
M  V30 4468 O 441.482 1.80548 0.165007 0
M  V30 4469 C 441.53 1.40403 -3.32144 0
M  V30 4470 O 440.634 2.5185 -3.26566 0
M  V30 4471 H 439.975 0.185373 -0.637599 0
M  V30 4472 H 442.505 -0.0553665 -2.04525 0
M  V30 4473 H 442.515 1.76707 -3.67748 0
M  V30 4474 H 441.19 0.695167 -4.10049 0
M  V30 4475 H 439.767 2.17861 -3.0264 0
M  V30 4476 N 441.952 1.55251 0.271103 0
M  V30 4477 C 443.368 1.47133 0.618393 0
M  V30 4478 C 443.568 0.686994 1.89427 0
M  V30 4479 O 442.624 0.206609 2.51653 0
M  V30 4480 C 443.937 2.91361 0.743593 0
M  V30 4481 C 445.485 3.01587 0.837522 0
M  V30 4482 C 445.96 4.47073 0.994483 0
M  V30 4483 N 447.451 4.50909 1.05996 0
M  V30 4484 C 448.186 5.60698 1.20024 0
M  V30 4485 N 447.682 6.80348 1.30759 0
M  V30 4486 N 449.475 5.48444 1.23149 0
M  V30 4487 H 441.626 2.04698 -0.566784 0
M  V30 4488 H 443.889 0.928319 -0.192165 0
M  V30 4489 H 443.595 3.51483 -0.123493 0
M  V30 4490 H 443.469 3.40484 1.62328 0
M  V30 4491 H 445.856 2.4156 1.69507 0
M  V30 4492 H 445.937 2.55713 -0.0668086 0
M  V30 4493 H 445.581 5.07703 0.141582 0
M  V30 4494 H 445.511 4.90605 1.91349 0
M  V30 4495 H 448.002 3.6472 0.989316 0
M  V30 4496 H 448.315 7.59772 1.41303 0
M  V30 4497 H 446.66 6.83156 1.27761 0
M  V30 4498 H 449.851 4.53907 1.14394 0
M  V30 4499 H 450.024 6.34049 1.33738 0
M  V30 4500 N 443.43 -0.535701 1.48216 0
M  V30 4501 C 444.34 -1.66785 1.64985 0
M  V30 4502 C 445.356 -1.65654 0.532414 0
M  V30 4503 O 446.532 -1.8471 0.80275 0
M  V30 4504 C 443.597 -3.0326 1.68031 0
M  V30 4505 C 442.658 -3.1529 2.9136 0
M  V30 4506 C 441.891 -4.45255 2.94252 0
M  V30 4507 O 442.114 -5.32011 2.05719 0
M  V30 4508 O 441.048 -4.6153 3.86359 0
M  V30 4509 H 444.874 -1.55576 2.60825 0
M  V30 4510 H 442.459 -0.70815 1.31551 0
M  V30 4511 H 444.341 -3.84436 1.72589 0
M  V30 4512 H 443.016 -3.14805 0.753628 0
M  V30 4513 H 441.923 -2.3343 2.92337 0
M  V30 4514 H 443.256 -3.08658 3.83394 0
M  V30 4515 N 444.908 -1.36708 -0.784132 0
M  V30 4516 C 445.871 -1.31307 -1.87859 0
M  V30 4517 C 446.871 -0.219654 -1.59293 0
M  V30 4518 O 448.061 -0.47476 -1.67606 0
M  V30 4519 C 445.193 -1.03679 -3.24751 0
M  V30 4520 H 446.386 -2.28647 -1.94064 0
M  V30 4521 H 443.939 -1.21558 -0.98252 0
M  V30 4522 H 444.674 -0.0681936 -3.24228 0
M  V30 4523 H 444.459 -1.82811 -3.46876 0
M  V30 4524 H 445.949 -1.02518 -4.04821 0
M  V30 4525 N 446.386 1.0089 -1.21074 0
M  V30 4526 C 447.334 2.11707 -0.963476 0
M  V30 4527 C 448.328 1.69172 0.0879032 0
M  V30 4528 O 449.534 1.79889 -0.0631415 0
M  V30 4529 H 445.909 0.692026 -0.294287 0
M  V30 4530 H 447.88 2.29743 -1.90422 0
M  V30 4531 C 446.629 3.43473 -0.540509 0
M  V30 4532 H 445.952 3.76634 -1.34114 0
M  V30 4533 H 447.392 4.22044 -0.406777 0
M  V30 4534 C 445.851 3.2849 0.748079 0
M  V30 4535 O 446.381 3.58883 1.8046 0
M  V30 4536 N 444.587 2.81715 0.713081 0
M  V30 4537 H 444.134 2.5718 -0.146973 0
M  V30 4538 H 444.092 2.72071 1.57558 0
M  V30 4539 N 447.864 1.01787 1.20321 0
M  V30 4540 C 449.092 0.727194 1.937 0
M  V30 4541 C 449.507 -0.712305 1.74848 0
M  V30 4542 O 448.864 -1.48327 1.06327 0
M  V30 4543 C 448.915 1.05497 3.45764 0
M  V30 4544 O 448.636 2.43794 3.64 0
M  V30 4545 C 450.137 0.785534 4.36285 0
M  V30 4546 H 447.357 0.266939 0.615617 0
M  V30 4547 H 449.901 1.35939 1.52777 0
M  V30 4548 H 448.056 0.468158 3.84561 0
M  V30 4549 H 448.47 2.55656 4.57974 0
M  V30 4550 H 449.944 1.06495 5.4163 0
M  V30 4551 H 450.421 -0.280273 4.38305 0
M  V30 4552 H 451.027 1.35456 4.03152 0
M  V30 4553 N 449.342 -1.36122 0.79427 0
M  V30 4554 C 450.59 -1.98718 0.368177 0
M  V30 4555 C 450.911 -1.63345 -1.06506 0
M  V30 4556 O 450.181 -0.909825 -1.73491 0
M  V30 4557 H 448.761 -0.735038 0.133146 0
M  V30 4558 H 451.423 -1.66239 1.01739 0
M  V30 4559 H 450.519 -3.08633 0.463923 0
M  V30 4560 N 450.82 -0.546701 -1.47814 0
M  V30 4561 C 452.05 -0.0232519 -2.06587 0
M  V30 4562 C 452.458 1.2712 -1.40133 0
M  V30 4563 O 451.801 1.77091 -0.488305 0
M  V30 4564 C 451.863 0.254117 -3.58601 0
M  V30 4565 C 451.527 -0.949331 -4.47031 0
M  V30 4566 C 452.524 -1.85216 -4.85789 0
M  V30 4567 C 450.209 -1.16104 -4.88697 0
M  V30 4568 C 452.203 -2.95047 -5.65001 0
M  V30 4569 C 449.89 -2.26247 -5.67676 0
M  V30 4570 C 450.888 -3.1555 -6.05737 0
M  V30 4571 O 450.576 -4.23784 -6.83127 0
M  V30 4572 H 450.308 -0.0380082 -0.674931 0
M  V30 4573 H 452.862 -0.756631 -1.90956 0
M  V30 4574 H 451.092 1.04168 -3.72406 0
M  V30 4575 H 452.781 0.72167 -3.99433 0
M  V30 4576 H 453.547 -1.70061 -4.54207 0
M  V30 4577 H 449.426 -0.475159 -4.58545 0
M  V30 4578 H 452.97 -3.64778 -5.94628 0
M  V30 4579 H 448.867 -2.41379 -5.98671 0
M  V30 4580 H 449.635 -4.21701 -7.01506 0
M  V30 4581 N 452.299 1.55045 -0.282633 0
M  V30 4582 C 453.576 1.9179 0.384166 0
M  V30 4583 C 453.956 1.20778 1.73136 0
M  V30 4584 O 453.304 0.33719 2.25998 0
M  V30 4585 C 453.514 3.45149 0.517014 0
M  V30 4586 C 454.862 4.17064 0.796427 0
M  V30 4587 O 455.886 3.51084 0.601535 0
M  V30 4588 O 454.745 5.33837 1.16962 0
M  V30 4589 H 451.839 0.799483 0.211558 0
M  V30 4590 H 454.385 1.66474 -0.32934 0
M  V30 4591 H 453.157 3.88922 -0.430772 0
M  V30 4592 H 452.78 3.76443 1.2797 0
M  V30 4593 N 453.777 0.010035 1.57597 0
M  V30 4594 C 454.707 -0.976857 2.12084 0
M  V30 4595 C 455.688 -1.35191 1.03235 0
M  V30 4596 O 456.873 -1.43389 1.3097 0
M  V30 4597 C 454.003 -2.26548 2.63236 0
M  V30 4598 C 452.957 -2.03175 3.76701 0
M  V30 4599 C 452.283 -3.38138 4.14206 0
M  V30 4600 C 453.583 -1.38625 5.03568 0
M  V30 4601 H 455.277 -0.523145 2.94794 0
M  V30 4602 H 452.823 -0.250195 1.4181 0
M  V30 4603 H 454.776 -2.95952 2.99984 0
M  V30 4604 H 453.5 -2.74051 1.77661 0
M  V30 4605 H 452.159 -1.36195 3.40362 0
M  V30 4606 H 451.807 -3.83363 3.25641 0
M  V30 4607 H 451.507 -3.23312 4.90656 0
M  V30 4608 H 453.031 -4.08841 4.53521 0
M  V30 4609 H 454.445 -1.98 5.38023 0
M  V30 4610 H 452.842 -1.34256 5.84889 0
M  V30 4611 H 453.912 -0.356722 4.83586 0
M  V30 4612 N 455.255 -1.55392 -0.262866 0
M  V30 4613 C 456.503 -1.76127 -0.991147 0
M  V30 4614 C 456.824 -0.571083 -1.8645 0
M  V30 4615 O 456.094 0.413698 -1.91482 0
M  V30 4616 H 454.674 -0.649528 -0.368948 0
M  V30 4617 H 457.336 -1.9281 -0.284655 0
M  V30 4618 H 456.432 -2.6663 -1.62219 0
M  V30 4619 N 456.733 0.527833 -1.48498 0
M  V30 4620 C 457.696 1.61439 -1.62696 0
M  V30 4621 C 458.696 1.52824 -0.500136 0
M  V30 4622 O 459.886 1.56456 -0.765976 0
M  V30 4623 C 457.018 3.01063 -1.59918 0
M  V30 4624 H 458.211 1.50189 -2.59583 0
M  V30 4625 H 455.764 0.750055 -1.37127 0
M  V30 4626 H 456.499 3.17818 -0.645163 0
M  V30 4627 H 456.284 3.08725 -2.41726 0
M  V30 4628 H 457.774 3.80057 -1.73051 0
M  V30 4629 N 458.211 1.37122 0.776871 0
M  V30 4630 C 459.436 1.354 1.57104 0
M  V30 4631 C 459.861 -0.0595562 1.88006 0
M  V30 4632 O 459.219 -1.03514 1.48844 0
M  V30 4633 C 459.267 2.19472 2.8612 0
M  V30 4634 O 458.371 1.59582 3.80273 0
M  V30 4635 H 457.712 0.462869 0.476076 0
M  V30 4636 H 460.242 1.80577 0.961932 0
M  V30 4637 H 460.252 2.32502 3.35271 0
M  V30 4638 H 458.927 3.22222 2.62956 0
M  V30 4639 H 457.504 1.55564 3.38902 0
M  V30 4640 N 459.689 -1.00246 1.21608 0
M  V30 4641 C 460.652 -2.07233 0.979133 0
M  V30 4642 C 461.652 -1.6072 -0.0508219 0
M  V30 4643 O 462.842 -1.73196 0.186712 0
M  V30 4644 C 459.974 -3.37546 0.477016 0
M  V30 4645 H 461.167 -2.29687 1.92831 0
M  V30 4646 H 458.72 -1.17261 1.03342 0
M  V30 4647 H 459.455 -3.20773 -0.476966 0
M  V30 4648 H 459.24 -3.72638 1.21997 0
M  V30 4649 H 460.73 -4.16285 0.331181 0
M  V30 4650 N 461.167 -1.02423 -1.1978 0
M  V30 4651 C 462.416 -0.713265 -1.88667 0
M  V30 4652 C 462.729 0.7609 -1.80193 0
M  V30 4653 O 463.935 1.18473 -2.44288 0
M  V30 4654 C 462.391 -1.22545 -3.38394 0
M  V30 4655 C 461.999 -2.72706 -3.55437 0
M  V30 4656 C 463.743 -0.990257 -4.12788 0
M  V30 4657 C 461.65 -3.17367 -4.99031 0
M  V30 4658 H 460.58 -0.263105 -0.706606 0
M  V30 4659 H 463.231 -1.23792 -1.35454 0
M  V30 4660 H 461.613 -0.628732 -3.90977 0
M  V30 4661 H 462.787 -3.37993 -3.13205 0
M  V30 4662 H 461.102 -2.94453 -2.94425 0
M  V30 4663 H 463.699 -1.29926 -5.18675 0
M  V30 4664 H 464.042 0.0730761 -4.16236 0
M  V30 4665 H 464.575 -1.55074 -3.66329 0
M  V30 4666 H 461.314 -4.23009 -5.00743 0
M  V30 4667 H 460.834 -2.56805 -5.42044 0
M  V30 4668 H 462.513 -3.10441 -5.67658 0
M  V30 4669 N 462.645 1.35699 -0.801477 0
M  V30 4670 C 463.555 2.33661 -0.209691 0
M  V30 4671 C 464.571 1.6162 0.644591 0
M  V30 4672 O 465.747 1.93529 0.557545 0
M  V30 4673 C 462.812 3.40816 0.636033 0
M  V30 4674 C 461.873 4.28639 -0.238147 0
M  V30 4675 C 461.106 5.30676 0.567307 0
M  V30 4676 O 461.329 5.41174 1.8024 0
M  V30 4677 O 460.263 6.01887 -0.0391336 0
M  V30 4678 H 464.089 2.8606 -1.01996 0
M  V30 4679 H 461.674 1.38379 -0.563164 0
M  V30 4680 H 463.556 4.06301 1.11791 0
M  V30 4681 H 462.231 2.90696 1.42399 0
M  V30 4682 H 461.138 3.66152 -0.767044 0
M  V30 4683 H 462.471 4.82143 -0.989915 0
M  V30 4684 N 464.123 0.554532 1.47522 0
M  V30 4685 C 465.086 -0.184174 2.28459 0
M  V30 4686 C 466.086 -0.845195 1.36796 0
M  V30 4687 O 467.276 -0.701467 1.59452 0
M  V30 4688 C 464.408 -1.26903 3.16399 0
M  V30 4689 H 465.601 0.526751 2.95238 0
M  V30 4690 H 463.154 0.311375 1.53167 0
M  V30 4691 H 463.889 -2.01244 2.54306 0
M  V30 4692 H 463.674 -0.799883 3.83854 0
M  V30 4693 H 465.164 -1.78794 3.77389 0
M  V30 4694 N 465.601 -1.54893 0.290851 0
M  V30 4695 C 466.85 -1.99111 -0.322113 0
M  V30 4696 C 467.163 -1.18283 -1.55784 0
M  V30 4697 O 468.369 -1.5272 -2.24475 0
M  V30 4698 C 466.825 -3.54442 -0.624438 0
M  V30 4699 C 466.433 -4.44066 0.592373 0
M  V30 4700 C 468.177 -4.07211 -1.19916 0
M  V30 4701 C 466.084 -5.90812 0.263762 0
M  V30 4702 H 465.014 -0.743712 -0.124133 0
M  V30 4703 H 467.665 -1.79132 0.39797 0
M  V30 4704 H 466.047 -3.70281 -1.40384 0
M  V30 4705 H 467.221 -4.39999 1.36886 0
M  V30 4706 H 465.536 -4.02015 1.08502 0
M  V30 4707 H 468.133 -5.14407 -1.45909 0
M  V30 4708 H 468.476 -3.57196 -2.13815 0
M  V30 4709 H 469.009 -3.94873 -0.481687 0
M  V30 4710 H 465.748 -6.44955 1.17105 0
M  V30 4711 H 465.268 -5.97911 -0.475655 0
M  V30 4712 H 466.947 -6.46852 -0.138354 0
M  V30 4713 N 467.08 -0.0183926 -1.57589 0
M  V30 4714 C 468.01 0.965596 -2.12599 0
M  V30 4715 C 468.991 1.34641 -1.0395 0
M  V30 4716 O 470.176 1.42693 -1.31729 0
M  V30 4717 C 467.306 2.25149 -2.64434 0
M  V30 4718 C 466.26 2.01175 -3.77773 0
M  V30 4719 C 465.586 3.35937 -4.15994 0
M  V30 4720 C 466.886 1.35953 -5.04296 0
M  V30 4721 H 468.58 0.507504 -2.95067 0
M  V30 4722 H 466.126 0.242671 -1.41941 0
M  V30 4723 H 468.079 2.94357 -3.01549 0
M  V30 4724 H 466.803 2.73105 -1.79112 0
M  V30 4725 H 465.462 1.34388 -3.4108 0
M  V30 4726 H 465.11 3.81631 -3.27669 0
M  V30 4727 H 464.81 3.20705 -4.92364 0
M  V30 4728 H 466.334 4.0643 -4.55683 0
M  V30 4729 H 467.748 1.95144 -5.39065 0
M  V30 4730 H 466.145 1.31152 -5.85593 0
M  V30 4731 H 467.215 0.331071 -4.83768 0
M  V30 4732 N 468.558 1.5553 0.254621 0
M  V30 4733 C 469.488 1.9268 1.31897 0
M  V30 4734 C 470.469 0.790797 1.506 0
M  V30 4735 O 471.654 1.05045 1.63337 0
M  V30 4736 C 468.784 2.21477 2.67517 0
M  V30 4737 C 467.738 3.37256 2.63519 0
M  V30 4738 C 467.064 3.51576 4.02862 0
M  V30 4739 C 468.364 4.73157 2.21179 0
M  V30 4740 H 470.058 2.81832 1.01051 0
M  V30 4741 H 467.604 1.35599 0.484662 0
M  V30 4742 H 469.557 2.46055 3.42104 0
M  V30 4743 H 468.281 1.29144 2.99982 0
M  V30 4744 H 466.94 3.12675 1.9139 0
M  V30 4745 H 466.588 2.56676 4.32581 0
M  V30 4746 H 466.288 4.2943 4.01078 0
M  V30 4747 H 467.812 3.78467 4.79161 0
M  V30 4748 H 469.226 4.97158 2.85494 0
M  V30 4749 H 467.623 5.54058 2.30521 0
M  V30 4750 H 468.693 4.70739 1.16332 0
M  V30 4751 N 470.036 -0.519951 1.48776 0
M  V30 4752 C 470.966 -1.63253 1.66945 0
M  V30 4753 C 471.947 -1.62014 0.518224 0
M  V30 4754 O 473.132 -1.79053 0.751919 0
M  V30 4755 C 470.262 -3.0181 1.71836 0
M  V30 4756 C 469.216 -3.17911 2.8656 0
M  V30 4757 C 468.542 -4.5763 2.76548 0
M  V30 4758 C 469.842 -2.99729 4.27738 0
M  V30 4759 H 471.536 -1.48302 2.6009 0
M  V30 4760 H 469.082 -0.712026 1.25165 0
M  V30 4761 H 471.035 -3.79525 1.83135 0
M  V30 4762 H 469.759 -3.17806 0.752775 0
M  V30 4763 H 468.418 -2.42616 2.74833 0
M  V30 4764 H 468.066 -4.70476 1.77937 0
M  V30 4765 H 467.766 -4.69346 3.53536 0
M  V30 4766 H 469.29 -5.37431 2.89828 0
M  V30 4767 H 470.704 -3.67228 4.40246 0
M  V30 4768 H 469.101 -3.22932 5.05801 0
M  V30 4769 H 470.171 -1.96047 4.43502 0
M  V30 4770 N 471.514 -1.37532 -0.769588 0
M  V30 4771 C 472.477 -1.33292 -1.86456 0
M  V30 4772 C 473.477 -0.236537 -1.59051 0
M  V30 4773 O 474.667 -0.492511 -1.67093 0
M  V30 4774 C 471.799 -1.07118 -3.23633 0
M  V30 4775 H 472.992 -2.30692 -1.91628 0
M  V30 4776 H 470.545 -1.22593 -0.969572 0
M  V30 4777 H 471.28 -0.102578 -3.24138 0
M  V30 4778 H 471.065 -1.86479 -3.44917 0
M  V30 4779 H 472.555 -1.06806 -4.03711 0
M  V30 4780 N 472.992 0.995999 -1.22138 0
M  V30 4781 C 474.408 1.25917 -0.980667 0
M  V30 4782 C 474.608 1.98819 0.327604 0
M  V30 4783 O 473.664 2.29587 1.05101 0
M  V30 4784 C 474.977 2.07399 -2.17729 0
M  V30 4785 C 476.525 2.20594 -2.22052 0
M  V30 4786 C 477 3.05462 -3.41258 0
M  V30 4787 N 478.491 3.13049 -3.41401 0
M  V30 4788 C 479.226 3.78997 -4.30289 0
M  V30 4789 N 478.722 4.46899 -5.2939 0
M  V30 4790 N 480.515 3.75728 -4.18073 0
M  V30 4791 H 472.666 0.507158 -2.06256 0
M  V30 4792 H 474.929 0.28658 -0.903646 0
M  V30 4793 H 474.635 1.61191 -3.12586 0
M  V30 4794 H 474.509 3.08154 -2.17534 0
M  V30 4795 H 476.896 2.66017 -1.27745 0
M  V30 4796 H 476.977 1.1928 -2.26287 0
M  V30 4797 H 476.621 2.60739 -4.35864 0
M  V30 4798 H 476.551 4.06911 -3.34262 0
M  V30 4799 H 479.042 2.64721 -2.69688 0
M  V30 4800 H 479.355 4.94952 -5.935 0
M  V30 4801 H 477.7 4.45657 -5.33306 0
M  V30 4802 H 480.891 3.2184 -3.39907 0
M  V30 4803 H 481.064 4.26845 -4.87553 0
M  V30 4804 N 474.47 1.03057 1.19235 0
M  V30 4805 C 475.433 0.617418 2.20727 0
M  V30 4806 C 476.433 -0.319856 1.57587 0
M  V30 4807 O 477.623 -0.106633 1.73873 0
M  V30 4808 C 474.755 -0.096296 3.40764 0
M  V30 4809 H 475.948 1.51544 2.58794 0
M  V30 4810 H 473.501 0.821949 1.32942 0
M  V30 4811 H 474.236 -1.00859 3.08217 0
M  V30 4812 H 474.021 0.577217 3.87828 0
M  V30 4813 H 475.511 -0.372219 4.15938 0
M  V30 4814 N 475.948 -1.35272 0.808662 0
M  V30 4815 C 476.881 -2.27595 0.165994 0
M  V30 4816 C 477.859 -1.48189 -0.669241 0
M  V30 4817 O 479.043 -1.77444 -0.636073 0
M  V30 4818 C 476.17 -3.29843 -0.769505 0
M  V30 4819 C 475.216 -4.26498 -0.0136267 0
M  V30 4820 S 476.049 -5.18878 1.32384 0
M  V30 4821 C 477.205 -6.24666 0.392838 0
M  V30 4822 H 477.438 -2.81755 0.948756 0
M  V30 4823 H 474.971 -1.42103 0.603828 0
M  V30 4824 H 476.929 -3.89247 -1.30374 0
M  V30 4825 H 475.59 -2.74558 -1.52567 0
M  V30 4826 H 474.783 -4.98769 -0.724227 0
M  V30 4827 H 474.385 -3.71274 0.450713 0
M  V30 4828 H 476.677 -6.7619 -0.4211 0
M  V30 4829 H 477.62 -6.99741 1.0848 0
M  V30 4830 H 478.028 -5.64499 -0.0123908 0
M  V30 4831 N 477.426 -0.562348 -1.47226 0
M  V30 4832 C 478.703 0.0256985 -1.95583 0
M  V30 4833 C 479.083 1.48032 -1.50498 0
M  V30 4834 O 478.431 2.15973 -0.746181 0
M  V30 4835 C 478.641 -0.125129 -3.48776 0
M  V30 4836 C 479.989 0.0175728 -4.24596 0
M  V30 4837 O 481.013 -0.0529341 -3.56161 0
M  V30 4838 O 479.872 0.170145 -5.46235 0
M  V30 4839 H 476.966 0.0612565 -0.824728 0
M  V30 4840 H 479.512 -0.629233 -1.57603 0
M  V30 4841 H 478.284 -1.13715 -3.74412 0
M  V30 4842 H 477.907 0.567178 -3.93534 0
M  V30 4843 N 478.904 1.54736 -0.299062 0
M  V30 4844 C 480.315 1.8569 0.193971 0
M  V30 4845 C 480.666 1.22101 1.53577 0
M  V30 4846 O 479.791 0.51799 2.10109 0
M  V30 4847 C 480.386 3.36895 0.358733 0
M  V30 4848 C 478.945 3.67887 0.795986 0
M  V30 4849 C 478.092 2.77131 -0.096807 0
M  V30 4850 H 481.043 1.49934 -0.520134 0
M  V30 4851 H 481.064 3.61294 1.19361 0
M  V30 4852 H 480.576 3.83148 -0.617998 0
M  V30 4853 H 478.677 3.27151 1.78334 0
M  V30 4854 H 478.79 4.75114 0.616718 0
M  V30 4855 H 477.154 2.51153 0.423581 0
M  V30 4856 H 477.937 3.26204 -1.06986 0
M  V30 4857 N 480.382 0.0267497 1.57577 0
M  V30 4858 C 481.345 -0.940916 2.08996 0
M  V30 4859 C 482.345 -1.25561 1.00455 0
M  V30 4860 O 483.535 -1.19634 1.26623 0
M  V30 4861 C 480.667 -2.25814 2.55384 0
M  V30 4862 H 481.86 -0.495628 2.95776 0
M  V30 4863 H 479.413 -0.221241 1.54726 0
M  V30 4864 H 480.148 -2.74976 1.71926 0
M  V30 4865 H 479.933 -2.04285 3.34679 0
M  V30 4866 H 481.423 -2.95178 2.95398 0
M  V30 4867 N 481.861 -1.55662 -0.24637 0
M  V30 4868 C 483.089 -1.81575 -0.991876 0
M  V30 4869 C 483.504 -0.602545 -1.78927 0
M  V30 4870 O 482.861 0.428795 -1.77391 0
M  V30 4871 C 482.912 -3.05711 -1.92933 0
M  V30 4872 O 482.633 -4.22348 -1.1642 0
M  V30 4873 C 484.134 -3.44428 -2.79078 0
M  V30 4874 H 481.354 -0.604209 -0.291844 0
M  V30 4875 H 483.898 -2.02722 -0.269095 0
M  V30 4876 H 482.053 -2.86612 -2.60638 0
M  V30 4877 H 482.467 -4.92706 -1.79835 0
M  V30 4878 H 483.941 -4.34388 -3.40603 0
M  V30 4879 H 484.418 -2.65037 -3.50217 0
M  V30 4880 H 485.024 -3.65879 -2.16824 0
M  V30 4881 N 483.339 0.512053 -1.4905 0
M  V30 4882 C 484.302 1.59704 -1.64399 0
M  V30 4883 C 485.302 1.52285 -0.516317 0
M  V30 4884 O 486.492 1.55635 -0.782527 0
M  V30 4885 C 483.624 2.9935 -1.63102 0
M  V30 4886 H 484.817 1.47428 -2.61161 0
M  V30 4887 H 482.37 0.735469 -1.37915 0
M  V30 4888 H 483.105 3.17116 -0.678836 0
M  V30 4889 H 482.89 3.06144 -2.44986 0
M  V30 4890 H 484.38 3.782 -1.77072 0
M  V30 4891 N 484.817 1.37938 0.762283 0
M  V30 4892 C 485.78 1.34279 1.85747 0
M  V30 4893 C 486.78 0.244969 1.58923 0
M  V30 4894 O 487.97 0.501365 1.66829 0
M  V30 4895 C 485.102 1.08833 3.23061 0
M  V30 4896 H 486.295 2.31705 1.90401 0
M  V30 4897 H 483.848 1.23105 0.963057 0
M  V30 4898 H 484.583 0.119767 3.24079 0
M  V30 4899 H 484.368 1.88306 3.43923 0
M  V30 4900 H 485.858 1.08946 4.03138 0
M  V30 4901 N 486.295 -0.989507 1.22664 0
M  V30 4902 C 487.711 -1.25395 0.987331 0
M  V30 4903 C 487.911 -1.9899 -0.317056 0
M  V30 4904 O 486.967 -2.30141 -1.03882 0
M  V30 4905 C 488.28 -2.06242 2.18826 0
M  V30 4906 C 489.828 -2.19413 2.23219 0
M  V30 4907 C 490.303 -3.03648 3.42873 0
M  V30 4908 N 491.794 -3.11234 3.43056 0
M  V30 4909 C 492.529 -3.7671 4.32293 0
M  V30 4910 N 492.025 -4.44085 5.31752 0
M  V30 4911 N 493.818 -3.73505 4.2006 0
M  V30 4912 H 485.969 -0.496212 2.06522 0
M  V30 4913 H 488.232 -0.281784 0.905153 0
M  V30 4914 H 487.938 -1.59531 3.13437 0
M  V30 4915 H 487.812 -3.06996 2.19165 0
M  V30 4916 H 490.199 -2.65336 1.29154 0
M  V30 4917 H 490.28 -1.18078 2.26917 0
M  V30 4918 H 489.924 -2.58424 4.37241 0
M  V30 4919 H 489.854 -4.05132 3.36416 0
M  V30 4920 H 492.345 -2.63287 2.71088 0
M  V30 4921 H 492.658 -4.91797 5.96117 0
M  V30 4922 H 491.003 -4.42822 5.35662 0
M  V30 4923 H 494.194 -3.20033 3.41609 0
M  V30 4924 H 494.367 -4.24253 4.8981 0
M  V30 4925 N 487.773 -1.03688 -1.18687 0
M  V30 4926 C 489.019 -0.74888 -1.89112 0
M  V30 4927 C 489.374 0.715345 -1.78607 0
M  V30 4928 O 488.667 1.51498 -1.17299 0
M  V30 4929 C 488.861 -1.14477 -3.3857 0
M  V30 4930 C 488.69 -2.64594 -3.63621 0
M  V30 4931 C 487.46 -3.31685 -3.812 0
M  V30 4932 C 489.658 -3.62811 -3.64517 0
M  V30 4933 N 487.64 -4.70822 -3.93955 0
M  V30 4934 C 489.011 -4.87603 -3.8294 0
M  V30 4935 C 491.066 -3.56495 -3.47585 0
M  V30 4936 C 489.769 -6.0684 -3.86184 0
M  V30 4937 C 491.795 -4.75155 -3.52111 0
M  V30 4938 C 491.157 -5.98765 -3.71026 0
M  V30 4939 H 487.256 -0.32603 -0.710794 0
M  V30 4940 H 489.84 -1.3258 -1.42586 0
M  V30 4941 H 488.011 -0.595974 -3.838 0
M  V30 4942 H 489.743 -0.808187 -3.96548 0
M  V30 4943 H 486.498 -2.82091 -3.80423 0
M  V30 4944 H 486.922 -5.43122 -4.04163 0
M  V30 4945 H 491.564 -2.61907 -3.31911 0
M  V30 4946 H 489.282 -7.01788 -4.00648 0
M  V30 4947 H 492.868 -4.71905 -3.40289 0
M  V30 4948 H 491.748 -6.89047 -3.74412 0
M  V30 4949 N 489.251 1.34841 -0.815825 0
M  V30 4950 C 490.667 1.51543 -0.500697 0
M  V30 4951 C 490.867 1.76261 0.976444 0
M  V30 4952 O 489.923 1.8094 1.76117 0
M  V30 4953 C 491.236 2.68487 -1.35407 0
M  V30 4954 C 492.784 2.82368 -1.35046 0
M  V30 4955 C 493.259 4.02347 -2.18816 0
M  V30 4956 N 494.75 4.09542 -2.16402 0
M  V30 4957 C 495.485 5.01517 -2.77971 0
M  V30 4958 N 494.981 5.98763 -3.48503 0
M  V30 4959 N 496.774 4.94334 -2.67563 0
M  V30 4960 H 488.925 1.17055 -1.77234 0
M  V30 4961 H 491.188 0.573481 -0.754866 0
M  V30 4962 H 490.894 2.56829 -2.40274 0
M  V30 4963 H 490.768 3.63321 -1.01377 0
M  V30 4964 H 493.155 2.93471 -0.309604 0
M  V30 4965 H 493.236 1.88363 -1.73069 0
M  V30 4966 H 492.88 3.92004 -3.22948 0
M  V30 4967 H 492.81 4.95551 -1.78148 0
M  V30 4968 H 495.301 3.39932 -1.65091 0
M  V30 4969 H 495.614 6.6556 -3.92747 0
M  V30 4970 H 493.959 5.98909 -3.52609 0
M  V30 4971 H 497.15 4.1732 -2.12041 0
M  V30 4972 H 497.323 5.6582 -3.15834 0
M  V30 4973 N 490.729 0.570148 1.46925 0
M  V30 4974 C 491.977 0.0508523 2.02036 0
M  V30 4975 C 492.298 -1.30885 1.44548 0
M  V30 4976 O 491.568 -1.85647 0.625453 0
M  V30 4977 H 490.148 0.0158088 0.746833 0
M  V30 4978 H 492.81 0.743086 1.80178 0
M  V30 4979 H 491.906 -0.027575 3.12088 0
M  V30 4980 N 492.207 -1.54576 0.307264 0
M  V30 4981 C 493.137 -2.26708 -0.55907 0
M  V30 4982 C 494.118 -1.26893 -1.1328 0
M  V30 4983 O 495.303 -1.55677 -1.16097 0
M  V30 4984 C 492.433 -3.01259 -1.72801 0
M  V30 4985 C 491.387 -4.08275 -1.28435 0
M  V30 4986 C 490.713 -4.70575 -2.53895 0
M  V30 4987 C 492.013 -5.2068 -0.411038 0
M  V30 4988 H 493.707 -2.9937 0.042576 0
M  V30 4989 H 491.253 -1.43983 0.0219173 0
M  V30 4990 H 493.206 -3.50444 -2.34023 0
M  V30 4991 H 491.93 -2.26187 -2.356 0
M  V30 4992 H 490.589 -3.59949 -0.695161 0
M  V30 4993 H 490.237 -3.92136 -3.15021 0
M  V30 4994 H 489.937 -5.42854 -2.24908 0
M  V30 4995 H 491.461 -5.22527 -3.15908 0
M  V30 4996 H 492.875 -5.65721 -0.929097 0
M  V30 4997 H 491.272 -5.99716 -0.214664 0
M  V30 4998 H 492.342 -4.81629 0.562287 0
M  V30 4999 N 493.685 -0.035106 -1.57561 0
M  V30 5000 C 494.925 0.646316 -1.93913 0
M  V30 5001 C 495.289 1.68947 -0.912185 0
M  V30 5002 O 496.49 2.42381 -1.1621 0
M  V30 5003 C 494.761 1.24136 -3.35149 0
M  V30 5004 S 496.32 1.94302 -3.93436 0
M  V30 5005 H 493.138 0.212642 -0.678457 0
M  V30 5006 H 495.74 -0.100203 -1.95243 0
M  V30 5007 H 494.444 0.46979 -4.07702 0
M  V30 5008 H 493.975 2.02505 -3.37276 0
M  V30 5009 H 495.99 3.22205 -3.77357 0
M  V30 5010 N 495.163 1.55791 0.238111 0
M  V30 5011 C 496.126 1.90239 1.27835 0
M  V30 5012 C 497.126 0.779552 1.4064 0
M  V30 5013 O 498.316 1.04747 1.3919 0
M  V30 5014 C 495.448 2.13859 2.65475 0
M  V30 5015 H 496.641 2.83262 0.985034 0
M  V30 5016 H 494.194 1.48818 0.477799 0
M  V30 5017 H 494.929 1.23334 2.99932 0
M  V30 5018 H 494.714 2.95643 2.57561 0
M  V30 5019 H 496.204 2.41664 3.40571 0
M  V30 5020 N 496.642 -0.504142 1.49319 0
M  V30 5021 C 497.89 -1.25598 1.58334 0
M  V30 5022 C 498.211 -1.93114 0.270538 0
M  V30 5023 O 497.481 -1.82585 -0.709891 0
M  V30 5024 H 496.061 -0.466571 0.58337 0
M  V30 5025 H 498.723 -0.584547 1.85928 0
M  V30 5026 H 497.819 -2.02159 2.37778 0
M  V30 5027 N 498.12 -1.38341 -0.754957 0
M  V30 5028 C 499.366 -1.35678 -1.51536 0
M  V30 5029 C 499.721 0.0533985 -1.92326 0
M  V30 5030 O 499.014 1.01573 -1.6246 0
M  V30 5031 C 499.208 -2.2452 -2.78075 0
M  V30 5032 C 499.037 -3.74035 -2.49655 0
M  V30 5033 C 497.807 -4.43066 -2.42942 0
M  V30 5034 C 500.005 -4.665 -2.16523 0
M  V30 5035 N 497.987 -5.78026 -2.06783 0
M  V30 5036 C 499.358 -5.89962 -1.90644 0
M  V30 5037 C 501.413 -4.54718 -2.02821 0
M  V30 5038 C 500.116 -7.0296 -1.52444 0
M  V30 5039 C 502.142 -5.67618 -1.66023 0
M  V30 5040 C 501.504 -6.90141 -1.41015 0
M  V30 5041 H 497.603 -0.551764 -0.554148 0
M  V30 5042 H 500.187 -1.73716 -0.879258 0
M  V30 5043 H 498.358 -1.88673 -3.39496 0
M  V30 5044 H 500.09 -2.12993 -3.44116 0
M  V30 5045 H 496.845 -3.96264 -2.59367 0
M  V30 5046 H 497.269 -6.49394 -1.91353 0
M  V30 5047 H 501.911 -3.60546 -2.20831 0
M  V30 5048 H 499.629 -7.97051 -1.33174 0
M  V30 5049 H 503.215 -5.6048 -1.56055 0
M  V30 5050 H 502.095 -7.76021 -1.12965 0
M  V30 5051 N 499.598 0.982988 -1.23187 0
M  V30 5052 C 500.847 1.71817 -1.05649 0
M  V30 5053 C 501.16 1.91315 0.407176 0
M  V30 5054 O 502.366 2.62256 0.702436 0
M  V30 5055 C 500.822 3.09188 -1.84203 0
M  V30 5056 C 500.43 2.97586 -3.34882 0
M  V30 5057 C 502.174 3.86684 -1.75146 0
M  V30 5058 C 500.081 4.30173 -4.05839 0
M  V30 5059 H 499.011 0.644258 -0.391724 0
M  V30 5060 H 501.662 1.09659 -1.4713 0
M  V30 5061 H 500.044 3.72087 -1.35527 0
M  V30 5062 H 501.218 2.43793 -3.91026 0
M  V30 5063 H 499.533 2.33567 -3.44725 0
M  V30 5064 H 502.13 4.84836 -2.25473 0
M  V30 5065 H 502.473 4.10136 -0.713737 0
M  V30 5066 H 503.006 3.30482 -2.21419 0
M  V30 5067 H 499.745 4.11918 -5.09906 0
M  V30 5068 H 499.265 4.83841 -3.54482 0
M  V30 5069 H 500.944 4.98873 -4.11989 0
M  V30 5070 N 501.076 1.04316 1.18135 0
M  V30 5071 C 502.039 0.640794 2.2006 0
M  V30 5072 C 503.039 -0.303124 1.57917 0
M  V30 5073 O 504.229 -0.0881855 1.73977 0
M  V30 5074 C 501.361 -0.060148 3.40847 0
M  V30 5075 H 502.554 1.54281 2.57172 0
M  V30 5076 H 500.107 0.836004 1.32063 0
M  V30 5077 H 500.842 -0.975845 3.0927 0
M  V30 5078 H 500.627 0.618319 3.87194 0
M  V30 5079 H 502.117 -0.328082 4.16309 0
M  V30 5080 N 502.554 -1.34406 0.822964 0
M  V30 5081 C 503.97 -1.51275 0.508727 0
M  V30 5082 C 504.17 -1.76776 -0.967083 0
M  V30 5083 O 503.226 -1.81871 -1.75155 0
M  V30 5084 C 504.539 -2.67765 1.36829 0
M  V30 5085 C 506.087 -2.81647 1.36542 0
M  V30 5086 C 506.562 -4.01181 2.20947 0
M  V30 5087 N 508.053 -4.08388 2.18571 0
M  V30 5088 C 508.788 -5.00036 2.80627 0
M  V30 5089 N 508.284 -5.96906 3.51674 0
M  V30 5090 N 510.077 -4.92908 2.70181 0
M  V30 5091 H 502.228 -1.16113 1.77852 0
M  V30 5092 H 504.491 -0.56947 0.757897 0
M  V30 5093 H 504.197 -2.55551 2.41633 0
M  V30 5094 H 504.071 -3.62779 1.03303 0
M  V30 5095 H 506.458 -2.93303 0.325163 0
M  V30 5096 H 506.539 -1.87443 1.74066 0
M  V30 5097 H 506.183 -3.90286 3.25022 0
M  V30 5098 H 506.113 -4.94599 1.80774 0
M  V30 5099 H 508.604 -3.39051 1.66891 0
M  V30 5100 H 508.917 -6.63468 3.96271 0
M  V30 5101 H 507.262 -5.9703 3.5578 0
M  V30 5102 H 510.453 -4.1619 2.14251 0
M  V30 5103 H 510.626 -5.64137 3.18831 0
M  V30 5104 N 504.032 -0.577932 -1.46621 0
M  V30 5105 C 505.309 0.00495287 -1.95599 0
M  V30 5106 C 505.689 1.46428 -1.5206 0
M  V30 5107 O 505.037 2.1517 -0.769046 0
M  V30 5108 C 505.247 -0.162114 -3.48623 0
M  V30 5109 C 506.595 -0.0274623 -4.24591 0
M  V30 5110 O 507.619 -0.0907067 -3.56084 0
M  V30 5111 O 506.478 0.1122 -5.46385 0
M  V30 5112 H 503.572 0.0525057 -0.825332 0
M  V30 5113 H 506.118 -0.645914 -1.56927 0
M  V30 5114 H 504.89 -1.17679 -3.73185 0
M  V30 5115 H 504.513 0.525407 -3.94113 0
M  V30 5116 N 505.51 1.54411 -0.315457 0
M  V30 5117 C 506.738 2.04833 0.291738 0
M  V30 5118 C 507.153 1.19203 1.46411 0
M  V30 5119 O 506.51 0.220867 1.81159 0
M  V30 5120 C 506.561 3.53969 0.73404 0
M  V30 5121 O 506.282 4.36346 -0.391682 0
M  V30 5122 C 507.783 4.2045 1.40489 0
M  V30 5123 H 505.003 0.668195 0.0612947 0
M  V30 5124 H 507.547 1.99276 -0.45929 0
M  V30 5125 H 505.702 3.5984 1.43506 0
M  V30 5126 H 506.116 5.24481 -0.0447088 0
M  V30 5127 H 507.59 5.26278 1.66539 0
M  V30 5128 H 508.067 3.71067 2.3496 0
M  V30 5129 H 508.673 4.18694 0.746662 0
M  V30 5130 N 506.988 0.0434614 1.5754 0
M  V30 5131 C 508.218 -0.640905 1.96408 0
M  V30 5132 C 508.626 -1.65365 0.919297 0
M  V30 5133 O 507.969 -1.83395 -0.105795 0
M  V30 5134 C 508.031 -1.39141 3.31482 0
M  V30 5135 C 507.695 -0.535375 4.53853 0
M  V30 5136 C 508.692 0.195335 5.19533 0
M  V30 5137 C 506.377 -0.468564 5.0011 0
M  V30 5138 C 508.371 0.981377 6.298 0
M  V30 5139 C 506.058 0.321171 6.10255 0
M  V30 5140 C 507.056 1.04484 6.74961 0
M  V30 5141 O 506.744 1.8216 7.8299 0
M  V30 5142 H 506.476 -0.180584 0.651433 0
M  V30 5143 H 509.03 0.103848 2.05137 0
M  V30 5144 H 507.26 -2.18162 3.19284 0
M  V30 5145 H 508.949 -1.96526 3.55151 0
M  V30 5146 H 509.715 0.15314 4.84758 0
M  V30 5147 H 505.594 -1.02142 4.49542 0
M  V30 5148 H 509.138 1.54674 6.80237 0
M  V30 5149 H 505.035 0.365032 6.44467 0
M  V30 5150 H 505.803 1.74289 7.99728 0
M  V30 5151 N 508.466 -1.55915 -0.229846 0
M  V30 5152 C 509.882 -1.48721 -0.579166 0
M  V30 5153 C 510.082 -0.736976 -1.87539 0
M  V30 5154 O 509.138 -0.273258 -2.51017 0
M  V30 5155 C 510.451 -2.9323 -0.666082 0
M  V30 5156 C 511.999 -3.03701 -0.757267 0
M  V30 5157 C 512.474 -4.49552 -0.8756 0
M  V30 5158 N 513.965 -4.53561 -0.940035 0
M  V30 5159 C 514.7 -5.63683 -1.05116 0
M  V30 5160 N 514.196 -6.83576 -1.12675 0
M  V30 5161 N 515.989 -5.51516 -1.08565 0
M  V30 5162 H 508.14 -2.03123 0.620857 0
M  V30 5163 H 510.403 -0.922898 0.21671 0
M  V30 5164 H 510.109 -3.51032 0.21664 0
M  V30 5165 H 509.983 -3.44668 -1.53243 0
M  V30 5166 H 512.37 -2.45969 -1.63043 0
M  V30 5167 H 512.451 -2.55446 0.134583 0
M  V30 5168 H 512.095 -5.079 -0.00692351 0
M  V30 5169 H 512.025 -4.95506 -1.78274 0
M  V30 5170 H 514.516 -3.67215 -0.892269 0
M  V30 5171 H 514.829 -7.63251 -1.21109 0
M  V30 5172 H 513.174 -6.86303 -1.09603 0
M  V30 5173 H 516.365 -4.5678 -1.02319 0
M  V30 5174 H 516.538 -6.37372 -1.1688 0
M  V30 5175 N 509.944 0.496216 -1.49584 0
M  V30 5176 C 511.355 1.07765 -1.52459 0
M  V30 5177 C 511.706 1.93679 -0.31353 0
M  V30 5178 O 510.831 2.08588 0.576186 0
M  V30 5179 C 511.426 1.96111 -2.76271 0
M  V30 5180 C 509.985 2.49409 -2.81908 0
M  V30 5181 C 509.132 1.27142 -2.46435 0
M  V30 5182 H 512.083 0.279914 -1.56212 0
M  V30 5183 H 512.104 2.80862 -2.56704 0
M  V30 5184 H 511.616 1.33555 -3.64396 0
M  V30 5185 H 509.717 3.1559 -1.98074 0
M  V30 5186 H 509.83 2.86234 -3.84196 0
M  V30 5187 H 508.194 1.59818 -1.98319 0
M  V30 5188 H 508.977 0.662866 -3.3684 0
M  V30 5189 N 511.423 1.38739 0.74761 0
M  V30 5190 C 512.672 1.3459 1.50228 0
M  V30 5191 C 512.985 -0.0595592 1.95509 0
M  V30 5192 O 514.191 -0.22361 2.70578 0
M  V30 5193 C 512.647 2.36377 2.71393 0
M  V30 5194 C 512.255 3.82573 2.33113 0
M  V30 5195 C 513.999 2.41281 3.49262 0
M  V30 5196 C 511.906 4.76032 3.50924 0
M  V30 5197 H 510.836 0.500312 0.564096 0
M  V30 5198 H 513.487 1.64324 0.8167 0
M  V30 5199 H 511.869 1.99694 3.41962 0
M  V30 5200 H 513.043 4.28227 1.70171 0
M  V30 5201 H 511.358 3.80844 1.68365 0
M  V30 5202 H 513.955 3.08301 4.36869 0
M  V30 5203 H 514.298 1.43353 3.9084 0
M  V30 5204 H 514.831 2.76793 2.85711 0
M  V30 5205 H 511.57 5.75177 3.14408 0
M  V30 5206 H 511.09 4.35066 4.12889 0
M  V30 5207 H 512.769 4.94331 4.17427 0
M  V30 5208 N 512.901 -0.976442 1.23707 0
M  V30 5209 C 513.831 -2.08749 1.04624 0
M  V30 5210 C 514.812 -1.70057 -0.0380956 0
M  V30 5211 O 515.997 -1.93782 0.127308 0
M  V30 5212 C 513.127 -3.41335 0.640902 0
M  V30 5213 C 512.081 -3.93947 1.67302 0
M  V30 5214 C 511.407 -5.22774 1.12301 0
M  V30 5215 C 512.707 -4.22769 3.06697 0
M  V30 5216 H 514.401 -2.24972 1.97555 0
M  V30 5217 H 511.947 -1.08108 0.951247 0
M  V30 5218 H 513.9 -4.18489 0.494434 0
M  V30 5219 H 512.624 -3.24988 -0.324099 0
M  V30 5220 H 511.283 -3.18941 1.80755 0
M  V30 5221 H 510.931 -5.0278 0.148877 0
M  V30 5222 H 510.631 -5.58942 1.81267 0
M  V30 5223 H 512.155 -6.02546 0.988479 0
M  V30 5224 H 513.569 -4.90659 2.96524 0
M  V30 5225 H 511.966 -4.70147 3.72937 0
M  V30 5226 H 513.036 -3.29885 3.55392 0
M  V30 5227 N 514.379 -1.04941 -1.1758 0
M  V30 5228 C 515.327 -0.64204 -2.23563 0
M  V30 5229 C 516.321 0.335453 -1.66045 0
M  V30 5230 O 517.527 0.20179 -1.78865 0
M  V30 5231 H 513.902 -0.18944 -0.727748 0
M  V30 5232 H 515.873 -1.54609 -2.55223 0
M  V30 5233 C 514.622 -0.0301051 -3.47687 0
M  V30 5234 H 513.945 -0.773339 -3.92249 0
M  V30 5235 H 515.385 0.217592 -4.23441 0
M  V30 5236 C 513.844 1.2225 -3.13937 0
M  V30 5237 O 514.374 2.3122 -3.28482 0
M  V30 5238 N 512.58 1.11917 -2.68185 0
M  V30 5239 H 512.127 0.232403 -2.5655 0
M  V30 5240 H 512.085 1.95814 -2.45976 0
M  V30 5241 N 515.857 1.33968 -0.830081 0
M  V30 5242 C 517.082 2.02813 -0.433796 0
M  V30 5243 C 517.507 1.62076 0.954614 0
M  V30 5244 O 516.865 0.808955 1.62252 0
M  V30 5245 C 516.913 3.56348 -0.552115 0
M  V30 5246 O 516.017 4.10202 0.425191 0
M  V30 5247 H 515.358 0.639817 -0.177567 0
M  V30 5248 H 517.888 1.7106 -1.12248 0
M  V30 5249 H 517.898 4.05722 -0.430513 0
M  V30 5250 H 516.573 3.85344 -1.56471 0
M  V30 5251 H 515.15 3.71979 0.261878 0
M  V30 5252 N 517.335 0.585699 1.46312 0
M  V30 5253 C 518.298 -0.135673 2.28798 0
M  V30 5254 C 519.298 -0.815988 1.38558 0
M  V30 5255 O 520.488 -0.667487 1.60904 0
M  V30 5256 C 517.62 -1.20163 3.1902 0
M  V30 5257 H 518.813 0.589257 2.94054 0
M  V30 5258 H 516.366 0.343794 1.52472 0
M  V30 5259 H 517.101 -1.95804 2.58517 0
M  V30 5260 H 516.886 -0.718282 3.85465 0
M  V30 5261 H 518.376 -1.70749 3.81096 0
M  V30 5262 N 518.813 -1.54241 0.323641 0
M  V30 5263 C 520.038 -2.05452 -0.283605 0
M  V30 5264 C 520.463 -1.19823 -1.44997 0
M  V30 5265 O 519.821 -0.207358 -1.8011 0
M  V30 5266 C 519.869 -3.53823 -0.695795 0
M  V30 5267 O 518.973 -3.71134 -1.79815 0
M  V30 5268 H 518.314 -0.662024 -0.0511917 0
M  V30 5269 H 520.844 -1.99079 0.472073 0
M  V30 5270 H 520.854 -3.96094 -0.978434 0
M  V30 5271 H 519.529 -4.15602 0.157287 0
M  V30 5272 H 518.106 -3.40768 -1.51431 0
M  V30 5273 N 520.291 -0.0518155 -1.57515 0
M  V30 5274 C 521.537 0.622745 -1.93002 0
M  V30 5275 C 521.87 1.70456 -0.930499 0
M  V30 5276 O 521.145 1.94452 0.0434086 0
M  V30 5277 C 521.428 1.21824 -3.38867 0
M  V30 5278 C 521.281 0.144434 -4.49568 0
M  V30 5279 C 522.6 2.12968 -3.8514 0
M  V30 5280 H 519.719 0.22491 -0.701844 0
M  V30 5281 H 522.361 -0.113711 -1.89659 0
M  V30 5282 H 520.511 1.8459 -3.41846 0
M  V30 5283 H 522.183 -0.48753 -4.58717 0
M  V30 5284 H 520.426 -0.527424 -4.30582 0
M  V30 5285 H 521.097 0.601127 -5.48717 0
M  V30 5286 H 523.573 1.60163 -3.8404 0
M  V30 5287 H 522.449 2.51578 -4.87852 0
M  V30 5288 H 522.71 3.03004 -3.21934 0
M  V30 5289 N 521.769 1.56035 0.221574 0
M  V30 5290 C 523.18 1.69229 0.788567 0
M  V30 5291 C 523.531 0.653814 1.84986 0
M  V30 5292 O 522.656 -0.195065 2.15519 0
M  V30 5293 C 523.251 3.06809 1.43713 0
M  V30 5294 C 521.81 3.21858 1.95152 0
M  V30 5295 C 520.957 2.65155 0.811685 0
M  V30 5296 H 523.908 1.587 -0.00307894 0
M  V30 5297 H 523.929 3.02666 2.30594 0
M  V30 5298 H 523.441 3.82369 0.664475 0
M  V30 5299 H 521.542 2.51167 2.7522 0
M  V30 5300 H 521.655 4.29073 2.1315 0
M  V30 5301 H 520.019 2.23635 1.21899 0
M  V30 5302 H 520.802 3.43261 0.0516987 0
M  V30 5303 N 523.247 -0.488276 1.49845 0
M  V30 5304 C 524.663 -0.820566 1.3689 0
M  V30 5305 C 524.863 -1.97248 0.411752 0
M  V30 5306 O 523.919 -2.52042 -0.151931 0
M  V30 5307 C 525.232 -1.1488 2.77891 0
M  V30 5308 C 526.78 -1.25626 2.86683 0
M  V30 5309 C 527.255 -1.61772 4.28479 0
M  V30 5310 N 528.746 -1.68797 4.31349 0
M  V30 5311 C 529.481 -1.98235 5.38043 0
M  V30 5312 N 528.977 -2.2581 6.54967 0
M  V30 5313 N 530.77 -1.99593 5.2547 0
M  V30 5314 H 522.921 0.271123 2.10662 0
M  V30 5315 H 525.184 0.058735 0.946179 0
M  V30 5316 H 524.89 -0.375614 3.49688 0
M  V30 5317 H 524.764 -2.08919 3.14058 0
M  V30 5318 H 527.151 -2.02014 2.15114 0
M  V30 5319 H 527.232 -0.296072 2.54081 0
M  V30 5320 H 526.876 -0.859295 5.00578 0
M  V30 5321 H 526.806 -2.58912 4.58554 0
M  V30 5322 H 529.297 -1.49595 3.4703 0
M  V30 5323 H 529.61 -2.47497 7.32096 0
M  V30 5324 H 527.955 -2.23239 6.58171 0
M  V30 5325 H 531.146 -1.77535 4.33127 0
M  V30 5326 H 531.319 -2.222 6.08713 0
M  V30 5327 N 524.725 -1.39134 -0.740242 0
M  V30 5328 C 525.953 -1.39334 -1.5295 0
M  V30 5329 C 526.368 0.0135008 -1.88795 0
M  V30 5330 O 525.725 0.983524 -1.5373 0
M  V30 5331 C 525.776 -2.2614 -2.82034 0
M  V30 5332 O 525.497 -3.61345 -2.47712 0
M  V30 5333 C 526.998 -2.34666 -3.76094 0
M  V30 5334 H 524.218 -0.476103 -0.472828 0
M  V30 5335 H 526.762 -1.82883 -0.9151 0
M  V30 5336 H 524.917 -1.86018 -3.39818 0
M  V30 5337 H 525.331 -4.07194 -3.30595 0
M  V30 5338 H 526.805 -2.99663 -4.63579 0
M  V30 5339 H 527.282 -1.36426 -4.17474 0
M  V30 5340 H 527.888 -2.75236 -3.2423 0
M  V30 5341 N 526.204 0.969867 -1.24223 0
M  V30 5342 C 527.167 2.04564 -1.03373 0
M  V30 5343 C 528.167 1.60798 0.00819206 0
M  V30 5344 O 529.357 1.72641 -0.232567 0
M  V30 5345 C 526.489 3.36163 -0.566343 0
M  V30 5346 H 527.682 2.24494 -1.98853 0
M  V30 5347 H 525.235 1.1448 -1.06415 0
M  V30 5348 H 525.97 3.21925 0.391751 0
M  V30 5349 H 525.755 3.69273 -1.31834 0
M  V30 5350 H 527.245 4.1526 -0.441435 0
M  V30 5351 N 527.682 1.05563 1.17022 0
M  V30 5352 C 528.612 0.681026 2.23348 0
M  V30 5353 C 529.593 -0.322983 1.67005 0
M  V30 5354 O 530.778 -0.199746 1.9317 0
M  V30 5355 C 527.908 0.0589053 3.4725 0
M  V30 5356 C 526.862 0.988082 4.16438 0
M  V30 5357 C 526.188 0.229646 5.34207 0
M  V30 5358 C 527.488 2.31388 4.68249 0
M  V30 5359 H 529.182 1.56993 2.54938 0
M  V30 5360 H 526.728 0.756302 1.2254 0
M  V30 5361 H 528.681 -0.214982 4.20851 0
M  V30 5362 H 527.405 -0.864968 3.14938 0
M  V30 5363 H 526.064 1.24659 3.44754 0
M  V30 5364 H 525.712 -0.697111 4.98146 0
M  V30 5365 H 525.412 0.848815 5.81437 0
M  V30 5366 H 526.936 -0.0368694 6.10589 0
M  V30 5367 H 528.35 2.09964 5.33468 0
M  V30 5368 H 526.747 2.88736 5.26072 0
M  V30 5369 H 527.817 2.94982 3.84855 0
M  V30 5370 N 529.16 -1.33526 0.837174 0
M  V30 5371 C 530.406 -1.9813 0.432704 0
M  V30 5372 C 530.739 -1.66168 -1.00508 0
M  V30 5373 O 530.014 -0.94069 -1.70239 0
M  V30 5374 C 530.297 -3.54151 0.651834 0
M  V30 5375 C 530.15 -3.95806 2.13676 0
M  V30 5376 C 531.469 -4.39993 0.0968937 0
M  V30 5377 H 528.588 -0.719713 0.15869 0
M  V30 5378 H 531.23 -1.58193 1.05237 0
M  V30 5379 H 529.38 -3.88301 0.124369 0
M  V30 5380 H 531.052 -3.71921 2.72896 0
M  V30 5381 H 529.295 -3.45599 2.62191 0
M  V30 5382 H 529.966 -5.0447 2.24084 0
M  V30 5383 H 532.442 -4.12479 0.547733 0
M  V30 5384 H 531.318 -5.48186 0.279917 0
M  V30 5385 H 531.579 -4.3066 -0.9992 0
M  V30 5386 N 530.638 -0.59345 -1.46 0
M  V30 5387 C 531.585 0.133618 -2.30413 0
M  V30 5388 C 532.555 0.873736 -1.41262 0
M  V30 5389 O 533.74 0.862279 -1.70204 0
M  V30 5390 C 530.88 1.13434 -3.25924 0
M  V30 5391 C 529.993 0.39656 -4.30176 0
M  V30 5392 C 529.128 1.38575 -5.12806 0
M  V30 5393 C 528.167 0.634984 -6.08797 0
M  V30 5394 N 527.304 1.57276 -6.84258 0
M  V30 5395 H 532.144 -0.592252 -2.92055 0
M  V30 5396 H 529.681 -0.303874 -1.43927 0
M  V30 5397 H 531.639 1.72752 -3.79753 0
M  V30 5398 H 530.269 1.82779 -2.66067 0
M  V30 5399 H 529.321 -0.311861 -3.79119 0
M  V30 5400 H 530.633 -0.189869 -4.98438 0
M  V30 5401 H 529.787 2.05141 -5.70966 0
M  V30 5402 H 528.526 2.00611 -4.44529 0
M  V30 5403 H 527.531 -0.0443925 -5.49782 0
M  V30 5404 H 528.756 0.0198678 -6.79097 0
M  V30 5405 H 526.702 2.18103 -6.18682 0
M  V30 5406 H 526.619 1.03941 -7.48821 0
M  V30 5407 H 527.887 2.22844 -7.46968 0
M  V30 5408 N 532.116 1.54067 -0.331816 0
M  V30 5409 C 533.048 2.22139 0.564538 0
M  V30 5410 C 534.061 1.22408 1.07332 0
M  V30 5411 O 535.25 1.4883 0.985481 0
M  V30 5412 C 532.35 2.87876 1.78831 0
M  V30 5413 C 531.523 4.13817 1.41682 0
M  V30 5414 C 530.582 4.63072 2.49901 0
M  V30 5415 O 529.608 5.27562 2.13699 0
M  V30 5416 N 530.81 4.38001 3.80967 0
M  V30 5417 H 533.575 2.99694 -0.0183736 0
M  V30 5418 H 531.136 1.61153 -0.155396 0
M  V30 5419 H 533.128 3.17747 2.50637 0
M  V30 5420 H 531.698 2.13977 2.27887 0
M  V30 5421 H 530.918 3.9062 0.530044 0
M  V30 5422 H 532.206 4.95762 1.14443 0
M  V30 5423 H 531.604 3.864 4.13173 0
M  V30 5424 H 530.161 4.72507 4.48977 0
M  V30 5425 N 533.594 0.0601682 1.57485 0
M  V30 5426 C 534.524 -0.90889 2.15085 0
M  V30 5427 C 535.505 -1.31838 1.07484 0
M  V30 5428 O 536.69 -1.3915 1.35466 0
M  V30 5429 C 533.82 -2.18059 2.7031 0
M  V30 5430 C 532.774 -1.91088 3.82974 0
M  V30 5431 C 532.1 -3.24789 4.24754 0
M  V30 5432 C 533.4 -1.22535 5.07723 0
M  V30 5433 H 535.094 -0.429093 2.96309 0
M  V30 5434 H 532.64 -0.204952 1.42534 0
M  V30 5435 H 534.593 -2.86258 3.09248 0
M  V30 5436 H 533.317 -2.6826 1.8629 0
M  V30 5437 H 531.976 -1.25297 3.44523 0
M  V30 5438 H 531.624 -3.72809 3.37672 0
M  V30 5439 H 531.324 -3.07538 5.00694 0
M  V30 5440 H 532.848 -3.94205 4.66299 0
M  V30 5441 H 534.262 -1.80783 5.4405 0
M  V30 5442 H 532.659 -1.1558 5.88864 0
M  V30 5443 H 533.729 -0.202692 4.84476 0
M  V30 5444 N 535.072 -1.5615 -0.213296 0
M  V30 5445 C 535.982 -1.96265 -1.28519 0
M  V30 5446 C 536.998 -0.86765 -1.50824 0
M  V30 5447 O 538.174 -1.17191 -1.63793 0
M  V30 5448 C 535.239 -2.27836 -2.61327 0
M  V30 5449 C 534.3 -3.50949 -2.47252 0
M  V30 5450 C 533.533 -3.81004 -3.73727 0
M  V30 5451 O 533.756 -3.12612 -4.77106 0
M  V30 5452 O 532.69 -4.74477 -3.70344 0
M  V30 5453 H 536.516 -2.87631 -0.974795 0
M  V30 5454 H 534.101 -1.43467 -0.416832 0
M  V30 5455 H 535.983 -2.49299 -3.39747 0
M  V30 5456 H 534.658 -1.39643 -2.9203 0
M  V30 5457 H 533.565 -3.34754 -1.67004 0
M  V30 5458 H 534.898 -4.39551 -2.21486 0
M  V30 5459 N 536.55 0.480323 -1.50102 0
M  V30 5460 C 537.513 1.56181 -1.6775 0
M  V30 5461 C 538.513 1.51156 -0.548503 0
M  V30 5462 O 539.703 1.5394 -0.815363 0
M  V30 5463 C 536.835 2.95823 -1.69415 0
M  V30 5464 H 538.028 1.41855 -2.6423 0
M  V30 5465 H 535.581 0.70605 -1.39444 0
M  V30 5466 H 536.316 3.15604 -0.745948 0
M  V30 5467 H 536.101 3.00878 -2.51425 0
M  V30 5468 H 537.591 3.74359 -1.85054 0
M  V30 5469 N 538.028 1.39524 0.732853 0
M  V30 5470 C 539.256 1.40143 1.52209 0
M  V30 5471 C 539.671 -0.00348836 1.888 0
M  V30 5472 O 539.028 -0.975357 1.5425 0
M  V30 5473 C 539.079 2.27632 2.8083 0
M  V30 5474 O 538.8 3.62654 2.45792 0
M  V30 5475 C 540.301 2.36658 3.74844 0
M  V30 5476 H 537.521 0.478604 0.470297 0
M  V30 5477 H 540.065 1.83366 0.905388 0
M  V30 5478 H 538.22 1.87818 3.38826 0
M  V30 5479 H 538.634 4.08941 3.28431 0
M  V30 5480 H 540.108 3.02118 4.61984 0
M  V30 5481 H 540.585 1.38638 4.16745 0
M  V30 5482 H 541.191 2.76951 3.22766 0
M  V30 5483 N 539.506 -0.963266 1.24736 0
M  V30 5484 C 540.754 -1.70343 1.08755 0
M  V30 5485 C 541.075 -1.91387 -0.373619 0
M  V30 5486 O 540.345 -1.4948 -1.2662 0
M  V30 5487 H 538.925 -0.631224 0.399456 0
M  V30 5488 H 541.587 -1.15859 1.56725 0
M  V30 5489 H 540.683 -2.68616 1.58909 0
M  V30 5490 N 540.985 -1.06182 -1.16461 0
M  V30 5491 C 542.231 -0.779015 -1.87241 0
M  V30 5492 C 542.564 0.692715 -1.81425 0
M  V30 5493 O 541.839 1.5074 -1.22913 0
M  V30 5494 C 542.122 -1.2728 -3.36856 0
M  V30 5495 C 541.975 -2.80821 -3.51368 0
M  V30 5496 C 543.294 -0.879799 -4.31216 0
M  V30 5497 H 540.413 -0.284464 -0.679889 0
M  V30 5498 H 543.055 -1.31755 -1.36896 0
M  V30 5499 H 541.205 -0.814673 -3.79862 0
M  V30 5500 H 542.877 -3.34833 -3.17308 0
M  V30 5501 H 541.12 -3.19606 -2.93316 0
M  V30 5502 H 541.791 -3.10435 -4.56436 0
M  V30 5503 H 544.267 -1.27436 -3.96105 0
M  V30 5504 H 543.143 -1.25278 -5.34412 0
M  V30 5505 H 543.404 0.215372 -4.41575 0
M  V30 5506 N 542.463 1.3308 -0.844243 0
M  V30 5507 C 543.426 2.27403 -0.286485 0
M  V30 5508 C 544.426 1.51179 0.547872 0
M  V30 5509 O 545.616 1.70421 0.360886 0
M  V30 5510 C 542.748 3.35653 0.595813 0
M  V30 5511 H 543.941 2.78248 -1.11885 0
M  V30 5512 H 541.494 1.43574 -0.617749 0
M  V30 5513 H 542.229 2.90058 1.4504 0
M  V30 5514 H 542.014 3.921 -0.00125994 0
M  V30 5515 H 543.504 4.05958 0.979168 0
M  V30 5516 N 543.941 0.601185 1.45683 0
M  V30 5517 C 545.352 0.179659 1.85834 0
M  V30 5518 C 545.703 -1.26189 1.50236 0
M  V30 5519 O 544.828 -1.95587 0.925987 0
M  V30 5520 C 545.423 0.319277 3.37292 0
M  V30 5521 C 543.982 -0.0475092 3.7637 0
M  V30 5522 C 543.129 0.646692 2.69654 0
M  V30 5523 H 546.08 0.808268 1.36575 0
M  V30 5524 H 546.101 -0.4503 3.77826 0
M  V30 5525 H 545.613 1.36855 3.6317 0
M  V30 5526 H 543.714 -1.0962 3.5611 0
M  V30 5527 H 543.827 0.34168 4.7788 0
M  V30 5528 H 542.191 0.0849971 2.54558 0
M  V30 5529 H 542.974 1.69797 2.98369 0
M  V30 5530 N 545.419 -1.53889 0.339982 0
M  V30 5531 C 546.665 -2.01152 -0.258003 0
M  V30 5532 C 546.998 -1.22749 -1.50487 0
M  V30 5533 O 546.273 -0.314156 -1.91946 0
M  V30 5534 C 546.556 -3.55468 -0.575717 0
M  V30 5535 C 546.409 -4.44584 0.682996 0
M  V30 5536 C 547.728 -4.1768 -1.38677 0
M  V30 5537 H 544.847 -0.731198 -0.0922992 0
M  V30 5538 H 547.489 -1.84352 0.459814 0
M  V30 5539 H 545.639 -3.69914 -1.18725 0
M  V30 5540 H 547.311 -4.41981 1.32102 0
M  V30 5541 H 545.554 -4.13592 1.3086 0
M  V30 5542 H 546.225 -5.5043 0.416001 0
M  V30 5543 H 548.701 -4.0691 -0.869705 0
M  V30 5544 H 547.577 -5.25734 -1.57783 0
M  V30 5545 H 547.838 -3.72069 -2.38782 0
M  V30 5546 N 546.897 -0.0685191 -1.57451 0
M  V30 5547 C 547.86 0.885173 -2.11417 0
M  V30 5548 C 548.86 1.22853 -1.03748 0
M  V30 5549 O 550.05 1.16235 -1.2975 0
M  V30 5550 C 547.182 2.18964 -2.61281 0
M  V30 5551 H 548.375 0.417034 -2.96986 0
M  V30 5552 H 545.928 0.18014 -1.55258 0
M  V30 5553 H 546.663 2.70321 -1.79156 0
M  V30 5554 H 546.448 1.9534 -3.39977 0
M  V30 5555 H 547.938 2.87242 -3.0312 0
M  V30 5556 N 548.375 1.56261 0.205012 0
M  V30 5557 C 549.285 1.96944 1.27476 0
M  V30 5558 C 550.301 0.875636 1.50362 0
M  V30 5559 O 551.477 1.18058 1.6317 0
M  V30 5560 C 548.542 2.29219 2.60115 0
M  V30 5561 C 547.603 3.52255 2.45387 0
M  V30 5562 C 546.836 3.8298 3.71701 0
M  V30 5563 O 547.059 3.15138 4.75441 0
M  V30 5564 O 545.993 4.76435 3.67823 0
M  V30 5565 H 549.819 2.88144 0.959527 0
M  V30 5566 H 547.404 1.43686 0.409217 0
M  V30 5567 H 549.286 2.51098 3.3842 0
M  V30 5568 H 547.961 1.4119 2.91285 0
M  V30 5569 H 546.868 3.35635 1.65227 0
M  V30 5570 H 548.201 4.40719 2.19152 0
M  V30 5571 N 549.853 -0.472356 1.50355 0
M  V30 5572 C 550.816 -1.5529 1.68576 0
M  V30 5573 C 551.816 -1.50863 0.556511 0
M  V30 5574 O 553.006 -1.53505 0.823516 0
M  V30 5575 C 550.138 -2.94921 1.70981 0
M  V30 5576 H 551.331 -1.40451 2.64978 0
M  V30 5577 H 548.884 -0.698645 1.39816 0
M  V30 5578 H 549.619 -3.15204 0.762675 0
M  V30 5579 H 549.404 -2.99541 2.53017 0
M  V30 5580 H 550.894 -3.73372 1.87037 0
M  V30 5581 N 551.331 -1.39911 -0.725443 0
M  V30 5582 C 552.559 -1.40949 -1.51463 0
M  V30 5583 C 552.974 -0.0065242 -1.88799 0
M  V30 5584 O 552.331 0.967163 -1.54765 0
M  V30 5585 C 552.382 -2.29119 -2.79619 0
M  V30 5586 O 552.103 -3.63952 -2.43866 0
M  V30 5587 C 553.604 -2.38642 -3.73584 0
M  V30 5588 H 550.824 -0.481091 -0.467752 0
M  V30 5589 H 553.368 -1.83843 -0.895651 0
M  V30 5590 H 551.523 -1.89612 -3.37826 0
M  V30 5591 H 551.937 -4.10677 -3.26258 0
M  V30 5592 H 553.411 -3.04563 -4.60375 0
M  V30 5593 H 553.888 -1.40846 -4.16004 0
M  V30 5594 H 554.494 -2.78659 -3.21293 0
M  V30 5595 N 552.809 0.956637 -1.25245 0
M  V30 5596 C 554.057 1.69764 -1.09657 0
M  V30 5597 C 554.378 1.91583 0.363464 0
M  V30 5598 O 553.648 1.50149 1.25825 0
M  V30 5599 H 552.228 0.629097 -0.402798 0
M  V30 5600 H 554.89 1.15026 -1.57337 0
M  V30 5601 H 553.986 2.67769 -1.60331 0
M  V30 5602 N 554.287 1.06798 1.15896 0
M  V30 5603 C 555.237 0.653213 2.18443 0
M  V30 5604 C 556.221 -0.318763 1.57711 0
M  V30 5605 O 557.413 -0.133388 1.76497 0
M  V30 5606 C 554.542 0.0465785 3.43268 0
M  V30 5607 C 553.628 1.04336 4.11066 0
M  V30 5608 N 554.019 2.22084 4.54436 0
M  V30 5609 C 552.317 0.875433 4.37324 0
M  V30 5610 C 553.018 2.85276 5.06944 0
M  V30 5611 N 551.994 2.12973 5.00143 0
M  V30 5612 H 555.796 1.55011 2.49698 0
M  V30 5613 H 553.31 0.940384 1.32403 0
M  V30 5614 H 555.307 -0.26843 4.16035 0
M  V30 5615 H 553.967 -0.845504 3.13499 0
M  V30 5616 H 554.978 2.59833 4.48004 0
M  V30 5617 H 551.655 0.0357721 4.17485 0
M  V30 5618 H 553.045 3.85223 5.50503 0
M  V30 5619 N 555.766 -1.3263 0.851289 0
M  V30 5620 C 556.713 -2.28952 0.291469 0
M  V30 5621 C 557.683 -1.54897 -0.599676 0
M  V30 5622 O 558.868 -1.83137 -0.535305 0
M  V30 5623 C 556.008 -3.41206 -0.516992 0
M  V30 5624 C 555.121 -4.30148 0.399566 0
M  V30 5625 C 554.256 -5.29527 -0.4212 0
M  V30 5626 C 553.295 -6.10112 0.492969 0
M  V30 5627 N 552.432 -7.01499 -0.290414 0
M  V30 5628 H 557.272 -2.76228 1.11813 0
M  V30 5629 H 554.809 -1.35907 0.562826 0
M  V30 5630 H 556.767 -4.05005 -1.00132 0
M  V30 5631 H 555.397 -2.9509 -1.30851 0
M  V30 5632 H 554.449 -3.66959 1.00227 0
M  V30 5633 H 555.761 -4.8649 1.1013 0
M  V30 5634 H 554.915 -5.98914 -0.968832 0
M  V30 5635 H 553.654 -4.73794 -1.15632 0
M  V30 5636 H 552.659 -5.39632 1.05251 0
M  V30 5637 H 553.884 -6.6793 1.22664 0
M  V30 5638 H 551.83 -6.48199 -1.00868 0
M  V30 5639 H 551.747 -7.55178 0.352354 0
M  V30 5640 H 553.015 -7.75176 -0.819882 0
M  V30 5641 N 557.244 -0.608902 -1.45362 0
M  V30 5642 C 558.174 0.0964526 -2.33301 0
M  V30 5643 C 559.155 0.857444 -1.46908 0
M  V30 5644 O 560.34 0.827735 -1.75676 0
M  V30 5645 C 557.47 1.09354 -3.29635 0
M  V30 5646 C 556.424 0.445676 -4.25673 0
M  V30 5647 C 555.75 1.5511 -5.11708 0
M  V30 5648 C 557.05 -0.633972 -5.18438 0
M  V30 5649 H 558.744 -0.637829 -2.92527 0
M  V30 5650 H 556.29 -0.308178 -1.40664 0
M  V30 5651 H 558.243 1.59556 -3.90025 0
M  V30 5652 H 556.967 1.85843 -2.6857 0
M  V30 5653 H 555.626 -0.0354897 -3.66583 0
M  V30 5654 H 555.274 2.30631 -4.4701 0
M  V30 5655 H 554.974 1.12311 -5.76767 0
M  V30 5656 H 556.498 2.05537 -5.74967 0
M  V30 5657 H 557.912 -0.215974 -5.72893 0
M  V30 5658 H 556.309 -0.983789 -5.91981 0
M  V30 5659 H 557.379 -1.51005 -4.60788 0
M  V30 5660 N 558.722 1.53707 -0.348139 0
M  V30 5661 C 559.969 2.00988 0.246966 0
M  V30 5662 C 560.297 1.23586 1.50189 0
M  V30 5663 O 559.552 0.312817 1.93184 0
M  V30 5664 C 559.851 3.52292 0.602061 0
M  V30 5665 C 559.517 4.47453 -0.556509 0
M  V30 5666 C 558.179 4.73188 -0.874446 0
M  V30 5667 C 560.531 5.03851 -1.33354 0
M  V30 5668 C 557.859 5.52577 -1.9717 0
M  V30 5669 C 560.211 5.84437 -2.42108 0
M  V30 5670 C 558.875 6.08465 -2.74456 0
M  V30 5671 H 558.145 0.735469 0.0903712 0
M  V30 5672 H 560.792 1.85464 -0.477001 0
M  V30 5673 H 559.097 3.65672 1.40681 0
M  V30 5674 H 560.794 3.86337 1.07447 0
M  V30 5675 H 557.384 4.27558 -0.298652 0
M  V30 5676 H 561.568 4.8393 -1.10117 0
M  V30 5677 H 556.824 5.69418 -2.22651 0
M  V30 5678 H 560.998 6.27151 -3.02745 0
M  V30 5679 H 558.625 6.69768 -3.59604 0
M  V30 5680 N 560.2 0.0768682 1.57412 0
M  V30 5681 C 561.611 -0.455037 1.8107 0
M  V30 5682 C 561.962 -1.69323 0.991162 0
M  V30 5683 O 561.087 -2.15328 0.215156 0
M  V30 5684 C 561.682 -0.832316 3.28417 0
M  V30 5685 C 560.241 -1.30906 3.52903 0
M  V30 5686 C 559.388 -0.296714 2.75708 0
M  V30 5687 H 562.339 0.302514 1.5579 0
M  V30 5688 H 562.36 -1.69333 3.40744 0
M  V30 5689 H 561.872 0.0690532 3.88039 0
M  V30 5690 H 559.973 -2.22875 2.98592 0
M  V30 5691 H 560.086 -1.28348 4.61588 0
M  V30 5692 H 558.45 -0.775059 2.42621 0
M  V30 5693 H 559.233 0.597015 3.38069 0
M  V30 5694 N 561.678 -1.56367 -0.196722 0
M  V30 5695 C 562.641 -1.93561 -1.22746 0
M  V30 5696 C 563.641 -0.816566 -1.38524 0
M  V30 5697 O 564.831 -1.084 -1.36363 0
M  V30 5698 C 561.963 -2.20823 -2.59712 0
M  V30 5699 H 563.156 -2.85774 -0.909586 0
M  V30 5700 H 560.709 -1.50032 -0.438174 0
M  V30 5701 H 561.444 -1.31243 -2.96557 0
M  V30 5702 H 561.229 -3.02368 -2.49632 0
M  V30 5703 H 562.719 -2.50608 -3.34044 0
M  V30 5704 N 563.156 0.464375 -1.50603 0
M  V30 5705 C 564.089 1.58052 -1.64605 0
M  V30 5706 C 565.067 1.54914 -0.494016 0
M  V30 5707 O 566.251 1.74438 -0.714393 0
M  V30 5708 C 563.378 2.96634 -1.63481 0
M  V30 5709 C 562.424 3.17901 -2.84325 0
M  V30 5710 S 563.257 2.97083 -4.45536 0
M  V30 5711 C 564.413 4.37994 -4.47115 0
M  V30 5712 H 564.646 1.45937 -2.59017 0
M  V30 5713 H 562.179 0.652189 -1.39949 0
M  V30 5714 H 564.137 3.76527 -1.63517 0
M  V30 5715 H 562.798 3.06134 -0.702928 0
M  V30 5716 H 561.991 4.19158 -2.79862 0
M  V30 5717 H 561.593 2.45792 -2.81891 0
M  V30 5718 H 563.885 5.30743 -4.21091 0
M  V30 5719 H 564.828 4.47499 -5.48772 0
M  V30 5720 H 565.236 4.20386 -3.76743 0
M  V30 5721 N 564.634 1.40294 0.718013 0
M  V30 5722 C 565.911 1.2894 1.47084 0
M  V30 5723 C 566.291 -0.0933625 2.10893 0
M  V30 5724 O 565.639 -1.10598 1.99951 0
M  V30 5725 C 565.849 2.4264 2.50852 0
M  V30 5726 C 567.197 2.8276 3.16752 0
M  V30 5727 O 568.221 2.42215 2.61171 0
M  V30 5728 O 567.08 3.528 4.17366 0
M  V30 5729 H 564.174 0.506236 0.653952 0
M  V30 5730 H 566.72 1.52208 0.750394 0
M  V30 5731 H 565.492 3.35009 2.022 0
M  V30 5732 H 565.115 2.21129 3.30435 0
M  V30 5733 N 566.112 -0.949982 1.2575 0
M  V30 5734 C 567.528 -1.22191 1.02672 0
M  V30 5735 C 567.728 -1.99898 -0.253588 0
M  V30 5736 O 566.784 -2.33329 -0.965076 0
M  V30 5737 C 568.097 -1.99175 2.25277 0
M  V30 5738 C 569.645 -2.12201 2.30087 0
M  V30 5739 C 570.12 -2.92586 3.5236 0
M  V30 5740 N 571.611 -3.00163 3.52784 0
M  V30 5741 C 572.346 -3.62766 4.44059 0
M  V30 5742 N 571.842 -4.26943 5.45611 0
M  V30 5743 N 573.635 -3.59953 4.3173 0
M  V30 5744 H 565.786 -0.430258 2.07996 0
M  V30 5745 H 568.049 -0.252844 0.91366 0
M  V30 5746 H 567.755 -1.49479 3.18354 0
M  V30 5747 H 567.629 -2.99868 2.28821 0
M  V30 5748 H 570.016 -2.61093 1.3753 0
M  V30 5749 H 570.097 -1.10799 2.30559 0
M  V30 5750 H 569.741 -2.44383 4.45241 0
M  V30 5751 H 569.671 -3.94224 3.49134 0
M  V30 5752 H 572.162 -2.54529 2.79327 0
M  V30 5753 H 572.475 -4.72583 6.11461 0
M  V30 5754 H 570.82 -4.25557 5.49478 0
M  V30 5755 H 574.011 -3.09003 3.51617 0
M  V30 5756 H 574.184 -4.08455 5.03059 0
M  V30 5757 N 567.59 -1.07411 -1.15328 0
M  V30 5758 C 568.818 -0.818782 -1.90009 0
M  V30 5759 C 569.233 0.628072 -1.78047 0
M  V30 5760 O 568.59 1.43085 -1.13282 0
M  V30 5761 C 568.641 -1.21874 -3.40337 0
M  V30 5762 O 568.362 -2.60883 -3.51954 0
M  V30 5763 C 569.863 -0.992796 -4.3204 0
M  V30 5764 H 567.083 -0.296007 -0.60218 0
M  V30 5765 H 569.627 -1.43073 -1.46117 0
M  V30 5766 H 567.782 -0.651103 -3.81889 0
M  V30 5767 H 568.196 -2.77216 -4.45255 0
M  V30 5768 H 569.67 -1.32215 -5.35932 0
M  V30 5769 H 570.147 0.0708331 -4.39143 0
M  V30 5770 H 570.753 -1.54537 -3.9623 0
M  V30 5771 N 569.068 1.32177 -0.85831 0
M  V30 5772 C 570.001 2.26823 -0.25035 0
M  V30 5773 C 570.979 1.50571 0.61378 0
M  V30 5774 O 572.163 1.79682 0.569777 0
M  V30 5775 C 569.29 3.32472 0.646556 0
M  V30 5776 C 568.336 4.26255 -0.144675 0
M  V30 5777 S 569.169 5.13608 -1.5155 0
M  V30 5778 C 570.325 6.22778 -0.624408 0
M  V30 5779 H 570.558 2.7804 -1.05267 0
M  V30 5780 H 568.091 1.39764 -0.656152 0
M  V30 5781 H 570.049 3.93817 1.15837 0
M  V30 5782 H 568.71 2.80031 1.42272 0
M  V30 5783 H 567.903 5.01114 0.538613 0
M  V30 5784 H 567.505 3.69346 -0.588198 0
M  V30 5785 H 569.797 6.77287 0.169846 0
M  V30 5786 H 570.74 6.95233 -1.34376 0
M  V30 5787 H 571.148 5.64156 -0.197128 0
M  V30 5788 N 570.547 0.616602 1.45037 0
M  V30 5789 C 571.497 -0.118543 2.27692 0
M  V30 5790 C 572.481 -0.830025 1.37838 0
M  V30 5791 O 573.673 -0.718528 1.6176 0
M  V30 5792 C 570.802 -1.10924 3.24886 0
M  V30 5793 C 569.888 -0.398134 4.22227 0
M  V30 5794 N 570.279 0.565233 5.02632 0
M  V30 5795 C 568.577 -0.644506 4.41319 0
M  V30 5796 C 569.278 0.984043 5.73316 0
M  V30 5797 N 568.254 0.325879 5.42622 0
M  V30 5798 H 572.056 0.621239 2.87259 0
M  V30 5799 H 569.57 0.440968 1.56299 0
M  V30 5800 H 571.567 -1.65038 3.82842 0
M  V30 5801 H 570.227 -1.84948 2.66879 0
M  V30 5802 H 571.238 0.942395 5.09254 0
M  V30 5803 H 567.915 -1.36873 3.94426 0
M  V30 5804 H 569.305 1.77911 6.47918 0
M  V30 5805 N 572.025 -1.5352 0.356285 0
M  V30 5806 C 573.441 -1.59599 0.00485267 0
M  V30 5807 C 573.641 -1.37179 -1.47595 0
M  V30 5808 O 572.697 -1.17234 -2.23635 0
M  V30 5809 C 574.01 -2.97277 0.452454 0
M  V30 5810 C 575.558 -3.10357 0.405881 0
M  V30 5811 C 576.033 -4.50432 0.829148 0
M  V30 5812 N 577.524 -4.5652 0.783838 0
M  V30 5813 C 578.259 -5.63077 1.08315 0
M  V30 5814 N 577.755 -6.77429 1.45126 0
M  V30 5815 N 579.548 -5.53014 1.00655 0
M  V30 5816 H 571.699 -1.66346 1.32071 0
M  V30 5817 H 573.962 -0.77971 0.539218 0
M  V30 5818 H 573.668 -3.18792 1.48542 0
M  V30 5819 H 573.542 -3.76836 -0.165762 0
M  V30 5820 H 575.929 -2.88558 -0.617934 0
M  V30 5821 H 576.01 -2.32828 1.05947 0
M  V30 5822 H 575.654 -4.72968 1.85103 0
M  V30 5823 H 575.584 -5.26378 0.152906 0
M  V30 5824 H 578.075 -3.74408 0.512513 0
M  V30 5825 H 578.388 -7.54669 1.66415 0
M  V30 5826 H 576.733 -6.78844 1.48983 0
M  V30 5827 H 579.924 -4.62557 0.718215 0
M  V30 5828 H 580.097 -6.35964 1.24315 0
M  V30 5829 N 573.503 -0.0852151 -1.57369 0
M  V30 5830 C 574.751 0.579658 -1.93609 0
M  V30 5831 C 575.072 1.69332 -0.967043 0
M  V30 5832 O 574.342 1.95892 -0.0174215 0
M  V30 5833 H 572.922 0.217113 -0.714752 0
M  V30 5834 H 575.584 -0.146226 -1.94351 0
M  V30 5835 H 574.68 0.996276 -2.95771 0
M  V30 5836 N 574.981 1.5647 0.188427 0
M  V30 5837 C 576.392 1.70864 0.752494 0
M  V30 5838 C 576.743 0.692905 1.83557 0
M  V30 5839 O 575.868 -0.149307 2.15884 0
M  V30 5840 C 576.463 3.09789 1.37173 0
M  V30 5841 C 575.022 3.25925 1.88281 0
M  V30 5842 C 574.169 2.66817 0.755259 0
M  V30 5843 H 577.12 1.58657 -0.0367408 0
M  V30 5844 H 577.141 3.07489 2.24122 0
M  V30 5845 H 576.653 3.83693 0.583219 0
M  V30 5846 H 574.754 2.56948 2.6983 0
M  V30 5847 H 574.867 4.33498 2.04001 0
M  V30 5848 H 573.231 2.2617 1.17128 0
M  V30 5849 H 574.014 3.43294 -0.0211237 0
M  V30 5850 N 576.459 -0.456382 1.50847 0
M  V30 5851 C 577.707 -1.20497 1.62249 0
M  V30 5852 C 578.028 -1.92156 0.331839 0
M  V30 5853 O 577.298 -1.84751 -0.651443 0
M  V30 5854 H 575.878 -0.447775 0.597918 0
M  V30 5855 H 578.54 -0.525099 1.87693 0
M  V30 5856 H 577.636 -1.94492 2.44089 0
M  V30 5857 N 577.937 -1.40673 -0.710563 0
M  V30 5858 C 579.183 -1.4043 -1.47142 0
M  V30 5859 C 579.538 -0.00781557 -1.92398 0
M  V30 5860 O 578.831 0.963535 -1.6561 0
M  V30 5861 C 579.025 -2.33253 -2.70791 0
M  V30 5862 C 578.854 -3.81789 -2.37629 0
M  V30 5863 C 577.624 -4.5057 -2.28724 0
M  V30 5864 C 579.822 -4.73152 -2.01572 0
M  V30 5865 N 577.804 -5.84312 -1.88289 0
M  V30 5866 C 579.175 -5.95728 -1.71778 0
M  V30 5867 C 581.23 -4.6094 -1.88252 0
M  V30 5868 C 579.933 -7.07454 -1.30003 0
M  V30 5869 C 581.959 -5.72613 -1.47881 0
M  V30 5870 C 581.321 -6.94278 -1.18987 0
M  V30 5871 H 577.42 -0.569115 -0.536314 0
M  V30 5872 H 580.004 -1.76425 -0.823547 0
M  V30 5873 H 578.175 -1.99378 -3.33321 0
M  V30 5874 H 579.907 -2.23833 -3.37166 0
M  V30 5875 H 576.662 -4.04315 -2.46629 0
M  V30 5876 H 577.086 -6.55153 -1.70596 0
M  V30 5877 H 581.728 -3.67389 -2.09249 0
M  V30 5878 H 579.446 -8.00884 -1.07749 0
M  V30 5879 H 583.032 -5.65161 -1.38145 0
M  V30 5880 H 581.912 -7.79222 -0.88219 0
M  V30 5881 N 579.415 0.9433 -1.26252 0
M  V30 5882 C 580.378 2.02326 -1.07689 0
M  V30 5883 C 581.378 1.60779 -0.0259174 0
M  V30 5884 O 582.568 1.72108 -0.269134 0
M  V30 5885 C 579.7 3.34886 -0.63752 0
M  V30 5886 H 580.893 2.20225 -2.0357 0
M  V30 5887 H 578.446 1.12197 -1.08819 0
M  V30 5888 H 579.181 3.22684 0.323377 0
M  V30 5889 H 578.966 3.66393 -1.39637 0
M  V30 5890 H 580.456 4.14231 -0.529418 0
M  V30 5891 N 580.893 1.08022 1.14757 0
M  V30 5892 C 581.823 0.728248 2.21853 0
M  V30 5893 C 582.804 -0.287486 1.67653 0
M  V30 5894 O 583.989 -0.158727 1.9355 0
M  V30 5895 C 581.119 0.132549 3.47047 0
M  V30 5896 C 580.073 1.07619 4.14249 0
M  V30 5897 C 579.399 0.342907 5.33599 0
M  V30 5898 C 580.699 2.41268 4.63235 0
M  V30 5899 H 582.393 1.62365 2.51551 0
M  V30 5900 H 579.939 0.782125 1.20908 0
M  V30 5901 H 581.892 -0.125665 4.21213 0
M  V30 5902 H 580.616 -0.797971 3.16702 0
M  V30 5903 H 579.275 1.31944 3.42033 0
M  V30 5904 H 578.923 -0.59129 4.99513 0
M  V30 5905 H 578.623 0.971955 5.79506 0
M  V30 5906 H 580.147 0.0926538 6.1053 0
M  V30 5907 H 581.561 2.21232 5.28894 0
M  V30 5908 H 579.958 2.9983 5.19829 0
M  V30 5909 H 581.028 3.03079 3.78512 0
M  V30 5910 N 582.371 -1.3172 0.865308 0
M  V30 5911 C 583.596 -2.01591 0.487415 0
M  V30 5912 C 584.021 -1.6455 -0.911307 0
M  V30 5913 O 583.379 -0.851689 -1.6005 0
M  V30 5914 C 583.427 -3.54759 0.646401 0
M  V30 5915 O 582.531 -4.11185 -0.316284 0
M  V30 5916 H 581.872 -0.634884 0.194468 0
M  V30 5917 H 584.402 -1.68024 1.16744 0
M  V30 5918 H 584.412 -4.04438 0.537932 0
M  V30 5919 H 583.087 -3.8106 1.66632 0
M  V30 5920 H 581.664 -3.72543 -0.163162 0
M  V30 5921 N 583.85 -0.624285 -1.44708 0
M  V30 5922 C 584.779 0.0717025 -2.3339 0
M  V30 5923 C 585.76 0.841814 -1.47809 0
M  V30 5924 O 586.946 0.809056 -1.76544 0
M  V30 5925 C 584.076 1.05852 -3.30776 0
M  V30 5926 C 583.029 0.400503 -4.26122 0
M  V30 5927 C 582.356 1.49674 -5.13324 0
M  V30 5928 C 583.656 -0.688924 -5.17737 0
M  V30 5929 H 585.35 -0.668819 -2.91834 0
M  V30 5930 H 582.896 -0.32308 -1.40329 0
M  V30 5931 H 584.849 1.5541 -3.91696 0
M  V30 5932 H 583.572 1.82984 -2.70526 0
M  V30 5933 H 582.231 -0.0743687 -3.66525 0
M  V30 5934 H 581.88 2.25877 -4.49431 0
M  V30 5935 H 581.58 1.06188 -5.77926 0
M  V30 5936 H 583.104 1.99427 -5.77115 0
M  V30 5937 H 584.518 -0.276724 -5.72632 0
M  V30 5938 H 582.915 -1.04652 -5.90904 0
M  V30 5939 H 583.985 -1.55884 -4.5916 0
M  V30 5940 N 585.328 1.53329 -0.364422 0
M  V30 5941 C 586.291 2.24323 0.470292 0
M  V30 5942 C 587.291 1.25068 1.01067 0
M  V30 5943 O 588.481 1.49354 0.896605 0
M  V30 5944 C 585.613 2.97908 1.65722 0
M  V30 5945 H 586.806 2.9952 -0.150917 0
M  V30 5946 H 584.359 1.55868 -0.116092 0
M  V30 5947 H 585.094 2.2695 2.31655 0
M  V30 5948 H 584.879 3.70732 1.27671 0
M  V30 5949 H 586.369 3.5188 2.24878 0
M  V30 5950 N 586.806 0.0935595 1.57322 0
M  V30 5951 C 587.736 -0.863062 2.16964 0
M  V30 5952 C 588.717 -1.29528 1.10256 0
M  V30 5953 O 589.902 -1.36245 1.38387 0
M  V30 5954 C 587.032 -2.12276 2.74875 0
M  V30 5955 C 585.986 -1.82921 3.86942 0
M  V30 5956 C 585.312 -3.15707 4.31548 0
M  V30 5957 C 586.612 -1.11737 5.10208 0
M  V30 5958 H 588.306 -0.366145 2.97153 0
M  V30 5959 H 585.852 -0.174673 1.42937 0
M  V30 5960 H 587.805 -2.79634 3.1525 0
M  V30 5961 H 586.529 -2.64248 1.91938 0
M  V30 5962 H 585.188 -1.17961 3.47103 0
M  V30 5963 H 584.836 -3.65563 3.45504 0
M  V30 5964 H 584.536 -2.96849 5.07104 0
M  V30 5965 H 586.06 -3.84226 4.74555 0
M  V30 5966 H 587.474 -1.69203 5.47762 0
M  V30 5967 H 585.871 -1.03064 5.91183 0
M  V30 5968 H 586.941 -0.0998818 4.84797 0
M  V30 5969 N 588.284 -1.56567 -0.180126 0
M  V30 5970 C 589.509 -1.85975 -0.918041 0
M  V30 5971 C 589.934 -0.678888 -1.75422 0
M  V30 5972 O 589.292 0.372168 -1.77439 0
M  V30 5973 C 589.34 -3.13731 -1.77779 0
M  V30 5974 O 588.444 -2.95335 -2.87838 0
M  V30 5975 H 587.785 -0.61196 -0.257683 0
M  V30 5976 H 590.315 -2.03798 -0.180923 0
M  V30 5977 H 590.325 -3.4491 -2.17948 0
M  V30 5978 H 589 -3.99293 -1.16352 0
M  V30 5979 H 587.577 -2.7549 -2.51316 0
M  V30 5980 N 589.762 0.448376 -1.51087 0
M  V30 5981 C 590.987 1.22605 -1.6728 0
M  V30 5982 C 591.412 1.84524 -0.365045 0
M  V30 5983 O 590.77 1.6832 0.673642 0
M  V30 5984 C 590.818 2.29393 -2.78229 0
M  V30 5985 O 589.922 3.34608 -2.41063 0
M  V30 5986 H 589.263 0.359705 -0.558129 0
M  V30 5987 H 591.793 0.530903 -1.97592 0
M  V30 5988 H 591.803 2.74352 -3.01986 0
M  V30 5989 H 590.478 1.83701 -3.73131 0
M  V30 5990 H 589.055 2.95202 -2.27838 0
M  V30 5991 N 591.24 1.41047 0.703093 0
M  V30 5992 C 592.188 1.42494 1.83843 0
M  V30 5993 C 593.182 0.303885 1.66652 0
M  V30 5994 O 594.388 0.475544 1.73605 0
M  V30 5995 H 590.763 0.445685 0.605697 0
M  V30 5996 H 592.734 2.38194 1.79739 0
M  V30 5997 C 591.483 1.31666 3.21807 0
M  V30 5998 H 590.806 2.17212 3.35647 0
M  V30 5999 H 592.246 1.36738 4.01346 0
M  V30 6000 C 590.705 0.0281828 3.36888 0
M  V30 6001 O 591.235 -0.929995 3.90786 0
M  V30 6002 N 589.441 -0.0454322 2.90564 0
M  V30 6003 H 588.988 0.735046 2.4689 0
M  V30 6004 H 588.946 -0.906968 3.01034 0
M  V30 6005 N 592.718 -0.936591 1.26751 0
M  V30 6006 C 594.134 -1.21095 1.03963 0
M  V30 6007 C 594.334 -2.00156 -0.232372 0
M  V30 6008 O 593.39 -2.3434 -0.940274 0
M  V30 6009 C 594.703 -1.96775 2.27377 0
M  V30 6010 C 596.251 -2.09749 2.32324 0
M  V30 6011 C 596.726 -2.88832 3.55443 0
M  V30 6012 N 598.217 -2.96404 3.55948 0
M  V30 6013 C 598.952 -3.58036 4.47881 0
M  V30 6014 N 598.448 -4.21132 5.50109 0
M  V30 6015 N 600.241 -3.55353 4.35523 0
M  V30 6016 H 592.392 -0.408173 2.08441 0
M  V30 6017 H 594.655 -0.243139 0.91629 0
M  V30 6018 H 594.361 -1.46094 3.19921 0
M  V30 6019 H 594.235 -2.97424 2.31989 0
M  V30 6020 H 596.622 -2.5962 1.40291 0
M  V30 6021 H 596.703 -1.08347 2.31721 0
M  V30 6022 H 596.347 -2.39647 4.47808 0
M  V30 6023 H 596.277 -3.90499 3.53296 0
M  V30 6024 H 598.768 -2.51552 2.82011 0
M  V30 6025 H 599.081 -4.66071 6.16439 0
M  V30 6026 H 597.426 -4.19705 5.53961 0
M  V30 6027 H 600.617 -3.05256 3.54875 0
M  V30 6028 H 600.79 -4.03097 5.07363 0
M  V30 6029 N 594.196 -1.08629 -1.14182 0
M  V30 6030 C 595.445 -0.812271 -1.84621 0
M  V30 6031 C 595.758 0.664313 -1.83973 0
M  V30 6032 O 596.964 1.05357 -2.50224 0
M  V30 6033 C 595.42 -1.4031 -3.31423 0
M  V30 6034 C 595.028 -2.91164 -3.40481 0
M  V30 6035 C 596.772 -1.20767 -4.06959 0
M  V30 6036 C 594.679 -3.43373 -4.81507 0
M  V30 6037 H 593.609 -0.30019 -0.691666 0
M  V30 6038 H 596.26 -1.30798 -1.28701 0
M  V30 6039 H 594.642 -0.835096 -3.87094 0
M  V30 6040 H 595.816 -3.5412 -2.94848 0
M  V30 6041 H 594.131 -3.09646 -2.78403 0
M  V30 6042 H 596.728 -1.57237 -5.11058 0
M  V30 6043 H 597.071 -0.147664 -4.16038 0
M  V30 6044 H 597.604 -1.74274 -3.57594 0
M  V30 6045 H 594.343 -4.48958 -4.77616 0
M  V30 6046 H 593.863 -2.85176 -5.27669 0
M  V30 6047 H 595.542 -3.40095 -5.50404 0
M  V30 6048 N 595.674 1.31259 -0.872281 0
M  V30 6049 C 596.637 2.26744 -0.334656 0
M  V30 6050 C 597.637 1.52307 0.515681 0
M  V30 6051 O 598.827 1.71148 0.324656 0
M  V30 6052 C 595.959 3.36841 0.524482 0
M  V30 6053 H 597.152 2.75812 -1.17762 0
M  V30 6054 H 594.705 1.42232 -0.648064 0
M  V30 6055 H 595.44 2.93069 1.38855 0
M  V30 6056 H 595.225 3.92009 -0.0844299 0
M  V30 6057 H 596.715 4.07944 0.892838 0
M  V30 6058 N 597.152 0.631951 1.44375 0
M  V30 6059 C 598.398 0.145491 2.02879 0
M  V30 6060 C 598.753 -1.21936 1.48827 0
M  V30 6061 O 598.046 -1.7976 0.663085 0
M  V30 6062 C 598.24 0.0735861 3.57324 0
M  V30 6063 C 598.069 1.42992 4.2636 0
M  V30 6064 C 596.839 2.01691 4.63302 0
M  V30 6065 C 599.037 2.36393 4.56752 0
M  V30 6066 N 597.019 3.30551 5.17309 0
M  V30 6067 C 598.39 3.49869 5.11851 0
M  V30 6068 C 600.445 2.35462 4.38705 0
M  V30 6069 C 599.148 4.6261 5.50803 0
M  V30 6070 C 601.174 3.47268 4.78706 0
M  V30 6071 C 600.536 4.59467 5.33919 0
M  V30 6072 H 596.635 0.0971781 0.775938 0
M  V30 6073 H 599.219 0.835624 1.75856 0
M  V30 6074 H 597.39 -0.585829 3.83957 0
M  V30 6075 H 599.122 -0.421777 4.02496 0
M  V30 6076 H 595.877 1.54627 4.47647 0
M  V30 6077 H 596.301 3.96435 5.48788 0
M  V30 6078 H 600.943 1.49966 3.9531 0
M  V30 6079 H 598.661 5.48813 5.93152 0
M  V30 6080 H 602.247 3.47724 4.66454 0
M  V30 6081 H 601.127 5.44551 5.64299 0
M  V30 6082 N 598.631 -1.53133 0.372548 0
M  V30 6083 C 599.861 -2.05476 -0.215202 0
M  V30 6084 C 600.269 -1.24534 -1.42436 0
M  V30 6085 O 599.612 -0.280771 -1.81542 0
M  V30 6086 C 599.674 -3.53276 -0.666068 0
M  V30 6087 C 599.338 -4.54998 0.427342 0
M  V30 6088 C 600.335 -5.03911 1.27944 0
M  V30 6089 C 598.02 -4.98828 0.589579 0
M  V30 6090 C 600.014 -5.95263 2.27905 0
M  V30 6091 C 597.701 -5.89984 1.59255 0
M  V30 6092 C 598.699 -6.38093 2.43571 0
M  V30 6093 O 598.387 -7.27451 3.42156 0
M  V30 6094 H 598.119 -0.67481 -0.040099 0
M  V30 6095 H 600.673 -1.98409 0.531312 0
M  V30 6096 H 598.903 -3.57904 -1.4643 0
M  V30 6097 H 600.592 -3.88442 -1.1776 0
M  V30 6098 H 601.358 -4.70792 1.16532 0
M  V30 6099 H 597.237 -4.60965 -0.0569456 0
M  V30 6100 H 600.781 -6.32736 2.93753 0
M  V30 6101 H 596.678 -6.22518 1.70711 0
M  V30 6102 H 597.446 -7.45467 3.37967 0
M  V30 6103 N 600.109 -0.101901 -1.5727 0
M  V30 6104 C 601.019 0.868647 -2.17926 0
M  V30 6105 C 602.035 1.30527 -1.1506 0
M  V30 6106 O 603.211 1.37178 -1.47459 0
M  V30 6107 C 600.276 2.10727 -2.75309 0
M  V30 6108 C 599.337 1.7242 -3.93154 0
M  V30 6109 C 598.57 2.90377 -4.47791 0
M  V30 6110 O 598.793 4.05305 -4.01353 0
M  V30 6111 O 597.727 2.6845 -5.38719 0
M  V30 6112 H 601.553 0.382544 -3.01281 0
M  V30 6113 H 599.138 0.122812 -1.48894 0
M  V30 6114 H 601.02 2.83303 -3.11958 0
M  V30 6115 H 599.695 2.58376 -1.94996 0
M  V30 6116 H 598.602 0.970039 -3.61305 0
M  V30 6117 H 599.935 1.29528 -4.74851 0
M  V30 6118 N 601.587 1.56661 0.17182 0
M  V30 6119 C 602.827 1.83762 0.895029 0
M  V30 6120 C 603.191 0.682752 1.79451 0
M  V30 6121 O 604.392 0.834208 2.55528 0
M  V30 6122 C 602.663 3.15976 1.67015 0
M  V30 6123 S 604.222 3.64558 2.44219 0
M  V30 6124 H 601.04 0.644713 0.299778 0
M  V30 6125 H 603.642 1.94871 0.156701 0
M  V30 6126 H 602.346 3.98021 1.00039 0
M  V30 6127 H 601.877 3.07807 2.44986 0
M  V30 6128 H 603.892 3.31845 3.68909 0
M  V30 6129 N 603.065 -0.440357 1.51323 0
M  V30 6130 C 604.313 -1.18769 1.63518 0
M  V30 6131 C 604.634 -1.91793 0.352201 0
M  V30 6132 O 603.904 -1.85432 -0.631811 0
M  V30 6133 H 602.484 -0.441408 0.602634 0
M  V30 6134 H 605.146 -0.505162 1.8824 0
M  V30 6135 H 604.242 -1.91892 2.46138 0
M  V30 6136 N 604.543 -1.41418 -0.695603 0
M  V30 6137 C 605.491 -1.43467 -1.83084 0
M  V30 6138 C 606.485 -0.312719 -1.66489 0
M  V30 6139 O 607.691 -0.484744 -1.7335 0
M  V30 6140 H 604.066 -0.448891 -0.603325 0
M  V30 6141 H 606.037 -2.39144 -1.78473 0
M  V30 6142 C 604.786 -1.3337 -3.21104 0
M  V30 6143 H 604.109 -2.18989 -3.3449 0
M  V30 6144 H 605.549 -1.38865 -4.00615 0
M  V30 6145 C 604.008 -0.0460484 -3.36869 0
M  V30 6146 O 604.538 0.909258 -3.91274 0
M  V30 6147 N 602.744 0.0300222 -2.90584 0
M  V30 6148 H 602.291 -0.748129 -2.46497 0
M  V30 6149 H 602.249 0.890991 -3.01511 0
M  V30 6150 N 606.021 0.929856 -1.27246 0
M  V30 6151 C 607.269 1.674 -1.13233 0
M  V30 6152 C 607.59 1.92311 0.322744 0
M  V30 6153 O 606.86 1.52784 1.22612 0
M  V30 6154 H 605.44 0.620411 -0.416052 0
M  V30 6155 H 608.102 1.11663 -1.59741 0
M  V30 6156 H 607.198 2.64308 -1.65975 0
M  V30 6157 N 607.499 1.09233 1.13605 0
M  V30 6158 C 608.409 0.741939 2.22559 0
M  V30 6159 C 609.425 -0.255236 1.72118 0
M  V30 6160 O 610.601 -0.0970747 2.01166 0
M  V30 6161 C 607.666 0.165595 3.46304 0
M  V30 6162 C 606.727 1.21846 4.11645 0
M  V30 6163 C 605.96 0.669526 5.29484 0
M  V30 6164 O 606.183 -0.508228 5.68131 0
M  V30 6165 O 605.117 1.42361 5.84822 0
M  V30 6166 H 608.943 1.65107 2.54899 0
M  V30 6167 H 606.528 0.866584 1.21699 0
M  V30 6168 H 608.41 -0.152592 4.21124 0
M  V30 6169 H 607.085 -0.716573 3.15669 0
M  V30 6170 H 605.992 1.58931 3.38662 0
M  V30 6171 H 607.325 2.07321 4.46407 0
M  V30 6172 N 608.977 -1.30795 0.87923 0
M  V30 6173 C 609.925 -2.30231 0.331112 0
M  V30 6174 C 610.919 -1.59918 -0.558794 0
M  V30 6175 O 612.125 -1.74441 -0.443866 0
M  V30 6176 H 608.5 -0.746785 0.088409 0
M  V30 6177 H 610.471 -2.73925 1.18353 0
M  V30 6178 C 609.22 -3.44848 -0.444401 0
M  V30 6179 H 608.543 -3.99131 0.231106 0
M  V30 6180 H 609.983 -4.16516 -0.793109 0
M  V30 6181 C 608.442 -2.94329 -1.63926 0
M  V30 6182 O 608.972 -2.93875 -2.73862 0
M  V30 6183 N 607.178 -2.50413 -1.4745 0
M  V30 6184 H 606.725 -2.50982 -0.58015 0
M  V30 6185 H 606.683 -2.16969 -2.27534 0
M  V30 6186 N 610.455 -0.639598 -1.44038 0
M  V30 6187 C 611.403 0.0723409 -2.32487 0
M  V30 6188 C 612.397 0.827129 -1.47834 0
M  V30 6189 O 613.603 0.73907 -1.64127 0
M  V30 6190 H 609.978 0.0421696 -0.750817 0
M  V30 6191 H 611.949 -0.691593 -2.90275 0
M  V30 6192 C 610.698 1.03452 -3.31953 0
M  V30 6193 H 610.021 0.46315 -3.97108 0
M  V30 6194 H 611.461 1.502 -3.96505 0
M  V30 6195 C 609.92 2.12392 -2.61518 0
M  V30 6196 O 610.45 3.2059 -2.42044 0
M  V30 6197 N 608.656 1.88563 -2.21116 0
M  V30 6198 H 608.203 1.00577 -2.37154 0
M  V30 6199 H 608.161 2.61651 -1.74316 0
M  V30 6200 N 611.933 1.52934 -0.380664 0
M  V30 6201 C 613.349 1.59571 -0.0302429 0
M  V30 6202 C 613.549 1.39509 1.45394 0
M  V30 6203 O 612.605 1.20777 2.21741 0
M  V30 6204 C 613.918 2.96519 -0.499691 0
M  V30 6205 C 615.466 3.09672 -0.455204 0
M  V30 6206 C 615.941 4.49056 -0.900703 0
M  V30 6207 N 617.432 4.55215 -0.856367 0
M  V30 6208 C 618.167 5.61282 -1.17259 0
M  V30 6209 N 617.663 6.75035 -1.55885 0
M  V30 6210 N 619.456 5.51343 -1.0944 0
M  V30 6211 H 611.607 1.64224 -1.347 0
M  V30 6212 H 613.87 0.771033 -0.551554 0
M  V30 6213 H 613.576 3.16388 -1.53595 0
M  V30 6214 H 613.45 3.77052 0.105789 0
M  V30 6215 H 615.837 2.89504 0.571949 0
M  V30 6216 H 615.918 2.31113 -1.09638 0
M  V30 6217 H 615.562 4.69964 -1.92604 0
M  V30 6218 H 615.492 5.26068 -0.236629 0
M  V30 6219 H 617.983 3.73546 -0.572013 0
M  V30 6220 H 618.296 7.51926 -1.784 0
M  V30 6221 H 616.641 6.76388 -1.59764 0
M  V30 6222 H 619.832 4.61356 -0.791713 0
M  V30 6223 H 620.005 6.33905 -1.34417 0
M  V30 6224 N 613.412 0.11024 1.57214 0
M  V30 6225 C 614.66 -0.548783 1.94506 0
M  V30 6226 C 614.981 -1.67772 0.99386 0
M  V30 6227 O 614.251 -1.9584 0.0485841 0
M  V30 6228 H 612.831 -0.205715 0.718116 0
M  V30 6229 H 615.493 0.177127 1.94093 0
M  V30 6230 H 614.589 -0.949096 2.97319 0
M  V30 6231 N 614.89 -1.56749 -0.16351 0
M  V30 6232 C 616.12 -1.86307 -0.892936 0
M  V30 6233 C 616.528 -0.6945 -1.75992 0
M  V30 6234 O 615.871 0.345384 -1.80424 0
M  V30 6235 C 615.933 -3.10372 -1.81409 0
M  V30 6236 C 615.597 -4.42913 -1.12593 0
M  V30 6237 C 616.594 -5.17608 -0.487661 0
M  V30 6238 C 614.279 -4.89646 -1.12035 0
M  V30 6239 C 616.273 -6.3723 0.14699 0
M  V30 6240 C 613.96 -6.09197 -0.481883 0
M  V30 6241 C 614.958 -6.82834 0.150678 0
M  V30 6242 O 614.646 -8.00116 0.779065 0
M  V30 6243 H 614.378 -0.622126 -0.264452 0
M  V30 6244 H 616.932 -2.04728 -0.166063 0
M  V30 6245 H 615.162 -2.87917 -2.58148 0
M  V30 6246 H 616.851 -3.26312 -2.41403 0
M  V30 6247 H 617.617 -4.8258 -0.483888 0
M  V30 6248 H 613.496 -4.32265 -1.60212 0
M  V30 6249 H 617.04 -6.94646 0.641325 0
M  V30 6250 H 612.937 -6.43688 -0.483266 0
M  V30 6251 H 613.705 -8.15678 0.679089 0
M  V30 6252 N 616.368 0.432326 -1.51554 0
M  V30 6253 C 617.318 1.52366 -1.69614 0
M  V30 6254 C 618.302 1.51205 -0.550083 0
M  V30 6255 O 619.494 1.57573 -0.806206 0
M  V30 6256 C 616.623 2.90513 -1.82913 0
M  V30 6257 C 615.709 2.9641 -3.03318 0
M  V30 6258 N 616.1 2.72043 -4.26411 0
M  V30 6259 C 614.398 3.27572 -3.02675 0
M  V30 6260 C 615.099 2.83912 -5.07709 0
M  V30 6261 N 614.075 3.15798 -4.42462 0
M  V30 6262 H 617.877 1.32285 -2.62446 0
M  V30 6263 H 615.391 0.639708 -1.4927 0
M  V30 6264 H 617.388 3.69032 -1.93962 0
M  V30 6265 H 616.048 3.1161 -0.912655 0
M  V30 6266 H 617.059 2.46876 -4.55272 0
M  V30 6267 H 613.736 3.54411 -2.20678 0
M  V30 6268 H 615.126 2.68984 -6.15709 0
M  V30 6269 N 617.846 1.41785 0.688094 0
M  V30 6270 C 619.074 1.44915 1.47673 0
M  V30 6271 C 619.489 0.0565786 1.88715 0
M  V30 6272 O 618.846 -0.92579 1.57275 0
M  V30 6273 C 618.897 2.36452 2.73446 0
M  V30 6274 O 618.618 3.7029 2.34131 0
M  V30 6275 C 620.119 2.48463 3.67125 0
M  V30 6276 H 617.339 0.493324 0.454832 0
M  V30 6277 H 619.883 1.86153 0.846594 0
M  V30 6278 H 618.038 1.98502 3.3268 0
M  V30 6279 H 618.452 4.19183 3.15255 0
M  V30 6280 H 619.926 3.16662 4.52138 0
M  V30 6281 H 620.403 1.51826 4.12123 0
M  V30 6282 H 621.009 2.8708 3.13792 0
M  V30 6283 N 619.324 -0.923095 1.27737 0
M  V30 6284 C 620.572 -1.66797 1.14119 0
M  V30 6285 C 620.893 -1.92479 -0.312541 0
M  V30 6286 O 620.163 -1.53432 -1.218 0
M  V30 6287 H 618.743 -0.618196 0.419336 0
M  V30 6288 H 621.405 -1.10815 1.60331 0
M  V30 6289 H 620.501 -2.63424 1.67374 0
M  V30 6290 N 620.802 -1.09834 -1.13024 0
M  V30 6291 C 622.027 -0.85909 -1.88771 0
M  V30 6292 C 622.452 0.584402 -1.78791 0
M  V30 6293 O 621.81 1.41101 -1.13842 0
M  V30 6294 C 621.858 -1.30427 -3.36186 0
M  V30 6295 O 620.962 -0.465368 -4.09766 0
M  V30 6296 H 620.303 -0.310786 -0.586778 0
M  V30 6297 H 622.833 -1.46355 -1.42973 0
M  V30 6298 H 622.843 -1.2915 -3.8702 0
M  V30 6299 H 621.518 -2.3555 -3.42767 0
M  V30 6300 H 620.095 -0.542814 -3.68928 0
M  V30 6301 N 622.28 1.30327 -0.886154 0
M  V30 6302 C 623.528 1.9571 -0.504195 0
M  V30 6303 C 623.849 1.70294 0.950003 0
M  V30 6304 O 623.119 1.02718 1.66811 0
M  V30 6305 H 621.699 0.72412 -0.183465 0
M  V30 6306 H 624.361 1.58835 -1.12949 0
M  V30 6307 H 623.457 3.04704 -0.675431 0
M  V30 6308 N 623.758 0.647228 1.43697 0
M  V30 6309 C 624.691 -0.097646 2.27991 0
M  V30 6310 C 625.669 -0.83571 1.3948 0
M  V30 6311 O 626.853 -0.836509 1.68922 0
M  V30 6312 C 623.98 -1.14484 3.18765 0
M  V30 6313 C 623.026 -0.505503 4.23494 0
M  V30 6314 S 623.859 0.716471 5.30685 0
M  V30 6315 C 625.015 -0.330339 6.25028 0
M  V30 6316 H 625.248 0.617417 2.90818 0
M  V30 6317 H 622.781 0.435881 1.4812 0
M  V30 6318 H 624.739 -1.74403 3.7161 0
M  V30 6319 H 623.4 -1.83219 2.55127 0
M  V30 6320 H 622.593 -1.29473 4.87086 0
M  V30 6321 H 622.195 0.0194377 3.73995 0
M  V30 6322 H 624.487 -1.19828 6.66819 0
M  V30 6323 H 625.43 0.270409 7.07583 0
M  V30 6324 H 625.838 -0.663459 5.60588 0
M  V30 6325 N 625.236 -1.5273 0.388769 0
M  V30 6326 C 626.464 -2.05992 -0.193677 0
M  V30 6327 C 626.879 -1.26053 -1.40557 0
M  V30 6328 O 626.236 -0.307049 -1.79898 0
M  V30 6329 C 626.287 -3.57068 -0.564321 0
M  V30 6330 O 626.008 -4.3398 0.599422 0
M  V30 6331 C 627.509 -4.26674 -1.20269 0
M  V30 6332 H 624.729 -0.670358 -0.0293445 0
M  V30 6333 H 627.273 -1.96857 0.553844 0
M  V30 6334 H 625.428 -3.66277 -1.26174 0
M  V30 6335 H 625.842 -5.2367 0.294895 0
M  V30 6336 H 627.316 -5.33625 -1.4124 0
M  V30 6337 H 627.793 -3.81854 -2.16989 0
M  V30 6338 H 628.399 -4.2178 -0.546047 0
M  V30 6339 N 626.714 -0.118576 -1.57153 0
M  V30 6340 C 627.944 0.546466 -1.99242 0
M  V30 6341 C 628.352 1.60791 -0.997148 0
M  V30 6342 O 627.695 1.83691 0.0181745 0
M  V30 6343 C 627.757 1.23167 -3.37743 0
M  V30 6344 C 627.421 0.318226 -4.55891 0
M  V30 6345 C 628.418 -0.442988 -5.18009 0
M  V30 6346 C 626.103 0.229421 -5.01776 0
M  V30 6347 C 628.097 -1.28074 -6.244 0
M  V30 6348 C 625.784 -0.611966 -6.08028 0
M  V30 6349 C 626.782 -1.36568 -6.69207 0
M  V30 6350 O 626.47 -2.1931 -7.73407 0
M  V30 6351 H 626.202 0.149297 -0.659307 0
M  V30 6352 H 628.756 -0.201603 -2.04408 0
M  V30 6353 H 626.986 2.0268 -3.29329 0
M  V30 6354 H 628.675 1.79358 -3.64123 0
M  V30 6355 H 629.441 -0.38425 -4.83475 0
M  V30 6356 H 625.32 0.805771 -4.53903 0
M  V30 6357 H 628.864 -1.86952 -6.72082 0
M  V30 6358 H 624.761 -0.6721 -6.41991 0
M  V30 6359 H 625.529 -2.12247 -7.90502 0
M  V30 6360 N 628.193 1.56834 0.155195 0
M  V30 6361 C 629.44 1.82898 0.869179 0
M  V30 6362 C 629.768 0.698194 1.81537 0
M  V30 6363 O 629.023 -0.313404 1.93174 0
M  V30 6364 C 629.322 3.15239 1.68402 0
M  V30 6365 C 628.988 4.42123 0.885341 0
M  V30 6366 C 627.65 4.76583 0.664971 0
M  V30 6367 C 630.002 5.20178 0.326234 0
M  V30 6368 C 627.33 5.86566 -0.125346 0
M  V30 6369 C 629.682 6.3099 -0.45108 0
M  V30 6370 C 628.346 6.64006 -0.682102 0
M  V30 6371 H 627.616 0.66927 0.318055 0
M  V30 6372 H 630.263 1.91036 0.133241 0
M  V30 6373 H 628.568 3.02515 2.48982 0
M  V30 6374 H 630.265 3.32618 2.23978 0
M  V30 6375 H 626.855 4.15102 1.06716 0
M  V30 6376 H 631.039 4.93936 0.483787 0
M  V30 6377 H 626.295 6.10594 -0.313915 0
M  V30 6378 H 630.469 6.9067 -0.89149 0
M  V30 6379 H 628.096 7.49065 -1.29636 0
M  V30 6380 N 629.671 -0.424282 1.51781 0
M  V30 6381 C 630.901 -1.19297 1.68677 0
M  V30 6382 C 631.309 -1.85152 0.389258 0
M  V30 6383 O 630.652 -1.72067 -0.643311 0
M  V30 6384 C 630.714 -2.30929 2.75521 0
M  V30 6385 C 630.378 -1.85335 4.17732 0
M  V30 6386 C 631.375 -1.34951 5.0208 0
M  V30 6387 C 629.06 -1.92629 4.63896 0
M  V30 6388 C 631.054 -0.924636 6.30658 0
M  V30 6389 C 628.741 -1.49754 5.92467 0
M  V30 6390 C 629.739 -0.997543 6.75676 0
M  V30 6391 O 629.427 -0.57492 8.01842 0
M  V30 6392 H 629.159 -0.36512 0.568914 0
M  V30 6393 H 631.713 -0.507327 1.99036 0
M  V30 6394 H 629.943 -3.02811 2.40505 0
M  V30 6395 H 631.632 -2.92748 2.81165 0
M  V30 6396 H 632.398 -1.287 4.67612 0
M  V30 6397 H 628.277 -2.30491 3.99243 0
M  V30 6398 H 631.821 -0.533682 6.95556 0
M  V30 6399 H 627.718 -1.55679 6.26446 0
M  V30 6400 H 628.486 -0.699597 8.15505 0
M  V30 6401 N 631.149 -1.42148 -0.680565 0
M  V30 6402 C 632.377 -1.45696 -1.46902 0
M  V30 6403 C 632.792 -0.0665858 -1.88683 0
M  V30 6404 O 632.149 0.917436 -1.57764 0
M  V30 6405 C 632.2 -2.37898 -2.72188 0
M  V30 6406 O 631.921 -3.71526 -2.32163 0
M  V30 6407 C 633.422 -2.50407 -3.65802 0
M  V30 6408 H 630.642 -0.495729 -0.45221 0
M  V30 6409 H 633.186 -1.866 -0.836709 0
M  V30 6410 H 631.341 -2.00263 -3.31622 0
M  V30 6411 H 631.755 -4.20849 -3.13027 0
M  V30 6412 H 633.229 -3.19056 -4.50452 0
M  V30 6413 H 633.706 -1.5401 -4.11312 0
M  V30 6414 H 634.312 -2.8874 -3.12265 0
M  V30 6415 N 632.627 0.916307 -1.28225 0
M  V30 6416 C 633.852 1.7043 -1.18188 0
M  V30 6417 C 634.277 1.86346 0.256274 0
M  V30 6418 O 633.635 1.37175 1.18544 0
M  V30 6419 C 633.683 3.07546 -1.88275 0
M  V30 6420 O 632.787 3.94904 -1.18848 0
M  V30 6421 H 632.128 0.521967 -0.410423 0
M  V30 6422 H 634.658 1.14589 -1.69501 0
M  V30 6423 H 634.668 3.57793 -1.96082 0
M  V30 6424 H 633.343 2.95279 -2.92887 0
M  V30 6425 H 631.92 3.53339 -1.19187 0
M  V30 6426 N 634.105 1.10431 1.1244 0
M  V30 6427 C 635.382 0.758797 1.80282 0
M  V30 6428 C 635.762 -0.754727 1.97147 0
M  V30 6429 O 635.11 -1.68094 1.54779 0
M  V30 6430 C 635.32 1.50982 3.14651 0
M  V30 6431 C 636.668 1.68232 3.8985 0
M  V30 6432 O 637.692 1.47319 3.24308 0
M  V30 6433 O 636.551 2.02905 5.07437 0
M  V30 6434 H 633.645 0.273756 0.780376 0
M  V30 6435 H 636.191 1.20713 1.19275 0
M  V30 6436 H 634.963 2.53989 2.97666 0
M  V30 6437 H 634.586 1.05435 3.83366 0
M  V30 6438 N 635.583 -1.29855 0.893053 0
M  V30 6439 C 636.513 -2.3035 0.382249 0
M  V30 6440 C 637.494 -1.61328 -0.539203 0
M  V30 6441 O 638.679 -1.88882 -0.451342 0
M  V30 6442 C 635.809 -3.45024 -0.396983 0
M  V30 6443 C 634.763 -4.258 0.433437 0
M  V30 6444 C 634.089 -5.32605 -0.472889 0
M  V30 6445 C 635.389 -4.94549 1.67984 0
M  V30 6446 H 637.083 -2.73325 1.22205 0
M  V30 6447 H 634.629 -1.314 0.589073 0
M  V30 6448 H 636.582 -4.14398 -0.765024 0
M  V30 6449 H 635.306 -3.00875 -1.2705 0
M  V30 6450 H 633.965 -3.58125 0.783723 0
M  V30 6451 H 633.613 -4.84702 -1.34435 0
M  V30 6452 H 633.313 -5.87547 0.0789958 0
M  V30 6453 H 634.837 -6.04832 -0.837269 0
M  V30 6454 H 636.251 -5.56395 1.38192 0
M  V30 6455 H 634.648 -5.59393 2.17254 0
M  V30 6456 H 635.718 -4.20215 2.41965 0
M  V30 6457 N 637.061 -0.65484 -1.43351 0
M  V30 6458 C 638.309 -0.168559 -2.01396 0
M  V30 6459 C 638.63 1.22235 -1.51933 0
M  V30 6460 O 637.9 1.81685 -0.732627 0
M  V30 6461 H 636.48 -0.0593244 -0.744641 0
M  V30 6462 H 639.142 -0.846871 -1.75539 0
M  V30 6463 H 638.238 -0.154428 -3.11718 0
M  V30 6464 N 638.539 1.52521 -0.396863 0
M  V30 6465 C 639.471 2.24333 0.469814 0
M  V30 6466 C 640.484 1.2685 1.02043 0
M  V30 6467 O 641.673 1.52876 0.92147 0
M  V30 6468 C 638.773 2.95202 1.66461 0
M  V30 6469 C 637.946 4.19454 1.24003 0
M  V30 6470 C 637.005 4.73255 2.30036 0
M  V30 6471 O 636.031 5.36151 1.91131 0
M  V30 6472 N 637.233 4.53765 3.62047 0
M  V30 6473 H 639.998 2.99347 -0.145468 0
M  V30 6474 H 637.559 1.60348 -0.223606 0
M  V30 6475 H 639.551 3.28092 2.36934 0
M  V30 6476 H 638.121 2.2345 2.18607 0
M  V30 6477 H 637.341 3.92517 0.363892 0
M  V30 6478 H 638.629 5.0017 0.933135 0
M  V30 6479 H 638.027 4.03576 3.96412 0
M  V30 6480 H 636.584 4.91124 4.28533 0
M  V30 6481 N 640.017 0.126909 1.57088 0
M  V30 6482 C 641.247 -0.535892 1.99529 0
M  V30 6483 C 641.655 -1.60259 1.00566 0
M  V30 6484 O 640.998 -1.83698 -0.00843269 0
M  V30 6485 C 641.06 -1.21374 3.38391 0
M  V30 6486 C 640.724 -0.294044 4.56053 0
M  V30 6487 C 641.721 0.470454 5.17767 0
M  V30 6488 C 639.406 -0.202808 5.0189 0
M  V30 6489 C 641.4 1.31384 6.23712 0
M  V30 6490 C 639.087 0.644203 6.07695 0
M  V30 6491 C 640.085 1.40115 6.68473 0
M  V30 6492 O 639.773 2.23408 7.72233 0
M  V30 6493 H 639.505 -0.145799 0.66009 0
M  V30 6494 H 642.059 0.212441 2.04298 0
M  V30 6495 H 640.289 -2.00931 3.30399 0
M  V30 6496 H 641.978 -1.77424 3.65069 0
M  V30 6497 H 642.744 0.409884 4.83265 0
M  V30 6498 H 638.623 -0.781688 4.54324 0
M  V30 6499 H 642.167 1.90514 6.71081 0
M  V30 6500 H 638.064 0.706137 6.41626 0
M  V30 6501 H 638.832 2.16436 7.89365 0
M  V30 6502 N 641.495 -1.56914 -0.146875 0
M  V30 6503 C 642.772 -1.74273 -0.888165 0
M  V30 6504 C 643.152 -0.69496 -1.99333 0
M  V30 6505 O 642.5 0.286093 -2.26702 0
M  V30 6506 C 642.71 -3.18336 -1.43051 0
M  V30 6507 C 644.058 -3.80024 -1.89387 0
M  V30 6508 O 645.082 -3.21765 -1.52792 0
M  V30 6509 O 643.941 -4.82367 -2.56874 0
M  V30 6510 H 641.035 -0.712565 -0.419738 0
M  V30 6511 H 643.581 -1.6918 -0.132791 0
M  V30 6512 H 642.353 -3.86092 -0.636274 0
M  V30 6513 H 641.976 -3.27854 -2.24938 0
M  V30 6514 N 642.974 0.416227 -1.52004 0
M  V30 6515 C 644.251 1.17637 -1.56272 0
M  V30 6516 C 644.631 2.08352 -0.339493 0
M  V30 6517 O 643.979 2.1833 0.674124 0
M  V30 6518 C 644.189 1.95986 -2.88774 0
M  V30 6519 C 645.537 2.52299 -3.41512 0
M  V30 6520 O 646.561 2.06174 -2.90467 0
M  V30 6521 O 645.42 3.3648 -4.30631 0
M  V30 6522 H 642.514 0.536726 -0.629169 0
M  V30 6523 H 645.06 0.423583 -1.64329 0
M  V30 6524 H 643.832 1.29487 -3.69254 0
M  V30 6525 H 643.455 2.78285 -2.83978 0
M  V30 6526 N 644.452 1.42507 0.673017 0
M  V30 6527 C 645.415 1.4582 1.76831 0
M  V30 6528 C 646.415 0.345542 1.57043 0
M  V30 6529 O 647.605 0.606447 1.63303 0
M  V30 6530 C 644.737 1.29158 3.15485 0
M  V30 6531 H 645.93 2.43345 1.7528 0
M  V30 6532 H 643.483 1.28981 0.882817 0
M  V30 6533 H 644.218 0.325626 3.22661 0
M  V30 6534 H 644.003 2.09797 3.31252 0
M  V30 6535 H 645.493 1.34363 3.95394 0
M  V30 6536 N 645.93 -0.909495 1.28709 0
M  V30 6537 C 647.177 -1.65905 1.16111 0
M  V30 6538 C 647.505 -1.92334 -0.289436 0
M  V30 6539 O 646.76 -1.52495 -1.22653 0
M  V30 6540 C 647.059 -3.02117 1.90945 0
M  V30 6541 C 646.725 -2.95332 3.40719 0
M  V30 6542 C 645.387 -2.93189 3.81567 0
M  V30 6543 C 647.739 -2.85264 4.36204 0
M  V30 6544 C 645.067 -2.78784 5.16233 0
M  V30 6545 C 647.419 -2.724 5.70948 0
M  V30 6546 C 646.083 -2.68617 6.11066 0
M  V30 6547 H 645.353 -0.60709 0.42488 0
M  V30 6548 H 648 -1.05932 1.59533 0
M  V30 6549 H 646.305 -3.65901 1.40085 0
M  V30 6550 H 648.002 -3.59026 1.7861 0
M  V30 6551 H 644.592 -2.97797 3.08245 0
M  V30 6552 H 648.776 -2.86005 4.05605 0
M  V30 6553 H 644.032 -2.74254 5.46438 0
M  V30 6554 H 648.206 -2.63579 6.44592 0
M  V30 6555 H 645.833 -2.57213 7.15364 0
M  V30 6556 N 647.408 -1.11026 -1.11852 0
M  V30 6557 C 648.654 -0.867633 -1.83967 0
M  V30 6558 C 649.009 0.600309 -1.82795 0
M  V30 6559 O 648.302 1.43731 -1.26696 0
M  V30 6560 C 648.496 -1.35777 -3.30604 0
M  V30 6561 C 648.325 -2.87183 -3.46058 0
M  V30 6562 C 647.095 -3.55256 -3.59334 0
M  V30 6563 C 649.293 -3.85258 -3.40706 0
M  V30 6564 N 647.275 -4.94923 -3.63215 0
M  V30 6565 C 648.646 -5.1097 -3.51155 0
M  V30 6566 C 650.701 -3.77879 -3.2421 0
M  V30 6567 C 649.404 -6.30171 -3.46809 0
M  V30 6568 C 651.43 -4.96586 -3.2118 0
M  V30 6569 C 650.792 -6.21149 -3.32196 0
M  V30 6570 H 646.891 -0.370574 -0.688621 0
M  V30 6571 H 649.475 -1.41379 -1.33865 0
M  V30 6572 H 647.646 -0.83885 -3.79233 0
M  V30 6573 H 649.378 -1.05874 -3.90606 0
M  V30 6574 H 646.133 -3.05714 -3.61713 0
M  V30 6575 H 646.557 -5.67726 -3.68804 0
M  V30 6576 H 651.199 -2.82485 -3.14582 0
M  V30 6577 H 648.917 -7.25847 -3.55206 0
M  V30 6578 H 652.503 -4.92591 -3.09589 0
M  V30 6579 H 651.383 -7.11463 -3.29834 0
M  V30 6580 N 648.886 1.2938 -0.899927 0
M  V30 6581 C 649.849 2.25983 -0.382677 0
M  V30 6582 C 650.849 1.53366 0.483259 0
M  V30 6583 O 652.039 1.71798 0.28828 0
M  V30 6584 C 649.171 3.37878 0.452915 0
M  V30 6585 H 650.364 2.73252 -1.23586 0
M  V30 6586 H 647.917 1.40825 -0.678088 0
M  V30 6587 H 648.652 2.95949 1.32608 0
M  V30 6588 H 648.437 3.91742 -0.167562 0
M  V30 6589 H 649.927 4.09746 0.806107 0
M  V30 6590 N 650.364 0.662433 1.43002 0
M  V30 6591 C 651.592 0.187615 2.06048 0
M  V30 6592 C 652.007 -1.15039 1.49705 0
M  V30 6593 O 651.364 -1.71209 0.631956 0
M  V30 6594 C 651.415 0.100498 3.6136 0
M  V30 6595 O 651.136 1.38562 4.15611 0
M  V30 6596 C 652.637 -0.399298 4.41498 0
M  V30 6597 H 649.857 0.0941675 0.664359 0
M  V30 6598 H 652.401 0.905681 1.83351 0
M  V30 6599 H 650.556 -0.568181 3.83211 0
M  V30 6600 H 650.97 1.25084 5.09366 0
M  V30 6601 H 652.444 -0.409187 5.50481 0
M  V30 6602 H 652.921 -1.43232 4.15188 0
M  V30 6603 H 653.527 0.23721 4.24638 0
M  V30 6604 N 651.842 -1.52309 0.404946 0
M  V30 6605 C 652.805 -2.25491 -0.410651 0
M  V30 6606 C 653.805 -1.27704 -0.977154 0
M  V30 6607 O 654.995 -1.51679 -0.856691 0
M  V30 6608 C 652.127 -3.02197 -1.57765 0
M  V30 6609 H 653.32 -2.99015 0.230277 0
M  V30 6610 H 650.873 -1.55506 0.157377 0
M  V30 6611 H 651.608 -2.33013 -2.25556 0
M  V30 6612 H 651.393 -3.73987 -1.17797 0
M  V30 6613 H 652.883 -3.57719 -2.15469 0
M  V30 6614 N 653.32 -0.135238 -1.57019 0
M  V30 6615 C 654.268 0.826099 -2.17436 0
M  V30 6616 C 655.262 1.26378 -1.12805 0
M  V30 6617 O 656.468 1.23363 -1.31079 0
M  V30 6618 H 652.843 0.284568 -0.696078 0
M  V30 6619 H 654.814 0.292212 -2.96966 0
M  V30 6620 C 653.563 2.05991 -2.80112 0
M  V30 6621 H 652.886 1.73209 -3.60331 0
M  V30 6622 H 654.326 2.71225 -3.25903 0
M  V30 6623 C 652.785 2.86027 -1.78017 0
M  V30 6624 O 653.315 3.81971 -1.24344 0
M  V30 6625 N 651.521 2.50332 -1.47588 0
M  V30 6626 H 651.068 1.72377 -1.91426 0
M  V30 6627 H 651.026 3.04177 -0.795228 0
M  V30 6628 N 654.798 1.5699 0.138552 0
M  V30 6629 C 656.028 1.87704 0.863184 0
M  V30 6630 C 656.436 0.722411 1.74865 0
M  V30 6631 O 655.779 -0.316636 1.80951 0
M  V30 6632 C 655.841 3.13219 1.76449 0
M  V30 6633 C 655.505 4.44648 1.05532 0
M  V30 6634 C 656.502 5.18318 0.405252 0
M  V30 6635 C 654.187 4.91367 1.04231 0
M  V30 6636 C 656.181 6.36916 -0.24835 0
M  V30 6637 C 653.868 6.09887 0.384904 0
M  V30 6638 C 654.866 6.82508 -0.259292 0
M  V30 6639 O 654.554 7.98775 -0.906258 0
M  V30 6640 H 654.286 0.626255 0.254521 0
M  V30 6641 H 656.84 2.04966 0.133472 0
M  V30 6642 H 655.07 2.91988 2.53535 0
M  V30 6643 H 656.759 3.30111 2.36181 0
M  V30 6644 H 657.525 4.83289 0.407053 0
M  V30 6645 H 653.404 4.34759 1.53315 0
M  V30 6646 H 656.948 6.93538 -0.751755 0
M  V30 6647 H 652.845 6.44376 0.380799 0
M  V30 6648 H 653.613 8.14494 -0.80877 0
M  V30 6649 N 656.276 -0.40816 1.52223 0
M  V30 6650 C 657.224 -1.51788 1.76248 0
M  V30 6651 C 658.218 -1.57264 0.629638 0
M  V30 6652 O 659.424 -1.60659 0.811704 0
M  V30 6653 H 655.799 -0.504823 0.557367 0
M  V30 6654 H 657.77 -1.2871 2.69214 0
M  V30 6655 C 656.519 -2.89145 1.93107 0
M  V30 6656 H 655.842 -2.85674 2.79697 0
M  V30 6657 H 657.282 -3.66082 2.13916 0
M  V30 6658 C 655.741 -3.29581 0.698431 0
M  V30 6659 O 656.271 -4.01479 -0.133238 0
M  V30 6660 N 654.477 -2.85651 0.53405 0
M  V30 6661 H 654.024 -2.2731 1.21194 0
M  V30 6662 H 653.982 -3.13065 -0.289387 0
M  V30 6663 N 657.755 -1.42862 -0.66545 0
M  V30 6664 C 659.171 -1.25993 -0.979687 0
M  V30 6665 C 659.371 -0.170831 -2.00775 0
M  V30 6666 O 658.427 0.454827 -2.4837 0
M  V30 6667 C 659.74 -2.62005 -1.47559 0
M  V30 6668 C 661.288 -2.69437 -1.59288 0
M  V30 6669 C 661.763 -4.05838 -2.12272 0
M  V30 6670 N 663.254 -4.0784 -2.19592 0
M  V30 6671 C 663.989 -5.10205 -2.61684 0
M  V30 6672 N 663.485 -6.22949 -3.03161 0
M  V30 6673 N 665.278 -4.9756 -2.61516 0
M  V30 6674 H 657.429 -2.12395 0.0150493 0
M  V30 6675 H 659.692 -0.946355 -0.0558187 0
M  V30 6676 H 659.398 -3.42605 -0.794654 0
M  V30 6677 H 659.272 -2.86566 -2.45275 0
M  V30 6678 H 661.659 -1.89178 -2.26486 0
M  V30 6679 H 661.74 -2.48655 -0.600374 0
M  V30 6680 H 661.384 -4.86559 -1.4568 0
M  V30 6681 H 661.314 -4.23977 -3.12331 0
M  V30 6682 H 663.805 -3.26452 -1.90361 0
M  V30 6683 H 664.118 -6.96899 -3.33993 0
M  V30 6684 H 662.463 -6.2644 -3.00995 0
M  V30 6685 H 665.654 -4.08551 -2.28481 0
M  V30 6686 H 665.827 -5.77468 -2.93999 0
M  V30 6687 N 659.233 0.902656 -1.29189 0
M  V30 6688 C 660.163 2.02294 -1.16616 0
M  V30 6689 C 661.144 1.6999 -0.0611175 0
M  V30 6690 O 662.329 1.9271 -0.240072 0
M  V30 6691 C 659.459 3.37018 -0.83882 0
M  V30 6692 C 658.413 3.83522 -1.89986 0
M  V30 6693 C 657.739 5.15337 -1.42589 0
M  V30 6694 C 659.039 4.04169 -3.30824 0
M  V30 6695 H 660.733 2.13071 -2.10336 0
M  V30 6696 H 658.279 1.02378 -1.01266 0
M  V30 6697 H 660.232 4.14895 -0.737584 0
M  V30 6698 H 658.956 3.26325 0.134071 0
M  V30 6699 H 657.615 3.07859 -1.99043 0
M  V30 6700 H 657.263 5.01056 -0.441759 0
M  V30 6701 H 656.963 5.47423 -2.13547 0
M  V30 6702 H 658.487 5.95758 -1.3381 0
M  V30 6703 H 659.901 4.72537 -3.24626 0
M  V30 6704 H 658.298 4.47604 -3.99713 0
M  V30 6705 H 659.368 3.08604 -3.74021 0
M  V30 6706 N 660.711 1.11618 1.11262 0
M  V30 6707 C 662.122 0.881942 1.64556 0
M  V30 6708 C 662.473 -0.585442 1.87262 0
M  V30 6709 O 661.598 -1.44795 1.60821 0
M  V30 6710 C 662.193 1.59446 2.98935 0
M  V30 6711 C 660.752 1.40661 3.4913 0
M  V30 6712 C 659.899 1.63593 2.23903 0
M  V30 6713 H 662.85 1.27217 0.94877 0
M  V30 6714 H 662.871 1.04054 3.65996 0
M  V30 6715 H 662.383 2.66241 2.82378 0
M  V30 6716 H 660.484 0.360835 3.70849 0
M  V30 6717 H 660.597 2.15693 4.27801 0
M  V30 6718 H 658.961 1.05944 2.3162 0
M  V30 6719 H 659.744 2.71666 2.09886 0
M  V30 6720 N 662.189 -1.289 0.906776 0
M  V30 6721 C 663.437 -1.94883 0.535266 0
M  V30 6722 C 663.758 -1.71784 -0.922791 0
M  V30 6723 O 663.028 -1.05359 -1.65156 0
M  V30 6724 H 661.608 -0.721109 0.194962 0
M  V30 6725 H 664.27 -1.57018 1.15461 0
M  V30 6726 H 663.366 -3.03591 0.723821 0
M  V30 6727 N 663.667 -0.670007 -1.42649 0
M  V30 6728 C 664.916 -0.187526 -2.00826 0
M  V30 6729 C 665.229 1.21142 -1.53571 0
M  V30 6730 O 666.435 1.79001 -2.04134 0
M  V30 6731 C 664.891 -0.284409 -3.58774 0
M  V30 6732 C 664.499 -1.6871 -4.15019 0
M  V30 6733 C 666.243 0.139605 -4.2427 0
M  V30 6734 C 664.15 -1.73701 -5.65316 0
M  V30 6735 H 663.08 -0.0663468 -0.751075 0
M  V30 6736 H 665.731 -0.834492 -1.63427 0
M  V30 6737 H 664.113 0.430364 -3.93655 0
M  V30 6738 H 665.287 -2.42857 -3.91608 0
M  V30 6739 H 663.602 -2.05855 -3.61957 0
M  V30 6740 H 666.199 0.122398 -5.3456 0
M  V30 6741 H 666.542 1.17403 -3.99402 0
M  V30 6742 H 667.075 -0.523995 -3.94334 0
M  V30 6743 H 663.814 -2.75109 -5.94975 0
M  V30 6744 H 663.334 -1.03903 -5.90732 0
M  V30 6745 H 665.013 -1.48829 -6.2965 0
M  V30 6746 N 665.145 1.52092 -0.413018 0
M  V30 6747 C 666.373 2.06274 0.160881 0
M  V30 6748 C 666.788 1.28273 1.38533 0
M  V30 6749 O 666.145 0.33563 1.79387 0
M  V30 6750 C 666.196 3.57921 0.507443 0
M  V30 6751 O 665.917 4.32971 -0.668388 0
M  V30 6752 C 667.418 4.28533 1.13465 0
M  V30 6753 H 664.638 0.67074 0.0186759 0
M  V30 6754 H 667.182 1.95951 -0.585092 0
M  V30 6755 H 665.337 3.68238 1.20331 0
M  V30 6756 H 665.751 5.23135 -0.378169 0
M  V30 6757 H 667.225 5.35804 1.32732 0
M  V30 6758 H 667.702 3.85258 2.10886 0
M  V30 6759 H 668.308 4.22595 0.478876 0
M  V30 6760 N 666.623 0.143563 1.56945 0
M  V30 6761 C 667.869 -0.50916 1.96304 0
M  V30 6762 C 668.202 -1.64741 1.0283 0
M  V30 6763 O 667.477 -1.94374 0.0700361 0
M  V30 6764 C 667.76 -1.0186 3.45393 0
M  V30 6765 C 667.613 0.117923 4.49645 0
M  V30 6766 C 668.932 -1.90151 3.96901 0
M  V30 6767 H 666.051 -0.183608 0.713763 0
M  V30 6768 H 668.693 0.224095 1.88674 0
M  V30 6769 H 666.843 -1.64345 3.52027 0
M  V30 6770 H 668.515 0.754145 4.55094 0
M  V30 6771 H 666.758 0.777568 4.26774 0
M  V30 6772 H 667.429 -0.280187 5.51288 0
M  V30 6773 H 669.905 -1.375 3.92725 0
M  V30 6774 H 668.781 -2.22707 5.0169 0
M  V30 6775 H 669.042 -2.83718 3.39052 0
M  V30 6776 N 668.101 -1.57061 -0.130224 0
M  V30 6777 C 669.378 -1.75205 -0.869631 0
M  V30 6778 C 669.758 -0.716063 -1.98584 0
M  V30 6779 O 669.106 0.262032 -2.26993 0
M  V30 6780 C 669.316 -3.19835 -1.39666 0
M  V30 6781 C 670.664 -3.82011 -1.85345 0
M  V30 6782 O 671.688 -3.23368 -1.49371 0
M  V30 6783 O 670.547 -4.85064 -2.51744 0
M  V30 6784 H 667.641 -0.716977 -0.412157 0
M  V30 6785 H 670.187 -1.69311 -0.11484 0
M  V30 6786 H 668.959 -3.86745 -0.595288 0
M  V30 6787 H 668.582 -3.30222 -2.21448 0
M  V30 6788 N 669.579 0.400081 -1.52437 0
M  V30 6789 C 670.807 1.16768 -1.70801 0
M  V30 6790 C 671.222 1.84036 -0.421462 0
M  V30 6791 O 670.579 1.72242 0.603228 0
M  V30 6792 C 670.63 2.22403 -2.8499 0
M  V30 6793 O 670.351 1.57879 -4.08663 0
M  V30 6794 C 671.852 3.11974 -3.1494 0
M  V30 6795 H 669.072 0.350533 -0.57216 0
M  V30 6796 H 671.616 0.469534 -1.99037 0
M  V30 6797 H 669.771 2.87871 -2.59247 0
M  V30 6798 H 670.185 2.27982 -4.7236 0
M  V30 6799 H 671.659 3.82148 -3.9833 0
M  V30 6800 H 672.136 3.74858 -2.28863 0
M  V30 6801 H 672.742 2.52165 -3.42481 0
M  V30 6802 N 671.057 1.43213 0.657864 0
M  V30 6803 C 672.285 1.48015 1.44566 0
M  V30 6804 C 672.7 0.0965951 1.88553 0
M  V30 6805 O 672.057 -0.892221 1.59203 0
M  V30 6806 C 672.108 2.42199 2.68369 0
M  V30 6807 O 671.829 3.75173 2.26223 0
M  V30 6808 C 673.33 2.56195 3.61772 0
M  V30 6809 H 670.55 0.502861 0.444266 0
M  V30 6810 H 673.094 1.87907 0.806917 0
M  V30 6811 H 671.249 2.05514 3.28394 0
M  V30 6812 H 671.663 4.25776 3.06293 0
M  V30 6813 H 673.137 3.26182 4.4532 0
M  V30 6814 H 673.614 1.60534 4.0881 0
M  V30 6815 H 674.22 2.93671 3.07632 0
M  V30 6816 N 672.536 -0.895792 1.29666 0
M  V30 6817 C 673.947 -1.46195 1.1612 0
M  V30 6818 C 674.298 -1.94699 -0.242195 0
M  V30 6819 O 673.423 -1.8406 -1.13802 0
M  V30 6820 C 674.018 -2.65718 2.10189 0
M  V30 6821 C 672.577 -3.18458 2.00653 0
M  V30 6822 C 671.724 -1.91149 2.00891 0
M  V30 6823 H 674.675 -0.706756 1.42094 0
M  V30 6824 H 674.696 -3.4158 1.6764 0
M  V30 6825 H 674.208 -2.30386 3.12321 0
M  V30 6826 H 672.309 -3.58474 1.01623 0
M  V30 6827 H 672.422 -3.82491 2.88509 0
M  V30 6828 H 670.786 -2.09021 1.45542 0
M  V30 6829 H 671.569 -1.58089 3.04734 0
M  V30 6830 N 674.014 -1.12206 -1.10668 0
M  V30 6831 C 674.944 -0.810086 -2.18997 0
M  V30 6832 C 675.925 0.225065 -1.68604 0
M  V30 6833 O 677.11 0.086783 -1.94006 0
M  V30 6834 C 674.24 -0.261262 -3.46316 0
M  V30 6835 C 673.194 -1.2292 -4.09969 0
M  V30 6836 C 672.52 -0.540713 -5.31959 0
M  V30 6837 C 673.82 -2.58295 -4.53962 0
M  V30 6838 H 675.514 -1.7159 -2.45352 0
M  V30 6839 H 673.06 -0.82646 -1.17922 0
M  V30 6840 H 675.013 -0.0307522 -4.21389 0
M  V30 6841 H 673.737 0.679879 -3.19445 0
M  V30 6842 H 672.396 -1.44548 -3.369 0
M  V30 6843 H 672.044 0.405492 -5.01363 0
M  V30 6844 H 671.744 -1.18637 -5.75499 0
M  V30 6845 H 673.268 -0.319184 -6.09765 0
M  V30 6846 H 674.682 -2.40709 -5.20319 0
M  V30 6847 H 673.079 -3.18916 -5.08343 0
M  V30 6848 H 674.149 -3.16918 -3.67002 0
M  V30 6849 N 675.492 1.28418 -0.913599 0
M  V30 6850 C 676.903 1.77024 -0.593237 0
M  V30 6851 C 677.254 1.74779 0.891441 0
M  V30 6852 O 676.379 1.34237 1.69733 0
M  V30 6853 C 676.974 3.21456 -1.07011 0
M  V30 6854 C 675.533 3.67786 -0.800664 0
M  V30 6855 C 674.68 2.48185 -1.23691 0
M  V30 6856 H 677.631 1.14883 -1.09487 0
M  V30 6857 H 677.652 3.78269 -0.411481 0
M  V30 6858 H 677.164 3.23058 -2.1507 0
M  V30 6859 H 675.265 3.71644 0.266725 0
M  V30 6860 H 675.378 4.57934 -1.4083 0
M  V30 6861 H 673.742 2.46116 -0.655655 0
M  V30 6862 H 674.525 2.52506 -2.32585 0
M  V30 6863 N 676.97 0.677563 1.42291 0
M  V30 6864 C 678.247 0.129803 1.95169 0
M  V30 6865 C 678.627 -1.35605 1.61786 0
M  V30 6866 O 677.975 -2.09361 0.915444 0
M  V30 6867 C 678.185 0.401889 3.46678 0
M  V30 6868 C 679.533 0.319889 4.23393 0
M  V30 6869 O 680.557 0.33579 3.54614 0
M  V30 6870 O 679.416 0.264459 5.4586 0
M  V30 6871 H 676.51 0.00447433 0.826988 0
M  V30 6872 H 679.056 0.752483 1.52105 0
M  V30 6873 H 677.828 1.43108 3.64192 0
M  V30 6874 H 677.451 -0.252662 3.96796 0
M  V30 6875 N 678.448 -1.51871 0.421078 0
M  V30 6876 C 679.395 -2.27334 -0.398508 0
M  V30 6877 C 680.365 -1.30241 -1.03085 0
M  V30 6878 O 681.55 -1.59121 -1.05285 0
M  V30 6879 C 678.69 -3.10664 -1.50272 0
M  V30 6880 C 677.803 -4.2273 -0.890122 0
M  V30 6881 C 676.938 -4.93399 -1.96803 0
M  V30 6882 C 675.977 -5.97409 -1.333 0
M  V30 6883 N 675.114 -6.61548 -2.35156 0
M  V30 6884 H 679.954 -2.96938 0.251411 0
M  V30 6885 H 677.491 -1.46472 0.135825 0
M  V30 6886 H 679.449 -3.57292 -2.15403 0
M  V30 6887 H 678.079 -2.43207 -2.1225 0
M  V30 6888 H 677.131 -3.80186 -0.127537 0
M  V30 6889 H 678.443 -4.97302 -0.386349 0
M  V30 6890 H 677.597 -5.43491 -2.69633 0
M  V30 6891 H 676.336 -4.18421 -2.50549 0
M  V30 6892 H 675.341 -5.46624 -0.59008 0
M  V30 6893 H 676.566 -6.74335 -0.803076 0
M  V30 6894 H 674.512 -5.89394 -2.88012 0
M  V30 6895 H 674.429 -7.31832 -1.89624 0
M  V30 6896 H 675.697 -7.16276 -3.0752 0
M  V30 6897 N 679.926 -0.151884 -1.56866 0
M  V30 6898 C 681.172 0.498742 -1.96572 0
M  V30 6899 C 681.505 1.64194 -1.03702 0
M  V30 6900 O 680.78 1.94334 -0.0803432 0
M  V30 6901 C 681.063 1.00027 -3.45929 0
M  V30 6902 C 680.916 -0.141767 -4.49577 0
M  V30 6903 C 682.235 1.88044 -3.97904 0
M  V30 6904 H 679.354 0.17982 -0.714726 0
M  V30 6905 H 681.996 -0.234097 -1.88552 0
M  V30 6906 H 680.146 1.62476 -3.52894 0
M  V30 6907 H 681.818 -0.778269 -4.54687 0
M  V30 6908 H 680.061 -0.80019 -4.26356 0
M  V30 6909 H 680.732 0.250947 -5.51429 0
M  V30 6910 H 683.208 1.35416 -3.93449 0
M  V30 6911 H 682.084 2.20043 -5.02864 0
M  V30 6912 H 682.345 2.81916 -3.40552 0
M  V30 6913 N 681.404 1.57128 0.121893 0
M  V30 6914 C 682.314 2.03425 1.16857 0
M  V30 6915 C 683.33 0.954108 1.45509 0
M  V30 6916 O 684.506 1.26541 1.56682 0
M  V30 6917 C 681.571 2.42685 2.47599 0
M  V30 6918 C 680.632 3.64767 2.2637 0
M  V30 6919 C 679.865 4.02145 3.50878 0
M  V30 6920 O 680.088 3.39897 4.58068 0
M  V30 6921 O 679.022 4.95262 3.42051 0
M  V30 6922 H 682.848 2.92825 0.80544 0
M  V30 6923 H 680.433 1.45654 0.332477 0
M  V30 6924 H 682.315 2.68684 3.24634 0
M  V30 6925 H 680.99 1.56432 2.83392 0
M  V30 6926 H 679.897 3.43922 1.47203 0
M  V30 6927 H 681.23 4.51716 1.95482 0
M  V30 6928 N 682.882 -0.391992 1.52647 0
M  V30 6929 C 684.13 -1.13507 1.67214 0
M  V30 6930 C 684.451 -1.90575 0.41304 0
M  V30 6931 O 683.721 -1.87348 -0.572498 0
M  V30 6932 H 682.301 -0.422013 0.616372 0
M  V30 6933 H 684.963 -0.44502 1.89751 0
M  V30 6934 H 684.059 -1.83964 2.52118 0
M  V30 6935 N 684.36 -1.4356 -0.65026 0
M  V30 6936 C 685.292 -1.44918 -1.77571 0
M  V30 6937 C 686.305 -0.344925 -1.59104 0
M  V30 6938 O 687.494 -0.609537 -1.6777 0
M  V30 6939 C 684.594 -1.24914 -3.15039 0
M  V30 6940 C 683.767 -2.48232 -3.60138 0
M  V30 6941 C 682.826 -2.23409 -4.76419 0
M  V30 6942 O 681.852 -2.9678 -4.85706 0
M  V30 6943 N 683.054 -1.25259 -5.66825 0
M  V30 6944 H 685.819 -2.41935 -1.76883 0
M  V30 6945 H 683.38 -1.38754 -0.834202 0
M  V30 6946 H 685.372 -1.06185 -3.90521 0
M  V30 6947 H 683.942 -0.363319 -3.10481 0
M  V30 6948 H 683.162 -2.82366 -2.75069 0
M  V30 6949 H 684.45 -3.30296 -3.87017 0
M  V30 6950 H 683.848 -0.646246 -5.61997 0
M  V30 6951 H 682.405 -1.12513 -6.42016 0
M  V30 6952 N 685.838 0.888903 -1.30139 0
M  V30 6953 C 687.084 1.64288 -1.19922 0
M  V30 6954 C 687.439 1.90839 0.244561 0
M  V30 6955 O 686.732 1.51544 1.17239 0
M  V30 6956 C 686.926 2.99041 -1.95728 0
M  V30 6957 C 686.755 2.85644 -3.47329 0
M  V30 6958 C 685.525 2.85836 -4.16685 0
M  V30 6959 C 687.723 2.6188 -4.42632 0
M  V30 6960 N 685.705 2.63289 -5.54574 0
M  V30 6961 C 687.076 2.48418 -5.68057 0
M  V30 6962 C 689.131 2.47073 -4.32272 0
M  V30 6963 C 687.834 2.21655 -6.84296 0
M  V30 6964 C 689.86 2.21695 -5.48275 0
M  V30 6965 C 689.222 2.09007 -6.72678 0
M  V30 6966 H 685.321 0.606315 -0.493868 0
M  V30 6967 H 687.905 1.0478 -1.64102 0
M  V30 6968 H 686.076 3.56589 -1.53945 0
M  V30 6969 H 687.808 3.63607 -1.77685 0
M  V30 6970 H 684.563 2.97521 -3.68481 0
M  V30 6971 H 684.987 2.55039 -6.27124 0
M  V30 6972 H 689.629 2.55621 -3.36776 0
M  V30 6973 H 687.347 2.11845 -7.79838 0
M  V30 6974 H 690.933 2.11067 -5.42164 0
M  V30 6975 H 689.813 1.89643 -7.60924 0
M  V30 6976 N 687.317 1.12792 1.10072 0
M  V30 6977 C 688.565 0.883796 1.81751 0
M  V30 6978 C 688.886 -0.591891 1.858 0
M  V30 6979 O 688.156 -1.43017 1.33876 0
M  V30 6980 H 686.736 0.323978 0.673088 0
M  V30 6981 H 689.398 1.42314 1.33164 0
M  V30 6982 H 688.494 1.26863 2.85153 0
M  V30 6983 N 688.795 -1.27931 0.920396 0
M  V30 6984 C 689.758 -2.25345 0.41858 0
M  V30 6985 C 690.758 -1.54116 -0.458798 0
M  V30 6986 O 691.948 -1.72235 -0.260912 0
M  V30 6987 C 689.08 -3.38556 -0.399104 0
M  V30 6988 H 690.273 -2.71251 1.27918 0
M  V30 6989 H 687.826 -1.39728 0.700406 0
M  V30 6990 H 688.561 -2.98021 -1.27882 0
M  V30 6991 H 688.346 -3.91426 0.229863 0
M  V30 6992 H 689.836 -4.10976 -0.740817 0
M  V30 6993 N 690.273 -0.685099 -1.4193 0
M  V30 6994 C 691.236 -0.0222632 -2.29189 0
M  V30 6995 C 692.236 0.7186 -1.4385 0
M  V30 6996 O 693.426 0.555058 -1.6512 0
M  V30 6997 C 690.558 0.979013 -3.2654 0
M  V30 6998 H 691.751 -0.790424 -2.89296 0
M  V30 6999 H 689.304 -0.448012 -1.49742 0
M  V30 7000 H 690.039 1.77531 -2.71392 0
M  V30 7001 H 689.824 0.451037 -3.89497 0
M  V30 7002 H 691.314 1.44091 -3.91954 0
M  V30 7003 N 691.751 1.51645 -0.429126 0
M  V30 7004 C 692.997 2.02314 0.140286 0
M  V30 7005 C 693.33 1.31314 1.43074 0
M  V30 7006 O 692.605 0.425531 1.89788 0
M  V30 7007 C 692.888 3.5822 0.36749 0
M  V30 7008 C 692.741 4.39846 -0.941039 0
M  V30 7009 C 694.06 4.25055 1.14089 0
M  V30 7010 H 691.179 0.735335 0.0495112 0
M  V30 7011 H 693.821 1.81358 -0.566514 0
M  V30 7012 H 691.971 3.76207 0.969556 0
M  V30 7013 H 693.643 4.33527 -1.57646 0
M  V30 7014 H 691.886 4.05259 -1.54751 0
M  V30 7015 H 692.557 5.47069 -0.73621 0
M  V30 7016 H 695.033 4.11288 0.630986 0
M  V30 7017 H 693.909 5.34038 1.26863 0
M  V30 7018 H 694.17 3.85358 2.16683 0
M  V30 7019 N 693.229 0.160201 1.56784 0
M  V30 7020 C 694.64 -0.358417 1.83227 0
M  V30 7021 C 694.991 -1.63831 1.07952 0
M  V30 7022 O 694.116 -2.13885 0.328995 0
M  V30 7023 C 694.711 -0.657058 3.32368 0
M  V30 7024 C 693.27 -1.12015 3.59346 0
M  V30 7025 C 692.417 -0.15015 2.76893 0
M  V30 7026 H 695.368 0.384669 1.53967 0
M  V30 7027 H 695.389 -1.51033 3.49241 0
M  V30 7028 H 694.901 0.274647 3.87127 0
M  V30 7029 H 693.002 -2.06734 3.09987 0
M  V30 7030 H 693.115 -1.037 4.67743 0
M  V30 7031 H 691.479 -0.645361 2.46388 0
M  V30 7032 H 692.262 0.775379 3.34429 0
M  V30 7033 N 694.707 -1.5719 -0.113559 0
M  V30 7034 C 695.67 -1.99796 -1.12314 0
M  V30 7035 C 696.67 -0.888847 -1.34001 0
M  V30 7036 O 697.86 -1.15476 -1.30426 0
M  V30 7037 C 694.992 -2.34279 -2.47641 0
M  V30 7038 H 696.185 -2.90193 -0.756825 0
M  V30 7039 H 693.738 -1.52144 -0.358029 0
M  V30 7040 H 694.473 -1.46778 -2.89183 0
M  V30 7041 H 694.258 -3.15175 -2.33253 0
M  V30 7042 H 695.748 -2.67963 -3.2029 0
M  V30 7043 N 696.185 0.383891 -1.52853 0
M  V30 7044 C 697.462 1.14296 -1.58732 0
M  V30 7045 C 697.842 2.07585 -0.383611 0
M  V30 7046 O 697.19 2.1971 0.627661 0
M  V30 7047 C 697.4 1.89816 -2.92867 0
M  V30 7048 C 698.748 2.44998 -3.46787 0
M  V30 7049 O 699.772 1.99966 -2.94774 0
M  V30 7050 O 698.631 3.2727 -4.37672 0
M  V30 7051 H 695.725 0.52326 -0.640413 0
M  V30 7052 H 698.271 0.388631 -1.6519 0
M  V30 7053 H 697.043 1.21626 -3.71918 0
M  V30 7054 H 696.666 2.72199 -2.89816 0
M  V30 7055 N 697.663 1.43903 0.642637 0
M  V30 7056 C 698.573 1.52349 1.78401 0
M  V30 7057 C 699.589 0.409869 1.69104 0
M  V30 7058 O 700.765 0.665548 1.90085 0
M  V30 7059 C 697.83 1.45408 3.14734 0
M  V30 7060 C 696.891 2.67528 3.35749 0
M  V30 7061 C 696.124 2.60909 4.65577 0
M  V30 7062 O 696.347 1.6627 5.45628 0
M  V30 7063 O 695.281 3.5158 4.88544 0
M  V30 7064 H 699.107 2.48752 1.7423 0
M  V30 7065 H 696.692 1.26021 0.802439 0
M  V30 7066 H 698.574 1.44019 3.96026 0
M  V30 7067 H 697.249 0.521437 3.19473 0
M  V30 7068 H 696.156 2.74487 2.5418 0
M  V30 7069 H 697.489 3.598 3.35864 0
M  V30 7070 N 699.141 -0.881989 1.30609 0
M  V30 7071 C 700.387 -1.63649 1.20791 0
M  V30 7072 C 700.742 -1.90966 -0.234437 0
M  V30 7073 O 700.035 -1.52163 -1.16434 0
M  V30 7074 C 700.229 -2.97999 1.97311 0
M  V30 7075 C 700.058 -2.83798 3.48839 0
M  V30 7076 C 698.828 -2.83622 4.18195 0
M  V30 7077 C 701.026 -2.59529 4.44015 0
M  V30 7078 N 699.008 -2.60344 5.55962 0
M  V30 7079 C 700.379 -2.45401 5.69366 0
M  V30 7080 C 702.434 -2.44777 4.33576 0
M  V30 7081 C 701.137 -2.18023 6.85462 0
M  V30 7082 C 703.163 -2.18785 5.49443 0
M  V30 7083 C 702.525 -2.05436 6.73777 0
M  V30 7084 H 698.624 -0.603687 0.497077 0
M  V30 7085 H 701.208 -1.03908 1.64655 0
M  V30 7086 H 699.379 -3.55767 1.55834 0
M  V30 7087 H 701.111 -3.6266 1.79611 0
M  V30 7088 H 697.866 -2.95562 3.70054 0
M  V30 7089 H 698.29 -2.51709 6.28468 0
M  V30 7090 H 702.932 -2.53831 3.38126 0
M  V30 7091 H 700.65 -2.07707 7.8095 0
M  V30 7092 H 704.236 -2.08188 5.43276 0
M  V30 7093 H 703.116 -1.85605 7.61919 0
M  V30 7094 N 700.619 -1.13374 -1.09472 0
M  V30 7095 C 701.844 -0.918711 -1.85942 0
M  V30 7096 C 702.269 0.527225 -1.8056 0
M  V30 7097 O 701.627 1.37408 -1.18274 0
M  V30 7098 C 701.675 -1.41056 -3.31867 0
M  V30 7099 O 700.779 -0.595496 -4.08078 0
M  V30 7100 H 700.12 -0.329297 -0.576593 0
M  V30 7101 H 702.65 -1.50829 -1.38245 0
M  V30 7102 H 702.66 -1.41398 -3.82715 0
M  V30 7103 H 701.335 -2.46335 -3.35099 0
M  V30 7104 H 699.912 -0.659911 -3.67014 0
M  V30 7105 N 702.098 1.27442 -0.927168 0
M  V30 7106 C 703.346 1.94007 -0.566203 0
M  V30 7107 C 703.667 1.7323 0.895345 0
M  V30 7108 O 702.937 1.07973 1.63459 0
M  V30 7109 H 701.517 0.717917 -0.206409 0
M  V30 7110 H 704.179 1.55161 -1.17945 0
M  V30 7111 H 703.275 3.02401 -0.772028 0
M  V30 7112 N 703.576 0.692616 1.41565 0
M  V30 7113 C 704.539 0.0344174 2.29174 0
M  V30 7114 C 705.539 -0.710961 1.44229 0
M  V30 7115 O 706.729 -0.546293 1.65412 0
M  V30 7116 C 703.861 -0.961682 3.27054 0
M  V30 7117 H 705.054 0.805755 2.88873 0
M  V30 7118 H 702.607 0.455947 1.49502 0
M  V30 7119 H 703.342 -1.76089 2.72329 0
M  V30 7120 H 703.127 -0.430375 3.89731 0
M  V30 7121 H 704.617 -1.4201 3.92712 0
M  V30 7122 N 705.054 -1.51416 0.437162 0
M  V30 7123 C 706.282 -2.06503 -0.128045 0
M  V30 7124 C 706.697 -1.30461 -1.36475 0
M  V30 7125 O 706.054 -0.364127 -1.78831 0
M  V30 7126 C 706.105 -3.58683 -0.450437 0
M  V30 7127 O 705.826 -4.31853 0.737186 0
M  V30 7128 C 707.327 -4.30284 -1.06633 0
M  V30 7129 H 704.547 -0.670952 -0.00800269 0
M  V30 7130 H 707.091 -1.94996 0.616193 0
M  V30 7131 H 705.246 -3.70106 -1.14457 0
M  V30 7132 H 705.66 -5.22467 0.461347 0
M  V30 7133 H 707.134 -5.37848 -1.24191 0
M  V30 7134 H 707.611 -3.88564 -2.0473 0
M  V30 7135 H 708.217 -4.23304 -0.411585 0
M  V30 7136 N 706.532 -0.168513 -1.56696 0
M  V30 7137 C 707.495 0.748928 -2.16619 0
M  V30 7138 C 708.495 1.16007 -1.11351 0
M  V30 7139 O 709.685 1.07748 -1.3688 0
M  V30 7140 C 706.817 2.01904 -2.74677 0
M  V30 7141 H 708.01 0.227317 -2.99037 0
M  V30 7142 H 705.563 0.0810372 -1.5609 0
M  V30 7143 H 706.298 2.58381 -1.95985 0
M  V30 7144 H 706.083 1.73323 -3.51712 0
M  V30 7145 H 707.573 2.67383 -3.20774 0
M  V30 7146 N 708.01 1.57248 0.105221 0
M  V30 7147 C 708.94 2.04374 1.12931 0
M  V30 7148 C 709.921 0.93074 1.42377 0
M  V30 7149 O 711.106 1.20136 1.52581 0
M  V30 7150 C 708.236 2.45967 2.45189 0
M  V30 7151 C 707.19 3.60838 2.30174 0
M  V30 7152 C 706.516 3.88374 3.67518 0
M  V30 7153 C 707.816 4.92084 1.75073 0
M  V30 7154 H 709.51 2.9018 0.737287 0
M  V30 7155 H 707.056 1.39601 0.353211 0
M  V30 7156 H 709.009 2.77542 3.17094 0
M  V30 7157 H 707.733 1.57148 2.86308 0
M  V30 7158 H 706.392 3.29493 1.60716 0
M  V30 7159 H 706.04 2.96739 4.06147 0
M  V30 7160 H 705.74 4.65703 3.58321 0
M  V30 7161 H 707.264 4.22415 4.40906 0
M  V30 7162 H 708.678 5.22106 2.36809 0
M  V30 7163 H 707.075 5.73507 1.76662 0
M  V30 7164 H 708.145 4.79684 0.709347 0
M  V30 7165 N 709.488 -0.375779 1.53054 0
M  V30 7166 C 710.736 -1.11727 1.68409 0
M  V30 7167 C 711.057 -1.90127 0.43323 0
M  V30 7168 O 710.327 -1.87945 -0.552595 0
M  V30 7169 H 708.907 -0.415451 0.620813 0
M  V30 7170 H 711.569 -0.424869 1.90213 0
M  V30 7171 H 710.665 -1.8128 2.54055 0
M  V30 7172 N 710.966 -1.44241 -0.634997 0
M  V30 7173 C 711.876 -1.53293 -1.77591 0
M  V30 7174 C 712.892 -0.418831 -1.68884 0
M  V30 7175 O 714.068 -0.675619 -1.8973 0
M  V30 7176 C 711.133 -1.47075 -3.13958 0
M  V30 7177 C 710.194 -2.69304 -3.34326 0
M  V30 7178 C 709.427 -2.63374 -4.64187 0
M  V30 7179 O 709.65 -1.69161 -5.44739 0
M  V30 7180 O 708.584 -3.54166 -4.86673 0
M  V30 7181 H 712.41 -2.49673 -1.72908 0
M  V30 7182 H 709.995 -1.26445 -0.795745 0
M  V30 7183 H 711.877 -1.46117 -3.95257 0
M  V30 7184 H 710.552 -0.538373 -3.19192 0
M  V30 7185 H 709.459 -2.75831 -2.52721 0
M  V30 7186 H 710.792 -3.61576 -3.33951 0
M  V30 7187 N 712.444 0.87505 -1.31075 0
M  V30 7188 C 713.69 1.63009 -1.20647 0
M  V30 7189 C 714.023 1.9276 0.236045 0
M  V30 7190 O 713.298 1.55559 1.16754 0
M  V30 7191 C 713.581 2.96357 -2.0456 0
M  V30 7192 C 713.434 2.73516 -3.57084 0
M  V30 7193 C 714.753 3.974 -1.89107 0
M  V30 7194 H 711.872 0.591518 -0.439631 0
M  V30 7195 H 714.514 1.0119 -1.60812 0
M  V30 7196 H 712.664 3.49119 -1.70435 0
M  V30 7197 H 714.336 2.27465 -4.01319 0
M  V30 7198 H 712.579 2.0784 -3.80769 0
M  V30 7199 H 713.25 3.68377 -4.11099 0
M  V30 7200 H 715.726 3.5383 -2.18961 0
M  V30 7201 H 714.602 4.88596 -2.5013 0
M  V30 7202 H 714.863 4.33794 -0.85296 0
M  V30 7203 N 713.922 1.13953 1.08869 0
M  V30 7204 C 714.885 0.824991 2.13838 0
M  V30 7205 C 715.885 -0.168198 1.59918 0
M  V30 7206 O 717.075 0.0595778 1.74098 0
M  V30 7207 C 714.207 0.228938 3.4013 0
M  V30 7208 H 715.4 1.75521 2.43171 0
M  V30 7209 H 712.953 0.94492 1.24503 0
M  V30 7210 H 713.688 -0.710227 3.16427 0
M  V30 7211 H 713.473 0.944243 3.80561 0
M  V30 7212 H 714.963 0.0259223 4.17592 0
M  V30 7213 N 715.4 -1.26948 0.933913 0
M  V30 7214 C 716.363 -2.24889 0.442457 0
M  V30 7215 C 717.363 -1.54594 -0.442426 0
M  V30 7216 O 718.553 -1.72502 -0.242629 0
M  V30 7217 C 715.685 -3.3896 -0.363173 0
M  V30 7218 H 716.878 -2.69879 1.30787 0
M  V30 7219 H 714.431 -1.38978 0.715187 0
M  V30 7220 H 715.166 -2.99361 -1.24714 0
M  V30 7221 H 714.951 -3.9116 0.271366 0
M  V30 7222 H 716.441 -4.11739 -0.697186 0
M  V30 7223 N 716.879 -0.700114 -1.41195 0
M  V30 7224 C 718.125 -0.233351 -2.01453 0
M  V30 7225 C 718.458 1.16548 -1.55339 0
M  V30 7226 O 717.733 1.78756 -0.766575 0
M  V30 7227 C 718.016 -0.2961 -3.58881 0
M  V30 7228 C 717.869 -1.7322 -4.15108 0
M  V30 7229 C 719.188 0.341525 -4.38773 0
M  V30 7230 H 716.307 -0.0862667 -0.731934 0
M  V30 7231 H 718.949 -0.889693 -1.67882 0
M  V30 7232 H 717.099 0.262736 -3.87611 0
M  V30 7233 H 718.771 -2.34523 -3.97236 0
M  V30 7234 H 717.014 -2.2649 -3.69979 0
M  V30 7235 H 717.685 -1.7276 -5.24269 0
M  V30 7236 H 720.161 -0.134461 -4.15883 0
M  V30 7237 H 719.037 0.267098 -5.4825 0
M  V30 7238 H 719.298 1.42289 -4.18577 0
M  V30 7239 N 718.357 1.51182 -0.445186 0
M  V30 7240 C 719.605 2.01753 0.11841 0
M  V30 7241 C 719.926 1.33087 1.42523 0
M  V30 7242 O 719.196 0.467891 1.9023 0
M  V30 7243 H 717.776 0.745536 0.0467492 0
M  V30 7244 H 720.438 1.85765 -0.589688 0
M  V30 7245 H 719.534 3.10762 0.288665 0
M  V30 7246 N 719.835 0.176821 1.56605 0
M  V30 7247 C 720.767 -0.782836 2.15417 0
M  V30 7248 C 721.78 -1.18982 1.11117 0
M  V30 7249 O 722.969 -1.12872 1.38283 0
M  V30 7250 C 720.069 -2.06596 2.68647 0
M  V30 7251 C 719.242 -1.82167 3.9766 0
M  V30 7252 C 718.301 -2.94751 4.35899 0
M  V30 7253 O 717.327 -2.65148 5.03672 0
M  V30 7254 N 718.529 -4.2267 3.97907 0
M  V30 7255 H 721.294 -0.280012 2.98389 0
M  V30 7256 H 718.855 -0.00577529 1.61899 0
M  V30 7257 H 720.847 -2.81018 2.91223 0
M  V30 7258 H 719.417 -2.48054 1.90232 0
M  V30 7259 H 718.637 -0.916208 3.83405 0
M  V30 7260 H 719.925 -1.6322 4.81909 0
M  V30 7261 H 719.323 -4.4958 3.43357 0
M  V30 7262 H 717.88 -4.93778 4.25472 0
M  V30 7263 N 721.313 -1.57302 -0.09688 0
M  V30 7264 C 722.263 -1.98369 -1.12399 0
M  V30 7265 C 723.247 -0.861872 -1.3587 0
M  V30 7266 O 724.439 -1.1257 -1.36591 0
M  V30 7267 C 721.568 -2.41017 -2.4447 0
M  V30 7268 C 720.654 -3.59881 -2.24381 0
M  V30 7269 N 721.045 -4.74872 -1.74155 0
M  V30 7270 C 719.343 -3.65943 -2.54954 0
M  V30 7271 C 720.044 -5.56823 -1.68294 0
M  V30 7272 N 719.02 -4.99942 -2.13444 0
M  V30 7273 H 722.822 -2.84726 -0.728575 0
M  V30 7274 H 720.336 -1.59523 -0.304332 0
M  V30 7275 H 722.333 -2.68665 -3.18786 0
M  V30 7276 H 720.993 -1.56036 -2.84751 0
M  V30 7277 H 722.004 -4.97657 -1.43379 0
M  V30 7278 H 718.681 -2.9162 -2.98771 0
M  V30 7279 H 720.071 -6.59099 -1.30528 0
M  V30 7280 N 722.791 0.367657 -1.53252 0
M  V30 7281 C 723.721 1.45632 -1.8252 0
M  V30 7282 C 724.702 1.55979 -0.678568 0
M  V30 7283 O 725.887 1.70581 -0.928217 0
M  V30 7284 C 723.017 2.82994 -2.01325 0
M  V30 7285 C 721.971 2.87473 -3.17086 0
M  V30 7286 C 721.297 4.2749 -3.21179 0
M  V30 7287 C 722.597 2.55182 -4.55719 0
M  V30 7288 H 724.291 1.21387 -2.73689 0
M  V30 7289 H 721.837 0.58251 -1.31692 0
M  V30 7290 H 723.79 3.59179 -2.20383 0
M  V30 7291 H 722.514 3.08622 -1.06864 0
M  V30 7292 H 721.173 2.13739 -2.97844 0
M  V30 7293 H 720.821 4.5019 -2.24361 0
M  V30 7294 H 720.521 4.31403 -3.98955 0
M  V30 7295 H 722.045 5.0555 -3.42419 0
M  V30 7296 H 723.459 3.21081 -4.74953 0
M  V30 7297 H 721.856 2.70414 -5.3572 0
M  V30 7298 H 722.926 1.5044 -4.60973 0
M  V30 7299 N 724.269 1.44576 0.627338 0
M  V30 7300 C 725.515 1.47777 1.38888 0
M  V30 7301 C 725.848 0.111406 1.9388 0
M  V30 7302 O 725.123 -0.87149 1.73883 0
M  V30 7303 C 725.406 2.54119 2.55138 0
M  V30 7304 C 725.259 4.00128 2.0547 0
M  V30 7305 C 726.578 2.56929 3.57317 0
M  V30 7306 H 723.697 0.538048 0.50366 0
M  V30 7307 H 726.339 1.76277 0.708978 0
M  V30 7308 H 724.489 2.29948 3.13139 0
M  V30 7309 H 726.161 4.35444 1.5227 0
M  V30 7310 H 724.404 4.11724 1.36623 0
M  V30 7311 H 725.075 4.7019 2.89181 0
M  V30 7312 H 727.551 2.78536 3.09122 0
M  V30 7313 H 726.427 3.33234 4.36173 0
M  V30 7314 H 726.688 1.6127 4.11636 0
M  V30 7315 N 725.747 -0.868086 1.31537 0
M  V30 7316 C 726.995 -1.61807 1.21091 0
M  V30 7317 C 727.316 -1.93631 -0.230623 0
M  V30 7318 O 726.586 -1.5846 -1.15183 0
M  V30 7319 H 725.166 -0.599854 0.445178 0
M  V30 7320 H 727.828 -1.03915 1.64887 0
M  V30 7321 H 726.924 -2.56088 1.78396 0
M  V30 7322 N 727.225 -1.14528 -1.08264 0
M  V30 7323 C 728.636 -0.925261 -1.6216 0
M  V30 7324 C 728.987 0.535587 -1.88748 0
M  V30 7325 O 728.112 1.4048 -1.64604 0
M  V30 7326 C 728.707 -1.67316 -2.94603 0
M  V30 7327 C 727.266 -1.49868 -3.45278 0
M  V30 7328 C 726.413 -1.69471 -2.19487 0
M  V30 7329 H 729.364 -1.29687 -0.914707 0
M  V30 7330 H 729.385 -1.13721 -3.63109 0
M  V30 7331 H 728.897 -2.73635 -2.75219 0
M  V30 7332 H 726.998 -0.459032 -3.69762 0
M  V30 7333 H 727.111 -2.2696 -4.21931 0
M  V30 7334 H 725.475 -1.12048 -2.2873 0
M  V30 7335 H 726.258 -2.77136 -2.0261 0
M  V30 7336 N 728.703 1.26451 -0.940633 0
M  V30 7337 C 729.951 1.93395 -0.586748 0
M  V30 7338 C 730.272 1.7417 0.876921 0
M  V30 7339 O 729.542 1.097 1.62304 0
M  V30 7340 H 728.122 0.715687 -0.214012 0
M  V30 7341 H 730.784 1.53902 -1.19584 0
M  V30 7342 H 729.88 3.01565 -0.804059 0
M  V30 7343 N 730.181 0.707592 1.40822 0
M  V30 7344 C 731.597 0.38034 1.55002 0
M  V30 7345 C 731.797 -1.11163 1.68062 0
M  V30 7346 O 730.853 -1.89761 1.66574 0
M  V30 7347 C 732.166 1.1394 2.78277 0
M  V30 7348 C 733.714 1.12492 2.92087 0
M  V30 7349 C 734.189 1.86597 4.18265 0
M  V30 7350 N 735.68 1.83626 4.25248 0
M  V30 7351 C 736.415 2.37794 5.21768 0
M  V30 7352 N 735.911 3.00485 6.24244 0
M  V30 7353 N 737.704 2.27982 5.13791 0
M  V30 7354 H 729.855 1.67511 1.3059 0
M  V30 7355 H 732.118 0.707579 0.630901 0
M  V30 7356 H 731.824 2.19398 2.74877 0
M  V30 7357 H 731.698 0.725793 3.70151 0
M  V30 7358 H 734.085 0.0785564 2.94995 0
M  V30 7359 H 734.166 1.57768 2.01353 0
M  V30 7360 H 733.81 2.91219 4.16118 0
M  V30 7361 H 733.74 1.38746 5.07993 0
M  V30 7362 H 736.231 1.3793 3.51829 0
M  V30 7363 H 736.544 3.39355 6.94304 0
M  V30 7364 H 734.889 3.04567 6.24711 0
M  V30 7365 H 738.08 1.78669 4.3266 0
M  V30 7366 H 738.253 2.70499 5.88841 0
M  V30 7367 N 731.66 -1.50943 0.453197 0
M  V30 7368 C 732.888 -2.06628 -0.106135 0
M  V30 7369 C 733.303 -1.31901 -1.35084 0
M  V30 7370 O 732.66 -0.383074 -1.78434 0
M  V30 7371 C 732.711 -3.5914 -0.412368 0
M  V30 7372 O 732.432 -4.31047 0.782948 0
M  V30 7373 C 733.933 -4.31391 -1.02064 0
M  V30 7374 H 731.153 -0.670999 -0.000885896 0
M  V30 7375 H 733.697 -1.94331 0.63684 0
M  V30 7376 H 731.852 -3.71299 -1.10526 0
M  V30 7377 H 732.266 -5.21948 0.516736 0
M  V30 7378 H 733.74 -5.39135 -1.1848 0
M  V30 7379 H 734.217 -3.90714 -2.00598 0
M  V30 7380 H 734.823 -4.23716 -0.366664 0
M  V30 7381 N 733.138 -0.185124 -1.56509 0
M  V30 7382 C 734.386 0.455357 -1.96903 0
M  V30 7383 C 734.707 1.62839 -1.07277 0
M  V30 7384 O 733.977 1.95385 -0.141966 0
M  V30 7385 H 732.557 0.171218 -0.727113 0
M  V30 7386 H 735.219 -0.26953 -1.93027 0
M  V30 7387 H 734.315 0.80616 -3.01509 0
M  V30 7388 N 734.616 1.57351 0.0885366 0
M  V30 7389 C 735.546 2.05561 1.10757 0
M  V30 7390 C 736.527 0.945789 1.41382 0
M  V30 7391 O 737.712 1.21747 1.51299 0
M  V30 7392 C 734.842 2.48554 2.42566 0
M  V30 7393 C 733.796 3.63259 2.26334 0
M  V30 7394 C 733.122 3.9225 3.63378 0
M  V30 7395 C 734.422 4.93913 1.69844 0
M  V30 7396 H 736.116 2.90946 0.706468 0
M  V30 7397 H 733.662 1.39968 0.338385 0
M  V30 7398 H 735.615 2.8089 3.14132 0
M  V30 7399 H 734.339 1.60176 2.84625 0
M  V30 7400 H 732.998 3.31179 1.57213 0
M  V30 7401 H 732.646 3.0103 4.02976 0
M  V30 7402 H 732.346 4.69478 3.53362 0
M  V30 7403 H 733.87 4.27067 4.36401 0
M  V30 7404 H 735.284 5.24588 2.31258 0
M  V30 7405 H 733.681 5.75349 1.70569 0
M  V30 7406 H 734.751 4.80409 0.65843 0
M  V30 7407 N 736.094 -0.359525 1.53444 0
M  V30 7408 C 737.322 -1.12198 1.73837 0
M  V30 7409 C 737.737 -1.82854 0.470107 0
M  V30 7410 O 737.094 -1.73781 -0.557349 0
M  V30 7411 C 737.145 -2.14769 2.90786 0
M  V30 7412 O 736.866 -1.46989 4.12706 0
M  V30 7413 C 738.367 -3.03514 3.231 0
M  V30 7414 H 735.587 -0.33524 0.581253 0
M  V30 7415 H 738.131 -0.416598 2.00212 0
M  V30 7416 H 736.286 -2.80896 2.66788 0
M  V30 7417 H 736.7 -2.15378 4.78239 0
M  V30 7418 H 738.174 -3.71453 4.08322 0
M  V30 7419 H 738.651 -3.68658 2.38721 0
M  V30 7420 H 739.257 -2.42996 3.49046 0
M  V30 7421 N 737.572 -1.44907 -0.619662 0
M  V30 7422 C 738.535 -1.52282 -1.71297 0
M  V30 7423 C 739.535 -0.40359 -1.55653 0
M  V30 7424 O 740.725 -0.666638 -1.6094 0
M  V30 7425 C 737.857 -1.40778 -3.10474 0
M  V30 7426 H 739.05 -2.49683 -1.66128 0
M  V30 7427 H 736.603 -1.32168 -0.834339 0
M  V30 7428 H 737.338 -0.445156 -3.2123 0
M  V30 7429 H 737.123 -2.21947 -3.23237 0
M  V30 7430 H 738.613 -1.48946 -3.90135 0
M  V30 7431 N 739.05 0.861098 -1.31996 0
M  V30 7432 C 740.466 1.14827 -1.10846 0
M  V30 7433 C 740.666 2.0117 0.11528 0
M  V30 7434 O 739.722 2.39423 0.802048 0
M  V30 7435 C 741.035 1.83183 -2.38462 0
M  V30 7436 C 742.583 1.95847 -2.44158 0
M  V30 7437 C 743.058 2.67617 -3.71679 0
M  V30 7438 N 744.549 2.75147 -3.72624 0
M  V30 7439 C 745.284 3.31314 -4.67994 0
M  V30 7440 N 744.78 3.88343 -5.73726 0
M  V30 7441 N 746.573 3.29356 -4.55501 0
M  V30 7442 H 738.724 0.285951 -2.10466 0
M  V30 7443 H 740.987 0.189303 -0.928907 0
M  V30 7444 H 740.693 1.27193 -3.27895 0
M  V30 7445 H 740.567 2.83393 -2.48935 0
M  V30 7446 H 742.954 2.50999 -1.55189 0
M  V30 7447 H 743.035 0.94653 -2.37644 0
M  V30 7448 H 742.679 2.13131 -4.61018 0
M  V30 7449 H 742.609 3.69237 -3.75462 0
M  V30 7450 H 745.1 2.34682 -2.96197 0
M  V30 7451 H 745.413 4.29338 -6.42564 0
M  V30 7452 H 743.758 3.86693 -5.77489 0
M  V30 7453 H 746.949 2.84047 -3.72069 0
M  V30 7454 H 747.122 3.7283 -5.30001 0
M  V30 7455 N 740.528 1.15101 1.07655 0
M  V30 7456 C 741.475 0.844958 2.14777 0
M  V30 7457 C 742.445 -0.200798 1.64882 0
M  V30 7458 O 743.63 -0.0690278 1.90675 0
M  V30 7459 C 740.77 0.337018 3.4345 0
M  V30 7460 C 739.883 1.44398 4.07153 0
M  V30 7461 C 739.018 0.892487 5.23649 0
M  V30 7462 C 738.057 1.9766 5.79307 0
M  V30 7463 N 737.194 1.44171 6.87138 0
M  V30 7464 H 742.034 1.76242 2.40297 0
M  V30 7465 H 739.571 0.879435 1.17917 0
M  V30 7466 H 741.529 0.024256 4.17193 0
M  V30 7467 H 740.159 -0.543531 3.18191 0
M  V30 7468 H 739.211 1.87299 3.31094 0
M  V30 7469 H 740.523 2.26262 4.4453 0
M  V30 7470 H 739.677 0.532083 6.04362 0
M  V30 7471 H 738.416 0.0429854 4.87681 0
M  V30 7472 H 737.421 2.34586 4.97242 0
M  V30 7473 H 738.646 2.82982 6.17331 0
M  V30 7474 H 736.592 0.614518 6.53115 0
M  V30 7475 H 736.509 2.19665 7.23383 0
M  V30 7476 H 737.777 1.10945 7.71564 0
M  V30 7477 N 742.006 -1.2595 0.947325 0
M  V30 7478 C 743.231 -1.98083 0.614633 0
M  V30 7479 C 743.656 -1.70013 -0.804815 0
M  V30 7480 O 743.014 -0.95175 -1.54309 0
M  V30 7481 C 743.062 -3.4993 0.870706 0
M  V30 7482 O 742.166 -4.12364 -0.0541451 0
M  V30 7483 H 741.507 -0.621232 0.234451 0
M  V30 7484 H 744.037 -1.60259 1.27193 0
M  V30 7485 H 744.047 -4.00198 0.794051 0
M  V30 7486 H 742.722 -3.69691 1.90529 0
M  V30 7487 H 741.299 -3.72826 0.0740917 0
M  V30 7488 N 743.484 -0.715051 -1.40445 0
M  V30 7489 C 744.73 -0.263528 -2.01686 0
M  V30 7490 C 745.085 1.13052 -1.55683 0
M  V30 7491 O 744.378 1.75588 -0.766762 0
M  V30 7492 C 744.572 -0.281791 -3.56287 0
M  V30 7493 C 744.401 -1.67607 -4.17298 0
M  V30 7494 C 743.171 -2.2836 -4.50755 0
M  V30 7495 C 745.369 -2.62621 -4.42193 0
M  V30 7496 N 743.351 -3.6015 -4.97157 0
M  V30 7497 C 744.722 -3.79116 -4.90582 0
M  V30 7498 C 746.777 -2.60639 -4.24231 0
M  V30 7499 C 745.48 -4.93937 -5.22895 0
M  V30 7500 C 747.506 -3.74587 -4.57644 0
M  V30 7501 C 746.868 -4.89815 -5.06222 0
M  V30 7502 H 742.967 -0.142252 -0.768953 0
M  V30 7503 H 745.551 -0.936732 -1.70685 0
M  V30 7504 H 743.722 0.360975 -3.86719 0
M  V30 7505 H 745.454 0.186393 -4.04271 0
M  V30 7506 H 742.209 -1.80463 -4.3787 0
M  V30 7507 H 742.633 -4.27757 -5.24741 0
M  V30 7508 H 747.275 -1.72759 -3.85894 0
M  V30 7509 H 744.993 -5.82462 -5.60146 0
M  V30 7510 H 748.579 -3.74328 -4.45387 0
M  V30 7511 H 747.459 -5.76525 -5.3159 0
M  V30 7512 N 744.962 1.50701 -0.461195 0
M  V30 7513 C 746.209 2.02267 0.0971971 0
M  V30 7514 C 746.537 1.34387 1.40608 0
M  V30 7515 O 745.792 0.455254 1.90331 0
M  V30 7516 C 746.091 3.55788 0.33908 0
M  V30 7517 C 745.757 4.42092 -0.886885 0
M  V30 7518 C 744.419 4.65398 -1.22304 0
M  V30 7519 C 746.771 4.92571 -1.70361 0
M  V30 7520 C 744.099 5.36429 -2.37616 0
M  V30 7521 C 746.451 5.64868 -2.84793 0
M  V30 7522 C 745.115 5.86431 -3.18834 0
M  V30 7523 H 744.385 0.740146 0.0355669 0
M  V30 7524 H 747.032 1.81415 -0.61326 0
M  V30 7525 H 745.337 3.751 1.13168 0
M  V30 7526 H 747.034 3.93243 0.784937 0
M  V30 7527 H 743.624 4.24165 -0.614981 0
M  V30 7528 H 747.808 4.74428 -1.4571 0
M  V30 7529 H 743.064 5.51333 -2.64276 0
M  V30 7530 H 747.238 6.02966 -3.48432 0
M  V30 7531 H 744.865 6.41248 -4.08296 0
M  V30 7532 N 746.441 0.193421 1.56409 0
M  V30 7533 C 747.687 -0.446449 1.97825 0
M  V30 7534 C 748.02 -1.61386 1.08019 0
M  V30 7535 O 747.295 -1.94053 0.131839 0
M  V30 7536 C 747.578 -0.908199 3.48459 0
M  V30 7537 C 747.431 0.260914 4.49043 0
M  V30 7538 C 748.75 -1.77428 4.0275 0
M  V30 7539 H 745.869 -0.160807 0.719243 0
M  V30 7540 H 748.511 0.284006 1.87865 0
M  V30 7541 H 746.661 -1.53062 3.57077 0
M  V30 7542 H 748.333 0.898548 4.52464 0
M  V30 7543 H 746.576 0.912949 4.24085 0
M  V30 7544 H 747.247 -0.104657 5.51901 0
M  V30 7545 H 749.723 -1.24936 3.96901 0
M  V30 7546 H 748.599 -2.06633 5.08521 0
M  V30 7547 H 748.86 -2.72788 3.47907 0
M  V30 7548 N 747.919 -1.57396 -0.0801906 0
M  V30 7549 C 749.144 -1.91437 -0.797909 0
M  V30 7550 C 749.569 -0.789075 -1.70749 0
M  V30 7551 O 748.927 0.25857 -1.79447 0
M  V30 7552 C 748.975 -3.24402 -1.57467 0
M  V30 7553 O 748.079 -3.13043 -2.68473 0
M  V30 7554 H 747.42 -0.627109 -0.218243 0
M  V30 7555 H 749.95 -2.04537 -0.050949 0
M  V30 7556 H 749.96 -3.58072 -1.95571 0
M  V30 7557 H 748.635 -4.05884 -0.907229 0
M  V30 7558 H 747.212 -2.90915 -2.33287 0
M  V30 7559 N 749.397 0.351382 -1.53633 0
M  V30 7560 C 750.645 1.09034 -1.70165 0
M  V30 7561 C 750.966 1.89413 -0.463422 0
M  V30 7562 O 750.236 1.888 0.522624 0
M  V30 7563 H 748.816 0.405522 -0.627344 0
M  V30 7564 H 751.478 0.394554 -1.90865 0
M  V30 7565 H 750.574 1.77215 -2.56907 0
M  V30 7566 N 750.875 1.45233 0.611969 0
M  V30 7567 C 752.152 1.39495 1.37115 0
M  V30 7568 C 752.532 0.0633303 2.11005 0
M  V30 7569 O 751.88 -0.954617 2.07604 0
M  V30 7570 C 752.09 2.60579 2.32163 0
M  V30 7571 C 753.438 3.05477 2.94905 0
M  V30 7572 O 754.462 2.60921 2.42485 0
M  V30 7573 O 753.321 3.82787 3.90047 0
M  V30 7574 H 750.415 0.55335 0.614599 0
M  V30 7575 H 752.961 1.57355 0.635423 0
M  V30 7576 H 751.733 3.49085 1.76793 0
M  V30 7577 H 751.356 2.45031 3.13122 0
M  V30 7578 N 752.353 -0.854086 1.3245 0
M  V30 7579 C 753.599 -1.61069 1.23225 0
M  V30 7580 C 753.932 -1.93111 -0.205349 0
M  V30 7581 O 753.207 -1.57397 -1.14265 0
M  V30 7582 C 753.49 -2.93065 2.09249 0
M  V30 7583 C 753.343 -2.67801 3.6139 0
M  V30 7584 C 754.662 -3.94341 1.95406 0
M  V30 7585 H 751.781 -0.584449 0.448986 0
M  V30 7586 H 754.423 -0.986189 1.62402 0
M  V30 7587 H 752.573 -3.46364 1.75967 0
M  V30 7588 H 754.245 -2.21052 4.04887 0
M  V30 7589 H 752.488 -2.01756 3.84027 0
M  V30 7590 H 753.159 -3.6179 4.16907 0
M  V30 7591 H 755.635 -3.50301 2.24562 0
M  V30 7592 H 754.511 -4.84555 2.57872 0
M  V30 7593 H 754.772 -4.32382 0.921865 0
M  V30 7594 N 753.831 -1.1567 -1.07043 0
M  V30 7595 C 755.059 -0.957471 -1.83412 0
M  V30 7596 C 755.474 0.494271 -1.82215 0
M  V30 7597 O 754.831 1.34288 -1.23584 0
M  V30 7598 C 754.882 -1.46784 -3.30359 0
M  V30 7599 O 754.603 -2.86271 -3.31633 0
M  V30 7600 C 756.104 -1.31054 -4.23485 0
M  V30 7601 H 753.324 -0.33986 -0.578564 0
M  V30 7602 H 755.868 -1.53518 -1.35102 0
M  V30 7603 H 754.023 -0.932586 -3.76007 0
M  V30 7604 H 754.437 -3.0948 -4.23465 0
M  V30 7605 H 755.911 -1.71605 -5.24648 0
M  V30 7606 H 756.388 -0.255107 -4.38458 0
M  V30 7607 H 756.994 -1.83503 -3.83676 0
M  V30 7608 N 755.309 1.25446 -0.953992 0
M  V30 7609 C 756.555 1.9343 -0.60933 0
M  V30 7610 C 756.888 1.74542 0.851388 0
M  V30 7611 O 756.163 1.09014 1.61078 0
M  V30 7612 C 756.446 3.46844 -0.968041 0
M  V30 7613 C 756.299 3.74961 -2.48444 0
M  V30 7614 C 757.618 4.37334 -0.492641 0
M  V30 7615 H 754.737 0.702502 -0.222844 0
M  V30 7616 H 757.379 1.48076 -1.19053 0
M  V30 7617 H 755.529 3.85604 -0.473465 0
M  V30 7618 H 757.201 3.45841 -3.05273 0
M  V30 7619 H 755.444 3.20589 -2.92241 0
M  V30 7620 H 756.115 4.82246 -2.68594 0
M  V30 7621 H 758.591 4.05873 -0.916878 0
M  V30 7622 H 757.467 5.43439 -0.772331 0
M  V30 7623 H 757.728 4.37908 0.607403 0
M  V30 7624 N 756.787 0.722489 1.40064 0
M  V30 7625 C 758.027 0.269491 2.02616 0
M  V30 7626 C 758.391 -1.11835 1.56067 0
M  V30 7627 O 759.592 -1.66873 2.1073 0
M  V30 7628 C 757.863 0.354066 3.55642 0
M  V30 7629 S 759.422 -0.0209309 4.38795 0
M  V30 7630 H 756.24 0.106412 0.702992 0
M  V30 7631 H 758.842 0.946237 1.71075 0
M  V30 7632 H 757.546 1.36565 3.87012 0
M  V30 7633 H 757.077 -0.340925 3.9192 0
M  V30 7634 H 759.092 -1.24093 4.80432 0
M  V30 7635 N 758.265 -1.50454 0.469181 0
M  V30 7636 C 759.195 -2.31353 -0.31592 0
M  V30 7637 C 760.176 -1.38172 -0.992094 0
M  V30 7638 O 761.361 -1.67093 -0.989633 0
M  V30 7639 C 758.491 -3.1786 -1.39937 0
M  V30 7640 C 757.445 -4.19578 -0.844909 0
M  V30 7641 C 756.771 -4.9481 -2.0265 0
M  V30 7642 C 758.071 -5.22106 0.142499 0
M  V30 7643 H 759.765 -2.97237 0.359269 0
M  V30 7644 H 757.311 -1.42942 0.174224 0
M  V30 7645 H 759.264 -3.7325 -1.95607 0
M  V30 7646 H 757.988 -2.49858 -2.1033 0
M  V30 7647 H 756.647 -3.65285 -0.310189 0
M  V30 7648 H 756.295 -4.23282 -2.71737 0
M  V30 7649 H 755.995 -5.63613 -1.66174 0
M  V30 7650 H 757.519 -5.53035 -2.58815 0
M  V30 7651 H 758.933 -5.72378 -0.324966 0
M  V30 7652 H 757.33 -5.98618 0.421441 0
M  V30 7653 H 758.4 -4.7297 1.06901 0
M  V30 7654 N 759.743 -0.201713 -1.56304 0
M  V30 7655 C 760.991 0.434447 -1.97375 0
M  V30 7656 C 761.312 1.61692 -1.08998 0
M  V30 7657 O 760.582 1.95223 -0.162682 0
M  V30 7658 H 759.162 0.163497 -0.728888 0
M  V30 7659 H 761.824 -0.289988 -1.92731 0
M  V30 7660 H 760.92 0.774136 -3.02347 0
M  V30 7661 N 761.222 1.57436 0.0718424 0
M  V30 7662 C 762.185 2.02703 1.06977 0
M  V30 7663 C 763.185 0.924062 1.31597 0
M  V30 7664 O 764.375 1.18894 1.27318 0
M  V30 7665 C 761.507 2.40763 2.41342 0
M  V30 7666 H 762.7 2.92098 0.679619 0
M  V30 7667 H 760.253 1.5304 0.317565 0
M  V30 7668 H 760.988 1.54394 2.8519 0
M  V30 7669 H 760.773 3.21249 2.24814 0
M  V30 7670 H 762.263 2.76361 3.13073 0
M  V30 7671 N 762.7 -0.34323 1.53817 0
M  V30 7672 C 763.977 -1.10047 1.61706 0
M  V30 7673 C 764.357 -2.06495 0.438514 0
M  V30 7674 O 763.705 -2.21297 -0.569188 0
M  V30 7675 C 763.915 -1.81985 2.97796 0
M  V30 7676 C 765.263 -2.35717 3.53161 0
M  V30 7677 O 766.287 -1.9208 2.99973 0
M  V30 7678 O 765.146 -3.15551 4.46195 0
M  V30 7679 H 762.24 -0.506096 0.654061 0
M  V30 7680 H 764.786 -0.344697 1.66162 0
M  V30 7681 H 763.558 -1.11722 3.75012 0
M  V30 7682 H 763.181 -2.64419 2.96931 0
M  V30 7683 N 764.178 -1.45556 -0.604258 0
M  V30 7684 C 765.427 -1.49019 -1.35928 0
M  V30 7685 C 765.74 -0.137409 -1.95117 0
M  V30 7686 O 766.946 -0.0497032 -2.71455 0
M  V30 7687 C 765.402 -2.62477 -2.46239 0
M  V30 7688 C 765.01 -4.04082 -1.93447 0
M  V30 7689 C 766.754 -2.7519 -3.23219 0
M  V30 7690 C 764.661 -5.08917 -3.0126 0
M  V30 7691 H 763.591 -0.554518 -0.510907 0
M  V30 7692 H 766.242 -1.71705 -0.647262 0
M  V30 7693 H 764.624 -2.3308 -3.2014 0
M  V30 7694 H 765.798 -4.43173 -1.26232 0
M  V30 7695 H 764.113 -3.95849 -1.29201 0
M  V30 7696 H 766.71 -3.50683 -4.0364 0
M  V30 7697 H 767.053 -1.81941 -3.74437 0
M  V30 7698 H 767.586 -3.04129 -2.56418 0
M  V30 7699 H 764.325 -6.03886 -2.54955 0
M  V30 7700 H 763.845 -4.74393 -3.67031 0
M  V30 7701 H 765.524 -5.33814 -3.65584 0
M  V30 7702 N 765.656 0.84705 -1.32902 0
M  V30 7703 C 766.881 1.63925 -1.27056 0
M  V30 7704 C 767.306 1.87443 0.157136 0
M  V30 7705 O 766.664 1.43266 1.11106 0
M  V30 7706 C 766.712 2.97134 -2.04313 0
M  V30 7707 O 765.816 3.88049 -1.39614 0
M  V30 7708 H 765.157 0.499477 -0.437514 0
M  V30 7709 H 767.687 1.05443 -1.75336 0
M  V30 7710 H 767.697 3.46896 -2.14772 0
M  V30 7711 H 766.372 2.79339 -3.08128 0
M  V30 7712 H 764.949 3.46525 -1.3775 0
M  V30 7713 N 767.134 1.16236 1.06428 0
M  V30 7714 C 768.362 0.967184 1.82902 0
M  V30 7715 C 768.777 -0.484601 1.82475 0
M  V30 7716 O 768.134 -1.33631 1.24294 0
M  V30 7717 C 768.185 1.48534 3.29576 0
M  V30 7718 O 767.906 2.88026 3.3011 0
M  V30 7719 C 769.407 1.33298 4.22784 0
M  V30 7720 H 766.627 0.342923 0.576754 0
M  V30 7721 H 769.171 1.54232 1.34286 0
M  V30 7722 H 767.326 0.952513 3.75508 0
M  V30 7723 H 767.74 3.11721 4.21818 0
M  V30 7724 H 769.214 1.74385 5.23731 0
M  V30 7725 H 769.691 0.278356 4.38317 0
M  V30 7726 H 770.297 1.85535 3.82697 0
M  V30 7727 N 768.612 -1.24939 0.960631 0
M  V30 7728 C 769.575 -2.239 0.49006 0
M  V30 7729 C 770.575 -1.55497 -0.409535 0
M  V30 7730 O 771.765 -1.72978 -0.205984 0
M  V30 7731 C 768.897 -3.39654 -0.291193 0
M  V30 7732 H 770.09 -2.67044 1.36482 0
M  V30 7733 H 767.643 -1.37429 0.744505 0
M  V30 7734 H 768.378 -3.01939 -1.18336 0
M  V30 7735 H 768.163 -3.90496 0.354276 0
M  V30 7736 H 769.653 -4.13125 -0.609693 0
M  V30 7737 N 770.09 -0.729906 -1.39679 0
M  V30 7738 C 771.315 -0.284345 -2.05442 0
M  V30 7739 C 771.74 1.07056 -1.54663 0
M  V30 7740 O 771.098 1.67732 -0.688157 0
M  V30 7741 C 771.146 -0.290089 -3.59431 0
M  V30 7742 O 770.25 0.723978 -4.05995 0
M  V30 7743 H 769.591 -0.130311 -0.651088 0
M  V30 7744 H 772.121 -0.994403 -1.78809 0
M  V30 7745 H 772.131 -0.132712 -4.07784 0
M  V30 7746 H 770.806 -1.27877 -3.95753 0
M  V30 7747 H 769.383 0.533154 -3.69069 0
M  V30 7748 N 771.568 1.50203 -0.477153 0
M  V30 7749 C 772.816 2.01959 0.0755889 0
M  V30 7750 C 773.137 1.3608 1.39668 0
M  V30 7751 O 772.407 0.508136 1.89195 0
M  V30 7752 H 770.987 0.74636 0.0309248 0
M  V30 7753 H 773.649 1.84473 -0.628959 0
M  V30 7754 H 772.745 3.11305 0.222683 0
M  V30 7755 N 773.046 0.209999 1.56195 0
M  V30 7756 C 774.009 -0.691232 2.18528 0
M  V30 7757 C 775.009 -1.13013 1.14388 0
M  V30 7758 O 776.199 -1.04081 1.39688 0
M  V30 7759 C 773.331 -1.94551 2.79934 0
M  V30 7760 H 774.524 -0.147953 2.99535 0
M  V30 7761 H 772.077 -0.0396243 1.5625 0
M  V30 7762 H 772.812 -2.53094 2.02766 0
M  V30 7763 H 772.597 -1.63938 3.56184 0
M  V30 7764 H 774.087 -2.58785 3.2775 0
M  V30 7765 N 774.524 -1.57472 -0.0634922 0
M  V30 7766 C 775.471 -2.04258 -1.07457 0
M  V30 7767 C 776.441 -0.924804 -1.37973 0
M  V30 7768 O 777.626 -1.19305 -1.48899 0
M  V30 7769 C 774.766 -2.49832 -2.38071 0
M  V30 7770 C 773.879 -3.75263 -2.14014 0
M  V30 7771 C 773.014 -4.09585 -3.38251 0
M  V30 7772 C 772.053 -5.28032 -3.09594 0
M  V30 7773 N 771.19 -5.57953 -4.26185 0
M  V30 7774 H 776.03 -2.90402 -0.668626 0
M  V30 7775 H 773.567 -1.43609 -0.318572 0
M  V30 7776 H 775.525 -2.7431 -3.14341 0
M  V30 7777 H 774.155 -1.66654 -2.76453 0
M  V30 7778 H 773.207 -3.58075 -1.28399 0
M  V30 7779 H 774.519 -4.61667 -1.88852 0
M  V30 7780 H 773.673 -4.35008 -4.2291 0
M  V30 7781 H 772.412 -3.21765 -3.66495 0
M  V30 7782 H 771.417 -5.02397 -2.23332 0
M  V30 7783 H 772.642 -6.17477 -2.82663 0
M  V30 7784 H 770.588 -4.73092 -4.54445 0
M  V30 7785 H 770.505 -6.38793 -4.04326 0
M  V30 7786 H 771.773 -5.87931 -5.11817 0
M  V30 7787 N 776.003 0.335068 -1.53997 0
M  V30 7788 C 777.249 1.07594 -1.71905 0
M  V30 7789 C 777.582 1.88039 -0.485264 0
M  V30 7790 O 776.857 1.87482 0.517752 0
M  V30 7791 C 777.14 2.01016 -2.98772 0
M  V30 7792 C 776.993 1.23977 -4.32377 0
M  V30 7793 C 778.312 3.0071 -3.21343 0
M  V30 7794 H 775.431 0.38976 -0.625505 0
M  V30 7795 H 778.073 0.353684 -1.86679 0
M  V30 7796 H 776.223 2.62603 -2.86307 0
M  V30 7797 H 777.895 0.649383 -4.56706 0
M  V30 7798 H 776.138 0.541878 -4.30402 0
M  V30 7799 H 776.809 1.92512 -5.17342 0
M  V30 7800 H 779.285 2.4924 -3.33194 0
M  V30 7801 H 778.161 3.63272 -4.11491 0
M  V30 7802 H 778.422 3.72549 -2.38033 0
M  V30 7803 N 777.481 1.45874 0.596531 0
M  V30 7804 C 778.391 1.57947 1.73464 0
M  V30 7805 C 779.407 0.463461 1.67714 0
M  V30 7806 O 780.583 0.725685 1.87872 0
M  V30 7807 C 777.648 1.55348 3.09948 0
M  V30 7808 C 776.709 2.78074 3.27068 0
M  V30 7809 C 775.942 2.75589 4.57041 0
M  V30 7810 O 776.165 1.83545 5.40063 0
M  V30 7811 O 775.099 3.66945 4.77111 0
M  V30 7812 H 778.925 2.54169 1.66228 0
M  V30 7813 H 776.51 1.2851 0.76194 0
M  V30 7814 H 778.392 1.56545 3.91244 0
M  V30 7815 H 777.067 0.622811 3.17652 0
M  V30 7816 H 775.974 2.82435 2.45319 0
M  V30 7817 H 777.307 3.70303 3.24248 0
M  V30 7818 N 778.959 -0.83999 1.33349 0
M  V30 7819 C 780.187 -1.62728 1.27778 0
M  V30 7820 C 780.602 -1.88191 -0.151505 0
M  V30 7821 O 779.959 -1.46128 -1.09329 0
M  V30 7822 C 780.01 -2.97813 2.04913 0
M  V30 7823 O 779.731 -2.73469 3.42266 0
M  V30 7824 C 781.232 -3.92245 2.0654 0
M  V30 7825 H 778.452 -0.506374 0.440257 0
M  V30 7826 H 780.996 -1.04637 1.75703 0
M  V30 7827 H 779.151 -3.52509 1.60674 0
M  V30 7828 H 779.565 -3.59483 3.81932 0
M  V30 7829 H 781.039 -4.84249 2.64966 0
M  V30 7830 H 781.516 -4.26332 1.05537 0
M  V30 7831 H 782.122 -3.43487 2.50793 0
M  V30 7832 N 780.437 -1.16799 -1.0581 0
M  V30 7833 C 781.686 -0.94698 -1.78088 0
M  V30 7834 C 781.999 0.526016 -1.88394 0
M  V30 7835 O 783.205 0.865061 -2.5735 0
M  V30 7836 C 781.661 -1.64508 -3.20102 0
M  V30 7837 C 781.269 -3.15618 -3.17946 0
M  V30 7838 C 783.013 -1.50622 -3.96879 0
M  V30 7839 C 780.92 -3.78144 -4.5471 0
M  V30 7840 H 779.85 -0.35067 -0.667493 0
M  V30 7841 H 782.501 -1.39985 -1.18645 0
M  V30 7842 H 780.883 -1.11993 -3.79834 0
M  V30 7843 H 782.057 -3.75016 -2.67768 0
M  V30 7844 H 780.372 -3.29444 -2.54667 0
M  V30 7845 H 782.969 -1.94713 -4.97987 0
M  V30 7846 H 783.312 -0.455864 -4.13797 0
M  V30 7847 H 783.845 -2.00319 -3.43682 0
M  V30 7848 H 780.584 -4.83149 -4.42998 0
M  V30 7849 H 780.104 -3.23532 -5.05062 0
M  V30 7850 H 781.783 -3.79986 -5.2366 0
M  V30 7851 N 781.915 1.24427 -0.967243 0
M  V30 7852 C 783.161 1.92772 -0.629812 0
M  V30 7853 C 783.494 1.75436 0.832827 0
M  V30 7854 O 782.769 1.10716 1.59913 0
M  V30 7855 C 783.052 3.45798 -1.00477 0
M  V30 7856 C 782.905 3.72304 -2.52407 0
M  V30 7857 C 784.224 4.36787 -0.538999 0
M  V30 7858 H 781.343 0.700099 -0.230282 0
M  V30 7859 H 783.985 1.46805 -1.20616 0
M  V30 7860 H 782.135 3.8508 -0.514336 0
M  V30 7861 H 783.807 3.42584 -3.08924 0
M  V30 7862 H 782.05 3.17472 -2.95625 0
M  V30 7863 H 782.721 4.7937 -2.73693 0
M  V30 7864 H 785.197 4.04877 -0.959874 0
M  V30 7865 H 784.073 5.4259 -0.829926 0
M  V30 7866 H 784.334 4.38527 0.560923 0
M  V30 7867 N 783.393 0.737304 1.3929 0
M  V30 7868 C 784.67 0.212464 1.94443 0
M  V30 7869 C 785.05 -1.28621 1.67391 0
M  V30 7870 O 784.398 -2.0529 1.00342 0
M  V30 7871 C 784.608 0.548565 3.44662 0
M  V30 7872 C 785.956 0.499177 4.21656 0
M  V30 7873 O 786.98 0.485892 3.5287 0
M  V30 7874 O 785.839 0.495739 5.44247 0
M  V30 7875 H 782.933 0.0395457 0.826054 0
M  V30 7876 H 785.479 0.816319 1.48776 0
M  V30 7877 H 784.251 1.58426 3.57795 0
M  V30 7878 H 783.874 -0.0841399 3.97511 0
M  V30 7879 N 784.871 -1.49948 0.485112 0
M  V30 7880 C 785.821 -2.25734 -0.320658 0
M  V30 7881 C 786.805 -1.29907 -0.949373 0
M  V30 7882 O 787.997 -1.54725 -0.859601 0
M  V30 7883 C 785.126 -3.13728 -1.39391 0
M  V30 7884 C 784.212 -4.1701 -0.772225 0
M  V30 7885 N 784.603 -5.05667 0.115782 0
M  V30 7886 C 782.901 -4.33834 -1.03461 0
M  V30 7887 C 783.602 -5.79798 0.47004 0
M  V30 7888 N 782.578 -5.4337 -0.158204 0
M  V30 7889 H 786.38 -2.91647 0.36319 0
M  V30 7890 H 783.894 -1.59602 0.300154 0
M  V30 7891 H 785.891 -3.66639 -1.98447 0
M  V30 7892 H 784.551 -2.49365 -2.0796 0
M  V30 7893 H 785.562 -5.15619 0.485557 0
M  V30 7894 H 782.239 -3.80684 -1.71424 0
M  V30 7895 H 783.629 -6.61177 1.19558 0
M  V30 7896 N 786.349 -0.21828 -1.56081 0
M  V30 7897 C 787.765 0.137168 -1.59009 0
M  V30 7898 C 787.965 1.59215 -1.23503 0
M  V30 7899 O 787.021 2.33178 -0.968716 0
M  V30 7900 C 788.334 -0.186162 -3.00123 0
M  V30 7901 C 789.882 -0.128135 -3.12738 0
M  V30 7902 C 790.357 -0.425094 -4.56023 0
M  V30 7903 N 791.848 -0.374547 -4.61683 0
M  V30 7904 C 792.583 -0.57786 -5.70481 0
M  V30 7905 N 792.079 -0.842771 -6.87655 0
M  V30 7906 N 793.872 -0.510521 -5.59777 0
M  V30 7907 H 786.023 -1.16746 -1.77437 0
M  V30 7908 H 788.286 -0.467706 -0.824594 0
M  V30 7909 H 787.992 -1.19589 -3.30744 0
M  V30 7910 H 787.866 0.500388 -3.73866 0
M  V30 7911 H 790.253 0.872224 -2.81915 0
M  V30 7912 H 790.334 -0.848112 -2.41331 0
M  V30 7913 H 789.978 -1.42288 -4.87562 0
M  V30 7914 H 789.908 0.316038 -5.25651 0
M  V30 7915 H 792.399 -0.177356 -3.77484 0
M  V30 7916 H 792.712 -0.986095 -7.66483 0
M  V30 7917 H 791.057 -0.879929 -6.89407 0
M  V30 7918 H 794.248 -0.303813 -4.67113 0
M  V30 7919 H 794.421 -0.672378 -6.44502 0
M  V30 7920 N 787.827 1.57504 0.0551401 0
M  V30 7921 C 788.775 2.05884 1.08233 0
M  V30 7922 C 789.769 0.967383 1.39061 0
M  V30 7923 O 790.975 1.15242 1.38273 0
M  V30 7924 H 787.35 0.656673 0.366449 0
M  V30 7925 H 789.321 2.91273 0.648269 0
M  V30 7926 C 788.07 2.53221 2.38273 0
M  V30 7927 H 787.393 3.36809 2.15406 0
M  V30 7928 H 788.833 2.9081 3.08554 0
M  V30 7929 C 787.292 1.42218 3.05411 0
M  V30 7930 O 787.822 0.773638 3.9418 0
M  V30 7931 N 786.028 1.16316 2.66306 0
M  V30 7932 H 785.575 1.69237 1.94207 0
M  V30 7933 H 785.533 0.422534 3.11548 0
M  V30 7934 N 789.305 -0.326896 1.54172 0
M  V30 7935 C 790.235 -1.40741 1.86317 0
M  V30 7936 C 791.216 -1.54125 0.719684 0
M  V30 7937 O 792.401 -1.6806 0.973117 0
M  V30 7938 C 789.531 -2.77557 2.08757 0
M  V30 7939 C 788.485 -2.78965 3.24596 0
M  V30 7940 C 787.811 -4.18824 3.32401 0
M  V30 7941 C 789.111 -2.4301 4.62324 0
M  V30 7942 H 790.805 -1.14088 2.76811 0
M  V30 7943 H 788.351 -0.547389 1.3319 0
M  V30 7944 H 790.304 -3.53209 2.29829 0
M  V30 7945 H 789.028 -3.0568 1.15009 0
M  V30 7946 H 787.687 -2.05767 3.03406 0
M  V30 7947 H 787.335 -4.44083 2.36218 0
M  V30 7948 H 787.035 -4.20673 4.10253 0
M  V30 7949 H 788.559 -4.96294 3.55703 0
M  V30 7950 H 789.973 -3.08375 4.83299 0
M  V30 7951 H 788.37 -2.56116 5.42701 0
M  V30 7952 H 789.44 -1.38165 4.64799 0
M  V30 7953 N 790.784 -1.46188 -0.588786 0
M  V30 7954 C 791.734 -1.5271 -1.69303 0
M  V30 7955 C 792.718 -0.388578 -1.56137 0
M  V30 7956 O 793.91 -0.636616 -1.65155 0
M  V30 7957 C 791.039 -1.51457 -3.08084 0
M  V30 7958 C 790.125 -2.70581 -3.26568 0
M  V30 7959 N 790.516 -3.9555 -3.15236 0
M  V30 7960 C 788.814 -2.66676 -3.57491 0
M  V30 7961 C 789.515 -4.75157 -3.35561 0
M  V30 7962 N 788.491 -4.06927 -3.60432 0
M  V30 7963 H 792.293 -2.47136 -1.59063 0
M  V30 7964 H 789.807 -1.41743 -0.792632 0
M  V30 7965 H 791.804 -1.54216 -3.87328 0
M  V30 7966 H 790.464 -0.581036 -3.19459 0
M  V30 7967 H 791.475 -4.2689 -2.93232 0
M  V30 7968 H 788.152 -1.82317 -3.75588 0
M  V30 7969 H 789.542 -5.84126 -3.32034 0
M  V30 7970 N 792.262 0.832906 -1.33792 0
M  V30 7971 C 793.194 1.95042 -1.2038 0
M  V30 7972 C 794.207 1.62253 -0.133299 0
M  V30 7973 O 795.396 1.74315 -0.384261 0
M  V30 7974 C 792.496 3.287 -0.825215 0
M  V30 7975 C 791.669 3.89581 -1.98861 0
M  V30 7976 C 790.728 5.01602 -1.59003 0
M  V30 7977 O 789.754 5.20431 -2.30522 0
M  V30 7978 N 790.956 5.78356 -0.498446 0
M  V30 7979 H 793.721 2.07083 -2.16649 0
M  V30 7980 H 791.282 1.00896 -1.26616 0
M  V30 7981 H 793.274 4.01074 -0.540559 0
M  V30 7982 H 791.844 3.12565 0.0469796 0
M  V30 7983 H 791.064 3.09723 -2.43856 0
M  V30 7984 H 792.352 4.26989 -2.76691 0
M  V30 7985 H 791.75 5.65618 0.0963297 0
M  V30 7986 H 790.307 6.51226 -0.273485 0
M  V30 7987 N 793.74 1.17359 1.05189 0
M  V30 7988 C 794.988 0.960087 1.77839 0
M  V30 7989 C 795.309 -0.512554 1.88143 0
M  V30 7990 O 794.579 -1.3721 1.39822 0
M  V30 7991 H 793.159 0.352234 0.658741 0
M  V30 7992 H 795.821 1.47834 1.27008 0
M  V30 7993 H 794.917 1.38843 2.79516 0
M  V30 7994 N 795.218 -1.23913 0.973828 0
M  V30 7995 C 796.443 -1.96735 0.656511 0
M  V30 7996 C 796.868 -1.71682 -0.768571 0
M  V30 7997 O 796.226 -0.984267 -1.52256 0
M  V30 7998 C 796.274 -3.48004 0.944735 0
M  V30 7999 O 795.378 -4.12387 0.0333357 0
M  V30 8000 H 794.719 -0.616119 0.247575 0
M  V30 8001 H 797.249 -1.57525 1.30564 0
M  V30 8002 H 797.259 -3.98424 0.87876 0
M  V30 8003 H 795.934 -3.65567 1.98328 0
M  V30 8004 H 794.511 -3.72585 0.153157 0
M  V30 8005 N 796.696 -0.74468 -1.38897 0
M  V30 8006 C 797.644 -0.100312 -2.32384 0
M  V30 8007 C 798.638 0.715191 -1.53562 0
M  V30 8008 O 799.844 0.615288 -1.69157 0
M  V30 8009 H 796.219 -0.0136403 -0.751876 0
M  V30 8010 H 798.19 -0.905007 -2.84345 0
M  V30 8011 C 796.939 0.785432 -3.38713 0
M  V30 8012 H 796.262 0.167308 -3.9945 0
M  V30 8013 H 797.702 1.20374 -4.06554 0
M  V30 8014 C 796.161 1.92408 -2.76552 0
M  V30 8015 O 796.691 3.01752 -2.65157 0
M  V30 8016 N 794.897 1.71642 -2.34494 0
M  V30 8017 H 794.444 0.827079 -2.43961 0
M  V30 8018 H 794.402 2.48 -1.93244 0
M  V30 8019 N 798.174 1.49689 -0.493057 0
M  V30 8020 C 799.402 2.06836 0.0513141 0
M  V30 8021 C 799.817 1.35436 1.31539 0
M  V30 8022 O 799.174 0.430248 1.77356 0
M  V30 8023 C 799.225 3.60107 0.317003 0
M  V30 8024 O 798.946 4.2882 -0.896957 0
M  V30 8025 C 800.447 4.33945 0.905902 0
M  V30 8026 H 797.667 0.670787 -0.0169048 0
M  V30 8027 H 800.211 1.92574 -0.688139 0
M  V30 8028 H 798.366 3.74099 1.00642 0
M  V30 8029 H 798.78 5.20395 -0.654939 0
M  V30 8030 H 800.254 5.42087 1.04144 0
M  V30 8031 H 800.731 3.95895 1.90168 0
M  V30 8032 H 801.337 4.2454 0.254195 0
M  V30 8033 N 799.652 0.226554 1.55963 0
M  V30 8034 C 800.582 -0.676079 2.23498 0
M  V30 8035 C 801.563 -1.19718 1.20837 0
M  V30 8036 O 802.748 -1.24027 1.49436 0
M  V30 8037 C 799.878 -1.88217 2.91876 0
M  V30 8038 C 798.832 -1.4947 4.01052 0
M  V30 8039 C 798.158 -2.77997 4.56751 0
M  V30 8040 C 799.458 -0.680951 5.17842 0
M  V30 8041 H 801.152 -0.112989 2.99187 0
M  V30 8042 H 798.698 -0.0529046 1.43903 0
M  V30 8043 H 800.651 -2.51911 3.37815 0
M  V30 8044 H 799.375 -2.47031 2.13643 0
M  V30 8045 H 798.034 -0.881199 3.55852 0
M  V30 8046 H 797.682 -3.34966 3.75243 0
M  V30 8047 H 797.382 -2.52803 5.30438 0
M  V30 8048 H 798.906 -3.42625 5.05411 0
M  V30 8049 H 800.32 -1.22171 5.60131 0
M  V30 8050 H 798.717 -0.525898 5.97791 0
M  V30 8051 H 799.787 0.311346 4.83899 0
M  V30 8052 N 801.13 -1.57531 -0.0467866 0
M  V30 8053 C 802.358 -1.92696 -0.753371 0
M  V30 8054 C 802.773 -0.824792 -1.69831 0
M  V30 8055 O 802.13 0.200155 -1.81399 0
M  V30 8056 C 802.181 -3.27728 -1.52566 0
M  V30 8057 O 801.902 -4.3371 -0.618674 0
M  V30 8058 C 803.403 -3.77066 -2.33101 0
M  V30 8059 H 800.623 -0.636367 -0.212788 0
M  V30 8060 H 803.167 -2.04498 -0.00959361 0
M  V30 8061 H 801.322 -3.17378 -2.22148 0
M  V30 8062 H 801.736 -5.11548 -1.15839 0
M  V30 8063 H 803.21 -4.74109 -2.82709 0
M  V30 8064 H 803.687 -3.07348 -3.13741 0
M  V30 8065 H 804.293 -3.90442 -1.68628 0
M  V30 8066 N 802.608 0.318715 -1.54344 0
M  V30 8067 C 803.836 1.0755 -1.7675 0
M  V30 8068 C 804.251 1.81543 -0.518422 0
M  V30 8069 O 803.608 1.75198 0.511078 0
M  V30 8070 C 803.659 2.06983 -2.96378 0
M  V30 8071 O 803.38 1.35995 -4.16458 0
M  V30 8072 C 804.881 2.94841 -3.31034 0
M  V30 8073 H 802.101 0.319711 -0.589937 0
M  V30 8074 H 804.645 0.363369 -2.01246 0
M  V30 8075 H 802.8 2.73724 -2.74142 0
M  V30 8076 H 803.214 2.02623 -4.83781 0
M  V30 8077 H 804.688 3.60496 -4.18027 0
M  V30 8078 H 805.165 3.62199 -2.48412 0
M  V30 8079 H 805.771 2.33656 -3.55366 0
M  V30 8080 N 804.086 1.46499 0.581025 0
M  V30 8081 C 805.049 1.5677 1.672 0
M  V30 8082 C 806.049 0.444716 1.54528 0
M  V30 8083 O 807.239 0.709074 1.59116 0
M  V30 8084 C 804.371 1.4896 3.06633 0
M  V30 8085 H 805.564 2.54 1.5945 0
M  V30 8086 H 803.117 1.34334 0.799003 0
M  V30 8087 H 803.852 0.530168 3.19937 0
M  V30 8088 H 803.637 2.30439 3.17239 0
M  V30 8089 H 805.127 1.59237 3.86048 0
M  V30 8090 N 805.565 -0.825799 1.34232 0
M  V30 8091 C 806.528 -1.91808 1.25468 0
M  V30 8092 C 807.528 -1.59893 0.170567 0
M  V30 8093 O 808.718 -1.68986 0.422996 0
M  V30 8094 C 805.85 -3.27786 0.93644 0
M  V30 8095 H 807.043 -2.01003 2.22571 0
M  V30 8096 H 804.596 -1.01944 1.18479 0
M  V30 8097 H 805.331 -3.24285 -0.0315408 0
M  V30 8098 H 805.116 -3.52333 1.72057 0
M  V30 8099 H 806.606 -4.07782 0.900214 0
M  V30 8100 N 807.043 -1.17915 -1.04565 0
M  V30 8101 C 808.291 -0.969505 -1.77327 0
M  V30 8102 C 808.612 0.502569 -1.88412 0
M  V30 8103 O 807.882 1.36467 -1.40547 0
M  V30 8104 H 806.462 -0.355723 -0.656864 0
M  V30 8105 H 809.124 -1.48506 -1.26223 0
M  V30 8106 H 808.22 -1.40324 -2.78775 0
M  V30 8107 N 808.521 1.23394 -0.980386 0
M  V30 8108 C 809.749 1.95844 -0.667286 0
M  V30 8109 C 810.164 1.72574 0.765735 0
M  V30 8110 O 809.521 1.01715 1.51526 0
M  V30 8111 C 809.572 3.48844 -0.948151 0
M  V30 8112 O 809.293 3.71325 -2.32485 0
M  V30 8113 C 810.794 4.38494 -0.651002 0
M  V30 8114 H 808.014 0.623535 -0.247882 0
M  V30 8115 H 810.558 1.56885 -1.31176 0
M  V30 8116 H 808.713 3.85819 -0.349681 0
M  V30 8117 H 809.127 4.65619 -2.41452 0
M  V30 8118 H 810.601 5.44648 -0.897887 0
M  V30 8119 H 811.078 4.37236 0.414922 0
M  V30 8120 H 811.684 4.07127 -1.22995 0
M  V30 8121 N 809.999 0.752036 1.385 0
M  V30 8122 C 811.248 0.304294 1.99391 0
M  V30 8123 C 811.561 -1.11982 1.60373 0
M  V30 8124 O 812.767 -1.66795 2.14223 0
M  V30 8125 C 811.223 0.493101 3.56506 0
M  V30 8126 C 810.831 1.9262 4.04477 0
M  V30 8127 C 812.575 0.107994 4.24363 0
M  V30 8128 C 810.482 2.06365 5.54227 0
M  V30 8129 H 809.412 0.110024 0.745929 0
M  V30 8130 H 812.063 0.928355 1.58284 0
M  V30 8131 H 810.445 -0.20012 3.95494 0
M  V30 8132 H 811.619 2.65276 3.76783 0
M  V30 8133 H 809.934 2.26608 3.49339 0
M  V30 8134 H 812.531 0.189474 5.34364 0
M  V30 8135 H 812.874 -0.939165 4.05568 0
M  V30 8136 H 813.407 0.753011 3.90608 0
M  V30 8137 H 810.146 3.0933 5.77923 0
M  V30 8138 H 809.666 1.38167 5.83669 0
M  V30 8139 H 811.345 1.85286 6.19902 0
M  V30 8140 N 811.477 -1.49425 0.500989 0
M  V30 8141 C 812.44 -2.27646 -0.266416 0
M  V30 8142 C 813.44 -1.3366 -0.893961 0
M  V30 8143 O 814.63 -1.5682 -0.758495 0
M  V30 8144 C 811.762 -3.11618 -1.38227 0
M  V30 8145 H 812.955 -2.96945 0.419973 0
M  V30 8146 H 810.508 -1.5419 0.255954 0
M  V30 8147 H 811.243 -2.46885 -2.10281 0
M  V30 8148 H 811.028 -3.80721 -0.937746 0
M  V30 8149 H 812.518 -3.70698 -1.92283 0
M  V30 8150 N 812.955 -0.234822 -1.55841 0
M  V30 8151 C 814.203 0.392483 -1.98252 0
M  V30 8152 C 814.524 1.59344 -1.12404 0
M  V30 8153 O 813.794 1.94834 -0.204055 0
M  V30 8154 H 812.374 0.147999 -0.732192 0
M  V30 8155 H 815.036 -0.330804 -1.92072 0
M  V30 8156 H 814.132 0.709829 -3.03921 0
M  V30 8157 N 814.433 1.57553 0.0384317 0
M  V30 8158 C 815.661 1.93093 0.743141 0
M  V30 8159 C 816.076 0.833787 1.69391 0
M  V30 8160 O 815.433 -0.190532 1.81503 0
M  V30 8161 C 815.484 3.28533 1.50826 0
M  V30 8162 O 815.205 4.34032 0.595665 0
M  V30 8163 C 816.706 3.78297 2.31098 0
M  V30 8164 H 813.926 0.637486 0.20941 0
M  V30 8165 H 816.47 2.045 -0.00125154 0
M  V30 8166 H 814.625 3.18552 2.20462 0
M  V30 8167 H 815.039 5.12155 1.13124 0
M  V30 8168 H 816.513 4.75602 2.80191 0
M  V30 8169 H 816.99 3.09008 3.12107 0
M  V30 8170 H 817.596 3.91331 1.66555 0
M  V30 8171 N 815.911 -0.310526 1.54511 0
M  V30 8172 C 816.874 -1.3657 1.84068 0
M  V30 8173 C 817.874 -1.44123 0.713097 0
M  V30 8174 O 819.064 -1.43924 0.981399 0
M  V30 8175 C 816.196 -2.75162 2.01243 0
M  V30 8176 H 817.389 -1.1161 2.78358 0
M  V30 8177 H 814.942 -0.546699 1.46427 0
M  V30 8178 H 815.677 -3.05359 1.09208 0
M  V30 8179 H 815.462 -2.71071 2.83307 0
M  V30 8180 H 816.952 -3.51473 2.25514 0
M  V30 8181 N 817.389 -1.46805 -0.573248 0
M  V30 8182 C 818.637 -1.52302 -1.32847 0
M  V30 8183 C 818.958 -0.180159 -1.94166 0
M  V30 8184 O 818.228 0.794291 -1.79075 0
M  V30 8185 H 816.808 -0.56097 -0.493276 0
M  V30 8186 H 819.47 -1.82998 -0.670642 0
M  V30 8187 H 818.566 -2.28089 -2.13031 0
M  V30 8188 N 818.867 0.818669 -1.34668 0
M  V30 8189 C 820.095 1.60674 -1.30351 0
M  V30 8190 C 820.51 1.88408 0.121546 0
M  V30 8191 O 819.867 1.47849 1.06991 0
M  V30 8192 C 819.918 2.94516 -2.09625 0
M  V30 8193 O 819.639 2.6799 -3.46573 0
M  V30 8194 C 821.14 3.8891 -2.12754 0
M  V30 8195 H 818.36 0.499306 -0.448258 0
M  V30 8196 H 820.904 1.01828 -1.77345 0
M  V30 8197 H 819.059 3.49908 -1.66262 0
M  V30 8198 H 819.473 3.53361 -3.87603 0
M  V30 8199 H 820.947 4.79972 -2.72637 0
M  V30 8200 H 821.424 4.24599 -1.12306 0
M  V30 8201 H 822.03 3.39453 -2.56225 0
M  V30 8202 N 820.346 1.18468 1.03938 0
M  V30 8203 C 821.592 0.982286 1.77423 0
M  V30 8204 C 821.925 -0.48679 1.88 0
M  V30 8205 O 821.2 -1.36146 1.38905 0
M  V30 8206 C 821.483 1.63929 3.20623 0
M  V30 8207 C 821.336 3.18132 3.17982 0
M  V30 8208 C 822.655 1.3536 4.18767 0
M  V30 8209 H 819.774 0.358264 0.644062 0
M  V30 8210 H 822.416 1.46154 1.21405 0
M  V30 8211 H 820.566 1.2318 3.68455 0
M  V30 8212 H 822.238 3.68024 2.78129 0
M  V30 8213 H 820.481 3.50225 2.55978 0
M  V30 8214 H 821.152 3.5924 4.19107 0
M  V30 8215 H 823.628 1.70669 3.79488 0
M  V30 8216 H 822.504 1.83896 5.17178 0
M  V30 8217 H 822.765 0.276722 4.41233 0
M  V30 8218 N 821.824 -1.22873 0.986916 0
M  V30 8219 C 822.734 -2.28277 0.540978 0
M  V30 8220 C 823.75 -1.69164 -0.407363 0
M  V30 8221 O 824.926 -1.99504 -0.275674 0
M  V30 8222 C 821.991 -3.46404 -0.143181 0
M  V30 8223 C 821.052 -4.20854 0.847375 0
M  V30 8224 C 820.285 -5.33341 0.19577 0
M  V30 8225 O 820.508 -5.61356 -1.0117 0
M  V30 8226 O 819.442 -5.95169 0.897623 0
M  V30 8227 H 823.268 -2.68578 1.41773 0
M  V30 8228 H 820.853 -1.28927 0.754867 0
M  V30 8229 H 822.735 -4.18096 -0.526676 0
M  V30 8230 H 821.41 -3.08041 -0.994593 0
M  V30 8231 H 820.317 -3.51459 1.28169 0
M  V30 8232 H 821.65 -4.63082 1.6678 0
M  V30 8233 N 823.302 -0.75937 -1.38099 0
M  V30 8234 C 824.548 -0.318584 -2.00282 0
M  V30 8235 C 824.881 1.09854 -1.60143 0
M  V30 8236 O 824.156 1.75344 -0.841702 0
M  V30 8237 C 824.439 -0.448047 -3.57302 0
M  V30 8238 C 824.292 -1.9067 -4.07388 0
M  V30 8239 C 825.611 0.155119 -4.39827 0
M  V30 8240 H 822.73 -0.117233 -0.727616 0
M  V30 8241 H 825.372 -0.960097 -1.63958 0
M  V30 8242 H 823.522 0.0981003 -3.88376 0
M  V30 8243 H 825.194 -2.5116 -3.86932 0
M  V30 8244 H 823.437 -2.41979 -3.6004 0
M  V30 8245 H 824.108 -1.94841 -5.1647 0
M  V30 8246 H 826.584 -0.31073 -4.14938 0
M  V30 8247 H 825.46 0.0343264 -5.48889 0
M  V30 8248 H 825.721 1.24407 -4.24235 0
M  V30 8249 N 824.78 1.49157 -0.508906 0
M  V30 8250 C 825.71 2.32109 0.254469 0
M  V30 8251 C 826.691 1.40754 0.955111 0
M  V30 8252 O 827.876 1.69658 0.944983 0
M  V30 8253 C 825.006 3.21458 1.3146 0
M  V30 8254 C 823.96 4.2167 0.733368 0
M  V30 8255 C 823.286 5.00009 1.8946 0
M  V30 8256 C 824.586 5.21544 -0.280875 0
M  V30 8257 H 826.28 2.9618 -0.43795 0
M  V30 8258 H 823.826 1.4243 -0.212062 0
M  V30 8259 H 825.779 3.78305 1.85643 0
M  V30 8260 H 824.503 2.55346 2.03632 0
M  V30 8261 H 823.162 3.65979 0.213231 0
M  V30 8262 H 822.81 4.30338 2.60419 0
M  V30 8263 H 822.51 5.67821 1.51173 0
M  V30 8264 H 824.034 5.59702 2.44061 0
M  V30 8265 H 825.448 5.73039 0.173095 0
M  V30 8266 H 823.845 5.97291 -0.580006 0
M  V30 8267 H 824.915 4.69969 -1.19404 0
M  V30 8268 N 826.258 0.243083 1.55714 0
M  V30 8269 C 827.506 -0.381964 1.98458 0
M  V30 8270 C 827.827 -1.58745 1.13247 0
M  V30 8271 O 827.097 -1.94723 0.214384 0
M  V30 8272 H 825.677 -0.144114 0.732967 0
M  V30 8273 H 828.339 0.340985 1.91894 0
M  V30 8274 H 827.435 -0.693702 3.04293 0
M  V30 8275 N 827.736 -1.57571 -0.0300757 0
M  V30 8276 C 829.013 -1.80381 -0.756447 0
M  V30 8277 C 829.393 -0.840906 -1.93628 0
M  V30 8278 O 828.741 0.117143 -2.282 0
M  V30 8279 C 828.951 -3.2807 -1.19043 0
M  V30 8280 C 830.299 -3.93025 -1.60676 0
M  V30 8281 O 831.323 -3.32213 -1.28503 0
M  V30 8282 O 830.182 -5.00092 -2.20386 0
M  V30 8283 H 827.276 -0.741737 -0.365725 0
M  V30 8284 H 829.822 -1.69699 -0.00693177 0
M  V30 8285 H 828.594 -3.89748 -0.348128 0
M  V30 8286 H 828.217 -3.43637 -1.99999 0
M  V30 8287 N 829.214 0.302327 -1.54673 0
M  V30 8288 C 830.462 1.03565 -1.73547 0
M  V30 8289 C 830.783 1.87843 -0.523448 0
M  V30 8290 O 830.053 1.90367 0.462295 0
M  V30 8291 H 828.633 0.385358 -0.639928 0
M  V30 8292 H 831.295 0.333632 -1.92023 0
M  V30 8293 H 830.391 1.68952 -2.62415 0
M  V30 8294 N 830.692 1.47107 0.565454 0
M  V30 8295 C 832.108 1.32443 0.890566 0
M  V30 8296 C 832.308 0.308735 1.99121 0
M  V30 8297 O 831.364 -0.28265 2.50913 0
M  V30 8298 C 832.677 2.71548 1.2916 0
M  V30 8299 C 834.225 2.7977 1.40349 0
M  V30 8300 C 834.7 4.19497 1.83811 0
M  V30 8301 N 836.191 4.21998 1.90975 0
M  V30 8302 C 836.926 5.2702 2.25916 0
M  V30 8303 N 836.422 6.42353 2.59527 0
M  V30 8304 N 838.215 5.14393 2.26619 0
M  V30 8305 H 830.366 2.11786 -0.161328 0
M  V30 8306 H 832.629 0.947952 -0.00950631 0
M  V30 8307 H 832.335 3.47265 0.556753 0
M  V30 8308 H 832.209 3.02782 2.24951 0
M  V30 8309 H 834.596 2.0433 2.12916 0
M  V30 8310 H 834.677 2.522 0.427655 0
M  V30 8311 H 834.321 4.95439 1.11816 0
M  V30 8312 H 834.251 4.44486 2.82382 0
M  V30 8313 H 836.742 3.38791 1.6742 0
M  V30 8314 H 837.055 7.18252 2.85191 0
M  V30 8315 H 835.4 6.45687 2.57126 0
M  V30 8316 H 838.591 4.2332 1.99794 0
M  V30 8317 H 838.764 5.96349 2.5352 0
M  V30 8318 N 832.17 -0.811516 1.35101 0
M  V30 8319 C 833.416 -1.57016 1.29296 0
M  V30 8320 C 833.771 -1.91941 -0.13288 0
M  V30 8321 O 833.064 -1.58121 -1.08204 0
M  V30 8322 C 833.258 -2.87121 2.1283 0
M  V30 8323 C 833.087 -2.64908 3.63392 0
M  V30 8324 C 831.857 -2.61055 4.32641 0
M  V30 8325 C 834.055 -2.35628 4.57148 0
M  V30 8326 N 832.037 -2.30508 5.68981 0
M  V30 8327 C 833.408 -2.14876 5.81574 0
M  V30 8328 C 835.463 -2.2145 4.45942 0
M  V30 8329 C 834.166 -1.81381 6.96055 0
M  V30 8330 C 836.192 -1.89352 5.60267 0
M  V30 8331 C 835.554 -1.69432 6.83719 0
M  V30 8332 H 831.653 -0.57649 0.528378 0
M  V30 8333 H 834.237 -0.950338 1.69931 0
M  V30 8334 H 832.408 -3.47007 1.74473 0
M  V30 8335 H 834.14 -3.52629 1.98582 0
M  V30 8336 H 830.895 -2.75531 3.85201 0
M  V30 8337 H 831.319 -2.18042 6.40927 0
M  V30 8338 H 835.961 -2.35551 3.51106 0
M  V30 8339 H 833.679 -1.66018 7.90863 0
M  V30 8340 H 837.265 -1.79098 5.53548 0
M  V30 8341 H 836.145 -1.44957 7.70686 0
M  V30 8342 N 833.648 -1.19017 -1.03309 0
M  V30 8343 C 834.894 -0.991681 -1.769 0
M  V30 8344 C 835.227 0.476813 -1.88255 0
M  V30 8345 O 834.502 1.35407 -1.39625 0
M  V30 8346 C 834.785 -1.65627 -3.19749 0
M  V30 8347 C 834.638 -3.19813 -3.1629 0
M  V30 8348 C 835.957 -1.37579 -4.18043 0
M  V30 8349 H 833.076 -0.361674 -0.642153 0
M  V30 8350 H 835.718 -1.46795 -1.20628 0
M  V30 8351 H 833.868 -1.25132 -3.67796 0
M  V30 8352 H 835.54 -3.69494 -2.76174 0
M  V30 8353 H 833.783 -3.51578 -2.54117 0
M  V30 8354 H 834.454 -3.61457 -4.17196 0
M  V30 8355 H 836.93 -1.72679 -3.78578 0
M  V30 8356 H 835.806 -1.86636 -5.16196 0
M  V30 8357 H 836.067 -0.300118 -4.4108 0
M  V30 8358 N 835.127 1.22348 -0.993418 0
M  V30 8359 C 836.077 2.221 -0.515333 0
M  V30 8360 C 837.061 1.55409 0.416762 0
M  V30 8361 O 838.253 1.75317 0.243497 0
M  V30 8362 C 835.382 3.42888 0.168173 0
M  V30 8363 C 834.468 4.16786 -0.784257 0
M  V30 8364 N 834.859 4.67435 -1.93231 0
M  V30 8365 C 833.157 4.41942 -0.600243 0
M  V30 8366 C 833.858 5.23792 -2.53016 0
M  V30 8367 N 832.834 5.12483 -1.8128 0
M  V30 8368 H 836.636 2.58902 -1.39093 0
M  V30 8369 H 834.15 1.38024 -0.855747 0
M  V30 8370 H 836.147 4.13542 0.528069 0
M  V30 8371 H 834.807 3.07598 1.03989 0
M  V30 8372 H 835.818 4.63375 -2.31309 0
M  V30 8373 H 832.495 4.16891 0.225369 0
M  V30 8374 H 833.885 5.73515 -3.50043 0
M  V30 8375 N 836.605 0.766683 1.37694 0
M  V30 8376 C 837.535 0.163432 2.32927 0
M  V30 8377 C 838.516 -0.688861 1.55527 0
M  V30 8378 O 839.701 -0.627363 1.83787 0
M  V30 8379 C 836.831 -0.720416 3.39746 0
M  V30 8380 C 835.785 0.0301718 4.27989 0
M  V30 8381 C 835.111 -0.972788 5.25776 0
M  V30 8382 C 836.411 1.20623 5.0818 0
M  V30 8383 H 838.105 0.958988 2.83626 0
M  V30 8384 H 835.651 0.462601 1.36367 0
M  V30 8385 H 837.604 -1.15221 4.05342 0
M  V30 8386 H 836.328 -1.54844 2.8756 0
M  V30 8387 H 834.987 0.442685 3.63917 0
M  V30 8388 H 834.635 -1.79522 4.69873 0
M  V30 8389 H 834.335 -0.475145 5.85676 0
M  V30 8390 H 835.859 -1.40362 5.94248 0
M  V30 8391 H 837.273 0.851341 5.66944 0
M  V30 8392 H 835.67 1.63561 5.7738 0
M  V30 8393 H 836.74 2.01281 4.41151 0
M  V30 8394 N 838.083 -1.48885 0.516809 0
M  V30 8395 C 838.993 -2.33185 -0.257293 0
M  V30 8396 C 840.009 -1.4565 -0.951952 0
M  V30 8397 O 841.185 -1.78651 -0.929834 0
M  V30 8398 C 838.25 -3.21465 -1.29851 0
M  V30 8399 C 837.311 -4.24863 -0.615608 0
M  V30 8400 C 836.544 -5.08925 -1.60722 0
M  V30 8401 O 836.767 -4.9475 -2.83863 0
M  V30 8402 O 835.701 -5.90737 -1.15384 0
M  V30 8403 H 839.527 -3.00596 0.433131 0
M  V30 8404 H 837.112 -1.46792 0.277908 0
M  V30 8405 H 838.994 -3.76108 -1.90055 0
M  V30 8406 H 837.669 -2.5673 -1.97158 0
M  V30 8407 H 836.576 -3.74091 0.0265829 0
M  V30 8408 H 837.909 -4.92198 0.0152871 0
M  V30 8409 N 839.561 -0.251338 -1.55583 0
M  V30 8410 C 840.809 0.371434 -1.98657 0
M  V30 8411 C 841.13 1.58143 -1.14087 0
M  V30 8412 O 840.4 1.94607 -0.224708 0
M  V30 8413 H 838.98 0.140225 -0.733721 0
M  V30 8414 H 841.642 -0.351157 -1.9171 0
M  V30 8415 H 840.738 0.677554 -3.04657 0
M  V30 8416 N 841.039 1.57585 0.0217189 0
M  V30 8417 C 842.286 1.89606 0.711045 0
M  V30 8418 C 842.614 0.849535 1.74966 0
M  V30 8419 O 841.869 -0.14856 1.95135 0
M  V30 8420 C 842.168 3.28377 1.41079 0
M  V30 8421 C 841.834 4.48035 0.507454 0
M  V30 8422 C 840.496 4.80504 0.258672 0
M  V30 8423 C 842.848 5.21071 -0.115793 0
M  V30 8424 C 840.176 5.83393 -0.622013 0
M  V30 8425 C 842.528 6.24897 -0.984224 0
M  V30 8426 C 841.192 6.55836 -1.2424 0
M  V30 8427 H 840.462 0.693817 0.26019 0
M  V30 8428 H 843.109 1.91478 -0.0291424 0
M  V30 8429 H 841.414 3.22528 2.22448 0
M  V30 8430 H 843.111 3.50404 1.94982 0
M  V30 8431 H 839.701 4.22653 0.711516 0
M  V30 8432 H 843.885 4.96259 0.0634327 0
M  V30 8433 H 839.141 6.05736 -0.830267 0
M  V30 8434 H 843.315 6.8063 -1.47363 0
M  V30 8435 H 840.942 7.35383 -1.92653 0
M  V30 8436 N 842.517 -0.29412 1.54831 0
M  V30 8437 C 843.765 -1.02643 1.74094 0
M  V30 8438 C 844.086 -1.87563 0.533402 0
M  V30 8439 O 843.356 -1.9061 -0.452192 0
M  V30 8440 H 841.936 -0.381959 0.641963 0
M  V30 8441 H 844.598 -0.323444 1.92197 0
M  V30 8442 H 843.694 -1.67558 2.63307 0
M  V30 8443 N 843.995 -1.47404 -0.557645 0
M  V30 8444 C 845.243 -1.53703 -1.31224 0
M  V30 8445 C 845.564 -0.200742 -1.93964 0
M  V30 8446 O 844.834 0.775253 -1.79907 0
M  V30 8447 H 843.414 -0.566171 -0.487299 0
M  V30 8448 H 846.076 -1.83699 -0.651195 0
M  V30 8449 H 845.172 -2.30335 -2.10599 0
M  V30 8450 N 845.473 0.80434 -1.35529 0
M  V30 8451 C 846.703 1.59052 -1.31856 0
M  V30 8452 C 847.111 1.88905 0.105549 0
M  V30 8453 O 846.454 1.49422 1.06858 0
M  V30 8454 C 846.516 2.94626 -2.06 0
M  V30 8455 C 846.18 2.87576 -3.55175 0
M  V30 8456 C 847.177 2.60856 -4.49722 0
M  V30 8457 C 844.862 3.06623 -3.97854 0
M  V30 8458 C 846.856 2.53262 -5.84925 0
M  V30 8459 C 844.543 2.98652 -5.33151 0
M  V30 8460 C 845.541 2.72007 -6.26499 0
M  V30 8461 O 845.229 2.64003 -7.59314 0
M  V30 8462 H 844.961 0.500486 -0.454411 0
M  V30 8463 H 847.515 1.0074 -1.78999 0
M  V30 8464 H 845.745 3.5493 -1.53498 0
M  V30 8465 H 847.434 3.55785 -1.95376 0
M  V30 8466 H 848.2 2.45858 -4.18066 0
M  V30 8467 H 844.079 3.26372 -3.2558 0
M  V30 8468 H 847.623 2.32386 -6.57756 0
M  V30 8469 H 843.52 3.13208 -5.64421 0
M  V30 8470 H 844.288 2.79595 -7.69265 0
M  V30 8471 N 846.951 1.19563 1.02676 0
M  V30 8472 C 847.914 0.937182 2.09164 0
M  V30 8473 C 848.914 -0.0831927 1.60585 0
M  V30 8474 O 850.104 0.15178 1.73538 0
M  V30 8475 C 847.236 0.408912 3.38439 0
M  V30 8476 H 848.429 1.88164 2.33526 0
M  V30 8477 H 845.982 1.00959 1.19319 0
M  V30 8478 H 846.717 -0.541497 3.19747 0
M  V30 8479 H 846.502 1.14464 3.7502 0
M  V30 8480 H 847.992 0.247242 4.16867 0
M  V30 8481 N 848.429 -1.21819 0.999893 0
M  V30 8482 C 849.362 -2.22635 0.500887 0
M  V30 8483 C 850.34 -1.56459 -0.442636 0
M  V30 8484 O 851.524 -1.84902 -0.366551 0
M  V30 8485 C 848.651 -3.37598 -0.273046 0
M  V30 8486 C 847.697 -4.22006 0.617511 0
M  V30 8487 S 848.53 -4.93583 2.07693 0
M  V30 8488 C 849.686 -6.1198 1.31269 0
M  V30 8489 H 849.919 -2.64618 1.35516 0
M  V30 8490 H 847.452 -1.31606 0.807419 0
M  V30 8491 H 849.41 -4.04251 -0.713515 0
M  V30 8492 H 848.071 -2.94108 -1.10268 0
M  V30 8493 H 847.264 -5.03995 0.0216543 0
M  V30 8494 H 846.866 -3.6052 0.99504 0
M  V30 8495 H 849.158 -6.74979 0.583933 0
M  V30 8496 H 850.101 -6.75991 2.10811 0
M  V30 8497 H 850.509 -5.5847 0.822901 0
M  V30 8498 N 849.908 -0.773975 -1.37286 0
M  V30 8499 C 850.838 -0.175782 -2.32837 0
M  V30 8500 C 851.819 0.680603 -1.5589 0
M  V30 8501 O 853.004 0.617607 -1.84117 0
M  V30 8502 C 850.134 0.702388 -3.40123 0
M  V30 8503 C 849.088 -0.0528687 -4.27967 0
M  V30 8504 C 848.414 0.944891 -5.26285 0
M  V30 8505 C 849.714 -1.23316 -5.07534 0
M  V30 8506 H 851.408 -0.974016 -2.83114 0
M  V30 8507 H 848.954 -0.469826 -1.3612 0
M  V30 8508 H 850.907 1.13069 -4.05947 0
M  V30 8509 H 849.631 1.53316 -2.88378 0
M  V30 8510 H 848.29 -0.461978 -3.63678 0
M  V30 8511 H 847.938 1.77028 -4.70819 0
M  V30 8512 H 847.638 0.444079 -5.8592 0
M  V30 8513 H 849.162 1.37209 -5.94984 0
M  V30 8514 H 850.576 -0.881395 -5.66484 0
M  V30 8515 H 848.973 -1.66621 -5.76504 0
M  V30 8516 H 850.043 -2.03617 -4.40077 0
M  V30 8517 N 851.386 1.48609 -0.524698 0
M  V30 8518 C 852.663 1.95454 0.075465 0
M  V30 8519 C 853.043 1.46682 1.51814 0
M  V30 8520 O 852.391 0.690975 2.17802 0
M  V30 8521 C 852.601 3.48981 -0.0363273 0
M  V30 8522 C 853.949 4.24414 0.125624 0
M  V30 8523 O 854.973 3.5618 0.0377239 0
M  V30 8524 O 853.832 5.45625 0.309104 0
M  V30 8525 H 850.926 0.822902 0.0822256 0
M  V30 8526 H 853.472 1.59153 -0.588921 0
M  V30 8527 H 852.244 3.77185 -1.04149 0
M  V30 8528 H 851.867 3.91963 0.667146 0
M  V30 8529 N 852.864 0.259585 1.55447 0
M  V30 8530 C 854.141 -0.412595 1.91199 0
M  V30 8531 C 854.521 -1.74909 1.18194 0
M  V30 8532 O 853.869 -2.26474 0.303603 0
M  V30 8533 C 854.079 -0.568195 3.44344 0
M  V30 8534 C 855.427 -0.858253 4.15836 0
M  V30 8535 O 856.451 -0.653588 3.50152 0
M  V30 8536 O 855.31 -1.24874 5.32042 0
M  V30 8537 H 852.404 -0.223403 0.796254 0
M  V30 8538 H 854.95 0.30459 1.66944 0
M  V30 8539 H 853.722 0.372989 3.89518 0
M  V30 8540 H 853.345 -1.33544 3.74502 0
M  V30 8541 N 854.342 -1.57594 -0.0133615 0
M  V30 8542 C 855.567 -1.94649 -0.715996 0
M  V30 8543 C 855.992 -0.860786 -1.67249 0
M  V30 8544 O 855.35 0.182228 -1.80382 0
M  V30 8545 C 855.398 -3.30789 -1.43566 0
M  V30 8546 O 854.502 -3.24148 -2.54955 0
M  V30 8547 H 853.843 -0.635801 -0.191449 0
M  V30 8548 H 856.373 -2.04569 0.0358478 0
M  V30 8549 H 856.383 -3.66045 -1.80208 0
M  V30 8550 H 855.058 -4.09367 -0.734263 0
M  V30 8551 H 853.635 -3.00548 -2.20739 0
M  V30 8552 N 855.82 0.285905 -1.54985 0
M  V30 8553 C 857.231 0.857869 -1.65824 0
M  V30 8554 C 857.582 1.87531 -0.576763 0
M  V30 8555 O 856.707 2.14528 0.284016 0
M  V30 8556 C 857.302 1.56277 -3.00604 0
M  V30 8557 C 855.861 2.08294 -3.13513 0
M  V30 8558 C 855.008 0.920633 -2.61571 0
M  V30 8559 H 857.959 0.0625463 -1.58577 0
M  V30 8560 H 857.98 2.42912 -2.92872 0
M  V30 8561 H 857.492 0.822017 -3.79295 0
M  V30 8562 H 855.593 2.8537 -2.39572 0
M  V30 8563 H 855.706 2.3071 -4.19892 0
M  V30 8564 H 854.07 1.31043 -2.18403 0
M  V30 8565 H 854.853 0.193594 -3.42754 0
M  V30 8566 N 857.298 1.47698 0.54982 0
M  V30 8567 C 858.228 1.63622 1.66583 0
M  V30 8568 C 859.209 0.485477 1.63025 0
M  V30 8569 O 860.394 0.715692 1.80531 0
M  V30 8570 C 857.524 1.65721 3.05211 0
M  V30 8571 C 856.478 2.80097 3.2362 0
M  V30 8572 C 855.804 2.67272 4.63109 0
M  V30 8573 C 857.104 4.21612 3.08286 0
M  V30 8574 H 858.798 2.57049 1.53512 0
M  V30 8575 H 856.344 1.23705 0.737099 0
M  V30 8576 H 858.297 1.75451 3.83138 0
M  V30 8577 H 857.021 0.688593 3.19258 0
M  V30 8578 H 855.68 2.69889 2.48104 0
M  V30 8579 H 855.328 1.68422 4.73965 0
M  V30 8580 H 855.028 3.44008 4.76374 0
M  V30 8581 H 856.552 2.78942 5.43161 0
M  V30 8582 H 857.966 4.32758 3.76024 0
M  V30 8583 H 856.363 4.99193 3.33057 0
M  V30 8584 H 857.433 4.39462 2.04942 0
M  V30 8585 N 858.776 -0.797141 1.35954 0
M  V30 8586 C 859.726 -1.89899 1.26184 0
M  V30 8587 C 860.71 -1.60152 0.155007 0
M  V30 8588 O 861.902 -1.72715 0.387108 0
M  V30 8589 C 859.031 -3.2699 1.04559 0
M  V30 8590 C 858.117 -3.62772 2.19675 0
M  V30 8591 N 858.508 -3.6992 3.44953 0
M  V30 8592 C 856.806 -3.92786 2.1127 0
M  V30 8593 C 857.507 -4.01718 4.20711 0
M  V30 8594 N 856.483 -4.16298 3.49567 0
M  V30 8595 H 860.285 -1.9364 2.2109 0
M  V30 8596 H 857.799 -0.992246 1.28562 0
M  V30 8597 H 859.796 -4.0578 0.956474 0
M  V30 8598 H 858.456 -3.24529 0.105467 0
M  V30 8599 H 859.467 -3.52759 3.79185 0
M  V30 8600 H 856.144 -3.98295 1.25168 0
M  V30 8601 H 857.534 -4.14237 5.29016 0
M  V30 8602 N 860.254 -1.20106 -1.0204 0
M  V30 8603 C 861.5 -1.01039 -1.75838 0
M  V30 8604 C 861.833 0.456819 -1.88751 0
M  V30 8605 O 861.108 1.33919 -1.41053 0
M  V30 8606 C 861.391 -1.69009 -3.17975 0
M  V30 8607 C 861.244 -3.2315 -3.1288 0
M  V30 8608 C 862.563 -1.42005 -4.16561 0
M  V30 8609 H 859.682 -0.368465 -0.638281 0
M  V30 8610 H 862.324 -1.48066 -1.19064 0
M  V30 8611 H 860.474 -1.29026 -3.66449 0
M  V30 8612 H 862.146 -3.72402 -2.72239 0
M  V30 8613 H 860.389 -3.54253 -2.50374 0
M  V30 8614 H 861.06 -3.65862 -4.13339 0
M  V30 8615 H 863.536 -1.76685 -3.76725 0
M  V30 8616 H 862.412 -1.92101 -5.14187 0
M  V30 8617 H 862.673 -0.346884 -4.40737 0
M  V30 8618 N 861.732 1.21287 -1.00634 0
M  V30 8619 C 862.662 2.25973 -0.588089 0
M  V30 8620 C 863.643 1.65527 0.391764 0
M  V30 8621 O 864.828 1.92179 0.279452 0
M  V30 8622 C 861.958 3.47197 0.0847336 0
M  V30 8623 C 860.912 4.20168 -0.815039 0
M  V30 8624 C 860.238 5.34699 -0.00855393 0
M  V30 8625 C 861.538 4.77416 -2.11828 0
M  V30 8626 H 863.232 2.61212 -1.46317 0
M  V30 8627 H 860.778 1.25563 -0.704985 0
M  V30 8628 H 862.731 4.19602 0.388821 0
M  V30 8629 H 861.455 3.11092 0.994456 0
M  V30 8630 H 860.114 3.49614 -1.10297 0
M  V30 8631 H 859.762 4.94837 0.902499 0
M  V30 8632 H 859.462 5.84449 -0.607664 0
M  V30 8633 H 860.986 6.09914 0.289317 0
M  V30 8634 H 862.4 5.41694 -1.87725 0
M  V30 8635 H 860.797 5.37561 -2.66736 0
M  V30 8636 H 861.867 3.96724 -2.78816 0
M  V30 8637 N 863.21 0.781244 1.36873 0
M  V30 8638 C 864.626 0.461968 1.52768 0
M  V30 8639 C 864.826 -1.02099 1.73719 0
M  V30 8640 O 863.882 -1.80665 1.76399 0
M  V30 8641 C 865.195 1.2853 2.71846 0
M  V30 8642 C 866.743 1.27817 2.85713 0
M  V30 8643 C 867.218 2.08506 4.07786 0
M  V30 8644 N 868.709 2.05909 4.14917 0
M  V30 8645 C 869.444 2.65118 5.08429 0
M  V30 8646 N 868.94 3.33152 6.07438 0
M  V30 8647 N 870.733 2.54896 5.00983 0
M  V30 8648 H 862.884 1.74198 1.21527 0
M  V30 8649 H 865.147 0.740027 0.592506 0
M  V30 8650 H 864.853 2.3366 2.62861 0
M  V30 8651 H 864.727 0.920981 3.65784 0
M  V30 8652 H 867.114 0.234817 2.94164 0
M  V30 8653 H 867.195 1.68219 1.92707 0
M  V30 8654 H 866.839 3.12867 4.00096 0
M  V30 8655 H 866.769 1.65479 4.99924 0
M  V30 8656 H 869.26 1.56386 3.44023 0
M  V30 8657 H 869.573 3.75681 6.75339 0
M  V30 8658 H 867.918 3.37253 6.07689 0
M  V30 8659 H 871.109 2.01352 4.22581 0
M  V30 8660 H 871.282 3.01332 5.73675 0
M  V30 8661 N 864.689 -1.48329 0.532571 0
M  V30 8662 C 865.599 -2.33445 -0.232546 0
M  V30 8663 C 866.615 -1.46651 -0.93645 0
M  V30 8664 O 867.791 -1.79627 -0.910834 0
M  V30 8665 C 864.856 -3.22824 -1.26434 0
M  V30 8666 C 863.917 -4.25492 -0.570511 0
M  V30 8667 C 863.15 -5.10601 -1.55315 0
M  V30 8668 O 863.373 -4.97733 -2.78599 0
M  V30 8669 O 862.307 -5.91927 -1.09112 0
M  V30 8670 H 866.133 -3.00119 0.464988 0
M  V30 8671 H 863.718 -1.46489 0.293462 0
M  V30 8672 H 865.6 -3.78103 -1.86055 0
M  V30 8673 H 864.275 -2.58807 -1.94424 0
M  V30 8674 H 863.182 -3.74041 0.0662587 0
M  V30 8675 H 864.515 -4.92154 0.0674904 0
M  V30 8676 N 866.167 -0.267825 -1.55308 0
M  V30 8677 C 867.395 0.354587 -2.03839 0
M  V30 8678 C 867.81 1.50007 -1.14644 0
M  V30 8679 O 867.167 1.81752 -0.165055 0
M  V30 8680 C 867.218 0.84254 -3.51544 0
M  V30 8681 O 866.939 -0.257318 -4.37344 0
M  V30 8682 C 868.44 1.53351 -4.15931 0
M  V30 8683 H 865.66 0.0818131 -0.665994 0
M  V30 8684 H 868.204 -0.397795 -2.00594 0
M  V30 8685 H 866.359 1.54503 -3.55257 0
M  V30 8686 H 866.773 0.116593 -5.2437 0
M  V30 8687 H 868.247 1.82643 -5.20908 0
M  V30 8688 H 868.724 2.4626 -3.63666 0
M  V30 8689 H 869.33 0.87506 -4.162 0
M  V30 8690 N 867.645 1.57599 0.00500368 0
M  V30 8691 C 869.061 1.55463 0.361015 0
M  V30 8692 C 869.261 0.997051 1.75103 0
M  V30 8693 O 868.317 0.628661 2.44549 0
M  V30 8694 C 869.63 2.99734 0.240828 0
M  V30 8695 C 871.178 3.11399 0.316138 0
M  V30 8696 C 871.653 4.57446 0.22513 0
M  V30 8697 N 873.144 4.62334 0.283186 0
M  V30 8698 C 873.879 5.72914 0.23603 0
M  V30 8699 N 873.375 6.92659 0.139762 0
M  V30 8700 N 875.168 5.61364 0.287529 0
M  V30 8701 H 867.319 1.92185 -0.904359 0
M  V30 8702 H 869.582 0.882529 -0.34619 0
M  V30 8703 H 869.288 3.44348 -0.715343 0
M  V30 8704 H 869.162 3.63009 1.02491 0
M  V30 8705 H 871.549 2.66718 1.26275 0
M  V30 8706 H 871.63 2.50911 -0.497725 0
M  V30 8707 H 871.274 5.02801 -0.717917 0
M  V30 8708 H 871.204 5.15874 1.05742 0
M  V30 8709 H 873.695 3.7619 0.359123 0
M  V30 8710 H 874.008 7.72722 0.10954 0
M  V30 8711 H 872.353 6.9492 0.105462 0
M  V30 8712 H 875.544 4.66707 0.360897 0
M  V30 8713 H 875.717 6.47528 0.247313 0
M  V30 8714 N 869.123 -0.277682 1.55134 0
M  V30 8715 C 870.348 -1.03254 1.7987 0
M  V30 8716 C 870.773 -1.79324 0.567861 0
M  V30 8717 O 870.131 -1.74764 -0.4824 0
M  V30 8718 C 870.179 -1.9705 3.02 0
M  V30 8719 O 869.283 -3.05744 2.76757 0
M  V30 8720 H 868.624 -0.295447 0.594649 0
M  V30 8721 H 871.154 -0.308013 2.02268 0
M  V30 8722 H 871.164 -2.3909 3.30606 0
M  V30 8723 H 869.839 -1.41094 3.91236 0
M  V30 8724 H 868.416 -2.68052 2.59235 0
M  V30 8725 N 870.601 -1.47988 -0.541979 0
M  V30 8726 C 871.849 -1.55086 -1.29587 0
M  V30 8727 C 872.17 -0.221304 -1.9374 0
M  V30 8728 O 871.44 0.756128 -1.80719 0
M  V30 8729 H 870.02 -0.571307 -0.481266 0
M  V30 8730 H 872.682 -1.8438 -0.631675 0
M  V30 8731 H 871.778 -2.32556 -2.08144 0
M  V30 8732 N 872.079 0.78992 -1.36375 0
M  V30 8733 C 873.304 1.58389 -1.33895 0
M  V30 8734 C 873.729 1.8794 0.0774934 0
M  V30 8735 O 873.087 1.4785 1.0493 0
M  V30 8736 C 873.135 2.88201 -2.16732 0
M  V30 8737 O 872.239 3.81778 -1.55946 0
M  V30 8738 H 871.58 0.480471 -0.458305 0
M  V30 8739 H 874.11 0.979119 -1.79651 0
M  V30 8740 H 874.12 3.37475 -2.29292 0
M  V30 8741 H 872.795 2.66019 -3.19698 0
M  V30 8742 H 871.372 3.40371 -1.52323 0
M  V30 8743 N 873.557 1.20646 1.01402 0
M  V30 8744 C 874.803 1.02974 1.75408 0
M  V30 8745 C 875.158 -0.433294 1.87458 0
M  V30 8746 O 874.451 -1.31741 1.39122 0
M  V30 8747 C 874.645 1.64991 3.17037 0
M  V30 8748 C 874.474 3.17174 3.18796 0
M  V30 8749 C 873.244 3.86165 3.2589 0
M  V30 8750 C 875.442 4.14369 3.04636 0
M  V30 8751 N 873.424 5.25614 3.1718 0
M  V30 8752 C 874.795 5.4051 3.03724 0
M  V30 8753 C 876.85 4.05534 2.88872 0
M  V30 8754 C 875.553 6.58836 2.88664 0
M  V30 8755 C 877.579 5.23486 2.75166 0
M  V30 8756 C 876.941 6.48535 2.74922 0
M  V30 8757 H 873.04 0.431068 0.65246 0
M  V30 8758 H 875.624 1.52858 1.20593 0
M  V30 8759 H 873.795 1.17688 3.70141 0
M  V30 8760 H 875.527 1.40612 3.79487 0
M  V30 8761 H 872.282 3.37038 3.32719 0
M  V30 8762 H 872.706 5.98625 3.16192 0
M  V30 8763 H 877.348 3.09661 2.87872 0
M  V30 8764 H 875.066 7.5488 2.88413 0
M  V30 8765 H 878.652 5.18464 2.63982 0
M  V30 8766 H 877.532 7.3827 2.64439 0
M  V30 8767 N 875.035 -1.20752 1.01276 0
M  V30 8768 C 876.26 -1.94547 0.718769 0
M  V30 8769 C 876.685 -1.7404 -0.713563 0
M  V30 8770 O 876.043 -1.03221 -1.49047 0
M  V30 8771 C 876.091 -3.44823 1.05497 0
M  V30 8772 O 875.195 -4.12072 0.164516 0
M  V30 8773 H 874.536 -0.607931 0.267051 0
M  V30 8774 H 877.066 -1.53292 1.35509 0
M  V30 8775 H 877.076 -3.95427 1.00507 0
M  V30 8776 H 875.751 -3.59072 2.09858 0
M  V30 8777 H 874.328 -3.71909 0.271615 0
M  V30 8778 N 876.513 -0.788492 -1.36457 0
M  V30 8779 C 877.761 -0.359749 -1.98872 0
M  V30 8780 C 878.082 1.07197 -1.62892 0
M  V30 8781 O 877.352 1.73875 -0.902463 0
M  V30 8782 H 875.932 -0.130029 -0.735596 0
M  V30 8783 H 878.594 -1.01033 -1.66668 0
M  V30 8784 H 877.69 -0.450835 -3.08827 0
M  V30 8785 N 877.991 1.48044 -0.54043 0
M  V30 8786 C 879.237 2.02797 -0.0101718 0
M  V30 8787 C 879.57 1.41565 1.32939 0
M  V30 8788 O 878.845 0.565139 1.86109 0
M  V30 8789 C 879.128 3.59959 0.100758 0
M  V30 8790 C 878.981 4.31654 -1.26471 0
M  V30 8791 C 880.3 4.32347 0.822455 0
M  V30 8792 H 877.419 0.736982 -0.00517052 0
M  V30 8793 H 880.061 1.76656 -0.69948 0
M  V30 8794 H 878.211 3.82363 0.687824 0
M  V30 8795 H 879.883 4.20639 -1.89369 0
M  V30 8796 H 878.126 3.92663 -1.84386 0
M  V30 8797 H 878.797 5.401 -1.13998 0
M  V30 8798 H 881.273 4.14835 0.324164 0
M  V30 8799 H 880.149 5.41978 0.868993 0
M  V30 8800 H 880.41 4.00369 1.87501 0
M  V30 8801 N 879.47 0.276058 1.55163 0
M  V30 8802 C 880.418 -0.626978 2.2399 0
M  V30 8803 C 881.412 -1.15708 1.23725 0
M  V30 8804 O 882.618 -1.1106 1.41653 0
M  V30 8805 H 878.993 -0.220742 0.718872 0
M  V30 8806 H 880.964 -0.0236569 2.98391 0
M  V30 8807 C 879.713 -1.79935 2.97521 0
M  V30 8808 H 879.036 -1.40064 3.74463 0
M  V30 8809 H 880.476 -2.40781 3.48999 0
M  V30 8810 C 878.935 -2.68838 2.03046 0
M  V30 8811 O 879.465 -3.69224 1.58229 0
M  V30 8812 N 877.671 -2.36028 1.69527 0
M  V30 8813 H 877.218 -1.54442 2.06169 0
M  V30 8814 H 877.176 -2.95782 1.06586 0
M  V30 8815 N 880.948 -1.576 0.00335426 0
M  V30 8816 C 882.197 -1.89892 -0.680001 0
M  V30 8817 C 882.51 -0.878731 -1.7475 0
M  V30 8818 O 883.716 -1.09199 -2.48572 0
M  V30 8819 C 882.172 -3.37098 -1.26066 0
M  V30 8820 C 881.78 -4.4742 -0.227807 0
M  V30 8821 C 883.524 -3.78495 -1.92202 0
M  V30 8822 C 881.431 -5.85706 -0.81865 0
M  V30 8823 H 880.361 -0.708578 -0.257746 0
M  V30 8824 H 883.012 -1.83387 0.0644472 0
M  V30 8825 H 881.394 -3.38451 -2.05589 0
M  V30 8826 H 882.568 -4.57589 0.54307 0
M  V30 8827 H 880.883 -4.15064 0.333297 0
M  V30 8828 H 883.48 -4.7915 -2.37318 0
M  V30 8829 H 883.823 -3.12187 -2.75399 0
M  V30 8830 H 884.356 -3.79456 -1.19408 0
M  V30 8831 H 881.095 -6.55495 -0.0253787 0
M  V30 8832 H 880.615 -5.79196 -1.55861 0
M  V30 8833 H 882.294 -6.33469 -1.31627 0
M  V30 8834 N 882.426 0.269451 -1.5528 0
M  V30 8835 C 883.374 1.35303 -1.89198 0
M  V30 8836 C 884.368 1.50956 -0.768671 0
M  V30 8837 O 885.574 1.52699 -0.953054 0
M  V30 8838 H 881.949 0.452591 -0.600554 0
M  V30 8839 H 883.92 1.03949 -2.79709 0
M  V30 8840 C 882.669 2.70585 -2.18356 0
M  V30 8841 H 881.992 2.59332 -3.04281 0
M  V30 8842 H 883.432 3.45335 -2.46007 0
M  V30 8843 C 881.891 3.21954 -0.992327 0
M  V30 8844 O 882.421 4.01048 -0.228769 0
M  V30 8845 N 880.627 2.79682 -0.789062 0
M  V30 8846 H 880.174 2.15475 -1.41167 0
M  V30 8847 H 880.132 3.14399 0.00634776 0
M  V30 8848 N 883.904 1.48273 0.534124 0
M  V30 8849 C 885.152 1.55771 1.28762 0
M  V30 8850 C 885.473 0.231575 1.9362 0
M  V30 8851 O 884.743 -0.746533 1.81118 0
M  V30 8852 H 883.323 0.573851 0.47823 0
M  V30 8853 H 885.985 1.84712 0.621888 0
M  V30 8854 H 885.081 2.33657 2.06908 0
M  V30 8855 N 885.382 -0.782676 1.36792 0
M  V30 8856 C 886.607 -1.57676 1.34733 0
M  V30 8857 C 887.032 -1.87979 -0.0675253 0
M  V30 8858 O 886.39 -1.48404 -1.04144 0
M  V30 8859 C 886.438 -2.87047 2.18257 0
M  V30 8860 O 885.542 -3.80946 1.57969 0
M  V30 8861 H 884.883 -0.478034 0.460846 0
M  V30 8862 H 887.413 -0.969578 1.80168 0
M  V30 8863 H 887.423 -3.36254 2.31079 0
M  V30 8864 H 886.098 -2.64319 3.21104 0
M  V30 8865 H 884.675 -3.39558 1.54126 0
M  V30 8866 N 886.86 -1.21182 -1.00761 0
M  V30 8867 C 887.823 -0.970339 -2.07646 0
M  V30 8868 C 888.823 0.0576345 -1.60697 0
M  V30 8869 O 890.013 -0.179369 -1.73274 0
M  V30 8870 C 887.145 -0.462703 -3.37745 0
M  V30 8871 H 888.338 -1.91856 -2.30502 0
M  V30 8872 H 885.891 -1.02844 -1.17698 0
M  V30 8873 H 886.626 0.490559 -3.20568 0
M  V30 8874 H 886.411 -1.20416 -3.73152 0
M  V30 8875 H 887.901 -0.313531 -4.16421 0
M  V30 8876 N 888.338 1.20213 -1.01915 0
M  V30 8877 C 889.566 1.93622 -0.729255 0
M  V30 8878 C 889.981 1.74923 0.710444 0
M  V30 8879 O 889.338 1.06484 1.48214 0
M  V30 8880 C 889.389 3.45651 -1.05865 0
M  V30 8881 O 889.11 3.63741 -2.44181 0
M  V30 8882 C 890.611 4.36201 -0.790176 0
M  V30 8883 H 887.831 0.615333 -0.267594 0
M  V30 8884 H 890.375 1.52633 -1.36101 0
M  V30 8885 H 888.53 3.84511 -0.47225 0
M  V30 8886 H 888.944 4.57702 -2.56143 0
M  V30 8887 H 890.418 5.41516 -1.07071 0
M  V30 8888 H 890.895 4.38334 0.275609 0
M  V30 8889 H 891.501 4.03008 -1.35885 0
M  V30 8890 N 889.816 0.795718 1.36037 0
M  V30 8891 C 891.062 0.371574 1.99367 0
M  V30 8892 C 891.395 -1.0557 1.62999 0
M  V30 8893 O 890.67 -1.73051 0.887895 0
M  V30 8894 C 890.953 0.542622 3.55988 0
M  V30 8895 C 890.806 2.01404 4.0219 0
M  V30 8896 C 892.125 -0.0384527 4.40083 0
M  V30 8897 H 889.244 0.136483 0.724252 0
M  V30 8898 H 891.886 1.00323 1.61355 0
M  V30 8899 H 890.036 0.0049053 3.885 0
M  V30 8900 H 891.708 2.6133 3.80137 0
M  V30 8901 H 889.951 2.51439 3.53498 0
M  V30 8902 H 890.622 2.08466 5.11122 0
M  V30 8903 H 893.098 0.420634 4.13968 0
M  V30 8904 H 891.974 0.111214 5.48787 0
M  V30 8905 H 892.235 -1.13116 4.27384 0
M  V30 8906 N 891.294 -1.47756 0.548274 0
M  V30 8907 C 892.226 -2.27921 -0.24177 0
M  V30 8908 C 893.239 -1.36471 -0.887658 0
M  V30 8909 O 894.428 -1.6137 -0.763016 0
M  V30 8910 C 891.528 -3.10449 -1.35922 0
M  V30 8911 C 890.701 -4.298 -0.811808 0
M  V30 8912 C 889.76 -4.93994 -1.81264 0
M  V30 8913 O 888.786 -5.52657 -1.3623 0
M  V30 8914 N 889.988 -4.87882 -3.14566 0
M  V30 8915 H 892.753 -2.96365 0.445848 0
M  V30 8916 H 890.314 -1.57286 0.383769 0
M  V30 8917 H 892.306 -3.50261 -2.02729 0
M  V30 8918 H 890.876 -2.44306 -1.95021 0
M  V30 8919 H 890.096 -3.94186 0.0327929 0
M  V30 8920 H 891.384 -5.0702 -0.425272 0
M  V30 8921 H 890.782 -4.41405 -3.53805 0
M  V30 8922 H 889.339 -5.3174 -3.76956 0
M  V30 8923 N 892.772 -0.284283 -1.55015 0
M  V30 8924 C 893.704 0.63258 -2.20298 0
M  V30 8925 C 894.717 1.11045 -1.1905 0
M  V30 8926 O 895.906 1.03078 -1.4573 0
M  V30 8927 C 893.006 1.87599 -2.82241 0
M  V30 8928 C 892.179 1.5434 -4.09265 0
M  V30 8929 C 891.238 2.64023 -4.55169 0
M  V30 8930 O 890.264 2.29821 -5.20741 0
M  V30 8931 N 891.466 3.94255 -4.26079 0
M  V30 8932 H 894.231 0.0737928 -2.99609 0
M  V30 8933 H 891.792 -0.105767 -1.61554 0
M  V30 8934 H 893.784 2.60289 -3.0989 0
M  V30 8935 H 892.354 2.3436 -2.06868 0
M  V30 8936 H 891.574 0.649912 -3.88806 0
M  V30 8937 H 892.862 1.29634 -4.92009 0
M  V30 8938 H 892.26 4.24859 -3.73512 0
M  V30 8939 H 890.817 4.63295 -4.58477 0
M  V30 8940 N 894.251 1.57596 -0.0117121 0
M  V30 8941 C 895.667 1.55837 0.344506 0
M  V30 8942 C 895.867 1.01557 1.74036 0
M  V30 8943 O 894.923 0.654563 2.43868 0
M  V30 8944 C 896.236 2.99973 0.209023 0
M  V30 8945 C 897.784 3.11717 0.283092 0
M  V30 8946 C 898.259 4.57659 0.176599 0
M  V30 8947 N 899.75 4.62608 0.234133 0
M  V30 8948 C 900.485 5.73132 0.175252 0
M  V30 8949 N 899.981 6.92768 0.0662888 0
M  V30 8950 N 901.774 5.61638 0.227972 0
M  V30 8951 H 893.925 1.91215 -0.924692 0
M  V30 8952 H 896.188 0.878807 -0.355531 0
M  V30 8953 H 895.894 3.4357 -0.751826 0
M  V30 8954 H 895.768 3.64075 0.98635 0
M  V30 8955 H 898.155 2.68043 1.23439 0
M  V30 8956 H 898.236 2.50369 -0.52431 0
M  V30 8957 H 897.88 5.02011 -0.771205 0
M  V30 8958 H 897.81 5.16967 1.00264 0
M  V30 8959 H 900.301 3.76549 0.319203 0
M  V30 8960 H 900.614 7.72795 0.0275765 0
M  V30 8961 H 898.959 6.94993 0.0317502 0
M  V30 8962 H 902.15 4.67063 0.311377 0
M  V30 8963 H 902.323 6.47754 0.178621 0
M  V30 8964 N 895.729 -0.261212 1.5542 0
M  V30 8965 C 896.677 -1.34298 1.89913 0
M  V30 8966 C 897.671 -1.50547 0.776665 0
M  V30 8967 O 898.877 -1.52191 0.961139 0
M  V30 8968 H 895.252 -0.4494 0.602946 0
M  V30 8969 H 897.223 -1.02464 2.80256 0
M  V30 8970 C 895.972 -2.69423 2.19788 0
M  V30 8971 H 895.295 -2.57715 3.05652 0
M  V30 8972 H 896.735 -3.44026 2.47835 0
M  V30 8973 C 895.194 -3.21423 1.00939 0
M  V30 8974 O 895.724 -4.00921 0.250034 0
M  V30 8975 N 893.93 -2.7926 0.803883 0
M  V30 8976 H 893.477 -2.14724 1.42308 0
M  V30 8977 H 893.435 -3.14398 0.0103257 0
M  V30 8978 N 897.207 -1.48554 -0.526253 0
M  V30 8979 C 898.454 -1.56761 -1.28188 0
M  V30 8980 C 898.782 -0.24315 -1.92974 0
M  V30 8981 O 898.037 0.766883 -1.80048 0
M  V30 8982 C 898.336 -2.65739 -2.38993 0
M  V30 8983 C 898.002 -4.08057 -1.91834 0
M  V30 8984 C 896.664 -4.46792 -1.78691 0
M  V30 8985 C 899.016 -4.9723 -1.56242 0
M  V30 8986 C 896.344 -5.72501 -1.28296 0
M  V30 8987 C 898.696 -6.23432 -1.07309 0
M  V30 8988 C 897.36 -6.6102 -0.927853 0
M  V30 8989 H 896.63 -0.573631 -0.469072 0
M  V30 8990 H 899.277 -1.82287 -0.586842 0
M  V30 8991 H 897.582 -2.34088 -3.14181 0
M  V30 8992 H 899.279 -2.69304 -2.97113 0
M  V30 8993 H 895.869 -3.77469 -2.03016 0
M  V30 8994 H 900.053 -4.67979 -1.65255 0
M  V30 8995 H 895.309 -6.00345 -1.15742 0
M  V30 8996 H 899.483 -6.91923 -0.788412 0
M  V30 8997 H 897.11 -7.58314 -0.535162 0
M  V30 8998 N 898.685 0.775411 -1.37205 0
M  V30 8999 C 899.648 1.8702 -1.325 0
M  V30 9000 C 900.648 1.5915 -0.229793 0
M  V30 9001 O 901.838 1.673 -0.485423 0
M  V30 9002 C 898.97 3.24085 -1.05745 0
M  V30 9003 H 900.163 1.92604 -2.29878 0
M  V30 9004 H 897.716 0.97476 -1.22181 0
M  V30 9005 H 898.451 3.24178 -0.0888371 0
M  V30 9006 H 898.236 3.45705 -1.85016 0
M  V30 9007 H 899.726 4.0416 -1.05094 0
M  V30 9008 N 900.163 1.21714 1.00117 0
M  V30 9009 C 901.391 1.06278 1.77518 0
M  V30 9010 C 901.806 -0.387193 1.84787 0
M  V30 9011 O 901.163 -1.26854 1.31203 0
M  V30 9012 C 901.214 1.65795 3.21239 0
M  V30 9013 O 900.935 3.05119 3.14378 0
M  V30 9014 C 902.436 1.55521 4.15124 0
M  V30 9015 H 899.656 0.373013 0.557765 0
M  V30 9016 H 902.2 1.61133 1.25922 0
M  V30 9017 H 900.355 1.15022 3.69931 0
M  V30 9018 H 900.769 3.33643 4.04701 0
M  V30 9019 H 902.243 2.01902 5.13751 0
M  V30 9020 H 902.72 0.510307 4.36225 0
M  V30 9021 H 903.326 2.0556 3.72324 0
M  V30 9022 N 901.641 -1.19671 1.02551 0
M  V30 9023 C 902.571 -2.25009 0.623965 0
M  V30 9024 C 903.552 -1.66129 -0.36538 0
M  V30 9025 O 904.737 -1.92599 -0.248842 0
M  V30 9026 C 901.867 -3.47287 -0.0294869 0
M  V30 9027 C 900.821 -4.18818 0.881781 0
M  V30 9028 C 900.147 -5.34618 0.0936189 0
M  V30 9029 C 901.447 -4.73986 2.19396 0
M  V30 9030 H 903.141 -2.58851 1.50454 0
M  V30 9031 H 900.687 -1.24425 0.724872 0
M  V30 9032 H 902.64 -4.20168 -0.322016 0
M  V30 9033 H 901.364 -3.12635 -0.944838 0
M  V30 9034 H 900.023 -3.47815 1.15845 0
M  V30 9035 H 899.671 -4.9621 -0.823661 0
M  V30 9036 H 899.371 -5.83409 0.700568 0
M  V30 9037 H 900.895 -6.10297 -0.192249 0
M  V30 9038 H 902.309 -5.38639 1.96319 0
M  V30 9039 H 900.706 -5.3325 2.75254 0
M  V30 9040 H 901.776 -3.92238 2.85092 0
M  V30 9041 N 903.119 -0.802921 -1.35613 0
M  V30 9042 C 904.349 -0.393359 -2.02821 0
M  V30 9043 C 904.757 0.999282 -1.60658 0
M  V30 9044 O 904.1 1.65463 -0.797977 0
M  V30 9045 C 904.162 -0.393102 -3.57344 0
M  V30 9046 C 903.826 -1.73563 -4.22759 0
M  V30 9047 C 904.823 -2.69333 -4.44698 0
M  V30 9048 C 902.508 -2.01863 -4.59953 0
M  V30 9049 C 904.502 -3.91589 -5.02928 0
M  V30 9050 C 902.189 -3.24383 -5.17898 0
M  V30 9051 C 903.187 -4.19064 -5.39328 0
M  V30 9052 O 902.875 -5.39422 -5.96053 0
M  V30 9053 H 902.607 -0.158431 -0.657172 0
M  V30 9054 H 905.161 -1.08682 -1.74291 0
M  V30 9055 H 903.391 0.356934 -3.85049 0
M  V30 9056 H 905.08 -0.00635596 -4.059 0
M  V30 9057 H 905.846 -2.48759 -4.16346 0
M  V30 9058 H 901.725 -1.28979 -4.42589 0
M  V30 9059 H 905.269 -4.65502 -5.1957 0
M  V30 9060 H 901.166 -3.44829 -5.45677 0
M  V30 9061 H 901.934 -5.40669 -6.14507 0
M  V30 9062 N 904.597 1.47463 -0.556102 0
M  V30 9063 C 905.843 2.02775 -0.0316806 0
M  V30 9064 C 906.176 1.42967 1.3143 0
M  V30 9065 O 905.451 0.584847 1.85499 0
M  V30 9066 C 905.734 3.60046 0.0625742 0
M  V30 9067 C 905.587 4.30288 -1.31043 0
M  V30 9068 C 906.906 4.33195 0.776553 0
M  V30 9069 H 904.025 0.736886 -0.0129869 0
M  V30 9070 H 906.667 1.75904 -0.718177 0
M  V30 9071 H 904.817 3.83071 0.647231 0
M  V30 9072 H 906.489 4.18607 -1.9382 0
M  V30 9073 H 904.732 3.90685 -1.8854 0
M  V30 9074 H 905.403 5.38861 -1.1972 0
M  V30 9075 H 907.879 4.15156 0.280147 0
M  V30 9076 H 906.755 5.42869 0.81146 0
M  V30 9077 H 907.016 4.02336 1.83244 0
M  V30 9078 N 906.075 0.2925 1.54862 0
M  V30 9079 C 907.023 -0.603186 2.24643 0
M  V30 9080 C 908.017 -1.1439 1.24946 0
M  V30 9081 O 909.223 -1.09552 1.42823 0
M  V30 9082 H 905.598 -0.213105 0.721173 0
M  V30 9083 H 907.569 0.00799278 2.98399 0
M  V30 9084 C 906.318 -1.76769 2.99413 0
M  V30 9085 H 905.641 -1.36084 3.75927 0
M  V30 9086 H 907.081 -2.37066 3.51533 0
M  V30 9087 C 905.54 -2.66669 2.05886 0
M  V30 9088 O 906.07 -3.67525 1.62136 0
M  V30 9089 N 904.276 -2.34216 1.7202 0
M  V30 9090 H 903.823 -1.52246 2.07795 0
M  V30 9091 H 903.781 -2.94635 1.09717 0
M  V30 9092 N 907.553 -1.57587 0.0200696 0
M  V30 9093 C 908.503 -2.0616 -0.973751 0
M  V30 9094 C 909.487 -0.960282 -1.29102 0
M  V30 9095 O 910.679 -1.22391 -1.27865 0
M  V30 9096 C 907.808 -2.58487 -2.25919 0
M  V30 9097 C 906.894 -3.75533 -1.97068 0
M  V30 9098 N 907.285 -4.86482 -1.38451 0
M  V30 9099 C 905.583 -3.83847 -2.27107 0
M  V30 9100 C 906.284 -5.67773 -1.26527 0
M  V30 9101 N 905.26 -5.14398 -1.75772 0
M  V30 9102 H 909.062 -2.89346 -0.515365 0
M  V30 9103 H 906.576 -1.61341 -0.185163 0
M  V30 9104 H 908.573 -2.91572 -2.97979 0
M  V30 9105 H 907.233 -1.76728 -2.72392 0
M  V30 9106 H 908.244 -5.06922 -1.06069 0
M  V30 9107 H 904.921 -3.12978 -2.76316 0
M  V30 9108 H 906.311 -6.66966 -0.812785 0
M  V30 9109 N 909.032 0.252966 -1.55557 0
M  V30 9110 C 910.28 0.979912 -1.76754 0
M  V30 9111 C 910.601 1.86083 -0.582944 0
M  V30 9112 O 909.871 1.91742 0.401497 0
M  V30 9113 H 908.451 0.364805 -0.651864 0
M  V30 9114 H 911.113 0.272372 -1.92987 0
M  V30 9115 H 910.209 1.60518 -2.67657 0
M  V30 9116 N 910.51 1.48831 0.518367 0
M  V30 9117 C 911.756 1.57672 1.27543 0
M  V30 9118 C 912.089 0.254915 1.9252 0
M  V30 9119 O 911.364 -0.740107 1.79868 0
M  V30 9120 C 911.647 2.72345 2.35585 0
M  V30 9121 C 911.5 4.14267 1.75224 0
M  V30 9122 C 912.819 2.82726 3.37274 0
M  V30 9123 H 909.938 0.573926 0.462361 0
M  V30 9124 H 912.58 1.8105 0.576267 0
M  V30 9125 H 910.73 2.52543 2.95219 0
M  V30 9126 H 912.402 4.45539 1.19551 0
M  V30 9127 H 910.645 4.20724 1.05706 0
M  V30 9128 H 911.316 4.90345 2.53507 0
M  V30 9129 H 913.792 3.00699 2.8761 0
M  V30 9130 H 912.668 3.6467 4.10252 0
M  V30 9131 H 912.929 1.9136 3.9854 0
M  V30 9132 N 911.988 -0.768124 1.37614 0
M  V30 9133 C 913.236 -1.52379 1.3276 0
M  V30 9134 C 913.557 -1.94809 -0.0863564 0
M  V30 9135 O 912.827 -1.66568 -1.03112 0
M  V30 9136 H 911.407 -0.565179 0.488448 0
M  V30 9137 H 914.069 -0.913974 1.72141 0
M  V30 9138 H 913.165 -2.4215 1.96901 0
M  V30 9139 N 913.466 -1.22244 -0.994698 0
M  V30 9140 C 914.877 -1.043 -1.5485 0
M  V30 9141 C 915.228 0.394102 -1.92201 0
M  V30 9142 O 914.353 1.27883 -1.74571 0
M  V30 9143 C 914.948 -1.88708 -2.8138 0
M  V30 9144 C 913.507 -1.75067 -3.3321 0
M  V30 9145 C 912.654 -1.85286 -2.06312 0
M  V30 9146 H 915.605 -1.36115 -0.815988 0
M  V30 9147 H 915.626 -1.40342 -3.53673 0
M  V30 9148 H 915.138 -2.93296 -2.54164 0
M  V30 9149 H 913.239 -0.732047 -3.65338 0
M  V30 9150 H 913.352 -2.57632 -4.03934 0
M  V30 9151 H 911.716 -1.28706 -2.19788 0
M  V30 9152 H 912.499 -2.91401 -1.81494 0
M  V30 9153 N 914.944 1.19125 -1.03184 0
M  V30 9154 C 916.19 1.89163 -0.731111 0
M  V30 9155 C 916.523 1.79604 0.738662 0
M  V30 9156 O 915.798 1.19037 1.53819 0
M  V30 9157 C 916.081 3.39986 -1.18666 0
M  V30 9158 C 915.934 3.58401 -2.71788 0
M  V30 9159 C 917.253 4.33316 -0.769772 0
M  V30 9160 H 914.372 0.686908 -0.267069 0
M  V30 9161 H 917.014 1.40205 -1.28229 0
M  V30 9162 H 915.164 3.81813 -0.717736 0
M  V30 9163 H 916.836 3.25727 -3.26649 0
M  V30 9164 H 915.079 3.01355 -3.12038 0
M  V30 9165 H 915.75 4.64189 -2.98719 0
M  V30 9166 H 918.226 3.9922 -1.17314 0
M  V30 9167 H 917.102 5.37427 -1.11637 0
M  V30 9168 H 917.363 4.40884 0.327681 0
M  V30 9169 N 916.422 0.810101 1.35185 0
M  V30 9170 C 917.385 0.22852 2.28058 0
M  V30 9171 C 918.385 -0.586168 1.49735 0
M  V30 9172 O 919.575 -0.40414 1.69447 0
M  V30 9173 C 916.707 -0.681041 3.34028 0
M  V30 9174 H 917.9 1.04768 2.81005 0
M  V30 9175 H 915.453 0.58101 1.451 0
M  V30 9176 H 916.188 -1.52375 2.86273 0
M  V30 9177 H 915.973 -0.0985276 3.91976 0
M  V30 9178 H 917.463 -1.08217 4.03335 0
M  V30 9179 N 917.9 -1.47166 0.563914 0
M  V30 9180 C 919.148 -2.02056 0.0422873 0
M  V30 9181 C 919.469 -1.43992 -1.31497 0
M  V30 9182 O 918.739 -0.617578 -1.85911 0
M  V30 9183 H 917.319 -0.746893 0.0126427 0
M  V30 9184 H 919.981 -1.80492 0.735441 0
M  V30 9185 H 919.077 -3.12073 -0.0408044 0
M  V30 9186 N 919.378 -0.300708 -1.54705 0
M  V30 9187 C 920.603 0.314073 -2.05008 0
M  V30 9188 C 921.028 1.46759 -1.17657 0
M  V30 9189 O 920.386 1.80398 -0.180598 0
M  V30 9190 C 920.434 0.748243 -3.52752 0
M  V30 9191 O 919.538 1.85305 -3.68424 0
M  V30 9192 H 918.879 0.0610139 -0.661191 0
M  V30 9193 H 921.409 -0.442467 -1.99758 0
M  V30 9194 H 921.419 1.03713 -3.94598 0
M  V30 9195 H 920.094 -0.095573 -4.1579 0
M  V30 9196 H 918.671 1.56473 -3.38483 0
M  V30 9197 N 920.856 1.57574 -0.0284266 0
M  V30 9198 C 922.086 1.95787 0.659617 0
M  V30 9199 C 922.494 0.903475 1.66235 0
M  V30 9200 O 921.837 -0.12329 1.83286 0
M  V30 9201 C 921.899 3.30139 1.42298 0
M  V30 9202 C 921.563 4.53322 0.578658 0
M  V30 9203 C 922.56 5.19696 -0.145751 0
M  V30 9204 C 920.245 4.9964 0.516264 0
M  V30 9205 C 922.239 6.30708 -0.921235 0
M  V30 9206 C 919.926 6.10534 -0.262925 0
M  V30 9207 C 920.924 6.75927 -0.980382 0
M  V30 9208 O 920.612 7.84692 -1.7468 0
M  V30 9209 H 920.344 0.649681 0.186792 0
M  V30 9210 H 922.898 2.05227 -0.0842687 0
M  V30 9211 H 921.128 3.17188 2.21199 0
M  V30 9212 H 922.817 3.53259 1.99906 0
M  V30 9213 H 923.583 4.84882 -0.106876 0
M  V30 9214 H 919.462 4.48547 1.06427 0
M  V30 9215 H 923.006 6.81682 -1.48176 0
M  V30 9216 H 918.903 6.44786 -0.303519 0
M  V30 9217 H 919.671 8.01355 -1.6665 0
M  V30 9218 N 922.334 -0.244713 1.55689 0
M  V30 9219 C 923.297 -1.2864 1.89695 0
M  V30 9220 C 924.297 -1.40969 0.773583 0
M  V30 9221 O 925.487 -1.39632 1.04156 0
M  V30 9222 C 922.619 -2.66379 2.12732 0
M  V30 9223 H 923.812 -0.997033 2.82841 0
M  V30 9224 H 921.365 -0.484103 1.48614 0
M  V30 9225 H 922.1 -3.00452 1.22062 0
M  V30 9226 H 921.885 -2.58812 2.94549 0
M  V30 9227 H 923.375 -3.41592 2.40218 0
M  V30 9228 N 923.813 -1.49104 -0.510467 0
M  V30 9229 C 925.043 -1.61571 -1.28757 0
M  V30 9230 C 925.451 -0.282638 -1.87077 0
M  V30 9231 O 924.794 0.740749 -1.68103 0
M  V30 9232 C 924.856 -2.61851 -2.46322 0
M  V30 9233 C 924.52 -4.06438 -2.08942 0
M  V30 9234 C 925.517 -4.93532 -1.63469 0
M  V30 9235 C 923.202 -4.52109 -2.18867 0
M  V30 9236 C 925.196 -6.24331 -1.28411 0
M  V30 9237 C 922.883 -5.82924 -1.83421 0
M  V30 9238 C 923.881 -6.68858 -1.38267 0
M  V30 9239 O 923.569 -7.97236 -1.03296 0
M  V30 9240 H 923.301 -0.547082 -0.397086 0
M  V30 9241 H 925.855 -1.95806 -0.620424 0
M  V30 9242 H 924.085 -2.22777 -3.16081 0
M  V30 9243 H 925.774 -2.63947 -3.08362 0
M  V30 9244 H 926.54 -4.59479 -1.55255 0
M  V30 9245 H 922.419 -3.85395 -2.52966 0
M  V30 9246 H 925.963 -6.9136 -0.930946 0
M  V30 9247 H 921.86 -6.16507 -1.91282 0
M  V30 9248 H 922.628 -8.10163 -1.16525 0
M  V30 9249 N 925.291 0.760815 -1.38019 0
M  V30 9250 C 926.224 1.88212 -1.2904 0
M  V30 9251 C 927.202 1.61721 -0.168805 0
M  V30 9252 O 928.386 1.85318 -0.344893 0
M  V30 9253 C 925.513 3.23672 -0.997702 0
M  V30 9254 C 924.559 3.6906 -2.13769 0
M  V30 9255 S 925.392 3.81445 -3.75845 0
M  V30 9256 C 926.548 5.19736 -3.48748 0
M  V30 9257 H 926.781 1.95541 -2.23944 0
M  V30 9258 H 924.314 0.923051 -1.2377 0
M  V30 9259 H 926.272 4.01904 -0.835657 0
M  V30 9260 H 924.933 3.14031 -0.065967 0
M  V30 9261 H 924.126 4.67295 -1.88816 0
M  V30 9262 H 923.728 2.97961 -2.26043 0
M  V30 9263 H 926.02 6.05259 -3.04414 0
M  V30 9264 H 926.963 5.49706 -4.46351 0
M  V30 9265 H 927.371 4.88191 -2.83425 0
M  V30 9266 N 926.769 1.22769 0.988202 0
M  V30 9267 C 928.015 1.05665 1.73097 0
M  V30 9268 C 928.348 -0.406615 1.89895 0
M  V30 9269 O 927.623 -1.30132 1.44554 0
M  V30 9270 C 927.906 1.77381 3.13382 0
M  V30 9271 C 927.759 3.31332 3.04203 0
M  V30 9272 C 929.078 1.52999 4.12649 0
M  V30 9273 H 926.197 0.385258 0.628288 0
M  V30 9274 H 928.839 1.51171 1.15097 0
M  V30 9275 H 926.989 1.38696 3.62899 0
M  V30 9276 H 928.661 3.79489 2.6227 0
M  V30 9277 H 926.904 3.60767 2.40894 0
M  V30 9278 H 927.575 3.76692 4.03493 0
M  V30 9279 H 930.051 1.86611 3.71908 0
M  V30 9280 H 928.927 2.05666 5.08913 0
M  V30 9281 H 929.188 0.463615 4.39662 0
M  V30 9282 N 928.247 -1.18576 1.03814 0
M  V30 9283 C 929.21 -2.2033 0.63146 0
M  V30 9284 C 930.21 -1.57787 -0.309816 0
M  V30 9285 O 931.4 -1.73938 -0.0955598 0
M  V30 9286 C 928.532 -3.40818 -0.0745963 0
M  V30 9287 H 929.725 -2.57824 1.53189 0
M  V30 9288 H 927.278 -1.32416 0.830398 0
M  V30 9289 H 928.013 -3.08853 -0.988947 0
M  V30 9290 H 927.798 -3.87453 0.6019 0
M  V30 9291 H 929.288 -4.16166 -0.345727 0
M  V30 9292 N 929.725 -0.817259 -1.34754 0
M  V30 9293 C 931.136 -0.462215 -1.80888 0
M  V30 9294 C 931.487 1.01685 -1.67794 0
M  V30 9295 O 930.612 1.79094 -1.21468 0
M  V30 9296 C 931.207 -0.832204 -3.2842 0
M  V30 9297 C 929.766 -0.52961 -3.72655 0
M  V30 9298 C 928.913 -1.05214 -2.56564 0
M  V30 9299 H 931.864 -1.00795 -1.22581 0
M  V30 9300 H 931.885 -0.133804 -3.80265 0
M  V30 9301 H 931.397 -1.90873 -3.37919 0
M  V30 9302 H 929.498 0.537743 -3.68699 0
M  V30 9303 H 929.611 -1.06971 -4.67005 0
M  V30 9304 H 927.975 -0.473949 -2.50251 0
M  V30 9305 H 928.758 -2.135 -2.68836 0
M  V30 9306 N 931.203 1.46865 -0.571711 0
M  V30 9307 C 932.451 2.0203 -0.0530022 0
M  V30 9308 C 932.772 1.44687 1.30731 0
M  V30 9309 O 932.042 0.627429 1.85581 0
M  V30 9310 H 930.622 0.746815 -0.0166035 0
M  V30 9311 H 933.284 1.80099 -0.745003 0
M  V30 9312 H 932.38 3.12091 0.0242538 0
M  V30 9313 N 932.681 0.308908 1.54543 0
M  V30 9314 C 933.644 -0.550857 2.22482 0
M  V30 9315 C 934.644 -1.0551 1.21344 0
M  V30 9316 O 935.834 -0.949866 1.46025 0
M  V30 9317 C 932.966 -1.76354 2.9174 0
M  V30 9318 H 934.159 0.0428395 2.99869 0
M  V30 9319 H 931.712 0.059825 1.56185 0
M  V30 9320 H 932.447 -2.39686 2.18451 0
M  V30 9321 H 932.232 -1.40954 3.65889 0
M  V30 9322 H 933.722 -2.37417 3.43545 0
M  V30 9323 N 934.159 -1.57557 0.0367827 0
M  V30 9324 C 935.384 -1.96828 -0.653707 0
M  V30 9325 C 935.809 -0.913559 -1.64425 0
M  V30 9326 O 935.167 0.124749 -1.8087 0
M  V30 9327 C 935.215 -3.35189 -1.32969 0
M  V30 9328 O 934.319 -3.32095 -2.44513 0
M  V30 9329 H 933.66 -0.64157 -0.171124 0
M  V30 9330 H 936.19 -2.04351 0.100912 0
M  V30 9331 H 936.2 -3.71593 -1.68472 0
M  V30 9332 H 934.875 -4.11496 -0.603654 0
M  V30 9333 H 933.452 -3.07418 -2.11065 0
M  V30 9334 N 935.637 0.236453 -1.55816 0
M  V30 9335 C 936.883 0.964439 -1.784 0
M  V30 9336 C 937.216 1.84573 -0.603868 0
M  V30 9337 O 936.491 1.90395 0.397473 0
M  V30 9338 C 936.774 1.81608 -3.10951 0
M  V30 9339 C 936.627 0.962283 -4.39386 0
M  V30 9340 C 937.946 2.79665 -3.39817 0
M  V30 9341 H 935.065 0.349192 -0.649026 0
M  V30 9342 H 937.707 0.234247 -1.8855 0
M  V30 9343 H 935.857 2.43864 -3.02428 0
M  V30 9344 H 937.529 0.35762 -4.59912 0
M  V30 9345 H 935.772 0.267062 -4.32977 0
M  V30 9346 H 936.443 1.59222 -5.28538 0
M  V30 9347 H 938.919 2.27546 -3.4837 0
M  V30 9348 H 937.795 3.36367 -4.33761 0
M  V30 9349 H 938.056 3.56657 -2.61244 0
M  V30 9350 N 937.115 1.49373 0.502552 0
M  V30 9351 C 938.392 1.49282 1.26389 0
M  V30 9352 C 938.772 0.219674 2.09954 0
M  V30 9353 O 938.12 -0.797991 2.14113 0
M  V30 9354 C 938.33 2.77083 2.12194 0
M  V30 9355 C 939.678 3.26511 2.71433 0
M  V30 9356 O 940.702 2.78189 2.22462 0
M  V30 9357 O 939.561 4.10665 3.60578 0
M  V30 9358 H 936.655 0.597415 0.57186 0
M  V30 9359 H 939.201 1.61634 0.516951 0
M  V30 9360 H 937.973 3.61237 1.50411 0
M  V30 9361 H 937.596 2.67583 2.94084 0
M  V30 9362 N 938.594 -0.753485 1.38421 0
M  V30 9363 C 939.524 -1.8808 1.38377 0
M  V30 9364 C 940.505 -1.68258 0.249664 0
M  V30 9365 O 941.69 -1.88848 0.45276 0
M  V30 9366 C 938.82 -3.25608 1.20818 0
M  V30 9367 C 937.774 -3.60032 2.31433 0
M  V30 9368 C 937.1 -4.96297 1.9898 0
M  V30 9369 C 938.4 -3.64898 3.73694 0
M  V30 9370 H 940.094 -1.88375 2.32713 0
M  V30 9371 H 937.64 -0.90489 1.12017 0
M  V30 9372 H 939.593 -4.04127 1.19412 0
M  V30 9373 H 938.317 -3.25793 0.229433 0
M  V30 9374 H 936.976 -2.83831 2.32025 0
M  V30 9375 H 936.624 -4.93043 0.995889 0
M  V30 9376 H 936.324 -5.20298 2.73063 0
M  V30 9377 H 937.848 -5.77196 1.99193 0
M  V30 9378 H 939.262 -4.33531 3.75132 0
M  V30 9379 H 937.659 -4.00407 4.46983 0
M  V30 9380 H 938.729 -2.65124 4.06002 0
M  V30 9381 N 940.072 -1.23292 -0.981677 0
M  V30 9382 C 941.3 -1.09088 -1.75805 0
M  V30 9383 C 941.715 0.357746 -1.8538 0
M  V30 9384 O 941.072 1.24751 -1.33205 0
M  V30 9385 C 941.123 -1.70885 -3.1856 0
M  V30 9386 O 940.844 -3.10082 -3.09484 0
M  V30 9387 C 942.345 -1.62106 -4.12597 0
M  V30 9388 H 939.565 -0.38184 -0.55176 0
M  V30 9389 H 942.109 -1.63116 -1.23342 0
M  V30 9390 H 940.264 -1.20893 -3.68054 0
M  V30 9391 H 940.678 -3.40039 -3.99342 0
M  V30 9392 H 942.152 -2.10049 -5.10474 0
M  V30 9393 H 942.629 -0.579642 -4.35358 0
M  V30 9394 H 943.235 -2.11457 -3.69007 0
M  V30 9395 N 941.55 1.18024 -1.04442 0
M  V30 9396 C 942.966 1.40107 -0.76435 0
M  V30 9397 C 943.166 1.90914 0.644516 0
M  V30 9398 O 942.222 2.0959 1.40813 0
M  V30 9399 C 943.535 2.39851 -1.81361 0
M  V30 9400 C 945.083 2.53571 -1.83496 0
M  V30 9401 C 945.558 3.56583 -2.87424 0
M  V30 9402 N 947.049 3.64094 -2.86339 0
M  V30 9403 C 947.784 4.43537 -3.63405 0
M  V30 9404 N 947.28 5.26557 -4.50233 0
M  V30 9405 N 949.073 4.38336 -3.51877 0
M  V30 9406 H 941.224 0.833726 -1.95353 0
M  V30 9407 H 943.487 0.42881 -0.845474 0
M  V30 9408 H 943.193 2.09576 -2.82438 0
M  V30 9409 H 943.067 3.39251 -1.6489 0
M  V30 9410 H 945.454 2.83161 -0.830883 0
M  V30 9411 H 945.535 1.54272 -2.04044 0
M  V30 9412 H 945.179 3.27733 -3.88012 0
M  V30 9413 H 945.109 4.55569 -2.6413 0
M  V30 9414 H 947.6 3.04814 -2.23376 0
M  V30 9415 H 947.913 5.84336 -5.05738 0
M  V30 9416 H 946.258 5.25964 -4.54298 0
M  V30 9417 H 949.449 3.72528 -2.83444 0
M  V30 9418 H 949.622 5.00007 -4.12186 0
M  V30 9419 N 943.028 0.824394 1.34319 0
M  V30 9420 C 943.975 0.245282 2.29493 0
M  V30 9421 C 944.945 -0.630762 1.53657 0
M  V30 9422 O 946.13 -0.572094 1.82021 0
M  V30 9423 C 943.27 -0.585631 3.40095 0
M  V30 9424 C 942.383 0.312821 4.30866 0
M  V30 9425 C 941.518 -0.527801 5.28571 0
M  V30 9426 C 940.557 0.369946 6.10981 0
M  V30 9427 N 939.694 -0.43169 7.00772 0
M  V30 9428 H 944.534 1.06225 2.78425 0
M  V30 9429 H 942.071 0.53533 1.37013 0
M  V30 9430 H 944.029 -1.08271 4.02906 0
M  V30 9431 H 942.659 -1.3677 2.92393 0
M  V30 9432 H 941.711 0.928129 3.68904 0
M  V30 9433 H 943.023 1.00306 4.8861 0
M  V30 9434 H 942.177 -1.0893 5.96841 0
M  V30 9435 H 940.916 -1.25154 4.71368 0
M  V30 9436 H 939.921 0.943577 5.41643 0
M  V30 9437 H 941.146 1.09182 6.70266 0
M  V30 9438 H 939.092 -1.13908 6.46035 0
M  V30 9439 H 939.009 0.200133 7.55735 0
M  V30 9440 H 940.277 -0.975894 7.73367 0
M  V30 9441 N 944.506 -1.46559 0.579492 0
M  V30 9442 C 945.436 -2.33059 -0.143437 0
M  V30 9443 C 946.417 -1.4515 -0.886868 0
M  V30 9444 O 947.602 -1.73973 -0.862961 0
M  V30 9445 C 944.732 -3.27364 -1.15973 0
M  V30 9446 C 943.686 -4.24689 -0.531348 0
M  V30 9447 C 943.012 -5.08479 -1.65388 0
M  V30 9448 C 944.312 -5.1961 0.529391 0
M  V30 9449 H 946.006 -2.93753 0.578762 0
M  V30 9450 H 943.552 -1.41256 0.279775 0
M  V30 9451 H 945.505 -3.86732 -1.67382 0
M  V30 9452 H 944.229 -2.64771 -1.91217 0
M  V30 9453 H 942.888 -3.6658 -0.0383749 0
M  V30 9454 H 942.536 -4.42273 -2.3959 0
M  V30 9455 H 942.236 -5.74387 -1.23909 0
M  V30 9456 H 943.76 -5.70709 -2.17079 0
M  V30 9457 H 945.174 -5.73212 0.100506 0
M  V30 9458 H 943.571 -5.93843 0.86432 0
M  V30 9459 H 944.641 -4.63737 1.4169 0
M  V30 9460 N 945.984 -0.3171 -1.54377 0
M  V30 9461 C 946.914 0.544623 -2.2706 0
M  V30 9462 C 947.895 1.12469 -1.27611 0
M  V30 9463 O 949.08 1.15103 -1.56413 0
M  V30 9464 C 946.21 1.70879 -3.02353 0
M  V30 9465 C 945.164 1.25833 -4.09084 0
M  V30 9466 C 944.49 2.50894 -4.72182 0
M  V30 9467 C 945.79 0.377876 -5.20931 0
M  V30 9468 H 947.484 -0.0616372 -2.99337 0
M  V30 9469 H 945.03 -0.0310848 -1.43966 0
M  V30 9470 H 946.983 2.31787 -3.51927 0
M  V30 9471 H 945.707 2.34155 -2.27682 0
M  V30 9472 H 944.366 0.672228 -3.60384 0
M  V30 9473 H 944.014 3.12518 -3.94134 0
M  V30 9474 H 943.714 2.21447 -5.44275 0
M  V30 9475 H 945.238 3.12575 -5.24528 0
M  V30 9476 H 946.652 0.893056 -5.66302 0
M  V30 9477 H 945.049 0.176474 -5.9984 0
M  V30 9478 H 946.119 -0.592943 -4.81261 0
M  V30 9479 N 947.462 1.57535 -0.0451378 0
M  V30 9480 C 948.372 2.14653 0.946646 0
M  V30 9481 C 949.388 1.10279 1.3459 0
M  V30 9482 O 950.564 1.42417 1.42405 0
M  V30 9483 C 947.629 2.67533 2.20515 0
M  V30 9484 C 946.69 3.86682 1.86481 0
M  V30 9485 C 945.923 4.37031 3.06332 0
M  V30 9486 O 946.146 3.86481 4.1951 0
M  V30 9487 O 945.08 5.28691 2.87697 0
M  V30 9488 H 948.906 2.99706 0.49091 0
M  V30 9489 H 946.491 1.48355 0.17641 0
M  V30 9490 H 948.373 3.01542 2.94365 0
M  V30 9491 H 947.048 1.85554 2.65238 0
M  V30 9492 H 945.955 3.57573 1.09966 0
M  V30 9493 H 947.288 4.69873 1.46562 0
M  V30 9494 N 948.94 -0.228186 1.55939 0
M  V30 9495 C 950.188 -0.951668 1.78291 0
M  V30 9496 C 950.509 -1.85132 0.612474 0
M  V30 9497 O 949.779 -1.92356 -0.370942 0
M  V30 9498 H 948.359 -0.354388 0.657585 0
M  V30 9499 H 951.021 -0.241635 1.93396 0
M  V30 9500 H 950.117 -1.56239 2.70177 0
M  V30 9501 N 950.418 -1.49637 -0.494624 0
M  V30 9502 C 951.366 -1.6727 -1.61627 0
M  V30 9503 C 952.36 -0.538587 -1.6061 0
M  V30 9504 O 953.566 -0.718411 -1.65042 0
M  V30 9505 H 949.941 -0.527557 -0.535899 0
M  V30 9506 H 951.912 -2.61405 -1.43909 0
M  V30 9507 C 950.661 -1.7624 -2.99725 0
M  V30 9508 H 949.984 -2.62886 -3.01216 0
M  V30 9509 H 951.424 -1.92611 -3.77726 0
M  V30 9510 C 949.883 -0.508632 -3.33038 0
M  V30 9511 O 950.413 0.362828 -4.00058 0
M  V30 9512 N 948.619 -0.369667 -2.88239 0
M  V30 9513 H 948.166 -1.07984 -2.33875 0
M  V30 9514 H 948.124 0.468112 -3.10896 0
M  V30 9515 N 951.896 0.746133 -1.38819 0
M  V30 9516 C 952.843 1.86001 -1.36647 0
M  V30 9517 C 953.813 1.6453 -0.227849 0
M  V30 9518 O 954.998 1.86092 -0.421241 0
M  V30 9519 C 952.138 3.23388 -1.20474 0
M  V30 9520 C 951.251 3.5664 -2.43786 0
M  V30 9521 C 950.386 4.8337 -2.20287 0
M  V30 9522 C 949.425 5.09431 -3.39332 0
M  V30 9523 N 948.562 6.2736 -3.1522 0
M  V30 9524 H 953.402 1.87192 -2.31869 0
M  V30 9525 H 950.939 0.914838 -1.15192 0
M  V30 9526 H 952.897 4.02679 -1.09112 0
M  V30 9527 H 951.527 3.21505 -0.288874 0
M  V30 9528 H 950.579 2.72135 -2.65794 0
M  V30 9529 H 951.891 3.71823 -3.3249 0
M  V30 9530 H 951.045 5.70619 -2.06103 0
M  V30 9531 H 949.784 4.70341 -1.28961 0
M  V30 9532 H 948.789 4.20648 -3.54027 0
M  V30 9533 H 950.014 5.24354 -4.31544 0
M  V30 9534 H 947.96 6.15639 -2.26549 0
M  V30 9535 H 947.877 6.43078 -3.97476 0
M  V30 9536 H 949.145 7.17477 -3.04707 0
M  V30 9537 N 953.375 1.23811 0.975125 0
M  V30 9538 C 954.605 1.0986 1.7497 0
M  V30 9539 C 955.013 -0.352366 1.8589 0
M  V30 9540 O 954.356 -1.2553 1.34119 0
M  V30 9541 C 954.418 1.65584 3.19096 0
M  V30 9542 C 954.082 3.14395 3.3167 0
M  V30 9543 C 955.079 4.1163 3.17579 0
M  V30 9544 C 952.764 3.54208 3.56149 0
M  V30 9545 C 954.758 5.46661 3.27781 0
M  V30 9546 C 952.445 4.89382 3.65989 0
M  V30 9547 C 953.443 5.85418 3.51817 0
M  V30 9548 O 953.131 7.18135 3.61299 0
M  V30 9549 H 952.863 0.384854 0.555755 0
M  V30 9550 H 955.417 1.64242 1.23343 0
M  V30 9551 H 953.647 1.05627 3.71994 0
M  V30 9552 H 955.336 1.47032 3.78334 0
M  V30 9553 H 956.102 3.82214 2.98559 0
M  V30 9554 H 951.981 2.79968 3.66249 0
M  V30 9555 H 955.525 6.21601 3.16636 0
M  V30 9556 H 951.422 5.18473 3.84521 0
M  V30 9557 H 952.19 7.25956 3.78061 0
M  V30 9558 N 954.853 -1.17469 1.05066 0
M  V30 9559 C 956.078 -1.92162 0.780298 0
M  V30 9560 C 956.503 -1.76222 -0.657832 0
M  V30 9561 O 955.861 -1.0791 -1.45688 0
M  V30 9562 C 955.909 -3.41292 1.16414 0
M  V30 9563 O 955.013 -4.1134 0.295531 0
M  V30 9564 H 954.354 -0.599127 0.286257 0
M  V30 9565 H 956.884 -1.48903 1.40318 0
M  V30 9566 H 956.894 -3.92029 1.13036 0
M  V30 9567 H 955.569 -3.52214 2.21175 0
M  V30 9568 H 954.146 -3.70857 0.389797 0
M  V30 9569 N 956.331 -0.831506 -1.3388 0
M  V30 9570 C 957.577 -0.424302 -1.98312 0
M  V30 9571 C 957.91 1.01211 -1.65741 0
M  V30 9572 O 957.185 1.70636 -0.933464 0
M  V30 9573 C 957.468 -0.636815 -3.54424 0
M  V30 9574 C 957.321 -2.11997 -3.96708 0
M  V30 9575 C 958.64 -0.0782411 -4.4003 0
M  V30 9576 H 955.759 -0.155637 -0.720379 0
M  V30 9577 H 958.401 -1.04566 -1.58638 0
M  V30 9578 H 956.551 -0.107907 -3.8835 0
M  V30 9579 H 958.223 -2.71317 -3.73075 0
M  V30 9580 H 956.466 -2.60723 -3.46707 0
M  V30 9581 H 957.137 -2.21944 -5.05416 0
M  V30 9582 H 959.613 -0.530243 -4.12708 0
M  V30 9583 H 958.489 -0.256676 -5.483 0
M  V30 9584 H 958.75 1.01745 -4.30233 0
M  V30 9585 N 957.809 1.4625 -0.587256 0
M  V30 9586 C 959.058 2.01571 -0.0722643 0
M  V30 9587 C 959.371 1.46385 1.29733 0
M  V30 9588 O 960.577 1.93554 1.90392 0
M  V30 9589 C 959.033 3.59814 -0.078579 0
M  V30 9590 C 958.641 4.23996 -1.44678 0
M  V30 9591 C 960.385 4.22776 0.382231 0
M  V30 9592 C 958.292 5.74332 -1.41057 0
M  V30 9593 H 957.222 0.753642 -0.0232461 0
M  V30 9594 H 959.873 1.67936 -0.739577 0
M  V30 9595 H 958.255 3.90546 0.654988 0
M  V30 9596 H 959.429 4.04867 -2.20043 0
M  V30 9597 H 957.744 3.73147 -1.84799 0
M  V30 9598 H 960.341 5.32983 0.428182 0
M  V30 9599 H 960.684 3.92027 1.40072 0
M  V30 9600 H 961.217 3.96687 -0.297417 0
M  V30 9601 H 957.956 6.09747 -2.40601 0
M  V30 9602 H 957.476 5.95711 -0.699185 0
M  V30 9603 H 959.155 6.37137 -1.12543 0
M  V30 9604 N 959.287 0.325282 1.54207 0
M  V30 9605 C 960.703 -0.0273036 1.59577 0
M  V30 9606 C 960.903 -1.50329 1.34177 0
M  V30 9607 O 959.959 -2.25951 1.12705 0
M  V30 9608 C 961.272 0.392468 2.98128 0
M  V30 9609 C 962.82 0.343269 3.11112 0
M  V30 9610 C 963.295 0.738229 4.52011 0
M  V30 9611 N 964.786 0.691701 4.58006 0
M  V30 9612 C 965.521 0.969479 5.65145 0
M  V30 9613 N 965.017 1.31448 6.80216 0
M  V30 9614 N 966.81 0.894926 5.5493 0
M  V30 9615 H 958.961 1.28692 1.68974 0
M  V30 9616 H 961.224 0.523399 0.790416 0
M  V30 9617 H 960.93 1.42089 3.2172 0
M  V30 9618 H 960.804 -0.241651 3.76425 0
M  V30 9619 H 963.191 -0.675946 2.87254 0
M  V30 9620 H 963.272 1.01235 2.34915 0
M  V30 9621 H 962.916 1.75537 4.76602 0
M  V30 9622 H 962.846 0.0468226 5.26579 0
M  V30 9623 H 965.337 0.436975 3.75365 0
M  V30 9624 H 965.65 1.51177 7.57869 0
M  V30 9625 H 963.995 1.35276 6.81708 0
M  V30 9626 H 967.186 0.624876 4.6391 0
M  V30 9627 H 967.359 1.11476 6.38339 0
M  V30 9628 N 960.765 -1.57509 0.0534917 0
M  V30 9629 C 961.713 -2.12851 -0.937931 0
M  V30 9630 C 962.707 -1.06088 -1.32067 0
M  V30 9631 O 963.913 -1.24494 -1.30005 0
M  V30 9632 H 960.288 -0.680357 -0.320342 0
M  V30 9633 H 962.259 -2.95047 -0.446077 0
M  V30 9634 C 961.008 -2.69034 -2.20264 0
M  V30 9635 H 960.331 -3.50848 -1.91693 0
M  V30 9636 H 961.771 -3.11375 -2.87788 0
M  V30 9637 C 960.23 -1.62919 -2.94888 0
M  V30 9638 O 960.76 -1.04334 -3.87914 0
M  V30 9639 N 958.966 -1.34385 -2.57661 0
M  V30 9640 H 958.513 -1.82214 -1.82088 0
M  V30 9641 H 958.471 -0.636149 -3.07897 0
M  V30 9642 N 962.243 0.219913 -1.56058 0
M  V30 9643 C 963.52 0.968493 -1.6994 0
M  V30 9644 C 963.9 2.02358 -0.601219 0
M  V30 9645 O 963.248 2.25121 0.391534 0
M  V30 9646 C 963.458 1.57745 -3.11316 0
M  V30 9647 C 964.806 2.06908 -3.70775 0
M  V30 9648 O 965.83 1.67636 -3.14288 0
M  V30 9649 O 964.689 2.79096 -4.69859 0
M  V30 9650 H 961.783 0.452521 -0.692209 0
M  V30 9651 H 964.329 0.211566 -1.68376 0
M  V30 9652 H 963.101 0.815687 -3.82704 0
M  V30 9653 H 962.724 2.39987 -3.17005 0
M  V30 9654 N 963.721 1.49897 0.486681 0
M  V30 9655 C 964.684 1.67086 1.56891 0
M  V30 9656 C 965.684 0.54209 1.51387 0
M  V30 9657 O 966.874 0.80883 1.54284 0
M  V30 9658 C 964.006 1.68159 2.96539 0
M  V30 9659 H 965.199 2.63626 1.42974 0
M  V30 9660 H 962.752 1.39143 0.711954 0
M  V30 9661 H 963.487 0.732562 3.15918 0
M  V30 9662 H 963.272 2.50147 3.01942 0
M  V30 9663 H 964.762 1.83466 3.7514 0
M  V30 9664 N 965.199 -0.738761 1.39212 0
M  V30 9665 C 966.427 -1.52801 1.39497 0
M  V30 9666 C 966.842 -1.88797 -0.0114917 0
M  V30 9667 O 966.199 -1.53835 -0.981887 0
M  V30 9668 C 966.25 -2.81793 2.2644 0
M  V30 9669 O 965.971 -2.47328 3.61608 0
M  V30 9670 C 967.472 -3.75844 2.35067 0
M  V30 9671 H 964.692 -0.472322 0.476606 0
M  V30 9672 H 967.236 -0.913153 1.8298 0
M  V30 9673 H 965.391 -3.3962 1.8638 0
M  V30 9674 H 965.805 -3.30162 4.07545 0
M  V30 9675 H 967.279 -4.6326 3.00157 0
M  V30 9676 H 967.756 -4.17329 1.3687 0
M  V30 9677 H 968.362 -3.23937 2.75581 0
M  V30 9678 N 966.677 -1.24326 -0.968545 0
M  V30 9679 C 967.64 -1.03591 -2.04454 0
M  V30 9680 C 968.64 0.0064809 -1.60799 0
M  V30 9681 O 969.83 -0.234404 -1.72616 0
M  V30 9682 C 966.962 -0.56992 -3.36102 0
M  V30 9683 H 968.155 -1.99092 -2.24282 0
M  V30 9684 H 965.708 -1.06537 -1.14366 0
M  V30 9685 H 966.443 0.388325 -3.21967 0
M  V30 9686 H 966.228 -1.32227 -3.69132 0
M  V30 9687 H 967.718 -0.445854 -4.15213 0
M  V30 9688 N 968.156 1.1691 -1.05688 0
M  V30 9689 C 969.088 2.20648 -0.620237 0
M  V30 9690 C 970.101 1.59652 0.318604 0
M  V30 9691 O 971.29 1.78157 0.110553 0
M  V30 9692 C 968.39 3.38716 0.111729 0
M  V30 9693 C 967.563 4.29277 -0.839062 0
M  V30 9694 C 966.622 5.25993 -0.147453 0
M  V30 9695 O 965.648 5.63787 -0.783151 0
M  V30 9696 N 966.85 5.69725 1.11327 0
M  V30 9697 H 969.615 2.58731 -1.51256 0
M  V30 9698 H 967.176 1.31858 -0.939412 0
M  V30 9699 H 969.168 4.00455 0.584657 0
M  V30 9700 H 967.738 2.99189 0.905784 0
M  V30 9701 H 966.958 3.64894 -1.4915 0
M  V30 9702 H 968.246 4.86669 -1.48428 0
M  V30 9703 H 967.644 5.41103 1.64999 0
M  V30 9704 H 966.201 6.33584 1.53018 0
M  V30 9705 N 969.634 0.838594 1.33437 0
M  V30 9706 C 970.859 0.446701 2.02532 0
M  V30 9707 C 971.284 -0.944275 1.62681 0
M  V30 9708 O 970.642 -1.61733 0.81927 0
M  V30 9709 C 970.69 0.574794 3.55989 0
M  V30 9710 O 969.794 -0.399063 4.10465 0
M  V30 9711 H 969.135 0.181637 0.638674 0
M  V30 9712 H 971.665 1.13335 1.70342 0
M  V30 9713 H 971.675 0.456339 4.0544 0
M  V30 9714 H 970.35 1.58921 3.8434 0
M  V30 9715 H 968.927 -0.238187 3.72139 0
M  V30 9716 N 971.112 -1.45937 0.595003 0
M  V30 9717 C 972.358 -2.0262 0.0854317 0
M  V30 9718 C 972.691 -1.46402 -1.27594 0
M  V30 9719 O 971.966 -0.633823 -1.83883 0
M  V30 9720 C 972.249 -3.60085 0.0329075 0
M  V30 9721 C 972.102 -4.26663 1.42405 0
M  V30 9722 C 973.421 -4.35101 -0.661426 0
M  V30 9723 H 970.54 -0.736282 0.0325196 0
M  V30 9724 H 973.182 -1.73938 0.764563 0
M  V30 9725 H 971.332 -3.84652 -0.545439 0
M  V30 9726 H 973.004 -4.13321 2.04851 0
M  V30 9727 H 971.247 -3.85549 1.98833 0
M  V30 9728 H 971.918 -5.35497 1.33965 0
M  V30 9729 H 974.394 -4.15753 -0.169977 0
M  V30 9730 H 973.27 -5.44829 -0.667243 0
M  V30 9731 H 973.531 -4.07053 -1.72513 0
M  V30 9732 N 972.59 -0.333456 -1.54032 0
M  V30 9733 C 973.5 0.536674 -2.28379 0
M  V30 9734 C 974.516 1.12068 -1.33104 0
M  V30 9735 O 975.692 1.13853 -1.66131 0
M  V30 9736 C 972.757 1.67677 -3.03456 0
M  V30 9737 C 971.818 1.12357 -4.14336 0
M  V30 9738 C 971.051 2.20933 -4.85823 0
M  V30 9739 O 971.274 3.41466 -4.569 0
M  V30 9740 O 970.208 1.85795 -5.72507 0
M  V30 9741 H 974.034 -0.0674003 -3.03625 0
M  V30 9742 H 971.619 -0.098823 -1.49073 0
M  V30 9743 H 973.501 2.34032 -3.50438 0
M  V30 9744 H 972.176 2.26684 -2.31076 0
M  V30 9745 H 971.083 0.424827 -3.7168 0
M  V30 9746 H 972.416 0.578497 -4.88789 0
M  V30 9747 N 974.068 1.57479 -0.061844 0
M  V30 9748 C 975.315 1.93108 0.60954 0
M  V30 9749 C 975.643 0.941086 1.70217 0
M  V30 9750 O 974.898 -0.044914 1.95648 0
M  V30 9751 C 975.197 3.35394 1.23474 0
M  V30 9752 C 974.863 4.50095 0.269247 0
M  V30 9753 C 973.525 4.812 0.00360316 0
M  V30 9754 C 975.877 5.19725 -0.391839 0
M  V30 9755 C 973.205 5.79276 -0.930383 0
M  V30 9756 C 975.557 6.18801 -1.31408 0
M  V30 9757 C 974.221 6.48328 -1.58829 0
M  V30 9758 H 973.491 0.706634 0.223046 0
M  V30 9759 H 976.138 1.91054 -0.1306 0
M  V30 9760 H 974.443 3.33866 2.05039 0
M  V30 9761 H 976.14 3.60247 1.76134 0
M  V30 9762 H 972.73 4.2583 0.486477 0
M  V30 9763 H 976.914 4.95898 -0.199713 0
M  V30 9764 H 972.17 6.00484 -1.15019 0
M  V30 9765 H 976.344 6.71862 -1.83234 0
M  V30 9766 H 973.971 7.24137 -2.31363 0
M  V30 9767 N 975.546 -0.211634 1.56173 0
M  V30 9768 C 976.493 -1.26231 1.93221 0
M  V30 9769 C 977.463 -1.46076 0.790641 0
M  V30 9770 O 978.648 -1.59482 1.04739 0
M  V30 9771 C 975.788 -2.60559 2.26281 0
M  V30 9772 C 974.901 -2.48431 3.5342 0
M  V30 9773 C 974.036 -3.7535 3.7588 0
M  V30 9774 C 973.075 -3.57985 4.96501 0
M  V30 9775 N 972.212 -4.76877 5.15299 0
M  V30 9776 H 977.052 -0.939367 2.82807 0
M  V30 9777 H 974.589 -0.452511 1.39967 0
M  V30 9778 H 976.547 -3.38796 2.43461 0
M  V30 9779 H 975.177 -2.9093 1.39855 0
M  V30 9780 H 974.229 -1.61577 3.44379 0
M  V30 9781 H 975.541 -2.31526 4.41811 0
M  V30 9782 H 974.695 -4.62029 3.9321 0
M  V30 9783 H 973.434 -3.95191 2.85788 0
M  V30 9784 H 972.439 -2.69691 4.79111 0
M  V30 9785 H 973.664 -3.39605 5.88086 0
M  V30 9786 H 971.61 -4.97013 4.28152 0
M  V30 9787 H 971.527 -4.62735 5.9784 0
M  V30 9788 H 972.795 -5.64954 5.37073 0
M  V30 9789 N 977.024 -1.50153 -0.478725 0
M  V30 9790 C 978.252 -1.64505 -1.25482 0
M  V30 9791 C 978.667 -0.325295 -1.85977 0
M  V30 9792 O 978.024 0.691885 -1.68876 0
M  V30 9793 C 978.075 -2.73052 -2.36906 0
M  V30 9794 O 977.796 -3.99911 -1.78894 0
M  V30 9795 C 979.297 -2.98309 -3.27912 0
M  V30 9796 H 976.517 -0.55318 -0.379781 0
M  V30 9797 H 979.061 -1.96329 -0.57229 0
M  V30 9798 H 977.216 -2.43944 -3.00949 0
M  V30 9799 H 977.63 -4.5988 -2.52211 0
M  V30 9800 H 979.104 -3.77942 -4.02323 0
M  V30 9801 H 979.581 -2.09082 -3.8624 0
M  V30 9802 H 980.187 -3.2892 -2.69614 0
M  V30 9803 N 978.502 0.731368 -1.39602 0
M  V30 9804 C 979.465 1.8271 -1.38383 0
M  V30 9805 C 980.465 1.58338 -0.280309 0
M  V30 9806 O 981.655 1.65671 -0.538402 0
M  V30 9807 C 978.787 3.20556 -1.16002 0
M  V30 9808 H 979.98 1.85193 -2.35889 0
M  V30 9809 H 977.533 0.935396 -1.2522 0
M  V30 9810 H 978.268 3.23732 -0.191927 0
M  V30 9811 H 978.053 3.39643 -1.9592 0
M  V30 9812 H 979.543 4.00612 -1.17899 0
M  V30 9813 N 979.98 1.24838 0.961938 0
M  V30 9814 C 980.927 1.04582 2.05745 0
M  V30 9815 C 981.897 -0.0427281 1.66045 0
M  V30 9816 O 983.082 0.113026 1.90465 0
M  V30 9817 C 980.222 0.66284 3.38675 0
M  V30 9818 C 979.335 1.82548 3.91536 0
M  V30 9819 C 978.47 1.38753 5.12758 0
M  V30 9820 C 977.509 2.51976 5.5783 0
M  V30 9821 N 976.646 2.09009 6.70268 0
M  V30 9822 H 981.486 1.98343 2.22405 0
M  V30 9823 H 979.023 0.987822 1.08998 0
M  V30 9824 H 980.981 0.421788 4.15062 0
M  V30 9825 H 979.611 -0.237776 3.21923 0
M  V30 9826 H 978.663 2.18004 3.11735 0
M  V30 9827 H 979.975 2.67601 4.20941 0
M  V30 9828 H 979.129 1.1057 5.96539 0
M  V30 9829 H 977.868 0.507618 4.85051 0
M  V30 9830 H 976.873 2.80912 4.72619 0
M  V30 9831 H 978.098 3.40534 5.87549 0
M  V30 9832 H 976.044 1.23423 6.44285 0
M  V30 9833 H 975.961 2.87613 6.99153 0
M  V30 9834 H 977.229 1.83981 7.57477 0
M  V30 9835 N 981.458 -1.16348 1.06306 0
M  V30 9836 C 982.686 -1.90782 0.800614 0
M  V30 9837 C 983.101 -1.77439 -0.645033 0
M  V30 9838 O 982.458 -1.11912 -1.4416 0
M  V30 9839 C 982.509 -3.41484 1.18621 0
M  V30 9840 O 982.23 -3.54428 2.57512 0
M  V30 9841 C 983.731 -4.32968 0.951525 0
M  V30 9842 H 980.951 -0.604977 0.290247 0
M  V30 9843 H 983.495 -1.47476 1.41672 0
M  V30 9844 H 981.65 -3.82493 0.614633 0
M  V30 9845 H 982.064 -4.4788 2.72954 0
M  V30 9846 H 983.538 -5.37169 1.27095 0
M  V30 9847 H 984.015 -4.39055 -0.112734 0
M  V30 9848 H 984.621 -3.97687 1.50749 0
M  V30 9849 N 982.937 -0.845659 -1.3299 0
M  V30 9850 C 984.165 -0.45835 -2.01759 0
M  V30 9851 C 984.58 0.94239 -1.63598 0
M  V30 9852 O 983.937 1.61353 -0.852738 0
M  V30 9853 C 983.988 -0.577311 -3.5686 0
M  V30 9854 O 983.709 -1.92287 -3.93646 0
M  V30 9855 C 985.21 -0.187839 -4.42902 0
M  V30 9856 H 982.43 -0.181165 -0.646081 0
M  V30 9857 H 984.974 -1.14011 -1.6977 0
M  V30 9858 H 983.129 0.0566146 -3.87359 0
M  V30 9859 H 983.543 -1.91322 -4.88361 0
M  V30 9860 H 985.017 -0.322105 -5.51059 0
M  V30 9861 H 985.494 0.870896 -4.30479 0
M  V30 9862 H 986.1 -0.796473 -4.17776 0
M  V30 9863 N 984.415 1.45619 -0.602734 0
M  V30 9864 C 985.378 2.28941 0.108962 0
M  V30 9865 C 986.378 1.39501 0.799762 0
M  V30 9866 O 987.568 1.61673 0.648663 0
M  V30 9867 C 984.7 3.204 1.16432 0
M  V30 9868 H 985.893 2.93346 -0.623534 0
M  V30 9869 H 983.446 1.52061 -0.361565 0
M  V30 9870 H 984.181 2.60785 1.92774 0
M  V30 9871 H 983.966 3.86277 0.673248 0
M  V30 9872 H 985.456 3.83063 1.6629 0
M  V30 9873 N 985.893 0.34162 1.53853 0
M  V30 9874 C 986.856 -0.503541 2.236 0
M  V30 9875 C 987.856 -1.02912 1.23554 0
M  V30 9876 O 989.046 -0.918678 1.48007 0
M  V30 9877 C 986.178 -1.70126 2.95415 0
M  V30 9878 H 987.371 0.106437 2.99711 0
M  V30 9879 H 984.924 0.0929408 1.56023 0
M  V30 9880 H 985.659 -2.34999 2.23486 0
M  V30 9881 H 985.444 -1.33161 3.68796 0
M  V30 9882 H 986.934 -2.30077 3.48503 0
M  V30 9883 N 987.371 -1.57444 0.0701946 0
M  V30 9884 C 988.599 -1.97754 -0.608358 0
M  V30 9885 C 989.014 -0.948496 -1.63245 0
M  V30 9886 O 988.371 0.065046 -1.82384 0
M  V30 9887 C 988.422 -3.38142 -1.27836 0
M  V30 9888 O 988.143 -4.37104 -0.295255 0
M  V30 9889 C 989.644 -3.93318 -2.04489 0
M  V30 9890 H 986.864 -0.650398 -0.164997 0
M  V30 9891 H 989.408 -2.04006 0.142124 0
M  V30 9892 H 987.563 -3.32982 -1.97994 0
M  V30 9893 H 987.977 -5.18732 -0.77574 0
M  V30 9894 H 989.451 -4.93774 -2.46762 0
M  V30 9895 H 989.928 -3.29774 -2.90079 0
M  V30 9896 H 990.534 -4.01875 -1.39201 0
M  V30 9897 N 988.849 0.203349 -1.56283 0
M  V30 9898 C 990.096 0.92501 -1.80138 0
M  V30 9899 C 990.424 1.83598 -0.64204 0
M  V30 9900 O 989.679 1.92119 0.372658 0
M  V30 9901 C 989.978 1.78016 -3.09912 0
M  V30 9902 C 989.644 1.02088 -4.39191 0
M  V30 9903 C 988.306 0.811208 -4.74313 0
M  V30 9904 C 990.658 0.486037 -5.18929 0
M  V30 9905 C 987.986 0.0550856 -5.86674 0
M  V30 9906 C 990.338 -0.256833 -6.32078 0
M  V30 9907 C 989.002 -0.477594 -6.65789 0
M  V30 9908 H 988.272 0.338485 -0.659173 0
M  V30 9909 H 990.919 0.191923 -1.90536 0
M  V30 9910 H 989.224 2.58167 -2.94715 0
M  V30 9911 H 990.921 2.341 -3.25574 0
M  V30 9912 H 987.511 1.1943 -4.11624 0
M  V30 9913 H 991.695 0.635446 -4.92215 0
M  V30 9914 H 986.951 -0.126006 -6.1127 0
M  V30 9915 H 991.125 -0.678683 -6.93085 0
M  V30 9916 H 988.752 -1.0654 -7.52697 0
M  V30 9917 N 990.327 1.50405 0.470755 0
M  V30 9918 C 991.573 1.62618 1.22175 0
M  V30 9919 C 991.928 0.322593 1.89676 0
M  V30 9920 O 991.221 -0.679504 1.79146 0
M  V30 9921 C 991.415 2.74426 2.28965 0
M  V30 9922 C 991.244 4.15532 1.71941 0
M  V30 9923 C 990.014 4.81928 1.51899 0
M  V30 9924 C 992.212 4.99762 1.21417 0
M  V30 9925 N 990.194 6.07249 0.901208 0
M  V30 9926 C 991.565 6.15809 0.719638 0
M  V30 9927 C 993.62 4.85535 1.10275 0
M  V30 9928 C 992.323 7.19192 0.124669 0
M  V30 9929 C 994.349 5.89094 0.521721 0
M  V30 9930 C 993.711 7.0439 0.0375645 0
M  V30 9931 H 989.81 0.649215 0.43594 0
M  V30 9932 H 992.394 1.87525 0.523702 0
M  V30 9933 H 990.565 2.51242 2.96196 0
M  V30 9934 H 992.297 2.75996 2.95987 0
M  V30 9935 H 989.052 4.39228 1.77133 0
M  V30 9936 H 989.476 6.7424 0.610722 0
M  V30 9937 H 994.118 3.96681 1.463 0
M  V30 9938 H 991.836 8.0772 -0.247782 0
M  V30 9939 H 995.422 5.8015 0.437872 0
M  V30 9940 H 994.302 7.83154 -0.404993 0
M  V30 9941 N 991.805 -0.723954 1.39988 0
M  V30 9942 C 992.752 -1.83803 1.39589 0
M  V30 9943 C 993.722 -1.64146 0.253996 0
M  V30 9944 O 994.907 -1.85398 0.450793 0
M  V30 9945 C 992.047 -3.21431 1.25604 0
M  V30 9946 C 991.16 -3.52717 2.49429 0
M  V30 9947 C 990.295 -4.79805 2.27949 0
M  V30 9948 C 989.334 -5.03968 3.47394 0
M  V30 9949 N 988.471 -6.22266 3.25161 0
M  V30 9950 H 993.311 -1.83479 2.34818 0
M  V30 9951 H 990.848 -0.896396 1.16633 0
M  V30 9952 H 992.806 -4.00892 1.15504 0
M  V30 9953 H 991.436 -3.21005 0.339986 0
M  V30 9954 H 990.488 -2.67872 2.7009 0
M  V30 9955 H 991.8 -3.66486 3.38363 0
M  V30 9956 H 990.954 -5.67268 2.15155 0
M  V30 9957 H 989.693 -4.68229 1.36428 0
M  V30 9958 H 988.698 -4.14963 3.60674 0
M  V30 9959 H 989.923 -5.17422 4.39831 0
M  V30 9960 H 987.869 -6.11957 2.36314 0
M  V30 9961 H 987.786 -6.36673 4.07656 0
M  V30 9962 H 989.054 -7.12539 3.16083 0
M  V30 9963 N 993.283 -1.25346 -0.955304 0
M  V30 9964 C 994.694 -1.09173 -1.51453 0
M  V30 9965 C 995.045 0.332755 -1.93358 0
M  V30 9966 O 994.17 1.22264 -1.78551 0
M  V30 9967 C 994.765 -1.97564 -2.75234 0
M  V30 9968 C 993.324 -1.85579 -3.27471 0
M  V30 9969 C 992.471 -1.91755 -2.00313 0
M  V30 9970 H 995.422 -1.38642 -0.772271 0
M  V30 9971 H 995.443 -1.51523 -3.49029 0
M  V30 9972 H 994.955 -3.01233 -2.44704 0
M  V30 9973 H 993.056 -0.847906 -3.62824 0
M  V30 9974 H 993.169 -2.70353 -3.95533 0
M  V30 9975 H 991.533 -1.35633 -2.15582 0
M  V30 9976 H 992.316 -2.97028 -1.72132 0
M  V30 9977 N 994.761 1.15782 -1.06922 0
M  V30 9978 C 996.009 1.86097 -0.788192 0
M  V30 9979 C 996.33 1.82475 0.687606 0
M  V30 9980 O 995.6 1.26266 1.49778 0
M  V30 9981 H 994.18 0.689008 -0.288577 0
M  V30 9982 H 996.842 1.40377 -1.35205 0
M  V30 9983 H 995.938 2.91358 -1.1188 0
M  V30 9984 N 996.239 0.8527 1.3254 0
M  V30 9985 C 997.172 0.240733 2.26927 0
M  V30 9986 C 998.15 -0.620158 1.50309 0
M  V30 9987 O 999.334 -0.577389 1.79439 0
M  V30 9988 C 996.461 -0.660644 3.32195 0
M  V30 9989 C 995.507 0.126604 4.26312 0
M  V30 9990 S 996.34 1.49372 5.14245 0
M  V30 9991 C 997.496 0.598002 6.23037 0
M  V30 9992 H 997.729 1.04088 2.78483 0
M  V30 9993 H 995.262 0.650222 1.40041 0
M  V30 9994 H 997.22 -1.17506 3.93323 0
M  V30 9995 H 995.881 -1.43458 2.79426 0
M  V30 9996 H 995.074 -0.559851 5.00881 0
M  V30 9997 H 994.676 0.572536 3.69592 0
M  V30 9998 H 996.968 -0.198555 6.77209 0
M  V30 9999 H 997.911 1.31428 6.95796 0
M  V30 10000 H 998.319 0.173211 5.64234 0
M  V30 10001 N 997.718 -1.45297 0.610449 0
M  V30 10002 C 998.681 -2.28995 -0.0968194 0
M  V30 10003 C 999.681 -1.39923 -0.792353 0
M  V30 10004 O 1000.87 -1.62014 -0.64008 0
M  V30 10005 C 998.003 -3.21013 -1.14731 0
M  V30 10006 H 999.196 -2.93012 0.639082 0
M  V30 10007 H 996.749 -1.51867 0.369624 0
M  V30 10008 H 997.484 -2.61803 -1.91388 0
M  V30 10009 H 997.269 -3.86628 -0.652753 0
M  V30 10010 H 998.759 -3.8394 -1.64256 0
M  V30 10011 N 999.196 -0.349774 -1.5367 0
M  V30 10012 C 1000.44 0.244343 -2.00617 0
M  V30 10013 C 1000.76 1.50567 -1.23914 0
M  V30 10014 O 1000.03 1.92784 -0.348016 0
M  V30 10015 H 998.615 0.0932792 -0.741153 0
M  V30 10016 H 1001.28 -0.472367 -1.89089 0
M  V30 10017 H 1000.37 0.482433 -3.08349 0
M  V30 10018 N 1000.67 1.57404 -0.0785433 0
M  V30 10019 C 1001.95 1.85163 0.630389 0
M  V30 10020 C 1002.33 0.972295 1.87376 0
M  V30 10021 O 1001.68 0.0403375 2.28464 0
M  V30 10022 C 1001.89 3.35491 0.961604 0
M  V30 10023 C 1003.24 4.0316 1.33219 0
M  V30 10024 O 1004.26 3.40276 1.05313 0
M  V30 10025 O 1003.12 5.14086 1.85412 0
M  V30 10026 H 1000.21 0.765169 0.31376 0
M  V30 10027 H 1002.76 1.69343 -0.109986 0
M  V30 10028 H 1001.53 3.91221 0.0788113 0
M  V30 10029 H 1001.15 3.56598 1.75852 0
M  V30 10030 N 1002.15 -0.195058 1.56388 0
M  V30 10031 C 1003.08 -1.24444 1.97575 0
M  V30 10032 C 1004.06 -1.47471 0.847717 0
M  V30 10033 O 1005.25 -1.59208 1.11205 0
M  V30 10034 C 1002.38 -2.58866 2.31529 0
M  V30 10035 C 1001.33 -2.50451 3.47071 0
M  V30 10036 C 1000.66 -3.89146 3.667 0
M  V30 10037 C 1001.96 -2.02953 4.81256 0
M  V30 10038 H 1003.65 -0.902178 2.85484 0
M  V30 10039 H 1001.2 -0.43254 1.3735 0
M  V30 10040 H 1003.15 -3.3246 2.58936 0
M  V30 10041 H 1001.87 -2.94833 1.40502 0
M  V30 10042 H 1000.53 -1.79313 3.19754 0
M  V30 10043 H 1000.18 -4.22466 2.73004 0
M  V30 10044 H 999.882 -3.84391 4.44429 0
M  V30 10045 H 1001.41 -4.64363 3.96484 0
M  V30 10046 H 1002.82 -2.66306 5.07695 0
M  V30 10047 H 1001.22 -2.092 5.62455 0
M  V30 10048 H 1002.29 -0.982757 4.74837 0
M  V30 10049 N 1003.63 -1.50653 -0.462772 0
M  V30 10050 C 1004.88 -1.61737 -1.21184 0
M  V30 10051 C 1005.2 -0.32369 -1.92295 0
M  V30 10052 O 1004.47 0.659269 -1.84473 0
M  V30 10053 H 1003.05 -0.596015 -0.450306 0
M  V30 10054 H 1005.71 -1.87469 -0.533051 0
M  V30 10055 H 1004.81 -2.43262 -1.95525 0
M  V30 10056 N 1005.11 0.71652 -1.4037 0
M  V30 10057 C 1006.07 1.81231 -1.40313 0
M  V30 10058 C 1007.07 1.58032 -0.297087 0
M  V30 10059 O 1008.26 1.65091 -0.555944 0
M  V30 10060 C 1005.39 3.19308 -1.19395 0
M  V30 10061 H 1006.59 1.8268 -2.3784 0
M  V30 10062 H 1004.14 0.922062 -1.26205 0
M  V30 10063 H 1004.87 3.2351 -0.226252 0
M  V30 10064 H 1004.66 3.37546 -1.99512 0
M  V30 10065 H 1006.15 3.99339 -1.22141 0
M  V30 10066 N 1006.59 1.25851 0.948643 0
M  V30 10067 C 1007.81 1.13813 1.73382 0
M  V30 10068 C 1008.24 -0.303615 1.85633 0
M  V30 10069 O 1007.59 -1.21997 1.34114 0
M  V30 10070 C 1007.64 1.80388 3.12238 0
M  V30 10071 O 1006.75 1.08759 3.978 0
M  V30 10072 H 1006.09 0.397006 0.532243 0
M  V30 10073 H 1008.62 1.66529 1.18866 0
M  V30 10074 H 1008.63 1.86913 3.62667 0
M  V30 10075 H 1007.3 2.85278 3.02637 0
M  V30 10076 H 1005.88 1.10157 3.56258 0
M  V30 10077 N 1008.06 -1.15214 1.07534 0
M  V30 10078 C 1009.31 -1.85676 0.79805 0
M  V30 10079 C 1009.63 -1.82837 -0.677919 0
M  V30 10080 O 1008.9 -1.27059 -1.49107 0
M  V30 10081 H 1007.48 -0.687468 0.292227 0
M  V30 10082 H 1010.15 -1.39658 1.35947 0
M  V30 10083 H 1009.24 -2.9076 1.13423 0
M  V30 10084 N 1009.54 -0.859717 -1.32086 0
M  V30 10085 C 1010.95 -0.519529 -1.79326 0
M  V30 10086 C 1011.3 0.96295 -1.70944 0
M  V30 10087 O 1010.43 1.75139 -1.27104 0
M  V30 10088 C 1011.02 -0.936267 -3.25606 0
M  V30 10089 C 1009.58 -0.647899 -3.70782 0
M  V30 10090 C 1008.73 -1.13323 -2.53087 0
M  V30 10091 H 1011.68 -1.04643 -1.19312 0
M  V30 10092 H 1011.7 -0.254714 -3.79646 0
M  V30 10093 H 1011.21 -2.01527 -3.31675 0
M  V30 10094 H 1009.32 0.420172 -3.70223 0
M  V30 10095 H 1009.43 -1.21774 -4.63366 0
M  V30 10096 H 1007.79 -0.553325 -2.48617 0
M  V30 10097 H 1008.58 -2.21945 -2.61907 0
M  V30 10098 N 1011.02 1.44971 -0.618145 0
M  V30 10099 C 1011.98 2.29044 0.0846739 0
M  V30 10100 C 1012.98 1.40341 0.784921 0
M  V30 10101 O 1014.17 1.62351 0.631479 0
M  V30 10102 C 1011.31 3.21617 1.13027 0
M  V30 10103 H 1012.5 2.92668 -0.654612 0
M  V30 10104 H 1010.05 1.51668 -0.377672 0
M  V30 10105 H 1010.79 2.62815 1.89997 0
M  V30 10106 H 1010.57 3.86969 0.63224 0
M  V30 10107 H 1012.06 3.84805 1.62218 0
M  V30 10108 N 1012.5 0.357919 1.53482 0
M  V30 10109 C 1013.74 -0.23433 2.03052 0
M  V30 10110 C 1014.1 -1.46614 1.23969 0
M  V30 10111 O 1015.3 -2.13351 1.63508 0
M  V30 10112 C 1013.57 -0.526653 3.53498 0
M  V30 10113 S 1015.13 -1.09366 4.24952 0
M  V30 10114 H 1011.95 -0.0687848 0.707665 0
M  V30 10115 H 1014.55 0.499011 1.89024 0
M  V30 10116 H 1013.26 0.377463 4.0866 0
M  V30 10117 H 1012.79 -1.28927 3.71674 0
M  V30 10118 H 1014.8 -2.37845 4.35481 0
M  V30 10119 N 1013.98 -1.5736 0.0868897 0
M  V30 10120 C 1015.22 -1.94341 -0.579598 0
M  V30 10121 C 1015.56 -0.968238 -1.68341 0
M  V30 10122 O 1014.83 8.29649e-05 -1.945 0
M  V30 10123 C 1015.11 -3.41497 -1.14245 0
M  V30 10124 C 1014.97 -4.49778 -0.044255 0
M  V30 10125 C 1016.29 -3.89788 -2.04336 0
M  V30 10126 H 1013.4 -0.70668 -0.20922 0
M  V30 10127 H 1016.05 -1.89359 0.15593 0
M  V30 10128 H 1014.2 -3.45873 -1.76929 0
M  V30 10129 H 1015.87 -4.57517 0.58959 0
M  V30 10130 H 1014.11 -4.293 0.623207 0
M  V30 10131 H 1014.78 -5.4992 -0.478749 0
M  V30 10132 H 1017.26 -3.87513 -1.51569 0
M  V30 10133 H 1016.13 -4.93335 -2.40648 0
M  V30 10134 H 1016.4 -3.28603 -2.95757 0
M  V30 10135 N 1015.45 0.186762 -1.56489 0
M  V30 10136 C 1016.7 0.907194 -1.81378 0
M  V30 10137 C 1017.03 1.82558 -0.662283 0
M  V30 10138 O 1016.31 1.91564 0.336699 0
M  V30 10139 C 1016.59 1.71624 -3.16571 0
M  V30 10140 C 1016.44 0.822009 -4.42225 0
M  V30 10141 C 1017.76 2.68713 -3.48542 0
M  V30 10142 H 1014.88 0.328366 -0.659806 0
M  V30 10143 H 1017.52 0.174142 -1.892 0
M  V30 10144 H 1015.67 2.34119 -3.10033 0
M  V30 10145 H 1017.35 0.211122 -4.60817 0
M  V30 10146 H 1015.59 0.129178 -4.33608 0
M  V30 10147 H 1016.26 1.42326 -5.33336 0
M  V30 10148 H 1018.74 2.16348 -3.55433 0
M  V30 10149 H 1017.61 3.22397 -4.44242 0
M  V30 10150 H 1017.87 3.48165 -2.72459 0
M  V30 10151 N 1016.93 1.50896 0.454776 0
M  V30 10152 C 1018.18 1.62699 1.20562 0
M  V30 10153 C 1018.51 0.334943 1.91594 0
M  V30 10154 O 1017.76 -0.680106 1.83502 0
M  V30 10155 C 1018.06 2.76839 2.26042 0
M  V30 10156 C 1017.73 4.16745 1.72147 0
M  V30 10157 C 1016.39 4.54809 1.5717 0
M  V30 10158 C 1018.74 5.04118 1.32341 0
M  V30 10159 C 1016.07 5.7797 1.00835 0
M  V30 10160 C 1018.42 6.27842 0.774419 0
M  V30 10161 C 1017.09 6.64694 0.611415 0
M  V30 10162 H 1016.36 0.595358 0.441169 0
M  V30 10163 H 1019 1.84879 0.499202 0
M  V30 10164 H 1017.31 2.48812 3.02655 0
M  V30 10165 H 1019 2.83173 2.83926 0
M  V30 10166 H 1015.59 3.86725 1.84775 0
M  V30 10167 H 1019.78 4.75331 1.42739 0
M  V30 10168 H 1015.03 6.05183 0.869669 0
M  V30 10169 H 1019.21 6.94896 0.457389 0
M  V30 10170 H 1016.84 7.60004 0.172751 0
M  V30 10171 N 1018.41 -0.709066 1.40748 0
M  V30 10172 C 1019.64 -1.50313 1.42901 0
M  V30 10173 C 1020.06 -1.88072 0.032213 0
M  V30 10174 O 1019.42 -1.53716 -0.96131 0
M  V30 10175 C 1019.47 -2.75074 2.33166 0
M  V30 10176 O 1018.57 -3.72036 1.7794 0
M  V30 10177 H 1017.91 -0.452934 0.485538 0
M  V30 10178 H 1020.44 -0.872712 1.85054 0
M  V30 10179 H 1020.45 -3.23532 2.48578 0
M  V30 10180 H 1019.13 -2.46927 3.34664 0
M  V30 10181 H 1017.7 -3.30911 1.71908 0
M  V30 10182 N 1019.89 -1.26353 -0.941956 0
M  V30 10183 C 1021.31 -1.03448 -1.21534 0
M  V30 10184 C 1021.51 0.240855 -2.00055 0
M  V30 10185 O 1020.56 0.950199 -2.33939 0
M  V30 10186 C 1021.87 -2.2654 -1.97737 0
M  V30 10187 C 1023.42 -2.31433 -2.10731 0
M  V30 10188 C 1023.9 -3.54216 -2.90336 0
M  V30 10189 N 1025.39 -3.54688 -2.9791 0
M  V30 10190 C 1026.12 -4.4636 -3.59931 0
M  V30 10191 N 1025.62 -5.48319 -4.2346 0
M  V30 10192 N 1027.41 -4.34013 -3.57196 0
M  V30 10193 H 1019.56 -2.08266 -0.417005 0
M  V30 10194 H 1021.83 -0.915251 -0.247021 0
M  V30 10195 H 1021.53 -3.19299 -1.47449 0
M  V30 10196 H 1021.41 -2.30726 -2.98405 0
M  V30 10197 H 1023.79 -1.3919 -2.60212 0
M  V30 10198 H 1023.87 -2.31259 -1.09329 0
M  V30 10199 H 1023.52 -4.46788 -2.41543 0
M  V30 10200 H 1023.45 -3.51637 -3.91993 0
M  V30 10201 H 1025.94 -2.80942 -2.52745 0
M  V30 10202 H 1026.25 -6.14458 -4.6868 0
M  V30 10203 H 1024.6 -5.52177 -4.22049 0
M  V30 10204 H 1027.79 -3.53578 -3.06758 0
M  V30 10205 H 1027.96 -5.0565 -4.05244 0
M  V30 10206 N 1021.37 1.14642 -1.08144 0
M  V30 10207 C 1022.32 2.17665 -0.678661 0
M  V30 10208 C 1023.3 1.58072 0.300336 0
M  V30 10209 O 1024.49 1.7664 0.112781 0
M  V30 10210 C 1021.62 3.43191 -0.0866362 0
M  V30 10211 C 1020.71 4.0982 -1.09126 0
M  V30 10212 N 1021.1 4.51814 -2.27372 0
M  V30 10213 C 1019.4 4.36272 -0.926411 0
M  V30 10214 C 1020.1 5.03581 -2.91172 0
M  V30 10215 N 1019.07 4.97624 -2.18795 0
M  V30 10216 H 1022.88 2.47872 -1.57914 0
M  V30 10217 H 1020.39 1.31296 -0.955772 0
M  V30 10218 H 1022.39 4.1632 0.219859 0
M  V30 10219 H 1021.05 3.14464 0.80886 0
M  V30 10220 H 1022.06 4.44941 -2.65044 0
M  V30 10221 H 1018.74 4.17414 -0.084492 0
M  V30 10222 H 1020.13 5.45969 -3.91621 0
M  V30 10223 N 1022.85 0.866709 1.31628 0
M  V30 10224 C 1024.09 0.475086 1.96437 0
M  V30 10225 C 1024.41 -0.975179 1.68865 0
M  V30 10226 O 1023.68 -1.68317 1.0023 0
M  V30 10227 H 1022.26 0.172695 0.726764 0
M  V30 10228 H 1024.93 1.10578 1.60494 0
M  V30 10229 H 1024.02 0.630123 3.05673 0
M  V30 10230 N 1024.32 -1.44642 0.625825 0
M  V30 10231 C 1025.27 -2.32408 -0.0945221 0
M  V30 10232 C 1026.27 -1.47038 -0.841198 0
M  V30 10233 O 1027.47 -1.63415 -0.754698 0
M  V30 10234 H 1023.85 -0.75038 -0.0493321 0
M  V30 10235 H 1025.82 -2.90922 0.663863 0
M  V30 10236 C 1024.57 -3.30951 -1.06615 0
M  V30 10237 H 1023.89 -3.96648 -0.501021 0
M  V30 10238 H 1025.33 -3.95054 -1.53976 0
M  V30 10239 C 1023.79 -2.59479 -2.14877 0
M  V30 10240 O 1024.32 -2.38974 -3.22885 0
M  V30 10241 N 1022.52 -2.19307 -1.90665 0
M  V30 10242 H 1022.07 -2.36184 -1.02835 0
M  V30 10243 H 1022.03 -1.71811 -2.63303 0
M  V30 10244 N 1025.8 -0.366053 -1.5329 0
M  V30 10245 C 1026.71 0.488111 -2.29466 0
M  V30 10246 C 1027.73 1.09219 -1.35452 0
M  V30 10247 O 1028.9 1.10303 -1.68509 0
M  V30 10248 C 1025.97 1.61202 -3.06944 0
M  V30 10249 C 1025.03 1.03543 -4.16626 0
M  V30 10250 C 1024.26 2.10578 -4.904 0
M  V30 10251 O 1024.49 3.31697 -4.6404 0
M  V30 10252 O 1023.42 1.73609 -5.76319 0
M  V30 10253 H 1027.25 -0.131789 -3.03414 0
M  V30 10254 H 1024.83 -0.130421 -1.4883 0
M  V30 10255 H 1026.71 2.26546 -3.55324 0
M  V30 10256 H 1025.39 2.21732 -2.35832 0
M  V30 10257 H 1024.29 0.345892 -3.72498 0
M  V30 10258 H 1025.63 0.474687 -4.89906 0
M  V30 10259 N 1027.28 1.57312 -0.0952337 0
M  V30 10260 C 1028.21 2.17056 0.860753 0
M  V30 10261 C 1029.19 1.10394 1.29411 0
M  V30 10262 O 1030.38 1.38532 1.36098 0
M  V30 10263 C 1027.51 2.751 2.11984 0
M  V30 10264 C 1026.46 3.87136 1.8251 0
M  V30 10265 C 1025.79 4.31883 3.15247 0
M  V30 10266 C 1027.09 5.10326 1.11194 0
M  V30 10267 H 1028.78 2.97192 0.362983 0
M  V30 10268 H 1026.33 1.42955 0.173151 0
M  V30 10269 H 1028.28 3.15547 2.79299 0
M  V30 10270 H 1027 1.92219 2.64044 0
M  V30 10271 H 1025.66 3.47229 1.17592 0
M  V30 10272 H 1025.31 3.45893 3.65195 0
M  V30 10273 H 1025.01 5.0742 2.96309 0
M  V30 10274 H 1026.53 4.74964 3.83721 0
M  V30 10275 H 1027.95 5.47942 1.6862 0
M  V30 10276 H 1026.34 5.91293 1.02435 0
M  V30 10277 H 1027.41 4.84807 0.0947227 0
M  V30 10278 N 1028.76 -0.17846 1.56586 0
M  V30 10279 C 1029.98 -0.916061 1.86073 0
M  V30 10280 C 1030.41 -1.75349 0.680754 0
M  V30 10281 O 1029.77 -1.77479 -0.37028 0
M  V30 10282 C 1029.81 -1.77445 3.1392 0
M  V30 10283 O 1028.92 -2.87524 2.95641 0
M  V30 10284 H 1028.26 -0.257031 0.612234 0
M  V30 10285 H 1030.79 -0.178755 2.03818 0
M  V30 10286 H 1030.8 -2.1758 3.45142 0
M  V30 10287 H 1029.47 -1.15927 3.99417 0
M  V30 10288 H 1028.05 -2.51023 2.75757 0
M  V30 10289 N 1030.24 -1.51135 -0.446768 0
M  V30 10290 C 1031.17 -1.74709 -1.54916 0
M  V30 10291 C 1032.15 -0.596628 -1.59293 0
M  V30 10292 O 1033.33 -0.838356 -1.75172 0
M  V30 10293 C 1030.46 -1.86353 -2.9307 0
M  V30 10294 C 1029.42 -3.01725 -3.03556 0
M  V30 10295 C 1028.74 -2.9854 -4.43597 0
M  V30 10296 C 1030.04 -4.41848 -2.7851 0
M  V30 10297 H 1031.74 -2.67014 -1.3544 0
M  V30 10298 H 1029.28 -1.28489 -0.650131 0
M  V30 10299 H 1031.23 -2.01428 -3.70141 0
M  V30 10300 H 1029.96 -0.906887 -3.13756 0
M  V30 10301 H 1028.62 -2.86339 -2.28922 0
M  V30 10302 H 1028.27 -2.00673 -4.61237 0
M  V30 10303 H 1027.97 -3.76008 -4.51544 0
M  V30 10304 H 1029.49 -3.15696 -5.22655 0
M  V30 10305 H 1030.9 -4.57633 -3.45319 0
M  V30 10306 H 1029.3 -5.2095 -2.97877 0
M  V30 10307 H 1030.37 -4.52536 -1.74182 0
M  V30 10308 N 1031.71 0.701592 -1.41122 0
M  V30 10309 C 1032.68 1.79733 -1.42227 0
M  V30 10310 C 1033.68 1.57708 -0.313831 0
M  V30 10311 O 1034.87 1.64492 -0.573423 0
M  V30 10312 C 1032 3.18024 -1.22775 0
M  V30 10313 H 1033.19 1.80148 -2.39764 0
M  V30 10314 H 1030.74 0.908624 -1.27176 0
M  V30 10315 H 1031.48 3.23252 -0.260552 0
M  V30 10316 H 1031.26 3.35411 -2.0308 0
M  V30 10317 H 1032.75 3.98021 -1.2637 0
M  V30 10318 N 1033.19 1.2685 0.935242 0
M  V30 10319 C 1034.44 1.12912 1.6846 0
M  V30 10320 C 1034.77 -0.325708 1.91449 0
M  V30 10321 O 1034.05 -1.23884 1.49944 0
M  V30 10322 C 1034.33 1.90513 3.05576 0
M  V30 10323 C 1034.18 3.43936 2.89876 0
M  V30 10324 C 1035.5 1.70363 4.05789 0
M  V30 10325 H 1032.62 0.411559 0.611382 0
M  V30 10326 H 1035.26 1.55917 1.08582 0
M  V30 10327 H 1033.41 1.53963 3.5669 0
M  V30 10328 H 1035.08 3.90272 2.45939 0
M  V30 10329 H 1033.33 3.70659 2.25376 0
M  V30 10330 H 1034 3.93467 3.87153 0
M  V30 10331 H 1036.47 2.02217 3.63659 0
M  V30 10332 H 1035.35 2.27066 4.99732 0
M  V30 10333 H 1035.61 0.649674 4.373 0
M  V30 10334 N 1034.67 -1.14067 1.0875 0
M  V30 10335 C 1035.9 -1.89582 0.841038 0
M  V30 10336 C 1036.32 -1.78226 -0.601436 0
M  V30 10337 O 1035.68 -1.12491 -1.42181 0
M  V30 10338 C 1035.73 -3.37415 1.27213 0
M  V30 10339 O 1034.83 -4.10191 0.426246 0
M  V30 10340 H 1034.17 -0.589716 0.305173 0
M  V30 10341 H 1036.7 -1.44364 1.44984 0
M  V30 10342 H 1036.71 -3.88234 1.25451 0
M  V30 10343 H 1035.39 -3.44999 2.32268 0
M  V30 10344 H 1033.96 -3.69429 0.507585 0
M  V30 10345 N 1036.15 -0.873678 -1.31166 0
M  V30 10346 C 1037.06 -0.335726 -2.32185 0
M  V30 10347 C 1038.07 0.556259 -1.64869 0
M  V30 10348 O 1039.25 0.452087 -1.9626 0
M  V30 10349 C 1036.32 0.450822 -3.43756 0
M  V30 10350 C 1035.38 -0.469565 -4.26724 0
M  V30 10351 C 1034.61 0.279538 -5.32967 0
M  V30 10352 O 1034.83 1.50715 -5.50128 0
M  V30 10353 O 1033.77 -0.36452 -6.00795 0
M  V30 10354 H 1037.59 -1.17314 -2.80127 0
M  V30 10355 H 1035.18 -0.637163 -1.35132 0
M  V30 10356 H 1037.06 0.896582 -4.11752 0
M  V30 10357 H 1035.73 1.26472 -2.9797 0
M  V30 10358 H 1034.64 -0.963902 -3.61469 0
M  V30 10359 H 1035.97 -1.24916 -4.76085 0
M  V30 10360 N 1037.63 1.44308 -0.633487 0
M  V30 10361 C 1039.04 1.85387 -0.221009 0
M  V30 10362 C 1039.39 1.5301 1.22811 0
M  V30 10363 O 1038.51 0.969325 1.93476 0
M  V30 10364 C 1039.11 3.36497 -0.394331 0
M  V30 10365 C 1037.67 3.76382 -0.0363405 0
M  V30 10366 C 1036.81 2.68146 -0.706598 0
M  V30 10367 H 1039.77 1.34741 -0.83849 0
M  V30 10368 H 1039.79 3.78735 0.366026 0
M  V30 10369 H 1039.3 3.60031 -1.44911 0
M  V30 10370 H 1037.4 3.58463 1.01661 0
M  V30 10371 H 1037.51 4.77 -0.448045 0
M  V30 10372 H 1035.88 2.54306 -0.14168 0
M  V30 10373 H 1036.66 2.94512 -1.76401 0
M  V30 10374 N 1039.1 0.374177 1.53094 0
M  V30 10375 C 1040.33 -0.213325 2.05797 0
M  V30 10376 C 1040.75 -1.41753 1.24706 0
M  V30 10377 O 1040.1 -1.80183 0.289868 0
M  V30 10378 C 1040.16 -0.598367 3.56513 0
M  V30 10379 O 1039.88 0.557983 4.34532 0
M  V30 10380 C 1041.38 -1.24334 4.25507 0
M  V30 10381 H 1038.6 -0.0357398 0.670048 0
M  V30 10382 H 1041.14 0.535035 1.97377 0
M  V30 10383 H 1039.3 -1.29663 3.65056 0
M  V30 10384 H 1039.71 0.244911 5.23928 0
M  V30 10385 H 1041.18 -1.46325 5.32253 0
M  V30 10386 H 1041.66 -2.20622 3.79766 0
M  V30 10387 H 1042.27 -0.586269 4.2124 0
M  V30 10388 N 1040.58 -1.57259 0.103575 0
M  V30 10389 C 1041.51 -2.1153 -0.882472 0
M  V30 10390 C 1042.53 -1.05446 -1.24036 0
M  V30 10391 O 1043.72 -1.32867 -1.192 0
M  V30 10392 C 1040.82 -2.58717 -2.18903 0
M  V30 10393 C 1039.99 -3.8873 -2.00519 0
M  V30 10394 C 1039.05 -4.21675 -3.14764 0
M  V30 10395 O 1038.07 -4.90755 -2.88355 0
M  V30 10396 N 1039.28 -3.77757 -4.40772 0
M  V30 10397 H 1042.04 -2.96758 -0.418901 0
M  V30 10398 H 1039.6 -1.61696 -0.0812921 0
M  V30 10399 H 1041.59 -2.77797 -2.94297 0
M  V30 10400 H 1040.16 -1.78454 -2.56657 0
M  V30 10401 H 1039.38 -3.78714 -1.09406 0
M  V30 10402 H 1040.67 -4.73771 -1.85522 0
M  V30 10403 H 1040.07 -3.22011 -4.65108 0
M  V30 10404 H 1038.63 -4.01975 -5.13088 0
M  V30 10405 N 1042.06 0.170153 -1.56679 0
M  V30 10406 C 1043.01 1.21064 -1.965 0
M  V30 10407 C 1043.98 1.43928 -0.829092 0
M  V30 10408 O 1045.16 1.56649 -1.08931 0
M  V30 10409 C 1042.3 2.54468 -2.33109 0
M  V30 10410 C 1041.42 2.38974 -3.59883 0
M  V30 10411 C 1040.55 3.65252 -3.857 0
M  V30 10412 C 1039.59 3.44696 -5.05817 0
M  V30 10413 N 1038.73 4.63047 -5.27761 0
M  V30 10414 H 1043.57 0.864055 -2.85198 0
M  V30 10415 H 1041.1 0.415243 -1.41117 0
M  V30 10416 H 1043.06 3.32222 -2.52358 0
M  V30 10417 H 1041.69 2.8712 -1.4752 0
M  V30 10418 H 1040.74 1.5239 -3.48542 0
M  V30 10419 H 1042.06 2.19731 -4.47794 0
M  V30 10420 H 1041.21 4.51441 -4.05322 0
M  V30 10421 H 1039.95 3.87475 -2.96166 0
M  V30 10422 H 1038.95 2.56893 -4.86092 0
M  V30 10423 H 1040.18 3.23894 -5.96883 0
M  V30 10424 H 1038.12 4.85487 -4.41179 0
M  V30 10425 H 1038.04 4.46722 -6.09898 0
M  V30 10426 H 1039.31 5.50516 -5.51863 0
M  V30 10427 N 1043.54 1.5137 0.438746 0
M  V30 10428 C 1044.5 1.71993 1.51496 0
M  V30 10429 C 1045.5 0.589978 1.49586 0
M  V30 10430 O 1046.69 0.857505 1.51633 0
M  V30 10431 C 1043.82 1.77508 2.91039 0
M  V30 10432 H 1045.02 2.68041 1.34514 0
M  V30 10433 H 1042.57 1.41338 0.667326 0
M  V30 10434 H 1043.3 0.832698 3.13427 0
M  V30 10435 H 1043.09 2.59627 2.9383 0
M  V30 10436 H 1044.58 1.95308 3.69113 0
M  V30 10437 N 1045.02 -0.694098 1.41492 0
M  V30 10438 C 1045.98 -1.78976 1.43179 0
M  V30 10439 C 1046.98 -1.57539 0.322191 0
M  V30 10440 O 1048.17 -1.64185 0.582138 0
M  V30 10441 C 1045.3 -3.17368 1.2446 0
M  V30 10442 H 1046.49 -1.78874 2.40716 0
M  V30 10443 H 1044.05 -0.901867 1.27656 0
M  V30 10444 H 1044.78 -3.23109 0.277691 0
M  V30 10445 H 1044.57 -3.3433 2.04856 0
M  V30 10446 H 1046.06 -3.97345 1.28479 0
M  V30 10447 N 1046.49 -1.27344 -0.928501 0
M  V30 10448 C 1047.74 -1.13411 -1.67279 0
M  V30 10449 C 1048.06 0.320698 -1.92345 0
M  V30 10450 O 1047.33 1.2245 -1.52915 0
M  V30 10451 H 1045.91 -0.416712 -0.619968 0
M  V30 10452 H 1048.58 -1.5986 -1.11493 0
M  V30 10453 H 1047.67 -1.66256 -2.64131 0
M  V30 10454 N 1047.97 1.13488 -1.09353 0
M  V30 10455 C 1048.9 2.20988 -0.75409 0
M  V30 10456 C 1049.88 1.67977 0.267901 0
M  V30 10457 O 1051.07 1.93722 0.136128 0
M  V30 10458 C 1048.2 3.46869 -0.173042 0
M  V30 10459 C 1047.15 4.12965 -1.12446 0
M  V30 10460 C 1046.48 5.33163 -0.405157 0
M  V30 10461 C 1047.78 4.60388 -2.46658 0
M  V30 10462 H 1049.47 2.49639 -1.6529 0
M  V30 10463 H 1047.02 1.19987 -0.796182 0
M  V30 10464 H 1048.97 4.21331 0.0764988 0
M  V30 10465 H 1047.7 3.17611 0.760956 0
M  V30 10466 H 1046.35 3.40469 -1.35927 0
M  V30 10467 H 1046 5.00169 0.532955 0
M  V30 10468 H 1045.7 5.78332 -1.03952 0
M  V30 10469 H 1047.23 6.1038 -0.163899 0
M  V30 10470 H 1048.64 5.26276 -2.27389 0
M  V30 10471 H 1047.04 5.16294 -3.05876 0
M  V30 10472 H 1048.11 3.74949 -3.07476 0
M  V30 10473 N 1049.45 0.880621 1.30701 0
M  V30 10474 C 1050.68 0.511682 2.00473 0
M  V30 10475 C 1051.09 -0.898684 1.6604 0
M  V30 10476 O 1050.45 -1.59035 0.895218 0
M  V30 10477 C 1050.5 0.671723 3.55204 0
M  V30 10478 O 1050.22 2.02656 3.8841 0
M  V30 10479 C 1051.72 0.3052 4.42248 0
M  V30 10480 H 1048.94 0.198231 0.64105 0
M  V30 10481 H 1051.49 1.18472 1.66687 0
M  V30 10482 H 1049.64 0.0461066 3.87373 0
M  V30 10483 H 1050.06 2.04202 4.83117 0
M  V30 10484 H 1051.53 0.468095 5.50012 0
M  V30 10485 H 1052.01 -0.756456 4.32637 0
M  V30 10486 H 1052.61 0.906959 4.15517 0
M  V30 10487 N 1050.93 -1.4397 0.641131 0
M  V30 10488 C 1051.86 -2.33458 -0.04446 0
M  V30 10489 C 1052.84 -1.48781 -0.824507 0
M  V30 10490 O 1054.03 -1.77477 -0.788397 0
M  V30 10491 C 1051.16 -3.31989 -1.01984 0
M  V30 10492 C 1050.11 -4.2656 -0.350745 0
M  V30 10493 C 1049.44 -5.15036 -1.43673 0
M  V30 10494 C 1050.74 -5.16897 0.749299 0
M  V30 10495 H 1052.43 -2.91034 0.702832 0
M  V30 10496 H 1049.98 -1.39942 0.339435 0
M  V30 10497 H 1051.93 -3.93483 -1.50828 0
M  V30 10498 H 1050.65 -2.72643 -1.79815 0
M  V30 10499 H 1049.31 -3.66413 0.117139 0
M  V30 10500 H 1048.96 -4.52037 -2.20617 0
M  V30 10501 H 1048.66 -5.79125 -0.994358 0
M  V30 10502 H 1050.18 -5.79403 -1.92678 0
M  V30 10503 H 1051.6 -5.7227 0.343534 0
M  V30 10504 H 1049.99 -5.89643 1.11541 0
M  V30 10505 H 1051.06 -4.5731 1.61232 0
M  V30 10506 N 1052.41 -0.382291 -1.52893 0
M  V30 10507 C 1053.64 0.202408 -2.05908 0
M  V30 10508 C 1054.05 1.4109 -1.25456 0
M  V30 10509 O 1053.41 1.80027 -0.29942 0
M  V30 10510 C 1053.46 0.579452 -3.56826 0
M  V30 10511 O 1053.18 -0.58102 -4.3423 0
M  V30 10512 C 1054.68 1.22076 -4.2616 0
M  V30 10513 H 1051.9 0.0321859 -0.670228 0
M  V30 10514 H 1054.44 -0.545494 -1.9709 0
M  V30 10515 H 1052.6 1.27726 -3.65739 0
M  V30 10516 H 1053.01 -0.272693 -5.23791 0
M  V30 10517 H 1054.49 1.435 -5.33021 0
M  V30 10518 H 1054.96 2.18605 -3.80931 0
M  V30 10519 H 1055.57 0.563922 -4.21545 0
M  V30 10520 N 1053.89 1.57202 -0.111913 0
M  V30 10521 C 1054.82 2.17957 0.837683 0
M  V30 10522 C 1055.8 1.1176 1.28233 0
M  V30 10523 O 1056.98 1.39967 1.34621 0
M  V30 10524 C 1054.11 2.77333 2.09054 0
M  V30 10525 C 1053.07 3.8905 1.78393 0
M  V30 10526 C 1052.39 4.35203 3.10649 0
M  V30 10527 C 1053.69 5.11477 1.05775 0
M  V30 10528 H 1055.39 2.9756 0.331441 0
M  V30 10529 H 1052.93 1.43131 0.157979 0
M  V30 10530 H 1054.88 3.18492 2.75936 0
M  V30 10531 H 1053.61 1.95009 2.6199 0
M  V30 10532 H 1052.27 3.48456 1.13903 0
M  V30 10533 H 1051.92 3.49747 3.61506 0
M  V30 10534 H 1051.62 5.10534 2.9091 0
M  V30 10535 H 1053.14 4.79007 3.78661 0
M  V30 10536 H 1054.55 5.497 1.62798 0
M  V30 10537 H 1052.95 5.92346 0.961573 0
M  V30 10538 H 1054.02 4.84881 0.043297 0
M  V30 10539 N 1055.36 -0.161842 1.56767 0
M  V30 10540 C 1056.77 -0.723385 1.72116 0
M  V30 10541 C 1057.13 -1.82355 0.723961 0
M  V30 10542 O 1056.25 -2.16107 -0.112643 0
M  V30 10543 C 1056.85 -1.31895 3.12072 0
M  V30 10544 C 1055.4 -1.82722 3.29074 0
M  V30 10545 C 1054.55 -0.709863 2.6806 0
M  V30 10546 H 1057.5 0.0636647 1.58572 0
M  V30 10547 H 1057.52 -2.18871 3.11249 0
M  V30 10548 H 1057.04 -0.51801 3.84627 0
M  V30 10549 H 1055.14 -2.6543 2.61491 0
M  V30 10550 H 1055.25 -1.96614 4.36898 0
M  V30 10551 H 1053.61 -1.13273 2.28126 0
M  V30 10552 H 1054.4 0.0793884 3.43208 0
M  V30 10553 N 1056.84 -1.516 -0.430713 0
M  V30 10554 C 1057.75 -1.76247 -1.54836 0
M  V30 10555 C 1058.77 -0.646985 -1.61524 0
M  V30 10556 O 1059.94 -0.929987 -1.78643 0
M  V30 10557 C 1057.01 -1.88833 -2.90763 0
M  V30 10558 C 1056.07 -3.12701 -2.94137 0
M  V30 10559 C 1055.3 -3.24676 -4.23581 0
M  V30 10560 O 1055.53 -2.42429 -5.16318 0
M  V30 10561 O 1054.46 -4.17697 -4.33374 0
M  V30 10562 H 1058.29 -2.71069 -1.3695 0
M  V30 10563 H 1055.87 -1.36182 -0.614396 0
M  V30 10564 H 1057.75 -1.99057 -3.71422 0
M  V30 10565 H 1056.43 -0.971987 -3.08762 0
M  V30 10566 H 1055.33 -3.0795 -2.1241 0
M  V30 10567 H 1056.67 -4.04045 -2.81084 0
M  V30 10568 N 1058.32 0.686584 -1.41858 0
M  V30 10569 C 1059.57 1.44379 -1.41418 0
M  V30 10570 C 1059.89 1.94981 -0.0273696 0
M  V30 10571 O 1059.16 1.72296 0.932248 0
M  V30 10572 H 1057.74 0.53574 -0.520568 0
M  V30 10573 H 1060.4 0.812056 -1.77177 0
M  V30 10574 H 1059.5 2.30258 -2.10684 0
M  V30 10575 N 1059.8 1.27835 0.921735 0
M  V30 10576 C 1061.03 1.17352 1.704 0
M  V30 10577 C 1061.44 -0.268892 1.86875 0
M  V30 10578 O 1060.8 -1.18253 1.39005 0
M  V30 10579 C 1060.85 1.85889 3.10045 0
M  V30 10580 O 1060.57 3.24495 2.94338 0
M  V30 10581 C 1062.07 1.81607 4.04393 0
M  V30 10582 H 1059.29 0.40773 0.532914 0
M  V30 10583 H 1061.83 1.68815 1.15419 0
M  V30 10584 H 1059.99 1.38316 3.61867 0
M  V30 10585 H 1060.4 3.58705 3.82663 0
M  V30 10586 H 1061.88 2.34165 4.99871 0
M  V30 10587 H 1062.35 0.786697 4.32097 0
M  V30 10588 H 1062.96 2.28822 3.58498 0
M  V30 10589 N 1061.28 -1.12907 1.09954 0
M  V30 10590 C 1062.52 -1.84786 0.850039 0
M  V30 10591 C 1062.88 -1.82214 -0.617724 0
M  V30 10592 O 1062.17 -1.25319 -1.44934 0
M  V30 10593 C 1062.36 -3.31885 1.32616 0
M  V30 10594 C 1062.19 -3.48782 2.83868 0
M  V30 10595 C 1060.96 -3.62708 3.51811 0
M  V30 10596 C 1063.16 -3.44367 3.8199 0
M  V30 10597 N 1061.14 -3.67921 4.91434 0
M  V30 10598 C 1062.51 -3.56015 5.07596 0
M  V30 10599 C 1064.57 -3.27801 3.74768 0
M  V30 10600 C 1063.27 -3.52807 6.26833 0
M  V30 10601 C 1065.3 -3.25904 4.93499 0
M  V30 10602 C 1064.66 -3.38108 6.1795 0
M  V30 10603 H 1060.76 -0.692126 0.363986 0
M  V30 10604 H 1063.34 -1.35208 1.40096 0
M  V30 10605 H 1061.51 -3.80016 0.802625 0
M  V30 10606 H 1063.25 -3.91598 1.02142 0
M  V30 10607 H 1060 -3.64613 3.02248 0
M  V30 10608 H 1060.42 -3.74204 5.64181 0
M  V30 10609 H 1065.07 -3.17264 2.7947 0
M  V30 10610 H 1062.78 -3.62116 7.22425 0
M  V30 10611 H 1066.37 -3.14275 4.89615 0
M  V30 10612 H 1065.25 -3.36607 7.08283 0
M  V30 10613 N 1062.75 -0.88754 -1.30232 0
M  V30 10614 C 1063.98 -0.521562 -2.00735 0
M  V30 10615 C 1064.4 0.883247 -1.66073 0
M  V30 10616 O 1063.76 1.58581 -0.878731 0
M  V30 10617 C 1063.81 -0.706521 -3.53611 0
M  V30 10618 O 1062.91 0.246447 -4.11663 0
M  V30 10619 H 1062.25 -0.205216 -0.631492 0
M  V30 10620 H 1064.78 -1.19579 -1.66018 0
M  V30 10621 H 1064.79 -0.606501 -4.03467 0
M  V30 10622 H 1063.47 -1.73076 -3.78177 0
M  V30 10623 H 1062.05 0.0999062 -3.72766 0
M  V30 10624 N 1064.23 1.43628 -0.648757 0
M  V30 10625 C 1065.46 2.06732 -0.166284 0
M  V30 10626 C 1065.88 1.48281 1.15734 0
M  V30 10627 O 1065.24 0.591018 1.71396 0
M  V30 10628 C 1065.29 3.60502 -0.0838732 0
M  V30 10629 O 1064.39 4.01186 0.955185 0
M  V30 10630 H 1063.73 0.657479 -0.0928285 0
M  V30 10631 H 1066.26 1.84208 -0.890421 0
M  V30 10632 H 1066.27 4.07875 0.100923 0
M  V30 10633 H 1064.95 4.02424 -1.05014 0
M  V30 10634 H 1063.53 3.65412 0.743537 0
M  V30 10635 N 1065.71 0.390394 1.52688 0
M  V30 10636 C 1066.96 -0.191729 2.01892 0
M  V30 10637 C 1067.29 -1.4637 1.27631 0
M  V30 10638 O 1066.56 -1.90809 0.377094 0
M  V30 10639 C 1066.85 -0.458535 3.57169 0
M  V30 10640 C 1066.7 0.828796 4.42098 0
M  V30 10641 C 1068.02 -1.2487 4.22014 0
M  V30 10642 H 1065.14 -0.0682091 0.733837 0
M  V30 10643 H 1067.78 0.520176 1.82741 0
M  V30 10644 H 1065.93 -1.06498 3.73618 0
M  V30 10645 H 1067.6 1.46562 4.37398 0
M  V30 10646 H 1065.85 1.44388 4.09066 0
M  V30 10647 H 1066.52 0.596746 5.48765 0
M  V30 10648 H 1068.99 -0.735452 4.09549 0
M  V30 10649 H 1067.87 -1.40412 5.30637 0
M  V30 10650 H 1068.13 -2.2642 3.79719 0
M  V30 10651 N 1067.19 -1.57141 0.120249 0
M  V30 10652 C 1068.12 -2.18398 -0.826112 0
M  V30 10653 C 1069.1 -1.12439 -1.27638 0
M  V30 10654 O 1070.28 -1.40679 -1.33877 0
M  V30 10655 C 1067.41 -2.78438 -2.0758 0
M  V30 10656 C 1066.37 -3.89991 -1.76327 0
M  V30 10657 C 1065.69 -4.36844 -3.08336 0
M  V30 10658 C 1066.99 -5.12031 -1.03062 0
M  V30 10659 H 1068.69 -2.97731 -0.315656 0
M  V30 10660 H 1066.23 -1.43213 -0.150387 0
M  V30 10661 H 1068.19 -3.19951 -2.74243 0
M  V30 10662 H 1066.91 -1.96396 -2.60953 0
M  V30 10663 H 1065.57 -3.49055 -1.12053 0
M  V30 10664 H 1065.22 -3.51659 -3.59646 0
M  V30 10665 H 1064.92 -5.1207 -2.88199 0
M  V30 10666 H 1066.44 -4.81009 -3.76116 0
M  V30 10667 H 1067.86 -5.50555 -1.59881 0
M  V30 10668 H 1066.25 -5.92848 -0.930146 0
M  V30 10669 H 1067.32 -4.84897 -0.017582 0
M  V30 10670 N 1068.67 0.153526 -1.5685 0
M  V30 10671 C 1069.58 1.20932 -2.01029 0
M  V30 10672 C 1070.59 1.47401 -0.924598 0
M  V30 10673 O 1071.77 1.592 -1.23359 0
M  V30 10674 C 1068.83 2.52438 -2.37647 0
M  V30 10675 C 1067.89 2.33673 -3.60132 0
M  V30 10676 C 1067.13 3.58909 -3.94994 0
M  V30 10677 O 1067.35 4.64823 -3.30599 0
M  V30 10678 O 1066.28 3.5196 -4.8827 0
M  V30 10679 H 1070.11 0.864273 -2.91143 0
M  V30 10680 H 1067.7 0.361755 -1.44954 0
M  V30 10681 H 1069.58 3.29981 -2.62088 0
M  V30 10682 H 1068.25 2.86486 -1.5069 0
M  V30 10683 H 1067.16 1.54102 -3.40886 0
M  V30 10684 H 1068.49 2.04544 -4.47686 0
M  V30 10685 N 1070.14 1.51827 0.422667 0
M  V30 10686 C 1071.39 1.64893 1.16853 0
M  V30 10687 C 1071.71 0.37456 1.91369 0
M  V30 10688 O 1070.98 -0.610128 1.86157 0
M  V30 10689 H 1069.56 0.607744 0.434345 0
M  V30 10690 H 1072.23 1.88816 0.483159 0
M  V30 10691 H 1071.32 2.48361 1.89006 0
M  V30 10692 N 1071.62 -0.679052 1.4222 0
M  V30 10693 C 1072.59 -1.77448 1.45069 0
M  V30 10694 C 1073.59 -1.57189 0.338882 0
M  V30 10695 O 1074.78 -1.63559 0.599519 0
M  V30 10696 C 1071.91 -3.1603 1.27819 0
M  V30 10697 H 1073.1 -1.7631 2.426 0
M  V30 10698 H 1070.65 -0.888277 1.28605 0
M  V30 10699 H 1071.39 -3.22796 0.311946 0
M  V30 10700 H 1071.17 -3.32138 2.08391 0
M  V30 10701 H 1072.66 -3.9596 1.32686 0
M  V30 10702 N 1073.1 -1.28322 -0.914942 0
M  V30 10703 C 1074.35 -1.15179 -1.66067 0
M  V30 10704 C 1074.67 0.300279 -1.92674 0
M  V30 10705 O 1073.94 1.20821 -1.54205 0
M  V30 10706 H 1072.52 -0.423264 -0.615513 0
M  V30 10707 H 1075.18 -1.61034 -1.09791 0
M  V30 10708 H 1074.28 -1.69048 -2.62353 0
M  V30 10709 N 1074.58 1.12322 -1.10551 0
M  V30 10710 C 1075.81 1.87679 -0.87087 0
M  V30 10711 C 1076.22 1.79711 0.578733 0
M  V30 10712 O 1075.58 1.17185 1.39907 0
M  V30 10713 C 1075.63 3.36846 -1.31213 0
M  V30 10714 O 1075.35 3.44626 -2.70489 0
M  V30 10715 C 1076.85 4.29138 -1.11156 0
M  V30 10716 H 1074.07 0.593788 -0.3125 0
M  V30 10717 H 1076.62 1.42116 -1.47048 0
M  V30 10718 H 1074.77 3.79948 -0.756169 0
M  V30 10719 H 1075.18 4.37441 -2.89389 0
M  V30 10720 H 1076.66 5.32082 -1.46944 0
M  V30 10721 H 1077.14 4.39171 -0.0502963 0
M  V30 10722 H 1077.74 3.91818 -1.65405 0
M  V30 10723 N 1076.06 0.894434 1.2976 0
M  V30 10724 C 1076.99 0.3847 2.30309 0
M  V30 10725 C 1077.97 -0.537486 1.61385 0
M  V30 10726 O 1079.15 -0.449332 1.8893 0
M  V30 10727 C 1076.28 -0.393311 3.45066 0
M  V30 10728 C 1075.24 0.437968 4.25753 0
M  V30 10729 C 1074.56 -0.467221 5.32655 0
M  V30 10730 C 1075.86 1.6851 4.9437 0
M  V30 10731 H 1077.56 1.22496 2.73194 0
M  V30 10732 H 1075.1 0.590471 1.31337 0
M  V30 10733 H 1077.06 -0.760614 4.14479 0
M  V30 10734 H 1075.78 -1.2673 3.0101 0
M  V30 10735 H 1074.44 0.787533 3.58041 0
M  V30 10736 H 1074.09 -1.33919 4.84845 0
M  V30 10737 H 1073.79 0.0852482 5.87538 0
M  V30 10738 H 1075.31 -0.830833 6.04921 0
M  V30 10739 H 1076.72 1.38784 5.56248 0
M  V30 10740 H 1075.12 2.17849 5.59162 0
M  V30 10741 H 1076.19 2.42412 4.19958 0
M  V30 10742 N 1077.53 -1.43282 0.656365 0
M  V30 10743 C 1078.78 -2.01378 0.170702 0
M  V30 10744 C 1079.1 -1.52063 -1.22073 0
M  V30 10745 O 1078.37 -0.73456 -1.81607 0
M  V30 10746 H 1076.95 -0.744577 0.0601168 0
M  V30 10747 H 1079.62 -1.75449 0.848739 0
M  V30 10748 H 1078.71 -3.11701 0.157745 0
M  V30 10749 N 1079.01 -0.398486 -1.52479 0
M  V30 10750 C 1080.24 0.180557 -2.06111 0
M  V30 10751 C 1080.66 1.39751 -1.26945 0
M  V30 10752 O 1080.01 1.79699 -0.318497 0
M  V30 10753 C 1080.06 0.541573 -3.5742 0
M  V30 10754 O 1079.79 -0.627043 -4.33589 0
M  V30 10755 C 1081.29 1.17549 -4.27431 0
M  V30 10756 H 1078.51 0.0250754 -0.670531 0
M  V30 10757 H 1081.05 -0.566368 -1.96501 0
M  V30 10758 H 1079.21 1.23839 -3.67073 0
M  V30 10759 H 1079.62 -0.328233 -5.23472 0
M  V30 10760 H 1081.09 1.37839 -5.34513 0
M  V30 10761 H 1081.57 2.14553 -3.83228 0
M  V30 10762 H 1082.18 0.51918 -4.22119 0
M  V30 10763 N 1080.49 1.57075 -0.12858 0
M  V30 10764 C 1081.77 1.87075 0.571162 0
M  V30 10765 C 1082.15 1.03141 1.84188 0
M  V30 10766 O 1081.5 0.113001 2.2822 0
M  V30 10767 C 1081.71 3.3838 0.854383 0
M  V30 10768 C 1083.05 4.07194 1.20326 0
M  V30 10769 O 1084.08 3.43454 0.944338 0
M  V30 10770 O 1082.94 5.19725 1.68963 0
M  V30 10771 H 1080.03 0.774764 0.289258 0
M  V30 10772 H 1082.58 1.68908 -0.163806 0
M  V30 10773 H 1081.35 3.91273 -0.0456925 0
M  V30 10774 H 1080.97 3.62012 1.64418 0
M  V30 10775 N 1081.97 -0.145205 1.5693 0
M  V30 10776 C 1082.93 -1.16316 1.97492 0
M  V30 10777 C 1083.93 -1.35764 0.861668 0
M  V30 10778 O 1085.12 -1.32726 1.12825 0
M  V30 10779 C 1082.25 -2.52311 2.29242 0
M  V30 10780 H 1083.45 -0.815138 2.8861 0
M  V30 10781 H 1081 -0.38861 1.51392 0
M  V30 10782 H 1081.74 -2.92081 1.40922 0
M  V30 10783 H 1081.52 -2.39555 3.10412 0
M  V30 10784 H 1083.01 -3.25624 2.61456 0
M  V30 10785 N 1083.45 -1.52049 -0.414609 0
M  V30 10786 C 1084.72 -1.56397 -1.17471 0
M  V30 10787 C 1085.1 -0.34171 -2.08316 0
M  V30 10788 O 1084.45 0.6718 -2.18401 0
M  V30 10789 C 1084.66 -2.88983 -1.95678 0
M  V30 10790 C 1086.01 -3.41781 -2.51935 0
M  V30 10791 O 1087.03 -2.90686 -2.05865 0
M  V30 10792 O 1085.89 -4.30989 -3.36022 0
M  V30 10793 H 1082.99 -0.62974 -0.536056 0
M  V30 10794 H 1085.53 -1.64374 -0.421834 0
M  V30 10795 H 1084.31 -3.69392 -1.29094 0
M  V30 10796 H 1083.93 -2.84274 -2.77983 0
M  V30 10797 N 1084.93 0.6715 -1.42579 0
M  V30 10798 C 1086.17 1.42871 -1.42941 0
M  V30 10799 C 1086.49 1.94941 -0.0480483 0
M  V30 10800 O 1085.76 1.73275 0.913921 0
M  V30 10801 H 1084.34 0.530189 -0.526221 0
M  V30 10802 H 1087.01 0.793219 -1.78028 0
M  V30 10803 H 1086.1 2.2801 -2.13114 0
M  V30 10804 N 1086.4 1.28806 0.908124 0
M  V30 10805 C 1087.82 1.06634 1.18749 0
M  V30 10806 C 1088.02 -0.187729 2.00624 0
M  V30 10807 O 1087.08 -0.88784 2.36376 0
M  V30 10808 C 1088.39 2.31703 1.91661 0
M  V30 10809 C 1089.94 2.36939 2.04521 0
M  V30 10810 C 1090.41 3.61789 2.80843 0
M  V30 10811 N 1091.9 3.62462 2.88402 0
M  V30 10812 C 1092.64 4.55746 3.47971 0
M  V30 10813 N 1092.13 5.59353 4.08774 0
M  V30 10814 N 1093.93 4.43331 3.45564 0
M  V30 10815 H 1086.08 2.09299 0.36164 0
M  V30 10816 H 1088.34 0.921479 0.222668 0
M  V30 10817 H 1088.05 3.23096 1.38931 0
M  V30 10818 H 1087.92 2.38556 2.92183 0
M  V30 10819 H 1090.31 1.4604 2.5643 0
M  V30 10820 H 1090.39 2.34077 1.03159 0
M  V30 10821 H 1090.03 4.53035 2.29612 0
M  V30 10822 H 1089.96 3.61907 3.82532 0
M  V30 10823 H 1092.45 2.87544 2.45208 0
M  V30 10824 H 1092.77 6.26668 4.52224 0
M  V30 10825 H 1091.11 5.63173 4.07261 0
M  V30 10826 H 1094.3 3.61587 2.97276 0
M  V30 10827 H 1094.48 5.16216 3.91695 0
M  V30 10828 N 1087.88 -1.11734 1.11145 0
M  V30 10829 C 1089.11 -1.87755 0.881062 0
M  V30 10830 C 1089.53 -1.79461 -0.563496 0
M  V30 10831 O 1088.89 -1.15481 -1.39763 0
M  V30 10832 C 1088.94 -3.34641 1.34342 0
M  V30 10833 O 1088.04 -4.09195 0.513157 0
M  V30 10834 H 1087.38 -0.583111 0.317613 0
M  V30 10835 H 1089.91 -1.41256 1.48013 0
M  V30 10836 H 1089.92 -3.85486 1.33658 0
M  V30 10837 H 1088.6 -3.39994 2.39534 0
M  V30 10838 H 1087.17 -3.68269 0.585833 0
M  V30 10839 N 1089.36 -0.901303 -1.29284 0
M  V30 10840 C 1090.59 -0.543511 -1.99634 0
M  V30 10841 C 1091 0.872154 -1.67448 0
M  V30 10842 O 1090.36 1.57591 -0.920406 0
M  V30 10843 C 1090.41 -0.728148 -3.54091 0
M  V30 10844 O 1090.13 -2.08809 -3.85137 0
M  V30 10845 C 1091.63 -0.375519 -4.41707 0
M  V30 10846 H 1088.85 -0.208405 -0.637815 0
M  V30 10847 H 1091.4 -1.21109 -1.64781 0
M  V30 10848 H 1089.55 -0.107728 -3.8725 0
M  V30 10849 H 1089.97 -2.11863 -4.79807 0
M  V30 10850 H 1091.44 -0.555538 -5.49197 0
M  V30 10851 H 1091.92 0.687532 -4.33785 0
M  V30 10852 H 1092.52 -0.972949 -4.14021 0
M  V30 10853 N 1090.84 1.42931 -0.663954 0
M  V30 10854 C 1091.77 2.33499 0.00731327 0
M  V30 10855 C 1092.75 1.50074 0.800733 0
M  V30 10856 O 1093.93 1.78708 0.760062 0
M  V30 10857 C 1091.06 3.33569 0.966897 0
M  V30 10858 C 1090.02 4.27064 0.282839 0
M  V30 10859 C 1089.34 5.17257 1.35461 0
M  V30 10860 C 1090.64 5.1564 -0.831438 0
M  V30 10861 H 1092.34 2.89879 -0.749044 0
M  V30 10862 H 1089.88 1.39385 -0.361656 0
M  V30 10863 H 1091.84 3.95833 1.44549 0
M  V30 10864 H 1090.56 2.75469 1.75455 0
M  V30 10865 H 1089.22 3.6618 -0.175417 0
M  V30 10866 H 1088.87 4.5549 2.13397 0
M  V30 10867 H 1088.57 5.80634 0.902098 0
M  V30 10868 H 1090.09 5.82395 1.83436 0
M  V30 10869 H 1091.51 5.71651 -0.434534 0
M  V30 10870 H 1089.9 5.87794 -1.20908 0
M  V30 10871 H 1090.97 4.54687 -1.68487 0
M  V30 10872 N 1092.32 0.406567 1.52266 0
M  V30 10873 C 1093.54 -0.169624 2.06204 0
M  V30 10874 C 1093.96 -1.39076 1.27684 0
M  V30 10875 O 1093.32 -1.79528 0.328023 0
M  V30 10876 C 1093.37 -0.522611 3.57702 0
M  V30 10877 O 1093.09 0.650028 4.33251 0
M  V30 10878 C 1094.59 -1.15281 4.28048 0
M  V30 10879 H 1091.81 -0.0215191 0.670655 0
M  V30 10880 H 1094.35 0.576781 1.96198 0
M  V30 10881 H 1092.51 -1.21891 3.67725 0
M  V30 10882 H 1092.92 0.355989 5.23291 0
M  V30 10883 H 1094.4 -1.35002 5.35237 0
M  V30 10884 H 1094.87 -2.12517 3.84361 0
M  V30 10885 H 1095.48 -0.496786 4.22389 0
M  V30 10886 N 1093.79 -1.57004 0.136909 0
M  V30 10887 C 1094.72 -2.19262 -0.802902 0
M  V30 10888 C 1095.71 -1.13786 -1.26439 0
M  V30 10889 O 1096.89 -1.42091 -1.32377 0
M  V30 10890 C 1094.02 -2.80624 -2.04615 0
M  V30 10891 C 1092.97 -3.91839 -1.72181 0
M  V30 10892 C 1092.3 -4.4009 -3.03686 0
M  V30 10893 C 1093.6 -5.13095 -0.976249 0
M  V30 10894 H 1095.29 -2.98049 -0.28406 0
M  V30 10895 H 1092.84 -1.43364 -0.135189 0
M  V30 10896 H 1094.79 -3.22842 -2.70834 0
M  V30 10897 H 1093.52 -1.99153 -2.58855 0
M  V30 10898 H 1092.18 -3.50224 -1.08344 0
M  V30 10899 H 1091.82 -3.55454 -3.55896 0
M  V30 10900 H 1091.52 -5.15098 -2.82751 0
M  V30 10901 H 1093.05 -4.84971 -3.70993 0
M  V30 10902 H 1094.46 -5.5222 -1.54033 0
M  V30 10903 H 1092.86 -5.93801 -0.867214 0
M  V30 10904 H 1093.93 -4.84888 0.0338488 0
M  V30 10905 N 1095.27 0.136881 -1.57004 0
M  V30 10906 C 1096.55 0.87705 -1.74835 0
M  V30 10907 C 1096.93 1.98886 -0.707639 0
M  V30 10908 O 1096.28 2.26879 0.271652 0
M  V30 10909 C 1096.49 1.41021 -3.1924 0
M  V30 10910 C 1097.84 1.86963 -3.81222 0
M  V30 10911 O 1098.86 1.5074 -3.22732 0
M  V30 10912 O 1097.72 2.53798 -4.83993 0
M  V30 10913 H 1094.81 0.415192 -0.715223 0
M  V30 10914 H 1097.36 0.122016 -1.69261 0
M  V30 10915 H 1096.13 0.611677 -3.8649 0
M  V30 10916 H 1095.75 2.22846 -3.2928 0
M  V30 10917 N 1096.75 1.52266 0.40654 0
M  V30 10918 C 1097.98 1.70304 1.17491 0
M  V30 10919 C 1098.39 0.413656 1.84213 0
M  V30 10920 O 1097.75 -0.610524 1.71985 0
M  V30 10921 C 1097.8 2.84045 2.23609 0
M  V30 10922 O 1097.52 4.0799 1.5961 0
M  V30 10923 C 1099.02 3.13614 3.13306 0
M  V30 10924 H 1096.24 0.570669 0.352955 0
M  V30 10925 H 1098.79 1.98836 0.477967 0
M  V30 10926 H 1096.94 2.58025 2.88967 0
M  V30 10927 H 1097.36 4.7139 2.29983 0
M  V30 10928 H 1098.83 3.96707 3.83833 0
M  V30 10929 H 1099.31 2.27272 3.75824 0
M  V30 10930 H 1099.91 3.41409 2.53614 0
M  V30 10931 N 1098.23 -0.663929 1.42933 0
M  V30 10932 C 1099.46 -1.45192 1.474 0
M  V30 10933 C 1099.87 -1.88592 0.0886014 0
M  V30 10934 O 1099.23 -1.58824 -0.898962 0
M  V30 10935 C 1099.28 -2.69394 2.41059 0
M  V30 10936 O 1099 -2.27812 3.7421 0
M  V30 10937 C 1100.5 -3.62855 2.54659 0
M  V30 10938 H 1097.72 -0.446394 0.500973 0
M  V30 10939 H 1100.27 -0.814875 1.87563 0
M  V30 10940 H 1098.42 -3.29262 2.0412 0
M  V30 10941 H 1098.83 -3.08095 4.24474 0
M  V30 10942 H 1100.31 -4.46698 3.24291 0
M  V30 10943 H 1100.79 -4.09487 1.58799 0
M  V30 10944 H 1101.39 -3.08874 2.92364 0
M  V30 10945 N 1099.71 -1.29285 -0.901281 0
M  V30 10946 C 1100.95 -1.16934 -1.64836 0
M  V30 10947 C 1101.28 0.279826 -1.92982 0
M  V30 10948 O 1100.55 1.19179 -1.55478 0
M  V30 10949 H 1099.13 -0.429768 -0.61099 0
M  V30 10950 H 1101.79 -1.62189 -1.08077 0
M  V30 10951 H 1100.88 -1.71821 -2.60545 0
M  V30 10952 N 1101.18 1.11143 -1.11736 0
M  V30 10953 C 1102.11 2.19339 -0.800795 0
M  V30 10954 C 1103.1 1.68508 0.23221 0
M  V30 10955 O 1104.28 1.93967 0.0950063 0
M  V30 10956 C 1101.41 3.46424 -0.246579 0
M  V30 10957 C 1100.36 4.10487 -1.21181 0
M  V30 10958 C 1099.69 5.32183 -0.518158 0
M  V30 10959 C 1100.99 4.55052 -2.56368 0
M  V30 10960 H 1102.68 2.46077 -1.70548 0
M  V30 10961 H 1100.23 1.18271 -0.821454 0
M  V30 10962 H 1102.18 4.21398 -0.0128889 0
M  V30 10963 H 1100.91 3.19154 0.693415 0
M  V30 10964 H 1099.57 3.3751 -1.43118 0
M  V30 10965 H 1099.21 5.01187 0.426742 0
M  V30 10966 H 1098.91 5.75997 -1.16196 0
M  V30 10967 H 1100.44 6.09895 -0.293333 0
M  V30 10968 H 1101.85 5.21335 -2.38501 0
M  V30 10969 H 1100.25 5.0969 -3.16758 0
M  V30 10970 H 1101.32 3.68343 -3.1536 0
M  V30 10971 N 1102.66 0.908147 1.28804 0
M  V30 10972 C 1103.89 0.553431 1.9988 0
M  V30 10973 C 1104.31 -0.856714 1.67458 0
M  V30 10974 O 1103.67 -1.57163 0.903849 0
M  V30 10975 C 1103.72 0.762688 3.52442 0
M  V30 10976 O 1102.82 -0.180924 4.12003 0
M  V30 10977 H 1102.16 0.215237 0.628147 0
M  V30 10978 H 1104.69 1.22205 1.64095 0
M  V30 10979 H 1104.7 0.670612 4.02451 0
M  V30 10980 H 1103.38 1.79071 3.75375 0
M  V30 10981 H 1101.96 -0.0405897 3.72878 0
M  V30 10982 N 1104.14 -1.42577 0.671525 0
M  V30 10983 C 1105.39 -2.01185 0.192051 0
M  V30 10984 C 1105.71 -1.53349 -1.20454 0
M  V30 10985 O 1104.98 -0.753781 -1.80817 0
M  V30 10986 H 1103.56 -0.743898 0.0680106 0
M  V30 10987 H 1106.22 -1.74539 0.8673 0
M  V30 10988 H 1105.32 -3.11516 0.190796 0
M  V30 10989 N 1105.62 -0.414636 -1.52048 0
M  V30 10990 C 1106.57 0.408141 -2.27163 0
M  V30 10991 C 1107.54 1.03636 -1.29803 0
M  V30 10992 O 1108.72 1.05959 -1.58674 0
M  V30 10993 C 1105.86 1.51588 -3.10024 0
M  V30 10994 C 1104.97 0.908034 -4.22349 0
M  V30 10995 C 1104.11 1.98893 -4.9256 0
M  V30 10996 C 1103.15 1.35831 -5.96839 0
M  V30 10997 N 1102.28 2.37958 -6.60545 0
M  V30 10998 H 1107.12 -0.238822 -2.97041 0
M  V30 10999 H 1104.66 -0.129614 -1.46528 0
M  V30 11000 H 1106.62 2.16916 -3.56375 0
M  V30 11001 H 1105.25 2.13279 -2.42305 0
M  V30 11002 H 1104.3 0.143652 -3.80129 0
M  V30 11003 H 1105.61 0.407426 -4.97133 0
M  V30 11004 H 1104.77 2.71935 -5.42343 0
M  V30 11005 H 1103.51 2.5232 -4.17356 0
M  V30 11006 H 1102.51 0.613246 -5.46369 0
M  V30 11007 H 1103.74 0.831655 -6.73988 0
M  V30 11008 H 1101.68 2.90508 -5.88167 0
M  V30 11009 H 1101.6 1.92725 -7.31022 0
M  V30 11010 H 1102.87 3.10553 -7.14966 0
M  V30 11011 N 1107.1 1.56929 -0.145233 0
M  V30 11012 C 1108.32 2.00431 0.513314 0
M  V30 11013 C 1108.74 1.0253 1.58534 0
M  V30 11014 O 1108.1 0.0220459 1.82487 0
M  V30 11015 C 1108.15 3.43856 1.11557 0
M  V30 11016 O 1107.87 4.38015 0.0863707 0
M  V30 11017 C 1109.37 4.02627 1.8549 0
M  V30 11018 H 1106.59 0.657529 0.133778 0
M  V30 11019 H 1109.13 2.03095 -0.239296 0
M  V30 11020 H 1107.29 3.4205 1.81881 0
M  V30 11021 H 1107.7 5.21842 0.527363 0
M  V30 11022 H 1109.18 5.04985 2.22923 0
M  V30 11023 H 1109.65 3.43239 2.74014 0
M  V30 11024 H 1110.26 4.08058 1.19869 0
M  V30 11025 N 1108.58 -0.128553 1.57075 0
M  V30 11026 C 1109.52 -1.15812 1.9964 0
M  V30 11027 C 1110.49 -1.41679 0.86696 0
M  V30 11028 O 1111.68 -1.53705 1.13046 0
M  V30 11029 C 1108.82 -2.48198 2.39774 0
M  V30 11030 C 1107.93 -2.29348 3.66092 0
M  V30 11031 C 1107.07 -3.54898 3.95248 0
M  V30 11032 C 1106.1 -3.31164 5.14779 0
M  V30 11033 N 1105.24 -4.48891 5.39853 0
M  V30 11034 H 1110.08 -0.788136 2.87389 0
M  V30 11035 H 1107.62 -0.377682 1.42169 0
M  V30 11036 H 1109.58 -3.25414 2.61077 0
M  V30 11037 H 1108.21 -2.83108 1.5508 0
M  V30 11038 H 1107.26 -1.43095 3.5246 0
M  V30 11039 H 1108.57 -2.07781 4.53463 0
M  V30 11040 H 1107.72 -4.40536 4.17148 0
M  V30 11041 H 1106.46 -3.79487 3.06335 0
M  V30 11042 H 1105.47 -2.43915 4.92733 0
M  V30 11043 H 1106.69 -3.07954 6.05261 0
M  V30 11044 H 1104.64 -4.73619 4.53895 0
M  V30 11045 H 1104.56 -4.30394 6.21528 0
M  V30 11046 H 1105.82 -5.35691 5.66265 0
M  V30 11047 N 1110.05 -1.5248 -0.398459 0
M  V30 11048 C 1110.98 -1.79549 -1.49279 0
M  V30 11049 C 1111.96 -0.647004 -1.57315 0
M  V30 11050 O 1113.15 -0.893661 -1.72416 0
M  V30 11051 C 1110.28 -1.95582 -2.86993 0
M  V30 11052 C 1109.23 -3.1123 -2.93803 0
M  V30 11053 C 1108.56 -3.12501 -4.33874 0
M  V30 11054 C 1109.86 -4.50485 -2.64312 0
M  V30 11055 H 1111.55 -2.71187 -1.26877 0
M  V30 11056 H 1109.1 -1.30492 -0.608924 0
M  V30 11057 H 1111.05 -2.13102 -3.63546 0
M  V30 11058 H 1109.78 -1.00625 -3.10712 0
M  V30 11059 H 1108.44 -2.93477 -2.19697 0
M  V30 11060 H 1108.08 -2.15245 -4.54619 0
M  V30 11061 H 1107.78 -3.90183 -4.39353 0
M  V30 11062 H 1109.31 -3.32164 -5.12347 0
M  V30 11063 H 1110.72 -4.68387 -3.30585 0
M  V30 11064 H 1109.12 -5.30163 -2.81153 0
M  V30 11065 H 1110.19 -4.57848 -1.59696 0
M  V30 11066 N 1111.53 0.65634 -1.43283 0
M  V30 11067 C 1112.78 1.41212 -1.44021 0
M  V30 11068 C 1113.09 1.95485 -0.0669783 0
M  V30 11069 O 1114.3 2.71457 0.0481909 0
M  V30 11070 C 1112.76 2.55541 -2.5343 0
M  V30 11071 C 1112.36 2.07889 -3.96845 0
M  V30 11072 C 1114.11 3.3293 -2.63359 0
M  V30 11073 C 1112.01 3.19411 -4.97726 0
M  V30 11074 H 1110.94 0.530566 -0.535739 0
M  V30 11075 H 1113.6 0.708743 -1.6926 0
M  V30 11076 H 1111.98 3.28335 -2.21387 0
M  V30 11077 H 1113.15 1.42127 -4.38334 0
M  V30 11078 H 1111.47 1.43388 -3.90933 0
M  V30 11079 H 1114.06 4.1602 -3.35903 0
M  V30 11080 H 1114.41 3.80753 -1.68324 0
M  V30 11081 H 1114.94 2.67216 -2.94687 0
M  V30 11082 H 1111.68 2.7656 -5.94302 0
M  V30 11083 H 1111.2 3.83895 -4.60853 0
M  V30 11084 H 1112.88 3.84591 -5.20287 0
M  V30 11085 N 1113.01 1.29761 0.894412 0
M  V30 11086 C 1113.96 1.15341 1.99912 0
M  V30 11087 C 1114.93 0.0453488 1.66038 0
M  V30 11088 O 1116.11 0.213829 1.89598 0
M  V30 11089 C 1113.25 0.841432 3.34685 0
M  V30 11090 C 1112.36 2.03046 3.81309 0
M  V30 11091 C 1111.5 1.65739 5.04682 0
M  V30 11092 C 1110.54 2.81191 5.43689 0
M  V30 11093 N 1109.68 2.44244 6.58247 0
M  V30 11094 H 1114.52 2.09854 2.11578 0
M  V30 11095 H 1112.05 1.04421 1.03608 0
M  V30 11096 H 1114.01 0.641211 4.12243 0
M  V30 11097 H 1112.64 -0.066797 3.22731 0
M  V30 11098 H 1111.69 2.34222 2.9974 0
M  V30 11099 H 1113 2.89538 4.06164 0
M  V30 11100 H 1112.16 1.42036 5.8984 0
M  V30 11101 H 1110.9 0.764019 4.81678 0
M  V30 11102 H 1109.9 3.0557 4.57064 0
M  V30 11103 H 1111.13 3.712 5.68672 0
M  V30 11104 H 1109.07 1.57402 6.36837 0
M  V30 11105 H 1108.99 3.24269 6.82924 0
M  V30 11106 H 1110.26 2.23875 7.46659 0
M  V30 11107 N 1114.49 -1.10549 1.12324 0
M  V30 11108 C 1115.42 -2.18911 0.812416 0
M  V30 11109 C 1116.4 -1.68628 -0.22327 0
M  V30 11110 O 1117.58 -1.94015 -0.0847184 0
M  V30 11111 C 1114.71 -3.46288 0.264947 0
M  V30 11112 C 1113.67 -4.09838 1.23356 0
M  V30 11113 C 1112.99 -5.31901 0.546374 0
M  V30 11114 C 1114.29 -4.53686 2.58778 0
M  V30 11115 H 1115.99 -2.45169 1.71851 0
M  V30 11116 H 1113.53 -1.17834 0.827715 0
M  V30 11117 H 1115.49 -4.21385 0.0352364 0
M  V30 11118 H 1114.21 -3.19517 -0.676479 0
M  V30 11119 H 1112.87 -3.36746 1.44906 0
M  V30 11120 H 1112.52 -5.01406 -0.400157 0
M  V30 11121 H 1112.22 -5.75372 1.19249 0
M  V30 11122 H 1113.74 -6.09731 0.325673 0
M  V30 11123 H 1115.16 -5.20063 2.41263 0
M  V30 11124 H 1113.55 -5.08003 3.19457 0
M  V30 11125 H 1114.62 -3.66665 3.17309 0
M  V30 11126 N 1115.97 -0.914965 -1.28321 0
M  V30 11127 C 1116.91 -0.402792 -2.27258 0
M  V30 11128 C 1117.88 0.523412 -1.57638 0
M  V30 11129 O 1119.07 0.445344 -1.8553 0
M  V30 11130 C 1116.21 0.349956 -3.43321 0
M  V30 11131 C 1115.32 -0.608892 -4.27687 0
M  V30 11132 C 1114.46 0.162425 -5.30952 0
M  V30 11133 C 1113.49 -0.789959 -6.06981 0
M  V30 11134 N 1112.63 -0.0520826 -7.02081 0
M  V30 11135 H 1117.47 -1.25153 -2.70446 0
M  V30 11136 H 1115.01 -0.628444 -1.33 0
M  V30 11137 H 1116.97 0.802589 -4.09407 0
M  V30 11138 H 1115.6 1.16303 -3.01121 0
M  V30 11139 H 1114.65 -1.18005 -3.61634 0
M  V30 11140 H 1115.96 -1.33727 -4.8054 0
M  V30 11141 H 1115.11 0.675563 -6.02927 0
M  V30 11142 H 1113.85 0.923851 -4.7887 0
M  V30 11143 H 1112.86 -1.31446 -5.33856 0
M  V30 11144 H 1114.08 -1.55096 -6.61152 0
M  V30 11145 H 1112.03 0.691331 -6.52347 0
M  V30 11146 H 1111.95 -0.720267 -7.52561 0
M  V30 11147 H 1113.21 0.44082 -7.78253 0
M  V30 11148 N 1117.44 1.42219 -0.679077 0
M  V30 11149 C 1118.86 1.55737 -0.349034 0
M  V30 11150 C 1119.06 1.65789 1.14527 0
M  V30 11151 O 1118.12 1.62717 1.93079 0
M  V30 11152 C 1119.43 2.80516 -1.0831 0
M  V30 11153 C 1120.98 2.94294 -1.06584 0
M  V30 11154 C 1121.45 4.2194 -1.78132 0
M  V30 11155 N 1122.94 4.28861 -1.75021 0
M  V30 11156 C 1123.68 5.26453 -2.27234 0
M  V30 11157 N 1123.17 6.30171 -2.87847 0
M  V30 11158 N 1124.97 5.1828 -2.17584 0
M  V30 11159 H 1117.12 1.33939 -1.64846 0
M  V30 11160 H 1119.38 0.645029 -0.694725 0
M  V30 11161 H 1119.09 2.79241 -2.13816 0
M  V30 11162 H 1118.96 3.71539 -0.651069 0
M  V30 11163 H 1121.35 2.95094 -0.0191061 0
M  V30 11164 H 1121.43 2.04491 -1.53679 0
M  V30 11165 H 1121.07 4.21901 -2.82776 0
M  V30 11166 H 1121 5.10685 -1.28483 0
M  V30 11167 H 1123.49 3.54537 -1.30814 0
M  V30 11168 H 1123.81 7.01 -3.25298 0
M  V30 11169 H 1122.15 6.30721 -2.91918 0
M  V30 11170 H 1125.34 4.36172 -1.69916 0
M  V30 11171 H 1125.52 5.94172 -2.58581 0
M  V30 11172 O 1118.96 0.564796 1.51302 0
M  V30 11173 H 1119.65 0.0644337 1.93593 0
M  V30 END ATOM
M  V30 BEGIN BOND
M  V30 END BOND
M  V30 END CTAB
M  END
$$$$
