drugbank_target|Q9NPA1 Calcium-activated potassium channel subunit beta-3 (DB00721; DB01110; DB09089)
 OpenBabel12092121003D

  0  0  0     0  0            999 V3000
M  V30 BEGIN CTAB
M  V30 COUNTS 4405 4462 0 0 0
M  V30 BEGIN ATOM
M  V30 1 H -0.908 1.98254 -0.117106 0
M  V30 2 N 0 1.576 0 0
M  V30 3 C 0.933 2.03868 1.02534 0
M  V30 4 C 1.911 0.928543 1.3348 0
M  V30 5 O 3.095 1.19667 1.45644 0
M  V30 6 C 0.222 2.43627 2.35294 0
M  V30 7 C -0.732 3.65373 2.2001 0
M  V30 8 S 0.101 5.13292 1.52614 0
M  V30 9 C 1.257 5.56322 2.86805 0
M  V30 10 H 1.49 2.90518 0.631377 0
M  V30 11 H -0.977 1.52953 0.210867 0
M  V30 12 H 0.981 2.67203 3.11629 0
M  V30 13 H -0.358 1.57376 2.7183 0
M  V30 14 H -1.165 3.90944 3.18086 0
M  V30 15 H -1.563 3.418 1.51819 0
M  V30 16 H 0.729 5.58782 3.83104 0
M  V30 17 H 1.672 6.56266 2.65933 0
M  V30 18 H 2.08 4.83886 2.90714 0
M  V30 19 N 1.4781 -0.272755 1.55222 0
M  V30 20 C 2.7551 -1.02562 1.66555 0
M  V30 21 C 3.1351 -2.04282 0.532189 0
M  V30 22 O 2.4831 -2.23662 -0.467717 0
M  V30 23 C 2.6931 -1.6822 3.05782 0
M  V30 24 C 4.0411 -2.19373 3.63539 0
M  V30 25 O 5.0651 -1.78206 3.08417 0
M  V30 26 O 3.9241 -2.94883 4.60115 0
M  V30 27 H 1.0181 -0.475755 0.676451 0
M  V30 28 H 3.5641 -0.268593 1.67561 0
M  V30 29 H 2.3361 -0.945112 3.79715 0
M  V30 30 H 1.9591 -2.50609 3.08676 0
M  V30 31 N 2.9562 -1.48159 -0.537278 0
M  V30 32 C 4.2032 -1.55804 -1.29349 0
M  V30 33 C 4.5312 -0.228802 -1.9315 0
M  V30 34 O 3.7862 0.780242 -1.79473 0
M  V30 35 C 4.0852 -2.63956 -2.40961 0
M  V30 36 C 3.7512 -4.0662 -1.94861 0
M  V30 37 C 2.4132 -4.45452 -1.82006 0
M  V30 38 C 4.7652 -4.96055 -1.59933 0
M  V30 39 C 2.0932 -5.71531 -1.32547 0
M  V30 40 C 4.4452 -6.22617 -1.11939 0
M  V30 41 C 3.1092 -6.60312 -0.976951 0
M  V30 42 H 2.3792 -0.570129 -0.473322 0
M  V30 43 H 5.0262 -1.81845 -0.600372 0
M  V30 44 H 3.3312 -2.31747 -3.15912 0
M  V30 45 H 5.0282 -2.67089 -2.99107 0
M  V30 46 H 1.6182 -3.75949 -2.05815 0
M  V30 47 H 5.8022 -4.66738 -1.68728 0
M  V30 48 H 1.0582 -5.99468 -1.202 0
M  V30 49 H 5.2322 -6.91318 -0.839811 0
M  V30 50 H 2.8592 -7.57895 -0.591501 0
M  V30 51 N 4.4343 0.785586 -1.36625 0
M  V30 52 C 5.6593 1.57963 -1.34397 0
M  V30 53 C 6.0843 1.87964 0.071526 0
M  V30 54 O 5.4423 1.48182 1.0446 0
M  V30 55 C 5.4903 2.87511 -2.17646 0
M  V30 56 O 4.5943 3.81281 -1.57158 0
M  V30 57 H 3.9353 0.479014 -0.459828 0
M  V30 58 H 6.4653 0.973411 -1.79961 0
M  V30 59 H 6.4753 3.36745 -2.30362 0
M  V30 60 H 5.1503 2.65002 -3.20541 0
M  V30 61 H 3.7273 3.39885 -1.53403 0
M  V30 62 N 5.9124 1.20967 1.01018 0
M  V30 63 C 7.3234 1.02319 1.56165 0
M  V30 64 C 7.6744 -0.418546 1.91684 0
M  V30 65 O 6.7994 -1.30096 1.72928 0
M  V30 66 C 7.3944 1.85109 2.8376 0
M  V30 67 C 5.9534 1.70809 3.35412 0
M  V30 68 C 5.1004 1.82643 2.08655 0
M  V30 69 H 8.0514 1.35065 0.833255 0
M  V30 70 H 8.0724 1.35827 3.55431 0
M  V30 71 H 7.5844 2.90035 2.57878 0
M  V30 72 H 5.6854 0.685464 3.66241 0
M  V30 73 H 5.7984 2.52467 4.07182 0
M  V30 74 H 4.1624 1.25896 2.21409 0
M  V30 75 H 4.9454 2.89066 1.85191 0
M  V30 76 N 7.3905 -1.2043 1.01659 0
M  V30 77 C 8.6155 -1.94318 0.724942 0
M  V30 78 C 9.0405 -1.74266 -0.708034 0
M  V30 79 O 8.3985 -1.03694 -1.48719 0
M  V30 80 C 8.4465 -3.44486 1.06591 0
M  V30 81 O 7.5505 -4.12017 0.177599 0
M  V30 82 H 6.8915 -0.60708 0.26898 0
M  V30 83 H 9.4215 -1.52861 1.35995 0
M  V30 84 H 9.4315 -3.95106 1.01762 0
M  V30 85 H 8.1065 -3.58404 2.10997 0
M  V30 86 H 6.6835 -3.71821 0.283421 0
M  V30 87 N 8.8686 -0.792821 -1.36206 0
M  V30 88 C 10.0936 -0.377701 -2.03932 0
M  V30 89 C 10.5186 0.998947 -1.59382 0
M  V30 90 O 9.8766 1.64421 -0.763903 0
M  V30 91 C 9.9246 -0.453635 -3.57735 0
M  V30 92 O 9.0286 0.538151 -4.08874 0
M  V30 93 H 8.3696 -0.159855 -0.644471 0
M  V30 94 H 10.8996 -1.07488 -1.7409 0
M  V30 95 H 10.9096 -0.318464 -4.06755 0
M  V30 96 H 9.5846 -1.45784 -3.89512 0
M  V30 97 H 8.1616 0.364359 -3.71116 0
M  V30 98 N 10.3467 1.47872 -0.545128 0
M  V30 99 C 11.2567 2.33633 0.212746 0
M  V30 100 C 12.2727 1.4744 0.923983 0
M  V30 101 O 13.4487 1.80393 0.895572 0
M  V30 102 C 10.5137 3.23884 1.23693 0
M  V30 103 C 9.5747 4.25961 0.534417 0
M  V30 104 C 8.8077 5.11899 1.5098 0
M  V30 105 O 9.0307 5.00077 2.7437 0
M  V30 106 O 7.9647 5.92831 1.0409 0
M  V30 107 H 11.7907 2.99714 -0.490416 0
M  V30 108 H 9.3757 1.46235 -0.305871 0
M  V30 109 H 11.2577 3.79666 1.82843 0
M  V30 110 H 9.9327 2.60446 1.92222 0
M  V30 111 H 8.8397 3.73972 -0.0979679 0
M  V30 112 H 10.1727 4.92079 -0.109213 0
M  V30 113 N 11.8248 0.280983 1.55075 0
M  V30 114 C 12.7548 -0.597469 2.25727 0
M  V30 115 C 13.7358 -1.15417 1.24952 0
M  V30 116 O 14.9208 -1.18722 1.53684 0
M  V30 117 C 12.0508 -1.7789 2.98283 0
M  V30 118 C 11.0048 -1.35347 4.06036 0
M  V30 119 C 10.3308 -2.61846 4.66198 0
M  V30 120 C 11.6308 -0.499354 5.19907 0
M  V30 121 H 13.3248 -0.00824265 2.99399 0
M  V30 122 H 10.8708 -0.0025244 1.44 0
M  V30 123 H 12.8238 -2.39937 3.46422 0
M  V30 124 H 11.5478 -2.39405 2.22155 0
M  V30 125 H 10.2068 -0.756156 3.58717 0
M  V30 126 H 9.8548 -3.21632 3.86732 0
M  V30 127 H 9.5548 -2.3409 5.38958 0
M  V30 128 H 11.0788 -3.24732 5.1709 0
M  V30 129 H 12.4928 -1.02498 5.64063 0
M  V30 130 H 10.8898 -0.316424 5.99265 0
M  V30 131 H 11.9598 0.480459 4.82514 0
M  V30 132 N 13.3029 -1.57598 0.00835791 0
M  V30 133 C 14.5509 -1.90551 -0.6734 0
M  V30 134 C 14.8719 -0.883301 -1.73847 0
M  V30 135 O 14.1419 0.0781442 -1.95744 0
M  V30 136 H 12.7219 -0.703312 -0.251717 0
M  V30 137 H 15.3839 -1.94833 0.0512592 0
M  V30 138 H 14.4799 -2.9056 -1.13935 0
M  V30 139 N 14.781 0.264519 -1.55364 0
M  V30 140 C 16.028 0.994986 -1.7637 0
M  V30 141 C 16.356 1.85976 -0.5695 0
M  V30 142 O 15.611 1.90509 0.44776 0
M  V30 143 C 15.91 1.9004 -3.02687 0
M  V30 144 C 15.576 1.19243 -4.34847 0
M  V30 145 C 14.238 0.996709 -4.70764 0
M  V30 146 C 16.59 0.689296 -5.16622 0
M  V30 147 C 13.918 0.285261 -5.86006 0
M  V30 148 C 16.27 -0.00860079 -6.32599 0
M  V30 149 C 14.934 -0.215963 -6.67151 0
M  V30 150 H 14.204 0.364091 -0.645383 0
M  V30 151 H 16.851 0.266543 -1.89636 0
M  V30 152 H 15.156 2.69533 -2.84357 0
M  V30 153 H 16.853 2.46695 -3.16137 0
M  V30 154 H 13.443 1.3549 -4.06621 0
M  V30 155 H 17.627 0.828108 -4.89342 0
M  V30 156 H 12.883 0.113961 -6.11294 0
M  V30 157 H 17.057 -0.406186 -6.95214 0
M  V30 158 H 14.684 -0.769217 -7.56298 0
M  V30 159 N 16.2591 1.48442 0.529413 0
M  V30 160 C 17.2091 1.59407 1.63014 0
M  V30 161 C 18.1931 0.451166 1.54445 0
M  V30 162 O 19.3851 0.702635 1.62456 0
M  V30 163 C 16.5141 1.63746 3.01732 0
M  V30 164 C 15.6001 2.83518 3.15402 0
M  V30 165 N 15.9911 4.07929 2.99045 0
M  V30 166 C 14.2891 2.80862 3.46457 0
M  V30 167 C 14.9901 4.8829 3.16146 0
M  V30 168 N 13.9661 4.21117 3.43746 0
M  V30 169 H 17.7681 2.53343 1.48978 0
M  V30 170 H 15.2821 1.44821 0.734885 0
M  V30 171 H 17.2791 1.69695 3.80801 0
M  V30 172 H 15.9391 0.709264 3.16859 0
M  V30 173 H 16.9501 4.38357 2.75796 0
M  V30 174 H 13.6271 1.97301 3.67938 0
M  V30 175 H 15.0171 5.97028 3.08232 0
M  V30 176 N 17.7372 -0.778329 1.37039 0
M  V30 177 C 18.9842 -1.53665 1.31884 0
M  V30 178 C 19.3122 -1.9425 -0.0986303 0
M  V30 179 O 18.5672 -1.63832 -1.07041 0
M  V30 180 C 18.8662 -2.81845 2.19768 0
M  V30 181 C 18.5322 -2.60345 3.68146 0
M  V30 182 C 17.1942 -2.5419 4.08584 0
M  V30 183 C 19.5462 -2.40923 4.62175 0
M  V30 184 C 16.8742 -2.26594 5.41177 0
M  V30 185 C 19.2262 -2.14852 5.94997 0
M  V30 186 C 17.8902 -2.07137 6.34547 0
M  V30 187 H 17.1602 -0.562299 0.482598 0
M  V30 188 H 19.8072 -0.897069 1.69189 0
M  V30 189 H 18.1122 -3.50328 1.75436 0
M  V30 190 H 19.8092 -3.39692 2.13097 0
M  V30 191 H 16.3992 -2.65996 3.36072 0
M  V30 192 H 20.5832 -2.44673 4.31797 0
M  V30 193 H 15.8392 -2.19111 5.70789 0
M  V30 194 H 20.0132 -1.98822 6.67415 0
M  V30 195 H 17.6402 -1.85518 7.37216 0
M  V30 196 N 19.2153 -1.21501 -1.00376 0
M  V30 197 C 20.4613 -1.03452 -1.74429 0
M  V30 198 C 20.7943 0.430764 -1.89362 0
M  V30 199 O 20.0693 1.31962 -1.42886 0
M  V30 200 C 20.3523 -1.73375 -3.15615 0
M  V30 201 C 20.2053 -3.27431 -3.08397 0
M  V30 202 C 21.5243 -1.47732 -4.14564 0
M  V30 203 H 18.6433 -0.377226 -0.633143 0
M  V30 204 H 21.2853 -1.49693 -1.17013 0
M  V30 205 H 19.4353 -1.34064 -3.64636 0
M  V30 206 H 21.1073 -3.76119 -2.67081 0
M  V30 207 H 19.3503 -3.5767 -2.45468 0
M  V30 208 H 20.0213 -3.71524 -4.08258 0
M  V30 209 H 22.4973 -1.8186 -3.74254 0
M  V30 210 H 21.3733 -1.99169 -5.11491 0
M  V30 211 H 21.6343 -0.407589 -4.40217 0
M  V30 212 N 20.6934 1.19889 -1.02296 0
M  V30 213 C 21.6564 2.21116 -0.603351 0
M  V30 214 C 22.6564 1.5738 0.329884 0
M  V30 215 O 23.8464 1.73802 0.117702 0
M  V30 216 C 20.9784 3.40696 0.117992 0
M  V30 217 H 22.1714 2.59754 -1.49893 0
M  V30 218 H 19.7244 1.33463 -0.813468 0
M  V30 219 H 20.4594 3.07569 1.0282 0
M  V30 220 H 20.2444 3.88188 -0.552511 0
M  V30 221 H 21.7344 4.15692 0.398696 0
M  V30 222 N 22.1715 0.800033 1.35784 0
M  V30 223 C 23.4185 0.377342 1.98953 0
M  V30 224 C 23.7465 -1.05378 1.6348 0
M  V30 225 O 23.0015 -1.74459 0.886707 0
M  V30 226 C 23.3005 0.500276 3.53881 0
M  V30 227 C 22.9665 1.89375 4.09204 0
M  V30 228 C 21.6285 2.27499 4.24025 0
M  V30 229 C 23.9805 2.8057 4.39238 0
M  V30 230 C 21.3085 3.562 4.66195 0
M  V30 231 C 23.6605 4.0871 4.82844 0
M  V30 232 C 22.3245 4.46843 4.95871 0
M  V30 233 H 21.5945 0.138079 0.728021 0
M  V30 234 H 24.2415 1.01955 1.62103 0
M  V30 235 H 22.5465 -0.225405 3.91151 0
M  V30 236 H 24.2435 0.154097 4.00704 0
M  V30 237 H 20.8335 1.58753 3.98115 0
M  V30 238 H 25.0175 2.52367 4.27346 0
M  V30 239 H 20.2735 3.85602 4.74469 0
M  V30 240 H 24.4475 4.79481 5.05046 0
M  V30 241 H 22.0745 5.46623 5.28306 0
M  V30 242 N 23.6496 -1.47581 0.552962 0
M  V30 243 C 24.8986 -2.01684 0.0251995 0
M  V30 244 C 25.2116 -1.43317 -1.33115 0
M  V30 245 O 26.4176 -1.89057 -1.94858 0
M  V30 246 C 24.8736 -3.599 -0.00542052 0
M  V30 247 C 24.4816 -4.27257 1.34742 0
M  V30 248 C 26.2256 -4.21768 -0.4808 0
M  V30 249 C 24.1326 -5.77467 1.27614 0
M  V30 250 H 23.0626 -0.753979 0.00565033 0
M  V30 251 H 25.7136 -1.69616 0.70018 0
M  V30 252 H 24.0956 -3.88911 -0.745961 0
M  V30 253 H 25.2696 -4.09893 2.10534 0
M  V30 254 H 23.5846 -3.77358 1.76039 0
M  V30 255 H 26.1816 -5.31838 -0.55246 0
M  V30 256 H 26.5246 -3.88651 -1.49184 0
M  V30 257 H 27.0576 -3.97273 0.204752 0
M  V30 258 H 23.7966 -6.15196 2.26304 0
M  V30 259 H 23.3166 -5.9718 0.55996 0
M  V30 260 H 24.9956 -6.3959 0.976421 0
M  V30 261 N 25.1277 -0.289203 -1.54924 0
M  V30 262 C 26.0577 0.58549 -2.2604 0
M  V30 263 C 27.0387 1.14753 -1.25562 0
M  V30 264 O 28.2237 1.17906 -1.54311 0
M  V30 265 C 25.3537 1.76305 -2.99222 0
M  V30 266 C 24.3077 1.33191 -4.06748 0
M  V30 267 C 23.6337 2.5937 -4.6758 0
M  V30 268 C 24.9337 0.471775 -5.20165 0
M  V30 269 H 26.6277 -0.00763532 -2.99399 0
M  V30 270 H 24.1737 -0.00511229 -1.43999 0
M  V30 271 H 26.1267 2.38097 -3.47689 0
M  V30 272 H 24.8507 2.38223 -2.23422 0
M  V30 273 H 23.5097 0.737121 -3.59113 0
M  V30 274 H 23.1577 3.19576 -3.88433 0
M  V30 275 H 22.8577 2.31228 -5.40192 0
M  V30 276 H 24.3817 3.21985 -5.18804 0
M  V30 277 H 25.7957 0.995056 -5.64599 0
M  V30 278 H 24.1927 0.284639 -5.99425 0
M  V30 279 H 25.2627 -0.506041 -4.82252 0
M  V30 280 N 26.6058 1.57591 -0.0167156 0
M  V30 281 C 27.5358 2.12496 0.967858 0
M  V30 282 C 28.5168 1.03807 1.34752 0
M  V30 283 O 29.7018 1.31577 1.42833 0
M  V30 284 C 26.8318 2.64194 2.25431 0
M  V30 285 C 25.7858 3.77559 2.01576 0
M  V30 286 C 25.1118 4.15636 3.36379 0
M  V30 287 C 26.4118 5.04151 1.36489 0
M  V30 288 H 28.1058 2.95013 0.510643 0
M  V30 289 H 25.6518 1.41915 0.244181 0
M  V30 290 H 27.6048 3.01236 2.94678 0
M  V30 291 H 26.3288 1.78821 2.73296 0
M  V30 292 H 24.9878 3.40937 1.34751 0
M  V30 293 H 24.6358 3.27263 3.81979 0
M  V30 294 H 24.3358 4.92022 3.21229 0
M  V30 295 H 25.8598 4.5525 4.06915 0
M  V30 296 H 27.2738 5.38857 1.95718 0
M  V30 297 H 25.6708 5.85453 1.31776 0
M  V30 298 H 26.7408 4.83733 0.336219 0
M  V30 299 N 28.0839 -0.256276 1.55502 0
M  V30 300 C 29.3119 -1.00342 1.8094 0
M  V30 301 C 29.7269 -1.79307 0.59114 0
M  V30 302 O 29.0839 -1.77114 -0.440081 0
M  V30 303 C 29.1349 -1.94875 3.04476 0
M  V30 304 O 28.8559 -1.19107 4.21598 0
M  V30 305 C 30.3569 -2.81266 3.42644 0
M  V30 306 H 27.5769 -0.295685 0.602338 0
M  V30 307 H 30.1209 -0.281998 2.02546 0
M  V30 308 H 28.2759 -2.62457 2.84947 0
M  V30 309 H 28.6899 -1.82969 4.91551 0
M  V30 310 H 30.1639 -3.43362 4.32211 0
M  V30 311 H 30.6409 -3.51897 2.62802 0
M  V30 312 H 31.2469 -2.1915 3.64491 0
M  V30 313 N 29.562 -1.4872 -0.521534 0
M  V30 314 C 30.978 -1.35028 -0.850855 0
M  V30 315 C 31.178 -0.367712 -1.98116 0
M  V30 316 O 30.234 0.208037 -2.51642 0
M  V30 317 C 31.547 -2.75263 -1.21041 0
M  V30 318 C 33.095 -2.83813 -1.31981 0
M  V30 319 C 33.57 -4.24769 -1.71276 0
M  V30 320 N 35.061 -4.27482 -1.78363 0
M  V30 321 C 35.796 -5.33494 -2.1017 0
M  V30 322 N 35.292 -6.49775 -2.40343 0
M  V30 323 N 37.085 -5.20894 -2.11248 0
M  V30 324 H 29.236 -2.11214 0.22413 0
M  V30 325 H 31.499 -0.947252 0.0376439 0
M  V30 326 H 31.205 -3.48765 -0.453415 0
M  V30 327 H 31.079 -3.09327 -2.15863 0
M  V30 328 H 33.466 -2.10561 -2.06756 0
M  V30 329 H 33.547 -2.53358 -0.352596 0
M  V30 330 H 33.191 -4.9854 -0.970588 0
M  V30 331 H 33.121 -4.52673 -2.69062 0
M  V30 332 H 35.612 -3.43611 -1.57288 0
M  V30 333 H 35.925 -7.26402 -2.63743 0
M  V30 334 H 34.27 -6.53035 -2.37844 0
M  V30 335 H 37.461 -4.29065 -1.87139 0
M  V30 336 H 37.634 -6.03612 -2.35704 0
M  V30 337 N 31.0401 0.771051 -1.3745 0
M  V30 338 C 31.9901 1.87456 -1.29785 0
M  V30 339 C 32.9741 1.59827 -0.185541 0
M  V30 340 O 34.1661 1.71945 -0.419997 0
M  V30 341 C 31.2951 3.24935 -1.1078 0
M  V30 342 C 30.3811 3.58514 -2.26558 0
M  V30 343 N 30.7721 3.6327 -3.5195 0
M  V30 344 C 29.0701 3.88683 -2.18727 0
M  V30 345 C 29.7711 3.93616 -4.283 0
M  V30 346 N 28.7471 4.09551 -3.57448 0
M  V30 347 H 32.5491 1.89386 -2.24745 0
M  V30 348 H 30.0631 0.967531 -1.30432 0
M  V30 349 H 32.0601 4.03881 -1.03374 0
M  V30 350 H 30.7201 3.24268 -0.16738 0
M  V30 351 H 31.7311 3.45458 -3.85848 0
M  V30 352 H 28.4081 3.95834 -1.32746 0
M  V30 353 H 29.7981 4.04066 -5.36824 0
M  V30 354 N 32.5182 1.22032 0.997298 0
M  V30 355 C 33.9342 0.979326 1.26021 0
M  V30 356 C 34.1342 -0.32972 1.98784 0
M  V30 357 O 33.1902 -1.05345 2.29475 0
M  V30 358 C 34.5032 2.17509 2.07631 0
M  V30 359 C 36.0512 2.21817 2.2083 0
M  V30 360 C 36.5262 3.40933 3.05825 0
M  V30 361 N 38.0172 3.41067 3.13412 0
M  V30 362 C 38.7522 4.29885 3.79455 0
M  V30 363 N 38.2482 5.28914 4.47462 0
M  V30 364 N 40.0412 4.17673 3.76173 0
M  V30 365 H 32.1922 2.06202 0.509352 0
M  V30 366 H 34.4552 0.90334 0.287541 0
M  V30 367 H 34.1612 3.12415 1.61524 0
M  V30 368 H 34.0352 2.17206 3.08385 0
M  V30 369 H 36.4222 1.27462 2.66153 0
M  V30 370 H 36.5032 2.2616 1.1952 0
M  V30 371 H 36.1472 4.35586 2.61203 0
M  V30 372 H 36.0772 3.33829 4.07266 0
M  V30 373 H 38.5682 2.69406 2.65007 0
M  V30 374 H 38.8812 5.92973 4.95583 0
M  V30 375 H 37.2262 5.32831 4.46224 0
M  V30 376 H 40.4172 3.39564 3.22202 0
M  V30 377 H 40.5902 4.87098 4.27363 0
M  V30 378 N 33.9963 -1.19345 1.0293 0
M  V30 379 C 35.2243 -1.92997 0.745644 0
M  V30 380 C 35.6393 -1.75519 -0.695589 0
M  V30 381 O 34.9963 -1.07737 -1.47306 0
M  V30 382 C 35.0473 -3.44741 1.08792 0
M  V30 383 O 34.7683 -3.61658 2.47256 0
M  V30 384 C 36.2693 -4.35515 0.827129 0
M  V30 385 H 33.4893 -0.613042 0.272801 0
M  V30 386 H 36.0333 -1.51473 1.3739 0
M  V30 387 H 34.1883 -3.84097 0.504832 0
M  V30 388 H 34.6023 -4.55514 2.60015 0
M  V30 389 H 36.0763 -5.40589 1.11658 0
M  V30 390 H 36.5533 -4.38552 -0.238436 0
M  V30 391 H 37.1593 -4.01841 1.39297 0
M  V30 392 N 35.4744 -0.807222 -1.35358 0
M  V30 393 C 36.4374 -0.223665 -2.28106 0
M  V30 394 C 37.4374 0.589354 -1.4961 0
M  V30 395 O 38.6274 0.407745 -1.69361 0
M  V30 396 C 35.7594 0.688149 -3.33882 0
M  V30 397 H 36.9524 -1.04169 -2.81227 0
M  V30 398 H 34.5054 -0.577921 -1.45223 0
M  V30 399 H 35.2404 1.52984 -2.85948 0
M  V30 400 H 35.0254 0.10687 -3.91954 0
M  V30 401 H 36.5154 1.09075 -4.03104 0
M  V30 402 N 36.9525 1.47285 -0.560781 0
M  V30 403 C 38.1995 2.02464 -0.038062 0
M  V30 404 C 38.5275 1.43474 1.31322 0
M  V30 405 O 37.7825 0.581311 1.86867 0
M  V30 406 C 38.0815 3.57258 0.100784 0
M  V30 407 C 37.7475 4.35184 -1.18007 0
M  V30 408 C 36.4095 4.56194 -1.53103 0
M  V30 409 C 38.7615 4.80098 -2.02867 0
M  V30 410 C 36.0895 5.19367 -2.729 0
M  V30 411 C 38.4415 5.44593 -3.21871 0
M  V30 412 C 37.1055 5.63835 -3.57276 0
M  V30 413 H 36.3755 0.740869 -0.0139279 0
M  V30 414 H 39.0225 1.76916 -0.733012 0
M  V30 415 H 37.3275 3.81819 0.878724 0
M  V30 416 H 39.0245 3.97606 0.520639 0
M  V30 417 H 35.6145 4.19113 -0.8968 0
M  V30 418 H 39.7985 4.63642 -1.7706 0
M  V30 419 H 35.0545 5.32459 -3.00496 0
M  V30 420 H 39.2285 5.78358 -3.87911 0
M  V30 421 H 36.8555 6.12557 -4.50197 0
M  V30 422 N 38.4306 0.297415 1.54768 0
M  V30 423 C 39.8416 -0.195947 1.85669 0
M  V30 424 C 40.1926 -1.53707 1.21937 0
M  V30 425 O 39.3176 -2.10164 0.515754 0
M  V30 426 C 39.9126 -0.362318 3.36857 0
M  V30 427 C 38.4716 -0.799901 3.67802 0
M  V30 428 C 37.6186 0.0938578 2.77141 0
M  V30 429 H 40.5696 0.518538 1.4999 0
M  V30 430 H 40.5906 -1.19745 3.61167 0
M  V30 431 H 40.1026 0.613921 3.83214 0
M  V30 432 H 38.2036 -1.78682 3.26961 0
M  V30 433 H 38.3166 -0.621773 4.75048 0
M  V30 434 H 36.6806 -0.426254 2.51108 0
M  V30 435 H 37.4636 1.06639 3.26318 0
M  V30 436 N 39.9087 -1.5758 0.0250728 0
M  V30 437 C 40.8717 -2.08896 -0.943139 0
M  V30 438 C 41.8717 -1.00321 -1.25668 0
M  V30 439 O 43.0617 -1.26495 -1.19769 0
M  V30 440 C 40.1937 -2.55143 -2.26086 0
M  V30 441 H 41.3867 -2.95723 -0.498775 0
M  V30 442 H 38.9397 -1.54703 -0.222888 0
M  V30 443 H 39.6747 -1.71633 -2.75159 0
M  V30 444 H 39.4597 -3.34461 -2.04641 0
M  V30 445 H 40.9497 -2.95083 -2.95492 0
M  V30 446 N 41.3868 0.248026 -1.55636 0
M  V30 447 C 42.6118 0.998028 -1.81808 0
M  V30 448 C 43.0368 1.78207 -0.601979 0
M  V30 449 O 42.3948 1.75653 0.448961 0
M  V30 450 C 42.4428 1.9125 -3.05705 0
M  V30 451 O 41.5468 3.00406 -2.82542 0
M  V30 452 H 40.8878 0.284045 -0.600179 0
M  V30 453 H 43.4178 0.269357 -2.02819 0
M  V30 454 H 43.4278 2.32737 -3.35108 0
M  V30 455 H 42.1028 1.33602 -3.93857 0
M  V30 456 H 40.6798 2.63056 -2.64303 0
M  V30 457 N 42.8649 1.48995 0.513639 0
M  V30 458 C 44.1129 1.57531 1.26604 0
M  V30 459 C 44.4339 0.258236 1.93283 0
M  V30 460 O 43.7039 -0.721502 1.8213 0
M  V30 461 H 42.2839 0.580387 0.470276 0
M  V30 462 H 44.9459 1.85552 0.596373 0
M  V30 463 H 44.0419 2.36486 2.03669 0
M  V30 464 N 44.343 -0.763751 1.37857 0
M  V30 465 C 45.29 -1.87726 1.34267 0
M  V30 466 C 46.26 -1.64807 0.206879 0
M  V30 467 O 47.445 -1.86613 0.397508 0
M  V30 468 C 44.585 -3.24896 1.16346 0
M  V30 469 C 43.698 -3.59716 2.39225 0
M  V30 470 C 42.833 -4.86137 2.14114 0
M  V30 471 C 41.872 -5.13711 3.32817 0
M  V30 472 N 41.009 -6.31323 3.07206 0
M  V30 473 H 45.849 -1.90129 2.29466 0
M  V30 474 H 43.386 -0.929433 1.14017 0
M  V30 475 H 45.344 -4.04036 1.03975 0
M  V30 476 H 43.974 -3.21847 0.247909 0
M  V30 477 H 43.026 -2.75498 2.62307 0
M  V30 478 H 44.338 -3.76027 3.27728 0
M  V30 479 H 43.492 -5.73198 1.9882 0
M  V30 480 H 42.231 -4.71945 1.22961 0
M  V30 481 H 41.236 -4.25123 3.48641 0
M  V30 482 H 42.461 -5.29807 4.24832 0
M  V30 483 H 40.407 -6.18474 2.1869 0
M  V30 484 H 40.324 -6.48087 3.89254 0
M  V30 485 H 41.592 -7.213 2.95546 0
M  V30 486 N 45.8211 -1.22559 -0.990812 0
M  V30 487 C 46.7681 -0.997519 -2.0813 0
M  V30 488 C 47.7381 0.0814702 -1.659 0
M  V30 489 O 48.9231 -0.0685424 -1.90677 0
M  V30 490 C 46.0631 -0.583615 -3.40129 0
M  V30 491 C 45.1761 -1.7336 -3.9569 0
M  V30 492 C 44.3111 -1.26748 -5.15857 0
M  V30 493 C 43.3501 -2.38888 -5.63559 0
M  V30 494 N 42.4871 -1.93308 -6.74964 0
M  V30 495 H 47.3271 -1.93099 -2.26973 0
M  V30 496 H 44.8641 -0.962114 -1.11273 0
M  V30 497 H 46.8221 -0.324801 -4.15934 0
M  V30 498 H 45.4521 0.312845 -3.2128 0
M  V30 499 H 44.5041 -2.10669 -3.16738 0
M  V30 500 H 45.8161 -2.57704 -4.27071 0
M  V30 501 H 44.9701 -0.966173 -5.98957 0
M  V30 502 H 43.7091 -0.394272 -4.86104 0
M  V30 503 H 42.7141 -2.69805 -4.79046 0
M  V30 504 H 43.9391 -3.26728 -5.95336 0
M  V30 505 H 41.8851 -1.08352 -6.4699 0
M  V30 506 H 41.8021 -2.71217 -7.05675 0
M  V30 507 H 43.0701 -1.66252 -7.61564 0
M  V30 508 N 47.2992 1.18797 -1.03562 0
M  V30 509 C 48.7152 1.40671 -0.753917 0
M  V30 510 C 48.9152 1.9043 0.658686 0
M  V30 511 O 47.9712 2.08538 1.42366 0
M  V30 512 C 49.2842 2.41192 -1.79574 0
M  V30 513 C 50.8322 2.54928 -1.81606 0
M  V30 514 C 51.3072 3.58709 -2.84766 0
M  V30 515 N 52.7982 3.66212 -2.83625 0
M  V30 516 C 53.5332 4.46225 -3.60098 0
M  V30 517 N 53.0292 5.29888 -4.46308 0
M  V30 518 N 54.8222 4.40939 -3.4861 0
M  V30 519 H 46.9732 0.848221 -1.94728 0
M  V30 520 H 49.2362 0.435081 -0.842264 0
M  V30 521 H 48.9422 2.11669 -2.80872 0
M  V30 522 H 48.8162 3.40467 -1.62365 0
M  V30 523 H 51.2032 2.83771 -0.809817 0
M  V30 524 H 51.2842 1.55784 -2.02891 0
M  V30 525 H 50.9282 3.30607 -3.85566 0
M  V30 526 H 50.8582 4.57519 -2.60737 0
M  V30 527 H 53.3492 3.06466 -2.21105 0
M  V30 528 H 53.6622 5.88078 -5.01382 0
M  V30 529 H 52.0072 5.29326 -4.50377 0
M  V30 530 H 55.1982 3.74624 -2.80668 0
M  V30 531 H 55.3712 5.03056 -4.08459 0
M  V30 532 N 48.7773 0.814389 1.34928 0
M  V30 533 C 49.6873 0.231978 2.3345 0
M  V30 534 C 50.7033 -0.629139 1.62228 0
M  V30 535 O 51.8793 -0.539052 1.94052 0
M  V30 536 C 48.9443 -0.603482 3.41407 0
M  V30 537 C 48.0053 0.279037 4.28392 0
M  V30 538 C 47.2383 -0.516643 5.31193 0
M  V30 539 O 47.4613 -1.75068 5.4287 0
M  V30 540 O 46.3953 0.0965652 6.01823 0
M  V30 541 H 50.2213 1.04721 2.85074 0
M  V30 542 H 47.8063 0.576343 1.37836 0
M  V30 543 H 49.6883 -1.07908 4.0735 0
M  V30 544 H 48.3633 -1.39618 2.92042 0
M  V30 545 H 47.2703 0.801948 3.65403 0
M  V30 546 H 48.6033 1.03588 4.81176 0
M  V30 547 N 50.2554 -1.46986 0.568584 0
M  V30 548 C 51.4834 -2.0683 0.0539956 0
M  V30 549 C 51.8984 -1.41953 -1.24478 0
M  V30 550 O 51.2554 -0.519933 -1.74937 0
M  V30 551 C 51.3064 -3.61254 -0.133362 0
M  V30 552 O 51.0274 -4.237 1.11399 0
M  V30 553 C 52.5284 -4.37992 -0.683927 0
M  V30 554 H 49.7484 -0.669058 0.0510141 0
M  V30 555 H 52.2924 -1.88824 0.785234 0
M  V30 556 H 50.4474 -3.78735 -0.81477 0
M  V30 557 H 50.8614 -5.16388 0.91888 0
M  V30 558 H 52.3354 -5.46684 -0.764263 0
M  V30 559 H 52.8124 -4.05058 -1.69778 0
M  V30 560 H 53.4184 -4.25283 -0.0378494 0
M  V30 561 N 51.7335 -0.305618 -1.54608 0
M  V30 562 C 53.0105 0.355652 -1.92339 0
M  V30 563 C 53.3905 1.71324 -1.23335 0
M  V30 564 O 52.7385 2.25473 -0.370702 0
M  V30 565 C 52.9485 0.46572 -3.45879 0
M  V30 566 C 54.2965 0.734426 -4.182 0
M  V30 567 O 55.3205 0.54935 -3.51938 0
M  V30 568 O 54.1795 1.09024 -5.35515 0
M  V30 569 H 51.2735 0.199666 -0.802535 0
M  V30 570 H 53.8195 -0.354017 -1.65966 0
M  V30 571 H 52.5915 -0.488461 -3.88239 0
M  V30 572 H 52.2145 1.22367 -3.78301 0
M  V30 573 N 53.2116 1.57565 -0.0334293 0
M  V30 574 C 54.4416 1.95996 0.653398 0
M  V30 575 C 54.8496 0.908749 1.65947 0
M  V30 576 O 54.1926 -0.117471 1.83324 0
M  V30 577 C 54.2546 3.30589 1.41249 0
M  V30 578 C 53.9186 4.53503 0.564263 0
M  V30 579 C 54.9156 5.19647 -0.16225 0
M  V30 580 C 52.6006 4.99801 0.500398 0
M  V30 581 C 54.5946 6.30412 -0.941255 0
M  V30 582 C 52.2816 6.10448 -0.282308 0
M  V30 583 C 53.2796 6.75612 -1.00184 0
M  V30 584 O 52.9676 7.84134 -1.77171 0
M  V30 585 H 52.6996 0.65027 0.184728 0
M  V30 586 H 55.2536 2.05199 -0.0907841 0
M  V30 587 H 53.4836 3.17888 2.20191 0
M  V30 588 H 55.1726 3.53892 1.98784 0
M  V30 589 H 55.9386 4.84846 -0.12227 0
M  V30 590 H 51.8176 4.48883 1.05002 0
M  V30 591 H 55.3616 6.81208 -1.50339 0
M  V30 592 H 51.2586 6.44686 -0.323989 0
M  V30 593 H 52.0266 8.00822 -1.69194 0
M  V30 594 N 54.6897 -0.239769 1.55765 0
M  V30 595 C 55.9147 -0.988373 1.82335 0
M  V30 596 C 56.3397 -1.77886 0.611421 0
M  V30 597 O 55.6977 -1.75889 -0.439639 0
M  V30 598 C 55.7457 -1.89627 3.06715 0
M  V30 599 O 54.8497 -2.98904 2.84131 0
M  V30 600 H 54.1907 -0.280858 0.601677 0
M  V30 601 H 56.7207 -0.258597 2.02959 0
M  V30 602 H 56.7307 -2.30957 3.36338 0
M  V30 603 H 55.4057 -1.31511 3.9456 0
M  V30 604 H 53.9827 -2.61651 2.65694 0
M  V30 605 N 56.1678 -1.49265 -0.50573 0
M  V30 606 C 57.4448 -1.49012 -1.26707 0
M  V30 607 C 57.8248 -0.215205 -2.1 0
M  V30 608 O 57.1728 0.802547 -2.13943 0
M  V30 609 C 57.3828 -2.7663 -2.12783 0
M  V30 610 C 58.7308 -3.25932 -2.72127 0
M  V30 611 O 59.7548 -2.77715 -2.23054 0
M  V30 612 O 58.6138 -4.09897 -3.61451 0
M  V30 613 H 55.7078 -0.596197 -0.57313 0
M  V30 614 H 58.2538 -1.61524 -0.52039 0
M  V30 615 H 57.0258 -3.60916 -1.5118 0
M  V30 616 H 56.6488 -2.66956 -2.94653 0
M  V30 617 N 57.6459 0.756429 -1.3826 0
M  V30 618 C 58.8939 1.51248 -1.34047 0
M  V30 619 C 59.2149 1.94875 0.0698372 0
M  V30 620 O 58.4849 1.67436 1.01696 0
M  V30 621 H 57.0649 0.561018 -0.493222 0
M  V30 622 H 59.7269 0.899347 -1.7291 0
M  V30 623 H 58.8229 2.40472 -1.98947 0
M  V30 624 N 59.124 1.23083 0.984299 0
M  V30 625 C 60.401 0.9689 1.69917 0
M  V30 626 C 60.781 -0.513604 2.04757 0
M  V30 627 O 60.129 -1.48383 1.73767 0
M  V30 628 C 60.339 1.87518 2.94343 0
M  V30 629 C 61.687 2.13636 3.6694 0
M  V30 630 O 62.711 1.85036 3.04368 0
M  V30 631 O 61.57 2.62119 4.79537 0
M  V30 632 H 58.664 0.365095 0.742048 0
M  V30 633 H 61.21 1.34107 1.03987 0
M  V30 634 H 59.982 2.87756 2.65164 0
M  V30 635 H 59.605 1.50514 3.6801 0
M  V30 636 N 60.6021 -1.18246 1.0419 0
M  V30 637 C 62.0131 -1.69914 0.773698 0
M  V30 638 C 62.3641 -1.83085 -0.705297 0
M  V30 639 O 61.4891 -1.51123 -1.5489 0
M  V30 640 C 62.0841 -3.08619 1.39784 0
M  V30 641 C 60.6431 -3.57494 1.17792 0
M  V30 642 C 59.7901 -2.34013 1.48773 0
M  V30 643 H 62.7411 -1.02904 1.20816 0
M  V30 644 H 62.7621 -3.71958 0.801714 0
M  V30 645 H 62.2741 -2.99001 2.47426 0
M  V30 646 H 60.3751 -3.72406 0.120295 0
M  V30 647 H 60.4881 -4.40852 1.87581 0
M  V30 648 H 58.8521 -2.37986 0.907463 0
M  V30 649 H 59.6351 -2.27013 2.57527 0
M  V30 650 N 62.0802 -0.821533 -1.34494 0
M  V30 651 C 63.0102 -0.257138 -2.3208 0
M  V30 652 C 63.9912 0.625645 -1.58176 0
M  V30 653 O 65.1762 0.552811 -1.86166 0
M  V30 654 C 62.3062 0.582958 -3.42372 0
M  V30 655 C 61.2602 -0.202571 -4.2752 0
M  V30 656 C 60.5862 0.760179 -5.29269 0
M  V30 657 C 61.8862 -1.40998 -5.02908 0
M  V30 658 H 63.5802 -1.07247 -2.79532 0
M  V30 659 H 61.1262 -0.517163 -1.34393 0
M  V30 660 H 63.0792 0.987972 -4.09655 0
M  V30 661 H 61.8032 1.43133 -2.93565 0
M  V30 662 H 60.4622 -0.588936 -3.61838 0
M  V30 663 H 60.1102 1.60447 -4.76724 0
M  V30 664 H 59.8102 0.238809 -5.87115 0
M  V30 665 H 61.3342 1.16308 -5.9942 0
M  V30 666 H 62.7482 -1.07905 -5.63054 0
M  V30 667 H 61.1452 -1.86689 -5.70322 0
M  V30 668 H 62.2152 -2.1889 -4.32684 0
M  V30 669 N 63.5583 1.46682 -0.576371 0
M  V30 670 C 64.8353 1.95599 0.00703437 0
M  V30 671 C 65.2153 1.51904 1.46589 0
M  V30 672 O 64.5633 0.766755 2.15251 0
M  V30 673 C 64.7733 3.4864 -0.158404 0
M  V30 674 C 66.1213 4.24594 -0.0229439 0
M  V30 675 O 67.1453 3.56094 -0.0869173 0
M  V30 676 O 66.0043 5.46373 0.118015 0
M  V30 677 H 63.0983 0.825275 0.053384 0
M  V30 678 H 65.6443 1.56996 -0.644244 0
M  V30 679 H 64.4163 3.7331 -1.17282 0
M  V30 680 H 64.0393 3.94057 0.5296 0
M  V30 681 N 65.0364 0.313813 1.54444 0
M  V30 682 C 66.2824 -0.292108 2.00685 0
M  V30 683 C 66.6154 -1.52548 1.20177 0
M  V30 684 O 65.8904 -1.92452 0.281531 0
M  V30 685 C 66.1734 -0.635968 3.5444 0
M  V30 686 C 66.0264 0.607437 4.4568 0
M  V30 687 C 67.3454 -1.45747 4.15266 0
M  V30 688 H 64.4644 -0.104697 0.729526 0
M  V30 689 H 67.1064 0.428457 1.85106 0
M  V30 690 H 65.2564 -1.24986 3.67846 0
M  V30 691 H 66.9284 1.24581 4.44159 0
M  V30 692 H 65.1714 1.23822 4.15753 0
M  V30 693 H 65.8424 0.322515 5.51057 0
M  V30 694 H 68.3184 -0.938645 4.05375 0
M  V30 695 H 67.1944 -1.66683 5.2298 0
M  V30 696 H 67.4554 -2.45063 3.67963 0
M  V30 697 N 66.5145 -1.57545 0.0417849 0
M  V30 698 C 67.4645 -2.07483 -0.945247 0
M  V30 699 C 68.4485 -0.977983 -1.27767 0
M  V30 700 O 69.6405 -1.24142 -1.26166 0
M  V30 701 C 66.7695 -2.61576 -2.22335 0
M  V30 702 C 65.8555 -3.78213 -1.91874 0
M  V30 703 N 66.2465 -4.88344 -1.31733 0
M  V30 704 C 64.5445 -3.8694 -2.21796 0
M  V30 705 C 65.2455 -5.69462 -1.1869 0
M  V30 706 N 64.2215 -5.16771 -1.68666 0
M  V30 707 H 68.0235 -2.90029 -0.475441 0
M  V30 708 H 65.5375 -1.61581 -0.162911 0
M  V30 709 H 67.5345 -2.95651 -2.93932 0
M  V30 710 H 66.1945 -1.80465 -2.69931 0
M  V30 711 H 67.2055 -5.08335 -0.990729 0
M  V30 712 H 63.8825 -3.16757 -2.71977 0
M  V30 713 H 65.2725 -6.68023 -0.720793 0
M  V30 714 N 67.9926 0.231505 -1.5589 0
M  V30 715 C 68.9396 1.28682 -1.91598 0
M  V30 716 C 69.9096 1.47071 -0.771974 0
M  V30 717 O 71.0946 1.60802 -1.027 0
M  V30 718 C 68.2346 2.6342 -2.22944 0
M  V30 719 C 67.3476 2.52912 -3.50228 0
M  V30 720 C 66.4826 3.80106 -3.7107 0
M  V30 721 C 65.5216 3.64279 -4.91902 0
M  V30 722 N 64.6586 4.834 -5.09184 0
M  V30 723 H 69.4986 0.975305 -2.81588 0
M  V30 724 H 67.0356 0.470299 -1.39379 0
M  V30 725 H 68.9936 3.41869 -2.39126 0
M  V30 726 H 67.6236 2.92687 -1.36139 0
M  V30 727 H 66.6756 1.6595 -3.42294 0
M  V30 728 H 67.9876 2.37133 -4.38827 0
M  V30 729 H 67.1416 4.66999 -3.87295 0
M  V30 730 H 65.8806 3.98799 -2.80733 0
M  V30 731 H 64.8856 2.7577 -4.75637 0
M  V30 732 H 66.1106 3.47067 -5.83714 0
M  V30 733 H 64.0566 5.02425 -4.21788 0
M  V30 734 H 63.9736 4.70311 -5.91898 0
M  V30 735 H 65.2416 5.71747 -5.29835 0
M  V30 736 N 69.4707 1.49531 0.497807 0
M  V30 737 C 70.8867 1.36365 0.829266 0
M  V30 738 C 71.0867 0.399184 1.97506 0
M  V30 739 O 70.1427 -0.167977 2.51941 0
M  V30 740 C 71.4557 2.77153 1.16647 0
M  V30 741 C 73.0037 2.85877 1.27449 0
M  V30 742 C 73.4787 4.2744 1.64497 0
M  V30 743 N 74.9697 4.30265 1.7154 0
M  V30 744 C 75.7047 5.3677 2.01656 0
M  V30 745 N 75.2007 6.53516 2.29976 0
M  V30 746 N 76.9937 5.24189 2.02934 0
M  V30 747 H 69.1447 2.10831 -0.257703 0
M  V30 748 H 71.4077 0.946534 -0.0527091 0
M  V30 749 H 71.1137 3.49442 0.397872 0
M  V30 750 H 70.9877 3.12722 2.10915 0
M  V30 751 H 73.3747 2.13824 2.0338 0
M  V30 752 H 73.4557 2.53887 0.312244 0
M  V30 753 H 73.0997 5.00021 0.891151 0
M  V30 754 H 73.0297 4.56896 2.61827 0
M  V30 755 H 75.5207 3.4607 1.51802 0
M  V30 756 H 75.8337 7.30506 2.52153 0
M  V30 757 H 74.1787 6.56737 2.27425 0
M  V30 758 H 77.3697 4.31988 1.80289 0
M  V30 759 H 77.5427 6.07286 2.26071 0
M  V30 760 N 70.9488 -0.749086 1.3866 0
M  V30 761 C 71.8788 -1.8764 1.38973 0
M  V30 762 C 72.8598 -1.68178 0.255004 0
M  V30 763 O 74.0448 -1.88704 0.458754 0
M  V30 764 C 71.1748 -3.25222 1.21851 0
M  V30 765 C 70.1288 -3.59295 2.32575 0
M  V30 766 C 69.4548 -4.95663 2.00555 0
M  V30 767 C 70.7548 -3.63709 3.7485 0
M  V30 768 H 72.4488 -1.87635 2.3331 0
M  V30 769 H 69.9948 -0.901329 1.12303 0
M  V30 770 H 71.9478 -4.03746 1.20695 0
M  V30 771 H 70.6718 -3.25719 0.239775 0
M  V30 772 H 69.3308 -2.83093 2.32925 0
M  V30 773 H 68.9788 -4.92724 1.01154 0
M  V30 774 H 68.6788 -5.19429 2.74714 0
M  V30 775 H 70.2028 -5.7656 2.01024 0
M  V30 776 H 71.6168 -4.32338 3.76506 0
M  V30 777 H 70.0138 -3.98986 4.48252 0
M  V30 778 H 71.0838 -2.63834 4.06841 0
M  V30 779 N 72.4269 -1.23603 -0.977757 0
M  V30 780 C 73.8379 -1.06424 -1.53398 0
M  V30 781 C 74.1889 0.367578 -1.92726 0
M  V30 782 O 73.3139 1.25465 -1.76316 0
M  V30 783 C 73.9089 -1.92568 -2.78753 0
M  V30 784 C 72.4679 -1.79642 -3.30765 0
M  V30 785 C 71.6149 -1.88111 -2.03739 0
M  V30 786 H 74.5659 -1.37227 -0.797152 0
M  V30 787 H 74.5869 -1.45203 -3.51705 0
M  V30 788 H 74.0989 -2.96771 -2.50098 0
M  V30 789 H 72.1999 -0.782325 -3.64294 0
M  V30 790 H 72.3129 -2.63174 -4.00345 0
M  V30 791 H 70.6769 -1.31723 -2.17994 0
M  V30 792 H 71.4599 -2.93875 -1.77461 0
M  V30 793 N 73.905 1.17692 -1.04816 0
M  V30 794 C 75.13 1.92327 -0.776207 0
M  V30 795 C 75.555 1.76082 0.661581 0
M  V30 796 O 74.913 1.076 1.45917 0
M  V30 797 C 74.961 3.41539 -1.15687 0
M  V30 798 O 74.065 4.11402 -0.286775 0
M  V30 799 H 73.406 0.599735 -0.284981 0
M  V30 800 H 75.936 1.49201 -1.4 0
M  V30 801 H 75.946 3.92269 -1.12202 0
M  V30 802 H 74.621 3.52684 -2.20425 0
M  V30 803 H 73.198 3.70939 -0.381903 0
M  V30 804 N 75.3831 0.828654 1.34056 0
M  V30 805 C 76.6081 0.431637 2.02859 0
M  V30 806 C 77.0331 -0.956339 1.61975 0
M  V30 807 O 76.3911 -1.62338 0.807228 0
M  V30 808 C 76.4391 0.548323 3.56407 0
M  V30 809 O 75.5431 -0.429556 4.10157 0
M  V30 810 H 74.8841 0.176886 0.640006 0
M  V30 811 H 77.4141 1.12066 1.71179 0
M  V30 812 H 77.4241 0.426196 4.05768 0
M  V30 813 H 76.0991 1.5606 3.8551 0
M  V30 814 H 74.6761 -0.265836 3.71951 0
M  V30 815 N 76.8612 -1.46375 0.584142 0
M  V30 816 C 77.8242 -2.28784 -0.138108 0
M  V30 817 C 78.8242 -1.38471 -0.817462 0
M  V30 818 O 80.0142 -1.60833 -0.669199 0
M  V30 819 C 77.1462 -3.18892 -1.20503 0
M  V30 820 H 78.3392 -2.94117 0.586127 0
M  V30 821 H 75.8922 -1.52509 0.342171 0
M  V30 822 H 76.6272 -2.58309 -1.96079 0
M  V30 823 H 76.4122 -3.85388 -0.722384 0
M  V30 824 H 77.9022 -3.80914 -1.71155 0
M  V30 825 N 78.3393 -0.321999 -1.54275 0
M  V30 826 C 79.5873 0.280489 -2.00144 0
M  V30 827 C 79.9083 1.52777 -1.21178 0
M  V30 828 O 79.1783 1.9338 -0.313187 0
M  V30 829 H 77.7583 0.106632 -0.73935 0
M  V30 830 H 80.4203 -0.438184 -1.8991 0
M  V30 831 H 79.5163 0.537972 -3.07428 0
M  V30 832 N 79.8174 1.5752 -0.0501392 0
M  V30 833 C 80.7274 2.14952 0.939827 0
M  V30 834 C 81.7434 1.10706 1.34239 0
M  V30 835 O 82.9194 1.42869 1.41952 0
M  V30 836 C 79.9844 2.68232 2.19665 0
M  V30 837 C 79.0454 3.87272 1.85253 0
M  V30 838 C 78.2784 4.38002 3.04943 0
M  V30 839 O 78.5014 3.87811 4.18281 0
M  V30 840 O 77.4354 5.29602 2.86017 0
M  V30 841 H 81.2614 2.9986 0.481392 0
M  V30 842 H 78.8464 1.4841 0.171699 0
M  V30 843 H 80.7284 3.02475 2.93406 0
M  V30 844 H 79.4034 1.86395 2.64648 0
M  V30 845 H 78.3104 3.5792 1.0883 0
M  V30 846 H 79.6434 4.70336 1.4507 0
M  V30 847 N 81.2955 -0.223234 1.56011 0
M  V30 848 C 82.5725 -0.972108 1.69733 0
M  V30 849 C 82.9525 -2.02485 0.59691 0
M  V30 850 O 82.3005 -2.25037 -0.396324 0
M  V30 851 C 82.5105 -1.58407 3.10979 0
M  V30 852 C 83.8585 -2.07696 3.70334 0
M  V30 853 O 84.8825 -1.68304 3.1393 0
M  V30 854 O 83.7415 -2.80096 4.69264 0
M  V30 855 H 80.8355 -0.453993 0.691245 0
M  V30 856 H 83.3815 -0.215149 1.68331 0
M  V30 857 H 82.1535 -0.823831 3.82529 0
M  V30 858 H 81.7765 -2.40661 3.16493 0
M  V30 859 N 82.7736 -1.49793 -0.48987 0
M  V30 860 C 84.1896 -1.36803 -0.822022 0
M  V30 861 C 84.3896 -0.409652 -1.97292 0
M  V30 862 O 83.4456 0.154614 -2.52026 0
M  V30 863 C 84.7586 -2.77768 -1.15175 0
M  V30 864 C 86.3066 -2.86549 -1.25931 0
M  V30 865 C 86.7816 -4.28306 -1.62228 0
M  V30 866 N 88.2726 -4.31169 -1.69256 0
M  V30 867 C 89.0076 -5.37832 -1.98807 0
M  V30 868 N 88.5036 -6.54726 -2.26507 0
M  V30 869 N 90.2966 -5.25258 -2.00152 0
M  V30 870 H 82.4476 -2.10691 0.268881 0
M  V30 871 H 84.7106 -0.946241 0.057728 0
M  V30 872 H 84.4166 -3.49648 -0.379335 0
M  V30 873 H 84.2906 -3.13836 -2.09253 0
M  V30 874 H 86.6776 -2.14899 -2.02243 0
M  V30 875 H 86.7586 -2.54049 -0.298776 0
M  V30 876 H 86.4026 -5.00486 -0.864622 0
M  V30 877 H 86.3326 -4.58279 -2.594 0
M  V30 878 H 88.8236 -3.4687 -1.49965 0
M  V30 879 H 89.1366 -7.31833 -2.48276 0
M  V30 880 H 87.4816 -6.57933 -2.23939 0
M  V30 881 H 90.6726 -4.32938 -1.77996 0
M  V30 882 H 90.8456 -6.08476 -2.22848 0
M  V30 883 N 84.2517 0.741722 -1.39055 0
M  V30 884 C 85.2147 1.83733 -1.37021 0
M  V30 885 C 86.2147 1.58542 -0.268534 0
M  V30 886 O 87.4047 1.66067 -0.526076 0
M  V30 887 C 84.5367 3.2141 -1.13617 0
M  V30 888 H 85.7297 1.86941 -2.34506 0
M  V30 889 H 83.2827 0.944676 -1.24521 0
M  V30 890 H 84.0177 3.23865 -0.167863 0
M  V30 891 H 83.8027 3.4109 -1.93391 0
M  V30 892 H 85.2927 4.01477 -1.14918 0
M  V30 893 N 85.7298 1.2412 0.971189 0
M  V30 894 C 86.9758 1.08041 1.71625 0
M  V30 895 C 87.3088 -0.380407 1.90438 0
M  V30 896 O 86.5838 -1.28127 1.46334 0
M  V30 897 C 86.8668 1.81682 3.10908 0
M  V30 898 C 86.7198 3.35493 2.99608 0
M  V30 899 C 88.0388 1.58671 4.10501 0
M  V30 900 H 85.1578 0.39388 0.622919 0
M  V30 901 H 87.7998 1.52743 1.13003 0
M  V30 902 H 85.9498 1.43684 3.60953 0
M  V30 903 H 87.6218 3.83068 2.57015 0
M  V30 904 H 85.8648 3.64052 2.35899 0
M  V30 905 H 86.5358 3.82217 3.98264 0
M  V30 906 H 89.0118 1.91719 3.69301 0
M  V30 907 H 87.8878 2.1266 5.06031 0
M  V30 908 H 88.1488 0.524161 4.38982 0
M  V30 909 N 87.2079 -1.17134 1.05439 0
M  V30 910 C 88.1409 -2.2012 0.601855 0
M  V30 911 C 89.1189 -1.58314 -0.370854 0
M  V30 912 O 90.3029 -1.8638 -0.281882 0
M  V30 913 C 87.4299 -3.38491 -0.118868 0
M  V30 914 C 86.4759 -4.18752 0.809242 0
M  V30 915 S 87.3089 -4.83602 2.29977 0
M  V30 916 C 88.4649 -6.0536 1.59029 0
M  V30 917 H 88.6979 -2.58165 1.47438 0
M  V30 918 H 86.2309 -1.27788 0.866573 0
M  V30 919 H 88.1889 -4.07084 -0.528495 0
M  V30 920 H 86.8499 -2.98829 -0.967465 0
M  V30 921 H 86.0429 -5.03373 0.251379 0
M  V30 922 H 85.6449 -3.5561 1.15835 0
M  V30 923 H 87.9369 -6.71615 0.891017 0
M  V30 924 H 88.8799 -6.65679 2.41407 0
M  V30 925 H 89.2879 -5.54138 1.07663 0
M  V30 926 N 88.686 -0.835752 -1.33615 0
M  V30 927 C 89.616 -0.281739 -2.31794 0
M  V30 928 C 90.597 0.608833 -1.58831 0
M  V30 929 O 91.782 0.533035 -1.86741 0
M  V30 930 C 88.912 0.546612 -3.42971 0
M  V30 931 C 87.866 -0.247904 -4.27281 0
M  V30 932 C 87.192 0.704001 -5.30045 0
M  V30 933 C 88.492 -1.46324 -5.01385 0
M  V30 934 H 90.186 -1.10206 -2.78379 0
M  V30 935 H 87.732 -0.531388 -1.33837 0
M  V30 936 H 89.685 0.944467 -4.1068 0
M  V30 937 H 88.409 1.40011 -2.95067 0
M  V30 938 H 87.068 -0.627281 -3.61194 0
M  V30 939 H 86.716 1.55381 -4.78399 0
M  V30 940 H 86.416 0.176524 -5.87335 0
M  V30 941 H 87.94 1.09944 -6.0062 0
M  V30 942 H 89.354 -1.13871 -5.61877 0
M  V30 943 H 87.751 -1.92728 -5.6831 0
M  V30 944 H 88.821 -2.23467 -4.30338 0
M  V30 945 N 90.1641 1.46063 -0.591896 0
M  V30 946 C 91.4121 2.01938 -0.0808391 0
M  V30 947 C 91.7331 1.46475 1.28725 0
M  V30 948 O 91.0031 0.652944 1.84698 0
M  V30 949 H 89.5831 0.746516 -0.0268938 0
M  V30 950 H 92.2451 1.79055 -0.769752 0
M  V30 951 H 91.3411 3.12094 -0.0187578 0
M  V30 952 N 91.6422 0.330177 1.54103 0
M  V30 953 C 92.8892 -0.270405 2.00686 0
M  V30 954 C 93.2172 -1.51621 1.21825 0
M  V30 955 O 92.4722 -1.93536 0.29025 0
M  V30 956 C 92.7712 -0.643134 3.51566 0
M  V30 957 C 92.4372 0.504251 4.48072 0
M  V30 958 C 91.0992 0.819163 4.74176 0
M  V30 959 C 93.4512 1.27465 5.05373 0
M  V30 960 C 90.7792 1.90708 5.5484 0
M  V30 961 C 93.1312 2.35271 5.87223 0
M  V30 962 C 91.7952 2.67336 6.11627 0
M  V30 963 H 91.0652 -0.0989482 0.734364 0
M  V30 964 H 93.7122 0.455324 1.86008 0
M  V30 965 H 92.0172 -1.44938 3.64006 0
M  V30 966 H 93.7142 -1.11949 3.85056 0
M  V30 967 H 90.3042 0.248733 4.27878 0
M  V30 968 H 94.4882 1.04462 4.85182 0
M  V30 969 H 89.7442 2.15991 5.71977 0
M  V30 970 H 93.9182 2.95405 6.30641 0
M  V30 971 H 91.5452 3.51763 6.73919 0
M  V30 972 N 93.1203 -1.57491 0.0584922 0
M  V30 973 C 94.0833 -2.1085 -0.898617 0
M  V30 974 C 95.0833 -1.02964 -1.23511 0
M  V30 975 O 96.2733 -1.29007 -1.17059 0
M  V30 976 C 93.4053 -2.59881 -2.20623 0
M  V30 977 H 94.5983 -2.96715 -0.435936 0
M  V30 978 H 92.1513 -1.55141 -0.190023 0
M  V30 979 H 92.8863 -1.77431 -2.71457 0
M  V30 980 H 92.6713 -3.38727 -1.97501 0
M  V30 981 H 94.1613 -3.01285 -2.89166 0
M  V30 982 N 94.5984 0.214957 -1.56127 0
M  V30 983 C 95.5314 1.29382 -1.87977 0
M  V30 984 C 96.5094 1.44897 -0.737807 0
M  V30 985 O 97.6934 1.60605 -0.986833 0
M  V30 986 C 94.8204 2.66325 -2.09258 0
M  V30 987 C 93.8664 2.67789 -3.31951 0
M  V30 988 S 94.6994 2.21198 -4.8768 0
M  V30 989 C 95.8554 3.60003 -5.12004 0
M  V30 990 H 96.0884 1.02173 -2.79192 0
M  V30 991 H 93.6214 0.417516 -1.48648 0
M  V30 992 H 95.5794 3.45162 -2.22201 0
M  V30 993 H 94.2404 2.90755 -1.18829 0
M  V30 994 H 93.4334 3.68436 -3.43906 0
M  V30 995 H 93.0354 1.9702 -3.17898 0
M  V30 996 H 95.3274 4.55739 -5.01307 0
M  V30 997 H 96.2704 3.52959 -6.13861 0
M  V30 998 H 96.6784 3.53996 -4.39712 0
M  V30 999 N 96.0765 1.50051 0.48192 0
M  V30 1000 C 97.0095 1.62749 1.59963 0
M  V30 1001 C 97.9875 0.475903 1.5548 0
M  V30 1002 O 99.1715 0.693986 1.7526 0
M  V30 1003 C 96.2985 1.60008 2.98522 0
M  V30 1004 C 95.3445 2.80596 3.21198 0
M  V30 1005 S 96.1775 4.42038 3.02262 0
M  V30 1006 C 97.3335 4.41973 4.43182 0
M  V30 1007 H 97.5665 2.57296 1.4895 0
M  V30 1008 H 95.0995 1.39179 0.668477 0
M  V30 1009 H 97.0575 1.59112 3.78409 0
M  V30 1010 H 95.7185 0.667153 3.06933 0
M  V30 1011 H 94.9115 2.74952 4.22395 0
M  V30 1012 H 94.5135 2.79003 2.49065 0
M  V30 1013 H 96.8055 4.14868 5.35622 0
M  V30 1014 H 97.7485 5.43512 4.53873 0
M  V30 1015 H 98.1565 3.71812 4.24755 0
M  V30 1016 N 97.5546 -0.734337 1.39446 0
M  V30 1017 C 98.8026 -1.49096 1.36436 0
M  V30 1018 C 99.1236 -1.94961 -0.0388255 0
M  V30 1019 O 98.3936 -1.69033 -0.990191 0
M  V30 1020 H 96.9736 -0.5531 0.502085 0
M  V30 1021 H 99.6356 -0.871725 1.74319 0
M  V30 1022 H 98.7316 -2.37276 2.02747 0
M  V30 1023 N 99.0327 -1.24633 -0.964593 0
M  V30 1024 C 100.28 -1.08788 -1.70796 0
M  V30 1025 C 100.608 0.372783 -1.90894 0
M  V30 1026 O 99.8627 1.29167 -1.47018 0
M  V30 1027 C 100.162 -1.7763 -3.10133 0
M  V30 1028 C 99.8277 -3.27557 -3.09866 0
M  V30 1029 C 98.4897 -3.6846 -3.09501 0
M  V30 1030 C 100.842 -4.23389 -3.03959 0
M  V30 1031 C 98.1697 -5.03624 -3.00965 0
M  V30 1032 C 100.522 -5.58565 -2.96965 0
M  V30 1033 C 99.1857 -5.98809 -2.9493 0
M  V30 1034 H 98.4557 -0.398084 -0.624988 0
M  V30 1035 H 101.103 -1.54777 -1.12767 0
M  V30 1036 H 99.4077 -1.24044 -3.71645 0
M  V30 1037 H 101.105 -1.62832 -3.66451 0
M  V30 1038 H 97.6947 -2.95006 -3.10917 0
M  V30 1039 H 101.879 -3.92787 -3.03368 0
M  V30 1040 H 97.1347 -5.33998 -2.97752 0
M  V30 1041 H 101.309 -6.32523 -2.91354 0
M  V30 1042 H 98.9357 -7.03505 -2.88071 0
M  V30 1043 N 100.511 1.16574 -1.06058 0
M  V30 1044 C 101.736 1.91493 -0.796562 0
M  V30 1045 C 102.161 1.76773 0.642868 0
M  V30 1046 O 101.519 1.09142 1.44768 0
M  V30 1047 C 101.567 3.40293 -1.19303 0
M  V30 1048 O 100.671 4.11074 -0.330394 0
M  V30 1049 H 100.012 0.596678 -0.291326 0
M  V30 1050 H 102.542 1.47708 -1.41575 0
M  V30 1051 H 102.552 3.91057 -1.16356 0
M  V30 1052 H 101.227 3.50326 -2.24153 0
M  V30 1053 H 99.8038 3.70513 -0.421225 0
M  V30 1054 N 101.989 0.842826 1.3317 0
M  V30 1055 C 103.235 0.441099 1.97945 0
M  V30 1056 C 103.568 -0.998024 1.66593 0
M  V30 1057 O 102.843 -1.69839 0.947898 0
M  V30 1058 C 103.126 0.666841 3.53872 0
M  V30 1059 C 102.979 2.15352 3.94897 0
M  V30 1060 C 104.298 0.115544 4.39948 0
M  V30 1061 H 101.417 0.161739 0.719034 0
M  V30 1062 H 104.059 1.05907 1.57746 0
M  V30 1063 H 102.209 0.140828 3.88245 0
M  V30 1064 H 103.881 2.7447 3.70761 0
M  V30 1065 H 102.124 2.63653 3.44484 0
M  V30 1066 H 102.795 2.26221 5.03516 0
M  V30 1067 H 105.271 0.565213 4.12243 0
M  V30 1068 H 104.147 0.303152 5.48062 0
M  V30 1069 H 104.408 -0.980935 4.3108 0
M  V30 1070 N 103.467 -1.45747 0.599634 0
M  V30 1071 C 104.397 -2.33235 -0.111306 0
M  V30 1072 C 105.378 -1.46359 -0.866781 0
M  V30 1073 O 106.563 -1.75146 -0.838904 0
M  V30 1074 C 103.693 -3.28932 -1.11451 0
M  V30 1075 C 102.647 -4.25381 -0.472772 0
M  V30 1076 C 101.973 -5.1071 -1.58365 0
M  V30 1077 C 103.273 -5.18831 0.600948 0
M  V30 1078 H 104.967 -2.92927 0.61919 0
M  V30 1079 H 102.513 -1.40857 0.299215 0
M  V30 1080 H 104.466 -3.89002 -1.62036 0
M  V30 1081 H 103.19 -2.67381 -1.8755 0
M  V30 1082 H 101.849 -3.66598 0.0121472 0
M  V30 1083 H 101.497 -4.45533 -2.33473 0
M  V30 1084 H 101.197 -5.7604 -1.15982 0
M  V30 1085 H 102.721 -5.73647 -2.09194 0
M  V30 1086 H 104.135 -5.73019 0.179491 0
M  V30 1087 H 102.532 -5.92595 0.946076 0
M  V30 1088 H 103.602 -4.6174 1.48068 0
M  V30 1089 N 104.945 -0.338344 -1.53925 0
M  V30 1090 C 105.878 0.563758 -2.21127 0
M  V30 1091 C 106.856 1.10433 -1.19345 0
M  V30 1092 O 108.04 1.16557 -1.48144 0
M  V30 1093 C 105.167 1.77505 -2.88461 0
M  V30 1094 C 104.213 1.3644 -4.04087 0
M  V30 1095 S 105.046 0.388593 -5.34088 0
M  V30 1096 C 106.202 1.60683 -6.04923 0
M  V30 1097 H 106.435 -0.00704546 -2.97299 0
M  V30 1098 H 103.968 -0.122418 -1.53914 0
M  V30 1099 H 105.926 2.46999 -3.27875 0
M  V30 1100 H 104.587 2.31706 -2.12064 0
M  V30 1101 H 103.78 2.26739 -4.50117 0
M  V30 1102 H 103.382 0.748998 -3.66423 0
M  V30 1103 H 105.674 2.54209 -6.28 0
M  V30 1104 H 106.617 1.18842 -6.98056 0
M  V30 1105 H 107.025 1.80052 -5.35015 0
M  V30 1106 N 106.423 1.57458 -0.0668435 0
M  V30 1107 C 107.67 1.93301 0.603406 0
M  V30 1108 C 107.998 0.946486 1.69917 0
M  V30 1109 O 107.253 -0.0387021 1.95662 0
M  V30 1110 C 107.552 3.35784 1.22409 0
M  V30 1111 C 107.218 4.50179 0.254955 0
M  V30 1112 C 105.88 4.81199 -0.0116746 0
M  V30 1113 C 108.232 5.19598 -0.408338 0
M  V30 1114 C 105.56 5.78978 -0.94877 0
M  V30 1115 C 107.912 6.18381 -1.33372 0
M  V30 1116 C 106.576 6.47821 -1.60887 0
M  V30 1117 H 105.846 0.707338 0.220802 0
M  V30 1118 H 108.493 1.91012 -0.136665 0
M  V30 1119 H 106.798 3.34515 2.03978 0
M  V30 1120 H 108.495 3.60804 1.74989 0
M  V30 1121 H 105.085 4.25983 0.472954 0
M  V30 1122 H 109.269 4.95832 -0.215456 0
M  V30 1123 H 104.525 6.00115 -1.16925 0
M  V30 1124 H 108.699 6.71277 -1.85367 0
M  V30 1125 H 106.326 7.23399 -2.33661 0
M  V30 1126 N 107.901 -0.206675 1.56239 0
M  V30 1127 C 109.148 -0.928842 1.79941 0
M  V30 1128 C 109.476 -1.83734 0.638131 0
M  V30 1129 O 108.731 -1.92039 -0.376746 0
M  V30 1130 C 109.03 -1.78675 3.09532 0
M  V30 1131 C 108.696 -1.03022 4.38973 0
M  V30 1132 C 107.358 -0.821302 4.74139 0
M  V30 1133 C 109.71 -0.497081 5.18824 0
M  V30 1134 C 107.038 -0.0675719 5.86661 0
M  V30 1135 C 109.39 0.24338 6.32132 0
M  V30 1136 C 108.054 0.463422 6.65889 0
M  V30 1137 H 107.324 -0.339887 0.658451 0
M  V30 1138 H 109.971 -0.195977 1.90495 0
M  V30 1139 H 108.276 -2.58794 2.94165 0
M  V30 1140 H 109.973 -2.34792 3.25075 0
M  V30 1141 H 106.563 -1.20306 4.11369 0
M  V30 1142 H 110.747 -0.645921 4.92079 0
M  V30 1143 H 106.003 0.112995 6.11296 0
M  V30 1144 H 110.177 0.66393 6.93228 0
M  V30 1145 H 107.804 1.04938 7.52922 0
M  V30 1146 N 109.379 -1.50304 -0.473955 0
M  V30 1147 C 110.309 -1.71886 -1.58042 0
M  V30 1148 C 111.29 -0.567799 -1.60344 0
M  V30 1149 O 112.475 -0.806623 -1.76656 0
M  V30 1150 C 109.605 -1.81036 -2.96384 0
M  V30 1151 C 108.559 -2.962 -3.08949 0
M  V30 1152 C 107.885 -2.9049 -4.48909 0
M  V30 1153 C 109.185 -4.36752 -2.86434 0
M  V30 1154 H 110.879 -2.64527 -1.40234 0
M  V30 1155 H 108.425 -1.27295 -0.673201 0
M  V30 1156 H 110.378 -1.94719 -3.73714 0
M  V30 1157 H 109.102 -0.850147 -3.15341 0
M  V30 1158 H 107.761 -2.82164 -2.3405 0
M  V30 1159 H 107.409 -1.92321 -4.64781 0
M  V30 1160 H 107.109 -3.67802 -4.58253 0
M  V30 1161 H 108.633 -3.06218 -5.28264 0
M  V30 1162 H 110.047 -4.5133 -3.53517 0
M  V30 1163 H 108.444 -5.15493 -3.07225 0
M  V30 1164 H 109.514 -4.49321 -1.82316 0
M  V30 1165 N 110.857 0.726932 -1.39834 0
M  V30 1166 C 111.787 1.85405 -1.41941 0
M  V30 1167 C 112.768 1.67751 -0.281728 0
M  V30 1168 O 113.953 1.8795 -0.488717 0
M  V30 1169 C 111.083 3.23243 -1.2701 0
M  V30 1170 C 110.037 3.55549 -2.38262 0
M  V30 1171 C 109.363 4.9241 -2.08415 0
M  V30 1172 C 110.663 3.577 -3.80589 0
M  V30 1173 H 112.357 1.83899 -2.36266 0
M  V30 1174 H 109.903 0.883349 -1.13723 0
M  V30 1175 H 111.856 4.01775 -1.27103 0
M  V30 1176 H 110.58 3.25296 -0.291564 0
M  V30 1177 H 109.239 2.79351 -2.37399 0
M  V30 1178 H 108.887 4.91052 -1.0898 0
M  V30 1179 H 108.587 5.14992 -2.82943 0
M  V30 1180 H 110.111 5.73289 -2.10171 0
M  V30 1181 H 111.525 4.26293 -3.83337 0
M  V30 1182 H 109.922 3.91804 -4.54543 0
M  V30 1183 H 110.992 2.57328 -4.10987 0
M  V30 1184 N 112.336 1.25143 0.95797 0
M  V30 1185 C 113.584 1.09476 1.69881 0
M  V30 1186 C 113.905 -0.365502 1.91544 0
M  V30 1187 O 113.175 -1.25985 1.50015 0
M  V30 1188 H 111.755 0.402128 0.629525 0
M  V30 1189 H 114.417 1.57214 1.15194 0
M  V30 1190 H 113.513 1.60046 2.6794 0
M  V30 1191 N 113.814 -1.1601 1.06675 0
M  V30 1192 C 115.042 -1.90527 0.806667 0
M  V30 1193 C 115.457 -1.77643 -0.639396 0
M  V30 1194 O 114.814 -1.12369 -1.43803 0
M  V30 1195 C 114.865 -3.41106 1.19705 0
M  V30 1196 O 114.586 -3.53608 2.58636 0
M  V30 1197 C 116.087 -4.32663 0.965266 0
M  V30 1198 H 113.307 -0.604053 0.292166 0
M  V30 1199 H 115.851 -1.47026 1.4214 0
M  V30 1200 H 114.006 -3.82296 0.626774 0
M  V30 1201 H 114.42 -4.47011 2.74375 0
M  V30 1202 H 115.894 -5.36763 1.288 0
M  V30 1203 H 116.371 -4.39089 -0.0987936 0
M  V30 1204 H 116.977 -3.97206 1.52011 0
M  V30 1205 N 115.292 -0.849877 -1.32721 0
M  V30 1206 C 116.52 -0.464754 -2.01613 0
M  V30 1207 C 116.935 0.937191 -1.63897 0
M  V30 1208 O 116.292 1.61081 -0.857856 0
M  V30 1209 C 116.343 -0.588638 -3.56675 0
M  V30 1210 O 116.064 -1.93535 -3.93034 0
M  V30 1211 C 117.565 -0.2019 -4.4284 0
M  V30 1212 H 114.785 -0.183215 -0.645502 0
M  V30 1213 H 117.329 -1.1455 -1.69407 0
M  V30 1214 H 115.484 0.0443159 -3.87375 0
M  V30 1215 H 115.898 -1.92871 -4.87751 0
M  V30 1216 H 117.372 -0.339599 -5.50954 0
M  V30 1217 H 117.849 0.857224 -4.30753 0
M  V30 1218 H 118.455 -0.809733 -4.17521 0
M  V30 1219 N 116.77 1.45427 -0.607355 0
M  V30 1220 C 118.019 2.01452 -0.100036 0
M  V30 1221 C 118.332 1.48159 1.27704 0
M  V30 1222 O 119.538 1.96159 1.87707 0
M  V30 1223 C 117.994 3.59672 -0.128158 0
M  V30 1224 C 117.602 4.21962 -1.50507 0
M  V30 1225 C 119.346 4.23262 0.323932 0
M  V30 1226 C 117.253 5.72333 -1.48959 0
M  V30 1227 H 116.183 0.75325 -0.0336299 0
M  V30 1228 H 118.834 1.66901 -0.76265 0
M  V30 1229 H 117.216 3.91411 0.601105 0
M  V30 1230 H 118.39 4.01796 -2.25602 0
M  V30 1231 H 116.705 3.70565 -1.89923 0
M  V30 1232 H 119.302 5.33522 0.354691 0
M  V30 1233 H 119.645 3.93921 1.34656 0
M  V30 1234 H 120.178 3.96239 -0.352056 0
M  V30 1235 H 116.917 6.06373 -2.48981 0
M  V30 1236 H 116.437 5.94691 -0.781214 0
M  V30 1237 H 118.116 6.35525 -1.21313 0
M  V30 1238 N 118.248 0.346503 1.53744 0
M  V30 1239 C 119.178 -0.501193 2.28058 0
M  V30 1240 C 120.159 -1.10014 1.29734 0
M  V30 1241 O 121.344 -1.12097 1.58581 0
M  V30 1242 C 118.474 -1.65078 3.05559 0
M  V30 1243 C 117.428 -1.18003 4.11411 0
M  V30 1244 C 116.754 -2.41837 4.76884 0
M  V30 1245 C 118.054 -0.278394 5.21558 0
M  V30 1246 H 119.748 0.11875 2.99164 0
M  V30 1247 H 117.294 0.0585531 1.43881 0
M  V30 1248 H 119.247 -2.25028 3.56287 0
M  V30 1249 H 117.971 -2.29767 2.32109 0
M  V30 1250 H 116.63 -0.603331 3.61601 0
M  V30 1251 H 116.278 -3.0494 4.00026 0
M  V30 1252 H 115.978 -2.1102 5.48402 0
M  V30 1253 H 117.502 -3.02508 5.30397 0
M  V30 1254 H 118.916 -0.784823 5.67903 0
M  V30 1255 H 117.313 -0.0619707 6.00068 0
M  V30 1256 H 118.383 0.684677 4.80042 0
M  V30 1257 N 119.726 -1.57421 0.075193 0
M  V30 1258 C 120.673 -2.12915 -0.890843 0
M  V30 1259 C 121.643 -1.04252 -1.29309 0
M  V30 1260 O 122.828 -1.31933 -1.37834 0
M  V30 1261 C 119.968 -2.69795 -2.15186 0
M  V30 1262 C 119.081 -3.92624 -1.80194 0
M  V30 1263 C 118.216 -4.37736 -3.00933 0
M  V30 1264 C 117.255 -5.53205 -2.61974 0
M  V30 1265 N 116.392 -5.9326 -3.75483 0
M  V30 1266 H 121.232 -2.95156 -0.410735 0
M  V30 1267 H 118.769 -1.45854 -0.191086 0
M  V30 1268 H 120.727 -3.00883 -2.89008 0
M  V30 1269 H 119.357 -1.90313 -2.60731 0
M  V30 1270 H 118.409 -3.67977 -0.964218 0
M  V30 1271 H 119.721 -4.76482 -1.47534 0
M  V30 1272 H 118.875 -4.70503 -3.8303 0
M  V30 1273 H 117.614 -3.52739 -3.36789 0
M  V30 1274 H 116.619 -5.20086 -1.783 0
M  V30 1275 H 117.844 -6.39936 -2.27284 0
M  V30 1276 H 115.79 -5.11212 -4.11094 0
M  V30 1277 H 115.707 -6.71865 -3.46602 0
M  V30 1278 H 116.975 -6.30651 -4.58148 0
M  V30 1279 N 121.204 0.198386 -1.56346 0
M  V30 1280 C 122.615 0.763358 -1.70381 0
M  V30 1281 C 122.966 1.83995 -0.681203 0
M  V30 1282 O 122.091 2.15785 0.16305 0
M  V30 1283 C 122.686 1.39143 -3.08909 0
M  V30 1284 C 121.245 1.90352 -3.2472 0
M  V30 1285 C 120.392 0.772233 -2.6633 0
M  V30 1286 H 123.343 -0.0266377 -1.58678 0
M  V30 1287 H 123.364 2.26076 -3.06055 0
M  V30 1288 H 122.876 0.607638 -3.83314 0
M  V30 1289 H 120.977 2.71461 -2.55225 0
M  V30 1290 H 121.09 2.06757 -4.3219 0
M  V30 1291 H 119.454 1.18566 -2.2542 0
M  V30 1292 H 120.237 0.00073556 -3.433 0
M  V30 1293 N 122.682 1.50554 0.465978 0
M  V30 1294 C 123.929 1.61798 1.21768 0
M  V30 1295 C 124.257 0.320696 1.91838 0
M  V30 1296 O 123.512 -0.693724 1.82992 0
M  V30 1297 C 123.811 2.75152 2.28093 0
M  V30 1298 C 123.477 4.15454 1.75239 0
M  V30 1299 C 122.139 4.53628 1.60546 0
M  V30 1300 C 124.491 5.03121 1.36083 0
M  V30 1301 C 121.819 5.77204 1.05128 0
M  V30 1302 C 124.171 6.27249 0.821056 0
M  V30 1303 C 122.835 6.64221 0.660795 0
M  V30 1304 H 122.105 0.592063 0.445582 0
M  V30 1305 H 124.752 1.84503 0.512927 0
M  V30 1306 H 123.057 2.46556 3.04496 0
M  V30 1307 H 124.754 2.81055 2.86023 0
M  V30 1308 H 121.344 3.85341 1.87644 0
M  V30 1309 H 125.528 4.74257 1.46267 0
M  V30 1310 H 120.784 6.0452 0.91462 0
M  V30 1311 H 124.958 6.94537 0.509018 0
M  V30 1312 H 122.585 7.59854 0.229226 0
M  V30 1313 N 124.16 -0.719506 1.40217 0
M  V30 1314 C 125.093 -1.84298 1.34571 0
M  V30 1315 C 126.071 -1.61149 0.216741 0
M  V30 1316 O 127.255 -1.84212 0.399756 0
M  V30 1317 C 124.382 -3.20568 1.09335 0
M  V30 1318 C 123.428 -3.62551 2.24631 0
M  V30 1319 S 124.261 -3.7012 3.87004 0
M  V30 1320 C 125.417 -5.09154 3.64024 0
M  V30 1321 H 125.65 -1.88807 2.2965 0
M  V30 1322 H 123.183 -0.885901 1.26456 0
M  V30 1323 H 125.141 -3.99246 0.954602 0
M  V30 1324 H 123.802 -3.13696 0.159164 0
M  V30 1325 H 122.995 -4.61483 2.02606 0
M  V30 1326 H 122.597 -2.91119 2.34789 0
M  V30 1327 H 124.889 -5.95955 3.22248 0
M  V30 1328 H 125.832 -5.36213 4.62473 0
M  V30 1329 H 126.24 -4.79562 2.97793 0
M  V30 1330 N 125.638 -1.25649 -0.95132 0
M  V30 1331 C 126.568 -1.08808 -2.06599 0
M  V30 1332 C 127.549 0.00382547 -1.701 0
M  V30 1333 O 128.734 -0.166325 -1.93486 0
M  V30 1334 C 125.864 -0.709542 -3.39975 0
M  V30 1335 C 124.818 -1.75206 -3.90496 0
M  V30 1336 C 124.144 -1.22811 -5.20405 0
M  V30 1337 C 125.444 -3.15153 -4.16504 0
M  V30 1338 H 127.138 -2.02048 -2.20946 0
M  V30 1339 H 124.684 -0.972835 -1.06169 0
M  V30 1340 H 126.637 -0.578649 -4.17408 0
M  V30 1341 H 125.361 0.258556 -3.25575 0
M  V30 1342 H 124.02 -1.87145 -3.15234 0
M  V30 1343 H 123.668 -0.250145 -5.02378 0
M  V30 1344 H 123.368 -1.92492 -5.55176 0
M  V30 1345 H 124.892 -1.10968 -6.00432 0
M  V30 1346 H 126.306 -3.06349 -4.84586 0
M  V30 1347 H 124.703 -3.82333 -4.62538 0
M  V30 1348 H 125.773 -3.61966 -3.22658 0
M  V30 1349 N 127.117 1.15442 -1.07289 0
M  V30 1350 C 128.342 1.90638 -0.816828 0
M  V30 1351 C 128.767 1.77445 0.624083 0
M  V30 1352 O 128.125 1.10671 1.43602 0
M  V30 1353 C 128.173 3.39008 -1.22906 0
M  V30 1354 O 127.277 4.10701 -0.373975 0
M  V30 1355 H 126.618 0.593555 -0.297638 0
M  V30 1356 H 129.148 1.46198 -1.43134 0
M  V30 1357 H 129.158 3.89801 -1.20497 0
M  V30 1358 H 127.833 3.47929 -2.27856 0
M  V30 1359 H 126.41 3.70046 -0.460499 0
M  V30 1360 N 128.595 0.856903 1.32268 0
M  V30 1361 C 129.844 0.457599 1.96441 0
M  V30 1362 C 130.157 -0.992426 1.68553 0
M  V30 1363 O 131.363 -1.49727 2.26482 0
M  V30 1364 C 129.819 0.767358 3.51624 0
M  V30 1365 C 129.427 2.23326 3.88367 0
M  V30 1366 C 131.171 0.435887 4.22256 0
M  V30 1367 C 129.078 2.48613 5.36606 0
M  V30 1368 H 128.008 0.167387 0.735185 0
M  V30 1369 H 130.659 1.048 1.5063 0
M  V30 1370 H 129.041 0.106367 3.95857 0
M  V30 1371 H 130.215 2.93623 3.55137 0
M  V30 1372 H 128.53 2.52948 3.30766 0
M  V30 1373 H 131.127 0.602202 5.31298 0
M  V30 1374 H 131.47 -0.622672 4.11617 0
M  V30 1375 H 132.003 1.05286 3.83614 0
M  V30 1376 H 128.742 3.53101 5.52268 0
M  V30 1377 H 128.262 1.82896 5.71235 0
M  V30 1378 H 129.941 2.32676 6.03714 0
M  V30 1379 N 130.073 -1.45103 0.615059 0
M  V30 1380 C 131.005 -2.28786 -0.13762 0
M  V30 1381 C 132.018 -1.40376 -0.824525 0
M  V30 1382 O 133.207 -1.64681 -0.688662 0
M  V30 1383 C 130.307 -3.16322 -1.21628 0
M  V30 1384 C 129.48 -4.33054 -0.615039 0
M  V30 1385 C 128.539 -5.01743 -1.58556 0
M  V30 1386 O 127.565 -5.58293 -1.10895 0
M  V30 1387 N 128.767 -5.01714 -2.91998 0
M  V30 1388 H 131.532 -2.94025 0.580483 0
M  V30 1389 H 129.093 -1.55373 0.45507 0
M  V30 1390 H 131.085 -3.59139 -1.86552 0
M  V30 1391 H 129.655 -2.52943 -1.83681 0
M  V30 1392 H 128.875 -3.93627 0.21245 0
M  V30 1393 H 130.163 -5.08431 -0.193704 0
M  V30 1394 H 129.561 -4.57075 -3.33316 0
M  V30 1395 H 128.118 -5.48371 -3.52325 0
M  V30 1396 N 131.551 -0.354651 -1.53558 0
M  V30 1397 C 132.967 -0.00315426 -1.596 0
M  V30 1398 C 133.167 1.47741 -1.37021 0
M  V30 1399 O 132.223 2.23759 -1.16996 0
M  V30 1400 C 133.536 -0.44929 -2.97325 0
M  V30 1401 C 135.084 -0.402578 -3.104 0
M  V30 1402 C 135.559 -0.824355 -4.5052 0
M  V30 1403 N 137.05 -0.778979 -4.56603 0
M  V30 1404 C 137.785 -1.07715 -5.63192 0
M  V30 1405 N 137.281 -1.44405 -6.77583 0
M  V30 1406 N 139.074 -1.00066 -5.53121 0
M  V30 1407 H 131.225 -1.31893 -1.66487 0
M  V30 1408 H 133.488 -0.538388 -0.780284 0
M  V30 1409 H 133.194 -1.48202 -3.1895 0
M  V30 1410 H 133.068 0.169772 -3.76818 0
M  V30 1411 H 135.455 0.621004 -2.88492 0
M  V30 1412 H 135.536 -1.05699 -2.32941 0
M  V30 1413 H 135.18 -1.846 -4.73165 0
M  V30 1414 H 135.11 -0.147304 -5.26394 0
M  V30 1415 H 137.601 -0.508528 -3.74463 0
M  V30 1416 H 137.914 -1.65612 -7.54846 0
M  V30 1417 H 136.259 -1.4826 -6.79002 0
M  V30 1418 H 139.45 -0.713293 -4.62633 0
M  V30 1419 H 139.623 -1.23638 -6.36096 0
M  V30 1420 N 133.029 1.57378 -0.0835403 0
M  V30 1421 C 133.939 2.16897 0.894021 0
M  V30 1422 C 134.955 1.13528 1.31861 0
M  V30 1423 O 136.131 1.45848 1.3889 0
M  V30 1424 C 133.196 2.72831 2.13925 0
M  V30 1425 C 132.257 3.91115 1.76997 0
M  V30 1426 C 131.49 4.44371 2.95584 0
M  V30 1427 O 131.713 3.96596 4.09961 0
M  V30 1428 O 130.647 5.35549 2.74719 0
M  V30 1429 H 134.473 3.00814 0.417679 0
M  V30 1430 H 132.058 1.48741 0.140181 0
M  V30 1431 H 133.94 3.0863 2.86924 0
M  V30 1432 H 132.615 1.91967 2.60635 0
M  V30 1433 H 131.522 3.60148 1.01214 0
M  V30 1434 H 132.855 4.73307 1.3506 0
M  V30 1435 N 134.507 -0.190092 1.56449 0
M  V30 1436 C 135.417 -1.25591 1.98152 0
M  V30 1437 C 136.433 -1.49519 0.889944 0
M  V30 1438 O 137.609 -1.62036 1.19609 0
M  V30 1439 C 134.674 -2.57916 2.3169 0
M  V30 1440 C 133.735 -2.42015 3.5458 0
M  V30 1441 C 132.968 -3.6803 3.8651 0
M  V30 1442 O 133.191 -4.72413 3.1966 0
M  V30 1443 O 132.125 -3.6326 4.79923 0
M  V30 1444 H 135.951 -0.931988 2.89046 0
M  V30 1445 H 133.536 -0.395488 1.4407 0
M  V30 1446 H 135.418 -3.36008 2.54316 0
M  V30 1447 H 134.093 -2.89925 1.43963 0
M  V30 1448 H 133 -1.62017 3.37196 0
M  V30 1449 H 134.333 -2.14937 4.4279 0
M  V30 1450 N 135.985 -1.50799 -0.457987 0
M  V30 1451 C 137.21 -1.66496 -1.23668 0
M  V30 1452 C 137.635 -0.353288 -1.84752 0
M  V30 1453 O 136.993 0.684346 -1.67888 0
M  V30 1454 C 137.041 -2.76763 -2.3116 0
M  V30 1455 O 136.145 -2.38928 -3.36136 0
M  V30 1456 H 135.486 -0.555828 -0.363252 0
M  V30 1457 H 138.016 -1.9725 -0.543474 0
M  V30 1458 H 138.026 -3.00232 -2.76269 0
M  V30 1459 H 136.701 -3.71954 -1.86073 0
M  V30 1460 H 135.278 -2.25953 -2.96647 0
M  V30 1461 N 137.463 0.71206 -1.40597 0
M  V30 1462 C 138.691 1.50111 -1.42388 0
M  V30 1463 C 139.106 1.88784 -0.0245395 0
M  V30 1464 O 138.463 1.55681 0.952351 0
M  V30 1465 C 138.514 2.7742 -2.31776 0
M  V30 1466 O 138.235 2.40382 -3.66262 0
M  V30 1467 C 139.736 3.7129 -2.42196 0
M  V30 1468 H 136.956 0.46314 -0.485533 0
M  V30 1469 H 139.5 0.878068 -1.8469 0
M  V30 1470 H 137.655 3.36001 -1.92827 0
M  V30 1471 H 138.069 3.22324 -4.13772 0
M  V30 1472 H 139.543 4.57448 -3.08943 0
M  V30 1473 H 140.02 4.14641 -1.44809 0
M  V30 1474 H 140.626 3.18619 -2.81712 0
M  V30 1475 N 138.941 1.26152 0.944643 0
M  V30 1476 C 140.181 1.12708 1.70517 0
M  V30 1477 C 140.545 -0.324727 1.89234 0
M  V30 1478 O 141.746 -0.581211 2.62441 0
M  V30 1479 C 140.017 1.8713 3.04495 0
M  V30 1480 S 141.576 1.89698 3.95677 0
M  V30 1481 H 138.394 0.402665 0.585988 0
M  V30 1482 H 140.996 1.59821 1.12594 0
M  V30 1483 H 139.7 2.91833 2.88551 0
M  V30 1484 H 139.231 1.40444 3.67477 0
M  V30 1485 H 141.246 0.981198 4.86402 0
M  V30 1486 N 140.419 -1.14872 1.07899 0
M  V30 1487 C 141.647 -1.89661 0.82683 0
M  V30 1488 C 142.062 -1.78312 -0.620519 0
M  V30 1489 O 141.419 -1.13888 -1.42604 0
M  V30 1490 C 141.47 -3.39817 1.23316 0
M  V30 1491 O 141.191 -3.50845 2.62372 0
M  V30 1492 C 142.692 -4.31615 1.0111 0
M  V30 1493 H 139.912 -0.60092 0.298557 0
M  V30 1494 H 142.456 -1.4551 1.43691 0
M  V30 1495 H 140.611 -3.8161 0.667286 0
M  V30 1496 H 141.025 -4.44076 2.79101 0
M  V30 1497 H 142.499 -5.35367 1.34486 0
M  V30 1498 H 142.976 -4.39169 -0.0522168 0
M  V30 1499 H 143.582 -3.95572 1.56215 0
M  V30 1500 N 141.898 -0.863906 -1.31812 0
M  V30 1501 C 142.861 -0.320212 -2.26952 0
M  V30 1502 C 143.861 0.525369 -1.51975 0
M  V30 1503 O 145.051 0.335547 -1.70938 0
M  V30 1504 C 142.183 0.545919 -3.365 0
M  V30 1505 H 143.376 -1.16004 -2.76556 0
M  V30 1506 H 140.929 -0.638995 -1.42641 0
M  V30 1507 H 141.664 1.40718 -2.92179 0
M  V30 1508 H 141.449 -0.0594674 -3.92055 0
M  V30 1509 H 142.939 0.918796 -4.07367 0
M  V30 1510 N 143.376 1.44774 -0.622745 0
M  V30 1511 C 144.625 2.01334 -0.121397 0
M  V30 1512 C 144.938 1.49505 1.26125 0
M  V30 1513 O 146.144 1.98139 1.85616 0
M  V30 1514 C 144.6 3.59516 -0.166298 0
M  V30 1515 C 144.208 4.20342 -1.54974 0
M  V30 1516 C 145.952 4.23582 0.279021 0
M  V30 1517 C 143.859 5.70721 -1.55021 0
M  V30 1518 H 142.789 0.752851 -0.0416172 0
M  V30 1519 H 145.44 1.66083 -0.780309 0
M  V30 1520 H 143.822 3.92027 0.559557 0
M  V30 1521 H 144.996 3.99381 -2.29851 0
M  V30 1522 H 143.311 3.68529 -1.93843 0
M  V30 1523 H 145.908 5.33868 0.298083 0
M  V30 1524 H 146.251 3.95327 1.30471 0
M  V30 1525 H 146.784 3.95843 -0.394063 0
M  V30 1526 H 143.523 6.03698 -2.55399 0
M  V30 1527 H 143.043 5.93829 -0.844245 0
M  V30 1528 H 144.722 6.34203 -1.28047 0
M  V30 1529 N 144.854 0.36279 1.53368 0
M  V30 1530 C 145.804 -0.501391 2.22419 0
M  V30 1531 C 146.788 -1.0509 1.2184 0
M  V30 1532 O 147.98 -0.981404 1.47301 0
M  V30 1533 C 145.109 -1.64201 3.01484 0
M  V30 1534 C 144.195 -1.10552 4.09438 0
M  V30 1535 N 144.586 -0.291788 5.04958 0
M  V30 1536 C 142.884 -1.3806 4.24094 0
M  V30 1537 C 143.585 0.00162655 5.817 0
M  V30 1538 N 142.561 -0.595244 5.40331 0
M  V30 1539 H 146.363 0.127159 2.93625 0
M  V30 1540 H 143.877 0.170658 1.61501 0
M  V30 1541 H 145.874 -2.27326 3.49469 0
M  V30 1542 H 144.534 -2.27365 2.31809 0
M  V30 1543 H 145.545 0.0687731 5.17854 0
M  V30 1544 H 142.222 -2.01522 3.65644 0
M  V30 1545 H 143.612 0.659278 6.68658 0
M  V30 1546 N 146.332 -1.57332 0.0918853 0
M  V30 1547 C 147.56 -1.98574 -0.581048 0
M  V30 1548 C 147.975 -0.970903 -1.61923 0
M  V30 1549 O 147.332 0.0399054 -1.82456 0
M  V30 1550 C 147.383 -3.39872 -1.23164 0
M  V30 1551 O 147.104 -4.37469 -0.234989 0
M  V30 1552 C 148.605 -3.96099 -1.99049 0
M  V30 1553 H 145.825 -0.65261 -0.156018 0
M  V30 1554 H 148.369 -2.0379 0.170225 0
M  V30 1555 H 146.524 -3.35679 -1.93386 0
M  V30 1556 H 146.938 -5.19751 -0.70418 0
M  V30 1557 H 148.412 -4.97127 -2.39934 0
M  V30 1558 H 148.889 -3.3374 -2.85507 0
M  V30 1559 H 149.495 -4.03755 -1.3365 0
M  V30 1560 N 147.81 0.181792 -1.56548 0
M  V30 1561 C 149.087 0.926765 -1.72251 0
M  V30 1562 C 149.467 2.00831 -0.650386 0
M  V30 1563 O 148.815 2.26008 0.336521 0
M  V30 1564 C 149.025 1.50106 -3.1507 0
M  V30 1565 C 150.373 1.97805 -3.75711 0
M  V30 1566 O 151.397 1.59922 -3.18282 0
M  V30 1567 O 150.256 2.67555 -4.76525 0
M  V30 1568 H 147.35 0.435506 -0.703039 0
M  V30 1569 H 149.896 0.170443 -1.68842 0
M  V30 1570 H 148.668 0.72212 -3.84579 0
M  V30 1571 H 148.291 2.32186 -3.22763 0
M  V30 1572 N 149.288 1.51039 0.449983 0
M  V30 1573 C 150.537 1.62317 1.19733 0
M  V30 1574 C 150.85 0.339101 1.92638 0
M  V30 1575 O 152.056 0.331069 2.69474 0
M  V30 1576 C 150.512 2.86608 2.17678 0
M  V30 1577 C 150.12 4.21972 1.50479 0
M  V30 1578 C 151.864 3.07239 2.92924 0
M  V30 1579 C 149.771 5.37426 2.46834 0
M  V30 1580 H 148.701 0.604532 0.450619 0
M  V30 1581 H 151.352 1.77494 0.465625 0
M  V30 1582 H 149.734 2.65037 2.94231 0
M  V30 1583 H 150.908 4.53878 0.795716 0
M  V30 1584 H 149.223 4.07117 0.874344 0
M  V30 1585 H 151.82 3.90668 3.65079 0
M  V30 1586 H 152.163 2.19807 3.5354 0
M  V30 1587 H 152.696 3.29091 2.23481 0
M  V30 1588 H 149.435 6.27079 1.90926 0
M  V30 1589 H 148.955 5.09912 3.15832 0
M  V30 1590 H 150.634 5.68862 3.08228 0
M  V30 1591 N 150.766 -0.704594 1.40972 0
M  V30 1592 C 151.699 -1.82861 1.36518 0
M  V30 1593 C 152.677 -1.6091 0.23382 0
M  V30 1594 O 153.861 -1.83778 0.419271 0
M  V30 1595 C 150.988 -3.1939 1.12729 0
M  V30 1596 C 150.034 -3.60148 2.28463 0
M  V30 1597 S 150.867 -3.65994 3.90907 0
M  V30 1598 C 152.023 -5.05264 3.69403 0
M  V30 1599 H 152.256 -1.86361 2.3164 0
M  V30 1600 H 149.789 -0.872439 1.27389 0
M  V30 1601 H 151.747 -3.98211 0.996893 0
M  V30 1602 H 150.408 -3.1351 0.192427 0
M  V30 1603 H 149.601 -4.59309 2.07489 0
M  V30 1604 H 149.203 -2.88612 2.37863 0
M  V30 1605 H 151.495 -5.92504 3.28551 0
M  V30 1606 H 152.438 -5.31278 4.68134 0
M  V30 1607 H 152.846 -4.76377 3.02862 0
M  V30 1608 N 152.244 -1.26651 -0.937939 0
M  V30 1609 C 153.521 -1.0313 -1.66204 0
M  V30 1610 C 153.901 0.437256 -2.06522 0
M  V30 1611 O 153.249 1.41831 -1.79154 0
M  V30 1612 C 153.459 -1.98314 -2.87181 0
M  V30 1613 C 154.807 -2.27107 -3.58758 0
M  V30 1614 O 155.831 -1.96205 -2.97291 0
M  V30 1615 O 154.69 -2.79736 -4.69479 0
M  V30 1616 H 151.784 -0.392384 -0.727986 0
M  V30 1617 H 154.33 -1.37874 -0.989382 0
M  V30 1618 H 153.102 -2.97399 -2.54302 0
M  V30 1619 H 152.725 -1.64068 -3.6217 0
M  V30 1620 N 153.722 1.14298 -1.08507 0
M  V30 1621 C 154.999 1.81544 -0.728088 0
M  V30 1622 C 155.379 1.95838 0.78808 0
M  V30 1623 O 154.727 1.51904 1.70697 0
M  V30 1624 C 154.937 3.17169 -1.45619 0
M  V30 1625 C 156.285 3.9265 -1.61591 0
M  V30 1626 O 157.309 3.26762 -1.41793 0
M  V30 1627 O 156.168 5.10807 -1.94263 0
M  V30 1628 H 153.262 0.78491 -0.260471 0
M  V30 1629 H 155.808 1.21307 -1.18671 0
M  V30 1630 H 154.58 3.01934 -2.489 0
M  V30 1631 H 154.203 3.851 -0.989124 0
M  V30 1632 N 155.201 0.870884 1.31352 0
M  V30 1633 C 156.447 0.492314 1.97352 0
M  V30 1634 C 156.802 -0.945174 1.67583 0
M  V30 1635 O 156.095 -1.65674 0.962423 0
M  V30 1636 C 156.289 0.687157 3.50732 0
M  V30 1637 C 156.118 2.14203 3.95407 0
M  V30 1638 C 154.888 2.78382 4.21701 0
M  V30 1639 C 157.086 3.1144 4.09279 0
M  V30 1640 N 155.068 4.14611 4.52737 0
M  V30 1641 C 156.439 4.32702 4.44037 0
M  V30 1642 C 158.494 3.07418 3.91661 0
M  V30 1643 C 157.197 5.50463 4.63015 0
M  V30 1644 C 159.223 4.24438 4.11833 0
M  V30 1645 C 158.585 5.44463 4.46923 0
M  V30 1646 H 154.684 0.229206 0.747655 0
M  V30 1647 H 157.268 1.12568 1.5886 0
M  V30 1648 H 155.439 0.083384 3.8831 0
M  V30 1649 H 157.171 0.276883 4.03752 0
M  V30 1650 H 153.926 2.29326 4.14375 0
M  V30 1651 H 154.35 4.84928 4.72413 0
M  V30 1652 H 158.992 2.15732 3.6362 0
M  V30 1653 H 156.71 6.42666 4.89904 0
M  V30 1654 H 160.296 4.2278 3.99685 0
M  V30 1655 H 159.176 6.33504 4.62214 0
M  V30 1656 N 156.679 -1.44442 0.630414 0
M  V30 1657 C 157.609 -2.33418 -0.0618083 0
M  V30 1658 C 158.59 -1.48165 -0.835541 0
M  V30 1659 O 159.775 -1.76886 -0.801564 0
M  V30 1660 C 156.905 -3.31222 -1.04449 0
M  V30 1661 C 155.859 -4.26288 -0.382436 0
M  V30 1662 C 155.185 -5.13954 -1.47497 0
M  V30 1663 C 156.485 -5.1744 0.710865 0
M  V30 1664 H 158.179 -2.91548 0.681184 0
M  V30 1665 H 155.725 -1.40191 0.329026 0
M  V30 1666 H 157.678 -3.92351 -1.53748 0
M  V30 1667 H 156.402 -2.71299 -1.81836 0
M  V30 1668 H 155.061 -3.6649 0.0899054 0
M  V30 1669 H 154.709 -4.50385 -2.2397 0
M  V30 1670 H 154.409 -5.7837 -1.03737 0
M  V30 1671 H 155.933 -5.77955 -1.96979 0
M  V30 1672 H 157.347 -5.72509 0.300996 0
M  V30 1673 H 155.744 -5.90455 1.07156 0
M  V30 1674 H 156.814 -4.58496 1.57829 0
M  V30 1675 N 158.157 -0.370918 -1.53173 0
M  V30 1676 C 159.434 0.273754 -1.93675 0
M  V30 1677 C 159.814 1.65938 -1.3049 0
M  V30 1678 O 159.162 2.23698 -0.465999 0
M  V30 1679 C 159.372 0.318602 -3.47543 0
M  V30 1680 C 160.72 0.556392 -4.20939 0
M  V30 1681 O 161.744 0.399587 -3.53952 0
M  V30 1682 O 160.603 0.862133 -5.39657 0
M  V30 1683 H 157.697 0.165448 -0.810281 0
M  V30 1684 H 160.243 -0.42409 -1.64315 0
M  V30 1685 H 159.015 -0.652687 -3.85818 0
M  V30 1686 H 158.638 1.06212 -3.83151 0
M  V30 1687 N 159.635 1.57281 -0.100228 0
M  V30 1688 C 160.875 1.96419 0.56558 0
M  V30 1689 C 161.239 0.981265 1.65031 0
M  V30 1690 O 162.44 1.26133 2.37369 0
M  V30 1691 C 160.711 3.39996 1.10171 0
M  V30 1692 S 162.27 4.01134 1.77867 0
M  V30 1693 H 159.088 0.68667 0.184406 0
M  V30 1694 H 161.69 1.94662 -0.180851 0
M  V30 1695 H 160.394 4.09296 0.300803 0
M  V30 1696 H 159.925 3.45361 1.88385 0
M  V30 1697 H 161.94 3.90358 3.06326 0
M  V30 1698 N 161.113 -0.173488 1.56642 0
M  V30 1699 C 162.076 -1.19859 1.95362 0
M  V30 1700 C 163.076 -1.37296 0.83704 0
M  V30 1701 O 164.266 -1.34739 1.10413 0
M  V30 1702 C 161.398 -2.56405 2.24654 0
M  V30 1703 H 162.591 -0.867062 2.87092 0
M  V30 1704 H 160.144 -0.415853 1.50666 0
M  V30 1705 H 160.879 -2.94576 1.35631 0
M  V30 1706 H 160.664 -2.45115 3.06041 0
M  V30 1707 H 162.154 -3.30287 2.5554 0
M  V30 1708 N 162.591 -1.51276 -0.441967 0
M  V30 1709 C 163.838 -1.63715 -1.19179 0
M  V30 1710 C 164.166 -0.351175 -1.91303 0
M  V30 1711 O 163.421 0.664524 -1.84072 0
M  V30 1712 C 163.72 -2.78746 -2.23686 0
M  V30 1713 C 163.386 -4.18189 -1.68607 0
M  V30 1714 C 162.048 -4.56125 -1.53308 0
M  V30 1715 C 164.4 -5.05222 -1.28062 0
M  V30 1716 C 161.728 -5.78804 -0.959317 0
M  V30 1717 C 164.08 -6.28476 -0.721162 0
M  V30 1718 C 162.744 -6.65188 -0.55504 0
M  V30 1719 H 162.014 -0.599076 -0.436106 0
M  V30 1720 H 164.661 -1.85296 -0.48351 0
M  V30 1721 H 162.966 -2.51369 -3.00535 0
M  V30 1722 H 164.663 -2.8557 -2.81515 0
M  V30 1723 H 161.253 -3.88277 -1.8149 0
M  V30 1724 H 165.437 -4.76524 -1.38704 0
M  V30 1725 H 160.693 -6.05899 -0.81833 0
M  V30 1726 H 164.867 -6.95259 -0.398458 0
M  V30 1727 H 162.494 -7.60123 -0.108311 0
M  V30 1728 N 164.069 0.697108 -1.41344 0
M  V30 1729 C 165.297 1.48593 -1.43972 0
M  V30 1730 C 165.712 1.88747 -0.0445612 0
M  V30 1731 O 165.069 1.56682 0.935785 0
M  V30 1732 C 165.12 2.74946 -2.34706 0
M  V30 1733 O 164.841 2.36484 -3.68791 0
M  V30 1734 C 166.342 3.687 -2.46121 0
M  V30 1735 H 163.562 0.457964 -0.490418 0
M  V30 1736 H 166.106 0.858429 -1.8561 0
M  V30 1737 H 164.261 3.33937 -1.9638 0
M  V30 1738 H 164.675 3.17918 -4.17167 0
M  V30 1739 H 166.149 4.54145 -3.13777 0
M  V30 1740 H 166.626 4.13081 -1.49199 0
M  V30 1741 H 167.232 3.15613 -2.85076 0
M  V30 1742 N 165.547 1.27147 0.931209 0
M  V30 1743 C 166.787 1.14511 1.69312 0
M  V30 1744 C 167.151 -0.304638 1.89568 0
M  V30 1745 O 168.352 -0.553343 2.63043 0
M  V30 1746 C 166.623 1.90349 3.02493 0
M  V30 1747 S 168.182 1.93884 3.93642 0
M  V30 1748 H 165 0.408858 0.581684 0
M  V30 1749 H 167.602 1.61006 1.10893 0
M  V30 1750 H 166.306 2.94877 2.85439 0
M  V30 1751 H 165.837 1.44333 3.65966 0
M  V30 1752 H 167.852 1.03273 4.85334 0
M  V30 1753 N 167.025 -1.13721 1.09112 0
M  V30 1754 C 168.273 -1.84559 0.823562 0
M  V30 1755 C 168.594 -1.83754 -0.652658 0
M  V30 1756 O 167.864 -1.29102 -1.47342 0
M  V30 1757 H 166.444 -0.683376 0.301673 0
M  V30 1758 H 169.106 -1.37771 1.37859 0
M  V30 1759 H 168.202 -2.8917 1.17419 0
M  V30 1760 N 168.503 -0.877838 -1.30888 0
M  V30 1761 C 169.749 -0.493426 -1.96706 0
M  V30 1762 C 170.082 0.953504 -1.6918 0
M  V30 1763 O 169.357 1.67266 -0.992594 0
M  V30 1764 C 169.64 -0.760429 -3.51979 0
M  V30 1765 C 169.493 -2.25747 -3.89048 0
M  V30 1766 C 170.812 -0.232148 -4.39487 0
M  V30 1767 H 167.931 -0.180746 -0.714493 0
M  V30 1768 H 170.573 -1.10052 -1.54882 0
M  V30 1769 H 168.723 -0.243715 -3.87735 0
M  V30 1770 H 170.395 -2.84204 -3.63354 0
M  V30 1771 H 168.638 -2.72694 -3.37373 0
M  V30 1772 H 169.309 -2.39491 -4.97341 0
M  V30 1773 H 171.785 -0.674314 -4.106 0
M  V30 1774 H 170.661 -0.448355 -5.47066 0
M  V30 1775 H 170.922 0.866297 -4.33529 0
M  V30 1776 N 169.982 1.44106 -0.638065 0
M  V30 1777 C 170.932 2.27843 0.0847285 0
M  V30 1778 C 171.916 1.39055 0.809471 0
M  V30 1779 O 173.108 1.62808 0.694435 0
M  V30 1780 C 170.237 3.26497 1.06089 0
M  V30 1781 C 169.323 4.22772 0.33541 0
M  V30 1782 N 169.714 5.01737 -0.639787 0
M  V30 1783 C 168.012 4.42227 0.578921 0
M  V30 1784 C 168.713 5.71792 -1.06904 0
M  V30 1785 N 167.689 5.42079 -0.406395 0
M  V30 1786 H 171.491 2.86305 -0.663814 0
M  V30 1787 H 169.005 1.55627 -0.464122 0
M  V30 1788 H 171.002 3.8525 1.59337 0
M  V30 1789 H 169.662 2.69595 1.80966 0
M  V30 1790 H 170.673 5.07799 -1.01789 0
M  V30 1791 H 167.35 3.96415 1.31003 0
M  V30 1792 H 168.74 6.45205 -1.8751 0
M  V30 1793 N 171.46 0.379036 1.52974 0
M  V30 1794 C 172.7 -0.206325 2.03356 0
M  V30 1795 C 173.064 -1.44892 1.25977 0
M  V30 1796 O 174.265 -2.11078 1.66432 0
M  V30 1797 C 172.536 -0.477887 3.54191 0
M  V30 1798 S 174.095 -1.035 4.26419 0
M  V30 1799 H 170.913 -0.0590259 0.708546 0
M  V30 1800 H 173.515 0.525013 1.88319 0
M  V30 1801 H 172.219 0.433745 4.08101 0
M  V30 1802 H 171.75 -1.23793 3.73415 0
M  V30 1803 H 173.765 -2.31821 4.38718 0
M  V30 1804 N 172.938 -1.57226 0.108567 0
M  V30 1805 C 173.888 -2.11305 -0.856396 0
M  V30 1806 C 174.872 -1.03129 -1.23504 0
M  V30 1807 O 176.064 -1.29381 -1.20787 0
M  V30 1808 C 173.193 -2.70771 -2.11041 0
M  V30 1809 C 172.279 -3.86011 -1.7566 0
M  V30 1810 N 172.67 -4.93492 -1.10902 0
M  V30 1811 C 170.968 -3.95999 -2.05185 0
M  V30 1812 C 171.669 -5.73984 -0.944308 0
M  V30 1813 N 170.645 -5.2346 -1.46596 0
M  V30 1814 H 174.447 -2.91784 -0.352002 0
M  V30 1815 H 171.961 -1.62126 -0.0942324 0
M  V30 1816 H 173.958 -3.07851 -2.81128 0
M  V30 1817 H 172.618 -1.91751 -2.62034 0
M  V30 1818 H 173.629 -5.1208 -0.774235 0
M  V30 1819 H 170.306 -3.28007 -2.58298 0
M  V30 1820 H 171.696 -6.70479 -0.436813 0
M  V30 1821 N 174.416 0.165178 -1.56732 0
M  V30 1822 C 175.664 0.879068 -1.8198 0
M  V30 1823 C 175.985 1.82514 -0.686561 0
M  V30 1824 O 175.255 1.93694 0.293146 0
M  V30 1825 H 173.835 0.327608 -0.671329 0
M  V30 1826 H 176.497 0.163526 -1.94213 0
M  V30 1827 H 175.593 1.45228 -2.76252 0
M  V30 1828 N 175.894 1.51508 0.433938 0
M  V30 1829 C 176.826 1.69266 1.54537 0
M  V30 1830 C 177.839 0.573276 1.52373 0
M  V30 1831 O 179.028 0.847698 1.57087 0
M  V30 1832 C 176.128 1.69524 2.93453 0
M  V30 1833 C 175.301 2.98101 3.20085 0
M  V30 1834 C 174.36 2.90502 4.38742 0
M  V30 1835 O 173.386 3.64442 4.3723 0
M  V30 1836 N 174.588 2.06586 5.42496 0
M  V30 1837 H 177.353 2.65145 1.39708 0
M  V30 1838 H 174.914 1.49437 0.622922 0
M  V30 1839 H 176.906 1.62004 3.70859 0
M  V30 1840 H 175.476 0.812245 3.01863 0
M  V30 1841 H 174.696 3.19464 2.30947 0
M  V30 1842 H 175.984 3.83207 3.34708 0
M  V30 1843 H 175.382 1.45896 5.46563 0
M  V30 1844 H 173.939 2.04943 6.18742 0
M  V30 1845 N 177.372 -0.689602 1.41712 0
M  V30 1846 C 178.62 -1.4468 1.4111 0
M  V30 1847 C 178.941 -1.94986 0.0232196 0
M  V30 1848 O 178.211 -1.72097 -0.935913 0
M  V30 1849 H 176.791 -0.536847 0.519427 0
M  V30 1850 H 179.453 -0.815825 1.77004 0
M  V30 1851 H 178.549 -2.30706 2.10193 0
M  V30 1852 N 178.85 -1.27639 -0.924453 0
M  V30 1853 C 179.797 -1.10644 -2.0255 0
M  V30 1854 C 180.767 -0.00658438 -1.66099 0
M  V30 1855 O 181.952 -0.16952 -1.90045 0
M  V30 1856 C 179.092 -0.76309 -3.36557 0
M  V30 1857 C 178.205 -1.94091 -3.85944 0
M  V30 1858 C 177.34 -1.53914 -5.08413 0
M  V30 1859 C 176.379 -2.68425 -5.50104 0
M  V30 1860 N 175.516 -2.28815 -6.63768 0
M  V30 1861 H 180.356 -2.04858 -2.16419 0
M  V30 1862 H 177.893 -1.01974 -1.06017 0
M  V30 1863 H 179.851 -0.544822 -4.13627 0
M  V30 1864 H 178.481 0.142102 -3.22487 0
M  V30 1865 H 177.533 -2.27162 -3.05125 0
M  V30 1866 H 178.845 -2.7998 -4.12811 0
M  V30 1867 H 177.999 -1.28231 -5.92994 0
M  V30 1868 H 176.738 -0.651391 -4.8333 0
M  V30 1869 H 175.743 -2.94819 -4.64071 0
M  V30 1870 H 176.968 -3.57826 -5.7718 0
M  V30 1871 H 174.914 -1.42495 -6.40337 0
M  V30 1872 H 174.831 -3.08242 -6.90306 0
M  V30 1873 H 176.099 -2.06387 -7.51681 0
M  V30 1874 N 180.328 1.1314 -1.09713 0
M  V30 1875 C 181.558 1.88048 -0.855656 0
M  V30 1876 C 181.966 1.79537 0.596919 0
M  V30 1877 O 181.309 1.16196 1.42282 0
M  V30 1878 C 181.371 3.38314 -1.21589 0
M  V30 1879 C 181.035 3.70605 -2.67397 0
M  V30 1880 C 182.032 3.69596 -3.65643 0
M  V30 1881 C 179.717 4.0017 -3.03593 0
M  V30 1882 C 181.711 3.977 -4.9811 0
M  V30 1883 C 179.398 4.27935 -4.36251 0
M  V30 1884 C 180.396 4.26685 -5.33318 0
M  V30 1885 O 180.084 4.53767 -6.63589 0
M  V30 1886 H 179.816 0.60208 -0.307368 0
M  V30 1887 H 182.37 1.44128 -1.46343 0
M  V30 1888 H 180.6 3.82752 -0.551177 0
M  V30 1889 H 182.289 3.94552 -0.953083 0
M  V30 1890 H 183.055 3.46826 -3.39023 0
M  V30 1891 H 178.934 4.00289 -2.2867 0
M  V30 1892 H 182.478 3.9664 -5.73866 0
M  V30 1893 H 178.375 4.50178 -4.62613 0
M  V30 1894 H 179.143 4.71422 -6.69107 0
M  V30 1895 N 181.806 0.884767 1.30421 0
M  V30 1896 C 183.217 0.553656 1.78302 0
M  V30 1897 C 183.568 -0.930153 1.7275 0
M  V30 1898 O 182.693 -1.72681 1.30423 0
M  V30 1899 C 183.288 0.998234 3.2376 0
M  V30 1900 C 181.847 0.71854 3.69478 0
M  V30 1901 C 180.994 1.18132 2.50879 0
M  V30 1902 H 183.945 1.06901 1.17294 0
M  V30 1903 H 183.966 0.327118 3.79091 0
M  V30 1904 H 183.478 2.0782 3.27769 0
M  V30 1905 H 181.579 -0.349444 3.70958 0
M  V30 1906 H 181.692 1.30595 4.60958 0
M  V30 1907 H 180.056 0.600669 2.47516 0
M  V30 1908 H 180.839 2.26902 2.57624 0
M  V30 1909 N 183.284 -1.43765 0.645699 0
M  V30 1910 C 184.524 -2.03776 0.159542 0
M  V30 1911 C 184.888 -1.49792 -1.2011 0
M  V30 1912 O 186.089 -2.01398 -1.78023 0
M  V30 1913 C 184.36 -3.57036 0.161251 0
M  V30 1914 S 185.919 -4.3804 -0.258159 0
M  V30 1915 H 182.737 -0.707717 0.0682454 0
M  V30 1916 H 185.339 -1.75941 0.852352 0
M  V30 1917 H 184.043 -3.9383 1.15439 0
M  V30 1918 H 183.574 -3.89503 -0.552339 0
M  V30 1919 H 185.589 -4.7302 -1.49889 0
M  V30 1920 N 184.763 -0.387143 -1.52771 0
M  V30 1921 C 185.693 0.440551 -2.29306 0
M  V30 1922 C 186.674 1.06535 -1.32606 0
M  V30 1923 O 187.859 1.07853 -1.61497 0
M  V30 1924 C 184.989 1.56919 -3.09829 0
M  V30 1925 C 183.943 1.07054 -4.14395 0
M  V30 1926 C 183.269 2.29109 -4.83129 0
M  V30 1927 C 184.569 0.140015 -5.22112 0
M  V30 1928 H 186.263 -0.198026 -2.98744 0
M  V30 1929 H 183.809 -0.09668 -1.43675 0
M  V30 1930 H 185.762 2.15503 -3.62128 0
M  V30 1931 H 184.486 2.23532 -2.3812 0
M  V30 1932 H 183.145 0.507247 -3.63074 0
M  V30 1933 H 182.793 2.94227 -4.0797 0
M  V30 1934 H 182.493 1.96406 -5.53804 0
M  V30 1935 H 184.017 2.88339 -5.38231 0
M  V30 1936 H 185.431 0.633978 -5.69784 0
M  V30 1937 H 183.828 -0.0971485 -6.00021 0
M  V30 1938 H 184.898 -0.811711 -4.78058 0
M  V30 1939 N 186.241 1.57166 -0.116904 0
M  V30 1940 C 187.173 2.12271 0.864507 0
M  V30 1941 C 188.186 1.06494 1.23138 0
M  V30 1942 O 189.375 1.33873 1.18069 0
M  V30 1943 C 186.475 2.60564 2.16702 0
M  V30 1944 C 185.648 3.90416 1.97216 0
M  V30 1945 C 184.707 4.24329 3.11178 0
M  V30 1946 O 183.733 4.93182 2.84184 0
M  V30 1947 N 184.935 3.8148 4.37554 0
M  V30 1948 H 187.7 2.97102 0.393726 0
M  V30 1949 H 185.261 1.61759 0.0675805 0
M  V30 1950 H 187.253 2.80282 2.91932 0
M  V30 1951 H 185.823 1.80623 2.55135 0
M  V30 1952 H 185.043 3.79627 1.06192 0
M  V30 1953 H 186.331 4.75327 1.81499 0
M  V30 1954 H 185.729 3.25943 4.62361 0
M  V30 1955 H 184.286 4.06311 5.09661 0
M  V30 1956 N 187.719 -0.156864 1.56817 0
M  V30 1957 C 188.965 -0.872416 1.83076 0
M  V30 1958 C 189.298 -1.81261 0.697001 0
M  V30 1959 O 188.573 -1.92171 -0.30008 0
M  V30 1960 C 188.856 -1.65551 3.19789 0
M  V30 1961 C 188.709 -0.737467 4.43713 0
M  V30 1962 C 190.028 -2.62012 3.53606 0
M  V30 1963 H 187.147 -0.315715 0.665953 0
M  V30 1964 H 189.789 -0.138004 1.89498 0
M  V30 1965 H 187.939 -2.28159 3.14445 0
M  V30 1966 H 189.611 -0.123143 4.61136 0
M  V30 1967 H 187.854 -0.0464067 4.33775 0
M  V30 1968 H 188.525 -1.32122 5.35955 0
M  V30 1969 H 191.001 -2.09525 3.59497 0
M  V30 1970 H 189.877 -3.13861 4.50314 0
M  V30 1971 H 190.138 -3.42902 2.79053 0
M  V30 1972 N 189.197 -1.51736 -0.425897 0
M  V30 1973 C 190.444 -1.6497 -1.17436 0
M  V30 1974 C 190.772 -0.371445 -1.9092 0
M  V30 1975 O 190.027 0.644963 -1.84767 0
M  V30 1976 C 190.326 -2.81103 -2.20717 0
M  V30 1977 C 189.992 -4.19954 -1.64162 0
M  V30 1978 C 188.654 -4.57725 -1.48462 0
M  V30 1979 C 191.006 -5.06552 -1.22696 0
M  V30 1980 C 188.334 -5.79789 -0.897873 0
M  V30 1981 C 190.686 -6.29205 -0.654464 0
M  V30 1982 C 189.35 -6.6574 -0.484456 0
M  V30 1983 H 188.62 -0.603668 -0.429727 0
M  V30 1984 H 191.267 -1.85798 -0.463829 0
M  V30 1985 H 189.572 -2.54542 -2.97852 0
M  V30 1986 H 191.269 -2.8854 -2.78471 0
M  V30 1987 H 187.859 -3.90181 -1.77361 0
M  V30 1988 H 192.043 -4.77968 -1.33642 0
M  V30 1989 H 187.299 -6.06733 -0.75402 0
M  V30 1990 H 191.473 -6.95643 -0.324694 0
M  V30 1991 H 189.1 -7.60195 -0.0276833 0
M  V30 1992 N 190.675 0.682077 -1.42076 0
M  V30 1993 C 191.921 1.44428 -1.42367 0
M  V30 1994 C 192.254 1.94164 -0.0373056 0
M  V30 1995 O 191.529 1.70429 0.937239 0
M  V30 1996 C 191.812 2.64654 -2.44194 0
M  V30 1997 C 191.665 2.20596 -3.91991 0
M  V30 1998 C 192.984 3.66865 -2.431 0
M  V30 1999 H 190.103 0.523834 -0.518428 0
M  V30 2000 H 192.745 0.77576 -1.73442 0
M  V30 2001 H 190.895 3.2169 -2.17826 0
M  V30 2002 H 192.567 1.68783 -4.29313 0
M  V30 2003 H 190.81 1.52242 -4.06208 0
M  V30 2004 H 191.481 3.06921 -4.58807 0
M  V30 2005 H 193.957 3.19531 -2.66532 0
M  V30 2006 H 192.833 4.48577 -3.16339 0
M  V30 2007 H 193.094 4.17493 -1.45437 0
M  V30 2008 N 192.153 1.28127 0.917671 0
M  V30 2009 C 193.101 1.11569 2.04096 0
M  V30 2010 C 194.095 0.0360242 1.69362 0
M  V30 2011 O 195.301 0.194501 1.78946 0
M  V30 2012 H 191.676 0.344097 0.668656 0
M  V30 2013 H 193.647 2.06711 2.15205 0
M  V30 2014 C 192.396 0.790197 3.38602 0
M  V30 2015 H 191.719 1.61293 3.6582 0
M  V30 2016 H 193.159 0.714271 4.1794 0
M  V30 2017 C 191.618 -0.505897 3.3308 0
M  V30 2018 O 192.148 -1.53736 3.71117 0
M  V30 2019 N 190.354 -0.505193 2.86175 0
M  V30 2020 H 189.901 0.334621 2.55417 0
M  V30 2021 H 189.859 -1.37243 2.82863 0
M  V30 2022 N 193.631 -1.12557 1.10312 0
M  V30 2023 C 194.561 -2.20341 0.772798 0
M  V30 2024 C 195.542 -1.68198 -0.25365 0
M  V30 2025 O 196.727 -1.93831 -0.119699 0
M  V30 2026 C 193.857 -3.46709 0.202443 0
M  V30 2027 C 192.811 -4.11996 1.15943 0
M  V30 2028 C 192.137 -5.328 0.450345 0
M  V30 2029 C 193.437 -4.5828 2.50552 0
M  V30 2030 H 195.131 -2.48229 1.674 0
M  V30 2031 H 192.677 -1.19308 0.806326 0
M  V30 2032 H 194.63 -4.2138 -0.0407752 0
M  V30 2033 H 193.354 -3.18245 -0.734001 0
M  V30 2034 H 192.013 -3.39305 1.38808 0
M  V30 2035 H 191.661 -5.00602 -0.490531 0
M  V30 2036 H 191.361 -5.7743 1.08851 0
M  V30 2037 H 192.885 -6.10219 0.215642 0
M  V30 2038 H 194.299 -5.2433 2.31843 0
M  V30 2039 H 192.696 -5.13683 3.10242 0
M  V30 2040 H 193.766 -3.72329 3.10643 0
M  V30 2041 N 195.109 -0.891671 -1.2995 0
M  V30 2042 C 196.334 -0.527932 -2.00568 0
M  V30 2043 C 196.759 0.877969 -1.66353 0
M  V30 2044 O 196.117 1.58301 -0.883762 0
M  V30 2045 C 196.165 -0.717745 -3.53385 0
M  V30 2046 O 195.269 0.233376 -4.11739 0
M  V30 2047 H 194.61 -0.20722 -0.630837 0
M  V30 2048 H 197.14 -1.20105 -1.65638 0
M  V30 2049 H 197.15 -0.619307 -4.03272 0
M  V30 2050 H 195.825 -1.74276 -3.77625 0
M  V30 2051 H 194.402 0.0880706 -3.72796 0
M  V30 2052 N 196.587 1.43421 -0.653314 0
M  V30 2053 C 197.537 2.2792 0.060558 0
M  V30 2054 C 198.521 1.39906 0.794677 0
M  V30 2055 O 199.713 1.63536 0.677128 0
M  V30 2056 C 196.842 3.27603 1.0262 0
M  V30 2057 C 195.928 4.23104 0.290551 0
M  V30 2058 N 196.319 5.01031 -0.692967 0
M  V30 2059 C 194.617 4.42816 0.531984 0
M  V30 2060 C 195.318 5.70626 -1.12963 0
M  V30 2061 N 194.294 5.41617 -0.463867 0
M  V30 2062 H 198.096 2.85585 -0.694143 0
M  V30 2063 H 195.61 1.55126 -0.480602 0
M  V30 2064 H 197.607 3.86918 1.55242 0
M  V30 2065 H 196.267 2.71499 1.78096 0
M  V30 2066 H 197.278 5.0669 -1.07169 0
M  V30 2067 H 193.955 3.97782 1.26791 0
M  V30 2068 H 195.345 6.4318 -1.94343 0
M  V30 2069 N 198.065 0.39524 1.52563 0
M  V30 2070 C 199.476 -0.0774719 1.86539 0
M  V30 2071 C 199.827 -1.45641 1.31466 0
M  V30 2072 O 198.952 -2.06459 0.648367 0
M  V30 2073 C 199.547 -0.147356 3.38479 0
M  V30 2074 C 198.106 -0.564373 3.72145 0
M  V30 2075 C 197.253 0.269919 2.75983 0
M  V30 2076 H 200.204 0.612876 1.46388 0
M  V30 2077 H 200.225 -0.965343 3.68051 0
M  V30 2078 H 199.737 0.856387 3.78534 0
M  V30 2079 H 197.838 -1.57527 3.37663 0
M  V30 2080 H 197.951 -0.318402 4.78041 0
M  V30 2081 H 196.315 -0.265696 2.5331 0
M  V30 2082 H 197.098 1.27175 3.18875 0
M  V30 2083 N 199.544 -1.57102 0.125237 0
M  V30 2084 C 200.792 -1.95021 -0.530198 0
M  V30 2085 C 201.113 -1.00982 -1.66816 0
M  V30 2086 O 200.383 -0.0672693 -1.95784 0
M  V30 2087 H 198.963 -0.720046 -0.198853 0
M  V30 2088 H 201.625 -1.93916 0.19564 0
M  V30 2089 H 200.721 -2.98211 -0.920681 0
M  V30 2090 N 201.022 0.148545 -1.56898 0
M  V30 2091 C 201.954 1.20852 -1.9475 0
M  V30 2092 C 202.967 1.39265 -0.843152 0
M  V30 2093 O 204.156 1.38864 -1.12156 0
M  V30 2094 C 201.256 2.57362 -2.20495 0
M  V30 2095 C 200.429 2.59947 -3.51776 0
M  V30 2096 C 199.488 3.77984 -3.6608 0
M  V30 2097 O 198.514 3.62929 -4.38487 0
M  V30 2098 N 199.716 4.95375 -3.02629 0
M  V30 2099 H 202.481 0.886804 -2.86279 0
M  V30 2100 H 200.042 0.338121 -1.5833 0
M  V30 2101 H 202.034 3.34833 -2.27307 0
M  V30 2102 H 200.604 2.81832 -1.35238 0
M  V30 2103 H 199.824 1.68403 -3.56419 0
M  V30 2104 H 201.112 2.58704 -4.38121 0
M  V30 2105 H 200.51 5.10509 -2.43715 0
M  V30 2106 H 199.067 5.70627 -3.15004 0
M  V30 2107 N 202.5 1.5196 0.417844 0
M  V30 2108 C 203.447 1.74678 1.50852 0
M  V30 2109 C 204.417 0.588947 1.55308 0
M  V30 2110 O 205.602 0.825544 1.72016 0
M  V30 2111 C 202.742 1.89544 2.88387 0
M  V30 2112 C 201.855 3.17166 2.93309 0
M  V30 2113 C 200.99 3.22513 4.22088 0
M  V30 2114 C 200.029 4.44372 4.20951 0
M  V30 2115 N 199.166 4.47161 5.41287 0
M  V30 2116 H 204.006 2.67768 1.30783 0
M  V30 2117 H 201.543 1.32689 0.63498 0
M  V30 2118 H 203.501 1.96146 3.68216 0
M  V30 2119 H 202.131 0.998424 3.06971 0
M  V30 2120 H 201.183 3.19778 2.06024 0
M  V30 2121 H 202.495 4.07021 2.88332 0
M  V30 2122 H 201.649 3.28139 5.10303 0
M  V30 2123 H 200.388 2.30581 4.29748 0
M  V30 2124 H 199.393 4.38902 3.31127 0
M  V30 2125 H 200.618 5.3759 4.14938 0
M  V30 2126 H 198.564 3.58108 5.49632 0
M  V30 2127 H 198.481 5.3085 5.3827 0
M  V30 2128 H 199.749 4.57005 6.3148 0
M  V30 2129 N 203.978 -0.674533 1.42435 0
M  V30 2130 C 204.941 -1.76986 1.45632 0
M  V30 2131 C 205.941 -1.5708 0.343871 0
M  V30 2132 O 207.131 -1.63367 0.604709 0
M  V30 2133 C 204.263 -3.15623 1.28822 0
M  V30 2134 H 205.456 -1.75539 2.43158 0
M  V30 2135 H 203.009 -0.884189 1.28887 0
M  V30 2136 H 203.744 -3.22696 0.322193 0
M  V30 2137 H 203.529 -3.31475 2.09444 0
M  V30 2138 H 205.019 -3.95537 1.33942 0
M  V30 2139 N 205.456 -1.28612 -0.910864 0
M  V30 2140 C 206.386 -1.15326 -2.03032 0
M  V30 2141 C 207.367 -0.0502924 -1.70026 0
M  V30 2142 O 208.552 -0.227797 -1.92859 0
M  V30 2143 C 205.682 -0.817343 -3.37545 0
M  V30 2144 C 204.636 -1.8754 -3.84724 0
M  V30 2145 C 203.962 -1.39305 -5.16235 0
M  V30 2146 C 205.262 -3.28244 -4.06267 0
M  V30 2147 H 206.956 -2.08975 -2.14406 0
M  V30 2148 H 204.502 -1.00612 -1.03021 0
M  V30 2149 H 206.455 -0.711151 -4.15356 0
M  V30 2150 H 205.179 0.154846 -3.26233 0
M  V30 2151 H 203.838 -1.97079 -3.09121 0
M  V30 2152 H 203.486 -0.409846 -5.01328 0
M  V30 2153 H 203.186 -2.10057 -5.48771 0
M  V30 2154 H 204.71 -1.30014 -5.96598 0
M  V30 2155 H 206.124 -3.21611 -4.74594 0
M  V30 2156 H 204.521 -3.96855 -4.5014 0
M  V30 2157 H 205.591 -3.72048 -3.10979 0
M  V30 2158 N 206.934 1.1197 -1.10907 0
M  V30 2159 C 207.864 2.19928 -0.784473 0
M  V30 2160 C 208.845 1.6833 0.244726 0
M  V30 2161 O 210.03 1.93892 0.109418 0
M  V30 2162 C 207.16 3.46597 -0.220827 0
M  V30 2163 C 206.114 4.11376 -1.18127 0
M  V30 2164 C 205.44 5.32554 -0.478594 0
M  V30 2165 C 206.74 4.56945 -2.52979 0
M  V30 2166 H 208.434 2.47337 -1.68715 0
M  V30 2167 H 205.98 1.18879 -0.812642 0
M  V30 2168 H 207.933 4.21396 0.0184278 0
M  V30 2169 H 206.657 3.1863 0.717113 0
M  V30 2170 H 205.316 3.38564 -1.40606 0
M  V30 2171 H 204.964 5.00856 0.463976 0
M  V30 2172 H 204.664 5.76844 -1.11912 0
M  V30 2173 H 206.188 6.10096 -0.248 0
M  V30 2174 H 207.602 5.23093 -2.3462 0
M  V30 2175 H 205.999 5.1203 -3.12962 0
M  V30 2176 H 207.069 3.70676 -3.12614 0
M  V30 2177 N 208.412 0.89855 1.29475 0
M  V30 2178 C 209.362 0.346767 2.25348 0
M  V30 2179 C 210.346 -0.532509 1.51833 0
M  V30 2180 O 211.538 -0.374714 1.72988 0
M  V30 2181 C 208.667 -0.425681 3.40651 0
M  V30 2182 C 207.753 0.46845 4.21505 0
M  V30 2183 N 208.144 1.57514 4.80648 0
M  V30 2184 C 206.442 0.26603 4.45206 0
M  V30 2185 C 207.143 2.12889 5.41344 0
M  V30 2186 N 206.119 1.42208 5.24669 0
M  V30 2187 H 209.921 1.19219 2.68634 0
M  V30 2188 H 207.435 0.749473 1.44072 0
M  V30 2189 H 209.432 -0.837716 4.08397 0
M  V30 2190 H 208.092 -1.26838 2.98902 0
M  V30 2191 H 209.103 1.95789 4.79465 0
M  V30 2192 H 205.78 -0.538394 4.14014 0
M  V30 2193 H 207.17 3.05901 5.98226 0
M  V30 2194 N 209.89 -1.43072 0.660911 0
M  V30 2195 C 211.12 -2.05769 0.185153 0
M  V30 2196 C 211.528 -1.49668 -1.15742 0
M  V30 2197 O 210.871 -0.625649 -1.72717 0
M  V30 2198 C 210.933 -3.59489 0.0278237 0
M  V30 2199 C 210.597 -4.38212 1.2969 0
M  V30 2200 C 211.594 -4.69772 2.22734 0
M  V30 2201 C 209.279 -4.7809 1.54063 0
M  V30 2202 C 211.273 -5.40129 3.38437 0
M  V30 2203 C 208.96 -5.4819 2.70058 0
M  V30 2204 C 209.958 -5.79132 3.62071 0
M  V30 2205 O 209.646 -6.47798 4.76039 0
M  V30 2206 H 209.378 -0.669873 0.0908086 0
M  V30 2207 H 211.932 -1.84436 0.90402 0
M  V30 2208 H 210.162 -3.79426 -0.746489 0
M  V30 2209 H 211.851 -4.03862 -0.406275 0
M  V30 2210 H 212.617 -4.39476 2.05149 0
M  V30 2211 H 208.496 -4.53408 0.833215 0
M  V30 2212 H 212.04 -5.64198 4.10277 0
M  V30 2213 H 207.937 -5.77902 2.87574 0
M  V30 2214 H 208.705 -6.66283 4.75404 0
M  V30 2215 N 211.368 -0.403325 -1.52352 0
M  V30 2216 C 212.316 0.439752 -2.28405 0
M  V30 2217 C 213.31 1.05089 -1.32863 0
M  V30 2218 O 214.516 0.989759 -1.50345 0
M  V30 2219 H 210.891 0.160587 -0.734653 0
M  V30 2220 H 212.862 -0.222983 -2.97566 0
M  V30 2221 C 211.611 1.54736 -3.11371 0
M  V30 2222 H 210.934 1.08643 -3.84755 0
M  V30 2223 H 212.374 2.1112 -3.67701 0
M  V30 2224 C 210.833 2.51141 -2.24566 0
M  V30 2225 O 211.363 3.54887 -1.88196 0
M  V30 2226 N 209.569 2.21213 -1.8845 0
M  V30 2227 H 209.116 1.36878 -2.18225 0
M  V30 2228 H 209.074 2.85963 -1.30662 0
M  V30 2229 N 212.846 1.57033 -0.133567 0
M  V30 2230 C 213.756 2.19632 0.824564 0
M  V30 2231 C 214.772 1.17666 1.28182 0
M  V30 2232 O 215.948 1.50193 1.3418 0
M  V30 2233 C 213.013 2.79499 2.05137 0
M  V30 2234 C 212.074 3.96548 1.64464 0
M  V30 2235 C 211.307 4.5355 2.81297 0
M  V30 2236 O 211.53 4.09438 3.97136 0
M  V30 2237 O 210.464 5.44018 2.57542 0
M  V30 2238 H 214.29 3.01991 0.321766 0
M  V30 2239 H 211.875 1.49112 0.0927889 0
M  V30 2240 H 213.757 3.17602 2.7696 0
M  V30 2241 H 212.432 2.00162 2.54395 0
M  V30 2242 H 211.339 3.63186 0.897048 0
M  V30 2243 H 212.672 4.77364 1.19934 0
M  V30 2244 N 214.325 -0.140222 1.56975 0
M  V30 2245 C 215.235 -1.19223 2.02047 0
M  V30 2246 C 216.251 -1.46612 0.937062 0
M  V30 2247 O 217.427 -1.58148 1.24704 0
M  V30 2248 C 214.492 -2.50414 2.39778 0
M  V30 2249 C 213.553 -2.30612 3.621 0
M  V30 2250 C 212.786 -3.55547 3.98023 0
M  V30 2251 O 213.009 -4.62004 3.34528 0
M  V30 2252 O 211.943 -3.47808 4.91237 0
M  V30 2253 H 215.769 -0.839559 2.91865 0
M  V30 2254 H 213.354 -0.349453 1.45256 0
M  V30 2255 H 215.236 -3.27747 2.64877 0
M  V30 2256 H 213.911 -2.85198 1.53114 0
M  V30 2257 H 212.818 -1.51207 3.4218 0
M  V30 2258 H 214.151 -2.00741 4.49404 0
M  V30 2259 N 215.803 -1.52179 -0.40978 0
M  V30 2260 C 216.766 -1.74853 -1.48186 0
M  V30 2261 C 217.766 -0.618417 -1.48433 0
M  V30 2262 O 218.956 -0.886286 -1.49969 0
M  V30 2263 C 216.088 -1.8303 -2.87598 0
M  V30 2264 H 217.281 -2.70559 -1.29374 0
M  V30 2265 H 214.834 -1.42586 -0.640233 0
M  V30 2266 H 215.569 -0.89236 -3.11781 0
M  V30 2267 H 215.354 -2.65187 -2.88822 0
M  V30 2268 H 216.844 -2.02316 -3.65319 0
M  V30 2269 N 217.281 0.66697 -1.42791 0
M  V30 2270 C 218.527 1.4291 -1.43891 0
M  V30 2271 C 218.86 1.94114 -0.0578972 0
M  V30 2272 O 218.135 1.71414 0.91911 0
M  V30 2273 C 218.418 2.62049 -2.46987 0
M  V30 2274 C 218.271 2.16426 -3.94309 0
M  V30 2275 C 219.59 3.64266 -2.46978 0
M  V30 2276 H 216.709 0.518306 -0.523954 0
M  V30 2277 H 219.351 0.757321 -1.74255 0
M  V30 2278 H 217.501 3.19361 -2.21225 0
M  V30 2279 H 219.173 1.64221 -4.31079 0
M  V30 2280 H 217.416 1.47925 -4.078 0
M  V30 2281 H 218.087 3.02038 -4.62036 0
M  V30 2282 H 220.563 3.16686 -2.69906 0
M  V30 2283 H 219.439 4.45196 -3.21079 0
M  V30 2284 H 219.7 4.15927 -1.49857 0
M  V30 2285 N 218.759 1.29093 0.90403 0
M  V30 2286 C 219.691 1.09658 2.01266 0
M  V30 2287 C 220.704 0.0453729 1.62737 0
M  V30 2288 O 221.893 0.289446 1.76138 0
M  V30 2289 C 218.993 0.646278 3.32681 0
M  V30 2290 C 218.166 1.77505 3.99763 0
M  V30 2291 C 217.225 1.31649 5.09465 0
M  V30 2292 O 216.251 2.02045 5.32134 0
M  V30 2293 N 217.453 0.184997 5.80205 0
M  V30 2294 H 220.218 2.05135 2.18494 0
M  V30 2295 H 217.779 1.20975 1.07594 0
M  V30 2296 H 219.771 0.322906 4.0341 0
M  V30 2297 H 218.341 -0.215916 3.11853 0
M  V30 2298 H 217.561 2.26752 3.22455 0
M  V30 2299 H 218.849 2.53198 4.41325 0
M  V30 2300 H 218.247 -0.402021 5.6427 0
M  V30 2301 H 216.804 -0.0790358 6.51752 0
M  V30 2302 N 220.237 -1.11381 1.11499 0
M  V30 2303 C 221.486 -1.82494 0.858993 0
M  V30 2304 C 221.799 -1.85605 -0.617278 0
M  V30 2305 O 223.005 -2.52824 -0.989552 0
M  V30 2306 C 221.461 -3.27745 1.48699 0
M  V30 2307 C 221.069 -3.32961 2.99735 0
M  V30 2308 C 222.813 -4.03754 1.31085 0
M  V30 2309 C 220.72 -4.72612 3.55516 0
M  V30 2310 H 219.65 -0.683802 0.317696 0
M  V30 2311 H 222.301 -1.25331 1.34031 0
M  V30 2312 H 220.683 -3.84844 0.933339 0
M  V30 2313 H 221.857 -2.85741 3.61509 0
M  V30 2314 H 220.172 -2.70433 3.16631 0
M  V30 2315 H 222.769 -5.06891 1.70192 0
M  V30 2316 H 223.112 -4.15527 0.253496 0
M  V30 2317 H 223.645 -3.53043 1.83318 0
M  V30 2318 H 220.384 -4.66036 4.60967 0
M  V30 2319 H 219.904 -5.2024 2.98513 0
M  V30 2320 H 221.583 -5.4157 3.53992 0
M  V30 2321 N 221.715 -0.905404 -1.28997 0
M  V30 2322 C 222.663 -0.377431 -2.29517 0
M  V30 2323 C 223.657 0.526461 -1.61012 0
M  V30 2324 O 224.863 0.40863 -1.753 0
M  V30 2325 H 221.238 -0.103437 -0.744852 0
M  V30 2326 H 223.209 -1.23848 -2.71485 0
M  V30 2327 C 221.958 0.374833 -3.45674 0
M  V30 2328 H 221.281 -0.311474 -3.98585 0
M  V30 2329 H 222.721 0.70903 -4.1803 0
M  V30 2330 C 221.18 1.57963 -2.97572 0
M  V30 2331 O 221.71 2.67886 -2.99333 0
M  V30 2332 N 219.916 1.42375 -2.53333 0
M  V30 2333 H 219.463 0.529466 -2.521 0
M  V30 2334 H 219.421 2.23117 -2.21509 0
M  V30 2335 N 223.193 1.4272 -0.668489 0
M  V30 2336 C 224.604 1.84793 -0.266151 0
M  V30 2337 C 224.955 1.55959 1.19043 0
M  V30 2338 O 224.08 1.01622 1.91055 0
M  V30 2339 C 224.675 3.35436 -0.476271 0
M  V30 2340 C 223.234 3.76182 -0.128113 0
M  V30 2341 C 222.381 2.66344 -0.771777 0
M  V30 2342 H 225.332 1.32656 -0.871098 0
M  V30 2343 H 225.353 3.79515 0.273561 0
M  V30 2344 H 224.865 3.5639 -1.53647 0
M  V30 2345 H 222.966 3.60836 0.928891 0
M  V30 2346 H 223.079 4.75766 -0.564231 0
M  V30 2347 H 221.443 2.53885 -0.203652 0
M  V30 2348 H 222.226 2.90123 -1.83531 0
M  V30 2349 N 224.671 0.411399 1.52136 0
M  V30 2350 C 225.618 -0.412975 2.27075 0
M  V30 2351 C 226.588 -1.03912 1.29582 0
M  V30 2352 O 227.773 -1.06296 1.58448 0
M  V30 2353 C 224.913 -1.52247 3.09701 0
M  V30 2354 C 224.026 -0.917021 4.22155 0
M  V30 2355 C 223.161 -1.9994 4.92135 0
M  V30 2356 C 222.2 -1.37101 5.96548 0
M  V30 2357 N 221.337 -2.39364 6.60038 0
M  V30 2358 H 226.177 0.232499 2.97092 0
M  V30 2359 H 223.714 0.126496 1.46555 0
M  V30 2360 H 225.672 -2.17674 3.55913 0
M  V30 2361 H 224.302 -2.13794 2.41851 0
M  V30 2362 H 223.354 -0.151742 3.80097 0
M  V30 2363 H 224.666 -0.418006 4.97045 0
M  V30 2364 H 223.82 -2.73088 5.41763 0
M  V30 2365 H 222.559 -2.53208 4.16818 0
M  V30 2366 H 221.564 -0.624873 5.46237 0
M  V30 2367 H 222.789 -0.845998 6.7381 0
M  V30 2368 H 220.735 -2.91759 5.87548 0
M  V30 2369 H 220.652 -1.9428 7.3061 0
M  V30 2370 H 221.92 -3.12074 7.14304 0
M  V30 2371 N 226.149 -1.5696 0.141893 0
M  V30 2372 C 227.389 -1.9785 -0.513304 0
M  V30 2373 C 227.753 -1.02467 -1.62371 0
M  V30 2374 O 228.954 -1.32382 -2.33941 0
M  V30 2375 C 227.225 -3.42797 -1.01118 0
M  V30 2376 S 228.784 -4.05709 -1.67169 0
M  V30 2377 H 225.602 -0.691318 -0.166135 0
M  V30 2378 H 228.204 -1.94114 0.232398 0
M  V30 2379 H 226.908 -4.0995 -0.192179 0
M  V30 2380 H 226.439 -3.50235 -1.79162 0
M  V30 2381 H 228.454 -3.98342 -2.95868 0
M  V30 2382 N 227.627 0.131896 -1.57047 0
M  V30 2383 C 228.874 0.841932 -1.84168 0
M  V30 2384 C 229.202 1.8048 -0.725066 0
M  V30 2385 O 228.457 1.93618 0.284692 0
M  V30 2386 C 228.756 1.63703 -3.17704 0
M  V30 2387 C 228.422 0.81961 -4.43388 0
M  V30 2388 C 227.084 0.594148 -4.77518 0
M  V30 2389 C 229.436 0.248977 -5.20605 0
M  V30 2390 C 226.764 -0.212409 -5.86315 0
M  V30 2391 C 229.116 -0.544701 -6.30251 0
M  V30 2392 C 227.78 -0.780599 -6.6292 0
M  V30 2393 H 227.05 0.308085 -0.673917 0
M  V30 2394 H 229.697 0.104867 -1.91213 0
M  V30 2395 H 228.002 2.44464 -3.06177 0
M  V30 2396 H 229.699 2.19015 -3.35907 0
M  V30 2397 H 226.289 1.00542 -4.16641 0
M  V30 2398 H 230.473 0.410408 -4.946 0
M  V30 2399 H 225.729 -0.404524 -6.1006 0
M  V30 2400 H 229.903 -0.993922 -6.89271 0
M  V30 2401 H 227.53 -1.40742 -7.47058 0
M  V30 2402 N 229.106 1.52395 0.401703 0
M  V30 2403 C 230.336 1.70429 1.1678 0
M  V30 2404 C 230.744 0.416702 1.84554 0
M  V30 2405 O 230.087 -0.617697 1.73003 0
M  V30 2406 C 230.149 2.78919 2.26814 0
M  V30 2407 C 229.813 4.20437 1.79113 0
M  V30 2408 C 230.81 5.04028 1.27482 0
M  V30 2409 C 228.495 4.66704 1.85722 0
M  V30 2410 C 230.489 6.31961 0.830913 0
M  V30 2411 C 228.176 5.94625 1.40942 0
M  V30 2412 C 229.174 6.77082 0.897128 0
M  V30 2413 O 228.862 8.02607 0.455822 0
M  V30 2414 H 228.594 0.574272 0.356634 0
M  V30 2415 H 231.148 1.99767 0.477724 0
M  V30 2416 H 229.378 2.44973 2.99207 0
M  V30 2417 H 231.067 2.8548 2.88541 0
M  V30 2418 H 231.833 4.69471 1.21744 0
M  V30 2419 H 227.712 4.0262 2.24539 0
M  V30 2420 H 231.256 6.96271 0.430368 0
M  V30 2421 H 227.153 6.28688 1.46362 0
M  V30 2422 H 227.921 8.16453 0.578457 0
M  V30 2423 N 230.584 -0.659388 1.43143 0
M  V30 2424 C 231.812 -1.44723 1.47861 0
M  V30 2425 C 232.227 -1.88563 0.0945886 0
M  V30 2426 O 231.584 -1.59108 -0.893915 0
M  V30 2427 C 231.635 -2.68627 2.41913 0
M  V30 2428 O 231.356 -2.26623 3.74932 0
M  V30 2429 C 232.857 -3.62045 2.55809 0
M  V30 2430 H 230.077 -0.444801 0.502387 0
M  V30 2431 H 232.621 -0.808916 1.87821 0
M  V30 2432 H 230.776 -3.28613 2.05164 0
M  V30 2433 H 231.19 -3.06745 4.2545 0
M  V30 2434 H 232.664 -4.45666 3.25708 0
M  V30 2435 H 233.141 -4.08981 1.60099 0
M  V30 2436 H 233.747 -3.07944 2.93344 0
M  V30 2437 N 232.062 -1.29571 -0.897171 0
M  V30 2438 C 233.473 -1.15964 -1.46319 0
M  V30 2439 C 233.824 0.244267 -1.94674 0
M  V30 2440 O 232.949 1.13998 -1.83939 0
M  V30 2441 C 233.544 -2.09906 -2.65942 0
M  V30 2442 C 232.103 -2.00314 -3.18671 0
M  V30 2443 C 231.25 -2.00687 -1.91363 0
M  V30 2444 H 234.201 -1.42019 -0.708268 0
M  V30 2445 H 234.222 -1.67276 -3.41759 0
M  V30 2446 H 233.734 -3.12075 -2.30718 0
M  V30 2447 H 231.835 -1.01242 -3.58582 0
M  V30 2448 H 231.948 -2.88102 -3.82798 0
M  V30 2449 H 230.312 -1.45319 -2.09175 0
M  V30 2450 H 231.095 -3.04566 -1.58413 0
M  V30 2451 N 233.54 1.10788 -1.12088 0
M  V30 2452 C 234.487 2.17025 -0.785407 0
M  V30 2453 C 235.457 1.64265 0.246191 0
M  V30 2454 O 236.642 1.90412 0.121584 0
M  V30 2455 C 233.782 3.44249 -0.242177 0
M  V30 2456 C 232.895 4.1098 -1.33115 0
M  V30 2457 C 232.03 5.25911 -0.747741 0
M  V30 2458 C 231.069 5.84538 -1.81609 0
M  V30 2459 N 230.206 6.90853 -1.25167 0
M  V30 2460 H 235.046 2.45066 -1.69548 0
M  V30 2461 H 232.583 1.20297 -0.846582 0
M  V30 2462 H 234.541 4.17101 0.0908026 0
M  V30 2463 H 233.171 3.16571 0.631072 0
M  V30 2464 H 232.223 3.36133 -1.78097 0
M  V30 2465 H 233.535 4.50601 -2.13917 0
M  V30 2466 H 232.689 6.056 -0.365216 0
M  V30 2467 H 231.428 4.87614 0.0915188 0
M  V30 2468 H 230.433 5.03522 -2.20785 0
M  V30 2469 H 231.658 6.249 -2.6585 0
M  V30 2470 H 229.604 6.54562 -0.434174 0
M  V30 2471 H 229.521 7.29166 -1.99633 0
M  V30 2472 H 230.789 7.7433 -0.896259 0
M  V30 2473 N 235.018 0.912232 1.28515 0
M  V30 2474 C 236.258 0.551677 1.96814 0
M  V30 2475 C 236.622 -0.887825 1.7024 0
M  V30 2476 O 237.823 -1.35588 2.32098 0
M  V30 2477 C 236.094 0.850555 3.47132 0
M  V30 2478 S 237.653 0.59619 4.34731 0
M  V30 2479 H 234.471 0.204191 0.681049 0
M  V30 2480 H 237.073 1.17736 1.56072 0
M  V30 2481 H 235.777 1.8962 3.63968 0
M  V30 2482 H 235.308 0.213471 3.9282 0
M  V30 2483 H 237.323 -0.553154 4.93107 0
M  V30 2484 N 236.496 -1.42363 0.676048 0
M  V30 2485 C 237.446 -2.27987 -0.0242903 0
M  V30 2486 C 238.43 -1.41153 -0.772319 0
M  V30 2487 O 239.622 -1.64592 -0.651025 0
M  V30 2488 C 236.751 -3.29195 -0.973953 0
M  V30 2489 C 235.837 -4.23512 -0.223202 0
M  V30 2490 N 236.228 -4.99865 0.772589 0
M  V30 2491 C 234.526 -4.43606 -0.461469 0
M  V30 2492 C 235.227 -5.68757 1.22027 0
M  V30 2493 N 234.203 -5.40811 0.549975 0
M  V30 2494 H 238.005 -2.84445 0.73949 0
M  V30 2495 H 235.519 -1.54341 0.50522 0
M  V30 2496 H 237.516 -3.89339 -1.49067 0
M  V30 2497 H 236.176 -2.74298 -1.73755 0
M  V30 2498 H 237.187 -5.04921 1.15217 0
M  V30 2499 H 233.864 -3.99749 -1.20446 0
M  V30 2500 H 235.254 -6.40007 2.0455 0
M  V30 2501 N 237.974 -0.419461 -1.51915 0
M  V30 2502 C 238.906 0.43646 -2.25006 0
M  V30 2503 C 239.919 1.00149 -1.28351 0
M  V30 2504 O 241.108 0.898674 -1.54227 0
M  V30 2505 C 238.208 1.6206 -2.9764 0
M  V30 2506 C 237.381 1.17763 -4.21249 0
M  V30 2507 C 236.44 2.22985 -4.76617 0
M  V30 2508 O 235.466 1.83151 -5.38929 0
M  V30 2509 N 236.668 3.55271 -4.59089 0
M  V30 2510 H 239.433 -0.18989 -2.99098 0
M  V30 2511 H 236.994 -0.247386 -1.59999 0
M  V30 2512 H 238.986 2.32038 -3.31573 0
M  V30 2513 H 237.556 2.15266 -2.2667 0
M  V30 2514 H 236.776 0.305582 -3.93014 0
M  V30 2515 H 238.064 0.858781 -5.015 0
M  V30 2516 H 237.462 3.90377 -4.09417 0
M  V30 2517 H 236.019 4.21195 -4.97432 0
M  V30 2518 N 239.452 1.56882 -0.150215 0
M  V30 2519 C 240.729 1.87844 0.545327 0
M  V30 2520 C 241.109 1.0567 1.82749 0
M  V30 2521 O 240.457 0.144442 2.28043 0
M  V30 2522 C 240.667 3.39526 0.80767 0
M  V30 2523 C 242.015 4.08814 1.14703 0
M  V30 2524 O 243.039 3.44723 0.896917 0
M  V30 2525 O 241.898 5.22004 1.61784 0
M  V30 2526 H 238.992 0.778677 0.278553 0
M  V30 2527 H 241.538 1.68666 -0.187068 0
M  V30 2528 H 240.31 3.91173 -0.0996096 0
M  V30 2529 H 239.933 3.64243 1.59413 0
M  V30 2530 N 240.93 -0.123565 1.57115 0
M  V30 2531 C 242.346 -0.476961 1.52306 0
M  V30 2532 C 242.546 -1.82109 0.86248 0
M  V30 2533 O 241.602 -2.48586 0.442884 0
M  V30 2534 C 242.915 -0.465661 2.97073 0
M  V30 2535 C 244.463 -0.549534 3.08138 0
M  V30 2536 C 244.938 -0.568669 4.54456 0
M  V30 2537 N 246.429 -0.630237 4.58892 0
M  V30 2538 C 247.164 -0.666415 5.69514 0
M  V30 2539 N 246.66 -0.660514 6.89644 0
M  V30 2540 N 248.453 -0.709077 5.5761 0
M  V30 2541 H 240.604 0.757198 1.98445 0
M  V30 2542 H 242.867 0.278808 0.906074 0
M  V30 2543 H 242.573 0.454232 3.48754 0
M  V30 2544 H 242.447 -1.29513 3.54269 0
M  V30 2545 H 244.834 -1.45985 2.56461 0
M  V30 2546 H 244.915 0.307532 2.53945 0
M  V30 2547 H 244.559 0.337581 5.06777 0
M  V30 2548 H 244.489 -1.44256 5.06456 0
M  V30 2549 H 246.98 -0.641146 3.72421 0
M  V30 2550 H 247.293 -0.690616 7.69708 0
M  V30 2551 H 245.638 -0.628012 6.92157 0
M  V30 2552 H 248.829 -0.711019 4.62668 0
M  V30 2553 H 249.002 -0.733804 6.43832 0
M  V30 2554 N 242.408 -1.52605 -0.393616 0
M  V30 2555 C 243.356 -1.77688 -1.50099 0
M  V30 2556 C 244.35 -0.644615 -1.56656 0
M  V30 2557 O 245.556 -0.826997 -1.59877 0
M  V30 2558 H 241.931 -0.562159 -0.499481 0
M  V30 2559 H 243.902 -2.7043 -1.26135 0
M  V30 2560 C 242.651 -1.95858 -2.87289 0
M  V30 2561 H 241.974 -2.8241 -2.82992 0
M  V30 2562 H 243.414 -2.174 -3.64024 0
M  V30 2563 C 241.873 -0.729848 -3.28899 0
M  V30 2564 O 242.403 0.0949217 -4.01588 0
M  V30 2565 N 240.609 -0.561283 -2.85128 0
M  V30 2566 H 240.156 -1.23357 -2.26143 0
M  V30 2567 H 240.114 0.2595 -3.13327 0
M  V30 2568 N 243.887 0.651787 -1.4349 0
M  V30 2569 C 245.164 1.40909 -1.35661 0
M  V30 2570 C 245.544 2.11099 -0.00511733 0
M  V30 2571 O 244.892 2.04892 1.0115 0
M  V30 2572 C 245.102 2.3926 -2.54078 0
M  V30 2573 C 246.45 3.03217 -2.97228 0
M  V30 2574 O 247.474 2.49588 -2.54135 0
M  V30 2575 O 246.333 4.00455 -3.71885 0
M  V30 2576 H 243.427 0.629625 -0.536191 0
M  V30 2577 H 245.973 0.678575 -1.55542 0
M  V30 2578 H 244.745 1.86352 -3.44076 0
M  V30 2579 H 244.368 3.1976 -2.36303 0
M  V30 2580 N 245.365 1.30045 0.890287 0
M  V30 2581 C 246.295 1.18541 2.01172 0
M  V30 2582 C 247.276 0.0773356 1.69924 0
M  V30 2583 O 248.461 0.25845 1.92473 0
M  V30 2584 C 245.591 0.870941 3.36202 0
M  V30 2585 C 244.545 1.93637 3.81692 0
M  V30 2586 C 243.871 1.475 5.13953 0
M  V30 2587 C 245.171 3.34666 4.00994 0
M  V30 2588 H 246.865 2.12359 2.11054 0
M  V30 2589 H 244.411 1.02238 1.01407 0
M  V30 2590 H 246.364 0.777141 4.14172 0
M  V30 2591 H 245.088 -0.102926 3.26438 0
M  V30 2592 H 243.747 2.01972 3.05946 0
M  V30 2593 H 243.395 0.489551 5.00612 0
M  V30 2594 H 243.095 2.1876 5.4536 0
M  V30 2595 H 244.619 1.39489 5.94454 0
M  V30 2596 H 246.033 3.2912 4.69417 0
M  V30 2597 H 244.43 4.03966 4.43769 0
M  V30 2598 H 245.5 3.76949 3.05021 0
M  V30 2599 N 246.843 -1.10192 1.12674 0
M  V30 2600 C 247.773 -2.18652 0.819362 0
M  V30 2601 C 248.754 -1.68698 -0.217915 0
M  V30 2602 O 249.939 -1.94041 -0.0785581 0
M  V30 2603 C 247.069 -3.46202 0.27594 0
M  V30 2604 C 246.023 -4.09444 1.24656 0
M  V30 2605 C 245.349 -5.31725 0.563258 0
M  V30 2606 C 246.649 -4.52863 2.60217 0
M  V30 2607 H 248.343 -2.44622 1.72628 0
M  V30 2608 H 245.889 -1.17571 0.831451 0
M  V30 2609 H 247.842 -4.21372 0.0486149 0
M  V30 2610 H 246.566 -3.1973 -0.666331 0
M  V30 2611 H 245.225 -3.36284 1.45974 0
M  V30 2612 H 244.873 -5.0153 -0.384235 0
M  V30 2613 H 244.573 -5.74991 1.21075 0
M  V30 2614 H 246.097 -6.09624 0.34503 0
M  V30 2615 H 247.511 -5.19294 2.42913 0
M  V30 2616 H 245.908 -5.06986 3.21068 0
M  V30 2617 H 246.978 -3.65656 3.18471 0
M  V30 2618 N 248.321 -0.919034 -1.28029 0
M  V30 2619 C 249.269 -0.401753 -2.29104 0
M  V30 2620 C 250.263 0.509354 -1.61561 0
M  V30 2621 O 251.469 0.390014 -1.75724 0
M  V30 2622 H 247.844 -0.111331 -0.743713 0
M  V30 2623 H 249.815 -1.2672 -2.70156 0
M  V30 2624 C 248.564 0.338148 -3.46052 0
M  V30 2625 H 247.887 -0.353732 -3.98232 0
M  V30 2626 H 249.327 0.664653 -4.18758 0
M  V30 2627 C 247.786 1.54798 -2.99231 0
M  V30 2628 O 248.316 2.64696 -3.02157 0
M  V30 2629 N 246.522 1.3968 -2.54829 0
M  V30 2630 H 246.069 0.502698 -2.52647 0
M  V30 2631 H 246.027 2.20755 -2.23863 0
M  V30 2632 N 249.799 1.42003 -0.683588 0
M  V30 2633 C 251.024 2.06265 -0.216647 0
M  V30 2634 C 251.449 1.51059 1.12083 0
M  V30 2635 O 250.807 0.632638 1.69904 0
M  V30 2636 C 250.855 3.60191 -0.171759 0
M  V30 2637 O 249.959 4.03396 0.857069 0
M  V30 2638 H 249.3 0.65502 -0.108834 0
M  V30 2639 H 251.83 1.81982 -0.935077 0
M  V30 2640 H 251.84 4.08 0.0014303 0
M  V30 2641 H 250.515 3.99743 -1.14796 0
M  V30 2642 H 249.092 3.67117 0.654208 0
M  V30 2643 N 251.277 0.427512 1.51691 0
M  V30 2644 C 252.24 -0.377132 2.26076 0
M  V30 2645 C 253.24 -0.958089 1.29141 0
M  V30 2646 O 254.43 -0.83408 1.52934 0
M  V30 2647 C 251.562 -1.53262 3.04506 0
M  V30 2648 H 252.755 0.27464 2.9864 0
M  V30 2649 H 250.308 0.180445 1.55255 0
M  V30 2650 H 251.043 -2.22072 2.36335 0
M  V30 2651 H 250.828 -1.12232 3.75694 0
M  V30 2652 H 252.318 -2.10135 3.60878 0
M  V30 2653 N 252.755 -1.56801 0.158532 0
M  V30 2654 C 253.685 -2.20347 -0.772609 0
M  V30 2655 C 254.666 -1.15518 -1.24859 0
M  V30 2656 O 255.851 -1.43902 -1.30406 0
M  V30 2657 C 252.981 -2.83417 -2.00729 0
M  V30 2658 C 251.935 -3.94174 -1.66765 0
M  V30 2659 C 251.261 -4.44233 -2.97592 0
M  V30 2660 C 252.561 -5.14392 -0.905447 0
M  V30 2661 H 254.255 -2.98413 -0.242959 0
M  V30 2662 H 251.801 -1.43537 -0.115419 0
M  V30 2663 H 253.754 -3.26543 -2.6636 0
M  V30 2664 H 252.478 -2.02701 -2.56086 0
M  V30 2665 H 251.137 -3.51684 -1.03508 0
M  V30 2666 H 250.785 -3.60325 -3.50963 0
M  V30 2667 H 250.485 -5.18945 -2.75626 0
M  V30 2668 H 252.009 -4.90037 -3.64274 0
M  V30 2669 H 253.423 -5.5429 -1.46408 0
M  V30 2670 H 251.82 -5.9494 -0.7853 0
M  V30 2671 H 252.89 -4.84795 0.100668 0
M  V30 2672 N 254.233 0.115231 -1.57178 0
M  V30 2673 C 255.51 0.852873 -1.76027 0
M  V30 2674 C 255.89 1.97892 -0.73498 0
M  V30 2675 O 255.238 2.27232 0.24036 0
M  V30 2676 C 255.448 1.36608 -3.21153 0
M  V30 2677 C 256.796 1.81692 -3.83762 0
M  V30 2678 O 257.82 1.46278 -3.24779 0
M  V30 2679 O 256.679 2.47104 -4.87444 0
M  V30 2680 H 253.773 0.405296 -0.720877 0
M  V30 2681 H 256.319 0.0986785 -1.69413 0
M  V30 2682 H 255.091 0.558357 -3.87296 0
M  V30 2683 H 254.714 2.18287 -3.3232 0
M  V30 2684 N 255.711 1.52812 0.385517 0
M  V30 2685 C 256.96 1.67249 1.12741 0
M  V30 2686 C 257.273 0.4205 1.91027 0
M  V30 2687 O 258.479 0.445064 2.67827 0
M  V30 2688 C 256.935 2.95583 2.05326 0
M  V30 2689 C 256.543 4.27974 1.32447 0
M  V30 2690 C 258.287 3.19386 2.7963 0
M  V30 2691 C 256.194 5.47412 2.23818 0
M  V30 2692 H 255.124 0.6231 0.424573 0
M  V30 2693 H 257.775 1.79309 0.389924 0
M  V30 2694 H 256.157 2.77277 2.82725 0
M  V30 2695 H 257.331 4.56844 0.602495 0
M  V30 2696 H 255.646 4.10459 0.700885 0
M  V30 2697 H 258.243 4.05801 3.48181 0
M  V30 2698 H 258.586 2.34604 3.43899 0
M  V30 2699 H 259.119 3.38274 2.09322 0
M  V30 2700 H 255.858 6.34612 1.64157 0
M  V30 2701 H 255.378 5.22849 2.93921 0
M  V30 2702 H 257.057 5.81423 2.83824 0
M  V30 2703 N 257.189 -0.644168 1.43834 0
M  V30 2704 C 258.136 -1.75671 1.49694 0
M  V30 2705 C 259.106 -1.6246 0.345809 0
M  V30 2706 O 260.291 -1.82573 0.554234 0
M  V30 2707 C 257.431 -3.13867 1.43463 0
M  V30 2708 C 256.544 -3.38147 2.6885 0
M  V30 2709 C 255.679 -4.66241 2.54544 0
M  V30 2710 C 254.718 -4.83657 3.75157 0
M  V30 2711 N 253.855 -6.03016 3.59605 0
M  V30 2712 H 258.695 -1.69998 2.44754 0
M  V30 2713 H 256.232 -0.829458 1.21484 0
M  V30 2714 H 258.19 -3.9377 1.37843 0
M  V30 2715 H 256.82 -3.18588 0.519783 0
M  V30 2716 H 255.872 -2.52276 2.84712 0
M  V30 2717 H 257.184 -3.46899 3.58417 0
M  V30 2718 H 256.338 -5.54285 2.46683 0
M  V30 2719 H 255.077 -4.59826 1.62516 0
M  V30 2720 H 254.082 -3.94046 3.83416 0
M  V30 2721 H 255.307 -4.91896 4.68204 0
M  V30 2722 H 253.253 -5.97715 2.7032 0
M  V30 2723 H 253.17 -6.12766 4.42779 0
M  V30 2724 H 254.438 -6.93657 3.55613 0
M  V30 2725 N 258.668 -1.30515 -0.883378 0
M  V30 2726 C 259.578 -1.18959 -2.02203 0
M  V30 2727 C 260.594 -0.109172 -1.73657 0
M  V30 2728 O 261.77 -0.324413 -1.9877 0
M  V30 2729 C 258.835 -0.883871 -3.35244 0
M  V30 2730 C 257.896 -2.04982 -3.77201 0
M  V30 2731 C 257.129 -1.75859 -5.03894 0
M  V30 2732 O 257.352 -0.687276 -5.66244 0
M  V30 2733 O 256.286 -2.61146 -5.42297 0
M  V30 2734 H 260.112 -2.14616 -2.1488 0
M  V30 2735 H 257.697 -1.10124 -1.0096 0
M  V30 2736 H 259.579 -0.728644 -4.15053 0
M  V30 2737 H 258.254 0.0427798 -3.23672 0
M  V30 2738 H 257.161 -2.26038 -2.9809 0
M  V30 2739 H 258.494 -2.95825 -3.93381 0
M  V30 2740 N 260.146 1.09593 -1.13257 0
M  V30 2741 C 261.393 1.81734 -0.893257 0
M  V30 2742 C 261.721 1.8563 0.580656 0
M  V30 2743 O 260.976 1.31906 1.44566 0
M  V30 2744 C 261.275 3.27802 -1.42411 0
M  V30 2745 C 260.941 3.44041 -2.91456 0
M  V30 2746 C 259.603 3.48181 -3.3215 0
M  V30 2747 C 261.955 3.48719 -3.87356 0
M  V30 2748 C 259.283 3.54575 -4.67433 0
M  V30 2749 C 261.635 3.56648 -5.2248 0
M  V30 2750 C 260.299 3.59055 -5.62704 0
M  V30 2751 H 259.569 0.665011 -0.326866 0
M  V30 2752 H 262.216 1.2912 -1.41422 0
M  V30 2753 H 260.521 3.83042 -0.823795 0
M  V30 2754 H 262.218 3.82149 -1.21503 0
M  V30 2755 H 258.808 3.41502 -2.58987 0
M  V30 2756 H 262.992 3.44763 -3.57004 0
M  V30 2757 H 258.248 3.54725 -4.97976 0
M  V30 2758 H 262.422 3.59212 -5.96607 0
M  V30 2759 H 260.049 3.63763 -6.67518 0
M  V30 2760 N 261.624 0.925811 1.2754 0
M  V30 2761 C 262.871 0.565255 1.94451 0
M  V30 2762 C 263.199 -0.89316 1.7278 0
M  V30 2763 O 262.454 -1.65213 1.04895 0
M  V30 2764 C 262.753 0.835296 3.47502 0
M  V30 2765 C 262.419 2.27515 3.89291 0
M  V30 2766 C 261.081 2.66879 4.00411 0
M  V30 2767 C 263.433 3.21158 4.10496 0
M  V30 2768 C 260.761 3.99014 4.30122 0
M  V30 2769 C 263.113 4.52871 4.4169 0
M  V30 2770 C 261.777 4.92072 4.51023 0
M  V30 2771 H 261.047 0.206841 0.711546 0
M  V30 2772 H 263.694 1.16942 1.51647 0
M  V30 2773 H 261.999 0.148442 3.91519 0
M  V30 2774 H 263.696 0.535322 3.97411 0
M  V30 2775 H 260.286 1.95976 3.81171 0
M  V30 2776 H 264.47 2.9195 4.01346 0
M  V30 2777 H 259.726 4.2907 4.35556 0
M  V30 2778 H 263.9 5.25436 4.57045 0
M  V30 2779 H 261.527 5.9449 4.738 0
M  V30 2780 N 263.102 -1.41638 0.69111 0
M  V30 2781 C 264.379 -1.95036 0.148421 0
M  V30 2782 C 264.759 -1.63072 -1.34055 0
M  V30 2783 O 264.107 -0.93538 -2.08478 0
M  V30 2784 C 264.317 -3.46279 0.434951 0
M  V30 2785 C 265.665 -4.23069 0.360275 0
M  V30 2786 O 266.689 -3.54277 0.369613 0
M  V30 2787 O 265.548 -5.45583 0.316534 0
M  V30 2788 H 262.642 -0.826908 0.0123654 0
M  V30 2789 H 265.188 -1.5138 0.766963 0
M  V30 2790 H 263.96 -3.6281 1.46576 0
M  V30 2791 H 263.583 -3.97019 -0.214787 0
M  V30 2792 N 264.58 -0.43555 -1.51462 0
M  V30 2793 C 265.53 0.394701 -2.24558 0
M  V30 2794 C 266.514 0.99157 -1.26715 0
M  V30 2795 O 267.706 0.910007 -1.51815 0
M  V30 2796 C 264.835 1.4963 -3.08975 0
M  V30 2797 C 263.921 0.908912 -4.14246 0
M  V30 2798 N 264.312 0.0505335 -5.05775 0
M  V30 2799 C 262.61 1.17668 -4.30198 0
M  V30 2800 C 263.311 -0.279161 -5.8103 0
M  V30 2801 N 262.287 0.336767 -5.42556 0
M  V30 2802 H 266.089 -0.267106 -2.92684 0
M  V30 2803 H 263.603 -0.247518 -1.60503 0
M  V30 2804 H 265.6 2.10394 -3.59917 0
M  V30 2805 H 264.26 2.16046 -2.42393 0
M  V30 2806 H 265.271 -0.31577 -5.16936 0
M  V30 2807 H 261.948 1.83847 -3.74842 0
M  V30 2808 H 263.338 -0.977553 -6.64751 0
M  V30 2809 N 266.058 1.56714 -0.166846 0
M  V30 2810 C 267.005 2.17746 0.765193 0
M  V30 2811 C 267.975 1.11614 1.23011 0
M  V30 2812 O 269.16 1.39745 1.29908 0
M  V30 2813 C 266.3 2.81882 1.9909 0
M  V30 2814 C 265.413 4.02462 1.56997 0
M  V30 2815 C 264.548 4.54537 2.749 0
M  V30 2816 C 263.587 5.67538 2.29275 0
M  V30 2817 N 262.724 6.14142 3.40255 0
M  V30 2818 H 267.564 2.97048 0.237952 0
M  V30 2819 H 265.101 1.4672 0.105725 0
M  V30 2820 H 267.059 3.17221 2.70974 0
M  V30 2821 H 265.689 2.05191 2.49192 0
M  V30 2822 H 264.741 3.72973 0.748037 0
M  V30 2823 H 266.053 4.84273 1.19503 0
M  V30 2824 H 265.207 4.92035 3.54946 0
M  V30 2825 H 263.946 3.71774 3.1565 0
M  V30 2826 H 262.951 5.29597 1.47674 0
M  V30 2827 H 264.176 6.52099 1.89588 0
M  V30 2828 H 262.122 5.3431 3.8059 0
M  V30 2829 H 262.039 6.9093 3.06841 0
M  V30 2830 H 263.307 6.56289 4.206 0
M  V30 2831 N 267.536 -0.106894 1.57237 0
M  V30 2832 C 268.484 -1.14944 2.02215 0
M  V30 2833 C 269.478 -1.42167 0.92114 0
M  V30 2834 O 270.684 -1.41987 1.10634 0
M  V30 2835 H 267.059 -0.387841 0.64427 0
M  V30 2836 H 269.03 -0.743683 2.88984 0
M  V30 2837 C 267.779 -2.4647 2.4525 0
M  V30 2838 H 267.102 -2.26363 3.29545 0
M  V30 2839 H 268.542 -3.17948 2.80508 0
M  V30 2840 C 267.001 -3.09921 1.321 0
M  V30 2841 O 267.531 -3.9651 0.643622 0
M  V30 2842 N 265.737 -2.69986 1.07497 0
M  V30 2843 H 265.284 -1.99667 1.62761 0
M  V30 2844 H 265.242 -3.12769 0.319876 0
M  V30 2845 N 269.014 -1.53014 -0.377408 0
M  V30 2846 C 270.262 -1.6829 -1.11906 0
M  V30 2847 C 270.583 -0.431206 -1.90173 0
M  V30 2848 O 269.853 0.554595 -1.87886 0
M  V30 2849 H 268.433 -0.620371 -0.416112 0
M  V30 2850 H 271.095 -1.90167 -0.426893 0
M  V30 2851 H 270.191 -2.53862 -1.8155 0
M  V30 2852 N 270.492 0.636531 -1.44174 0
M  V30 2853 C 271.72 1.42353 -1.50144 0
M  V30 2854 C 272.135 1.88389 -0.124575 0
M  V30 2855 O 271.492 1.6051 0.868489 0
M  V30 2856 C 271.543 2.64744 -2.46156 0
M  V30 2857 O 271.264 2.20629 -3.7849 0
M  V30 2858 C 272.765 3.57929 -2.61537 0
M  V30 2859 H 269.985 0.436752 -0.5094 0
M  V30 2860 H 272.529 0.778933 -1.89084 0
M  V30 2861 H 270.684 3.25307 -2.10366 0
M  V30 2862 H 271.098 2.99938 -4.30276 0
M  V30 2863 H 272.572 4.40428 -3.32757 0
M  V30 2864 H 273.049 4.06382 -1.66585 0
M  V30 2865 H 273.655 3.03238 -2.98206 0
M  V30 2866 N 271.97 1.30982 0.876444 0
M  V30 2867 C 273.381 1.18277 1.44456 0
M  V30 2868 C 273.732 -0.213265 1.95037 0
M  V30 2869 O 272.857 -1.11057 1.85729 0
M  V30 2870 C 273.452 2.1411 2.62569 0
M  V30 2871 C 272.011 2.05358 3.15444 0
M  V30 2872 C 271.158 2.03706 1.88146 0
M  V30 2873 H 274.109 1.43127 0.685584 0
M  V30 2874 H 274.13 1.72692 3.39054 0
M  V30 2875 H 273.642 3.15706 2.25724 0
M  V30 2876 H 271.743 1.06934 3.56926 0
M  V30 2877 H 271.856 2.94156 3.78166 0
M  V30 2878 H 270.22 1.48629 2.06837 0
M  V30 2879 H 271.003 3.07047 1.53547 0
M  V30 2880 N 273.449 -1.08991 1.13837 0
M  V30 2881 C 274.696 -1.81258 0.902882 0
M  V30 2882 C 275.024 -1.85936 -0.570803 0
M  V30 2883 O 274.279 -1.3267 -1.43865 0
M  V30 2884 C 274.578 -3.27042 1.44147 0
M  V30 2885 C 274.244 -3.4249 2.93276 0
M  V30 2886 C 272.906 -3.46414 3.33992 0
M  V30 2887 C 275.258 -3.4666 3.892 0
M  V30 2888 C 272.586 -3.52091 4.69307 0
M  V30 2889 C 274.938 -3.53872 5.24364 0
M  V30 2890 C 273.602 -3.56066 5.646 0
M  V30 2891 H 272.872 -0.663268 0.330388 0
M  V30 2892 H 275.519 -1.28368 1.42105 0
M  V30 2893 H 273.824 -3.82599 0.844097 0
M  V30 2894 H 275.521 -3.81499 1.23528 0
M  V30 2895 H 272.111 -3.40124 2.60794 0
M  V30 2896 H 276.295 -3.42865 3.58828 0
M  V30 2897 H 271.551 -3.52079 4.9985 0
M  V30 2898 H 275.725 -3.56043 5.98503 0
M  V30 2899 H 273.352 -3.60218 6.69438 0
M  V30 2900 N 274.927 -0.932562 -1.27047 0
M  V30 2901 C 276.152 -0.591474 -1.98787 0
M  V30 2902 C 276.577 0.824601 -1.69062 0
M  V30 2903 O 275.935 1.5541 -0.933677 0
M  V30 2904 C 275.983 -0.829808 -3.50922 0
M  V30 2905 O 275.087 0.102266 -4.12273 0
M  V30 2906 H 274.428 -0.227185 -0.623926 0
M  V30 2907 H 276.958 -1.25314 -1.61733 0
M  V30 2908 H 276.968 -0.747292 -4.01098 0
M  V30 2909 H 275.643 -1.86201 -3.7189 0
M  V30 2910 H 274.22 -0.0305761 -3.72887 0
M  V30 2911 N 276.405 1.4127 -0.698611 0
M  V30 2912 C 277.645 2.03044 -0.235062 0
M  V30 2913 C 278.009 1.54146 1.14468 0
M  V30 2914 O 279.21 2.07867 1.70425 0
M  V30 2915 C 277.481 3.56192 -0.293651 0
M  V30 2916 S 279.04 4.38696 0.0954053 0
M  V30 2917 H 275.858 0.704697 -0.0944648 0
M  V30 2918 H 278.46 1.72656 -0.917064 0
M  V30 2919 H 277.164 3.89274 -1.29977 0
M  V30 2920 H 276.695 3.91285 0.407397 0
M  V30 2921 H 278.71 4.78257 1.3223 0
M  V30 2922 N 277.883 0.443576 1.51229 0
M  V30 2923 C 279.13 -0.120796 2.02139 0
M  V30 2924 C 279.458 -1.42166 1.32736 0
M  V30 2925 O 278.713 -1.90849 0.43301 0
M  V30 2926 C 279.012 -0.380579 3.55368 0
M  V30 2927 C 278.678 0.83523 4.43097 0
M  V30 2928 C 277.34 1.16864 4.66794 0
M  V30 2929 C 279.692 1.64601 4.94526 0
M  V30 2930 C 277.02 2.31339 5.39165 0
M  V30 2931 C 279.372 2.78181 5.68153 0
M  V30 2932 C 278.036 3.11969 5.90112 0
M  V30 2933 H 277.306 -0.0442023 0.73968 0
M  V30 2934 H 279.953 0.592046 1.82118 0
M  V30 2935 H 278.258 -1.17538 3.73754 0
M  V30 2936 H 279.955 -0.830777 3.923 0
M  V30 2937 H 276.545 0.565437 4.24854 0
M  V30 2938 H 280.729 1.40163 4.76097 0
M  V30 2939 H 275.985 2.57823 5.5438 0
M  V30 2940 H 280.159 3.41371 6.06992 0
M  V30 2941 H 277.786 4.00784 6.45969 0
M  V30 2942 N 279.361 -1.56624 0.175154 0
M  V30 2943 C 280.591 -2.01082 -0.474283 0
M  V30 2944 C 280.999 -1.05447 -1.57091 0
M  V30 2945 O 280.342 -0.0480595 -1.83637 0
M  V30 2946 C 280.404 -3.41963 -1.10911 0
M  V30 2947 C 280.068 -4.56742 -0.153666 0
M  V30 2948 C 281.065 -5.16076 0.629448 0
M  V30 2949 C 278.75 -5.02277 -0.0483776 0
M  V30 2950 C 280.744 -6.19377 1.50501 0
M  V30 2951 C 278.431 -6.05427 0.830768 0
M  V30 2952 C 279.429 -6.63849 1.60605 0
M  V30 2953 O 279.117 -7.64998 2.47049 0
M  V30 2954 H 278.849 -0.664261 -0.125432 0
M  V30 2955 H 281.403 -2.03549 0.275163 0
M  V30 2956 H 279.633 -3.36422 -1.90676 0
M  V30 2957 H 281.322 -3.70352 -1.66114 0
M  V30 2958 H 282.088 -4.81776 0.558297 0
M  V30 2959 H 277.967 -4.56513 -0.641611 0
M  V30 2960 H 281.511 -6.64906 2.1106 0
M  V30 2961 H 277.408 -6.39151 0.903107 0
M  V30 2962 H 278.176 -7.82336 2.40607 0
M  V30 2963 N 280.839 0.0985539 -1.57292 0
M  V30 2964 C 282.064 0.820196 -1.90493 0
M  V30 2965 C 282.489 1.71658 -0.769094 0
M  V30 2966 O 281.847 1.79133 0.279495 0
M  V30 2967 C 281.895 1.61242 -3.22542 0
M  V30 2968 O 280.999 2.72108 -3.09888 0
M  V30 2969 H 280.34 0.225547 -0.62452 0
M  V30 2970 H 282.87 0.0748159 -2.04463 0
M  V30 2971 H 282.88 1.99737 -3.55766 0
M  V30 2972 H 281.555 0.954535 -4.04798 0
M  V30 2973 H 280.132 2.36667 -2.88172 0
M  V30 2974 N 282.317 1.53212 0.369288 0
M  V30 2975 C 283.728 1.60943 0.946276 0
M  V30 2976 C 284.079 0.47452 1.90375 0
M  V30 2977 O 283.204 -0.399597 2.12679 0
M  V30 2978 C 283.799 2.91715 1.72302 0
M  V30 2979 C 282.358 3.01792 2.24941 0
M  V30 2980 C 281.505 2.56211 1.06072 0
M  V30 2981 H 284.456 1.58007 0.148198 0
M  V30 2982 H 284.477 2.79309 2.58393 0
M  V30 2983 H 283.989 3.74295 1.0259 0
M  V30 2984 H 282.09 2.23791 2.97906 0
M  V30 2985 H 282.203 4.06803 2.53077 0
M  V30 2986 H 280.567 2.10998 1.4266 0
M  V30 2987 H 281.35 3.41206 0.378639 0
M  V30 2988 N 283.795 -0.628877 1.44509 0
M  V30 2989 C 284.758 -1.72263 1.51188 0
M  V30 2990 C 285.758 -1.55907 0.39367 0
M  V30 2991 O 286.948 -1.61361 0.656377 0
M  V30 2992 C 284.08 -3.11365 1.38798 0
M  V30 2993 H 285.273 -1.67714 2.4862 0
M  V30 2994 H 282.826 -0.842737 1.31634 0
M  V30 2995 H 283.561 -3.21507 0.424693 0
M  V30 2996 H 283.346 -3.24644 2.19884 0
M  V30 2997 H 284.836 -3.91075 1.46458 0
M  V30 2998 N 285.273 -1.31445 -0.869486 0
M  V30 2999 C 286.498 -1.24256 -1.66058 0
M  V30 3000 C 286.923 0.188928 -1.87149 0
M  V30 3001 O 286.281 1.13522 -1.4136 0
M  V30 3002 C 286.329 -1.9924 -3.00559 0
M  V30 3003 O 285.433 -1.33007 -3.90362 0
M  V30 3004 H 284.774 -0.428973 -0.506831 0
M  V30 3005 H 287.304 -1.73521 -1.08404 0
M  V30 3006 H 287.314 -2.08854 -3.50491 0
M  V30 3007 H 285.989 -3.03342 -2.84528 0
M  V30 3008 H 284.566 -1.31848 -3.48813 0
M  V30 3009 N 286.751 1.08385 -1.14413 0
M  V30 3010 C 287.683 2.1519 -0.789036 0
M  V30 3011 C 288.696 1.61638 0.19417 0
M  V30 3012 O 289.885 1.78479 -0.0275711 0
M  V30 3013 C 286.985 3.38565 -0.15058 0
M  V30 3014 C 286.158 4.21501 -1.16857 0
M  V30 3015 C 285.217 5.23277 -0.553832 0
M  V30 3016 O 284.243 5.56041 -1.21686 0
M  V30 3017 N 285.445 5.76629 0.669296 0
M  V30 3018 H 288.21 2.46257 -1.70814 0
M  V30 3019 H 285.771 1.24198 -1.03858 0
M  V30 3020 H 287.763 4.03777 0.273181 0
M  V30 3021 H 286.333 3.05299 0.671667 0
M  V30 3022 H 285.553 3.52265 -1.76926 0
M  V30 3023 H 286.841 4.73731 -1.85624 0
M  V30 3024 H 286.239 5.52243 1.22654 0
M  V30 3025 H 284.796 6.43521 1.03556 0
M  V30 3026 N 288.23 0.939286 1.26551 0
M  V30 3027 C 289.455 0.602008 1.98471 0
M  V30 3028 C 289.88 -0.815624 1.69497 0
M  V30 3029 O 289.238 -1.54912 0.941905 0
M  V30 3030 C 289.286 0.848407 3.50477 0
M  V30 3031 O 288.39 -0.0804009 4.12322 0
M  V30 3032 H 287.731 0.23049 0.622712 0
M  V30 3033 H 290.261 1.2617 1.61066 0
M  V30 3034 H 290.271 0.768553 4.00696 0
M  V30 3035 H 288.946 1.88171 3.70897 0
M  V30 3036 H 287.523 0.0503508 3.72866 0
M  V30 3037 N 289.708 -1.40897 0.706093 0
M  V30 3038 C 290.618 -2.3455 0.0482286 0
M  V30 3039 C 291.634 -1.56796 -0.754396 0
M  V30 3040 O 292.81 -1.89228 -0.689538 0
M  V30 3041 C 289.875 -3.35625 -0.869303 0
M  V30 3042 C 288.936 -4.29261 -0.0576994 0
M  V30 3043 C 288.169 -5.25508 -0.931531 0
M  V30 3044 O 288.392 -5.27472 -2.17092 0
M  V30 3045 O 287.326 -6.00727 -0.375587 0
M  V30 3046 H 291.152 -2.92407 0.820476 0
M  V30 3047 H 288.737 -1.4193 0.4665 0
M  V30 3048 H 290.619 -3.97635 -1.39514 0
M  V30 3049 H 289.294 -2.80196 -1.62086 0
M  V30 3050 H 288.201 -3.70566 0.512988 0
M  V30 3051 H 289.534 -4.87817 0.655426 0
M  V30 3052 N 291.186 -0.45159 -1.50991 0
M  V30 3053 C 292.463 0.170707 -1.94854 0
M  V30 3054 C 292.843 1.58788 -1.39103 0
M  V30 3055 O 292.191 2.20913 -0.583921 0
M  V30 3056 C 292.401 0.133929 -3.48743 0
M  V30 3057 C 293.749 0.33248 -4.23296 0
M  V30 3058 O 294.773 0.211403 -3.55572 0
M  V30 3059 O 293.632 0.57486 -5.43468 0
M  V30 3060 H 290.726 0.122264 -0.817912 0
M  V30 3061 H 293.272 -0.510594 -1.61836 0
M  V30 3062 H 292.044 -0.856283 -3.81816 0
M  V30 3063 H 291.667 0.857529 -3.88242 0
M  V30 3064 N 292.664 1.56529 -0.183458 0
M  V30 3065 C 293.91 1.97537 0.459036 0
M  V30 3066 C 294.243 1.06989 1.62071 0
M  V30 3067 O 293.518 0.11948 1.94133 0
M  V30 3068 C 293.801 3.47874 0.930368 0
M  V30 3069 C 293.654 4.492 -0.232317 0
M  V30 3070 C 294.973 4.01612 1.79989 0
M  V30 3071 H 292.092 0.718204 0.165383 0
M  V30 3072 H 294.734 1.88042 -0.272038 0
M  V30 3073 H 292.884 3.56095 1.55333 0
M  V30 3074 H 294.556 4.53027 -0.86972 0
M  V30 3075 H 292.799 4.24657 -0.885928 0
M  V30 3076 H 293.47 5.51823 0.139796 0
M  V30 3077 H 295.946 3.96097 1.27461 0
M  V30 3078 H 294.822 5.07195 2.09867 0
M  V30 3079 H 295.083 3.46163 2.74998 0
M  V30 3080 N 294.142 -0.090211 1.57342 0
M  V30 3081 C 295.391 -0.791531 1.8552 0
M  V30 3082 C 295.704 -1.79659 0.773441 0
M  V30 3083 O 296.91 -2.54616 0.942497 0
M  V30 3084 C 295.366 -1.45856 3.2902 0
M  V30 3085 C 294.974 -0.493017 4.45279 0
M  V30 3086 C 296.718 -2.14332 3.66418 0
M  V30 3087 C 294.625 -1.16491 5.79814 0
M  V30 3088 H 293.555 -0.299356 0.692027 0
M  V30 3089 H 296.206 -0.0445343 1.83446 0
M  V30 3090 H 294.588 -2.25318 3.2565 0
M  V30 3091 H 295.762 0.270464 4.60006 0
M  V30 3092 H 294.077 0.0863061 4.16311 0
M  V30 3093 H 296.674 -2.65344 4.64216 0
M  V30 3094 H 297.017 -2.93447 2.95287 0
M  V30 3095 H 297.55 -1.41724 3.71698 0
M  V30 3096 H 294.289 -0.41447 6.54188 0
M  V30 3097 H 293.809 -1.8997 5.68921 0
M  V30 3098 H 295.488 -1.69001 6.24538 0
M  V30 3099 N 295.62 -1.53406 -0.361157 0
M  V30 3100 C 296.55 -1.83136 -1.44857 0
M  V30 3101 C 297.531 -0.685174 -1.5569 0
M  V30 3102 O 298.716 -0.93544 -1.70186 0
M  V30 3103 C 295.846 -2.02522 -2.82138 0
M  V30 3104 C 294.8 -3.18302 -2.86126 0
M  V30 3105 C 294.126 -3.22989 -4.26125 0
M  V30 3106 C 295.426 -4.56796 -2.53248 0
M  V30 3107 H 297.12 -2.74201 -1.20226 0
M  V30 3108 H 294.666 -1.31938 -0.576922 0
M  V30 3109 H 296.619 -2.21904 -3.58241 0
M  V30 3110 H 295.343 -1.08172 -3.08166 0
M  V30 3111 H 294.002 -2.98747 -2.12475 0
M  V30 3112 H 293.65 -2.26267 -4.49235 0
M  V30 3113 H 293.35 -4.00781 -4.29708 0
M  V30 3114 H 294.874 -3.44559 -5.04094 0
M  V30 3115 H 296.288 -4.7631 -3.19064 0
M  V30 3116 H 294.685 -5.36862 -2.68141 0
M  V30 3117 H 295.755 -4.61606 -1.48484 0
M  V30 3118 N 297.098 0.621204 -1.44841 0
M  V30 3119 C 298.347 1.37658 -1.47422 0
M  V30 3120 C 298.66 1.95264 -0.114629 0
M  V30 3121 O 299.866 2.71494 -0.0180199 0
M  V30 3122 C 298.322 2.49285 -2.59586 0
M  V30 3123 C 297.93 1.98149 -4.01797 0
M  V30 3124 C 299.674 3.26409 -2.71399 0
M  V30 3125 C 297.581 3.07178 -5.05367 0
M  V30 3126 H 296.511 0.517344 -0.548517 0
M  V30 3127 H 299.162 0.667257 -1.70938 0
M  V30 3128 H 297.544 3.22839 -2.29328 0
M  V30 3129 H 298.718 1.31395 -4.41669 0
M  V30 3130 H 297.033 1.33812 -3.94314 0
M  V30 3131 H 299.63 4.07706 -3.45948 0
M  V30 3132 H 299.973 3.76535 -1.77559 0
M  V30 3133 H 300.506 2.5995 -3.01116 0
M  V30 3134 H 297.245 2.61985 -6.00869 0
M  V30 3135 H 296.765 3.72542 -4.70077 0
M  V30 3136 H 298.444 3.71789 -5.29511 0
M  V30 3137 N 298.576 1.31904 0.862503 0
M  V30 3138 C 299.523 1.20182 1.9704 0
M  V30 3139 C 300.493 0.0858247 1.65878 0
M  V30 3140 O 301.678 0.26 1.8902 0
M  V30 3141 C 298.818 0.922797 3.32533 0
M  V30 3142 C 297.931 2.12284 3.76244 0
M  V30 3143 C 297.066 1.77996 5.00491 0
M  V30 3144 C 296.105 2.94366 5.36671 0
M  V30 3145 N 295.242 2.60223 6.52095 0
M  V30 3146 H 300.082 2.14951 2.06398 0
M  V30 3147 H 297.619 1.06917 1.01031 0
M  V30 3148 H 299.577 0.741548 4.10557 0
M  V30 3149 H 298.207 0.0119227 3.22798 0
M  V30 3150 H 297.259 2.41461 2.9394 0
M  V30 3151 H 298.571 2.99357 3.98982 0
M  V30 3152 H 297.725 1.56377 5.862 0
M  V30 3153 H 296.464 0.881252 4.79672 0
M  V30 3154 H 295.469 3.16625 4.49476 0
M  V30 3155 H 296.694 3.84957 5.59451 0
M  V30 3156 H 294.64 1.72884 6.32809 0
M  V30 3157 H 294.557 3.40827 6.74814 0
M  V30 3158 H 295.825 2.42016 7.40978 0
M  V30 3159 N 300.054 -1.07777 1.14986 0
M  V30 3160 C 301.001 -2.14867 0.842672 0
M  V30 3161 C 301.971 -1.6486 -0.202552 0
M  V30 3162 O 303.156 -1.90668 -0.0710568 0
M  V30 3163 C 300.296 -3.43486 0.333363 0
M  V30 3164 C 299.409 -4.07306 1.43965 0
M  V30 3165 C 298.544 -5.23744 0.886914 0
M  V30 3166 C 297.583 -5.79517 1.97043 0
M  V30 3167 N 296.72 -6.87291 1.4344 0
M  V30 3168 H 301.56 -2.40485 1.75986 0
M  V30 3169 H 299.097 -1.1801 0.878179 0
M  V30 3170 H 301.055 -4.17195 0.0198163 0
M  V30 3171 H 299.685 -3.18133 -0.546916 0
M  V30 3172 H 298.737 -3.31293 1.86946 0
M  V30 3173 H 300.049 -4.44771 2.25788 0
M  V30 3174 H 299.203 -6.04419 0.525651 0
M  V30 3175 H 297.942 -4.87685 0.0377957 0
M  V30 3176 H 296.947 -4.97491 2.34057 0
M  V30 3177 H 298.172 -6.17632 2.82325 0
M  V30 3178 H 296.118 -6.5318 0.607567 0
M  V30 3179 H 296.035 -7.23617 2.18895 0
M  V30 3180 H 297.303 -7.71682 1.10124 0
M  V30 3181 N 301.532 -0.945985 -1.26051 0
M  V30 3182 C 302.762 -0.612136 -1.97323 0
M  V30 3183 C 303.17 0.818171 -1.70595 0
M  V30 3184 O 302.513 1.55777 -0.973613 0
M  V30 3185 C 302.575 -0.780347 -3.50929 0
M  V30 3186 C 302.239 -2.18619 -4.01317 0
M  V30 3187 C 303.236 -3.16209 -4.12683 0
M  V30 3188 C 300.921 -2.50805 -4.35203 0
M  V30 3189 C 302.915 -4.44085 -4.57238 0
M  V30 3190 C 300.602 -3.78912 -4.79446 0
M  V30 3191 C 301.6 -4.75365 -4.90425 0
M  V30 3192 O 301.288 -6.01191 -5.3369 0
M  V30 3193 H 301.02 -0.229134 -0.635982 0
M  V30 3194 H 303.574 -1.27036 -1.61404 0
M  V30 3195 H 301.804 -0.0649864 -3.86645 0
M  V30 3196 H 303.493 -0.448842 -4.03411 0
M  V30 3197 H 304.259 -2.92668 -3.86744 0
M  V30 3198 H 300.138 -1.76463 -4.2589 0
M  V30 3199 H 303.682 -5.19373 -4.65723 0
M  V30 3200 H 299.579 -4.02265 -5.0483 0
M  V30 3201 H 300.347 -6.04442 -5.51899 0
M  V30 3202 N 303.011 1.40521 -0.713556 0
M  V30 3203 C 304.288 1.94775 -0.17943 0
M  V30 3204 C 304.668 1.65184 1.31444 0
M  V30 3205 O 304.016 0.968429 2.06963 0
M  V30 3206 C 304.226 3.45543 -0.489986 0
M  V30 3207 C 305.574 4.22442 -0.427536 0
M  V30 3208 O 306.598 3.53644 -0.425929 0
M  V30 3209 O 305.457 5.4501 -0.403292 0
M  V30 3210 H 302.551 0.826606 -0.0255192 0
M  V30 3211 H 305.097 1.5014 -0.790949 0
M  V30 3212 H 303.869 3.60432 -1.5233 0
M  V30 3213 H 303.492 3.97311 0.151598 0
M  V30 3214 N 304.489 0.459591 1.5075 0
M  V30 3215 C 305.421 -0.37665 2.26084 0
M  V30 3216 C 306.434 -0.967109 1.30961 0
M  V30 3217 O 307.623 -0.857468 1.56556 0
M  V30 3218 C 304.723 -1.54112 3.01832 0
M  V30 3219 C 303.896 -1.06553 4.24223 0
M  V30 3220 C 302.955 -2.1027 4.82362 0
M  V30 3221 O 301.981 -1.68798 5.43595 0
M  V30 3222 N 303.183 -3.42974 4.68347 0
M  V30 3223 H 305.948 0.269124 2.98489 0
M  V30 3224 H 303.509 0.28972 1.59287 0
M  V30 3225 H 305.501 -2.23165 3.37608 0
M  V30 3226 H 304.071 -2.0918 2.32298 0
M  V30 3227 H 303.291 -0.201274 3.93686 0
M  V30 3228 H 304.579 -0.725516 5.03601 0
M  V30 3229 H 303.977 -3.79385 4.19623 0
M  V30 3230 H 302.534 -4.07858 5.08424 0
M  V30 3231 N 305.967 -1.56429 0.191757 0
M  V30 3232 C 306.9 -2.14829 -0.76967 0
M  V30 3233 C 307.878 -1.08405 -1.2119 0
M  V30 3234 O 309.062 -1.36498 -1.30002 0
M  V30 3235 C 306.189 -2.70446 -2.03903 0
M  V30 3236 C 305.235 -3.89428 -1.7392 0
M  V30 3237 S 306.068 -5.28048 -0.890265 0
M  V30 3238 C 307.224 -5.87085 -2.16984 0
M  V30 3239 H 307.457 -2.96042 -0.273204 0
M  V30 3240 H 304.99 -1.54383 -0.0231975 0
M  V30 3241 H 306.948 -3.03134 -2.76803 0
M  V30 3242 H 305.609 -1.89281 -2.50662 0
M  V30 3243 H 304.802 -4.26742 -2.68155 0
M  V30 3244 H 304.404 -3.57732 -1.09103 0
M  V30 3245 H 306.696 -6.01244 -3.12269 0
M  V30 3246 H 307.639 -6.83747 -1.84108 0
M  V30 3247 H 308.047 -5.15663 -2.29678 0
M  V30 3248 N 307.445 0.0818655 -1.57387 0
M  V30 3249 C 308.408 1.08265 -2.02018 0
M  V30 3250 C 309.408 1.32183 -0.915664 0
M  V30 3251 O 310.598 1.28073 -1.18081 0
M  V30 3252 C 307.73 2.42871 -2.39221 0
M  V30 3253 H 308.923 0.698204 -2.91659 0
M  V30 3254 H 306.476 0.327303 -1.52835 0
M  V30 3255 H 307.211 2.86167 -1.52575 0
M  V30 3256 H 306.996 2.26855 -3.19811 0
M  V30 3257 H 308.486 3.14826 -2.74362 0
M  V30 3258 N 308.923 1.53595 0.353017 0
M  V30 3259 C 310.172 1.69603 1.09168 0
M  V30 3260 C 310.485 0.460925 1.90092 0
M  V30 3261 O 311.691 0.501774 2.66823 0
M  V30 3262 C 310.147 2.99872 1.9901 0
M  V30 3263 C 309.755 4.30687 1.23339 0
M  V30 3264 C 311.499 3.25246 2.72792 0
M  V30 3265 C 309.406 5.52036 2.12156 0
M  V30 3266 H 308.336 0.631966 0.411261 0
M  V30 3267 H 310.987 1.80096 0.351802 0
M  V30 3268 H 309.369 2.83212 2.7678 0
M  V30 3269 H 310.543 4.58019 0.505456 0
M  V30 3270 H 308.858 4.11853 0.613663 0
M  V30 3271 H 311.455 4.13095 3.39495 0
M  V30 3272 H 311.798 2.41846 3.38846 0
M  V30 3273 H 312.331 3.42638 2.021 0
M  V30 3274 H 309.07 6.37951 1.50659 0
M  V30 3275 H 308.59 5.28966 2.82764 0
M  V30 3276 H 310.269 5.87313 2.71427 0
M  V30 3277 N 310.401 -0.613514 1.45168 0
M  V30 3278 C 311.648 -1.37268 1.48875 0
M  V30 3279 C 311.976 -1.94077 0.128161 0
M  V30 3280 O 311.231 -1.75178 -0.872416 0
M  V30 3281 C 311.53 -2.54347 2.51083 0
M  V30 3282 C 311.196 -2.1572 3.95949 0
M  V30 3283 C 309.858 -2.04899 4.35396 0
M  V30 3284 C 312.21 -1.85485 4.87078 0
M  V30 3285 C 309.538 -1.62057 5.63875 0
M  V30 3286 C 311.89 -1.4413 6.15962 0
M  V30 3287 C 310.554 -1.31863 6.54346 0
M  V30 3288 H 309.824 -0.502299 0.544773 0
M  V30 3289 H 312.471 -0.694021 1.78481 0
M  V30 3290 H 310.776 -3.27524 2.15024 0
M  V30 3291 H 312.473 -3.12577 2.51191 0
M  V30 3292 H 309.063 -2.25066 3.64751 0
M  V30 3293 H 313.247 -1.92745 4.57343 0
M  V30 3294 H 308.503 -1.51177 5.92415 0
M  V30 3295 H 312.677 -1.19778 6.86022 0
M  V30 3296 H 310.304 -0.984392 7.538 0
M  V30 3297 N 311.879 -1.3236 -0.855495 0
M  V30 3298 C 312.829 -1.17809 -1.95205 0
M  V30 3299 C 313.813 -0.0852319 -1.60674 0
M  V30 3300 O 315.005 -0.311651 -1.74235 0
M  V30 3301 C 312.134 -0.902437 -3.31226 0
M  V30 3302 C 311.22 -2.03695 -3.7198 0
M  V30 3303 N 311.611 -3.28544 -3.84568 0
M  V30 3304 C 309.909 -1.93993 -4.016 0
M  V30 3305 C 310.61 -4.02847 -4.19629 0
M  V30 3306 N 309.586 -3.31138 -4.31102 0
M  V30 3307 H 313.388 -2.12462 -2.0307 0
M  V30 3308 H 310.902 -1.24127 -1.0472 0
M  V30 3309 H 312.899 -0.77915 -4.09554 0
M  V30 3310 H 311.559 0.0357267 -3.2468 0
M  V30 3311 H 312.57 -3.6349 -3.68911 0
M  V30 3312 H 309.247 -1.07733 -4.03361 0
M  V30 3313 H 310.637 -5.10506 -4.36845 0
M  V30 3314 N 313.357 1.07166 -1.15556 0
M  V30 3315 C 314.597 1.81391 -0.94216 0
M  V30 3316 C 314.961 1.84788 0.521272 0
M  V30 3317 O 316.162 2.54904 0.85307 0
M  V30 3318 C 314.433 3.22431 -1.54185 0
M  V30 3319 S 315.992 4.13379 -1.47183 0
M  V30 3320 H 312.81 0.624963 -0.339031 0
M  V30 3321 H 315.412 1.28725 -1.4714 0
M  V30 3322 H 314.116 3.17548 -2.59984 0
M  V30 3323 H 313.647 3.80172 -1.01156 0
M  V30 3324 H 315.662 4.94007 -0.466004 0
M  V30 3325 N 314.835 0.952656 1.25548 0
M  V30 3326 C 315.765 0.489287 2.28316 0
M  V30 3327 C 316.746 -0.463359 1.63667 0
M  V30 3328 O 317.931 -0.36274 1.90782 0
M  V30 3329 C 315.061 -0.235603 3.465 0
M  V30 3330 C 314.015 0.631593 4.23314 0
M  V30 3331 C 313.341 -0.223923 5.34231 0
M  V30 3332 C 314.641 1.90871 4.86174 0
M  V30 3333 H 316.335 1.34822 2.67326 0
M  V30 3334 H 313.881 0.649728 1.28509 0
M  V30 3335 H 315.834 -0.570882 4.17515 0
M  V30 3336 H 314.558 -1.12877 3.06474 0
M  V30 3337 H 313.217 0.949929 3.54079 0
M  V30 3338 H 312.865 -1.11678 4.90446 0
M  V30 3339 H 312.565 0.35299 5.86539 0
M  V30 3340 H 314.089 -0.554214 6.0808 0
M  V30 3341 H 315.503 1.63997 5.49343 0
M  V30 3342 H 313.9 2.43112 5.4865 0
M  V30 3343 H 314.97 2.61304 4.08471 0
M  V30 3344 N 316.313 -1.40141 0.720998 0
M  V30 3345 C 317.56 -2.00787 0.262842 0
M  V30 3346 C 317.888 -1.5718 -1.14563 0
M  V30 3347 O 317.143 -0.785391 -1.79249 0
M  V30 3348 C 317.442 -3.56165 0.296892 0
M  V30 3349 C 317.108 -4.19373 1.65641 0
M  V30 3350 C 315.77 -4.36352 2.02855 0
M  V30 3351 C 318.122 -4.54578 2.54968 0
M  V30 3352 C 315.45 -4.8582 3.28931 0
M  V30 3353 C 317.802 -5.05447 3.80402 0
M  V30 3354 C 316.466 -5.20635 4.17726 0
M  V30 3355 H 315.736 -0.734731 0.0961807 0
M  V30 3356 H 318.383 -1.67673 0.925093 0
M  V30 3357 H 316.688 -3.8922 -0.448932 0
M  V30 3358 H 318.385 -4.00929 -0.0755208 0
M  V30 3359 H 314.975 -4.06549 1.35704 0
M  V30 3360 H 319.159 -4.41091 2.27491 0
M  V30 3361 H 314.415 -4.95764 3.57811 0
M  V30 3362 H 318.589 -5.31663 4.49786 0
M  V30 3363 H 316.216 -5.58728 5.15487 0
M  V30 3364 N 317.792 -0.46758 -1.50504 0
M  V30 3365 C 319.038 0.0808869 -2.03239 0
M  V30 3366 C 319.393 1.37721 -1.34353 0
M  V30 3367 O 318.686 1.86016 -0.459194 0
M  V30 3368 C 318.88 0.323995 -3.55928 0
M  V30 3369 C 318.709 -0.947215 -4.39611 0
M  V30 3370 C 317.479 -1.48951 -4.82848 0
M  V30 3371 C 319.677 -1.84166 -4.80195 0
M  V30 3372 N 317.659 -2.71011 -5.50842 0
M  V30 3373 C 319.03 -2.90815 -5.47564 0
M  V30 3374 C 321.085 -1.85246 -4.62156 0
M  V30 3375 C 319.788 -3.98529 -5.98805 0
M  V30 3376 C 321.814 -2.91914 -5.14335 0
M  V30 3377 C 321.176 -3.97282 -5.81676 0
M  V30 3378 H 317.275 -0.0103394 -0.781932 0
M  V30 3379 H 319.859 -0.635003 -1.84054 0
M  V30 3380 H 318.03 1.00892 -3.75067 0
M  V30 3381 H 319.762 0.866492 -3.95315 0
M  V30 3382 H 316.517 -1.03918 -4.62058 0
M  V30 3383 H 316.941 -3.32988 -5.89447 0
M  V30 3384 H 321.583 -1.05103 -4.09528 0
M  V30 3385 H 319.301 -4.79491 -6.50472 0
M  V30 3386 H 322.887 -2.93729 -5.0221 0
M  V30 3387 H 321.767 -4.78462 -6.21324 0
M  V30 3388 N 319.27 1.56325 -0.20005 0
M  V30 3389 C 320.681 1.8408 0.31167 0
M  V30 3390 C 321.032 1.12087 1.61031 0
M  V30 3391 O 320.157 0.38332 2.12978 0
M  V30 3392 C 320.752 3.33932 0.57226 0
M  V30 3393 C 319.311 3.6208 1.02834 0
M  V30 3394 C 318.458 2.77186 0.079634 0
M  V30 3395 H 321.409 1.52939 -0.423729 0
M  V30 3396 H 321.43 3.52971 1.42096 0
M  V30 3397 H 320.942 3.86303 -0.37308 0
M  V30 3398 H 319.043 3.15147 1.98778 0
M  V30 3399 H 319.156 4.7023 0.917624 0
M  V30 3400 H 317.52 2.47951 0.582448 0
M  V30 3401 H 318.303 3.32347 -0.860238 0
M  V30 3402 N 320.748 -0.0735177 1.57428 0
M  V30 3403 C 321.973 -0.789787 1.91774 0
M  V30 3404 C 322.398 -1.70413 0.796306 0
M  V30 3405 O 321.756 -1.79555 -0.250961 0
M  V30 3406 C 321.804 -1.5609 3.25067 0
M  V30 3407 O 320.908 -2.67144 3.14178 0
M  V30 3408 H 320.249 -0.215582 0.628029 0
M  V30 3409 H 322.779 -0.0422781 2.04556 0
M  V30 3410 H 322.789 -1.94052 3.58898 0
M  V30 3411 H 321.464 -0.890015 4.06265 0
M  V30 3412 H 320.041 -2.32052 2.91901 0
M  V30 3413 N 322.226 -1.5378 -0.344866 0
M  V30 3414 C 323.156 -1.84662 -1.42906 0
M  V30 3415 C 324.137 -0.701648 -1.54955 0
M  V30 3416 O 325.322 -0.953438 -1.69184 0
M  V30 3417 C 322.452 -2.05503 -2.79974 0
M  V30 3418 C 321.406 -3.21318 -2.82734 0
M  V30 3419 C 320.732 -3.2749 -4.22675 0
M  V30 3420 C 322.032 -4.59456 -2.48389 0
M  V30 3421 H 323.726 -2.75461 -1.17311 0
M  V30 3422 H 321.272 -1.32542 -0.562896 0
M  V30 3423 H 323.225 -2.25691 -3.55867 0
M  V30 3424 H 321.949 -1.11434 -3.07002 0
M  V30 3425 H 320.608 -3.00984 -2.09294 0
M  V30 3426 H 320.256 -2.31019 -4.4681 0
M  V30 3427 H 319.956 -4.05316 -4.25433 0
M  V30 3428 H 321.48 -3.49887 -5.00412 0
M  V30 3429 H 322.894 -4.79667 -3.13995 0
M  V30 3430 H 321.291 -5.39675 -2.62432 0
M  V30 3431 H 322.361 -4.63155 -1.4358 0
M  V30 3432 N 323.704 0.605807 -1.45491 0
M  V30 3433 C 324.932 1.39136 -1.5313 0
M  V30 3434 C 325.347 1.88082 -0.164507 0
M  V30 3435 O 324.704 1.62316 0.834247 0
M  V30 3436 C 324.755 2.59463 -2.51716 0
M  V30 3437 O 324.476 2.12551 -3.83084 0
M  V30 3438 C 325.977 3.52301 -2.6907 0
M  V30 3439 H 323.197 0.425849 -0.51855 0
M  V30 3440 H 325.741 0.73865 -1.90694 0
M  V30 3441 H 323.896 3.20772 -2.17219 0
M  V30 3442 H 324.31 2.90744 -4.36541 0
M  V30 3443 H 325.784 4.33271 -3.42024 0
M  V30 3444 H 326.261 4.02757 -1.75167 0
M  V30 3445 H 326.867 2.96845 -3.04571 0
M  V30 3446 N 325.182 1.32811 0.848464 0
M  V30 3447 C 326.112 1.24882 1.97299 0
M  V30 3448 C 327.093 0.131357 1.69592 0
M  V30 3449 O 328.278 0.319553 1.91553 0
M  V30 3450 C 325.408 0.97746 3.33261 0
M  V30 3451 C 324.362 2.05682 3.75338 0
M  V30 3452 C 323.688 1.63777 5.09 0
M  V30 3453 C 324.988 3.47254 3.90144 0
M  V30 3454 H 326.682 2.18966 2.04191 0
M  V30 3455 H 324.228 1.05413 0.981029 0
M  V30 3456 H 326.181 0.908513 4.1149 0
M  V30 3457 H 324.905 0.000980011 3.266 0
M  V30 3458 H 323.564 2.11603 2.99366 0
M  V30 3459 H 323.212 0.648569 4.98801 0
M  V30 3460 H 322.912 2.36 5.38124 0
M  V30 3461 H 324.436 1.5833 5.89715 0
M  V30 3462 H 325.85 3.43888 4.58709 0
M  V30 3463 H 324.247 4.1788 4.30693 0
M  V30 3464 H 325.317 3.86462 2.92874 0
M  V30 3465 N 326.66 -1.06551 1.16123 0
M  V30 3466 C 327.59 -2.15935 0.88851 0
M  V30 3467 C 328.571 -1.69306 -0.164135 0
M  V30 3468 O 329.756 -1.94193 -0.0167857 0
M  V30 3469 C 326.886 -3.45149 0.385942 0
M  V30 3470 C 325.84 -4.05271 1.3762 0
M  V30 3471 C 325.166 -5.29664 0.732137 0
M  V30 3472 C 326.466 -4.44355 2.74493 0
M  V30 3473 H 328.16 -2.39006 1.80323 0
M  V30 3474 H 325.706 -1.14866 0.868435 0
M  V30 3475 H 327.659 -4.21004 0.182647 0
M  V30 3476 H 326.383 -3.21689 -0.564274 0
M  V30 3477 H 325.042 -3.3147 1.56599 0
M  V30 3478 H 324.69 -5.02499 -0.224483 0
M  V30 3479 H 324.39 -5.70848 1.39307 0
M  V30 3480 H 325.914 -6.08218 0.538802 0
M  V30 3481 H 327.328 -5.11303 2.59311 0
M  V30 3482 H 325.725 -4.96515 3.37035 0
M  V30 3483 H 326.795 -3.55339 3.29943 0
M  V30 3484 N 328.138 -0.959301 -1.25041 0
M  V30 3485 C 329.386 -0.615393 -1.92503 0
M  V30 3486 C 329.707 0.850969 -1.75452 0
M  V30 3487 O 328.977 1.60658 -1.12098 0
M  V30 3488 H 327.557 -0.224613 -0.712431 0
M  V30 3489 H 330.219 -1.21855 -1.5211 0
M  V30 3490 H 329.315 -0.848738 -3.00338 0
M  V30 3491 N 329.616 1.39756 -0.72842 0
M  V30 3492 C 330.864 2.00248 -0.272946 0
M  V30 3493 C 331.185 1.58077 1.14178 0
M  V30 3494 O 330.455 0.826014 1.77634 0
M  V30 3495 H 329.035 0.740554 -0.0979247 0
M  V30 3496 H 331.697 1.70903 -0.936912 0
M  V30 3497 H 330.793 3.10495 -0.316142 0
M  V30 3498 N 331.094 0.475555 1.50254 0
M  V30 3499 C 332.057 -0.305016 2.27161 0
M  V30 3500 C 333.057 -0.916519 1.32123 0
M  V30 3501 O 334.247 -0.785003 1.5551 0
M  V30 3502 C 331.379 -1.43496 3.09227 0
M  V30 3503 H 332.572 0.369511 2.97615 0
M  V30 3504 H 330.125 0.229747 1.54602 0
M  V30 3505 H 330.86 -2.14441 2.43281 0
M  V30 3506 H 330.645 -1.00223 3.79075 0
M  V30 3507 H 332.135 -1.98548 3.67381 0
M  V30 3508 N 332.573 -1.56217 0.208337 0
M  V30 3509 C 333.503 -2.22694 -0.702116 0
M  V30 3510 C 334.484 -1.19432 -1.2112 0
M  V30 3511 O 335.669 -1.47978 -1.25762 0
M  V30 3512 C 332.799 -2.8966 -1.9161 0
M  V30 3513 C 331.753 -3.9928 -1.5414 0
M  V30 3514 C 331.079 -4.53476 -2.83308 0
M  V30 3515 C 332.379 -5.17012 -0.741339 0
M  V30 3516 H 334.073 -2.99034 -0.147898 0
M  V30 3517 H 331.619 -1.43831 -0.0696951 0
M  V30 3518 H 333.572 -3.34852 -2.55836 0
M  V30 3519 H 332.296 -2.10746 -2.49507 0
M  V30 3520 H 330.955 -3.54799 -0.922668 0
M  V30 3521 H 330.603 -3.71308 -3.39322 0
M  V30 3522 H 330.303 -5.27451 -2.58976 0
M  V30 3523 H 331.827 -5.01378 -3.485 0
M  V30 3524 H 333.241 -5.58667 -1.28699 0
M  V30 3525 H 331.638 -5.97137 -0.595627 0
M  V30 3526 H 332.708 -4.8423 0.254851 0
M  V30 3527 N 334.051 0.0651679 -1.57465 0
M  V30 3528 C 335.3 0.761916 -1.86756 0
M  V30 3529 C 335.613 1.78406 -0.801925 0
M  V30 3530 O 336.819 2.53084 -0.982885 0
M  V30 3531 C 335.275 1.40603 -3.31299 0
M  V30 3532 C 334.883 0.422115 -4.46007 0
M  V30 3533 C 336.627 2.08476 -3.69781 0
M  V30 3534 C 334.534 1.07252 -5.81593 0
M  V30 3535 H 333.464 0.288308 -0.696702 0
M  V30 3536 H 336.115 0.015344 -1.83494 0
M  V30 3537 H 334.497 2.20109 -3.29193 0
M  V30 3538 H 335.671 -0.343613 -4.59517 0
M  V30 3539 H 333.986 -0.152527 -4.16121 0
M  V30 3540 H 336.583 2.57925 -4.68379 0
M  V30 3541 H 336.926 2.88712 -2.99919 0
M  V30 3542 H 337.459 1.35792 -3.73905 0
M  V30 3543 H 334.198 0.310342 -6.54765 0
M  V30 3544 H 333.718 1.80895 -5.71872 0
M  V30 3545 H 335.397 1.59043 -6.27148 0
M  V30 3546 N 335.529 1.53961 0.336706 0
M  V30 3547 C 336.775 1.7179 1.07777 0
M  V30 3548 C 337.108 0.483263 1.88091 0
M  V30 3549 O 336.383 -0.519747 1.87427 0
M  V30 3550 C 336.666 2.98558 2.01334 0
M  V30 3551 C 336.519 4.32245 1.24437 0
M  V30 3552 C 337.838 3.21023 3.01052 0
M  V30 3553 H 334.957 0.625089 0.390426 0
M  V30 3554 H 337.599 1.86641 0.35567 0
M  V30 3555 H 335.749 2.86028 2.62908 0
M  V30 3556 H 337.421 4.56637 0.654243 0
M  V30 3557 H 335.664 4.30344 0.546458 0
M  V30 3558 H 336.335 5.17137 1.93063 0
M  V30 3559 H 338.811 3.32929 2.49595 0
M  V30 3560 H 337.687 4.11104 3.6371 0
M  V30 3561 H 337.948 2.37637 3.72802 0
M  V30 3562 N 337.007 -0.598083 1.45811 0
M  V30 3563 C 338.255 -1.35413 1.50026 0
M  V30 3564 C 338.576 -1.94444 0.147177 0
M  V30 3565 O 337.846 -1.77701 -0.824571 0
M  V30 3566 H 336.426 -0.502727 0.552517 0
M  V30 3567 H 339.088 -0.701606 1.81834 0
M  V30 3568 H 338.184 -2.16871 2.2444 0
M  V30 3569 N 338.485 -1.33259 -0.841409 0
M  V30 3570 C 339.418 -1.1764 -1.95541 0
M  V30 3571 C 340.396 -0.072501 -1.62438 0
M  V30 3572 O 341.58 -0.23427 -1.87039 0
M  V30 3573 C 338.707 -0.803794 -3.29024 0
M  V30 3574 C 337.753 -1.91482 -3.81099 0
M  V30 3575 S 338.586 -3.52538 -4.03085 0
M  V30 3576 C 339.742 -3.17279 -5.39523 0
M  V30 3577 H 339.975 -2.11941 -2.08491 0
M  V30 3578 H 337.508 -1.18072 -0.9949 0
M  V30 3579 H 339.466 -0.595592 -4.06156 0
M  V30 3580 H 338.127 0.120574 -3.13868 0
M  V30 3581 H 337.32 -1.60742 -4.7768 0
M  V30 3582 H 336.922 -2.07956 -3.10854 0
M  V30 3583 H 339.214 -2.67946 -6.22263 0
M  V30 3584 H 340.157 -4.1293 -5.75234 0
M  V30 3585 H 340.565 -2.53943 -5.04156 0
M  V30 3586 N 339.963 1.05934 -1.16686 0
M  V30 3587 C 341.209 1.79065 -0.95203 0
M  V30 3588 C 341.542 1.87147 0.518629 0
M  V30 3589 O 340.817 1.36574 1.38484 0
M  V30 3590 C 341.1 3.23359 -1.58464 0
M  V30 3591 C 340.953 3.23336 -3.12689 0
M  V30 3592 C 342.272 4.21004 -1.28232 0
M  V30 3593 H 339.391 0.65005 -0.34728 0
M  V30 3594 H 342.033 1.23868 -1.44072 0
M  V30 3595 H 340.183 3.70493 -1.16908 0
M  V30 3596 H 341.855 2.84336 -3.6325 0
M  V30 3597 H 340.098 2.61886 -3.4583 0
M  V30 3598 H 340.769 4.25144 -3.52075 0
M  V30 3599 H 343.245 3.8233 -1.64203 0
M  V30 3600 H 342.121 5.20225 -1.75092 0
M  V30 3601 H 342.382 4.41639 -0.201791 0
M  V30 3602 N 341.441 0.965919 1.2453 0
M  V30 3603 C 342.857 0.67216 1.44756 0
M  V30 3604 C 343.057 -0.766609 1.86347 0
M  V30 3605 O 342.113 -1.5407 2.00047 0
M  V30 3606 C 343.426 1.65473 2.51076 0
M  V30 3607 C 344.974 1.66716 2.64905 0
M  V30 3608 C 345.449 2.63766 3.74421 0
M  V30 3609 N 346.94 2.62198 3.81846 0
M  V30 3610 C 347.675 3.33966 4.66106 0
M  V30 3611 N 347.171 4.15245 5.54566 0
M  V30 3612 N 348.964 3.22799 4.60171 0
M  V30 3613 H 341.115 1.89553 0.958293 0
M  V30 3614 H 343.378 0.815979 0.482579 0
M  V30 3615 H 343.084 2.68296 2.27399 0
M  V30 3616 H 342.958 1.4261 3.49202 0
M  V30 3617 H 345.345 0.646057 2.87941 0
M  V30 3618 H 345.426 1.93642 1.67142 0
M  V30 3619 H 345.07 3.6601 3.52135 0
M  V30 3620 H 345 2.34121 4.71694 0
M  V30 3621 H 347.491 2.032 3.18619 0
M  V30 3622 H 347.804 4.66898 6.15814 0
M  V30 3623 H 346.149 4.1934 5.54237 0
M  V30 3624 H 349.34 2.58764 3.90075 0
M  V30 3625 H 349.513 3.78994 5.25612 0
M  V30 3626 N 342.919 -1.39368 0.735821 0
M  V30 3627 C 343.849 -2.33234 0.111506 0
M  V30 3628 C 344.83 -1.53954 -0.723334 0
M  V30 3629 O 346.015 -1.82344 -0.668147 0
M  V30 3630 C 343.145 -3.38057 -0.795917 0
M  V30 3631 C 342.099 -4.2795 -0.065172 0
M  V30 3632 C 341.425 -5.23479 -1.08967 0
M  V30 3633 C 342.725 -5.10741 1.09273 0
M  V30 3634 H 344.419 -2.85692 0.895571 0
M  V30 3635 H 341.965 -1.37364 0.432109 0
M  V30 3636 H 343.918 -4.02675 -1.24221 0
M  V30 3637 H 342.642 -2.8404 -1.61211 0
M  V30 3638 H 341.301 -3.64813 0.361511 0
M  V30 3639 H 340.949 -4.65758 -1.89944 0
M  V30 3640 H 340.649 -5.84472 -0.605489 0
M  V30 3641 H 342.173 -5.90974 -1.53565 0
M  V30 3642 H 343.587 -5.68699 0.724841 0
M  V30 3643 H 341.984 -5.8088 1.50659 0
M  V30 3644 H 343.054 -4.45525 1.91404 0
M  V30 3645 N 344.397 -0.483516 -1.5 0
M  V30 3646 C 345.625 0.0644831 -2.06799 0
M  V30 3647 C 346.04 1.32399 -1.34596 0
M  V30 3648 O 345.397 1.77626 -0.418946 0
M  V30 3649 C 345.448 0.339927 -3.59898 0
M  V30 3650 O 345.169 -0.869635 -4.29382 0
M  V30 3651 C 346.67 0.933515 -4.33359 0
M  V30 3652 H 343.89 -0.0126333 -0.670881 0
M  V30 3653 H 346.434 -0.675864 -1.93009 0
M  V30 3654 H 344.589 1.03022 -3.7345 0
M  V30 3655 H 345.003 -0.62179 -5.20801 0
M  V30 3656 H 346.477 1.07593 -5.41413 0
M  V30 3657 H 346.954 1.92685 -3.94676 0
M  V30 3658 H 347.56 0.281221 -4.24369 0
M  V30 3659 N 345.875 1.56104 -0.216619 0
M  V30 3660 C 346.807 2.17339 0.72776 0
M  V30 3661 C 347.82 1.14109 1.16116 0
M  V30 3662 O 349.009 1.4111 1.09317 0
M  V30 3663 C 346.109 2.73818 1.99693 0
M  V30 3664 C 345.282 4.02168 1.71988 0
M  V30 3665 C 344.341 4.43259 2.83562 0
M  V30 3666 O 343.367 5.10257 2.52244 0
M  V30 3667 N 344.569 4.08535 4.12407 0
M  V30 3668 H 347.334 2.99005 0.203983 0
M  V30 3669 H 344.895 1.61861 -0.0354289 0
M  V30 3670 H 346.887 2.9828 2.73516 0
M  V30 3671 H 345.457 1.96483 2.43132 0
M  V30 3672 H 344.677 3.85612 0.818337 0
M  V30 3673 H 345.965 4.85907 1.50903 0
M  V30 3674 H 345.363 3.54687 4.40696 0
M  V30 3675 H 343.92 4.37901 4.8279 0
M  V30 3676 N 347.353 -0.0568162 1.57498 0
M  V30 3677 C 348.303 -1.07315 2.01166 0
M  V30 3678 C 349.287 -1.33632 0.896171 0
M  V30 3679 O 350.479 -1.33682 1.16009 0
M  V30 3680 C 347.608 -2.38257 2.47161 0
M  V30 3681 C 346.694 -2.1515 3.65474 0
M  V30 3682 N 347.085 -1.62014 4.7915 0
M  V30 3683 C 345.383 -2.45559 3.72313 0
M  V30 3684 C 346.084 -1.54069 5.60926 0
M  V30 3685 N 345.06 -2.00652 5.05213 0
M  V30 3686 H 348.862 -0.655878 2.86488 0
M  V30 3687 H 346.376 -0.263635 1.60246 0
M  V30 3688 H 348.373 -3.11845 2.76691 0
M  V30 3689 H 347.033 -2.80687 1.63232 0
M  V30 3690 H 348.044 -1.30667 5.01145 0
M  V30 3691 H 344.721 -2.91253 2.99129 0
M  V30 3692 H 346.111 -1.13712 6.62208 0
M  V30 3693 N 348.832 -1.54138 -0.328536 0
M  V30 3694 C 349.762 -1.86167 -1.40939 0
M  V30 3695 C 350.743 -0.718044 -1.54202 0
M  V30 3696 O 351.928 -0.971328 -1.68163 0
M  V30 3697 C 349.058 -2.08461 -2.77779 0
M  V30 3698 C 348.012 -3.24299 -2.7931 0
M  V30 3699 C 347.338 -3.31955 -4.19178 0
M  V30 3700 C 348.638 -4.62065 -2.43502 0
M  V30 3701 H 350.332 -2.76689 -1.14383 0
M  V30 3702 H 347.878 -1.33132 -0.548806 0
M  V30 3703 H 349.831 -2.29453 -3.53454 0
M  V30 3704 H 348.555 -1.14684 -3.05802 0
M  V30 3705 H 347.214 -3.03187 -2.0609 0
M  V30 3706 H 346.862 -2.35745 -4.44335 0
M  V30 3707 H 346.562 -4.09805 -4.2111 0
M  V30 3708 H 348.086 -3.55175 -4.96672 0
M  V30 3709 H 349.5 -4.8297 -3.08889 0
M  V30 3710 H 347.897 -5.42429 -2.56693 0
M  V30 3711 H 348.967 -4.64652 -1.38659 0
M  V30 3712 N 350.31 0.590341 -1.46126 0
M  V30 3713 C 351.535 1.37991 -1.54833 0
M  V30 3714 C 351.96 1.87163 -0.187506 0
M  V30 3715 O 351.318 1.61133 0.831008 0
M  V30 3716 C 351.366 2.54867 -2.55098 0
M  V30 3717 O 350.47 3.56061 -2.08073 0
M  V30 3718 H 349.811 0.411265 -0.521303 0
M  V30 3719 H 352.341 0.716819 -1.91632 0
M  V30 3720 H 352.351 3.01886 -2.74461 0
M  V30 3721 H 351.026 2.18429 -3.53923 0
M  V30 3722 H 349.603 3.15574 -1.98664 0
M  V30 3723 N 351.788 1.33704 0.83433 0
M  V30 3724 C 352.718 1.26967 1.95963 0
M  V30 3725 C 353.699 0.149337 1.69443 0
M  V30 3726 O 354.884 0.339852 1.91203 0
M  V30 3727 C 352.014 1.01275 3.32206 0
M  V30 3728 C 350.968 2.09652 3.73136 0
M  V30 3729 C 350.294 1.69166 5.07235 0
M  V30 3730 C 351.594 3.51372 3.86439 0
M  V30 3731 H 353.288 2.2112 2.01857 0
M  V30 3732 H 350.834 1.06447 0.969793 0
M  V30 3733 H 352.787 0.952106 4.10503 0
M  V30 3734 H 351.511 0.0356203 3.26581 0
M  V30 3735 H 350.17 2.14766 2.97104 0
M  V30 3736 H 349.818 0.701437 4.98085 0
M  V30 3737 H 349.518 2.41694 5.35591 0
M  V30 3738 H 351.042 1.64576 5.88003 0
M  V30 3739 H 352.456 3.48734 4.55036 0
M  V30 3740 H 350.853 4.22425 4.26236 0
M  V30 3741 H 351.923 3.89546 2.88759 0
M  V30 3742 N 353.266 -1.05314 1.17247 0
M  V30 3743 C 354.196 -2.1498 0.911362 0
M  V30 3744 C 355.177 -1.69471 -0.146169 0
M  V30 3745 O 356.362 -1.942 0.003812 0
M  V30 3746 C 353.492 -3.4472 0.422528 0
M  V30 3747 C 352.446 -4.03789 1.4191 0
M  V30 3748 C 351.772 -5.28858 0.788274 0
M  V30 3749 C 353.072 -4.41418 2.7919 0
M  V30 3750 H 354.766 -2.3708 1.82848 0
M  V30 3751 H 352.312 -1.13938 0.880569 0
M  V30 3752 H 354.265 -4.20787 0.227289 0
M  V30 3753 H 352.989 -3.22269 -0.530123 0
M  V30 3754 H 351.648 -3.2979 1.60106 0
M  V30 3755 H 351.296 -5.02709 -0.171173 0
M  V30 3756 H 350.996 -5.69338 1.45353 0
M  V30 3757 H 352.52 -6.07612 0.603282 0
M  V30 3758 H 353.934 -5.08524 2.64719 0
M  V30 3759 H 352.331 -4.92913 3.42282 0
M  V30 3760 H 353.401 -3.51819 3.33693 0
M  V30 3761 N 354.744 -0.972509 -1.24016 0
M  V30 3762 C 355.984 -0.644951 -1.93958 0
M  V30 3763 C 356.348 0.80559 -1.74282 0
M  V30 3764 O 357.549 1.2436 -2.38302 0
M  V30 3765 C 355.82 -1.01521 -3.42678 0
M  V30 3766 S 357.379 -0.802927 -4.31391 0
M  V30 3767 H 354.197 -0.236452 -0.670531 0
M  V30 3768 H 356.799 -1.25048 -1.50277 0
M  V30 3769 H 355.503 -2.06769 -3.54506 0
M  V30 3770 H 355.034 -0.400648 -3.91355 0
M  V30 3771 H 357.049 0.317256 -4.95185 0
M  V30 3772 N 356.222 1.38976 -0.743202 0
M  V30 3773 C 357.132 2.3434 -0.110399 0
M  V30 3774 C 358.148 1.58741 0.712559 0
M  V30 3775 O 359.324 1.9099 0.639125 0
M  V30 3776 C 356.389 3.37812 0.780012 0
M  V30 3777 C 355.45 4.29263 -0.0561319 0
M  V30 3778 C 354.683 5.27793 0.791875 0
M  V30 3779 O 354.906 5.33043 2.03031 0
M  V30 3780 O 353.84 6.01512 0.216183 0
M  V30 3781 H 357.666 2.90129 -0.897714 0
M  V30 3782 H 355.251 1.40643 -0.503966 0
M  V30 3783 H 357.133 4.01194 1.28923 0
M  V30 3784 H 355.808 2.84395 1.546 0
M  V30 3785 H 354.715 3.69076 -0.611056 0
M  V30 3786 H 356.048 4.85907 -0.784531 0
M  V30 3787 N 357.7 0.491464 1.49741 0
M  V30 3788 C 358.647 -0.292027 2.28945 0
M  V30 3789 C 359.617 -0.968973 1.34908 0
M  V30 3790 O 360.802 -0.97748 1.6386 0
M  V30 3791 C 357.942 -1.35617 3.17336 0
M  V30 3792 C 357.055 -0.691957 4.26422 0
M  V30 3793 C 356.19 -1.73572 5.02042 0
M  V30 3794 C 355.229 -1.05286 6.02977 0
M  V30 3795 N 354.366 -2.0404 6.71798 0
M  V30 3796 H 359.206 0.389654 2.95442 0
M  V30 3797 H 356.743 0.204003 1.45679 0
M  V30 3798 H 358.701 -1.98502 3.66951 0
M  V30 3799 H 357.331 -2.00674 2.52844 0
M  V30 3800 H 356.383 0.0499523 3.80367 0
M  V30 3801 H 357.695 -0.153946 4.98562 0
M  V30 3802 H 356.849 -2.43987 5.55478 0
M  V30 3803 H 355.588 -2.30757 4.29654 0
M  V30 3804 H 354.593 -0.334446 5.48782 0
M  V30 3805 H 355.818 -0.487636 6.77347 0
M  V30 3806 H 353.764 -2.60205 6.02187 0
M  V30 3807 H 353.681 -1.55279 7.39881 0
M  V30 3808 H 354.949 -2.73772 7.29842 0
M  V30 3809 N 359.178 -1.55987 0.224894 0
M  V30 3810 C 360.408 -2.02489 -0.41007 0
M  V30 3811 C 360.816 -1.10391 -1.53657 0
M  V30 3812 O 360.159 -0.106458 -1.83391 0
M  V30 3813 C 360.221 -3.45319 -0.999757 0
M  V30 3814 C 359.885 -4.56999 -0.00827976 0
M  V30 3815 C 360.882 -5.13812 0.793314 0
M  V30 3816 C 358.567 -5.02176 0.111442 0
M  V30 3817 C 360.561 -6.14276 1.7013 0
M  V30 3818 C 358.248 -6.02477 1.02296 0
M  V30 3819 C 359.246 -6.58403 1.81643 0
M  V30 3820 O 358.934 -7.56751 2.71262 0
M  V30 3821 H 358.666 -0.667915 -0.104235 0
M  V30 3822 H 361.22 -2.0257 0.339782 0
M  V30 3823 H 359.45 -3.42318 -1.79876 0
M  V30 3824 H 361.139 -3.7545 -1.54248 0
M  V30 3825 H 361.905 -4.79756 0.711288 0
M  V30 3826 H 357.784 -4.58323 -0.49605 0
M  V30 3827 H 361.328 -6.57854 2.32107 0
M  V30 3828 H 357.225 -6.35954 1.10599 0
M  V30 3829 H 357.993 -7.74286 2.65375 0
M  V30 3830 N 360.656 0.0484629 -1.57525 0
M  V30 3831 C 361.881 0.759177 -1.93006 0
M  V30 3832 C 362.306 1.69125 -0.823317 0
M  V30 3833 O 361.664 1.79931 0.222364 0
M  V30 3834 C 361.712 1.50899 -3.27509 0
M  V30 3835 O 360.816 2.62112 -3.18388 0
M  V30 3836 H 360.157 0.205564 -0.631379 0
M  V30 3837 H 362.687 0.00972959 -2.04598 0
M  V30 3838 H 362.697 1.88317 -3.6194 0
M  V30 3839 H 361.372 0.825269 -4.0763 0
M  V30 3840 H 359.949 2.27379 -2.95556 0
M  V30 3841 N 362.134 1.5431 0.320358 0
M  V30 3842 C 363.362 1.76636 1.07738 0
M  V30 3843 C 363.777 0.51649 1.81598 0
M  V30 3844 O 363.134 -0.512942 1.75143 0
M  V30 3845 C 363.185 2.96158 2.07299 0
M  V30 3846 O 362.906 4.16313 1.36438 0
M  V30 3847 C 364.407 3.3072 2.95193 0
M  V30 3848 H 361.627 0.589597 0.320339 0
M  V30 3849 H 364.171 2.01207 0.36551 0
M  V30 3850 H 362.326 2.73851 2.74016 0
M  V30 3851 H 362.74 4.83565 2.03138 0
M  V30 3852 H 364.214 4.17643 3.60941 0
M  V30 3853 H 364.691 2.48026 3.62463 0
M  V30 3854 H 365.297 3.55117 2.34034 0
M  V30 3855 N 363.613 -0.582584 1.46437 0
M  V30 3856 C 364.859 -1.34278 1.51978 0
M  V30 3857 C 365.192 -1.93446 0.170973 0
M  V30 3858 O 364.467 -1.76481 -0.817608 0
M  V30 3859 C 364.75 -2.47203 2.61845 0
M  V30 3860 C 364.603 -1.93069 4.06257 0
M  V30 3861 C 365.922 -3.49247 2.67795 0
M  V30 3862 H 363.041 -0.486876 0.553282 0
M  V30 3863 H 365.683 -0.654437 1.78374 0
M  V30 3864 H 363.833 -3.0592 2.39469 0
M  V30 3865 H 365.505 -1.38808 4.3992 0
M  V30 3866 H 363.748 -1.23898 4.1573 0
M  V30 3867 H 364.419 -2.74586 4.7886 0
M  V30 3868 H 366.895 -3.00411 2.8791 0
M  V30 3869 H 365.771 -4.25719 3.46489 0
M  V30 3870 H 366.032 -4.06482 1.73852 0
M  V30 3871 N 365.091 -1.34144 -0.827227 0
M  V30 3872 C 366.337 -1.26446 -1.58554 0
M  V30 3873 C 366.67 0.1664 -1.93486 0
M  V30 3874 O 365.945 1.1107 -1.59667 0
M  V30 3875 C 366.228 -2.15111 -2.8879 0
M  V30 3876 C 366.081 -3.66712 -2.60465 0
M  V30 3877 C 367.4 -2.03311 -3.90324 0
M  V30 3878 H 364.519 -0.46067 -0.575284 0
M  V30 3879 H 367.161 -1.64356 -0.953269 0
M  V30 3880 H 365.311 -1.8291 -3.42748 0
M  V30 3881 H 366.983 -4.09259 -2.1285 0
M  V30 3882 H 365.226 -3.88014 -1.93978 0
M  V30 3883 H 365.897 -4.24112 -3.53317 0
M  V30 3884 H 368.373 -2.31574 -3.45706 0
M  V30 3885 H 367.249 -2.67582 -4.79261 0
M  V30 3886 H 367.51 -1.00879 -4.30437 0
M  V30 3887 N 366.569 1.04691 -1.17803 0
M  V30 3888 C 367.985 1.29963 -0.926379 0
M  V30 3889 C 368.185 1.97251 0.411635 0
M  V30 3890 O 367.241 2.24922 1.14744 0
M  V30 3891 C 368.554 2.16447 -2.08737 0
M  V30 3892 C 370.102 2.29814 -2.12496 0
M  V30 3893 C 370.577 3.19661 -3.27995 0
M  V30 3894 N 372.068 3.27247 -3.27816 0
M  V30 3895 C 372.803 3.96906 -4.13827 0
M  V30 3896 N 372.299 4.6895 -5.09959 0
M  V30 3897 N 374.092 3.93122 -4.01761 0
M  V30 3898 H 366.243 0.594182 -2.0392 0
M  V30 3899 H 368.506 0.324649 -0.890678 0
M  V30 3900 H 368.212 1.74304 -3.05469 0
M  V30 3901 H 368.086 3.17103 -2.04268 0
M  V30 3902 H 370.473 2.71196 -1.16347 0
M  V30 3903 H 370.554 1.2877 -2.21025 0
M  V30 3904 H 370.198 2.78991 -4.24413 0
M  V30 3905 H 370.128 4.20722 -3.16703 0
M  V30 3906 H 372.619 2.75921 -2.58217 0
M  V30 3907 H 372.932 5.19679 -5.71974 0
M  V30 3908 H 371.277 4.67875 -5.13924 0
M  V30 3909 H 374.468 3.35967 -3.2595 0
M  V30 3910 H 374.641 4.47139 -4.6901 0
M  V30 3911 N 368.047 0.979072 1.23499 0
M  V30 3912 C 369.324 0.563674 1.87302 0
M  V30 3913 C 369.704 -0.959199 1.88049 0
M  V30 3914 O 369.052 -1.83535 1.36114 0
M  V30 3915 C 369.262 1.16822 3.28867 0
M  V30 3916 C 370.61 1.26014 4.0547 0
M  V30 3917 O 371.634 1.12158 3.38082 0
M  V30 3918 O 370.493 1.48044 5.26066 0
M  V30 3919 H 367.587 0.189602 0.804972 0
M  V30 3920 H 370.133 1.07407 1.31384 0
M  V30 3921 H 368.905 2.21049 3.22883 0
M  V30 3922 H 368.528 0.642564 3.92373 0
M  V30 3923 N 369.525 -1.3858 0.750561 0
M  V30 3924 C 370.435 -2.34278 0.122825 0
M  V30 3925 C 371.451 -1.59116 -0.704131 0
M  V30 3926 O 372.627 -1.91326 -0.628987 0
M  V30 3927 C 369.692 -3.38221 -0.762086 0
M  V30 3928 C 368.753 -4.29227 0.078896 0
M  V30 3929 C 367.986 -5.28205 -0.763874 0
M  V30 3930 O 368.209 -5.34112 -2.00201 0
M  V30 3931 O 367.143 -6.01618 -0.18428 0
M  V30 3932 H 370.969 -2.89649 0.913088 0
M  V30 3933 H 368.554 -1.40374 0.511417 0
M  V30 3934 H 370.436 -4.01872 -1.26793 0
M  V30 3935 H 369.111 -2.85211 -1.5309 0
M  V30 3936 H 368.018 -3.68747 0.630621 0
M  V30 3937 H 369.351 -4.85484 0.810289 0
M  V30 3938 N 371.003 -0.499398 -1.49478 0
M  V30 3939 C 372.249 0.0457576 -2.02748 0
M  V30 3940 C 372.582 1.36793 -1.37846 0
M  V30 3941 O 371.857 1.87596 -0.513601 0
M  V30 3942 C 372.14 0.199986 -3.59544 0
M  V30 3943 C 371.993 -1.1452 -4.34977 0
M  V30 3944 C 373.312 0.94137 -4.29914 0
M  V30 3945 H 370.431 0.0151552 -0.736844 0
M  V30 3946 H 373.073 -0.650498 -1.78518 0
M  V30 3947 H 371.223 0.793007 -3.8032 0
M  V30 3948 H 372.895 -1.77697 -4.25701 0
M  V30 3949 H 371.138 -1.73488 -3.97598 0
M  V30 3950 H 371.809 -0.990607 -5.43039 0
M  V30 3951 H 374.285 0.43844 -4.13784 0
M  V30 3952 H 373.161 1.01812 -5.39375 0
M  V30 3953 H 373.422 1.98471 -3.95046 0
M  V30 3954 N 372.481 1.55866 -0.233164 0
M  V30 3955 C 373.729 1.9821 0.394593 0
M  V30 3956 C 374.05 1.12234 1.59463 0
M  V30 3957 O 373.32 0.201981 1.94856 0
M  V30 3958 H 371.9 0.732034 0.148778 0
M  V30 3959 H 374.562 1.92107 -0.32876 0
M  V30 3960 H 373.658 3.03845 0.713063 0
M  V30 3961 N 373.959 -0.0401083 1.57549 0
M  V30 3962 C 375.207 -0.731677 1.8839 0
M  V30 3963 C 375.528 -1.76481 0.829425 0
M  V30 3964 O 374.798 -1.95411 -0.1383 0
M  V30 3965 H 373.378 -0.273225 0.695239 0
M  V30 3966 H 376.04 -0.00867725 1.94898 0
M  V30 3967 H 375.136 -1.22816 2.86919 0
M  V30 3968 N 375.437 -1.54477 -0.31217 0
M  V30 3969 C 376.384 -1.84655 -1.38461 0
M  V30 3970 C 377.354 -0.694536 -1.50882 0
M  V30 3971 O 378.539 -0.942081 -1.6592 0
M  V30 3972 C 375.679 -2.0896 -2.74645 0
M  V30 3973 C 374.792 -3.36618 -2.70763 0
M  V30 3974 C 373.927 -3.50824 -3.98868 0
M  V30 3975 C 372.966 -4.72315 -3.89339 0
M  V30 3976 N 372.103 -4.83387 -5.09197 0
M  V30 3977 H 376.943 -2.76142 -1.12026 0
M  V30 3978 H 374.48 -1.36748 -0.542065 0
M  V30 3979 H 376.438 -2.21045 -3.53829 0
M  V30 3980 H 375.068 -1.20752 -2.99364 0
M  V30 3981 H 374.12 -3.33211 -1.83506 0
M  V30 3982 H 375.432 -4.25917 -2.59608 0
M  V30 3983 H 374.586 -3.62513 -4.86486 0
M  V30 3984 H 373.325 -2.59638 -4.12843 0
M  V30 3985 H 372.33 -4.6067 -3.00105 0
M  V30 3986 H 373.555 -5.64897 -3.76919 0
M  V30 3987 H 371.501 -3.9512 -5.23657 0
M  V30 3988 H 371.418 -5.66669 -5.00422 0
M  V30 3989 H 372.686 -4.9942 -5.98498 0
M  V30 3990 N 376.915 0.57481 -1.46744 0
M  V30 3991 C 378.161 1.3347 -1.52688 0
M  V30 3992 C 378.494 1.93353 -0.181229 0
M  V30 3993 O 377.769 1.76912 0.808237 0
M  V30 3994 C 378.052 2.45811 -2.63152 0
M  V30 3995 C 377.905 1.90912 -4.07275 0
M  V30 3996 C 379.224 3.47822 -2.69644 0
M  V30 3997 H 376.343 0.483935 -0.555856 0
M  V30 3998 H 378.985 0.644968 -1.78718 0
M  V30 3999 H 377.135 3.04646 -2.41088 0
M  V30 4000 H 378.807 1.36473 -4.4065 0
M  V30 4001 H 377.05 1.21691 -4.16382 0
M  V30 4002 H 377.721 2.72042 -4.80309 0
M  V30 4003 H 380.197 2.9888 -2.895 0
M  V30 4004 H 379.073 4.23876 -3.48742 0
M  V30 4005 H 379.334 4.05555 -1.76005 0
M  V30 4006 N 378.394 1.34581 0.820102 0
M  V30 4007 C 379.805 1.24298 1.39309 0
M  V30 4008 C 380.156 -0.130351 1.95767 0
M  V30 4009 O 379.281 -1.0308 1.90272 0
M  V30 4010 C 379.876 2.25054 2.53251 0
M  V30 4011 C 378.435 2.18552 3.0645 0
M  V30 4012 C 377.582 2.11503 1.79337 0
M  V30 4013 H 380.533 1.45906 0.624262 0
M  V30 4014 H 380.554 1.86917 3.31425 0
M  V30 4015 H 380.066 3.24996 2.1213 0
M  V30 4016 H 378.167 1.21976 3.52069 0
M  V30 4017 H 378.28 3.0993 3.65349 0
M  V30 4018 H 376.644 1.57268 2.00347 0
M  V30 4019 H 377.427 3.13284 1.40386 0
M  V30 4020 N 379.872 -1.04064 1.18357 0
M  V30 4021 C 381.102 -1.80654 1.00238 0
M  V30 4022 C 381.51 -1.83713 -0.452362 0
M  V30 4023 O 380.853 -1.27135 -1.32599 0
M  V30 4024 C 380.915 -3.27582 1.48088 0
M  V30 4025 C 380.579 -3.48184 2.96002 0
M  V30 4026 C 381.576 -3.39372 3.93856 0
M  V30 4027 C 379.261 -3.7478 3.34433 0
M  V30 4028 C 381.255 -3.5686 5.28138 0
M  V30 4029 C 378.942 -3.91915 4.68877 0
M  V30 4030 C 379.94 -3.82956 5.65539 0
M  V30 4031 O 379.628 -3.996 6.97549 0
M  V30 4032 H 379.36 -0.575751 0.354241 0
M  V30 4033 H 381.914 -1.32044 1.57333 0
M  V30 4034 H 380.144 -3.77161 0.853588 0
M  V30 4035 H 381.833 -3.8573 1.2636 0
M  V30 4036 H 382.599 -3.18789 3.65511 0
M  V30 4037 H 378.478 -3.80852 2.59756 0
M  V30 4038 H 382.022 -3.49783 6.03571 0
M  V30 4039 H 377.919 -4.11992 4.96923 0
M  V30 4040 H 378.687 -4.1676 7.04452 0
M  V30 4041 N 381.35 -0.985608 -1.22978 0
M  V30 4042 C 382.599 -0.652881 -1.90841 0
M  V30 4043 C 382.912 0.817842 -1.77681 0
M  V30 4044 O 384.118 1.26185 -2.40395 0
M  V30 4045 C 382.574 -1.11717 -3.42122 0
M  V30 4046 C 382.182 -2.6126 -3.63933 0
M  V30 4047 C 383.926 -0.85843 -4.1573 0
M  V30 4048 C 381.833 -3.0133 -5.08876 0
M  V30 4049 H 380.763 -0.240491 -0.714619 0
M  V30 4050 H 383.414 -1.1942 -1.39324 0
M  V30 4051 H 381.796 -0.504027 -3.92779 0
M  V30 4052 H 382.97 -3.27858 -3.23799 0
M  V30 4053 H 381.285 -2.84937 -3.03644 0
M  V30 4054 H 383.882 -1.13359 -5.22546 0
M  V30 4055 H 384.225 0.205461 -4.15793 0
M  V30 4056 H 384.758 -1.43341 -3.71077 0
M  V30 4057 H 381.497 -4.06864 -5.13947 0
M  V30 4058 H 381.017 -2.3943 -5.49939 0
M  V30 4059 H 382.696 -2.92224 -5.77247 0
M  V30 4060 N 382.828 1.3818 -0.7579 0
M  V30 4061 C 383.738 2.3421 -0.135247 0
M  V30 4062 C 384.754 1.59487 0.695683 0
M  V30 4063 O 385.93 1.91657 0.618832 0
M  V30 4064 C 382.995 3.3862 0.744139 0
M  V30 4065 C 382.056 4.2918 -0.101658 0
M  V30 4066 C 381.289 5.28603 0.735851 0
M  V30 4067 O 381.512 5.35166 1.97366 0
M  V30 4068 O 380.446 6.01707 0.152372 0
M  V30 4069 H 384.272 2.8916 -0.928436 0
M  V30 4070 H 381.857 1.40101 -0.518855 0
M  V30 4071 H 383.739 4.02539 1.2466 0
M  V30 4072 H 382.414 2.86019 1.51575 0
M  V30 4073 H 381.321 3.68407 -0.650167 0
M  V30 4074 H 382.654 4.85048 -0.836024 0
M  V30 4075 N 384.306 0.507319 1.49211 0
M  V30 4076 C 385.238 -0.304532 2.27168 0
M  V30 4077 C 386.251 -0.924956 1.33972 0
M  V30 4078 O 387.44 -0.807227 1.59205 0
M  V30 4079 C 384.54 -1.44431 3.06583 0
M  V30 4080 C 383.713 -0.930026 4.27398 0
M  V30 4081 C 382.772 -1.94817 4.88807 0
M  V30 4082 O 381.798 -1.51418 5.4869 0
M  V30 4083 N 383 -3.279 4.79022 0
M  V30 4084 H 385.765 0.36395 2.97482 0
M  V30 4085 H 383.326 0.340249 1.58284 0
M  V30 4086 H 385.318 -2.12311 3.44537 0
M  V30 4087 H 383.888 -2.01684 2.38835 0
M  V30 4088 H 383.108 -0.0759244 3.94127 0
M  V30 4089 H 384.396 -0.564932 5.05654 0
M  V30 4090 H 383.794 -3.65843 4.3148 0
M  V30 4091 H 382.351 -3.91476 5.21142 0
M  V30 4092 N 385.784 -1.5574 0.241426 0
M  V30 4093 C 386.734 -2.17803 -0.674233 0
M  V30 4094 C 387.718 -1.13225 -1.14319 0
M  V30 4095 O 388.91 -1.39153 -1.09387 0
M  V30 4096 C 386.039 -2.87682 -1.87333 0
M  V30 4097 C 385.125 -3.99509 -1.42313 0
M  V30 4098 N 385.516 -5.01115 -0.686798 0
M  V30 4099 C 383.814 -4.11964 -1.70885 0
M  V30 4100 C 384.515 -5.79922 -0.454456 0
M  V30 4101 N 383.491 -5.34001 -1.01705 0
M  V30 4102 H 387.293 -2.93718 -0.103447 0
M  V30 4103 H 384.807 -1.62342 0.0435095 0
M  V30 4104 H 386.804 -3.3057 -2.54026 0
M  V30 4105 H 385.464 -2.13269 -2.4484 0
M  V30 4106 H 386.475 -5.16799 -0.337459 0
M  V30 4107 H 383.152 -3.48718 -2.2957 0
M  V30 4108 H 384.542 -6.71768 0.132992 0
M  V30 4109 N 387.262 0.0317525 -1.57568 0
M  V30 4110 C 388.194 1.06073 -2.03178 0
M  V30 4111 C 389.207 1.32627 -0.944132 0
M  V30 4112 O 390.396 1.30162 -1.22148 0
M  V30 4113 C 387.496 2.40297 -2.38978 0
M  V30 4114 C 386.669 2.33137 -3.70089 0
M  V30 4115 C 385.728 3.49787 -3.9311 0
M  V30 4116 O 384.754 3.29403 -4.64201 0
M  V30 4117 N 385.956 4.71562 -3.38541 0
M  V30 4118 H 388.721 0.672006 -2.92069 0
M  V30 4119 H 386.282 0.219745 -1.60402 0
M  V30 4120 H 388.274 3.1705 -2.51518 0
M  V30 4121 H 386.844 2.71024 -1.55771 0
M  V30 4122 H 386.064 1.415 -3.67928 0
M  V30 4123 H 387.352 2.25493 -4.56104 0
M  V30 4124 H 386.75 4.91024 -2.80912 0
M  V30 4125 H 385.307 5.45689 -3.56464 0
M  V30 4126 N 388.74 1.54641 0.303973 0
M  V30 4127 C 389.987 1.7378 1.03955 0
M  V30 4128 C 390.315 0.521986 1.87365 0
M  V30 4129 O 389.57 -0.496099 1.89308 0
M  V30 4130 C 389.869 2.97753 1.97681 0
M  V30 4131 C 389.535 4.31671 1.30271 0
M  V30 4132 C 388.197 4.68075 1.11619 0
M  V30 4133 C 390.549 5.147 0.82055 0
M  V30 4134 C 387.877 5.8509 0.434304 0
M  V30 4135 C 390.229 6.32416 0.152395 0
M  V30 4136 C 388.893 6.67484 -0.0461067 0
M  V30 4137 H 388.163 0.635908 0.380398 0
M  V30 4138 H 390.81 1.88896 0.314718 0
M  V30 4139 H 389.115 2.77406 2.76682 0
M  V30 4140 H 390.812 3.09756 2.54661 0
M  V30 4141 H 387.402 4.03041 1.45795 0
M  V30 4142 H 391.586 4.87077 0.952374 0
M  V30 4143 H 386.842 6.10806 0.269495 0
M  V30 4144 H 391.016 6.96023 -0.229126 0
M  V30 4145 H 388.643 7.58011 -0.576494 0
M  V30 4146 N 390.218 -0.567019 1.47046 0
M  V30 4147 C 391.165 -1.67489 1.58796 0
M  V30 4148 C 392.135 -1.60399 0.43144 0
M  V30 4149 O 393.32 -1.79378 0.650233 0
M  V30 4150 C 390.46 -3.05821 1.59899 0
M  V30 4151 C 389.573 -3.2342 2.86397 0
M  V30 4152 C 388.708 -4.52093 2.789 0
M  V30 4153 C 387.747 -4.6309 4.00267 0
M  V30 4154 N 386.884 -5.83106 3.91064 0
M  V30 4155 H 391.724 -1.56785 2.53422 0
M  V30 4156 H 389.261 -0.763896 1.2571 0
M  V30 4157 H 391.219 -3.8591 1.58522 0
M  V30 4158 H 389.849 -3.15384 0.687929 0
M  V30 4159 H 388.901 -2.3683 2.97684 0
M  V30 4160 H 390.213 -3.27412 3.76301 0
M  V30 4161 H 389.367 -5.4043 2.75718 0
M  V30 4162 H 388.106 -4.50565 1.86662 0
M  V30 4163 H 387.111 -3.73168 4.03765 0
M  V30 4164 H 388.336 -4.66386 4.93621 0
M  V30 4165 H 386.282 -5.82546 3.01623 0
M  V30 4166 H 386.199 -5.88434 4.74638 0
M  V30 4167 H 387.467 -6.73831 3.91882 0
M  V30 4168 N 391.696 -1.35014 -0.812953 0
M  V30 4169 C 392.626 -1.30069 -1.93919 0
M  V30 4170 C 393.607 -0.176275 -1.69184 0
M  V30 4171 O 394.792 -0.370227 -1.90638 0
M  V30 4172 C 391.922 -1.06547 -3.30552 0
M  V30 4173 C 390.876 -2.15561 -3.69753 0
M  V30 4174 C 390.202 -1.77214 -5.04479 0
M  V30 4175 C 391.502 -3.57476 -3.808 0
M  V30 4176 H 393.196 -2.24303 -1.98314 0
M  V30 4177 H 390.742 -1.07977 -0.952736 0
M  V30 4178 H 392.695 -1.01729 -4.08937 0
M  V30 4179 H 391.419 -0.0875719 -3.26483 0
M  V30 4180 H 390.078 -2.19466 -2.9365 0
M  V30 4181 H 389.726 -0.780589 -4.96906 0
M  V30 4182 H 389.426 -2.50184 -5.31678 0
M  V30 4183 H 390.95 -1.7391 -5.8531 0
M  V30 4184 H 392.364 -3.55929 -4.4943 0
M  V30 4185 H 390.761 -4.29152 -4.19462 0
M  V30 4186 H 391.831 -3.94091 -2.82525 0
M  V30 4187 N 393.175 1.03435 -1.18907 0
M  V30 4188 C 394.415 1.78302 -0.999391 0
M  V30 4189 C 394.779 1.86353 0.462219 0
M  V30 4190 O 395.98 2.57489 0.771543 0
M  V30 4191 C 394.251 3.17362 -1.64365 0
M  V30 4192 S 395.81 4.08488 -1.6026 0
M  V30 4193 H 392.628 0.613861 -0.358742 0
M  V30 4194 H 395.23 1.23979 -1.51161 0
M  V30 4195 H 393.934 3.09116 -2.69955 0
M  V30 4196 H 393.465 3.76762 -1.13199 0
M  V30 4197 H 395.48 4.92274 -0.622932 0
M  V30 4198 N 394.653 0.992116 1.22453 0
M  V30 4199 C 395.902 0.662992 1.90492 0
M  V30 4200 C 396.215 -0.808407 1.78113 0
M  V30 4201 O 397.421 -1.24908 2.41061 0
M  V30 4202 C 395.877 1.1353 3.41524 0
M  V30 4203 C 395.485 2.63187 3.62542 0
M  V30 4204 C 397.229 0.880465 4.15269 0
M  V30 4205 C 395.136 3.04024 5.0727 0
M  V30 4206 H 394.066 0.244278 0.713333 0
M  V30 4207 H 396.717 1.20157 1.38688 0
M  V30 4208 H 395.099 0.52485 3.92506 0
M  V30 4209 H 396.273 3.2957 3.22056 0
M  V30 4210 H 394.588 2.86543 3.02129 0
M  V30 4211 H 397.185 1.16128 5.21937 0
M  V30 4212 H 397.528 -0.183408 4.15896 0
M  V30 4213 H 398.061 1.45307 3.70312 0
M  V30 4214 H 394.8 4.09584 5.11782 0
M  V30 4215 H 394.32 2.42343 5.48662 0
M  V30 4216 H 395.999 2.95282 5.75689 0
M  V30 4217 N 396.131 -1.37776 0.765217 0
M  V30 4218 C 397.064 -2.28008 0.0935025 0
M  V30 4219 C 398.042 -1.45985 -0.716047 0
M  V30 4220 O 399.226 -1.75331 -0.692203 0
M  V30 4221 C 396.353 -3.27228 -0.874052 0
M  V30 4222 C 395.399 -4.26239 -0.149307 0
M  V30 4223 S 396.232 -5.22827 1.15809 0
M  V30 4224 C 397.388 -6.256 0.193906 0
M  V30 4225 H 397.621 -2.84631 0.858637 0
M  V30 4226 H 395.154 -1.43952 0.558313 0
M  V30 4227 H 397.112 -3.84902 -1.42691 0
M  V30 4228 H 395.773 -2.69565 -1.61225 0
M  V30 4229 H 394.966 -4.96213 -0.88254 0
M  V30 4230 H 394.568 -3.7252 0.332366 0
M  V30 4231 H 396.86 -6.74508 -0.636011 0
M  V30 4232 H 397.803 -7.02838 0.861638 0
M  V30 4233 H 398.211 -5.64173 -0.191975 0
M  V30 4234 N 397.609 -0.515225 -1.4894 0
M  V30 4235 C 399.025 -0.172099 -1.58669 0
M  V30 4236 C 399.225 1.32405 -1.51892 0
M  V30 4237 O 398.281 2.10116 -1.40027 0
M  V30 4238 C 399.594 -0.761533 -2.90897 0
M  V30 4239 C 401.142 -0.728926 -3.04394 0
M  V30 4240 C 401.617 -1.29667 -4.39261 0
M  V30 4241 N 403.108 -1.25799 -4.4579 0
M  V30 4242 C 403.843 -1.66733 -5.48623 0
M  V30 4243 N 403.339 -2.15327 -6.58488 0
M  V30 4244 N 405.132 -1.58061 -5.39419 0
M  V30 4245 H 397.283 -1.48778 -1.51588 0
M  V30 4246 H 399.546 -0.617968 -0.718901 0
M  V30 4247 H 399.252 -1.81136 -3.01468 0
M  V30 4248 H 399.126 -0.230106 -3.76497 0
M  V30 4249 H 401.513 0.312098 -2.93445 0
M  V30 4250 H 401.594 -1.29766 -2.20442 0
M  V30 4251 H 401.238 -2.33655 -4.50963 0
M  V30 4252 H 401.168 -0.703752 -5.21876 0
M  V30 4253 H 403.659 -0.902102 -3.66975 0
M  V30 4254 H 403.972 -2.44594 -7.33071 0
M  V30 4255 H 402.317 -2.19311 -6.59491 0
M  V30 4256 H 405.508 -1.19906 -4.52482 0
M  V30 4257 H 405.681 -1.90284 -6.19432 0
M  V30 4258 N 399.087 1.5561 -0.249682 0
M  V30 4259 C 400.503 1.59254 0.105103 0
M  V30 4260 C 400.703 1.26685 1.56694 0
M  V30 4261 O 399.759 1.0155 2.31179 0
M  V30 4262 C 401.072 2.99687 -0.246592 0
M  V30 4263 C 402.62 3.12416 -0.191118 0
M  V30 4264 C 403.095 4.55074 -0.516885 0
M  V30 4265 N 404.586 4.60835 -0.467489 0
M  V30 4266 C 405.321 5.69201 -0.69268 0
M  V30 4267 N 404.817 6.85817 -0.981146 0
M  V30 4268 N 406.61 5.58635 -0.623198 0
M  V30 4269 H 398.761 1.75049 -1.20298 0
M  V30 4270 H 401.024 0.815003 -0.484225 0
M  V30 4271 H 400.73 3.28267 -1.26228 0
M  V30 4272 H 400.604 3.74798 0.424962 0
M  V30 4273 H 402.991 2.83615 0.815247 0
M  V30 4274 H 403.072 2.39573 -0.896563 0
M  V30 4275 H 402.716 4.84596 -1.52082 0
M  V30 4276 H 402.646 5.26181 0.210068 0
M  V30 4277 H 405.137 3.7705 -0.253373 0
M  V30 4278 H 405.45 7.64341 -1.14032 0
M  V30 4279 H 403.795 6.87494 -1.01865 0
M  V30 4280 H 406.986 4.66406 -0.397863 0
M  V30 4281 H 407.159 6.43017 -0.802093 0
M  V30 4282 N 400.565 -0.0233959 1.57583 0
M  V30 4283 C 401.79 -0.728376 1.94189 0
M  V30 4284 C 402.215 -1.67793 0.850119 0
M  V30 4285 O 401.573 -1.80262 -0.19371 0
M  V30 4286 C 401.621 -1.45669 3.29868 0
M  V30 4287 O 400.725 -2.57013 3.22518 0
M  V30 4288 H 400.066 -0.195493 0.63457 0
M  V30 4289 H 402.596 0.0228214 2.04587 0
M  V30 4290 H 402.606 -1.82535 3.6489 0
M  V30 4291 H 401.281 -0.760314 4.08891 0
M  V30 4292 H 399.858 -2.22648 2.99136 0
M  V30 4293 N 402.043 -1.548 -0.295768 0
M  V30 4294 C 402.99 -1.86113 -1.36494 0
M  V30 4295 C 403.96 -0.7105 -1.50137 0
M  V30 4296 O 405.145 -0.959626 -1.64912 0
M  V30 4297 C 402.285 -2.11861 -2.72413 0
M  V30 4298 C 401.398 -3.39471 -2.67177 0
M  V30 4299 C 400.533 -3.55035 -3.95125 0
M  V30 4300 C 399.572 -4.76418 -3.84308 0
M  V30 4301 N 398.709 -4.8876 -5.04042 0
M  V30 4302 H 403.549 -2.77314 -1.09091 0
M  V30 4303 H 401.086 -1.37315 -0.52753 0
M  V30 4304 H 403.044 -2.24786 -3.51464 0
M  V30 4305 H 401.674 -1.2392 -2.98066 0
M  V30 4306 H 400.726 -3.35139 -1.79962 0
M  V30 4307 H 402.038 -4.28646 -2.55076 0
M  V30 4308 H 401.192 -3.67653 -4.82614 0
M  V30 4309 H 399.931 -2.64002 -4.10066 0
M  V30 4310 H 398.936 -4.63827 -2.95202 0
M  V30 4311 H 400.161 -5.68863 -3.70906 0
M  V30 4312 H 398.107 -4.00652 -5.19436 0
M  V30 4313 H 398.024 -5.71945 -4.94384 0
M  V30 4314 H 399.292 -5.0574 -5.93167 0
M  V30 4315 N 403.521 0.559213 -1.47345 0
M  V30 4316 C 404.769 1.31388 -1.53563 0
M  V30 4317 C 405.09 1.93985 -0.198678 0
M  V30 4318 O 404.36 1.79825 0.777167 0
M  V30 4319 H 402.94 0.487901 -0.565652 0
M  V30 4320 H 405.602 0.65315 -1.8363 0
M  V30 4321 H 404.698 2.10844 -2.30111 0
M  V30 4322 N 404.999 1.35443 0.805782 0
M  V30 4323 C 406.415 1.15499 1.10146 0
M  V30 4324 C 406.615 -0.0319975 2.01475 0
M  V30 4325 O 405.671 -0.70236 2.42535 0
M  V30 4326 C 406.984 2.45833 1.73166 0
M  V30 4327 C 408.532 2.52047 1.85583 0
M  V30 4328 C 409.007 3.82427 2.52019 0
M  V30 4329 N 410.498 3.83682 2.59504 0
M  V30 4330 C 411.233 4.81294 3.11679 0
M  V30 4331 N 410.729 5.89294 3.64287 0
M  V30 4332 N 412.522 4.6873 3.1024 0
M  V30 4333 H 404.673 2.11469 0.198678 0
M  V30 4334 H 406.936 0.93594 0.150731 0
M  V30 4335 H 406.642 3.32874 1.13526 0
M  V30 4336 H 406.516 2.6044 2.72857 0
M  V30 4337 H 408.903 1.65435 2.44367 0
M  V30 4338 H 408.984 2.41354 0.847455 0
M  V30 4339 H 408.628 4.69437 1.93885 0
M  V30 4340 H 408.558 3.90409 3.53395 0
M  V30 4341 H 411.049 3.05648 2.22234 0
M  V30 4342 H 411.362 6.59768 4.02401 0
M  V30 4343 H 409.707 5.92985 3.62483 0
M  V30 4344 H 412.898 3.83496 2.68419 0
M  V30 4345 H 413.071 5.44965 3.50596 0
M  V30 4346 N 406.477 -1.02803 1.19454 0
M  V30 4347 C 407.44 -2.09264 0.934955 0
M  V30 4348 C 408.44 -1.60576 -0.0849015 0
M  V30 4349 O 409.63 -1.73554 0.149933 0
M  V30 4350 C 406.762 -3.38482 0.40531 0
M  V30 4351 H 407.955 -2.33726 1.87916 0
M  V30 4352 H 405.508 -1.19426 1.00832 0
M  V30 4353 H 406.243 -3.19689 -0.544899 0
M  V30 4354 H 406.028 -3.75142 1.14065 0
M  V30 4355 H 407.518 -4.16894 0.242806 0
M  V30 4356 N 407.956 -0.998596 -1.21925 0
M  V30 4357 C 408.866 -0.562736 -2.27751 0
M  V30 4358 C 409.882 0.391203 -1.69545 0
M  V30 4359 O 411.058 0.256625 -1.99758 0
M  V30 4360 C 408.123 0.11012 -3.46525 0
M  V30 4361 C 407.184 -0.887495 -4.20026 0
M  V30 4362 C 406.417 -0.246654 -5.3313 0
M  V30 4363 O 406.64 0.958088 -5.62296 0
M  V30 4364 O 405.574 -0.954374 -5.94286 0
M  V30 4365 H 409.4 -1.44329 -2.67213 0
M  V30 4366 H 406.985 -0.767135 -1.28201 0
M  V30 4367 H 408.867 0.486756 -4.18579 0
M  V30 4368 H 407.542 0.965154 -3.08976 0
M  V30 4369 H 406.449 -1.31517 -3.5022 0
M  V30 4370 H 407.782 -1.71191 -4.6147 0
M  V30 4371 N 409.434 1.37368 -0.772513 0
M  V30 4372 C 410.381 2.30262 -0.157488 0
M  V30 4373 C 411.351 1.51137 0.688965 0
M  V30 4374 O 412.536 1.79704 0.641168 0
M  V30 4375 C 409.676 3.37611 0.715045 0
M  V30 4376 C 408.789 4.31746 -0.148098 0
M  V30 4377 C 407.924 5.26171 0.729213 0
M  V30 4378 C 406.963 6.11948 -0.136418 0
M  V30 4379 N 406.1 6.98613 0.698914 0
M  V30 4380 H 410.94 2.82277 -0.955179 0
M  V30 4381 H 408.477 1.38957 -0.482631 0
M  V30 4382 H 410.435 3.98479 1.23575 0
M  V30 4383 H 409.065 2.86959 1.47833 0
M  V30 4384 H 408.117 3.72178 -0.786613 0
M  V30 4385 H 409.429 4.92084 -0.81579 0
M  V30 4386 H 408.583 5.92247 1.31637 0
M  V30 4387 H 407.322 4.66246 1.43059 0
M  V30 4388 H 406.327 5.4485 -0.736102 0
M  V30 4389 H 407.552 6.73945 -0.835134 0
M  V30 4390 H 405.498 6.41215 1.38489 0
M  V30 4391 H 405.415 7.55948 0.0885358 0
M  V30 4392 H 406.683 7.69077 1.27044 0
M  V30 4393 N 410.912 0.523116 1.48665 0
M  V30 4394 C 412.137 -0.0117284 2.07397 0
M  V30 4395 C 412.562 -1.28031 1.37803 0
M  V30 4396 O 411.92 -1.75836 0.441762 0
M  V30 4397 C 411.968 -0.225786 3.59892 0
M  V30 4398 O 411.072 -1.29592 3.91509 0
M  V30 4399 H 410.413 0.0360673 0.66302 0
M  V30 4400 H 412.943 0.729066 1.9117 0
M  V30 4401 H 412.953 -0.450552 4.05505 0
M  V30 4402 H 411.628 0.700944 4.09951 0
M  V30 4403 H 410.205 -1.05436 3.57684 0
M  V30 4404 O 412.429 -1.56474 0.399779 0
M  V30 4405 H 413.12 -1.93172 -0.142934 0
M  V30 END ATOM
M  V30 BEGIN BOND
M  V30 END BOND
M  V30 END CTAB
M  END
$$$$
