drugbank_target|P30920 Cyclomaltodextrin glucanotransferase (DB01719; DB01789; DB01841; DB01909; DB02120; DB02379; DB02394; DB02469; DB02670; DB03198; DB03323; DB03773)
 OpenBabel12092119503D

  0  0  0     0  0            999 V3000
M  V30 BEGIN CTAB
M  V30 COUNTS 10791 10928 0 0 0
M  V30 BEGIN ATOM
M  V30 1 H -0.908 1.98254 -0.117106 0
M  V30 2 N 0 1.576 0 0
M  V30 3 C 0.933 2.03868 1.02534 0
M  V30 4 C 1.911 0.928543 1.3348 0
M  V30 5 O 3.095 1.19667 1.45644 0
M  V30 6 C 0.222 2.43627 2.35294 0
M  V30 7 C -0.732 3.65373 2.2001 0
M  V30 8 S 0.101 5.13292 1.52614 0
M  V30 9 C 1.257 5.56322 2.86805 0
M  V30 10 H 1.49 2.90518 0.631377 0
M  V30 11 H -0.977 1.52953 0.210867 0
M  V30 12 H 0.981 2.67203 3.11629 0
M  V30 13 H -0.358 1.57376 2.7183 0
M  V30 14 H -1.165 3.90944 3.18086 0
M  V30 15 H -1.563 3.418 1.51819 0
M  V30 16 H 0.729 5.58782 3.83104 0
M  V30 17 H 1.672 6.56266 2.65933 0
M  V30 18 H 2.08 4.83886 2.90714 0
M  V30 19 N 1.4781 -0.272755 1.55222 0
M  V30 20 C 2.7251 -1.00433 1.7584 0
M  V30 21 C 3.0531 -1.86275 0.559629 0
M  V30 22 O 2.3081 -1.90269 -0.457857 0
M  V30 23 C 2.6071 -1.91642 3.01675 0
M  V30 24 C 2.2731 -1.21548 4.34208 0
M  V30 25 C 0.9351 -1.02166 4.70229 0
M  V30 26 C 3.2871 -0.716684 5.16249 0
M  V30 27 C 0.6151 -0.316334 5.85847 0
M  V30 28 C 2.9671 -0.0249476 6.32595 0
M  V30 29 C 1.6311 0.180579 6.67256 0
M  V30 30 H 0.9011 -0.367509 0.643443 0
M  V30 31 H 3.5481 -0.276596 1.89492 0
M  V30 32 H 1.8531 -2.71037 2.82924 0
M  V30 33 H 3.5501 -2.48369 3.14824 0
M  V30 34 H 0.1401 -1.37645 4.05896 0
M  V30 35 H 4.3241 -0.854047 4.88896 0
M  V30 36 H -0.4199 -0.146378 6.11225 0
M  V30 37 H 3.7541 0.369311 6.9542 0
M  V30 38 H 1.3811 0.729098 7.56696 0
M  V30 39 N 2.9562 -1.48159 -0.537278 0
M  V30 40 C 3.8882 -1.58218 -1.65831 0
M  V30 41 C 4.9012 -0.466948 -1.5596 0
M  V30 42 O 6.0902 -0.73747 -1.62553 0
M  V30 43 C 3.1902 -1.48906 -3.04434 0
M  V30 44 C 2.3632 -2.75343 -3.3986 0
M  V30 45 C 1.4222 -2.59588 -4.57712 0
M  V30 46 O 0.4482 -3.33457 -4.61297 0
M  V30 47 N 1.6502 -1.68724 -5.55439 0
M  V30 48 H 4.4152 -2.54891 -1.57641 0
M  V30 49 H 1.9762 -1.4479 -0.724386 0
M  V30 50 H 3.9682 -1.36072 -3.81139 0
M  V30 51 H 2.5382 -0.602368 -3.06741 0
M  V30 52 H 1.7582 -3.02795 -2.52406 0
M  V30 53 H 3.0462 -3.5924 -3.60311 0
M  V30 54 H 2.4442 -1.07898 -5.55315 0
M  V30 55 H 1.0012 -1.61832 -6.3139 0
M  V30 56 N 4.4343 0.785586 -1.36625 0
M  V30 57 C 5.3673 1.90509 -1.25625 0
M  V30 58 C 6.3453 1.62 -0.139607 0
M  V30 59 O 7.5293 1.8591 -0.31141 0
M  V30 60 C 4.6563 3.25419 -0.939158 0
M  V30 61 C 3.7023 3.72856 -2.07077 0
M  V30 62 S 4.5353 3.88162 -3.68904 0
M  V30 63 C 5.6913 5.25942 -3.39317 0
M  V30 64 H 5.9243 1.99549 -2.20381 0
M  V30 65 H 3.4573 0.945226 -1.22085 0
M  V30 66 H 5.4153 4.03346 -0.763029 0
M  V30 67 H 4.0763 3.14099 -0.00931402 0
M  V30 68 H 3.2693 4.70624 -1.80357 0
M  V30 69 H 2.8713 3.01989 -2.20632 0
M  V30 70 H 5.1633 6.10651 -2.93447 0
M  V30 71 H 6.1063 5.57668 -4.36363 0
M  V30 72 H 6.5143 4.93224 -2.74573 0
M  V30 73 N 5.9124 1.20967 1.01018 0
M  V30 74 C 6.8754 0.965918 2.07853 0
M  V30 75 C 7.8754 -0.0610545 1.60684 0
M  V30 76 O 9.0654 0.175681 1.73312 0
M  V30 77 C 6.1974 0.455513 3.37843 0
M  V30 78 H 7.3904 1.91365 2.3091 0
M  V30 79 H 4.9434 1.02594 1.17916 0
M  V30 80 H 5.6784 -0.497381 3.20463 0
M  V30 81 H 5.4634 1.19622 3.73407 0
M  V30 82 H 6.9534 0.304667 4.16487 0
M  V30 83 N 7.3905 -1.2043 1.01659 0
M  V30 84 C 8.3375 -2.23215 0.586822 0
M  V30 85 C 9.3075 -1.61382 -0.393085 0
M  V30 86 O 10.4925 -1.88544 -0.292525 0
M  V30 87 C 7.6325 -3.45032 -0.0687464 0
M  V30 88 C 6.7455 -4.21296 0.955724 0
M  V30 89 C 5.8805 -5.30507 0.271208 0
M  V30 90 C 4.9195 -5.98515 1.28244 0
M  V30 91 N 4.0565 -6.99316 0.62459 0
M  V30 92 H 8.8965 -2.59336 1.46796 0
M  V30 93 H 6.4335 -1.27431 0.734836 0
M  V30 94 H 8.3915 -4.1459 -0.465965 0
M  V30 95 H 7.0215 -3.09604 -0.913529 0
M  V30 96 H 6.0735 -3.50803 1.4711 0
M  V30 97 H 7.3855 -4.6803 1.72479 0
M  V30 98 H 6.5395 -6.06428 -0.18151 0
M  V30 99 H 5.2785 -4.8481 -0.530163 0
M  V30 100 H 4.2835 -5.21355 1.74554 0
M  V30 101 H 5.5085 -6.46298 2.08509 0
M  V30 102 H 3.4545 -6.55812 -0.156914 0
M  V30 103 H 3.3715 -7.44178 1.33172 0
M  V30 104 H 4.6395 -7.79255 0.195462 0
M  V30 105 N 8.8686 -0.792821 -1.36206 0
M  V30 106 C 10.2846 -0.474903 -1.52371 0
M  V30 107 C 10.4846 1.00622 -1.74578 0
M  V30 108 O 9.5406 1.79162 -1.77924 0
M  V30 109 C 10.8536 -1.3083 -2.70747 0
M  V30 110 C 12.4016 -1.30234 -2.84619 0
M  V30 111 C 12.8766 -2.11956 -4.06004 0
M  V30 112 N 14.3676 -2.09419 -4.13156 0
M  V30 113 C 15.1026 -2.69419 -5.06163 0
M  V30 114 N 14.5986 -3.3829 -6.04592 0
M  V30 115 N 16.3916 -2.59134 -4.98804 0
M  V30 116 H 8.5426 -1.75222 -1.20046 0
M  V30 117 H 10.8056 -0.745024 -0.586211 0
M  V30 118 H 10.5116 -2.35881 -2.6087 0
M  V30 119 H 10.3856 -0.95196 -3.6499 0
M  V30 120 H 12.7726 -0.259748 -2.93955 0
M  V30 121 H 12.8536 -1.69847 -1.91274 0
M  V30 122 H 12.4976 -3.16248 -3.97429 0
M  V30 123 H 12.4276 -1.69711 -4.98503 0
M  V30 124 H 14.9186 -1.59297 -3.42685 0
M  V30 125 H 15.2316 -3.81394 -6.7213 0
M  V30 126 H 13.5766 -3.42393 -6.04807 0
M  V30 127 H 16.7676 -2.04927 -4.20859 0
M  V30 128 H 16.9406 -3.06185 -5.711 0
M  V30 129 N 10.3467 1.47872 -0.545128 0
M  V30 130 C 11.3097 2.28337 0.198717 0
M  V30 131 C 12.3097 1.36255 0.853888 0
M  V30 132 O 13.4997 1.59003 0.711606 0
M  V30 133 C 10.6317 3.15585 1.28915 0
M  V30 134 H 11.8247 2.95567 -0.507941 0
M  V30 135 H 9.3777 1.53362 -0.301616 0
M  V30 136 H 10.1127 2.53019 2.02859 0
M  V30 137 H 9.8977 3.83337 0.824309 0
M  V30 138 H 11.3877 3.76243 1.81194 0
M  V30 139 N 11.8248 0.280983 1.55075 0
M  V30 140 C 13.0718 -0.334115 1.99725 0
M  V30 141 C 13.3998 -1.5542 1.1694 0
M  V30 142 O 12.6548 -1.94361 0.228531 0
M  V30 143 C 12.9538 -0.754656 3.49342 0
M  V30 144 C 12.6198 0.361445 4.49449 0
M  V30 145 C 11.2818 0.667893 4.76542 0
M  V30 146 C 13.6338 1.11322 5.09173 0
M  V30 147 C 10.9618 1.7296 5.60626 0
M  V30 148 C 13.3138 2.1647 5.9441 0
M  V30 149 C 11.9778 2.47742 6.19822 0
M  V30 150 H 11.2478 -0.122261 0.730844 0
M  V30 151 H 13.8948 0.395917 1.87363 0
M  V30 152 H 12.1998 -1.56446 3.5921 0
M  V30 153 H 13.8968 -1.24142 3.813 0
M  V30 154 H 10.4868 0.112481 4.28452 0
M  V30 155 H 14.6708 0.88973 4.8826 0
M  V30 156 H 9.9268 1.97684 5.78559 0
M  V30 157 H 14.1008 2.75193 6.3972 0
M  V30 158 H 11.7278 3.30145 6.84769 0
M  V30 159 N 13.3029 -1.57598 0.00835791 0
M  V30 160 C 14.2329 -2.1198 -0.979113 0
M  V30 161 C 15.2139 -1.03091 -1.35301 0
M  V30 162 O 16.3989 -1.30818 -1.43528 0
M  V30 163 C 13.5289 -2.62995 -2.26828 0
M  V30 164 C 12.4829 -3.76485 -2.03576 0
M  V30 165 C 11.8089 -4.13846 -3.38579 0
M  V30 166 C 13.1089 -5.0342 -1.39161 0
M  V30 167 H 14.8029 -2.94738 -0.526281 0
M  V30 168 H 12.3489 -1.41783 -0.251704 0
M  V30 169 H 14.3019 -2.99669 -2.96271 0
M  V30 170 H 13.0259 -1.7737 -2.7424 0
M  V30 171 H 11.6849 -3.40217 -1.36557 0
M  V30 172 H 11.3329 -3.25232 -3.83709 0
M  V30 173 H 11.0329 -4.90312 -3.23834 0
M  V30 174 H 12.5569 -4.53086 -4.09323 0
M  V30 175 H 13.9709 -5.37812 -1.98573 0
M  V30 176 H 12.3679 -5.84746 -1.34878 0
M  V30 177 H 13.4379 -4.83548 -0.361868 0
M  V30 178 N 14.781 0.264519 -1.55364 0
M  V30 179 C 16.006 1.01726 -1.80739 0
M  V30 180 C 16.431 1.78836 -0.583044 0
M  V30 181 O 15.789 1.75167 0.467566 0
M  V30 182 C 15.837 1.94482 -3.03659 0
M  V30 183 O 14.941 3.03386 -2.7934 0
M  V30 184 H 14.282 0.290395 -0.597132 0
M  V30 185 H 16.812 0.290854 -2.02522 0
M  V30 186 H 16.822 2.36278 -3.32621 0
M  V30 187 H 15.497 1.37772 -3.92418 0
M  V30 188 H 14.074 2.65844 -2.61498 0
M  V30 189 N 16.2591 1.48442 0.529413 0
M  V30 190 C 17.4871 1.60151 1.30994 0
M  V30 191 C 17.9021 0.261985 1.86973 0
M  V30 192 O 17.2591 -0.748805 1.66431 0
M  V30 193 C 17.3101 2.64854 2.46038 0
M  V30 194 O 17.0311 3.93608 1.92365 0
M  V30 195 C 18.5321 2.87007 3.37849 0
M  V30 196 H 15.7521 0.539971 0.398338 0
M  V30 197 H 18.2961 1.94273 0.638597 0
M  V30 198 H 16.4511 2.33589 3.09055 0
M  V30 199 H 16.8651 4.51055 2.67675 0
M  V30 200 H 18.3391 3.64068 4.14919 0
M  V30 201 H 18.8161 1.95852 3.93114 0
M  V30 202 H 19.4221 3.19579 2.80623 0
M  V30 203 N 17.7372 -0.778329 1.37039 0
M  V30 204 C 18.9652 -1.56734 1.35063 0
M  V30 205 C 19.3802 -1.88686 -0.0655597 0
M  V30 206 O 18.7372 -1.5096 -1.02554 0
M  V30 207 C 18.7882 -2.88163 2.18276 0
M  V30 208 O 18.5092 -2.57583 3.54376 0
M  V30 209 C 20.0102 -3.82422 2.24206 0
M  V30 210 H 17.2302 -0.485778 0.462883 0
M  V30 211 H 19.7742 -0.965185 1.8029 0
M  V30 212 H 17.9292 -3.44818 1.76576 0
M  V30 213 H 18.3432 -3.41699 3.97922 0
M  V30 214 H 19.8172 -4.71667 2.86765 0
M  V30 215 H 20.2942 -4.21078 1.24861 0
M  V30 216 H 20.9002 -3.31697 2.6619 0
M  V30 217 N 19.2153 -1.21501 -1.00376 0
M  V30 218 C 20.1453 -0.999478 -2.11028 0
M  V30 219 C 21.1263 0.0759671 -1.6993 0
M  V30 220 O 22.3113 -0.0841106 -1.94018 0
M  V30 221 C 19.4413 -0.564709 -3.42678 0
M  V30 222 C 18.3953 -1.58486 -3.97576 0
M  V30 223 C 17.7213 -1.00628 -5.25146 0
M  V30 224 C 19.0213 -2.97204 -4.29496 0
M  V30 225 H 20.7153 -1.92495 -2.29317 0
M  V30 226 H 18.2613 -0.92693 -1.102 0
M  V30 227 H 20.2143 -0.401091 -4.19487 0
M  V30 228 H 18.9383 0.396411 -3.24185 0
M  V30 229 H 17.5973 -1.73606 -3.22888 0
M  V30 230 H 17.2453 -0.0368439 -5.02987 0
M  V30 231 H 16.9453 -1.68771 -5.62841 0
M  V30 232 H 18.4693 -0.854015 -6.04598 0
M  V30 233 H 19.8833 -2.8552 -4.97143 0
M  V30 234 H 18.2803 -3.62372 -4.78338 0
M  V30 235 H 19.3503 -3.47956 -3.3772 0
M  V30 236 N 20.6934 1.19889 -1.02296 0
M  V30 237 C 21.9214 1.9339 -0.735399 0
M  V30 238 C 22.3364 1.75148 0.704887 0
M  V30 239 O 21.6934 1.06954 1.47875 0
M  V30 240 C 21.7444 3.45313 -1.06962 0
M  V30 241 O 21.4654 3.62964 -2.45334 0
M  V30 242 C 22.9664 4.35948 -0.804021 0
M  V30 243 H 20.1864 0.61448 -0.269546 0
M  V30 244 H 22.7304 1.522 -1.36585 0
M  V30 245 H 20.8854 3.84359 -0.484455 0
M  V30 246 H 21.2994 4.56886 -2.57595 0
M  V30 247 H 22.7734 5.41174 -1.0879 0
M  V30 248 H 23.2504 4.3842 0.261691 0
M  V30 249 H 23.8564 4.02574 -1.37164 0
M  V30 250 N 22.1715 0.800033 1.35784 0
M  V30 251 C 23.1015 0.220184 2.3246 0
M  V30 252 C 24.0825 -0.65073 1.57161 0
M  V30 253 O 25.2675 -0.582359 1.85263 0
M  V30 254 C 22.3975 -0.637353 3.41402 0
M  V30 255 C 21.3515 0.134531 4.27789 0
M  V30 256 C 20.6775 -0.844285 5.27992 0
M  V30 257 C 21.9775 1.32979 5.05088 0
M  V30 258 H 23.6715 1.02787 2.81203 0
M  V30 259 H 21.2175 0.495717 1.35199 0
M  V30 260 H 23.1705 -1.05302 4.08031 0
M  V30 261 H 21.8945 -1.47785 2.91251 0
M  V30 262 H 20.5535 0.531296 3.6273 0
M  V30 263 H 20.2015 -1.68011 4.74111 0
M  V30 264 H 19.9015 -0.332184 5.8666 0
M  V30 265 H 21.4255 -1.2583 5.97494 0
M  V30 266 H 22.8395 0.98934 5.64699 0
M  V30 267 H 21.2365 1.77593 5.7322 0
M  V30 268 H 22.3065 2.11978 4.36111 0
M  V30 269 N 23.6496 -1.47581 0.552962 0
M  V30 270 C 24.8976 -2.02082 0.0272703 0
M  V30 271 C 25.2186 -1.4301 -1.32563 0
M  V30 272 O 24.4886 -0.603745 -1.86365 0
M  V30 273 H 23.0686 -0.746966 0.00709182 0
M  V30 274 H 25.7306 -1.81033 0.722008 0
M  V30 275 H 24.8266 -3.12034 -0.0639951 0
M  V30 276 N 25.1277 -0.289203 -1.54924 0
M  V30 277 C 26.0577 0.58549 -2.2604 0
M  V30 278 C 27.0387 1.14753 -1.25562 0
M  V30 279 O 28.2237 1.17906 -1.54311 0
M  V30 280 C 25.3537 1.76305 -2.99222 0
M  V30 281 C 24.3077 1.33191 -4.06748 0
M  V30 282 C 23.6337 2.5937 -4.6758 0
M  V30 283 C 24.9337 0.471775 -5.20165 0
M  V30 284 H 26.6277 -0.00763532 -2.99399 0
M  V30 285 H 24.1737 -0.00511229 -1.43999 0
M  V30 286 H 26.1267 2.38097 -3.47689 0
M  V30 287 H 24.8507 2.38223 -2.23422 0
M  V30 288 H 23.5097 0.737121 -3.59113 0
M  V30 289 H 23.1577 3.19576 -3.88433 0
M  V30 290 H 22.8577 2.31228 -5.40192 0
M  V30 291 H 24.3817 3.21985 -5.18804 0
M  V30 292 H 25.7957 0.995056 -5.64599 0
M  V30 293 H 24.1927 0.284639 -5.99425 0
M  V30 294 H 25.2627 -0.506041 -4.82252 0
M  V30 295 N 26.6058 1.57591 -0.0167156 0
M  V30 296 C 27.5358 2.12496 0.967858 0
M  V30 297 C 28.5168 1.03807 1.34752 0
M  V30 298 O 29.7018 1.31577 1.42833 0
M  V30 299 C 26.8318 2.64194 2.25431 0
M  V30 300 C 25.7858 3.77559 2.01576 0
M  V30 301 C 25.1118 4.15636 3.36379 0
M  V30 302 C 26.4118 5.04151 1.36489 0
M  V30 303 H 28.1058 2.95013 0.510643 0
M  V30 304 H 25.6518 1.41915 0.244181 0
M  V30 305 H 27.6048 3.01236 2.94678 0
M  V30 306 H 26.3288 1.78821 2.73296 0
M  V30 307 H 24.9878 3.40937 1.34751 0
M  V30 308 H 24.6358 3.27263 3.81979 0
M  V30 309 H 24.3358 4.92022 3.21229 0
M  V30 310 H 25.8598 4.5525 4.06915 0
M  V30 311 H 27.2738 5.38857 1.95718 0
M  V30 312 H 25.6708 5.85453 1.31776 0
M  V30 313 H 26.7408 4.83733 0.336219 0
M  V30 314 N 28.0839 -0.256276 1.55502 0
M  V30 315 C 29.0469 -1.30047 1.88734 0
M  V30 316 C 30.0469 -1.4154 0.763086 0
M  V30 317 O 31.2369 -1.40403 1.03115 0
M  V30 318 C 28.3689 -2.67953 2.10747 0
M  V30 319 H 29.5619 -1.01802 2.82093 0
M  V30 320 H 27.1149 -0.495134 1.4825 0
M  V30 321 H 27.8499 -3.01351 1.19825 0
M  V30 322 H 27.6349 -2.60993 2.92617 0
M  V30 323 H 29.1249 -3.43368 2.37673 0
M  V30 324 N 29.562 -1.4872 -0.521534 0
M  V30 325 C 30.81 -1.56857 -1.27437 0
M  V30 326 C 31.131 -0.247982 -1.93417 0
M  V30 327 O 30.401 0.731151 -1.81744 0
M  V30 328 H 28.981 -0.577885 -0.473347 0
M  V30 329 H 31.643 -1.85233 -0.606205 0
M  V30 330 H 30.739 -2.35402 -2.0492 0
M  V30 331 N 31.0401 0.771051 -1.3745 0
M  V30 332 C 32.2651 1.56529 -1.36065 0
M  V30 333 C 32.6901 1.88029 0.0515859 0
M  V30 334 O 32.0481 1.49282 1.02882 0
M  V30 335 C 32.0961 2.85187 -2.20683 0
M  V30 336 O 31.2001 3.79593 -1.61193 0
M  V30 337 H 30.5411 0.47411 -0.464883 0
M  V30 338 H 33.0711 0.954269 -1.80983 0
M  V30 339 H 33.0811 3.34283 -2.33921 0
M  V30 340 H 31.7561 2.61588 -3.23334 0
M  V30 341 H 30.3331 3.38239 -1.56999 0
M  V30 342 N 32.5182 1.22032 0.997298 0
M  V30 343 C 33.4812 0.987909 2.06816 0
M  V30 344 C 34.4812 -0.0440084 1.6074 0
M  V30 345 O 35.6712 0.194053 1.73116 0
M  V30 346 C 32.8032 0.49132 3.37341 0
M  V30 347 H 33.9962 1.93803 2.28868 0
M  V30 348 H 31.5492 1.03838 1.16822 0
M  V30 349 H 32.2842 -0.463364 3.20973 0
M  V30 350 H 32.0692 1.23575 3.72118 0
M  V30 351 H 33.5592 0.348824 4.16141 0
M  V30 352 N 33.9963 -1.19345 1.0293 0
M  V30 353 C 34.9263 -2.2481 0.631105 0
M  V30 354 C 35.9073 -1.66245 -0.360104 0
M  V30 355 O 37.0923 -1.92677 -0.242726 0
M  V30 356 C 34.2223 -3.47295 -0.0184607 0
M  V30 357 C 33.1763 -4.18536 0.895073 0
M  V30 358 C 32.5023 -5.34586 0.110592 0
M  V30 359 C 33.8023 -4.73287 2.209 0
M  V30 360 H 35.4963 -2.58372 1.51275 0
M  V30 361 H 33.0423 -1.24194 0.728818 0
M  V30 362 H 34.9953 -4.20268 -0.308675 0
M  V30 363 H 33.7193 -3.12933 -0.934907 0
M  V30 364 H 32.3783 -3.47446 1.16949 0
M  V30 365 H 32.0263 -4.96469 -0.807902 0
M  V30 366 H 31.7263 -5.83183 0.719087 0
M  V30 367 H 33.2503 -6.10355 -0.172871 0
M  V30 368 H 34.6643 -5.38013 1.98028 0
M  V30 369 H 33.0613 -5.32373 2.76946 0
M  V30 370 H 34.1313 -3.91331 2.86336 0
M  V30 371 N 35.4744 -0.807222 -1.35358 0
M  V30 372 C 36.8854 -0.44876 -1.81226 0
M  V30 373 C 37.2364 1.02929 -1.67033 0
M  V30 374 O 36.3614 1.79991 -1.20133 0
M  V30 375 C 36.9564 -0.807774 -3.2903 0
M  V30 376 C 35.5154 -0.501901 -3.73039 0
M  V30 377 C 34.6624 -1.03304 -2.57339 0
M  V30 378 H 37.6134 -0.998808 -1.23327 0
M  V30 379 H 37.6344 -0.10554 -3.80354 0
M  V30 380 H 37.1464 -1.88357 -3.39328 0
M  V30 381 H 35.2474 0.565128 -3.68289 0
M  V30 382 H 35.3604 -1.03497 -4.67787 0
M  V30 383 H 33.7244 -0.455339 -2.50597 0
M  V30 384 H 34.5074 -2.11496 -2.70415 0
M  V30 385 N 36.9525 1.47285 -0.560781 0
M  V30 386 C 38.1995 2.02464 -0.038062 0
M  V30 387 C 38.5275 1.43474 1.31322 0
M  V30 388 O 37.7825 0.581311 1.86867 0
M  V30 389 C 38.0815 3.57258 0.100784 0
M  V30 390 C 37.7475 4.35184 -1.18007 0
M  V30 391 C 36.4095 4.56194 -1.53103 0
M  V30 392 C 38.7615 4.80098 -2.02867 0
M  V30 393 C 36.0895 5.19367 -2.729 0
M  V30 394 C 38.4415 5.44593 -3.21871 0
M  V30 395 C 37.1055 5.63835 -3.57276 0
M  V30 396 H 36.3755 0.740869 -0.0139279 0
M  V30 397 H 39.0225 1.76916 -0.733012 0
M  V30 398 H 37.3275 3.81819 0.878724 0
M  V30 399 H 39.0245 3.97606 0.520639 0
M  V30 400 H 35.6145 4.19113 -0.8968 0
M  V30 401 H 39.7985 4.63642 -1.7706 0
M  V30 402 H 35.0545 5.32459 -3.00496 0
M  V30 403 H 39.2285 5.78358 -3.87911 0
M  V30 404 H 36.8555 6.12557 -4.50197 0
M  V30 405 N 38.4306 0.297415 1.54768 0
M  V30 406 C 39.3606 -0.573494 2.26348 0
M  V30 407 C 40.3416 -1.14085 1.26169 0
M  V30 408 O 41.5266 -1.17086 1.54934 0
M  V30 409 C 38.6566 -1.74716 3.00153 0
M  V30 410 C 37.6106 -1.31032 4.07449 0
M  V30 411 C 36.9366 -2.56887 4.68949 0
M  V30 412 C 38.2366 -0.444183 5.20408 0
M  V30 413 H 39.9306 0.0235131 2.99391 0
M  V30 414 H 37.4766 0.0127488 1.43994 0
M  V30 415 H 39.4296 -2.3625 3.48947 0
M  V30 416 H 38.1536 -2.37035 2.24682 0
M  V30 417 H 36.8126 -0.718066 3.59499 0
M  V30 418 H 36.4606 -3.17512 3.90122 0
M  V30 419 H 36.1606 -2.2836 5.41411 0
M  V30 420 H 37.6846 -3.19229 5.20505 0
M  V30 421 H 39.0986 -0.9651 5.65118 0
M  V30 422 H 37.4956 -0.252846 5.99567 0
M  V30 423 H 38.5656 0.531609 4.81977 0
M  V30 424 N 39.9087 -1.5758 0.0250728 0
M  V30 425 C 41.3197 -1.79476 -0.514323 0
M  V30 426 C 41.6707 -0.934956 -1.72491 0
M  V30 427 O 40.7957 -0.144245 -2.15919 0
M  V30 428 C 41.3907 -3.25503 -0.939842 0
M  V30 429 C 39.9497 -3.48408 -1.42438 0
M  V30 430 C 39.0967 -2.74583 -0.387201 0
M  V30 431 H 42.0477 -1.567 0.25113 0
M  V30 432 H 42.0687 -3.34992 -1.80445 0
M  V30 433 H 41.5807 -3.88056 -0.0585628 0
M  V30 434 H 39.6817 -2.91103 -2.32572 0
M  V30 435 H 39.7947 -4.57119 -1.43455 0
M  V30 436 H 38.1587 -2.39942 -0.854409 0
M  V30 437 H 38.9417 -3.39849 0.485543 0
M  V30 438 N 41.3868 0.248026 -1.55636 0
M  V30 439 C 42.3498 1.29044 -1.89421 0
M  V30 440 C 43.3498 1.41134 -0.770581 0
M  V30 441 O 44.5398 1.39854 -1.03858 0
M  V30 442 C 41.6718 2.66831 -2.12165 0
M  V30 443 H 42.8648 1.00305 -2.82629 0
M  V30 444 H 40.4178 0.487265 -1.48511 0
M  V30 445 H 41.1528 3.00711 -1.21422 0
M  V30 446 H 40.9378 2.59438 -2.93997 0
M  V30 447 H 42.4278 3.42103 -2.3949 0
M  V30 448 N 42.8649 1.48995 0.513639 0
M  V30 449 C 44.0899 1.61792 1.29762 0
M  V30 450 C 44.5149 0.284475 1.85936 0
M  V30 451 O 43.8729 -0.746185 1.65232 0
M  V30 452 C 43.9209 2.67993 2.41272 0
M  V30 453 O 43.0249 2.26287 3.44772 0
M  V30 454 H 42.3659 0.541963 0.38363 0
M  V30 455 H 44.8959 1.95097 0.616307 0
M  V30 456 H 44.9059 2.89772 2.87221 0
M  V30 457 H 43.5809 3.64791 1.9975 0
M  V30 458 H 42.1579 2.14788 3.04829 0
M  V30 459 N 44.343 -0.763751 1.37857 0
M  V30 460 C 45.306 -1.85889 1.34081 0
M  V30 461 C 46.306 -1.58949 0.243277 0
M  V30 462 O 47.496 -1.66882 0.499589 0
M  V30 463 C 44.628 -3.23176 1.08489 0
M  V30 464 H 45.821 -1.90648 2.31502 0
M  V30 465 H 43.374 -0.964367 1.23003 0
M  V30 466 H 44.109 -3.24091 0.116318 0
M  V30 467 H 43.894 -3.44124 1.8794 0
M  V30 468 H 45.384 -4.03254 1.08517 0
M  V30 469 N 45.8211 -1.22559 -0.990812 0
M  V30 470 C 47.0671 -1.05297 -1.73322 0
M  V30 471 C 47.4001 0.410655 -1.89808 0
M  V30 472 O 46.6751 1.30439 -1.44277 0
M  V30 473 C 46.9581 -1.76713 -3.13759 0
M  V30 474 C 46.8111 -3.30684 -3.04907 0
M  V30 475 C 48.1301 -1.52121 -4.12974 0
M  V30 476 H 45.2491 -0.38392 -0.629106 0
M  V30 477 H 47.8911 -1.50926 -1.15418 0
M  V30 478 H 46.0411 -1.37924 -3.63193 0
M  V30 479 H 47.7131 -3.7893 -2.63077 0
M  V30 480 H 45.9561 -3.60253 -2.41661 0
M  V30 481 H 46.6271 -3.75833 -4.04294 0
M  V30 482 H 49.1031 -1.85819 -3.72304 0
M  V30 483 H 47.9791 -2.04582 -5.0935 0
M  V30 484 H 48.2401 -0.454257 -4.3976 0
M  V30 485 N 47.2992 1.18797 -1.03562 0
M  V30 486 C 48.5292 1.92319 -0.754773 0
M  V30 487 C 48.9372 1.7612 0.691248 0
M  V30 488 O 48.2802 1.08491 1.48241 0
M  V30 489 C 48.3422 3.44284 -1.03484 0
M  V30 490 C 48.0062 3.84258 -2.47376 0
M  V30 491 C 49.0032 3.88459 -3.45537 0
M  V30 492 C 46.6882 4.15701 -2.81954 0
M  V30 493 C 48.6822 4.23545 -4.76328 0
M  V30 494 C 46.3692 4.50458 -4.12954 0
M  V30 495 C 47.3672 4.54356 -5.09951 0
M  V30 496 O 47.0552 4.88305 -6.38603 0
M  V30 497 H 46.7872 0.617527 -0.275021 0
M  V30 498 H 49.3412 1.51683 -1.38497 0
M  V30 499 H 47.5712 3.85135 -0.347513 0
M  V30 500 H 49.2602 3.99049 -0.7426 0
M  V30 501 H 50.0262 3.6431 -3.20162 0
M  V30 502 H 45.9052 4.11847 -2.0713 0
M  V30 503 H 49.4492 4.26502 -5.52035 0
M  V30 504 H 45.3462 4.74067 -4.38099 0
M  V30 505 H 46.1142 5.06227 -6.43177 0
M  V30 506 N 48.7773 0.814389 1.34928 0
M  V30 507 C 49.7403 0.235759 2.27984 0
M  V30 508 C 50.7403 -0.581412 1.49921 0
M  V30 509 O 51.9303 -0.398758 1.69575 0
M  V30 510 C 49.0623 -0.670433 3.34242 0
M  V30 511 H 50.2553 1.05659 2.80671 0
M  V30 512 H 47.8083 0.585614 1.44915 0
M  V30 513 H 48.5433 -1.51466 2.86755 0
M  V30 514 H 48.3283 -0.0860822 3.92005 0
M  V30 515 H 49.8183 -1.06935 4.03676 0
M  V30 516 N 50.2554 -1.46986 0.568584 0
M  V30 517 C 51.5324 -1.95592 -0.0174074 0
M  V30 518 C 51.9124 -1.51124 -1.47393 0
M  V30 519 O 51.2604 -0.755329 -2.15655 0
M  V30 520 C 51.4704 -3.48719 0.139913 0
M  V30 521 C 52.8184 -4.246 0.000426376 0
M  V30 522 O 53.8424 -3.56135 0.0680316 0
M  V30 523 O 52.7014 -5.46302 -0.146988 0
M  V30 524 H 49.7954 -0.82498 -0.0577599 0
M  V30 525 H 52.3414 -1.57335 0.635909 0
M  V30 526 H 51.1134 -3.73927 1.15301 0
M  V30 527 H 50.7364 -3.93771 -0.550491 0
M  V30 528 N 51.7335 -0.305618 -1.54608 0
M  V30 529 C 53.1445 0.186098 -1.8577 0
M  V30 530 C 53.4955 1.53058 -1.22751 0
M  V30 531 O 52.6205 2.09888 -0.526893 0
M  V30 532 C 53.2155 0.344449 -3.37044 0
M  V30 533 C 51.7745 0.780384 -3.68221 0
M  V30 534 C 50.9215 -0.108554 -2.77087 0
M  V30 535 H 53.8725 -0.526485 -1.49712 0
M  V30 536 H 53.8935 1.17828 -3.61796 0
M  V30 537 H 53.4055 -0.634235 -3.82883 0
M  V30 538 H 51.5065 1.76945 -3.27904 0
M  V30 539 H 51.6195 0.596572 -4.75371 0
M  V30 540 H 49.9835 0.412931 -2.5133 0
M  V30 541 H 50.7665 -1.08368 -3.25747 0
M  V30 542 N 53.2116 1.57565 -0.0334293 0
M  V30 543 C 54.4886 1.83282 0.683163 0
M  V30 544 C 54.8686 0.91823 1.90084 0
M  V30 545 O 54.2166 -0.025113 2.28486 0
M  V30 546 C 54.4266 3.32599 1.0573 0
M  V30 547 C 55.7746 3.99179 1.44711 0
M  V30 548 O 56.7986 3.3712 1.15015 0
M  V30 549 O 55.6576 5.08565 2.0006 0
M  V30 550 H 52.7516 0.755869 0.335546 0
M  V30 551 H 55.2976 1.69589 -0.0614402 0
M  V30 552 H 54.0696 3.90834 0.190828 0
M  V30 553 H 53.6926 3.51415 1.85993 0
M  V30 554 N 54.6897 -0.239769 1.55765 0
M  V30 555 C 55.9177 -0.98417 1.81994 0
M  V30 556 C 56.3327 -1.7867 0.610124 0
M  V30 557 O 55.6897 -1.77571 -0.421271 0
M  V30 558 C 55.7407 -1.91635 3.06526 0
M  V30 559 O 55.4617 -1.14629 4.22838 0
M  V30 560 C 56.9627 -2.77616 3.45607 0
M  V30 561 H 54.1827 -0.28928 0.605441 0
M  V30 562 H 56.7267 -0.260499 2.02834 0
M  V30 563 H 54.8817 -2.5942 2.87715 0
M  V30 564 H 55.2957 -1.77745 4.93464 0
M  V30 565 H 56.7697 -3.38759 4.35828 0
M  V30 566 H 57.2467 -3.4909 2.6652 0
M  V30 567 H 57.8527 -2.15271 3.66795 0
M  V30 568 N 56.1678 -1.49265 -0.50573 0
M  V30 569 C 57.1308 -1.65075 -1.59006 0
M  V30 570 C 58.1308 -0.522768 -1.52065 0
M  V30 571 O 59.3208 -0.789117 -1.55302 0
M  V30 572 C 56.4528 -1.64369 -2.98656 0
M  V30 573 H 57.6458 -2.61784 -1.46319 0
M  V30 574 H 55.1988 -1.38226 -0.729616 0
M  V30 575 H 55.9338 -0.692272 -3.16825 0
M  V30 576 H 55.7188 -2.46282 -3.05103 0
M  V30 577 H 57.2088 -1.78674 -3.77446 0
M  V30 578 N 57.6459 0.756429 -1.3826 0
M  V30 579 C 58.8919 1.51772 -1.34511 0
M  V30 580 C 59.2249 1.94089 0.0656691 0
M  V30 581 O 58.4999 1.65221 1.02626 0
M  V30 582 C 58.7829 2.77226 -2.29821 0
M  V30 583 C 58.6359 2.41065 -3.79747 0
M  V30 584 C 59.9549 3.79236 -2.23312 0
M  V30 585 H 57.0739 0.550578 -0.489931 0
M  V30 586 H 59.7159 0.866607 -1.69086 0
M  V30 587 H 57.8659 3.32784 -2.00467 0
M  V30 588 H 59.5379 1.91303 -4.19763 0
M  V30 589 H 57.7809 1.7356 -3.97567 0
M  V30 590 H 58.4519 3.3081 -4.41892 0
M  V30 591 H 60.9279 3.3321 -2.49219 0
M  V30 592 H 59.8039 4.64714 -2.92116 0
M  V30 593 H 60.0649 4.24615 -1.23102 0
M  V30 594 N 59.124 1.23083 0.984299 0
M  V30 595 C 60.352 1.08714 1.76037 0
M  V30 596 C 60.767 -0.361691 1.85303 0
M  V30 597 O 60.124 -1.25034 1.32939 0
M  V30 598 C 60.175 1.70206 3.18923 0
M  V30 599 O 59.896 3.09423 3.10144 0
M  V30 600 C 61.397 1.61227 4.12941 0
M  V30 601 H 58.617 0.380664 0.552572 0
M  V30 602 H 61.161 1.62853 1.23689 0
M  V30 603 H 59.316 1.20109 3.6831 0
M  V30 604 H 59.73 3.39188 4.00065 0
M  V30 605 H 61.204 2.08962 5.10919 0
M  V30 606 H 61.681 0.570375 4.35481 0
M  V30 607 H 62.287 2.10671 3.69456 0
M  V30 608 N 60.6021 -1.18246 1.0419 0
M  V30 609 C 61.5501 -2.23968 0.627792 0
M  V30 610 C 62.5441 -1.65828 -0.346019 0
M  V30 611 O 63.7501 -1.78733 -0.213175 0
M  V30 612 H 60.1251 -0.728939 0.184802 0
M  V30 613 H 62.0961 -2.56202 1.52981 0
M  V30 614 C 60.8451 -3.47699 0.00796591 0
M  V30 615 H 60.1681 -3.92734 0.748347 0
M  V30 616 H 61.6081 -4.23294 -0.24455 0
M  V30 617 C 60.0671 -3.13153 -1.24246 0
M  V30 618 O 60.5971 -3.27003 -2.33307 0
M  V30 619 N 58.8031 -2.67467 -1.13622 0
M  V30 620 H 58.3501 -2.56396 -0.248734 0
M  V30 621 H 58.3081 -2.44724 -1.97377 0
M  V30 622 N 62.0802 -0.821533 -1.34494 0
M  V30 623 C 63.0272 -0.240397 -2.29545 0
M  V30 624 C 63.9972 0.634031 -1.53523 0
M  V30 625 O 65.1822 0.575966 -1.81899 0
M  V30 626 C 62.3222 0.592869 -3.39969 0
M  V30 627 C 61.4352 -0.30365 -4.30932 0
M  V30 628 C 60.5702 0.539049 -5.28458 0
M  V30 629 C 59.6092 -0.356942 -6.11058 0
M  V30 630 N 58.7462 0.446603 -7.00678 0
M  V30 631 H 63.5862 -1.05632 -2.7865 0
M  V30 632 H 61.1232 -0.532413 -1.37127 0
M  V30 633 H 63.0812 1.09129 -4.02675 0
M  V30 634 H 61.7112 1.37392 -2.92102 0
M  V30 635 H 60.7632 -0.920276 -3.691 0
M  V30 636 H 62.0752 -0.992661 -4.88823 0
M  V30 637 H 61.2292 1.102 -5.96608 0
M  V30 638 H 59.9682 1.26157 -4.71101 0
M  V30 639 H 58.9732 -0.932047 -5.41842 0
M  V30 640 H 60.1982 -1.07755 -6.70497 0
M  V30 641 H 58.1442 1.15282 -6.45791 0
M  V30 642 H 58.0612 -0.184048 -7.55776 0
M  V30 643 H 59.3292 0.992352 -7.73158 0
M  V30 644 N 63.5583 1.46682 -0.576371 0
M  V30 645 C 64.4903 2.28341 0.198231 0
M  V30 646 C 65.5033 1.38141 0.861453 0
M  V30 647 O 66.6923 1.62797 0.732082 0
M  V30 648 C 63.7923 3.12986 1.29972 0
M  V30 649 C 62.9653 4.31271 0.729639 0
M  V30 650 C 62.0243 4.97363 1.71803 0
M  V30 651 O 61.0503 5.55156 1.25658 0
M  V30 652 N 62.2523 4.93796 3.05198 0
M  V30 653 H 65.0173 2.9546 -0.502324 0
M  V30 654 H 62.5783 1.56525 -0.413715 0
M  V30 655 H 64.5703 3.54066 1.96008 0
M  V30 656 H 63.1403 2.47984 1.90323 0
M  V30 657 H 62.3603 3.94052 -0.108012 0
M  V30 658 H 63.6483 5.07739 0.328438 0
M  V30 659 H 63.0463 4.48077 3.45317 0
M  V30 660 H 61.6033 5.38837 3.6674 0
M  V30 661 N 65.0364 0.313813 1.54444 0
M  V30 662 C 66.2614 -0.296681 2.05267 0
M  V30 663 C 66.6864 -1.45757 1.18897 0
M  V30 664 O 66.0444 -1.80239 0.195886 0
M  V30 665 C 66.0924 -0.71831 3.53373 0
M  V30 666 O 65.1964 -1.82175 3.69981 0
M  V30 667 H 64.5374 -0.0554061 0.661684 0
M  V30 668 H 67.0674 0.459387 1.99376 0
M  V30 669 H 67.0774 -1.00364 3.95463 0
M  V30 670 H 65.7524 0.130821 4.15694 0
M  V30 671 H 64.3294 -1.53598 3.39797 0
M  V30 672 N 66.5145 -1.57545 0.0417849 0
M  V30 673 C 67.7615 -1.92317 -0.634082 0
M  V30 674 C 68.0895 -0.919334 -1.71402 0
M  V30 675 O 67.3445 0.0698253 -1.95575 0
M  V30 676 C 67.6435 -3.33794 -1.27735 0
M  V30 677 C 67.3095 -4.49716 -0.326543 0
M  V30 678 C 65.9715 -4.81156 -0.0648814 0
M  V30 679 C 68.3235 -5.20182 0.325623 0
M  V30 680 C 65.6515 -5.80414 0.856539 0
M  V30 681 C 68.0035 -6.20424 1.23518 0
M  V30 682 C 66.6675 -6.50298 1.5056 0
M  V30 683 H 65.9375 -0.703736 -0.232027 0
M  V30 684 H 68.5845 -1.91205 0.106259 0
M  V30 685 H 66.8895 -3.31228 -2.09274 0
M  V30 686 H 68.5865 -3.57975 -1.80707 0
M  V30 687 H 65.1765 -4.25176 -0.540665 0
M  V30 688 H 69.3605 -4.96112 0.136546 0
M  V30 689 H 64.6165 -6.019 1.07363 0
M  V30 690 H 68.7905 -6.74141 1.74664 0
M  V30 691 H 66.4175 -7.27025 2.22123 0
M  V30 692 N 67.9926 0.231505 -1.5589 0
M  V30 693 C 69.2176 0.978689 -1.82856 0
M  V30 694 C 69.6426 1.77559 -0.620846 0
M  V30 695 O 69.0006 1.76119 0.430305 0
M  V30 696 C 69.0486 1.87997 -3.07716 0
M  V30 697 O 68.1526 2.97393 -2.85712 0
M  V30 698 H 67.4936 0.277663 -0.603158 0
M  V30 699 H 70.0236 0.24783 -2.03093 0
M  V30 700 H 70.0336 2.2917 -3.37558 0
M  V30 701 H 68.7086 1.29417 -3.95252 0
M  V30 702 H 67.2856 2.60238 -2.67078 0
M  V30 703 N 69.4707 1.49531 0.497807 0
M  V30 704 C 70.6987 1.62893 1.27567 0
M  V30 705 C 71.1137 0.301585 1.86376 0
M  V30 706 O 70.4707 -0.713335 1.67982 0
M  V30 707 C 70.5217 2.70013 2.40364 0
M  V30 708 O 70.2427 3.976 1.83972 0
M  V30 709 C 71.7437 2.94109 3.31685 0
M  V30 710 H 68.9637 0.548298 0.386794 0
M  V30 711 H 71.5077 1.95584 0.597245 0
M  V30 712 H 69.6627 2.40092 3.04031 0
M  V30 713 H 70.0767 4.56631 2.58047 0
M  V30 714 H 71.5507 3.72788 4.07104 0
M  V30 715 H 72.0277 2.04147 3.88871 0
M  V30 716 H 72.6337 3.2546 2.73781 0
M  V30 717 N 70.9488 -0.749086 1.3866 0
M  V30 718 C 72.2258 -1.4992 1.25632 0
M  V30 719 C 72.6058 -2.10633 -0.140317 0
M  V30 720 O 71.9538 -1.97437 -1.15025 0
M  V30 721 C 72.1638 -2.56195 2.36992 0
M  V30 722 C 73.5118 -3.22972 2.75634 0
M  V30 723 O 74.5358 -2.66502 2.36337 0
M  V30 724 O 73.3948 -4.25122 3.43415 0
M  V30 725 H 70.4888 -0.665067 0.491544 0
M  V30 726 H 73.0348 -0.784113 1.50498 0
M  V30 727 H 71.8068 -2.09612 3.30422 0
M  V30 728 H 71.4298 -3.35279 2.13714 0
M  V30 729 N 72.4269 -1.23603 -0.977757 0
M  V30 730 C 73.6729 -1.07129 -1.72195 0
M  V30 731 C 74.0059 0.390501 -1.90233 0
M  V30 732 O 73.2809 1.28902 -1.45653 0
M  V30 733 C 73.5639 -1.80031 -3.11867 0
M  V30 734 C 73.4169 -3.33899 -3.01383 0
M  V30 735 C 74.7359 -1.56492 -4.11337 0
M  V30 736 H 71.8549 -0.390571 -0.624999 0
M  V30 737 H 74.4969 -1.52142 -1.13811 0
M  V30 738 H 72.6469 -1.41768 -3.6171 0
M  V30 739 H 74.3189 -3.81699 -2.59043 0
M  V30 740 H 72.5619 -3.62796 -2.37827 0
M  V30 741 H 73.2329 -3.801 -4.00285 0
M  V30 742 H 75.7089 -1.89757 -3.70313 0
M  V30 743 H 74.5849 -2.09973 -5.07151 0
M  V30 744 H 74.8459 -0.500874 -4.39254 0
M  V30 745 N 73.905 1.17692 -1.04816 0
M  V30 746 C 75.154 1.87192 -0.751132 0
M  V30 747 C 75.467 1.8169 0.724441 0
M  V30 748 O 76.673 2.46625 1.13527 0
M  V30 749 C 75.129 3.35857 -1.29338 0
M  V30 750 C 74.737 3.4987 -2.79812 0
M  V30 751 C 76.481 4.10709 -1.07322 0
M  V30 752 C 74.388 4.92536 -3.27356 0
M  V30 753 H 73.318 0.701162 -0.277288 0
M  V30 754 H 75.969 1.32932 -1.26496 0
M  V30 755 H 74.351 3.89631 -0.707376 0
M  V30 756 H 75.525 3.06332 -3.44235 0
M  V30 757 H 73.84 2.88433 -3.00325 0
M  V30 758 H 76.437 5.15952 -1.4035 0
M  V30 759 H 76.78 4.16299 -0.0108001 0
M  V30 760 H 77.313 3.6313 -1.62423 0
M  V30 761 H 74.052 4.92119 -4.33012 0
M  V30 762 H 73.572 5.3676 -2.67673 0
M  V30 763 H 75.251 5.61288 -3.21815 0
M  V30 764 N 75.3831 0.828654 1.34056 0
M  V30 765 C 76.6131 0.431993 2.02033 0
M  V30 766 C 77.0211 -0.96844 1.62536 0
M  V30 767 O 76.3641 -1.6391 0.829408 0
M  V30 768 C 76.4261 0.461224 3.56529 0
M  V30 769 C 76.0901 1.81599 4.1937 0
M  V30 770 C 77.0871 2.7777 4.39477 0
M  V30 771 C 74.7721 2.10604 4.56017 0
M  V30 772 C 76.7661 4.01115 4.95364 0
M  V30 773 C 74.4531 3.34207 5.11614 0
M  V30 774 C 75.4511 4.2928 5.31232 0
M  V30 775 O 75.1391 5.50699 5.8565 0
M  V30 776 H 74.8711 0.170943 0.654029 0
M  V30 777 H 77.4251 1.11988 1.72185 0
M  V30 778 H 75.6551 -0.283388 3.8566 0
M  V30 779 H 77.3441 0.0838149 4.05813 0
M  V30 780 H 78.1101 2.56659 4.11523 0
M  V30 781 H 73.9891 1.37402 4.40047 0
M  V30 782 H 77.5331 4.75333 5.10592 0
M  V30 783 H 73.4301 3.55179 5.38997 0
M  V30 784 H 74.1981 5.52298 6.04077 0
M  V30 785 N 76.8612 -1.46375 0.584142 0
M  V30 786 C 77.7932 -2.28443 -0.186119 0
M  V30 787 C 78.8062 -1.38596 -0.854115 0
M  V30 788 O 79.9952 -1.63183 -0.723438 0
M  V30 789 C 77.0952 -3.13671 -1.28311 0
M  V30 790 C 76.2682 -4.31652 -0.706758 0
M  V30 791 C 75.3272 -4.98267 -1.69163 0
M  V30 792 O 74.3532 -5.55815 -1.22712 0
M  V30 793 N 75.5552 -4.95408 -3.02575 0
M  V30 794 H 78.3202 -2.9519 0.517986 0
M  V30 795 H 75.8812 -1.56303 0.42201 0
M  V30 796 H 77.8732 -3.55101 -1.94128 0
M  V30 797 H 76.4432 -2.48989 -1.89005 0
M  V30 798 H 75.6632 -3.93989 0.128908 0
M  V30 799 H 76.9512 -5.07906 -0.301506 0
M  V30 800 H 76.3492 -4.49902 -3.42936 0
M  V30 801 H 74.9062 -5.40774 -3.63877 0
M  V30 802 N 78.3393 -0.321999 -1.54275 0
M  V30 803 C 79.5853 0.281461 -2.00837 0
M  V30 804 C 79.9183 1.51909 -1.20985 0
M  V30 805 O 79.1933 1.923 -0.291733 0
M  V30 806 C 79.4763 0.617162 -3.54772 0
M  V30 807 C 79.3293 -0.631064 -4.45351 0
M  V30 808 C 80.6483 1.43542 -4.16033 0
M  V30 809 H 77.7673 0.100826 -0.730071 0
M  V30 810 H 80.4093 -0.438268 -1.84876 0
M  V30 811 H 78.5593 1.23034 -3.68504 0
M  V30 812 H 80.2313 -1.26934 -4.43492 0
M  V30 813 H 78.4743 -1.26025 -4.15091 0
M  V30 814 H 79.1453 -0.351735 -5.50878 0
M  V30 815 H 81.6213 0.917134 -4.05867 0
M  V30 816 H 80.4973 1.63907 -5.23856 0
M  V30 817 H 80.7583 2.43108 -3.69257 0
M  V30 818 N 79.8174 1.5752 -0.0501392 0
M  V30 819 C 81.0644 1.9265 0.623874 0
M  V30 820 C 81.3924 0.928411 1.70912 0
M  V30 821 O 80.6474 -0.0594525 1.9561 0
M  V30 822 C 80.9464 3.34467 1.25963 0
M  V30 823 C 80.6124 4.49883 0.302689 0
M  V30 824 C 79.2744 4.81184 0.0393636 0
M  V30 825 C 81.6264 5.20002 -0.353205 0
M  V30 826 C 78.9544 5.79951 -0.887308 0
M  V30 827 C 81.3064 6.1976 -1.26806 0
M  V30 828 C 79.9704 6.49491 -1.54007 0
M  V30 829 H 79.2404 0.704957 0.228292 0
M  V30 830 H 81.8874 1.91146 -0.116398 0
M  V30 831 H 80.1924 3.32333 2.07514 0
M  V30 832 H 81.8894 3.58928 1.78806 0
M  V30 833 H 78.4794 4.25457 0.518109 0
M  V30 834 H 82.6634 4.96033 -0.162854 0
M  V30 835 H 77.9194 6.01322 -1.10553 0
M  V30 836 H 82.0934 6.73205 -1.78236 0
M  V30 837 H 79.7204 7.25837 -2.25976 0
M  V30 838 N 81.2955 -0.223234 1.56011 0
M  V30 839 C 82.5235 -0.964812 1.83027 0
M  V30 840 C 82.9385 -1.78013 0.62904 0
M  V30 841 O 82.2955 -1.78008 -0.402414 0
M  V30 842 C 82.3465 -1.88373 3.08542 0
M  V30 843 O 82.0675 -1.10137 4.2403 0
M  V30 844 C 83.5685 -2.73934 3.48533 0
M  V30 845 H 80.7885 -0.282842 0.608475 0
M  V30 846 H 83.3325 -0.238971 2.03099 0
M  V30 847 H 81.4875 -2.56354 2.9045 0
M  V30 848 H 81.9015 -1.72501 4.95322 0
M  V30 849 H 83.3755 -3.34117 4.39397 0
M  V30 850 H 83.8525 -3.46244 2.70207 0
M  V30 851 H 84.4585 -2.11369 3.69057 0
M  V30 852 N 82.7736 -1.49793 -0.48987 0
M  V30 853 C 84.0506 -1.50348 -1.25119 0
M  V30 854 C 84.4306 -0.237466 -2.0976 0
M  V30 855 O 83.7786 0.77981 -2.14782 0
M  V30 856 C 83.9886 -2.78872 -2.09837 0
M  V30 857 C 85.3366 -3.288 -2.68655 0
M  V30 858 O 86.3606 -2.80065 -2.20096 0
M  V30 859 O 85.2196 -4.13707 -3.57083 0
M  V30 860 H 82.3136 -0.602242 -0.566775 0
M  V30 861 H 84.8596 -1.62067 -0.503229 0
M  V30 862 H 83.6316 -3.62499 -1.47343 0
M  V30 863 H 83.2546 -2.70066 -2.91805 0
M  V30 864 N 84.2517 0.741722 -1.39055 0
M  V30 865 C 85.6677 1.04638 -1.20512 0
M  V30 866 C 85.8677 2.01405 -0.0620218 0
M  V30 867 O 84.9237 2.45547 0.588457 0
M  V30 868 C 86.2367 1.6151 -2.53643 0
M  V30 869 C 87.7847 1.73623 -2.6043 0
M  V30 870 C 88.2597 2.33906 -3.93767 0
M  V30 871 N 89.7507 2.41323 -3.9537 0
M  V30 872 C 90.4857 2.88888 -4.95309 0
M  V30 873 N 89.9817 3.36401 -6.05645 0
M  V30 874 N 91.7747 2.88037 -4.82692 0
M  V30 875 H 83.9257 0.0998155 -2.12165 0
M  V30 876 H 86.1887 0.106907 -0.941953 0
M  V30 877 H 85.8947 0.978739 -3.37807 0
M  V30 878 H 85.7687 2.60411 -2.72885 0
M  V30 879 H 88.1557 2.36384 -1.76655 0
M  V30 880 H 88.2367 0.733945 -2.45045 0
M  V30 881 H 87.8807 1.71776 -4.7797 0
M  V30 882 H 87.8107 3.34799 -4.06469 0
M  V30 883 H 90.3017 2.07734 -3.15682 0
M  V30 884 H 90.6147 3.71186 -6.77821 0
M  V30 885 H 88.9597 3.34427 -6.09248 0
M  V30 886 H 92.1507 2.50237 -3.95599 0
M  V30 887 H 92.3237 3.24792 -5.60726 0
M  V30 888 N 85.7298 1.2412 0.971189 0
M  V30 889 C 86.9768 1.07881 1.71371 0
M  V30 890 C 87.3048 -0.382901 1.90694 0
M  V30 891 O 86.5598 -1.29945 1.46331 0
M  V30 892 C 86.8588 1.75983 3.11071 0
M  V30 893 C 86.5248 3.25909 3.11599 0
M  V30 894 C 85.1868 3.66813 3.11451 0
M  V30 895 C 87.5388 4.21771 3.062 0
M  V30 896 C 84.8668 5.02021 3.03631 0
M  V30 897 C 87.2188 5.56982 2.99923 0
M  V30 898 C 85.8828 5.97237 2.98102 0
M  V30 899 H 85.1528 0.394764 0.62709 0
M  V30 900 H 87.7998 1.54176 1.13587 0
M  V30 901 H 86.1048 1.22072 3.72298 0
M  V30 902 H 87.8018 1.60887 3.6731 0
M  V30 903 H 84.3918 2.93353 3.12477 0
M  V30 904 H 88.5758 3.91172 3.05447 0
M  V30 905 H 83.8318 5.32411 3.0058 0
M  V30 906 H 88.0058 6.30969 2.94704 0
M  V30 907 H 85.6328 7.01967 2.91798 0
M  V30 908 N 87.2079 -1.17134 1.05439 0
M  V30 909 C 88.1379 -2.2342 0.678649 0
M  V30 910 C 89.1189 -1.66971 -0.32476 0
M  V30 911 O 90.3039 -1.93149 -0.201802 0
M  V30 912 C 87.4339 -3.47256 0.0552099 0
M  V30 913 C 86.3879 -4.16543 0.98365 0
M  V30 914 C 85.7139 -5.34231 0.223961 0
M  V30 915 C 87.0139 -4.68495 2.3089 0
M  V30 916 H 88.7079 -2.55105 1.56722 0
M  V30 917 H 86.2539 -1.2262 0.754998 0
M  V30 918 H 88.2069 -4.20828 -0.21946 0
M  V30 919 H 86.9309 -3.14846 -0.868319 0
M  V30 920 H 85.5899 -3.44887 1.24293 0
M  V30 921 H 85.2379 -4.98071 -0.702412 0
M  V30 922 H 84.9379 -5.81527 0.842627 0
M  V30 923 H 86.4619 -6.10585 -0.0433671 0
M  V30 924 H 87.8759 -5.33691 2.09396 0
M  V30 925 H 86.2729 -5.26379 2.88176 0
M  V30 926 H 87.3429 -3.85169 2.94572 0
M  V30 927 N 88.686 -0.835752 -1.33615 0
M  V30 928 C 89.963 -0.352017 -1.92406 0
M  V30 929 C 90.343 1.16225 -1.76224 0
M  V30 930 O 89.691 1.97526 -1.14873 0
M  V30 931 C 89.901 -0.795485 -3.39813 0
M  V30 932 C 91.249 -0.801703 -4.16963 0
M  V30 933 O 92.273 -0.738889 -3.48452 0
M  V30 934 O 91.132 -0.886607 -5.3926 0
M  V30 935 H 88.226 -0.0989641 -0.821057 0
M  V30 936 H 90.772 -0.921397 -1.42507 0
M  V30 937 H 89.544 -1.83795 -3.45449 0
M  V30 938 H 89.167 -0.202505 -3.97084 0
M  V30 939 N 90.1641 1.46063 -0.591896 0
M  V30 940 C 91.4121 2.01938 -0.0808391 0
M  V30 941 C 91.7331 1.46475 1.28725 0
M  V30 942 O 91.0031 0.652944 1.84698 0
M  V30 943 H 89.5831 0.746516 -0.0268938 0
M  V30 944 H 92.2451 1.79055 -0.769752 0
M  V30 945 H 91.3411 3.12094 -0.0187578 0
M  V30 946 N 91.6422 0.330177 1.54103 0
M  V30 947 C 92.5902 -0.548226 2.26047 0
M  V30 948 C 93.5842 -1.11309 1.27698 0
M  V30 949 O 94.7902 -1.06036 1.45452 0
M  V30 950 H 91.1652 -0.195456 0.726155 0
M  V30 951 H 93.1362 0.0807567 2.98291 0
M  V30 952 C 91.8852 -1.69415 3.03634 0
M  V30 953 H 91.2082 -1.26876 3.79134 0
M  V30 954 H 92.6482 -2.28423 3.5721 0
M  V30 955 C 91.1072 -2.61569 2.12328 0
M  V30 956 O 91.6372 -3.63462 1.7105 0
M  V30 957 N 89.8432 -2.29952 1.77681 0
M  V30 958 H 89.3902 -1.47134 2.11446 0
M  V30 959 H 89.3482 -2.91871 1.16869 0
M  V30 960 N 93.1203 -1.57491 0.0584922 0
M  V30 961 C 94.5313 -1.80526 -0.476138 0
M  V30 962 C 94.8823 -0.971334 -1.70469 0
M  V30 963 O 94.0073 -0.190012 -2.15564 0
M  V30 964 C 94.6023 -3.27424 -0.870587 0
M  V30 965 C 93.1613 -3.51351 -1.35015 0
M  V30 966 C 92.3083 -2.75343 -0.32887 0
M  V30 967 H 95.2593 -1.56133 0.284312 0
M  V30 968 H 95.2803 -3.38745 -1.73299 0
M  V30 969 H 94.7923 -3.88093 0.0237627 0
M  V30 970 H 92.8933 -2.95971 -2.26345 0
M  V30 971 H 93.0063 -4.60059 -1.33726 0
M  V30 972 H 91.3703 -2.417 -0.803321 0
M  V30 973 H 92.1533 -3.38743 0.557521 0
M  V30 974 N 94.5984 0.214957 -1.56127 0
M  V30 975 C 95.8234 0.95924 -1.83884 0
M  V30 976 C 96.2484 1.7689 -0.639644 0
M  V30 977 O 95.6064 1.76566 0.411601 0
M  V30 978 C 95.6544 1.84723 -3.09693 0
M  V30 979 O 94.7584 2.94346 -2.8885 0
M  V30 980 H 94.0994 0.27125 -0.606069 0
M  V30 981 H 96.6294 0.226276 -2.03345 0
M  V30 982 H 96.6394 2.25576 -3.39969 0
M  V30 983 H 95.3144 1.25218 -3.96602 0
M  V30 984 H 93.8914 2.57391 -2.69823 0
M  V30 985 N 96.0765 1.50051 0.48192 0
M  V30 986 C 97.0245 1.68635 1.60203 0
M  V30 987 C 98.0185 0.552184 1.60148 0
M  V30 988 O 99.2245 0.732377 1.64427 0
M  V30 989 H 95.5995 0.532081 0.531407 0
M  V30 990 H 97.5705 2.62616 1.41688 0
M  V30 991 C 96.3195 1.78775 2.9822 0
M  V30 992 H 95.6425 2.6543 2.98976 0
M  V30 993 H 97.0825 1.95806 3.7608 0
M  V30 994 C 95.5415 0.536849 3.32595 0
M  V30 995 O 96.0715 -0.328897 4.00351 0
M  V30 996 N 94.2775 0.394091 2.87915 0
M  V30 997 H 93.8245 1.09962 2.32951 0
M  V30 998 H 93.7825 -0.441737 3.11281 0
M  V30 999 N 97.5546 -0.734337 1.39446 0
M  V30 1000 C 98.5026 -1.86971 1.38364 0
M  V30 1001 C 99.4966 -1.67288 0.266687 0
M  V30 1002 O 100.703 -1.74621 0.436755 0
M  V30 1003 H 97.0776 -0.615474 0.432082 0
M  V30 1004 H 99.0486 -1.85 2.34132 0
M  V30 1005 C 97.7976 -3.2466 1.24465 0
M  V30 1006 H 97.1206 -3.40402 2.09682 0
M  V30 1007 H 98.5606 -4.04292 1.27764 0
M  V30 1008 C 97.0196 -3.36867 -0.0468674 0
M  V30 1009 O 97.5496 -3.88618 -1.01681 0
M  V30 1010 N 95.7556 -2.90391 -0.110145 0
M  V30 1011 H 95.3026 -2.48466 0.679868 0
M  V30 1012 H 95.2606 -2.98939 -0.973799 0
M  V30 1013 N 99.0327 -1.24633 -0.964593 0
M  V30 1014 C 100.444 -1.08045 -1.5226 0
M  V30 1015 C 100.795 0.347116 -1.93105 0
M  V30 1016 O 99.9197 1.23588 -1.77637 0
M  V30 1017 C 100.515 -1.95514 -2.76695 0
M  V30 1018 C 99.0737 -1.8314 -3.28841 0
M  V30 1019 C 98.2207 -1.90262 -2.01732 0
M  V30 1020 H 101.172 -1.38064 -0.782553 0
M  V30 1021 H 101.193 -1.48925 -3.50145 0
M  V30 1022 H 100.705 -2.99407 -2.46936 0
M  V30 1023 H 98.8057 -0.82092 -3.63444 0
M  V30 1024 H 98.9187 -2.67406 -3.97531 0
M  V30 1025 H 97.2827 -1.34027 -2.16584 0
M  V30 1026 H 98.0657 -2.9574 -1.74334 0
M  V30 1027 N 100.511 1.16574 -1.06058 0
M  V30 1028 C 101.739 1.90952 -0.796552 0
M  V30 1029 C 102.154 1.77302 0.648808 0
M  V30 1030 O 101.511 1.11605 1.44397 0
M  V30 1031 C 101.562 3.41736 -1.17894 0
M  V30 1032 O 101.283 3.54975 -2.56758 0
M  V30 1033 C 102.784 4.33169 -0.942308 0
M  V30 1034 H 100.004 0.605594 -0.288959 0
M  V30 1035 H 102.548 1.47777 -1.41358 0
M  V30 1036 H 100.703 3.82623 -0.606491 0
M  V30 1037 H 101.117 4.4846 -2.72 0
M  V30 1038 H 102.591 5.37439 -1.25952 0
M  V30 1039 H 103.068 4.3903 0.122078 0
M  V30 1040 H 103.674 3.98007 -1.49902 0
M  V30 1041 N 101.989 0.842826 1.3317 0
M  V30 1042 C 103.237 0.439577 1.97262 0
M  V30 1043 C 103.558 -1.00548 1.67078 0
M  V30 1044 O 102.828 -1.70098 0.971779 0
M  V30 1045 H 101.408 0.159558 0.72976 0
M  V30 1046 H 104.07 1.07665 1.62463 0
M  V30 1047 H 103.166 0.574886 3.0676 0
M  V30 1048 N 103.467 -1.45747 0.599634 0
M  V30 1049 C 104.43 -2.28917 -0.113835 0
M  V30 1050 C 105.43 -1.3933 -0.802729 0
M  V30 1051 O 106.62 -1.61534 -0.652103 0
M  V30 1052 C 103.752 -3.20152 -1.17114 0
M  V30 1053 H 104.945 -2.93478 0.617289 0
M  V30 1054 H 102.498 -1.52137 0.358327 0
M  V30 1055 H 103.233 -2.60374 -1.93329 0
M  V30 1056 H 103.018 -3.86133 -0.681468 0
M  V30 1057 H 104.508 -3.82708 -1.67105 0
M  V30 1058 N 104.945 -0.338344 -1.53925 0
M  V30 1059 C 105.908 0.508299 -2.23493 0
M  V30 1060 C 106.908 1.03175 -1.23335 0
M  V30 1061 O 108.098 0.921826 -1.47811 0
M  V30 1062 C 105.23 1.70754 -2.95052 0
M  V30 1063 H 106.423 -0.100058 -2.99733 0
M  V30 1064 H 103.976 -0.0896198 -1.56043 0
M  V30 1065 H 104.711 2.35474 -2.22986 0
M  V30 1066 H 104.496 1.33946 -3.68512 0
M  V30 1067 H 105.986 2.30818 -3.48013 0
M  V30 1068 N 106.423 1.57458 -0.0668435 0
M  V30 1069 C 107.653 1.97337 0.611677 0
M  V30 1070 C 108.061 0.943744 1.63982 0
M  V30 1071 O 107.404 -0.0785584 1.83532 0
M  V30 1072 C 107.466 3.33511 1.34205 0
M  V30 1073 C 107.13 4.54598 0.467941 0
M  V30 1074 C 108.127 5.19186 -0.272439 0
M  V30 1075 C 105.812 5.0075 0.39427 0
M  V30 1076 C 107.806 6.28274 -1.07476 0
M  V30 1077 C 105.493 6.09711 -0.411729 0
M  V30 1078 C 106.491 6.73335 -1.14492 0
M  V30 1079 O 106.179 7.80199 -1.93763 0
M  V30 1080 H 105.911 0.654042 0.170893 0
M  V30 1081 H 108.465 2.04961 -0.134289 0
M  V30 1082 H 106.695 3.22487 2.13398 0
M  V30 1083 H 108.384 3.58029 1.91233 0
M  V30 1084 H 109.15 4.84477 -0.225086 0
M  V30 1085 H 105.029 4.51009 0.954569 0
M  V30 1086 H 108.573 6.77866 -1.64755 0
M  V30 1087 H 104.47 6.43854 -0.460664 0
M  V30 1088 H 105.238 7.97053 -1.86142 0
M  V30 1089 N 107.901 -0.206675 1.56239 0
M  V30 1090 C 109.178 -0.954051 1.70755 0
M  V30 1091 C 109.558 -2.01841 0.618353 0
M  V30 1092 O 108.906 -2.25444 -0.372434 0
M  V30 1093 C 109.116 -1.551 3.12642 0
M  V30 1094 C 110.464 -2.03757 3.72516 0
M  V30 1095 O 111.488 -1.64965 3.15698 0
M  V30 1096 O 110.347 -2.75103 4.72208 0
M  V30 1097 H 107.441 -0.446636 0.696021 0
M  V30 1098 H 109.987 -0.197283 1.68549 0
M  V30 1099 H 108.759 -0.783212 3.83382 0
M  V30 1100 H 108.382 -2.37291 3.19028 0
M  V30 1101 N 109.379 -1.50304 -0.473955 0
M  V30 1102 C 110.342 -1.6841 -1.55469 0
M  V30 1103 C 111.342 -0.554905 -1.50922 0
M  V30 1104 O 112.532 -0.821882 -1.53593 0
M  V30 1105 C 109.664 -1.70667 -2.95102 0
M  V30 1106 H 110.857 -2.64828 -1.40733 0
M  V30 1107 H 108.41 -1.39742 -0.700132 0
M  V30 1108 H 109.145 -0.75932 -3.15285 0
M  V30 1109 H 108.93 -2.52698 -2.9981 0
M  V30 1110 H 110.42 -1.8664 -3.73571 0
M  V30 1111 N 110.857 0.726932 -1.39834 0
M  V30 1112 C 112.085 1.51613 -1.40787 0
M  V30 1113 C 112.5 1.88799 -0.00451505 0
M  V30 1114 O 111.857 1.54662 0.968809 0
M  V30 1115 C 111.908 2.79863 -2.28821 0
M  V30 1116 O 111.629 2.44253 -3.63692 0
M  V30 1117 C 113.13 3.73837 -2.38245 0
M  V30 1118 H 110.35 0.468264 -0.480593 0
M  V30 1119 H 112.894 0.897607 -1.83748 0
M  V30 1120 H 111.049 3.38027 -1.89252 0
M  V30 1121 H 111.463 3.26695 -4.1033 0
M  V30 1122 H 112.937 4.60699 -3.04073 0
M  V30 1123 H 113.414 4.16153 -1.40403 0
M  V30 1124 H 114.02 3.21589 -2.78317 0
M  V30 1125 N 112.336 1.25143 0.95797 0
M  V30 1126 C 113.576 1.10893 1.71703 0
M  V30 1127 C 113.94 -0.34478 1.88879 0
M  V30 1128 O 115.141 -0.609014 2.6181 0
M  V30 1129 C 113.412 1.83889 3.06463 0
M  V30 1130 S 114.971 1.85491 3.97666 0
M  V30 1131 H 111.789 0.396428 0.590226 0
M  V30 1132 H 114.391 1.58618 1.14283 0
M  V30 1133 H 113.095 2.88756 2.9163 0
M  V30 1134 H 112.626 1.36538 3.68946 0
M  V30 1135 H 114.641 0.929553 4.87415 0
M  V30 1136 N 113.814 -1.1601 1.06675 0
M  V30 1137 C 115.039 -1.91068 0.806706 0
M  V30 1138 C 115.464 -1.77112 -0.633485 0
M  V30 1139 O 114.822 -1.09908 -1.44187 0
M  V30 1140 C 114.87 -3.39655 1.21106 0
M  V30 1141 O 113.974 -4.10893 0.352189 0
M  V30 1142 H 113.315 -0.595125 0.294486 0
M  V30 1143 H 115.845 -1.46955 1.42356 0
M  V30 1144 H 115.855 -3.90434 1.18428 0
M  V30 1145 H 114.53 -3.49132 2.26008 0
M  V30 1146 H 113.107 -3.70285 0.440868 0
M  V30 1147 N 115.292 -0.849877 -1.32721 0
M  V30 1148 C 116.24 -0.279745 -2.30912 0
M  V30 1149 C 117.234 0.594278 -1.58634 0
M  V30 1150 O 118.44 0.482613 -1.73409 0
M  V30 1151 H 114.815 -0.0717521 -0.748569 0
M  V30 1152 H 116.786 -1.12222 -2.76494 0
M  V30 1153 C 115.535 0.521108 -3.43773 0
M  V30 1154 H 114.858 -0.142141 -3.99547 0
M  V30 1155 H 116.298 0.885693 -4.14646 0
M  V30 1156 C 114.757 1.70442 -2.90605 0
M  V30 1157 O 115.287 2.8034 -2.87702 0
M  V30 1158 N 113.493 1.52991 -2.47067 0
M  V30 1159 H 113.04 0.635914 -2.49628 0
M  V30 1160 H 112.998 2.32311 -2.11847 0
M  V30 1161 N 116.77 1.45427 -0.607355 0
M  V30 1162 C 117.7 2.3329 0.0989352 0
M  V30 1163 C 118.681 1.46816 0.859007 0
M  V30 1164 O 119.866 1.75588 0.829604 0
M  V30 1165 C 116.996 3.29518 1.09705 0
M  V30 1166 C 115.95 4.25626 0.450206 0
M  V30 1167 C 115.276 5.11542 1.55655 0
M  V30 1168 C 116.576 5.18505 -0.628455 0
M  V30 1169 H 118.27 2.92595 -0.634716 0
M  V30 1170 H 115.816 1.40696 -0.306681 0
M  V30 1171 H 117.769 3.89855 1.59971 0
M  V30 1172 H 116.493 2.68372 1.86129 0
M  V30 1173 H 115.152 3.66586 -0.0315886 0
M  V30 1174 H 114.8 4.46765 2.31107 0
M  V30 1175 H 114.5 5.76647 1.12925 0
M  V30 1176 H 116.024 5.74748 2.06148 0
M  V30 1177 H 117.438 5.72916 -0.209877 0
M  V30 1178 H 115.835 5.92085 -0.977489 0
M  V30 1179 H 116.905 4.60948 -1.50514 0
M  V30 1180 N 118.248 0.346503 1.53744 0
M  V30 1181 C 119.195 -0.508914 2.25119 0
M  V30 1182 C 120.165 -1.09315 1.25058 0
M  V30 1183 O 121.35 -1.12921 1.53797 0
M  V30 1184 C 118.49 -1.65246 3.02965 0
M  V30 1185 C 117.603 -1.09525 4.17886 0
M  V30 1186 C 116.738 -2.20634 4.83212 0
M  V30 1187 C 115.777 -1.62279 5.90196 0
M  V30 1188 N 114.914 -2.67143 6.49291 0
M  V30 1189 H 119.754 0.106283 2.9781 0
M  V30 1190 H 117.291 0.0642227 1.4696 0
M  V30 1191 H 119.249 -2.32574 3.4636 0
M  V30 1192 H 117.879 -2.2386 2.32565 0
M  V30 1193 H 116.931 -0.312818 3.79112 0
M  V30 1194 H 118.243 -0.628444 4.94825 0
M  V30 1195 H 117.397 -2.95821 5.29693 0
M  V30 1196 H 116.136 -2.70659 4.05703 0
M  V30 1197 H 115.141 -0.855989 5.43096 0
M  V30 1198 H 116.366 -1.13102 6.69615 0
M  V30 1199 H 114.312 -3.16417 5.74645 0
M  V30 1200 H 114.229 -2.25093 7.21713 0
M  V30 1201 H 115.497 -3.4209 7.00425 0
M  V30 1202 N 119.726 -1.57421 0.075193 0
M  V30 1203 C 120.656 -2.15942 -0.888324 0
M  V30 1204 C 121.637 -1.08737 -1.30806 0
M  V30 1205 O 122.822 -1.36787 -1.37851 0
M  V30 1206 C 119.952 -2.72379 -2.1547 0
M  V30 1207 C 118.906 -3.8478 -1.87425 0
M  V30 1208 C 118.232 -4.27834 -3.20721 0
M  V30 1209 C 119.532 -5.08869 -1.17684 0
M  V30 1210 H 121.226 -2.96705 -0.400799 0
M  V30 1211 H 118.772 -1.42723 -0.191342 0
M  V30 1212 H 120.725 -3.11965 -2.83295 0
M  V30 1213 H 119.449 -1.88841 -2.6647 0
M  V30 1214 H 118.108 -3.45703 -1.22004 0
M  V30 1215 H 117.756 -3.41214 -3.6957 0
M  V30 1216 H 117.456 -5.03605 -3.02746 0
M  V30 1217 H 118.98 -4.70039 -3.89738 0
M  V30 1218 H 120.394 -5.4575 -1.75584 0
M  V30 1219 H 118.791 -5.8994 -1.09956 0
M  V30 1220 H 119.861 -4.84648 -0.156453 0
M  V30 1221 N 121.204 0.198386 -1.56346 0
M  V30 1222 C 122.434 0.934215 -1.84271 0
M  V30 1223 C 122.842 1.77496 -0.655125 0
M  V30 1224 O 122.185 1.7961 0.385488 0
M  V30 1225 C 122.247 1.88278 -3.06254 0
M  V30 1226 C 121.911 1.22431 -4.40295 0
M  V30 1227 C 122.908 0.602839 -5.16393 0
M  V30 1228 C 120.593 1.22915 -4.87029 0
M  V30 1229 C 122.587 -0.0050083 -6.374 0
M  V30 1230 C 120.274 0.617465 -6.07973 0
M  V30 1231 C 121.272 0.00146341 -6.83 0
M  V30 1232 O 120.96 -0.600642 -8.01653 0
M  V30 1233 H 120.692 0.278245 -0.616081 0
M  V30 1234 H 123.246 0.211626 -2.04307 0
M  V30 1235 H 121.476 2.64498 -2.82095 0
M  V30 1236 H 123.165 2.48612 -3.20853 0
M  V30 1237 H 123.931 0.591265 -4.81382 0
M  V30 1238 H 119.81 1.69801 -4.28589 0
M  V30 1239 H 123.354 -0.48643 -6.95902 0
M  V30 1240 H 119.251 0.62653 -6.42452 0
M  V30 1241 H 120.019 -0.497225 -8.16988 0
M  V30 1242 N 122.682 1.50554 0.465978 0
M  V30 1243 C 123.922 1.63439 1.22747 0
M  V30 1244 C 124.286 0.329822 1.89146 0
M  V30 1245 O 125.487 0.334161 2.66715 0
M  V30 1246 C 123.758 2.78542 2.2394 0
M  V30 1247 S 125.317 3.11591 3.0896 0
M  V30 1248 H 122.135 0.576113 0.416672 0
M  V30 1249 H 124.737 1.88357 0.523641 0
M  V30 1250 H 123.441 3.71805 1.7375 0
M  V30 1251 H 122.972 2.55726 2.98944 0
M  V30 1252 H 124.987 2.55811 4.25176 0
M  V30 1253 N 124.16 -0.719506 1.40217 0
M  V30 1254 C 125.408 -1.47641 1.3801 0
M  V30 1255 C 125.729 -1.94992 -0.018145 0
M  V30 1256 O 124.999 -1.70073 -0.972207 0
M  V30 1257 H 123.579 -0.547744 0.507923 0
M  V30 1258 H 126.241 -0.853187 1.75233 0
M  V30 1259 H 125.337 -2.35112 2.05253 0
M  V30 1260 N 125.638 -1.25649 -0.95132 0
M  V30 1261 C 126.886 -1.10375 -1.69298 0
M  V30 1262 C 127.207 0.355339 -1.91735 0
M  V30 1263 O 126.477 1.25188 -1.50681 0
M  V30 1264 H 125.057 -0.405461 -0.627384 0
M  V30 1265 H 127.719 -1.57823 -1.14358 0
M  V30 1266 H 126.815 -1.61465 -2.67087 0
M  V30 1267 N 127.117 1.15442 -1.07289 0
M  V30 1268 C 128.394 1.82306 -0.708792 0
M  V30 1269 C 128.774 1.94991 0.808807 0
M  V30 1270 O 128.122 1.50085 1.72298 0
M  V30 1271 C 128.332 3.18695 -1.42247 0
M  V30 1272 C 129.68 3.94341 -1.57417 0
M  V30 1273 O 130.704 3.28247 -1.38319 0
M  V30 1274 O 129.563 5.12839 -1.88834 0
M  V30 1275 H 126.657 0.787628 -0.252132 0
M  V30 1276 H 129.203 1.22559 -1.17377 0
M  V30 1277 H 127.975 3.04557 -2.45684 0
M  V30 1278 H 127.598 3.86128 -0.948223 0
M  V30 1279 N 128.595 0.856903 1.32268 0
M  V30 1280 C 129.841 0.471355 1.97863 0
M  V30 1281 C 130.196 -0.962896 1.66572 0
M  V30 1282 O 129.489 -1.66686 0.944797 0
M  V30 1283 C 129.683 0.649919 3.51441 0
M  V30 1284 C 129.512 2.09997 3.97657 0
M  V30 1285 C 128.282 2.73893 4.2463 0
M  V30 1286 C 130.48 3.07081 4.1256 0
M  V30 1287 N 128.462 4.09786 4.57109 0
M  V30 1288 C 129.833 4.27968 4.48602 0
M  V30 1289 C 131.888 3.03247 3.949 0
M  V30 1290 C 130.591 5.45521 4.68827 0
M  V30 1291 C 132.617 4.20046 4.16311 0
M  V30 1292 C 131.979 5.39692 4.52672 0
M  V30 1293 H 128.078 0.221263 0.750044 0
M  V30 1294 H 130.662 1.10876 1.60045 0
M  V30 1295 H 128.833 0.0421938 3.88377 0
M  V30 1296 H 130.565 0.234044 4.04023 0
M  V30 1297 H 127.32 2.24918 4.16784 0
M  V30 1298 H 127.744 4.7989 4.7753 0
M  V30 1299 H 132.386 2.11863 3.65888 0
M  V30 1300 H 130.104 6.37434 4.96693 0
M  V30 1301 H 133.69 4.18517 4.04147 0
M  V30 1302 H 132.57 6.28566 4.68907 0
M  V30 1303 N 130.073 -1.45103 0.615059 0
M  V30 1304 C 131.005 -2.28786 -0.13762 0
M  V30 1305 C 132.018 -1.40376 -0.824525 0
M  V30 1306 O 133.207 -1.64681 -0.688662 0
M  V30 1307 C 130.307 -3.16322 -1.21628 0
M  V30 1308 C 129.48 -4.33054 -0.615039 0
M  V30 1309 C 128.539 -5.01743 -1.58556 0
M  V30 1310 O 127.565 -5.58293 -1.10895 0
M  V30 1311 N 128.767 -5.01714 -2.91998 0
M  V30 1312 H 131.532 -2.94025 0.580483 0
M  V30 1313 H 129.093 -1.55373 0.45507 0
M  V30 1314 H 131.085 -3.59139 -1.86552 0
M  V30 1315 H 129.655 -2.52943 -1.83681 0
M  V30 1316 H 128.875 -3.93627 0.21245 0
M  V30 1317 H 130.163 -5.08431 -0.193704 0
M  V30 1318 H 129.561 -4.57075 -3.33316 0
M  V30 1319 H 128.118 -5.48371 -3.52325 0
M  V30 1320 N 131.551 -0.354651 -1.53558 0
M  V30 1321 C 132.799 0.237972 -2.00694 0
M  V30 1322 C 133.12 1.50173 -1.24391 0
M  V30 1323 O 132.39 1.92673 -0.354135 0
M  V30 1324 H 130.97 0.0909256 -0.741446 0
M  V30 1325 H 133.632 -0.478368 -1.88938 0
M  V30 1326 H 132.728 0.47264 -3.085 0
M  V30 1327 N 133.029 1.57378 -0.0835403 0
M  V30 1328 C 133.959 2.1641 0.87686 0
M  V30 1329 C 134.94 1.09429 1.30228 0
M  V30 1330 O 136.125 1.37516 1.37124 0
M  V30 1331 C 133.255 2.73517 2.14022 0
M  V30 1332 C 132.209 3.85769 1.85381 0
M  V30 1333 C 131.535 4.29529 3.18448 0
M  V30 1334 C 132.835 5.09486 1.14984 0
M  V30 1335 H 134.529 2.96914 0.385059 0
M  V30 1336 H 132.075 1.42823 0.18377 0
M  V30 1337 H 134.028 3.13463 2.81636 0
M  V30 1338 H 132.752 1.90252 2.65465 0
M  V30 1339 H 131.411 3.46345 1.20169 0
M  V30 1340 H 131.059 3.43169 3.67755 0
M  V30 1341 H 130.759 5.05204 3.00071 0
M  V30 1342 H 132.283 4.72099 3.8724 0
M  V30 1343 H 133.697 5.46674 1.72687 0
M  V30 1344 H 132.094 5.90515 1.06826 0
M  V30 1345 H 133.164 4.84724 0.130749 0
M  V30 1346 N 134.507 -0.190092 1.56449 0
M  V30 1347 C 135.756 -0.907912 1.80111 0
M  V30 1348 C 136.069 -1.84214 0.657619 0
M  V30 1349 O 137.275 -2.60094 0.778663 0
M  V30 1350 C 135.731 -1.66485 3.19078 0
M  V30 1351 C 135.339 -0.7752 4.41242 0
M  V30 1352 C 137.083 -2.37201 3.52045 0
M  V30 1353 C 134.99 -1.53129 5.71231 0
M  V30 1354 H 133.92 -0.34276 0.671589 0
M  V30 1355 H 136.571 -0.161109 1.82791 0
M  V30 1356 H 134.953 -2.45572 3.10661 0
M  V30 1357 H 136.127 -0.0226298 4.60794 0
M  V30 1358 H 134.442 -0.178627 4.16017 0
M  V30 1359 H 137.039 -2.94329 4.46402 0
M  V30 1360 H 137.382 -3.11632 2.76028 0
M  V30 1361 H 137.915 -1.65075 3.61932 0
M  V30 1362 H 134.654 -0.82967 6.50228 0
M  V30 1363 H 134.174 -2.25767 5.55688 0
M  V30 1364 H 135.853 -2.08377 6.12526 0
M  V30 1365 N 135.985 -1.50799 -0.457987 0
M  V30 1366 C 136.933 -1.71162 -1.575 0
M  V30 1367 C 137.927 -0.577592 -1.59249 0
M  V30 1368 O 139.133 -0.758443 -1.63241 0
M  V30 1369 H 135.508 -0.540468 -0.522875 0
M  V30 1370 H 137.479 -2.64837 -1.37492 0
M  V30 1371 C 136.228 -1.83496 -2.95338 0
M  V30 1372 H 135.551 -2.70153 -2.94716 0
M  V30 1373 H 136.991 -2.01765 -3.72917 0
M  V30 1374 C 135.45 -0.589694 -3.31699 0
M  V30 1375 O 135.98 0.265163 -4.00824 0
M  V30 1376 N 134.186 -0.439845 -2.87252 0
M  V30 1377 H 133.733 -1.13655 -2.31172 0
M  V30 1378 H 133.691 0.392159 -3.11945 0
M  V30 1379 N 137.463 0.71206 -1.40597 0
M  V30 1380 C 138.41 1.82613 -1.41142 0
M  V30 1381 C 139.38 1.63925 -0.267903 0
M  V30 1382 O 140.565 1.85009 -0.466495 0
M  V30 1383 C 137.705 3.20354 -1.28324 0
M  V30 1384 C 136.818 3.50589 -2.52411 0
M  V30 1385 C 135.953 4.77855 -2.32009 0
M  V30 1386 C 134.992 5.01005 -3.51654 0
M  V30 1387 N 134.129 6.19487 -3.30425 0
M  V30 1388 H 138.969 1.81482 -2.36365 0
M  V30 1389 H 136.506 0.886475 -1.17388 0
M  V30 1390 H 138.464 3.99899 -1.18899 0
M  V30 1391 H 137.094 3.20705 -0.367189 0
M  V30 1392 H 136.146 2.65573 -2.72351 0
M  V30 1393 H 137.458 3.63604 -3.41458 0
M  V30 1394 H 136.612 5.65424 -2.19956 0
M  V30 1395 H 135.351 4.67056 -1.40392 0
M  V30 1396 H 134.356 4.1189 -3.64179 0
M  V30 1397 H 135.581 5.13674 -4.44202 0
M  V30 1398 H 133.527 6.09932 -2.41494 0
M  V30 1399 H 133.444 6.33194 -4.13039 0
M  V30 1400 H 134.712 7.09834 -3.22113 0
M  V30 1401 N 138.941 1.26152 0.944643 0
M  V30 1402 C 140.19 1.10883 1.68487 0
M  V30 1403 C 140.503 -0.348153 1.92477 0
M  V30 1404 O 141.709 -0.621459 2.64292 0
M  V30 1405 C 140.165 1.93624 3.03377 0
M  V30 1406 C 139.773 3.43875 2.87148 0
M  V30 1407 C 141.517 1.86954 3.81115 0
M  V30 1408 C 139.424 4.18875 4.1749 0
M  V30 1409 H 138.354 0.41135 0.631907 0
M  V30 1410 H 141.005 1.50433 1.05082 0
M  V30 1411 H 139.387 1.46904 3.67743 0
M  V30 1412 H 140.561 3.98338 2.31653 0
M  V30 1413 H 138.876 3.51744 2.22856 0
M  V30 1414 H 141.473 2.40275 4.77673 0
M  V30 1415 H 141.816 0.839518 4.07747 0
M  V30 1416 H 142.349 2.31477 3.23517 0
M  V30 1417 H 139.088 5.22332 3.96043 0
M  V30 1418 H 138.608 3.69193 4.72712 0
M  V30 1419 H 140.287 4.27134 4.85968 0
M  V30 1420 N 140.419 -1.14872 1.07899 0
M  V30 1421 C 141.367 -2.21857 0.698727 0
M  V30 1422 C 142.361 -1.66845 -0.293086 0
M  V30 1423 O 143.567 -1.79321 -0.156204 0
M  V30 1424 H 139.942 -0.722691 0.207899 0
M  V30 1425 H 141.913 -2.51205 1.61054 0
M  V30 1426 C 140.662 -3.47498 0.11858 0
M  V30 1427 H 139.985 -3.90154 0.872914 0
M  V30 1428 H 141.425 -4.23858 -0.109759 0
M  V30 1429 C 139.884 -3.16947 -1.1422 0
M  V30 1430 O 140.414 -3.3426 -2.22785 0
M  V30 1431 N 138.62 -2.70946 -1.05055 0
M  V30 1432 H 138.167 -2.57058 -0.167038 0
M  V30 1433 H 138.125 -2.50879 -1.89491 0
M  V30 1434 N 141.898 -0.863906 -1.31812 0
M  V30 1435 C 143.175 -0.39275 -1.91616 0
M  V30 1436 C 143.555 1.12461 -1.7865 0
M  V30 1437 O 142.903 1.95045 -1.19037 0
M  V30 1438 C 143.113 -0.867385 -3.38049 0
M  V30 1439 C 144.461 -0.889966 -4.15168 0
M  V30 1440 O 145.485 -0.812635 -3.46806 0
M  V30 1441 O 144.344 -1.00079 -5.37258 0
M  V30 1442 H 141.438 -0.116358 -0.818773 0
M  V30 1443 H 143.984 -0.951418 -1.40521 0
M  V30 1444 H 142.756 -1.91081 -3.41473 0
M  V30 1445 H 142.379 -0.286687 -3.96565 0
M  V30 1446 N 143.376 1.44774 -0.622745 0
M  V30 1447 C 144.324 2.32387 0.0994683 0
M  V30 1448 C 145.318 1.46859 0.844326 0
M  V30 1449 O 146.524 1.63254 0.758174 0
M  V30 1450 H 142.899 0.750273 0.0509291 0
M  V30 1451 H 144.87 2.91062 -0.65767 0
M  V30 1452 C 143.619 3.30723 1.07319 0
M  V30 1453 H 142.942 3.96541 0.509462 0
M  V30 1454 H 144.382 3.94725 1.54817 0
M  V30 1455 C 142.841 2.59021 2.15429 0
M  V30 1456 O 143.371 2.38286 3.23393 0
M  V30 1457 N 141.577 2.189 1.91131 0
M  V30 1458 H 141.124 2.35964 1.03337 0
M  V30 1459 H 141.082 1.71251 2.63668 0
M  V30 1460 N 144.854 0.36279 1.53368 0
M  V30 1461 C 146.084 -0.228281 2.05335 0
M  V30 1462 C 146.492 -1.43226 1.23625 0
M  V30 1463 O 145.835 -1.81717 0.269206 0
M  V30 1464 C 145.897 -0.688549 3.52845 0
M  V30 1465 C 145.561 0.398362 4.5526 0
M  V30 1466 C 146.558 1.24732 5.04716 0
M  V30 1467 C 144.243 0.557805 4.99193 0
M  V30 1468 C 146.237 2.2411 5.96702 0
M  V30 1469 C 143.924 1.55495 5.90986 0
M  V30 1470 C 144.922 2.39503 6.39631 0
M  V30 1471 O 144.61 3.37517 7.29615 0
M  V30 1472 H 144.342 -0.044395 0.674541 0
M  V30 1473 H 146.896 0.518668 1.98744 0
M  V30 1474 H 145.126 -1.48706 3.56964 0
M  V30 1475 H 146.815 -1.20231 3.87685 0
M  V30 1476 H 147.581 1.13532 4.71525 0
M  V30 1477 H 143.46 -0.0862959 4.60919 0
M  V30 1478 H 147.004 2.89718 6.34594 0
M  V30 1479 H 142.901 1.66744 6.23592 0
M  V30 1480 H 143.669 3.33213 7.47604 0
M  V30 1481 N 146.332 -1.57332 0.0918853 0
M  V30 1482 C 147.579 -1.94236 -0.572577 0
M  V30 1483 C 147.907 -0.973398 -1.6839 0
M  V30 1484 O 147.162 0.00756912 -1.95699 0
M  V30 1485 C 147.461 -3.37689 -1.17051 0
M  V30 1486 C 147.127 -4.50527 -0.183304 0
M  V30 1487 C 145.789 -4.81119 0.0882276 0
M  V30 1488 C 148.141 -5.18883 0.49095 0
M  V30 1489 C 145.469 -5.77395 1.04076 0
M  V30 1490 C 147.821 -6.1618 1.43193 0
M  V30 1491 C 146.485 -6.45179 1.71173 0
M  V30 1492 H 145.755 -0.710762 -0.209521 0
M  V30 1493 H 148.402 -1.9077 0.167036 0
M  V30 1494 H 146.707 -3.37718 -1.9863 0
M  V30 1495 H 148.404 -3.63543 -1.69227 0
M  V30 1496 H 144.994 -4.26681 -0.405124 0
M  V30 1497 H 149.178 -4.95427 0.294312 0
M  V30 1498 H 144.434 -5.98179 1.26457 0
M  V30 1499 H 148.608 -6.68243 1.96023 0
M  V30 1500 H 146.235 -7.1959 2.4514 0
M  V30 1501 N 147.81 0.181792 -1.56548 0
M  V30 1502 C 149.035 0.920019 -1.85877 0
M  V30 1503 C 149.46 1.75494 -0.677021 0
M  V30 1504 O 148.818 1.77399 0.374056 0
M  V30 1505 C 148.866 1.78112 -3.13542 0
M  V30 1506 O 147.97 2.88152 -2.95029 0
M  V30 1507 H 147.311 0.258334 -0.611686 0
M  V30 1508 H 149.841 0.183092 -2.03779 0
M  V30 1509 H 149.851 2.18314 -3.44678 0
M  V30 1510 H 148.526 1.16777 -3.99169 0
M  V30 1511 H 147.103 2.51609 -2.75222 0
M  V30 1512 N 149.288 1.51039 0.449983 0
M  V30 1513 C 150.565 1.53612 1.21089 0
M  V30 1514 C 150.945 0.292997 2.09057 0
M  V30 1515 O 150.293 -0.72259 2.16774 0
M  V30 1516 C 150.503 2.84337 2.0237 0
M  V30 1517 C 151.851 3.35807 2.59843 0
M  V30 1518 O 152.875 2.85802 2.12593 0
M  V30 1519 O 151.734 4.23029 3.45989 0
M  V30 1520 H 148.828 0.617057 0.550608 0
M  V30 1521 H 151.374 1.63344 0.460082 0
M  V30 1522 H 150.146 3.66278 1.37681 0
M  V30 1523 H 149.769 2.77708 2.84542 0
M  V30 1524 N 150.766 -0.704594 1.40972 0
M  V30 1525 C 151.696 -1.83124 1.44872 0
M  V30 1526 C 152.677 -1.67281 0.30838 0
M  V30 1527 O 153.862 -1.87149 0.518556 0
M  V30 1528 C 150.992 -3.21181 1.32136 0
M  V30 1529 C 149.946 -3.51714 2.43888 0
M  V30 1530 C 149.272 -4.89032 2.16222 0
M  V30 1531 C 150.572 -3.516 3.86232 0
M  V30 1532 H 152.266 -1.80117 2.39161 0
M  V30 1533 H 149.812 -0.865145 1.15114 0
M  V30 1534 H 151.765 -3.99702 1.33479 0
M  V30 1535 H 150.489 -3.24791 0.343279 0
M  V30 1536 H 149.148 -2.75539 2.41813 0
M  V30 1537 H 148.796 -4.89256 1.16778 0
M  V30 1538 H 148.496 -5.10426 2.911 0
M  V30 1539 H 150.02 -5.69873 2.19265 0
M  V30 1540 H 151.434 -4.2014 3.9007 0
M  V30 1541 H 149.831 -3.84523 4.60719 0
M  V30 1542 H 150.901 -2.50757 4.15029 0
M  V30 1543 N 152.244 -1.26651 -0.937939 0
M  V30 1544 C 153.492 -1.12165 -1.68118 0
M  V30 1545 C 153.813 0.334983 -1.92101 0
M  V30 1546 O 153.083 1.23583 -1.52 0
M  V30 1547 H 151.663 -0.412093 -0.623048 0
M  V30 1548 H 154.325 -1.59027 -1.12678 0
M  V30 1549 H 153.421 -1.64289 -2.6536 0
M  V30 1550 N 153.722 1.14298 -1.08507 0
M  V30 1551 C 154.968 1.85633 -0.816581 0
M  V30 1552 C 155.301 1.82784 0.656021 0
M  V30 1553 O 154.576 1.25926 1.48233 0
M  V30 1554 C 154.859 3.34223 -1.34041 0
M  V30 1555 C 154.712 3.45639 -2.87843 0
M  V30 1556 C 156.031 4.29356 -0.9665 0
M  V30 1557 H 153.15 0.67402 -0.298104 0
M  V30 1558 H 155.792 1.34214 -1.34487 0
M  V30 1559 H 153.942 3.78144 -0.89104 0
M  V30 1560 H 155.614 3.10498 -3.41158 0
M  V30 1561 H 153.857 2.86817 -3.25451 0
M  V30 1562 H 154.528 4.50089 -3.19569 0
M  V30 1563 H 157.004 3.93457 -1.35391 0
M  V30 1564 H 155.88 5.3178 -1.3602 0
M  V30 1565 H 156.141 4.41919 0.126362 0
M  V30 1566 N 155.201 0.870884 1.31352 0
M  V30 1567 C 156.429 0.49677 2.00848 0
M  V30 1568 C 156.844 -0.910998 1.65367 0
M  V30 1569 O 156.201 -1.59696 0.883374 0
M  V30 1570 C 156.252 0.645308 3.55694 0
M  V30 1571 O 155.973 1.99764 3.89905 0
M  V30 1572 C 157.474 0.272326 4.42463 0
M  V30 1573 H 154.694 0.193462 0.642506 0
M  V30 1574 H 157.238 1.1723 1.67563 0
M  V30 1575 H 155.393 0.0173176 3.87396 0
M  V30 1576 H 155.807 2.00607 4.84621 0
M  V30 1577 H 157.281 0.427208 5.50344 0
M  V30 1578 H 157.758 -0.788587 4.32062 0
M  V30 1579 H 158.364 0.876054 4.1618 0
M  V30 1580 N 156.679 -1.44442 0.630414 0
M  V30 1581 C 157.642 -2.29107 -0.0652523 0
M  V30 1582 C 158.642 -1.41002 -0.772995 0
M  V30 1583 O 159.832 -1.62881 -0.617692 0
M  V30 1584 C 156.964 -3.22564 -1.10296 0
M  V30 1585 H 158.157 -2.92103 0.679401 0
M  V30 1586 H 155.71 -1.51343 0.390517 0
M  V30 1587 H 156.445 -2.64416 -1.87762 0
M  V30 1588 H 156.23 -3.87491 -0.59941 0
M  V30 1589 H 157.72 -3.86167 -1.5895 0
M  V30 1590 N 158.157 -0.370918 -1.53173 0
M  V30 1591 C 159.087 0.464847 -2.28826 0
M  V30 1592 C 160.068 1.07936 -1.31468 0
M  V30 1593 O 161.253 1.0956 -1.60344 0
M  V30 1594 C 158.383 1.60196 -3.08147 0
M  V30 1595 C 157.337 1.11443 -4.13237 0
M  V30 1596 C 156.663 2.3422 -4.80672 0
M  V30 1597 C 157.963 0.195384 -5.21934 0
M  V30 1598 H 159.657 -0.166329 -2.98938 0
M  V30 1599 H 157.203 -0.0814359 -1.4377 0
M  V30 1600 H 159.156 2.19332 -3.59822 0
M  V30 1601 H 157.88 2.26045 -2.35735 0
M  V30 1602 H 156.539 0.545727 -3.62515 0
M  V30 1603 H 156.187 2.98537 -4.04827 0
M  V30 1604 H 155.887 2.02269 -5.51689 0
M  V30 1605 H 157.411 2.94032 -5.35143 0
M  V30 1606 H 158.825 0.694375 -5.69079 0
M  V30 1607 H 157.222 -0.0335027 -6.00091 0
M  V30 1608 H 158.292 -0.760961 -4.78892 0
M  V30 1609 N 159.635 1.57281 -0.100228 0
M  V30 1610 C 160.881 1.95626 0.556946 0
M  V30 1611 C 161.236 0.981655 1.65473 0
M  V30 1612 O 160.529 0.00849847 1.91598 0
M  V30 1613 C 160.723 3.38305 1.15259 0
M  V30 1614 C 160.552 4.49555 0.114035 0
M  V30 1615 C 159.322 5.0434 -0.311266 0
M  V30 1616 C 161.52 5.10051 -0.659768 0
M  V30 1617 N 159.502 5.99152 -1.33755 0
M  V30 1618 C 160.873 6.00628 -1.53774 0
M  V30 1619 C 162.928 4.92772 -0.712723 0
M  V30 1620 C 161.631 6.7578 -2.46403 0
M  V30 1621 C 163.657 5.6859 -1.62663 0
M  V30 1622 C 163.019 6.58838 -2.49222 0
M  V30 1623 H 159.118 0.7624 0.173982 0
M  V30 1624 H 161.702 1.93829 -0.183988 0
M  V30 1625 H 159.873 3.40786 1.86332 0
M  V30 1626 H 161.605 3.63817 1.77254 0
M  V30 1627 H 158.36 4.73537 0.0774812 0
M  V30 1628 H 158.784 6.5126 -1.84905 0
M  V30 1629 H 163.426 4.22761 -0.0576648 0
M  V30 1630 H 161.144 7.4505 -3.12931 0
M  V30 1631 H 164.73 5.57233 -1.67281 0
M  V30 1632 H 163.61 7.16479 -3.18791 0
M  V30 1633 N 161.113 -0.173488 1.56642 0
M  V30 1634 C 162.362 -0.888758 1.81063 0
M  V30 1635 C 162.675 -1.83506 0.67712 0
M  V30 1636 O 163.881 -2.59254 0.806206 0
M  V30 1637 C 162.337 -1.63091 3.20826 0
M  V30 1638 C 161.945 -0.728357 4.4204 0
M  V30 1639 C 163.689 -2.33454 3.54541 0
M  V30 1640 C 161.596 -1.47062 5.72823 0
M  V30 1641 H 160.526 -0.335618 0.675186 0
M  V30 1642 H 163.177 -0.141712 1.82952 0
M  V30 1643 H 161.559 -2.42263 3.13248 0
M  V30 1644 H 162.733 0.0262449 4.60793 0
M  V30 1645 H 161.048 -0.134492 4.16183 0
M  V30 1646 H 163.645 -2.89578 4.49498 0
M  V30 1647 H 163.988 -3.08687 2.79317 0
M  V30 1648 H 164.521 -1.61227 3.63663 0
M  V30 1649 H 161.26 -0.760658 6.51072 0
M  V30 1650 H 160.78 -2.1986 5.58052 0
M  V30 1651 H 162.459 -2.01868 6.14702 0
M  V30 1652 N 162.591 -1.51276 -0.441967 0
M  V30 1653 C 163.816 -1.67799 -1.21895 0
M  V30 1654 C 164.241 -0.372864 -1.84367 0
M  V30 1655 O 163.599 0.666501 -1.68604 0
M  V30 1656 C 163.647 -2.79199 -2.28211 0
M  V30 1657 O 162.751 -2.42479 -3.33583 0
M  V30 1658 H 162.092 -0.559649 -0.357336 0
M  V30 1659 H 164.622 -1.97815 -0.522522 0
M  V30 1660 H 164.632 -3.03146 -2.73069 0
M  V30 1661 H 163.307 -3.73906 -1.82118 0
M  V30 1662 H 161.884 -2.29087 -2.94234 0
M  V30 1663 N 164.069 0.697108 -1.41344 0
M  V30 1664 C 165.001 1.8224 -1.39001 0
M  V30 1665 C 166.014 1.60152 -0.292428 0
M  V30 1666 O 167.203 1.69684 -0.554048 0
M  V30 1667 C 164.303 3.18976 -1.14489 0
M  V30 1668 C 163.476 3.68105 -2.36258 0
M  V30 1669 C 162.535 4.83506 -2.07625 0
M  V30 1670 O 161.561 4.95201 -2.8065 0
M  V30 1671 N 162.763 5.70637 -1.06555 0
M  V30 1672 H 165.528 1.84742 -2.35988 0
M  V30 1673 H 163.089 0.87937 -1.35936 0
M  V30 1674 H 165.081 3.93801 -0.932885 0
M  V30 1675 H 163.651 3.11508 -0.261043 0
M  V30 1676 H 162.871 2.84204 -2.7317 0
M  V30 1677 H 164.159 3.97667 -3.17393 0
M  V30 1678 H 163.557 5.63817 -0.461125 0
M  V30 1679 H 162.114 6.45368 -0.913444 0
M  V30 1680 N 165.547 1.27147 0.931209 0
M  V30 1681 C 166.958 1.12044 1.49342 0
M  V30 1682 C 167.309 -0.295795 1.93957 0
M  V30 1683 O 166.434 -1.18835 1.80852 0
M  V30 1684 C 167.029 2.02781 2.71414 0
M  V30 1685 C 165.588 1.91794 3.2387 0
M  V30 1686 C 164.735 1.95543 1.96617 0
M  V30 1687 H 167.686 1.40091 0.745672 0
M  V30 1688 H 167.707 1.58156 3.46074 0
M  V30 1689 H 167.219 3.05848 2.38911 0
M  V30 1690 H 165.32 0.916992 3.6114 0
M  V30 1691 H 165.433 2.77852 3.90302 0
M  V30 1692 H 163.797 1.39722 2.12955 0
M  V30 1693 H 164.58 3.00259 1.66432 0
M  V30 1694 N 167.025 -1.13721 1.09112 0
M  V30 1695 C 168.271 -1.85198 0.826414 0
M  V30 1696 C 168.604 -1.83129 -0.646319 0
M  V30 1697 O 167.879 -1.2671 -1.47563 0
M  V30 1698 C 168.162 -3.33507 1.35812 0
M  V30 1699 C 168.015 -3.44108 2.89672 0
M  V30 1700 C 169.334 -4.28838 0.989256 0
M  V30 1701 H 166.453 -0.67243 0.301675 0
M  V30 1702 H 169.095 -1.33499 1.35197 0
M  V30 1703 H 167.245 -3.77666 0.911082 0
M  V30 1704 H 168.917 -3.08684 3.428 0
M  V30 1705 H 167.16 -2.85087 3.26967 0
M  V30 1706 H 167.831 -4.48388 3.21951 0
M  V30 1707 H 170.307 -3.92734 1.37475 0
M  V30 1708 H 169.183 -5.31051 1.38838 0
M  V30 1709 H 169.444 -4.4198 -0.102924 0
M  V30 1710 N 168.503 -0.877838 -1.30888 0
M  V30 1711 C 169.413 -0.343096 -2.32078 0
M  V30 1712 C 170.429 0.551022 -1.65045 0
M  V30 1713 O 171.605 0.445854 -1.96403 0
M  V30 1714 C 168.67 0.439905 -3.43898 0
M  V30 1715 C 167.731 -0.483111 -4.26573 0
M  V30 1716 C 166.964 0.262616 -5.33053 0
M  V30 1717 O 167.187 1.48967 -5.50604 0
M  V30 1718 O 166.121 -0.383593 -6.00676 0
M  V30 1719 H 169.947 -1.18203 -2.79753 0
M  V30 1720 H 167.532 -0.64145 -1.34929 0
M  V30 1721 H 169.414 0.883504 -4.12034 0
M  V30 1722 H 168.089 1.25526 -2.98371 0
M  V30 1723 H 166.996 -0.975374 -3.61161 0
M  V30 1724 H 168.329 -1.26427 -4.75686 0
M  V30 1725 N 169.982 1.44106 -0.638065 0
M  V30 1726 C 170.93 2.3248 0.0748149 0
M  V30 1727 C 171.924 1.47746 0.828702 0
M  V30 1728 O 173.13 1.64049 0.740816 0
M  V30 1729 H 169.505 0.750771 0.0429686 0
M  V30 1730 H 171.476 2.90348 -0.688504 0
M  V30 1731 C 170.225 3.31843 1.03805 0
M  V30 1732 H 169.548 3.97059 0.467375 0
M  V30 1733 H 170.988 3.96345 1.50622 0
M  V30 1734 C 169.447 2.61291 2.1267 0
M  V30 1735 O 169.977 2.41702 3.20847 0
M  V30 1736 N 168.183 2.20915 1.88798 0
M  V30 1737 H 167.73 2.37047 1.00829 0
M  V30 1738 H 167.688 1.74038 2.61836 0
M  V30 1739 N 171.46 0.379036 1.52974 0
M  V30 1740 C 172.709 -0.207612 2.00629 0
M  V30 1741 C 173.022 -1.48758 1.27006 0
M  V30 1742 O 174.228 -2.15365 1.65318 0
M  V30 1743 C 172.684 -0.42053 3.57435 0
M  V30 1744 C 172.292 0.845587 4.39948 0
M  V30 1745 C 174.036 -0.964102 4.13407 0
M  V30 1746 C 171.943 0.601513 5.88333 0
M  V30 1747 H 170.873 -0.0813591 0.749598 0
M  V30 1748 H 173.524 0.499853 1.76561 0
M  V30 1749 H 171.906 -1.18959 3.7771 0
M  V30 1750 H 173.08 1.61848 4.31442 0
M  V30 1751 H 171.395 1.31336 3.95145 0
M  V30 1752 H 173.992 -1.16225 5.21916 0
M  V30 1753 H 174.335 -1.93019 3.68849 0
M  V30 1754 H 174.868 -0.25487 3.96983 0
M  V30 1755 H 171.607 1.53831 6.37194 0
M  V30 1756 H 171.127 -0.132628 5.99653 0
M  V30 1757 H 172.806 0.232134 6.46583 0
M  V30 1758 N 172.938 -1.57226 0.108567 0
M  V30 1759 C 174.185 -1.94833 -0.551943 0
M  V30 1760 C 174.513 -0.991204 -1.67348 0
M  V30 1761 O 173.768 -0.0131878 -1.95696 0
M  V30 1762 C 174.067 -3.38911 -1.13463 0
M  V30 1763 C 173.733 -4.50696 -0.135509 0
M  V30 1764 C 172.395 -4.80998 0.139252 0
M  V30 1765 C 174.747 -5.18333 0.545957 0
M  V30 1766 C 172.075 -5.76259 1.10194 0
M  V30 1767 C 174.427 -6.14627 1.49721 0
M  V30 1768 C 173.091 -6.43327 1.78006 0
M  V30 1769 H 172.361 -0.712944 -0.20197 0
M  V30 1770 H 175.008 -1.90582 0.18726 0
M  V30 1771 H 173.313 -3.39805 -1.95037 0
M  V30 1772 H 175.01 -3.65317 -1.65362 0
M  V30 1773 H 171.6 -4.27087 -0.359846 0
M  V30 1774 H 175.784 -4.95087 0.346842 0
M  V30 1775 H 171.04 -5.96804 1.32795 0
M  V30 1776 H 175.214 -6.66126 2.03099 0
M  V30 1777 H 172.841 -7.1695 2.52759 0
M  V30 1778 N 174.416 0.165178 -1.56732 0
M  V30 1779 C 175.379 1.18822 -1.95995 0
M  V30 1780 C 176.379 1.3685 -0.84431 0
M  V30 1781 O 177.569 1.34152 -1.11126 0
M  V30 1782 C 174.701 2.5521 -2.26011 0
M  V30 1783 H 175.894 0.851825 -2.87548 0
M  V30 1784 H 173.447 0.407857 -1.50885 0
M  V30 1785 H 174.182 2.93852 -1.37191 0
M  V30 1786 H 173.967 2.43489 -3.07336 0
M  V30 1787 H 175.457 3.28927 -2.57288 0
M  V30 1788 N 175.894 1.51508 0.433938 0
M  V30 1789 C 177.122 1.68157 1.20543 0
M  V30 1790 C 177.537 0.380362 1.84929 0
M  V30 1791 O 176.894 -0.641446 1.70856 0
M  V30 1792 C 176.945 2.79965 2.28696 0
M  V30 1793 O 176.666 4.05045 1.66943 0
M  V30 1794 C 178.167 3.07912 3.18912 0
M  V30 1795 H 175.387 0.56421 0.363191 0
M  V30 1796 H 177.931 1.97941 0.513754 0
M  V30 1797 H 176.086 2.5277 2.93574 0
M  V30 1798 H 176.5 4.67165 2.38448 0
M  V30 1799 H 177.974 3.89719 3.90926 0
M  V30 1800 H 178.451 2.20456 3.79863 0
M  V30 1801 H 179.057 3.36779 2.59731 0
M  V30 1802 N 177.372 -0.689602 1.41712 0
M  V30 1803 C 178.621 -1.44534 1.40686 0
M  V30 1804 C 178.934 -1.95588 0.0213352 0
M  V30 1805 O 180.14 -2.71271 -0.111534 0
M  V30 1806 C 178.596 -2.61387 2.47396 0
M  V30 1807 C 178.204 -2.17094 3.91885 0
M  V30 1808 C 179.948 -3.38986 2.55517 0
M  V30 1809 C 177.855 -3.3094 4.90135 0
M  V30 1810 H 176.785 -0.542925 0.52321 0
M  V30 1811 H 179.436 -0.748054 1.6756 0
M  V30 1812 H 177.818 -3.33412 2.13664 0
M  V30 1813 H 178.992 -1.52318 4.34897 0
M  V30 1814 H 177.307 -1.52473 3.8748 0
M  V30 1815 H 179.904 -4.23747 3.26102 0
M  V30 1816 H 180.247 -3.84578 1.59391 0
M  V30 1817 H 180.78 -2.74021 2.8837 0
M  V30 1818 H 177.519 -2.90355 5.87685 0
M  V30 1819 H 177.039 -3.94546 4.51767 0
M  V30 1820 H 178.718 -3.9663 5.11169 0
M  V30 1821 N 178.85 -1.27639 -0.924453 0
M  V30 1822 C 179.798 -1.10485 -2.04685 0
M  V30 1823 C 180.792 -0.0270421 -1.69378 0
M  V30 1824 O 181.998 -0.185008 -1.79047 0
M  V30 1825 H 178.373 -0.340546 -0.670472 0
M  V30 1826 H 180.344 -2.05566 -2.16298 0
M  V30 1827 C 179.093 -0.772229 -3.39016 0
M  V30 1828 H 178.416 -1.59351 -3.66671 0
M  V30 1829 H 179.856 -0.692097 -4.18313 0
M  V30 1830 C 178.315 0.523554 -3.32807 0
M  V30 1831 O 178.845 1.55702 -3.70297 0
M  V30 1832 N 177.051 0.520363 -2.85903 0
M  V30 1833 H 176.598 -0.32107 -2.55591 0
M  V30 1834 H 176.556 1.38742 -2.82131 0
M  V30 1835 N 180.328 1.1314 -1.09713 0
M  V30 1836 C 181.558 1.88048 -0.855656 0
M  V30 1837 C 181.966 1.79537 0.596919 0
M  V30 1838 O 181.309 1.16196 1.42282 0
M  V30 1839 C 181.371 3.38314 -1.21589 0
M  V30 1840 C 181.035 3.70605 -2.67397 0
M  V30 1841 C 182.032 3.69596 -3.65643 0
M  V30 1842 C 179.717 4.0017 -3.03593 0
M  V30 1843 C 181.711 3.977 -4.9811 0
M  V30 1844 C 179.398 4.27935 -4.36251 0
M  V30 1845 C 180.396 4.26685 -5.33318 0
M  V30 1846 O 180.084 4.53767 -6.63589 0
M  V30 1847 H 179.816 0.60208 -0.307368 0
M  V30 1848 H 182.37 1.44128 -1.46343 0
M  V30 1849 H 180.6 3.82752 -0.551177 0
M  V30 1850 H 182.289 3.94552 -0.953083 0
M  V30 1851 H 183.055 3.46826 -3.39023 0
M  V30 1852 H 178.934 4.00289 -2.2867 0
M  V30 1853 H 182.478 3.9664 -5.73866 0
M  V30 1854 H 178.375 4.50178 -4.62613 0
M  V30 1855 H 179.143 4.71422 -6.69107 0
M  V30 1856 N 181.806 0.884767 1.30421 0
M  V30 1857 C 183.031 0.517288 2.00845 0
M  V30 1858 C 183.456 -0.886779 1.65885 0
M  V30 1859 O 182.814 -1.58768 0.875354 0
M  V30 1860 C 182.862 0.698994 3.5376 0
M  V30 1861 O 181.966 -0.255208 4.1161 0
M  V30 1862 H 181.307 0.203872 0.631927 0
M  V30 1863 H 183.837 1.19225 1.66272 0
M  V30 1864 H 183.847 0.597912 4.03595 0
M  V30 1865 H 182.522 1.72271 3.78544 0
M  V30 1866 H 181.099 -0.10784 3.72744 0
M  V30 1867 N 183.284 -1.43765 0.645699 0
M  V30 1868 C 184.532 -2.01499 0.155731 0
M  V30 1869 C 184.853 -1.51151 -1.232 0
M  V30 1870 O 184.123 -0.721044 -1.82148 0
M  V30 1871 H 182.703 -0.745003 0.0545817 0
M  V30 1872 H 185.365 -1.76075 0.835677 0
M  V30 1873 H 184.461 -3.1181 0.134577 0
M  V30 1874 N 184.763 -0.387143 -1.52771 0
M  V30 1875 C 186.009 0.196025 -2.0185 0
M  V30 1876 C 186.342 1.46641 -1.27319 0
M  V30 1877 O 185.617 1.90889 -0.373032 0
M  V30 1878 C 185.9 0.466136 -3.5707 0
M  V30 1879 C 185.753 -0.819385 -4.42274 0
M  V30 1880 C 187.072 1.25768 -4.21747 0
M  V30 1881 H 184.191 0.0697708 -0.73369 0
M  V30 1882 H 186.833 -0.516286 -1.82851 0
M  V30 1883 H 184.983 1.07293 -3.7339 0
M  V30 1884 H 186.655 -1.4563 -4.37709 0
M  V30 1885 H 184.898 -1.43517 -4.09372 0
M  V30 1886 H 185.569 -0.585065 -5.48891 0
M  V30 1887 H 188.045 0.744167 -4.09391 0
M  V30 1888 H 186.921 1.41541 -5.30337 0
M  V30 1889 H 187.182 2.27228 -3.79236 0
M  V30 1890 N 186.241 1.57166 -0.116904 0
M  V30 1891 C 187.469 1.99473 0.549383 0
M  V30 1892 C 187.884 0.996541 1.60357 0
M  V30 1893 O 187.241 -0.0108731 1.82497 0
M  V30 1894 C 187.292 3.41788 1.17741 0
M  V30 1895 O 187.013 4.37788 0.165362 0
M  V30 1896 C 188.514 3.99216 1.92722 0
M  V30 1897 H 185.734 0.655009 0.145616 0
M  V30 1898 H 188.278 2.03494 -0.202625 0
M  V30 1899 H 186.433 3.38713 1.88021 0
M  V30 1900 H 186.847 5.20806 0.621403 0
M  V30 1901 H 188.321 5.00882 2.31995 0
M  V30 1902 H 188.798 3.3824 2.80161 0
M  V30 1903 H 189.404 4.0583 1.27209 0
M  V30 1904 N 187.719 -0.156864 1.56817 0
M  V30 1905 C 188.667 -1.21319 1.98455 0
M  V30 1906 C 189.661 -1.45025 0.875444 0
M  V30 1907 O 190.867 -1.45435 1.0606 0
M  V30 1908 H 187.242 -0.408142 0.631605 0
M  V30 1909 H 189.213 -0.835244 2.86472 0
M  V30 1910 C 187.962 -2.54148 2.37285 0
M  V30 1911 H 187.285 -2.36733 3.22176 0
M  V30 1912 H 188.725 -3.26712 2.70251 0
M  V30 1913 C 187.184 -3.13967 1.22173 0
M  V30 1914 O 187.714 -3.98357 0.517149 0
M  V30 1915 N 185.92 -2.7327 0.988536 0
M  V30 1916 H 185.467 -2.04744 1.56326 0
M  V30 1917 H 185.425 -3.13628 0.220209 0
M  V30 1918 N 189.197 -1.51736 -0.425897 0
M  V30 1919 C 190.425 -1.68794 -1.1965 0
M  V30 1920 C 190.84 -0.390164 -1.84725 0
M  V30 1921 O 190.197 0.632376 -1.71194 0
M  V30 1922 C 190.248 -2.81174 -2.27208 0
M  V30 1923 O 189.969 -4.05925 -1.64793 0
M  V30 1924 C 191.47 -3.09599 -3.17275 0
M  V30 1925 H 188.69 -0.566128 -0.360194 0
M  V30 1926 H 191.234 -1.98211 -0.503249 0
M  V30 1927 H 189.389 -2.54324 -2.9223 0
M  V30 1928 H 189.803 -4.68423 -2.35967 0
M  V30 1929 H 191.277 -3.91786 -3.88854 0
M  V30 1930 H 191.754 -2.22468 -3.78688 0
M  V30 1931 H 192.36 -3.38151 -2.57941 0
M  V30 1932 N 190.675 0.682077 -1.42076 0
M  V30 1933 C 191.638 1.77756 -1.44691 0
M  V30 1934 C 192.638 1.5726 -0.335535 0
M  V30 1935 O 193.828 1.63686 -0.596037 0
M  V30 1936 C 190.96 3.16301 -1.27146 0
M  V30 1937 H 192.153 1.76826 -2.42224 0
M  V30 1938 H 189.706 0.891012 -1.28416 0
M  V30 1939 H 190.441 3.22862 -0.305075 0
M  V30 1940 H 190.226 3.32581 -2.07683 0
M  V30 1941 H 191.716 3.96241 -1.31843 0
M  V30 1942 N 192.153 1.28127 0.917671 0
M  V30 1943 C 193.383 1.17722 1.6978 0
M  V30 1944 C 193.791 -0.267261 1.87303 0
M  V30 1945 O 193.134 -1.19286 1.39702 0
M  V30 1946 C 193.196 1.79958 3.11216 0
M  V30 1947 C 192.86 3.29187 3.16993 0
M  V30 1948 C 193.857 4.25679 2.98485 0
M  V30 1949 C 191.542 3.70075 3.39632 0
M  V30 1950 C 193.536 5.61035 3.02521 0
M  V30 1951 C 191.223 5.05557 3.433 0
M  V30 1952 C 192.221 6.00847 3.24764 0
M  V30 1953 O 191.909 7.33859 3.28187 0
M  V30 1954 H 191.641 0.409788 0.537634 0
M  V30 1955 H 194.195 1.69694 1.15728 0
M  V30 1956 H 192.425 1.22475 3.66793 0
M  V30 1957 H 194.114 1.64125 3.71238 0
M  V30 1958 H 194.88 3.95426 2.80826 0
M  V30 1959 H 190.759 2.96373 3.53106 0
M  V30 1960 H 194.303 6.35388 2.87971 0
M  V30 1961 H 190.2 5.35462 3.60486 0
M  V30 1962 H 190.968 7.42436 3.44575 0
M  V30 1963 N 193.631 -1.12557 1.10312 0
M  V30 1964 C 194.581 -2.16331 0.720076 0
M  V30 1965 C 195.565 -1.58616 -0.270115 0
M  V30 1966 O 196.757 -1.76823 -0.0790507 0
M  V30 1967 C 193.886 -3.42963 0.152113 0
M  V30 1968 C 192.972 -4.07663 1.16927 0
M  V30 1969 N 193.363 -4.47392 2.35953 0
M  V30 1970 C 191.661 -4.34425 1.0095 0
M  V30 1971 C 192.362 -4.97932 3.0073 0
M  V30 1972 N 191.338 -4.93358 2.28252 0
M  V30 1973 H 195.14 -2.44813 1.62616 0
M  V30 1974 H 192.654 -1.29449 0.980654 0
M  V30 1975 H 194.651 -4.16664 -0.14037 0
M  V30 1976 H 193.311 -3.1595 -0.748701 0
M  V30 1977 H 194.322 -4.39802 2.73486 0
M  V30 1978 H 190.999 -4.17177 0.164134 0
M  V30 1979 H 192.389 -5.38397 4.01969 0
M  V30 1980 N 195.109 -0.891671 -1.2995 0
M  V30 1981 C 196.357 -0.512486 -1.95494 0
M  V30 1982 C 196.678 0.942776 -1.70695 0
M  V30 1983 O 195.948 1.66374 -1.03424 0
M  V30 1984 H 194.528 -0.186533 -0.723336 0
M  V30 1985 H 197.19 -1.13621 -1.58355 0
M  V30 1986 H 196.286 -0.688342 -3.04415 0
M  V30 1987 N 196.587 1.43421 -0.653314 0
M  V30 1988 C 197.817 2.05864 -0.174238 0
M  V30 1989 C 198.225 1.49052 1.16534 0
M  V30 1990 O 197.568 0.616481 1.73047 0
M  V30 1991 C 197.63 3.59499 -0.00875873 0
M  V30 1992 C 197.294 4.38893 -1.27364 0
M  V30 1993 C 198.291 4.70947 -2.20239 0
M  V30 1994 C 195.976 4.789 -1.51525 0
M  V30 1995 C 197.97 5.41916 -3.35568 0
M  V30 1996 C 195.657 5.49614 -2.67147 0
M  V30 1997 C 196.655 5.81044 -3.58994 0
M  V30 1998 O 196.343 6.50313 -4.72597 0
M  V30 1999 H 196.075 0.670345 -0.0872549 0
M  V30 2000 H 198.629 1.84913 -0.894226 0
M  V30 2001 H 196.859 3.79025 0.7666 0
M  V30 2002 H 198.548 4.0364 0.427687 0
M  V30 2003 H 199.314 4.40558 -2.02815 0
M  V30 2004 H 195.193 4.53843 -0.809158 0
M  V30 2005 H 198.737 5.66365 -4.07279 0
M  V30 2006 H 194.634 5.79419 -2.84505 0
M  V30 2007 H 195.402 6.68795 -4.71864 0
M  V30 2008 N 198.065 0.39524 1.52563 0
M  V30 2009 C 199.311 -0.177763 2.02622 0
M  V30 2010 C 199.666 -1.43974 1.27629 0
M  V30 2011 O 198.959 -1.87995 0.36992 0
M  V30 2012 C 199.153 -0.493444 3.53977 0
M  V30 2013 C 198.982 0.736392 4.4363 0
M  V30 2014 C 197.752 1.25744 4.89404 0
M  V30 2015 C 199.95 1.61046 4.88435 0
M  V30 2016 N 197.932 2.44421 5.63145 0
M  V30 2017 C 199.303 2.64359 5.60816 0
M  V30 2018 C 201.358 1.62985 4.70468 0
M  V30 2019 C 200.061 3.69505 6.17137 0
M  V30 2020 C 202.087 2.67042 5.27677 0
M  V30 2021 C 201.449 3.69077 5.99968 0
M  V30 2022 H 197.548 -0.0269794 0.781534 0
M  V30 2023 H 200.132 0.546466 1.86874 0
M  V30 2024 H 198.303 -1.18672 3.69826 0
M  V30 2025 H 200.035 -1.05412 3.90731 0
M  V30 2026 H 196.79 0.817546 4.6649 0
M  V30 2027 H 197.214 3.04485 6.04663 0
M  V30 2028 H 201.856 0.854442 4.14076 0
M  V30 2029 H 199.574 4.4791 6.72608 0
M  V30 2030 H 203.16 2.69433 5.15652 0
M  V30 2031 H 202.04 4.48273 6.43444 0
M  V30 2032 N 199.544 -1.57102 0.125237 0
M  V30 2033 C 200.507 -2.14471 -0.80838 0
M  V30 2034 C 201.507 -1.0811 -1.19033 0
M  V30 2035 O 202.697 -1.33856 -1.11482 0
M  V30 2036 C 199.829 -2.69005 -2.09402 0
M  V30 2037 H 201.022 -2.98297 -0.309696 0
M  V30 2038 H 198.575 -1.55807 -0.124051 0
M  V30 2039 H 199.31 -1.88785 -2.63687 0
M  V30 2040 H 199.095 -3.46799 -1.82957 0
M  V30 2041 H 200.585 -3.13278 -2.76128 0
M  V30 2042 N 201.022 0.148545 -1.56898 0
M  V30 2043 C 202.438 0.501131 -1.51528 0
M  V30 2044 C 202.638 1.83458 -0.833399 0
M  V30 2045 O 201.694 2.49259 -0.40328 0
M  V30 2046 C 203.007 0.512864 -2.96294 0
M  V30 2047 C 204.555 0.598487 -3.07225 0
M  V30 2048 C 205.03 0.640897 -4.53494 0
M  V30 2049 N 206.521 0.703163 -4.57832 0
M  V30 2050 C 207.256 0.756935 -5.68382 0
M  V30 2051 N 206.752 0.770147 -6.88506 0
M  V30 2052 N 208.545 0.797698 -5.56411 0
M  V30 2053 H 200.696 -0.725532 -1.99624 0
M  V30 2054 H 202.959 -0.264358 -0.910395 0
M  V30 2055 H 202.665 -0.398691 -3.49433 0
M  V30 2056 H 202.539 1.35133 -3.52163 0
M  V30 2057 H 204.926 1.50046 -2.54106 0
M  V30 2058 H 205.007 -0.267093 -2.54402 0
M  V30 2059 H 204.651 -0.256915 -5.0725 0
M  V30 2060 H 204.581 1.52295 -5.04097 0
M  V30 2061 H 207.072 0.700314 -3.71354 0
M  V30 2062 H 207.385 0.812983 -7.68512 0
M  V30 2063 H 205.73 0.738049 -6.9107 0
M  V30 2064 H 208.921 0.784535 -4.61479 0
M  V30 2065 H 209.094 0.83614 -6.42583 0
M  V30 2066 N 202.5 1.5196 0.417844 0
M  V30 2067 C 203.777 1.56146 1.17803 0
M  V30 2068 C 204.157 0.337275 2.08388 0
M  V30 2069 O 203.505 -0.676447 2.18258 0
M  V30 2070 C 203.715 2.88566 1.96293 0
M  V30 2071 C 205.063 3.41244 2.52662 0
M  V30 2072 O 206.087 2.90247 2.06483 0
M  V30 2073 O 204.946 4.30273 3.36938 0
M  V30 2074 H 202.04 0.628598 0.537395 0
M  V30 2075 H 204.586 1.64283 0.425331 0
M  V30 2076 H 203.358 3.69116 1.2988 0
M  V30 2077 H 202.981 2.83681 2.78587 0
M  V30 2078 N 203.978 -0.674533 1.42435 0
M  V30 2079 C 205.225 -1.43459 1.42919 0
M  V30 2080 C 205.553 -1.94446 0.0457312 0
M  V30 2081 O 204.808 -1.7132 -0.94593 0
M  V30 2082 C 205.107 -2.64767 2.40069 0
M  V30 2083 C 204.773 -2.3232 3.86443 0
M  V30 2084 C 203.435 -2.23182 4.26314 0
M  V30 2085 C 205.787 -2.05977 4.78773 0
M  V30 2086 C 203.115 -1.85827 5.56494 0
M  V30 2087 C 205.467 -1.70125 6.09295 0
M  V30 2088 C 204.131 -1.59498 6.48164 0
M  V30 2089 H 203.401 -0.524952 0.522978 0
M  V30 2090 H 206.048 -0.769097 1.75377 0
M  V30 2091 H 204.353 -3.36349 2.00939 0
M  V30 2092 H 206.05 -3.22949 2.37707 0
M  V30 2093 H 202.64 -2.40334 3.54877 0
M  V30 2094 H 206.824 -2.11969 4.48757 0
M  V30 2095 H 202.08 -1.76168 5.8547 0
M  V30 2096 H 206.254 -1.48767 6.80324 0
M  V30 2097 H 203.881 -1.30322 7.48946 0
M  V30 2098 N 205.456 -1.28612 -0.910864 0
M  V30 2099 C 206.403 -1.12786 -2.01365 0
M  V30 2100 C 207.373 -0.024201 -1.66082 0
M  V30 2101 O 208.558 -0.189667 -1.89855 0
M  V30 2102 C 205.698 -0.798743 -3.35729 0
M  V30 2103 C 204.811 -1.98173 -3.83864 0
M  V30 2104 C 203.946 -1.59298 -5.06752 0
M  V30 2105 C 202.985 -2.74245 -5.47226 0
M  V30 2106 N 202.122 -2.35842 -6.61304 0
M  V30 2107 H 206.962 -2.07142 -2.14234 0
M  V30 2108 H 204.499 -1.03093 -1.0493 0
M  V30 2109 H 206.457 -0.588662 -4.13026 0
M  V30 2110 H 205.087 0.10789 -3.2262 0
M  V30 2111 H 204.139 -2.30386 -3.02699 0
M  V30 2112 H 205.451 -2.84343 -4.09818 0
M  V30 2113 H 204.605 -1.34513 -5.916 0
M  V30 2114 H 203.344 -0.702618 -4.82612 0
M  V30 2115 H 202.349 -2.99725 -4.60918 0
M  V30 2116 H 203.574 -3.63928 -5.73353 0
M  V30 2117 H 201.52 -1.49279 -6.38789 0
M  V30 2118 H 201.437 -3.15546 -6.86998 0
M  V30 2119 H 202.705 -2.14348 -7.4945 0
M  V30 2120 N 206.934 1.1197 -1.10907 0
M  V30 2121 C 207.881 2.17846 -0.762345 0
M  V30 2122 C 208.851 1.63995 0.263599 0
M  V30 2123 O 210.036 1.90273 0.141773 0
M  V30 2124 C 207.176 3.44487 -0.205651 0
M  V30 2125 C 206.289 4.12369 -1.28748 0
M  V30 2126 C 205.424 5.26674 -0.691919 0
M  V30 2127 C 204.463 5.86431 -1.75399 0
M  V30 2128 N 203.6 6.92142 -1.17833 0
M  V30 2129 H 208.44 2.46851 -1.6694 0
M  V30 2130 H 205.977 1.21188 -0.833776 0
M  V30 2131 H 207.935 4.16981 0.135037 0
M  V30 2132 H 206.565 3.15884 0.664613 0
M  V30 2133 H 205.617 3.38003 -1.74522 0
M  V30 2134 H 206.929 4.52844 -2.09125 0
M  V30 2135 H 206.083 6.05953 -0.300963 0
M  V30 2136 H 204.822 4.8749 0.143232 0
M  V30 2137 H 203.827 5.05835 -2.15432 0
M  V30 2138 H 205.052 6.27685 -2.59208 0
M  V30 2139 H 202.998 6.54985 -0.364725 0
M  V30 2140 H 202.915 7.31242 -1.91887 0
M  V30 2141 H 204.183 7.75237 -0.81408 0
M  V30 2142 N 208.412 0.89855 1.29475 0
M  V30 2143 C 209.64 0.539261 1.99749 0
M  V30 2144 C 210.055 -0.875716 1.67262 0
M  V30 2145 O 209.412 -1.57786 0.917049 0
M  V30 2146 C 209.463 0.72061 3.54245 0
M  V30 2147 O 209.184 2.07989 3.8558 0
M  V30 2148 C 210.685 0.366118 4.41786 0
M  V30 2149 H 207.905 0.207047 0.638258 0
M  V30 2150 H 210.449 1.20758 1.65039 0
M  V30 2151 H 208.604 0.0994862 3.87272 0
M  V30 2152 H 209.018 2.10841 4.80257 0
M  V30 2153 H 210.492 0.543848 5.49314 0
M  V30 2154 H 210.969 -0.696763 4.33638 0
M  V30 2155 H 211.575 0.964135 4.14228 0
M  V30 2156 N 209.89 -1.43072 0.660911 0
M  V30 2157 C 210.838 -2.32569 -0.0378199 0
M  V30 2158 C 211.832 -1.49046 -0.805092 0
M  V30 2159 O 213.038 -1.65206 -0.714624 0
M  V30 2160 H 209.413 -0.75136 -0.031019 0
M  V30 2161 H 211.384 -2.89216 0.734609 0
M  V30 2162 C 210.133 -3.33453 -0.985124 0
M  V30 2163 H 209.456 -3.97752 -0.404147 0
M  V30 2164 H 210.896 -3.98691 -1.44297 0
M  V30 2165 C 209.355 -2.64642 -2.08486 0
M  V30 2166 O 209.885 -2.46776 -3.16961 0
M  V30 2167 N 208.091 -2.23891 -1.8526 0
M  V30 2168 H 207.638 -2.38621 -0.970449 0
M  V30 2169 H 207.596 -1.78181 -2.59034 0
M  V30 2170 N 211.368 -0.403325 -1.52352 0
M  V30 2171 C 212.779 0.0675782 -1.86578 0
M  V30 2172 C 213.13 1.44941 -1.32236 0
M  V30 2173 O 212.255 2.06112 -0.659307 0
M  V30 2174 C 212.85 0.129404 -3.38553 0
M  V30 2175 C 211.409 0.544629 -3.72439 0
M  V30 2176 C 210.556 -0.284551 -2.75836 0
M  V30 2177 H 213.507 -0.620631 -1.46061 0
M  V30 2178 H 213.528 0.94581 -3.68558 0
M  V30 2179 H 213.04 -0.87645 -3.78074 0
M  V30 2180 H 211.141 1.55734 -3.38493 0
M  V30 2181 H 211.254 0.293046 -4.78203 0
M  V30 2182 H 209.618 0.252258 -2.53448 0
M  V30 2183 H 210.401 -1.28865 -3.18196 0
M  V30 2184 N 212.846 1.57033 -0.133567 0
M  V30 2185 C 214.076 1.99754 0.527429 0
M  V30 2186 C 214.484 1.01245 1.59832 0
M  V30 2187 O 213.827 -0.000645496 1.837 0
M  V30 2188 C 213.889 3.38903 1.19939 0
M  V30 2189 C 213.553 4.56174 0.274709 0
M  V30 2190 C 214.55 5.17563 -0.492398 0
M  V30 2191 C 212.235 5.01972 0.18153 0
M  V30 2192 C 214.229 6.2315 -1.34027 0
M  V30 2193 C 211.916 6.07416 -0.669958 0
M  V30 2194 C 212.914 6.67874 -1.42947 0
M  V30 2195 O 212.602 7.71279 -2.2668 0
M  V30 2196 H 212.334 0.660702 0.142999 0
M  V30 2197 H 214.888 2.04207 -0.221099 0
M  V30 2198 H 213.118 3.31248 1.99528 0
M  V30 2199 H 214.807 3.65818 1.75875 0
M  V30 2200 H 215.573 4.83087 -0.430367 0
M  V30 2201 H 211.452 4.54652 0.762422 0
M  V30 2202 H 214.996 6.70268 -1.93357 0
M  V30 2203 H 210.893 6.41321 -0.73333 0
M  V30 2204 H 211.661 7.88441 -2.1978 0
M  V30 2205 N 214.325 -0.140222 1.56975 0
M  V30 2206 C 215.572 -0.851687 1.83719 0
M  V30 2207 C 215.9 -1.80862 0.715485 0
M  V30 2208 O 215.155 -1.93464 -0.294956 0
M  V30 2209 C 215.454 -1.65386 3.16832 0
M  V30 2210 C 215.12 -0.843112 4.42947 0
M  V30 2211 C 213.782 -0.619464 4.77196 0
M  V30 2212 C 216.134 -0.276582 5.20466 0
M  V30 2213 C 213.462 0.181312 5.8642 0
M  V30 2214 C 215.814 0.51127 6.30531 0
M  V30 2215 C 214.478 0.745432 6.63325 0
M  V30 2216 H 213.748 -0.311654 0.672274 0
M  V30 2217 H 216.395 -0.115006 1.91154 0
M  V30 2218 H 214.7 -2.46084 3.04877 0
M  V30 2219 H 216.397 -2.20793 3.34741 0
M  V30 2220 H 212.987 -1.0275 4.16101 0
M  V30 2221 H 217.171 -0.436632 4.94376 0
M  V30 2222 H 212.427 0.372165 6.10266 0
M  V30 2223 H 216.601 0.957354 6.89788 0
M  V30 2224 H 214.228 1.36778 7.47794 0
M  V30 2225 N 215.803 -1.52179 -0.40978 0
M  V30 2226 C 217.051 -1.65878 -1.15451 0
M  V30 2227 C 217.372 -0.390771 -1.91044 0
M  V30 2228 O 216.642 0.594323 -1.86667 0
M  V30 2229 H 215.222 -0.611405 -0.429177 0
M  V30 2230 H 217.884 -1.89219 -0.467134 0
M  V30 2231 H 216.98 -2.49954 -1.86894 0
M  V30 2232 N 217.281 0.66697 -1.42791 0
M  V30 2233 C 218.509 1.45505 -1.47091 0
M  V30 2234 C 218.924 1.8861 -0.0845873 0
M  V30 2235 O 218.281 1.58632 0.90234 0
M  V30 2236 C 218.332 2.69906 -2.40485 0
M  V30 2237 O 218.053 2.28608 -3.73725 0
M  V30 2238 C 219.554 3.63396 -2.53886 0
M  V30 2239 H 216.774 0.447459 -0.500022 0
M  V30 2240 H 219.318 0.818866 -1.8739 0
M  V30 2241 H 217.473 3.29696 -2.03419 0
M  V30 2242 H 217.887 3.08997 -4.23817 0
M  V30 2243 H 219.361 4.47387 -3.2334 0
M  V30 2244 H 219.838 4.09824 -1.57927 0
M  V30 2245 H 220.444 3.09495 -2.91706 0
M  V30 2246 N 218.759 1.29093 0.90403 0
M  V30 2247 C 219.692 1.08176 2.00931 0
M  V30 2248 C 220.67 -0.005083 1.62599 0
M  V30 2249 O 221.854 0.144765 1.87943 0
M  V30 2250 C 218.981 0.645897 3.32484 0
M  V30 2251 C 218.027 1.73081 3.89801 0
M  V30 2252 S 218.86 3.32905 4.19446 0
M  V30 2253 C 220.016 2.91176 5.54046 0
M  V30 2254 H 220.249 2.01752 2.18365 0
M  V30 2255 H 217.782 1.13191 1.0501 0
M  V30 2256 H 219.74 0.401131 4.08535 0
M  V30 2257 H 218.401 -0.270188 3.12936 0
M  V30 2258 H 217.594 1.37768 4.84805 0
M  V30 2259 H 217.196 1.92888 3.20422 0
M  V30 2260 H 219.488 2.37952 6.34338 0
M  V30 2261 H 220.431 3.85014 5.94281 0
M  V30 2262 H 220.839 2.296 5.15698 0
M  V30 2263 N 220.237 -1.11381 1.11499 0
M  V30 2264 C 221.2 -2.15622 0.777153 0
M  V30 2265 C 222.2 -1.59504 -0.203779 0
M  V30 2266 O 223.39 -1.74188 0.020782 0
M  V30 2267 C 220.522 -3.40556 0.153116 0
M  V30 2268 H 221.715 -2.47021 1.70061 0
M  V30 2269 H 219.268 -1.26577 0.916952 0
M  V30 2270 H 220.003 -3.14767 -0.780536 0
M  V30 2271 H 219.788 -3.8257 0.859238 0
M  V30 2272 H 221.278 -4.17546 -0.0671044 0
M  V30 2273 N 221.715 -0.905404 -1.28997 0
M  V30 2274 C 222.992 -0.453513 -1.9027 0
M  V30 2275 C 223.372 1.06721 -1.82137 0
M  V30 2276 O 222.72 1.91159 -1.25182 0
M  V30 2277 C 222.93 -0.974494 -3.35119 0
M  V30 2278 C 224.278 -1.0216 -4.12127 0
M  V30 2279 O 225.302 -0.922557 -3.44046 0
M  V30 2280 O 224.161 -1.17121 -5.33802 0
M  V30 2281 H 221.255 -0.142347 -0.814657 0
M  V30 2282 H 223.801 -0.995642 -1.37423 0
M  V30 2283 H 222.573 -2.01848 -3.35221 0
M  V30 2284 H 222.196 -0.412706 -3.95452 0
M  V30 2285 N 223.193 1.4272 -0.668489 0
M  V30 2286 C 224.44 2.01624 -0.18814 0
M  V30 2287 C 224.768 1.5282 1.20317 0
M  V30 2288 O 224.023 0.718323 1.8204 0
M  V30 2289 C 224.322 3.57021 -0.164499 0
M  V30 2290 C 223.988 4.25232 -1.49962 0
M  V30 2291 C 222.65 4.4358 -1.8652 0
M  V30 2292 C 225.002 4.63727 -2.37921 0
M  V30 2293 C 222.33 4.97694 -3.10674 0
M  V30 2294 C 224.682 5.19218 -3.6138 0
M  V30 2295 C 223.346 5.3578 -3.98115 0
M  V30 2296 H 222.616 0.737795 -0.0688454 0
M  V30 2297 H 225.263 1.70991 -0.862225 0
M  V30 2298 H 223.568 3.87285 0.593079 0
M  V30 2299 H 225.265 4.00372 0.224271 0
M  V30 2300 H 221.855 4.11306 -1.20522 0
M  V30 2301 H 226.039 4.4923 -2.10964 0
M  V30 2302 H 221.295 5.08702 -3.39164 0
M  V30 2303 H 225.469 5.4799 -4.29743 0
M  V30 2304 H 223.096 5.77475 -4.94395 0
M  V30 2305 N 224.671 0.411399 1.52136 0
M  V30 2306 C 225.603 -0.448386 2.24771 0
M  V30 2307 C 226.616 -1.00828 1.27818 0
M  V30 2308 O 227.805 -0.906841 1.53749 0
M  V30 2309 C 224.905 -1.63636 2.96777 0
M  V30 2310 C 224.078 -1.19995 4.20618 0
M  V30 2311 C 223.137 -2.25509 4.75428 0
M  V30 2312 O 222.163 -1.86007 5.3795 0
M  V30 2313 N 223.365 -3.577 4.57199 0
M  V30 2314 H 226.13 0.174025 2.99194 0
M  V30 2315 H 223.691 0.238897 1.60128 0
M  V30 2316 H 225.683 -2.33793 3.30338 0
M  V30 2317 H 224.253 -2.16465 2.25526 0
M  V30 2318 H 223.473 -0.326421 3.92846 0
M  V30 2319 H 224.761 -0.885365 5.01038 0
M  V30 2320 H 224.159 -3.92543 4.07341 0
M  V30 2321 H 222.716 -4.23827 4.95191 0
M  V30 2322 N 226.149 -1.5696 0.141893 0
M  V30 2323 C 227.097 -2.17784 -0.816874 0
M  V30 2324 C 228.091 -1.1334 -1.25899 0
M  V30 2325 O 229.297 -1.316 -1.22806 0
M  V30 2326 H 225.672 -0.697278 -0.281615 0
M  V30 2327 H 227.643 -2.97087 -0.279621 0
M  V30 2328 C 226.392 -2.80983 -2.04802 0
M  V30 2329 H 225.715 -3.61062 -1.7168 0
M  V30 2330 H 227.155 -3.2705 -2.69841 0
M  V30 2331 C 225.614 -1.79228 -2.8527 0
M  V30 2332 O 226.144 -1.25962 -3.8144 0
M  V30 2333 N 224.35 -1.48647 -2.49704 0
M  V30 2334 H 223.897 -1.92155 -1.71564 0
M  V30 2335 H 223.855 -0.808115 -3.03837 0
M  V30 2336 N 227.627 0.131896 -1.57047 0
M  V30 2337 C 228.557 1.16384 -2.02428 0
M  V30 2338 C 229.538 1.43936 -0.90644 0
M  V30 2339 O 230.723 1.54599 -1.17528 0
M  V30 2340 C 227.853 2.49328 -2.4177 0
M  V30 2341 C 226.807 2.36266 -3.56879 0
M  V30 2342 C 226.133 3.74057 -3.8208 0
M  V30 2343 C 227.433 1.834 -4.89042 0
M  V30 2344 H 229.127 0.786433 -2.88887 0
M  V30 2345 H 226.673 0.376855 -1.38981 0
M  V30 2346 H 228.626 3.21759 -2.7212 0
M  V30 2347 H 227.35 2.88934 -1.52266 0
M  V30 2348 H 226.009 1.66286 -3.26718 0
M  V30 2349 H 225.657 4.11125 -2.89803 0
M  V30 2350 H 225.357 3.66174 -4.59554 0
M  V30 2351 H 226.881 4.48012 -4.1487 0
M  V30 2352 H 228.295 2.45636 -5.18011 0
M  V30 2353 H 226.692 1.8637 -5.70426 0
M  V30 2354 H 227.762 0.790662 -4.7841 0
M  V30 2355 N 229.106 1.52395 0.401703 0
M  V30 2356 C 230.355 1.66044 1.14509 0
M  V30 2357 C 230.668 0.400216 1.91462 0
M  V30 2358 O 231.874 0.416632 2.68284 0
M  V30 2359 C 230.33 2.93388 2.0845 0
M  V30 2360 C 229.938 4.26545 1.36978 0
M  V30 2361 C 231.682 3.16402 2.83001 0
M  V30 2362 C 229.589 5.45007 2.29611 0
M  V30 2363 H 228.519 0.618562 0.431158 0
M  V30 2364 H 231.17 1.78886 0.40892 0
M  V30 2365 H 229.552 2.74263 2.8565 0
M  V30 2366 H 230.726 4.56179 0.650916 0
M  V30 2367 H 229.041 4.09692 0.74438 0
M  V30 2368 H 231.638 4.02085 3.52465 0
M  V30 2369 H 231.981 2.30943 3.46368 0
M  V30 2370 H 232.514 3.36034 2.12898 0
M  V30 2371 H 229.253 6.32835 1.70879 0
M  V30 2372 H 228.773 5.19702 2.9945 0
M  V30 2373 H 230.452 5.7838 2.89974 0
M  V30 2374 N 230.584 -0.659388 1.43143 0
M  V30 2375 C 231.812 -1.44723 1.47861 0
M  V30 2376 C 232.227 -1.88563 0.0945886 0
M  V30 2377 O 231.584 -1.59108 -0.893915 0
M  V30 2378 C 231.635 -2.68627 2.41913 0
M  V30 2379 O 231.356 -2.26623 3.74932 0
M  V30 2380 C 232.857 -3.62045 2.55809 0
M  V30 2381 H 230.077 -0.444801 0.502387 0
M  V30 2382 H 232.621 -0.808916 1.87821 0
M  V30 2383 H 230.776 -3.28613 2.05164 0
M  V30 2384 H 231.19 -3.06745 4.2545 0
M  V30 2385 H 232.664 -4.45666 3.25708 0
M  V30 2386 H 233.141 -4.08981 1.60099 0
M  V30 2387 H 233.747 -3.07944 2.93344 0
M  V30 2388 N 232.062 -1.29571 -0.897171 0
M  V30 2389 C 233.29 -1.20583 -1.68129 0
M  V30 2390 C 233.705 0.233181 -1.87354 0
M  V30 2391 O 233.062 1.15579 -1.41236 0
M  V30 2392 C 233.113 -1.91772 -3.06441 0
M  V30 2393 O 232.834 -3.30053 -2.88091 0
M  V30 2394 C 234.335 -1.89291 -4.00854 0
M  V30 2395 H 231.555 -0.417826 -0.525036 0
M  V30 2396 H 234.099 -1.70987 -1.12177 0
M  V30 2397 H 232.254 -1.45196 -3.59161 0
M  V30 2398 H 232.668 -3.65942 -3.75748 0
M  V30 2399 H 234.142 -2.43662 -4.95311 0
M  V30 2400 H 234.619 -0.869014 -4.30517 0
M  V30 2401 H 235.225 -2.35622 -3.54066 0
M  V30 2402 N 233.54 1.10788 -1.12088 0
M  V30 2403 C 234.503 2.15207 -0.788577 0
M  V30 2404 C 235.503 1.59609 0.195317 0
M  V30 2405 O 236.693 1.74174 -0.0300193 0
M  V30 2406 C 233.825 3.4047 -0.171174 0
M  V30 2407 H 235.018 2.46116 -1.71368 0
M  V30 2408 H 232.571 1.26089 -0.923652 0
M  V30 2409 H 233.306 3.15176 0.763832 0
M  V30 2410 H 233.091 3.82109 -0.879514 0
M  V30 2411 H 234.581 4.17576 0.04496 0
M  V30 2412 N 235.018 0.912232 1.28515 0
M  V30 2413 C 235.968 0.370649 2.24967 0
M  V30 2414 C 236.952 -0.516375 1.52389 0
M  V30 2415 O 238.144 -0.356345 1.73376 0
M  V30 2416 C 235.273 -0.389526 3.41083 0
M  V30 2417 C 234.359 0.51313 4.20984 0
M  V30 2418 N 234.75 1.62604 4.78951 0
M  V30 2419 C 233.048 0.313235 4.44899 0
M  V30 2420 C 233.749 2.18619 5.39055 0
M  V30 2421 N 232.725 1.47765 5.23132 0
M  V30 2422 H 236.527 1.22061 2.67354 0
M  V30 2423 H 234.041 0.764712 1.43269 0
M  V30 2424 H 236.038 -0.794353 4.09262 0
M  V30 2425 H 234.698 -1.2366 3.0023 0
M  V30 2426 H 235.709 2.00864 4.77362 0
M  V30 2427 H 232.386 -0.494452 4.14562 0
M  V30 2428 H 233.776 3.12228 5.94948 0
M  V30 2429 N 236.496 -1.42363 0.676048 0
M  V30 2430 C 237.459 -2.29199 0.00766941 0
M  V30 2431 C 238.459 -1.43389 -0.727745 0
M  V30 2432 O 239.649 -1.64764 -0.56556 0
M  V30 2433 C 236.781 -3.2591 -0.999785 0
M  V30 2434 H 237.974 -2.89794 0.771988 0
M  V30 2435 H 235.527 -1.50024 0.438468 0
M  V30 2436 H 236.262 -2.70256 -1.79255 0
M  V30 2437 H 236.047 -3.89202 -0.475829 0
M  V30 2438 H 237.537 -3.91028 -1.46583 0
M  V30 2439 N 237.974 -0.419461 -1.51915 0
M  V30 2440 C 238.921 0.400927 -2.27291 0
M  V30 2441 C 239.891 1.03224 -1.30131 0
M  V30 2442 O 241.076 1.05455 -1.59009 0
M  V30 2443 C 238.216 1.50603 -3.10504 0
M  V30 2444 C 237.329 0.89462 -4.22635 0
M  V30 2445 C 236.464 1.97328 -4.93189 0
M  V30 2446 C 235.503 1.33935 -5.97267 0
M  V30 2447 N 234.64 2.3586 -6.61298 0
M  V30 2448 H 239.48 -0.248251 -2.96964 0
M  V30 2449 H 237.017 -0.134266 -1.46486 0
M  V30 2450 H 238.975 2.15783 -3.57062 0
M  V30 2451 H 237.605 2.12509 -2.42981 0
M  V30 2452 H 236.657 0.131583 -3.80172 0
M  V30 2453 H 237.969 0.391641 -4.9726 0
M  V30 2454 H 237.123 2.70211 -5.43204 0
M  V30 2455 H 235.862 2.50994 -4.18155 0
M  V30 2456 H 234.867 0.595896 -5.46561 0
M  V30 2457 H 236.092 0.810252 -6.74249 0
M  V30 2458 H 234.038 2.88639 -5.89087 0
M  V30 2459 H 233.955 1.90403 -7.3163 0
M  V30 2460 H 235.223 3.08282 -7.15949 0
M  V30 2461 N 239.452 1.56882 -0.150215 0
M  V30 2462 C 240.7 1.9584 0.499105 0
M  V30 2463 C 241.021 1.03623 1.65188 0
M  V30 2464 O 240.291 0.0984084 1.95653 0
M  V30 2465 H 238.871 0.723119 0.187373 0
M  V30 2466 H 241.533 1.9358 -0.226466 0
M  V30 2467 H 240.629 2.99638 0.873122 0
M  V30 2468 N 240.93 -0.123565 1.57115 0
M  V30 2469 C 242.179 -0.830704 1.83799 0
M  V30 2470 C 242.492 -1.81259 0.735158 0
M  V30 2471 O 243.698 -2.56558 0.888278 0
M  V30 2472 C 242.154 -1.52802 3.25852 0
M  V30 2473 C 241.762 -0.587356 4.44133 0
M  V30 2474 C 243.506 -2.22056 3.61789 0
M  V30 2475 C 241.413 -1.28764 5.77212 0
M  V30 2476 H 240.343 -0.313967 0.685522 0
M  V30 2477 H 242.994 -0.0834359 1.8331 0
M  V30 2478 H 241.376 -2.32175 3.20797 0
M  V30 2479 H 242.55 0.172829 4.60476 0
M  V30 2480 H 240.865 -0.00201892 4.164 0
M  V30 2481 H 243.462 -2.75131 4.58483 0
M  V30 2482 H 243.805 -2.99644 2.88997 0
M  V30 2483 H 244.338 -1.49576 3.68608 0
M  V30 2484 H 241.077 -0.55314 6.53162 0
M  V30 2485 H 240.597 -2.01995 5.64764 0
M  V30 2486 H 242.276 -1.8221 6.20813 0
M  V30 2487 N 242.408 -1.52605 -0.393616 0
M  V30 2488 C 243.355 -1.77055 -1.48054 0
M  V30 2489 C 244.325 -0.61358 -1.54352 0
M  V30 2490 O 245.51 -0.852806 -1.70681 0
M  V30 2491 C 242.65 -1.94108 -2.85335 0
M  V30 2492 C 241.763 -3.21792 -2.88226 0
M  V30 2493 C 240.898 -3.29188 -4.16904 0
M  V30 2494 C 239.937 -4.51013 -4.13828 0
M  V30 2495 N 239.074 -4.55716 -5.34105 0
M  V30 2496 H 243.914 -2.69815 -1.26506 0
M  V30 2497 H 241.451 -1.33683 -0.61379 0
M  V30 2498 H 243.409 -2.01979 -3.65049 0
M  V30 2499 H 242.039 -1.04713 -3.05344 0
M  V30 2500 H 241.091 -3.23015 -2.00911 0
M  V30 2501 H 242.403 -4.11557 -2.8182 0
M  V30 2502 H 241.557 -3.36216 -5.05018 0
M  V30 2503 H 240.296 -2.37389 -4.26026 0
M  V30 2504 H 239.301 -4.44115 -3.24102 0
M  V30 2505 H 240.526 -5.44123 -4.06333 0
M  V30 2506 H 238.472 -3.66807 -5.43865 0
M  V30 2507 H 238.389 -5.39346 -5.29756 0
M  V30 2508 H 239.657 -4.66993 -6.2413 0
M  V30 2509 N 243.887 0.651787 -1.4349 0
M  V30 2510 C 245.136 1.40754 -1.44469 0
M  V30 2511 C 245.449 1.95463 -0.0731845 0
M  V30 2512 O 246.655 2.71471 0.0395721 0
M  V30 2513 C 245.111 2.54735 -2.5424 0
M  V30 2514 C 244.719 2.06628 -3.97504 0
M  V30 2515 C 246.463 3.32092 -2.64414 0
M  V30 2516 C 244.37 3.17829 -4.98737 0
M  V30 2517 H 243.3 0.528862 -0.53742 0
M  V30 2518 H 245.951 0.703365 -1.69485 0
M  V30 2519 H 244.333 3.2763 -2.22428 0
M  V30 2520 H 245.507 1.40734 -4.38783 0
M  V30 2521 H 243.822 1.42146 -3.91387 0
M  V30 2522 H 246.419 4.14952 -3.37223 0
M  V30 2523 H 246.762 3.80217 -1.69532 0
M  V30 2524 H 247.295 2.66279 -2.95534 0
M  V30 2525 H 244.034 2.74671 -5.95177 0
M  V30 2526 H 243.554 3.82429 -4.62069 0
M  V30 2527 H 245.233 3.82937 -5.21505 0
M  V30 2528 N 245.365 1.30045 0.890287 0
M  V30 2529 C 246.611 1.18737 1.64406 0
M  V30 2530 C 246.944 -0.258525 1.92472 0
M  V30 2531 O 246.219 -1.18562 1.54186 0
M  V30 2532 C 246.502 2.01087 2.98724 0
M  V30 2533 C 246.355 3.53867 2.77665 0
M  V30 2534 C 247.674 1.84457 3.9958 0
M  V30 2535 H 244.793 0.432698 0.596608 0
M  V30 2536 H 247.435 1.5962 1.0306 0
M  V30 2537 H 245.585 1.66349 3.51084 0
M  V30 2538 H 247.257 3.98637 2.32133 0
M  V30 2539 H 245.5 3.78318 2.12269 0
M  V30 2540 H 246.171 4.06772 3.7315 0
M  V30 2541 H 248.647 2.14817 3.56361 0
M  V30 2542 H 247.523 2.44411 4.91482 0
M  V30 2543 H 247.784 0.802276 4.3476 0
M  V30 2544 N 246.843 -1.10192 1.12674 0
M  V30 2545 C 248.092 -1.81573 0.8783 0
M  V30 2546 C 248.405 -1.86249 -0.597557 0
M  V30 2547 O 249.611 -2.5386 -0.962681 0
M  V30 2548 C 248.067 -3.26149 1.52167 0
M  V30 2549 C 247.675 -3.29763 3.03249 0
M  V30 2550 C 249.419 -4.0234 1.3536 0
M  V30 2551 C 247.326 -4.68815 3.60508 0
M  V30 2552 H 246.256 -0.680394 0.324931 0
M  V30 2553 H 248.907 -1.23902 1.35353 0
M  V30 2554 H 247.289 -3.83832 0.974104 0
M  V30 2555 H 248.463 -2.8189 3.6452 0
M  V30 2556 H 246.778 -2.67059 3.19481 0
M  V30 2557 H 249.375 -5.05058 1.75559 0
M  V30 2558 H 249.718 -4.15235 0.297554 0
M  V30 2559 H 250.251 -3.51079 1.87052 0
M  V30 2560 H 246.99 -4.61121 4.65884 0
M  V30 2561 H 246.51 -5.17045 3.04014 0
M  V30 2562 H 248.189 -5.37785 3.59717 0
M  V30 2563 N 248.321 -0.919034 -1.28029 0
M  V30 2564 C 249.598 -0.473668 -1.89778 0
M  V30 2565 C 249.978 1.04783 -1.83259 0
M  V30 2566 O 249.326 1.8982 -1.27202 0
M  V30 2567 C 249.536 -1.00998 -3.34066 0
M  V30 2568 C 250.884 -1.06525 -4.1102 0
M  V30 2569 O 251.908 -0.958996 -3.43048 0
M  V30 2570 O 250.767 -1.22776 -5.3253 0
M  V30 2571 H 247.861 -0.15098 -0.813101 0
M  V30 2572 H 250.407 -1.01016 -1.36359 0
M  V30 2573 H 249.179 -2.05392 -3.33061 0
M  V30 2574 H 248.802 -0.454626 -3.94992 0
M  V30 2575 N 249.799 1.42003 -0.683588 0
M  V30 2576 C 251.046 2.01413 -0.209514 0
M  V30 2577 C 251.374 1.54088 1.1869 0
M  V30 2578 O 250.629 0.737591 1.81268 0
M  V30 2579 C 250.928 3.56827 -0.202357 0
M  V30 2580 C 250.594 4.23617 -1.54464 0
M  V30 2581 C 249.256 4.41577 -1.91215 0
M  V30 2582 C 251.608 4.61178 -2.42826 0
M  V30 2583 C 248.936 4.9437 -3.15935 0
M  V30 2584 C 251.288 5.15355 -3.66867 0
M  V30 2585 C 249.952 5.31528 -4.03776 0
M  V30 2586 H 249.222 0.737023 -0.0766668 0
M  V30 2587 H 251.869 1.70067 -0.880312 0
M  V30 2588 H 250.174 3.87892 0.551969 0
M  V30 2589 H 251.871 4.00588 0.181793 0
M  V30 2590 H 248.461 4.10004 -1.24877 0
M  V30 2591 H 252.645 4.46968 -2.15717 0
M  V30 2592 H 247.901 5.05076 -3.44541 0
M  V30 2593 H 252.075 5.43402 -4.35531 0
M  V30 2594 H 249.702 5.72199 -5.00492 0
M  V30 2595 N 251.277 0.427512 1.51691 0
M  V30 2596 C 252.24 -0.377132 2.26076 0
M  V30 2597 C 253.24 -0.958089 1.29141 0
M  V30 2598 O 254.43 -0.83408 1.52934 0
M  V30 2599 C 251.562 -1.53262 3.04506 0
M  V30 2600 H 252.755 0.27464 2.9864 0
M  V30 2601 H 250.308 0.180445 1.55255 0
M  V30 2602 H 251.043 -2.22072 2.36335 0
M  V30 2603 H 250.828 -1.12232 3.75694 0
M  V30 2604 H 252.318 -2.10135 3.60878 0
M  V30 2605 N 252.755 -1.56801 0.158532 0
M  V30 2606 C 254.166 -1.83189 -0.360366 0
M  V30 2607 C 254.517 -1.07778 -1.63946 0
M  V30 2608 O 253.642 -0.326718 -2.13919 0
M  V30 2609 C 254.237 -3.32297 -0.660595 0
M  V30 2610 C 252.796 -3.59227 -1.12398 0
M  V30 2611 C 251.943 -2.76877 -0.153097 0
M  V30 2612 H 254.894 -1.54008 0.383031 0
M  V30 2613 H 254.915 -3.4908 -1.51405 0
M  V30 2614 H 254.427 -3.87156 0.270527 0
M  V30 2615 H 252.528 -3.09766 -2.07064 0
M  V30 2616 H 252.641 -4.67632 -1.04197 0
M  V30 2617 H 251.005 -2.46319 -0.647983 0
M  V30 2618 H 251.788 -3.34511 0.77182 0
M  V30 2619 N 254.233 0.115231 -1.57178 0
M  V30 2620 C 255.181 1.16014 -2.01602 0
M  V30 2621 C 256.175 1.42653 -0.913587 0
M  V30 2622 O 257.381 1.42571 -1.09879 0
M  V30 2623 H 253.756 0.391252 -0.642204 0
M  V30 2624 H 255.727 0.758998 -2.88586 0
M  V30 2625 C 254.476 2.47767 -2.4394 0
M  V30 2626 H 253.799 2.28108 -3.28339 0
M  V30 2627 H 255.239 3.19432 -2.78818 0
M  V30 2628 C 253.698 3.10617 -1.30455 0
M  V30 2629 O 254.228 3.96846 -0.622585 0
M  V30 2630 N 252.434 2.70553 -1.06064 0
M  V30 2631 H 251.981 2.00527 -1.61699 0
M  V30 2632 H 251.939 3.12934 -0.303284 0
M  V30 2633 N 255.711 1.52812 0.385517 0
M  V30 2634 C 256.661 1.74219 1.47078 0
M  V30 2635 C 257.645 0.59632 1.49442 0
M  V30 2636 O 258.837 0.85428 1.5502 0
M  V30 2637 C 255.966 1.9176 2.84751 0
M  V30 2638 C 255.052 3.12289 2.86943 0
M  V30 2639 N 255.443 4.34575 2.58802 0
M  V30 2640 C 253.741 3.12605 3.1811 0
M  V30 2641 C 254.442 5.162 2.68166 0
M  V30 2642 N 253.418 4.51964 3.02043 0
M  V30 2643 H 257.22 2.6639 1.24152 0
M  V30 2644 H 254.734 1.51166 0.593504 0
M  V30 2645 H 256.731 2.05218 3.62893 0
M  V30 2646 H 255.391 1.00805 3.08656 0
M  V30 2647 H 256.402 4.62649 2.32759 0
M  V30 2648 H 253.079 2.31472 3.47458 0
M  V30 2649 H 254.469 6.23689 2.49923 0
M  V30 2650 N 257.189 -0.644168 1.43834 0
M  V30 2651 C 258.417 -1.43147 1.49387 0
M  V30 2652 C 258.832 -1.88452 0.114583 0
M  V30 2653 O 258.189 -1.60047 -0.876989 0
M  V30 2654 C 258.24 -2.66046 2.44748 0
M  V30 2655 O 257.961 -2.22633 3.77314 0
M  V30 2656 C 259.462 -3.59311 2.59635 0
M  V30 2657 H 256.682 -0.439447 0.507077 0
M  V30 2658 H 259.226 -0.78895 1.88669 0
M  V30 2659 H 257.381 -3.26418 2.08638 0
M  V30 2660 H 257.795 -3.02216 4.28679 0
M  V30 2661 H 259.269 -4.42187 3.30416 0
M  V30 2662 H 259.746 -4.07259 1.64427 0
M  V30 2663 H 260.352 -3.04816 2.96593 0
M  V30 2664 N 258.668 -1.30515 -0.883378 0
M  V30 2665 C 259.893 -1.22487 -1.67367 0
M  V30 2666 C 260.318 0.208767 -1.86938 0
M  V30 2667 O 259.676 1.15015 -1.40148 0
M  V30 2668 C 259.724 -1.96041 -3.02655 0
M  V30 2669 O 258.828 -1.28859 -3.91751 0
M  V30 2670 H 258.169 -0.423573 -0.511353 0
M  V30 2671 H 260.699 -1.72362 -1.10239 0
M  V30 2672 H 260.709 -2.05124 -3.52687 0
M  V30 2673 H 259.384 -3.00307 -2.8773 0
M  V30 2674 H 257.961 -1.28141 -3.50192 0
M  V30 2675 N 260.146 1.09593 -1.13257 0
M  V30 2676 C 261.557 1.63229 -0.906274 0
M  V30 2677 C 261.908 1.8811 0.557578 0
M  V30 2678 O 261.033 1.62953 1.42391 0
M  V30 2679 C 261.628 2.96535 -1.63867 0
M  V30 2680 C 260.187 3.47003 -1.45828 0
M  V30 2681 C 259.334 2.2145 -1.66898 0
M  V30 2682 H 262.285 0.92978 -1.28611 0
M  V30 2683 H 262.306 3.64411 -1.09476 0
M  V30 2684 H 261.818 2.78394 -2.70404 0
M  V30 2685 H 259.919 3.70272 -0.415848 0
M  V30 2686 H 260.032 4.24551 -2.2202 0
M  V30 2687 H 258.396 2.30022 -1.09371 0
M  V30 2688 H 259.179 2.0583 -2.74752 0
M  V30 2689 N 261.624 0.925811 1.2754 0
M  V30 2690 C 262.587 0.428129 2.25166 0
M  V30 2691 C 263.587 -0.452261 1.54309 0
M  V30 2692 O 264.777 -0.253608 1.72344 0
M  V30 2693 C 261.909 -0.384749 3.38722 0
M  V30 2694 H 263.102 1.29066 2.70706 0
M  V30 2695 H 260.655 0.706323 1.3943 0
M  V30 2696 H 261.39 -1.26618 2.98561 0
M  V30 2697 H 261.175 0.246454 3.91325 0
M  V30 2698 H 262.665 -0.723389 4.11287 0
M  V30 2699 N 263.102 -1.41638 0.69111 0
M  V30 2700 C 264.035 -2.28183 -0.0274913 0
M  V30 2701 C 265.013 -1.41984 -0.792424 0
M  V30 2702 O 266.197 -1.71415 -0.784169 0
M  V30 2703 C 263.324 -3.22135 -1.04628 0
M  V30 2704 C 262.37 -4.24848 -0.375037 0
M  V30 2705 S 263.203 -5.28231 0.879321 0
M  V30 2706 C 264.359 -6.25748 -0.137983 0
M  V30 2707 H 264.592 -2.88782 0.706553 0
M  V30 2708 H 262.125 -1.46709 0.481222 0
M  V30 2709 H 264.083 -3.76797 -1.62894 0
M  V30 2710 H 262.744 -2.6064 -1.75287 0
M  V30 2711 H 261.937 -4.90837 -1.14433 0
M  V30 2712 H 261.539 -3.73758 0.134434 0
M  V30 2713 H 263.831 -6.70188 -0.992659 0
M  V30 2714 H 264.774 -7.06417 0.487867 0
M  V30 2715 H 265.182 -5.62363 -0.490762 0
M  V30 2716 N 264.58 -0.43555 -1.51462 0
M  V30 2717 C 265.49 0.383001 -2.31453 0
M  V30 2718 C 266.506 1.02931 -1.4029 0
M  V30 2719 O 267.682 1.02507 -1.73362 0
M  V30 2720 C 264.747 1.47043 -3.13973 0
M  V30 2721 C 263.808 0.844433 -4.20913 0
M  V30 2722 C 263.041 1.88004 -4.9949 0
M  V30 2723 O 263.264 3.10199 -4.78678 0
M  V30 2724 O 262.198 1.47157 -5.83634 0
M  V30 2725 H 266.024 -0.269964 -3.02498 0
M  V30 2726 H 263.609 -0.19813 -1.4808 0
M  V30 2727 H 265.491 2.10113 -3.65281 0
M  V30 2728 H 264.166 2.10751 -2.45695 0
M  V30 2729 H 263.073 0.175729 -3.73687 0
M  V30 2730 H 264.406 0.250869 -4.9156 0
M  V30 2731 N 266.058 1.56714 -0.166846 0
M  V30 2732 C 267.286 2.0112 0.485644 0
M  V30 2733 C 267.701 1.04705 1.57106 0
M  V30 2734 O 267.058 0.0471923 1.82439 0
M  V30 2735 C 267.109 3.45361 1.06808 0
M  V30 2736 O 266.83 4.38092 0.0259995 0
M  V30 2737 C 268.331 4.05145 1.79924 0
M  V30 2738 H 265.551 0.65931 0.124704 0
M  V30 2739 H 268.095 2.02746 -0.267262 0
M  V30 2740 H 266.25 3.44524 1.7715 0
M  V30 2741 H 266.664 5.22519 0.455398 0
M  V30 2742 H 268.138 5.08009 2.15942 0
M  V30 2743 H 268.615 3.46982 2.69258 0
M  V30 2744 H 269.221 4.09672 1.14234 0
M  V30 2745 N 267.536 -0.106894 1.57237 0
M  V30 2746 C 268.813 -0.843526 1.76477 0
M  V30 2747 C 269.193 -1.97499 0.745464 0
M  V30 2748 O 268.541 -2.27357 -0.228306 0
M  V30 2749 C 268.751 -1.34903 3.21873 0
M  V30 2750 C 270.099 -1.79654 3.8472 0
M  V30 2751 O 271.123 -1.44554 3.2555 0
M  V30 2752 O 269.982 -2.44515 4.88748 0
M  V30 2753 H 267.076 -0.401468 0.723016 0
M  V30 2754 H 269.622 -0.0896927 1.69463 0
M  V30 2755 H 268.394 -0.53781 3.87586 0
M  V30 2756 H 268.017 -2.16522 3.33473 0
M  V30 2757 N 269.014 -1.53014 -0.377408 0
M  V30 2758 C 270.242 -1.72515 -1.14219 0
M  V30 2759 C 270.657 -0.448735 -1.8339 0
M  V30 2760 O 270.014 0.577592 -1.73119 0
M  V30 2761 C 270.065 -2.8826 -2.18148 0
M  V30 2762 O 269.786 -4.10962 -1.51795 0
M  V30 2763 C 271.287 -3.19536 -3.07264 0
M  V30 2764 H 268.507 -0.577301 -0.342001 0
M  V30 2765 H 271.051 -1.99712 -0.439935 0
M  V30 2766 H 269.206 -2.63492 -2.83991 0
M  V30 2767 H 269.62 -4.75693 -2.20945 0
M  V30 2768 H 271.094 -4.03959 -3.76193 0
M  V30 2769 H 271.571 -2.34403 -3.71419 0
M  V30 2770 H 272.177 -3.46186 -2.47053 0
M  V30 2771 N 270.492 0.636531 -1.44174 0
M  V30 2772 C 271.717 1.42847 -1.50364 0
M  V30 2773 C 272.142 1.87665 -0.127867 0
M  V30 2774 O 271.5 1.58408 0.88185 0
M  V30 2775 C 271.548 2.62854 -2.4686 0
M  V30 2776 O 270.652 3.62501 -1.9664 0
M  V30 2777 H 269.993 0.427642 -0.507955 0
M  V30 2778 H 272.523 0.777422 -1.89255 0
M  V30 2779 H 272.533 3.10465 -2.64718 0
M  V30 2780 H 271.208 2.29578 -3.46795 0
M  V30 2781 H 269.785 3.21735 -1.88523 0
M  V30 2782 N 271.97 1.30982 0.876444 0
M  V30 2783 C 273.217 1.20296 1.62896 0
M  V30 2784 C 273.545 -0.240395 1.93009 0
M  V30 2785 O 272.8 -1.18733 1.55567 0
M  V30 2786 C 273.099 1.98572 2.9716 0
M  V30 2787 C 272.765 3.48125 2.86566 0
M  V30 2788 C 271.427 3.88905 2.83383 0
M  V30 2789 C 273.779 4.43322 2.74071 0
M  V30 2790 C 271.107 5.2316 2.65556 0
M  V30 2791 C 273.459 5.77695 2.57781 0
M  V30 2792 C 272.123 6.17704 2.52979 0
M  V30 2793 H 271.393 0.440193 0.59608 0
M  V30 2794 H 274.04 1.62177 1.01837 0
M  V30 2795 H 272.345 1.49352 3.62217 0
M  V30 2796 H 274.042 1.8769 3.54364 0
M  V30 2797 H 270.632 3.15723 2.89856 0
M  V30 2798 H 274.816 4.12752 2.75589 0
M  V30 2799 H 270.072 5.53241 2.60259 0
M  V30 2800 H 274.246 6.51091 2.47089 0
M  V30 2801 H 271.873 7.21678 2.38924 0
M  V30 2802 N 273.449 -1.08991 1.13837 0
M  V30 2803 C 274.412 -2.13925 0.822715 0
M  V30 2804 C 275.412 -1.599 -0.1699 0
M  V30 2805 O 276.602 -1.74104 0.0577251 0
M  V30 2806 C 273.734 -3.40155 0.225318 0
M  V30 2807 H 274.927 -2.43358 1.75262 0
M  V30 2808 H 272.48 -1.24603 0.943594 0
M  V30 2809 H 273.215 -3.16352 -0.713594 0
M  V30 2810 H 273 -3.80661 0.940193 0
M  V30 2811 H 274.49 -4.17594 0.0214784 0
M  V30 2812 N 274.927 -0.932562 -1.27047 0
M  V30 2813 C 275.837 -0.441219 -2.30414 0
M  V30 2814 C 276.853 0.480525 -1.67233 0
M  V30 2815 O 278.029 0.362151 -1.98117 0
M  V30 2816 C 275.094 0.293651 -3.45454 0
M  V30 2817 C 274.155 -0.663601 -4.2414 0
M  V30 2818 C 273.388 0.0362932 -5.33688 0
M  V30 2819 O 273.611 1.2548 -5.56427 0
M  V30 2820 O 272.545 -0.638015 -5.98509 0
M  V30 2821 H 276.371 -1.29962 -2.74488 0
M  V30 2822 H 273.956 -0.6981 -1.32087 0
M  V30 2823 H 275.838 0.707951 -4.15411 0
M  V30 2824 H 274.513 1.12758 -3.03426 0
M  V30 2825 H 273.42 -1.12768 -3.56699 0
M  V30 2826 H 274.753 -1.46489 -4.69896 0
M  V30 2827 N 276.405 1.4127 -0.698611 0
M  V30 2828 C 277.353 2.32588 -0.023855 0
M  V30 2829 C 278.347 1.51128 0.765292 0
M  V30 2830 O 279.553 1.67043 0.670571 0
M  V30 2831 H 275.928 0.751918 0.0110871 0
M  V30 2832 H 277.899 2.87167 -0.811031 0
M  V30 2833 C 276.648 3.35947 0.896369 0
M  V30 2834 H 275.971 3.98684 0.298548 0
M  V30 2835 H 277.411 4.02376 1.33676 0
M  V30 2836 C 275.87 2.70076 2.01396 0
M  V30 2837 O 276.4 2.55093 3.10307 0
M  V30 2838 N 274.606 2.28724 1.79259 0
M  V30 2839 H 274.153 2.4111 0.906841 0
M  V30 2840 H 274.111 1.84986 2.54219 0
M  V30 2841 N 277.883 0.443576 1.51229 0
M  V30 2842 C 279.131 -0.120557 2.0174 0
M  V30 2843 C 279.452 -1.42665 1.32935 0
M  V30 2844 O 278.722 -1.9028 0.465866 0
M  V30 2845 H 277.302 -0.0475426 0.745486 0
M  V30 2846 H 279.964 0.587711 1.85828 0
M  V30 2847 H 279.06 -0.291972 3.10731 0
M  V30 2848 N 279.361 -1.56624 0.175154 0
M  V30 2849 C 280.777 -1.58571 -0.180966 0
M  V30 2850 C 280.977 -1.19065 -1.6256 0
M  V30 2851 O 280.033 -0.904044 -2.35761 0
M  V30 2852 C 281.346 -3.00522 0.103326 0
M  V30 2853 C 282.894 -3.12972 0.0418426 0
M  V30 2854 C 283.369 -4.57022 0.299175 0
M  V30 2855 N 284.86 -4.62541 0.247086 0
M  V30 2856 C 285.595 -5.71857 0.420318 0
M  V30 2857 N 285.091 -6.89717 0.652816 0
M  V30 2858 N 286.884 -5.60972 0.355957 0
M  V30 2859 H 279.035 -1.80589 1.11809 0
M  V30 2860 H 281.298 -0.837178 0.444788 0
M  V30 2861 H 281.004 -3.33916 1.10422 0
M  V30 2862 H 280.878 -3.72344 -0.603299 0
M  V30 2863 H 283.265 -2.79403 -0.949636 0
M  V30 2864 H 283.346 -2.43578 0.781238 0
M  V30 2865 H 282.99 -4.913 1.28788 0
M  V30 2866 H 282.92 -5.24579 -0.460876 0
M  V30 2867 H 285.411 -3.77829 0.0731895 0
M  V30 2868 H 285.724 -7.68911 0.774347 0
M  V30 2869 H 284.069 -6.91572 0.689476 0
M  V30 2870 H 287.26 -4.67773 0.174882 0
M  V30 2871 H 287.433 -6.46111 0.494388 0
M  V30 2872 N 280.839 0.0985539 -1.57292 0
M  V30 2873 C 281.769 1.12064 -2.04851 0
M  V30 2874 C 282.75 1.41981 -0.936767 0
M  V30 2875 O 283.935 1.52071 -1.20781 0
M  V30 2876 C 281.065 2.44144 -2.47004 0
M  V30 2877 C 280.019 2.28643 -3.6181 0
M  V30 2878 C 279.345 3.65869 -3.89929 0
M  V30 2879 C 280.645 1.72986 -4.92822 0
M  V30 2880 H 282.339 0.724979 -2.9049 0
M  V30 2881 H 279.885 0.34729 -1.39749 0
M  V30 2882 H 281.838 3.15914 -2.78884 0
M  V30 2883 H 280.562 2.85639 -1.5836 0
M  V30 2884 H 279.221 1.59318 -3.30172 0
M  V30 2885 H 278.869 4.04885 -2.98458 0
M  V30 2886 H 278.569 3.56344 -4.67218 0
M  V30 2887 H 280.093 4.39112 -4.2428 0
M  V30 2888 H 281.507 2.34593 -5.23105 0
M  V30 2889 H 279.904 1.74229 -5.74251 0
M  V30 2890 H 280.974 0.689007 -4.7998 0
M  V30 2891 N 282.317 1.53212 0.369288 0
M  V30 2892 C 283.547 1.72868 1.13139 0
M  V30 2893 C 283.955 0.455754 1.83629 0
M  V30 2894 O 283.298 -0.580861 1.74275 0
M  V30 2895 C 283.36 2.83667 2.20847 0
M  V30 2896 C 283.024 4.24142 1.70155 0
M  V30 2897 C 284.021 5.06619 1.16763 0
M  V30 2898 C 281.706 4.70539 1.7578 0
M  V30 2899 C 283.7 6.33581 0.696678 0
M  V30 2900 C 281.387 5.97481 1.28297 0
M  V30 2901 C 282.385 6.78833 0.753307 0
M  V30 2902 O 282.073 8.03393 0.285475 0
M  V30 2903 H 281.805 0.581707 0.344373 0
M  V30 2904 H 284.359 2.00736 0.435243 0
M  V30 2905 H 282.589 2.51265 2.93944 0
M  V30 2906 H 284.278 2.91536 2.82421 0
M  V30 2907 H 285.044 4.71948 1.11758 0
M  V30 2908 H 280.923 4.07293 2.15949 0
M  V30 2909 H 284.467 6.97027 0.282581 0
M  V30 2910 H 280.364 6.31651 1.32994 0
M  V30 2911 H 281.132 8.17497 0.405145 0
M  V30 2912 N 283.795 -0.628877 1.44509 0
M  V30 2913 C 285.072 -1.38733 1.37886 0
M  V30 2914 C 285.452 -2.11065 0.0387008 0
M  V30 2915 O 284.8 -2.06476 -0.97878 0
M  V30 2916 C 285.01 -2.35188 2.57852 0
M  V30 2917 C 286.358 -2.9845 3.02014 0
M  V30 2918 O 287.382 -2.45513 2.58073 0
M  V30 2919 O 286.241 -3.94487 3.78209 0
M  V30 2920 H 283.335 -0.621015 0.54614 0
M  V30 2921 H 285.881 -0.653744 1.56602 0
M  V30 2922 H 284.653 -1.80855 3.46998 0
M  V30 2923 H 284.276 -3.1596 2.4136 0
M  V30 2924 N 285.273 -1.31445 -0.869486 0
M  V30 2925 C 286.221 -1.19067 -1.99814 0
M  V30 2926 C 287.215 -0.0988569 -1.69111 0
M  V30 2927 O 288.421 -0.260781 -1.78101 0
M  V30 2928 H 284.796 -0.368677 -0.655425 0
M  V30 2929 H 286.767 -2.14555 -2.07385 0
M  V30 2930 C 285.516 -0.915323 -3.35436 0
M  V30 2931 H 284.839 -1.74759 -3.59582 0
M  V30 2932 H 286.279 -0.868895 -4.15001 0
M  V30 2933 C 284.738 0.381928 -3.34728 0
M  V30 2934 O 285.268 1.39857 -3.76567 0
M  V30 2935 N 283.474 0.398633 -2.87853 0
M  V30 2936 H 283.021 -0.429186 -2.54 0
M  V30 2937 H 282.979 1.26651 -2.87762 0
M  V30 2938 N 286.751 1.08385 -1.14413 0
M  V30 2939 C 287.999 1.80419 -0.910679 0
M  V30 2940 C 288.32 1.86658 0.564243 0
M  V30 2941 O 287.59 1.35985 1.41014 0
M  V30 2942 H 286.17 0.668204 -0.333934 0
M  V30 2943 H 288.832 1.31037 -1.44275 0
M  V30 2944 H 287.928 2.83238 -1.31082 0
M  V30 2945 N 288.23 0.939286 1.26551 0
M  V30 2946 C 289.458 0.602536 1.97932 0
M  V30 2947 C 289.873 -0.82206 1.69964 0
M  V30 2948 O 289.23 -1.54789 0.966784 0
M  V30 2949 C 289.281 0.832946 3.51773 0
M  V30 2950 O 289.002 2.20151 3.78768 0
M  V30 2951 C 290.503 0.506483 4.40397 0
M  V30 2952 H 287.723 0.227248 0.631347 0
M  V30 2953 H 290.267 1.25948 1.61113 0
M  V30 2954 H 288.422 0.222644 3.8676 0
M  V30 2955 H 288.836 2.26013 4.73306 0
M  V30 2956 H 290.31 0.718333 5.47306 0
M  V30 2957 H 290.787 -0.558451 4.35635 0
M  V30 2958 H 291.393 1.09543 4.10951 0
M  V30 2959 N 289.708 -1.40897 0.706093 0
M  V30 2960 C 290.638 -2.33418 0.0620085 0
M  V30 2961 C 291.619 -1.52385 -0.755827 0
M  V30 2962 O 292.804 -1.80886 -0.706674 0
M  V30 2963 C 289.934 -3.36293 -0.867445 0
M  V30 2964 C 288.888 -4.27716 -0.155932 0
M  V30 2965 C 288.214 -5.2105 -1.20046 0
M  V30 2966 C 289.514 -5.12944 0.984149 0
M  V30 2967 H 291.208 -2.87527 0.83477 0
M  V30 2968 H 288.754 -1.38249 0.402875 0
M  V30 2969 H 290.707 -3.99949 -1.32735 0
M  V30 2970 H 289.431 -2.80556 -1.67199 0
M  V30 2971 H 288.09 -3.65498 0.284047 0
M  V30 2972 H 287.738 -4.61624 -1.99781 0
M  V30 2973 H 287.438 -5.83056 -0.729328 0
M  V30 2974 H 288.962 -5.87584 -1.66066 0
M  V30 2975 H 290.376 -5.70109 0.604048 0
M  V30 2976 H 288.773 -5.83945 1.38304 0
M  V30 2977 H 289.843 -4.49485 1.81911 0
M  V30 2978 N 291.186 -0.45159 -1.50991 0
M  V30 2979 C 292.432 0.110237 -2.025 0
M  V30 2980 C 292.765 1.41109 -1.33424 0
M  V30 2981 O 292.04 1.89135 -0.453659 0
M  V30 2982 C 292.323 0.314271 -3.58726 0
M  V30 2983 C 292.176 -1.00623 -4.38401 0
M  V30 2984 C 293.495 1.07767 -4.26702 0
M  V30 2985 H 290.614 0.0385897 -0.735989 0
M  V30 2986 H 293.256 -0.593374 -1.80497 0
M  V30 2987 H 291.406 0.913601 -3.77605 0
M  V30 2988 H 293.078 -1.64064 -4.31139 0
M  V30 2989 H 291.321 -1.6075 -4.02917 0
M  V30 2990 H 291.992 -0.817341 -5.45915 0
M  V30 2991 H 294.468 0.56986 -4.12179 0
M  V30 2992 H 293.344 1.18921 -5.35863 0
M  V30 2993 H 293.605 2.10939 -3.88532 0
M  V30 2994 N 292.664 1.56529 -0.183458 0
M  V30 2995 C 293.912 1.96855 0.457452 0
M  V30 2996 C 294.233 1.07104 1.62953 0
M  V30 2997 O 293.503 0.139887 1.954 0
M  V30 2998 H 292.083 0.72693 0.171992 0
M  V30 2999 H 294.745 1.93056 -0.267476 0
M  V30 3000 H 293.841 3.01423 0.809368 0
M  V30 3001 N 294.142 -0.090211 1.57342 0
M  V30 3002 C 295.39 -0.791241 1.85967 0
M  V30 3003 C 295.711 -1.7903 0.772859 0
M  V30 3004 O 294.981 -1.94872 -0.200398 0
M  V30 3005 H 293.561 -0.295205 0.686195 0
M  V30 3006 H 296.223 -0.0706782 1.94772 0
M  V30 3007 H 295.319 -1.31882 2.82867 0
M  V30 3008 N 295.62 -1.53406 -0.361157 0
M  V30 3009 C 296.85 -1.73465 -1.1222 0
M  V30 3010 C 297.258 -0.465486 -1.83384 0
M  V30 3011 O 296.601 0.571611 -1.7458 0
M  V30 3012 C 296.663 -2.84834 -2.19339 0
M  V30 3013 C 296.327 -4.25038 -1.67903 0
M  V30 3014 C 297.324 -5.07231 -1.14074 0
M  V30 3015 C 295.009 -4.71464 -1.73282 0
M  V30 3016 C 297.003 -6.33942 -0.663068 0
M  V30 3017 C 294.69 -5.98153 -1.25127 0
M  V30 3018 C 295.688 -6.79223 -0.717296 0
M  V30 3019 O 295.376 -8.03533 -0.242865 0
M  V30 3020 H 295.108 -0.583526 -0.341283 0
M  V30 3021 H 297.662 -2.00964 -0.424591 0
M  V30 3022 H 295.892 -2.5282 -2.92607 0
M  V30 3023 H 297.581 -2.9303 -2.80871 0
M  V30 3024 H 298.347 -4.72534 -1.09254 0
M  V30 3025 H 294.226 -4.08432 -2.13786 0
M  V30 3026 H 297.77 -6.97167 -0.245612 0
M  V30 3027 H 293.667 -6.32347 -1.29642 0
M  V30 3028 H 294.435 -8.177 -0.361786 0
M  V30 3029 N 297.098 0.621204 -1.44841 0
M  V30 3030 C 298.326 1.40752 -1.51646 0
M  V30 3031 C 298.741 1.88246 -0.144549 0
M  V30 3032 O 298.098 1.61422 0.851416 0
M  V30 3033 C 298.149 2.62119 -2.4895 0
M  V30 3034 O 297.87 2.16602 -3.80808 0
M  V30 3035 C 299.371 3.55135 -2.65319 0
M  V30 3036 H 296.591 0.431325 -0.514004 0
M  V30 3037 H 299.135 0.758835 -1.899 0
M  V30 3038 H 297.29 3.23058 -2.13805 0
M  V30 3039 H 297.704 2.95358 -4.33433 0
M  V30 3040 H 299.178 4.36874 -3.37409 0
M  V30 3041 H 299.655 4.04592 -1.70886 0
M  V30 3042 H 300.261 3.00058 -3.01405 0
M  V30 3043 N 298.576 1.31904 0.862503 0
M  V30 3044 C 299.524 1.20125 1.9918 0
M  V30 3045 C 300.518 0.107824 1.69056 0
M  V30 3046 O 301.724 0.270223 1.7796 0
M  V30 3047 H 298.099 0.372148 0.65346 0
M  V30 3048 H 300.07 2.15652 2.06244 0
M  V30 3049 C 298.819 0.933099 3.34946 0
M  V30 3050 H 298.142 1.76664 3.5865 0
M  V30 3051 H 299.582 0.890892 4.14535 0
M  V30 3052 C 298.041 -0.364172 3.34926 0
M  V30 3053 O 298.571 -1.37858 3.77304 0
M  V30 3054 N 296.777 -0.383362 2.8806 0
M  V30 3055 H 296.324 0.442651 2.53768 0
M  V30 3056 H 296.282 -1.25123 2.8843 0
M  V30 3057 N 300.054 -1.07777 1.14986 0
M  V30 3058 C 301.331 -1.7699 0.832695 0
M  V30 3059 C 301.711 -2.001 -0.672561 0
M  V30 3060 O 301.059 -1.61598 -1.6155 0
M  V30 3061 C 301.269 -3.08139 1.63863 0
M  V30 3062 C 302.617 -3.8256 1.84208 0
M  V30 3063 O 303.641 -3.17939 1.60603 0
M  V30 3064 O 302.5 -4.98612 2.23714 0
M  V30 3065 H 299.594 -0.768389 0.305791 0
M  V30 3066 H 302.14 -1.14182 1.25541 0
M  V30 3067 H 300.912 -2.86909 2.6608 0
M  V30 3068 H 300.535 -3.78678 1.21197 0
M  V30 3069 N 301.532 -0.945985 -1.26051 0
M  V30 3070 C 302.76 -0.613025 -1.9761 0
M  V30 3071 C 303.175 0.813035 -1.70397 0
M  V30 3072 O 302.532 1.54274 -0.974979 0
M  V30 3073 C 302.583 -0.85159 -3.51326 0
M  V30 3074 O 302.304 -2.22157 -3.77595 0
M  V30 3075 C 303.805 -0.529831 -4.40122 0
M  V30 3076 H 301.025 -0.230593 -0.630133 0
M  V30 3077 H 303.569 -1.268 -1.60443 0
M  V30 3078 H 301.724 -0.243151 -3.86636 0
M  V30 3079 H 302.138 -2.2852 -4.721 0
M  V30 3080 H 303.612 -0.747348 -5.46917 0
M  V30 3081 H 304.089 0.535341 -4.35925 0
M  V30 3082 H 304.695 -1.11721 -4.10364 0
M  V30 3083 N 303.011 1.40521 -0.713556 0
M  V30 3084 C 303.959 2.32549 -0.0485227 0
M  V30 3085 C 304.953 1.51931 0.74922 0
M  V30 3086 O 306.159 1.67745 0.652816 0
M  V30 3087 H 302.534 0.751994 0.00311138 0
M  V30 3088 H 304.505 2.86291 -0.841443 0
M  V30 3089 C 303.254 3.36879 0.860687 0
M  V30 3090 H 302.577 3.98978 0.256246 0
M  V30 3091 H 304.017 4.03772 1.294 0
M  V30 3092 C 302.476 2.72197 1.9852 0
M  V30 3093 O 303.006 2.5837 3.07584 0
M  V30 3094 N 301.212 2.30612 1.76823 0
M  V30 3095 H 300.759 2.42059 0.881217 0
M  V30 3096 H 300.717 1.87672 2.52243 0
M  V30 3097 N 304.489 0.459591 1.5075 0
M  V30 3098 C 305.737 -0.0991532 2.01857 0
M  V30 3099 C 306.058 -1.41247 1.34441 0
M  V30 3100 O 305.328 -1.89775 0.486022 0
M  V30 3101 H 303.908 -0.039633 0.745948 0
M  V30 3102 H 306.57 0.607387 1.85194 0
M  V30 3103 H 305.666 -0.258998 3.11023 0
M  V30 3104 N 305.967 -1.56429 0.191757 0
M  V30 3105 C 307.197 -2.01574 -0.452928 0
M  V30 3106 C 307.605 -1.07107 -1.55964 0
M  V30 3107 O 306.948 -0.067534 -1.83576 0
M  V30 3108 C 307.01 -3.43121 -1.07278 0
M  V30 3109 C 306.674 -4.56879 -0.105214 0
M  V30 3110 C 307.671 -5.15379 0.684149 0
M  V30 3111 C 305.356 -5.023 0.00489824 0
M  V30 3112 C 307.35 -6.17746 1.57062 0
M  V30 3113 C 305.037 -6.04511 0.894935 0
M  V30 3114 C 306.035 -6.62108 1.67637 0
M  V30 3115 O 305.723 -7.62335 2.55149 0
M  V30 3116 H 305.455 -0.665554 -0.118379 0
M  V30 3117 H 308.009 -2.03245 0.296737 0
M  V30 3118 H 306.239 -3.38425 -1.87097 0
M  V30 3119 H 307.928 -3.72093 -1.62177 0
M  V30 3120 H 308.694 -4.81157 0.609365 0
M  V30 3121 H 304.573 -4.57168 -0.593156 0
M  V30 3122 H 308.117 -6.6263 2.181 0
M  V30 3123 H 304.014 -6.38157 0.970847 0
M  V30 3124 H 304.782 -7.79741 2.48892 0
M  V30 3125 N 307.445 0.0818655 -1.57387 0
M  V30 3126 C 308.692 0.782914 -1.86753 0
M  V30 3127 C 309.02 1.78082 -0.782118 0
M  V30 3128 O 308.275 1.94426 0.22295 0
M  V30 3129 C 308.574 1.53513 -3.22752 0
M  V30 3130 C 308.24 0.678134 -4.45771 0
M  V30 3131 C 306.902 0.441929 -4.79166 0
M  V30 3132 C 309.254 0.0832243 -5.21134 0
M  V30 3133 C 306.582 -0.398833 -5.85343 0
M  V30 3134 C 308.934 -0.744935 -6.28199 0
M  V30 3135 C 307.598 -0.991107 -6.60101 0
M  V30 3136 H 306.868 0.286489 -0.683378 0
M  V30 3137 H 309.515 0.0439808 -1.91449 0
M  V30 3138 H 307.82 2.34599 -3.138 0
M  V30 3139 H 309.517 2.08218 -3.42705 0
M  V30 3140 H 306.107 0.872357 -4.19628 0
M  V30 3141 H 310.291 0.252847 -4.95655 0
M  V30 3142 H 305.547 -0.598405 -6.08465 0
M  V30 3143 H 309.721 -1.21271 -6.8576 0
M  V30 3144 H 307.348 -1.64437 -7.42202 0
M  V30 3145 N 308.923 1.53595 0.353017 0
M  V30 3146 C 309.873 1.77299 1.43349 0
M  V30 3147 C 310.857 0.627884 1.48143 0
M  V30 3148 O 312.049 0.88697 1.53173 0
M  V30 3149 C 309.178 1.97757 2.80619 0
M  V30 3150 C 308.264 3.18305 2.80254 0
M  V30 3151 N 308.655 4.39967 2.49526 0
M  V30 3152 C 306.953 3.19283 3.11407 0
M  V30 3153 C 307.654 5.21772 2.57156 0
M  V30 3154 N 306.63 4.58269 2.92388 0
M  V30 3155 H 310.432 2.68963 1.18474 0
M  V30 3156 H 307.946 1.52391 0.561306 0
M  V30 3157 H 309.943 2.1287 3.58458 0
M  V30 3158 H 308.603 1.07329 3.06448 0
M  V30 3159 H 309.614 4.67482 2.22893 0
M  V30 3160 H 306.291 2.3879 3.4247 0
M  V30 3161 H 307.681 6.2885 2.36638 0
M  V30 3162 N 310.401 -0.613514 1.45168 0
M  V30 3163 C 311.351 -1.71871 1.49815 0
M  V30 3164 C 312.335 -1.56774 0.362021 0
M  V30 3165 O 313.527 -1.66212 0.608493 0
M  V30 3166 C 310.656 -3.1061 1.46207 0
M  V30 3167 C 309.742 -3.31114 2.64999 0
M  V30 3168 N 310.133 -3.21904 3.90143 0
M  V30 3169 C 308.431 -3.61966 2.6057 0
M  V30 3170 C 309.132 -3.43577 4.69393 0
M  V30 3171 N 308.108 -3.67287 4.00751 0
M  V30 3172 H 311.91 -1.63235 2.444 0
M  V30 3173 H 309.424 -0.816577 1.40377 0
M  V30 3174 H 311.421 -3.8989 1.4762 0
M  V30 3175 H 310.081 -3.20399 0.52673 0
M  V30 3176 H 311.092 -3.00436 4.21852 0
M  V30 3177 H 307.769 -3.78629 1.75916 0
M  V30 3178 H 309.159 -3.41901 5.78406 0
M  V30 3179 N 311.879 -1.3236 -0.855495 0
M  V30 3180 C 312.827 -1.2118 -1.9854 0
M  V30 3181 C 313.821 -0.116788 -1.68997 0
M  V30 3182 O 315.027 -0.279657 -1.77814 0
M  V30 3183 H 311.402 -0.375608 -0.651477 0
M  V30 3184 H 313.373 -2.16743 -2.05098 0
M  V30 3185 C 312.122 -0.950849 -3.34446 0
M  V30 3186 H 311.445 -1.78563 -3.57708 0
M  V30 3187 H 312.885 -0.912863 -4.14057 0
M  V30 3188 C 311.344 0.346404 -3.35114 0
M  V30 3189 O 311.874 1.35855 -3.7803 0
M  V30 3190 N 310.08 0.36808 -2.88259 0
M  V30 3191 H 309.627 -0.456102 -2.5353 0
M  V30 3192 H 309.585 1.23591 -2.89089 0
M  V30 3193 N 313.357 1.07166 -1.15556 0
M  V30 3194 C 314.605 1.79443 -0.929764 0
M  V30 3195 C 314.926 1.87246 0.544414 0
M  V30 3196 O 314.196 1.37473 1.39564 0
M  V30 3197 H 312.776 0.664625 -0.341003 0
M  V30 3198 H 315.438 1.29499 -1.45657 0
M  V30 3199 H 314.534 2.81832 -1.34079 0
M  V30 3200 N 314.835 0.952656 1.25548 0
M  V30 3201 C 316.083 0.605176 1.92826 0
M  V30 3202 C 316.404 -0.860261 1.74999 0
M  V30 3203 O 315.674 -1.6125 1.11244 0
M  V30 3204 H 314.254 0.220832 0.713612 0
M  V30 3205 H 316.916 1.21047 1.52754 0
M  V30 3206 H 316.012 0.832798 3.00784 0
M  V30 3207 N 316.313 -1.40141 0.720998 0
M  V30 3208 C 317.538 -2.05618 0.271258 0
M  V30 3209 C 317.963 -1.53978 -1.08039 0
M  V30 3210 O 317.321 -0.677463 -1.68167 0
M  V30 3211 C 317.369 -3.59609 0.267197 0
M  V30 3212 O 316.473 -4.05526 -0.749814 0
M  V30 3213 H 315.814 -0.651904 0.126162 0
M  V30 3214 H 318.344 -1.79439 0.982997 0
M  V30 3215 H 318.354 -4.0786 0.106744 0
M  V30 3216 H 317.029 -3.96559 1.25354 0
M  V30 3217 H 315.606 -3.68722 -0.556644 0
M  V30 3218 N 317.792 -0.46758 -1.50504 0
M  V30 3219 C 319.069 0.15003 -1.95024 0
M  V30 3220 C 319.449 1.57304 -1.40779 0
M  V30 3221 O 318.797 2.20281 -0.607319 0
M  V30 3222 C 319.007 0.0969324 -3.48865 0
M  V30 3223 C 320.355 0.287565 -4.23625 0
M  V30 3224 O 321.379 0.173678 -3.55776 0
M  V30 3225 O 320.238 0.517186 -5.44047 0
M  V30 3226 H 317.332 0.113582 -0.819163 0
M  V30 3227 H 319.878 -0.52773 -1.61286 0
M  V30 3228 H 318.65 -0.896732 -3.80886 0
M  V30 3229 H 318.273 0.816303 -3.8913 0
M  V30 3230 N 319.27 1.56325 -0.20005 0
M  V30 3231 C 320.517 1.97719 0.437411 0
M  V30 3232 C 320.845 1.08709 1.61284 0
M  V30 3233 O 320.1 0.127261 1.95286 0
M  V30 3234 C 320.399 3.4495 0.935103 0
M  V30 3235 C 320.065 4.5072 -0.12749 0
M  V30 3236 C 318.727 4.79368 -0.419451 0
M  V30 3237 C 321.079 5.14268 -0.847231 0
M  V30 3238 C 318.407 5.68854 -1.43604 0
M  V30 3239 C 320.759 6.04852 -1.85301 0
M  V30 3240 C 319.423 6.31855 -2.15211 0
M  V30 3241 H 318.693 0.723507 0.16006 0
M  V30 3242 H 321.34 1.89166 -0.298056 0
M  V30 3243 H 319.645 3.50599 1.74894 0
M  V30 3244 H 321.342 3.74337 1.43781 0
M  V30 3245 H 317.932 4.28458 0.11023 0
M  V30 3246 H 322.116 4.92222 -0.634901 0
M  V30 3247 H 317.372 5.88047 -1.67364 0
M  V30 3248 H 321.546 6.53152 -2.41591 0
M  V30 3249 H 319.173 7.00994 -2.94129 0
M  V30 3250 N 320.748 -0.0735177 1.57428 0
M  V30 3251 C 321.973 -0.789787 1.91774 0
M  V30 3252 C 322.398 -1.70413 0.796306 0
M  V30 3253 O 321.756 -1.79555 -0.250961 0
M  V30 3254 C 321.804 -1.5609 3.25067 0
M  V30 3255 O 320.908 -2.67144 3.14178 0
M  V30 3256 H 320.249 -0.215582 0.628029 0
M  V30 3257 H 322.779 -0.0422781 2.04556 0
M  V30 3258 H 322.789 -1.94052 3.58898 0
M  V30 3259 H 321.464 -0.890015 4.06265 0
M  V30 3260 H 320.041 -2.32052 2.91901 0
M  V30 3261 N 322.226 -1.5378 -0.344866 0
M  V30 3262 C 323.451 -1.75211 -1.10977 0
M  V30 3263 C 323.876 -0.48936 -1.81623 0
M  V30 3264 O 323.234 0.557925 -1.72502 0
M  V30 3265 C 323.282 -2.93147 -2.09993 0
M  V30 3266 O 322.386 -2.63203 -3.17487 0
M  V30 3267 H 321.727 -0.581241 -0.321021 0
M  V30 3268 H 324.257 -2.00738 -0.395661 0
M  V30 3269 H 324.267 -3.19898 -2.53237 0
M  V30 3270 H 322.942 -3.84731 -1.5797 0
M  V30 3271 H 321.519 -2.47336 -2.79069 0
M  V30 3272 N 323.704 0.605807 -1.45491 0
M  V30 3273 C 324.634 1.72709 -1.57143 0
M  V30 3274 C 325.615 1.6476 -0.422884 0
M  V30 3275 O 326.8 1.83132 -0.646247 0
M  V30 3276 C 323.93 3.11316 -1.53948 0
M  V30 3277 C 322.884 3.34077 -2.67537 0
M  V30 3278 C 322.21 4.72975 -2.49397 0
M  V30 3279 C 323.51 3.24158 -4.09535 0
M  V30 3280 H 325.204 1.63214 -2.51001 0
M  V30 3281 H 322.75 0.78379 -1.208 0
M  V30 3282 H 324.703 3.89557 -1.60696 0
M  V30 3283 H 323.427 3.21655 -0.566205 0
M  V30 3284 H 322.086 2.58227 -2.6022 0
M  V30 3285 H 321.734 4.8005 -1.50205 0
M  V30 3286 H 321.434 4.8916 -3.25571 0
M  V30 3287 H 322.958 5.53414 -2.58002 0
M  V30 3288 H 324.372 3.92271 -4.18086 0
M  V30 3289 H 322.769 3.51872 -4.86113 0
M  V30 3290 H 323.839 2.2157 -4.31317 0
M  V30 3291 N 325.182 1.32811 0.848464 0
M  V30 3292 C 326.092 1.24278 1.98978 0
M  V30 3293 C 327.108 0.155176 1.73307 0
M  V30 3294 O 328.284 0.376999 1.9784 0
M  V30 3295 C 325.349 0.972444 3.32783 0
M  V30 3296 C 324.41 2.14911 3.71634 0
M  V30 3297 C 323.643 1.89157 4.99054 0
M  V30 3298 O 323.866 0.837165 5.64223 0
M  V30 3299 O 322.8 2.75433 5.35183 0
M  V30 3300 H 326.626 2.20238 2.09115 0
M  V30 3301 H 324.211 1.12762 0.980052 0
M  V30 3302 H 326.093 0.838432 4.12975 0
M  V30 3303 H 324.768 0.043051 3.23671 0
M  V30 3304 H 323.675 2.33862 2.91992 0
M  V30 3305 H 325.008 3.06151 3.85399 0
M  V30 3306 N 326.66 -1.06551 1.16123 0
M  V30 3307 C 327.608 -2.16063 0.861371 0
M  V30 3308 C 328.602 -1.6856 -0.168517 0
M  V30 3309 O 329.808 -1.79986 -0.0227579 0
M  V30 3310 H 326.183 -0.705278 0.260934 0
M  V30 3311 H 328.154 -2.38567 1.79244 0
M  V30 3312 C 326.903 -3.45661 0.376018 0
M  V30 3313 H 326.226 -3.82604 1.15992 0
M  V30 3314 H 327.666 -4.23504 0.204951 0
M  V30 3315 C 326.125 -3.24546 -0.903954 0
M  V30 3316 O 326.655 -3.49865 -1.97377 0
M  V30 3317 N 324.861 -2.77992 -0.846679 0
M  V30 3318 H 324.408 -2.57589 0.0241017 0
M  V30 3319 H 324.366 -2.64244 -1.70359 0
M  V30 3320 N 328.138 -0.959301 -1.25041 0
M  V30 3321 C 329.386 -0.615393 -1.92503 0
M  V30 3322 C 329.707 0.850969 -1.75452 0
M  V30 3323 O 328.977 1.60658 -1.12098 0
M  V30 3324 H 327.557 -0.224613 -0.712431 0
M  V30 3325 H 330.219 -1.21855 -1.5211 0
M  V30 3326 H 329.315 -0.848738 -3.00338 0
M  V30 3327 N 329.616 1.39756 -0.72842 0
M  V30 3328 C 330.865 1.99879 -0.270407 0
M  V30 3329 C 331.178 1.58449 1.14688 0
M  V30 3330 O 332.384 2.11362 1.70407 0
M  V30 3331 C 330.84 3.57292 -0.43252 0
M  V30 3332 C 330.448 4.07688 -1.85727 0
M  V30 3333 C 332.192 4.24485 -0.0359507 0
M  V30 3334 C 330.099 5.5765 -1.96928 0
M  V30 3335 H 329.029 0.747689 -0.0973472 0
M  V30 3336 H 331.68 1.59837 -0.901355 0
M  V30 3337 H 330.062 3.95097 0.267219 0
M  V30 3338 H 331.236 3.81231 -2.58843 0
M  V30 3339 H 329.551 3.53135 -2.20646 0
M  V30 3340 H 332.148 5.34609 -0.0987484 0
M  V30 3341 H 332.491 4.03915 1.00787 0
M  V30 3342 H 333.024 3.9183 -0.686604 0
M  V30 3343 H 329.763 5.8309 -2.99476 0
M  V30 3344 H 329.283 5.8593 -1.28241 0
M  V30 3345 H 330.962 6.22957 -1.74737 0
M  V30 3346 N 331.094 0.475555 1.50254 0
M  V30 3347 C 332.324 -0.0753399 2.06463 0
M  V30 3348 C 332.732 -1.33661 1.33908 0
M  V30 3349 O 332.075 -1.79219 0.403257 0
M  V30 3350 C 332.137 -0.424921 3.5698 0
M  V30 3351 C 331.801 0.734965 4.51051 0
M  V30 3352 C 332.798 1.61827 4.94073 0
M  V30 3353 C 330.483 0.926557 4.9368 0
M  V30 3354 C 332.477 2.67754 5.78434 0
M  V30 3355 C 330.164 1.98904 5.77824 0
M  V30 3356 C 331.162 2.8629 6.20103 0
M  V30 3357 O 330.85 3.90708 7.02568 0
M  V30 3358 H 330.582 0.00576308 0.675975 0
M  V30 3359 H 333.136 0.664662 1.94349 0
M  V30 3360 H 331.366 -1.21817 3.67012 0
M  V30 3361 H 333.055 -0.911422 3.95535 0
M  V30 3362 H 333.821 1.48196 4.61804 0
M  V30 3363 H 329.7 0.25584 4.6029 0
M  V30 3364 H 333.244 3.35992 6.11355 0
M  V30 3365 H 329.141 2.12541 6.09505 0
M  V30 3366 H 329.909 3.87751 7.20827 0
M  V30 3367 N 332.573 -1.56217 0.208337 0
M  V30 3368 C 333.52 -2.19699 -0.707192 0
M  V30 3369 C 334.49 -1.14836 -1.20008 0
M  V30 3370 O 335.675 -1.4314 -1.26157 0
M  V30 3371 C 332.815 -2.87061 -1.91546 0
M  V30 3372 C 331.928 -4.06483 -1.46271 0
M  V30 3373 C 331.063 -4.61665 -2.62752 0
M  V30 3374 C 330.102 -5.73417 -2.14147 0
M  V30 3375 N 329.239 -6.22948 -3.23853 0
M  V30 3376 H 334.079 -2.97575 -0.159111 0
M  V30 3377 H 331.616 -1.46948 -0.0667874 0
M  V30 3378 H 333.574 -3.24294 -2.62468 0
M  V30 3379 H 332.204 -2.11725 -2.43664 0
M  V30 3380 H 331.256 -3.74825 -0.648886 0
M  V30 3381 H 332.568 -4.87271 -1.06622 0
M  V30 3382 H 331.722 -5.01272 -3.41776 0
M  V30 3383 H 330.461 -3.80013 -3.05682 0
M  V30 3384 H 329.466 -5.33326 -1.33581 0
M  V30 3385 H 330.691 -6.56897 -1.72232 0
M  V30 3386 H 328.637 -5.44213 -3.6629 0
M  V30 3387 H 328.554 -6.98823 -2.88414 0
M  V30 3388 H 329.822 -6.6721 -4.03052 0
M  V30 3389 N 334.051 0.0651679 -1.57465 0
M  V30 3390 C 334.999 1.09542 -2.05191 0
M  V30 3391 C 335.993 1.39675 -0.958509 0
M  V30 3392 O 337.199 1.39003 -1.14359 0
M  V30 3393 H 333.574 0.370623 -0.654326 0
M  V30 3394 H 335.545 0.666802 -2.90854 0
M  V30 3395 C 334.294 2.39881 -2.51699 0
M  V30 3396 H 333.617 2.17547 -3.3543 0
M  V30 3397 H 335.057 3.104 -2.88839 0
M  V30 3398 C 333.516 3.0631 -1.40271 0
M  V30 3399 O 334.046 3.94664 -0.748523 0
M  V30 3400 N 332.252 2.67041 -1.14618 0
M  V30 3401 H 331.799 1.95281 -1.67997 0
M  V30 3402 H 331.757 3.1181 -0.402688 0
M  V30 3403 N 335.529 1.53961 0.336706 0
M  V30 3404 C 336.459 1.85417 1.41925 0
M  V30 3405 C 337.44 0.709856 1.5458 0
M  V30 3406 O 338.625 0.962396 1.68676 0
M  V30 3407 C 335.755 2.06985 2.78881 0
M  V30 3408 C 334.709 3.22813 2.81026 0
M  V30 3409 C 334.035 3.29727 4.20932 0
M  V30 3410 C 335.335 4.60767 2.45949 0
M  V30 3411 H 337.029 2.76079 1.15848 0
M  V30 3412 H 334.575 1.32839 0.555859 0
M  V30 3413 H 336.528 2.27575 3.54665 0
M  V30 3414 H 335.252 1.13061 3.06406 0
M  V30 3415 H 333.911 3.0209 2.07695 0
M  V30 3416 H 333.559 2.33385 4.45579 0
M  V30 3417 H 333.259 4.07566 4.23277 0
M  V30 3418 H 334.783 3.52536 4.98549 0
M  V30 3419 H 336.197 4.81325 3.11446 0
M  V30 3420 H 334.594 5.4106 2.59566 0
M  V30 3421 H 335.664 4.6391 1.41122 0
M  V30 3422 N 337.007 -0.598083 1.45811 0
M  V30 3423 C 338.237 -1.38121 1.53643 0
M  V30 3424 C 338.645 -1.88425 0.171081 0
M  V30 3425 O 337.988 -1.63409 -0.839237 0
M  V30 3426 C 338.05 -2.61432 2.46766 0
M  V30 3427 C 337.714 -2.32702 3.93318 0
M  V30 3428 C 338.711 -1.92479 4.82957 0
M  V30 3429 C 336.396 -2.45321 4.38318 0
M  V30 3430 C 338.39 -1.65248 6.15607 0
M  V30 3431 C 336.077 -2.17703 5.71007 0
M  V30 3432 C 337.075 -1.7773 6.5947 0
M  V30 3433 O 336.763 -1.50441 7.89698 0
M  V30 3434 H 336.495 -0.428863 0.522544 0
M  V30 3435 H 339.049 -0.73557 1.91777 0
M  V30 3436 H 337.279 -3.28749 2.0362 0
M  V30 3437 H 338.968 -3.23487 2.45175 0
M  V30 3438 H 339.734 -1.82258 4.49452 0
M  V30 3439 H 335.613 -2.75399 3.69697 0
M  V30 3440 H 339.157 -1.33973 6.84614 0
M  V30 3441 H 335.054 -2.27544 6.04065 0
M  V30 3442 H 335.822 -1.64415 8.01817 0
M  V30 3443 N 338.485 -1.33259 -0.841409 0
M  V30 3444 C 339.762 -1.15174 -1.58096 0
M  V30 3445 C 340.142 0.282858 -2.09196 0
M  V30 3446 O 339.49 1.28151 -1.89181 0
M  V30 3447 C 339.7 -2.1907 -2.71679 0
M  V30 3448 C 341.048 -2.53093 -3.40924 0
M  V30 3449 O 342.072 -2.17717 -2.81918 0
M  V30 3450 O 340.931 -3.1379 -4.47435 0
M  V30 3451 H 338.025 -0.445303 -0.696875 0
M  V30 3452 H 340.571 -1.44833 -0.884385 0
M  V30 3453 H 339.343 -3.15443 -2.31541 0
M  V30 3454 H 338.966 -1.90481 -3.49002 0
M  V30 3455 N 339.963 1.05934 -1.16686 0
M  V30 3456 C 340.893 2.1546 -0.899949 0
M  V30 3457 C 341.874 1.69391 0.155154 0
M  V30 3458 O 343.059 1.94199 0.00648693 0
M  V30 3459 C 340.189 3.44939 -0.404241 0
M  V30 3460 C 339.143 4.04536 -1.39767 0
M  V30 3461 C 338.469 5.29268 -0.760216 0
M  V30 3462 C 339.769 4.42893 -2.76845 0
M  V30 3463 H 341.463 2.38046 -1.81588 0
M  V30 3464 H 339.009 1.14404 -0.874514 0
M  V30 3465 H 340.962 4.20901 -0.204971 0
M  V30 3466 H 339.686 3.21983 0.547206 0
M  V30 3467 H 338.345 3.30635 -1.58355 0
M  V30 3468 H 337.993 5.02611 0.197831 0
M  V30 3469 H 337.693 5.70101 -1.42332 0
M  V30 3470 H 339.217 6.07924 -0.57105 0
M  V30 3471 H 340.631 5.09921 -2.62019 0
M  V30 3472 H 339.028 4.94721 -3.39663 0
M  V30 3473 H 340.098 3.53584 -3.31823 0
M  V30 3474 N 341.441 0.965919 1.2453 0
M  V30 3475 C 342.404 0.499547 2.2369 0
M  V30 3476 C 343.404 -0.40294 1.5567 0
M  V30 3477 O 344.594 -0.19865 1.73064 0
M  V30 3478 C 341.726 -0.276792 3.39774 0
M  V30 3479 H 342.919 1.37613 2.66463 0
M  V30 3480 H 340.472 0.750324 1.37112 0
M  V30 3481 H 341.207 -1.17055 3.02438 0
M  V30 3482 H 340.992 0.370826 3.90343 0
M  V30 3483 H 342.482 -0.592175 4.1338 0
M  V30 3484 N 342.919 -1.39368 0.735821 0
M  V30 3485 C 344.196 -1.94465 0.210395 0
M  V30 3486 C 344.576 -1.67254 -1.28799 0
M  V30 3487 O 343.924 -1.00123 -2.05396 0
M  V30 3488 C 344.134 -3.4472 0.544897 0
M  V30 3489 C 345.482 -4.21708 0.494689 0
M  V30 3490 O 346.506 -3.52922 0.482136 0
M  V30 3491 O 345.365 -5.44299 0.489947 0
M  V30 3492 H 342.459 -0.826096 0.0386666 0
M  V30 3493 H 345.005 -1.48863 0.814735 0
M  V30 3494 H 343.777 -3.57963 1.58045 0
M  V30 3495 H 343.4 -3.97502 -0.08837 0
M  V30 3496 N 344.397 -0.483516 -1.5 0
M  V30 3497 C 345.644 0.0671597 -2.02389 0
M  V30 3498 C 345.972 1.38597 -1.36459 0
M  V30 3499 O 345.227 1.89634 -0.483458 0
M  V30 3500 C 345.526 0.286226 -3.56252 0
M  V30 3501 C 345.192 -0.952416 -4.40726 0
M  V30 3502 C 343.854 -1.29199 -4.63531 0
M  V30 3503 C 346.206 -1.77655 -4.89988 0
M  V30 3504 C 343.534 -2.45553 -5.32842 0
M  V30 3505 C 345.886 -2.93147 -5.60578 0
M  V30 3506 C 344.55 -3.27505 -5.81633 0
M  V30 3507 H 343.82 0.0245755 -0.740592 0
M  V30 3508 H 346.467 -0.640124 -1.80485 0
M  V30 3509 H 344.772 1.07587 -3.76739 0
M  V30 3510 H 346.469 0.726473 -3.94365 0
M  V30 3511 H 343.059 -0.677881 -4.23205 0
M  V30 3512 H 347.243 -1.52737 -4.72213 0
M  V30 3513 H 342.499 -2.72431 -5.47349 0
M  V30 3514 H 346.673 -3.57344 -5.97727 0
M  V30 3515 H 344.3 -4.1777 -6.35116 0
M  V30 3516 N 345.875 1.56104 -0.216619 0
M  V30 3517 C 346.823 2.21434 0.712036 0
M  V30 3518 C 347.817 1.19218 1.20348 0
M  V30 3519 O 349.023 1.3731 1.16387 0
M  V30 3520 H 345.398 0.70992 0.248026 0
M  V30 3521 H 347.369 2.98083 0.137558 0
M  V30 3522 C 346.118 2.90434 1.91163 0
M  V30 3523 H 345.441 3.68842 1.54258 0
M  V30 3524 H 346.881 3.39552 2.5393 0
M  V30 3525 C 345.34 1.92635 2.76394 0
M  V30 3526 O 345.87 1.44017 3.74996 0
M  V30 3527 N 344.076 1.60392 2.42328 0
M  V30 3528 H 343.623 2.00122 1.622 0
M  V30 3529 H 343.581 0.952159 2.99635 0
M  V30 3530 N 347.353 -0.0568162 1.57498 0
M  V30 3531 C 348.303 -1.07315 2.01166 0
M  V30 3532 C 349.287 -1.33632 0.896171 0
M  V30 3533 O 350.479 -1.33682 1.16009 0
M  V30 3534 C 347.608 -2.38257 2.47161 0
M  V30 3535 C 346.694 -2.1515 3.65474 0
M  V30 3536 N 347.085 -1.62014 4.7915 0
M  V30 3537 C 345.383 -2.45559 3.72313 0
M  V30 3538 C 346.084 -1.54069 5.60926 0
M  V30 3539 N 345.06 -2.00652 5.05213 0
M  V30 3540 H 348.862 -0.655878 2.86488 0
M  V30 3541 H 346.376 -0.263635 1.60246 0
M  V30 3542 H 348.373 -3.11845 2.76691 0
M  V30 3543 H 347.033 -2.80687 1.63232 0
M  V30 3544 H 348.044 -1.30667 5.01145 0
M  V30 3545 H 344.721 -2.91253 2.99129 0
M  V30 3546 H 346.111 -1.13712 6.62208 0
M  V30 3547 N 348.832 -1.54138 -0.328536 0
M  V30 3548 C 349.78 -1.83894 -1.42428 0
M  V30 3549 C 350.774 -0.710478 -1.53781 0
M  V30 3550 O 351.98 -0.894062 -1.56226 0
M  V30 3551 H 348.355 -0.582837 -0.475189 0
M  V30 3552 H 350.326 -2.75537 -1.14552 0
M  V30 3553 C 349.075 -2.07866 -2.78724 0
M  V30 3554 H 348.398 -2.94158 -2.7076 0
M  V30 3555 H 349.838 -2.32644 -3.54476 0
M  V30 3556 C 348.297 -0.868689 -3.25508 0
M  V30 3557 O 348.827 -0.0754908 -4.01629 0
M  V30 3558 N 347.033 -0.681711 -2.82491 0
M  V30 3559 H 346.58 -1.32838 -2.20708 0
M  V30 3560 H 346.538 0.126374 -3.14146 0
M  V30 3561 N 350.31 0.590341 -1.46126 0
M  V30 3562 C 351.258 1.72105 -1.5647 0
M  V30 3563 C 352.252 1.63756 -0.433612 0
M  V30 3564 O 353.458 1.69342 -0.610194 0
M  V30 3565 H 349.833 0.568889 -0.491802 0
M  V30 3566 H 351.804 1.6051 -2.51553 0
M  V30 3567 C 350.553 3.10493 -1.56491 0
M  V30 3568 H 349.876 3.17583 -2.4286 0
M  V30 3569 H 351.316 3.8939 -1.67785 0
M  V30 3570 C 349.775 3.3563 -0.292231 0
M  V30 3571 O 350.305 3.96875 0.620739 0
M  V30 3572 N 348.511 2.90026 -0.182523 0
M  V30 3573 H 348.058 2.40367 -0.926356 0
M  V30 3574 H 348.016 3.07218 0.668152 0
M  V30 3575 N 351.788 1.33704 0.83433 0
M  V30 3576 C 352.751 1.24244 1.92603 0
M  V30 3577 C 353.751 0.160383 1.59998 0
M  V30 3578 O 354.941 0.412228 1.69252 0
M  V30 3579 C 352.073 0.91555 3.28376 0
M  V30 3580 H 353.266 2.21287 2.02416 0
M  V30 3581 H 350.819 1.17827 1.02696 0
M  V30 3582 H 351.554 -0.0521886 3.24258 0
M  V30 3583 H 351.339 1.69811 3.53422 0
M  V30 3584 H 352.829 0.874231 4.08347 0
M  V30 3585 N 353.266 -1.05314 1.17247 0
M  V30 3586 C 354.494 -1.81971 0.984593 0
M  V30 3587 C 354.909 -1.82929 -0.467166 0
M  V30 3588 O 354.266 -1.25564 -1.32438 0
M  V30 3589 C 354.317 -3.28143 1.51672 0
M  V30 3590 O 354.038 -3.27347 2.91163 0
M  V30 3591 C 355.539 -4.21493 1.37326 0
M  V30 3592 H 352.759 -0.573455 0.348411 0
M  V30 3593 H 355.303 -1.32808 1.55506 0
M  V30 3594 H 353.458 -3.74582 0.988302 0
M  V30 3595 H 353.872 -4.18824 3.15732 0
M  V30 3596 H 355.346 -5.22043 1.79375 0
M  V30 3597 H 355.823 -4.38031 0.320169 0
M  V30 3598 H 356.429 -3.80909 1.89178 0
M  V30 3599 N 354.744 -0.972509 -1.24016 0
M  V30 3600 C 355.993 -0.632603 -1.91523 0
M  V30 3601 C 356.306 0.836641 -1.76804 0
M  V30 3602 O 357.512 1.28728 -2.39043 0
M  V30 3603 C 355.968 -1.08082 -3.43287 0
M  V30 3604 C 355.576 -2.57386 -3.66683 0
M  V30 3605 C 357.32 -0.814288 -4.16617 0
M  V30 3606 C 355.227 -2.95915 -5.12043 0
M  V30 3607 H 354.157 -0.232898 -0.717129 0
M  V30 3608 H 356.808 -1.17936 -1.40582 0
M  V30 3609 H 355.19 -0.462339 -3.93292 0
M  V30 3610 H 356.364 -3.24405 -3.27258 0
M  V30 3611 H 354.679 -2.81701 -3.06649 0
M  V30 3612 H 357.276 -1.0781 -5.23718 0
M  V30 3613 H 357.619 0.24955 -4.15551 0
M  V30 3614 H 358.152 -1.39397 -3.72577 0
M  V30 3615 H 354.891 -4.0139 -5.18234 0
M  V30 3616 H 354.411 -2.33584 -5.52448 0
M  V30 3617 H 356.09 -2.86086 -5.80314 0
M  V30 3618 N 356.222 1.38976 -0.743202 0
M  V30 3619 C 357.499 1.94351 -0.220705 0
M  V30 3620 C 357.879 1.67935 1.2791 0
M  V30 3621 O 357.227 1.01211 2.04862 0
M  V30 3622 C 357.437 3.44426 -0.563171 0
M  V30 3623 C 358.785 4.2144 -0.517046 0
M  V30 3624 O 359.809 3.52661 -0.500846 0
M  V30 3625 O 358.668 5.44032 -0.518806 0
M  V30 3626 H 355.762 0.825879 -0.043047 0
M  V30 3627 H 358.308 1.48429 -0.822618 0
M  V30 3628 H 357.08 3.5712 -1.59941 0
M  V30 3629 H 356.703 3.97543 0.0672883 0
M  V30 3630 N 357.7 0.491464 1.49741 0
M  V30 3631 C 358.647 -0.292027 2.28945 0
M  V30 3632 C 359.617 -0.968973 1.34908 0
M  V30 3633 O 360.802 -0.97748 1.6386 0
M  V30 3634 C 357.942 -1.35617 3.17336 0
M  V30 3635 C 357.055 -0.691957 4.26422 0
M  V30 3636 C 356.19 -1.73572 5.02042 0
M  V30 3637 C 355.229 -1.05286 6.02977 0
M  V30 3638 N 354.366 -2.0404 6.71798 0
M  V30 3639 H 359.206 0.389654 2.95442 0
M  V30 3640 H 356.743 0.204003 1.45679 0
M  V30 3641 H 358.701 -1.98502 3.66951 0
M  V30 3642 H 357.331 -2.00674 2.52844 0
M  V30 3643 H 356.383 0.0499523 3.80367 0
M  V30 3644 H 357.695 -0.153946 4.98562 0
M  V30 3645 H 356.849 -2.43987 5.55478 0
M  V30 3646 H 355.588 -2.30757 4.29654 0
M  V30 3647 H 354.593 -0.334446 5.48782 0
M  V30 3648 H 355.818 -0.487636 6.77347 0
M  V30 3649 H 353.764 -2.60205 6.02187 0
M  V30 3650 H 353.681 -1.55279 7.39881 0
M  V30 3651 H 354.949 -2.73772 7.29842 0
M  V30 3652 N 359.178 -1.55987 0.224894 0
M  V30 3653 C 360.408 -2.02489 -0.41007 0
M  V30 3654 C 360.816 -1.10391 -1.53657 0
M  V30 3655 O 360.159 -0.106458 -1.83391 0
M  V30 3656 C 360.221 -3.45319 -0.999757 0
M  V30 3657 C 359.885 -4.56999 -0.00827976 0
M  V30 3658 C 360.882 -5.13812 0.793314 0
M  V30 3659 C 358.567 -5.02176 0.111442 0
M  V30 3660 C 360.561 -6.14276 1.7013 0
M  V30 3661 C 358.248 -6.02477 1.02296 0
M  V30 3662 C 359.246 -6.58403 1.81643 0
M  V30 3663 O 358.934 -7.56751 2.71262 0
M  V30 3664 H 358.666 -0.667915 -0.104235 0
M  V30 3665 H 361.22 -2.0257 0.339782 0
M  V30 3666 H 359.45 -3.42318 -1.79876 0
M  V30 3667 H 361.139 -3.7545 -1.54248 0
M  V30 3668 H 361.905 -4.79756 0.711288 0
M  V30 3669 H 357.784 -4.58323 -0.49605 0
M  V30 3670 H 361.328 -6.57854 2.32107 0
M  V30 3671 H 357.225 -6.35954 1.10599 0
M  V30 3672 H 357.993 -7.74286 2.65375 0
M  V30 3673 N 360.656 0.0484629 -1.57525 0
M  V30 3674 C 361.903 0.743125 -1.88372 0
M  V30 3675 C 362.231 1.76383 -0.819715 0
M  V30 3676 O 361.486 1.94855 0.181659 0
M  V30 3677 C 361.785 1.46632 -3.25935 0
M  V30 3678 C 361.451 0.583427 -4.4711 0
M  V30 3679 C 360.113 0.340191 -4.79996 0
M  V30 3680 C 362.465 -0.0273345 -5.21193 0
M  V30 3681 C 359.793 -0.522903 -5.84365 0
M  V30 3682 C 362.145 -0.878017 -6.26477 0
M  V30 3683 C 360.809 -1.1309 -6.5785 0
M  V30 3684 H 360.079 0.271929 -0.689301 0
M  V30 3685 H 362.726 0.00336166 -1.915 0
M  V30 3686 H 361.031 2.2789 -3.18706 0
M  V30 3687 H 362.728 2.00902 -3.47044 0
M  V30 3688 H 359.318 0.783151 -4.21384 0
M  V30 3689 H 363.502 0.147654 -4.9608 0
M  V30 3690 H 358.758 -0.727335 -6.07058 0
M  V30 3691 H 362.932 -1.35789 -6.83033 0
M  V30 3692 H 360.559 -1.80144 -7.38547 0
M  V30 3693 N 362.134 1.5431 0.320358 0
M  V30 3694 C 363.081 1.83918 1.39438 0
M  V30 3695 C 364.051 0.686525 1.51248 0
M  V30 3696 O 365.236 0.933269 1.66417 0
M  V30 3697 C 362.376 2.075 2.75749 0
M  V30 3698 C 361.489 3.35177 2.72544 0
M  V30 3699 C 360.624 3.48704 4.00723 0
M  V30 3700 C 359.663 4.70244 3.91838 0
M  V30 3701 N 358.8 4.80679 5.11754 0
M  V30 3702 H 363.64 2.75544 1.13489 0
M  V30 3703 H 361.177 1.36459 0.549309 0
M  V30 3704 H 363.135 2.19166 3.54996 0
M  V30 3705 H 361.765 1.19163 3 0
M  V30 3706 H 360.817 3.32233 1.85271 0
M  V30 3707 H 362.129 4.24534 2.61863 0
M  V30 3708 H 361.283 3.59928 4.88402 0
M  V30 3709 H 360.022 2.57445 4.14214 0
M  V30 3710 H 359.027 4.59072 3.02544 0
M  V30 3711 H 360.252 5.6289 3.7991 0
M  V30 3712 H 358.198 3.92337 5.25745 0
M  V30 3713 H 358.115 5.64007 5.0342 0
M  V30 3714 H 359.383 4.96239 6.01138 0
M  V30 3715 N 363.613 -0.582584 1.46437 0
M  V30 3716 C 364.89 -1.34276 1.4223 0
M  V30 3717 C 365.27 -2.10835 0.10583 0
M  V30 3718 O 364.618 -2.09485 -0.912596 0
M  V30 3719 C 364.828 -2.26865 2.65204 0
M  V30 3720 C 366.176 -2.88691 3.11356 0
M  V30 3721 O 367.2 -2.37178 2.65753 0
M  V30 3722 O 366.059 -3.82255 3.90568 0
M  V30 3723 H 363.153 -0.603326 0.565621 0
M  V30 3724 H 365.699 -0.603591 1.58603 0
M  V30 3725 H 364.471 -1.69724 3.52576 0
M  V30 3726 H 364.094 -3.08122 2.5129 0
M  V30 3727 N 365.091 -1.34144 -0.827227 0
M  V30 3728 C 366.054 -1.25264 -1.91942 0
M  V30 3729 C 367.054 -0.168866 -1.59911 0
M  V30 3730 O 368.244 -0.421198 -1.69031 0
M  V30 3731 C 365.376 -0.932952 -3.27885 0
M  V30 3732 H 366.569 -2.22357 -2.0124 0
M  V30 3733 H 364.122 -1.1837 -1.0207 0
M  V30 3734 H 364.857 0.0349917 -3.24281 0
M  V30 3735 H 364.642 -1.71682 -3.52516 0
M  V30 3736 H 366.132 -0.895874 -4.07877 0
M  V30 3737 N 366.569 1.04691 -1.17803 0
M  V30 3738 C 367.818 1.77176 -0.963931 0
M  V30 3739 C 368.131 1.88888 0.508015 0
M  V30 3740 O 369.337 2.58164 0.840465 0
M  V30 3741 C 367.793 3.18518 -1.67555 0
M  V30 3742 C 367.401 3.14919 -3.18637 0
M  V30 3743 C 369.145 3.95424 -1.54402 0
M  V30 3744 C 367.052 4.51081 -3.82466 0
M  V30 3745 H 365.982 0.664116 -0.357023 0
M  V30 3746 H 368.633 1.17303 -1.4111 0
M  V30 3747 H 367.015 3.78748 -1.15613 0
M  V30 3748 H 368.189 2.64178 -3.77554 0
M  V30 3749 H 366.504 2.51512 -3.31859 0
M  V30 3750 H 369.101 4.96106 -1.99456 0
M  V30 3751 H 369.444 4.13343 -0.495329 0
M  V30 3752 H 369.977 3.41754 -2.0359 0
M  V30 3753 H 366.716 4.38368 -4.87354 0
M  V30 3754 H 366.236 5.01951 -3.28337 0
M  V30 3755 H 367.915 5.2001 -3.84965 0
M  V30 3756 N 368.047 0.979072 1.23499 0
M  V30 3757 C 368.994 0.517904 2.24914 0
M  V30 3758 C 369.964 -0.442525 1.60097 0
M  V30 3759 O 371.149 -0.350365 1.87556 0
M  V30 3760 C 368.289 -0.174813 3.44657 0
M  V30 3761 C 367.402 0.825721 4.24035 0
M  V30 3762 C 366.537 0.107946 5.3109 0
M  V30 3763 C 365.576 1.09778 6.02175 0
M  V30 3764 N 364.713 0.40925 7.00906 0
M  V30 3765 H 369.553 1.38751 2.63727 0
M  V30 3766 H 367.09 0.695303 1.2963 0
M  V30 3767 H 369.048 -0.593233 4.12961 0
M  V30 3768 H 367.678 -1.0083 3.06648 0
M  V30 3769 H 366.73 1.36253 3.55161 0
M  V30 3770 H 368.042 1.58005 4.73113 0
M  V30 3771 H 367.196 -0.367904 6.05583 0
M  V30 3772 H 365.935 -0.678994 4.8295 0
M  V30 3773 H 364.94 1.5844 5.26476 0
M  V30 3774 H 366.165 1.88536 6.52404 0
M  V30 3775 H 364.111 -0.358506 6.5502 0
M  V30 3776 H 364.028 1.10226 7.47921 0
M  V30 3777 H 365.296 -0.0442557 7.79487 0
M  V30 3778 N 369.525 -1.3858 0.750561 0
M  V30 3779 C 370.455 -2.33102 0.136237 0
M  V30 3780 C 371.436 -1.54713 -0.706965 0
M  V30 3781 O 372.621 -1.83043 -0.648769 0
M  V30 3782 C 369.751 -3.38882 -0.760017 0
M  V30 3783 C 368.705 -4.27995 -0.0197785 0
M  V30 3784 C 368.031 -5.24605 -1.03408 0
M  V30 3785 C 369.331 -5.09554 1.14684 0
M  V30 3786 H 371.025 -2.84726 0.925822 0
M  V30 3787 H 368.571 -1.36898 0.446654 0
M  V30 3788 H 370.524 -4.0397 -1.19943 0
M  V30 3789 H 369.248 -2.85734 -1.58189 0
M  V30 3790 H 367.907 -3.64409 0.400184 0
M  V30 3791 H 367.555 -4.67746 -1.84994 0
M  V30 3792 H 367.255 -5.85081 -0.543464 0
M  V30 3793 H 368.779 -5.9257 -1.47288 0
M  V30 3794 H 370.193 -5.67899 0.785118 0
M  V30 3795 H 368.59 -5.7925 1.56812 0
M  V30 3796 H 369.66 -4.4347 1.96118 0
M  V30 3797 N 371.003 -0.499398 -1.49478 0
M  V30 3798 C 372.249 0.0377587 -2.03365 0
M  V30 3799 C 372.604 1.3484 -1.37244 0
M  V30 3800 O 371.897 1.85 -0.498547 0
M  V30 3801 C 372.091 0.248424 -3.56536 0
M  V30 3802 C 371.92 -1.04025 -4.37503 0
M  V30 3803 C 370.69 -1.59159 -4.79579 0
M  V30 3804 C 372.888 -1.9431 -4.76181 0
M  V30 3805 N 370.87 -2.82634 -5.44969 0
M  V30 3806 C 372.241 -3.02364 -5.41272 0
M  V30 3807 C 374.296 -1.95008 -4.58123 0
M  V30 3808 C 372.999 -4.1114 -5.90217 0
M  V30 3809 C 375.025 -3.02758 -5.08027 0
M  V30 3810 C 374.387 -4.09531 -5.73118 0
M  V30 3811 H 370.486 -0.026923 -0.781536 0
M  V30 3812 H 373.07 -0.673901 -1.82665 0
M  V30 3813 H 371.241 0.929139 -3.77123 0
M  V30 3814 H 372.973 0.782445 -3.97064 0
M  V30 3815 H 369.728 -1.13696 -4.5975 0
M  V30 3816 H 370.152 -3.45416 -5.82252 0
M  V30 3817 H 374.794 -1.13766 -4.07207 0
M  V30 3818 H 372.512 -4.93181 -6.40155 0
M  V30 3819 H 376.098 -3.04315 -4.95866 0
M  V30 3820 H 374.978 -4.91534 -6.11035 0
M  V30 3821 N 372.481 1.55866 -0.233164 0
M  V30 3822 C 373.411 2.23783 0.666599 0
M  V30 3823 C 374.392 1.21343 1.19205 0
M  V30 3824 O 375.577 1.4996 1.23392 0
M  V30 3825 C 372.707 2.92671 1.86978 0
M  V30 3826 C 371.661 4.01682 1.47768 0
M  V30 3827 C 370.987 4.57926 2.76058 0
M  V30 3828 C 372.287 5.18126 0.658993 0
M  V30 3829 H 373.981 2.99232 0.100306 0
M  V30 3830 H 371.527 1.43924 0.046804 0
M  V30 3831 H 373.48 3.3888 2.50476 0
M  V30 3832 H 372.204 2.14688 2.46123 0
M  V30 3833 H 370.863 3.56222 0.866106 0
M  V30 3834 H 370.511 3.76659 3.33372 0
M  V30 3835 H 370.211 5.31505 2.50552 0
M  V30 3836 H 371.735 5.06859 3.40479 0
M  V30 3837 H 373.149 5.60644 1.19795 0
M  V30 3838 H 371.546 5.98009 0.500552 0
M  V30 3839 H 372.616 4.83763 -0.331856 0
M  V30 3840 N 373.959 -0.0401083 1.57549 0
M  V30 3841 C 375.236 -0.767917 1.79896 0
M  V30 3842 C 375.616 -1.9416 0.82856 0
M  V30 3843 O 374.964 -2.2812 -0.131671 0
M  V30 3844 C 375.174 -1.2113 3.27305 0
M  V30 3845 C 376.522 -1.63175 3.91994 0
M  V30 3846 O 377.546 -1.30616 3.31388 0
M  V30 3847 O 376.405 -2.23565 4.98679 0
M  V30 3848 H 373.499 -0.370441 0.739393 0
M  V30 3849 H 376.045 -0.017737 1.69691 0
M  V30 3850 H 374.817 -0.372937 3.89519 0
M  V30 3851 H 374.44 -2.02183 3.42356 0
M  V30 3852 N 375.437 -1.54477 -0.31217 0
M  V30 3853 C 376.37 -1.79519 -1.40884 0
M  V30 3854 C 377.348 -0.645753 -1.49227 0
M  V30 3855 O 378.532 -0.884468 -1.66461 0
M  V30 3856 C 375.659 -1.92194 -2.78889 0
M  V30 3857 C 374.705 -3.14555 -2.88023 0
M  V30 3858 S 375.538 -4.72893 -2.51262 0
M  V30 3859 C 376.694 -4.8849 -3.91317 0
M  V30 3860 H 376.927 -2.72256 -1.19432 0
M  V30 3861 H 374.46 -1.45746 -0.509654 0
M  V30 3862 H 376.418 -2.00182 -3.58382 0
M  V30 3863 H 375.079 -1.00414 -2.97617 0
M  V30 3864 H 374.272 -3.20193 -3.89221 0
M  V30 3865 H 373.874 -3.04955 -2.16514 0
M  V30 3866 H 376.166 -4.71826 -4.86196 0
M  V30 3867 H 377.109 -5.90588 -3.90656 0
M  V30 3868 H 377.517 -4.16715 -3.80801 0
M  V30 3869 N 376.915 0.57481 -1.46744 0
M  V30 3870 C 378.163 1.33009 -1.52161 0
M  V30 3871 C 378.484 1.94185 -0.178092 0
M  V30 3872 O 377.754 1.7899 0.796196 0
M  V30 3873 H 376.334 0.493873 -0.560445 0
M  V30 3874 H 378.996 0.672589 -1.82927 0
M  V30 3875 H 378.092 2.13273 -2.27862 0
M  V30 3876 N 378.394 1.34581 0.820102 0
M  V30 3877 C 379.64 1.27285 1.57881 0
M  V30 3878 C 379.973 -0.156137 1.93571 0
M  V30 3879 O 379.248 -1.10222 1.60254 0
M  V30 3880 C 379.531 2.16639 2.87645 0
M  V30 3881 C 379.384 3.68088 2.58517 0
M  V30 3882 C 380.703 2.05378 3.8924 0
M  V30 3883 H 377.822 0.463714 0.572833 0
M  V30 3884 H 380.464 1.64859 0.944539 0
M  V30 3885 H 378.614 1.84725 3.41773 0
M  V30 3886 H 380.286 4.10382 2.10676 0
M  V30 3887 H 378.529 3.89038 1.91917 0
M  V30 3888 H 379.2 4.2598 3.51063 0
M  V30 3889 H 381.676 2.33404 3.44473 0
M  V30 3890 H 380.552 2.7012 4.77835 0
M  V30 3891 H 380.813 1.0316 4.29896 0
M  V30 3892 N 379.872 -1.04064 1.18357 0
M  V30 3893 C 381.149 -1.74252 0.888581 0
M  V30 3894 C 381.529 -2.02138 -0.60856 0
M  V30 3895 O 380.877 -1.66656 -1.56327 0
M  V30 3896 C 381.087 -3.0277 1.73584 0
M  V30 3897 C 382.435 -3.76506 1.96286 0
M  V30 3898 O 383.459 -3.12668 1.70637 0
M  V30 3899 O 382.318 -4.91243 2.39464 0
M  V30 3900 H 379.412 -0.758271 0.330082 0
M  V30 3901 H 381.958 -1.1013 1.2911 0
M  V30 3902 H 380.73 -2.78299 2.75073 0
M  V30 3903 H 380.353 -3.74631 1.33183 0
M  V30 3904 N 381.35 -0.985608 -1.22978 0
M  V30 3905 C 382.598 -0.656087 -1.91154 0
M  V30 3906 C 382.919 0.813561 -1.77218 0
M  V30 3907 O 382.189 1.58244 -1.1548 0
M  V30 3908 H 380.769 -0.239674 -0.707506 0
M  V30 3909 H 383.431 -1.25054 -1.49491 0
M  V30 3910 H 382.527 -0.912253 -2.9847 0
M  V30 3911 N 382.828 1.3818 -0.7579 0
M  V30 3912 C 384.077 1.99261 -0.312744 0
M  V30 3913 C 384.39 1.60846 1.11301 0
M  V30 3914 O 385.596 2.14929 1.65885 0
M  V30 3915 C 384.052 3.56294 -0.50821 0
M  V30 3916 C 383.66 4.03657 -1.94333 0
M  V30 3917 C 385.404 4.24313 -0.125982 0
M  V30 3918 C 383.311 5.53347 -2.08712 0
M  V30 3919 H 382.241 0.745456 -0.113185 0
M  V30 3920 H 384.892 1.57889 -0.935056 0
M  V30 3921 H 383.274 3.95575 0.183353 0
M  V30 3922 H 384.448 3.75655 -2.66871 0
M  V30 3923 H 382.763 3.48376 -2.28086 0
M  V30 3924 H 385.36 5.34279 -0.212125 0
M  V30 3925 H 385.703 4.05962 0.921964 0
M  V30 3926 H 386.236 3.90285 -0.769563 0
M  V30 3927 H 382.975 5.76607 -3.11777 0
M  V30 3928 H 382.495 5.83078 -1.4064 0
M  V30 3929 H 384.174 6.19111 -1.87912 0
M  V30 3930 N 384.306 0.507319 1.49211 0
M  V30 3931 C 385.722 0.163682 1.58758 0
M  V30 3932 C 385.922 -1.33208 1.51188 0
M  V30 3933 O 384.978 -2.10855 1.38911 0
M  V30 3934 C 386.291 0.746095 2.91297 0
M  V30 3935 C 387.839 0.712773 3.04776 0
M  V30 3936 C 388.314 1.27336 4.39943 0
M  V30 3937 N 389.805 1.23433 4.46451 0
M  V30 3938 C 390.54 1.63821 5.495 0
M  V30 3939 N 390.036 2.11832 6.5962 0
M  V30 3940 N 391.829 1.55198 5.4025 0
M  V30 3941 H 383.98 1.47972 1.52375 0
M  V30 3942 H 386.243 0.614147 0.722168 0
M  V30 3943 H 385.949 1.79534 3.02424 0
M  V30 3944 H 385.823 0.210137 3.76614 0
M  V30 3945 H 388.21 -0.327656 2.93275 0
M  V30 3946 H 388.291 1.28595 2.21127 0
M  V30 3947 H 387.935 2.3126 4.52196 0
M  V30 3948 H 387.865 0.676066 5.22242 0
M  V30 3949 H 390.356 0.882627 3.67448 0
M  V30 3950 H 390.669 2.40703 7.34358 0
M  V30 3951 H 389.014 2.1581 6.60644 0
M  V30 3952 H 392.205 1.17505 4.53112 0
M  V30 3953 H 392.378 1.86997 6.20432 0
M  V30 3954 N 385.784 -1.5574 0.241426 0
M  V30 3955 C 387.03 -1.99104 -0.385406 0
M  V30 3956 C 387.363 -1.1293 -1.57988 0
M  V30 3957 O 386.638 -0.191449 -1.93555 0
M  V30 3958 C 386.921 -3.51087 -0.800616 0
M  V30 3959 C 386.774 -4.48028 0.398874 0
M  V30 3960 C 388.093 -4.08015 -1.64959 0
M  V30 3961 H 385.212 -0.723848 -0.138614 0
M  V30 3962 H 387.854 -1.86903 0.341642 0
M  V30 3963 H 386.004 -3.61615 -1.4201 0
M  V30 3964 H 387.676 -4.49487 1.03726 0
M  V30 3965 H 385.919 -4.21077 1.04293 0
M  V30 3966 H 386.59 -5.51962 0.0651056 0
M  V30 3967 H 389.066 -4.00555 -1.12672 0
M  V30 3968 H 387.942 -5.14635 -1.90898 0
M  V30 3969 H 388.203 -3.56131 -2.61961 0
M  V30 3970 N 387.262 0.0317525 -1.57568 0
M  V30 3971 C 388.539 0.758366 -1.803 0
M  V30 3972 C 388.919 1.93718 -0.838845 0
M  V30 3973 O 388.267 2.28187 0.119571 0
M  V30 3974 C 388.477 1.19392 -3.27943 0
M  V30 3975 C 389.825 1.61094 -3.92854 0
M  V30 3976 O 390.849 1.28857 -3.32076 0
M  V30 3977 O 389.708 2.20918 -4.99858 0
M  V30 3978 H 386.802 0.366514 -0.741348 0
M  V30 3979 H 389.348 0.00873765 -1.69698 0
M  V30 3980 H 388.12 0.352275 -3.89711 0
M  V30 3981 H 387.743 2.00365 -3.43424 0
M  V30 3982 N 388.74 1.54641 0.303973 0
M  V30 3983 C 389.703 1.84646 1.35789 0
M  V30 3984 C 390.703 0.7192 1.4382 0
M  V30 3985 O 391.893 0.987491 1.43507 0
M  V30 3986 C 389.025 2.02407 2.74307 0
M  V30 3987 H 390.218 2.78829 1.10429 0
M  V30 3988 H 387.771 1.46658 0.540487 0
M  V30 3989 H 388.506 1.10502 3.04893 0
M  V30 3990 H 388.291 2.84453 2.69868 0
M  V30 3991 H 389.781 2.27002 3.50514 0
M  V30 3992 N 390.218 -0.567019 1.47046 0
M  V30 3993 C 391.464 -1.32658 1.53394 0
M  V30 3994 C 391.797 -1.93254 0.19148 0
M  V30 3995 O 391.072 -1.77338 -0.798844 0
M  V30 3996 C 391.355 -2.44412 2.64452 0
M  V30 3997 C 391.208 -1.88749 4.08282 0
M  V30 3998 C 392.527 -3.46387 2.71485 0
M  V30 3999 H 389.646 -0.48098 0.558415 0
M  V30 4000 H 392.288 -0.635481 1.79058 0
M  V30 4001 H 390.438 -3.03363 2.427 0
M  V30 4002 H 392.11 -1.34134 4.41368 0
M  V30 4003 H 390.353 -1.19481 4.17021 0
M  V30 4004 H 391.024 -2.69491 4.81745 0
M  V30 4005 H 393.5 -2.9734 2.91081 0
M  V30 4006 H 392.376 -4.2202 3.50985 0
M  V30 4007 H 392.637 -4.04616 1.78153 0
M  V30 4008 N 391.696 -1.35014 -0.812953 0
M  V30 4009 C 392.643 -1.27412 -1.92444 0
M  V30 4010 C 393.613 -0.14733 -1.65445 0
M  V30 4011 O 394.798 -0.329974 -1.87925 0
M  V30 4012 C 391.938 -1.04558 -3.28879 0
M  V30 4013 C 391.051 -2.26101 -3.68106 0
M  V30 4014 C 390.186 -1.96449 -4.9354 0
M  V30 4015 C 389.225 -3.14081 -5.25376 0
M  V30 4016 N 388.362 -2.84246 -6.41988 0
M  V30 4017 H 393.202 -2.22463 -1.98278 0
M  V30 4018 H 390.739 -1.10593 -0.969933 0
M  V30 4019 H 392.697 -0.893413 -4.07522 0
M  V30 4020 H 391.327 -0.131719 -3.22531 0
M  V30 4021 H 390.379 -2.52204 -2.84775 0
M  V30 4022 H 391.691 -3.13959 -3.87597 0
M  V30 4023 H 390.845 -1.78026 -5.79993 0
M  V30 4024 H 389.584 -1.05867 -4.76071 0
M  V30 4025 H 388.589 -3.33089 -4.37415 0
M  V30 4026 H 389.814 -4.05455 -5.44778 0
M  V30 4027 H 387.76 -1.96252 -6.25956 0
M  V30 4028 H 387.677 -3.65637 -6.61699 0
M  V30 4029 H 388.945 -2.6935 -7.31485 0
M  V30 4030 N 393.175 1.03435 -1.18907 0
M  V30 4031 C 394.125 2.09924 -0.889706 0
M  V30 4032 C 395.109 1.60261 0.143216 0
M  V30 4033 O 396.301 1.76892 -0.0617122 0
M  V30 4034 C 393.43 3.40669 -0.424168 0
M  V30 4035 C 392.516 3.97082 -1.48952 0
M  V30 4036 N 392.907 4.27227 -2.70759 0
M  V30 4037 C 391.205 4.25029 -1.35152 0
M  V30 4038 C 391.906 4.7246 -3.39347 0
M  V30 4039 N 390.882 4.7366 -2.66735 0
M  V30 4040 H 394.684 2.31116 -1.81555 0
M  V30 4041 H 392.198 1.21246 -1.08042 0
M  V30 4042 H 394.195 4.16461 -0.191176 0
M  V30 4043 H 392.855 3.20901 0.495263 0
M  V30 4044 H 393.866 4.16678 -3.0757 0
M  V30 4045 H 390.543 4.14554 -0.495126 0
M  V30 4046 H 391.933 5.04751 -4.43481 0
M  V30 4047 N 394.653 0.992116 1.22453 0
M  V30 4048 C 395.586 0.486701 2.22949 0
M  V30 4049 C 396.564 -0.45259 1.56174 0
M  V30 4050 O 397.748 -0.378317 1.84665 0
M  V30 4051 C 394.875 -0.294537 3.37417 0
M  V30 4052 C 393.921 0.590628 4.22391 0
M  V30 4053 S 394.754 2.04546 4.94895 0
M  V30 4054 C 395.91 1.27369 6.12803 0
M  V30 4055 H 396.143 1.33828 2.65475 0
M  V30 4056 H 393.676 0.799023 1.32117 0
M  V30 4057 H 395.634 -0.739241 4.03789 0
M  V30 4058 H 394.295 -1.12139 2.934 0
M  V30 4059 H 393.488 -0.0104375 5.03999 0
M  V30 4060 H 393.09 0.972064 3.61147 0
M  V30 4061 H 395.382 0.540943 6.75337 0
M  V30 4062 H 396.325 2.06502 6.7732 0
M  V30 4063 H 396.733 0.787324 5.58983 0
M  V30 4064 N 396.131 -1.37776 0.765217 0
M  V30 4065 C 397.542 -1.82521 0.392819 0
M  V30 4066 C 397.893 -1.63789 -1.08017 0
M  V30 4067 O 397.018 -1.14542 -1.83601 0
M  V30 4068 C 397.613 -3.31358 0.706214 0
M  V30 4069 C 396.172 -3.74406 0.386952 0
M  V30 4070 C 395.319 -2.60394 0.953422 0
M  V30 4071 H 398.27 -1.2634 0.960412 0
M  V30 4072 H 398.291 -3.80498 -0.0114706 0
M  V30 4073 H 397.803 -3.44959 1.77833 0
M  V30 4074 H 395.904 -3.66377 -0.678112 0
M  V30 4075 H 396.017 -4.70749 0.890636 0
M  V30 4076 H 394.381 -2.51878 0.378064 0
M  V30 4077 H 395.164 -2.76791 2.03081 0
M  V30 4078 N 397.609 -0.515225 -1.4894 0
M  V30 4079 C 398.539 0.244628 -2.32215 0
M  V30 4080 C 399.52 0.949136 -1.41157 0
M  V30 4081 O 400.705 0.937783 -1.70057 0
M  V30 4082 C 397.835 1.30096 -3.22013 0
M  V30 4083 C 396.789 0.715486 -4.21977 0
M  V30 4084 C 396.115 1.87339 -5.00808 0
M  V30 4085 C 397.415 -0.302982 -5.2142 0
M  V30 4086 H 399.109 -0.450501 -2.95991 0
M  V30 4087 H 396.655 -0.218098 -1.42339 0
M  V30 4088 H 398.608 1.84037 -3.79089 0
M  V30 4089 H 397.332 2.02547 -2.56207 0
M  V30 4090 H 395.991 0.197715 -3.66066 0
M  V30 4091 H 395.639 2.58592 -4.31438 0
M  V30 4092 H 395.339 1.48764 -5.68457 0
M  V30 4093 H 396.863 2.41686 -5.60732 0
M  V30 4094 H 398.277 0.148802 -5.73107 0
M  V30 4095 H 396.674 -0.60532 -5.97039 0
M  V30 4096 H 397.744 -1.21395 -4.69459 0
M  V30 4097 N 399.087 1.5561 -0.249682 0
M  V30 4098 C 400.335 1.98618 0.373548 0
M  V30 4099 C 400.656 1.13919 1.58264 0
M  V30 4100 O 399.926 0.222637 1.94631 0
M  V30 4101 H 398.506 0.733571 0.141006 0
M  V30 4102 H 401.168 1.91748 -0.349117 0
M  V30 4103 H 400.264 3.04584 0.680796 0
M  V30 4104 N 400.565 -0.0233959 1.57583 0
M  V30 4105 C 401.811 -0.708611 1.90657 0
M  V30 4106 C 402.166 -1.7266 0.848895 0
M  V30 4107 O 401.459 -1.91075 -0.141749 0
M  V30 4108 C 401.653 -1.41428 3.28227 0
M  V30 4109 C 401.482 -0.466155 4.47277 0
M  V30 4110 C 400.252 -0.085117 5.05228 0
M  V30 4111 C 402.45 0.257836 5.13653 0
M  V30 4112 N 400.432 0.863672 6.07794 0
M  V30 4113 C 401.803 1.06209 6.10835 0
M  V30 4114 C 403.858 0.324174 4.96844 0
M  V30 4115 C 402.561 1.9266 6.93018 0
M  V30 4116 C 404.587 1.17583 5.79593 0
M  V30 4117 C 403.949 1.96799 6.7635 0
M  V30 4118 H 400.048 -0.233222 0.746412 0
M  V30 4119 H 402.632 0.0314512 1.94675 0
M  V30 4120 H 400.803 -2.12477 3.25128 0
M  V30 4121 H 402.535 -2.05233 3.488 0
M  V30 4122 H 399.29 -0.448516 4.71471 0
M  V30 4123 H 399.714 1.33274 6.63752 0
M  V30 4124 H 404.356 -0.273975 4.21911 0
M  V30 4125 H 402.074 2.53552 7.67292 0
M  V30 4126 H 405.66 1.23076 5.68633 0
M  V30 4127 H 404.54 2.61635 7.39268 0
M  V30 4128 N 402.043 -1.548 -0.295768 0
M  V30 4129 C 402.975 -1.82492 -1.3867 0
M  V30 4130 C 403.988 -0.708134 -1.46592 0
M  V30 4131 O 405.177 -0.985686 -1.48817 0
M  V30 4132 C 402.277 -1.95256 -2.76999 0
M  V30 4133 C 401.45 -3.25709 -2.91946 0
M  V30 4134 C 400.509 -3.28824 -4.10806 0
M  V30 4135 O 399.535 -4.02328 -4.02643 0
M  V30 4136 N 400.737 -2.5459 -5.21694 0
M  V30 4137 H 403.502 -2.76646 -1.15269 0
M  V30 4138 H 401.063 -1.54438 -0.485849 0
M  V30 4139 H 403.055 -1.94736 -3.54768 0
M  V30 4140 H 401.625 -1.08072 -2.93324 0
M  V30 4141 H 400.845 -3.38959 -2.01247 0
M  V30 4142 H 402.133 -4.11786 -2.98847 0
M  V30 4143 H 401.531 -1.94512 -5.31208 0
M  V30 4144 H 400.088 -2.59818 -5.97778 0
M  V30 4145 N 403.521 0.559213 -1.47345 0
M  V30 4146 C 404.468 1.66645 -1.59682 0
M  V30 4147 C 405.438 1.60168 -0.43994 0
M  V30 4148 O 406.623 1.79031 -0.659736 0
M  V30 4149 C 403.763 3.04969 -1.61518 0
M  V30 4150 C 402.876 3.21897 -2.88108 0
M  V30 4151 C 402.011 4.50608 -2.81294 0
M  V30 4152 C 401.05 4.60961 -4.02717 0
M  V30 4153 N 400.187 5.81024 -3.94151 0
M  V30 4154 H 405.027 1.55439 -2.54249 0
M  V30 4155 H 402.564 0.757219 -1.26113 0
M  V30 4156 H 404.522 3.85064 -1.60566 0
M  V30 4157 H 403.152 3.15015 -0.704645 0
M  V30 4158 H 402.204 2.35248 -2.98936 0
M  V30 4159 H 403.516 3.25412 -3.78032 0
M  V30 4160 H 402.67 5.3896 -2.7858 0
M  V30 4161 H 401.409 4.49568 -1.89049 0
M  V30 4162 H 400.414 3.71021 -4.05738 0
M  V30 4163 H 401.639 4.63761 -4.96087 0
M  V30 4164 H 399.585 5.80938 -3.04708 0
M  V30 4165 H 399.502 5.85909 -4.77752 0
M  V30 4166 H 400.77 6.71744 -3.9545 0
M  V30 4167 N 404.999 1.35443 0.805782 0
M  V30 4168 C 406.224 1.32037 1.59941 0
M  V30 4169 C 406.649 -0.0994215 1.87837 0
M  V30 4170 O 406.007 -1.06648 1.46615 0
M  V30 4171 C 406.055 2.13354 2.90711 0
M  V30 4172 O 405.159 1.5148 3.83572 0
M  V30 4173 H 404.5 0.452666 0.485787 0
M  V30 4174 H 407.03 1.78496 1.00002 0
M  V30 4175 H 407.04 2.25338 3.40128 0
M  V30 4176 H 405.715 3.16572 2.69732 0
M  V30 4177 H 404.292 1.4834 3.42125 0
M  V30 4178 N 406.477 -1.02803 1.19454 0
M  V30 4179 C 407.723 -1.76598 1.0092 0
M  V30 4180 C 408.078 -1.86939 -0.455142 0
M  V30 4181 O 407.371 -1.37575 -1.33355 0
M  V30 4182 C 407.565 -3.18941 1.6128 0
M  V30 4183 C 407.394 -3.22476 3.13431 0
M  V30 4184 C 406.164 -3.30375 3.82336 0
M  V30 4185 C 408.362 -3.09451 4.10785 0
M  V30 4186 N 406.344 -3.23292 5.21877 0
M  V30 4187 C 407.715 -3.10012 5.36929 0
M  V30 4188 C 409.77 -2.93585 4.02135 0
M  V30 4189 C 408.473 -2.96334 6.55423 0
M  V30 4190 C 410.499 -2.81256 5.20239 0
M  V30 4191 C 409.861 -2.82472 6.45282 0
M  V30 4192 H 405.96 -0.657447 0.423424 0
M  V30 4193 H 408.544 -1.22369 1.5144 0
M  V30 4194 H 406.715 -3.71489 1.1336 0
M  V30 4195 H 408.447 -3.81102 1.36173 0
M  V30 4196 H 405.202 -3.3663 3.33132 0
M  V30 4197 H 405.626 -3.23156 5.94894 0
M  V30 4198 H 410.268 -2.91466 3.0628 0
M  V30 4199 H 407.986 -2.97203 7.51463 0
M  V30 4200 H 411.572 -2.70014 5.15348 0
M  V30 4201 H 410.452 -2.73036 7.35133 0
M  V30 4202 N 407.956 -0.998596 -1.21925 0
M  V30 4203 C 408.889 -0.498517 -2.22688 0
M  V30 4204 C 409.867 0.444301 -1.56412 0
M  V30 4205 O 411.051 0.368518 -1.84863 0
M  V30 4206 C 408.178 0.276639 -3.37568 0
M  V30 4207 C 407.224 -0.61302 -4.22071 0
M  V30 4208 S 408.057 -2.07168 -4.93803 0
M  V30 4209 C 409.213 -1.30617 -6.12119 0
M  V30 4210 H 409.446 -1.35234 -2.64762 0
M  V30 4211 H 406.979 -0.806018 -1.31692 0
M  V30 4212 H 408.937 0.717817 -4.04175 0
M  V30 4213 H 407.598 1.10581 -2.93991 0
M  V30 4214 H 406.791 -0.0162909 -5.03997 0
M  V30 4215 H 406.393 -0.991202 -3.60626 0
M  V30 4216 H 408.685 -0.57675 -6.75041 0
M  V30 4217 H 409.628 -2.10091 -6.76215 0
M  V30 4218 H 410.036 -0.816957 -5.58557 0
M  V30 4219 N 409.434 1.37368 -0.772513 0
M  V30 4220 C 410.659 2.0447 -0.347386 0
M  V30 4221 C 411.084 1.57882 1.0225 0
M  V30 4222 O 410.442 0.73941 1.65537 0
M  V30 4223 C 410.49 3.58369 -0.400479 0
M  V30 4224 O 409.594 4.0803 0.598789 0
M  V30 4225 H 408.935 0.646773 -0.15027 0
M  V30 4226 H 411.465 1.75667 -1.04892 0
M  V30 4227 H 411.475 4.07183 -0.258045 0
M  V30 4228 H 410.15 3.91633 -1.39986 0
M  V30 4229 H 408.727 3.70534 0.419411 0
M  V30 4230 N 410.912 0.523116 1.48665 0
M  V30 4231 C 412.137 -0.0117284 2.07397 0
M  V30 4232 C 412.562 -1.28031 1.37803 0
M  V30 4233 O 411.92 -1.75836 0.441762 0
M  V30 4234 C 411.968 -0.225786 3.59892 0
M  V30 4235 O 411.072 -1.29592 3.91509 0
M  V30 4236 H 410.413 0.0360673 0.66302 0
M  V30 4237 H 412.943 0.729066 1.9117 0
M  V30 4238 H 412.953 -0.450552 4.05505 0
M  V30 4239 H 411.628 0.700944 4.09951 0
M  V30 4240 H 410.205 -1.05436 3.57684 0
M  V30 4241 N 412.39 -1.55475 0.257931 0
M  V30 4242 C 413.639 -1.98383 -0.364275 0
M  V30 4243 C 413.952 -1.14952 -1.58258 0
M  V30 4244 O 415.158 -1.47924 -2.27664 0
M  V30 4245 C 413.614 -3.53037 -0.699479 0
M  V30 4246 C 413.222 -4.45223 0.498046 0
M  V30 4247 C 414.966 -4.04575 -1.28526 0
M  V30 4248 C 412.873 -5.91238 0.138383 0
M  V30 4249 H 411.803 -0.740911 -0.13988 0
M  V30 4250 H 414.454 -1.79936 0.359883 0
M  V30 4251 H 412.836 -3.6722 -1.48207 0
M  V30 4252 H 414.01 -4.42803 1.27522 0
M  V30 4253 H 412.325 -4.04226 0.999503 0
M  V30 4254 H 414.922 -5.11196 -1.56788 0
M  V30 4255 H 415.265 -3.5258 -2.21344 0
M  V30 4256 H 415.798 -3.93762 -0.565337 0
M  V30 4257 H 412.537 -6.47294 1.03398 0
M  V30 4258 H 412.057 -5.96768 -0.602374 0
M  V30 4259 H 413.736 -6.46413 -0.27553 0
M  V30 4260 N 413.868 0.0150385 -1.57593 0
M  V30 4261 C 415.098 0.713359 -1.93894 0
M  V30 4262 C 415.506 1.68663 -0.857289 0
M  V30 4263 O 414.849 1.82876 0.173788 0
M  V30 4264 C 414.911 1.51348 -3.26089 0
M  V30 4265 C 414.575 0.703451 -4.51554 0
M  V30 4266 C 415.572 -0.00237924 -5.199 0
M  V30 4267 C 413.257 0.653854 -4.98026 0
M  V30 4268 C 415.251 -0.746955 -6.33008 0
M  V30 4269 C 412.938 -0.0944578 -6.11027 0
M  V30 4270 C 413.936 -0.793609 -6.78374 0
M  V30 4271 O 413.624 -1.52974 -7.89211 0
M  V30 4272 H 413.356 0.204637 -0.644282 0
M  V30 4273 H 415.91 -0.0276411 -2.05381 0
M  V30 4274 H 414.14 2.29862 -3.10967 0
M  V30 4275 H 415.829 2.09572 -3.47612 0
M  V30 4276 H 416.595 0.0268803 -4.84993 0
M  V30 4277 H 412.474 1.18756 -4.45441 0
M  V30 4278 H 416.018 -1.2932 -6.85509 0
M  V30 4279 H 411.915 -0.125591 -6.45378 0
M  V30 4280 H 412.683 -1.44488 -8.05646 0
M  V30 4281 N 415.346 1.54954 0.287554 0
M  V30 4282 C 416.309 1.86076 1.33823 0
M  V30 4283 C 417.309 0.734414 1.43049 0
M  V30 4284 O 418.499 1.00266 1.42452 0
M  V30 4285 C 415.631 2.05305 2.72144 0
M  V30 4286 H 416.824 2.79984 1.07465 0
M  V30 4287 H 414.377 1.47223 0.524902 0
M  V30 4288 H 415.112 1.1373 3.03704 0
M  V30 4289 H 414.897 2.873 2.66836 0
M  V30 4290 H 416.387 2.30706 3.48087 0
M  V30 4291 N 416.824 -0.551391 1.4764 0
M  V30 4292 C 417.774 -1.65362 1.56969 0
M  V30 4293 C 418.758 -1.55098 0.428189 0
M  V30 4294 O 419.95 -1.63481 0.678441 0
M  V30 4295 C 417.079 -3.04129 1.59249 0
M  V30 4296 C 416.165 -3.19576 2.78804 0
M  V30 4297 N 416.556 -3.05067 4.03445 0
M  V30 4298 C 414.854 -3.50588 2.75688 0
M  V30 4299 C 415.555 -3.2336 4.83543 0
M  V30 4300 N 414.531 -3.4996 4.15968 0
M  V30 4301 H 418.333 -1.52722 2.51104 0
M  V30 4302 H 415.847 -0.756303 1.43714 0
M  V30 4303 H 417.844 -3.83278 1.64024 0
M  V30 4304 H 416.504 -3.17877 0.662148 0
M  V30 4305 H 417.515 -2.82273 4.34215 0
M  V30 4306 H 414.192 -3.70827 1.91817 0
M  V30 4307 H 415.582 -3.17061 5.92387 0
M  V30 4308 N 418.302 -1.35869 -0.798587 0
M  V30 4309 C 419.249 -1.29446 -1.91082 0
M  V30 4310 C 420.219 -0.16487 -1.6528 0
M  V30 4311 O 421.404 -0.349888 -1.87564 0
M  V30 4312 C 418.544 -1.0804 -3.27752 0
M  V30 4313 C 417.657 -2.29993 -3.65687 0
M  V30 4314 C 416.792 -2.01673 -4.91428 0
M  V30 4315 C 415.831 -3.19636 -5.22015 0
M  V30 4316 N 414.968 -2.91039 -6.38937 0
M  V30 4317 H 419.808 -2.24553 -1.95907 0
M  V30 4318 H 417.345 -1.11615 -0.958148 0
M  V30 4319 H 419.303 -0.936586 -4.06551 0
M  V30 4320 H 417.933 -0.16592 -3.22373 0
M  V30 4321 H 416.985 -2.55211 -2.82085 0
M  V30 4322 H 418.297 -3.18052 -3.84245 0
M  V30 4323 H 417.451 -1.84168 -5.78072 0
M  V30 4324 H 416.19 -1.10911 -4.74921 0
M  V30 4325 H 415.195 -3.37709 -4.33858 0
M  V30 4326 H 416.42 -4.11211 -5.40447 0
M  V30 4327 H 414.366 -2.0288 -6.2384 0
M  V30 4328 H 414.283 -3.72635 -6.57784 0
M  V30 4329 H 415.551 -2.77093 -7.28587 0
M  V30 4330 N 419.78 1.02168 -1.19998 0
M  V30 4331 C 421.191 1.57135 -1.00825 0
M  V30 4332 C 421.542 1.91276 0.436818 0
M  V30 4333 O 420.667 1.71679 1.3174 0
M  V30 4334 C 421.262 2.85514 -1.82393 0
M  V30 4335 C 419.821 3.37027 -1.67601 0
M  V30 4336 C 418.968 2.10388 -1.80644 0
M  V30 4337 H 421.919 0.846106 -1.34264 0
M  V30 4338 H 421.94 3.56711 -1.32429 0
M  V30 4339 H 421.452 2.60634 -2.87561 0
M  V30 4340 H 419.553 3.66878 -0.650485 0
M  V30 4341 H 419.666 4.09572 -2.4857 0
M  V30 4342 H 418.03 2.22601 -1.23778 0
M  V30 4343 H 418.813 1.8794 -2.87286 0
M  V30 4344 N 421.258 1.00505 1.21394 0
M  V30 4345 C 422.504 0.688793 1.90745 0
M  V30 4346 C 422.837 -0.778486 1.77914 0
M  V30 4347 O 422.112 -1.56433 1.15581 0
M  V30 4348 C 422.395 1.11063 3.42545 0
M  V30 4349 C 422.248 2.63737 3.64367 0
M  V30 4350 C 423.567 0.673059 4.34923 0
M  V30 4351 H 420.686 0.251702 0.692687 0
M  V30 4352 H 423.328 1.25074 1.43026 0
M  V30 4353 H 421.478 0.632508 3.83317 0
M  V30 4354 H 423.15 3.19313 3.32922 0
M  V30 4355 H 421.393 3.05248 3.08231 0
M  V30 4356 H 422.064 2.88305 4.70727 0
M  V30 4357 H 424.54 1.08392 4.01734 0
M  V30 4358 H 423.416 0.996383 5.39781 0
M  V30 4359 H 423.677 -0.425808 4.40045 0
M  V30 4360 N 422.737 -1.36956 0.779787 0
M  V30 4361 C 423.984 -1.99491 0.347766 0
M  V30 4362 C 424.312 -1.61898 -1.07793 0
M  V30 4363 O 423.567 -0.86071 -1.75756 0
M  V30 4364 C 423.866 -3.54585 0.447686 0
M  V30 4365 C 423.532 -4.1197 1.83279 0
M  V30 4366 C 422.194 -4.27356 2.2118 0
M  V30 4367 C 424.546 -4.43354 2.74019 0
M  V30 4368 C 421.874 -4.71432 3.4924 0
M  V30 4369 C 424.226 -4.88858 4.01497 0
M  V30 4370 C 422.89 -5.0245 4.39432 0
M  V30 4371 H 422.16 -0.729991 0.127257 0
M  V30 4372 H 424.807 -1.63599 0.995376 0
M  V30 4373 H 423.112 -3.90773 -0.283447 0
M  V30 4374 H 424.809 -4.00888 0.0945948 0
M  V30 4375 H 421.399 -4.00428 1.52825 0
M  V30 4376 H 425.583 -4.31045 2.45995 0
M  V30 4377 H 420.839 -4.80141 3.78516 0
M  V30 4378 H 425.013 -5.12108 4.71931 0
M  V30 4379 H 422.64 -5.36362 5.38721 0
M  V30 4380 N 424.215 -0.530993 -1.48385 0
M  V30 4381 C 425.443 -0.00134122 -2.069 0
M  V30 4382 C 425.858 1.2805 -1.3874 0
M  V30 4383 O 425.215 1.76204 -0.475244 0
M  V30 4384 C 425.266 0.225256 -3.60798 0
M  V30 4385 O 424.987 -1.0058 -4.26398 0
M  V30 4386 C 426.488 0.795172 -4.3611 0
M  V30 4387 H 423.708 -0.0339704 -0.67014 0
M  V30 4388 H 426.252 -0.736926 -1.90761 0
M  V30 4389 H 424.407 0.910891 -3.76539 0
M  V30 4390 H 424.821 -0.787165 -5.1856 0
M  V30 4391 H 426.295 0.903143 -5.44562 0
M  V30 4392 H 426.772 1.80031 -4.00606 0
M  V30 4393 H 427.378 0.146069 -4.25049 0
M  V30 4394 N 425.693 1.55336 -0.266172 0
M  V30 4395 C 426.94 1.99397 0.353158 0
M  V30 4396 C 427.268 1.15451 1.56529 0
M  V30 4397 O 426.523 0.209974 1.9457 0
M  V30 4398 C 426.822 3.48606 0.787957 0
M  V30 4399 C 426.488 4.49773 -0.318541 0
M  V30 4400 C 425.15 4.77158 -0.62239 0
M  V30 4401 C 427.502 5.10212 -1.06459 0
M  V30 4402 C 424.83 5.62251 -1.67602 0
M  V30 4403 C 427.182 5.96449 -2.10788 0
M  V30 4404 C 425.846 6.22158 -2.41817 0
M  V30 4405 H 425.116 0.729644 0.12923 0
M  V30 4406 H 427.763 1.87732 -0.37802 0
M  V30 4407 H 426.068 3.57701 1.59866 0
M  V30 4408 H 427.765 3.80098 1.27775 0
M  V30 4409 H 424.355 4.2854 -0.0715925 0
M  V30 4410 H 428.539 4.89086 -0.843098 0
M  V30 4411 H 423.795 5.80419 -1.92155 0
M  V30 4412 H 427.969 6.42317 -2.69076 0
M  V30 4413 H 425.596 6.87888 -3.23596 0
M  V30 4414 N 427.171 -0.0066808 1.57599 0
M  V30 4415 C 428.419 -0.691552 1.899 0
M  V30 4416 C 428.74 -1.74682 0.866672 0
M  V30 4417 O 428.01 -1.95661 -0.0968189 0
M  V30 4418 H 426.59 -0.258416 0.700878 0
M  V30 4419 H 429.252 0.0326655 1.94873 0
M  V30 4420 H 428.348 -1.16702 2.8946 0
M  V30 4421 N 428.649 -1.55105 -0.279332 0
M  V30 4422 C 429.559 -1.90638 -1.36727 0
M  V30 4423 C 430.575 -0.802899 -1.54368 0
M  V30 4424 O 431.751 -1.10138 -1.68616 0
M  V30 4425 C 428.816 -2.16547 -2.70755 0
M  V30 4426 C 427.877 -3.40146 -2.61915 0
M  V30 4427 C 427.11 -3.6481 -3.8955 0
M  V30 4428 O 427.333 -2.92095 -4.89935 0
M  V30 4429 O 426.267 -4.58343 -3.90135 0
M  V30 4430 H 430.093 -2.83237 -1.09591 0
M  V30 4431 H 427.678 -1.4157 -0.477306 0
M  V30 4432 H 429.56 -2.34665 -3.50014 0
M  V30 4433 H 428.235 -1.27131 -2.9769 0
M  V30 4434 H 427.142 -3.2737 -1.81052 0
M  V30 4435 H 428.475 -4.29761 -2.3993 0
M  V30 4436 N 430.127 0.543554 -1.4793 0
M  V30 4437 C 431.373 1.29961 -1.56466 0
M  V30 4438 C 431.728 1.91024 -0.229696 0
M  V30 4439 O 431.021 1.75619 0.766072 0
M  V30 4440 C 431.215 2.42078 -2.62932 0
M  V30 4441 C 431.044 1.92003 -4.06651 0
M  V30 4442 C 429.814 1.75223 -4.73946 0
M  V30 4443 C 432.012 1.45648 -4.93245 0
M  V30 4444 N 429.994 1.19632 -6.02131 0
M  V30 4445 C 431.365 1.01914 -6.11566 0
M  V30 4446 C 433.42 1.33826 -4.79578 0
M  V30 4447 C 432.123 0.475301 -7.17728 0
M  V30 4448 C 434.149 0.808427 -5.85848 0
M  V30 4449 C 433.511 0.381081 -7.03368 0
M  V30 4450 H 429.61 0.467086 -0.62718 0
M  V30 4451 H 432.194 0.614543 -1.84747 0
M  V30 4452 H 430.365 3.08098 -2.36496 0
M  V30 4453 H 432.097 3.09096 -2.61231 0
M  V30 4454 H 428.852 1.98345 -4.30065 0
M  V30 4455 H 429.276 0.93885 -6.70458 0
M  V30 4456 H 433.918 1.65474 -3.89074 0
M  V30 4457 H 431.636 0.146472 -8.07967 0
M  V30 4458 H 435.222 0.720315 -5.77324 0
M  V30 4459 H 434.102 -0.0225344 -7.84197 0
M  V30 4460 N 431.605 1.3629 0.791371 0
M  V30 4461 C 432.852 1.30412 1.54916 0
M  V30 4462 C 433.18 -0.117162 1.94147 0
M  V30 4463 O 432.435 -1.08599 1.62803 0
M  V30 4464 C 432.734 2.17068 2.8393 0
M  V30 4465 C 432.4 3.65645 2.63846 0
M  V30 4466 C 431.062 4.0614 2.58077 0
M  V30 4467 C 433.414 4.59855 2.45322 0
M  V30 4468 C 430.742 5.3899 2.31748 0
M  V30 4469 C 433.094 5.9292 2.2052 0
M  V30 4470 C 431.758 6.32542 2.13183 0
M  V30 4471 H 431.028 0.47721 0.566879 0
M  V30 4472 H 433.675 1.68325 0.913172 0
M  V30 4473 H 431.98 1.72085 3.51986 0
M  V30 4474 H 433.677 2.09846 3.4171 0
M  V30 4475 H 430.267 3.33518 2.69191 0
M  V30 4476 H 434.451 4.29443 2.48782 0
M  V30 4477 H 429.707 5.68672 2.24548 0
M  V30 4478 H 433.881 6.65487 2.05182 0
M  V30 4479 H 431.508 7.35412 1.92544 0
M  V30 4480 N 433.083 -1.0153 1.20538 0
M  V30 4481 C 434.013 -2.11972 0.979295 0
M  V30 4482 C 434.994 -1.6985 -0.0921787 0
M  V30 4483 O 436.179 -1.94089 0.0655932 0
M  V30 4484 C 433.309 -3.43201 0.531984 0
M  V30 4485 C 432.263 -3.9907 1.54685 0
M  V30 4486 C 431.589 -5.26082 0.956127 0
M  V30 4487 C 432.889 -4.32313 2.93092 0
M  V30 4488 H 434.583 -2.31143 1.90298 0
M  V30 4489 H 432.129 -1.11079 0.916372 0
M  V30 4490 H 434.082 -4.1985 0.361044 0
M  V30 4491 H 432.806 -3.23792 -0.427327 0
M  V30 4492 H 431.465 -3.2453 1.70517 0
M  V30 4493 H 431.113 -5.02999 -0.0111538 0
M  V30 4494 H 430.813 -5.64426 1.63393 0
M  V30 4495 H 432.337 -6.05386 0.796284 0
M  V30 4496 H 433.751 -4.99845 2.80763 0
M  V30 4497 H 432.148 -4.81774 3.57791 0
M  V30 4498 H 433.218 -3.41025 3.44717 0
M  V30 4499 N 434.561 -1.01147 -1.20859 0
M  V30 4500 C 435.809 -0.696486 -1.89719 0
M  V30 4501 C 436.13 0.775788 -1.78904 0
M  V30 4502 O 435.4 1.55759 -1.18811 0
M  V30 4503 H 433.98 -0.254628 -0.702263 0
M  V30 4504 H 436.642 -1.28197 -1.46804 0
M  V30 4505 H 435.738 -0.975357 -2.96468 0
M  V30 4506 N 436.039 1.36541 -0.78704 0
M  V30 4507 C 437.264 2.0409 -0.369053 0
M  V30 4508 C 437.689 1.58957 1.00569 0
M  V30 4509 O 437.047 0.756926 1.64743 0
M  V30 4510 C 437.095 3.57924 -0.438466 0
M  V30 4511 O 436.199 4.08642 0.555479 0
M  V30 4512 H 435.54 0.645142 -0.157122 0
M  V30 4513 H 438.07 1.74545 -1.06749 0
M  V30 4514 H 438.08 4.06887 -0.301218 0
M  V30 4515 H 436.755 3.90127 -1.44132 0
M  V30 4516 H 435.332 3.70958 0.380088 0
M  V30 4517 N 437.518 0.538854 1.48102 0
M  V30 4518 C 438.481 -0.208395 2.28251 0
M  V30 4519 C 439.481 -0.859656 1.35892 0
M  V30 4520 O 440.671 -0.71834 1.58699 0
M  V30 4521 C 437.803 -1.30252 3.15035 0
M  V30 4522 H 438.996 0.495407 2.9578 0
M  V30 4523 H 436.549 0.295112 1.53489 0
M  V30 4524 H 437.284 -2.0393 2.52157 0
M  V30 4525 H 437.069 -0.840551 3.82985 0
M  V30 4526 H 438.559 -1.82787 3.75471 0
M  V30 4527 N 438.996 -1.55193 0.274407 0
M  V30 4528 C 439.959 -2.212 -0.600279 0
M  V30 4529 C 440.959 -1.18963 -1.08187 0
M  V30 4530 O 442.149 -1.43873 -0.982158 0
M  V30 4531 C 439.281 -2.87739 -1.82809 0
M  V30 4532 H 440.474 -2.9989 -0.0239682 0
M  V30 4533 H 438.027 -1.5628 0.0250192 0
M  V30 4534 H 438.762 -2.13058 -2.44493 0
M  V30 4535 H 438.547 -3.62658 -1.49069 0
M  V30 4536 H 440.037 -3.38171 -2.45011 0
M  V30 4537 N 440.474 -0.00167713 -1.576 0
M  V30 4538 C 441.699 0.69739 -1.95323 0
M  V30 4539 C 442.124 1.6642 -0.876706 0
M  V30 4540 O 441.482 1.80548 0.165007 0
M  V30 4541 C 441.53 1.40403 -3.32144 0
M  V30 4542 O 440.634 2.5185 -3.26566 0
M  V30 4543 H 439.975 0.185373 -0.637599 0
M  V30 4544 H 442.505 -0.0553665 -2.04525 0
M  V30 4545 H 442.515 1.76707 -3.67748 0
M  V30 4546 H 441.19 0.695167 -4.10049 0
M  V30 4547 H 439.767 2.17861 -3.0264 0
M  V30 4548 N 441.952 1.55251 0.271103 0
M  V30 4549 C 443.229 1.66664 1.02384 0
M  V30 4550 C 443.609 0.534363 2.04225 0
M  V30 4551 O 442.957 -0.465337 2.23712 0
M  V30 4552 C 443.167 3.05961 1.67895 0
M  V30 4553 C 444.515 3.63772 2.18986 0
M  V30 4554 O 445.539 3.08606 1.77878 0
M  V30 4555 O 444.398 4.60429 2.94393 0
M  V30 4556 H 441.492 0.676957 0.475035 0
M  V30 4557 H 444.038 1.67589 0.26681 0
M  V30 4558 H 442.81 3.79815 0.941071 0
M  V30 4559 H 442.433 3.08943 2.5028 0
M  V30 4560 N 443.43 -0.535701 1.48216 0
M  V30 4561 C 444.393 -1.623 1.61838 0
M  V30 4562 C 445.393 -1.53087 0.492024 0
M  V30 4563 O 446.583 -1.5686 0.757668 0
M  V30 4564 C 443.715 -3.01907 1.58319 0
M  V30 4565 H 444.908 -1.51564 2.58783 0
M  V30 4566 H 442.461 -0.757317 1.36727 0
M  V30 4567 H 443.196 -3.18155 0.628299 0
M  V30 4568 H 442.981 -3.10003 2.40085 0
M  V30 4569 H 444.471 -3.80969 1.71033 0
M  V30 4570 N 444.908 -1.36708 -0.784132 0
M  V30 4571 C 446.185 -1.21776 -1.53069 0
M  V30 4572 C 446.565 0.193876 -2.10208 0
M  V30 4573 O 445.913 1.20012 -1.94446 0
M  V30 4574 C 446.123 -2.30395 -2.62143 0
M  V30 4575 C 447.471 -2.67325 -3.29882 0
M  V30 4576 O 448.495 -2.29478 -2.7243 0
M  V30 4577 O 447.354 -3.32485 -4.33724 0
M  V30 4578 H 444.448 -0.474459 -0.677361 0
M  V30 4579 H 446.994 -1.48454 -0.82216 0
M  V30 4580 H 445.766 -3.2498 -2.17953 0
M  V30 4581 H 445.389 -2.05112 -3.40609 0
M  V30 4582 N 446.386 1.0089 -1.21074 0
M  V30 4583 C 447.334 2.11707 -0.963476 0
M  V30 4584 C 448.328 1.69172 0.0879032 0
M  V30 4585 O 449.534 1.79889 -0.0631415 0
M  V30 4586 H 445.909 0.692026 -0.294287 0
M  V30 4587 H 447.88 2.29743 -1.90422 0
M  V30 4588 C 446.629 3.43473 -0.540509 0
M  V30 4589 H 445.952 3.76634 -1.34114 0
M  V30 4590 H 447.392 4.22044 -0.406777 0
M  V30 4591 C 445.851 3.2849 0.748079 0
M  V30 4592 O 446.381 3.58883 1.8046 0
M  V30 4593 N 444.587 2.81715 0.713081 0
M  V30 4594 H 444.134 2.5718 -0.146973 0
M  V30 4595 H 444.092 2.72071 1.57558 0
M  V30 4596 N 447.864 1.01787 1.20321 0
M  V30 4597 C 449.092 0.727194 1.937 0
M  V30 4598 C 449.507 -0.712305 1.74848 0
M  V30 4599 O 448.864 -1.48327 1.06327 0
M  V30 4600 C 448.915 1.05497 3.45764 0
M  V30 4601 O 448.636 2.43794 3.64 0
M  V30 4602 C 450.137 0.785534 4.36285 0
M  V30 4603 H 447.357 0.266939 0.615617 0
M  V30 4604 H 449.901 1.35939 1.52777 0
M  V30 4605 H 448.056 0.468158 3.84561 0
M  V30 4606 H 448.47 2.55656 4.57974 0
M  V30 4607 H 449.944 1.06495 5.4163 0
M  V30 4608 H 450.421 -0.280273 4.38305 0
M  V30 4609 H 451.027 1.35456 4.03152 0
M  V30 4610 N 449.342 -1.36122 0.79427 0
M  V30 4611 C 450.619 -1.93398 0.292685 0
M  V30 4612 C 450.999 -1.72567 -1.21589 0
M  V30 4613 O 450.347 -1.08745 -2.00965 0
M  V30 4614 C 450.557 -3.42099 0.690614 0
M  V30 4615 C 451.905 -4.19231 0.673105 0
M  V30 4616 O 452.929 -3.50559 0.631389 0
M  V30 4617 O 451.788 -5.41732 0.720362 0
M  V30 4618 H 448.882 -0.823712 0.0736693 0
M  V30 4619 H 451.428 -1.45273 0.87714 0
M  V30 4620 H 450.2 -3.50938 1.73085 0
M  V30 4621 H 449.823 -3.97519 0.0803036 0
M  V30 4622 N 450.82 -0.546701 -1.47814 0
M  V30 4623 C 452.067 -0.0187407 -2.02491 0
M  V30 4624 C 452.395 1.32685 -1.42215 0
M  V30 4625 O 451.65 1.87413 -0.563454 0
M  V30 4626 C 451.949 0.134869 -3.57145 0
M  V30 4627 C 451.615 -1.13849 -4.3629 0
M  V30 4628 C 450.277 -1.48743 -4.57634 0
M  V30 4629 C 452.629 -1.98277 -4.82012 0
M  V30 4630 C 449.957 -2.67932 -5.21948 0
M  V30 4631 C 452.309 -3.16659 -5.4764 0
M  V30 4632 C 450.973 -3.51879 -5.67219 0
M  V30 4633 H 450.243 -0.0068577 -0.740968 0
M  V30 4634 H 452.89 -0.716097 -1.77607 0
M  V30 4635 H 451.195 0.915118 -3.80963 0
M  V30 4636 H 452.892 0.558556 -3.97091 0
M  V30 4637 H 449.482 -0.856767 -4.19949 0
M  V30 4638 H 453.666 -1.72628 -4.6531 0
M  V30 4639 H 448.922 -2.95401 -5.35302 0
M  V30 4640 H 453.096 -3.82374 -5.82033 0
M  V30 4641 H 450.723 -4.44331 -6.16825 0
M  V30 4642 N 452.299 1.55045 -0.282633 0
M  V30 4643 C 453.262 2.21515 0.588539 0
M  V30 4644 C 454.262 1.19535 1.07554 0
M  V30 4645 O 455.452 1.44391 0.974514 0
M  V30 4646 C 452.584 2.88704 1.8128 0
M  V30 4647 H 453.777 2.99899 0.00806397 0
M  V30 4648 H 451.33 1.56265 -0.0333067 0
M  V30 4649 H 452.065 2.14352 2.43359 0
M  V30 4650 H 451.85 3.63443 1.47144 0
M  V30 4651 H 453.34 3.39465 2.43214 0
M  V30 4652 N 453.777 0.010035 1.57597 0
M  V30 4653 C 454.725 -0.996272 2.10184 0
M  V30 4654 C 455.719 -1.34942 1.02406 0
M  V30 4655 O 456.925 -1.33389 1.20861 0
M  V30 4656 H 453.3 -0.338982 0.671264 0
M  V30 4657 H 455.271 -0.527272 2.93705 0
M  V30 4658 C 454.02 -2.27599 2.62857 0
M  V30 4659 H 453.343 -2.01295 3.45428 0
M  V30 4660 H 454.783 -2.96265 3.0332 0
M  V30 4661 C 453.242 -2.99269 1.54725 0
M  V30 4662 O 453.772 -3.90644 0.93597 0
M  V30 4663 N 451.978 -2.61269 1.27228 0
M  V30 4664 H 451.525 -1.87043 1.77123 0
M  V30 4665 H 451.483 -3.09534 0.550999 0
M  V30 4666 N 455.255 -1.55392 -0.262866 0
M  V30 4667 C 456.202 -1.88966 -1.32516 0
M  V30 4668 C 457.172 -0.742187 -1.48596 0
M  V30 4669 O 458.357 -0.99439 -1.62839 0
M  V30 4670 C 455.497 -2.17592 -2.67858 0
M  V30 4671 C 454.61 -3.45061 -2.59917 0
M  V30 4672 C 453.745 -3.63336 -3.87505 0
M  V30 4673 C 452.784 -4.84462 -3.74116 0
M  V30 4674 N 451.921 -4.99342 -4.93561 0
M  V30 4675 H 456.761 -2.79566 -1.03184 0
M  V30 4676 H 454.298 -1.38404 -0.498285 0
M  V30 4677 H 456.256 -2.3219 -3.46617 0
M  V30 4678 H 454.886 -1.30215 -2.95371 0
M  V30 4679 H 453.938 -3.38881 -1.72812 0
M  V30 4680 H 455.25 -4.3396 -2.45926 0
M  V30 4681 H 454.404 -3.77807 -4.74707 0
M  V30 4682 H 453.143 -2.72641 -4.04374 0
M  V30 4683 H 452.148 -4.69985 -2.85297 0
M  V30 4684 H 453.373 -5.76603 -3.58757 0
M  V30 4685 H 451.319 -4.1158 -5.10821 0
M  V30 4686 H 451.236 -5.82303 -4.82141 0
M  V30 4687 H 452.504 -5.18208 -5.82306 0
M  V30 4688 N 456.733 0.527833 -1.48498 0
M  V30 4689 C 457.958 1.313 -1.60546 0
M  V30 4690 C 458.383 1.86199 -0.26672 0
M  V30 4691 O 457.741 1.64513 0.761918 0
M  V30 4692 C 457.789 2.43818 -2.65678 0
M  V30 4693 O 456.893 3.46916 -2.22987 0
M  V30 4694 H 456.234 0.388784 -0.538277 0
M  V30 4695 H 458.764 0.634896 -1.945 0
M  V30 4696 H 458.774 2.89973 -2.87018 0
M  V30 4697 H 457.449 2.03222 -3.62869 0
M  V30 4698 H 456.026 3.06864 -2.11869 0
M  V30 4699 N 458.211 1.37122 0.776871 0
M  V30 4700 C 459.459 1.31787 1.53221 0
M  V30 4701 C 459.78 -0.0987589 1.9475 0
M  V30 4702 O 459.05 -1.0417 1.65908 0
M  V30 4703 H 457.63 0.484839 0.568278 0
M  V30 4704 H 460.292 1.71556 0.924917 0
M  V30 4705 H 459.388 1.95355 2.43398 0
M  V30 4706 N 459.689 -1.00246 1.21608 0
M  V30 4707 C 460.622 -2.08794 0.920892 0
M  V30 4708 C 461.6 -1.62059 -0.132552 0
M  V30 4709 O 462.784 -1.885 -0.0030366 0
M  V30 4710 C 459.911 -3.36525 0.383226 0
M  V30 4711 C 458.957 -4.02172 1.41987 0
M  V30 4712 S 459.79 -4.44256 2.98994 0
M  V30 4713 C 460.946 -5.7517 2.4684 0
M  V30 4714 H 461.179 -2.33511 1.8401 0
M  V30 4715 H 458.712 -1.13562 1.04609 0
M  V30 4716 H 460.67 -4.10423 0.0795871 0
M  V30 4717 H 459.331 -3.09854 -0.514711 0
M  V30 4718 H 458.524 -4.94114 0.993335 0
M  V30 4719 H 458.126 -3.34559 1.67171 0
M  V30 4720 H 460.418 -6.51042 1.87484 0
M  V30 4721 H 461.361 -6.22638 3.37235 0
M  V30 4722 H 461.769 -5.32112 1.88461 0
M  V30 4723 N 461.167 -1.02423 -1.1978 0
M  V30 4724 C 462.392 -0.7373 -1.93852 0
M  V30 4725 C 462.817 0.696923 -1.74713 0
M  V30 4726 O 462.175 1.48056 -1.04638 0
M  V30 4727 C 462.223 -1.08783 -3.438 0
M  V30 4728 O 461.327 -0.20383 -4.11896 0
M  V30 4729 H 460.668 -0.27284 -0.605355 0
M  V30 4730 H 463.198 -1.36966 -1.51992 0
M  V30 4731 H 463.208 -1.04276 -3.9445 0
M  V30 4732 H 461.883 -2.13274 -3.57053 0
M  V30 4733 H 460.46 -0.307091 -3.71633 0
M  V30 4734 N 462.645 1.35699 -0.801477 0
M  V30 4735 C 463.575 2.32436 -0.222658 0
M  V30 4736 C 464.556 1.5723 0.649057 0
M  V30 4737 O 465.741 1.85324 0.580387 0
M  V30 4738 C 462.871 3.41469 0.633719 0
M  V30 4739 C 461.825 4.27774 -0.139083 0
M  V30 4740 C 461.151 5.28082 0.838666 0
M  V30 4741 C 462.451 5.04946 -1.33517 0
M  V30 4742 H 464.145 2.81094 -1.03086 0
M  V30 4743 H 461.691 1.35146 -0.497155 0
M  V30 4744 H 463.644 4.08143 1.04868 0
M  V30 4745 H 462.368 2.91408 1.47475 0
M  V30 4746 H 461.027 3.62673 -0.535156 0
M  V30 4747 H 460.675 4.7429 1.67506 0
M  V30 4748 H 460.375 5.86695 0.32594 0
M  V30 4749 H 461.899 5.97628 1.25194 0
M  V30 4750 H 463.313 5.64593 -0.995349 0
M  V30 4751 H 461.71 5.7303 -1.78202 0
M  V30 4752 H 462.78 4.35886 -2.12442 0
M  V30 4753 N 464.123 0.554532 1.47522 0
M  V30 4754 C 465.053 -0.182974 2.32782 0
M  V30 4755 C 466.034 -0.911377 1.43624 0
M  V30 4756 O 467.219 -0.892366 1.72483 0
M  V30 4757 C 464.349 -1.21513 3.25349 0
M  V30 4758 C 463.303 -0.603355 4.23726 0
M  V30 4759 C 462.629 -1.73995 5.05598 0
M  V30 4760 C 463.929 0.441121 5.20434 0
M  V30 4761 H 465.623 0.52882 2.94693 0
M  V30 4762 H 463.169 0.255759 1.41711 0
M  V30 4763 H 465.122 -1.73922 3.83835 0
M  V30 4764 H 463.846 -1.95683 2.61487 0
M  V30 4765 H 462.505 -0.10059 3.66462 0
M  V30 4766 H 462.153 -2.47063 4.38143 0
M  V30 4767 H 461.853 -1.3364 5.72201 0
M  V30 4768 H 463.377 -2.26735 5.66942 0
M  V30 4769 H 464.791 0.00319931 5.733 0
M  V30 4770 H 463.188 0.763402 5.95224 0
M  V30 4771 H 464.258 1.33799 4.66075 0
M  V30 4772 N 465.601 -1.54893 0.290851 0
M  V30 4773 C 466.878 -1.91991 -0.373989 0
M  V30 4774 C 467.258 -1.21694 -1.72493 0
M  V30 4775 O 466.606 -0.34917 -2.25816 0
M  V30 4776 C 466.816 -3.45419 -0.498703 0
M  V30 4777 C 468.164 -4.1748 -0.774298 0
M  V30 4778 O 469.188 -3.51398 -0.582908 0
M  V30 4779 O 468.047 -5.3445 -1.14129 0
M  V30 4780 H 465.141 -0.800593 -0.207315 0
M  V30 4781 H 467.687 -1.66297 0.338164 0
M  V30 4782 H 466.459 -3.88688 0.451392 0
M  V30 4783 H 466.082 -3.77117 -1.25972 0
M  V30 4784 N 467.08 -0.0183926 -1.57589 0
M  V30 4785 C 468.327 0.662562 -1.91354 0
M  V30 4786 C 468.655 1.72747 -0.893788 0
M  V30 4787 O 467.91 1.9545 0.0988509 0
M  V30 4788 C 468.209 1.32676 -3.31861 0
M  V30 4789 C 467.875 0.393267 -4.49182 0
M  V30 4790 C 466.537 0.136302 -4.81007 0
M  V30 4791 C 468.889 -0.248366 -5.20608 0
M  V30 4792 C 466.217 -0.770282 -5.81621 0
M  V30 4793 C 468.569 -1.14294 -6.22189 0
M  V30 4794 C 467.233 -1.4089 -6.52462 0
M  V30 4795 H 466.503 0.242448 -0.700214 0
M  V30 4796 H 469.15 -0.0778629 -1.91342 0
M  V30 4797 H 467.455 2.14168 -3.28084 0
M  V30 4798 H 469.152 1.86001 -3.55253 0
M  V30 4799 H 465.742 0.603723 -4.24327 0
M  V30 4800 H 469.926 -0.062883 -4.9626 0
M  V30 4801 H 465.182 -0.984154 -6.03427 0
M  V30 4802 H 469.356 -1.64637 -6.76659 0
M  V30 4803 H 466.983 -2.11306 -7.30242 0
M  V30 4804 N 468.558 1.5553 0.254621 0
M  V30 4805 C 469.974 1.4778 0.602753 0
M  V30 4806 C 470.174 0.707047 1.88688 0
M  V30 4807 O 469.23 0.233288 2.5142 0
M  V30 4808 C 470.543 2.92133 0.712648 0
M  V30 4809 C 472.091 3.02458 0.805488 0
M  V30 4810 C 472.566 4.48102 0.947009 0
M  V30 4811 N 474.057 4.52008 1.01207 0
M  V30 4812 C 474.792 5.61939 1.1407 0
M  V30 4813 N 474.288 6.81697 1.23536 0
M  V30 4814 N 476.081 5.49719 1.17325 0
M  V30 4815 H 468.232 2.04085 -0.588463 0
M  V30 4816 H 470.495 0.926229 -0.202001 0
M  V30 4817 H 470.201 3.51332 -0.160766 0
M  V30 4818 H 470.075 3.42187 1.58707 0
M  V30 4819 H 472.462 2.43344 1.66936 0
M  V30 4820 H 472.543 2.55627 -0.0939266 0
M  V30 4821 H 472.187 5.07824 0.087725 0
M  V30 4822 H 472.117 4.92607 1.86135 0
M  V30 4823 H 474.608 3.65749 0.950577 0
M  V30 4824 H 474.921 7.61228 1.33236 0
M  V30 4825 H 473.266 6.84473 1.20508 0
M  V30 4826 H 476.457 4.55095 1.09573 0
M  V30 4827 H 476.63 6.35432 1.27005 0
M  V30 4828 N 470.036 -0.519951 1.48776 0
M  V30 4829 C 471.283 -1.27522 1.57303 0
M  V30 4830 C 471.611 -1.92869 0.251328 0
M  V30 4831 O 470.866 -1.80372 -0.759243 0
M  V30 4832 C 471.165 -2.37864 2.6675 0
M  V30 4833 C 470.831 -1.90103 4.08867 0
M  V30 4834 C 469.493 -1.76795 4.47546 0
M  V30 4835 C 471.845 -1.54133 4.97888 0
M  V30 4836 C 469.173 -1.25868 5.73039 0
M  V30 4837 C 471.525 -1.04665 6.23881 0
M  V30 4838 C 470.189 -0.899823 6.61407 0
M  V30 4839 H 469.459 -0.466636 0.575614 0
M  V30 4840 H 472.106 -0.579109 1.82534 0
M  V30 4841 H 470.411 -3.13186 2.35418 0
M  V30 4842 H 472.108 -2.95969 2.70561 0
M  V30 4843 H 468.698 -2.01414 3.78326 0
M  V30 4844 H 472.882 -1.6327 4.68675 0
M  V30 4845 H 468.138 -1.13196 6.0083 0
M  V30 4846 H 472.312 -0.759074 6.92251 0
M  V30 4847 H 469.939 -0.503011 7.58534 0
M  V30 4848 N 471.514 -1.37532 -0.769588 0
M  V30 4849 C 472.462 -1.33561 -1.90432 0
M  V30 4850 C 473.456 -0.224027 -1.67912 0
M  V30 4851 O 474.662 -0.392174 -1.75676 0
M  V30 4852 H 471.037 -0.416279 -0.626271 0
M  V30 4853 H 473.008 -2.29348 -1.90899 0
M  V30 4854 C 471.757 -1.16162 -3.27722 0
M  V30 4855 H 471.08 -2.00951 -3.45628 0
M  V30 4856 H 472.52 -1.17434 -4.07413 0
M  V30 4857 C 470.979 0.132583 -3.36639 0
M  V30 4858 O 471.509 1.11539 -3.85904 0
M  V30 4859 N 469.715 0.184013 -2.90017 0
M  V30 4860 H 469.262 -0.616415 -2.50116 0
M  V30 4861 H 469.22 1.04956 -2.96364 0
M  V30 4862 N 472.992 0.995999 -1.22138 0
M  V30 4863 C 474.217 1.77601 -1.0711 0
M  V30 4864 C 474.642 1.84339 0.374264 0
M  V30 4865 O 474 1.29359 1.27028 0
M  V30 4866 C 474.048 3.18897 -1.68336 0
M  V30 4867 O 473.152 4.01663 -0.934928 0
M  V30 4868 H 472.493 0.547011 -0.376397 0
M  V30 4869 H 475.023 1.25137 -1.6187 0
M  V30 4870 H 475.033 3.69539 -1.72931 0
M  V30 4871 H 473.708 3.13308 -2.73516 0
M  V30 4872 H 472.285 3.60204 -0.964751 0
M  V30 4873 N 474.47 1.03057 1.19235 0
M  V30 4874 C 475.433 0.617418 2.20727 0
M  V30 4875 C 476.433 -0.319856 1.57587 0
M  V30 4876 O 477.623 -0.106633 1.73873 0
M  V30 4877 C 474.755 -0.096296 3.40764 0
M  V30 4878 H 475.948 1.51544 2.58794 0
M  V30 4879 H 473.501 0.821949 1.32942 0
M  V30 4880 H 474.236 -1.00859 3.08217 0
M  V30 4881 H 474.021 0.577217 3.87828 0
M  V30 4882 H 475.511 -0.372219 4.15938 0
M  V30 4883 N 475.948 -1.35272 0.808662 0
M  V30 4884 C 477.194 -1.99003 0.390581 0
M  V30 4885 C 477.527 -1.63999 -1.0401 0
M  V30 4886 O 476.802 -0.904368 -1.72196 0
M  V30 4887 C 477.085 -3.55454 0.576566 0
M  V30 4888 C 476.938 -4.00249 2.05233 0
M  V30 4889 C 478.257 -4.401 0.00354277 0
M  V30 4890 H 475.376 -0.722917 0.143388 0
M  V30 4891 H 478.018 -1.6039 1.01858 0
M  V30 4892 H 476.168 -3.88477 0.0419766 0
M  V30 4893 H 477.84 -3.77626 2.64946 0
M  V30 4894 H 476.083 -3.51082 2.54801 0
M  V30 4895 H 476.754 -5.0911 2.13333 0
M  V30 4896 H 479.23 -4.13548 0.460117 0
M  V30 4897 H 478.106 -5.48656 0.163575 0
M  V30 4898 H 478.367 -4.28444 -1.09032 0
M  V30 4899 N 477.426 -0.562348 -1.47226 0
M  V30 4900 C 478.842 -0.222492 -1.58042 0
M  V30 4901 C 479.042 1.27505 -1.56028 0
M  V30 4902 O 478.098 2.05555 -1.46641 0
M  V30 4903 C 479.411 -0.853694 -2.88327 0
M  V30 4904 C 480.959 -0.825397 -3.01921 0
M  V30 4905 C 481.434 -1.43576 -4.34914 0
M  V30 4906 N 482.925 -1.39918 -4.41562 0
M  V30 4907 C 483.66 -1.84103 -5.43041 0
M  V30 4908 N 483.156 -2.36167 -6.51304 0
M  V30 4909 N 484.949 -1.75142 -5.34118 0
M  V30 4910 H 477.1 -1.53525 -1.46778 0
M  V30 4911 H 479.363 -0.640527 -0.698877 0
M  V30 4912 H 479.069 -1.90635 -2.95552 0
M  V30 4913 H 478.943 -0.34977 -3.75575 0
M  V30 4914 H 481.33 0.218583 -2.94289 0
M  V30 4915 H 481.411 -1.36713 -2.16202 0
M  V30 4916 H 481.055 -2.47884 -4.43301 0
M  V30 4917 H 480.985 -0.869427 -5.19373 0
M  V30 4918 H 483.476 -1.0184 -3.63919 0
M  V30 4919 H 483.789 -2.67793 -7.24919 0
M  V30 4920 H 482.134 -2.40181 -6.52179 0
M  V30 4921 H 485.325 -1.34241 -4.48439 0
M  V30 4922 H 485.498 -2.09895 -6.13065 0
M  V30 4923 N 478.904 1.54736 -0.299062 0
M  V30 4924 C 479.852 2.24897 0.593658 0
M  V30 4925 C 480.846 1.25429 1.13859 0
M  V30 4926 O 482.052 1.43286 1.08945 0
M  V30 4927 H 478.427 0.72207 0.210046 0
M  V30 4928 H 480.398 2.98393 -0.0206421 0
M  V30 4929 C 479.147 3.00159 1.75499 0
M  V30 4930 H 478.47 3.76501 1.34489 0
M  V30 4931 H 479.91 3.52535 2.35574 0
M  V30 4932 C 478.369 2.07015 2.65794 0
M  V30 4933 O 478.899 1.63692 3.66835 0
M  V30 4934 N 477.105 1.73012 2.33485 0
M  V30 4935 H 476.652 2.08439 1.51364 0
M  V30 4936 H 476.61 1.10965 2.94167 0
M  V30 4937 N 480.382 0.0267497 1.57577 0
M  V30 4938 C 481.628 -0.653371 1.91987 0
M  V30 4939 C 481.961 -1.71915 0.903263 0
M  V30 4940 O 481.236 -1.94358 -0.0743387 0
M  V30 4941 C 481.519 -1.272 3.36886 0
M  V30 4942 C 481.372 -0.215938 4.49281 0
M  V30 4943 C 482.691 -2.19069 3.81703 0
M  V30 4944 H 479.81 -0.236047 0.698177 0
M  V30 4945 H 482.452 0.0835236 1.89816 0
M  V30 4946 H 480.602 -1.90005 3.38866 0
M  V30 4947 H 482.274 0.41449 4.59434 0
M  V30 4948 H 480.517 0.458855 4.31366 0
M  V30 4949 H 481.188 -0.688347 5.47691 0
M  V30 4950 H 483.664 -1.66253 3.81444 0
M  V30 4951 H 482.54 -2.59307 4.83788 0
M  V30 4952 H 482.801 -3.08087 3.17072 0
M  V30 4953 N 481.861 -1.55662 -0.24637 0
M  V30 4954 C 483.108 -1.77519 -0.974335 0
M  V30 4955 C 483.436 -0.591165 -1.85298 0
M  V30 4956 O 482.691 0.425497 -1.91018 0
M  V30 4957 C 482.99 -3.04885 -1.86494 0
M  V30 4958 C 482.656 -4.36209 -1.14161 0
M  V30 4959 C 481.318 -4.71896 -0.941701 0
M  V30 4960 C 483.67 -5.17391 -0.628957 0
M  V30 4961 C 480.998 -5.86299 -0.216852 0
M  V30 4962 C 483.35 -6.32546 0.0824273 0
M  V30 4963 C 482.014 -6.66853 0.293807 0
M  V30 4964 H 481.284 -0.649588 -0.356535 0
M  V30 4965 H 483.931 -1.89934 -0.244394 0
M  V30 4966 H 482.236 -2.87484 -2.66196 0
M  V30 4967 H 483.933 -3.18994 -2.42989 0
M  V30 4968 H 480.523 -4.08174 -1.30736 0
M  V30 4969 H 484.707 -4.90276 -0.770943 0
M  V30 4970 H 479.963 -6.11385 -0.0426124 0
M  V30 4971 H 484.137 -6.94693 0.487292 0
M  V30 4972 H 481.764 -7.55349 0.857428 0
M  V30 4973 N 483.339 0.512053 -1.4905 0
M  V30 4974 C 484.755 0.84224 -1.35567 0
M  V30 4975 C 484.955 1.97878 -0.380319 0
M  V30 4976 O 484.011 2.51769 0.19201 0
M  V30 4977 C 485.324 1.19286 -2.76028 0
M  V30 4978 C 486.872 1.30171 -2.84648 0
M  V30 4979 C 487.347 1.68568 -4.25851 0
M  V30 4980 N 488.838 1.75638 -4.28609 0
M  V30 4981 C 489.573 2.06769 -5.34821 0
M  V30 4982 N 489.069 2.36201 -6.51292 0
M  V30 4983 N 490.862 2.07927 -5.22229 0
M  V30 4984 H 483.013 -0.237574 -2.11067 0
M  V30 4985 H 485.276 -0.0436747 -0.946993 0
M  V30 4986 H 484.982 0.431199 -3.49047 0
M  V30 4987 H 484.856 2.13889 -3.10695 0
M  V30 4988 H 487.243 2.05411 -2.11873 0
M  V30 4989 H 487.324 0.336457 -2.53578 0
M  V30 4990 H 486.968 0.938824 -4.99148 0
M  V30 4991 H 486.898 2.66174 -4.54377 0
M  V30 4992 H 489.389 1.55097 -3.44606 0
M  V30 4993 H 489.702 2.59112 -7.28066 0
M  V30 4994 H 488.047 2.33681 -6.54536 0
M  V30 4995 H 491.238 1.84403 -4.30248 0
M  V30 4996 H 491.411 2.31856 -6.05101 0
M  V30 4997 N 484.817 1.37938 0.762283 0
M  V30 4998 C 486.094 1.24196 1.51112 0
M  V30 4999 C 486.474 -0.160409 2.1049 0
M  V30 5000 O 485.822 -1.16904 1.96331 0
M  V30 5001 C 486.032 2.34537 2.58445 0
M  V30 5002 C 487.38 2.7254 3.25588 0
M  V30 5003 O 488.404 2.33783 2.68745 0
M  V30 5004 O 487.263 3.39343 4.28379 0
M  V30 5005 H 484.357 0.485175 0.669727 0
M  V30 5006 H 486.903 1.49743 0.798438 0
M  V30 5007 H 485.675 3.28406 2.12756 0
M  V30 5008 H 485.298 2.10505 3.37303 0
M  V30 5009 N 486.295 -0.989507 1.22664 0
M  V30 5010 C 487.243 -2.10148 0.997035 0
M  V30 5011 C 488.237 -1.6929 -0.0609783 0
M  V30 5012 O 489.443 -1.79766 0.0917523 0
M  V30 5013 H 485.818 -0.687256 0.305259 0
M  V30 5014 H 487.789 -2.26685 1.94053 0
M  V30 5015 C 486.538 -3.4257 0.595085 0
M  V30 5016 H 485.861 -3.74453 1.40089 0
M  V30 5017 H 487.301 -4.21344 0.473869 0
M  V30 5018 C 485.76 -3.29638 -0.695725 0
M  V30 5019 O 486.29 -3.61709 -1.74727 0
M  V30 5020 N 484.496 -2.82814 -0.668173 0
M  V30 5021 H 484.043 -2.56914 0.18787 0
M  V30 5022 H 484.001 -2.74544 -1.5321 0
M  V30 5023 N 487.773 -1.03688 -1.18687 0
M  V30 5024 C 489.001 -0.757918 -1.92518 0
M  V30 5025 C 489.416 0.684398 -1.75959 0
M  V30 5026 O 488.773 1.46617 -1.08673 0
M  V30 5027 C 488.824 -1.10985 -3.44042 0
M  V30 5028 O 488.545 -2.49554 -3.60076 0
M  V30 5029 C 490.046 -0.854844 -4.3498 0
M  V30 5030 H 487.266 -0.276699 -0.611293 0
M  V30 5031 H 489.81 -1.38352 -1.50595 0
M  V30 5032 H 487.965 -0.529279 -3.83767 0
M  V30 5033 H 488.379 -2.6291 -4.53849 0
M  V30 5034 H 489.853 -1.15098 -5.39867 0
M  V30 5035 H 490.33 0.210507 -4.38695 0
M  V30 5036 H 490.936 -1.41853 -4.00946 0
M  V30 5037 N 489.251 1.34841 -0.815825 0
M  V30 5038 C 490.476 2.03261 -0.41226 0
M  V30 5039 C 490.901 1.61055 0.971751 0
M  V30 5040 O 490.259 0.7917 1.63101 0
M  V30 5041 C 490.307 3.56914 -0.514289 0
M  V30 5042 O 489.411 4.09728 0.468675 0
M  V30 5043 H 488.752 0.641664 -0.170771 0
M  V30 5044 H 491.282 1.72241 -1.10427 0
M  V30 5045 H 491.292 4.06156 -0.387457 0
M  V30 5046 H 489.967 3.86982 -1.52375 0
M  V30 5047 H 488.544 3.71681 0.301316 0
M  V30 5048 N 490.729 0.570148 1.46925 0
M  V30 5049 C 491.677 -0.183181 2.31878 0
M  V30 5050 C 492.671 -0.896721 1.43719 0
M  V30 5051 O 493.877 -0.816536 1.60414 0
M  V30 5052 H 490.252 -0.077944 0.74795 0
M  V30 5053 H 492.223 0.552312 2.93244 0
M  V30 5054 C 490.972 -1.19172 3.2664 0
M  V30 5055 H 490.295 -0.652088 3.94446 0
M  V30 5056 H 491.735 -1.68946 3.88887 0
M  V30 5057 C 490.194 -2.24627 2.51086 0
M  V30 5058 O 490.724 -3.31773 2.26472 0
M  V30 5059 N 488.93 -1.98898 2.11867 0
M  V30 5060 H 488.477 -1.11777 2.32086 0
M  V30 5061 H 488.435 -2.6967 1.61634 0
M  V30 5062 N 492.207 -1.54576 0.307264 0
M  V30 5063 C 493.14 -2.19946 -0.608195 0
M  V30 5064 C 494.118 -1.17096 -1.12815 0
M  V30 5065 O 495.302 -1.45766 -1.19518 0
M  V30 5066 C 492.429 -2.84826 -1.8328 0
M  V30 5067 C 491.475 -4.01256 -1.44554 0
M  V30 5068 S 492.308 -5.33197 -0.49612 0
M  V30 5069 C 493.464 -6.01563 -1.72838 0
M  V30 5070 H 493.697 -2.97253 -0.0528544 0
M  V30 5071 H 491.23 -1.54129 0.0913837 0
M  V30 5072 H 493.188 -3.22832 -2.53554 0
M  V30 5073 H 491.849 -2.07353 -2.35931 0
M  V30 5074 H 491.042 -4.45457 -2.35762 0
M  V30 5075 H 490.644 -3.6484 -0.822671 0
M  V30 5076 H 492.936 -6.22751 -2.6681 0
M  V30 5077 H 493.879 -6.9552 -1.32882 0
M  V30 5078 H 494.287 -5.31279 -1.90795 0
M  V30 5079 N 493.685 -0.035106 -1.57561 0
M  V30 5080 C 494.915 0.651312 -1.96065 0
M  V30 5081 C 495.323 1.6585 -0.910514 0
M  V30 5082 O 494.666 1.83336 0.11552 0
M  V30 5083 C 494.728 1.40897 -3.30739 0
M  V30 5084 C 494.392 0.559436 -4.53563 0
M  V30 5085 C 495.389 -0.16778 -5.19629 0
M  V30 5086 C 493.074 0.495079 -4.99854 0
M  V30 5087 C 495.068 -0.947963 -6.30311 0
M  V30 5088 C 492.755 -0.288804 -6.10417 0
M  V30 5089 C 493.753 -1.00903 -6.75505 0
M  V30 5090 O 493.441 -1.78005 -7.83945 0
M  V30 5091 H 493.173 0.184036 -0.650467 0
M  V30 5092 H 495.727 -0.0929677 -2.05189 0
M  V30 5093 H 493.957 2.19852 -3.18123 0
M  V30 5094 H 495.646 1.98407 -3.54104 0
M  V30 5095 H 496.412 -0.12743 -4.84833 0
M  V30 5096 H 492.291 1.04524 -4.48994 0
M  V30 5097 H 495.835 -1.51064 -6.81047 0
M  V30 5098 H 491.732 -0.33085 -6.44652 0
M  V30 5099 H 492.5 -1.70046 -8.00641 0
M  V30 5100 N 495.163 1.55791 0.238111 0
M  V30 5101 C 496.126 1.90239 1.27835 0
M  V30 5102 C 497.126 0.779552 1.4064 0
M  V30 5103 O 498.316 1.04747 1.3919 0
M  V30 5104 C 495.448 2.13859 2.65475 0
M  V30 5105 H 496.641 2.83262 0.985034 0
M  V30 5106 H 494.194 1.48818 0.477799 0
M  V30 5107 H 494.929 1.23334 2.99932 0
M  V30 5108 H 494.714 2.95643 2.57561 0
M  V30 5109 H 496.204 2.41664 3.40571 0
M  V30 5110 N 496.642 -0.504142 1.49319 0
M  V30 5111 C 497.572 -1.61473 1.68667 0
M  V30 5112 C 498.553 -1.61455 0.535378 0
M  V30 5113 O 499.738 -1.78245 0.770868 0
M  V30 5114 C 496.868 -2.99971 1.75028 0
M  V30 5115 C 495.822 -3.14854 2.89916 0
M  V30 5116 C 495.148 -4.54671 2.81387 0
M  V30 5117 C 496.448 -2.95176 4.30893 0
M  V30 5118 H 498.142 -1.45535 2.61648 0
M  V30 5119 H 495.688 -0.698711 1.25913 0
M  V30 5120 H 497.641 -3.77562 1.8715 0
M  V30 5121 H 496.365 -3.1699 0.786441 0
M  V30 5122 H 495.024 -2.39687 2.77391 0
M  V30 5123 H 494.672 -4.68562 1.82917 0
M  V30 5124 H 494.372 -4.6557 3.58494 0
M  V30 5125 H 495.896 -5.34327 2.95512 0
M  V30 5126 H 497.31 -3.62538 4.44116 0
M  V30 5127 H 495.707 -3.17549 5.09198 0
M  V30 5128 H 496.777 -1.91332 4.45556 0
M  V30 5129 N 498.12 -1.38341 -0.754957 0
M  V30 5130 C 499.397 -1.24995 -1.50451 0
M  V30 5131 C 499.777 0.149244 -2.10572 0
M  V30 5132 O 499.125 1.15861 -1.96948 0
M  V30 5133 C 499.335 -2.35904 -2.57197 0
M  V30 5134 C 500.683 -2.74262 -3.24138 0
M  V30 5135 O 501.707 -2.35205 -2.67501 0
M  V30 5136 O 500.566 -3.4161 -4.26574 0
M  V30 5137 H 497.66 -0.48872 -0.667144 0
M  V30 5138 H 500.206 -1.50165 -0.790486 0
M  V30 5139 H 498.978 -3.2953 -2.11011 0
M  V30 5140 H 498.601 -2.12291 -3.36182 0
M  V30 5141 N 499.598 0.982988 -1.23187 0
M  V30 5142 C 500.823 1.76455 -1.08988 0
M  V30 5143 C 501.248 1.84726 0.354691 0
M  V30 5144 O 500.606 1.30699 1.25649 0
M  V30 5145 C 500.654 3.17094 -1.71708 0
M  V30 5146 O 499.758 4.00648 -0.977477 0
M  V30 5147 H 499.099 0.542988 -0.382177 0
M  V30 5148 H 501.629 1.23413 -1.63188 0
M  V30 5149 H 501.639 3.67684 -1.76841 0
M  V30 5150 H 500.314 3.10389 -2.76823 0
M  V30 5151 H 498.891 3.59161 -1.0029 0
M  V30 5152 N 501.076 1.04316 1.18135 0
M  V30 5153 C 502.009 0.580823 2.20685 0
M  V30 5154 C 502.987 -0.385943 1.57953 0
M  V30 5155 O 504.171 -0.299654 1.86103 0
M  V30 5156 C 501.298 -0.151162 3.38363 0
M  V30 5157 C 500.344 0.769247 4.19505 0
M  V30 5158 S 501.177 2.25352 4.85774 0
M  V30 5159 C 502.333 1.53246 6.0685 0
M  V30 5160 H 502.566 1.44968 2.5956 0
M  V30 5161 H 500.099 0.85434 1.28609 0
M  V30 5162 H 502.057 -0.567315 4.06561 0
M  V30 5163 H 500.718 -0.995936 2.97892 0
M  V30 5164 H 499.911 0.203335 5.0359 0
M  V30 5165 H 499.513 1.12436 3.56699 0
M  V30 5166 H 501.805 0.82689 6.72435 0
M  V30 5167 H 502.748 2.35044 6.67952 0
M  V30 5168 H 503.156 1.0237 5.5514 0
M  V30 5169 N 502.554 -1.34406 0.822964 0
M  V30 5170 C 503.803 -1.97542 0.407458 0
M  V30 5171 C 504.116 -1.65973 -1.035 0
M  V30 5172 O 505.322 -2.22598 -1.55442 0
M  V30 5173 C 503.778 -3.53463 0.677623 0
M  V30 5174 C 503.386 -3.93925 2.1337 0
M  V30 5175 C 505.13 -4.23229 0.328284 0
M  V30 5176 C 503.037 -5.42759 2.34876 0
M  V30 5177 H 501.967 -0.739207 0.148623 0
M  V30 5178 H 504.618 -1.53248 1.00932 0
M  V30 5179 H 503 -3.96 0.00558965 0
M  V30 5180 H 504.174 -3.62494 2.8449 0
M  V30 5181 H 502.489 -3.37097 2.44448 0
M  V30 5182 H 505.086 -5.32659 0.466794 0
M  V30 5183 H 505.429 -4.09899 -0.727224 0
M  V30 5184 H 505.962 -3.86169 0.954896 0
M  V30 5185 H 502.701 -5.61075 3.38932 0
M  V30 5186 H 502.221 -5.75704 1.68299 0
M  V30 5187 H 503.9 -6.0944 2.17236 0
M  V30 5188 N 504.032 -0.577932 -1.46621 0
M  V30 5189 C 504.98 0.170882 -2.31971 0
M  V30 5190 C 505.974 0.889086 -1.44193 0
M  V30 5191 O 507.18 0.808017 -1.60845 0
M  V30 5192 H 503.555 0.0739763 -0.748353 0
M  V30 5193 H 505.526 -0.567856 -2.92947 0
M  V30 5194 C 504.275 1.17438 -3.27267 0
M  V30 5195 H 503.598 0.63116 -3.94787 0
M  V30 5196 H 505.038 1.66882 -3.89778 0
M  V30 5197 C 503.497 2.23292 -2.52274 0
M  V30 5198 O 504.027 3.30567 -2.28229 0
M  V30 5199 N 502.233 1.97772 -2.12919 0
M  V30 5200 H 501.78 1.10545 -2.32675 0
M  V30 5201 H 501.738 2.68809 -1.63062 0
M  V30 5202 N 505.51 1.54411 -0.315457 0
M  V30 5203 C 506.735 2.05299 0.294496 0
M  V30 5204 C 507.16 1.19052 1.4563 0
M  V30 5205 O 506.518 0.197804 1.80218 0
M  V30 5206 C 506.566 3.5345 0.714549 0
M  V30 5207 O 505.67 3.70175 1.81781 0
M  V30 5208 H 505.011 0.661743 0.0547019 0
M  V30 5209 H 507.541 1.99327 -0.461508 0
M  V30 5210 H 507.551 3.9557 0.999426 0
M  V30 5211 H 506.226 4.1568 -0.135244 0
M  V30 5212 H 504.803 3.3996 1.53236 0
M  V30 5213 N 506.988 0.0434614 1.5754 0
M  V30 5214 C 508.216 -0.641835 1.96693 0
M  V30 5215 C 508.631 -1.64832 0.920652 0
M  V30 5216 O 507.988 -1.82247 -0.095993 0
M  V30 5217 C 508.039 -1.33557 3.35924 0
M  V30 5218 O 507.76 -0.369403 4.3654 0
M  V30 5219 C 509.261 -2.11135 3.89791 0
M  V30 5220 H 506.481 -0.176013 0.647503 0
M  V30 5221 H 509.025 0.107478 2.04217 0
M  V30 5222 H 507.18 -2.03617 3.29574 0
M  V30 5223 H 507.594 -0.863674 5.1734 0
M  V30 5224 H 509.068 -2.55107 4.89514 0
M  V30 5225 H 509.545 -2.95634 3.24803 0
M  V30 5226 H 510.151 -1.46002 3.99454 0
M  V30 5227 N 508.466 -1.55915 -0.229846 0
M  V30 5228 C 509.429 -1.90914 -1.26824 0
M  V30 5229 C 510.429 -0.786999 -1.40225 0
M  V30 5230 O 511.619 -1.05484 -1.38632 0
M  V30 5231 C 508.751 -2.15264 -2.64337 0
M  V30 5232 H 509.944 -2.8378 -0.969998 0
M  V30 5233 H 507.497 -1.49069 -0.4699 0
M  V30 5234 H 508.232 -1.24923 -2.99274 0
M  V30 5235 H 508.017 -2.97005 -2.55989 0
M  V30 5236 H 509.507 -2.43467 -3.39284 0
M  V30 5237 N 509.944 0.496216 -1.49584 0
M  V30 5238 C 511.172 1.27394 -1.63029 0
M  V30 5239 C 511.587 1.86344 -0.303569 0
M  V30 5240 O 510.944 1.68057 0.711547 0
M  V30 5241 C 510.995 2.40077 -2.70269 0
M  V30 5242 O 510.716 1.83549 -3.97796 0
M  V30 5243 C 512.217 3.31372 -2.94462 0
M  V30 5244 H 509.437 0.386211 -0.54871 0
M  V30 5245 H 511.981 0.595163 -1.95648 0
M  V30 5246 H 510.136 3.03775 -2.40415 0
M  V30 5247 H 510.55 2.57561 -4.56905 0
M  V30 5248 H 512.024 4.06707 -3.73221 0
M  V30 5249 H 512.501 3.88654 -2.0456 0
M  V30 5250 H 513.107 2.73435 -3.25751 0
M  V30 5251 N 511.423 1.38739 0.74761 0
M  V30 5252 C 512.7 1.25791 1.49786 0
M  V30 5253 C 513.08 -0.138075 2.10648 0
M  V30 5254 O 512.428 -1.14815 1.9756 0
M  V30 5255 C 512.638 2.37265 2.55942 0
M  V30 5256 C 513.986 2.75978 3.22679 0
M  V30 5257 O 515.01 2.36621 2.6625 0
M  V30 5258 O 513.869 3.43867 4.24756 0
M  V30 5259 H 510.963 0.492251 0.664543 0
M  V30 5260 H 513.509 1.50582 0.782511 0
M  V30 5261 H 512.281 3.30644 2.0926 0
M  V30 5262 H 511.904 2.14071 3.35051 0
M  V30 5263 N 512.901 -0.976442 1.23707 0
M  V30 5264 C 514.131 -1.75087 1.09673 0
M  V30 5265 C 514.539 -1.85852 -0.354344 0
M  V30 5266 O 513.882 -1.33985 -1.25673 0
M  V30 5267 C 513.944 -3.19272 1.65245 0
M  V30 5268 C 513.608 -3.32004 3.14042 0
M  V30 5269 C 514.605 -3.18017 4.11292 0
M  V30 5270 C 512.29 -3.56525 3.53829 0
M  V30 5271 C 514.284 -3.28363 5.46312 0
M  V30 5272 C 511.971 -3.6651 4.88993 0
M  V30 5273 C 512.969 -3.52439 5.85043 0
M  V30 5274 O 512.657 -3.62063 7.1775 0
M  V30 5275 H 512.389 -0.556164 0.384262 0
M  V30 5276 H 514.943 -1.23518 1.64111 0
M  V30 5277 H 513.173 -3.72107 1.05231 0
M  V30 5278 H 514.862 -3.7849 1.46629 0
M  V30 5279 H 515.628 -2.98966 3.81896 0
M  V30 5280 H 511.507 -3.66547 2.79579 0
M  V30 5281 H 515.051 -3.17297 6.21263 0
M  V30 5282 H 510.948 -3.85072 5.18063 0
M  V30 5283 H 511.716 -3.78833 7.25553 0
M  V30 5284 N 514.379 -1.04941 -1.1758 0
M  V30 5285 C 515.327 -0.64204 -2.23563 0
M  V30 5286 C 516.321 0.335453 -1.66045 0
M  V30 5287 O 517.527 0.20179 -1.78865 0
M  V30 5288 H 513.902 -0.18944 -0.727748 0
M  V30 5289 H 515.873 -1.54609 -2.55223 0
M  V30 5290 C 514.622 -0.0301051 -3.47687 0
M  V30 5291 H 513.945 -0.773339 -3.92249 0
M  V30 5292 H 515.385 0.217592 -4.23441 0
M  V30 5293 C 513.844 1.2225 -3.13937 0
M  V30 5294 O 514.374 2.3122 -3.28482 0
M  V30 5295 N 512.58 1.11917 -2.68185 0
M  V30 5296 H 512.127 0.232403 -2.5655 0
M  V30 5297 H 512.085 1.95814 -2.45976 0
M  V30 5298 N 515.857 1.33968 -0.830081 0
M  V30 5299 C 516.789 2.28194 -0.21448 0
M  V30 5300 C 517.802 1.5135 0.599752 0
M  V30 5301 O 518.991 1.73286 0.42826 0
M  V30 5302 C 516.091 3.31221 0.717356 0
M  V30 5303 C 515.264 4.37365 -0.055613 0
M  V30 5304 C 514.323 5.2011 0.798231 0
M  V30 5305 O 513.349 5.68691 0.240616 0
M  V30 5306 N 514.551 5.40523 2.11695 0
M  V30 5307 H 517.316 2.81662 -1.02405 0
M  V30 5308 H 514.877 1.46568 -0.687713 0
M  V30 5309 H 516.869 3.83477 1.29334 0
M  V30 5310 H 515.439 2.78095 1.42765 0
M  V30 5311 H 514.659 3.85727 -0.812936 0
M  V30 5312 H 515.947 5.05397 -0.587444 0
M  V30 5313 H 515.345 5.0274 2.59363 0
M  V30 5314 H 513.902 5.95871 2.64162 0
M  V30 5315 N 517.335 0.585699 1.46312 0
M  V30 5316 C 518.581 0.0725284 2.0267 0
M  V30 5317 C 518.914 -1.28523 1.45586 0
M  V30 5318 O 518.189 -1.84283 0.622101 0
M  V30 5319 C 518.472 0.0099788 3.60099 0
M  V30 5320 C 518.325 1.39685 4.27561 0
M  V30 5321 C 519.644 -0.689117 4.34671 0
M  V30 5322 H 516.763 0.0278307 0.736474 0
M  V30 5323 H 519.405 0.753472 1.74421 0
M  V30 5324 H 517.555 -0.56992 3.84297 0
M  V30 5325 H 519.227 2.02215 4.14617 0
M  V30 5326 H 517.47 1.96374 3.86807 0
M  V30 5327 H 518.141 1.30553 5.36339 0
M  V30 5328 H 520.617 -0.196446 4.15636 0
M  V30 5329 H 519.493 -0.701921 5.44393 0
M  V30 5330 H 519.754 -1.75101 4.05946 0
M  V30 5331 N 518.813 -1.54241 0.323641 0
M  V30 5332 C 519.761 -2.25813 -0.557804 0
M  V30 5333 C 520.755 -1.27225 -1.11849 0
M  V30 5334 O 521.961 -1.45001 -1.06652 0
M  V30 5335 H 518.336 -0.72532 -0.198532 0
M  V30 5336 H 520.307 -2.98322 0.0681112 0
M  V30 5337 C 519.056 -3.02913 -1.70701 0
M  V30 5338 H 518.379 -3.78593 -1.28482 0
M  V30 5339 H 519.819 -3.56238 -2.29935 0
M  V30 5340 C 518.278 -2.11217 -2.62467 0
M  V30 5341 O 518.808 -1.69508 -3.64184 0
M  V30 5342 N 517.014 -1.76704 -2.30703 0
M  V30 5343 H 516.561 -2.1082 -1.48029 0
M  V30 5344 H 516.519 -1.15631 -2.92364 0
M  V30 5345 N 520.291 -0.0518155 -1.57515 0
M  V30 5346 C 521.568 0.661727 -1.84067 0
M  V30 5347 C 521.948 1.88999 -0.940351 0
M  V30 5348 O 521.296 2.285 -0.00155404 0
M  V30 5349 C 521.506 1.01841 -3.3381 0
M  V30 5350 C 522.854 1.40043 -4.00841 0
M  V30 5351 O 523.878 1.11073 -3.38439 0
M  V30 5352 O 522.737 1.94111 -5.10865 0
M  V30 5353 H 519.831 0.326702 -0.759733 0
M  V30 5354 H 522.377 -0.0812277 -1.69505 0
M  V30 5355 H 521.149 0.145202 -3.91031 0
M  V30 5356 H 520.772 1.81879 -3.53562 0
M  V30 5357 N 521.769 1.56035 0.221574 0
M  V30 5358 C 522.701 1.889 1.29805 0
M  V30 5359 C 523.714 0.777269 1.43047 0
M  V30 5360 O 524.903 1.05557 1.43945 0
M  V30 5361 C 522.003 2.0825 2.67367 0
M  V30 5362 C 521.176 3.39267 2.76073 0
M  V30 5363 C 520.235 3.48049 3.94649 0
M  V30 5364 O 519.261 4.2108 3.82988 0
M  V30 5365 N 520.463 2.79191 5.08953 0
M  V30 5366 H 523.228 2.81831 1.01938 0
M  V30 5367 H 520.789 1.5658 0.411612 0
M  V30 5368 H 522.781 2.11441 3.45072 0
M  V30 5369 H 521.351 1.21944 2.87834 0
M  V30 5370 H 520.571 3.48175 1.84846 0
M  V30 5371 H 521.859 4.25575 2.7886 0
M  V30 5372 H 521.257 2.19635 5.21322 0
M  V30 5373 H 519.814 2.88043 5.84701 0
M  V30 5374 N 523.247 -0.488276 1.49845 0
M  V30 5375 C 524.493 -1.24341 1.6021 0
M  V30 5376 C 524.826 -1.91967 0.293651 0
M  V30 5377 O 524.101 -1.81323 -0.703718 0
M  V30 5378 C 524.384 -2.3005 2.77036 0
M  V30 5379 C 524.237 -1.66842 4.17713 0
M  V30 5380 C 525.556 -3.31509 2.89464 0
M  V30 5381 H 522.675 -0.450704 0.583125 0
M  V30 5382 H 525.317 -0.539673 1.82174 0
M  V30 5383 H 523.467 -2.90071 2.58439 0
M  V30 5384 H 525.139 -1.1055 4.47858 0
M  V30 5385 H 523.382 -0.972079 4.22768 0
M  V30 5386 H 524.053 -2.43576 4.95353 0
M  V30 5387 H 526.529 -2.81493 3.06433 0
M  V30 5388 H 525.405 -4.02822 3.72861 0
M  V30 5389 H 525.666 -3.94603 1.99351 0
M  V30 5390 N 524.725 -1.39134 -0.740242 0
M  V30 5391 C 525.953 -1.39334 -1.5295 0
M  V30 5392 C 526.368 0.0135008 -1.88795 0
M  V30 5393 O 525.725 0.983524 -1.5373 0
M  V30 5394 C 525.776 -2.2614 -2.82034 0
M  V30 5395 O 525.497 -3.61345 -2.47712 0
M  V30 5396 C 526.998 -2.34666 -3.76094 0
M  V30 5397 H 524.218 -0.476103 -0.472828 0
M  V30 5398 H 526.762 -1.82883 -0.9151 0
M  V30 5399 H 524.917 -1.86018 -3.39818 0
M  V30 5400 H 525.331 -4.07194 -3.30595 0
M  V30 5401 H 526.805 -2.99663 -4.63579 0
M  V30 5402 H 527.282 -1.36426 -4.17474 0
M  V30 5403 H 527.888 -2.75236 -3.2423 0
M  V30 5404 N 526.204 0.969867 -1.24223 0
M  V30 5405 C 527.451 1.71256 -1.08063 0
M  V30 5406 C 527.779 1.90734 0.380872 0
M  V30 5407 O 527.034 1.46469 1.29789 0
M  V30 5408 C 527.333 3.10883 -1.76314 0
M  V30 5409 C 526.999 3.11252 -3.26241 0
M  V30 5410 C 525.661 3.1106 -3.67144 0
M  V30 5411 C 528.013 3.05751 -4.22097 0
M  V30 5412 C 525.341 3.03097 -5.02344 0
M  V30 5413 C 527.693 2.9933 -5.57301 0
M  V30 5414 C 526.357 2.97466 -5.97554 0
M  V30 5415 H 525.627 0.62667 -0.395431 0
M  V30 5416 H 528.274 1.13422 -1.54297 0
M  V30 5417 H 526.579 3.72168 -1.22468 0
M  V30 5418 H 528.276 3.67138 -1.61277 0
M  V30 5419 H 524.866 3.12165 -2.93685 0
M  V30 5420 H 529.05 3.05031 -3.91497 0
M  V30 5421 H 524.306 3.00013 -5.32731 0
M  V30 5422 H 528.48 2.94033 -6.31283 0
M  V30 5423 H 526.107 2.91051 -7.02277 0
M  V30 5424 N 527.682 1.05563 1.17022 0
M  V30 5425 C 528.931 0.763036 1.8671 0
M  V30 5426 C 529.244 -0.712857 1.82147 0
M  V30 5427 O 530.45 -1.11955 2.47343 0
M  V30 5428 C 528.906 1.31474 3.35026 0
M  V30 5429 C 528.514 2.82034 3.48081 0
M  V30 5430 C 530.258 1.09935 4.10018 0
M  V30 5431 C 528.165 3.30486 4.90442 0
M  V30 5432 H 527.095 0.281747 0.699382 0
M  V30 5433 H 529.746 1.2734 1.32124 0
M  V30 5434 H 528.128 0.732171 3.89173 0
M  V30 5435 H 529.302 3.46178 3.04133 0
M  V30 5436 H 527.617 3.02156 2.86515 0
M  V30 5437 H 530.214 1.43632 5.15048 0
M  V30 5438 H 530.557 0.0373072 4.16283 0
M  V30 5439 H 531.09 1.64732 3.62089 0
M  V30 5440 H 527.829 4.36137 4.89352 0
M  V30 5441 H 527.349 2.71086 5.35044 0
M  V30 5442 H 529.028 3.25382 5.59227 0
M  V30 5443 N 529.16 -1.33526 0.837174 0
M  V30 5444 C 530.437 -1.92369 0.354065 0
M  V30 5445 C 530.817 -1.76348 -1.16038 0
M  V30 5446 O 530.165 -1.15083 -1.97403 0
M  V30 5447 C 530.375 -3.39728 0.799101 0
M  V30 5448 C 531.723 -4.16877 0.806139 0
M  V30 5449 O 532.747 -3.48373 0.742597 0
M  V30 5450 O 531.606 -5.39166 0.892345 0
M  V30 5451 H 528.7 -0.820952 0.0998378 0
M  V30 5452 H 531.246 -1.42409 0.922913 0
M  V30 5453 H 530.018 -3.45254 1.84162 0
M  V30 5454 H 529.641 -3.97062 0.206731 0
M  V30 5455 N 530.638 -0.59345 -1.46 0
M  V30 5456 C 531.586 0.146268 -2.3214 0
M  V30 5457 C 532.58 0.873743 -1.45128 0
M  V30 5458 O 533.786 0.790912 -1.61693 0
M  V30 5459 H 530.161 0.0660349 -0.749095 0
M  V30 5460 H 532.132 -0.598895 -2.92328 0
M  V30 5461 C 530.881 1.1396 -3.28494 0
M  V30 5462 H 530.204 0.589252 -3.95434 0
M  V30 5463 H 531.644 1.62738 -3.91526 0
M  V30 5464 C 530.103 2.20604 -2.54628 0
M  V30 5465 O 530.633 3.28128 -2.31722 0
M  V30 5466 N 528.839 1.95502 -2.15005 0
M  V30 5467 H 528.386 1.0807 -2.33834 0
M  V30 5468 H 528.344 2.67064 -1.65904 0
M  V30 5469 N 532.116 1.54067 -0.331816 0
M  V30 5470 C 533.066 2.21363 0.546101 0
M  V30 5471 C 534.05 1.19698 1.07523 0
M  V30 5472 O 535.242 1.45293 1.01088 0
M  V30 5473 C 532.371 2.98115 1.70242 0
M  V30 5474 C 531.457 4.07127 1.18779 0
M  V30 5475 N 531.848 5.04267 0.393465 0
M  V30 5476 C 530.146 4.21226 1.46576 0
M  V30 5477 C 530.847 5.81585 0.115572 0
M  V30 5478 N 529.823 5.39022 0.703987 0
M  V30 5479 H 533.625 2.93821 -0.0679751 0
M  V30 5480 H 531.139 1.61812 -0.138085 0
M  V30 5481 H 533.136 3.44818 2.34321 0
M  V30 5482 H 531.796 2.27181 2.31989 0
M  V30 5483 H 532.807 5.17888 0.0355757 0
M  V30 5484 H 529.484 3.61509 2.08848 0
M  V30 5485 H 530.874 6.6985 -0.524426 0
M  V30 5486 N 533.594 0.0601682 1.57485 0
M  V30 5487 C 534.871 -0.651956 1.84415 0
M  V30 5488 C 535.251 -1.88498 0.950361 0
M  V30 5489 O 534.599 -2.28496 0.0136719 0
M  V30 5490 C 534.809 -1.00069 3.34346 0
M  V30 5491 C 536.157 -1.37915 4.01578 0
M  V30 5492 O 537.181 -1.09277 3.39024 0
M  V30 5493 O 536.04 -1.91399 5.11887 0
M  V30 5494 H 533.134 -0.322668 0.761455 0
M  V30 5495 H 535.68 0.0902159 1.6946 0
M  V30 5496 H 534.452 -0.124463 3.91102 0
M  V30 5497 H 534.075 -1.80001 3.54521 0
M  V30 5498 N 535.072 -1.5615 -0.213296 0
M  V30 5499 C 536.005 -1.88115 -1.29182 0
M  V30 5500 C 536.983 -0.739348 -1.44819 0
M  V30 5501 O 538.167 -0.988541 -1.605 0
M  V30 5502 C 535.294 -2.09541 -2.66102 0
M  V30 5503 C 534.34 -3.32236 -2.67436 0
M  V30 5504 S 535.173 -4.87915 -2.20679 0
M  V30 5505 C 536.329 -5.12387 -3.59458 0
M  V30 5506 H 536.562 -2.793 -1.01876 0
M  V30 5507 H 534.095 -1.48692 -0.415934 0
M  V30 5508 H 536.053 -2.22568 -3.44925 0
M  V30 5509 H 534.714 -1.19138 -2.90628 0
M  V30 5510 H 533.907 -3.44297 -3.6807 0
M  V30 5511 H 533.509 -3.18108 -1.96681 0
M  V30 5512 H 535.801 -5.01791 -4.55205 0
M  V30 5513 H 536.744 -6.14236 -3.52306 0
M  V30 5514 H 537.152 -4.40089 -3.53528 0
M  V30 5515 N 536.55 0.480323 -1.50102 0
M  V30 5516 C 537.827 1.24159 -1.51142 0
M  V30 5517 C 538.207 2.09605 -0.250818 0
M  V30 5518 O 537.555 2.15274 0.766118 0
M  V30 5519 C 537.765 2.08057 -2.80202 0
M  V30 5520 C 539.113 2.66556 -3.30504 0
M  V30 5521 O 540.137 2.18308 -2.81461 0
M  V30 5522 O 538.996 3.54442 -4.15973 0
M  V30 5523 H 536.09 0.562928 -0.605839 0
M  V30 5524 H 538.636 0.492899 -1.62384 0
M  V30 5525 H 537.408 1.45032 -3.6343 0
M  V30 5526 H 537.031 2.90079 -2.71919 0
M  V30 5527 N 538.028 1.39524 0.732853 0
M  V30 5528 C 539.444 1.21176 1.03868 0
M  V30 5529 C 539.644 0.0748448 2.01361 0
M  V30 5530 O 538.7 -0.57281 2.45917 0
M  V30 5531 C 540.013 2.54667 1.59892 0
M  V30 5532 C 541.561 2.6153 1.71962 0
M  V30 5533 C 542.036 3.95248 2.31394 0
M  V30 5534 N 543.527 3.96899 2.38801 0
M  V30 5535 C 544.262 4.97138 2.85729 0
M  V30 5536 N 543.758 6.07775 3.32537 0
M  V30 5537 N 545.551 4.84516 2.84957 0
M  V30 5538 H 537.702 2.12225 0.086304 0
M  V30 5539 H 539.965 0.942614 0.100907 0
M  V30 5540 H 539.671 3.38423 0.95721 0
M  V30 5541 H 539.545 2.74538 2.58668 0
M  V30 5542 H 541.932 1.78156 2.35254 0
M  V30 5543 H 542.013 2.45507 0.718327 0
M  V30 5544 H 541.657 4.79054 1.68729 0
M  V30 5545 H 541.587 4.08593 3.32204 0
M  V30 5546 H 544.078 3.16998 2.05719 0
M  V30 5547 H 544.391 6.8017 3.66862 0
M  V30 5548 H 542.736 6.11366 3.30541 0
M  V30 5549 H 545.927 3.97185 2.47713 0
M  V30 5550 H 546.1 5.62783 3.21215 0
M  V30 5551 N 539.506 -0.963266 1.24736 0
M  V30 5552 C 540.753 -1.7068 1.0897 0
M  V30 5553 C 541.081 -1.90934 -0.370751 0
M  V30 5554 O 540.336 -1.47155 -1.29011 0
M  V30 5555 C 540.635 -3.09944 1.7796 0
M  V30 5556 C 540.301 -3.09518 3.27887 0
M  V30 5557 C 538.963 -3.09109 3.68789 0
M  V30 5558 C 541.315 -3.03509 4.23712 0
M  V30 5559 C 538.643 -3.00429 5.03944 0
M  V30 5560 C 540.995 -2.96371 5.5888 0
M  V30 5561 C 539.659 -2.94293 5.99123 0
M  V30 5562 H 538.929 -0.624564 0.398749 0
M  V30 5563 H 541.576 -1.12603 1.54896 0
M  V30 5564 H 539.881 -3.71513 1.2444 0
M  V30 5565 H 541.578 -3.66278 1.63222 0
M  V30 5566 H 538.168 -3.10603 2.95337 0
M  V30 5567 H 542.352 -3.0295 3.93109 0
M  V30 5568 H 537.608 -2.97183 5.34314 0
M  V30 5569 H 541.782 -2.90681 6.32833 0
M  V30 5570 H 539.409 -2.87322 7.03811 0
M  V30 5571 N 540.985 -1.06182 -1.16461 0
M  V30 5572 C 541.932 -0.671613 -2.20812 0
M  V30 5573 C 542.902 0.331186 -1.62765 0
M  V30 5574 O 544.087 0.22033 -1.89524 0
M  V30 5575 C 541.227 -0.063029 -3.45042 0
M  V30 5576 C 540.34 -1.11587 -4.1734 0
M  V30 5577 C 539.475 -0.473546 -5.29085 0
M  V30 5578 C 538.514 -1.51 -5.93182 0
M  V30 5579 N 537.651 -0.891118 -6.96422 0
M  V30 5580 H 542.491 -1.56589 -2.53542 0
M  V30 5581 H 540.028 -0.782951 -1.24532 0
M  V30 5582 H 541.986 0.307344 -4.16066 0
M  V30 5583 H 540.616 0.794663 -3.12866 0
M  V30 5584 H 539.668 -1.60396 -3.44931 0
M  V30 5585 H 540.98 -1.90221 -4.61104 0
M  V30 5586 H 540.134 -0.0501432 -6.06679 0
M  V30 5587 H 538.873 0.344687 -4.8648 0
M  V30 5588 H 537.878 -1.94331 -5.14311 0
M  V30 5589 H 539.103 -2.33031 -6.37866 0
M  V30 5590 H 537.049 -0.0935753 -6.55933 0
M  V30 5591 H 536.966 -1.61486 -7.38551 0
M  V30 5592 H 538.234 -0.492822 -7.77941 0
M  V30 5593 N 542.463 1.3308 -0.844243 0
M  V30 5594 C 543.691 2.01808 -0.456203 0
M  V30 5595 C 544.106 1.63498 0.944131 0
M  V30 5596 O 543.463 0.85102 1.61443 0
M  V30 5597 C 543.514 3.56922 -0.573513 0
M  V30 5598 O 543.235 3.93851 -1.91868 0
M  V30 5599 C 544.736 4.42922 -0.183125 0
M  V30 5600 H 541.956 0.646273 -0.180477 0
M  V30 5601 H 544.5 1.69891 -1.1383 0
M  V30 5602 H 542.655 3.87352 0.0607367 0
M  V30 5603 H 543.069 4.88564 -1.90802 0
M  V30 5604 H 544.543 5.51093 -0.316241 0
M  V30 5605 H 545.02 4.30386 0.875477 0
M  V30 5606 H 545.626 4.1786 -0.792027 0
M  V30 5607 N 543.941 0.601185 1.45683 0
M  V30 5608 C 545.166 0.0982245 2.07167 0
M  V30 5609 C 545.591 -1.20546 1.44396 0
M  V30 5610 O 544.949 -1.73247 0.534347 0
M  V30 5611 C 544.997 -0.0346976 3.60583 0
M  V30 5612 O 544.101 -1.08657 3.97828 0
M  V30 5613 H 543.442 0.0711618 0.660176 0
M  V30 5614 H 545.972 0.829376 1.87036 0
M  V30 5615 H 545.982 -0.234969 4.07323 0
M  V30 5616 H 544.657 0.917265 4.05659 0
M  V30 5617 H 543.234 -0.863275 3.6277 0
M  V30 5618 N 545.419 -1.53889 0.339982 0
M  V30 5619 C 546.382 -2.23547 -0.50592 0
M  V30 5620 C 547.382 -1.23445 -1.03044 0
M  V30 5621 O 548.572 -1.47909 -0.920253 0
M  V30 5622 C 545.704 -2.95234 -1.7044 0
M  V30 5623 H 546.897 -2.99722 0.103247 0
M  V30 5624 H 544.45 -1.56033 0.0912804 0
M  V30 5625 H 545.185 -2.23236 -2.35236 0
M  V30 5626 H 544.97 -3.68654 -1.33553 0
M  V30 5627 H 546.46 -3.48258 -2.30447 0
M  V30 5628 N 546.897 -0.0685191 -1.57451 0
M  V30 5629 C 548.143 0.602239 -1.93652 0
M  V30 5630 C 548.476 1.6946 -0.948526 0
M  V30 5631 O 547.751 1.94487 0.022782 0
M  V30 5632 C 548.034 1.18223 -3.4014 0
M  V30 5633 C 547.887 0.0967431 -4.49696 0
M  V30 5634 C 549.206 2.08872 -3.87377 0
M  V30 5635 H 546.325 0.217453 -0.70419 0
M  V30 5636 H 548.967 -0.133821 -1.89528 0
M  V30 5637 H 547.117 1.80953 -3.43785 0
M  V30 5638 H 548.789 -0.536155 -4.58174 0
M  V30 5639 H 547.032 -0.573063 -4.29998 0
M  V30 5640 H 547.703 0.542894 -5.49324 0
M  V30 5641 H 550.179 1.56081 -3.85717 0
M  V30 5642 H 549.055 2.46389 -4.90493 0
M  V30 5643 H 549.316 2.99572 -3.25129 0
M  V30 5644 N 548.375 1.56261 0.205012 0
M  V30 5645 C 549.323 1.94631 1.27364 0
M  V30 5646 C 550.317 0.830434 1.47649 0
M  V30 5647 O 551.523 1.01538 1.48627 0
M  V30 5648 H 547.898 0.618755 0.427371 0
M  V30 5649 H 549.869 2.83768 0.922941 0
M  V30 5650 C 548.618 2.29358 2.61324 0
M  V30 5651 H 547.941 3.14744 2.46528 0
M  V30 5652 H 549.381 2.60076 3.34868 0
M  V30 5653 C 547.84 1.12461 3.17575 0
M  V30 5654 O 548.37 0.394407 3.99759 0
M  V30 5655 N 546.576 0.904036 2.7618 0
M  V30 5656 H 546.123 1.49956 2.09454 0
M  V30 5657 H 546.081 0.123662 3.14157 0
M  V30 5658 N 549.853 -0.472356 1.50355 0
M  V30 5659 C 550.801 -1.59126 1.69651 0
M  V30 5660 C 551.795 -1.59793 0.56237 0
M  V30 5661 O 553.001 -1.63957 0.742832 0
M  V30 5662 H 549.376 -0.528008 0.535454 0
M  V30 5663 H 551.347 -1.40013 2.63513 0
M  V30 5664 C 550.096 -2.97075 1.8067 0
M  V30 5665 H 549.419 -2.9728 2.67329 0
M  V30 5666 H 550.859 -3.74825 1.98197 0
M  V30 5667 C 549.318 -3.32247 0.558016 0
M  V30 5668 O 549.848 -4.00553 -0.303399 0
M  V30 5669 N 548.054 -2.87659 0.412415 0
M  V30 5670 H 547.601 -2.32246 1.11443 0
M  V30 5671 H 547.559 -3.11556 -0.421908 0
M  V30 5672 N 551.331 -1.39911 -0.725443 0
M  V30 5673 C 552.747 -1.21725 -1.03224 0
M  V30 5674 C 552.947 -0.0855224 -2.01318 0
M  V30 5675 O 552.003 0.55976 -2.46217 0
M  V30 5676 C 553.316 -2.55511 -1.58539 0
M  V30 5677 C 554.864 -2.62439 -1.70572 0
M  V30 5678 C 555.339 -3.9647 -2.29294 0
M  V30 5679 N 556.83 -3.98159 -2.36692 0
M  V30 5680 C 557.565 -4.98647 -2.83088 0
M  V30 5681 N 557.061 -6.0953 -3.2931 0
M  V30 5682 N 558.854 -4.8602 -2.82384 0
M  V30 5683 H 551.005 -2.12267 -0.075048 0
M  V30 5684 H 553.268 -0.943136 -0.0959066 0
M  V30 5685 H 552.974 -3.38926 -0.939249 0
M  V30 5686 H 552.848 -2.75905 -2.57208 0
M  V30 5687 H 555.235 -1.79401 -2.34306 0
M  V30 5688 H 555.316 -2.45885 -0.705297 0
M  V30 5689 H 554.96 -4.79942 -1.66186 0
M  V30 5690 H 554.89 -4.10349 -3.30032 0
M  V30 5691 H 557.381 -3.18085 -2.04035 0
M  V30 5692 H 557.694 -6.82106 -3.6325 0
M  V30 5693 H 556.039 -6.1311 -3.27294 0
M  V30 5694 H 559.23 -3.98493 -2.45603 0
M  V30 5695 H 559.403 -5.64478 -3.18226 0
M  V30 5696 N 552.809 0.956637 -1.25245 0
M  V30 5697 C 554.225 1.22733 -1.02023 0
M  V30 5698 C 554.425 1.99761 0.264186 0
M  V30 5699 O 553.481 2.32814 0.977436 0
M  V30 5700 C 554.794 2.00367 -2.24217 0
M  V30 5701 C 556.342 2.13418 -2.28958 0
M  V30 5702 C 556.817 2.9445 -3.50803 0
M  V30 5703 N 558.308 3.02029 -3.51187 0
M  V30 5704 C 559.043 3.65116 -4.42129 0
M  V30 5705 N 558.539 4.2983 -5.43339 0
M  V30 5706 N 560.332 3.62237 -4.29815 0
M  V30 5707 H 552.483 0.441282 -2.07765 0
M  V30 5708 H 554.746 0.257686 -0.912306 0
M  V30 5709 H 554.452 1.51165 -3.17556 0
M  V30 5710 H 554.326 3.01077 -2.27228 0
M  V30 5711 H 556.713 2.61819 -1.36143 0
M  V30 5712 H 556.794 1.1202 -2.29968 0
M  V30 5713 H 556.438 2.46741 -4.43939 0
M  V30 5714 H 556.368 3.9607 -3.47039 0
M  V30 5715 H 558.859 2.56007 -2.77973 0
M  V30 5716 H 559.172 4.75819 -6.08947 0
M  V30 5717 H 557.517 4.28465 -5.47214 0
M  V30 5718 H 560.708 3.10863 -3.49974 0
M  V30 5719 H 560.881 4.11117 -5.00886 0
M  V30 5720 N 554.287 1.06798 1.15896 0
M  V30 5721 C 555.217 0.704677 2.22613 0
M  V30 5722 C 556.198 -0.305252 1.67339 0
M  V30 5723 O 557.383 -0.179247 1.93371 0
M  V30 5724 C 554.513 0.0957325 3.47168 0
M  V30 5725 C 553.467 1.0322 4.15367 0
M  V30 5726 C 552.793 0.286293 5.33933 0
M  V30 5727 C 554.093 2.36341 4.65768 0
M  V30 5728 H 555.787 1.59688 2.53259 0
M  V30 5729 H 553.333 0.769257 1.21731 0
M  V30 5730 H 555.286 -0.170333 4.21056 0
M  V30 5731 H 554.01 -0.831516 3.15838 0
M  V30 5732 H 552.669 1.28309 3.43413 0
M  V30 5733 H 552.317 -0.644237 4.98857 0
M  V30 5734 H 552.017 0.910436 5.80504 0
M  V30 5735 H 553.541 0.0278938 6.10594 0
M  V30 5736 H 554.955 2.1561 5.31211 0
M  V30 5737 H 553.352 2.94299 5.2298 0
M  V30 5738 H 554.422 2.99047 3.81705 0
M  V30 5739 N 555.766 -1.3263 0.851289 0
M  V30 5740 C 556.676 -2.32722 0.296268 0
M  V30 5741 C 557.692 -1.63901 -0.584162 0
M  V30 5742 O 558.868 -1.95465 -0.485334 0
M  V30 5743 C 555.933 -3.42942 -0.509103 0
M  V30 5744 C 554.994 -4.2746 0.397069 0
M  V30 5745 C 554.227 -5.32416 -0.36996 0
M  V30 5746 O 554.45 -5.47491 -1.6003 0
M  V30 5747 O 553.384 -6.01327 0.262493 0
M  V30 5748 H 557.21 -2.82078 1.12543 0
M  V30 5749 H 554.795 -1.36194 0.614135 0
M  V30 5750 H 556.677 -4.1017 -0.96634 0
M  V30 5751 H 555.352 -2.95781 -1.31512 0
M  V30 5752 H 554.259 -3.63053 0.902411 0
M  V30 5753 H 555.592 -4.78136 1.16818 0
M  V30 5754 N 557.244 -0.608902 -1.45362 0
M  V30 5755 C 558.176 0.147318 -2.28726 0
M  V30 5756 C 559.189 0.830468 -1.40025 0
M  V30 5757 O 560.378 0.695636 -1.64387 0
M  V30 5758 C 557.478 1.22968 -3.15804 0
M  V30 5759 C 556.651 0.633391 -4.3279 0
M  V30 5760 C 555.71 1.60682 -5.01067 0
M  V30 5761 O 554.736 1.13261 -5.57818 0
M  V30 5762 N 555.938 2.94123 -5.00472 0
M  V30 5763 H 558.703 -0.568014 -2.94268 0
M  V30 5764 H 556.264 -0.448479 -1.55564 0
M  V30 5765 H 558.256 1.88072 -3.58345 0
M  V30 5766 H 556.826 1.84752 -2.52162 0
M  V30 5767 H 556.046 -0.195762 -3.93714 0
M  V30 5768 H 557.334 0.215255 -5.08344 0
M  V30 5769 H 556.732 3.3525 -4.55657 0
M  V30 5770 H 555.289 3.54646 -5.46872 0
M  V30 5771 N 558.722 1.53707 -0.348139 0
M  V30 5772 C 559.685 2.23812 0.494058 0
M  V30 5773 C 560.685 1.23989 1.02388 0
M  V30 5774 O 561.875 1.48395 0.912396 0
M  V30 5775 C 559.007 2.96133 1.68872 0
M  V30 5776 H 560.2 2.99663 -0.119141 0
M  V30 5777 H 557.753 1.55983 -0.0995539 0
M  V30 5778 H 558.488 2.24481 2.34049 0
M  V30 5779 H 558.273 3.69357 1.31596 0
M  V30 5780 H 559.763 3.49475 2.28597 0
M  V30 5781 N 560.2 0.0768682 1.57412 0
M  V30 5782 C 561.13 -0.886026 2.16037 0
M  V30 5783 C 562.111 -1.30691 1.08876 0
M  V30 5784 O 563.296 -1.37705 1.36934 0
M  V30 5785 C 560.426 -2.1518 2.72608 0
M  V30 5786 C 559.38 -1.87015 3.8498 0
M  V30 5787 C 558.706 -3.20266 4.28175 0
M  V30 5788 C 560.006 -1.17143 5.08994 0
M  V30 5789 H 561.7 -0.397642 2.96748 0
M  V30 5790 H 559.246 -0.189823 1.42743 0
M  V30 5791 H 561.199 -2.82962 3.12266 0
M  V30 5792 H 559.923 -2.66269 1.89125 0
M  V30 5793 H 558.582 -1.21636 3.45833 0
M  V30 5794 H 558.23 -3.69207 3.41607 0
M  V30 5795 H 557.93 -3.0221 5.03927 0
M  V30 5796 H 559.454 -3.89237 4.70454 0
M  V30 5797 H 560.868 -1.75003 5.45937 0
M  V30 5798 H 559.265 -1.09328 5.90057 0
M  V30 5799 H 560.335 -0.151295 4.84664 0
M  V30 5800 N 561.678 -1.56367 -0.196722 0
M  V30 5801 C 562.641 -1.93561 -1.22746 0
M  V30 5802 C 563.641 -0.816566 -1.38524 0
M  V30 5803 O 564.831 -1.084 -1.36363 0
M  V30 5804 C 561.963 -2.20823 -2.59712 0
M  V30 5805 H 563.156 -2.85774 -0.909586 0
M  V30 5806 H 560.709 -1.50032 -0.438174 0
M  V30 5807 H 561.444 -1.31243 -2.96557 0
M  V30 5808 H 561.229 -3.02368 -2.49632 0
M  V30 5809 H 562.719 -2.50608 -3.34044 0
M  V30 5810 N 563.156 0.464375 -1.50603 0
M  V30 5811 C 564.403 1.21596 -1.61928 0
M  V30 5812 C 564.731 1.91804 -0.322737 0
M  V30 5813 O 563.986 1.83065 0.691776 0
M  V30 5814 C 564.285 2.278 -2.75394 0
M  V30 5815 C 563.951 1.74797 -4.1564 0
M  V30 5816 C 562.613 1.60063 -4.53799 0
M  V30 5817 C 564.965 1.35548 -5.03266 0
M  V30 5818 C 562.293 1.04514 -5.77316 0
M  V30 5819 C 564.645 0.814381 -6.27336 0
M  V30 5820 C 563.309 0.653726 -6.64291 0
M  V30 5821 H 562.579 0.444951 -0.592536 0
M  V30 5822 H 565.226 0.510964 -1.84557 0
M  V30 5823 H 563.531 3.04233 -2.46879 0
M  V30 5824 H 565.228 2.85723 -2.81359 0
M  V30 5825 H 561.818 1.87234 -3.8554 0
M  V30 5826 H 566.002 1.45763 -4.74412 0
M  V30 5827 H 561.258 0.908186 -6.04617 0
M  V30 5828 H 565.432 0.501626 -6.94591 0
M  V30 5829 H 563.059 0.22114 -7.59878 0
M  V30 5830 N 564.634 1.40294 0.718013 0
M  V30 5831 C 565.862 1.4175 1.50714 0
M  V30 5832 C 566.277 0.0165366 1.88793 0
M  V30 5833 O 565.634 -0.958942 1.55276 0
M  V30 5834 C 565.685 2.30598 2.784 0
M  V30 5835 O 565.406 3.6524 2.41932 0
M  V30 5836 C 566.907 2.4062 3.72313 0
M  V30 5837 H 564.127 0.483565 0.465194 0
M  V30 5838 H 566.671 1.84316 0.885889 0
M  V30 5839 H 564.826 1.91401 3.36815 0
M  V30 5840 H 565.24 4.12402 3.24076 0
M  V30 5841 H 566.714 3.07001 4.58753 0
M  V30 5842 H 567.191 1.4305 4.15251 0
M  V30 5843 H 567.797 2.80359 3.19811 0
M  V30 5844 N 566.112 -0.949982 1.2575 0
M  V30 5845 C 567.042 -2.06483 1.09028 0
M  V30 5846 C 568.023 -1.701 -0.00201532 0
M  V30 5847 O 569.208 -1.93469 0.168383 0
M  V30 5848 C 566.338 -3.39899 0.71316 0
M  V30 5849 C 565.292 -3.90309 1.75621 0
M  V30 5850 C 564.618 -5.20274 1.23365 0
M  V30 5851 C 565.918 -4.16169 3.15596 0
M  V30 5852 H 567.612 -2.20731 2.02283 0
M  V30 5853 H 565.158 -1.06066 0.973964 0
M  V30 5854 H 567.111 -4.17346 0.58309 0
M  V30 5855 H 565.835 -3.25602 -0.255091 0
M  V30 5856 H 564.494 -3.15035 1.8748 0
M  V30 5857 H 564.142 -5.02351 0.255491 0
M  V30 5858 H 563.842 -5.54971 1.93082 0
M  V30 5859 H 565.366 -6.00314 1.11607 0
M  V30 5860 H 566.78 -4.84259 3.06864 0
M  V30 5861 H 565.177 -4.62131 3.82825 0
M  V30 5862 H 566.247 -3.22273 3.6231 0
M  V30 5863 N 567.59 -1.07411 -1.15328 0
M  V30 5864 C 568.818 -0.818782 -1.90009 0
M  V30 5865 C 569.233 0.628072 -1.78047 0
M  V30 5866 O 568.59 1.43085 -1.13282 0
M  V30 5867 C 568.641 -1.21874 -3.40337 0
M  V30 5868 O 568.362 -2.60883 -3.51954 0
M  V30 5869 C 569.863 -0.992796 -4.3204 0
M  V30 5870 H 567.083 -0.296007 -0.60218 0
M  V30 5871 H 569.627 -1.43073 -1.46117 0
M  V30 5872 H 567.782 -0.651103 -3.81889 0
M  V30 5873 H 568.196 -2.77216 -4.45255 0
M  V30 5874 H 569.67 -1.32215 -5.35932 0
M  V30 5875 H 570.147 0.0708331 -4.39143 0
M  V30 5876 H 570.753 -1.54537 -3.9623 0
M  V30 5877 N 569.068 1.32177 -0.85831 0
M  V30 5878 C 570.293 2.01847 -0.476718 0
M  V30 5879 C 570.718 1.64065 0.920021 0
M  V30 5880 O 570.076 0.843189 1.60499 0
M  V30 5881 C 570.124 3.55097 -0.627578 0
M  V30 5882 O 569.228 4.11012 0.338086 0
M  V30 5883 H 568.569 0.635907 -0.191099 0
M  V30 5884 H 571.099 1.68641 -1.15851 0
M  V30 5885 H 571.109 4.04718 -0.516476 0
M  V30 5886 H 569.784 3.81938 -1.64609 0
M  V30 5887 H 568.361 3.72451 0.182917 0
M  V30 5888 N 570.547 0.616602 1.45037 0
M  V30 5889 C 571.963 0.280994 1.57107 0
M  V30 5890 C 572.163 -1.21627 1.60653 0
M  V30 5891 O 571.219 -1.9997 1.54169 0
M  V30 5892 C 572.532 0.960116 2.8496 0
M  V30 5893 C 574.08 0.936884 2.98649 0
M  V30 5894 C 574.555 1.59619 4.29285 0
M  V30 5895 N 576.046 1.5621 4.36065 0
M  V30 5896 C 576.781 2.04131 5.35834 0
M  V30 5897 N 576.277 2.60177 6.4209 0
M  V30 5898 N 578.07 1.94845 5.27249 0
M  V30 5899 H 570.221 1.58867 1.40979 0
M  V30 5900 H 572.484 0.666024 0.674623 0
M  V30 5901 H 572.19 2.01473 2.88273 0
M  V30 5902 H 572.064 0.488921 3.74018 0
M  V30 5903 H 574.451 -0.109209 2.94898 0
M  V30 5904 H 574.532 1.44643 2.10979 0
M  V30 5905 H 574.176 2.64166 4.33796 0
M  V30 5906 H 574.106 1.06159 5.15789 0
M  V30 5907 H 576.597 1.15276 3.59889 0
M  V30 5908 H 576.91 2.94513 7.1448 0
M  V30 5909 H 575.255 2.64221 6.42816 0
M  V30 5910 H 578.446 1.50792 4.43147 0
M  V30 5911 H 578.619 2.32504 6.04852 0
M  V30 5912 N 572.025 -1.5352 0.356285 0
M  V30 5913 C 573.273 -2.00719 -0.235837 0
M  V30 5914 C 573.594 -1.24551 -1.5004 0
M  V30 5915 O 572.864 -0.356185 -1.92635 0
M  V30 5916 H 571.444 -0.741542 -0.0901366 0
M  V30 5917 H 574.106 -1.88887 0.480378 0
M  V30 5918 H 573.202 -3.08551 -0.469357 0
M  V30 5919 N 573.503 -0.0852151 -1.57369 0
M  V30 5920 C 574.749 0.581666 -1.94279 0
M  V30 5921 C 575.082 1.68444 -0.966446 0
M  V30 5922 O 574.357 1.945 0.00215277 0
M  V30 5923 C 574.64 1.14609 -3.41375 0
M  V30 5924 C 574.493 0.0490414 -4.49773 0
M  V30 5925 C 575.812 2.04751 -3.8957 0
M  V30 5926 H 572.931 0.209972 -0.706456 0
M  V30 5927 H 575.573 -0.153915 -1.89376 0
M  V30 5928 H 573.723 1.77297 -3.45685 0
M  V30 5929 H 575.395 -0.584721 -4.57579 0
M  V30 5930 H 573.638 -0.618638 -4.29366 0
M  V30 5931 H 574.309 0.484601 -5.49869 0
M  V30 5932 H 576.785 1.51981 -3.87351 0
M  V30 5933 H 575.661 2.41173 -4.93079 0
M  V30 5934 H 575.922 2.96107 -3.28288 0
M  V30 5935 N 574.981 1.5647 0.188427 0
M  V30 5936 C 576.392 1.70864 0.752494 0
M  V30 5937 C 576.743 0.692905 1.83557 0
M  V30 5938 O 575.868 -0.149307 2.15884 0
M  V30 5939 C 576.463 3.09789 1.37173 0
M  V30 5940 C 575.022 3.25925 1.88281 0
M  V30 5941 C 574.169 2.66817 0.755259 0
M  V30 5942 H 577.12 1.58657 -0.0367408 0
M  V30 5943 H 577.141 3.07489 2.24122 0
M  V30 5944 H 576.653 3.83693 0.583219 0
M  V30 5945 H 574.754 2.56948 2.6983 0
M  V30 5946 H 574.867 4.33498 2.04001 0
M  V30 5947 H 573.231 2.2617 1.17128 0
M  V30 5948 H 574.014 3.43294 -0.0211237 0
M  V30 5949 N 576.459 -0.456382 1.50847 0
M  V30 5950 C 577.422 -1.53493 1.70213 0
M  V30 5951 C 578.422 -1.50264 0.572481 0
M  V30 5952 O 579.612 -1.52623 0.839751 0
M  V30 5953 C 576.744 -2.93091 1.741 0
M  V30 5954 H 577.937 -1.37633 2.66453 0
M  V30 5955 H 575.49 -0.683776 1.4055 0
M  V30 5956 H 576.225 -3.14378 0.796063 0
M  V30 5957 H 576.01 -2.9684 2.5618 0
M  V30 5958 H 577.5 -3.71368 1.90987 0
M  V30 5959 N 577.937 -1.40673 -0.710563 0
M  V30 5960 C 579.186 -1.38525 -1.46607 0
M  V30 5961 C 579.499 0.0077024 -1.95598 0
M  V30 5962 O 580.705 0.151792 -2.71075 0
M  V30 5963 C 579.161 -2.43489 -2.6503 0
M  V30 5964 C 578.769 -3.88619 -2.22888 0
M  V30 5965 C 580.513 -2.50456 -3.42742 0
M  V30 5966 C 578.42 -4.85168 -3.3818 0
M  V30 5967 H 577.35 -0.515092 -0.550632 0
M  V30 5968 H 580.001 -1.66431 -0.772846 0
M  V30 5969 H 578.383 -2.0869 -3.36548 0
M  V30 5970 H 579.557 -4.32588 -1.58758 0
M  V30 5971 H 577.872 -3.85174 -1.58208 0
M  V30 5972 H 580.469 -3.19776 -4.28541 0
M  V30 5973 H 580.812 -1.53665 -3.86902 0
M  V30 5974 H 581.345 -2.84271 -2.78271 0
M  V30 5975 H 578.084 -5.8331 -2.99047 0
M  V30 5976 H 577.604 -4.4586 -4.01209 0
M  V30 5977 H 579.283 -5.05225 -4.04174 0
M  V30 5978 N 579.415 0.9433 -1.26252 0
M  V30 5979 C 580.645 1.72117 -1.14277 0
M  V30 5980 C 581.053 1.86726 0.304944 0
M  V30 5981 O 580.396 1.3727 1.22076 0
M  V30 5982 C 580.458 3.14778 -1.73651 0
M  V30 5983 C 580.122 3.23561 -3.22734 0
M  V30 5984 C 581.119 3.07001 -4.19579 0
M  V30 5985 C 578.804 3.47019 -3.63157 0
M  V30 5986 C 580.798 3.13763 -5.54826 0
M  V30 5987 C 578.485 3.53416 -4.98538 0
M  V30 5988 C 579.483 3.36804 -5.94182 0
M  V30 5989 O 579.171 3.42906 -7.27098 0
M  V30 5990 H 578.903 0.545781 -0.398873 0
M  V30 5991 H 581.457 1.19123 -1.67328 0
M  V30 5992 H 579.687 3.69186 -1.1506 0
M  V30 5993 H 581.376 3.74469 -1.56613 0
M  V30 5994 H 582.142 2.88736 -3.89688 0
M  V30 5995 H 578.021 3.59006 -2.89199 0
M  V30 5996 H 581.565 3.00714 -6.29458 0
M  V30 5997 H 577.462 3.71201 -5.28091 0
M  V30 5998 H 578.23 3.59463 -7.35342 0
M  V30 5999 N 580.893 1.08022 1.14757 0
M  V30 6000 C 582.123 0.827646 1.89298 0
M  V30 6001 C 582.531 -0.623506 1.78631 0
M  V30 6002 O 581.874 -1.43991 1.14071 0
M  V30 6003 C 581.936 1.16553 3.40082 0
M  V30 6004 C 581.6 2.61866 3.74533 0
M  V30 6005 C 582.597 3.60116 3.74984 0
M  V30 6006 C 580.282 2.97619 4.04633 0
M  V30 6007 C 582.276 4.92151 4.05051 0
M  V30 6008 C 579.963 4.2985 4.34364 0
M  V30 6009 C 580.961 5.26926 4.34555 0
M  V30 6010 O 580.649 6.5678 4.63568 0
M  V30 6011 H 580.381 0.298396 0.606577 0
M  V30 6012 H 582.935 1.44187 1.46285 0
M  V30 6013 H 581.165 0.494296 3.83528 0
M  V30 6014 H 582.854 0.894407 3.95923 0
M  V30 6015 H 583.62 3.33837 3.51821 0
M  V30 6016 H 579.499 2.22702 4.03639 0
M  V30 6017 H 583.043 5.67915 4.05115 0
M  V30 6018 H 578.94 4.55879 4.56995 0
M  V30 6019 H 579.708 6.62035 4.81303 0
M  V30 6020 N 582.371 -1.3172 0.865308 0
M  V30 6021 C 583.619 -1.96487 0.472995 0
M  V30 6022 C 583.94 -1.68761 -0.976975 0
M  V30 6023 O 583.21 -1.00051 -1.68424 0
M  V30 6024 H 581.79 -0.726947 0.171922 0
M  V30 6025 H 584.452 -1.60612 1.10407 0
M  V30 6026 H 583.548 -3.0574 0.62687 0
M  V30 6027 N 583.85 -0.624285 -1.44708 0
M  V30 6028 C 585.077 -0.132919 -2.06473 0
M  V30 6029 C 585.493 1.18967 -1.46602 0
M  V30 6030 O 584.85 1.72824 -0.586341 0
M  V30 6031 C 584.901 -0.00465418 -3.615 0
M  V30 6032 O 584.622 -1.27494 -4.19138 0
M  V30 6033 C 586.123 0.516213 -4.40284 0
M  V30 6034 H 583.343 -0.0765201 -0.666623 0
M  V30 6035 H 585.887 -0.856751 -1.85688 0
M  V30 6036 H 584.042 0.669583 -3.8157 0
M  V30 6037 H 584.456 -1.11536 -5.12504 0
M  V30 6038 H 585.93 0.554994 -5.49203 0
M  V30 6039 H 586.407 1.5419 -4.11245 0
M  V30 6040 H 587.013 -0.124542 -4.25118 0
M  V30 6041 N 585.328 1.53329 -0.364422 0
M  V30 6042 C 586.238 2.29414 0.490552 0
M  V30 6043 C 587.254 1.35335 1.09363 0
M  V30 6044 O 588.43 1.68391 1.10483 0
M  V30 6045 C 585.495 3.06772 1.61529 0
M  V30 6046 C 584.556 4.16516 1.03986 0
M  V30 6047 C 583.789 4.90176 2.111 0
M  V30 6048 O 584.012 4.63687 3.32191 0
M  V30 6049 O 582.946 5.76134 1.74222 0
M  V30 6050 H 586.772 3.03428 -0.12856 0
M  V30 6051 H 584.357 1.48843 -0.128837 0
M  V30 6052 H 586.239 3.55082 2.26924 0
M  V30 6053 H 584.914 2.35596 2.21983 0
M  V30 6054 H 583.821 3.7246 0.349856 0
M  V30 6055 H 585.154 4.89855 0.4799 0
M  V30 6056 N 586.806 0.0935595 1.57322 0
M  V30 6057 C 587.738 -0.895923 2.10964 0
M  V30 6058 C 588.751 -1.24705 1.04654 0
M  V30 6059 O 589.94 -1.20044 1.32105 0
M  V30 6060 C 587.04 -2.20546 2.57318 0
M  V30 6061 C 586.213 -2.0299 3.87445 0
M  V30 6062 C 585.272 -3.17443 4.19662 0
M  V30 6063 O 584.298 -2.91474 4.88909 0
M  V30 6064 N 585.5 -4.43168 3.74943 0
M  V30 6065 H 588.265 -0.437788 2.96485 0
M  V30 6066 H 585.826 -0.0915863 1.61641 0
M  V30 6067 H 587.818 -2.9606 2.75917 0
M  V30 6068 H 586.388 -2.57789 1.76816 0
M  V30 6069 H 585.608 -1.11815 3.78009 0
M  V30 6070 H 586.896 -1.88535 4.7258 0
M  V30 6071 H 586.294 -4.67149 3.19043 0
M  V30 6072 H 584.851 -5.15637 3.987 0
M  V30 6073 N 588.284 -1.56567 -0.180126 0
M  V30 6074 C 589.514 -1.85349 -0.912647 0
M  V30 6075 C 589.922 -0.675795 -1.76719 0
M  V30 6076 O 589.265 0.3645 -1.80047 0
M  V30 6077 C 589.327 -3.08431 -1.84691 0
M  V30 6078 C 588.991 -4.41694 -1.17284 0
M  V30 6079 C 589.988 -5.17062 -0.542532 0
M  V30 6080 C 587.673 -4.8843 -1.17223 0
M  V30 6081 C 589.667 -6.37351 0.0793953 0
M  V30 6082 C 587.354 -6.08652 -0.54647 0
M  V30 6083 C 588.352 -6.82955 0.0782458 0
M  V30 6084 O 588.04 -8.00897 0.694158 0
M  V30 6085 H 587.772 -0.619286 -0.271036 0
M  V30 6086 H 590.326 -2.0454 -0.187768 0
M  V30 6087 H 588.556 -2.85163 -2.61188 0
M  V30 6088 H 590.245 -3.23733 -2.44851 0
M  V30 6089 H 591.011 -4.8204 -0.535045 0
M  V30 6090 H 586.89 -4.30542 -1.64788 0
M  V30 6091 H 590.434 -6.95287 0.567612 0
M  V30 6092 H 586.331 -6.4314 -0.55151 0
M  V30 6093 H 587.099 -8.16352 0.592537 0
M  V30 6094 N 589.762 0.448376 -1.51087 0
M  V30 6095 C 590.692 1.55102 -1.74544 0
M  V30 6096 C 591.673 1.59357 -0.594932 0
M  V30 6097 O 592.858 1.75261 -0.836491 0
M  V30 6098 C 589.988 2.93268 -1.86041 0
M  V30 6099 C 588.942 3.03877 -3.01402 0
M  V30 6100 C 588.268 4.43914 -2.98068 0
M  V30 6101 C 589.568 2.7898 -4.41551 0
M  V30 6102 H 591.262 1.35724 -2.66869 0
M  V30 6103 H 588.808 0.651498 -1.28419 0
M  V30 6104 H 590.761 3.70356 -2.01034 0
M  V30 6105 H 589.485 3.13853 -0.903548 0
M  V30 6106 H 588.144 2.29227 -2.86096 0
M  V30 6107 H 587.792 4.6145 -2.00182 0
M  V30 6108 H 587.492 4.51944 -3.75527 0
M  V30 6109 H 589.016 5.22991 -3.1514 0
M  V30 6110 H 590.43 3.45805 -4.57265 0
M  V30 6111 H 588.827 2.98431 -5.20633 0
M  V30 6112 H 589.897 1.74663 -4.5235 0
M  V30 6113 N 591.24 1.41047 0.703093 0
M  V30 6114 C 592.468 1.4334 1.49202 0
M  V30 6115 C 592.883 0.0365596 1.88765 0
M  V30 6116 O 592.24 -0.942419 1.56284 0
M  V30 6117 C 592.291 2.33538 2.75939 0
M  V30 6118 O 592.012 3.67786 2.38045 0
M  V30 6119 C 593.513 2.44555 3.6974 0
M  V30 6120 H 590.733 0.488472 0.460039 0
M  V30 6121 H 593.277 1.85245 0.86629 0
M  V30 6122 H 591.432 1.94962 3.34766 0
M  V30 6123 H 591.846 4.15816 3.19683 0
M  V30 6124 H 593.32 3.11849 4.55471 0
M  V30 6125 H 593.797 1.47447 4.1371 0
M  V30 6126 H 594.403 2.83735 3.16819 0
M  V30 6127 N 592.718 -0.936591 1.26751 0
M  V30 6128 C 593.966 -1.67998 1.12343 0
M  V30 6129 C 594.287 -1.92137 -0.332938 0
M  V30 6130 O 593.557 -1.52132 -1.23421 0
M  V30 6131 H 592.137 -0.622609 0.412756 0
M  V30 6132 H 594.799 -1.12509 1.59147 0
M  V30 6133 H 593.895 -2.65185 1.64571 0
M  V30 6134 N 594.196 -1.08629 -1.14182 0
M  V30 6135 C 595.144 -0.71284 -2.21408 0
M  V30 6136 C 596.138 0.282457 -1.67029 0
M  V30 6137 O 597.344 0.144783 -1.79417 0
M  V30 6138 H 593.719 -0.212497 -0.721352 0
M  V30 6139 H 595.69 -1.6265 -2.50175 0
M  V30 6140 C 594.439 -0.140704 -3.47415 0
M  V30 6141 H 593.762 -0.897739 -3.8959 0
M  V30 6142 H 595.202 0.0827677 -4.23919 0
M  V30 6143 C 593.661 1.122 -3.17668 0
M  V30 6144 O 594.191 2.20652 -3.35672 0
M  V30 6145 N 592.397 1.03328 -2.71609 0
M  V30 6146 H 591.944 0.150666 -2.57159 0
M  V30 6147 H 591.902 1.8789 -2.52081 0
M  V30 6148 N 595.674 1.31259 -0.872281 0
M  V30 6149 C 596.922 1.96233 -0.483409 0
M  V30 6150 C 597.243 1.69276 0.968012 0
M  V30 6151 O 596.513 1.00943 1.67891 0
M  V30 6152 H 595.093 0.726025 -0.175774 0
M  V30 6153 H 597.755 1.60024 -1.11258 0
M  V30 6154 H 596.851 3.05403 -0.643075 0
M  V30 6155 N 597.152 0.631951 1.44375 0
M  V30 6156 C 598.429 0.067646 1.95483 0
M  V30 6157 C 598.809 -1.40683 1.57389 0
M  V30 6158 O 598.157 -2.12167 0.848375 0
M  V30 6159 C 598.367 0.291392 3.47781 0
M  V30 6160 C 599.715 0.185028 4.24197 0
M  V30 6161 O 600.739 0.222803 3.55503 0
M  V30 6162 O 599.598 0.0906642 5.46425 0
M  V30 6163 H 596.692 -0.0218379 0.826712 0
M  V30 6164 H 599.238 0.703711 1.54421 0
M  V30 6165 H 598.01 1.31449 3.68561 0
M  V30 6166 H 597.633 -0.378772 3.95792 0
M  V30 6167 N 598.631 -1.53133 0.372548 0
M  V30 6168 C 600.042 -1.86404 -0.105155 0
M  V30 6169 C 600.393 -1.29289 -1.47576 0
M  V30 6170 O 599.518 -0.617646 -2.07398 0
M  V30 6171 C 600.113 -3.38223 -0.197588 0
M  V30 6172 C 598.672 -3.71266 -0.619556 0
M  V30 6173 C 597.819 -2.76353 0.228919 0
M  V30 6174 H 600.77 -1.47282 0.591077 0
M  V30 6175 H 600.791 -3.66577 -1.01987 0
M  V30 6176 H 600.303 -3.79763 0.800099 0
M  V30 6177 H 598.404 -3.35287 -1.62522 0
M  V30 6178 H 598.517 -4.77515 -0.389332 0
M  V30 6179 H 596.881 -2.52888 -0.303271 0
M  V30 6180 H 597.664 -3.20728 1.22428 0
M  V30 6181 N 600.109 -0.101901 -1.5727 0
M  V30 6182 C 601.386 0.602832 -1.86079 0
M  V30 6183 C 601.766 1.85912 -1 0
M  V30 6184 O 601.114 2.28379 -0.0742488 0
M  V30 6185 C 601.324 0.911694 -3.36881 0
M  V30 6186 C 602.672 1.2722 -4.05093 0
M  V30 6187 O 603.696 1.0025 -3.41802 0
M  V30 6188 O 602.555 1.7776 -5.16782 0
M  V30 6189 H 599.649 0.302366 -0.769743 0
M  V30 6190 H 602.195 -0.135113 -1.69161 0
M  V30 6191 H 600.967 0.0207256 -3.91295 0
M  V30 6192 H 600.59 1.70538 -3.59169 0
M  V30 6193 N 601.587 1.56661 0.17182 0
M  V30 6194 C 602.535 1.97289 1.23207 0
M  V30 6195 C 603.529 0.861566 1.45854 0
M  V30 6196 O 604.735 1.04668 1.4644 0
M  V30 6197 H 601.11 0.627681 0.41415 0
M  V30 6198 H 603.081 2.85662 0.862542 0
M  V30 6199 C 601.83 2.34849 2.564 0
M  V30 6200 H 601.153 3.19903 2.39797 0
M  V30 6201 H 602.593 2.67121 3.29276 0
M  V30 6202 C 601.052 1.19172 3.15119 0
M  V30 6203 O 601.582 0.479113 3.98833 0
M  V30 6204 N 599.788 0.962415 2.74201 0
M  V30 6205 H 599.335 1.54365 2.06226 0
M  V30 6206 H 599.293 0.190272 3.13824 0
M  V30 6207 N 603.065 -0.440357 1.51323 0
M  V30 6208 C 604.481 -0.7766 1.39431 0
M  V30 6209 C 604.681 -1.95838 0.474296 0
M  V30 6210 O 603.737 -2.52398 -0.0716692 0
M  V30 6211 C 605.05 -1.05981 2.81405 0
M  V30 6212 C 606.598 -1.16442 2.90534 0
M  V30 6213 C 607.073 -1.48058 4.33408 0
M  V30 6214 N 608.564 -1.54988 4.36501 0
M  V30 6215 C 609.299 -1.81017 5.44078 0
M  V30 6216 N 608.795 -2.04858 6.61819 0
M  V30 6217 N 610.588 -1.82774 5.31554 0
M  V30 6218 H 602.739 0.338006 2.09693 0
M  V30 6219 H 605.002 0.0888072 0.943831 0
M  V30 6220 H 604.708 -0.264173 3.50706 0
M  V30 6221 H 604.582 -1.98822 3.20546 0
M  V30 6222 H 606.969 -1.95068 2.21432 0
M  V30 6223 H 607.05 -0.215088 2.54894 0
M  V30 6224 H 606.694 -0.699605 5.03059 0
M  V30 6225 H 606.624 -2.44192 4.66559 0
M  V30 6226 H 609.115 -1.38479 3.51613 0
M  V30 6227 H 609.428 -2.2408 7.396 0
M  V30 6228 H 607.773 -2.02187 6.6494 0
M  V30 6229 H 610.964 -1.63665 4.38556 0
M  V30 6230 H 611.137 -2.02722 6.15474 0
M  V30 6231 N 604.543 -1.41418 -0.695603 0
M  V30 6232 C 605.506 -1.42988 -1.79129 0
M  V30 6233 C 606.506 -0.320514 -1.57573 0
M  V30 6234 O 607.696 -0.58039 -1.64247 0
M  V30 6235 C 604.828 -1.24122 -3.175 0
M  V30 6236 H 606.021 -2.40526 -1.7913 0
M  V30 6237 H 603.574 -1.2756 -0.903225 0
M  V30 6238 H 604.309 -0.274253 -3.23138 0
M  V30 6239 H 604.094 -2.045 -3.34547 0
M  V30 6240 H 605.584 -1.28056 -3.97481 0
M  V30 6241 N 606.021 0.929856 -1.27246 0
M  V30 6242 C 606.968 2.03017 -1.09785 0
M  V30 6243 C 607.938 1.661 0.000456744 0
M  V30 6244 O 609.123 1.90116 -0.161462 0
M  V30 6245 C 606.263 3.36878 -0.748816 0
M  V30 6246 C 605.376 3.86763 -1.92453 0
M  V30 6247 C 604.511 5.09061 -1.51758 0
M  V30 6248 C 603.55 5.51237 -2.66091 0
M  V30 6249 N 602.687 6.64732 -2.25999 0
M  V30 6250 H 607.527 2.17285 -2.03939 0
M  V30 6251 H 605.064 1.06448 -1.01524 0
M  V30 6252 H 607.022 4.13855 -0.527283 0
M  V30 6253 H 605.652 3.22424 0.155771 0
M  V30 6254 H 604.704 3.06086 -2.25867 0
M  V30 6255 H 606.016 4.13994 -2.78227 0
M  V30 6256 H 605.17 5.93532 -1.25716 0
M  V30 6257 H 603.909 4.83602 -0.630896 0
M  V30 6258 H 602.914 4.65316 -2.92849 0
M  V30 6259 H 604.139 5.78692 -3.55377 0
M  V30 6260 H 602.085 6.40935 -1.3978 0
M  V30 6261 H 602.002 6.91607 -3.05313 0
M  V30 6262 H 603.27 7.52549 -2.03199 0
M  V30 6263 N 607.499 1.09233 1.13605 0
M  V30 6264 C 608.432 0.6739 2.18023 0
M  V30 6265 C 609.41 -0.318603 1.59448 0
M  V30 6266 O 610.594 -0.220452 1.87206 0
M  V30 6267 C 607.721 -0.00751458 3.38699 0
M  V30 6268 C 606.767 0.946481 4.15865 0
M  V30 6269 S 607.6 2.45753 4.75779 0
M  V30 6270 C 608.756 1.78846 5.99804 0
M  V30 6271 H 608.989 1.55846 2.53178 0
M  V30 6272 H 606.522 0.908118 1.2487 0
M  V30 6273 H 608.48 -0.394368 4.08601 0
M  V30 6274 H 607.141 -0.868693 3.01849 0
M  V30 6275 H 606.334 0.416742 5.02274 0
M  V30 6276 H 605.936 1.27464 3.51609 0
M  V30 6277 H 608.228 1.11135 6.68323 0
M  V30 6278 H 609.171 2.63163 6.57382 0
M  V30 6279 H 609.579 1.25823 5.50299 0
M  V30 6280 N 608.977 -1.30795 0.87923 0
M  V30 6281 C 610.388 -1.78535 0.546093 0
M  V30 6282 C 610.739 -1.72354 -0.937467 0
M  V30 6283 O 609.864 -1.2969 -1.73233 0
M  V30 6284 C 610.459 -3.24181 0.9845 0
M  V30 6285 C 609.018 -3.69779 0.702871 0
M  V30 6286 C 608.165 -2.51377 1.17068 0
M  V30 6287 H 611.116 -1.17746 1.06403 0
M  V30 6288 H 611.137 -3.79227 0.311045 0
M  V30 6289 H 610.649 -3.28647 2.06429 0
M  V30 6290 H 608.75 -3.70806 -0.365166 0
M  V30 6291 H 608.863 -4.61507 1.28639 0
M  V30 6292 H 607.227 -2.47768 0.590172 0
M  V30 6293 H 608.01 -2.58584 2.25808 0
M  V30 6294 N 610.455 -0.639598 -1.44038 0
M  V30 6295 C 611.68 -0.153117 -2.06834 0
M  V30 6296 C 612.105 1.16676 -1.47541 0
M  V30 6297 O 611.463 1.71769 -0.580093 0
M  V30 6298 C 611.511 -0.0609169 -3.60549 0
M  V30 6299 O 610.615 0.98071 -4.00569 0
M  V30 6300 H 609.956 -0.0886402 -0.658057 0
M  V30 6301 H 612.486 -0.878674 -1.84771 0
M  V30 6302 H 612.496 0.126892 -4.07803 0
M  V30 6303 H 611.171 -1.0245 -4.03084 0
M  V30 6304 H 609.748 0.766789 -3.64931 0
M  V30 6305 N 611.933 1.52934 -0.380664 0
M  V30 6306 C 613.18 2.01467 0.204278 0
M  V30 6307 C 613.508 1.26744 1.47533 0
M  V30 6308 O 612.763 0.353723 1.92477 0
M  V30 6309 C 613.062 3.5349 0.527199 0
M  V30 6310 C 612.728 4.46171 -0.651295 0
M  V30 6311 C 611.39 4.71227 -0.974619 0
M  V30 6312 C 613.742 5.00909 -1.44012 0
M  V30 6313 C 611.07 5.4827 -2.08847 0
M  V30 6314 C 613.422 5.7917 -2.5445 0
M  V30 6315 C 612.086 6.02507 -2.87301 0
M  V30 6316 H 611.356 0.73722 0.0747504 0
M  V30 6317 H 614.003 1.84411 -0.516234 0
M  V30 6318 H 612.308 3.68574 1.32892 0
M  V30 6319 H 614.005 3.88529 0.992283 0
M  V30 6320 H 610.595 4.26829 -0.389276 0
M  V30 6321 H 614.779 4.81485 -1.20357 0
M  V30 6322 H 610.035 5.64567 -2.34679 0
M  V30 6323 H 614.209 6.20588 -3.1598 0
M  V30 6324 H 611.836 6.61989 -3.7373 0
M  V30 6325 N 613.412 0.11024 1.57214 0
M  V30 6326 C 614.637 -0.561179 1.99664 0
M  V30 6327 C 615.062 -1.59985 0.989266 0
M  V30 6328 O 614.42 -1.81255 -0.0402399 0
M  V30 6329 C 614.468 -1.17189 3.41027 0
M  V30 6330 O 613.572 -2.28755 3.4314 0
M  V30 6331 H 612.913 -0.14101 0.648855 0
M  V30 6332 H 615.443 0.196128 2.03658 0
M  V30 6333 H 615.453 -1.50954 3.79047 0
M  V30 6334 H 614.128 -0.411041 4.13864 0
M  V30 6335 H 612.705 -1.96495 3.16929 0
M  V30 6336 N 614.89 -1.56749 -0.16351 0
M  V30 6337 C 615.837 -1.97011 -1.2023 0
M  V30 6338 C 616.807 -0.835186 -1.43575 0
M  V30 6339 O 617.992 -1.09594 -1.56185 0
M  V30 6340 C 615.132 -2.34186 -2.53478 0
M  V30 6341 C 614.245 -3.60893 -2.37446 0
M  V30 6342 C 613.38 -3.87245 -3.63614 0
M  V30 6343 C 612.419 -5.07274 -3.42548 0
M  V30 6344 N 611.556 -5.29719 -4.60806 0
M  V30 6345 H 616.396 -2.85562 -0.851958 0
M  V30 6346 H 613.933 -1.41292 -0.409257 0
M  V30 6347 H 615.891 -2.53764 -3.31149 0
M  V30 6348 H 614.521 -1.48736 -2.86492 0
M  V30 6349 H 613.573 -3.49185 -1.50911 0
M  V30 6350 H 614.885 -4.48722 -2.1783 0
M  V30 6351 H 614.039 -4.07232 -4.49719 0
M  V30 6352 H 612.778 -2.97806 -3.86216 0
M  V30 6353 H 611.783 -4.87177 -2.5483 0
M  V30 6354 H 613.008 -5.98251 -3.2136 0
M  V30 6355 H 610.954 -4.43233 -4.83612 0
M  V30 6356 H 610.871 -6.11786 -4.44132 0
M  V30 6357 H 612.139 -5.54192 -5.48171 0
M  V30 6358 N 616.368 0.432326 -1.51554 0
M  V30 6359 C 617.593 1.20824 -1.68571 0
M  V30 6360 C 618.018 1.84126 -0.384596 0
M  V30 6361 O 617.376 1.69025 0.655751 0
M  V30 6362 C 617.424 2.26429 -2.80646 0
M  V30 6363 O 616.528 3.32032 -2.44598 0
M  V30 6364 H 615.869 0.353765 -0.561913 0
M  V30 6365 H 618.399 0.509916 -1.98144 0
M  V30 6366 H 618.409 2.71133 -3.04878 0
M  V30 6367 H 617.084 1.79733 -3.75058 0
M  V30 6368 H 615.661 2.92769 -2.30956 0
M  V30 6369 N 617.846 1.41785 0.688094 0
M  V30 6370 C 619.074 1.44915 1.47673 0
M  V30 6371 C 619.489 0.0565786 1.88715 0
M  V30 6372 O 618.846 -0.92579 1.57275 0
M  V30 6373 C 618.897 2.36452 2.73446 0
M  V30 6374 O 618.618 3.7029 2.34131 0
M  V30 6375 C 620.119 2.48463 3.67125 0
M  V30 6376 H 617.339 0.493324 0.454832 0
M  V30 6377 H 619.883 1.86153 0.846594 0
M  V30 6378 H 618.038 1.98502 3.3268 0
M  V30 6379 H 618.452 4.19183 3.15255 0
M  V30 6380 H 619.926 3.16662 4.52138 0
M  V30 6381 H 620.403 1.51826 4.12123 0
M  V30 6382 H 621.009 2.8708 3.13792 0
M  V30 6383 N 619.324 -0.923095 1.27737 0
M  V30 6384 C 620.552 -1.70525 1.17171 0
M  V30 6385 C 620.967 -1.86847 -0.270881 0
M  V30 6386 O 620.324 -1.38879 -1.18401 0
M  V30 6387 C 620.375 -3.10242 1.85559 0
M  V30 6388 O 620.096 -2.94683 3.24182 0
M  V30 6389 C 621.597 -4.04586 1.81176 0
M  V30 6390 H 618.817 -0.533347 0.407163 0
M  V30 6391 H 621.361 -1.15599 1.68692 0
M  V30 6392 H 619.516 -3.62014 1.3793 0
M  V30 6393 H 619.93 -3.83045 3.58297 0
M  V30 6394 H 621.404 -5.00119 2.33633 0
M  V30 6395 H 621.881 -4.3218 0.782099 0
M  V30 6396 H 622.487 -3.58741 2.2844 0
M  V30 6397 N 620.802 -1.09834 -1.13024 0
M  V30 6398 C 621.765 -0.745058 -2.16752 0
M  V30 6399 C 622.765 0.227435 -1.59183 0
M  V30 6400 O 623.955 0.0050786 -1.74199 0
M  V30 6401 C 621.087 -0.102543 -3.40746 0
M  V30 6402 H 622.28 -1.66375 -2.49518 0
M  V30 6403 H 619.833 -0.898061 -1.27924 0
M  V30 6404 H 620.568 0.827177 -3.13573 0
M  V30 6405 H 620.353 -0.80235 -3.83803 0
M  V30 6406 H 621.843 0.129082 -4.174 0
M  V30 6407 N 622.28 1.30327 -0.886154 0
M  V30 6408 C 623.527 1.96097 -0.505192 0
M  V30 6409 C 623.855 1.69952 0.945868 0
M  V30 6410 O 623.11 0.997653 1.68361 0
M  V30 6411 C 623.409 3.49906 -0.728042 0
M  V30 6412 C 623.075 3.96103 -2.15437 0
M  V30 6413 C 621.737 4.08428 -2.5444 0
M  V30 6414 C 624.089 4.20177 -3.08384 0
M  V30 6415 C 621.417 4.42189 -3.85598 0
M  V30 6416 C 623.769 4.55407 -4.39075 0
M  V30 6417 C 622.433 4.65941 -4.7797 0
M  V30 6418 H 621.703 0.71757 -0.184863 0
M  V30 6419 H 624.35 1.55171 -1.12223 0
M  V30 6420 H 622.655 3.9179 -0.027978 0
M  V30 6421 H 624.352 3.98869 -0.412862 0
M  V30 6422 H 620.942 3.87017 -1.84162 0
M  V30 6423 H 625.126 4.10134 -2.7947 0
M  V30 6424 H 620.382 4.48544 -4.15473 0
M  V30 6425 H 624.556 4.72986 -5.11133 0
M  V30 6426 H 622.183 4.91856 -5.79639 0
M  V30 6427 N 623.758 0.647228 1.43697 0
M  V30 6428 C 624.706 -0.0600105 2.32523 0
M  V30 6429 C 625.7 -0.819277 1.48271 0
M  V30 6430 O 626.906 -0.730356 1.64517 0
M  V30 6431 H 623.281 -0.0381872 0.75103 0
M  V30 6432 H 625.252 0.706978 2.89904 0
M  V30 6433 C 624.001 -1.0169 3.32497 0
M  V30 6434 H 623.324 -0.442083 3.97348 0
M  V30 6435 H 624.764 -1.48095 3.97296 0
M  V30 6436 C 623.223 -2.11002 2.6264 0
M  V30 6437 O 623.753 -3.19302 2.4374 0
M  V30 6438 N 621.959 -1.87388 2.22113 0
M  V30 6439 H 621.506 -0.993174 2.37684 0
M  V30 6440 H 621.464 -2.60723 1.75701 0
M  V30 6441 N 625.236 -1.5273 0.388769 0
M  V30 6442 C 626.482 -2.01871 -0.193877 0
M  V30 6443 C 626.815 -1.27475 -1.46505 0
M  V30 6444 O 626.09 -0.375063 -1.90849 0
M  V30 6445 C 626.373 -3.5712 -0.462336 0
M  V30 6446 C 626.226 -4.42186 0.824091 0
M  V30 6447 C 627.545 -4.21881 -1.25319 0
M  V30 6448 H 624.664 -0.733764 -0.0689899 0
M  V30 6449 H 627.306 -1.82796 0.518231 0
M  V30 6450 H 625.456 -3.73504 -1.06896 0
M  V30 6451 H 627.128 -4.37554 1.46096 0
M  V30 6452 H 625.371 -4.09219 1.43952 0
M  V30 6453 H 626.042 -5.48828 0.590905 0
M  V30 6454 H 628.518 -4.0947 -0.73981 0
M  V30 6455 H 627.394 -5.30487 -1.40977 0
M  V30 6456 H 627.655 -3.79478 -2.26824 0
M  V30 6457 N 626.714 -0.118576 -1.57153 0
M  V30 6458 C 627.963 0.539339 -1.94355 0
M  V30 6459 C 628.276 1.67858 -1.00415 0
M  V30 6460 O 629.482 2.39922 -1.27081 0
M  V30 6461 C 627.938 1.01082 -3.45414 0
M  V30 6462 C 627.546 -0.0999402 -4.47889 0
M  V30 6463 C 629.29 1.64013 -3.91535 0
M  V30 6464 C 627.197 0.388212 -5.90124 0
M  V30 6465 H 626.127 0.205247 -0.725527 0
M  V30 6466 H 628.778 -0.19836 -1.82425 0
M  V30 6467 H 627.16 1.80292 -3.52577 0
M  V30 6468 H 628.334 -0.876189 -4.52393 0
M  V30 6469 H 626.649 -0.635885 -4.11516 0
M  V30 6470 H 629.246 2.01649 -4.95219 0
M  V30 6471 H 629.589 2.51836 -3.31488 0
M  V30 6472 H 630.122 0.913439 -3.87171 0
M  V30 6473 H 626.861 -0.453963 -6.53926 0
M  V30 6474 H 626.381 1.13095 -5.89041 0
M  V30 6475 H 628.06 0.849574 -6.41398 0
M  V30 6476 N 628.193 1.56834 0.155195 0
M  V30 6477 C 629.418 1.87412 0.888337 0
M  V30 6478 C 629.843 0.70671 1.74319 0
M  V30 6479 O 629.201 -0.343892 1.78009 0
M  V30 6480 C 629.249 3.1652 1.72765 0
M  V30 6481 O 628.353 2.99877 2.83103 0
M  V30 6482 H 627.694 0.615983 0.247914 0
M  V30 6483 H 630.224 2.04061 0.148478 0
M  V30 6484 H 630.234 3.48334 2.12433 0
M  V30 6485 H 628.909 4.01094 1.09985 0
M  V30 6486 H 627.486 2.79453 2.46902 0
M  V30 6487 N 629.671 -0.424282 1.51781 0
M  V30 6488 C 630.618 -1.51591 1.74037 0
M  V30 6489 C 631.588 -1.55556 0.582358 0
M  V30 6490 O 632.773 -1.72364 0.818245 0
M  V30 6491 C 629.913 -2.89188 1.8832 0
M  V30 6492 C 629.026 -2.9465 3.1592 0
M  V30 6493 C 628.161 -4.23452 3.20721 0
M  V30 6494 C 627.2 -4.22831 4.42584 0
M  V30 6495 N 626.337 -5.43178 4.44862 0
M  V30 6496 H 631.177 -1.31917 2.67212 0
M  V30 6497 H 628.714 -0.640599 1.32419 0
M  V30 6498 H 630.672 -3.69044 1.94583 0
M  V30 6499 H 629.302 -3.07392 0.985402 0
M  V30 6500 H 628.354 -2.07378 3.18902 0
M  V30 6501 H 629.666 -2.90055 4.05795 0
M  V30 6502 H 628.82 -5.1169 3.25973 0
M  V30 6503 H 627.559 -4.30722 2.28757 0
M  V30 6504 H 626.564 -3.32984 4.37495 0
M  V30 6505 H 627.789 -4.17213 5.35826 0
M  V30 6506 H 625.735 -5.51145 3.55775 0
M  V30 6507 H 625.652 -5.40515 5.28563 0
M  V30 6508 H 626.92 -6.33412 4.54324 0
M  V30 6509 N 631.149 -1.42148 -0.680565 0
M  V30 6510 C 632.079 -1.4796 -1.80638 0
M  V30 6511 C 633.06 -0.336728 -1.66734 0
M  V30 6512 O 634.245 -0.550247 -1.86242 0
M  V30 6513 C 631.375 -1.37569 -3.18892 0
M  V30 6514 C 630.329 -2.49823 -3.47524 0
M  V30 6515 C 629.655 -2.24491 -4.85291 0
M  V30 6516 C 630.955 -3.92144 -3.44994 0
M  V30 6517 H 632.649 -2.42184 -1.76032 0
M  V30 6518 H 630.195 -1.16566 -0.845481 0
M  V30 6519 H 632.148 -1.40243 -3.97379 0
M  V30 6520 H 630.872 -0.398357 -3.24162 0
M  V30 6521 H 629.531 -2.46455 -2.71395 0
M  V30 6522 H 629.179 -1.25066 -4.87204 0
M  V30 6523 H 628.879 -2.99722 -5.05411 0
M  V30 6524 H 630.403 -2.28906 -5.66069 0
M  V30 6525 H 631.817 -3.97145 -4.13459 0
M  V30 6526 H 630.214 -4.67179 -3.76648 0
M  V30 6527 H 631.284 -4.19225 -2.43676 0
M  V30 6528 N 632.627 0.916307 -1.28225 0
M  V30 6529 C 633.59 1.99996 -1.11957 0
M  V30 6530 C 634.59 1.60688 -0.0600152 0
M  V30 6531 O 635.78 1.71499 -0.30558 0
M  V30 6532 C 632.912 3.33458 -0.708411 0
M  V30 6533 H 634.105 2.15858 -2.08196 0
M  V30 6534 H 631.658 1.09863 -1.11175 0
M  V30 6535 H 632.393 3.23297 0.254859 0
M  V30 6536 H 632.178 3.63349 -1.47377 0
M  V30 6537 H 633.668 4.13014 -0.617164 0
M  V30 6538 N 634.105 1.10431 1.1244 0
M  V30 6539 C 635.516 0.864439 1.65482 0
M  V30 6540 C 635.867 -0.60527 1.8663 0
M  V30 6541 O 634.992 -1.46492 1.59276 0
M  V30 6542 C 635.587 1.56267 3.0061 0
M  V30 6543 C 634.146 1.3695 3.50602 0
M  V30 6544 C 633.293 1.61209 2.25626 0
M  V30 6545 H 636.244 1.26203 0.962209 0
M  V30 6546 H 636.265 1.00166 3.67079 0
M  V30 6547 H 635.777 2.63231 2.85186 0
M  V30 6548 H 633.878 0.321481 3.71211 0
M  V30 6549 H 633.991 2.11143 4.30064 0
M  V30 6550 H 632.355 1.03482 2.32731 0
M  V30 6551 H 633.138 2.69425 2.12756 0
M  V30 6552 N 635.583 -1.29855 0.893053 0
M  V30 6553 C 636.513 -2.3035 0.382249 0
M  V30 6554 C 637.494 -1.61328 -0.539203 0
M  V30 6555 O 638.679 -1.88882 -0.451342 0
M  V30 6556 C 635.809 -3.45024 -0.396983 0
M  V30 6557 C 634.763 -4.258 0.433437 0
M  V30 6558 C 634.089 -5.32605 -0.472889 0
M  V30 6559 C 635.389 -4.94549 1.67984 0
M  V30 6560 H 637.083 -2.73325 1.22205 0
M  V30 6561 H 634.629 -1.314 0.589073 0
M  V30 6562 H 636.582 -4.14398 -0.765024 0
M  V30 6563 H 635.306 -3.00875 -1.2705 0
M  V30 6564 H 633.965 -3.58125 0.783723 0
M  V30 6565 H 633.613 -4.84702 -1.34435 0
M  V30 6566 H 633.313 -5.87547 0.0789958 0
M  V30 6567 H 634.837 -6.04832 -0.837269 0
M  V30 6568 H 636.251 -5.56395 1.38192 0
M  V30 6569 H 634.648 -5.59393 2.17254 0
M  V30 6570 H 635.718 -4.20215 2.41965 0
M  V30 6571 N 637.061 -0.65484 -1.43351 0
M  V30 6572 C 638.477 -0.32255 -1.56307 0
M  V30 6573 C 638.677 1.17324 -1.63821 0
M  V30 6574 O 637.733 1.95813 -1.59417 0
M  V30 6575 C 639.046 -1.03533 -2.82314 0
M  V30 6576 C 640.594 -1.01574 -2.9606 0
M  V30 6577 C 641.069 -1.70945 -4.24902 0
M  V30 6578 N 642.56 -1.67716 -4.3177 0
M  V30 6579 C 643.295 -2.18265 -5.30234 0
M  V30 6580 N 642.791 -2.7711 -6.34966 0
M  V30 6581 N 644.584 -2.08756 -5.21898 0
M  V30 6582 H 636.735 -1.62549 -1.36717 0
M  V30 6583 H 638.998 -0.683676 -0.656727 0
M  V30 6584 H 638.704 -2.09045 -2.8283 0
M  V30 6585 H 638.578 -0.587913 -3.7259 0
M  V30 6586 H 640.965 0.0309834 -2.95084 0
M  V30 6587 H 641.046 -1.50186 -2.07069 0
M  V30 6588 H 640.69 -2.75574 -4.26639 0
M  V30 6589 H 640.62 -1.19797 -5.12793 0
M  V30 6590 H 643.111 -1.24777 -3.56706 0
M  V30 6591 H 643.424 -3.13353 -7.06421 0
M  V30 6592 H 641.769 -2.81171 -6.35585 0
M  V30 6593 H 644.96 -1.62488 -4.38994 0
M  V30 6594 H 645.133 -2.48459 -5.98475 0
M  V30 6595 N 638.539 1.52521 -0.396863 0
M  V30 6596 C 639.486 2.26671 0.434624 0
M  V30 6597 C 640.456 1.28584 1.05144 0
M  V30 6598 O 641.641 1.57426 1.07804 0
M  V30 6599 C 638.781 3.08234 1.55196 0
M  V30 6600 C 637.894 4.21261 0.957262 0
M  V30 6601 C 637.029 4.90205 2.04627 0
M  V30 6602 C 636.068 5.95213 1.42787 0
M  V30 6603 N 635.205 6.57723 2.45651 0
M  V30 6604 H 640.045 2.973 -0.204139 0
M  V30 6605 H 637.582 1.46669 -0.112505 0
M  V30 6606 H 639.54 3.53819 2.2106 0
M  V30 6607 H 638.17 2.398 2.16092 0
M  V30 6608 H 637.222 3.79935 0.188005 0
M  V30 6609 H 638.534 4.96624 0.465416 0
M  V30 6610 H 637.688 5.39133 2.78246 0
M  V30 6611 H 636.427 4.14383 2.57174 0
M  V30 6612 H 635.432 5.45616 0.676968 0
M  V30 6613 H 636.657 6.72972 0.910255 0
M  V30 6614 H 634.603 5.84737 2.97353 0
M  V30 6615 H 634.52 7.28723 2.01243 0
M  V30 6616 H 635.788 7.11293 3.18876 0
M  V30 6617 N 640.017 0.126909 1.57088 0
M  V30 6618 C 641.242 -0.53997 2.00248 0
M  V30 6619 C 641.667 -1.58927 1.00618 0
M  V30 6620 O 641.025 -1.81288 -0.0210131 0
M  V30 6621 C 641.073 -1.13565 3.4225 0
M  V30 6622 O 640.177 -2.25103 3.45547 0
M  V30 6623 H 639.518 -0.13412 0.650314 0
M  V30 6624 H 642.048 0.217718 2.03438 0
M  V30 6625 H 642.058 -1.46925 3.80627 0
M  V30 6626 H 640.733 -0.367122 4.14277 0
M  V30 6627 H 639.31 -1.93123 3.18995 0
M  V30 6628 N 641.495 -1.56914 -0.146875 0
M  V30 6629 C 642.443 -1.99224 -1.20053 0
M  V30 6630 C 643.437 -0.884661 -1.44465 0
M  V30 6631 O 644.643 -1.06984 -1.44756 0
M  V30 6632 H 641.018 -0.634191 -0.404112 0
M  V30 6633 H 642.989 -2.86998 -0.816987 0
M  V30 6634 C 641.738 -2.38899 -2.52632 0
M  V30 6635 H 641.061 -3.23677 -2.34677 0
M  V30 6636 H 642.501 -2.72326 -3.24984 0
M  V30 6637 C 640.96 -1.2417 -3.13183 0
M  V30 6638 O 641.49 -0.542503 -3.9802 0
M  V30 6639 N 639.696 -1.00592 -2.72635 0
M  V30 6640 H 639.243 -1.57627 -2.03744 0
M  V30 6641 H 639.201 -0.240174 -3.13481 0
M  V30 6642 N 642.974 0.416227 -1.52004 0
M  V30 6643 C 644.385 0.995319 -1.57957 0
M  V30 6644 C 644.736 1.91744 -0.415754 0
M  V30 6645 O 643.861 2.11349 0.464808 0
M  V30 6646 C 644.456 1.81191 -2.86278 0
M  V30 6647 C 643.015 2.34115 -2.94732 0
M  V30 6648 C 642.162 1.139 -2.52828 0
M  V30 6649 H 645.113 0.196716 -1.57476 0
M  V30 6650 H 645.134 2.66859 -2.71231 0
M  V30 6651 H 644.646 1.14051 -3.70963 0
M  V30 6652 H 642.747 3.04647 -2.14525 0
M  V30 6653 H 642.86 2.65466 -3.98829 0
M  V30 6654 H 641.224 1.49081 -2.06511 0
M  V30 6655 H 642.007 0.483383 -3.3988 0
M  V30 6656 N 644.452 1.42507 0.673017 0
M  V30 6657 C 645.415 1.4582 1.76831 0
M  V30 6658 C 646.415 0.345542 1.57043 0
M  V30 6659 O 647.605 0.606447 1.63303 0
M  V30 6660 C 644.737 1.29158 3.15485 0
M  V30 6661 H 645.93 2.43345 1.7528 0
M  V30 6662 H 643.483 1.28981 0.882817 0
M  V30 6663 H 644.218 0.325626 3.22661 0
M  V30 6664 H 644.003 2.09797 3.31252 0
M  V30 6665 H 645.493 1.34363 3.95394 0
M  V30 6666 N 645.93 -0.909495 1.28709 0
M  V30 6667 C 647.179 -1.65365 1.15487 0
M  V30 6668 C 647.492 -1.93364 -0.294941 0
M  V30 6669 O 648.698 -2.65905 -0.548338 0
M  V30 6670 C 647.154 -2.97923 2.01916 0
M  V30 6671 C 646.762 -2.77556 3.51663 0
M  V30 6672 C 648.506 -3.75814 1.97393 0
M  V30 6673 C 646.413 -4.0578 4.30229 0
M  V30 6674 H 645.343 -0.620323 0.42862 0
M  V30 6675 H 647.994 -1.00894 1.53273 0
M  V30 6676 H 646.376 -3.63552 1.5699 0
M  V30 6677 H 647.55 -2.2058 4.04575 0
M  V30 6678 H 645.865 -2.13072 3.57756 0
M  V30 6679 H 648.462 -4.70866 2.53357 0
M  V30 6680 H 648.805 -4.05277 0.951643 0
M  V30 6681 H 649.338 -3.1701 2.40311 0
M  V30 6682 H 646.077 -3.81488 5.33055 0
M  V30 6683 H 645.597 -4.62351 3.82089 0
M  V30 6684 H 647.276 -4.74004 4.40374 0
M  V30 6685 N 647.408 -1.11026 -1.11852 0
M  V30 6686 C 648.371 -0.768006 -2.1595 0
M  V30 6687 C 649.371 0.210538 -1.59416 0
M  V30 6688 O 650.561 -0.0133978 -1.74195 0
M  V30 6689 C 647.693 -0.138678 -3.40618 0
M  V30 6690 H 648.886 -1.69012 -2.4774 0
M  V30 6691 H 646.439 -0.911578 -1.26964 0
M  V30 6692 H 647.174 0.793872 -3.14433 0
M  V30 6693 H 646.959 -0.843012 -3.8293 0
M  V30 6694 H 648.449 0.0848039 -4.17514 0
M  V30 6695 N 648.886 1.2938 -0.899927 0
M  V30 6696 C 650.116 1.99402 -0.540601 0
M  V30 6697 C 650.524 1.67534 0.87914 0
M  V30 6698 O 649.867 0.916821 1.59186 0
M  V30 6699 C 649.929 3.53514 -0.653326 0
M  V30 6700 C 649.593 4.08937 -2.04009 0
M  V30 6701 C 650.59 4.23815 -3.01126 0
M  V30 6702 C 648.275 4.43962 -2.34953 0
M  V30 6703 C 650.269 4.72951 -4.27313 0
M  V30 6704 C 647.956 4.92795 -3.61382 0
M  V30 6705 C 648.954 5.07244 -4.57376 0
M  V30 6706 O 648.642 5.55017 -5.8156 0
M  V30 6707 H 648.374 0.64383 -0.206057 0
M  V30 6708 H 650.928 1.65878 -1.21134 0
M  V30 6709 H 649.158 3.86628 0.0744449 0
M  V30 6710 H 650.847 4.04767 -0.303118 0
M  V30 6711 H 651.613 3.97043 -2.78535 0
M  V30 6712 H 647.492 4.31974 -1.60994 0
M  V30 6713 H 651.036 4.84144 -5.02245 0
M  V30 6714 H 646.933 5.19004 -3.83804 0
M  V30 6715 H 647.701 5.73331 -5.84153 0
M  V30 6716 N 650.364 0.662433 1.43002 0
M  V30 6717 C 651.612 0.179237 2.01304 0
M  V30 6718 C 651.933 -1.21428 1.52579 0
M  V30 6719 O 651.203 -1.81294 0.742252 0
M  V30 6720 H 649.783 0.0632725 0.744316 0
M  V30 6721 H 652.445 0.856169 1.75088 0
M  V30 6722 H 651.541 0.170957 3.11631 0
M  V30 6723 N 651.842 -1.52309 0.404946 0
M  V30 6724 C 653.067 -2.06666 -0.1743 0
M  V30 6725 C 653.492 -1.27341 -1.38441 0
M  V30 6726 O 652.85 -0.302539 -1.78758 0
M  V30 6727 C 652.898 -3.57014 -0.507262 0
M  V30 6728 O 652.002 -3.80144 -1.59889 0
M  V30 6729 H 651.343 -0.663807 -0.0160273 0
M  V30 6730 H 653.873 -1.96297 0.576937 0
M  V30 6731 H 653.883 -4.00724 -0.767098 0
M  V30 6732 H 652.558 -4.14184 0.377368 0
M  V30 6733 H 651.135 -3.48316 -1.33155 0
M  V30 6734 N 653.32 -0.135238 -1.57019 0
M  V30 6735 C 654.548 0.526066 -2.001 0
M  V30 6736 C 654.963 1.59184 -1.01519 0
M  V30 6737 O 654.32 1.82497 -0.0104258 0
M  V30 6738 C 654.371 1.13744 -3.43139 0
M  V30 6739 O 654.092 0.114259 -4.37951 0
M  V30 6740 C 655.593 1.8805 -4.01438 0
M  V30 6741 H 652.813 0.137962 -0.656664 0
M  V30 6742 H 655.357 -0.226359 -2.03243 0
M  V30 6743 H 653.512 1.84056 -3.40885 0
M  V30 6744 H 653.926 0.56058 -5.21496 0
M  V30 6745 H 655.4 2.26133 -5.03555 0
M  V30 6746 H 655.877 2.76194 -3.41487 0
M  V30 6747 H 656.483 1.22464 -4.07287 0
M  V30 6748 N 654.798 1.5699 0.138552 0
M  V30 6749 C 655.73 1.95515 1.1961 0
M  V30 6750 C 656.743 0.852002 1.38726 0
M  V30 6751 O 657.932 1.13038 1.38147 0
M  V30 6752 C 655.032 2.2213 2.55952 0
M  V30 6753 C 654.205 3.53424 2.57702 0
M  V30 6754 C 653.264 3.6848 3.75645 0
M  V30 6755 O 652.29 4.4079 3.60129 0
M  V30 6756 N 653.492 3.05777 4.93438 0
M  V30 6757 H 656.257 2.86838 0.868557 0
M  V30 6758 H 653.818 1.58542 0.328033 0
M  V30 6759 H 655.81 2.29435 3.33379 0
M  V30 6760 H 654.38 1.3703 2.80965 0
M  V30 6761 H 653.6 3.57484 1.6613 0
M  V30 6762 H 654.888 4.39759 2.55909 0
M  V30 6763 H 654.286 2.46961 5.08947 0
M  V30 6764 H 652.843 3.18631 5.6861 0
M  V30 6765 N 656.276 -0.40816 1.52223 0
M  V30 6766 C 657.208 -1.51642 1.71864 0
M  V30 6767 C 658.221 -1.51378 0.599056 0
M  V30 6768 O 659.41 -1.55626 0.874239 0
M  V30 6769 C 656.51 -2.90534 1.74481 0
M  V30 6770 C 655.683 -3.14979 3.03491 0
M  V30 6771 C 654.742 -4.33749 2.97907 0
M  V30 6772 O 653.768 -4.30982 3.71811 0
M  V30 6773 N 654.97 -5.38912 2.15764 0
M  V30 6774 H 657.735 -1.35188 2.67478 0
M  V30 6775 H 655.296 -0.597468 1.50472 0
M  V30 6776 H 657.288 -3.68056 1.68275 0
M  V30 6777 H 655.858 -3.00441 0.863363 0
M  V30 6778 H 655.078 -2.25492 3.23337 0
M  V30 6779 H 656.366 -3.28156 3.88833 0
M  V30 6780 H 655.764 -5.44008 1.55152 0
M  V30 6781 H 654.321 -6.15174 2.15415 0
M  V30 6782 N 657.755 -1.42862 -0.66545 0
M  V30 6783 C 659.171 -1.25993 -0.979687 0
M  V30 6784 C 659.371 -0.170831 -2.00775 0
M  V30 6785 O 658.427 0.454827 -2.4837 0
M  V30 6786 C 659.74 -2.62005 -1.47559 0
M  V30 6787 C 661.288 -2.69437 -1.59288 0
M  V30 6788 C 661.763 -4.05838 -2.12272 0
M  V30 6789 N 663.254 -4.0784 -2.19592 0
M  V30 6790 C 663.989 -5.10205 -2.61684 0
M  V30 6791 N 663.485 -6.22949 -3.03161 0
M  V30 6792 N 665.278 -4.9756 -2.61516 0
M  V30 6793 H 657.429 -2.12395 0.0150493 0
M  V30 6794 H 659.692 -0.946355 -0.0558187 0
M  V30 6795 H 659.398 -3.42605 -0.794654 0
M  V30 6796 H 659.272 -2.86566 -2.45275 0
M  V30 6797 H 661.659 -1.89178 -2.26486 0
M  V30 6798 H 661.74 -2.48655 -0.600374 0
M  V30 6799 H 661.384 -4.86559 -1.4568 0
M  V30 6800 H 661.314 -4.23977 -3.12331 0
M  V30 6801 H 663.805 -3.26452 -1.90361 0
M  V30 6802 H 664.118 -6.96899 -3.33993 0
M  V30 6803 H 662.463 -6.2644 -3.00995 0
M  V30 6804 H 665.654 -4.08551 -2.28481 0
M  V30 6805 H 665.827 -5.77468 -2.93999 0
M  V30 6806 N 659.233 0.902656 -1.29189 0
M  V30 6807 C 660.479 1.6555 -1.18172 0
M  V30 6808 C 660.834 1.90569 0.264788 0
M  V30 6809 O 660.127 1.50292 1.1884 0
M  V30 6810 C 660.321 3.011 -1.92545 0
M  V30 6811 C 660.15 2.89312 -3.4428 0
M  V30 6812 C 658.92 2.90239 -4.1363 0
M  V30 6813 C 661.118 2.6656 -4.3983 0
M  V30 6814 N 659.1 2.69156 -5.5175 0
M  V30 6815 C 660.471 2.54429 -5.6539 0
M  V30 6816 C 662.526 2.51644 -4.29627 0
M  V30 6817 C 661.229 2.289 -6.81907 0
M  V30 6818 C 663.255 2.27498 -5.45892 0
M  V30 6819 C 662.617 2.16129 -6.70423 0
M  V30 6820 H 658.716 0.611519 -0.48741 0
M  V30 6821 H 661.3 1.06514 -1.62981 0
M  V30 6822 H 659.471 3.58202 -1.50154 0
M  V30 6823 H 661.203 3.65471 -1.73818 0
M  V30 6824 H 657.958 3.01412 -3.65305 0
M  V30 6825 H 658.382 2.61676 -6.24383 0
M  V30 6826 H 663.024 2.59178 -3.34045 0
M  V30 6827 H 660.742 2.20104 -7.77547 0
M  V30 6828 H 664.328 2.16805 -5.39895 0
M  V30 6829 H 663.208 1.97703 -7.5887 0
M  V30 6830 N 660.711 1.11618 1.11262 0
M  V30 6831 C 661.96 0.860934 1.82403 0
M  V30 6832 C 662.273 -0.615303 1.8567 0
M  V30 6833 O 663.479 -0.986861 2.52929 0
M  V30 6834 C 661.935 1.49048 3.27586 0
M  V30 6835 C 661.543 3.00089 3.32642 0
M  V30 6836 C 663.287 1.31515 4.03614 0
M  V30 6837 C 661.194 3.56019 4.72234 0
M  V30 6838 H 660.124 0.318423 0.683464 0
M  V30 6839 H 662.775 1.34165 1.25188 0
M  V30 6840 H 661.157 0.937434 3.84744 0
M  V30 6841 H 662.331 3.61813 2.85356 0
M  V30 6842 H 660.646 3.16919 2.70096 0
M  V30 6843 H 663.243 1.70732 5.0671 0
M  V30 6844 H 663.586 0.257917 4.155 0
M  V30 6845 H 664.119 1.83694 3.52848 0
M  V30 6846 H 660.858 4.61463 4.65545 0
M  V30 6847 H 660.378 2.99066 5.19923 0
M  V30 6848 H 662.057 3.54568 5.41193 0
M  V30 6849 N 662.189 -1.289 0.906776 0
M  V30 6850 C 663.137 -2.29477 0.379873 0
M  V30 6851 C 664.131 -1.61068 -0.524747 0
M  V30 6852 O 665.337 -1.75344 -0.406765 0
M  V30 6853 H 661.712 -0.744742 0.10423 0
M  V30 6854 H 663.683 -2.71353 1.24137 0
M  V30 6855 C 662.432 -3.45713 -0.371154 0
M  V30 6856 H 661.755 -3.98551 0.315716 0
M  V30 6857 H 663.195 -4.18105 -0.704581 0
M  V30 6858 C 661.654 -2.9774 -1.57646 0
M  V30 6859 O 662.184 -2.99618 -2.67567 0
M  V30 6860 N 660.39 -2.53485 -1.42105 0
M  V30 6861 H 659.937 -2.52156 -0.526783 0
M  V30 6862 H 659.895 -2.21747 -2.22881 0
M  V30 6863 N 663.667 -0.670007 -1.42649 0
M  V30 6864 C 664.615 0.0230106 -2.32589 0
M  V30 6865 C 665.609 0.795585 -1.49555 0
M  V30 6866 O 666.815 0.70409 -1.65658 0
M  V30 6867 H 663.19 0.0262342 -0.751542 0
M  V30 6868 H 665.161 -0.753009 -2.88743 0
M  V30 6869 C 663.91 0.963872 -3.34073 0
M  V30 6870 H 663.233 0.378813 -3.98001 0
M  V30 6871 H 664.673 1.41755 -3.99602 0
M  V30 6872 C 663.132 2.06797 -2.65964 0
M  V30 6873 O 663.662 3.15383 -2.48789 0
M  V30 6874 N 661.868 1.83831 -2.25066 0
M  V30 6875 H 661.415 0.955235 -2.39234 0
M  V30 6876 H 661.373 2.57895 -1.79827 0
M  V30 6877 N 665.145 1.52092 -0.413018 0
M  V30 6878 C 666.422 1.94356 0.22024 0
M  V30 6879 C 666.802 1.35017 1.62277 0
M  V30 6880 O 666.15 0.527511 2.22328 0
M  V30 6881 C 666.36 3.48289 0.222638 0
M  V30 6882 C 667.708 4.22313 0.440098 0
M  V30 6883 O 668.732 3.54919 0.301826 0
M  V30 6884 O 667.591 5.41829 0.712984 0
M  V30 6885 H 664.685 0.814536 0.14304 0
M  V30 6886 H 667.231 1.63083 -0.469242 0
M  V30 6887 H 666.003 3.83872 -0.758836 0
M  V30 6888 H 665.626 3.85934 0.956057 0
M  V30 6889 N 666.623 0.143563 1.56945 0
M  V30 6890 C 667.869 -0.50916 1.96304 0
M  V30 6891 C 668.202 -1.64741 1.0283 0
M  V30 6892 O 667.477 -1.94374 0.0700361 0
M  V30 6893 C 667.76 -1.0186 3.45393 0
M  V30 6894 C 667.613 0.117923 4.49645 0
M  V30 6895 C 668.932 -1.90151 3.96901 0
M  V30 6896 H 666.051 -0.183608 0.713763 0
M  V30 6897 H 668.693 0.224095 1.88674 0
M  V30 6898 H 666.843 -1.64345 3.52027 0
M  V30 6899 H 668.515 0.754145 4.55094 0
M  V30 6900 H 666.758 0.777568 4.26774 0
M  V30 6901 H 667.429 -0.280187 5.51288 0
M  V30 6902 H 669.905 -1.375 3.92725 0
M  V30 6903 H 668.781 -2.22707 5.0169 0
M  V30 6904 H 669.042 -2.83718 3.39052 0
M  V30 6905 N 668.101 -1.57061 -0.130224 0
M  V30 6906 C 669.331 -1.88159 -0.853217 0
M  V30 6907 C 669.739 -0.731675 -1.7448 0
M  V30 6908 O 669.082 0.307035 -1.81116 0
M  V30 6909 C 669.144 -3.1415 -1.74785 0
M  V30 6910 C 668.808 -4.45202 -1.03173 0
M  V30 6911 C 669.805 -5.18526 -0.377759 0
M  V30 6912 C 667.49 -4.91912 -1.01624 0
M  V30 6913 C 669.484 -6.36775 0.282123 0
M  V30 6914 C 667.171 -6.10082 -0.352555 0
M  V30 6915 C 668.169 -6.82361 0.295483 0
M  V30 6916 O 667.857 -7.98284 0.948606 0
M  V30 6917 H 667.589 -0.627596 -0.251197 0
M  V30 6918 H 670.143 -2.05034 -0.1226 0
M  V30 6919 H 668.373 -2.93328 -2.51983 0
M  V30 6920 H 670.062 -3.31359 -2.34427 0
M  V30 6921 H 670.828 -4.83498 -0.381417 0
M  V30 6922 H 666.707 -4.35566 -1.51007 0
M  V30 6923 H 670.251 -6.93129 0.788525 0
M  V30 6924 H 666.148 -6.44569 -0.346621 0
M  V30 6925 H 666.916 -8.14054 0.851954 0
M  V30 6926 N 669.579 0.400081 -1.52437 0
M  V30 6927 C 670.825 1.14788 -1.67187 0
M  V30 6928 C 671.158 1.89928 -0.405074 0
M  V30 6929 O 670.433 1.85118 0.596804 0
M  V30 6930 C 670.716 2.13507 -2.89977 0
M  V30 6931 C 670.569 1.42204 -4.2673 0
M  V30 6932 C 671.888 3.14069 -3.083 0
M  V30 6933 H 669.007 0.415939 -0.608411 0
M  V30 6934 H 671.649 0.432542 -1.85011 0
M  V30 6935 H 669.799 2.7451 -2.74912 0
M  V30 6936 H 671.471 0.842503 -4.53541 0
M  V30 6937 H 669.714 0.723939 -4.27717 0
M  V30 6938 H 670.385 2.14281 -5.08712 0
M  V30 6939 H 672.861 2.63148 -3.22323 0
M  V30 6940 H 671.737 3.80398 -3.95713 0
M  V30 6941 H 671.998 3.82309 -2.22018 0
M  V30 6942 N 671.057 1.43213 0.657864 0
M  V30 6943 C 672.287 1.478 1.44356 0
M  V30 6944 C 672.695 0.0930206 1.88971 0
M  V30 6945 O 672.038 -0.906089 1.59799 0
M  V30 6946 C 672.1 2.35745 2.71412 0
M  V30 6947 C 671.764 3.83359 2.48767 0
M  V30 6948 C 672.761 4.74585 2.12285 0
M  V30 6949 C 670.446 4.27799 2.63235 0
M  V30 6950 C 672.44 6.08247 1.90562 0
M  V30 6951 C 670.127 5.61516 2.41128 0
M  V30 6952 C 671.125 6.51557 2.04847 0
M  V30 6953 O 670.813 7.82802 1.82967 0
M  V30 6954 H 670.545 0.504363 0.450104 0
M  V30 6955 H 673.099 1.88572 0.814241 0
M  V30 6956 H 671.329 1.89852 3.36887 0
M  V30 6957 H 673.018 2.31589 3.33348 0
M  V30 6958 H 673.784 4.41531 2.00687 0
M  V30 6959 H 669.663 3.57993 2.90451 0
M  V30 6960 H 673.207 6.78489 1.62168 0
M  V30 6961 H 669.104 5.94139 2.52327 0
M  V30 6962 H 669.872 7.94332 1.97429 0
M  V30 6963 N 672.536 -0.895792 1.29666 0
M  V30 6964 C 673.446 -2.03329 1.17024 0
M  V30 6965 C 674.462 -1.73753 0.0925962 0
M  V30 6966 O 675.638 -1.99071 0.305431 0
M  V30 6967 C 672.703 -3.36072 0.851841 0
M  V30 6968 C 671.764 -3.7914 2.01373 0
M  V30 6969 C 670.997 -5.05549 1.71043 0
M  V30 6970 O 671.22 -5.66874 0.633213 0
M  V30 6971 O 670.154 -5.44764 2.5596 0
M  V30 6972 H 673.98 -2.16918 2.12556 0
M  V30 6973 H 671.565 -1.02007 1.09156 0
M  V30 6974 H 673.447 -4.15729 0.689006 0
M  V30 6975 H 672.122 -3.23616 -0.0736634 0
M  V30 6976 H 671.029 -3.00233 2.23183 0
M  V30 6977 H 672.362 -3.96186 2.92058 0
M  V30 6978 N 674.014 -1.12206 -1.10668 0
M  V30 6979 C 675.43 -0.857619 -1.346 0
M  V30 6980 C 675.63 0.513542 -1.94846 0
M  V30 6981 O 674.686 1.26273 -2.18658 0
M  V30 6982 C 675.999 -1.97212 -2.26998 0
M  V30 6983 C 677.547 -2.00272 -2.40542 0
M  V30 6984 C 678.022 -3.10948 -3.36267 0
M  V30 6985 N 679.513 -3.10375 -3.43834 0
M  V30 6986 C 680.248 -3.92651 -4.17867 0
M  V30 6987 N 679.744 -4.84911 -4.94807 0
M  V30 6988 N 681.537 -3.80798 -4.1346 0
M  V30 6989 H 673.688 -2.00558 -0.699306 0
M  V30 6990 H 675.951 -0.872612 -0.370477 0
M  V30 6991 H 675.657 -2.96002 -1.89936 0
M  V30 6992 H 675.531 -1.87521 -3.27286 0
M  V30 6993 H 677.918 -1.02103 -2.76874 0
M  V30 6994 H 677.999 -2.14037 -1.40077 0
M  V30 6995 H 677.643 -4.09348 -3.00661 0
M  V30 6996 H 677.573 -2.94421 -4.36605 0
M  V30 6997 H 680.064 -2.43536 -2.88961 0
M  V30 6998 H 680.377 -5.44207 -5.48688 0
M  V30 6999 H 678.722 -4.88926 -4.93939 0
M  V30 7000 H 681.913 -3.08058 -3.52445 0
M  V30 7001 H 682.086 -4.4515 -4.70898 0
M  V30 7002 N 675.492 1.28418 -0.913599 0
M  V30 7003 C 676.439 2.27301 -0.400373 0
M  V30 7004 C 677.409 1.57582 0.52509 0
M  V30 7005 O 678.594 1.85482 0.447318 0
M  V30 7006 C 675.734 3.43284 0.35361 0
M  V30 7007 C 674.847 4.27752 -0.604341 0
M  V30 7008 C 673.982 5.30934 0.168075 0
M  V30 7009 C 673.021 6.07065 -0.783499 0
M  V30 7010 N 672.158 7.02086 -0.0446112 0
M  V30 7011 H 676.998 2.70579 -1.24865 0
M  V30 7012 H 674.535 1.33067 -0.627028 0
M  V30 7013 H 676.493 4.09322 0.806945 0
M  V30 7014 H 675.123 3.00997 1.16623 0
M  V30 7015 H 674.175 3.61759 -1.17621 0
M  V30 7016 H 675.487 4.80682 -1.33216 0
M  V30 7017 H 674.641 6.02855 0.681979 0
M  V30 7018 H 673.38 4.78771 0.928947 0
M  V30 7019 H 672.385 5.33995 -1.30878 0
M  V30 7020 H 673.61 6.61317 -1.54392 0
M  V30 7021 H 671.556 6.52273 0.698272 0
M  V30 7022 H 671.473 7.52637 -0.712258 0
M  V30 7023 H 672.741 7.78205 0.449102 0
M  V30 7024 N 676.97 0.677563 1.42291 0
M  V30 7025 C 678.217 0.200975 2.015 0
M  V30 7026 C 678.545 -1.19342 1.53583 0
M  V30 7027 O 677.8 -1.81579 0.7299 0
M  V30 7028 C 678.099 0.187229 3.56909 0
M  V30 7029 C 677.765 1.52667 4.24268 0
M  V30 7030 C 676.427 1.89341 4.42384 0
M  V30 7031 C 678.779 2.40869 4.62203 0
M  V30 7032 C 676.107 3.13836 4.95705 0
M  V30 7033 C 678.459 3.64679 5.16906 0
M  V30 7034 C 677.123 4.01519 5.33234 0
M  V30 7035 H 676.393 0.0735418 0.737342 0
M  V30 7036 H 679.04 0.873095 1.70439 0
M  V30 7037 H 677.345 -0.568407 3.87655 0
M  V30 7038 H 679.042 -0.198773 4.00507 0
M  V30 7039 H 675.632 1.23138 4.1053 0
M  V30 7040 H 679.816 2.1382 4.47878 0
M  V30 7041 H 675.072 3.42396 5.06532 0
M  V30 7042 H 679.246 4.33224 5.45243 0
M  V30 7043 H 676.873 4.98062 5.74316 0
M  V30 7044 N 678.448 -1.51871 0.421078 0
M  V30 7045 C 679.696 -2.01539 -0.150492 0
M  V30 7046 C 680.017 -1.30803 -1.44623 0
M  V30 7047 O 679.287 -0.437568 -1.90951 0
M  V30 7048 H 677.867 -0.744698 -0.0586041 0
M  V30 7049 H 680.529 -1.8668 0.560059 0
M  V30 7050 H 679.625 -3.10264 -0.338068 0
M  V30 7051 N 679.926 -0.151884 -1.56866 0
M  V30 7052 C 680.873 0.785936 -2.17006 0
M  V30 7053 C 681.843 1.2407 -1.10435 0
M  V30 7054 O 683.028 1.31235 -1.38499 0
M  V30 7055 C 680.168 2.01771 -2.79969 0
M  V30 7056 C 679.281 1.6083 -4.00946 0
M  V30 7057 C 678.416 2.79224 -4.51893 0
M  V30 7058 C 677.455 2.3468 -5.65324 0
M  V30 7059 N 676.592 3.461 -6.10867 0
M  V30 7060 H 681.432 0.266286 -2.96808 0
M  V30 7061 H 678.969 0.11972 -1.46612 0
M  V30 7062 H 680.927 2.73989 -3.14621 0
M  V30 7063 H 679.557 2.51139 -2.02803 0
M  V30 7064 H 678.609 0.783592 -3.72242 0
M  V30 7065 H 679.921 1.24119 -4.83111 0
M  V30 7066 H 679.075 3.59625 -4.88625 0
M  V30 7067 H 677.814 3.19183 -3.68746 0
M  V30 7068 H 676.819 1.52721 -5.28163 0
M  V30 7069 H 678.044 1.95801 -6.5026 0
M  V30 7070 H 675.99 3.85671 -5.30654 0
M  V30 7071 H 675.907 3.1342 -6.87971 0
M  V30 7072 H 677.175 4.26844 -6.52246 0
M  V30 7073 N 681.404 1.57128 0.121893 0
M  V30 7074 C 682.629 1.89254 0.848385 0
M  V30 7075 C 683.054 0.743527 1.72781 0
M  V30 7076 O 682.412 -0.306056 1.78698 0
M  V30 7077 C 682.46 3.20113 1.66012 0
M  V30 7078 O 681.564 3.05815 2.76679 0
M  V30 7079 H 680.905 0.621103 0.234793 0
M  V30 7080 H 683.435 2.0433 0.10516 0
M  V30 7081 H 683.445 3.52761 2.04996 0
M  V30 7082 H 682.12 4.03336 1.01452 0
M  V30 7083 H 680.697 2.84627 2.40918 0
M  V30 7084 N 682.882 -0.391992 1.52647 0
M  V30 7085 C 684.128 -1.139 1.67793 0
M  V30 7086 C 684.461 -1.89711 0.41514 0
M  V30 7087 O 683.736 -1.85431 -0.586979 0
M  V30 7088 C 684.019 -2.11966 2.91105 0
M  V30 7089 C 683.872 -1.39939 4.27478 0
M  V30 7090 C 685.191 -3.1243 3.09961 0
M  V30 7091 H 682.31 -0.412707 0.610608 0
M  V30 7092 H 684.952 -0.422725 1.85238 0
M  V30 7093 H 683.102 -2.73048 2.76364 0
M  V30 7094 H 684.774 -0.818439 4.53982 0
M  V30 7095 H 683.017 -0.701246 4.28095 0
M  V30 7096 H 683.688 -2.1158 5.09841 0
M  V30 7097 H 686.164 -2.61435 3.23714 0
M  V30 7098 H 685.04 -3.78294 3.97725 0
M  V30 7099 H 685.301 -3.81127 2.24042 0
M  V30 7100 N 684.36 -1.4356 -0.65026 0
M  V30 7101 C 685.323 -1.48615 -1.74489 0
M  V30 7102 C 686.323 -0.370483 -1.56474 0
M  V30 7103 O 687.513 -0.632351 -1.62317 0
M  V30 7104 C 684.645 -1.34161 -3.13391 0
M  V30 7105 H 685.838 -2.46103 -1.71387 0
M  V30 7106 H 683.391 -1.30369 -0.862186 0
M  V30 7107 H 684.126 -0.376918 -3.22102 0
M  V30 7108 H 683.911 -2.1504 -3.27872 0
M  V30 7109 H 685.401 -1.40637 -3.93206 0
M  V30 7110 N 685.838 0.888903 -1.30139 0
M  V30 7111 C 687.084 1.6428 -1.18912 0
M  V30 7112 C 687.417 1.92499 0.256477 0
M  V30 7113 O 686.692 1.54312 1.18397 0
M  V30 7114 C 686.975 2.9851 -2.01405 0
M  V30 7115 C 686.828 2.77288 -3.54163 0
M  V30 7116 C 688.147 3.99383 -1.84882 0
M  V30 7117 H 685.266 0.596148 -0.433333 0
M  V30 7118 H 687.908 1.0289 -1.5973 0
M  V30 7119 H 686.058 3.50907 -1.66722 0
M  V30 7120 H 687.73 2.31709 -3.98884 0
M  V30 7121 H 685.973 2.11867 -3.78543 0
M  V30 7122 H 686.644 3.72717 -4.07168 0
M  V30 7123 H 689.12 3.56132 -2.15196 0
M  V30 7124 H 687.996 4.91222 -2.44934 0
M  V30 7125 H 688.257 4.34674 -0.806902 0
M  V30 7126 N 687.317 1.12792 1.10072 0
M  V30 7127 C 688.563 0.886857 1.82381 0
M  V30 7128 C 688.896 -0.58576 1.85155 0
M  V30 7129 O 688.171 -1.43317 1.31493 0
M  V30 7130 C 688.454 1.46703 3.28862 0
M  V30 7131 C 688.307 3.00829 3.34398 0
M  V30 7132 C 689.626 1.12971 4.25353 0
M  V30 7133 H 686.745 0.32362 0.662148 0
M  V30 7134 H 689.387 1.39513 1.28982 0
M  V30 7135 H 687.537 1.03476 3.74466 0
M  V30 7136 H 689.209 3.52764 2.97247 0
M  V30 7137 H 687.452 3.36164 2.74183 0
M  V30 7138 H 688.123 3.36519 4.3756 0
M  V30 7139 H 690.599 1.50313 3.88001 0
M  V30 7140 H 689.475 1.56223 5.26199 0
M  V30 7141 H 689.736 0.0424452 4.4208 0
M  V30 7142 N 688.795 -1.27931 0.920396 0
M  V30 7143 C 689.758 -2.25345 0.41858 0
M  V30 7144 C 690.758 -1.54116 -0.458798 0
M  V30 7145 O 691.948 -1.72235 -0.260912 0
M  V30 7146 C 689.08 -3.38556 -0.399104 0
M  V30 7147 H 690.273 -2.71251 1.27918 0
M  V30 7148 H 687.826 -1.39728 0.700406 0
M  V30 7149 H 688.561 -2.98021 -1.27882 0
M  V30 7150 H 688.346 -3.91426 0.229863 0
M  V30 7151 H 689.836 -4.10976 -0.740817 0
M  V30 7152 N 690.273 -0.685099 -1.4193 0
M  V30 7153 C 691.519 -0.211971 -2.01689 0
M  V30 7154 C 691.852 1.18189 -1.54094 0
M  V30 7155 O 691.127 1.79559 -0.747572 0
M  V30 7156 C 691.41 -0.258019 -3.59174 0
M  V30 7157 C 691.263 -1.68807 -4.16922 0
M  V30 7158 C 692.582 0.388044 -4.38386 0
M  V30 7159 H 689.701 -0.0784987 -0.732808 0
M  V30 7160 H 692.343 -0.871837 -1.68816 0
M  V30 7161 H 690.493 0.303832 -3.8731 0
M  V30 7162 H 692.165 -2.30296 -3.99702 0
M  V30 7163 H 690.408 -2.22553 -3.72361 0
M  V30 7164 H 691.079 -1.6719 -5.26072 0
M  V30 7165 H 693.555 -0.0903432 -4.16002 0
M  V30 7166 H 692.431 0.325232 -5.47936 0
M  V30 7167 H 692.692 1.4672 -4.17044 0
M  V30 7168 N 691.751 1.51645 -0.429126 0
M  V30 7169 C 692.699 2.29119 0.400921 0
M  V30 7170 C 693.693 1.34628 1.02819 0
M  V30 7171 O 694.899 1.52004 0.964098 0
M  V30 7172 H 691.274 0.737273 0.148095 0
M  V30 7173 H 693.245 2.97144 -0.273457 0
M  V30 7174 C 691.994 3.13953 1.49429 0
M  V30 7175 H 691.317 3.86544 1.02097 0
M  V30 7176 H 692.757 3.71232 2.04849 0
M  V30 7177 C 691.216 2.28796 2.47293 0
M  V30 7178 O 691.746 1.94193 3.51642 0
M  V30 7179 N 689.952 1.92177 2.17982 0
M  V30 7180 H 689.499 2.20517 1.33154 0
M  V30 7181 H 689.457 1.35497 2.83704 0
M  V30 7182 N 693.229 0.160201 1.56784 0
M  V30 7183 C 694.645 -0.196089 1.58391 0
M  V30 7184 C 694.845 -1.63689 1.17508 0
M  V30 7185 O 693.901 -2.36613 0.881506 0
M  V30 7186 C 695.214 0.0746449 3.00607 0
M  V30 7187 C 696.762 0.0119762 3.12998 0
M  V30 7188 C 697.237 0.255551 4.57286 0
M  V30 7189 N 698.728 0.202938 4.62755 0
M  V30 7190 C 699.463 0.365731 5.72232 0
M  V30 7191 N 698.959 0.586972 6.90309 0
M  V30 7192 N 700.752 0.302411 5.61286 0
M  V30 7193 H 692.903 1.1008 1.81648 0
M  V30 7194 H 695.166 0.436779 0.841384 0
M  V30 7195 H 694.872 1.07231 3.34954 0
M  V30 7196 H 694.746 -0.638802 3.71751 0
M  V30 7197 H 697.133 -0.976254 2.78484 0
M  V30 7198 H 697.214 0.75796 2.44313 0
M  V30 7199 H 696.858 1.24094 4.92507 0
M  V30 7200 H 696.788 -0.510912 5.24116 0
M  V30 7201 H 699.279 0.0371328 3.77882 0
M  V30 7202 H 699.592 0.700941 7.69615 0
M  V30 7203 H 697.937 0.623453 6.92198 0
M  V30 7204 H 701.128 0.130238 4.67919 0
M  V30 7205 H 701.301 0.432712 6.46554 0
M  V30 7206 N 694.707 -1.5719 -0.113559 0
M  V30 7207 C 695.655 -2.01725 -1.158 0
M  V30 7208 C 696.649 -0.915105 -1.42556 0
M  V30 7209 O 697.855 -1.10031 -1.42454 0
M  V30 7210 H 694.23 -0.64262 -0.390569 0
M  V30 7211 H 696.201 -2.88666 -0.755926 0
M  V30 7212 C 694.95 -2.44203 -2.47507 0
M  V30 7213 H 694.273 -3.28582 -2.27758 0
M  V30 7214 H 695.713 -2.79158 -3.19135 0
M  V30 7215 C 694.172 -1.30785 -3.10478 0
M  V30 7216 O 694.702 -0.626807 -3.9678 0
M  V30 7217 N 692.908 -1.06352 -2.7044 0
M  V30 7218 H 692.455 -1.61913 -2.00355 0
M  V30 7219 H 692.413 -0.306614 -3.12901 0
M  V30 7220 N 696.185 0.383891 -1.52853 0
M  V30 7221 C 697.115 1.47559 -1.80965 0
M  V30 7222 C 698.096 1.5669 -0.661986 0
M  V30 7223 O 699.281 1.71556 -0.910072 0
M  V30 7224 C 696.411 2.85114 -1.98312 0
M  V30 7225 C 695.365 2.9082 -3.14019 0
M  V30 7226 C 694.691 4.30873 -3.16627 0
M  V30 7227 C 695.991 2.60001 -4.52986 0
M  V30 7228 H 697.685 1.24283 -2.72386 0
M  V30 7229 H 695.231 0.596445 -1.31067 0
M  V30 7230 H 697.184 3.61496 -2.16561 0
M  V30 7231 H 695.908 3.09738 -1.03585 0
M  V30 7232 H 694.567 2.16886 -2.9556 0
M  V30 7233 H 694.215 4.52545 -2.19573 0
M  V30 7234 H 693.915 4.3561 -3.94357 0
M  V30 7235 H 695.439 5.09154 -3.37038 0
M  V30 7236 H 696.853 3.261 -4.71521 0
M  V30 7237 H 695.25 2.76081 -5.32822 0
M  V30 7238 H 696.32 1.5532 -4.59351 0
M  V30 7239 N 697.663 1.43903 0.642637 0
M  V30 7240 C 698.888 1.49758 1.43483 0
M  V30 7241 C 699.313 0.119911 1.87717 0
M  V30 7242 O 698.671 -0.888558 1.58033 0
M  V30 7243 C 698.719 2.45744 2.63898 0
M  V30 7244 O 697.823 1.95101 3.63331 0
M  V30 7245 H 697.164 0.506138 0.429791 0
M  V30 7246 H 699.694 1.88923 0.785438 0
M  V30 7247 H 699.704 2.63399 3.11584 0
M  V30 7248 H 698.379 3.45818 2.31046 0
M  V30 7249 H 696.956 1.87158 3.22531 0
M  V30 7250 N 699.141 -0.881989 1.30609 0
M  V30 7251 C 700.369 -1.66711 1.22536 0
M  V30 7252 C 700.784 -1.87614 -0.2113 0
M  V30 7253 O 700.141 -1.42576 -1.13923 0
M  V30 7254 C 700.192 -3.04182 1.95335 0
M  V30 7255 O 699.913 -2.8422 3.33393 0
M  V30 7256 C 701.414 -3.98617 1.93956 0
M  V30 7257 H 698.634 -0.520124 0.423925 0
M  V30 7258 H 701.178 -1.10174 1.72285 0
M  V30 7259 H 699.333 -3.57442 1.49378 0
M  V30 7260 H 699.747 -3.71452 3.70302 0
M  V30 7261 H 701.221 -4.92433 2.49426 0
M  V30 7262 H 701.698 -4.29473 0.919198 0
M  V30 7263 H 702.304 -3.51292 2.39738 0
M  V30 7264 N 700.619 -1.13374 -1.09472 0
M  V30 7265 C 701.844 -0.918711 -1.85942 0
M  V30 7266 C 702.269 0.527225 -1.8056 0
M  V30 7267 O 701.627 1.37408 -1.18274 0
M  V30 7268 C 701.675 -1.41056 -3.31867 0
M  V30 7269 O 700.779 -0.595496 -4.08078 0
M  V30 7270 H 700.12 -0.329297 -0.576593 0
M  V30 7271 H 702.65 -1.50829 -1.38245 0
M  V30 7272 H 702.66 -1.41398 -3.82715 0
M  V30 7273 H 701.335 -2.46335 -3.35099 0
M  V30 7274 H 699.912 -0.659911 -3.67014 0
M  V30 7275 N 702.098 1.27442 -0.927168 0
M  V30 7276 C 703.061 2.2512 -0.430525 0
M  V30 7277 C 704.061 1.54357 0.450619 0
M  V30 7278 O 705.251 1.72371 0.251774 0
M  V30 7279 C 702.383 3.38763 0.381144 0
M  V30 7280 H 703.576 2.70569 -1.29354 0
M  V30 7281 H 701.129 1.39355 -0.707806 0
M  V30 7282 H 701.864 2.98695 1.263 0
M  V30 7283 H 701.649 3.91298 -0.250618 0
M  V30 7284 H 703.139 4.11364 0.719012 0
M  V30 7285 N 703.576 0.692616 1.41565 0
M  V30 7286 C 704.801 0.229776 2.06123 0
M  V30 7287 C 705.226 -1.11119 1.5177 0
M  V30 7288 O 704.584 -1.69498 0.643444 0
M  V30 7289 C 704.632 0.19469 3.60074 0
M  V30 7290 O 703.736 -0.831366 4.03933 0
M  V30 7291 H 703.077 0.113002 0.654314 0
M  V30 7292 H 705.607 0.946645 1.81383 0
M  V30 7293 H 705.617 0.0245487 4.07993 0
M  V30 7294 H 704.292 1.17339 3.99004 0
M  V30 7295 H 702.869 -0.630819 3.67526 0
M  V30 7296 N 705.054 -1.51416 0.437162 0
M  V30 7297 C 706.303 -2.01275 -0.130865 0
M  V30 7298 C 706.616 -1.32593 -1.438 0
M  V30 7299 O 707.822 -1.7342 -2.08897 0
M  V30 7300 C 706.278 -3.5878 -0.283763 0
M  V30 7301 C 705.886 -4.36399 1.01293 0
M  V30 7302 C 707.63 -4.16786 -0.805569 0
M  V30 7303 C 705.537 -5.85608 0.825687 0
M  V30 7304 H 704.467 -0.752157 -0.0526818 0
M  V30 7305 H 707.118 -1.74524 0.566896 0
M  V30 7306 H 705.5 -3.81976 -1.04452 0
M  V30 7307 H 706.674 -4.24948 1.78201 0
M  V30 7308 H 704.989 -3.89843 1.46326 0
M  V30 7309 H 707.586 -5.25972 -0.962146 0
M  V30 7310 H 707.929 -3.75949 -1.78796 0
M  V30 7311 H 708.462 -3.97666 -0.103125 0
M  V30 7312 H 705.201 -6.30857 1.78045 0
M  V30 7313 H 704.721 -5.99723 0.0964029 0
M  V30 7314 H 706.4 -6.45226 0.478815 0
M  V30 7315 N 706.532 -0.168513 -1.56696 0
M  V30 7316 C 707.76 0.483503 -2.01171 0
M  V30 7317 C 708.175 1.56994 -1.04872 0
M  V30 7318 O 707.532 1.82434 -0.0491337 0
M  V30 7319 C 707.583 1.0644 -3.45475 0
M  V30 7320 O 707.304 0.0213375 -4.38095 0
M  V30 7321 C 708.805 1.79493 -4.05336 0
M  V30 7322 H 706.025 0.124002 -0.659443 0
M  V30 7323 H 708.569 -0.269419 -2.02717 0
M  V30 7324 H 706.724 1.76784 -3.44712 0
M  V30 7325 H 707.138 0.449837 -5.22567 0
M  V30 7326 H 708.612 2.15401 -5.08238 0
M  V30 7327 H 709.089 2.68889 -3.47269 0
M  V30 7328 H 709.695 1.13798 -4.09793 0
M  V30 7329 N 708.01 1.57248 0.105221 0
M  V30 7330 C 709.258 1.85204 0.808951 0
M  V30 7331 C 709.579 0.75574 1.7976 0
M  V30 7332 O 708.849 -0.218984 1.94672 0
M  V30 7333 H 707.429 0.683346 0.301739 0
M  V30 7334 H 710.091 1.94695 0.0892605 0
M  V30 7335 H 709.187 2.81595 1.34575 0
M  V30 7336 N 709.488 -0.375779 1.53054 0
M  V30 7337 C 710.418 -1.46598 1.81745 0
M  V30 7338 C 711.399 -1.56337 0.670286 0
M  V30 7339 O 712.584 -1.71071 0.919158 0
M  V30 7340 C 709.714 -2.84058 1.99821 0
M  V30 7341 C 708.668 -2.8915 3.15557 0
M  V30 7342 C 707.994 -4.29187 3.18908 0
M  V30 7343 C 709.294 -2.57595 4.54359 0
M  V30 7344 H 710.988 -1.22837 2.73041 0
M  V30 7345 H 708.534 -0.589485 1.31381 0
M  V30 7346 H 710.487 -3.60342 2.18475 0
M  V30 7347 H 709.211 -3.09184 1.05226 0
M  V30 7348 H 707.87 -2.15316 2.96706 0
M  V30 7349 H 707.518 -4.51374 2.2197 0
M  V30 7350 H 707.218 -4.33512 3.96662 0
M  V30 7351 H 708.742 -5.07359 3.39734 0
M  V30 7352 H 710.156 -3.23595 4.73243 0
M  V30 7353 H 708.553 -2.73252 5.34279 0
M  V30 7354 H 709.623 -1.52882 4.60169 0
M  V30 7355 N 710.966 -1.44241 -0.634997 0
M  V30 7356 C 712.191 -1.50516 -1.42687 0
M  V30 7357 C 712.616 -0.129864 -1.87651 0
M  V30 7358 O 711.974 0.880164 -1.58502 0
M  V30 7359 C 712.022 -2.4714 -2.62591 0
M  V30 7360 O 711.126 -1.97025 -3.62291 0
M  V30 7361 H 710.467 -0.50841 -0.427101 0
M  V30 7362 H 712.997 -1.89337 -0.775408 0
M  V30 7363 H 713.007 -2.65048 -3.10183 0
M  V30 7364 H 711.682 -3.47039 -2.29209 0
M  V30 7365 H 710.259 -1.88866 -3.21534 0
M  V30 7366 N 712.444 0.87505 -1.31075 0
M  V30 7367 C 713.672 1.66058 -1.23419 0
M  V30 7368 C 714.087 1.87723 0.201347 0
M  V30 7369 O 713.444 1.43178 1.13165 0
M  V30 7370 C 713.495 3.03142 -1.96945 0
M  V30 7371 O 713.216 2.82448 -3.34895 0
M  V30 7372 C 714.717 3.97583 -1.96067 0
M  V30 7373 H 711.937 0.517868 -0.426677 0
M  V30 7374 H 714.481 1.09258 -1.72867 0
M  V30 7375 H 712.636 3.56645 -1.51271 0
M  V30 7376 H 713.05 3.69483 -3.72267 0
M  V30 7377 H 714.524 4.91104 -2.52034 0
M  V30 7378 H 715.001 4.2898 -0.941961 0
M  V30 7379 H 715.607 3.50015 -2.41597 0
M  V30 7380 N 713.922 1.13953 1.08869 0
M  V30 7381 C 715.147 0.928559 1.85452 0
M  V30 7382 C 715.572 -0.517642 1.80837 0
M  V30 7383 O 714.93 -1.36779 1.19001 0
M  V30 7384 C 714.978 1.42814 3.31114 0
M  V30 7385 O 714.082 0.617129 4.07756 0
M  V30 7386 H 713.423 0.33235 0.574839 0
M  V30 7387 H 715.953 1.5156 1.37443 0
M  V30 7388 H 715.963 1.43425 3.8196 0
M  V30 7389 H 714.638 2.48109 3.33788 0
M  V30 7390 H 713.215 0.679365 3.66659 0
M  V30 7391 N 715.4 -1.26948 0.933913 0
M  V30 7392 C 716.33 -2.29017 0.45534 0
M  V30 7393 C 717.311 -1.62961 -0.487605 0
M  V30 7394 O 718.496 -1.90223 -0.391022 0
M  V30 7395 C 715.626 -3.46112 -0.287015 0
M  V30 7396 C 714.58 -4.24205 0.568682 0
M  V30 7397 C 713.906 -5.3384 -0.303206 0
M  V30 7398 C 715.206 -4.88954 1.83633 0
M  V30 7399 H 716.9 -2.69298 1.30839 0
M  V30 7400 H 714.446 -1.29459 0.630579 0
M  V30 7401 H 716.399 -4.16622 -0.6328 0
M  V30 7402 H 715.123 -3.04765 -1.17414 0
M  V30 7403 H 713.782 -3.5545 0.897261 0
M  V30 7404 H 713.43 -4.88734 -1.18947 0
M  V30 7405 H 713.13 -5.86998 0.265879 0
M  V30 7406 H 714.654 -6.0719 -0.644423 0
M  V30 7407 H 716.068 -5.51717 1.55823 0
M  V30 7408 H 714.465 -5.52198 2.34941 0
M  V30 7409 H 715.535 -4.12305 2.55211 0
M  V30 7410 N 716.879 -0.700114 -1.41195 0
M  V30 7411 C 718.29 -0.307249 -1.84154 0
M  V30 7412 C 718.641 1.15539 -1.58572 0
M  V30 7413 O 717.766 1.88744 -1.05852 0
M  V30 7414 C 718.361 -0.550872 -3.34292 0
M  V30 7415 C 716.92 -0.211877 -3.75803 0
M  V30 7416 C 716.067 -0.830915 -2.64558 0
M  V30 7417 H 719.018 -0.900431 -1.30683 0
M  V30 7418 H 719.039 0.188954 -3.80031 0
M  V30 7419 H 718.551 -1.61548 -3.5288 0
M  V30 7420 H 716.652 0.848283 -3.62815 0
M  V30 7421 H 716.765 -0.67007 -4.74391 0
M  V30 7422 H 715.129 -0.260155 -2.53368 0
M  V30 7423 H 715.912 -1.89948 -2.85963 0
M  V30 7424 N 718.357 1.51182 -0.445186 0
M  V30 7425 C 719.585 2.06568 0.117091 0
M  V30 7426 C 720 1.31182 1.35781 0
M  V30 7427 O 719.357 0.373605 1.78635 0
M  V30 7428 C 719.408 3.58917 0.431408 0
M  V30 7429 O 719.129 4.31456 -0.760078 0
M  V30 7430 C 720.63 4.30843 1.0435 0
M  V30 7431 H 717.85 0.670985 0.00444436 0
M  V30 7432 H 720.394 1.94666 -0.626525 0
M  V30 7433 H 718.549 3.70708 1.12493 0
M  V30 7434 H 718.963 5.22215 -0.489048 0
M  V30 7435 H 720.437 5.38499 1.21337 0
M  V30 7436 H 720.914 3.89644 2.02667 0
M  V30 7437 H 721.52 4.23516 0.38913 0
M  V30 7438 N 719.835 0.176821 1.56605 0
M  V30 7439 C 721.083 -0.465793 1.96659 0
M  V30 7440 C 721.404 -1.63406 1.06412 0
M  V30 7441 O 720.674 -1.95457 0.131603 0
M  V30 7442 H 719.254 -0.175072 0.726195 0
M  V30 7443 H 721.916 0.25929 1.93168 0
M  V30 7444 H 721.012 -0.822138 3.01077 0
M  V30 7445 N 721.313 -1.57302 -0.09688 0
M  V30 7446 C 722.538 -1.9058 -0.818169 0
M  V30 7447 C 722.963 -0.770921 -1.71576 0
M  V30 7448 O 722.321 0.277588 -1.79162 0
M  V30 7449 C 722.369 -3.22714 -1.60898 0
M  V30 7450 O 721.473 -3.10178 -2.71779 0
M  V30 7451 H 720.814 -0.624759 -0.224882 0
M  V30 7452 H 723.344 -2.04471 -0.07264 0
M  V30 7453 H 723.354 -3.55978 -1.99358 0
M  V30 7454 H 722.029 -4.04899 -0.950227 0
M  V30 7455 H 720.606 -2.88424 -2.3636 0
M  V30 7456 N 722.791 0.367657 -1.53252 0
M  V30 7457 C 724.021 1.12955 -1.72988 0
M  V30 7458 C 724.429 1.8358 -0.457708 0
M  V30 7459 O 723.772 1.74336 0.579006 0
M  V30 7460 C 723.834 2.20545 -2.83902 0
M  V30 7461 C 723.498 1.69704 -4.24323 0
M  V30 7462 C 724.495 1.16223 -5.06743 0
M  V30 7463 C 722.18 1.7528 -4.70725 0
M  V30 7464 C 724.174 0.689935 -6.33655 0
M  V30 7465 C 721.861 1.27662 -5.97617 0
M  V30 7466 C 722.859 0.746083 -6.78913 0
M  V30 7467 O 722.547 0.276925 -8.03423 0
M  V30 7468 H 722.279 0.343753 -0.582074 0
M  V30 7469 H 724.833 0.433106 -2.00782 0
M  V30 7470 H 723.063 2.93676 -2.51577 0
M  V30 7471 H 724.752 2.82111 -2.91836 0
M  V30 7472 H 725.518 1.11256 -4.72067 0
M  V30 7473 H 721.397 2.15515 -4.07522 0
M  V30 7474 H 724.941 0.275164 -6.97057 0
M  V30 7475 H 720.838 1.32322 -6.31792 0
M  V30 7476 H 721.606 0.396445 -8.17539 0
M  V30 7477 N 724.269 1.44576 0.627338 0
M  V30 7478 C 725.497 1.51048 1.41394 0
M  V30 7479 C 725.912 0.136568 1.88305 0
M  V30 7480 O 725.269 -0.858251 1.6106 0
M  V30 7481 C 725.32 2.47837 2.63172 0
M  V30 7482 O 725.041 3.79887 2.18215 0
M  V30 7483 C 726.542 2.63811 3.56257 0
M  V30 7484 H 723.762 0.512171 0.4335 0
M  V30 7485 H 726.306 1.89576 0.766878 0
M  V30 7486 H 724.461 2.12433 3.23961 0
M  V30 7487 H 724.875 4.32177 2.97192 0
M  V30 7488 H 726.349 3.35554 4.38301 0
M  V30 7489 H 726.826 1.69169 4.05313 0
M  V30 7490 H 727.432 3.0013 3.01333 0
M  V30 7491 N 725.747 -0.868086 1.31537 0
M  V30 7492 C 727.024 -1.60384 1.11965 0
M  V30 7493 C 727.404 -2.08584 -0.324949 0
M  V30 7494 O 726.752 -1.86561 -1.31937 0
M  V30 7495 C 726.962 -2.76038 2.13551 0
M  V30 7496 C 728.31 -3.45954 2.46173 0
M  V30 7497 O 729.334 -2.86247 2.11993 0
M  V30 7498 O 728.193 -4.53666 3.04711 0
M  V30 7499 H 725.287 -0.705705 0.431172 0
M  V30 7500 H 727.833 -0.913385 1.43022 0
M  V30 7501 H 726.605 -2.37849 3.10714 0
M  V30 7502 H 726.228 -3.52769 1.83411 0
M  V30 7503 N 727.225 -1.14528 -1.08264 0
M  V30 7504 C 728.471 -0.91576 -1.80947 0
M  V30 7505 C 728.804 0.55623 -1.86064 0
M  V30 7506 O 728.079 1.41207 -1.33756 0
M  V30 7507 C 728.362 -1.51917 -3.26486 0
M  V30 7508 C 728.215 -3.06111 -3.2957 0
M  V30 7509 C 729.534 -1.19724 -4.23502 0
M  V30 7510 H 726.653 -0.334113 -0.656915 0
M  V30 7511 H 729.295 -1.41547 -1.26746 0
M  V30 7512 H 727.445 -1.0942 -3.72773 0
M  V30 7513 H 729.117 -3.57448 -2.91597 0
M  V30 7514 H 727.36 -3.40483 -2.688 0
M  V30 7515 H 728.031 -3.43438 -4.32151 0
M  V30 7516 H 730.507 -1.56467 -3.85561 0
M  V30 7517 H 729.383 -1.64575 -5.23647 0
M  V30 7518 H 729.644 -0.112771 -4.41956 0
M  V30 7519 N 728.703 1.26451 -0.940633 0
M  V30 7520 C 729.633 2.28773 -0.467479 0
M  V30 7521 C 730.614 1.63218 0.478955 0
M  V30 7522 O 731.799 1.90427 0.380929 0
M  V30 7523 C 728.929 3.46259 0.268656 0
M  V30 7524 C 727.883 4.23898 -0.591171 0
M  V30 7525 C 727.209 5.33993 0.274891 0
M  V30 7526 C 728.509 4.87974 -1.86223 0
M  V30 7527 H 730.203 2.68601 -1.32265 0
M  V30 7528 H 727.749 1.29123 -0.637436 0
M  V30 7529 H 729.702 4.16951 0.610696 0
M  V30 7530 H 728.426 3.05383 1.15796 0
M  V30 7531 H 727.085 3.54969 -0.916098 0
M  V30 7532 H 726.733 4.89358 1.16353 0
M  V30 7533 H 726.433 5.86849 -0.297006 0
M  V30 7534 H 727.957 6.07523 0.612213 0
M  V30 7535 H 729.371 5.50883 -1.58747 0
M  V30 7536 H 727.768 5.50945 -2.37866 0
M  V30 7537 H 728.838 4.10945 -2.57394 0
M  V30 7538 N 730.181 0.707592 1.40822 0
M  V30 7539 C 731.429 0.243189 2.00632 0
M  V30 7540 C 731.75 -1.16512 1.56365 0
M  V30 7541 O 731.02 -1.78841 0.799553 0
M  V30 7542 H 729.6 0.0869203 0.741926 0
M  V30 7543 H 732.262 0.911438 1.72275 0
M  V30 7544 H 731.358 0.270014 3.1093 0
M  V30 7545 N 731.66 -1.50943 0.453197 0
M  V30 7546 C 732.908 -2.01813 -0.107709 0
M  V30 7547 C 733.229 -1.33841 -1.41816 0
M  V30 7548 O 732.499 -0.477973 -1.8998 0
M  V30 7549 H 731.079 -0.745773 -0.0427948 0
M  V30 7550 H 733.741 -1.8545 0.599531 0
M  V30 7551 H 732.837 -3.10911 -0.27218 0
M  V30 7552 N 733.138 -0.185124 -1.56509 0
M  V30 7553 C 734.384 0.456934 -1.97585 0
M  V30 7554 C 734.717 1.61957 -1.07161 0
M  V30 7555 O 733.992 1.9412 -0.121546 0
M  V30 7556 C 734.275 0.926666 -3.47973 0
M  V30 7557 C 734.128 -0.237097 -4.49175 0
M  V30 7558 C 735.447 1.79561 -4.01803 0
M  V30 7559 H 732.566 0.164619 -0.71838 0
M  V30 7560 H 735.208 -0.274039 -1.88013 0
M  V30 7561 H 733.358 1.54954 -3.56261 0
M  V30 7562 H 735.03 -0.87454 -4.52934 0
M  V30 7563 H 733.273 -0.890446 -4.24563 0
M  V30 7564 H 733.944 0.133924 -5.51838 0
M  V30 7565 H 736.42 1.27039 -3.96232 0
M  V30 7566 H 735.296 2.09327 -5.07418 0
M  V30 7567 H 735.557 2.74629 -3.46455 0
M  V30 7568 N 734.616 1.57351 0.0885366 0
M  V30 7569 C 735.546 2.05561 1.10757 0
M  V30 7570 C 736.527 0.945789 1.41382 0
M  V30 7571 O 737.712 1.21747 1.51299 0
M  V30 7572 C 734.842 2.48554 2.42566 0
M  V30 7573 C 733.796 3.63259 2.26334 0
M  V30 7574 C 733.122 3.9225 3.63378 0
M  V30 7575 C 734.422 4.93913 1.69844 0
M  V30 7576 H 736.116 2.90946 0.706468 0
M  V30 7577 H 733.662 1.39968 0.338385 0
M  V30 7578 H 735.615 2.8089 3.14132 0
M  V30 7579 H 734.339 1.60176 2.84625 0
M  V30 7580 H 732.998 3.31179 1.57213 0
M  V30 7581 H 732.646 3.0103 4.02976 0
M  V30 7582 H 732.346 4.69478 3.53362 0
M  V30 7583 H 733.87 4.27067 4.36401 0
M  V30 7584 H 735.284 5.24588 2.31258 0
M  V30 7585 H 733.681 5.75349 1.70569 0
M  V30 7586 H 734.751 4.80409 0.65843 0
M  V30 7587 N 736.094 -0.359525 1.53444 0
M  V30 7588 C 737.042 -1.46104 1.80987 0
M  V30 7589 C 738.036 -1.55181 0.679351 0
M  V30 7590 O 739.242 -1.57995 0.862405 0
M  V30 7591 H 735.617 -0.486835 0.573145 0
M  V30 7592 H 737.588 -1.2008 2.73173 0
M  V30 7593 C 736.337 -2.82855 2.02208 0
M  V30 7594 H 735.66 -2.76631 2.88644 0
M  V30 7595 H 737.1 -3.59091 2.25455 0
M  V30 7596 C 735.559 -3.27192 0.802931 0
M  V30 7597 O 736.089 -4.017 -0.00544286 0
M  V30 7598 N 734.295 -2.83807 0.624657 0
M  V30 7599 H 733.842 -2.23339 1.28364 0
M  V30 7600 H 733.8 -3.13828 -0.189641 0
M  V30 7601 N 737.572 -1.44907 -0.619662 0
M  V30 7602 C 738.82 -1.47999 -1.37625 0
M  V30 7603 C 739.141 -0.118295 -1.94641 0
M  V30 7604 O 738.411 0.85086 -1.76457 0
M  V30 7605 H 736.991 -0.544993 -0.510873 0
M  V30 7606 H 739.653 -1.80772 -0.728522 0
M  V30 7607 H 738.749 -2.21196 -2.20179 0
M  V30 7608 N 739.05 0.861098 -1.31996 0
M  V30 7609 C 739.998 1.99052 -1.20337 0
M  V30 7610 C 740.992 1.69045 -0.109623 0
M  V30 7611 O 742.198 1.77931 -0.272117 0
M  V30 7612 H 738.573 0.653064 -0.372843 0
M  V30 7613 H 740.544 2.06015 -2.15872 0
M  V30 7614 C 739.293 3.34846 -0.936663 0
M  V30 7615 H 738.616 3.58462 -1.77045 0
M  V30 7616 H 740.056 4.1444 -0.895302 0
M  V30 7617 C 738.515 3.34965 0.360607 0
M  V30 7618 O 739.045 3.7745 1.37456 0
M  V30 7619 N 737.251 2.88101 0.380296 0
M  V30 7620 H 736.798 2.53721 -0.445351 0
M  V30 7621 H 736.756 2.88563 1.24816 0
M  V30 7622 N 740.528 1.15101 1.07655 0
M  V30 7623 C 741.476 0.840714 2.16875 0
M  V30 7624 C 742.47 -0.184594 1.68391 0
M  V30 7625 O 743.676 -0.0399315 1.79956 0
M  V30 7626 H 740.051 0.254192 0.707736 0
M  V30 7627 H 742.022 1.76959 2.40266 0
M  V30 7628 C 740.771 0.343018 3.46004 0
M  V30 7629 H 740.094 1.12335 3.83694 0
M  V30 7630 H 741.534 0.16453 4.23681 0
M  V30 7631 C 739.993 -0.934881 3.23669 0
M  V30 7632 O 740.523 -2.00706 3.47965 0
M  V30 7633 N 738.729 -0.873167 2.77172 0
M  V30 7634 H 738.276 -0.000479072 2.576 0
M  V30 7635 H 738.234 -1.72873 2.62607 0
M  V30 7636 N 742.006 -1.2595 0.947325 0
M  V30 7637 C 743.255 -1.92759 0.593887 0
M  V30 7638 C 743.568 -1.75083 -0.872093 0
M  V30 7639 O 744.774 -2.36401 -1.33518 0
M  V30 7640 C 743.23 -3.45395 1.01144 0
M  V30 7641 C 742.838 -3.71795 2.49946 0
M  V30 7642 C 744.582 -4.18173 0.730185 0
M  V30 7643 C 742.489 -5.17901 2.85539 0
M  V30 7644 H 741.419 -0.721676 0.218403 0
M  V30 7645 H 744.07 -1.4293 1.15079 0
M  V30 7646 H 742.452 -3.94143 0.383007 0
M  V30 7647 H 743.626 -3.33728 3.17746 0
M  V30 7648 H 741.941 -3.12263 2.75465 0
M  V30 7649 H 744.538 -5.25784 0.972367 0
M  V30 7650 H 744.881 -4.14964 -0.333223 0
M  V30 7651 H 745.414 -3.75309 1.31862 0
M  V30 7652 H 742.153 -5.26216 3.90867 0
M  V30 7653 H 741.673 -5.57042 2.22406 0
M  V30 7654 H 743.352 -5.8596 2.74336 0
M  V30 7655 N 743.484 -0.715051 -1.40445 0
M  V30 7656 C 744.712 -0.263959 -2.05209 0
M  V30 7657 C 745.127 1.09403 -1.53871 0
M  V30 7658 O 744.484 1.68746 -0.695064 0
M  V30 7659 C 744.535 -0.234545 -3.60738 0
M  V30 7660 O 744.256 -1.53891 -4.10182 0
M  V30 7661 C 745.757 0.235164 -4.42676 0
M  V30 7662 H 742.977 -0.11876 -0.660407 0
M  V30 7663 H 745.521 -0.973107 -1.79864 0
M  V30 7664 H 743.676 0.425563 -3.85055 0
M  V30 7665 H 744.09 -1.43903 -5.04373 0
M  V30 7666 H 745.564 0.204598 -5.51621 0
M  V30 7667 H 746.041 1.27724 -4.20218 0
M  V30 7668 H 746.647 -0.394649 -4.23465 0
M  V30 7669 N 744.962 1.50701 -0.461195 0
M  V30 7670 C 746.187 2.07171 0.0974773 0
M  V30 7671 C 746.612 1.32391 1.3362 0
M  V30 7672 O 745.97 0.368676 1.77512 0
M  V30 7673 C 746.018 3.58651 0.374409 0
M  V30 7674 O 745.122 3.85816 1.4567 0
M  V30 7675 H 744.463 0.663944 -0.00862047 0
M  V30 7676 H 746.993 1.94021 -0.649394 0
M  V30 7677 H 747.003 4.03295 0.617843 0
M  V30 7678 H 745.678 4.12498 -0.530829 0
M  V30 7679 H 744.255 3.53018 1.20136 0
M  V30 7680 N 746.441 0.193421 1.56409 0
M  V30 7681 C 747.669 -0.451438 2.01915 0
M  V30 7682 C 748.084 -1.55306 1.07357 0
M  V30 7683 O 747.441 -1.82333 0.0781512 0
M  V30 7684 C 747.492 -1.00931 3.47124 0
M  V30 7685 O 747.213 0.0483623 4.38073 0
M  V30 7686 C 748.714 -1.73021 4.0814 0
M  V30 7687 H 745.934 -0.113495 0.661332 0
M  V30 7688 H 748.478 0.301636 2.02263 0
M  V30 7689 H 746.633 -1.71277 3.47481 0
M  V30 7690 H 747.047 -0.366644 5.23217 0
M  V30 7691 H 748.521 -2.07289 5.11601 0
M  V30 7692 H 748.998 -2.6333 3.51502 0
M  V30 7693 H 749.604 -1.07264 4.11551 0
M  V30 7694 N 747.919 -1.57396 -0.0801906 0
M  V30 7695 C 748.867 -2.04136 -1.11495 0
M  V30 7696 C 749.861 -0.945137 -1.40583 0
M  V30 7697 O 751.067 -1.13028 -1.40088 0
M  V30 7698 H 747.442 -0.65076 -0.37685 0
M  V30 7699 H 749.413 -2.90205 -0.694526 0
M  V30 7700 C 748.162 -2.49399 -2.42272 0
M  V30 7701 H 747.485 -3.33339 -2.20737 0
M  V30 7702 H 748.925 -2.85864 -3.13142 0
M  V30 7703 C 747.384 -1.37341 -3.07635 0
M  V30 7704 O 747.914 -0.710829 -3.95361 0
M  V30 7705 N 746.12 -1.12064 -2.68123 0
M  V30 7706 H 745.667 -1.66126 -1.96875 0
M  V30 7707 H 745.625 -0.372916 -3.12181 0
M  V30 7708 N 749.397 0.351382 -1.53633 0
M  V30 7709 C 750.645 1.09034 -1.70165 0
M  V30 7710 C 750.966 1.89413 -0.463422 0
M  V30 7711 O 750.236 1.888 0.522624 0
M  V30 7712 H 748.816 0.405522 -0.627344 0
M  V30 7713 H 751.478 0.394554 -1.90865 0
M  V30 7714 H 750.574 1.77215 -2.56907 0
M  V30 7715 N 750.875 1.45233 0.611969 0
M  V30 7716 C 752.1 1.52767 1.40274 0
M  V30 7717 C 752.525 0.159701 1.87421 0
M  V30 7718 O 751.883 -0.854837 1.59882 0
M  V30 7719 C 751.931 2.51286 2.58626 0
M  V30 7720 O 751.035 2.02764 3.59111 0
M  V30 7721 H 750.376 0.515141 0.418958 0
M  V30 7722 H 752.906 1.90547 0.745188 0
M  V30 7723 H 752.916 2.69949 3.05927 0
M  V30 7724 H 751.591 3.50641 2.23659 0
M  V30 7725 H 750.168 1.93957 3.18489 0
M  V30 7726 N 752.353 -0.854086 1.3245 0
M  V30 7727 C 753.602 -1.60318 1.22397 0
M  V30 7728 C 753.915 -1.9444 -0.212664 0
M  V30 7729 O 755.121 -2.67991 -0.435066 0
M  V30 7730 C 753.577 -2.8909 2.1437 0
M  V30 7731 C 753.185 -2.62391 3.63119 0
M  V30 7732 C 754.929 -3.67104 2.13155 0
M  V30 7733 C 752.836 -3.87167 4.47052 0
M  V30 7734 H 751.766 -0.601586 0.454544 0
M  V30 7735 H 754.417 -0.943023 1.57415 0
M  V30 7736 H 752.799 -3.56567 1.72268 0
M  V30 7737 H 753.973 -2.03222 4.13567 0
M  V30 7738 H 752.288 -1.97706 3.66471 0
M  V30 7739 H 754.885 -4.59696 2.731 0
M  V30 7740 H 755.228 -4.00876 1.12268 0
M  V30 7741 H 755.761 -3.06533 2.5354 0
M  V30 7742 H 752.5 -3.58536 5.48755 0
M  V30 7743 H 752.02 -4.45729 4.01355 0
M  V30 7744 H 753.699 -4.549 4.60081 0
M  V30 7745 N 753.831 -1.1567 -1.07043 0
M  V30 7746 C 754.779 -0.852204 -2.16426 0
M  V30 7747 C 755.773 0.175661 -1.68487 0
M  V30 7748 O 756.979 0.0303874 -1.79974 0
M  V30 7749 H 753.354 -0.257942 -0.706378 0
M  V30 7750 H 755.325 -1.78231 -2.39324 0
M  V30 7751 C 754.074 -0.361362 -3.45817 0
M  V30 7752 H 753.397 -1.14369 -3.83092 0
M  V30 7753 H 754.837 -0.186997 -4.23587 0
M  V30 7754 C 753.296 0.917703 -3.2416 0
M  V30 7755 O 753.826 1.98858 -3.49025 0
M  V30 7756 N 752.032 0.858456 -2.77631 0
M  V30 7757 H 751.579 -0.0131821 -2.57597 0
M  V30 7758 H 751.537 1.71478 -2.6352 0
M  V30 7759 N 755.309 1.25446 -0.953992 0
M  V30 7760 C 756.257 2.27909 -0.46478 0
M  V30 7761 C 757.251 1.62904 0.464607 0
M  V30 7762 O 758.457 1.76733 0.341407 0
M  V30 7763 H 754.832 0.74036 -0.131798 0
M  V30 7764 H 756.803 2.66559 -1.34122 0
M  V30 7765 C 755.552 3.46853 0.242589 0
M  V30 7766 H 754.875 3.97105 -0.463418 0
M  V30 7767 H 756.315 4.20432 0.548919 0
M  V30 7768 C 754.774 3.03386 1.46487 0
M  V30 7769 O 755.304 3.09342 2.56262 0
M  V30 7770 N 753.51 2.58584 1.32599 0
M  V30 7771 H 753.057 2.53938 0.432834 0
M  V30 7772 H 753.015 2.29866 2.14497 0
M  V30 7773 N 756.787 0.722489 1.40064 0
M  V30 7774 C 758.034 0.264979 2.00759 0
M  V30 7775 C 758.362 -1.14395 1.57302 0
M  V30 7776 O 757.617 -1.79165 0.787298 0
M  V30 7777 C 757.916 0.300682 3.56133 0
M  V30 7778 C 757.582 1.66087 4.19197 0
M  V30 7779 C 756.244 2.03319 4.36136 0
M  V30 7780 C 758.596 2.55452 4.54306 0
M  V30 7781 C 755.924 3.29448 4.8547 0
M  V30 7782 C 758.276 3.8094 5.05042 0
M  V30 7783 C 756.94 4.1828 5.2019 0
M  V30 7784 H 756.21 0.0969625 0.734629 0
M  V30 7785 H 758.857 0.926877 1.67575 0
M  V30 7786 H 757.162 -0.44479 3.89267 0
M  V30 7787 H 758.859 -0.0712542 4.00937 0
M  V30 7788 H 755.449 1.36137 4.06405 0
M  V30 7789 H 759.633 2.27961 4.40849 0
M  V30 7790 H 754.889 3.58338 4.95382 0
M  V30 7791 H 759.063 4.50351 5.31184 0
M  V30 7792 H 756.69 5.16081 5.58179 0
M  V30 7793 N 758.265 -1.50454 0.469181 0
M  V30 7794 C 759.493 -2.06729 -0.0842134 0
M  V30 7795 C 759.908 -1.33326 -1.33677 0
M  V30 7796 O 759.265 -0.401977 -1.78018 0
M  V30 7797 C 759.316 -3.59557 -0.374253 0
M  V30 7798 O 759.037 -4.30192 0.828622 0
M  V30 7799 C 760.538 -4.32449 -0.974824 0
M  V30 7800 H 757.758 -0.670971 0.006231 0
M  V30 7801 H 760.302 -1.93645 0.657415 0
M  V30 7802 H 758.457 -3.7245 -1.06581 0
M  V30 7803 H 758.871 -5.21371 0.572066 0
M  V30 7804 H 760.345 -5.40361 -1.12755 0
M  V30 7805 H 760.822 -3.92819 -1.96442 0
M  V30 7806 H 761.428 -4.24082 -0.321703 0
M  V30 7807 N 759.743 -0.201713 -1.56304 0
M  V30 7808 C 760.673 0.71155 -2.22394 0
M  V30 7809 C 761.654 1.21625 -1.18917 0
M  V30 7810 O 762.839 1.26388 -1.47444 0
M  V30 7811 C 759.969 1.92837 -2.88845 0
M  V30 7812 C 758.923 1.55831 -3.98623 0
M  V30 7813 C 758.249 2.85228 -4.52271 0
M  V30 7814 C 759.549 0.763249 -5.16693 0
M  V30 7815 H 761.243 0.160573 -2.98969 0
M  V30 7816 H 758.789 0.0757916 -1.438 0
M  V30 7817 H 760.742 2.57253 -3.33764 0
M  V30 7818 H 759.466 2.50398 -2.09686 0
M  V30 7819 H 758.125 0.9377 -3.54405 0
M  V30 7820 H 757.773 3.40893 -3.69866 0
M  V30 7821 H 757.473 2.6121 -5.26349 0
M  V30 7822 H 758.997 3.50622 -4.99897 0
M  V30 7823 H 760.411 1.31066 -5.58117 0
M  V30 7824 H 758.808 0.620935 -5.96879 0
M  V30 7825 H 759.878 -0.234322 -4.84334 0
M  V30 7826 N 761.222 1.57436 0.0718424 0
M  V30 7827 C 762.185 2.02703 1.06977 0
M  V30 7828 C 763.185 0.924062 1.31597 0
M  V30 7829 O 764.375 1.18894 1.27318 0
M  V30 7830 C 761.507 2.40763 2.41342 0
M  V30 7831 H 762.7 2.92098 0.679619 0
M  V30 7832 H 760.253 1.5304 0.317565 0
M  V30 7833 H 760.988 1.54394 2.8519 0
M  V30 7834 H 760.773 3.21249 2.24814 0
M  V30 7835 H 762.263 2.76361 3.13073 0
M  V30 7836 N 762.7 -0.34323 1.53817 0
M  V30 7837 C 763.663 -1.40444 1.8113 0
M  V30 7838 C 764.663 -1.45604 0.682366 0
M  V30 7839 O 765.853 -1.45974 0.950649 0
M  V30 7840 C 762.985 -2.79369 1.95361 0
M  V30 7841 H 764.178 -1.17489 2.75928 0
M  V30 7842 H 761.731 -0.577636 1.45234 0
M  V30 7843 H 762.466 -3.07607 1.02707 0
M  V30 7844 H 762.251 -2.7702 2.77493 0
M  V30 7845 H 763.741 -3.56178 2.18008 0
M  V30 7846 N 764.178 -1.45556 -0.604258 0
M  V30 7847 C 765.426 -1.4945 -1.36048 0
M  V30 7848 C 765.747 -0.138933 -1.94504 0
M  V30 7849 O 765.017 0.832097 -1.7735 0
M  V30 7850 H 763.597 -0.550381 -0.505064 0
M  V30 7851 H 766.259 -1.81535 -0.709308 0
M  V30 7852 H 765.355 -2.23519 -2.17821 0
M  V30 7853 N 765.656 0.84705 -1.32902 0
M  V30 7854 C 766.619 1.9378 -1.224 0
M  V30 7855 C 767.619 1.60144 -0.145108 0
M  V30 7856 O 768.809 1.69638 -0.396058 0
M  V30 7857 C 765.941 3.29234 -0.884174 0
M  V30 7858 H 767.134 2.04518 -2.19345 0
M  V30 7859 H 764.687 1.03816 -1.16842 0
M  V30 7860 H 765.422 3.24193 0.0831277 0
M  V30 7861 H 765.207 3.55026 -1.6643 0
M  V30 7862 H 766.697 4.09162 -0.835226 0
M  V30 7863 N 767.134 1.16236 1.06428 0
M  V30 7864 C 768.362 0.967184 1.82902 0
M  V30 7865 C 768.777 -0.484601 1.82475 0
M  V30 7866 O 768.134 -1.33631 1.24294 0
M  V30 7867 C 768.185 1.48534 3.29576 0
M  V30 7868 O 767.906 2.88026 3.3011 0
M  V30 7869 C 769.407 1.33298 4.22784 0
M  V30 7870 H 766.627 0.342923 0.576754 0
M  V30 7871 H 769.171 1.54232 1.34286 0
M  V30 7872 H 767.326 0.952513 3.75508 0
M  V30 7873 H 767.74 3.11721 4.21818 0
M  V30 7874 H 769.214 1.74385 5.23731 0
M  V30 7875 H 769.691 0.278356 4.38317 0
M  V30 7876 H 770.297 1.85535 3.82697 0
M  V30 7877 N 768.612 -1.24939 0.960631 0
M  V30 7878 C 769.575 -2.239 0.49006 0
M  V30 7879 C 770.575 -1.55497 -0.409535 0
M  V30 7880 O 771.765 -1.72978 -0.205984 0
M  V30 7881 C 768.897 -3.39654 -0.291193 0
M  V30 7882 H 770.09 -2.67044 1.36482 0
M  V30 7883 H 767.643 -1.37429 0.744505 0
M  V30 7884 H 768.378 -3.01939 -1.18336 0
M  V30 7885 H 768.163 -3.90496 0.354276 0
M  V30 7886 H 769.653 -4.13125 -0.609693 0
M  V30 7887 N 770.09 -0.729906 -1.39679 0
M  V30 7888 C 771.336 -0.27603 -2.00913 0
M  V30 7889 C 771.669 1.13227 -1.57776 0
M  V30 7890 O 770.944 1.7709 -0.804319 0
M  V30 7891 C 771.227 -0.372157 -3.58172 0
M  V30 7892 C 771.08 -1.81986 -4.11341 0
M  V30 7893 C 772.399 0.248378 -4.39399 0
M  V30 7894 H 769.518 -0.101773 -0.729939 0
M  V30 7895 H 772.16 -0.925104 -1.65957 0
M  V30 7896 H 770.31 0.180459 -3.88081 0
M  V30 7897 H 771.982 -2.42896 -3.92172 0
M  V30 7898 H 770.225 -2.34287 -3.65092 0
M  V30 7899 H 770.896 -1.83842 -5.20486 0
M  V30 7900 H 773.372 -0.222645 -4.15504 0
M  V30 7901 H 772.248 0.150746 -5.48693 0
M  V30 7902 H 772.509 1.33378 -4.21501 0
M  V30 7903 N 771.568 1.50203 -0.477153 0
M  V30 7904 C 772.814 2.03286 0.0679442 0
M  V30 7905 C 773.169 1.35227 1.36863 0
M  V30 7906 O 772.462 0.471029 1.8572 0
M  V30 7907 C 772.656 3.56127 0.301325 0
M  V30 7908 C 772.485 4.38999 -0.975188 0
M  V30 7909 C 771.255 4.81889 -1.52022 0
M  V30 7910 C 773.453 4.79013 -1.8722 0
M  V30 7911 N 771.435 5.49105 -2.74513 0
M  V30 7912 C 772.806 5.45701 -2.94296 0
M  V30 7913 C 774.861 4.60967 -1.88185 0
M  V30 7914 C 773.564 5.96255 -4.02333 0
M  V30 7915 C 775.59 5.12466 -2.95183 0
M  V30 7916 C 774.952 5.79134 -4.00977 0
M  V30 7917 H 771.051 0.78185 -0.015318 0
M  V30 7918 H 773.635 1.83646 -0.64671 0
M  V30 7919 H 771.806 3.75702 0.985021 0
M  V30 7920 H 773.538 3.95859 0.841304 0
M  V30 7921 H 770.293 4.61387 -1.06858 0
M  V30 7922 H 770.717 5.87315 -3.36734 0
M  V30 7923 H 775.359 4.0885 -1.07708 0
M  V30 7924 H 773.077 6.47406 -4.83623 0
M  V30 7925 H 776.663 5.00329 -2.96921 0
M  V30 7926 H 775.543 6.18265 -4.82409 0
M  V30 7927 N 773.046 0.209999 1.56195 0
M  V30 7928 C 773.978 -0.736967 2.17029 0
M  V30 7929 C 774.991 -1.16599 1.13616 0
M  V30 7930 O 776.18 -1.09914 1.40646 0
M  V30 7931 C 773.28 -2.00852 2.72969 0
M  V30 7932 C 772.453 -1.73691 4.01435 0
M  V30 7933 C 771.512 -2.85439 4.42053 0
M  V30 7934 O 770.538 -2.54405 5.09183 0
M  V30 7935 N 771.74 -4.14135 4.06783 0
M  V30 7936 H 774.505 -0.216656 2.98916 0
M  V30 7937 H 772.066 0.0285672 1.61875 0
M  V30 7938 H 774.058 -2.74778 2.97118 0
M  V30 7939 H 772.628 -2.43963 1.95451 0
M  V30 7940 H 771.848 -0.834676 3.85262 0
M  V30 7941 H 773.136 -1.52961 4.85263 0
M  V30 7942 H 772.534 -4.42196 3.52816 0
M  V30 7943 H 771.091 -4.84642 4.35851 0
M  V30 7944 N 774.524 -1.57472 -0.0634922 0
M  V30 7945 C 775.754 -1.91608 -0.772645 0
M  V30 7946 C 776.162 -0.805019 -1.71219 0
M  V30 7947 O 775.505 0.229941 -1.82255 0
M  V30 7948 C 775.567 -3.21281 -1.61304 0
M  V30 7949 C 775.231 -4.49177 -0.841973 0
M  V30 7950 C 776.228 -5.19661 -0.157494 0
M  V30 7951 C 773.913 -4.9578 -0.80669 0
M  V30 7952 C 775.907 -6.35006 0.551948 0
M  V30 7953 C 773.594 -6.11028 -0.0934812 0
M  V30 7954 C 774.592 -6.80493 0.58463 0
M  V30 7955 O 774.28 -7.93542 1.28633 0
M  V30 7956 H 774.012 -0.637685 -0.224352 0
M  V30 7957 H 776.566 -2.05369 -0.0355279 0
M  V30 7958 H 774.796 -3.03752 -2.39315 0
M  V30 7959 H 776.485 -3.41003 -2.20162 0
M  V30 7960 H 777.251 -4.84681 -0.176006 0
M  V30 7961 H 773.13 -4.41579 -1.32397 0
M  V30 7962 H 776.674 -6.89161 1.0818 0
M  V30 7963 H 772.571 -6.45459 -0.0729258 0
M  V30 7964 H 773.339 -8.09708 1.19646 0
M  V30 7965 N 776.003 0.335068 -1.53997 0
M  V30 7966 C 777.231 1.09418 -1.756 0
M  V30 7967 C 777.646 1.82083 -0.499138 0
M  V30 7968 O 777.003 1.74646 0.529631 0
M  V30 7969 C 777.054 2.10115 -2.94166 0
M  V30 7970 O 776.775 1.40404 -4.14992 0
M  V30 7971 C 778.276 2.98336 -3.27888 0
M  V30 7972 H 775.496 0.32595 -0.586513 0
M  V30 7973 H 778.04 0.384693 -2.00849 0
M  V30 7974 H 776.195 2.76616 -2.71224 0
M  V30 7975 H 776.609 2.07743 -4.81605 0
M  V30 7976 H 778.083 3.6491 -4.1418 0
M  V30 7977 H 778.56 3.64814 -2.44556 0
M  V30 7978 H 779.166 2.37412 -3.52868 0
M  V30 7979 N 777.481 1.45874 0.596531 0
M  V30 7980 C 778.709 1.54013 1.38158 0
M  V30 7981 C 779.124 0.17648 1.87973 0
M  V30 7982 O 778.481 -0.823895 1.62844 0
M  V30 7983 C 778.532 2.53363 2.57855 0
M  V30 7984 O 778.253 3.8443 2.10108 0
M  V30 7985 C 779.754 2.71308 3.50581 0
M  V30 7986 H 776.974 0.521251 0.422538 0
M  V30 7987 H 779.518 1.9116 0.726493 0
M  V30 7988 H 777.673 2.19257 3.19382 0
M  V30 7989 H 778.087 4.38384 2.87958 0
M  V30 7990 H 779.561 3.44776 4.31084 0
M  V30 7991 H 780.038 1.77728 4.01633 0
M  V30 7992 H 780.644 3.06455 2.94899 0
M  V30 7993 N 778.959 -0.83999 1.33349 0
M  V30 7994 C 779.922 -1.93128 1.23426 0
M  V30 7995 C 780.922 -1.60065 0.153599 0
M  V30 7996 O 782.112 -1.69425 0.405049 0
M  V30 7997 C 779.244 -3.28761 0.901622 0
M  V30 7998 H 780.437 -2.03352 2.20427 0
M  V30 7999 H 777.99 -1.03194 1.17391 0
M  V30 8000 H 778.725 -3.24233 -0.0659337 0
M  V30 8001 H 778.51 -3.54138 1.68311 0
M  V30 8002 H 780 -4.08714 0.856913 0
M  V30 8003 N 780.437 -1.16799 -1.0581 0
M  V30 8004 C 781.347 -0.893492 -2.16919 0
M  V30 8005 C 782.363 0.136061 -1.73467 0
M  V30 8006 O 783.539 -0.0417348 -2.01357 0
M  V30 8007 C 780.604 -0.403763 -3.44341 0
M  V30 8008 C 779.665 -1.49914 -4.02274 0
M  V30 8009 C 778.898 -1.03269 -5.23614 0
M  V30 8010 O 779.121 0.115647 -5.70283 0
M  V30 8011 O 778.055 -1.8231 -5.73626 0
M  V30 8012 H 781.881 -1.82274 -2.42919 0
M  V30 8013 H 779.466 -0.948361 -1.1544 0
M  V30 8014 H 781.348 -0.137874 -4.21174 0
M  V30 8015 H 780.023 0.497413 -3.19855 0
M  V30 8016 H 778.93 -1.81883 -3.26909 0
M  V30 8017 H 780.263 -2.3758 -4.31064 0
M  V30 8018 N 781.915 1.24427 -0.967243 0
M  V30 8019 C 783.143 1.96541 -0.646477 0
M  V30 8020 C 783.558 1.71753 0.783996 0
M  V30 8021 O 782.915 1.00102 1.52597 0
M  V30 8022 C 782.966 3.4983 -0.911098 0
M  V30 8023 O 782.687 3.7377 -2.28534 0
M  V30 8024 C 784.188 4.3916 -0.604458 0
M  V30 8025 H 781.408 0.626129 -0.241255 0
M  V30 8026 H 783.952 1.58268 -1.29505 0
M  V30 8027 H 782.107 3.86168 -0.308741 0
M  V30 8028 H 782.521 4.68154 -2.365 0
M  V30 8029 H 783.995 5.4557 -0.840069 0
M  V30 8030 H 784.472 4.36771 0.461273 0
M  V30 8031 H 785.078 4.08409 -1.1867 0
M  V30 8032 N 783.393 0.737304 1.3929 0
M  V30 8033 C 784.621 0.296573 2.04763 0
M  V30 8034 C 785.036 -1.06941 1.55592 0
M  V30 8035 O 784.393 -1.67619 0.721822 0
M  V30 8036 C 784.444 0.291906 3.6032 0
M  V30 8037 O 784.165 1.60397 4.07682 0
M  V30 8038 C 785.666 -0.164708 4.42994 0
M  V30 8039 H 782.886 0.129251 0.658434 0
M  V30 8040 H 785.43 1.0016 1.78293 0
M  V30 8041 H 783.585 -0.364251 3.85684 0
M  V30 8042 H 783.999 1.51909 5.0202 0
M  V30 8043 H 785.473 -0.116814 5.51876 0
M  V30 8044 H 785.95 -1.21022 4.22197 0
M  V30 8045 H 786.556 0.461968 4.22784 0
M  V30 8046 N 784.871 -1.49948 0.485112 0
M  V30 8047 C 786.282 -1.8667 0.0334041 0
M  V30 8048 C 786.633 -1.3988 -1.37579 0
M  V30 8049 O 785.758 -0.769788 -2.02245 0
M  V30 8050 C 786.353 -3.38757 0.0538426 0
M  V30 8051 C 784.912 -3.74839 -0.342453 0
M  V30 8052 C 784.059 -2.73894 0.433281 0
M  V30 8053 H 787.01 -1.42492 0.698699 0
M  V30 8054 H 787.031 -3.73132 -0.745146 0
M  V30 8055 H 786.543 -3.72782 1.07959 0
M  V30 8056 H 784.644 -3.46419 -1.37203 0
M  V30 8057 H 784.757 -4.79088 -0.0340503 0
M  V30 8058 H 783.121 -2.54441 -0.114849 0
M  V30 8059 H 783.904 -3.10763 1.45881 0
M  V30 8060 N 786.349 -0.21828 -1.56081 0
M  V30 8061 C 787.577 0.419258 -2.02608 0
M  V30 8062 C 787.992 1.53578 -1.09814 0
M  V30 8063 O 787.349 1.82185 -0.107149 0
M  V30 8064 C 787.4 0.953955 -3.48686 0
M  V30 8065 O 787.121 -0.11805 -4.37941 0
M  V30 8066 C 788.622 1.66506 -4.10841 0
M  V30 8067 H 785.842 0.10296 -0.663054 0
M  V30 8068 H 788.386 -0.333776 -2.01758 0
M  V30 8069 H 786.541 1.65727 -3.50162 0
M  V30 8070 H 786.955 0.283359 -5.23734 0
M  V30 8071 H 788.429 1.99123 -5.14834 0
M  V30 8072 H 788.906 2.57705 -3.55647 0
M  V30 8073 H 789.512 1.00703 -4.13206 0
M  V30 8074 N 787.827 1.57504 0.0551401 0
M  V30 8075 C 789.076 1.87237 0.750009 0
M  V30 8076 C 789.389 0.813268 1.77891 0
M  V30 8077 O 790.595 0.99898 2.52453 0
M  V30 8078 C 789.051 3.32187 1.38491 0
M  V30 8079 C 788.659 4.46267 0.393707 0
M  V30 8080 C 790.403 3.71101 2.06117 0
M  V30 8081 C 788.31 5.82265 1.03547 0
M  V30 8082 H 787.24 0.698524 0.283866 0
M  V30 8083 H 789.891 1.835 0.00365997 0
M  V30 8084 H 788.273 3.30588 2.18008 0
M  V30 8085 H 789.447 4.59289 -0.372865 0
M  V30 8086 H 787.762 4.16015 -0.17902 0
M  V30 8087 H 790.359 4.70012 2.54937 0
M  V30 8088 H 790.702 3.01751 2.86796 0
M  V30 8089 H 791.235 3.74762 1.33409 0
M  V30 8090 H 787.974 6.54949 0.268644 0
M  V30 8091 H 787.494 5.73012 1.7725 0
M  V30 8092 H 789.173 6.28148 1.55047 0
M  V30 8093 N 789.305 -0.326896 1.54172 0
M  V30 8094 C 790.553 -1.06313 1.71878 0
M  V30 8095 C 790.874 -1.88652 0.493498 0
M  V30 8096 O 790.144 -1.89608 -0.492522 0
M  V30 8097 H 788.724 -0.39549 0.633716 0
M  V30 8098 H 791.386 -0.364139 1.91468 0
M  V30 8099 H 790.482 -1.73105 2.59694 0
M  V30 8100 N 790.784 -1.46188 -0.588786 0
M  V30 8101 C 791.734 -1.5271 -1.69303 0
M  V30 8102 C 792.718 -0.388578 -1.56137 0
M  V30 8103 O 793.91 -0.636616 -1.65155 0
M  V30 8104 C 791.039 -1.51457 -3.08084 0
M  V30 8105 C 790.125 -2.70581 -3.26568 0
M  V30 8106 N 790.516 -3.9555 -3.15236 0
M  V30 8107 C 788.814 -2.66676 -3.57491 0
M  V30 8108 C 789.515 -4.75157 -3.35561 0
M  V30 8109 N 788.491 -4.06927 -3.60432 0
M  V30 8110 H 792.293 -2.47136 -1.59063 0
M  V30 8111 H 789.807 -1.41743 -0.792632 0
M  V30 8112 H 791.804 -1.54216 -3.87328 0
M  V30 8113 H 790.464 -0.581036 -3.19459 0
M  V30 8114 H 791.475 -4.2689 -2.93232 0
M  V30 8115 H 788.152 -1.82317 -3.75588 0
M  V30 8116 H 789.542 -5.84126 -3.32034 0
M  V30 8117 N 792.262 0.832906 -1.33792 0
M  V30 8118 C 793.508 1.59089 -1.25772 0
M  V30 8119 C 793.841 1.93414 0.174601 0
M  V30 8120 O 793.116 1.59195 1.11746 0
M  V30 8121 C 793.399 2.89699 -2.13885 0
M  V30 8122 C 793.252 2.62017 -3.65605 0
M  V30 8123 C 794.571 3.91182 -2.01654 0
M  V30 8124 H 791.69 0.577232 -0.458227 0
M  V30 8125 H 794.332 0.960227 -1.6395 0
M  V30 8126 H 792.482 3.4352 -1.81456 0
M  V30 8127 H 794.154 2.14582 -4.08353 0
M  V30 8128 H 792.397 1.95621 -3.87189 0
M  V30 8129 H 793.068 3.55112 -4.2261 0
M  V30 8130 H 795.544 3.46684 -2.30107 0
M  V30 8131 H 794.42 4.80391 -2.65548 0
M  V30 8132 H 794.681 4.30861 -0.990536 0
M  V30 8133 N 793.74 1.17359 1.05189 0
M  V30 8134 C 794.988 0.960087 1.77839 0
M  V30 8135 C 795.309 -0.512554 1.88143 0
M  V30 8136 O 794.579 -1.3721 1.39822 0
M  V30 8137 H 793.159 0.352234 0.658741 0
M  V30 8138 H 795.821 1.47834 1.27008 0
M  V30 8139 H 794.917 1.38843 2.79516 0
M  V30 8140 N 795.218 -1.23913 0.973828 0
M  V30 8141 C 796.629 -1.73992 0.677021 0
M  V30 8142 C 796.98 -1.78833 -0.807036 0
M  V30 8143 O 796.105 -1.42183 -1.63135 0
M  V30 8144 C 796.7 -3.15985 1.22226 0
M  V30 8145 C 795.259 -3.63547 0.975228 0
M  V30 8146 C 794.406 -2.42001 1.35392 0
M  V30 8147 H 797.357 -1.09529 1.14844 0
M  V30 8148 H 797.378 -3.75875 0.591489 0
M  V30 8149 H 796.89 -3.12429 2.30238 0
M  V30 8150 H 794.991 -3.72493 -0.0891047 0
M  V30 8151 H 795.104 -4.50693 1.62518 0
M  V30 8152 H 793.468 -2.42708 0.772334 0
M  V30 8153 H 794.251 -2.41122 2.44367 0
M  V30 8154 N 796.696 -0.74468 -1.38897 0
M  V30 8155 C 797.942 -0.297324 -2.00609 0
M  V30 8156 C 798.275 1.11547 -1.58968 0
M  V30 8157 O 797.55 1.76227 -0.823057 0
M  V30 8158 C 797.833 -0.410125 -3.57757 0
M  V30 8159 C 797.686 -1.86338 -4.09387 0
M  V30 8160 C 799.005 0.20176 -4.39637 0
M  V30 8161 H 796.124 -0.109509 -0.728819 0
M  V30 8162 H 798.766 -0.942653 -1.64967 0
M  V30 8163 H 796.916 0.139287 -3.8825 0
M  V30 8164 H 798.588 -2.47042 -3.89574 0
M  V30 8165 H 796.831 -2.38146 -3.62586 0
M  V30 8166 H 797.502 -1.89352 -5.18507 0
M  V30 8167 H 799.978 -0.266703 -4.15244 0
M  V30 8168 H 798.854 0.0925415 -5.48822 0
M  V30 8169 H 799.115 1.289 -4.22891 0
M  V30 8170 N 798.174 1.49689 -0.493057 0
M  V30 8171 C 799.107 2.25712 0.336062 0
M  V30 8172 C 800.085 1.29953 0.977294 0
M  V30 8173 O 801.269 1.59225 1.00895 0
M  V30 8174 C 798.396 3.0501 1.47263 0
M  V30 8175 C 797.442 4.15863 0.946575 0
M  V30 8176 S 798.275 5.35272 -0.156323 0
M  V30 8177 C 799.431 6.18123 0.983601 0
M  V30 8178 H 799.664 2.95688 -0.309215 0
M  V30 8179 H 797.197 1.51872 -0.278238 0
M  V30 8180 H 799.155 3.51284 2.12391 0
M  V30 8181 H 797.816 2.34519 2.08949 0
M  V30 8182 H 797.009 4.70834 1.7981 0
M  V30 8183 H 796.611 3.72139 0.372647 0
M  V30 8184 H 798.903 6.50588 1.89056 0
M  V30 8185 H 799.846 7.06521 0.472687 0
M  V30 8186 H 800.254 5.50547 1.24735 0
M  V30 8187 N 799.652 0.226554 1.55963 0
M  V30 8188 C 800.9 -0.402991 1.98041 0
M  V30 8189 C 801.221 -1.59938 1.11557 0
M  V30 8190 O 800.491 -1.9494 0.193719 0
M  V30 8191 H 799.071 -0.15188 0.731397 0
M  V30 8192 H 801.733 0.320613 1.92245 0
M  V30 8193 H 800.829 -0.725937 3.0354 0
M  V30 8194 N 801.13 -1.57531 -0.0467866 0
M  V30 8195 C 802.077 -2.05387 -1.05285 0
M  V30 8196 C 803.047 -0.939385 -1.36985 0
M  V30 8197 O 804.232 -1.20877 -1.47626 0
M  V30 8198 C 801.372 -2.52343 -2.35408 0
M  V30 8199 C 800.485 -3.77512 -2.10022 0
M  V30 8200 C 799.62 -4.1315 -3.33887 0
M  V30 8201 C 798.659 -5.31286 -3.03976 0
M  V30 8202 N 797.796 -5.62441 -4.20243 0
M  V30 8203 H 802.636 -2.91095 -0.637788 0
M  V30 8204 H 800.173 -1.43939 -0.303322 0
M  V30 8205 H 802.131 -2.77628 -3.11413 0
M  V30 8206 H 800.761 -1.69577 -2.7467 0
M  V30 8207 H 799.813 -3.59417 -1.24594 0
M  V30 8208 H 801.125 -4.63644 -1.83945 0
M  V30 8209 H 800.279 -4.39469 -4.18273 0
M  V30 8210 H 799.018 -3.25634 -3.63062 0
M  V30 8211 H 798.023 -5.04738 -2.17991 0
M  V30 8212 H 799.248 -6.20441 -2.76098 0
M  V30 8213 H 797.194 -4.77885 -4.49402 0
M  V30 8214 H 797.111 -6.43046 -3.97528 0
M  V30 8215 H 798.379 -5.93327 -5.05553 0
M  V30 8216 N 802.608 0.318715 -1.54344 0
M  V30 8217 C 804.019 0.89285 -1.63967 0
M  V30 8218 C 804.37 1.88712 -0.536855 0
M  V30 8219 O 803.495 2.13877 0.329457 0
M  V30 8220 C 804.09 1.62618 -2.97222 0
M  V30 8221 C 802.649 2.14897 -3.09025 0
M  V30 8222 C 801.796 0.975909 -2.5956 0
M  V30 8223 H 804.747 0.0961687 -1.58408 0
M  V30 8224 H 804.768 2.4907 -2.87653 0
M  V30 8225 H 804.28 0.902286 -3.77466 0
M  V30 8226 H 802.381 2.90387 -2.33465 0
M  V30 8227 H 802.494 2.39565 -4.14904 0
M  V30 8228 H 800.858 1.35646 -2.15574 0
M  V30 8229 H 801.641 0.266253 -3.42266 0
M  V30 8230 N 804.086 1.46499 0.581025 0
M  V30 8231 C 805.334 1.51596 1.33653 0
M  V30 8232 C 805.655 0.169859 1.94259 0
M  V30 8233 O 804.925 -0.803776 1.78651 0
M  V30 8234 H 803.505 0.558346 0.496244 0
M  V30 8235 H 806.167 1.8264 0.680338 0
M  V30 8236 H 805.263 2.26956 2.14237 0
M  V30 8237 N 805.565 -0.825799 1.34232 0
M  V30 8238 C 806.513 -1.95792 1.25572 0
M  V30 8239 C 807.507 -1.68695 0.154404 0
M  V30 8240 O 808.713 -1.77147 0.319196 0
M  V30 8241 H 805.088 -0.642949 0.390027 0
M  V30 8242 H 807.059 -2.00219 2.21258 0
M  V30 8243 C 805.808 -3.32245 1.02511 0
M  V30 8244 H 805.131 -3.53642 1.86487 0
M  V30 8245 H 806.571 -4.1192 1.00487 0
M  V30 8246 C 805.03 -3.35803 -0.27167 0
M  V30 8247 O 805.56 -3.80962 -1.274 0
M  V30 8248 N 803.766 -2.89008 -0.303778 0
M  V30 8249 H 803.313 -2.52451 0.512464 0
M  V30 8250 H 803.271 -2.9177 -1.17121 0
M  V30 8251 N 807.043 -1.17915 -1.04565 0
M  V30 8252 C 808.289 -0.972863 -1.77942 0
M  V30 8253 C 808.622 0.496753 -1.87739 0
M  V30 8254 O 807.897 1.3688 -1.38181 0
M  V30 8255 C 808.18 -1.62227 -3.21488 0
M  V30 8256 C 808.033 -3.16441 -3.19664 0
M  V30 8257 C 809.352 -1.33137 -4.19479 0
M  V30 8258 H 806.471 -0.354843 -0.645953 0
M  V30 8259 H 809.113 -1.45508 -1.22178 0
M  V30 8260 H 807.263 -1.21224 -3.69103 0
M  V30 8261 H 808.935 -3.66544 -2.80077 0
M  V30 8262 H 807.178 -3.48863 -2.57832 0
M  V30 8263 H 807.849 -3.57012 -4.21006 0
M  V30 8264 H 810.325 -1.68654 -3.80388 0
M  V30 8265 H 809.201 -1.81151 -5.18146 0
M  V30 8266 H 809.462 -0.253319 -4.41374 0
M  V30 8267 N 808.521 1.23394 -0.980386 0
M  V30 8268 C 809.767 1.92094 -0.650223 0
M  V30 8269 C 810.1 1.76309 0.814173 0
M  V30 8270 O 809.375 1.12406 1.5873 0
M  V30 8271 C 809.658 3.44713 -1.04139 0
M  V30 8272 C 809.511 3.69606 -2.56342 0
M  V30 8273 C 810.83 4.36191 -0.585296 0
M  V30 8274 H 807.949 0.697618 -0.237695 0
M  V30 8275 H 810.591 1.45517 -1.22167 0
M  V30 8276 H 808.741 3.84513 -0.55515 0
M  V30 8277 H 810.413 3.39288 -3.1254 0
M  V30 8278 H 808.656 3.14318 -2.98976 0
M  V30 8279 H 809.327 4.76441 -2.78762 0
M  V30 8280 H 811.803 4.03836 -1.00276 0
M  V30 8281 H 810.679 5.41679 -0.887428 0
M  V30 8282 H 810.94 4.39097 0.51438 0
M  V30 8283 N 809.999 0.752036 1.385 0
M  V30 8284 C 811.227 0.318274 2.04437 0
M  V30 8285 C 811.642 -1.05285 1.56718 0
M  V30 8286 O 810.999 -1.66844 0.73956 0
M  V30 8287 C 811.05 0.330106 3.5999 0
M  V30 8288 O 810.771 1.64712 4.05957 0
M  V30 8289 C 812.272 -0.117713 4.43144 0
M  V30 8290 H 809.492 0.136228 0.657026 0
M  V30 8291 H 812.036 1.02045 1.7722 0
M  V30 8292 H 810.191 -0.323323 3.86048 0
M  V30 8293 H 810.605 1.57225 5.0038 0
M  V30 8294 H 812.079 -0.0582735 5.51969 0
M  V30 8295 H 812.556 -1.16538 4.23457 0
M  V30 8296 H 813.162 0.506784 4.2227 0
M  V30 8297 N 811.477 -1.49425 0.500989 0
M  V30 8298 C 812.726 -2.01649 -0.04538 0
M  V30 8299 C 813.039 -1.38572 -1.38047 0
M  V30 8300 O 814.245 -1.82124 -2.01353 0
M  V30 8301 C 812.701 -3.5966 -0.131337 0
M  V30 8302 C 812.309 -4.3171 1.19711 0
M  V30 8303 C 814.053 -4.19828 -0.628071 0
M  V30 8304 C 811.96 -5.81579 1.07332 0
M  V30 8305 H 810.89 -0.753715 -0.0207329 0
M  V30 8306 H 813.541 -1.71962 0.640407 0
M  V30 8307 H 811.923 -3.86063 -0.881574 0
M  V30 8308 H 813.097 -4.17008 1.96064 0
M  V30 8309 H 811.412 -3.83286 1.62729 0
M  V30 8310 H 814.009 -5.2958 -0.738198 0
M  V30 8311 H 814.352 -3.83194 -1.6269 0
M  V30 8312 H 814.885 -3.97746 0.0656314 0
M  V30 8313 H 811.624 -6.22738 2.04642 0
M  V30 8314 H 811.144 -5.98774 0.350679 0
M  V30 8315 H 812.823 -6.42614 0.752047 0
M  V30 8316 N 812.955 -0.234822 -1.55841 0
M  V30 8317 C 814.232 0.442961 -1.90518 0
M  V30 8318 C 814.612 1.76768 -1.15397 0
M  V30 8319 O 813.96 2.26928 -0.267534 0
M  V30 8320 C 814.17 0.622905 -3.43396 0
M  V30 8321 C 815.518 0.9243 -4.14417 0
M  V30 8322 O 816.542 0.709211 -3.49068 0
M  V30 8323 O 815.401 1.33323 -5.29988 0
M  V30 8324 H 812.495 0.236042 -0.792599 0
M  V30 8325 H 815.041 -0.277992 -1.67408 0
M  V30 8326 H 813.813 -0.310973 -3.90062 0
M  V30 8327 H 813.436 1.39485 -3.7233 0
M  V30 8328 N 814.433 1.57553 0.0384317 0
M  V30 8329 C 815.681 1.88468 0.729672 0
M  V30 8330 C 816.002 0.831302 1.76393 0
M  V30 8331 O 815.272 -0.13622 1.95426 0
M  V30 8332 H 813.852 0.695529 0.272485 0
M  V30 8333 H 816.514 1.94899 0.0066032 0
M  V30 8334 H 815.61 2.8705 1.22511 0
M  V30 8335 N 815.911 -0.310526 1.54511 0
M  V30 8336 C 817.327 -0.655637 1.45511 0
M  V30 8337 C 817.527 -1.91114 0.638564 0
M  V30 8338 O 816.583 -2.52098 0.142497 0
M  V30 8339 C 817.896 -0.817501 2.89374 0
M  V30 8340 C 819.444 -0.914003 2.99358 0
M  V30 8341 C 819.919 -1.10794 4.44397 0
M  V30 8342 N 821.41 -1.17437 4.48066 0
M  V30 8343 C 822.145 -1.34255 5.57461 0
M  V30 8344 N 821.641 -1.48032 6.768 0
M  V30 8345 N 823.434 -1.37067 5.45132 0
M  V30 8346 H 815.585 0.514506 2.06074 0
M  V30 8347 H 817.848 0.168478 0.932909 0
M  V30 8348 H 817.554 0.034003 3.51684 0
M  V30 8349 H 817.428 -1.7094 3.36243 0
M  V30 8350 H 819.815 -1.756 2.37168 0
M  V30 8351 H 819.896 0.00170958 2.558 0
M  V30 8352 H 819.54 -0.270743 5.07178 0
M  V30 8353 H 819.47 -2.03773 4.85576 0
M  V30 8354 H 821.961 -1.08181 3.62084 0
M  V30 8355 H 822.274 -1.60593 7.5593 0
M  V30 8356 H 820.619 -1.45105 6.79683 0
M  V30 8357 H 823.81 -1.25909 4.50849 0
M  V30 8358 H 823.983 -1.49831 6.3044 0
M  V30 8359 N 817.389 -1.46805 -0.573248 0
M  V30 8360 C 818.637 -1.52302 -1.32847 0
M  V30 8361 C 818.958 -0.180159 -1.94166 0
M  V30 8362 O 818.228 0.794291 -1.79075 0
M  V30 8363 H 816.808 -0.56097 -0.493276 0
M  V30 8364 H 819.47 -1.82998 -0.670642 0
M  V30 8365 H 818.566 -2.28089 -2.13031 0
M  V30 8366 N 818.867 0.818669 -1.34668 0
M  V30 8367 C 820.114 1.57512 -1.27264 0
M  V30 8368 C 820.442 1.93871 0.156254 0
M  V30 8369 O 819.697 1.60582 1.11857 0
M  V30 8370 C 819.996 2.88245 -2.11304 0
M  V30 8371 C 819.662 2.71159 -3.60255 0
M  V30 8372 C 818.324 2.66207 -4.00858 0
M  V30 8373 C 820.676 2.54538 -4.54819 0
M  V30 8374 C 818.004 2.4256 -5.34211 0
M  V30 8375 C 820.356 2.32421 -5.88356 0
M  V30 8376 C 819.02 2.25884 -6.28118 0
M  V30 8377 H 818.29 0.576378 -0.465692 0
M  V30 8378 H 820.937 0.9469 -1.66451 0
M  V30 8379 H 819.242 3.55381 -1.64958 0
M  V30 8380 H 820.939 3.45869 -2.02919 0
M  V30 8381 H 817.529 2.75856 -3.28027 0
M  V30 8382 H 821.713 2.57384 -4.24343 0
M  V30 8383 H 816.969 2.35959 -5.64033 0
M  V30 8384 H 821.143 2.18548 -6.61218 0
M  V30 8385 H 818.77 2.07322 -7.31383 0
M  V30 8386 N 820.346 1.18468 1.03938 0
M  V30 8387 C 821.594 0.978895 1.76811 0
M  V30 8388 C 821.915 -0.49257 1.88676 0
M  V30 8389 O 821.185 -1.3572 1.41269 0
M  V30 8390 H 819.765 0.359201 0.654968 0
M  V30 8391 H 822.427 1.49173 1.25433 0
M  V30 8392 H 821.523 1.418 2.78027 0
M  V30 8393 N 821.824 -1.22873 0.986916 0
M  V30 8394 C 823.049 -1.96028 0.677341 0
M  V30 8395 C 823.474 -1.72487 -0.750319 0
M  V30 8396 O 822.832 -1.00036 -1.51203 0
M  V30 8397 C 822.88 -3.46983 0.981593 0
M  V30 8398 O 821.984 -4.12328 0.0770729 0
M  V30 8399 H 821.325 -0.613458 0.254096 0
M  V30 8400 H 823.855 -1.56132 1.32227 0
M  V30 8401 H 823.865 -3.9747 0.920969 0
M  V30 8402 H 822.54 -3.63442 2.02194 0
M  V30 8403 H 821.117 -3.72402 0.192666 0
M  V30 8404 N 823.302 -0.75937 -1.38099 0
M  V30 8405 C 824.53 -0.329111 -2.04266 0
M  V30 8406 C 824.945 1.04453 -1.57274 0
M  V30 8407 O 824.302 1.66449 -0.748397 0
M  V30 8408 C 824.353 -0.349192 -3.5981 0
M  V30 8409 O 824.074 -1.66863 -4.05078 0
M  V30 8410 C 825.575 0.0942106 -4.432 0
M  V30 8411 H 822.795 -0.13971 -0.656294 0
M  V30 8412 H 825.339 -1.02984 -1.76677 0
M  V30 8413 H 823.494 0.302846 -3.86214 0
M  V30 8414 H 823.908 -1.59877 -4.9954 0
M  V30 8415 H 825.382 0.0290004 -5.51992 0
M  V30 8416 H 825.859 1.1429 -4.24069 0
M  V30 8417 H 826.465 -0.529171 -4.21995 0
M  V30 8418 N 824.78 1.49157 -0.508906 0
M  V30 8419 C 825.727 2.2927 0.265288 0
M  V30 8420 C 826.697 1.3603 0.953162 0
M  V30 8421 O 827.882 1.64989 0.958291 0
M  V30 8422 C 825.022 3.18897 1.31904 0
M  V30 8423 C 824.135 4.27201 0.642144 0
M  V30 8424 C 823.27 5.04033 1.67701 0
M  V30 8425 C 822.309 6.04165 0.982422 0
M  V30 8426 N 821.446 6.74133 1.96186 0
M  V30 8427 H 826.286 2.94967 -0.424107 0
M  V30 8428 H 823.823 1.45431 -0.220991 0
M  V30 8429 H 825.781 3.69242 1.94206 0
M  V30 8430 H 824.411 2.55168 1.97709 0
M  V30 8431 H 823.463 3.80283 -0.0943395 0
M  V30 8432 H 824.775 4.98708 0.0957507 0
M  V30 8433 H 823.929 5.58287 2.37487 0
M  V30 8434 H 822.668 4.32317 2.25728 0
M  V30 8435 H 821.673 5.49135 0.270378 0
M  V30 8436 H 822.898 6.7787 0.408554 0
M  V30 8437 H 820.844 6.05183 2.53159 0
M  V30 8438 H 820.761 7.41643 1.46634 0
M  V30 8439 H 822.029 7.32987 2.65236 0
M  V30 8440 N 826.258 0.243083 1.55714 0
M  V30 8441 C 827.506 -0.381964 1.98458 0
M  V30 8442 C 827.827 -1.58745 1.13247 0
M  V30 8443 O 827.097 -1.94723 0.214384 0
M  V30 8444 H 825.677 -0.144114 0.732967 0
M  V30 8445 H 828.339 0.340985 1.91894 0
M  V30 8446 H 827.435 -0.693702 3.04293 0
M  V30 8447 N 827.736 -1.57571 -0.0300757 0
M  V30 8448 C 828.964 -1.93485 -0.732891 0
M  V30 8449 C 829.379 -0.842758 -1.68947 0
M  V30 8450 O 828.736 0.180904 -1.81601 0
M  V30 8451 C 828.787 -3.29328 -1.49082 0
M  V30 8452 O 828.508 -4.34341 -0.572639 0
M  V30 8453 C 830.009 -3.79517 -2.29088 0
M  V30 8454 H 827.229 -0.638588 -0.206026 0
M  V30 8455 H 829.773 -2.04496 0.0120966 0
M  V30 8456 H 827.928 -3.19716 -2.1877 0
M  V30 8457 H 828.342 -5.12748 -1.10406 0
M  V30 8458 H 829.816 -4.77081 -2.77665 0
M  V30 8459 H 830.293 -3.10659 -3.10464 0
M  V30 8460 H 830.899 -3.92208 -1.64477 0
M  V30 8461 N 829.214 0.302327 -1.54673 0
M  V30 8462 C 830.46 1.03924 -1.74149 0
M  V30 8463 C 830.793 1.86968 -0.525041 0
M  V30 8464 O 830.068 1.88538 0.477868 0
M  V30 8465 C 830.351 1.94633 -3.02969 0
M  V30 8466 C 830.204 1.14778 -4.34909 0
M  V30 8467 C 831.523 2.93826 -3.27649 0
M  V30 8468 H 828.642 0.376405 -0.633631 0
M  V30 8469 H 831.284 0.314007 -1.87387 0
M  V30 8470 H 829.434 2.56471 -2.91813 0
M  V30 8471 H 831.106 0.552363 -4.57981 0
M  V30 8472 H 829.349 0.450462 -4.31455 0
M  V30 8473 H 830.02 1.81495 -5.21309 0
M  V30 8474 H 832.496 2.42117 -3.38406 0
M  V30 8475 H 831.372 3.54462 -4.19104 0
M  V30 8476 H 831.633 3.67416 -2.45882 0
M  V30 8477 N 830.692 1.47107 0.565454 0
M  V30 8478 C 831.922 1.56681 1.34664 0
M  V30 8479 C 832.33 0.213011 1.87997 0
M  V30 8480 O 831.673 -0.802629 1.65238 0
M  V30 8481 C 831.735 2.52528 2.55871 0
M  V30 8482 C 831.399 3.98403 2.23883 0
M  V30 8483 C 832.396 4.87125 1.81673 0
M  V30 8484 C 830.081 4.43674 2.35496 0
M  V30 8485 C 832.075 6.19135 1.51494 0
M  V30 8486 C 829.762 5.75714 2.0493 0
M  V30 8487 C 830.76 6.63266 1.62996 0
M  V30 8488 O 830.448 7.92853 1.32813 0
M  V30 8489 H 830.18 0.531967 0.417117 0
M  V30 8490 H 832.734 1.93368 0.692669 0
M  V30 8491 H 830.964 2.10893 3.24131 0
M  V30 8492 H 832.653 2.5232 3.17945 0
M  V30 8493 H 833.419 4.534 1.72201 0
M  V30 8494 H 829.298 3.7574 2.67096 0
M  V30 8495 H 832.842 6.87429 1.1869 0
M  V30 8496 H 828.739 6.08983 2.14031 0
M  V30 8497 H 829.507 8.0528 1.46513 0
M  V30 8498 N 832.17 -0.811516 1.35101 0
M  V30 8499 C 833.417 -1.56835 1.28098 0
M  V30 8500 C 833.745 -1.93951 -0.14597 0
M  V30 8501 O 833 -1.61173 -1.11004 0
M  V30 8502 C 833.299 -2.87121 2.1283 0
M  V30 8503 C 832.965 -2.69245 3.61688 0
M  V30 8504 C 831.627 -2.64078 4.02264 0
M  V30 8505 C 833.979 -2.52122 4.56162 0
M  V30 8506 C 831.307 -2.39724 5.3549 0
M  V30 8507 C 833.659 -2.29298 5.89581 0
M  V30 8508 C 832.323 -2.2255 6.29307 0
M  V30 8509 H 831.593 -0.5739 0.468742 0
M  V30 8510 H 834.24 -0.93806 1.66951 0
M  V30 8511 H 832.545 -3.54502 1.66841 0
M  V30 8512 H 834.242 -3.44788 2.0475 0
M  V30 8513 H 830.832 -2.74112 3.29485 0
M  V30 8514 H 835.016 -2.5513 4.25702 0
M  V30 8515 H 830.272 -2.32965 5.65276 0
M  V30 8516 H 834.446 -2.15038 6.62368 0
M  V30 8517 H 832.073 -2.0344 7.32473 0
M  V30 8518 N 833.648 -1.19017 -1.03309 0
M  V30 8519 C 834.896 -0.988258 -1.76289 0
M  V30 8520 C 835.217 0.482557 -1.88935 0
M  V30 8521 O 834.487 1.34969 -1.41987 0
M  V30 8522 H 833.067 -0.36267 -0.653054 0
M  V30 8523 H 835.729 -1.49836 -1.2464 0
M  V30 8524 H 834.825 -1.43273 -2.77271 0
M  V30 8525 N 835.127 1.22348 -0.993418 0
M  V30 8526 C 836.355 1.95125 -0.688021 0
M  V30 8527 C 836.77 1.73377 0.747388 0
M  V30 8528 O 836.127 1.03317 1.50439 0
M  V30 8529 C 836.178 3.47819 -0.985097 0
M  V30 8530 O 835.899 3.68838 -2.3641 0
M  V30 8531 C 837.4 4.37779 -0.697474 0
M  V30 8532 H 834.62 0.62087 -0.254481 0
M  V30 8533 H 837.164 1.55485 -1.32833 0
M  V30 8534 H 835.319 3.85426 -0.390583 0
M  V30 8535 H 835.733 4.63032 -2.46377 0
M  V30 8536 H 837.207 5.43666 -0.955604 0
M  V30 8537 H 837.684 4.37651 0.368524 0
M  V30 8538 H 838.29 4.05799 -1.27306 0
M  V30 8539 N 836.605 0.766683 1.37694 0
M  V30 8540 C 837.833 0.339939 2.04088 0
M  V30 8541 C 838.248 -1.03617 1.57826 0
M  V30 8542 O 837.605 -1.6605 0.757214 0
M  V30 8543 C 837.656 0.368269 3.59619 0
M  V30 8544 O 837.377 1.69009 4.04188 0
M  V30 8545 C 838.878 -0.0707053 4.43244 0
M  V30 8546 H 836.098 0.143189 0.655544 0
M  V30 8547 H 838.642 1.03919 1.76128 0
M  V30 8548 H 836.797 -0.282359 3.8637 0
M  V30 8549 H 837.211 1.62523 4.98685 0
M  V30 8550 H 838.685 0.000273538 5.52 0
M  V30 8551 H 839.162 -1.1204 4.24669 0
M  V30 8552 H 839.768 0.551543 4.21709 0
M  V30 8553 N 838.083 -1.48885 0.516809 0
M  V30 8554 C 839.046 -2.27916 -0.242256 0
M  V30 8555 C 840.046 -1.34601 -0.879735 0
M  V30 8556 O 841.236 -1.57616 -0.74182 0
M  V30 8557 C 838.368 -3.13067 -1.34914 0
M  V30 8558 H 839.561 -2.96483 0.451444 0
M  V30 8559 H 837.114 -1.5391 0.272294 0
M  V30 8560 H 837.849 -2.49102 -2.07651 0
M  V30 8561 H 837.634 -3.81695 -0.897313 0
M  V30 8562 H 839.124 -3.72716 -1.88341 0
M  V30 8563 N 839.561 -0.251338 -1.55583 0
M  V30 8564 C 840.807 0.37272 -1.99346 0
M  V30 8565 C 841.14 1.57266 -1.13934 0
M  V30 8566 O 840.415 1.9343 -0.20377 0
M  V30 8567 C 840.698 0.778245 -3.5159 0
M  V30 8568 C 840.551 -0.427394 -4.47765 0
M  V30 8569 C 841.87 1.62358 -4.09057 0
M  V30 8570 H 838.989 0.134002 -0.724715 0
M  V30 8571 H 841.631 -0.353536 -1.86682 0
M  V30 8572 H 839.781 1.39704 -3.62512 0
M  V30 8573 H 841.453 -1.06586 -4.48818 0
M  V30 8574 H 839.696 -1.06972 -4.20404 0
M  V30 8575 H 840.367 -0.10025 -5.51909 0
M  V30 8576 H 842.843 1.1012 -4.01264 0
M  V30 8577 H 841.719 1.87617 -5.1584 0
M  V30 8578 H 841.98 2.59688 -3.57791 0
M  V30 8579 N 841.039 1.57585 0.0217189 0
M  V30 8580 C 842.267 1.93871 0.722619 0
M  V30 8581 C 842.682 0.851706 1.68498 0
M  V30 8582 O 842.039 -0.17127 1.81695 0
M  V30 8583 C 842.09 3.30114 1.47333 0
M  V30 8584 O 841.811 4.34639 0.549597 0
M  V30 8585 C 843.312 3.80727 2.27072 0
M  V30 8586 H 840.532 0.639671 0.202637 0
M  V30 8587 H 843.076 2.04487 -0.0229414 0
M  V30 8588 H 841.231 3.20872 2.17071 0
M  V30 8589 H 841.645 5.13326 1.07686 0
M  V30 8590 H 843.119 4.78547 2.75131 0
M  V30 8591 H 843.596 3.12301 3.08812 0
M  V30 8592 H 844.202 3.93075 1.62395 0
M  V30 8593 N 842.517 -0.29412 1.54831 0
M  V30 8594 C 843.765 -1.02643 1.74094 0
M  V30 8595 C 844.086 -1.87563 0.533402 0
M  V30 8596 O 843.356 -1.9061 -0.452192 0
M  V30 8597 H 841.936 -0.381959 0.641963 0
M  V30 8598 H 844.598 -0.323444 1.92197 0
M  V30 8599 H 843.694 -1.67558 2.63307 0
M  V30 8600 N 843.995 -1.47404 -0.557645 0
M  V30 8601 C 844.958 -1.59411 -1.64684 0
M  V30 8602 C 845.958 -0.469244 -1.53801 0
M  V30 8603 O 847.148 -0.734298 -1.57967 0
M  V30 8604 C 844.28 -1.5382 -3.04224 0
M  V30 8605 H 845.473 -2.56504 -1.55389 0
M  V30 8606 H 843.026 -1.35588 -0.777531 0
M  V30 8607 H 843.761 -0.581 -3.19053 0
M  V30 8608 H 843.546 -2.35456 -3.13533 0
M  V30 8609 H 845.036 -1.65358 -3.83466 0
M  V30 8610 N 845.473 0.80434 -1.35529 0
M  V30 8611 C 846.436 1.89788 -1.28503 0
M  V30 8612 C 847.436 1.59601 -0.195983 0
M  V30 8613 O 848.626 1.68292 -0.449827 0
M  V30 8614 C 845.758 3.26255 -0.98847 0
M  V30 8615 H 846.951 1.97436 -2.25741 0
M  V30 8616 H 844.504 1.00046 -1.20086 0
M  V30 8617 H 845.239 3.24294 -0.0200541 0
M  V30 8618 H 845.024 3.49551 -1.77641 0
M  V30 8619 H 846.514 4.06298 -0.964975 0
M  V30 8620 N 846.951 1.19563 1.02676 0
M  V30 8621 C 848.2 0.993864 1.75514 0
M  V30 8622 C 848.513 -0.475882 1.89723 0
M  V30 8623 O 849.719 -0.796525 2.59553 0
M  V30 8624 C 848.175 1.72937 3.15628 0
M  V30 8625 C 847.783 3.23937 3.09466 0
M  V30 8626 C 849.527 1.61092 3.92746 0
M  V30 8627 C 847.434 3.90067 4.44524 0
M  V30 8628 H 846.364 0.368244 0.657961 0
M  V30 8629 H 849.015 1.43081 1.14891 0
M  V30 8630 H 847.397 1.22025 3.76731 0
M  V30 8631 H 848.571 3.81983 2.57731 0
M  V30 8632 H 846.886 3.3608 2.45843 0
M  V30 8633 H 849.483 2.07848 4.92649 0
M  V30 8634 H 849.826 0.565415 4.12442 0
M  V30 8635 H 850.359 2.09361 3.3825 0
M  V30 8636 H 847.098 4.94725 4.30032 0
M  V30 8637 H 846.618 3.36809 4.96306 0
M  V30 8638 H 848.297 3.93736 5.13401 0
M  V30 8639 N 848.429 -1.21819 0.999893 0
M  V30 8640 C 849.657 -1.94758 0.698359 0
M  V30 8641 C 850.072 -1.73771 -0.738183 0
M  V30 8642 O 849.429 -1.04113 -1.49889 0
M  V30 8643 C 849.48 -3.47292 1.00353 0
M  V30 8644 O 849.201 -3.67579 2.38363 0
M  V30 8645 C 850.702 -4.37403 0.72068 0
M  V30 8646 H 847.922 -0.619512 0.257771 0
M  V30 8647 H 850.466 -1.54778 1.33656 0
M  V30 8648 H 848.621 -3.85213 0.411018 0
M  V30 8649 H 849.035 -4.61719 2.48829 0
M  V30 8650 H 850.509 -5.43151 0.984422 0
M  V30 8651 H 850.986 -4.3784 -0.345309 0
M  V30 8652 H 851.592 -4.05119 1.29456 0
M  V30 8653 N 849.908 -0.773975 -1.37286 0
M  V30 8654 C 851.133 -0.349561 -2.04433 0
M  V30 8655 C 851.558 1.02082 -1.5799 0
M  V30 8656 O 850.916 1.65458 -0.741172 0
M  V30 8657 C 850.964 -0.404292 -3.58326 0
M  V30 8658 O 850.068 0.594447 -4.08093 0
M  V30 8659 H 849.409 -0.150959 -0.646612 0
M  V30 8660 H 851.939 -1.05079 -1.75555 0
M  V30 8661 H 851.949 -0.262378 -4.07155 0
M  V30 8662 H 850.624 -1.40403 -3.91484 0
M  V30 8663 H 849.201 0.415468 -3.70578 0
M  V30 8664 N 851.386 1.48609 -0.524698 0
M  V30 8665 C 852.632 2.034 0.00323579 0
M  V30 8666 C 852.987 1.39513 1.32491 0
M  V30 8667 O 852.28 0.529876 1.84127 0
M  V30 8668 C 852.474 3.56906 0.187873 0
M  V30 8669 C 852.303 4.35674 -1.11436 0
M  V30 8670 C 851.073 4.76809 -1.67276 0
M  V30 8671 C 853.271 4.72814 -2.02365 0
M  V30 8672 N 851.253 5.40093 -2.91843 0
M  V30 8673 C 852.624 5.36062 -3.11508 0
M  V30 8674 C 854.679 4.54747 -2.02755 0
M  V30 8675 C 853.382 5.83154 -4.21099 0
M  V30 8676 C 855.408 5.02815 -3.11337 0
M  V30 8677 C 854.77 5.66084 -4.19199 0
M  V30 8678 H 850.869 0.780967 -0.0401842 0
M  V30 8679 H 853.453 1.81495 -0.704808 0
M  V30 8680 H 851.624 3.78645 0.864996 0
M  V30 8681 H 853.356 3.98335 0.714938 0
M  V30 8682 H 850.111 4.57754 -1.21483 0
M  V30 8683 H 850.535 5.76305 -3.55249 0
M  V30 8684 H 855.177 4.05217 -1.20661 0
M  V30 8685 H 852.895 6.31692 -5.03975 0
M  V30 8686 H 856.481 4.9063 -3.12688 0
M  V30 8687 H 855.361 6.02604 -5.01834 0
M  V30 8688 N 852.864 0.259585 1.55447 0
M  V30 8689 C 853.774 -0.645026 2.25558 0
M  V30 8690 C 854.79 -1.18291 1.27606 0
M  V30 8691 O 855.966 -1.21649 1.6051 0
M  V30 8692 C 853.031 -1.81964 2.9511 0
M  V30 8693 C 852.092 -1.31997 4.08504 0
M  V30 8694 C 851.325 -2.43861 4.74729 0
M  V30 8695 O 851.548 -3.62876 4.40088 0
M  V30 8696 O 850.482 -2.12898 5.6299 0
M  V30 8697 H 854.308 -0.0775399 3.03601 0
M  V30 8698 H 851.893 0.0275859 1.49375 0
M  V30 8699 H 853.775 -2.50485 3.38873 0
M  V30 8700 H 852.45 -2.37451 2.19997 0
M  V30 8701 H 851.357 -0.601676 3.6923 0
M  V30 8702 H 852.69 -0.811045 4.85472 0
M  V30 8703 N 854.342 -1.57594 -0.0133615 0
M  V30 8704 C 855.619 -1.81173 -0.737273 0
M  V30 8705 C 855.999 -0.861395 -1.92726 0
M  V30 8706 O 855.347 0.0929324 -2.28311 0
M  V30 8707 C 855.557 -3.29314 -1.15557 0
M  V30 8708 C 856.905 -3.94707 -1.56498 0
M  V30 8709 O 857.929 -3.33557 -1.24973 0
M  V30 8710 O 856.788 -5.02402 -2.15069 0
M  V30 8711 H 853.882 -0.745575 -0.357837 0
M  V30 8712 H 856.428 -1.69696 0.0110674 0
M  V30 8713 H 855.2 -3.90096 -0.30677 0
M  V30 8714 H 854.823 -3.45739 -1.96343 0
M  V30 8715 N 855.82 0.285905 -1.54985 0
M  V30 8716 C 857.048 1.03776 -1.78992 0
M  V30 8717 C 857.463 1.80402 -0.556814 0
M  V30 8718 O 856.82 1.76242 0.473801 0
M  V30 8719 C 856.871 2.0065 -3.00702 0
M  V30 8720 O 856.592 1.27131 -4.19249 0
M  V30 8721 C 858.093 2.87753 -3.37214 0
M  V30 8722 H 855.313 0.307126 -0.596586 0
M  V30 8723 H 857.857 0.3206 -2.01971 0
M  V30 8724 H 856.012 2.67847 -2.79887 0
M  V30 8725 H 856.426 1.92316 -4.8797 0
M  V30 8726 H 857.9 3.51548 -4.2558 0
M  V30 8727 H 858.377 3.56848 -2.56039 0
M  V30 8728 H 858.983 2.26065 -3.60242 0
M  V30 8729 N 857.298 1.47698 0.54982 0
M  V30 8730 C 858.23 1.56806 1.67166 0
M  V30 8731 C 859.243 0.453709 1.5635 0
M  V30 8732 O 860.432 0.723663 1.63173 0
M  V30 8733 C 857.532 1.4632 3.05686 0
M  V30 8734 C 856.705 2.72452 3.42182 0
M  V30 8735 C 855.764 2.55698 4.59897 0
M  V30 8736 O 854.79 3.29534 4.64108 0
M  V30 8737 N 855.992 1.64009 5.56849 0
M  V30 8738 H 858.757 2.53545 1.59797 0
M  V30 8739 H 856.318 1.44171 0.736635 0
M  V30 8740 H 858.31 1.32835 3.82279 0
M  V30 8741 H 856.88 0.57634 3.07241 0
M  V30 8742 H 856.1 3.00644 2.54964 0
M  V30 8743 H 857.388 3.56172 3.63344 0
M  V30 8744 H 856.786 1.03186 5.5621 0
M  V30 8745 H 855.343 1.56473 6.3274 0
M  V30 8746 N 858.776 -0.797141 1.35954 0
M  V30 8747 C 860.025 -1.54983 1.29086 0
M  V30 8748 C 860.338 -1.95167 -0.130003 0
M  V30 8749 O 861.544 -2.69596 -0.32101 0
M  V30 8750 C 860 -2.79738 2.26439 0
M  V30 8751 C 859.608 -2.46753 3.73921 0
M  V30 8752 C 861.352 -3.57733 2.28533 0
M  V30 8753 C 859.259 -3.67858 4.63071 0
M  V30 8754 H 858.189 -0.581766 0.479651 0
M  V30 8755 H 860.84 -0.87541 1.61273 0
M  V30 8756 H 859.222 -3.48939 1.87236 0
M  V30 8757 H 860.396 -1.85499 4.21814 0
M  V30 8758 H 858.711 -1.81985 3.74527 0
M  V30 8759 H 861.308 -4.47699 2.92351 0
M  V30 8760 H 861.651 -3.95754 1.29169 0
M  V30 8761 H 862.184 -2.95504 2.66313 0
M  V30 8762 H 858.923 -3.34939 5.63468 0
M  V30 8763 H 858.443 -4.28305 4.19898 0
M  V30 8764 H 860.122 -4.34977 4.78961 0
M  V30 8765 N 860.254 -1.20106 -1.0204 0
M  V30 8766 C 861.201 -0.946468 -2.10501 0
M  V30 8767 C 862.171 0.121902 -1.65652 0
M  V30 8768 O 863.356 -0.0220244 -1.90787 0
M  V30 8769 C 860.496 -0.500499 -3.41451 0
M  V30 8770 C 859.609 -1.63659 -3.998 0
M  V30 8771 C 858.744 -1.14131 -5.18794 0
M  V30 8772 C 857.783 -2.25074 -5.69217 0
M  V30 8773 N 856.92 -1.76791 -6.79477 0
M  V30 8774 H 861.76 -1.87506 -2.31615 0
M  V30 8775 H 859.297 -0.934693 -1.13587 0
M  V30 8776 H 861.255 -0.223276 -4.16602 0
M  V30 8777 H 859.885 0.391099 -3.20422 0
M  V30 8778 H 858.937 -2.02882 -3.21781 0
M  V30 8779 H 860.249 -2.47213 -4.33229 0
M  V30 8780 H 859.403 -0.819826 -6.01135 0
M  V30 8781 H 858.142 -0.275615 -4.86921 0
M  V30 8782 H 857.147 -2.58043 -4.85483 0
M  V30 8783 H 858.372 -3.12114 -6.03127 0
M  V30 8784 H 856.318 -0.925428 -6.4944 0
M  V30 8785 H 856.235 -2.53928 -7.12079 0
M  V30 8786 H 857.503 -1.47631 -7.65392 0
M  V30 8787 N 861.732 1.21287 -1.00634 0
M  V30 8788 C 862.978 1.90671 -0.690822 0
M  V30 8789 C 863.311 1.77996 0.776592 0
M  V30 8790 O 862.586 1.15748 1.5631 0
M  V30 8791 C 862.869 3.42426 -1.11428 0
M  V30 8792 C 862.722 3.64086 -2.64124 0
M  V30 8793 C 864.041 4.34851 -0.677686 0
M  V30 8794 H 861.16 0.692419 -0.252439 0
M  V30 8795 H 863.802 1.42893 -1.25226 0
M  V30 8796 H 861.952 3.83249 -0.636586 0
M  V30 8797 H 863.624 3.32582 -3.19667 0
M  V30 8798 H 861.867 3.07906 -3.05576 0
M  V30 8799 H 862.538 4.7042 -2.88806 0
M  V30 8800 H 865.014 4.01619 -1.0882 0
M  V30 8801 H 863.89 5.39675 -1.00213 0
M  V30 8802 H 864.151 4.4009 0.421125 0
M  V30 8803 N 863.21 0.781244 1.36873 0
M  V30 8804 C 864.438 0.361566 2.03716 0
M  V30 8805 C 864.853 -1.01937 1.58916 0
M  V30 8806 O 864.21 -1.65237 0.774783 0
M  V30 8807 C 864.261 0.406391 3.59208 0
M  V30 8808 O 863.982 1.73286 4.02372 0
M  V30 8809 C 865.483 -0.0236894 4.43294 0
M  V30 8810 H 862.703 0.150133 0.653988 0
M  V30 8811 H 865.247 1.05781 1.75016 0
M  V30 8812 H 863.402 -0.241364 3.86647 0
M  V30 8813 H 863.816 1.67804 4.96933 0
M  V30 8814 H 865.29 0.0588205 5.51969 0
M  V30 8815 H 865.767 -1.07529 4.25833 0
M  V30 8816 H 866.373 0.59624 4.211 0
M  V30 8817 N 864.689 -1.48329 0.532571 0
M  V30 8818 C 865.938 -2.017 -0.00259705 0
M  V30 8819 C 866.251 -1.41469 -1.35077 0
M  V30 8820 O 867.457 -1.86354 -1.97445 0
M  V30 8821 C 865.913 -3.59858 -0.0550179 0
M  V30 8822 C 865.521 -4.29073 1.28842 0
M  V30 8823 C 867.265 -4.21066 -0.538878 0
M  V30 8824 C 865.172 -5.79171 1.19644 0
M  V30 8825 H 864.102 -0.753985 -0.00474081 0
M  V30 8826 H 866.753 -1.70565 0.676739 0
M  V30 8827 H 865.135 -3.87846 -0.799486 0
M  V30 8828 H 866.309 -4.12755 2.04865 0
M  V30 8829 H 864.624 -3.79748 1.70822 0
M  V30 8830 H 867.221 -5.31026 -0.6257 0
M  V30 8831 H 867.564 -3.86559 -1.54525 0
M  V30 8832 H 868.097 -3.97517 0.149984 0
M  V30 8833 H 864.836 -6.18257 2.17805 0
M  V30 8834 H 864.356 -5.97895 0.477609 0
M  V30 8835 H 866.035 -6.40875 0.888186 0
M  V30 8836 N 866.167 -0.267825 -1.55308 0
M  V30 8837 C 867.578 0.231344 -1.85261 0
M  V30 8838 C 867.929 1.56006 -1.18982 0
M  V30 8839 O 867.054 2.1111 -0.475554 0
M  V30 8840 C 867.649 0.426537 -3.36104 0
M  V30 8841 C 866.208 0.869945 -3.66209 0
M  V30 8842 C 865.355 -0.0409522 -2.7727 0
M  V30 8843 H 868.306 -0.489821 -1.50952 0
M  V30 8844 H 868.327 1.26616 -3.58816 0
M  V30 8845 H 867.839 -0.540678 -3.84315 0
M  V30 8846 H 865.94 1.84889 -3.23492 0
M  V30 8847 H 866.053 0.712316 -4.73775 0
M  V30 8848 H 864.417 0.474097 -2.50249 0
M  V30 8849 H 865.2 -1.00392 -3.28293 0
M  V30 8850 N 867.645 1.57599 0.00500368 0
M  V30 8851 C 868.87 1.95026 0.705663 0
M  V30 8852 C 869.295 0.869643 1.6679 0
M  V30 8853 O 868.653 -0.172659 1.80476 0
M  V30 8854 C 868.701 3.31545 1.4181 0
M  V30 8855 O 867.805 3.25495 2.53232 0
M  V30 8856 H 867.146 0.636808 0.188074 0
M  V30 8857 H 869.676 2.04547 -0.046696 0
M  V30 8858 H 869.686 3.66996 1.78265 0
M  V30 8859 H 868.361 4.09751 0.712543 0
M  V30 8860 H 866.938 3.01714 2.19142 0
M  V30 8861 N 869.123 -0.277682 1.55134 0
M  V30 8862 C 870.369 -1.0114 1.7578 0
M  V30 8863 C 870.702 -1.86109 0.554719 0
M  V30 8864 O 869.977 -1.89275 -0.447813 0
M  V30 8865 C 870.26 -1.89789 3.06027 0
M  V30 8866 C 870.113 -1.07844 4.3668 0
M  V30 8867 C 871.432 -2.88577 3.32282 0
M  V30 8868 H 868.551 -0.366277 0.639539 0
M  V30 8869 H 871.193 -0.284155 1.87863 0
M  V30 8870 H 869.343 -2.51796 2.95856 0
M  V30 8871 H 871.015 -0.479432 4.58802 0
M  V30 8872 H 869.258 -0.381764 4.32117 0
M  V30 8873 H 869.929 -1.73179 5.24131 0
M  V30 8874 H 872.405 -2.36702 3.42215 0
M  V30 8875 H 871.281 -3.47749 4.2469 0
M  V30 8876 H 871.542 -3.63458 2.51696 0
M  V30 8877 N 870.601 -1.47988 -0.541979 0
M  V30 8878 C 871.564 -1.61148 -1.62984 0
M  V30 8879 C 872.564 -0.48553 -1.53295 0
M  V30 8880 O 873.754 -0.751012 -1.5718 0
M  V30 8881 C 870.886 -1.57038 -3.02576 0
M  V30 8882 H 872.079 -2.58138 -1.52659 0
M  V30 8883 H 869.632 -1.36405 -0.763106 0
M  V30 8884 H 870.367 -0.614807 -3.18419 0
M  V30 8885 H 870.152 -2.38769 -3.11018 0
M  V30 8886 H 871.642 -1.69416 -3.81691 0
M  V30 8887 N 872.079 0.78992 -1.36375 0
M  V30 8888 C 873.042 1.88414 -1.30509 0
M  V30 8889 C 874.042 1.59384 -0.2129 0
M  V30 8890 O 875.232 1.67805 -0.467651 0
M  V30 8891 C 872.364 3.25188 -1.02302 0
M  V30 8892 H 873.557 1.95031 -2.27822 0
M  V30 8893 H 871.11 0.987664 -1.2114 0
M  V30 8894 H 871.845 3.24254 -0.0544486 0
M  V30 8895 H 871.63 3.47647 -1.81338 0
M  V30 8896 H 873.12 4.05252 -1.00801 0
M  V30 8897 N 873.557 1.20646 1.01402 0
M  V30 8898 C 874.805 1.01618 1.74695 0
M  V30 8899 C 875.126 -0.452438 1.89679 0
M  V30 8900 O 874.396 -1.32693 1.44116 0
M  V30 8901 H 872.976 0.373013 0.647202 0
M  V30 8902 H 875.638 1.518 1.22241 0
M  V30 8903 H 874.734 1.47666 2.74957 0
M  V30 8904 N 875.035 -1.20752 1.01276 0
M  V30 8905 C 875.983 -2.25432 0.572989 0
M  V30 8906 C 876.977 -1.64935 -0.386354 0
M  V30 8907 O 878.183 -1.7816 -0.256696 0
M  V30 8908 H 874.558 -0.733229 0.166972 0
M  V30 8909 H 876.529 -2.59856 1.46687 0
M  V30 8910 C 875.278 -3.47615 -0.0768249 0
M  V30 8911 H 874.601 -3.94442 0.652354 0
M  V30 8912 H 876.041 -4.22572 -0.3477 0
M  V30 8913 C 874.5 -3.1003 -1.31845 0
M  V30 8914 O 875.03 -3.21216 -2.41211 0
M  V30 8915 N 873.236 -2.64616 -1.20111 0
M  V30 8916 H 872.783 -2.55714 -0.311184 0
M  V30 8917 H 872.741 -2.39838 -2.03286 0
M  V30 8918 N 876.513 -0.788492 -1.36457 0
M  V30 8919 C 877.743 -0.371825 -2.03227 0
M  V30 8920 C 878.151 1.01627 -1.59589 0
M  V30 8921 O 877.494 1.663 -0.780382 0
M  V30 8922 C 877.556 -0.355179 -3.57741 0
M  V30 8923 C 877.22 -1.69069 -4.24576 0
M  V30 8924 C 878.217 -2.64601 -4.47529 0
M  V30 8925 C 875.902 -1.96973 -4.62068 0
M  V30 8926 C 877.896 -3.86232 -5.07054 0
M  V30 8927 C 875.583 -3.18872 -5.2131 0
M  V30 8928 C 876.581 -4.1332 -5.43742 0
M  V30 8929 O 876.269 -5.3307 -6.0174 0
M  V30 8930 H 876.001 -0.151452 -0.658816 0
M  V30 8931 H 878.555 -1.06827 -1.75434 0
M  V30 8932 H 876.785 0.397753 -3.84649 0
M  V30 8933 H 878.474 0.0366955 -4.05883 0
M  V30 8934 H 879.24 -2.44329 -4.18961 0
M  V30 8935 H 875.119 -1.24277 -4.43933 0
M  V30 8936 H 878.663 -4.59965 -5.24478 0
M  V30 8937 H 874.56 -3.39022 -5.49304 0
M  V30 8938 H 875.328 -5.34121 -6.20207 0
M  V30 8939 N 877.991 1.48044 -0.54043 0
M  V30 8940 C 878.954 2.28273 0.205966 0
M  V30 8941 C 879.954 1.35983 0.858209 0
M  V30 8942 O 881.144 1.58776 0.716651 0
M  V30 8943 C 878.276 3.15174 1.29917 0
M  V30 8944 H 879.469 2.95727 -0.498555 0
M  V30 8945 H 877.022 1.53457 -0.296745 0
M  V30 8946 H 877.757 2.52374 2.03661 0
M  V30 8947 H 877.542 3.83074 0.836475 0
M  V30 8948 H 879.032 3.75666 1.82387 0
M  V30 8949 N 879.47 0.276058 1.55163 0
M  V30 8950 C 880.716 -0.340959 1.99913 0
M  V30 8951 C 881.049 -1.55434 1.16422 0
M  V30 8952 O 880.324 -1.93081 0.234517 0
M  V30 8953 C 880.607 -0.722211 3.52783 0
M  V30 8954 C 880.46 0.498575 4.47028 0
M  V30 8955 C 881.779 -1.5583 4.11589 0
M  V30 8956 H 878.898 -0.122455 0.726756 0
M  V30 8957 H 881.54 0.38319 1.86096 0
M  V30 8958 H 879.69 -1.33919 3.64689 0
M  V30 8959 H 881.362 1.13713 4.47065 0
M  V30 8960 H 879.605 1.13646 4.18649 0
M  V30 8961 H 880.276 0.188041 5.5168 0
M  V30 8962 H 882.752 -1.03722 4.02965 0
M  V30 8963 H 881.628 -1.79387 5.1876 0
M  V30 8964 H 881.889 -2.53963 3.61877 0
M  V30 8965 N 880.948 -1.576 0.00335426 0
M  V30 8966 C 881.895 -2.08632 -0.986975 0
M  V30 8967 C 882.865 -0.982491 -1.33927 0
M  V30 8968 O 884.05 -1.25513 -1.43705 0
M  V30 8969 C 881.19 -2.59705 -2.27261 0
M  V30 8970 C 880.303 -3.84002 -1.97905 0
M  V30 8971 C 879.438 -4.23563 -3.20574 0
M  V30 8972 C 878.477 -5.40688 -2.8692 0
M  V30 8973 N 877.614 -5.75526 -4.02136 0
M  V30 8974 H 882.454 -2.92977 -0.544855 0
M  V30 8975 H 879.991 -1.44831 -0.257376 0
M  V30 8976 H 881.949 -2.87395 -3.02423 0
M  V30 8977 H 880.579 -1.7823 -2.69136 0
M  V30 8978 H 879.631 -3.63199 -1.13096 0
M  V30 8979 H 880.943 -4.69261 -1.69102 0
M  V30 8980 H 880.097 -4.52554 -4.04079 0
M  V30 8981 H 878.836 -3.37019 -3.52518 0
M  V30 8982 H 877.841 -5.11417 -2.01822 0
M  V30 8983 H 879.066 -6.2891 -2.5622 0
M  V30 8984 H 877.012 -4.9194 -4.33971 0
M  V30 8985 H 876.929 -6.55367 -3.76869 0
M  V30 8986 H 878.197 -6.0911 -4.8642 0
M  V30 8987 N 882.426 0.269451 -1.5528 0
M  V30 8988 C 883.672 1.00206 -1.76314 0
M  V30 8989 C 884.005 1.85812 -0.564581 0
M  V30 8990 O 883.28 1.89509 0.437769 0
M  V30 8991 C 883.563 1.88163 -3.07029 0
M  V30 8992 C 883.416 1.05527 -4.37246 0
M  V30 8993 C 884.735 2.8681 -3.33808 0
M  V30 8994 H 881.854 0.36288 -0.641473 0
M  V30 8995 H 884.496 0.274188 -1.88011 0
M  V30 8996 H 882.646 2.50224 -2.97187 0
M  V30 8997 H 884.318 0.455094 -4.5905 0
M  V30 8998 H 882.561 0.358842 -4.32313 0
M  V30 8999 H 883.232 1.70397 -5.25042 0
M  V30 9000 H 885.708 2.34884 -3.43466 0
M  V30 9001 H 884.584 3.45492 -4.26528 0
M  V30 9002 H 884.845 3.62118 -2.5362 0
M  V30 9003 N 883.904 1.48273 0.534124 0
M  V30 9004 C 884.867 1.6201 1.62127 0
M  V30 9005 C 885.867 0.493653 1.53035 0
M  V30 9006 O 887.057 0.759337 1.56779 0
M  V30 9007 C 884.189 1.5864 3.01739 0
M  V30 9008 H 885.382 2.58944 1.51288 0
M  V30 9009 H 882.935 1.36808 0.755861 0
M  V30 9010 H 883.67 0.631685 3.18088 0
M  V30 9011 H 883.455 2.40415 3.09747 0
M  V30 9012 H 884.945 1.71438 3.80787 0
M  V30 9013 N 885.382 -0.782676 1.36792 0
M  V30 9014 C 886.345 -1.8772 1.31507 0
M  V30 9015 C 887.345 -1.59269 0.221349 0
M  V30 9016 O 888.535 -1.67555 0.476544 0
M  V30 9017 C 885.667 -3.24641 1.04025 0
M  V30 9018 H 886.86 -1.9382 2.28853 0
M  V30 9019 H 884.413 -0.981226 1.21662 0
M  V30 9020 H 885.148 -3.24221 0.0716439 0
M  V30 9021 H 884.933 -3.46681 1.8318 0
M  V30 9022 H 886.423 -4.04711 1.02949 0
M  V30 9023 N 886.86 -1.21182 -1.00761 0
M  V30 9024 C 888.085 -1.05411 -1.78615 0
M  V30 9025 C 888.51 0.391837 -1.83973 0
M  V30 9026 O 887.868 1.28256 -1.28141 0
M  V30 9027 C 887.916 -1.65285 -3.20489 0
M  V30 9028 O 887.02 -0.896558 -4.02536 0
M  V30 9029 H 886.361 -0.37116 -0.550578 0
M  V30 9030 H 888.891 -1.60669 -1.26676 0
M  V30 9031 H 888.901 -1.69397 -3.71172 0
M  V30 9032 H 887.576 -2.70514 -3.15904 0
M  V30 9033 H 886.153 -0.930335 -3.61108 0
M  V30 9034 N 888.338 1.20213 -1.01915 0
M  V30 9035 C 889.586 1.89272 -0.708552 0
M  V30 9036 C 889.907 1.79394 0.76438 0
M  V30 9037 O 889.177 1.198 1.54999 0
M  V30 9038 H 887.757 0.700628 -0.259094 0
M  V30 9039 H 890.419 1.45985 -1.29129 0
M  V30 9040 H 889.515 2.95841 -0.994215 0
M  V30 9041 N 889.816 0.795718 1.36037 0
M  V30 9042 C 891.062 0.371574 1.99367 0
M  V30 9043 C 891.395 -1.0557 1.62999 0
M  V30 9044 O 890.67 -1.73051 0.887895 0
M  V30 9045 C 890.953 0.542622 3.55988 0
M  V30 9046 C 890.806 2.01404 4.0219 0
M  V30 9047 C 892.125 -0.0384527 4.40083 0
M  V30 9048 H 889.244 0.136483 0.724252 0
M  V30 9049 H 891.886 1.00323 1.61355 0
M  V30 9050 H 890.036 0.0049053 3.885 0
M  V30 9051 H 891.708 2.6133 3.80137 0
M  V30 9052 H 889.951 2.51439 3.53498 0
M  V30 9053 H 890.622 2.08466 5.11122 0
M  V30 9054 H 893.098 0.420634 4.13968 0
M  V30 9055 H 891.974 0.111214 5.48787 0
M  V30 9056 H 892.235 -1.13116 4.27384 0
M  V30 9057 N 891.294 -1.47756 0.548274 0
M  V30 9058 C 892.242 -2.3158 -0.217584 0
M  V30 9059 C 893.236 -1.42372 -0.917957 0
M  V30 9060 O 894.442 -1.59184 -0.840259 0
M  V30 9061 H 890.817 -0.74671 -0.0890388 0
M  V30 9062 H 892.788 -2.94032 0.508719 0
M  V30 9063 C 891.537 -3.24834 -1.24008 0
M  V30 9064 H 890.86 -3.93435 -0.710572 0
M  V30 9065 H 892.3 -3.86336 -1.74701 0
M  V30 9066 C 890.759 -2.47724 -2.2833 0
M  V30 9067 O 891.289 -2.21522 -3.35098 0
M  V30 9068 N 889.495 -2.08891 -2.02022 0
M  V30 9069 H 889.042 -2.30401 -1.1521 0
M  V30 9070 H 889 -1.57613 -2.7204 0
M  V30 9071 N 892.772 -0.284283 -1.55015 0
M  V30 9072 C 893.997 0.335799 -2.04664 0
M  V30 9073 C 894.422 1.47999 -1.16094 0
M  V30 9074 O 893.78 1.8058 -0.161454 0
M  V30 9075 C 893.828 0.785615 -3.51938 0
M  V30 9076 O 892.932 1.89202 -3.66437 0
M  V30 9077 H 892.273 0.0680233 -0.660506 0
M  V30 9078 H 894.803 -0.421255 -2.00216 0
M  V30 9079 H 894.813 1.07892 -3.93476 0
M  V30 9080 H 893.488 -0.0514675 -4.15868 0
M  V30 9081 H 892.065 1.60055 -3.36804 0
M  V30 9082 N 894.251 1.57596 -0.0117121 0
M  V30 9083 C 895.199 2.1029 0.994035 0
M  V30 9084 C 896.193 1.02549 1.34833 0
M  V30 9085 O 897.399 1.21003 1.3326 0
M  V30 9086 H 893.774 0.671624 0.338268 0
M  V30 9087 H 895.745 2.93761 0.524147 0
M  V30 9088 C 894.494 2.63099 2.27319 0
M  V30 9089 H 893.817 3.45642 2.00927 0
M  V30 9090 H 895.257 3.03635 2.95942 0
M  V30 9091 C 893.716 1.55044 2.99104 0
M  V30 9092 O 894.246 0.940127 3.90544 0
M  V30 9093 N 892.452 1.27506 2.61133 0
M  V30 9094 H 891.999 1.77322 1.86855 0
M  V30 9095 H 891.957 0.554292 3.09475 0
M  V30 9096 N 895.729 -0.261212 1.5542 0
M  V30 9097 C 896.692 -1.30645 1.8832 0
M  V30 9098 C 897.692 -1.41782 0.758588 0
M  V30 9099 O 898.882 -1.40729 1.02669 0
M  V30 9100 C 896.014 -2.6862 2.09895 0
M  V30 9101 H 897.207 -1.02698 2.81768 0
M  V30 9102 H 894.76 -0.499838 1.48092 0
M  V30 9103 H 895.495 -3.0173 1.18868 0
M  V30 9104 H 895.28 -2.61921 2.91787 0
M  V30 9105 H 896.77 -3.44121 2.36581 0
M  V30 9106 N 897.207 -1.48554 -0.526253 0
M  V30 9107 C 898.437 -1.60197 -1.30463 0
M  V30 9108 C 898.845 -0.26278 -1.87366 0
M  V30 9109 O 898.188 0.758537 -1.67308 0
M  V30 9110 C 898.25 -2.59223 -2.49085 0
M  V30 9111 C 897.914 -4.04199 -2.13241 0
M  V30 9112 C 898.911 -4.91771 -1.68694 0
M  V30 9113 C 896.596 -4.49762 -2.2365 0
M  V30 9114 C 898.59 -6.22934 -1.35026 0
M  V30 9115 C 896.277 -5.80945 -1.89594 0
M  V30 9116 C 897.275 -6.67354 -1.45353 0
M  V30 9117 O 896.963 -7.96096 -1.11745 0
M  V30 9118 H 896.695 -0.54284 -0.402866 0
M  V30 9119 H 899.249 -1.95137 -0.641157 0
M  V30 9120 H 897.479 -2.19412 -3.18426 0
M  V30 9121 H 899.168 -2.60661 -3.11144 0
M  V30 9122 H 899.934 -4.57806 -1.6012 0
M  V30 9123 H 895.813 -3.8269 -2.5704 0
M  V30 9124 H 899.357 -6.90334 -1.00422 0
M  V30 9125 H 895.254 -6.14444 -1.9781 0
M  V30 9126 H 896.022 -8.08882 -1.25111 0
M  V30 9127 N 898.685 0.775411 -1.37205 0
M  V30 9128 C 899.633 1.90996 -1.32752 0
M  V30 9129 C 900.627 1.68006 -0.216907 0
M  V30 9130 O 901.833 1.7584 -0.384723 0
M  V30 9131 H 898.208 0.62803 -0.413621 0
M  V30 9132 H 900.179 1.91869 -2.28536 0
M  V30 9133 C 898.928 3.28211 -1.14772 0
M  V30 9134 H 898.251 3.46477 -1.99484 0
M  V30 9135 H 899.691 4.07907 -1.15706 0
M  V30 9136 C 898.15 3.3658 0.146852 0
M  V30 9137 O 898.68 3.85428 1.13173 0
M  V30 9138 N 896.886 2.89936 0.196305 0
M  V30 9139 H 896.433 2.50375 -0.605807 0
M  V30 9140 H 896.391 2.95916 1.06212 0
M  V30 9141 N 900.163 1.21714 1.00117 0
M  V30 9142 C 901.111 0.976937 2.11089 0
M  V30 9143 C 902.105 -0.0771295 1.69224 0
M  V30 9144 O 903.311 0.0745945 1.79845 0
M  V30 9145 H 899.686 0.298687 0.690138 0
M  V30 9146 H 901.657 1.91881 2.28526 0
M  V30 9147 C 900.406 0.562369 3.43122 0
M  V30 9148 H 899.729 1.36509 3.75773 0
M  V30 9149 H 901.169 0.433642 4.21777 0
M  V30 9150 C 899.628 -0.727148 3.28959 0
M  V30 9151 O 900.158 -1.78171 3.60025 0
M  V30 9152 N 898.364 -0.695129 2.82164 0
M  V30 9153 H 897.911 0.163346 2.57082 0
M  V30 9154 H 897.869 -1.55822 2.73069 0
M  V30 9155 N 901.641 -1.19671 1.02551 0
M  V30 9156 C 902.888 -1.89268 0.720002 0
M  V30 9157 C 903.216 -1.79411 -0.751127 0
M  V30 9158 O 902.471 -1.17859 -1.5623 0
M  V30 9159 C 902.77 -3.39647 1.11241 0
M  V30 9160 C 902.436 -3.69706 2.58125 0
M  V30 9161 C 901.098 -3.7762 2.98256 0
M  V30 9162 C 903.45 -3.83301 3.53171 0
M  V30 9163 C 900.778 -3.96594 4.32354 0
M  V30 9164 C 903.13 -4.03788 4.86968 0
M  V30 9165 C 901.794 -4.09934 5.26793 0
M  V30 9166 H 901.064 -0.692579 0.263467 0
M  V30 9167 H 903.711 -1.41738 1.28774 0
M  V30 9168 H 902.016 -3.89052 0.463234 0
M  V30 9169 H 903.713 -3.91809 0.853602 0
M  V30 9170 H 900.303 -3.64152 2.26033 0
M  V30 9171 H 904.487 -3.76534 3.2332 0
M  V30 9172 H 899.743 -3.9959 4.6275 0
M  V30 9173 H 903.917 -4.1325 5.60533 0
M  V30 9174 H 901.544 -4.24389 6.30712 0
M  V30 9175 N 903.119 -0.802921 -1.35613 0
M  V30 9176 C 904.347 -0.39393 -2.03115 0
M  V30 9177 C 904.762 0.993961 -1.60517 0
M  V30 9178 O 904.119 1.63984 -0.800973 0
M  V30 9179 C 904.17 -0.463486 -3.58516 0
M  V30 9180 O 903.891 -1.79666 -3.99565 0
M  V30 9181 C 905.392 -0.0468377 -4.43275 0
M  V30 9182 H 902.612 -0.160519 -0.651517 0
M  V30 9183 H 905.156 -1.08552 -1.73311 0
M  V30 9184 H 903.311 0.179821 -3.86982 0
M  V30 9185 H 903.725 -1.75688 -4.942 0
M  V30 9186 H 905.199 -0.146626 -5.51805 0
M  V30 9187 H 905.676 1.00741 -4.2749 0
M  V30 9188 H 906.282 -0.663158 -4.20098 0
M  V30 9189 N 904.597 1.47463 -0.556102 0
M  V30 9190 C 905.846 2.01678 -0.029492 0
M  V30 9191 C 906.159 1.436 1.32809 0
M  V30 9192 O 907.365 1.89472 1.94455 0
M  V30 9193 C 905.821 3.599 -0.00223937 0
M  V30 9194 C 905.429 4.26969 -1.35651 0
M  V30 9195 C 907.173 4.2187 0.471822 0
M  V30 9196 C 905.08 5.77194 -1.28843 0
M  V30 9197 H 904.01 0.753965 -0.00725504 0
M  V30 9198 H 906.661 1.69467 -0.703789 0
M  V30 9199 H 905.043 3.89068 0.737682 0
M  V30 9200 H 906.217 4.09444 -2.11406 0
M  V30 9201 H 904.532 3.76983 -1.76842 0
M  V30 9202 H 907.129 5.31955 0.541139 0
M  V30 9203 H 907.472 3.88968 1.48356 0
M  V30 9204 H 908.005 3.97228 -0.213207 0
M  V30 9205 H 904.744 6.14713 -2.27613 0
M  V30 9206 H 904.264 5.9706 -0.572668 0
M  V30 9207 H 905.943 6.3938 -0.990031 0
M  V30 9208 N 906.075 0.2925 1.54862 0
M  V30 9209 C 907.005 -0.580677 2.26165 0
M  V30 9210 C 907.986 -1.14485 1.25806 0
M  V30 9211 O 909.171 -1.17577 1.54562 0
M  V30 9212 C 906.301 -1.75668 2.99596 0
M  V30 9213 C 905.255 -1.32325 4.07031 0
M  V30 9214 C 904.581 -2.58374 4.68131 0
M  V30 9215 C 905.881 -0.460703 5.20264 0
M  V30 9216 H 907.575 0.0140075 2.99397 0
M  V30 9217 H 905.121 0.00817706 1.43998 0
M  V30 9218 H 907.074 -2.37356 3.48195 0
M  V30 9219 H 905.798 -2.37747 2.23928 0
M  V30 9220 H 904.457 -0.729477 3.59269 0
M  V30 9221 H 904.105 -3.18749 3.89112 0
M  V30 9222 H 903.805 -2.30078 5.40683 0
M  V30 9223 H 905.329 -3.2088 5.19489 0
M  V30 9224 H 906.743 -0.983037 5.64809 0
M  V30 9225 H 905.14 -0.271881 5.99484 0
M  V30 9226 H 906.21 0.516304 4.82143 0
M  V30 9227 N 907.553 -1.57587 0.0200696 0
M  V30 9228 C 908.781 -1.95718 -0.670964 0
M  V30 9229 C 909.196 -0.896081 -1.6618 0
M  V30 9230 O 908.553 0.123037 -1.82085 0
M  V30 9231 C 908.604 -3.33904 -1.38529 0
M  V30 9232 O 908.325 -4.35943 -0.434167 0
M  V30 9233 C 909.826 -3.86614 -2.16898 0
M  V30 9234 H 907.046 -0.644819 -0.185606 0
M  V30 9235 H 909.59 -2.04354 0.0771495 0
M  V30 9236 H 907.745 -3.26515 -2.08487 0
M  V30 9237 H 908.159 -5.16001 -0.940378 0
M  V30 9238 H 909.633 -4.85673 -2.62346 0
M  V30 9239 H 910.11 -3.20379 -3.00423 0
M  V30 9240 H 910.716 -3.97243 -1.51916 0
M  V30 9241 N 909.032 0.252966 -1.55557 0
M  V30 9242 C 910.28 0.979912 -1.76754 0
M  V30 9243 C 910.601 1.86083 -0.582944 0
M  V30 9244 O 909.871 1.91742 0.401497 0
M  V30 9245 H 908.451 0.364805 -0.651864 0
M  V30 9246 H 911.113 0.272372 -1.92987 0
M  V30 9247 H 910.209 1.60518 -2.67657 0
M  V30 9248 N 910.51 1.48831 0.518367 0
M  V30 9249 C 911.787 1.47933 1.27966 0
M  V30 9250 C 912.167 0.197393 2.10175 0
M  V30 9251 O 911.515 -0.820656 2.13255 0
M  V30 9252 C 911.725 2.74816 2.15121 0
M  V30 9253 C 913.073 3.23613 2.74881 0
M  V30 9254 O 914.097 2.75814 2.254 0
M  V30 9255 O 912.956 4.06818 3.64913 0
M  V30 9256 H 910.05 0.591316 0.578164 0
M  V30 9257 H 912.596 1.61077 0.534065 0
M  V30 9258 H 911.368 3.59621 1.54234 0
M  V30 9259 H 910.991 2.64449 2.96905 0
M  V30 9260 N 911.988 -0.768124 1.37614 0
M  V30 9261 C 912.92 -1.89076 1.29548 0
M  V30 9262 C 913.933 -1.61433 0.21056 0
M  V30 9263 O 915.122 -1.72283 0.466992 0
M  V30 9264 C 912.222 -3.24388 0.981102 0
M  V30 9265 C 911.395 -3.79649 2.17222 0
M  V30 9266 C 910.454 -4.93444 1.82754 0
M  V30 9267 O 909.48 -5.0884 2.5509 0
M  V30 9268 N 910.682 -5.75319 0.773819 0
M  V30 9269 H 913.447 -1.9651 2.26283 0
M  V30 9270 H 911.008 -0.947399 1.31286 0
M  V30 9271 H 913 -3.98038 0.731301 0
M  V30 9272 H 911.57 -3.12433 0.102203 0
M  V30 9273 H 910.79 -2.97735 2.58355 0
M  V30 9274 H 912.078 -4.13302 2.96748 0
M  V30 9275 H 911.476 -5.65433 0.173644 0
M  V30 9276 H 910.033 -6.4918 0.583882 0
M  V30 9277 N 913.466 -1.22244 -0.994698 0
M  V30 9278 C 914.712 -1.04746 -1.73655 0
M  V30 9279 C 915.045 0.41668 -1.89677 0
M  V30 9280 O 914.32 1.30897 -1.43862 0
M  V30 9281 C 914.603 -1.75716 -3.14318 0
M  V30 9282 C 914.456 -3.29714 -3.05955 0
M  V30 9283 C 915.775 -1.50809 -4.13455 0
M  V30 9284 H 912.894 -0.381921 -0.630322 0
M  V30 9285 H 915.536 -1.50559 -1.15897 0
M  V30 9286 H 913.686 -1.3677 -3.63629 0
M  V30 9287 H 915.358 -3.78093 -2.64279 0
M  V30 9288 H 913.601 -3.59484 -2.42804 0
M  V30 9289 H 914.272 -3.74547 -4.05485 0
M  V30 9290 H 916.748 -1.84636 -3.72892 0
M  V30 9291 H 915.624 -2.02964 -5.09997 0
M  V30 9292 H 915.885 -0.440292 -4.39902 0
M  V30 9293 N 914.944 1.19125 -1.03184 0
M  V30 9294 C 916.172 1.92838 -0.74975 0
M  V30 9295 C 916.587 1.75667 0.691851 0
M  V30 9296 O 915.944 1.0805 1.47076 0
M  V30 9297 C 915.995 3.44509 -1.09525 0
M  V30 9298 O 915.716 3.6113 -2.48025 0
M  V30 9299 C 917.217 4.35338 -0.836397 0
M  V30 9300 H 914.437 0.61246 -0.274105 0
M  V30 9301 H 916.981 1.5118 -1.37712 0
M  V30 9302 H 915.136 3.83988 -0.513006 0
M  V30 9303 H 915.55 4.54959 -2.60984 0
M  V30 9304 H 917.024 5.4035 -1.12808 0
M  V30 9305 H 917.501 4.38602 0.229102 0
M  V30 9306 H 918.107 4.01544 -1.40152 0
M  V30 9307 N 916.422 0.810101 1.35185 0
M  V30 9308 C 917.668 0.392698 1.98962 0
M  V30 9309 C 918.001 -1.03835 1.64109 0
M  V30 9310 O 917.276 -1.721 0.9062 0
M  V30 9311 C 917.559 0.580349 3.55393 0
M  V30 9312 C 917.412 2.05658 4.00031 0
M  V30 9313 C 918.731 0.00822618 4.40099 0
M  V30 9314 H 915.85 0.144157 0.722764 0
M  V30 9315 H 918.492 1.02029 1.60281 0
M  V30 9316 H 916.642 0.0461106 3.88473 0
M  V30 9317 H 918.314 2.65348 3.77344 0
M  V30 9318 H 916.557 2.55174 3.50811 0
M  V30 9319 H 917.228 2.13875 5.08883 0
M  V30 9320 H 919.704 0.464517 4.13499 0
M  V30 9321 H 918.58 0.169414 5.48638 0
M  V30 9322 H 918.841 -1.08576 4.2856 0
M  V30 9323 N 917.9 -1.47166 0.563914 0
M  V30 9324 C 919.316 -1.58018 0.224173 0
M  V30 9325 C 919.516 -1.56163 -1.27339 0
M  V30 9326 O 918.572 -1.4686 -2.05398 0
M  V30 9327 C 919.885 -2.88236 0.856762 0
M  V30 9328 C 921.433 -3.01833 0.82861 0
M  V30 9329 C 921.908 -4.34761 1.44039 0
M  V30 9330 N 923.399 -4.41413 1.40388 0
M  V30 9331 C 924.134 -5.42845 1.84681 0
M  V30 9332 N 923.63 -6.51052 2.3686 0
M  V30 9333 N 925.423 -5.33931 1.75711 0
M  V30 9334 H 917.574 -1.46615 1.53681 0
M  V30 9335 H 919.837 -0.698195 0.64127 0
M  V30 9336 H 919.543 -2.95349 1.90949 0
M  V30 9337 H 919.417 -3.75537 0.353766 0
M  V30 9338 H 921.804 -2.94312 -0.215451 0
M  V30 9339 H 921.885 -2.16056 1.36943 0
M  V30 9340 H 921.529 -4.43037 2.48355 0
M  V30 9341 H 921.459 -5.1928 0.874953 0
M  V30 9342 H 923.95 -3.63811 1.02227 0
M  V30 9343 H 924.263 -7.24633 2.68564 0
M  V30 9344 H 922.608 -6.51924 2.40875 0
M  V30 9345 H 925.799 -4.48295 1.34718 0
M  V30 9346 H 925.972 -6.12841 2.10547 0
M  V30 9347 N 919.378 -0.300708 -1.54705 0
M  V30 9348 C 920.625 0.308654 -2.00134 0
M  V30 9349 C 920.953 1.53918 -1.1891 0
M  V30 9350 O 920.208 1.94054 -0.253263 0
M  V30 9351 C 920.507 0.710108 -3.50275 0
M  V30 9352 C 920.173 -0.418651 -4.48952 0
M  V30 9353 C 918.835 -0.728524 -4.75653 0
M  V30 9354 C 921.187 -1.17797 -5.07714 0
M  V30 9355 C 918.515 -1.80085 -5.58378 0
M  V30 9356 C 920.867 -2.24022 -5.91606 0
M  V30 9357 C 919.531 -2.55616 -6.16617 0
M  V30 9358 H 918.801 0.112945 -0.732342 0
M  V30 9359 H 921.448 -0.419744 -1.86843 0
M  V30 9360 H 919.753 1.51859 -3.61173 0
M  V30 9361 H 921.45 1.19277 -3.8285 0
M  V30 9362 H 918.04 -0.167034 -4.28274 0
M  V30 9363 H 922.224 -0.951835 -4.87087 0
M  V30 9364 H 917.48 -2.05036 -5.75995 0
M  V30 9365 H 921.654 -2.83317 -6.36164 0
M  V30 9366 H 919.281 -3.38839 -6.80509 0
M  V30 9367 N 920.856 1.57574 -0.0284266 0
M  V30 9368 C 922.102 1.92056 0.651327 0
M  V30 9369 C 922.435 0.905092 1.71819 0
M  V30 9370 O 921.71 -0.0722703 1.94366 0
M  V30 9371 C 921.993 3.37021 1.26841 0
M  V30 9372 C 921.846 4.49304 0.211157 0
M  V30 9373 C 923.165 3.81936 2.18662 0
M  V30 9374 H 920.284 0.698428 0.235304 0
M  V30 9375 H 922.926 1.89807 -0.0855435 0
M  V30 9376 H 921.076 3.39068 1.89644 0
M  V30 9377 H 922.748 4.5939 -0.419379 0
M  V30 9378 H 920.991 4.31317 -0.463445 0
M  V30 9379 H 921.662 5.47764 0.682518 0
M  V30 9380 H 924.138 3.8162 1.65847 0
M  V30 9381 H 923.014 4.84064 2.58792 0
M  V30 9382 H 923.275 3.174 3.07749 0
M  V30 9383 N 922.334 -0.244713 1.55689 0
M  V30 9384 C 923.58 -0.973886 1.77886 0
M  V30 9385 C 923.913 -1.8489 0.594071 0
M  V30 9386 O 923.188 -1.90182 -0.407564 0
M  V30 9387 C 923.471 -1.83255 3.09983 0
M  V30 9388 C 923.324 -0.985571 4.3887 0
M  V30 9389 C 924.643 -2.81464 3.38329 0
M  V30 9390 H 921.762 -0.352629 0.647165 0
M  V30 9391 H 924.404 -0.244243 1.88424 0
M  V30 9392 H 922.554 -2.45464 3.01131 0
M  V30 9393 H 924.226 -0.382005 4.59716 0
M  V30 9394 H 922.469 -0.29002 4.32829 0
M  V30 9395 H 923.14 -1.62022 5.27686 0
M  V30 9396 H 925.616 -2.2939 3.47159 0
M  V30 9397 H 924.492 -3.38663 4.31971 0
M  V30 9398 H 924.753 -3.58037 2.59349 0
M  V30 9399 N 923.813 -1.49104 -0.510467 0
M  V30 9400 C 924.761 -1.65547 -1.63392 0
M  V30 9401 C 925.755 -0.521522 -1.61172 0
M  V30 9402 O 926.961 -0.700865 -1.65795 0
M  V30 9403 H 923.336 -0.521843 -0.541464 0
M  V30 9404 H 925.307 -2.59864 -1.46673 0
M  V30 9405 C 924.056 -1.73051 -3.01577 0
M  V30 9406 H 923.379 -2.59676 -3.03987 0
M  V30 9407 H 924.819 -1.88594 -3.79748 0
M  V30 9408 C 923.278 -0.47328 -3.33559 0
M  V30 9409 O 923.808 0.405239 -3.99651 0
M  V30 9410 N 922.014 -0.339074 -2.88615 0
M  V30 9411 H 921.561 -1.05497 -2.35007 0
M  V30 9412 H 921.519 0.501061 -3.10382 0
M  V30 9413 N 925.291 0.760815 -1.38019 0
M  V30 9414 C 926.239 1.89578 -1.34771 0
M  V30 9415 C 927.233 1.67766 -0.234714 0
M  V30 9416 O 928.439 1.75423 -0.403352 0
M  V30 9417 H 924.814 0.623608 -0.420258 0
M  V30 9418 H 926.785 1.89434 -2.30558 0
M  V30 9419 C 925.534 3.26976 -1.18246 0
M  V30 9420 H 924.857 3.44342 -2.03147 0
M  V30 9421 H 926.297 4.06657 -1.20026 0
M  V30 9422 C 924.756 3.36717 0.111145 0
M  V30 9423 O 925.286 3.86607 1.09079 0
M  V30 9424 N 923.492 2.90128 0.165542 0
M  V30 9425 H 923.039 2.49719 -0.632328 0
M  V30 9426 H 922.997 2.97026 1.03067 0
M  V30 9427 N 926.769 1.22769 0.988202 0
M  V30 9428 C 927.732 1.00325 2.06076 0
M  V30 9429 C 928.732 -0.0320618 1.60768 0
M  V30 9430 O 929.922 0.206912 1.72967 0
M  V30 9431 C 927.054 0.516376 3.36966 0
M  V30 9432 H 928.247 1.95499 2.27421 0
M  V30 9433 H 925.8 1.04704 1.16047 0
M  V30 9434 H 926.535 -0.439498 3.21308 0
M  V30 9435 H 926.32 1.26337 3.71189 0
M  V30 9436 H 927.81 0.37974 4.1587 0
M  V30 9437 N 928.247 -1.18576 1.03814 0
M  V30 9438 C 929.472 -1.92978 0.759873 0
M  V30 9439 C 929.897 -1.75514 -0.676486 0
M  V30 9440 O 929.255 -1.06359 -1.46824 0
M  V30 9441 C 929.303 -3.42507 1.12788 0
M  V30 9442 O 928.407 -4.1163 0.251886 0
M  V30 9443 H 927.748 -0.602129 0.279886 0
M  V30 9444 H 930.278 -1.50383 1.3873 0
M  V30 9445 H 930.288 -3.93206 1.08872 0
M  V30 9446 H 928.963 -3.5454 2.17427 0
M  V30 9447 H 927.54 -3.7125 0.350441 0
M  V30 9448 N 929.725 -0.817259 -1.34754 0
M  V30 9449 C 930.953 -0.415451 -2.02686 0
M  V30 9450 C 931.368 0.97688 -1.61563 0
M  V30 9451 O 930.725 1.63125 -0.818321 0
M  V30 9452 C 930.776 -0.501486 -3.58005 0
M  V30 9453 O 930.497 -1.83893 -3.97637 0
M  V30 9454 C 931.998 -0.0938504 -4.43201 0
M  V30 9455 H 929.218 -0.16742 -0.649778 0
M  V30 9456 H 931.762 -1.10384 -1.7215 0
M  V30 9457 H 929.917 0.138766 -3.87151 0
M  V30 9458 H 930.331 -1.8092 -4.92309 0
M  V30 9459 H 931.805 -0.205145 -5.51619 0
M  V30 9460 H 932.282 0.962011 -4.28535 0
M  V30 9461 H 932.888 -0.707677 -4.19371 0
M  V30 9462 N 931.203 1.46865 -0.571711 0
M  V30 9463 C 932.431 2.06818 -0.0583975 0
M  V30 9464 C 932.846 1.42218 1.24175 0
M  V30 9465 O 932.203 0.523655 1.74826 0
M  V30 9466 C 932.254 3.61281 0.125673 0
M  V30 9467 O 931.975 4.23462 -1.123 0
M  V30 9468 C 933.476 4.38137 0.674604 0
M  V30 9469 H 930.696 0.668948 -0.052438 0
M  V30 9470 H 933.24 1.88656 -0.789251 0
M  V30 9471 H 931.395 3.78908 0.806707 0
M  V30 9472 H 931.809 5.16192 -0.929869 0
M  V30 9473 H 933.283 5.46845 0.752626 0
M  V30 9474 H 933.76 4.05419 1.68915 0
M  V30 9475 H 934.366 4.2529 0.0287979 0
M  V30 9476 N 932.681 0.308908 1.54543 0
M  V30 9477 C 933.611 -0.556657 2.26768 0
M  V30 9478 C 934.592 -1.13145 1.27013 0
M  V30 9479 O 935.777 -1.15931 1.558 0
M  V30 9480 C 932.907 -1.72481 3.01443 0
M  V30 9481 C 931.861 -1.28001 4.08411 0
M  V30 9482 C 931.187 -2.53395 4.70845 0
M  V30 9483 C 932.487 -0.405497 5.20724 0
M  V30 9484 H 934.181 0.0457618 2.99365 0
M  V30 9485 H 931.727 0.0234495 1.43981 0
M  V30 9486 H 933.68 -2.3365 3.50693 0
M  V30 9487 H 932.404 -2.35359 2.26437 0
M  V30 9488 H 931.063 -0.69133 3.60022 0
M  V30 9489 H 930.711 -3.14604 3.92471 0
M  V30 9490 H 930.411 -2.2433 5.43093 0
M  V30 9491 H 931.935 -3.15352 5.22863 0
M  V30 9492 H 933.349 -0.923076 5.6582 0
M  V30 9493 H 931.746 -0.208282 5.99738 0
M  V30 9494 H 932.816 0.567412 4.81569 0
M  V30 9495 N 934.159 -1.57557 0.0367827 0
M  V30 9496 C 935.407 -1.91735 -0.63892 0
M  V30 9497 C 935.728 -0.914515 -1.72226 0
M  V30 9498 O 934.998 0.0428248 -1.95853 0
M  V30 9499 H 933.578 -0.707738 -0.23899 0
M  V30 9500 H 936.24 -1.94708 0.0863931 0
M  V30 9501 H 935.336 -2.92568 -1.08676 0
M  V30 9502 N 935.637 0.236453 -1.55816 0
M  V30 9503 C 936.569 1.31602 -1.87653 0
M  V30 9504 C 937.582 1.43782 -0.763584 0
M  V30 9505 O 938.771 1.44945 -1.04178 0
M  V30 9506 C 935.871 2.69342 -2.05689 0
M  V30 9507 C 935.044 2.79298 -3.36617 0
M  V30 9508 C 934.103 3.97952 -3.44268 0
M  V30 9509 O 933.129 3.86989 -4.17406 0
M  V30 9510 N 934.331 5.11594 -2.74321 0
M  V30 9511 H 937.096 1.04623 -2.80845 0
M  V30 9512 H 934.657 0.426534 -1.5618 0
M  V30 9513 H 936.649 3.47074 -2.08138 0
M  V30 9514 H 935.219 2.88984 -1.19192 0
M  V30 9515 H 934.439 1.8816 -3.46395 0
M  V30 9516 H 935.727 2.82908 -4.22895 0
M  V30 9517 H 935.125 5.23394 -2.14651 0
M  V30 9518 H 933.682 5.87422 -2.8245 0
M  V30 9519 N 937.115 1.49373 0.502552 0
M  V30 9520 C 938.063 1.66411 1.62512 0
M  V30 9521 C 939.057 0.530062 1.60893 0
M  V30 9522 O 940.263 0.709648 1.65421 0
M  V30 9523 H 936.638 0.524707 0.538689 0
M  V30 9524 H 938.609 2.60639 1.45293 0
M  V30 9525 C 937.358 1.74648 3.00655 0
M  V30 9526 H 936.681 2.61285 3.02606 0
M  V30 9527 H 938.121 1.90605 3.78742 0
M  V30 9528 C 936.58 0.490963 3.33303 0
M  V30 9529 O 937.11 -0.384039 3.9986 0
M  V30 9530 N 935.316 0.354375 2.88431 0
M  V30 9531 H 934.863 1.06742 2.34444 0
M  V30 9532 H 934.821 -0.484593 3.10643 0
M  V30 9533 N 938.594 -0.753485 1.38421 0
M  V30 9534 C 939.524 -1.8808 1.38377 0
M  V30 9535 C 940.505 -1.68258 0.249664 0
M  V30 9536 O 941.69 -1.88848 0.45276 0
M  V30 9537 C 938.82 -3.25608 1.20818 0
M  V30 9538 C 937.774 -3.60032 2.31433 0
M  V30 9539 C 937.1 -4.96297 1.9898 0
M  V30 9540 C 938.4 -3.64898 3.73694 0
M  V30 9541 H 940.094 -1.88375 2.32713 0
M  V30 9542 H 937.64 -0.90489 1.12017 0
M  V30 9543 H 939.593 -4.04127 1.19412 0
M  V30 9544 H 938.317 -3.25793 0.229433 0
M  V30 9545 H 936.976 -2.83831 2.32025 0
M  V30 9546 H 936.624 -4.93043 0.995889 0
M  V30 9547 H 936.324 -5.20298 2.73063 0
M  V30 9548 H 937.848 -5.77196 1.99193 0
M  V30 9549 H 939.262 -4.33531 3.75132 0
M  V30 9550 H 937.659 -4.00407 4.46983 0
M  V30 9551 H 938.729 -2.65124 4.06002 0
M  V30 9552 N 940.072 -1.23292 -0.981677 0
M  V30 9553 C 941.302 -1.0893 -1.7555 0
M  V30 9554 C 941.71 0.362219 -1.857 0
M  V30 9555 O 941.053 1.2624 -1.33451 0
M  V30 9556 C 941.115 -1.6389 -3.19969 0
M  V30 9557 C 940.779 -3.12632 -3.33332 0
M  V30 9558 C 941.776 -4.0994 -3.19758 0
M  V30 9559 C 939.461 -3.52314 -3.58022 0
M  V30 9560 C 941.455 -5.44915 -3.30676 0
M  V30 9561 C 939.142 -4.87434 -3.6858 0
M  V30 9562 C 940.14 -5.83544 -3.54916 0
M  V30 9563 O 939.828 -7.16209 -3.65102 0
M  V30 9564 H 939.56 -0.381901 -0.557788 0
M  V30 9565 H 942.114 -1.63586 -1.24213 0
M  V30 9566 H 940.344 -1.03653 -3.72549 0
M  V30 9567 H 942.033 -1.45023 -3.79108 0
M  V30 9568 H 942.799 -3.80625 -3.00582 0
M  V30 9569 H 938.678 -2.78022 -3.67729 0
M  V30 9570 H 942.222 -6.19913 -3.19928 0
M  V30 9571 H 938.119 -5.16426 -3.87265 0
M  V30 9572 H 938.887 -7.23941 -3.81905 0
M  V30 9573 N 941.55 1.18024 -1.04442 0
M  V30 9574 C 942.48 2.23988 -0.659683 0
M  V30 9575 C 943.461 1.6669 0.338904 0
M  V30 9576 O 944.646 1.92971 0.21817 0
M  V30 9577 C 941.776 3.4729 -0.0257672 0
M  V30 9578 C 940.73 4.17362 -0.948299 0
M  V30 9579 C 940.056 5.34401 -0.17866 0
M  V30 9580 C 941.356 4.70435 -2.26909 0
M  V30 9581 H 943.05 2.56425 -1.54553 0
M  V30 9582 H 940.596 1.23256 -0.744575 0
M  V30 9583 H 942.549 4.20627 0.255131 0
M  V30 9584 H 941.273 3.14098 0.894981 0
M  V30 9585 H 939.932 3.45928 -1.21364 0
M  V30 9586 H 939.58 4.97458 0.744614 0
M  V30 9587 H 939.28 5.8222 -0.793294 0
M  V30 9588 H 940.804 6.10526 0.0951315 0
M  V30 9589 H 942.218 5.35447 -2.04864 0
M  V30 9590 H 940.615 5.28803 -2.83703 0
M  V30 9591 H 941.685 3.87653 -2.91296 0
M  V30 9592 N 943.028 0.824394 1.34319 0
M  V30 9593 C 944.256 0.426194 2.02463 0
M  V30 9594 C 944.671 -0.968298 1.62078 0
M  V30 9595 O 944.028 -1.62689 0.82696 0
M  V30 9596 C 944.079 0.520465 3.57734 0
M  V30 9597 O 943.8 1.86 3.96656 0
M  V30 9598 C 945.301 0.117353 4.43145 0
M  V30 9599 H 942.521 0.170864 0.648881 0
M  V30 9600 H 945.065 1.11296 1.71562 0
M  V30 9601 H 943.22 -0.118233 3.8722 0
M  V30 9602 H 943.634 1.83528 4.91343 0
M  V30 9603 H 945.108 0.234395 5.51502 0
M  V30 9604 H 945.585 -0.939271 4.29039 0
M  V30 9605 H 946.191 0.729908 4.1899 0
M  V30 9606 N 944.506 -1.46559 0.579492 0
M  V30 9607 C 945.754 -2.02 0.0637157 0
M  V30 9608 C 946.075 -1.45378 -1.29962 0
M  V30 9609 O 945.345 -0.637262 -1.85245 0
M  V30 9610 H 943.925 -0.746717 0.0205638 0
M  V30 9611 H 946.587 -1.79702 0.754544 0
M  V30 9612 H 945.683 -3.12099 -0.00770254 0
M  V30 9613 N 945.984 -0.3171 -1.54377 0
M  V30 9614 C 946.932 0.567371 -2.25574 0
M  V30 9615 C 947.926 1.12387 -1.2675 0
M  V30 9616 O 949.132 1.07266 -1.44548 0
M  V30 9617 H 945.507 0.201605 -0.724472 0
M  V30 9618 H 947.478 -0.0554644 -2.98348 0
M  V30 9619 C 946.227 1.71984 -3.02187 0
M  V30 9620 H 945.55 1.30086 -3.78044 0
M  V30 9621 H 946.99 2.31443 -3.5526 0
M  V30 9622 C 945.449 2.6336 -2.10103 0
M  V30 9623 O 945.979 3.64899 -1.67962 0
M  V30 9624 N 944.185 2.3145 -1.75725 0
M  V30 9625 H 943.732 1.48921 -2.10191 0
M  V30 9626 H 943.69 2.92852 -1.14391 0
M  V30 9627 N 947.462 1.57535 -0.0451378 0
M  V30 9628 C 948.708 1.92736 0.630921 0
M  V30 9629 C 949.041 0.923265 1.70849 0
M  V30 9630 O 948.316 -0.0516512 1.94431 0
M  V30 9631 C 948.599 3.38348 1.23259 0
M  V30 9632 C 948.452 4.49503 0.16349 0
M  V30 9633 C 949.771 3.84233 2.14599 0
M  V30 9634 H 946.89 0.700884 0.227883 0
M  V30 9635 H 949.532 1.89706 -0.10567 0
M  V30 9636 H 947.682 3.41061 1.86037 0
M  V30 9637 H 949.354 4.58919 -0.46808 0
M  V30 9638 H 947.597 4.30802 -0.509166 0
M  V30 9639 H 948.268 5.48457 0.624382 0
M  V30 9640 H 950.744 3.83358 1.6179 0
M  V30 9641 H 949.62 4.86781 2.53644 0
M  V30 9642 H 949.881 3.20646 3.04366 0
M  V30 9643 N 948.94 -0.228186 1.55939 0
M  V30 9644 C 949.903 -1.26621 1.91049 0
M  V30 9645 C 950.903 -1.40141 0.788491 0
M  V30 9646 O 952.093 -1.3852 1.05631 0
M  V30 9647 C 949.225 -2.64108 2.15545 0
M  V30 9648 H 950.418 -0.966978 2.83883 0
M  V30 9649 H 947.971 -0.468313 1.49119 0
M  V30 9650 H 948.706 -2.99141 1.25241 0
M  V30 9651 H 948.491 -2.55673 2.97277 0
M  V30 9652 H 949.981 -3.39025 2.43827 0
M  V30 9653 N 950.418 -1.49637 -0.494624 0
M  V30 9654 C 951.328 -1.69522 -1.62172 0
M  V30 9655 C 952.344 -0.577894 -1.64123 0
M  V30 9656 O 953.52 -0.853382 -1.82426 0
M  V30 9657 C 950.585 -1.7633 -2.9851 0
M  V30 9658 C 949.646 -2.99944 -3.07135 0
M  V30 9659 C 948.879 -3.06419 -4.36971 0
M  V30 9660 O 949.102 -2.20312 -5.26136 0
M  V30 9661 O 948.036 -3.9894 -4.507 0
M  V30 9662 H 951.862 -2.65017 -1.48324 0
M  V30 9663 H 949.447 -1.33454 -0.671603 0
M  V30 9664 H 951.329 -1.83125 -3.7953 0
M  V30 9665 H 950.004 -0.840155 -3.12607 0
M  V30 9666 H 948.911 -2.98664 -2.2528 0
M  V30 9667 H 950.244 -3.9176 -2.97968 0
M  V30 9668 N 951.896 0.746133 -1.38819 0
M  V30 9669 C 952.826 1.87344 -1.39372 0
M  V30 9670 C 953.807 1.68123 -0.258583 0
M  V30 9671 O 954.992 1.88606 -0.462769 0
M  V30 9672 C 952.122 3.24962 -1.22543 0
M  V30 9673 C 951.076 3.58799 -2.33339 0
M  V30 9674 C 950.402 4.95235 -2.01609 0
M  V30 9675 C 951.702 3.62911 -3.75624 0
M  V30 9676 H 953.396 1.87138 -2.33709 0
M  V30 9677 H 950.942 0.898937 -1.12495 0
M  V30 9678 H 952.895 4.03488 -1.21554 0
M  V30 9679 H 951.619 3.25667 -0.246707 0
M  V30 9680 H 950.278 2.82596 -2.33527 0
M  V30 9681 H 949.926 4.92508 -1.02202 0
M  V30 9682 H 949.626 5.18843 -2.75819 0
M  V30 9683 H 951.15 5.76131 -2.02251 0
M  V30 9684 H 952.564 4.31535 -3.77426 0
M  V30 9685 H 950.961 3.98031 -4.491 0
M  V30 9686 H 952.031 2.62967 -4.07402 0
M  V30 9687 N 953.375 1.23811 0.975125 0
M  V30 9688 C 954.623 1.07124 1.71373 0
M  V30 9689 C 954.944 -0.391864 1.91022 0
M  V30 9690 O 954.214 -1.28041 1.48265 0
M  V30 9691 H 952.794 0.393415 0.635007 0
M  V30 9692 H 955.456 1.55612 1.17349 0
M  V30 9693 H 954.552 1.56338 2.7012 0
M  V30 9694 N 954.853 -1.17469 1.05066 0
M  V30 9695 C 955.801 -2.23495 0.644418 0
M  V30 9696 C 956.795 -1.66081 -0.333685 0
M  V30 9697 O 958.001 -1.78887 -0.199886 0
M  V30 9698 H 954.376 -0.727546 0.190214 0
M  V30 9699 H 956.347 -2.55058 1.5488 0
M  V30 9700 C 955.096 -3.47684 0.0338051 0
M  V30 9701 H 954.419 -3.92167 0.777513 0
M  V30 9702 H 955.859 -4.23464 -0.213086 0
M  V30 9703 C 954.318 -3.14067 -1.21915 0
M  V30 9704 O 954.848 -3.28728 -2.3087 0
M  V30 9705 N 953.054 -2.68304 -1.11631 0
M  V30 9706 H 952.601 -2.56574 -0.229673 0
M  V30 9707 H 952.559 -2.46184 -1.95553 0
M  V30 9708 N 956.331 -0.831506 -1.3388 0
M  V30 9709 C 957.577 -0.433509 -1.98727 0
M  V30 9710 C 957.932 0.994508 -1.64704 0
M  V30 9711 O 957.225 1.68458 -0.912815 0
M  V30 9712 C 957.419 -0.582733 -3.52617 0
M  V30 9713 C 957.248 -2.0237 -4.01592 0
M  V30 9714 C 956.018 -2.6574 -4.29779 0
M  V30 9715 C 958.216 -2.99152 -4.18345 0
M  V30 9716 N 956.198 -4.00988 -4.64846 0
M  V30 9717 C 957.569 -4.19329 -4.56687 0
M  V30 9718 C 959.624 -2.95655 -4.00615 0
M  V30 9719 C 958.327 -5.36475 -4.79152 0
M  V30 9720 C 960.353 -4.12025 -4.24252 0
M  V30 9721 C 959.715 -5.30955 -4.62889 0
M  V30 9722 H 955.814 -0.20691 -0.75413 0
M  V30 9723 H 958.398 -1.07802 -1.62132 0
M  V30 9724 H 956.569 0.0319301 -3.88387 0
M  V30 9725 H 958.301 -0.156899 -4.04396 0
M  V30 9726 H 955.056 -2.16923 -4.21 0
M  V30 9727 H 955.48 -4.7069 -4.86601 0
M  V30 9728 H 960.122 -2.04842 -3.69864 0
M  V30 9729 H 957.84 -6.27839 -5.08767 0
M  V30 9730 H 961.426 -4.10728 -4.1206 0
M  V30 9731 H 960.306 -6.19504 -4.80817 0
M  V30 9732 N 957.809 1.4625 -0.587256 0
M  V30 9733 C 959.034 2.07252 -0.0784517 0
M  V30 9734 C 959.459 1.43239 1.21919 0
M  V30 9735 O 958.817 0.517791 1.73749 0
M  V30 9736 C 958.865 3.60534 0.0691037 0
M  V30 9737 O 957.969 3.96773 1.12448 0
M  V30 9738 H 957.31 0.660825 -0.064859 0
M  V30 9739 H 959.84 1.87819 -0.811491 0
M  V30 9740 H 959.85 4.0708 0.273826 0
M  V30 9741 H 958.525 4.06516 -0.878514 0
M  V30 9742 H 957.102 3.6193 0.897852 0
M  V30 9743 N 959.287 0.325282 1.54207 0
M  V30 9744 C 960.515 -0.27869 2.05014 0
M  V30 9745 C 960.93 -1.45649 1.20133 0
M  V30 9746 O 960.287 -1.81014 0.232398 0
M  V30 9747 C 960.338 -0.711486 3.54429 0
M  V30 9748 O 960.059 0.419458 4.36087 0
M  V30 9749 C 961.56 -1.37809 4.21336 0
M  V30 9750 H 958.78 -0.0570388 0.668571 0
M  V30 9751 H 961.324 0.47197 1.98979 0
M  V30 9752 H 959.479 -1.41212 3.60746 0
M  V30 9753 H 959.893 0.0781037 5.24442 0
M  V30 9754 H 961.367 -1.63184 5.27328 0
M  V30 9755 H 961.844 -2.32593 3.72555 0
M  V30 9756 H 962.45 -0.719987 4.19161 0
M  V30 9757 N 960.765 -1.57509 0.0534917 0
M  V30 9758 C 962.013 -1.92402 -0.618548 0
M  V30 9759 C 962.334 -0.93273 -1.71246 0
M  V30 9760 O 961.604 0.0220495 -1.95888 0
M  V30 9761 H 960.184 -0.710233 -0.23147 0
M  V30 9762 H 962.846 -1.94606 0.10704 0
M  V30 9763 H 961.942 -2.93704 -1.05566 0
M  V30 9764 N 962.243 0.219913 -1.56058 0
M  V30 9765 C 963.468 0.965073 -1.83579 0
M  V30 9766 C 963.893 1.77092 -0.634024 0
M  V30 9767 O 963.251 1.76434 0.417205 0
M  V30 9768 C 963.299 1.85705 -3.09105 0
M  V30 9769 O 962.403 2.95261 -2.87914 0
M  V30 9770 H 961.744 0.273173 -0.605204 0
M  V30 9771 H 964.274 0.23273 -2.03272 0
M  V30 9772 H 964.284 2.26655 -3.39252 0
M  V30 9773 H 962.959 1.26476 -3.96203 0
M  V30 9774 H 961.536 2.58246 -2.69005 0
M  V30 9775 N 963.721 1.49897 0.486681 0
M  V30 9776 C 964.949 1.63837 1.26353 0
M  V30 9777 C 965.364 0.315428 1.86146 0
M  V30 9778 O 964.721 -0.700831 1.68507 0
M  V30 9779 C 964.772 2.71792 2.38351 0
M  V30 9780 O 964.493 3.98956 1.81013 0
M  V30 9781 C 965.994 2.96566 3.2949 0
M  V30 9782 H 963.214 0.551158 0.382709 0
M  V30 9783 H 965.758 1.96023 0.582694 0
M  V30 9784 H 963.913 2.42344 3.02238 0
M  V30 9785 H 964.327 4.58536 2.54647 0
M  V30 9786 H 965.801 3.75803 4.04322 0
M  V30 9787 H 966.278 2.07031 3.87343 0
M  V30 9788 H 966.884 3.27485 2.71355 0
M  V30 9789 N 965.199 -0.738761 1.39212 0
M  V30 9790 C 966.162 -1.83441 1.37412 0
M  V30 9791 C 967.162 -1.58484 0.271908 0
M  V30 9792 O 968.352 -1.65954 0.529609 0
M  V30 9793 C 965.484 -3.21167 1.143 0
M  V30 9794 H 966.677 -1.86441 2.34904 0
M  V30 9795 H 964.23 -0.942023 1.24722 0
M  V30 9796 H 964.965 -3.23829 0.174756 0
M  V30 9797 H 964.75 -3.40678 1.94116 0
M  V30 9798 H 966.24 -4.01231 1.15773 0
M  V30 9799 N 966.677 -1.24326 -0.968545 0
M  V30 9800 C 967.926 -1.07647 -1.70572 0
M  V30 9801 C 968.239 0.384821 -1.91777 0
M  V30 9802 O 969.445 0.671782 -2.63058 0
M  V30 9803 C 967.901 -1.87799 -3.07017 0
M  V30 9804 C 967.509 -3.38333 -2.93658 0
M  V30 9805 C 969.253 -1.79647 -3.84613 0
M  V30 9806 C 967.16 -4.10831 -4.25407 0
M  V30 9807 H 966.09 -0.399216 -0.639642 0
M  V30 9808 H 968.741 -1.484 -1.07934 0
M  V30 9809 H 967.123 -1.3986 -3.7048 0
M  V30 9810 H 968.297 -3.93845 -2.39213 0
M  V30 9811 H 966.612 -3.47427 -2.29528 0
M  V30 9812 H 969.209 -2.31116 -4.82172 0
M  V30 9813 H 969.552 -0.761553 -4.09275 0
M  V30 9814 H 970.085 -2.25261 -3.27875 0
M  V30 9815 H 966.824 -5.14679 -4.05939 0
M  V30 9816 H 966.344 -3.60105 -4.79671 0
M  V30 9817 H 968.023 -4.17783 -4.94031 0
M  V30 9818 N 968.156 1.1691 -1.05688 0
M  V30 9819 C 969.404 1.86922 -0.768409 0
M  V30 9820 C 969.725 1.81735 0.706921 0
M  V30 9821 O 968.995 1.24671 1.51109 0
M  V30 9822 H 967.575 0.69203 -0.281253 0
M  V30 9823 H 970.237 1.41803 -1.33708 0
M  V30 9824 H 969.333 2.92528 -1.08783 0
M  V30 9825 N 969.634 0.838594 1.33437 0
M  V30 9826 C 971.045 0.490934 1.8013 0
M  V30 9827 C 971.396 -0.990024 1.6939 0
M  V30 9828 O 970.521 -1.77139 1.24302 0
M  V30 9829 C 971.116 0.884347 3.27055 0
M  V30 9830 C 969.675 0.588829 3.71766 0
M  V30 9831 C 968.822 1.09282 2.54858 0
M  V30 9832 H 971.773 1.02732 1.20962 0
M  V30 9833 H 971.794 0.194283 3.80004 0
M  V30 9834 H 971.306 1.96225 3.34839 0
M  V30 9835 H 969.407 -0.479018 3.69508 0
M  V30 9836 H 969.52 1.14387 4.65245 0
M  V30 9837 H 967.884 0.513702 2.49466 0
M  V30 9838 H 968.667 2.1775 2.65405 0
M  V30 9839 N 971.112 -1.45937 0.595003 0
M  V30 9840 C 972.075 -2.2888 -0.121102 0
M  V30 9841 C 973.075 -1.39075 -0.807149 0
M  V30 9842 O 974.265 -1.61326 -0.657228 0
M  V30 9843 C 971.397 -3.19778 -1.1813 0
M  V30 9844 H 972.59 -2.93673 0.607968 0
M  V30 9845 H 970.143 -1.5225 0.353495 0
M  V30 9846 H 970.878 -2.59759 -1.94154 0
M  V30 9847 H 970.663 -3.85914 -0.693724 0
M  V30 9848 H 972.153 -3.82176 -1.68319 0
M  V30 9849 N 972.59 -0.333456 -1.54032 0
M  V30 9850 C 973.837 0.266133 -2.00744 0
M  V30 9851 C 974.165 1.51361 -1.22148 0
M  V30 9852 O 973.42 1.93473 -0.294368 0
M  V30 9853 C 973.719 0.63565 -3.51702 0
M  V30 9854 C 973.385 -0.513786 -4.47963 0
M  V30 9855 C 972.047 -0.829253 -4.74001 0
M  V30 9856 C 974.399 -1.2854 -5.05101 0
M  V30 9857 C 971.727 -1.91888 -5.54433 0
M  V30 9858 C 974.079 -2.3652 -5.86721 0
M  V30 9859 C 972.743 -2.68637 -6.11057 0
M  V30 9860 H 972.013 0.097385 -0.734573 0
M  V30 9861 H 974.66 -0.459282 -1.85911 0
M  V30 9862 H 972.965 1.44163 -3.64313 0
M  V30 9863 H 974.662 1.11129 -3.85294 0
M  V30 9864 H 971.252 -0.25784 -4.27824 0
M  V30 9865 H 975.436 -1.05494 -4.84958 0
M  V30 9866 H 970.692 -2.17208 -5.71516 0
M  V30 9867 H 974.866 -2.96747 -6.30011 0
M  V30 9868 H 972.493 -3.53197 -6.73169 0
M  V30 9869 N 974.068 1.57479 -0.061844 0
M  V30 9870 C 975.016 2.13346 0.926629 0
M  V30 9871 C 976.01 1.06787 1.31502 0
M  V30 9872 O 977.216 1.25181 1.29343 0
M  V30 9873 H 973.591 0.682046 0.316729 0
M  V30 9874 H 975.562 2.95279 0.430424 0
M  V30 9875 C 974.311 2.70198 2.18834 0
M  V30 9876 H 973.634 3.51859 1.89829 0
M  V30 9877 H 975.074 3.12897 2.86132 0
M  V30 9878 C 973.533 1.64481 2.9402 0
M  V30 9879 O 974.063 1.0639 3.87355 0
M  V30 9880 N 972.269 1.35749 2.56944 0
M  V30 9881 H 971.816 1.83177 1.81119 0
M  V30 9882 H 971.774 0.652469 3.07555 0
M  V30 9883 N 975.546 -0.211634 1.56173 0
M  V30 9884 C 976.478 -1.286 1.89723 0
M  V30 9885 C 977.491 -1.42549 0.786361 0
M  V30 9886 O 978.68 -1.4327 1.06471 0
M  V30 9887 C 975.78 -2.66036 2.09948 0
M  V30 9888 C 974.953 -2.73908 3.41018 0
M  V30 9889 C 974.012 -3.92425 3.50555 0
M  V30 9890 O 973.038 -3.803 4.2351 0
M  V30 9891 N 974.24 -5.07165 2.82426 0
M  V30 9892 H 977.005 -1.00142 2.82474 0
M  V30 9893 H 974.566 -0.401633 1.56839 0
M  V30 9894 H 976.558 -3.43719 2.13634 0
M  V30 9895 H 975.128 -2.87052 1.23774 0
M  V30 9896 H 974.348 -1.82625 3.49345 0
M  V30 9897 H 975.636 -2.76145 4.27342 0
M  V30 9898 H 975.034 -5.19913 2.2295 0
M  V30 9899 H 973.591 -5.82855 2.9176 0
M  V30 9900 N 977.024 -1.50153 -0.478725 0
M  V30 9901 C 978.27 -1.60998 -1.23318 0
M  V30 9902 C 978.603 -0.305868 -1.91776 0
M  V30 9903 O 977.878 0.692158 -1.81767 0
M  V30 9904 C 978.161 -2.78495 -2.28282 0
M  V30 9905 C 978.014 -4.18767 -1.64178 0
M  V30 9906 C 979.333 -2.91569 -3.2966 0
M  V30 9907 H 976.452 -0.585983 -0.446982 0
M  V30 9908 H 979.094 -1.82514 -0.528063 0
M  V30 9909 H 977.244 -2.60281 -2.8842 0
M  V30 9910 H 978.916 -4.48552 -1.07696 0
M  V30 9911 H 977.159 -4.23379 -0.94514 0
M  V30 9912 H 977.83 -4.96894 -2.40417 0
M  V30 9913 H 980.306 -3.08219 -2.79536 0
M  V30 9914 H 979.182 -3.75419 -4.0044 0
M  V30 9915 H 979.443 -2.01859 -3.93326 0
M  V30 9916 N 978.502 0.731368 -1.39602 0
M  V30 9917 C 979.751 1.48647 -1.36334 0
M  V30 9918 C 980.064 1.95565 0.0367383 0
M  V30 9919 O 981.27 2.7082 0.192017 0
M  V30 9920 C 979.726 2.68616 -2.39528 0
M  V30 9921 C 979.334 2.28632 -3.85268 0
M  V30 9922 C 981.078 3.46422 -2.45341 0
M  V30 9923 C 978.985 3.45345 -4.80095 0
M  V30 9924 H 977.915 0.558218 -0.506861 0
M  V30 9925 H 980.566 0.797467 -1.65266 0
M  V30 9926 H 978.948 3.39609 -2.03671 0
M  V30 9927 H 980.122 1.65162 -4.30184 0
M  V30 9928 H 978.437 1.63909 -3.82783 0
M  V30 9929 H 981.034 4.33241 -3.13379 0
M  V30 9930 H 981.377 3.8914 -1.47904 0
M  V30 9931 H 981.91 2.82461 -2.80108 0
M  V30 9932 H 978.649 3.07674 -5.78807 0
M  V30 9933 H 978.169 4.07784 -4.39855 0
M  V30 9934 H 979.848 4.1163 -4.99169 0
M  V30 9935 N 979.98 1.24838 0.961938 0
M  V30 9936 C 980.93 1.01276 2.04272 0
M  V30 9937 C 981.914 -0.0478239 1.60829 0
M  V30 9938 O 983.106 0.166616 1.76214 0
M  V30 9939 C 980.235 0.625659 3.37551 0
M  V30 9940 C 979.321 1.72262 3.87539 0
M  V30 9941 N 979.712 2.95644 4.104 0
M  V30 9942 C 978.01 1.60146 4.16256 0
M  V30 9943 C 978.711 3.66796 4.51482 0
M  V30 9944 N 977.687 2.94383 4.56989 0
M  V30 9945 H 981.489 1.94956 2.19931 0
M  V30 9946 H 979.003 1.15049 1.14619 0
M  V30 9947 H 981 0.438072 4.14592 0
M  V30 9948 H 979.66 -0.303887 3.23275 0
M  V30 9949 H 980.671 3.31764 3.97685 0
M  V30 9950 H 977.348 0.740353 4.10883 0
M  V30 9951 H 978.738 4.72664 4.77534 0
M  V30 9952 N 981.458 -1.16348 1.06306 0
M  V30 9953 C 982.39 -2.20316 0.631929 0
M  V30 9954 C 983.403 -1.59819 -0.310133 0
M  V30 9955 O 984.592 -1.78213 -0.101103 0
M  V30 9956 C 981.692 -3.3877 -0.0937645 0
M  V30 9957 C 980.865 -4.28826 0.861816 0
M  V30 9958 C 979.924 -5.25908 0.175346 0
M  V30 9959 O 978.95 -5.63363 0.813039 0
M  V30 9960 N 980.152 -5.70307 -1.08305 0
M  V30 9961 H 982.917 -2.57925 1.52626 0
M  V30 9962 H 980.478 -1.31358 0.946392 0
M  V30 9963 H 982.47 -4.00759 -0.563412 0
M  V30 9964 H 981.04 -2.99666 -0.889904 0
M  V30 9965 H 980.26 -3.64098 1.51083 0
M  V30 9966 H 981.548 -4.85875 1.51007 0
M  V30 9967 H 980.946 -5.4197 -1.62127 0
M  V30 9968 H 979.503 -6.34387 -1.49656 0
M  V30 9969 N 982.937 -0.845659 -1.3299 0
M  V30 9970 C 984.167 -0.457686 -2.01467 0
M  V30 9971 C 984.575 0.947664 -1.63756 0
M  V30 9972 O 983.918 1.62841 -0.850213 0
M  V30 9973 C 983.98 -0.506589 -3.55913 0
M  V30 9974 C 983.644 -1.86924 -4.17023 0
M  V30 9975 C 984.641 -2.83344 -4.35904 0
M  V30 9976 C 982.326 -2.16394 -4.53298 0
M  V30 9977 C 984.32 -4.07391 -4.90216 0
M  V30 9978 C 982.007 -3.40695 -5.07316 0
M  V30 9979 C 983.005 -4.3601 -5.25722 0
M  V30 9980 O 982.693 -5.58112 -5.7859 0
M  V30 9981 H 982.425 -0.179258 -0.651799 0
M  V30 9982 H 984.979 -1.14172 -1.70745 0
M  V30 9983 H 983.209 0.234253 -3.8599 0
M  V30 9984 H 984.898 -0.135487 -4.05674 0
M  V30 9985 H 985.664 -2.61879 -4.08221 0
M  V30 9986 H 981.543 -1.42994 -4.38262 0
M  V30 9987 H 985.087 -4.81796 -5.04498 0
M  V30 9988 H 980.984 -3.62014 -5.3443 0
M  V30 9989 H 981.752 -5.59946 -5.96995 0
M  V30 9990 N 984.415 1.45619 -0.602734 0
M  V30 9991 C 985.826 1.85814 -0.181636 0
M  V30 9992 C 986.177 1.5037 1.26029 0
M  V30 9993 O 985.302 0.928068 1.95489 0
M  V30 9994 C 985.897 3.37258 -0.322866 0
M  V30 9995 C 984.456 3.76375 0.043504 0
M  V30 9996 C 983.603 2.69585 -0.649561 0
M  V30 9997 H 986.554 1.36489 -0.809721 0
M  V30 9998 H 986.575 3.77874 0.446279 0
M  V30 9999 H 986.087 3.63024 -1.37241 0
M  V30 10000 H 984.188 3.56226 1.09241 0
M  V30 10001 H 984.301 4.77843 -0.346765 0
M  V30 10002 H 982.665 2.54549 -0.087706 0
M  V30 10003 H 983.448 2.98188 -1.70115 0
M  V30 10004 N 985.893 0.34162 1.53853 0
M  V30 10005 C 987.121 -0.256929 2.05299 0
M  V30 10006 C 987.536 -1.44366 1.21671 0
M  V30 10007 O 986.893 -1.80758 0.251584 0
M  V30 10008 C 986.944 -0.673854 3.55164 0
M  V30 10009 O 986.665 0.465687 4.35618 0
M  V30 10010 C 988.166 -1.33332 4.22773 0
M  V30 10011 H 985.386 -0.0499445 0.669139 0
M  V30 10012 H 987.93 0.493048 1.98467 0
M  V30 10013 H 986.085 -1.37378 3.62224 0
M  V30 10014 H 986.499 0.133723 5.2433 0
M  V30 10015 H 987.973 -1.57582 5.29029 0
M  V30 10016 H 988.45 -2.28628 3.75001 0
M  V30 10017 H 989.056 -0.675489 4.19901 0
M  V30 10018 N 987.371 -1.57444 0.0701946 0
M  V30 10019 C 988.617 -1.94528 -0.594177 0
M  V30 10020 C 988.972 -0.949898 -1.67316 0
M  V30 10021 O 988.265 0.0280668 -1.91579 0
M  V30 10022 C 988.459 -3.36044 -1.21694 0
M  V30 10023 C 988.288 -4.49256 -0.199806 0
M  V30 10024 C 987.058 -5.04843 0.214963 0
M  V30 10025 C 989.256 -5.11217 0.562312 0
M  V30 10026 N 987.238 -6.01595 1.22297 0
M  V30 10027 C 988.609 -6.03453 1.42284 0
M  V30 10028 C 990.664 -4.94043 0.618555 0
M  V30 10029 C 989.367 -6.80359 2.33461 0
M  V30 10030 C 991.393 -5.71591 1.51783 0
M  V30 10031 C 990.755 -6.63474 2.36604 0
M  V30 10032 H 986.854 -0.758941 -0.1885 0
M  V30 10033 H 989.438 -1.94145 0.146965 0
M  V30 10034 H 987.609 -3.37168 -1.92801 0
M  V30 10035 H 989.341 -3.60368 -1.84165 0
M  V30 10036 H 986.096 -4.73303 -0.167835 0
M  V30 10037 H 986.52 -6.5467 1.72443 0
M  V30 10038 H 991.162 -4.22794 -0.0230235 0
M  V30 10039 H 988.88 -7.50886 2.98656 0
M  V30 10040 H 992.466 -5.60324 1.56616 0
M  V30 10041 H 991.346 -7.22432 3.0506 0
M  V30 10042 N 988.849 0.203349 -1.56283 0
M  V30 10043 C 990.079 0.940061 -1.83974 0
M  V30 10044 C 990.487 1.77703 -0.649486 0
M  V30 10045 O 989.83 1.79487 0.391189 0
M  V30 10046 C 989.892 1.89249 -3.05655 0
M  V30 10047 C 989.556 1.23828 -4.39904 0
M  V30 10048 C 990.553 0.619231 -5.16199 0
M  V30 10049 C 988.238 1.2446 -4.86636 0
M  V30 10050 C 990.232 0.0152287 -6.37398 0
M  V30 10051 C 987.919 0.636764 -6.07773 0
M  V30 10052 C 988.917 0.0231481 -6.82996 0
M  V30 10053 O 988.605 -0.575187 -8.0184 0
M  V30 10054 H 988.337 0.280199 -0.615194 0
M  V30 10055 H 990.891 0.218111 -2.04239 0
M  V30 10056 H 989.121 2.65392 -2.81254 0
M  V30 10057 H 990.81 2.4963 -3.20062 0
M  V30 10058 H 991.576 0.606545 -4.81192 0
M  V30 10059 H 987.455 1.71161 -4.28048 0
M  V30 10060 H 990.999 -0.464333 -6.96053 0
M  V30 10061 H 986.896 0.646924 -6.4225 0
M  V30 10062 H 987.664 -0.471284 -8.17142 0
M  V30 10063 N 990.327 1.50405 0.470755 0
M  V30 10064 C 991.557 1.64928 1.24428 0
M  V30 10065 C 991.965 0.332139 1.86262 0
M  V30 10066 O 991.308 -0.695919 1.70008 0
M  V30 10067 C 991.37 2.6829 2.39293 0
M  V30 10068 C 991.034 4.11835 1.98093 0
M  V30 10069 C 992.031 4.97693 1.50326 0
M  V30 10070 C 989.716 4.57753 2.06803 0
M  V30 10071 C 991.71 6.27516 1.11813 0
M  V30 10072 C 989.397 5.87582 1.67902 0
M  V30 10073 C 990.395 6.72289 1.20485 0
M  V30 10074 O 990.083 7.99694 0.821219 0
M  V30 10075 H 989.815 0.557418 0.382442 0
M  V30 10076 H 992.369 1.97382 0.568292 0
M  V30 10077 H 990.599 2.31079 3.10063 0
M  V30 10078 H 992.288 2.7203 3.01255 0
M  V30 10079 H 993.054 4.63434 1.43018 0
M  V30 10080 H 988.933 3.91966 2.42659 0
M  V30 10081 H 992.477 6.93586 0.747317 0
M  V30 10082 H 988.374 6.21362 1.74869 0
M  V30 10083 H 989.142 8.12968 0.950038 0
M  V30 10084 N 991.805 -0.723954 1.39988 0
M  V30 10085 C 993.082 -1.4763 1.28316 0
M  V30 10086 C 993.462 -2.10852 -0.102302 0
M  V30 10087 O 992.81 -1.9948 -1.11445 0
M  V30 10088 C 993.02 -2.51878 2.41574 0
M  V30 10089 C 994.368 -3.17948 2.81415 0
M  V30 10090 O 995.392 -2.62195 2.41106 0
M  V30 10091 O 994.251 -4.18858 3.51027 0
M  V30 10092 H 991.345 -0.656092 0.50346 0
M  V30 10093 H 993.891 -0.75684 1.51888 0
M  V30 10094 H 992.663 -2.03618 3.34149 0
M  V30 10095 H 992.286 -3.3137 2.19727 0
M  V30 10096 N 993.283 -1.25346 -0.955304 0
M  V30 10097 C 994.529 -1.10218 -1.70235 0
M  V30 10098 C 994.862 0.356124 -1.90907 0
M  V30 10099 O 994.137 1.26253 -1.47954 0
M  V30 10100 C 994.42 -1.85627 -3.08569 0
M  V30 10101 C 994.273 -3.39281 -2.95311 0
M  V30 10102 C 995.592 -1.63886 -4.08448 0
M  V30 10103 H 992.711 -0.401781 -0.617852 0
M  V30 10104 H 995.353 -1.5417 -1.11048 0
M  V30 10105 H 993.503 -1.48269 -3.59094 0
M  V30 10106 H 995.175 -3.8631 -2.52116 0
M  V30 10107 H 993.418 -3.67027 -2.31244 0
M  V30 10108 H 994.089 -3.87258 -3.93364 0
M  V30 10109 H 996.565 -1.96406 -3.6683 0
M  V30 10110 H 995.441 -2.19087 -5.03281 0
M  V30 10111 H 995.702 -0.580021 -4.38279 0
M  V30 10112 N 994.761 1.15782 -1.06922 0
M  V30 10113 C 995.986 1.90896 -0.810771 0
M  V30 10114 C 996.411 1.77246 0.629714 0
M  V30 10115 O 995.769 1.10215 1.43953 0
M  V30 10116 C 995.817 3.39397 -1.21829 0
M  V30 10117 O 994.921 4.10818 -0.360934 0
M  V30 10118 H 994.262 0.594497 -0.295752 0
M  V30 10119 H 996.792 1.46652 -1.42669 0
M  V30 10120 H 996.802 3.90181 -1.19259 0
M  V30 10121 H 995.477 3.4865 -2.2675 0
M  V30 10122 H 994.054 3.7019 -0.448748 0
M  V30 10123 N 996.239 0.8527 1.3254 0
M  V30 10124 C 997.485 0.455798 1.97612 0
M  V30 10125 C 997.818 -0.985616 1.6733 0
M  V30 10126 O 997.093 -1.69129 0.960493 0
M  V30 10127 C 997.376 0.69312 3.53366 0
M  V30 10128 C 997.229 2.18281 3.93285 0
M  V30 10129 C 998.548 0.148236 4.3985 0
M  V30 10130 H 995.667 0.167078 0.717812 0
M  V30 10131 H 998.309 1.07076 1.56954 0
M  V30 10132 H 996.459 0.169677 3.88129 0
M  V30 10133 H 998.131 2.77218 3.68711 0
M  V30 10134 H 996.374 2.66206 3.42515 0
M  V30 10135 H 997.045 2.29957 5.01821 0
M  V30 10136 H 999.521 0.595834 4.11812 0
M  V30 10137 H 998.397 0.343873 5.47822 0
M  V30 10138 H 998.658 -0.948872 4.31797 0
M  V30 10139 N 997.718 -1.45297 0.610449 0
M  V30 10140 C 999.129 -1.85715 0.191488 0
M  V30 10141 C 999.48 -1.51036 -1.25229 0
M  V30 10142 O 998.605 -0.938422 -1.94994 0
M  V30 10143 C 999.2 -3.37082 0.340747 0
M  V30 10144 C 997.759 -3.76393 -0.0235433 0
M  V30 10145 C 996.906 -2.69237 0.663849 0
M  V30 10146 H 999.857 -1.36058 0.816948 0
M  V30 10147 H 999.878 -3.78105 -0.426233 0
M  V30 10148 H 999.39 -3.62291 1.39164 0
M  V30 10149 H 997.491 -3.56801 -1.07351 0
M  V30 10150 H 997.604 -4.77653 0.372102 0
M  V30 10151 H 995.968 -2.54499 0.101204 0
M  V30 10152 H 996.751 -2.97281 1.71694 0
M  V30 10153 N 999.196 -0.349774 -1.5367 0
M  V30 10154 C 1000.16 0.491676 -2.23864 0
M  V30 10155 C 1001.16 1.02256 -1.24098 0
M  V30 10156 O 1002.35 0.910816 -1.48492 0
M  V30 10157 C 999.481 1.68557 -2.96313 0
M  V30 10158 H 1000.67 -0.12233 -2.9965 0
M  V30 10159 H 998.227 -0.101214 -1.55972 0
M  V30 10160 H 998.962 2.3381 -2.2473 0
M  V30 10161 H 998.747 1.31203 -3.69497 0
M  V30 10162 H 1000.24 2.28225 -3.49718 0
M  V30 10163 N 1000.67 1.57404 -0.0785433 0
M  V30 10164 C 1001.92 1.93361 0.58786 0
M  V30 10165 C 1002.24 0.959856 1.6974 0
M  V30 10166 O 1001.51 0.0091173 1.95898 0
M  V30 10167 H 1000.09 0.713825 0.220141 0
M  V30 10168 H 1002.75 1.94411 -0.137986 0
M  V30 10169 H 1001.85 2.95346 1.00881 0
M  V30 10170 N 1002.15 -0.195058 1.56388 0
M  V30 10171 C 1003.1 -1.24175 1.94549 0
M  V30 10172 C 1004.07 -1.45229 0.806089 0
M  V30 10173 O 1005.25 -1.58362 1.06425 0
M  V30 10174 C 1002.39 -2.58145 2.29031 0
M  V30 10175 C 1001.51 -2.44669 3.56035 0
M  V30 10176 C 1000.64 -3.71342 3.7984 0
M  V30 10177 C 999.681 -3.52699 5.0027 0
M  V30 10178 N 998.818 -4.71385 5.20328 0
M  V30 10179 H 1003.66 -0.909319 2.83788 0
M  V30 10180 H 1001.19 -0.437641 1.40439 0
M  V30 10181 H 1003.15 -3.36195 2.4704 0
M  V30 10182 H 1001.78 -2.8943 1.42933 0
M  V30 10183 H 1000.83 -1.57916 3.46073 0
M  V30 10184 H 1002.15 -2.26827 4.44242 0
M  V30 10185 H 1001.3 -4.57832 3.98088 0
M  V30 10186 H 1000.04 -3.92138 2.89964 0
M  V30 10187 H 999.045 -2.64594 4.81944 0
M  V30 10188 H 1000.27 -3.33349 5.91655 0
M  V30 10189 H 998.216 -4.92444 4.33399 0
M  V30 10190 H 998.133 -4.56368 6.02714 0
M  V30 10191 H 999.401 -5.59226 5.43035 0
M  V30 10192 N 1003.63 -1.50653 -0.462772 0
M  V30 10193 C 1004.56 -1.66286 -1.5774 0
M  V30 10194 C 1005.57 -0.544094 -1.53439 0
M  V30 10195 O 1006.76 -0.817566 -1.58676 0
M  V30 10196 C 1003.86 -1.63893 -2.96635 0
M  V30 10197 C 1003.04 -2.91939 -3.25716 0
M  V30 10198 C 1002.1 -2.82076 -4.44206 0
M  V30 10199 O 1001.12 -3.56032 -4.44106 0
M  V30 10200 N 1002.32 -1.96196 -5.4634 0
M  V30 10201 H 1005.09 -2.6243 -1.44742 0
M  V30 10202 H 1002.65 -1.48221 -0.651326 0
M  V30 10203 H 1004.64 -1.54897 -3.73884 0
M  V30 10204 H 1003.21 -0.75449 -3.03358 0
M  V30 10205 H 1002.43 -3.14998 -2.37002 0
M  V30 10206 H 1003.72 -3.7675 -3.4196 0
M  V30 10207 H 1003.12 -1.35439 -5.49247 0
M  V30 10208 H 1001.67 -1.93097 -6.2254 0
M  V30 10209 N 1005.11 0.71652 -1.4037 0
M  V30 10210 C 1006.04 1.84345 -1.43315 0
M  V30 10211 C 1007.02 1.67537 -0.294186 0
M  V30 10212 O 1008.2 1.87582 -0.502671 0
M  V30 10213 C 1005.33 3.2229 -1.29408 0
M  V30 10214 C 1004.29 3.53769 -2.40897 0
M  V30 10215 C 1003.61 4.90847 -2.12068 0
M  V30 10216 C 1004.91 3.54862 -3.83237 0
M  V30 10217 H 1006.61 1.82138 -2.37626 0
M  V30 10218 H 1004.15 0.874873 -1.14376 0
M  V30 10219 H 1006.11 4.00819 -1.30085 0
M  V30 10220 H 1004.83 3.2507 -0.31573 0
M  V30 10221 H 1003.49 2.77579 -2.39469 0
M  V30 10222 H 1003.14 4.90229 -1.12626 0
M  V30 10223 H 1002.84 5.12875 -2.86762 0
M  V30 10224 H 1004.36 5.71711 -2.14426 0
M  V30 10225 H 1005.78 4.23432 -3.86494 0
M  V30 10226 H 1004.17 3.88416 -4.57442 0
M  V30 10227 H 1005.24 2.54266 -4.12888 0
M  V30 10228 N 1006.59 1.25851 0.948643 0
M  V30 10229 C 1007.5 1.08516 2.07994 0
M  V30 10230 C 1008.51 0.0206696 1.73988 0
M  V30 10231 O 1009.69 0.222854 2.00163 0
M  V30 10232 C 1006.75 0.712145 3.39307 0
M  V30 10233 C 1005.81 1.85523 3.87143 0
M  V30 10234 C 1005.05 1.49992 5.1219 0
M  V30 10235 O 1005.27 0.398268 5.69008 0
M  V30 10236 O 1004.2 2.33215 5.54882 0
M  V30 10237 H 1008.03 2.03405 2.25522 0
M  V30 10238 H 1005.62 1.04844 1.06433 0
M  V30 10239 H 1007.5 0.516512 4.18223 0
M  V30 10240 H 1006.17 -0.207416 3.23035 0
M  V30 10241 H 1005.08 2.10578 3.09205 0
M  V30 10242 H 1006.41 2.75425 4.07924 0
M  V30 10243 N 1008.06 -1.15214 1.07534 0
M  V30 10244 C 1009.31 -1.86043 0.799629 0
M  V30 10245 C 1009.64 -1.82435 -0.674356 0
M  V30 10246 O 1008.89 -1.24379 -1.51091 0
M  V30 10247 C 1009.19 -3.34623 1.25547 0
M  V30 10248 C 1008.86 -3.58425 2.73573 0
M  V30 10249 C 1007.52 -3.6463 3.14004 0
M  V30 10250 C 1009.87 -3.67977 3.6911 0
M  V30 10251 C 1007.2 -3.779 4.48786 0
M  V30 10252 C 1009.55 -3.82771 5.03656 0
M  V30 10253 C 1008.22 -3.87222 5.43705 0
M  V30 10254 H 1007.49 -0.680781 0.292605 0
M  V30 10255 H 1010.13 -1.36149 1.34669 0
M  V30 10256 H 1008.44 -3.86737 0.627828 0
M  V30 10257 H 1010.14 -3.87836 1.01901 0
M  V30 10258 H 1006.73 -3.54238 2.41275 0
M  V30 10259 H 1010.91 -3.62482 3.39 0
M  V30 10260 H 1006.17 -3.79604 4.79281 0
M  V30 10261 H 1010.34 -3.89104 5.77556 0
M  V30 10262 H 1007.97 -3.97256 6.48145 0
M  V30 10263 N 1009.54 -0.859717 -1.32086 0
M  V30 10264 C 1010.49 -0.306042 -2.28762 0
M  V30 10265 C 1011.46 0.589801 -1.55276 0
M  V30 10266 O 1012.64 0.523633 -1.83474 0
M  V30 10267 C 1009.78 0.495256 -3.41528 0
M  V30 10268 C 1008.9 -0.426947 -4.29885 0
M  V30 10269 C 1008.03 0.387474 -5.29785 0
M  V30 10270 C 1007.07 -0.531807 -6.09785 0
M  V30 10271 N 1006.21 0.245741 -7.0167 0
M  V30 10272 H 1011.05 -1.1357 -2.7551 0
M  V30 10273 H 1008.59 -0.571468 -1.35546 0
M  V30 10274 H 1010.54 0.97551 -4.05635 0
M  V30 10275 H 1009.17 1.28969 -2.95917 0
M  V30 10276 H 1008.23 -1.02561 -3.66313 0
M  V30 10277 H 1009.54 -1.13226 -4.85779 0
M  V30 10278 H 1008.69 0.930677 -5.99519 0
M  V30 10279 H 1007.43 1.12612 -4.74521 0
M  V30 10280 H 1006.44 -1.08685 -5.3895 0
M  V30 10281 H 1007.66 -1.26915 -6.67135 0
M  V30 10282 H 1005.61 0.967391 -6.48828 0
M  V30 10283 H 1005.52 -0.400432 -7.54939 0
M  V30 10284 H 1006.79 0.770507 -7.75683 0
M  V30 10285 N 1011.02 1.44971 -0.618145 0
M  V30 10286 C 1012.27 2.02159 -0.117482 0
M  V30 10287 C 1012.6 1.48517 1.2559 0
M  V30 10288 O 1011.85 0.654192 1.84442 0
M  V30 10289 C 1012.15 3.57378 -0.0394861 0
M  V30 10290 C 1011.82 4.30218 -1.34993 0
M  V30 10291 C 1010.48 4.49835 -1.70886 0
M  V30 10292 C 1012.83 4.71768 -2.21551 0
M  V30 10293 C 1010.16 5.08258 -2.9307 0
M  V30 10294 C 1012.51 5.31543 -3.42993 0
M  V30 10295 C 1011.17 5.49381 -3.79126 0
M  V30 10296 H 1010.44 0.739752 -0.0429897 0
M  V30 10297 H 1013.09 1.73903 -0.801871 0
M  V30 10298 H 1011.4 3.84973 0.728217 0
M  V30 10299 H 1013.09 3.99343 0.364213 0
M  V30 10300 H 1009.68 4.15271 -1.06057 0
M  V30 10301 H 1013.87 4.56336 -1.95117 0
M  V30 10302 H 1009.12 5.20257 -3.21158 0
M  V30 10303 H 1013.3 5.62691 -4.10308 0
M  V30 10304 H 1010.92 5.94419 -4.73888 0
M  V30 10305 N 1012.5 0.357919 1.53482 0
M  V30 10306 C 1013.75 -0.234163 2.01142 0
M  V30 10307 C 1014.07 -1.49399 1.2454 0
M  V30 10308 O 1013.33 -1.92981 0.325111 0
M  V30 10309 C 1013.63 -0.579617 3.52669 0
M  V30 10310 C 1013.29 0.584988 4.47089 0
M  V30 10311 C 1011.96 0.904558 4.72622 0
M  V30 10312 C 1014.31 1.3656 5.02992 0
M  V30 10313 C 1011.64 2.00685 5.5131 0
M  V30 10314 C 1013.99 2.45824 5.82884 0
M  V30 10315 C 1012.65 2.78325 6.06706 0
M  V30 10316 H 1011.92 -0.0856863 0.736029 0
M  V30 10317 H 1014.57 0.488801 1.85157 0
M  V30 10318 H 1012.87 -1.38349 3.66561 0
M  V30 10319 H 1014.57 -1.04985 3.87013 0
M  V30 10320 H 1011.16 0.32587 4.27359 0
M  V30 10321 H 1015.34 1.13196 4.83219 0
M  V30 10322 H 1010.6 2.26272 5.67988 0
M  V30 10323 H 1014.77 3.06732 6.25211 0
M  V30 10324 H 1012.4 3.63862 6.67464 0
M  V30 10325 N 1013.98 -1.5736 0.0868897 0
M  V30 10326 C 1014.92 -2.13571 -0.874996 0
M  V30 10327 C 1015.89 -1.0521 -1.2853 0
M  V30 10328 O 1017.08 -1.32954 -1.3685 0
M  V30 10329 C 1014.22 -2.71386 -2.13175 0
M  V30 10330 C 1013.33 -3.93953 -1.77272 0
M  V30 10331 C 1012.47 -4.3996 -2.97671 0
M  V30 10332 C 1011.51 -5.55137 -2.57856 0
M  V30 10333 N 1010.64 -5.96034 -3.71064 0
M  V30 10334 H 1015.48 -2.95453 -0.388789 0
M  V30 10335 H 1013.02 -1.45992 -0.180242 0
M  V30 10336 H 1014.98 -3.03022 -2.86764 0
M  V30 10337 H 1013.61 -1.92245 -2.5931 0
M  V30 10338 H 1012.66 -3.68683 -0.936845 0
M  V30 10339 H 1013.97 -4.77565 -1.43989 0
M  V30 10340 H 1013.13 -4.73337 -3.79522 0
M  V30 10341 H 1011.86 -3.55232 -3.34158 0
M  V30 10342 H 1010.87 -5.21397 -1.7443 0
M  V30 10343 H 1012.09 -6.41608 -2.22522 0
M  V30 10344 H 1010.04 -5.14253 -4.07284 0
M  V30 10345 H 1009.96 -6.74423 -3.41599 0
M  V30 10346 H 1011.23 -6.34038 -4.53449 0
M  V30 10347 N 1015.45 0.186762 -1.56489 0
M  V30 10348 C 1016.4 1.23141 -1.95205 0
M  V30 10349 C 1017.37 1.44799 -0.81378 0
M  V30 10350 O 1018.56 1.57795 -1.07263 0
M  V30 10351 C 1015.7 2.56926 -2.30397 0
M  V30 10352 C 1014.81 2.42777 -3.57328 0
M  V30 10353 C 1013.94 3.69323 -3.81804 0
M  V30 10354 C 1012.98 3.50041 -5.02133 0
M  V30 10355 N 1012.12 4.68619 -5.2282 0
M  V30 10356 H 1016.96 0.894256 -2.84266 0
M  V30 10357 H 1014.5 0.430187 -1.40669 0
M  V30 10358 H 1016.46 3.3488 -2.4882 0
M  V30 10359 H 1015.09 2.88668 -1.44466 0
M  V30 10360 H 1014.14 1.56078 -3.46906 0
M  V30 10361 H 1015.45 2.24468 -4.45439 0
M  V30 10362 H 1014.6 4.55715 -4.00511 0
M  V30 10363 H 1013.34 3.90595 -2.92039 0
M  V30 10364 H 1012.35 2.62034 -4.8334 0
M  V30 10365 H 1013.57 3.30206 -5.93414 0
M  V30 10366 H 1011.52 4.90139 -4.36005 0
M  V30 10367 H 1011.44 4.53165 -6.05126 0
M  V30 10368 H 1012.7 5.56338 -5.45993 0
M  V30 10369 N 1016.93 1.50896 0.454776 0
M  V30 10370 C 1017.88 1.71497 1.57136 0
M  V30 10371 C 1018.87 0.58098 1.59126 0
M  V30 10372 O 1020.08 0.761916 1.63079 0
M  V30 10373 H 1016.46 0.54158 0.521724 0
M  V30 10374 H 1018.43 2.65129 1.36928 0
M  V30 10375 C 1017.18 1.84125 2.94947 0
M  V30 10376 H 1016.5 2.7078 2.9414 0
M  V30 10377 H 1017.94 2.02558 3.72487 0
M  V30 10378 C 1016.4 0.596752 3.31573 0
M  V30 10379 O 1016.93 -0.256632 4.00879 0
M  V30 10380 N 1015.13 0.445958 2.87158 0
M  V30 10381 H 1014.68 1.14146 2.30929 0
M  V30 10382 H 1014.64 -0.385519 3.12027 0
M  V30 10383 N 1018.41 -0.709066 1.40748 0
M  V30 10384 C 1019.66 -1.46611 1.39103 0
M  V30 10385 C 1019.98 -1.95 -0.00365366 0
M  V30 10386 O 1019.25 -1.70791 -0.959541 0
M  V30 10387 H 1017.83 -0.543954 0.511979 0
M  V30 10388 H 1020.49 -0.840141 1.75863 0
M  V30 10389 H 1019.59 -2.33581 2.06994 0
M  V30 10390 N 1019.89 -1.26353 -0.941956 0
M  V30 10391 C 1021.11 -1.14731 -1.72776 0
M  V30 10392 C 1021.54 0.293766 -1.85792 0
M  V30 10393 O 1020.9 1.21284 -1.34759 0
M  V30 10394 C 1020.95 -1.82041 -3.11277 0
M  V30 10395 O 1020.05 -1.10867 -3.97218 0
M  V30 10396 H 1019.39 -0.399823 -0.53013 0
M  V30 10397 H 1021.92 -1.67157 -1.17981 0
M  V30 10398 H 1021.93 -1.88834 -3.61671 0
M  V30 10399 H 1020.61 -2.86879 -3.0112 0
M  V30 10400 H 1019.18 -1.12044 -3.55669 0
M  V30 10401 N 1021.37 1.14642 -1.08144 0
M  V30 10402 C 1022.6 1.89484 -0.830864 0
M  V30 10403 C 1023.01 1.78443 0.616722 0
M  V30 10404 O 1022.37 1.14191 1.42361 0
M  V30 10405 C 1022.42 3.39554 -1.24039 0
M  V30 10406 O 1022.14 3.50286 -2.63119 0
M  V30 10407 C 1023.64 4.31399 -1.02029 0
M  V30 10408 H 1020.86 0.600283 -0.299835 0
M  V30 10409 H 1023.4 1.45204 -1.44001 0
M  V30 10410 H 1021.56 3.81467 -0.675407 0
M  V30 10411 H 1021.97 4.43481 -2.80045 0
M  V30 10412 H 1023.45 5.35079 -1.35625 0
M  V30 10413 H 1023.92 4.39179 0.0428697 0
M  V30 10414 H 1024.53 3.95238 -1.57057 0
M  V30 10415 N 1022.85 0.866709 1.31628 0
M  V30 10416 C 1024.09 0.472185 1.96095 0
M  V30 10417 C 1024.41 -0.979873 1.69286 0
M  V30 10418 O 1025.61 -1.48039 2.27589 0
M  V30 10419 C 1024.07 0.793468 3.51044 0
M  V30 10420 C 1023.68 2.26206 3.86697 0
M  V30 10421 C 1025.42 0.467255 4.21921 0
M  V30 10422 C 1023.33 2.52593 5.34743 0
M  V30 10423 H 1022.26 0.172846 0.733921 0
M  V30 10424 H 1024.91 1.05916 1.49847 0
M  V30 10425 H 1023.29 0.135783 3.95767 0
M  V30 10426 H 1024.47 2.96254 3.52945 0
M  V30 10427 H 1022.78 2.55399 3.28877 0
M  V30 10428 H 1025.38 0.641669 5.30836 0
M  V30 10429 H 1025.72 -0.592065 4.12068 0
M  V30 10430 H 1026.25 1.08134 3.82821 0
M  V30 10431 H 1022.99 3.57196 5.49628 0
M  V30 10432 H 1022.51 1.87136 5.6986 0
M  V30 10433 H 1024.19 2.37156 6.01968 0
M  V30 10434 N 1024.32 -1.44642 0.625825 0
M  V30 10435 C 1025.55 -2.06458 0.135116 0
M  V30 10436 C 1025.97 -1.46729 -1.18811 0
M  V30 10437 O 1025.32 -0.58818 -1.72762 0
M  V30 10438 C 1025.37 -3.61499 0.00850114 0
M  V30 10439 O 1025.1 -4.19002 1.2794 0
M  V30 10440 C 1026.6 -4.40339 -0.511527 0
M  V30 10441 H 1023.82 -0.666541 0.0772294 0
M  V30 10442 H 1026.36 -1.85597 0.858726 0
M  V30 10443 H 1024.52 -3.81641 -0.665522 0
M  V30 10444 H 1024.93 -5.12385 1.12081 0
M  V30 10445 H 1026.4 -5.49262 -0.549149 0
M  V30 10446 H 1026.88 -4.11409 -1.53752 0
M  V30 10447 H 1027.49 -4.25104 0.129066 0
M  V30 10448 N 1025.8 -0.366053 -1.5329 0
M  V30 10449 C 1027.05 0.216398 -2.02246 0
M  V30 10450 C 1027.4 1.46384 -1.24858 0
M  V30 10451 O 1026.7 1.88667 -0.333977 0
M  V30 10452 C 1026.89 0.560906 -3.52971 0
M  V30 10453 C 1026.72 -0.651598 -4.44954 0
M  V30 10454 C 1025.49 -1.16381 -4.91715 0
M  V30 10455 C 1027.69 -1.51695 -4.91419 0
M  V30 10456 N 1025.67 -2.33629 -5.67706 0
M  V30 10457 C 1027.04 -2.53608 -5.65759 0
M  V30 10458 C 1029.09 -1.53977 -4.73493 0
M  V30 10459 C 1027.8 -3.57661 -6.24076 0
M  V30 10460 C 1029.82 -2.56923 -5.32677 0
M  V30 10461 C 1029.19 -3.5756 -6.06902 0
M  V30 10462 H 1025.28 0.0418889 -0.780877 0
M  V30 10463 H 1027.87 -0.510704 -1.87883 0
M  V30 10464 H 1026.04 1.25708 -3.67494 0
M  V30 10465 H 1027.77 1.12849 -3.88648 0
M  V30 10466 H 1024.53 -0.728374 -4.67965 0
M  V30 10467 H 1024.95 -2.92891 -6.10364 0
M  V30 10468 H 1029.59 -0.775265 -4.15631 0
M  V30 10469 H 1027.31 -4.34993 -6.81034 0
M  V30 10470 H 1030.9 -2.59544 -5.207 0
M  V30 10471 H 1029.78 -4.35912 -6.51882 0
M  V30 10472 N 1027.28 1.57312 -0.0952337 0
M  V30 10473 C 1028.19 2.17556 0.877877 0
M  V30 10474 C 1029.21 1.14505 1.31014 0
M  V30 10475 O 1030.38 1.46876 1.37802 0
M  V30 10476 C 1027.45 2.74413 2.11892 0
M  V30 10477 C 1026.51 3.92419 1.74085 0
M  V30 10478 C 1025.74 4.46556 2.92273 0
M  V30 10479 O 1025.96 3.99631 4.07002 0
M  V30 10480 O 1024.9 5.37576 2.70732 0
M  V30 10481 H 1028.72 3.01116 0.395312 0
M  V30 10482 H 1026.31 1.48841 0.129123 0
M  V30 10483 H 1028.19 3.10754 2.84622 0
M  V30 10484 H 1026.87 1.93899 2.59201 0
M  V30 10485 H 1025.77 3.6089 0.985346 0
M  V30 10486 H 1027.11 4.74298 1.31539 0
M  V30 10487 N 1028.76 -0.17846 1.56586 0
M  V30 10488 C 1029.98 -0.916061 1.86073 0
M  V30 10489 C 1030.41 -1.75349 0.680754 0
M  V30 10490 O 1029.77 -1.77479 -0.37028 0
M  V30 10491 C 1029.81 -1.77445 3.1392 0
M  V30 10492 O 1028.92 -2.87524 2.95641 0
M  V30 10493 H 1028.26 -0.257031 0.612234 0
M  V30 10494 H 1030.79 -0.178755 2.03818 0
M  V30 10495 H 1030.8 -2.1758 3.45142 0
M  V30 10496 H 1029.47 -1.15927 3.99417 0
M  V30 10497 H 1028.05 -2.51023 2.75757 0
M  V30 10498 N 1030.24 -1.51135 -0.446768 0
M  V30 10499 C 1031.48 -1.63013 -1.19461 0
M  V30 10500 C 1031.8 -0.344067 -1.91941 0
M  V30 10501 O 1031.07 0.639666 -1.85162 0
M  V30 10502 H 1029.65 -0.600757 -0.443959 0
M  V30 10503 H 1032.32 -1.88024 -0.513137 0
M  V30 10504 H 1031.41 -2.45322 -1.92933 0
M  V30 10505 N 1031.71 0.701592 -1.41122 0
M  V30 10506 C 1032.94 1.49553 -1.43696 0
M  V30 10507 C 1033.36 1.88053 -0.0421865 0
M  V30 10508 O 1032.72 1.54223 0.953144 0
M  V30 10509 C 1032.77 2.73834 -2.34622 0
M  V30 10510 O 1031.87 3.71088 -1.7991 0
M  V30 10511 H 1031.21 0.450352 -0.487933 0
M  V30 10512 H 1033.74 0.862886 -1.85514 0
M  V30 10513 H 1033.75 3.22209 -2.5029 0
M  V30 10514 H 1032.43 2.45149 -3.35969 0
M  V30 10515 H 1031.01 3.29994 -1.73661 0
M  V30 10516 N 1033.19 1.2685 0.935242 0
M  V30 10517 C 1034.14 1.08746 2.05614 0
M  V30 10518 C 1035.13 0.012681 1.69395 0
M  V30 10519 O 1036.34 0.169822 1.79197 0
M  V30 10520 H 1032.71 0.33485 0.673335 0
M  V30 10521 H 1034.69 2.03725 2.18033 0
M  V30 10522 C 1033.43 0.74346 3.39659 0
M  V30 10523 H 1032.76 1.56236 3.68008 0
M  V30 10524 H 1034.2 0.656607 4.18885 0
M  V30 10525 C 1032.66 -0.551751 3.32351 0
M  V30 10526 O 1033.19 -1.58836 3.68963 0
M  V30 10527 N 1031.39 -0.544583 2.85452 0
M  V30 10528 H 1030.94 0.29939 2.55854 0
M  V30 10529 H 1030.9 -1.41129 2.80945 0
M  V30 10530 N 1034.67 -1.14067 1.0875 0
M  V30 10531 C 1035.62 -2.17302 0.690195 0
M  V30 10532 C 1036.6 -1.58229 -0.291948 0
M  V30 10533 O 1037.8 -1.76698 -0.103411 0
M  V30 10534 C 1034.93 -3.4314 0.104835 0
M  V30 10535 C 1034.01 -4.09235 1.11298 0
M  V30 10536 N 1034.4 -4.50601 2.29765 0
M  V30 10537 C 1032.7 -4.35775 0.949535 0
M  V30 10538 C 1033.4 -5.02029 2.93839 0
M  V30 10539 N 1032.38 -4.96457 2.21431 0
M  V30 10540 H 1036.18 -2.47031 1.59226 0
M  V30 10541 H 1033.69 -1.30788 0.962722 0
M  V30 10542 H 1035.69 -4.16431 -0.197777 0
M  V30 10543 H 1034.35 -3.14888 -0.792172 0
M  V30 10544 H 1035.36 -4.43529 2.67399 0
M  V30 10545 H 1032.04 -4.17364 0.106627 0
M  V30 10546 H 1033.43 -5.43885 3.94511 0
M  V30 10547 N 1036.15 -0.873678 -1.31166 0
M  V30 10548 C 1037.38 -0.501043 -2.00742 0
M  V30 10549 C 1037.79 0.907477 -1.65561 0
M  V30 10550 O 1037.15 1.59507 -0.886771 0
M  V30 10551 C 1037.2 -0.652877 -3.55556 0
M  V30 10552 O 1036.92 -2.00593 -3.89479 0
M  V30 10553 C 1038.42 -0.281742 -4.42404 0
M  V30 10554 H 1035.64 -0.194829 -0.642092 0
M  V30 10555 H 1038.19 -1.17587 -1.67313 0
M  V30 10556 H 1036.34 -0.0255627 -3.87392 0
M  V30 10557 H 1036.75 -2.01638 -4.84193 0
M  V30 10558 H 1038.23 -0.43892 -5.50252 0
M  V30 10559 H 1038.71 0.779389 -4.32229 0
M  V30 10560 H 1039.31 -0.88491 -4.15992 0
M  V30 10561 N 1037.63 1.44308 -0.633487 0
M  V30 10562 C 1038.87 2.02023 -0.138917 0
M  V30 10563 C 1039.2 1.49841 1.24008 0
M  V30 10564 O 1038.46 0.673718 1.83738 0
M  V30 10565 C 1038.76 3.57316 -0.0773886 0
M  V30 10566 C 1038.42 4.28762 -1.39548 0
M  V30 10567 C 1037.08 4.47997 -1.75648 0
M  V30 10568 C 1039.44 4.69391 -2.26542 0
M  V30 10569 C 1036.76 5.05121 -2.98445 0
M  V30 10570 C 1039.12 5.27876 -3.48612 0
M  V30 10571 C 1037.78 5.45329 -3.84932 0
M  V30 10572 H 1037.05 0.739254 -0.0508333 0
M  V30 10573 H 1039.7 1.73043 -0.820271 0
M  V30 10574 H 1038 3.85724 0.687345 0
M  V30 10575 H 1039.7 3.99706 0.321837 0
M  V30 10576 H 1036.29 4.14122 -1.10456 0
M  V30 10577 H 1040.47 4.54241 -1.99946 0
M  V30 10578 H 1035.73 5.16821 -3.26658 0
M  V30 10579 H 1039.9 5.58307 -4.16253 0
M  V30 10580 H 1037.53 5.8936 -4.80166 0
M  V30 10581 N 1039.1 0.374177 1.53094 0
M  V30 10582 C 1040.33 -0.213325 2.05797 0
M  V30 10583 C 1040.75 -1.41753 1.24706 0
M  V30 10584 O 1040.1 -1.80183 0.289868 0
M  V30 10585 C 1040.16 -0.598367 3.56513 0
M  V30 10586 O 1039.88 0.557983 4.34532 0
M  V30 10587 C 1041.38 -1.24334 4.25507 0
M  V30 10588 H 1038.6 -0.0357398 0.670048 0
M  V30 10589 H 1041.14 0.535035 1.97377 0
M  V30 10590 H 1039.3 -1.29663 3.65056 0
M  V30 10591 H 1039.71 0.244911 5.23928 0
M  V30 10592 H 1041.18 -1.46325 5.32253 0
M  V30 10593 H 1041.66 -2.20622 3.79766 0
M  V30 10594 H 1042.27 -0.586269 4.2124 0
M  V30 10595 N 1040.58 -1.57259 0.103575 0
M  V30 10596 C 1041.81 -1.99 -0.566275 0
M  V30 10597 C 1042.23 -0.982909 -1.61197 0
M  V30 10598 O 1041.58 0.026345 -1.82481 0
M  V30 10599 C 1041.63 -3.40778 -1.20635 0
M  V30 10600 O 1041.35 -4.37632 -0.202472 0
M  V30 10601 C 1042.86 -3.97567 -1.961 0
M  V30 10602 H 1040.08 -0.653751 -0.151164 0
M  V30 10603 H 1042.62 -2.03658 0.185365 0
M  V30 10604 H 1040.77 -3.37107 -1.90886 0
M  V30 10605 H 1041.19 -5.2026 -0.665535 0
M  V30 10606 H 1042.66 -4.98897 -2.36233 0
M  V30 10607 H 1043.14 -3.35853 -2.83018 0
M  V30 10608 H 1043.75 -4.04737 -1.30645 0
M  V30 10609 N 1042.06 0.170153 -1.56679 0
M  V30 10610 C 1043.47 0.732502 -1.7173 0
M  V30 10611 C 1043.82 1.82736 -0.71428 0
M  V30 10612 O 1042.95 2.16044 0.124102 0
M  V30 10613 C 1043.54 1.33548 -3.11368 0
M  V30 10614 C 1042.1 1.84464 -3.281 0
M  V30 10615 C 1041.25 0.724069 -2.6768 0
M  V30 10616 H 1044.2 -0.0552543 -1.58604 0
M  V30 10617 H 1044.22 2.20519 -3.10083 0
M  V30 10618 H 1043.73 0.5384 -3.84347 0
M  V30 10619 H 1041.83 2.66813 -2.6008 0
M  V30 10620 H 1041.95 1.98928 -4.35849 0
M  V30 10621 H 1040.31 1.14481 -2.27522 0
M  V30 10622 H 1041.09 -0.0611861 -3.43245 0
M  V30 10623 N 1043.54 1.5137 0.438746 0
M  V30 10624 C 1044.5 1.71993 1.51496 0
M  V30 10625 C 1045.5 0.589978 1.49586 0
M  V30 10626 O 1046.69 0.857505 1.51633 0
M  V30 10627 C 1043.82 1.77508 2.91039 0
M  V30 10628 H 1045.02 2.68041 1.34514 0
M  V30 10629 H 1042.57 1.41338 0.667326 0
M  V30 10630 H 1043.3 0.832698 3.13427 0
M  V30 10631 H 1043.09 2.59627 2.9383 0
M  V30 10632 H 1044.58 1.95308 3.69113 0
M  V30 10633 N 1045.02 -0.694098 1.41492 0
M  V30 10634 C 1046.24 -1.48789 1.44488 0
M  V30 10635 C 1046.67 -1.88028 0.0521588 0
M  V30 10636 O 1046.02 -1.54727 -0.944952 0
M  V30 10637 C 1046.07 -2.72586 2.3607 0
M  V30 10638 O 1045.18 -3.70128 1.81876 0
M  V30 10639 H 1044.52 -0.447758 0.490315 0
M  V30 10640 H 1047.05 -0.853036 1.85969 0
M  V30 10641 H 1047.06 -3.20877 2.51995 0
M  V30 10642 H 1045.73 -2.43363 3.37264 0
M  V30 10643 H 1044.31 -3.29069 1.75408 0
M  V30 10644 N 1046.49 -1.27344 -0.928501 0
M  V30 10645 C 1047.74 -1.13411 -1.67279 0
M  V30 10646 C 1048.06 0.320698 -1.92345 0
M  V30 10647 O 1047.33 1.2245 -1.52915 0
M  V30 10648 H 1045.91 -0.416712 -0.619968 0
M  V30 10649 H 1048.58 -1.5986 -1.11493 0
M  V30 10650 H 1047.67 -1.66256 -2.64131 0
M  V30 10651 N 1047.97 1.13488 -1.09353 0
M  V30 10652 C 1049.2 1.88592 -0.850915 0
M  V30 10653 C 1049.62 1.79087 0.597761 0
M  V30 10654 O 1048.97 1.15695 1.41142 0
M  V30 10655 C 1049.02 3.38219 -1.27633 0
M  V30 10656 O 1048.74 3.47476 -2.66819 0
M  V30 10657 C 1050.25 4.30293 -1.06598 0
M  V30 10658 H 1047.47 0.597069 -0.306185 0
M  V30 10659 H 1050.01 1.43668 -1.45533 0
M  V30 10660 H 1048.16 3.80729 -0.715828 0
M  V30 10661 H 1048.58 4.40485 -2.84733 0
M  V30 10662 H 1050.05 5.33611 -1.41293 0
M  V30 10663 H 1050.53 4.392 -0.0037135 0
M  V30 10664 H 1051.14 3.9355 -1.6124 0
M  V30 10665 N 1049.45 0.880621 1.30701 0
M  V30 10666 C 1050.41 0.349087 2.26526 0
M  V30 10667 C 1051.41 -0.505973 1.52632 0
M  V30 10668 O 1052.6 -0.313751 1.71351 0
M  V30 10669 C 1049.74 -0.503023 3.37168 0
M  V30 10670 H 1050.93 1.19516 2.75056 0
M  V30 10671 H 1048.48 0.657107 1.41816 0
M  V30 10672 H 1049.22 -1.36986 2.93948 0
M  V30 10673 H 1049 0.109389 3.91947 0
M  V30 10674 H 1050.49 -0.866845 4.08504 0
M  V30 10675 N 1050.93 -1.4397 0.641131 0
M  V30 10676 C 1052.16 -2.06303 0.157006 0
M  V30 10677 C 1052.57 -1.47981 -1.17248 0
M  V30 10678 O 1051.93 -0.606471 -1.72128 0
M  V30 10679 C 1051.98 -3.6147 0.0468425 0
M  V30 10680 O 1051.7 -4.17622 1.32376 0
M  V30 10681 C 1053.2 -4.40857 -0.464795 0
M  V30 10682 H 1050.42 -0.665684 0.0842946 0
M  V30 10683 H 1052.97 -1.84675 0.878363 0
M  V30 10684 H 1051.12 -3.82325 -0.625006 0
M  V30 10685 H 1051.54 -5.11167 1.17509 0
M  V30 10686 H 1053.01 -5.49813 -0.490862 0
M  V30 10687 H 1053.49 -4.13016 -1.4938 0
M  V30 10688 H 1054.09 -4.24943 0.174146 0
M  V30 10689 N 1052.41 -0.382291 -1.52893 0
M  V30 10690 C 1053.65 0.202433 -2.01787 0
M  V30 10691 C 1053.99 1.47044 -1.26853 0
M  V30 10692 O 1053.26 1.91007 -0.366969 0
M  V30 10693 C 1053.54 0.477471 -3.5692 0
M  V30 10694 C 1053.4 -0.805339 -4.42532 0
M  V30 10695 C 1054.72 1.27106 -4.21346 0
M  V30 10696 H 1051.84 0.0720998 -0.733465 0
M  V30 10697 H 1054.48 -0.510478 -1.83014 0
M  V30 10698 H 1052.63 1.08478 -3.73048 0
M  V30 10699 H 1054.3 -1.4424 -4.3817 0
M  V30 10700 H 1052.54 -1.42216 -4.09826 0
M  V30 10701 H 1053.21 -0.567635 -5.49074 0
M  V30 10702 H 1055.69 0.757161 -4.09153 0
M  V30 10703 H 1054.57 1.43225 -5.29885 0
M  V30 10704 H 1054.83 2.28431 -3.78513 0
M  V30 10705 N 1053.89 1.57202 -0.111913 0
M  V30 10706 C 1055.11 1.99297 0.555713 0
M  V30 10707 C 1055.53 0.991444 1.60673 0
M  V30 10708 O 1054.89 -0.0166672 1.82492 0
M  V30 10709 C 1054.94 3.41413 1.18826 0
M  V30 10710 O 1054.66 4.37733 0.179261 0
M  V30 10711 C 1056.16 3.98602 1.93989 0
M  V30 10712 H 1053.38 0.654543 0.147695 0
M  V30 10713 H 1055.92 2.03557 -0.196163 0
M  V30 10714 H 1054.08 3.38115 1.89096 0
M  V30 10715 H 1054.49 5.20606 0.637935 0
M  V30 10716 H 1055.97 5.00143 2.33584 0
M  V30 10717 H 1056.44 3.37349 2.81233 0
M  V30 10718 H 1057.05 4.05424 1.28497 0
M  V30 10719 N 1055.36 -0.161842 1.56767 0
M  V30 10720 C 1056.61 -0.878224 1.82798 0
M  V30 10721 C 1056.94 -1.81481 0.691242 0
M  V30 10722 O 1056.22 -1.92075 -0.30618 0
M  V30 10723 C 1056.5 -1.66565 3.19262 0
M  V30 10724 C 1056.35 -0.751551 4.43477 0
M  V30 10725 C 1057.67 -2.63134 3.52773 0
M  V30 10726 H 1054.79 -0.317828 0.664947 0
M  V30 10727 H 1057.43 -0.14402 1.89453 0
M  V30 10728 H 1055.58 -2.29157 3.13719 0
M  V30 10729 H 1057.26 -0.137783 4.61094 0
M  V30 10730 H 1055.5 -0.0601785 4.33758 0
M  V30 10731 H 1056.17 -1.33823 5.35533 0
M  V30 10732 H 1058.65 -2.10666 3.5883 0
M  V30 10733 H 1057.52 -3.15289 4.49315 0
M  V30 10734 H 1057.78 -3.43786 2.77963 0
M  V30 10735 N 1056.84 -1.516 -0.430713 0
M  V30 10736 C 1057.79 -1.73975 -1.54387 0
M  V30 10737 C 1058.78 -0.606222 -1.58181 0
M  V30 10738 O 1059.99 -0.787764 -1.61846 0
M  V30 10739 H 1056.36 -0.549811 -0.513041 0
M  V30 10740 H 1058.34 -2.67274 -1.32692 0
M  V30 10741 C 1057.08 -1.88794 -2.9198 0
M  V30 10742 H 1056.41 -2.75425 -2.89795 0
M  V30 10743 H 1057.85 -2.08458 -3.69217 0
M  V30 10744 C 1056.31 -0.649427 -3.30581 0
M  V30 10745 O 1056.84 0.192823 -4.01237 0
M  V30 10746 N 1055.04 -0.491586 -2.86412 0
M  V30 10747 H 1054.59 -1.17806 -2.29084 0
M  V30 10748 H 1054.55 0.33583 -3.12601 0
M  V30 10749 N 1058.32 0.686584 -1.41858 0
M  V30 10750 C 1059.57 1.44738 -1.42908 0
M  V30 10751 C 1059.92 1.92357 -0.0404705 0
M  V30 10752 O 1059.21 1.67221 0.935287 0
M  V30 10753 C 1059.41 2.66793 -2.37816 0
M  V30 10754 C 1059.24 2.31114 -3.85767 0
M  V30 10755 C 1058.01 2.21043 -4.54388 0
M  V30 10756 C 1060.2 1.93512 -4.76505 0
M  V30 10757 N 1058.19 1.78344 -5.87424 0
M  V30 10758 C 1059.56 1.61642 -5.98558 0
M  V30 10759 C 1061.61 1.80401 -4.64069 0
M  V30 10760 C 1060.32 1.17977 -7.09559 0
M  V30 10761 C 1062.34 1.38141 -5.7504 0
M  V30 10762 C 1061.7 1.07186 -6.96197 0
M  V30 10763 H 1057.8 0.526577 -0.578136 0
M  V30 10764 H 1060.39 0.793483 -1.77797 0
M  V30 10765 H 1058.56 3.29889 -2.05007 0
M  V30 10766 H 1060.29 3.33318 -2.29524 0
M  V30 10767 H 1057.04 2.39731 -4.08443 0
M  V30 10768 H 1057.47 1.59451 -6.57955 0
M  V30 10769 H 1062.11 2.02983 -3.70888 0
M  V30 10770 H 1059.83 0.941397 -8.02598 0
M  V30 10771 H 1063.41 1.28533 -5.67425 0
M  V30 10772 H 1062.29 0.749804 -7.80607 0
M  V30 10773 N 1059.8 1.27835 0.921735 0
M  V30 10774 C 1060.73 1.06874 2.02758 0
M  V30 10775 C 1061.74 0.0229418 1.62784 0
M  V30 10776 O 1062.93 0.265145 1.7652 0
M  V30 10777 C 1060.03 0.60037 3.3354 0
M  V30 10778 C 1059.2 1.71979 4.02172 0
M  V30 10779 C 1058.26 1.24615 5.11231 0
M  V30 10780 O 1057.29 1.94692 5.34868 0
M  V30 10781 N 1058.49 0.105021 5.80405 0
M  V30 10782 H 1061.26 2.02105 2.213 0
M  V30 10783 H 1058.82 1.19481 1.09251 0
M  V30 10784 H 1060.81 0.267281 4.03816 0
M  V30 10785 H 1059.38 -0.258872 3.11526 0
M  V30 10786 H 1058.6 2.22287 3.25549 0
M  V30 10787 H 1059.89 2.47092 4.44773 0
M  V30 10788 H 1059.29 -0.479745 5.63662 0
M  V30 10789 H 1057.84 -0.168846 6.51581 0
M  V30 10790 O 1061.31 -1.05627 1.22169 0
M  V30 10791 H 1062.01 -1.66744 0.98571 0
M  V30 END ATOM
M  V30 BEGIN BOND
M  V30 END BOND
M  V30 END CTAB
M  END
$$$$
